# Generated by pormake.
# Topology etf, (3)-cn, num edge types: 1
# Building blocks:
#     Node 0, Type 0, BuildingBlock: WUSLED_clean_sbu_0, # of connection points: 3
#     Node 1, Type 0, BuildingBlock: WUSLED_clean_sbu_0, # of connection points: 3
#     Node 2, Type 0, BuildingBlock: WUSLED_clean_sbu_0, # of connection points: 3
#     Node 3, Type 0, BuildingBlock: WUSLED_clean_sbu_0, # of connection points: 3
#     Node 4, Type 0, BuildingBlock: WUSLED_clean_sbu_0, # of connection points: 3
#     Node 5, Type 0, BuildingBlock: WUSLED_clean_sbu_0, # of connection points: 3
#     Node 6, Type 0, BuildingBlock: WUSLED_clean_sbu_0, # of connection points: 3
#     Node 7, Type 0, BuildingBlock: WUSLED_clean_sbu_0, # of connection points: 3
#     Node 8, Type 0, BuildingBlock: WUSLED_clean_sbu_0, # of connection points: 3
#     Node 9, Type 0, BuildingBlock: WUSLED_clean_sbu_0, # of connection points: 3
#     Node 10, Type 0, BuildingBlock: WUSLED_clean_sbu_0, # of connection points: 3
#     Node 11, Type 0, BuildingBlock: WUSLED_clean_sbu_0, # of connection points: 3
#     Node 12, Type 0, BuildingBlock: WUSLED_clean_sbu_0, # of connection points: 3
#     Node 13, Type 0, BuildingBlock: WUSLED_clean_sbu_0, # of connection points: 3
#     Node 14, Type 0, BuildingBlock: WUSLED_clean_sbu_0, # of connection points: 3
#     Node 15, Type 0, BuildingBlock: WUSLED_clean_sbu_0, # of connection points: 3
#     Node 16, Type 0, BuildingBlock: WUSLED_clean_sbu_0, # of connection points: 3
#     Node 17, Type 0, BuildingBlock: WUSLED_clean_sbu_0, # of connection points: 3
#     Node 18, Type 0, BuildingBlock: WUSLED_clean_sbu_0, # of connection points: 3
#     Node 19, Type 0, BuildingBlock: WUSLED_clean_sbu_0, # of connection points: 3
#     Node 20, Type 0, BuildingBlock: WUSLED_clean_sbu_0, # of connection points: 3
#     Node 21, Type 0, BuildingBlock: WUSLED_clean_sbu_0, # of connection points: 3
#     Node 22, Type 0, BuildingBlock: WUSLED_clean_sbu_0, # of connection points: 3
#     Node 23, Type 0, BuildingBlock: WUSLED_clean_sbu_0, # of connection points: 3
#     Node 24, Type 0, BuildingBlock: WUSLED_clean_sbu_0, # of connection points: 3
#     Node 25, Type 0, BuildingBlock: WUSLED_clean_sbu_0, # of connection points: 3
#     Node 26, Type 0, BuildingBlock: WUSLED_clean_sbu_0, # of connection points: 3
#     Node 27, Type 0, BuildingBlock: WUSLED_clean_sbu_0, # of connection points: 3
#     Node 28, Type 0, BuildingBlock: WUSLED_clean_sbu_0, # of connection points: 3
#     Node 29, Type 0, BuildingBlock: WUSLED_clean_sbu_0, # of connection points: 3
#     Node 30, Type 0, BuildingBlock: WUSLED_clean_sbu_0, # of connection points: 3
#     Node 31, Type 0, BuildingBlock: WUSLED_clean_sbu_0, # of connection points: 3
#     Node 32, Type 0, BuildingBlock: WUSLED_clean_sbu_0, # of connection points: 3
#     Node 33, Type 0, BuildingBlock: WUSLED_clean_sbu_0, # of connection points: 3
#     Node 34, Type 0, BuildingBlock: WUSLED_clean_sbu_0, # of connection points: 3
#     Node 35, Type 0, BuildingBlock: WUSLED_clean_sbu_0, # of connection points: 3
#     Edge 36, Type (0, 0), BuildingBlock: UVAHIK_clean_linker_0, # of connection points: 2
#     Edge 37, Type (0, 0), BuildingBlock: UVAHIK_clean_linker_0, # of connection points: 2
#     Edge 38, Type (0, 0), BuildingBlock: UVAHIK_clean_linker_0, # of connection points: 2
#     Edge 39, Type (0, 0), BuildingBlock: UVAHIK_clean_linker_0, # of connection points: 2
#     Edge 40, Type (0, 0), BuildingBlock: UVAHIK_clean_linker_0, # of connection points: 2
#     Edge 41, Type (0, 0), BuildingBlock: UVAHIK_clean_linker_0, # of connection points: 2
#     Edge 42, Type (0, 0), BuildingBlock: UVAHIK_clean_linker_0, # of connection points: 2
#     Edge 43, Type (0, 0), BuildingBlock: UVAHIK_clean_linker_0, # of connection points: 2
#     Edge 44, Type (0, 0), BuildingBlock: UVAHIK_clean_linker_0, # of connection points: 2
#     Edge 45, Type (0, 0), BuildingBlock: UVAHIK_clean_linker_0, # of connection points: 2
#     Edge 46, Type (0, 0), BuildingBlock: UVAHIK_clean_linker_0, # of connection points: 2
#     Edge 47, Type (0, 0), BuildingBlock: UVAHIK_clean_linker_0, # of connection points: 2
#     Edge 48, Type (0, 0), BuildingBlock: UVAHIK_clean_linker_0, # of connection points: 2
#     Edge 49, Type (0, 0), BuildingBlock: UVAHIK_clean_linker_0, # of connection points: 2
#     Edge 50, Type (0, 0), BuildingBlock: UVAHIK_clean_linker_0, # of connection points: 2
#     Edge 51, Type (0, 0), BuildingBlock: UVAHIK_clean_linker_0, # of connection points: 2
#     Edge 52, Type (0, 0), BuildingBlock: UVAHIK_clean_linker_0, # of connection points: 2
#     Edge 53, Type (0, 0), BuildingBlock: UVAHIK_clean_linker_0, # of connection points: 2
#     Edge 54, Type (0, 0), BuildingBlock: UVAHIK_clean_linker_0, # of connection points: 2
#     Edge 55, Type (0, 0), BuildingBlock: UVAHIK_clean_linker_0, # of connection points: 2
#     Edge 56, Type (0, 0), BuildingBlock: UVAHIK_clean_linker_0, # of connection points: 2
#     Edge 57, Type (0, 0), BuildingBlock: UVAHIK_clean_linker_0, # of connection points: 2
#     Edge 58, Type (0, 0), BuildingBlock: UVAHIK_clean_linker_0, # of connection points: 2
#     Edge 59, Type (0, 0), BuildingBlock: UVAHIK_clean_linker_0, # of connection points: 2
#     Edge 60, Type (0, 0), BuildingBlock: UVAHIK_clean_linker_0, # of connection points: 2
#     Edge 61, Type (0, 0), BuildingBlock: UVAHIK_clean_linker_0, # of connection points: 2
#     Edge 62, Type (0, 0), BuildingBlock: UVAHIK_clean_linker_0, # of connection points: 2
#     Edge 63, Type (0, 0), BuildingBlock: UVAHIK_clean_linker_0, # of connection points: 2
#     Edge 64, Type (0, 0), BuildingBlock: UVAHIK_clean_linker_0, # of connection points: 2
#     Edge 65, Type (0, 0), BuildingBlock: UVAHIK_clean_linker_0, # of connection points: 2
#     Edge 66, Type (0, 0), BuildingBlock: UVAHIK_clean_linker_0, # of connection points: 2
#     Edge 67, Type (0, 0), BuildingBlock: UVAHIK_clean_linker_0, # of connection points: 2
#     Edge 68, Type (0, 0), BuildingBlock: UVAHIK_clean_linker_0, # of connection points: 2
#     Edge 69, Type (0, 0), BuildingBlock: UVAHIK_clean_linker_0, # of connection points: 2
#     Edge 70, Type (0, 0), BuildingBlock: UVAHIK_clean_linker_0, # of connection points: 2
#     Edge 71, Type (0, 0), BuildingBlock: UVAHIK_clean_linker_0, # of connection points: 2
#     Edge 72, Type (0, 0), BuildingBlock: UVAHIK_clean_linker_0, # of connection points: 2
#     Edge 73, Type (0, 0), BuildingBlock: UVAHIK_clean_linker_0, # of connection points: 2
#     Edge 74, Type (0, 0), BuildingBlock: UVAHIK_clean_linker_0, # of connection points: 2
#     Edge 75, Type (0, 0), BuildingBlock: UVAHIK_clean_linker_0, # of connection points: 2
#     Edge 76, Type (0, 0), BuildingBlock: UVAHIK_clean_linker_0, # of connection points: 2
#     Edge 77, Type (0, 0), BuildingBlock: UVAHIK_clean_linker_0, # of connection points: 2
#     Edge 78, Type (0, 0), BuildingBlock: UVAHIK_clean_linker_0, # of connection points: 2
#     Edge 79, Type (0, 0), BuildingBlock: UVAHIK_clean_linker_0, # of connection points: 2
#     Edge 80, Type (0, 0), BuildingBlock: UVAHIK_clean_linker_0, # of connection points: 2
#     Edge 81, Type (0, 0), BuildingBlock: UVAHIK_clean_linker_0, # of connection points: 2
#     Edge 82, Type (0, 0), BuildingBlock: UVAHIK_clean_linker_0, # of connection points: 2
#     Edge 83, Type (0, 0), BuildingBlock: UVAHIK_clean_linker_0, # of connection points: 2
#     Edge 84, Type (0, 0), BuildingBlock: UVAHIK_clean_linker_0, # of connection points: 2
#     Edge 85, Type (0, 0), BuildingBlock: UVAHIK_clean_linker_0, # of connection points: 2
#     Edge 86, Type (0, 0), BuildingBlock: UVAHIK_clean_linker_0, # of connection points: 2
#     Edge 87, Type (0, 0), BuildingBlock: UVAHIK_clean_linker_0, # of connection points: 2
#     Edge 88, Type (0, 0), BuildingBlock: UVAHIK_clean_linker_0, # of connection points: 2
#     Edge 89, Type (0, 0), BuildingBlock: UVAHIK_clean_linker_0, # of connection points: 2
# Relax obj value: 0.003
# Max RMSD: 0.005
# Mean RMSD: 0.005
data_MOF--net-etf--node1-WUSLED_clean_sbu_0--edge1-UVAHIK_clean_linker_0
_symmetry_space_group_name_H-M    P1
_symmetry_Int_Tables_number       1
_symmetry_cell_setting            triclinic
loop_
_symmetry_equiv_pos_as_xyz
'x, y, z'
_cell_length_a     160.03106
_cell_length_b     160.15716
_cell_length_c     91.367091
_cell_angle_alpha  89.939819
_cell_angle_beta   89.97912
_cell_angle_gamma 120.01324
loop_
_atom_site_label
_atom_site_type_symbol
_atom_site_fract_x
_atom_site_fract_y
_atom_site_fract_z
_atom_type_partial_charge
C0 C 0.08473 0.30115 0.25857 0.0
C1 C 0.07964 0.29894 0.24531 0.0
C2 C 0.06432 0.29096 0.25852 0.0
C3 C 0.06953 0.29388 0.24528 0.0
C4 C 0.06949 0.29323 0.27177 0.0
C5 C 0.0796 0.29827 0.27178 0.0
U6 U 0.10883 0.31504 0.23875 0.0
O7 O 0.12229 0.32807 0.24508 0.0
O8 O 0.12226 0.31453 0.24126 0.0
C9 C 0.12724 0.32354 0.24562 0.0
C10 C 0.09536 0.30646 0.25875 0.0
C11 C 0.13339 0.32537 0.25862 0.0
C12 C 0.1363 0.32768 0.28486 0.0
C13 C 0.1301 0.3255 0.27283 0.0
C14 C 0.14904 0.32943 0.26864 0.0
C15 C 0.14589 0.32976 0.2829 0.0
C16 C 0.14286 0.32727 0.25666 0.0
C17 C 0.10792 0.31841 0.1967 0.0
C18 C 0.11551 0.33119 0.17844 0.0
C19 C 0.10953 0.31459 0.17141 0.0
C20 C 0.10655 0.31165 0.18582 0.0
C21 C 0.11389 0.32438 0.16746 0.0
C22 C 0.11255 0.32824 0.19288 0.0
C23 C 0.10364 0.31496 0.21142 0.0
O24 O 0.09949 0.30222 0.252 0.0
O25 O 0.09947 0.31572 0.25582 0.0
O26 O 0.10461 0.32149 0.22103 0.0
O27 O 0.10463 0.30798 0.21718 0.0
H28 H 0.08349 0.30115 0.23499 0.0
H29 H 0.06579 0.29236 0.23489 0.0
H30 H 0.06573 0.291 0.28215 0.0
H31 H 0.08341 0.2999 0.28212 0.0
H32 H 0.13363 0.32793 0.29565 0.0
H33 H 0.12279 0.32404 0.27459 0.0
H34 H 0.1563 0.3308 0.26671 0.0
H35 H 0.14552 0.32716 0.2458 0.0
H36 H 0.11874 0.33877 0.17578 0.0
H37 H 0.1083 0.30916 0.16332 0.0
H38 H 0.10295 0.30402 0.18839 0.0
H39 H 0.11364 0.33365 0.20094 0.0
C40 C 0.71879 0.78751 0.25786 0.0
C41 C 0.72111 0.78468 0.24466 0.0
C42 C 0.72919 0.77753 0.25803 0.0
C43 C 0.72627 0.77974 0.24474 0.0
C44 C 0.72683 0.78041 0.27122 0.0
C45 C 0.72168 0.78535 0.27113 0.0
U46 U 0.7048 0.79736 0.23755 0.0
O47 O 0.69136 0.79722 0.24338 0.0
O48 O 0.70474 0.81099 0.24008 0.0
C49 C 0.69564 0.80666 0.24417 0.0
C50 C 0.71328 0.79263 0.25791 0.0
C51 C 0.69348 0.81059 0.25732 0.0
C52 C 0.69645 0.81589 0.28271 0.0
C53 C 0.69854 0.81196 0.27048 0.0
C54 C 0.68417 0.81702 0.26878 0.0
C55 C 0.68924 0.81849 0.282 0.0
C56 C 0.68628 0.81311 0.2566 0.0
C57 C 0.70236 0.79318 0.19559 0.0
C58 C 0.69191 0.79575 0.17912 0.0
C59 C 0.70322 0.79132 0.16934 0.0
C60 C 0.70641 0.79113 0.18351 0.0
C61 C 0.69589 0.79359 0.16693 0.0
C62 C 0.69512 0.79557 0.19334 0.0
C63 C 0.70565 0.79248 0.21035 0.0
O64 O 0.71746 0.80106 0.25132 0.0
O65 O 0.70408 0.78732 0.25464 0.0
O66 O 0.69891 0.78681 0.21964 0.0
O67 O 0.71225 0.8006 0.21626 0.0
H68 H 0.71894 0.7863 0.2343 0.0
H69 H 0.72806 0.77776 0.23437 0.0
H70 H 0.72883 0.77871 0.28166 0.0
H71 H 0.7199 0.78744 0.28143 0.0
H72 H 0.70042 0.81682 0.29274 0.0
H73 H 0.7041 0.81001 0.27128 0.0
H74 H 0.67868 0.81905 0.26775 0.0
H75 H 0.68232 0.81214 0.24652 0.0
H76 H 0.68632 0.79762 0.17766 0.0
H77 H 0.70635 0.78945 0.1603 0.0
H78 H 0.71197 0.78923 0.18505 0.0
H79 H 0.69192 0.7972 0.20255 0.0
C80 C 0.23255 0.93494 0.25839 0.0
C81 C 0.23473 0.94004 0.24512 0.0
C82 C 0.24246 0.95534 0.2583 0.0
C83 C 0.23962 0.95013 0.24507 0.0
C84 C 0.24028 0.95016 0.27156 0.0
C85 C 0.23537 0.94006 0.27158 0.0
U86 U 0.22276 0.91094 0.23858 0.0
O87 O 0.22256 0.89759 0.24498 0.0
O88 O 0.20893 0.89738 0.24101 0.0
C89 C 0.21308 0.89252 0.24545 0.0
C90 C 0.22739 0.92432 0.25858 0.0
C91 C 0.20882 0.88643 0.25852 0.0
C92 C 0.2073 0.88411 0.28493 0.0
C93 C 0.21139 0.89016 0.27274 0.0
C94 C 0.19799 0.8706 0.26877 0.0
C95 C 0.20054 0.87424 0.28309 0.0
C96 C 0.20209 0.87663 0.25664 0.0
C97 C 0.22712 0.912 0.19656 0.0
C98 C 0.23237 0.90443 0.1784 0.0
C99 C 0.22183 0.91049 0.17121 0.0
C100 C 0.2218 0.91343 0.18561 0.0
C101 C 0.22726 0.90612 0.16735 0.0
C102 C 0.23232 0.90735 0.19283 0.0
C103 C 0.22787 0.91623 0.21127 0.0
O104 O 0.21902 0.92007 0.25182 0.0
O105 O 0.23269 0.92037 0.25567 0.0
O106 O 0.23348 0.91534 0.2209 0.0
O107 O 0.21983 0.91509 0.21701 0.0
H108 H 0.23261 0.9362 0.2348 0.0
H109 H 0.24105 0.95385 0.23467 0.0
H110 H 0.24248 0.9539 0.28193 0.0
H111 H 0.2338 0.93625 0.28192 0.0
H112 H 0.20936 0.88718 0.29578 0.0
H113 H 0.21655 0.89773 0.27441 0.0
H114 H 0.19293 0.86303 0.26691 0.0
H115 H 0.20003 0.87362 0.24575 0.0
H116 H 0.23672 0.90118 0.17581 0.0
H117 H 0.21768 0.91176 0.16306 0.0
H118 H 0.21778 0.91704 0.18812 0.0
H119 H 0.23657 0.9062 0.20096 0.0
C120 C 0.30424 0.08016 0.26013 0.0
C121 C 0.30252 0.07493 0.27319 0.0
C122 C 0.29395 0.05977 0.25977 0.0
C123 C 0.2974 0.06483 0.27302 0.0
C124 C 0.29571 0.06508 0.24671 0.0
C125 C 0.3008 0.07518 0.2469 0.0
U126 U 0.31924 0.10381 0.28034 0.0
O127 O 0.33239 0.11709 0.27378 0.0
O128 O 0.31926 0.11758 0.2791 0.0
C129 C 0.32815 0.12232 0.27407 0.0
C130 C 0.30972 0.09078 0.26017 0.0
C131 C 0.32978 0.12856 0.26123 0.0
C132 C 0.33195 0.13171 0.23503 0.0
C133 C 0.3299 0.12543 0.24692 0.0
C134 C 0.33356 0.14423 0.25158 0.0
C135 C 0.33389 0.14123 0.23722 0.0
C136 C 0.33154 0.13796 0.26344 0.0
C137 C 0.32398 0.10163 0.32148 0.0
C138 C 0.32903 0.1136 0.34088 0.0
C139 C 0.32992 0.09908 0.34455 0.0
C140 C 0.32629 0.09599 0.33049 0.0
C141 C 0.33132 0.10791 0.34997 0.0
C142 C 0.32541 0.1105 0.32672 0.0
C143 C 0.31983 0.09785 0.30693 0.0
O144 O 0.30589 0.09496 0.26788 0.0
O145 O 0.31906 0.09466 0.26223 0.0
O146 O 0.32599 0.09888 0.29661 0.0
O147 O 0.31298 0.09948 0.30237 0.0
H148 H 0.30517 0.07866 0.28351 0.0
H149 H 0.29629 0.06099 0.28325 0.0
H150 H 0.29306 0.06143 0.23634 0.0
H151 H 0.30206 0.0791 0.23671 0.0
H152 H 0.33222 0.12917 0.22416 0.0
H153 H 0.32854 0.11819 0.24496 0.0
H154 H 0.33483 0.15142 0.25369 0.0
H155 H 0.33143 0.1405 0.27439 0.0
H156 H 0.3301 0.12047 0.34468 0.0
H157 H 0.33144 0.09444 0.35131 0.0
H158 H 0.32518 0.0891 0.32668 0.0
H159 H 0.3237 0.11498 0.31992 0.0
C160 C 0.93936 0.2287 0.26002 0.0
C161 C 0.94451 0.23132 0.27324 0.0
C162 C 0.95977 0.23866 0.25988 0.0
C163 C 0.95461 0.23625 0.27317 0.0
C164 C 0.95454 0.23601 0.24667 0.0
C165 C 0.94443 0.23108 0.24676 0.0
U166 U 0.91552 0.2187 0.28039 0.0
O167 O 0.90217 0.21875 0.2747 0.0
O168 O 0.90186 0.20502 0.27784 0.0
C169 C 0.89703 0.2093 0.27388 0.0
C170 C 0.92873 0.22357 0.25998 0.0
C171 C 0.8909 0.20537 0.26078 0.0
C172 C 0.88873 0.20114 0.23493 0.0
C173 C 0.89478 0.20505 0.24715 0.0
C174 C 0.87492 0.19791 0.24986 0.0
C175 C 0.87872 0.19752 0.23614 0.0
C176 C 0.88096 0.20179 0.26203 0.0
C177 C 0.91732 0.22268 0.32244 0.0
C178 C 0.90466 0.22083 0.33918 0.0
C179 C 0.91997 0.22362 0.34872 0.0
C180 C 0.92325 0.22388 0.33446 0.0
C181 C 0.91065 0.22215 0.35129 0.0
C182 C 0.90796 0.22108 0.32486 0.0
C183 C 0.92126 0.22348 0.30761 0.0
O184 O 0.92449 0.2151 0.26647 0.0
O185 O 0.92483 0.22884 0.26337 0.0
O186 O 0.92014 0.22916 0.29842 0.0
O187 O 0.91981 0.21541 0.30158 0.0
H188 H 0.94071 0.22954 0.28361 0.0
H189 H 0.95838 0.23806 0.28355 0.0
H190 H 0.95825 0.23786 0.23623 0.0
H191 H 0.94058 0.22915 0.23645 0.0
H192 H 0.89192 0.20105 0.22452 0.0
H193 H 0.90246 0.20781 0.24597 0.0
H194 H 0.86725 0.19507 0.25128 0.0
H195 H 0.87783 0.20195 0.27248 0.0
H196 H 0.89742 0.21959 0.34076 0.0
H197 H 0.92484 0.22482 0.35772 0.0
H198 H 0.93051 0.22517 0.33281 0.0
H199 H 0.90326 0.22011 0.3157 0.0
C200 C 0.79127 0.71475 0.26081 0.0
C201 C 0.78853 0.71721 0.27399 0.0
C202 C 0.78104 0.72492 0.2605 0.0
C203 C 0.78348 0.72226 0.27384 0.0
C204 C 0.78379 0.72239 0.24733 0.0
C205 C 0.78886 0.71736 0.2475 0.0
U206 U 0.80163 0.70126 0.28124 0.0
O207 O 0.80219 0.68823 0.27541 0.0
O208 O 0.81565 0.70189 0.27896 0.0
C209 C 0.81167 0.69285 0.27475 0.0
C210 C 0.79664 0.7095 0.26084 0.0
C211 C 0.81596 0.69103 0.2617 0.0
C212 C 0.81641 0.68865 0.23545 0.0
C213 C 0.81234 0.69068 0.24757 0.0
C214 C 0.82785 0.68746 0.25141 0.0
C215 C 0.82421 0.687 0.23723 0.0
C216 C 0.82376 0.68945 0.26349 0.0
C217 C 0.79726 0.69855 0.32318 0.0
C218 C 0.79911 0.68767 0.33975 0.0
C219 C 0.79636 0.70015 0.34949 0.0
C220 C 0.79608 0.70323 0.33528 0.0
C221 C 0.79782 0.6923 0.35194 0.0
C222 C 0.79886 0.69079 0.32548 0.0
C223 C 0.79645 0.70176 0.3084 0.0
O224 O 0.80503 0.71387 0.26753 0.0
O225 O 0.79153 0.70028 0.26405 0.0
O226 O 0.791 0.69496 0.29904 0.0
O227 O 0.80446 0.70862 0.30256 0.0
H228 H 0.79029 0.71521 0.28438 0.0
H229 H 0.78137 0.72397 0.28417 0.0
H230 H 0.78214 0.72442 0.23687 0.0
H231 H 0.79094 0.71554 0.23722 0.0
H232 H 0.8135 0.68846 0.22468 0.0
H233 H 0.80635 0.69193 0.24593 0.0
H234 H 0.83375 0.6861 0.25324 0.0
H235 H 0.82664 0.68966 0.2743 0.0
H236 H 0.80035 0.68167 0.34124 0.0
H237 H 0.79518 0.70379 0.35856 0.0
H238 H 0.7948 0.70921 0.33372 0.0
H239 H 0.79981 0.6871 0.31626 0.0
C240 C 0.94019 0.71683 0.76083 0.0
C241 C 0.94533 0.71817 0.77388 0.0
C242 C 0.9606 0.72719 0.76075 0.0
C243 C 0.95544 0.72332 0.77385 0.0
C244 C 0.95538 0.72582 0.74771 0.0
C245 C 0.94528 0.72069 0.74777 0.0
U246 U 0.91614 0.70161 0.7803 0.0
O247 O 0.90247 0.70178 0.77863 0.0
O248 O 0.90291 0.68867 0.77305 0.0
C249 C 0.89775 0.69299 0.77328 0.0
C250 C 0.92957 0.71137 0.76067 0.0
C251 C 0.89174 0.69162 0.76026 0.0
C252 C 0.8891 0.69006 0.73392 0.0
C253 C 0.89516 0.69187 0.74602 0.0
C254 C 0.87621 0.68796 0.75014 0.0
C255 C 0.87952 0.68803 0.73584 0.0
C256 C 0.88226 0.68973 0.7622 0.0
C257 C 0.91718 0.69609 0.82144 0.0
C258 C 0.90603 0.69297 0.84163 0.0
C259 C 0.918 0.68799 0.84346 0.0
C260 C 0.92138 0.69168 0.82947 0.0
C261 C 0.91034 0.68865 0.84978 0.0
C262 C 0.9094 0.69663 0.82757 0.0
C263 C 0.92143 0.70047 0.80713 0.0
O264 O 0.92562 0.70201 0.76252 0.0
O265 O 0.92531 0.71513 0.76836 0.0
O266 O 0.92014 0.70754 0.80254 0.0
O267 O 0.92059 0.69448 0.79666 0.0
H268 H 0.94152 0.7152 0.78408 0.0
H269 H 0.95921 0.72414 0.78406 0.0
H270 H 0.9591 0.72881 0.73747 0.0
H271 H 0.94143 0.71974 0.73759 0.0
H272 H 0.89192 0.69029 0.72306 0.0
H273 H 0.90248 0.69336 0.74426 0.0
H274 H 0.86886 0.68631 0.75207 0.0
H275 H 0.87947 0.68948 0.7731 0.0
H276 H 0.90005 0.6935 0.84611 0.0
H277 H 0.92158 0.68484 0.84948 0.0
H278 H 0.92743 0.69124 0.82501 0.0
H279 H 0.906 0.69998 0.82158 0.0
C280 C 0.30315 0.22636 0.76108 0.0
C281 C 0.30187 0.23024 0.77408 0.0
C282 C 0.29275 0.23635 0.76092 0.0
C283 C 0.29671 0.23518 0.77401 0.0
C284 C 0.29407 0.23241 0.74794 0.0
C285 C 0.29922 0.22747 0.74803 0.0
U286 U 0.31857 0.21792 0.78076 0.0
O287 O 0.31862 0.20419 0.77943 0.0
O288 O 0.33163 0.21779 0.77362 0.0
C289 C 0.32742 0.20833 0.77406 0.0
C290 C 0.30868 0.22126 0.76099 0.0
C291 C 0.32884 0.20367 0.76113 0.0
C292 C 0.32964 0.20199 0.73476 0.0
C293 C 0.32783 0.20626 0.74683 0.0
C294 C 0.3333 0.19236 0.75116 0.0
C295 C 0.33245 0.19501 0.73678 0.0
C296 C 0.33153 0.19665 0.76318 0.0
C297 C 0.32409 0.22495 0.82174 0.0
C298 C 0.32774 0.21742 0.84203 0.0
C299 C 0.33194 0.23416 0.84364 0.0
C300 C 0.32816 0.23359 0.82966 0.0
C301 C 0.33173 0.22607 0.85006 0.0
C302 C 0.32398 0.21686 0.82797 0.0
C303 C 0.31965 0.22456 0.8074 0.0
O304 O 0.31804 0.22676 0.76273 0.0
O305 O 0.305 0.21332 0.76885 0.0
O306 O 0.31267 0.2161 0.80303 0.0
O307 O 0.32559 0.22968 0.79683 0.0
H308 H 0.30486 0.22944 0.78428 0.0
H309 H 0.29574 0.238 0.78424 0.0
H310 H 0.29125 0.23328 0.73763 0.0
H311 H 0.30018 0.22456 0.73788 0.0
H312 H 0.3288 0.20412 0.72386 0.0
H313 H 0.32572 0.21164 0.74501 0.0
H314 H 0.33557 0.18712 0.75315 0.0
H315 H 0.33237 0.19457 0.77413 0.0
H316 H 0.32754 0.21108 0.84661 0.0
H317 H 0.33481 0.24089 0.84956 0.0
H318 H 0.32826 0.2399 0.82511 0.0
H319 H 0.3209 0.21011 0.82206 0.0
C320 C 0.79348 0.08088 0.76035 0.0
C321 C 0.79088 0.07567 0.77353 0.0
C322 C 0.78351 0.06049 0.76004 0.0
C323 C 0.78596 0.06557 0.77337 0.0
C324 C 0.78612 0.06578 0.74687 0.0
C325 C 0.79107 0.07588 0.74704 0.0
U326 U 0.80297 0.10456 0.78085 0.0
O327 O 0.81679 0.11821 0.77902 0.0
O328 O 0.80316 0.11797 0.77494 0.0
C329 C 0.81264 0.12308 0.77463 0.0
C330 C 0.79866 0.09151 0.76039 0.0
C331 C 0.81697 0.1293 0.76168 0.0
C332 C 0.81798 0.13207 0.73537 0.0
C333 C 0.81392 0.12588 0.74741 0.0
C334 C 0.82826 0.14509 0.75171 0.0
C335 C 0.82516 0.14179 0.73737 0.0
C336 C 0.8242 0.13891 0.76371 0.0
C337 C 0.79747 0.10202 0.82266 0.0
C338 C 0.7993 0.11443 0.83985 0.0
C339 C 0.7943 0.09831 0.84853 0.0
C340 C 0.79483 0.09548 0.83428 0.0
C341 C 0.79639 0.10778 0.8515 0.0
C342 C 0.79981 0.11156 0.8255 0.0
C343 C 0.7973 0.09848 0.80773 0.0
O344 O 0.79332 0.09542 0.76327 0.0
O345 O 0.80693 0.09568 0.7674 0.0
O346 O 0.80559 0.10007 0.80237 0.0
O347 O 0.79195 0.09979 0.79813 0.0
H348 H 0.79264 0.07941 0.78393 0.0
H349 H 0.78396 0.06174 0.78371 0.0
H350 H 0.78445 0.06212 0.73641 0.0
H351 H 0.79302 0.07979 0.73676 0.0
H352 H 0.81534 0.12929 0.72451 0.0
H353 H 0.80835 0.11847 0.7456 0.0
H354 H 0.83389 0.15245 0.75369 0.0
H355 H 0.82669 0.14167 0.77463 0.0
H356 H 0.80093 0.12177 0.84176 0.0
H357 H 0.79222 0.09305 0.85725 0.0
H358 H 0.79304 0.08809 0.8323 0.0
H359 H 0.80186 0.11672 0.81664 0.0
C360 C 0.72168 0.93562 0.75796 0.0
C361 C 0.72375 0.94079 0.74477 0.0
C362 C 0.73205 0.95602 0.75809 0.0
C363 C 0.72889 0.95089 0.74484 0.0
C364 C 0.72994 0.95077 0.77127 0.0
C365 C 0.72481 0.94067 0.77119 0.0
U366 U 0.70682 0.91193 0.73781 0.0
O367 O 0.70677 0.89816 0.73928 0.0
O368 O 0.6936 0.89865 0.74422 0.0
C369 C 0.69785 0.89343 0.74415 0.0
C370 C 0.71617 0.925 0.75801 0.0
C371 C 0.69612 0.8872 0.75706 0.0
C372 C 0.69389 0.88414 0.78328 0.0
C373 C 0.69597 0.89038 0.77132 0.0
C374 C 0.69226 0.87155 0.76688 0.0
C375 C 0.69192 0.8746 0.78121 0.0
C376 C 0.69432 0.87778 0.75497 0.0
C377 C 0.70277 0.91444 0.6964 0.0
C378 C 0.69474 0.90161 0.67845 0.0
C379 C 0.69996 0.91815 0.67175 0.0
C380 C 0.70357 0.92114 0.68585 0.0
C381 C 0.69544 0.90835 0.66786 0.0
C382 C 0.69835 0.90464 0.69265 0.0
C383 C 0.70663 0.918 0.71112 0.0
O384 O 0.70686 0.92113 0.75572 0.0
O385 O 0.72004 0.92076 0.75055 0.0
O386 O 0.71334 0.91623 0.7159 0.0
O387 O 0.70028 0.91686 0.7212 0.0
H388 H 0.72138 0.93701 0.73444 0.0
H389 H 0.73048 0.95467 0.73447 0.0
H390 H 0.73212 0.95445 0.78169 0.0
H391 H 0.72323 0.9368 0.78147 0.0
H392 H 0.69361 0.88673 0.79412 0.0
H393 H 0.69736 0.89764 0.7732 0.0
H394 H 0.69097 0.86434 0.76486 0.0
H395 H 0.69444 0.87519 0.74405 0.0
H396 H 0.69125 0.89401 0.67583 0.0
H397 H 0.7008 0.92356 0.66383 0.0
H398 H 0.70701 0.92874 0.68852 0.0
H399 H 0.69767 0.89935 0.70069 0.0
C400 C 0.08554 0.78885 0.75851 0.0
C401 C 0.08038 0.78707 0.74537 0.0
C402 C 0.06513 0.77909 0.75877 0.0
C403 C 0.07028 0.78225 0.7455 0.0
C404 C 0.07037 0.78089 0.77189 0.0
C405 C 0.08047 0.78573 0.77175 0.0
U406 U 0.10937 0.79843 0.73817 0.0
O407 O 0.12314 0.812 0.74064 0.0
O408 O 0.1226 0.79817 0.74403 0.0
C409 C 0.12786 0.80762 0.7447 0.0
C410 C 0.09617 0.79385 0.75852 0.0
C411 C 0.13403 0.81158 0.75773 0.0
C412 C 0.13643 0.8164 0.78334 0.0
C413 C 0.13031 0.81241 0.77122 0.0
C414 C 0.15 0.81867 0.76861 0.0
C415 C 0.14637 0.81959 0.78218 0.0
C416 C 0.1439 0.81471 0.75654 0.0
C417 C 0.10781 0.79437 0.69609 0.0
C418 C 0.11716 0.79096 0.67849 0.0
C419 C 0.10734 0.79761 0.67018 0.0
C420 C 0.10448 0.79774 0.68459 0.0
C421 C 0.11357 0.79405 0.66688 0.0
C422 C 0.11431 0.79111 0.69295 0.0
C423 C 0.10378 0.79365 0.71092 0.0
O424 O 0.09994 0.78844 0.75525 0.0
O425 O 0.10052 0.80228 0.75193 0.0
O426 O 0.10523 0.80174 0.71686 0.0
O427 O 0.1046 0.78786 0.72029 0.0
H428 H 0.08417 0.78941 0.73502 0.0
H429 H 0.06651 0.78111 0.7352 0.0
H430 H 0.06668 0.77844 0.78228 0.0
H431 H 0.08434 0.78699 0.78199 0.0
H432 H 0.13337 0.8169 0.79364 0.0
H433 H 0.1227 0.81001 0.77236 0.0
H434 H 0.15762 0.82117 0.76723 0.0
H435 H 0.14691 0.81416 0.7462 0.0
H436 H 0.12191 0.7881 0.67636 0.0
H437 H 0.10457 0.80023 0.66158 0.0
H438 H 0.09946 0.80028 0.68673 0.0
H439 H 0.117 0.78846 0.7016 0.0
C440 C 0.23141 0.29982 0.75716 0.0
C441 C 0.23328 0.29648 0.74407 0.0
C442 C 0.2415 0.28953 0.75757 0.0
C443 C 0.23825 0.29135 0.74427 0.0
C444 C 0.23964 0.29296 0.77065 0.0
C445 C 0.23464 0.29805 0.77043 0.0
U446 U 0.22146 0.31373 0.73679 0.0
O447 O 0.20755 0.31335 0.73901 0.0
O448 O 0.22112 0.32686 0.74279 0.0
C449 C 0.21164 0.32237 0.74334 0.0
C450 C 0.22615 0.3052 0.75711 0.0
C451 C 0.20735 0.32423 0.75636 0.0
C452 C 0.20715 0.32712 0.78249 0.0
C453 C 0.21117 0.32496 0.77045 0.0
C454 C 0.19535 0.32767 0.76655 0.0
C455 C 0.19923 0.32859 0.78067 0.0
C456 C 0.19938 0.32553 0.75455 0.0
C457 C 0.22615 0.31687 0.695 0.0
C458 C 0.22426 0.32792 0.67887 0.0
C459 C 0.22774 0.31603 0.66867 0.0
C460 C 0.22778 0.31263 0.68274 0.0
C461 C 0.22604 0.32376 0.66653 0.0
C462 C 0.2243 0.32449 0.693 0.0
C463 C 0.22678 0.3134 0.70966 0.0
O464 O 0.23139 0.31444 0.75408 0.0
O465 O 0.2178 0.30098 0.75029 0.0
O466 O 0.21866 0.30658 0.71531 0.0
O467 O 0.23225 0.32005 0.7192 0.0
H468 H 0.2309 0.29784 0.73369 0.0
H469 H 0.23967 0.28892 0.73399 0.0
H470 H 0.24194 0.2916 0.78109 0.0
H471 H 0.23326 0.30058 0.78064 0.0
H472 H 0.21038 0.32785 0.79316 0.0
H473 H 0.21732 0.32396 0.77211 0.0
H474 H 0.18915 0.32855 0.76474 0.0
H475 H 0.19629 0.32495 0.74379 0.0
H476 H 0.22283 0.33381 0.67762 0.0
H477 H 0.22929 0.31275 0.65949 0.0
H478 H 0.22927 0.30677 0.68408 0.0
H479 H 0.22299 0.32784 0.70234 0.0
C480 C 0.75156 0.63438 0.59151 0.0
C481 C 0.7464 0.63231 0.57834 0.0
C482 C 0.73116 0.62418 0.59172 0.0
C483 C 0.73629 0.62725 0.57843 0.0
C484 C 0.7364 0.62631 0.60489 0.0
C485 C 0.74651 0.63135 0.60477 0.0
U486 U 0.77545 0.64816 0.5712 0.0
O487 O 0.78897 0.66124 0.57719 0.0
O488 O 0.78892 0.64768 0.5734 0.0
C489 C 0.79392 0.6567 0.57772 0.0
C490 C 0.76219 0.63969 0.59153 0.0
C491 C 0.80003 0.65851 0.59076 0.0
C492 C 0.80269 0.66042 0.61708 0.0
C493 C 0.7966 0.65841 0.60495 0.0
C494 C 0.81563 0.66251 0.60097 0.0
C495 C 0.8123 0.66252 0.61523 0.0
C496 C 0.80955 0.66054 0.58889 0.0
C497 C 0.77384 0.65119 0.52936 0.0
C498 C 0.78682 0.66195 0.51304 0.0
C499 C 0.77127 0.65028 0.50307 0.0
C500 C 0.76785 0.647 0.5172 0.0
C501 C 0.78078 0.65783 0.50079 0.0
C502 C 0.78338 0.65864 0.52723 0.0
C503 C 0.76978 0.64781 0.54409 0.0
O504 O 0.76626 0.63541 0.58471 0.0
O505 O 0.76627 0.64893 0.58849 0.0
O506 O 0.77105 0.6545 0.55358 0.0
O507 O 0.77102 0.64096 0.54976 0.0
H508 H 0.75019 0.63463 0.56798 0.0
H509 H 0.7325 0.62585 0.56811 0.0
H510 H 0.7327 0.62396 0.6153 0.0
H511 H 0.75038 0.63287 0.61504 0.0
H512 H 0.79986 0.66026 0.6279 0.0
H513 H 0.78925 0.65681 0.60664 0.0
H514 H 0.823 0.66422 0.59909 0.0
H515 H 0.81234 0.66067 0.57802 0.0
H516 H 0.79421 0.66771 0.51168 0.0
H517 H 0.76636 0.64705 0.49396 0.0
H518 H 0.76045 0.64127 0.51865 0.0
H519 H 0.78812 0.66194 0.5365 0.0
C520 C 0.38647 0.12154 0.59185 0.0
C521 C 0.38824 0.11814 0.57871 0.0
C522 C 0.39695 0.11162 0.59197 0.0
C523 C 0.39342 0.11323 0.57877 0.0
C524 C 0.39514 0.11505 0.60509 0.0
C525 C 0.38995 0.11996 0.60502 0.0
U526 U 0.37236 0.1313 0.57167 0.0
O527 O 0.35917 0.13151 0.57778 0.0
O528 O 0.37261 0.14512 0.57388 0.0
C529 C 0.36358 0.14098 0.57823 0.0
C530 C 0.38103 0.12671 0.59192 0.0
C531 C 0.36171 0.14523 0.59126 0.0
C532 C 0.36057 0.1465 0.61765 0.0
C533 C 0.36258 0.14244 0.6055 0.0
C534 C 0.35691 0.15622 0.60144 0.0
C535 C 0.3577 0.15345 0.61577 0.0
C536 C 0.35889 0.15215 0.58934 0.0
C537 C 0.3694 0.12677 0.52966 0.0
C538 C 0.35661 0.12344 0.51217 0.0
C539 C 0.37295 0.1294 0.50362 0.0
C540 C 0.37601 0.12972 0.51804 0.0
C541 C 0.36317 0.12605 0.50046 0.0
C542 C 0.35969 0.12378 0.52664 0.0
C543 C 0.37275 0.12613 0.54449 0.0
O544 O 0.38518 0.13506 0.58508 0.0
O545 O 0.37178 0.12143 0.58893 0.0
O546 O 0.36614 0.12057 0.55405 0.0
O547 O 0.37958 0.13422 0.55018 0.0
H548 H 0.38562 0.11932 0.56842 0.0
H549 H 0.39478 0.11081 0.56844 0.0
H550 H 0.39762 0.11383 0.61547 0.0
H551 H 0.38863 0.1225 0.61527 0.0
H552 H 0.36135 0.14427 0.62852 0.0
H553 H 0.36479 0.13713 0.60721 0.0
H554 H 0.3546 0.16143 0.59954 0.0
H555 H 0.35816 0.15437 0.57844 0.0
H556 H 0.34902 0.12077 0.51014 0.0
H557 H 0.37824 0.13164 0.49492 0.0
H558 H 0.38353 0.13205 0.52008 0.0
H559 H 0.35442 0.12146 0.53539 0.0
C560 C 0.89897 0.26851 0.59082 0.0
C561 C 0.90615 0.2738 0.58038 0.0
C562 C 0.90895 0.28893 0.59117 0.0
C563 C 0.91112 0.28389 0.58059 0.0
C564 C 0.90166 0.28356 0.6015 0.0
C565 C 0.89674 0.27347 0.60133 0.0
U566 U 0.88914 0.24457 0.57069 0.0
O567 O 0.88881 0.23114 0.57688 0.0
O568 O 0.87524 0.23104 0.57293 0.0
C569 C 0.87933 0.22613 0.57734 0.0
C570 C 0.89369 0.25787 0.59081 0.0
C571 C 0.87505 0.21999 0.59039 0.0
C572 C 0.87422 0.21734 0.61673 0.0
C573 C 0.8782 0.22347 0.6046 0.0
C574 C 0.86378 0.20426 0.60057 0.0
C575 C 0.867 0.20762 0.61486 0.0
C576 C 0.86777 0.21038 0.5885 0.0
C577 C 0.89397 0.24616 0.52887 0.0
C578 C 0.89191 0.23324 0.51263 0.0
C579 C 0.89559 0.24871 0.50257 0.0
C580 C 0.89569 0.25211 0.51667 0.0
C581 C 0.89374 0.23924 0.50033 0.0
C582 C 0.892 0.23667 0.52679 0.0
C583 C 0.89455 0.2502 0.54356 0.0
O584 O 0.88539 0.25376 0.58388 0.0
O585 O 0.89889 0.25377 0.58807 0.0
O586 O 0.89997 0.24901 0.55317 0.0
O587 O 0.8864 0.24889 0.54911 0.0
H588 H 0.90796 0.27012 0.5721 0.0
H589 H 0.91675 0.28774 0.57257 0.0
H590 H 0.89966 0.28715 0.60965 0.0
H591 H 0.89117 0.26952 0.6094 0.0
H592 H 0.87693 0.22016 0.62753 0.0
H593 H 0.88381 0.23088 0.6063 0.0
H594 H 0.85812 0.1969 0.5987 0.0
H595 H 0.8652 0.20758 0.57762 0.0
H596 H 0.89036 0.22588 0.51131 0.0
H597 H 0.89719 0.25359 0.49342 0.0
H598 H 0.89726 0.25948 0.51807 0.0
H599 H 0.89062 0.23195 0.5361 0.0
C600 C 0.97159 0.41385 0.59377 0.0
C601 C 0.97285 0.40866 0.60512 0.0
C602 C 0.96118 0.39345 0.59377 0.0
C603 C 0.96773 0.39856 0.60509 0.0
C604 C 0.95988 0.3987 0.58251 0.0
C605 C 0.96505 0.4088 0.5825 0.0
U606 U 0.98574 0.43785 0.61362 0.0
O607 O 0.99889 0.45124 0.60729 0.0
O608 O 0.98544 0.45139 0.61125 0.0
C609 C 0.99446 0.45628 0.60684 0.0
C610 C 0.97698 0.42448 0.59361 0.0
C611 C 0.99631 0.46238 0.59378 0.0
C612 C 0.99649 0.46456 0.56739 0.0
C613 C 0.99452 0.45852 0.57959 0.0
C614 C 1.00196 0.47832 0.58347 0.0
C615 C 1.00023 0.47455 0.56918 0.0
C616 C 1.00002 0.4723 0.59561 0.0
C617 C 0.98894 0.4365 0.65562 0.0
C618 C 1.0018 0.44611 0.6729 0.0
C619 C 0.98551 0.4358 0.68168 0.0
C620 C 0.98239 0.43293 0.66732 0.0
C621 C 0.99529 0.44227 0.68471 0.0
C622 C 0.99866 0.44324 0.6585 0.0
C623 C 0.98552 0.43243 0.64085 0.0
O624 O 0.97281 0.42864 0.60046 0.0
O625 O 0.98627 0.42855 0.59638 0.0
O626 O 0.99208 0.43344 0.63124 0.0
O627 O 0.97865 0.43364 0.6352 0.0
H628 H 0.9778 0.41243 0.61401 0.0
H629 H 0.9688 0.39475 0.61402 0.0
H630 H 0.95496 0.395 0.57356 0.0
H631 H 0.96397 0.41267 0.57366 0.0
H632 H 0.99497 0.46138 0.55656 0.0
H633 H 0.99162 0.45086 0.57796 0.0
H634 H 1.00498 0.48598 0.58529 0.0
H635 H 1.00148 0.47542 0.60648 0.0
H636 H 1.0094 0.45105 0.67483 0.0
H637 H 0.98025 0.43284 0.69045 0.0
H638 H 0.97485 0.42773 0.66539 0.0
H639 H 1.00389 0.44611 0.64969 0.0
C640 C 0.60621 0.56182 0.59357 0.0
C641 C 0.61134 0.56427 0.6068 0.0
C642 C 0.62662 0.57178 0.59349 0.0
C643 C 0.62144 0.56919 0.60677 0.0
C644 C 0.62141 0.5693 0.58026 0.0
C645 C 0.6113 0.56437 0.58031 0.0
U646 U 0.58233 0.55197 0.6138 0.0
O647 O 0.56906 0.55215 0.60795 0.0
O648 O 0.56861 0.53836 0.61121 0.0
C649 C 0.56387 0.5427 0.60713 0.0
C650 C 0.59558 0.55673 0.59348 0.0
C651 C 0.55778 0.5388 0.59398 0.0
C652 C 0.55537 0.53334 0.56867 0.0
C653 C 0.56141 0.53728 0.58087 0.0
C654 C 0.54206 0.53252 0.58249 0.0
C655 C 0.5456 0.5309 0.56933 0.0
C656 C 0.54809 0.53643 0.59466 0.0
C657 C 0.58402 0.55607 0.65579 0.0
C658 C 0.57104 0.55365 0.67226 0.0
C659 C 0.58671 0.5578 0.68205 0.0
C660 C 0.59008 0.55798 0.66788 0.0
C661 C 0.57716 0.55568 0.68445 0.0
C662 C 0.57444 0.55383 0.65804 0.0
C663 C 0.58802 0.55678 0.64103 0.0
O664 O 0.59129 0.54828 0.60001 0.0
O665 O 0.59171 0.56204 0.59677 0.0
O666 O 0.58699 0.56248 0.63175 0.0
O667 O 0.58649 0.54867 0.63509 0.0
H668 H 0.60752 0.56236 0.61716 0.0
H669 H 0.62519 0.57086 0.61715 0.0
H670 H 0.62513 0.5713 0.56984 0.0
H671 H 0.60747 0.56259 0.56999 0.0
H672 H 0.55837 0.53229 0.55868 0.0
H673 H 0.56889 0.53911 0.58011 0.0
H674 H 0.53457 0.53061 0.58349 0.0
H675 H 0.54515 0.53752 0.60469 0.0
H676 H 0.56362 0.5519 0.67371 0.0
H677 H 0.59168 0.55957 0.6911 0.0
H678 H 0.59752 0.55977 0.66635 0.0
H679 H 0.56964 0.5523 0.64881 0.0
C680 C 0.45876 0.04858 0.5937 0.0
C681 C 0.45462 0.04953 0.60667 0.0
C682 C 0.44915 0.05935 0.59396 0.0
C683 C 0.44985 0.05486 0.6068 0.0
C684 C 0.45338 0.0584 0.58102 0.0
C685 C 0.45814 0.05306 0.5809 0.0
U686 U 0.46711 0.03297 0.61302 0.0
O687 O 0.46657 0.01955 0.60595 0.0
O688 O 0.4805 0.03238 0.61089 0.0
C689 C 0.47601 0.0235 0.60584 0.0
C690 C 0.46361 0.04282 0.59337 0.0
C691 C 0.4802 0.02164 0.59271 0.0
C692 C 0.48782 0.02619 0.56872 0.0
C693 C 0.48366 0.02809 0.58086 0.0
C694 C 0.48498 0.01132 0.58007 0.0
C695 C 0.48855 0.01777 0.56818 0.0
C696 C 0.48086 0.01324 0.59218 0.0
C697 C 0.46114 0.02827 0.65445 0.0
C698 C 0.46889 0.02416 0.67386 0.0
C699 C 0.45277 0.02158 0.67744 0.0
C700 C 0.45299 0.02513 0.66338 0.0
C701 C 0.46075 0.02112 0.68292 0.0
C702 C 0.46908 0.02769 0.65972 0.0
C703 C 0.46125 0.03252 0.64004 0.0
O704 O 0.47175 0.04642 0.6007 0.0
O705 O 0.45796 0.03352 0.59552 0.0
O706 O 0.45575 0.02647 0.62987 0.0
O707 O 0.46968 0.03925 0.63509 0.0
H708 H 0.45505 0.04613 0.61668 0.0
H709 H 0.44679 0.05554 0.617 0.0
H710 H 0.45288 0.06163 0.57089 0.0
H711 H 0.46126 0.05237 0.57078 0.0
H712 H 0.4904 0.03126 0.5597 0.0
H713 H 0.48318 0.0346 0.581 0.0
H714 H 0.48552 1.00485 0.58015 0.0
H715 H 0.47826 0.00818 0.60123 0.0
H716 H 0.47511 0.02381 0.67768 0.0
H717 H 0.44644 0.01944 0.68416 0.0
H718 H 0.44681 0.02557 0.65956 0.0
H719 H 0.47546 0.03005 0.65301 0.0
C720 C 0.60686 0.04961 0.09475 0.0
C721 C 0.61205 0.05215 0.10793 0.0
C722 C 0.62727 0.06005 0.09446 0.0
C723 C 0.62216 0.05733 0.10779 0.0
C724 C 0.62199 0.05743 0.08128 0.0
C725 C 0.61189 0.05227 0.08145 0.0
U726 U 0.58306 0.03559 0.11519 0.0
O727 O 0.56947 0.03585 0.11313 0.0
O728 O 0.56961 0.02239 0.10926 0.0
C729 C 0.56455 0.02681 0.10887 0.0
C730 C 0.59623 0.04417 0.09478 0.0
C731 C 0.55837 0.02491 0.0959 0.0
C732 C 0.55607 0.02472 0.06954 0.0
C733 C 0.56217 0.0267 0.08166 0.0
C734 C 0.54236 0.01921 0.08582 0.0
C735 C 0.54608 0.02094 0.07148 0.0
C736 C 0.54845 0.02117 0.09788 0.0
C737 C 0.58485 0.03269 0.15703 0.0
C738 C 0.57204 0.0218 0.17349 0.0
C739 C 0.58743 0.03393 0.18332 0.0
C740 C 0.59078 0.03713 0.16915 0.0
C741 C 0.57803 0.0262 0.18571 0.0
C742 C 0.57541 0.02504 0.15926 0.0
C743 C 0.58884 0.03605 0.14227 0.0
O744 O 0.59227 0.03494 0.09785 0.0
O745 O 0.59206 0.04834 0.10161 0.0
O746 O 0.58749 0.04283 0.1366 0.0
O747 O 0.58761 0.02936 0.1328 0.0
H748 H 0.60828 0.05016 0.11833 0.0
H749 H 0.62595 0.05932 0.11814 0.0
H750 H 0.62567 0.05927 0.07082 0.0
H751 H 0.608 0.05032 0.07117 0.0
H752 H 0.5592 0.02624 0.05868 0.0
H753 H 0.56984 0.02963 0.07992 0.0
H754 H 0.5347 0.01618 0.08775 0.0
H755 H 0.54538 0.01972 0.10879 0.0
H756 H 0.56473 0.01589 0.17494 0.0
H757 H 0.5923 0.03739 0.1924 0.0
H758 H 0.5981 0.04302 0.16763 0.0
H759 H 0.5707 0.02153 0.15002 0.0
C760 C 0.97011 0.55993 0.09409 0.0
C761 C 0.96813 0.56317 0.10719 0.0
C762 C 0.95988 0.57009 0.0937 0.0
C763 C 0.96306 0.5682 0.10701 0.0
C764 C 0.96189 0.5668 0.0806 0.0
C765 C 0.96696 0.56177 0.08081 0.0
U766 U 0.9844 0.55056 0.11463 0.0
O767 O 0.98425 0.53675 0.113 0.0
O768 O 0.99761 0.55036 0.1086 0.0
C769 C 0.99325 0.54088 0.10845 0.0
C770 C 0.97552 0.55472 0.09417 0.0
C771 C 0.99504 0.53651 0.0955 0.0
C772 C 0.99617 0.53512 0.06913 0.0
C773 C 0.99417 0.53923 0.08122 0.0
C774 C 0.99977 0.52543 0.08547 0.0
C775 C 0.99901 0.52817 0.07111 0.0
C776 C 0.99781 0.52956 0.09751 0.0
C777 C 0.9878 0.55636 0.15623 0.0
C778 C 0.99808 0.55383 0.17314 0.0
C779 C 0.9883 0.56043 0.18192 0.0
C780 C 0.98468 0.55983 0.16783 0.0
C781 C 0.99514 0.55757 0.18475 0.0
C782 C 0.99445 0.55326 0.15896 0.0
C783 C 0.98421 0.55643 0.14143 0.0
O784 O 0.9848 0.56004 0.09686 0.0
O785 O 0.97144 0.54651 0.10139 0.0
O786 O 0.97748 0.54809 0.13628 0.0
O787 O 0.99076 0.56172 0.13163 0.0
H788 H 0.97051 0.56181 0.11757 0.0
H789 H 0.96154 0.5705 0.11732 0.0
H790 H 0.95968 0.56824 0.07014 0.0
H791 H 0.96846 0.55936 0.07058 0.0
H792 H 0.9954 0.53732 0.05824 0.0
H793 H 0.99199 0.54456 0.07943 0.0
H794 H 1.00207 0.52021 0.08743 0.0
H795 H 0.99854 0.52738 0.10845 0.0
H796 H 1.00337 0.55161 0.17495 0.0
H797 H 0.98575 0.56318 0.19063 0.0
H798 H 0.97951 0.56222 0.16594 0.0
H799 H 0.99695 0.55056 0.1501 0.0
C800 C 0.45963 0.41427 0.09393 0.0
C801 C 0.45669 0.40905 0.10709 0.0
C802 C 0.44951 0.39388 0.09361 0.0
C803 C 0.45169 0.39895 0.10694 0.0
C804 C 0.45247 0.39917 0.08045 0.0
C805 C 0.45748 0.40927 0.08063 0.0
U806 U 0.46969 0.43809 0.1143 0.0
O807 O 0.48363 0.45156 0.1121 0.0
O808 O 0.47012 0.45161 0.10829 0.0
C809 C 0.4796 0.45656 0.1078 0.0
C810 C 0.46492 0.42489 0.09395 0.0
C811 C 0.4839 0.46268 0.09476 0.0
C812 C 0.48533 0.46507 0.06836 0.0
C813 C 0.48123 0.45901 0.08053 0.0
C814 C 0.49488 0.47849 0.08455 0.0
C815 C 0.49221 0.47491 0.07022 0.0
C816 C 0.49077 0.47244 0.09666 0.0
C817 C 0.46508 0.43639 0.15618 0.0
C818 C 0.4668 0.4491 0.17263 0.0
C819 C 0.464 0.43387 0.1825 0.0
C820 C 0.46382 0.43053 0.16832 0.0
C821 C 0.46544 0.44318 0.18487 0.0
C822 C 0.46664 0.44574 0.1584 0.0
C823 C 0.46438 0.43239 0.14143 0.0
O824 O 0.45973 0.42893 0.09702 0.0
O825 O 0.47327 0.42896 0.10076 0.0
O826 O 0.47246 0.43362 0.13572 0.0
O827 O 0.45895 0.43368 0.13195 0.0
H828 H 0.45825 0.4128 0.11748 0.0
H829 H 0.44943 0.39512 0.11726 0.0
H830 H 0.45102 0.39551 0.07001 0.0
H831 H 0.45971 0.41317 0.07036 0.0
H832 H 0.48318 0.46204 0.0575 0.0
H833 H 0.47597 0.45147 0.07884 0.0
H834 H 0.50003 0.48604 0.08643 0.0
H835 H 0.4929 0.47542 0.10756 0.0
H836 H 0.46802 0.45634 0.17406 0.0
H837 H 0.46276 0.42905 0.1916 0.0
H838 H 0.46256 0.42328 0.16682 0.0
H839 H 0.46765 0.4504 0.14915 0.0
C840 C 0.38728 0.26902 0.09161 0.0
C841 C 0.38974 0.27414 0.07835 0.0
C842 C 0.39764 0.28942 0.09161 0.0
C843 C 0.39487 0.28424 0.07835 0.0
C844 C 0.39512 0.28421 0.10485 0.0
C845 C 0.38999 0.27411 0.10484 0.0
U846 U 0.37321 0.24501 0.07175 0.0
O847 O 0.37359 0.23151 0.07418 0.0
O848 O 0.3601 0.23159 0.0781 0.0
C849 C 0.36458 0.22659 0.07861 0.0
C850 C 0.3819 0.2584 0.09177 0.0
C851 C 0.36273 0.22045 0.09163 0.0
C852 C 0.36026 0.21749 0.11785 0.0
C853 C 0.36243 0.22368 0.1058 0.0
C854 C 0.35885 0.20486 0.10172 0.0
C855 C 0.35835 0.20796 0.11595 0.0
C856 C 0.361 0.21103 0.08972 0.0
C857 C 0.36986 0.24611 0.02975 0.0
C858 C 0.35693 0.23787 0.01193 0.0
C859 C 0.37359 0.24546 1.00408 0.0
C860 C 0.37662 0.24831 0.01848 0.0
C861 C 0.36371 0.24038 1.00055 0.0
C862 C 0.35997 0.24071 0.02637 0.0
C863 C 0.37334 0.2503 0.04447 0.0
O864 O 0.37263 0.25437 0.08888 0.0
O865 O 0.38607 0.25422 0.08496 0.0
O866 O 0.38027 0.24919 0.05015 0.0
O867 O 0.36682 0.24935 0.05412 0.0
H868 H 0.3877 0.27032 0.06802 0.0
H869 H 0.39678 0.28799 0.06794 0.0
H870 H 0.39698 0.28793 0.11526 0.0
H871 H 0.38812 0.27028 0.11518 0.0
H872 H 0.35988 0.2201 0.12861 0.0
H873 H 0.36377 0.23094 0.10752 0.0
H874 H 0.35761 0.19765 0.09984 0.0
H875 H 0.36124 0.20842 0.07889 0.0
H876 H 0.34927 0.23405 0.00962 0.0
H877 H 0.37902 0.24737 0.99566 0.0
H878 H 0.38428 0.25249 0.02074 0.0
H879 H 0.35456 0.23892 0.03479 0.0
C880 C 0.75221 0.12261 0.0915 0.0
C881 C 0.74697 0.11964 0.07837 0.0
C882 C 0.73181 0.11261 0.09195 0.0
C883 C 0.73687 0.1147 0.07859 0.0
C884 C 0.73713 0.11562 0.10506 0.0
C885 C 0.74723 0.12058 0.10482 0.0
U886 U 0.77586 0.13193 0.07085 0.0
O887 O 0.78966 0.14555 0.07275 0.0
O888 O 0.78914 0.13179 0.07667 0.0
C889 C 0.7944 0.14124 0.07702 0.0
C890 C 0.76284 0.12771 0.09139 0.0
C891 C 0.80059 0.14537 0.09001 0.0
C892 C 0.80285 0.14976 0.11579 0.0
C893 C 0.79676 0.14575 0.10365 0.0
C894 C 0.81663 0.15301 0.10076 0.0
C895 C 0.81288 0.15344 0.1145 0.0
C896 C 0.81055 0.14902 0.08867 0.0
C897 C 0.77337 0.12658 0.02907 0.0
C898 C 0.78599 0.12871 0.01204 0.0
C899 C 0.76973 0.12299 1.00327 0.0
C900 C 0.7668 0.12357 0.01745 0.0
C901 C 0.77932 0.12541 1.0004 0.0
C902 C 0.78302 0.12926 0.0263 0.0
C903 C 0.76976 0.12643 0.04395 0.0
O904 O 0.76667 0.12231 0.08843 0.0
O905 O 0.76708 0.13599 0.08439 0.0
O906 O 0.77151 0.13476 0.04935 0.0
O907 O 0.77089 0.12095 0.05354 0.0
H908 H 0.75071 0.12111 0.06797 0.0
H909 H 0.73302 0.11239 0.0683 0.0
H910 H 0.73348 0.11423 0.11552 0.0
H911 H 0.75116 0.12282 0.11506 0.0
H912 H 0.7997 0.14988 0.12622 0.0
H913 H 0.78908 0.14293 0.1049 0.0
H914 H 0.8243 0.15589 0.09928 0.0
H915 H 0.81364 0.14882 0.07821 0.0
H916 H 0.79341 0.13058 0.0102 0.0
H917 H 0.76445 0.12059 0.99455 0.0
H918 H 0.75933 0.12151 0.01937 0.0
H919 H 0.78819 0.1316 0.03517 0.0
C920 C 0.89845 0.63351 0.09128 0.0
C921 C 0.90088 0.63084 0.07802 0.0
C922 C 0.90862 0.62329 0.09127 0.0
C923 C 0.90589 0.62575 0.07802 0.0
C924 C 0.90618 0.62604 0.10452 0.0
C925 C 0.90114 0.63109 0.10451 0.0
U926 U 0.88828 0.64748 0.07156 0.0
O927 O 0.8743 0.6469 0.0741 0.0
O928 O 0.88779 0.66045 0.07809 0.0
C929 C 0.87831 0.65587 0.07865 0.0
C930 C 0.89312 0.63882 0.09146 0.0
C931 C 0.87397 0.65753 0.09181 0.0
C932 C 0.87354 0.65979 0.11809 0.0
C933 C 0.87763 0.65786 0.1059 0.0
C934 C 0.862 0.66091 0.10227 0.0
C935 C 0.86568 0.66137 0.11642 0.0
C936 C 0.86611 0.65902 0.09012 0.0
C937 C 0.89266 0.65103 0.02953 0.0
C938 C 0.89755 0.66394 0.01158 0.0
C939 C 0.88777 0.64731 1.00403 0.0
C940 C 0.88772 0.64429 0.01841 0.0
C941 C 0.89284 0.65716 1.00035 0.0
C942 C 0.89748 0.66091 0.026 0.0
C943 C 0.89345 0.64754 0.04422 0.0
O944 O 0.89829 0.64809 0.08861 0.0
O945 O 0.88477 0.6346 0.08466 0.0
O946 O 0.88546 0.64053 0.04991 0.0
O947 O 0.89898 0.65405 0.0539 0.0
H948 H 0.8989 0.63269 0.06768 0.0
H949 H 0.90775 0.62386 0.06762 0.0
H950 H 0.90805 0.62416 0.11492 0.0
H951 H 0.89931 0.63309 0.11485 0.0
H952 H 0.87649 0.65998 0.12883 0.0
H953 H 0.88368 0.65668 0.10746 0.0
H954 H 0.85606 0.66221 0.10052 0.0
H955 H 0.8632 0.65882 0.07934 0.0
H956 H 0.9016 0.67158 1.00914 0.0
H957 H 0.88393 0.64189 0.99574 0.0
H958 H 0.88401 0.63663 0.02077 0.0
H959 H 0.90142 0.66631 0.03427 0.0
C960 C 0.41922 0.9679 0.92511 0.0
C961 C 0.41409 0.96568 0.91189 0.0
C962 C 0.39882 0.95764 0.92521 0.0
C963 C 0.40398 0.96058 0.91194 0.0
C964 C 0.40403 0.95991 0.93842 0.0
C965 C 0.41413 0.96498 0.93835 0.0
U966 U 0.44325 0.98198 0.90515 0.0
O967 O 0.45665 0.99509 0.91149 0.0
O968 O 0.45678 0.98165 0.90756 0.0
C969 C 0.46168 0.99065 0.91195 0.0
C970 C 0.42985 0.97328 0.92522 0.0
C971 C 0.46777 0.99247 0.925 0.0
C972 C 0.46994 0.9926 0.95138 0.0
C973 C 0.4639 0.99067 0.9392 0.0
C974 C 0.48372 0.99807 0.93525 0.0
C975 C 0.47993 0.99632 0.94956 0.0
C976 C 0.4777 0.99616 0.92313 0.0
C977 C 0.44225 0.98537 0.86321 0.0
C978 C 0.45193 0.99839 0.84615 0.0
C979 C 0.44239 0.98203 0.83726 0.0
C980 C 0.43919 0.97884 0.85151 0.0
C981 C 0.4487 0.99187 0.83435 0.0
C982 C 0.44876 0.99518 0.86044 0.0
C983 C 0.43797 0.98184 0.87787 0.0
O984 O 0.43402 0.9691 0.91839 0.0
O985 O 0.43387 0.98253 0.9223 0.0
O986 O 0.43889 0.98834 0.88751 0.0
O987 O 0.4391 0.97493 0.88356 0.0
H988 H 0.4179 0.96792 0.90155 0.0
H989 H 0.40021 0.95907 0.90158 0.0
H990 H 0.40031 0.95765 0.94882 0.0
H991 H 0.41798 0.96662 0.94866 0.0
H992 H 0.46676 0.99107 0.96222 0.0
H993 H 0.45624 0.98779 0.94086 0.0
H994 H 0.49138 1.00107 0.93341 0.0
H995 H 0.48082 0.99763 0.91226 0.0
H996 H 0.45688 1.00599 0.84432 0.0
H997 H 0.43966 0.97683 0.82843 0.0
H998 H 0.43411 0.97126 0.85333 0.0
H999 H 0.45127 1.0004 0.86925 0.0
C1000 C 0.05282 0.45485 0.92549 0.0
C1001 C 0.05534 0.45221 0.91228 0.0
C1002 C 0.06309 0.44474 0.92568 0.0
C1003 C 0.06045 0.44722 0.91237 0.0
C1004 C 0.06051 0.44739 0.93888 0.0
C1005 C 0.05543 0.45241 0.93877 0.0
U1006 U 0.03898 0.46493 0.90528 0.0
O1007 O 0.02583 0.46523 0.91134 0.0
O1008 O 0.03936 0.4788 0.90764 0.0
C1009 C 0.03031 0.4747 0.91191 0.0
C1010 C 0.04746 0.46011 0.92554 0.0
C1011 C 0.02843 0.47891 0.92499 0.0
C1012 C 0.02723 0.48008 0.95139 0.0
C1013 C 0.02925 0.47605 0.9392 0.0
C1014 C 0.02369 0.48992 0.93528 0.0
C1015 C 0.02442 0.48707 0.94958 0.0
C1016 C 0.02567 0.48588 0.92314 0.0
C1017 C 0.03614 0.46057 0.86322 0.0
C1018 C 0.02341 0.45749 0.84575 0.0
C1019 C 0.03969 0.46315 0.83718 0.0
C1020 C 0.04273 0.4634 0.85159 0.0
C1021 C 0.02996 0.46 0.83402 0.0
C1022 C 0.02646 0.45776 0.86021 0.0
C1023 C 0.03943 0.45986 0.87806 0.0
O1024 O 0.05171 0.46849 0.9188 0.0
O1025 O 0.03822 0.45491 0.92245 0.0
O1026 O 0.03277 0.45428 0.88755 0.0
O1027 O 0.04627 0.4679 0.88384 0.0
H1028 H 0.05334 0.454 0.90191 0.0
H1029 H 0.06221 0.44519 0.90202 0.0
H1030 H 0.06253 0.44571 0.94932 0.0
H1031 H 0.05355 0.4544 0.94907 0.0
H1032 H 0.02798 0.47779 0.96223 0.0
H1033 H 0.03142 0.47071 0.94086 0.0
H1034 H 0.02141 0.49516 0.93343 0.0
H1035 H 0.02497 0.48816 0.91226 0.0
H1036 H 0.01585 0.45496 0.84373 0.0
H1037 H 0.04497 0.46531 0.82847 0.0
H1038 H 0.05022 0.46559 0.85363 0.0
H1039 H 0.02121 0.45553 0.86896 0.0
C1040 C 0.56603 0.60191 0.9243 0.0
C1041 C 0.57315 0.60719 0.91378 0.0
C1042 C 0.57608 0.62233 0.92471 0.0
C1043 C 0.57815 0.61729 0.91402 0.0
C1044 C 0.56885 0.61697 0.93513 0.0
C1045 C 0.5639 0.60688 0.93493 0.0
U1046 U 0.55602 0.578 0.90405 0.0
O1047 O 0.55556 0.56449 0.91017 0.0
O1048 O 0.54206 0.56454 0.90625 0.0
C1049 C 0.54608 0.55954 0.91062 0.0
C1050 C 0.56071 0.59127 0.92424 0.0
C1051 C 0.54175 0.55344 0.92367 0.0
C1052 C 0.54035 0.55106 0.95007 0.0
C1053 C 0.54444 0.55712 0.9379 0.0
C1054 C 0.53078 0.53763 0.93391 0.0
C1055 C 0.53347 0.54122 0.94823 0.0
C1056 C 0.53488 0.54368 0.92179 0.0
C1057 C 0.5607 0.57963 0.86217 0.0
C1058 C 0.55917 0.567 0.8457 0.0
C1059 C 0.56148 0.58206 0.83584 0.0
C1060 C 0.56169 0.5854 0.85002 0.0
C1061 C 0.56026 0.57283 0.83346 0.0
C1062 C 0.55936 0.57036 0.85995 0.0
C1063 C 0.56138 0.58364 0.87692 0.0
O1064 O 0.55238 0.58722 0.91736 0.0
O1065 O 0.56585 0.58714 0.92141 0.0
O1066 O 0.56679 0.58235 0.88644 0.0
O1067 O 0.5533 0.58243 0.88256 0.0
H1068 H 0.57489 0.60351 0.90541 0.0
H1069 H 0.58374 0.62114 0.90593 0.0
H1070 H 0.56691 0.62057 0.94336 0.0
H1071 H 0.55837 0.60294 0.94307 0.0
H1072 H 0.54252 0.55409 0.96093 0.0
H1073 H 0.54972 0.56465 0.93959 0.0
H1074 H 0.52562 0.53009 0.93203 0.0
H1075 H 0.53273 0.5407 0.91089 0.0
H1076 H 0.55812 0.55983 0.84427 0.0
H1077 H 0.5625 0.58681 0.82673 0.0
H1078 H 0.56277 0.59259 0.85151 0.0
H1079 H 0.55854 0.56578 0.8692 0.0
C1080 C 0.63868 0.74726 0.92735 0.0
C1081 C 0.64003 0.74208 0.93863 0.0
C1082 C 0.62831 0.72686 0.92734 0.0
C1083 C 0.63493 0.73198 0.93859 0.0
C1084 C 0.62694 0.7321 0.91615 0.0
C1085 C 0.63209 0.7422 0.91615 0.0
U1086 U 0.65255 0.77126 0.94732 0.0
O1087 O 0.66564 0.78475 0.94118 0.0
O1088 O 0.65207 0.78471 0.9449 0.0
C1089 C 0.6611 0.78968 0.94058 0.0
C1090 C 0.644 0.7579 0.92723 0.0
C1091 C 0.66297 0.79582 0.92752 0.0
C1092 C 0.66545 0.79871 0.90128 0.0
C1093 C 0.66326 0.79255 0.91338 0.0
C1094 C 0.66692 0.8114 0.91732 0.0
C1095 C 0.6674 0.80826 0.90312 0.0
C1096 C 0.66474 0.80525 0.92936 0.0
C1097 C 0.65551 0.76977 0.98926 0.0
C1098 C 0.66671 0.78236 1.00569 0.0
C1099 C 0.65376 0.76744 0.0156 0.0
C1100 C 0.65063 0.76408 1.00143 0.0
C1101 C 0.66187 0.77661 0.01795 0.0
C1102 C 0.66354 0.77898 0.99145 0.0
C1103 C 0.65221 0.76571 0.97453 0.0
O1104 O 0.63973 0.76198 0.93399 0.0
O1105 O 0.65328 0.76204 0.93012 0.0
O1106 O 0.65892 0.76696 0.96505 0.0
O1107 O 0.64535 0.76691 0.9688 0.0
H1108 H 0.64502 0.74585 0.94747 0.0
H1109 H 0.63607 0.72818 0.94747 0.0
H1110 H 0.62198 0.72839 0.90726 0.0
H1111 H 0.63093 0.74606 0.90737 0.0
H1112 H 0.66583 0.79606 0.89055 0.0
H1113 H 0.6619 0.78528 0.9117 0.0
H1114 H 0.66818 0.81862 0.91916 0.0
H1115 H 0.66451 0.8079 0.94018 0.0
H1116 H 0.67292 0.78949 1.0071 0.0
H1117 H 0.64995 0.76274 0.02473 0.0
H1118 H 0.64445 0.75693 0.99995 0.0
H1119 H 0.6674 0.7835 0.98219 0.0
C1120 C 0.27387 0.8955 0.92676 0.0
C1121 C 0.27897 0.89816 0.94002 0.0
C1122 C 0.29428 0.90533 0.92679 0.0
C1123 C 0.28908 0.90301 0.94004 0.0
C1124 C 0.28909 0.90263 0.91354 0.0
C1125 C 0.27899 0.89776 0.91354 0.0
U1126 U 0.24996 0.88676 0.94649 0.0
O1127 O 0.23687 0.88699 0.93971 0.0
O1128 O 0.23611 0.8732 0.94459 0.0
C1129 C 0.23151 0.87754 0.93977 0.0
C1130 C 0.26325 0.89051 0.92659 0.0
C1131 C 0.22533 0.87323 0.92682 0.0
C1132 C 0.22302 0.86823 0.9013 0.0
C1133 C 0.22911 0.87237 0.9134 0.0
C1134 C 0.20935 0.86581 0.91592 0.0
C1135 C 0.21305 0.86492 0.9024 0.0
C1136 C 0.21543 0.86991 0.92798 0.0
C1137 C 0.25121 0.89264 0.98788 0.0
C1138 C 0.24037 0.88435 1.00828 0.0
C1139 C 0.25186 0.90145 0.00993 0.0
C1140 C 0.2552 0.90126 0.99587 0.0
C1141 C 0.24445 0.89298 0.01638 0.0
C1142 C 0.24369 0.88418 0.99415 0.0
C1143 C 0.25542 0.89266 0.97346 0.0
O1144 O 0.25885 0.88235 0.93393 0.0
O1145 O 0.25948 0.89604 0.92887 0.0
O1146 O 0.25474 0.8981 0.9633 0.0
O1147 O 0.25394 0.88433 0.96846 0.0
H1148 H 0.27513 0.89648 0.95035 0.0
H1149 H 0.2928 0.90485 0.95045 0.0
H1150 H 0.29284 0.90441 0.90313 0.0
H1151 H 0.27517 0.89582 0.9032 0.0
H1152 H 0.22613 0.86775 0.89103 0.0
H1153 H 0.23676 0.87492 0.91229 0.0
H1154 H 0.20172 0.8632 0.91727 0.0
H1155 H 0.21238 0.87049 0.93827 0.0
H1156 H 0.23459 0.87773 0.01287 0.0
H1157 H 0.25526 0.90818 0.0159 0.0
H1158 H 0.26105 0.90785 0.99131 0.0
H1159 H 0.24046 0.87743 0.98822 0.0
C1160 C 0.12543 0.38221 0.92715 0.0
C1161 C 0.12244 0.3843 0.9404 0.0
C1162 C 0.11551 0.39268 0.92726 0.0
C1163 C 0.11754 0.3895 0.94047 0.0
C1164 C 0.11853 0.39052 0.91401 0.0
C1165 C 0.12344 0.38534 0.91397 0.0
U1166 U 0.13435 0.36707 0.94656 0.0
O1167 O 0.13458 0.35408 0.93942 0.0
O1168 O 0.14817 0.36722 0.94474 0.0
C1169 C 0.14406 0.35839 0.93952 0.0
C1170 C 0.13057 0.37672 0.92692 0.0
C1171 C 0.14865 0.35691 0.92652 0.0
C1172 C 0.14918 0.35428 0.90036 0.0
C1173 C 0.14497 0.35626 0.91235 0.0
C1174 C 0.16093 0.35382 0.91651 0.0
C1175 C 0.15716 0.35293 0.90231 0.0
C1176 C 0.15671 0.35577 0.92846 0.0
C1177 C 0.12809 0.36182 0.98784 0.0
C1178 C 0.13632 0.35931 1.00835 0.0
C1179 C 0.11916 0.35345 0.00974 0.0
C1180 C 0.1194 0.35702 0.99569 0.0
C1181 C 0.12763 0.35462 0.01632 0.0
C1182 C 0.13655 0.36286 0.99422 0.0
C1183 C 0.12813 0.36611 0.97348 0.0
O1184 O 0.13865 0.3805 0.93443 0.0
O1185 O 0.12514 0.36737 0.92891 0.0
O1186 O 0.12288 0.36005 0.96314 0.0
O1187 O 0.13645 0.37315 0.96872 0.0
H1188 H 0.12392 0.38193 0.9507 0.0
H1189 H 0.11545 0.39112 0.95088 0.0
H1190 H 0.11697 0.39272 0.90363 0.0
H1191 H 0.12565 0.38375 0.90363 0.0
H1192 H 0.14603 0.35357 0.88963 0.0
H1193 H 0.13875 0.35712 0.91058 0.0
H1194 H 0.16718 0.35302 0.91842 0.0
H1195 H 0.1597 0.35629 0.93928 0.0
H1196 H 0.14295 0.36025 0.01303 0.0
H1197 H 0.11237 0.35 0.01561 0.0
H1198 H 0.1128 0.3562 0.99104 0.0
H1199 H 0.14336 0.36652 0.9884 0.0
C1200 C 0.27344 0.38257 0.4273 0.0
C1201 C 0.27867 0.38503 0.44045 0.0
C1202 C 0.29384 0.39279 0.42687 0.0
C1203 C 0.28877 0.39011 0.44024 0.0
C1204 C 0.28854 0.39026 0.41373 0.0
C1205 C 0.27843 0.38521 0.41396 0.0
U1206 U 0.24961 0.36888 0.44782 0.0
O1207 O 0.23617 0.36942 0.44573 0.0
O1208 O 0.23604 0.35583 0.44193 0.0
C1209 C 0.23113 0.36039 0.44145 0.0
C1210 C 0.26281 0.37728 0.42739 0.0
C1211 C 0.22498 0.35859 0.42846 0.0
C1212 C 0.22223 0.35667 0.40216 0.0
C1213 C 0.22835 0.35867 0.41424 0.0
C1214 C 0.20937 0.35465 0.41836 0.0
C1215 C 0.21264 0.35461 0.40408 0.0
C1216 C 0.21547 0.35661 0.4304 0.0
C1217 C 0.25132 0.36594 0.48966 0.0
C1218 C 0.23847 0.35511 0.50611 0.0
C1219 C 0.25387 0.36719 0.51596 0.0
C1220 C 0.25725 0.37037 0.50179 0.0
C1221 C 0.24445 0.35948 0.51833 0.0
C1222 C 0.24187 0.35832 0.49188 0.0
C1223 C 0.25534 0.36926 0.4749 0.0
O1224 O 0.25873 0.36804 0.43048 0.0
O1225 O 0.25877 0.38158 0.43422 0.0
O1226 O 0.25414 0.37612 0.46922 0.0
O1227 O 0.25401 0.36253 0.46543 0.0
H1228 H 0.27493 0.38301 0.45086 0.0
H1229 H 0.29262 0.39182 0.45054 0.0
H1230 H 0.29219 0.39231 0.40326 0.0
H1231 H 0.27452 0.38339 0.40371 0.0
H1232 H 0.22503 0.35681 0.39131 0.0
H1233 H 0.23569 0.36023 0.41249 0.0
H1234 H 0.20201 0.35298 0.42029 0.0
H1235 H 0.21273 0.3565 0.44129 0.0
H1236 H 0.23115 0.34922 0.50754 0.0
H1237 H 0.25874 0.37063 0.52505 0.0
H1238 H 0.26459 0.37623 0.50028 0.0
H1239 H 0.23716 0.35483 0.48263 0.0
C1240 C 0.63791 0.89374 0.42729 0.0
C1241 C 0.63516 0.89616 0.4405 0.0
C1242 C 0.6274 0.90363 0.42708 0.0
C1243 C 0.62995 0.90105 0.4404 0.0
C1244 C 0.63019 0.90117 0.41389 0.0
C1245 C 0.63539 0.89627 0.41401 0.0
U1246 U 0.65213 0.88415 0.4476 0.0
O1247 O 0.65232 0.87058 0.44517 0.0
O1248 O 0.66561 0.8844 0.4417 0.0
C1249 C 0.6614 0.87496 0.441 0.0
C1250 C 0.64349 0.88869 0.42726 0.0
C1251 C 0.66356 0.87101 0.42787 0.0
C1252 C 0.66058 0.86566 0.40252 0.0
C1253 C 0.6585 0.86962 0.41472 0.0
C1254 C 0.67286 0.86456 0.41646 0.0
C1255 C 0.66779 0.86306 0.40324 0.0
C1256 C 0.67076 0.86849 0.42863 0.0
C1257 C 0.65465 0.88861 0.48964 0.0
C1258 C 0.66676 0.88936 0.50658 0.0
C1259 C 0.65239 0.88896 0.51588 0.0
C1260 C 0.6491 0.88848 0.50158 0.0
C1261 C 0.66135 0.88961 0.51858 0.0
C1262 C 0.66345 0.88889 0.49221 0.0
C1263 C 0.65134 0.8891 0.47477 0.0
O1264 O 0.65269 0.89408 0.43045 0.0
O1265 O 0.63939 0.88029 0.43393 0.0
O1266 O 0.64475 0.88092 0.46899 0.0
O1267 O 0.658 0.89479 0.46538 0.0
H1268 H 0.63705 0.89426 0.45088 0.0
H1269 H 0.62783 0.9027 0.45076 0.0
H1270 H 0.6285 0.90316 0.40344 0.0
H1271 H 0.6375 0.89451 0.40371 0.0
H1272 H 0.65661 0.86471 0.39248 0.0
H1273 H 0.65293 0.87156 0.4139 0.0
H1274 H 0.67835 0.86253 0.41752 0.0
H1275 H 0.67472 0.86948 0.4387 0.0
H1276 H 0.67371 0.8899 0.50827 0.0
H1277 H 0.64795 0.88895 0.52485 0.0
H1278 H 0.64228 0.88823 0.49983 0.0
H1279 H 0.66785 0.88898 0.48314 0.0
C1280 C 0.12723 0.74671 0.42804 0.0
C1281 C 0.12377 0.74148 0.44112 0.0
C1282 C 0.11723 0.72633 0.4277 0.0
C1283 C 0.11883 0.73138 0.44096 0.0
C1284 C 0.12073 0.73163 0.41463 0.0
C1285 C 0.12569 0.74173 0.41482 0.0
U1286 U 0.13572 0.77046 0.44798 0.0
O1287 O 0.14947 0.78423 0.44671 0.0
O1288 O 0.13589 0.7837 0.44103 0.0
C1289 C 0.14536 0.78894 0.44147 0.0
C1290 C 0.13234 0.75733 0.42805 0.0
C1291 C 0.15004 0.79509 0.42859 0.0
C1292 C 0.15202 0.79759 0.40225 0.0
C1293 C 0.14772 0.79146 0.41428 0.0
C1294 C 0.16114 0.81097 0.41871 0.0
C1295 C 0.15877 0.80744 0.40431 0.0
C1296 C 0.15682 0.80485 0.4307 0.0
C1297 C 0.12878 0.76881 0.48896 0.0
C1298 C 0.13603 0.78095 0.50808 0.0
C1299 C 0.12023 0.76694 0.51181 0.0
C1300 C 0.12067 0.76357 0.4979 0.0
C1301 C 0.12791 0.77565 0.51712 0.0
C1302 C 0.13645 0.77757 0.49409 0.0
C1303 C 0.12908 0.76475 0.47461 0.0
O1304 O 0.12684 0.76118 0.42992 0.0
O1305 O 0.14029 0.76156 0.43586 0.0
O1306 O 0.13753 0.76625 0.47015 0.0
O1307 O 0.12397 0.76567 0.46414 0.0
H1308 H 0.12485 0.74521 0.45144 0.0
H1309 H 0.11613 0.72754 0.45119 0.0
H1310 H 0.11974 0.72799 0.40426 0.0
H1311 H 0.12832 0.74565 0.40462 0.0
H1312 H 0.15011 0.7946 0.39133 0.0
H1313 H 0.14253 0.78392 0.41242 0.0
H1314 H 0.1662 0.81852 0.42074 0.0
H1315 H 0.15869 0.8078 0.44166 0.0
H1316 H 0.14202 0.78773 0.51178 0.0
H1317 H 0.11393 0.76261 0.51853 0.0
H1318 H 0.1147 0.75677 0.49418 0.0
H1319 H 0.14277 0.78176 0.48734 0.0
C1320 C 0.05435 0.60149 0.42462 0.0
C1321 C 0.05727 0.60674 0.41148 0.0
C1322 C 0.06482 0.62189 0.42505 0.0
C1323 C 0.06247 0.61683 0.41169 0.0
C1324 C 0.06184 0.61656 0.43818 0.0
C1325 C 0.05666 0.60647 0.43795 0.0
U1326 U 0.04003 0.57794 0.40392 0.0
O1327 O 0.04006 0.56423 0.40554 0.0
O1328 O 0.02673 0.56455 0.40976 0.0
C1329 C 0.03104 0.55939 0.40993 0.0
C1330 C 0.04883 0.59087 0.4245 0.0
C1331 C 0.02914 0.55316 0.42286 0.0
C1332 C 0.02895 0.5508 0.4492 0.0
C1333 C 0.03095 0.55692 0.43711 0.0
C1334 C 0.0234 0.53713 0.43288 0.0
C1335 C 0.02514 0.54081 0.44723 0.0
C1336 C 0.02538 0.54325 0.42084 0.0
C1337 C 0.03713 0.58062 0.36218 0.0
C1338 C 0.02629 0.56834 0.34503 0.0
C1339 C 0.03792 0.58429 0.33626 0.0
C1340 C 0.04129 0.58709 0.35052 0.0
C1341 C 0.03029 0.57493 0.33333 0.0
C1342 C 0.02967 0.57118 0.35937 0.0
C1343 C 0.04052 0.58414 0.37711 0.0
O1344 O 0.03958 0.58703 0.42163 0.0
O1345 O 0.05289 0.58668 0.41743 0.0
O1346 O 0.04719 0.5825 0.38243 0.0
O1347 O 0.03387 0.58285 0.38673 0.0
H1348 H 0.05554 0.60302 0.40106 0.0
H1349 H 0.06474 0.62066 0.40137 0.0
H1350 H 0.06338 0.62019 0.44865 0.0
H1351 H 0.05442 0.60254 0.4482 0.0
H1352 H 0.03048 0.55389 0.46007 0.0
H1353 H 0.0339 0.56458 0.43888 0.0
H1354 H 0.02034 0.52948 0.43094 0.0
H1355 H 0.02391 0.54021 0.40992 0.0
H1356 H 0.02039 0.5611 0.34315 0.0
H1357 H 0.0413 0.58949 0.32751 0.0
H1358 H 0.04707 0.59439 0.35247 0.0
H1359 H 0.02637 0.56608 0.36827 0.0
C1360 C 0.41878 0.45531 0.42399 0.0
C1361 C 0.41363 0.45249 0.41078 0.0
C1362 C 0.39837 0.44537 0.42412 0.0
C1363 C 0.40353 0.44758 0.41083 0.0
C1364 C 0.4036 0.44824 0.43732 0.0
C1365 C 0.41371 0.45315 0.43724 0.0
U1366 U 0.44268 0.465 0.40381 0.0
O1367 O 0.45641 0.4786 0.40633 0.0
O1368 O 0.45592 0.46481 0.40982 0.0
C1369 C 0.46113 0.47426 0.41053 0.0
C1370 C 0.42941 0.46039 0.42407 0.0
C1371 C 0.46721 0.47821 0.42367 0.0
C1372 C 0.46961 0.48372 0.44896 0.0
C1373 C 0.46357 0.47975 0.43675 0.0
C1374 C 0.48293 0.48454 0.43518 0.0
C1375 C 0.47938 0.48618 0.44832 0.0
C1376 C 0.47691 0.48061 0.42301 0.0
C1377 C 0.44109 0.46068 0.3619 0.0
C1378 C 0.45405 0.46277 0.34564 0.0
C1379 C 0.43855 0.45901 0.3356 0.0
C1380 C 0.43514 0.45892 0.34971 0.0
C1381 C 0.44804 0.46088 0.33336 0.0
C1382 C 0.45061 0.46269 0.3598 0.0
C1383 C 0.43704 0.46005 0.3766 0.0
O1384 O 0.43326 0.45504 0.42092 0.0
O1385 O 0.43371 0.46879 0.4174 0.0
O1386 O 0.43857 0.4682 0.3824 0.0
O1387 O 0.43802 0.45438 0.386 0.0
H1388 H 0.41744 0.4541 0.40042 0.0
H1389 H 0.39976 0.44561 0.40046 0.0
H1390 H 0.3999 0.44654 0.44775 0.0
H1391 H 0.41756 0.45523 0.44755 0.0
H1392 H 0.46661 0.48478 0.45893 0.0
H1393 H 0.45609 0.47791 0.4375 0.0
H1394 H 0.49043 0.48646 0.43419 0.0
H1395 H 0.47986 0.4795 0.413 0.0
H1396 H 0.46142 0.46434 0.34432 0.0
H1397 H 0.43366 0.45736 0.32647 0.0
H1398 H 0.42775 0.45731 0.35112 0.0
H1399 H 0.45533 0.4641 0.3691 0.0
C1400 C 0.56549 0.9666 0.42448 0.0
C1401 C 0.56854 0.96447 0.41131 0.0
C1402 C 0.57543 0.95615 0.4247 0.0
C1403 C 0.57345 0.95928 0.41141 0.0
C1404 C 0.57233 0.9583 0.43786 0.0
C1405 C 0.5674 0.96347 0.43774 0.0
U1406 U 0.55587 0.98088 0.40435 0.0
O1407 O 0.5423 0.98106 0.40693 0.0
O1408 O 0.55614 0.99433 0.41044 0.0
C1409 C 0.54668 0.99011 0.41123 0.0
C1410 C 0.56043 0.97216 0.42454 0.0
C1411 C 0.54274 0.99224 0.42442 0.0
C1412 C 0.5353 0.98799 0.44857 0.0
C1413 C 0.53936 0.98593 0.43646 0.0
C1414 C 0.53814 1.00276 0.43686 0.0
C1415 C 0.53461 0.99642 0.44889 0.0
C1416 C 0.54214 1.00067 0.42477 0.0
C1417 C 0.56018 0.98374 0.36244 0.0
C1418 C 0.55826 0.99479 0.34636 0.0
C1419 C 0.56168 0.98288 0.3361 0.0
C1420 C 0.56177 0.97949 0.35016 0.0
C1421 C 0.55999 0.99061 0.33399 0.0
C1422 C 0.55834 0.99137 0.36047 0.0
C1423 C 0.56081 0.98026 0.37709 0.0
O1424 O 0.56581 0.98136 0.4214 0.0
O1425 O 0.55203 0.96807 0.41787 0.0
O1426 O 0.55265 0.97363 0.3829 0.0
O1427 O 0.56651 0.98686 0.38651 0.0
H1428 H 0.56716 0.96686 0.40096 0.0
H1429 H 0.57583 0.95785 0.4011 0.0
H1430 H 0.57361 0.9559 0.44827 0.0
H1431 H 0.56509 0.96504 0.44801 0.0
H1432 H 0.53276 0.98302 0.45771 0.0
H1433 H 0.53979 0.9794 0.43647 0.0
H1434 H 0.53762 0.00924 0.43663 0.0
H1435 H 0.54468 1.00562 0.41557 0.0
H1436 H 0.55684 1.00069 0.34513 0.0
H1437 H 0.5632 0.97958 0.3269 0.0
H1438 H 0.56324 0.97362 0.35147 0.0
H1439 H 0.55707 0.99473 0.36984 0.0
C1440 C 0.12475 0.33599 0.14805 0.0
C1441 C 0.1163 0.3274 0.15185 0.0
C1442 C 0.1268 0.3389 0.13339 0.0
C1443 C 0.12046 0.32971 0.09532 0.0
H1444 H 0.12999 0.35654 0.0855 0.0
C1445 C 0.11963 0.34235 0.03637 0.0
C1446 C 0.12737 0.3512 0.03159 0.0
C1447 C 0.11904 0.33939 0.05093 0.0
C1448 C 0.12746 0.34905 0.08805 0.0
H1449 H 0.10333 0.31521 0.1431 0.0
H1450 H 0.10692 0.32024 0.11766 0.0
H1451 H 0.12759 0.35154 0.1111 0.0
H1452 H 0.14064 0.36385 0.03842 0.0
H1453 H 0.1397 0.35863 0.06379 0.0
H1454 H 0.12022 0.3272 0.07227 0.0
C1455 C 0.11206 0.32466 0.12597 0.0
C1456 C 0.12609 0.34618 0.10275 0.0
C1457 C 0.11 0.32177 0.14059 0.0
C1458 C 0.13462 0.35695 0.04169 0.0
C1459 C 0.13402 0.35401 0.05628 0.0
C1460 C 0.12183 0.33258 0.08063 0.0
C1461 C 0.12046 0.33328 0.12217 0.0
C1462 C 0.12246 0.33645 0.10657 0.0
C1463 C 0.12618 0.34523 0.06112 0.0
C1464 C 0.12525 0.34227 0.07679 0.0
H1465 H 0.12982 0.34045 0.1564 0.0
H1466 H 0.1334 0.34552 0.13085 0.0
H1467 H 0.11782 0.3222 0.09786 0.0
H1468 H 0.11397 0.33769 0.02885 0.0
H1469 H 0.11286 0.33263 0.05427 0.0
C1470 C 0.68238 0.78938 0.14903 0.0
C1471 C 0.6923 0.79338 0.15179 0.0
C1472 C 0.67896 0.78853 0.13468 0.0
C1473 C 0.68671 0.79708 0.09644 0.0
H1474 H 0.66369 0.77313 0.08624 0.0
C1475 C 0.67526 0.78474 0.03645 0.0
C1476 C 0.66535 0.77993 0.03315 0.0
C1477 C 0.67845 0.78717 0.05092 0.0
C1478 C 0.67006 0.77992 0.08892 0.0
H1479 H 0.70643 0.80001 0.14158 0.0
H1480 H 0.70047 0.79831 0.11663 0.0
H1481 H 0.66935 0.77596 0.11144 0.0
H1482 H 0.65106 0.77438 0.04246 0.0
H1483 H 0.65661 0.77859 0.06763 0.0
H1484 H 0.68748 0.80094 0.0738 0.0
C1485 C 0.69531 0.7959 0.12553 0.0
C1486 C 0.6733 0.78156 0.10341 0.0
C1487 C 0.69873 0.79676 0.13986 0.0
C1488 C 0.65874 0.7779 0.04463 0.0
C1489 C 0.66192 0.78031 0.05907 0.0
C1490 C 0.68347 0.79543 0.08192 0.0
C1491 C 0.68537 0.79165 0.12272 0.0
C1492 C 0.6817 0.79014 0.10737 0.0
C1493 C 0.67181 0.78485 0.06245 0.0
C1494 C 0.67513 0.78681 0.07796 0.0
H1495 H 0.6772 0.78664 0.15792 0.0
H1496 H 0.67127 0.78535 0.13297 0.0
H1497 H 0.69313 0.80383 0.0991 0.0
H1498 H 0.68055 0.78632 0.02792 0.0
H1499 H 0.68611 0.79057 0.05313 0.0
C1500 C 0.22872 0.91011 0.1405 0.0
C1501 C 0.22795 0.90376 0.15175 0.0
C1502 C 0.22962 0.9081 0.12589 0.0
C1503 C 0.2371 0.89407 0.10275 0.0
H1504 H 0.22423 0.9002 0.07215 0.0
C1505 C 0.23961 0.88584 0.04165 0.0
C1506 C 0.24125 0.89319 0.03163 0.0
C1507 C 0.23719 0.88637 0.05623 0.0
C1508 C 0.22794 0.89851 0.08055 0.0
H1509 H 0.22738 0.89019 0.15631 0.0
H1510 H 0.22897 0.88668 0.13078 0.0
H1511 H 0.2215 0.90248 0.09772 0.0
H1512 H 0.2413 0.90667 0.02899 0.0
H1513 H 0.23722 0.90765 0.05438 0.0
H1514 H 0.24362 0.8902 0.08555 0.0
C1515 C 0.22898 0.89329 0.13332 0.0
C1516 C 0.22637 0.89982 0.09522 0.0
C1517 C 0.22807 0.8953 0.14797 0.0
C1518 C 0.24019 0.90094 0.03645 0.0
C1519 C 0.23774 0.90145 0.05099 0.0
C1520 C 0.23866 0.89275 0.08806 0.0
C1521 C 0.22979 0.89968 0.1221 0.0
C1522 C 0.23102 0.89773 0.10651 0.0
C1523 C 0.23631 0.89422 0.06111 0.0
C1524 C 0.23419 0.89506 0.07677 0.0
H1525 H 0.22886 0.91679 0.143 0.0
H1526 H 0.23041 0.91328 0.11759 0.0
H1527 H 0.24089 0.89249 0.11113 0.0
H1528 H 0.24044 0.87981 0.03834 0.0
H1529 H 0.23604 0.88063 0.06369 0.0
C1530 C 0.33097 0.11503 0.37445 0.0
C1531 C 0.33502 0.11099 0.36514 0.0
C1532 C 0.33396 0.11717 0.38906 0.0
C1533 C 0.34534 0.1102 0.41817 0.0
H1534 H 0.3492 0.13331 0.43782 0.0
C1535 C 0.36358 0.12112 0.4745 0.0
C1536 C 0.35982 0.1248 0.48496 0.0
C1537 C 0.36036 0.1197 0.46003 0.0
C1538 C 0.34804 0.12676 0.43254 0.0
H1539 H 0.34577 0.10656 0.36371 0.0
H1540 H 0.35097 0.11028 0.38906 0.0
H1541 H 0.3441 0.13056 0.41219 0.0
H1542 H 0.34976 0.12998 0.48826 0.0
H1543 H 0.34403 0.12736 0.46293 0.0
H1544 H 0.34925 0.10636 0.4384 0.0
C1545 C 0.34532 0.11159 0.38521 0.0
C1546 C 0.34512 0.12519 0.41785 0.0
C1547 C 0.34235 0.10946 0.37065 0.0
C1548 C 0.35276 0.12707 0.48051 0.0
C1549 C 0.34955 0.12566 0.46597 0.0
C1550 C 0.34823 0.11175 0.4328 0.0
C1551 C 0.34106 0.11531 0.39468 0.0
C1552 C 0.34385 0.11694 0.41043 0.0
C1553 C 0.35326 0.12189 0.45556 0.0
C1554 C 0.34974 0.12011 0.44015 0.0
H1555 H 0.32526 0.11623 0.37059 0.0
H1556 H 0.33049 0.11998 0.39608 0.0
H1557 H 0.3442 0.10364 0.41292 0.0
H1558 H 0.36891 0.11916 0.47754 0.0
H1559 H 0.36349 0.11691 0.45229 0.0
C1560 C 0.89028 0.23849 0.47332 0.0
C1561 C 0.89402 0.23582 0.48524 0.0
C1562 C 0.89118 0.23592 0.45902 0.0
C1563 C 0.90611 0.22904 0.43676 0.0
H1564 H 0.88619 0.2226 0.40761 0.0
C1565 C 0.90987 0.21807 0.37807 0.0
C1566 C 0.9074 0.22228 0.36656 0.0
C1567 C 0.90751 0.21884 0.39255 0.0
C1568 C 0.89185 0.22446 0.4156 0.0
H1569 H 0.90144 0.22814 0.49139 0.0
H1570 H 0.90281 0.22347 0.46649 0.0
H1571 H 0.88332 0.22537 0.43292 0.0
H1572 H 0.90031 0.23043 0.36134 0.0
H1573 H 0.89614 0.23173 0.38662 0.0
H1574 H 0.91466 0.2282 0.41945 0.0
C1575 C 0.89931 0.22769 0.46819 0.0
C1576 C 0.89021 0.22605 0.43012 0.0
C1577 C 0.89842 0.23027 0.48251 0.0
C1578 C 0.90223 0.22701 0.36989 0.0
C1579 C 0.89985 0.22776 0.3844 0.0
C1580 C 0.90773 0.22743 0.42227 0.0
C1581 C 0.89582 0.2306 0.45623 0.0
C1582 C 0.89734 0.22843 0.44089 0.0
C1583 C 0.90259 0.22381 0.39594 0.0
C1584 C 0.90066 0.22517 0.41147 0.0
H1585 H 0.88672 0.24265 0.47502 0.0
H1586 H 0.88847 0.23836 0.45011 0.0
H1587 H 0.91184 0.23104 0.44466 0.0
H1588 H 0.91368 0.21421 0.37589 0.0
H1589 H 0.90956 0.21554 0.40113 0.0
C1590 C 0.79292 0.67894 0.37042 0.0
C1591 C 0.7977 0.68885 0.36716 0.0
C1592 C 0.79218 0.67575 0.3849 0.0
C1593 C 0.79263 0.68385 0.42286 0.0
H1594 H 0.7945 0.66136 0.43321 0.0
C1595 C 0.78983 0.6715 0.48298 0.0
C1596 C 0.78419 0.66154 0.48569 0.0
C1597 C 0.7924 0.675 0.46866 0.0
C1598 C 0.79388 0.66761 0.4305 0.0
H1599 H 0.80586 0.70316 0.37656 0.0
H1600 H 0.80454 0.6976 0.40174 0.0
H1601 H 0.79727 0.66709 0.40793 0.0
H1602 H 0.77721 0.64745 0.47542 0.0
H1603 H 0.7815 0.65354 0.45051 0.0
H1604 H 0.78908 0.6843 0.4453 0.0
C1605 C 0.8012 0.69229 0.39314 0.0
C1606 C 0.79547 0.67089 0.41599 0.0
C1607 C 0.80196 0.69548 0.37869 0.0
C1608 C 0.78144 0.65517 0.47374 0.0
C1609 C 0.784 0.65866 0.45944 0.0
C1610 C 0.79102 0.68056 0.43734 0.0
C1611 C 0.79618 0.68239 0.39647 0.0
C1612 C 0.79482 0.67903 0.41197 0.0
C1613 C 0.78941 0.66863 0.45668 0.0
C1614 C 0.79157 0.67236 0.44135 0.0
H1615 H 0.78946 0.67363 0.36185 0.0
H1616 H 0.78817 0.66807 0.38707 0.0
H1617 H 0.7919 0.69004 0.42013 0.0
H1618 H 0.79202 0.67663 0.49188 0.0
H1619 H 0.79668 0.68271 0.46698 0.0
C1620 C 0.90641 0.6764 0.86975 0.0
C1621 C 0.90709 0.68507 0.86497 0.0
C1622 C 0.90393 0.67331 0.88424 0.0
C1623 C 0.90403 0.68246 0.92137 0.0
H1624 H 0.88783 0.65534 0.93061 0.0
C1625 C 0.89326 0.66866 0.98102 0.0
C1626 C 0.89357 0.6603 0.98478 0.0
C1627 C 0.89421 0.67168 0.9664 0.0
C1628 C 0.89243 0.66293 0.92823 0.0
H1629 H 0.90556 0.69722 0.8717 0.0
H1630 H 0.90111 0.69175 0.89695 0.0
H1631 H 0.89059 0.66053 0.90511 0.0
H1632 H 0.8953 0.64866 0.97602 0.0
H1633 H 0.8969 0.65387 0.95067 0.0
H1634 H 0.90596 0.68484 0.94449 0.0
C1635 C 0.90259 0.68739 0.8895 0.0
C1636 C 0.89401 0.66592 0.9136 0.0
C1637 C 0.90503 0.69047 0.87498 0.0
C1638 C 0.89482 0.65502 0.97354 0.0
C1639 C 0.89575 0.65802 0.95896 0.0
C1640 C 0.90244 0.67948 0.93601 0.0
C1641 C 0.90208 0.6788 0.89435 0.0
C1642 C 0.89992 0.67571 0.90996 0.0
C1643 C 0.89548 0.66639 0.95518 0.0
C1644 C 0.89672 0.66966 0.93963 0.0
H1645 H 0.90784 0.67201 0.8623 0.0
H1646 H 0.90371 0.66671 0.8876 0.0
H1647 H 0.90872 0.69004 0.91898 0.0
H1648 H 0.8922 0.67285 0.98935 0.0
H1649 H 0.89385 0.6781 0.96387 0.0
C1650 C 0.3439 0.235 0.86983 0.0
C1651 C 0.33544 0.22669 0.86522 0.0
C1652 C 0.34701 0.23596 0.88433 0.0
C1653 C 0.34438 0.22242 0.91863 0.0
H1654 H 0.35351 0.24745 0.93654 0.0
C1655 C 0.35236 0.22944 0.98098 0.0
C1656 C 0.36054 0.23821 0.98498 0.0
C1657 C 0.34927 0.22764 0.96638 0.0
C1658 C 0.3511 0.24044 0.93169 0.0
H1659 H 0.32376 0.21278 0.87227 0.0
H1660 H 0.32922 0.21446 0.89763 0.0
H1661 H 0.34834 0.24498 0.91113 0.0
H1662 H 0.37182 0.25197 0.97665 0.0
H1663 H 0.36658 0.24876 0.9513 0.0
H1664 H 0.34714 0.21791 0.9393 0.0
C1665 C 0.33348 0.2202 0.88996 0.0
C1666 C 0.34813 0.23902 0.91708 0.0
C1667 C 0.33035 0.21923 0.8754 0.0
C1668 C 0.36557 0.24509 0.97399 0.0
C1669 C 0.36248 0.24329 0.95944 0.0
C1670 C 0.34737 0.22385 0.93329 0.0
C1671 C 0.34176 0.22865 0.89465 0.0
C1672 C 0.34479 0.23002 0.91031 0.0
C1673 C 0.35425 0.23459 0.95545 0.0
C1674 C 0.35083 0.23291 0.93997 0.0
H1675 H 0.3481 0.2408 0.86221 0.0
H1676 H 0.35355 0.24247 0.88747 0.0
H1677 H 0.34192 0.21542 0.91374 0.0
H1678 H 0.34836 0.22395 0.98913 0.0
H1679 H 0.34286 0.22088 0.96371 0.0
C1680 C 0.7873 0.10406 0.8752 0.0
C1681 C 0.79526 0.11049 0.86667 0.0
C1682 C 0.78637 0.10624 0.88968 0.0
C1683 C 0.79458 0.12616 0.91645 0.0
H1684 H 0.78506 0.10513 0.94443 0.0
C1685 C 0.79085 0.13114 0.97895 0.0
C1686 C 0.78215 0.12412 0.9854 0.0
C1687 C 0.79325 0.12992 0.96464 0.0
C1688 C 0.78767 0.11108 0.93675 0.0
H1689 H 0.8084 0.1244 0.86665 0.0
H1690 H 0.80679 0.12823 0.89209 0.0
H1691 H 0.7877 0.10233 0.91912 0.0
H1692 H 0.7693 0.11022 0.98198 0.0
H1693 H 0.77343 0.10815 0.95716 0.0
H1694 H 0.79447 0.13487 0.9342 0.0
C1695 C 0.80123 0.1215 0.88748 0.0
C1696 C 0.78917 0.10947 0.92221 0.0
C1697 C 0.80215 0.11931 0.8729 0.0
C1698 C 0.776 0.11582 0.9773 0.0
C1699 C 0.77842 0.11458 0.9631 0.0
C1700 C 0.79309 0.12777 0.93106 0.0
C1701 C 0.79338 0.11492 0.89611 0.0
C1702 C 0.79247 0.11693 0.91179 0.0
C1703 C 0.78706 0.12161 0.95656 0.0
C1704 C 0.78945 0.1202 0.94132 0.0
H1705 H 0.78173 0.09731 0.87065 0.0
H1706 H 0.7801 0.10111 0.89585 0.0
H1707 H 0.79708 0.13205 0.90871 0.0
H1708 H 0.79571 0.13763 0.98487 0.0
H1709 H 0.79999 0.13544 0.95995 0.0
C1710 C 0.66988 0.88618 0.53899 0.0
C1711 C 0.66518 0.89103 0.5338 0.0
C1712 C 0.67342 0.8876 0.55337 0.0
C1713 C 0.68084 0.90508 0.58391 0.0
H1714 H 0.67681 0.88359 0.60843 0.0
C1715 C 0.68667 0.90955 0.64592 0.0
C1716 C 0.6915 0.90531 0.6528 0.0
C1717 C 0.68359 0.90735 0.63143 0.0
C1718 C 0.67809 0.88968 0.60167 0.0
H1719 H 0.66071 0.90135 0.53961 0.0
H1720 H 0.66671 0.90372 0.56455 0.0
H1721 H 0.67145 0.88073 0.5829 0.0
H1722 H 0.69661 0.89518 0.64988 0.0
H1723 H 0.69118 0.8913 0.62445 0.0
H1724 H 0.68742 0.91404 0.60256 0.0
C1725 C 0.66772 0.89884 0.55756 0.0
C1726 C 0.67503 0.88804 0.58704 0.0
C1727 C 0.66417 0.89738 0.54328 0.0
C1728 C 0.69286 0.89853 0.64494 0.0
C1729 C 0.68976 0.89632 0.63036 0.0
C1730 C 0.68389 0.90671 0.59847 0.0
C1731 C 0.67242 0.894 0.5628 0.0
C1732 C 0.67623 0.89571 0.57805 0.0
C1733 C 0.68524 0.90084 0.62336 0.0
C1734 C 0.68242 0.89903 0.60762 0.0
H1735 H 0.67073 0.8812 0.532 0.0
H1736 H 0.67704 0.88381 0.55704 0.0
H1737 H 0.68209 0.91119 0.57722 0.0
H1738 H 0.6853 0.91463 0.65175 0.0
H1739 H 0.67991 0.91077 0.62652 0.0
C1740 C 0.12523 0.79519 0.64726 0.0
C1741 C 0.11593 0.79317 0.65135 0.0
C1742 C 0.12732 0.79422 0.63266 0.0
C1743 C 0.11834 0.79287 0.59477 0.0
H1744 H 0.13337 0.7806 0.58593 0.0
C1745 C 0.11876 0.77815 0.53739 0.0
C1746 C 0.12743 0.77904 0.53212 0.0
C1747 C 0.11809 0.78078 0.55174 0.0
C1748 C 0.12928 0.78418 0.58819 0.0
H1749 H 0.10147 0.78833 0.64325 0.0
H1750 H 0.1051 0.78669 0.61794 0.0
H1751 H 0.13088 0.78347 0.61138 0.0
H1752 H 0.14224 0.78355 0.5378 0.0
H1753 H 0.14111 0.78829 0.56283 0.0
H1754 H 0.11663 0.79348 0.57163 0.0
C1755 C 0.11085 0.78921 0.62593 0.0
C1756 C 0.12785 0.78582 0.6028 0.0
C1757 C 0.10877 0.79015 0.64048 0.0
C1758 C 0.13548 0.78284 0.54148 0.0
C1759 C 0.1348 0.78545 0.55588 0.0
C1760 C 0.11977 0.79124 0.58019 0.0
C1761 C 0.12015 0.79123 0.62181 0.0
C1762 C 0.12224 0.79006 0.60628 0.0
C1763 C 0.12607 0.78439 0.56122 0.0
C1764 C 0.12514 0.78675 0.57671 0.0
H1765 H 0.13095 0.79762 0.6553 0.0
H1766 H 0.13458 0.79593 0.62985 0.0
H1767 H 0.11414 0.79633 0.59703 0.0
H1768 H 0.11245 0.77536 0.53044 0.0
H1769 H 0.11123 0.77977 0.5555 0.0
C1770 C 0.22273 0.32135 0.63945 0.0
C1771 C 0.22648 0.32762 0.6515 0.0
C1772 C 0.22378 0.32497 0.62521 0.0
C1773 C 0.23917 0.3469 0.60346 0.0
H1774 H 0.21936 0.33411 0.57395 0.0
C1775 C 0.24362 0.36248 0.54519 0.0
C1776 C 0.24108 0.35594 0.5335 0.0
C1777 C 0.24112 0.35917 0.55959 0.0
C1778 C 0.22499 0.33772 0.58204 0.0
H1779 H 0.23409 0.34266 0.65795 0.0
H1780 H 0.23573 0.34898 0.63317 0.0
H1781 H 0.21623 0.32817 0.59912 0.0
H1782 H 0.2337 0.34076 0.52784 0.0
H1783 H 0.22931 0.33499 0.55296 0.0
H1784 H 0.24796 0.3564 0.58639 0.0
C1785 C 0.23211 0.34124 0.63471 0.0
C1786 C 0.2232 0.33432 0.59648 0.0
C1787 C 0.23105 0.33761 0.64896 0.0
C1788 C 0.23569 0.346 0.53654 0.0
C1789 C 0.23317 0.34269 0.55096 0.0
C1790 C 0.24095 0.35032 0.58905 0.0
C1791 C 0.2286 0.33497 0.62263 0.0
C1792 C 0.23029 0.33883 0.60737 0.0
C1793 C 0.23599 0.34924 0.56269 0.0
C1794 C 0.23391 0.34575 0.57813 0.0
H1795 H 0.21905 0.31361 0.641 0.0
H1796 H 0.22106 0.31992 0.6162 0.0
H1797 H 0.24488 0.35045 0.61146 0.0
H1798 H 0.2476 0.37018 0.54324 0.0
H1799 H 0.24323 0.36442 0.56831 0.0
C1800 C 0.99502 0.43732 0.71089 0.0
C1801 C 0.99871 0.44459 0.70015 0.0
C1802 C 0.99835 0.43933 0.72531 0.0
C1803 C 1.01106 0.45917 0.75197 0.0
H1804 H 0.01548 0.44039 0.77208 0.0
C1805 C 0.01964 0.46129 0.81421 0.0
C1806 C 0.0266 0.45886 0.81853 0.0
C1807 C 0.01635 0.45993 0.79971 0.0
C1808 C 0.01436 0.44575 0.76661 0.0
H1809 H 1.00874 0.45977 0.6963 0.0
H1810 H 0.01467 0.46326 0.72149 0.0
H1811 H 1.0097 0.43743 0.74695 0.0
H1812 H 0.03548 0.45302 0.81091 0.0
H1813 H 0.02991 0.45084 0.78571 0.0
H1814 H 0.01589 0.46756 0.77164 0.0
C1815 C 1.00912 0.456 0.71873 0.0
C1816 C 1.01093 0.444 0.75224 0.0
C1817 C 1.00579 0.45397 0.70426 0.0
C1818 C 0.03022 0.4551 0.80797 0.0
C1819 C 0.02693 0.45373 0.79353 0.0
C1820 C 0.01448 0.46092 0.76641 0.0
C1821 C 1.00549 0.44867 0.72941 0.0
C1822 C 1.00922 0.45067 0.74472 0.0
C1823 C 0.0199 0.45606 0.78921 0.0
C1824 C 0.01619 0.45423 0.7739 0.0
H1825 H 0.98966 0.42998 0.70811 0.0
H1826 H 0.9953 0.43354 0.73327 0.0
H1827 H 1.00976 0.46442 0.74655 0.0
H1828 H 0.01675 0.46427 0.82202 0.0
H1829 H 1.01089 0.46173 0.7968 0.0
C1830 C 0.57672 0.55243 0.71151 0.0
C1831 C 0.57378 0.55592 0.69959 0.0
C1832 C 0.57419 0.55333 0.72584 0.0
C1833 C 0.56685 0.5679 0.74802 0.0
H1834 H 0.56124 0.54838 0.77756 0.0
C1835 C 0.55595 0.57167 0.80676 0.0
C1836 C 0.5604 0.56951 0.81826 0.0
C1837 C 0.55671 0.56926 0.79231 0.0
C1838 C 0.56286 0.55393 0.76946 0.0
H1839 H 0.56565 0.56289 0.6935 0.0
H1840 H 0.56105 0.56424 0.71846 0.0
H1841 H 0.56397 0.54546 0.75225 0.0
H1842 H 0.56898 0.56288 0.82352 0.0
H1843 H 0.57028 0.55862 0.79831 0.0
H1844 H 0.56581 0.5764 0.76522 0.0
C1845 C 0.56545 0.56095 0.71673 0.0
C1846 C 0.56443 0.55226 0.75494 0.0
C1847 C 0.56799 0.56006 0.70238 0.0
C1848 C 0.56538 0.56457 0.81498 0.0
C1849 C 0.56613 0.56213 0.8005 0.0
C1850 C 0.56525 0.56955 0.76251 0.0
C1851 C 0.56864 0.55772 0.72867 0.0
C1852 C 0.56651 0.55925 0.74403 0.0
C1853 C 0.56193 0.56458 0.78896 0.0
C1854 C 0.56329 0.56262 0.77344 0.0
H1855 H 0.58107 0.54908 0.70978 0.0
H1856 H 0.57685 0.55082 0.73474 0.0
H1857 H 0.56861 0.57353 0.74001 0.0
H1858 H 0.55189 0.5753 0.80891 0.0
H1859 H 0.55322 0.57108 0.78374 0.0
C1860 C 0.4687 0.02247 0.7073 0.0
C1861 C 0.46058 0.0177 0.69816 0.0
C1862 C 0.4683 0.01963 0.72191 0.0
C1863 C 0.4541 0.9994 0.74773 0.0
H1864 H 0.46556 0.01932 0.77735 0.0
C1865 C 0.45366 0.99001 0.80893 0.0
C1866 C 0.4515 0.99531 0.819 0.0
C1867 C 0.45565 0.9929 0.79428 0.0
C1868 C 0.46229 0.01366 0.76923 0.0
H1869 H 0.44577 1.00594 0.69715 0.0
H1870 H 0.44503 1.00111 0.7226 0.0
H1871 H 0.46719 0.02383 0.75157 0.0
H1872 H 0.44984 1.00787 0.8215 0.0
H1873 H 0.45327 0.01288 0.79599 0.0
H1874 H 0.44892 0.98925 0.76538 0.0
C1875 C 0.45174 1.00701 0.71849 0.0
C1876 C 0.46332 0.01624 0.75441 0.0
C1877 C 0.45213 0.00986 0.70391 0.0
C1878 C 0.45161 1.00369 0.81411 0.0
C1879 C 0.45358 1.00657 0.79945 0.0
C1880 C 0.45307 0.99682 0.76253 0.0
C1881 C 0.45978 0.01192 0.72773 0.0
C1882 C 0.45916 0.00915 0.74347 0.0
C1883 C 0.45553 1.00115 0.78929 0.0
C1884 C 0.45707 1.00392 0.7735 0.0
H1885 H 0.4753 0.02858 0.70328 0.0
H1886 H 0.47467 0.0235 0.72866 0.0
H1887 H 0.4509 0.99374 0.73961 0.0
H1888 H 0.45378 0.9836 0.81238 0.0
H1889 H 0.4573 0.98865 0.78685 0.0
C1890 C 0.56493 1.00444 0.31639 0.0
C1891 C 0.56037 0.99445 0.31896 0.0
C1892 C 0.56593 0.00804 0.30213 0.0
C1893 C 0.55695 1.00105 0.26393 0.0
H1894 H 0.58165 0.02317 0.25373 0.0
C1895 C 0.56932 0.01271 0.20394 0.0
C1896 C 0.57467 0.02265 0.20088 0.0
C1897 C 0.56684 0.00941 0.21837 0.0
C1898 C 0.57466 0.01707 0.25642 0.0
H1899 H 0.55291 0.98042 0.30851 0.0
H1900 H 0.55485 0.98669 0.28369 0.0
H1901 H 0.57863 0.01724 0.27881 0.0
H1902 H 0.58115 0.03689 0.21061 0.0
H1903 H 0.57684 0.03114 0.23569 0.0
H1904 H 0.55306 1.0008 0.24142 0.0
C1905 C 0.5576 0.99176 0.29269 0.0
C1906 C 0.57292 0.01367 0.27084 0.0
C1907 C 0.55659 0.98816 0.30693 0.0
C1908 C 0.5772 0.02919 0.21257 0.0
C1909 C 0.57473 0.02589 0.22697 0.0
C1910 C 0.5587 1.00444 0.24948 0.0
C1911 C 0.5624 1.00175 0.29007 0.0
C1912 C 0.56406 1.00559 0.27479 0.0
C1913 C 0.56964 0.01596 0.23009 0.0
C1914 C 0.5676 0.01247 0.24553 0.0
H1915 H 0.56799 0.0095 0.32535 0.0
H1916 H 0.56955 0.01578 0.30056 0.0
H1917 H 0.54999 0.99489 0.26661 0.0
H1918 H 0.56734 1.00747 0.19524 0.0
H1919 H 0.563 1.00171 0.22037 0.0
C1920 C 1.002 0.56731 0.20758 0.0
C1921 C 0.99935 0.55882 0.19967 0.0
C1922 C 1.00572 0.5685 0.22173 0.0
C1923 C 1.00652 0.55512 0.254 0.0
H1924 H 0.02745 0.58023 0.26552 0.0
C1925 C 0.02414 0.5633 0.31206 0.0
C1926 C 0.02645 0.57227 0.31815 0.0
C1927 C 0.02099 0.56112 0.2975 0.0
C1928 C 0.02154 0.57319 0.26254 0.0
H1929 H 0.99861 0.54494 0.20045 0.0
H1930 H 1.00519 0.54706 0.22528 0.0
H1931 H 0.02194 0.57746 0.24024 0.0
H1932 H 0.02678 0.58576 0.31392 0.0
H1933 H 0.0213 0.58198 0.28874 0.0
H1934 H 1.00607 0.55092 0.27643 0.0
C1935 C 1.00431 0.55276 0.22049 0.0
C1936 C 0.01839 0.5716 0.24802 0.0
C1937 C 1.00063 0.55158 0.20623 0.0
C1938 C 0.02529 0.57888 0.30949 0.0
C1939 C 0.02216 0.57671 0.29501 0.0
C1940 C 1.00968 0.55673 0.26859 0.0
C1941 C 1.0069 0.56125 0.2284 0.0
C1942 C 1.01073 0.5626 0.24361 0.0
C1943 C 0.02009 0.56787 0.28874 0.0
C1944 C 0.01711 0.56584 0.27308 0.0
H1945 H 1.00123 0.57308 0.2028 0.0
H1946 H 1.00753 0.57509 0.22755 0.0
H1947 H 1.00056 0.54813 0.25099 0.0
H1948 H 0.025 0.55807 0.31842 0.0
H1949 H 0.01951 0.55426 0.293 0.0
C1950 C 0.45705 0.45616 0.31566 0.0
C1951 C 0.45145 0.46053 0.31828 0.0
C1952 C 0.45962 0.45518 0.30138 0.0
C1953 C 0.46118 0.464 0.26312 0.0
H1954 H 0.45918 0.43956 0.25302 0.0
C1955 C 0.46044 0.45165 0.20317 0.0
C1956 C 0.46523 0.4465 0.20005 0.0
C1957 C 0.45963 0.4541 0.2176 0.0
C1958 C 0.45991 0.44648 0.25568 0.0
H1959 H 0.44454 0.46769 0.30788 0.0
H1960 H 0.44882 0.4658 0.28302 0.0
H1961 H 0.4563 0.44252 0.27813 0.0
H1962 H 0.47333 0.44034 0.20967 0.0
H1963 H 0.47189 0.4446 0.23477 0.0
H1964 H 0.46464 0.46787 0.24055 0.0
C1965 C 0.4513 0.46318 0.292 0.0
C1966 C 0.45827 0.44819 0.27012 0.0
C1967 C 0.44874 0.46416 0.30627 0.0
C1968 C 0.46943 0.44413 0.21169 0.0
C1969 C 0.4686 0.44657 0.2261 0.0
C1970 C 0.46281 0.46228 0.24865 0.0
C1971 C 0.45666 0.45856 0.28933 0.0
C1972 C 0.45883 0.45695 0.27404 0.0
C1973 C 0.46357 0.45147 0.22928 0.0
C1974 C 0.46215 0.45348 0.24474 0.0
H1975 H 0.45921 0.45322 0.32461 0.0
H1976 H 0.46387 0.45171 0.29977 0.0
H1977 H 0.46182 0.47088 0.26576 0.0
H1978 H 0.45703 0.4535 0.19452 0.0
H1979 H 0.45562 0.45779 0.21966 0.0
C1980 C 0.04837 0.28765 0.26896 0.0
C1981 C 0.05355 0.28558 0.25854 0.0
C1982 C 0.03827 0.28255 0.26906 0.0
C1983 C 0.017 0.26721 0.24578 0.0
H1984 H 1.00341 0.25996 0.28288 0.0
C1985 C 0.97566 0.24164 0.24956 0.0
C1986 C 0.97055 0.24396 0.25978 0.0
C1987 C 0.98576 0.24665 0.2494 0.0
C1988 C 1.00708 0.26202 0.27242 0.0
H1989 H 0.0521 0.27641 0.24013 0.0
H1990 H 0.0345 0.26751 0.24033 0.0
H1991 H 0.021 0.26879 0.28258 0.0
H1992 H 0.97216 0.25351 0.27773 0.0
H1993 H 0.98975 0.2622 0.27749 0.0
H1994 H 1.00308 0.26041 0.23563 0.0
C1995 C 0.03825 0.27319 0.2483 0.0
C1996 C 0.01718 0.26709 0.27225 0.0
C1997 C 0.04836 0.2783 0.24818 0.0
C1998 C 0.97583 0.25141 0.26986 0.0
C1999 C 0.98593 0.25641 0.26972 0.0
C2000 C 1.0069 0.26212 0.24595 0.0
C2001 C 0.03307 0.27524 0.25875 0.0
C2002 C 0.02229 0.26978 0.25892 0.0
C2003 C 0.99103 0.25411 0.25948 0.0
C2004 C 1.0018 0.25947 0.25928 0.0
H2005 H 0.05212 0.29331 0.27695 0.0
H2006 H 0.03454 0.28446 0.27711 0.0
H2007 H 0.02067 0.26928 0.23531 0.0
H2008 H 0.97185 0.23585 0.24179 0.0
H2009 H 0.98944 0.24458 0.24151 0.0
C2010 C 0.76828 0.72804 0.25006 0.0
C2011 C 0.77568 0.73031 0.2603 0.0
C2012 C 0.76328 0.73313 0.24983 0.0
C2013 C 0.76518 0.75617 0.26142 0.0
H2014 H 0.73748 0.74244 0.2555 0.0
C2015 C 0.74222 0.77466 0.26811 0.0
C2016 C 0.73463 0.77219 0.25815 0.0
C2017 C 0.74725 0.7696 0.26832 0.0
C2018 C 0.74523 0.74641 0.25699 0.0
H2019 H 0.78365 0.73984 0.27825 0.0
H2020 H 0.77485 0.74862 0.27798 0.0
H2021 H 0.74616 0.73354 0.256 0.0
H2022 H 0.72638 0.76236 0.24065 0.0
H2023 H 0.73528 0.75369 0.2408 0.0
H2024 H 0.76427 0.76905 0.26236 0.0
C2025 C 0.77296 0.74294 0.27004 0.0
C2026 C 0.75021 0.7413 0.25728 0.0
C2027 C 0.77794 0.73782 0.27031 0.0
C2028 C 0.73224 0.76454 0.24837 0.0
C2029 C 0.73727 0.75948 0.24858 0.0
C2030 C 0.76021 0.76129 0.2611 0.0
C2031 C 0.76556 0.74066 0.2598 0.0
C2032 C 0.76025 0.74611 0.2595 0.0
C2033 C 0.74484 0.76193 0.25858 0.0
C2034 C 0.75016 0.75648 0.25888 0.0
H2035 H 0.76628 0.72224 0.24229 0.0
H2036 H 0.75769 0.73123 0.2417 0.0
H2037 H 0.77293 0.76013 0.26293 0.0
H2038 H 0.74434 0.78058 0.27569 0.0
H2039 H 0.75296 0.77164 0.27627 0.0
C2040 C 0.29031 0.04396 0.24847 0.0
C2041 C 0.28858 0.04902 0.25955 0.0
C2042 C 0.2853 0.03387 0.24829 0.0
C2043 C 0.26318 0.01254 0.2622 0.0
H2044 H 0.27688 0.99896 0.25284 0.0
C2045 C 0.24566 0.97119 0.26896 0.0
C2046 C 0.24767 0.9661 0.25829 0.0
C2047 C 0.25059 0.98128 0.26903 0.0
C2048 C 0.2729 1.00263 0.25529 0.0
H2049 H 0.28013 0.04736 0.27902 0.0
H2050 H 0.2715 0.02977 0.27879 0.0
H2051 H 0.28555 0.01653 0.2531 0.0
H2052 H 0.25656 0.96776 0.23936 0.0
H2053 H 0.26499 0.98532 0.23927 0.0
H2054 H 0.25053 0.99864 0.26434 0.0
C2055 C 0.27668 0.03362 0.27019 0.0
C2056 C 0.27789 0.01272 0.25546 0.0
C2057 C 0.28171 0.04371 0.27041 0.0
C2058 C 0.25474 0.9714 0.24766 0.0
C2059 C 0.25966 0.9815 0.24772 0.0
C2060 C 0.25819 1.00244 0.262 0.0
C2061 C 0.27842 0.02856 0.25913 0.0
C2062 C 0.2731 0.01781 0.25893 0.0
C2063 C 0.25767 0.98658 0.25842 0.0
C2064 C 0.26298 0.99734 0.25856 0.0
H2065 H 0.29562 0.04781 0.24002 0.0
H2066 H 0.28676 0.03022 0.23953 0.0
H2067 H 0.25923 0.01622 0.2647 0.0
H2068 H 0.24019 0.96737 0.27722 0.0
H2069 H 0.24893 0.98493 0.27754 0.0
C2070 C 0.04932 0.7756 0.77008 0.0
C2071 C 0.05435 0.7739 0.75892 0.0
C2072 C 0.03922 0.77066 0.7703 0.0
C2073 C 0.0178 0.75702 0.74664 0.0
H2074 H 1.0043 0.74726 0.78345 0.0
C2075 C 0.97651 0.73131 0.74924 0.0
C2076 C 0.97137 0.73261 0.76065 0.0
C2077 C 0.98661 0.73641 0.74908 0.0
C2078 C 1.00794 0.75004 0.77309 0.0
H2079 H 0.0526 0.76554 0.73933 0.0
H2080 H 0.03502 0.757 0.73967 0.0
H2081 H 0.02189 0.75606 0.78304 0.0
H2082 H 0.97287 0.74041 0.78077 0.0
H2083 H 0.99047 0.74932 0.78047 0.0
H2084 H 1.00387 0.75104 0.73668 0.0
C2085 C 0.0389 0.76225 0.74816 0.0
C2086 C 0.01804 0.75509 0.77286 0.0
C2087 C 0.049 0.76716 0.74796 0.0
C2088 C 0.97659 0.73913 0.77192 0.0
C2089 C 0.9867 0.74424 0.77175 0.0
C2090 C 1.0077 0.752 0.74687 0.0
C2091 C 0.03387 0.76392 0.75935 0.0
C2092 C 0.02311 0.75862 0.75962 0.0
C2093 C 0.99185 0.74296 0.76031 0.0
C2094 C 1.00263 0.74841 0.7601 0.0
H2095 H 0.05318 0.78085 0.77857 0.0
H2096 H 0.03559 0.77224 0.77896 0.0
H2097 H 0.02146 0.75978 0.73628 0.0
H2098 H 0.97273 0.72624 0.74051 0.0
H2099 H 0.99031 0.7351 0.74024 0.0
C2100 C 0.29051 0.25012 0.76921 0.0
C2101 C 0.28735 0.24172 0.76077 0.0
C2102 C 0.28552 0.25523 0.76892 0.0
C2103 C 0.26184 0.25276 0.75925 0.0
H2104 H 0.27632 0.28071 0.75925 0.0
C2105 C 0.24379 0.27585 0.74901 0.0
C2106 C 0.24679 0.28406 0.75783 0.0
C2107 C 0.24871 0.27067 0.74937 0.0
C2108 C 0.27216 0.27291 0.7594 0.0
H2109 H 0.27633 0.23206 0.74559 0.0
H2110 H 0.26778 0.24107 0.74484 0.0
H2111 H 0.28489 0.27171 0.75992 0.0
H2112 H 0.25743 0.29332 0.77379 0.0
H2113 H 0.26593 0.28424 0.77452 0.0
H2114 H 0.24911 0.25398 0.75865 0.0
C2115 C 0.27406 0.24366 0.75181 0.0
C2116 C 0.27708 0.26774 0.7598 0.0
C2117 C 0.27905 0.23855 0.7521 0.0
C2118 C 0.25486 0.28698 0.76696 0.0
C2119 C 0.2598 0.28183 0.76726 0.0
C2120 C 0.25692 0.25794 0.75881 0.0
C2121 C 0.27724 0.25208 0.76018 0.0
C2122 C 0.27199 0.25759 0.75975 0.0
C2123 C 0.25678 0.2736 0.7585 0.0
C2124 C 0.26201 0.26808 0.7589 0.0
H2125 H 0.29693 0.25284 0.7759 0.0
H2126 H 0.28813 0.26161 0.77565 0.0
H2127 H 0.25767 0.24496 0.75944 0.0
H2128 H 0.23756 0.27335 0.74196 0.0
H2129 H 0.24623 0.26442 0.74237 0.0
C2130 C 0.74519 0.97193 0.76793 0.0
C2131 C 0.73747 0.96679 0.75819 0.0
C2132 C 0.75021 0.98202 0.76811 0.0
C2133 C 0.75532 1.00334 0.74564 0.0
H2134 H 0.76254 0.01679 0.7828 0.0
C2135 C 0.7708 0.04456 0.74972 0.0
C2136 C 0.77825 0.04973 0.75985 0.0
C2137 C 0.76587 0.03447 0.74953 0.0
C2138 C 0.7607 0.01317 0.77231 0.0
H2139 H 0.72893 0.96836 0.74111 0.0
H2140 H 0.73772 0.98594 0.74136 0.0
H2141 H 0.75395 0.99922 0.78241 0.0
H2142 H 0.78644 0.04828 0.77758 0.0
H2143 H 0.7779 0.03071 0.7772 0.0
H2144 H 0.76208 0.01728 0.73554 0.0
C2145 C 0.73997 0.98214 0.74875 0.0
C2146 C 0.75576 1.00307 0.77209 0.0
C2147 C 0.73493 0.97205 0.74859 0.0
C2148 C 0.78064 0.04454 0.76978 0.0
C2149 C 0.77573 0.03445 0.76956 0.0
C2150 C 0.76028 0.01344 0.74586 0.0
C2151 C 0.74767 0.98727 0.75852 0.0
C2152 C 0.75299 0.99803 0.75875 0.0
C2153 C 0.76827 0.02926 0.75943 0.0
C2154 C 0.76302 0.01849 0.7592 0.0
H2155 H 0.74746 0.96815 0.77531 0.0
H2156 H 0.75619 0.98572 0.77563 0.0
H2157 H 0.75343 0.9997 0.73517 0.0
H2158 H 0.76866 0.04831 0.74207 0.0
H2159 H 0.76006 0.03074 0.74174 0.0
C2160 C 0.71515 0.61162 0.58137 0.0
C2161 C 0.72039 0.61879 0.59186 0.0
C2162 C 0.70505 0.60652 0.58156 0.0
C2163 C 0.68394 0.60782 0.59532 0.0
H2164 H 0.67015 0.58027 0.58814 0.0
C2165 C 0.64266 0.58443 0.60368 0.0
C2166 C 0.6374 0.5771 0.59342 0.0
C2167 C 0.65276 0.58946 0.60353 0.0
C2168 C 0.67387 0.58798 0.59 0.0
H2169 H 0.71904 0.62629 0.61066 0.0
H2170 H 0.70145 0.61732 0.61112 0.0
H2171 H 0.68774 0.58914 0.58771 0.0
H2172 H 0.63874 0.56926 0.57506 0.0
H2173 H 0.65632 0.57817 0.5746 0.0
H2174 H 0.67009 0.60667 0.59755 0.0
C2175 C 0.70515 0.61567 0.60267 0.0
C2176 C 0.68398 0.59307 0.58976 0.0
C2177 C 0.71525 0.62075 0.60251 0.0
C2178 C 0.64253 0.57492 0.58303 0.0
C2179 C 0.65263 0.57996 0.58288 0.0
C2180 C 0.67384 0.60273 0.59554 0.0
C2181 C 0.69991 0.60848 0.59221 0.0
C2182 C 0.68915 0.60306 0.59242 0.0
C2183 C 0.65789 0.58731 0.59312 0.0
C2184 C 0.66866 0.59274 0.59289 0.0
H2185 H 0.71886 0.60985 0.57309 0.0
H2186 H 0.70126 0.6011 0.57325 0.0
H2187 H 0.68768 0.61552 0.5972 0.0
H2188 H 0.63897 0.58637 0.61174 0.0
H2189 H 0.65655 0.59499 0.61169 0.0
C2190 C 0.39968 0.09828 0.58304 0.0
C2191 C 0.40246 0.10636 0.59207 0.0
C2192 C 0.40479 0.09329 0.58324 0.0
C2193 C 0.42836 0.09585 0.59373 0.0
H2194 H 0.41429 0.06792 0.59177 0.0
C2195 C 0.44752 0.07356 0.58608 0.0
C2196 C 0.44393 0.0649 0.59401 0.0
C2197 C 0.44254 0.07868 0.58594 0.0
C2198 C 0.41833 0.07571 0.59245 0.0
H2199 H 0.41294 0.1156 0.60822 0.0
H2200 H 0.42172 0.10681 0.60878 0.0
H2201 H 0.40548 0.07669 0.59153 0.0
H2202 H 0.43223 0.05484 0.60797 0.0
H2203 H 0.42367 0.06385 0.60795 0.0
H2204 H 0.4412 0.09485 0.59493 0.0
C2205 C 0.41563 0.10437 0.60143 0.0
C2206 C 0.41328 0.08076 0.59212 0.0
C2207 C 0.41052 0.10935 0.60125 0.0
C2208 C 0.43526 0.06152 0.60186 0.0
C2209 C 0.43028 0.06664 0.6017 0.0
C2210 C 0.43341 0.0908 0.59404 0.0
C2211 C 0.41283 0.09626 0.59246 0.0
C2212 C 0.41822 0.09089 0.59276 0.0
C2213 C 0.43384 0.07527 0.59371 0.0
C2214 C 0.42847 0.08066 0.59341 0.0
H2215 H 0.39346 0.09571 0.57594 0.0
H2216 H 0.40248 0.08715 0.57606 0.0
H2217 H 0.43242 0.10365 0.5941 0.0
H2218 H 0.45422 0.07643 0.58003 0.0
H2219 H 0.44546 0.08525 0.57955 0.0
C2220 C 0.96038 0.37747 0.59723 0.0
C2221 C 0.95575 0.3827 0.59368 0.0
C2222 C 0.95531 0.36738 0.59699 0.0
C2223 C 0.93301 0.3464 0.58223 0.0
H2224 H 0.93862 0.3322 0.61123 0.0
C2225 C 0.91702 0.30508 0.57839 0.0
C2226 C 0.91428 0.29971 0.59147 0.0
C2227 C 0.92205 0.31518 0.57868 0.0
C2228 C 0.93688 0.33603 0.60312 0.0
H2229 H 0.94208 0.38138 0.58738 0.0
H2230 H 0.93321 0.36381 0.58715 0.0
H2231 H 0.94718 0.34974 0.61199 0.0
H2232 H 0.91483 0.30087 0.61515 0.0
H2233 H 0.92328 0.3184 0.61565 0.0
H2234 H 0.9225 0.33269 0.57363 0.0
C2235 C 0.94082 0.36749 0.5898 0.0
C2236 C 0.9419 0.34612 0.60344 0.0
C2237 C 0.94591 0.37758 0.58996 0.0
C2238 C 0.91669 0.30473 0.60484 0.0
C2239 C 0.92168 0.31482 0.60514 0.0
C2240 C 0.92795 0.33631 0.58196 0.0
C2241 C 0.94546 0.36224 0.59327 0.0
C2242 C 0.94005 0.35146 0.59299 0.0
C2243 C 0.92445 0.32019 0.59206 0.0
C2244 C 0.92982 0.33097 0.59238 0.0
H2245 H 0.96799 0.38119 0.59994 0.0
H2246 H 0.95919 0.36362 0.59947 0.0
H2247 H 0.93145 0.35023 0.57389 0.0
H2248 H 0.9152 0.3015 0.56787 0.0
H2249 H 0.92415 0.31904 0.56838 0.0
C2250 C 0.64309 0.07296 0.08397 0.0
C2251 C 0.63805 0.06557 0.09427 0.0
C2252 C 0.6532 0.07809 0.08374 0.0
C2253 C 0.67462 0.08427 0.10664 0.0
H2254 H 0.68807 0.09043 0.06942 0.0
C2255 C 0.71594 0.10011 0.10282 0.0
C2256 C 0.72104 0.10726 0.09221 0.0
C2257 C 0.70584 0.09509 0.10307 0.0
C2258 C 0.68445 0.08888 0.07991 0.0
H2259 H 0.63977 0.05774 0.11232 0.0
H2260 H 0.65736 0.06671 0.11195 0.0
H2261 H 0.67048 0.08163 0.06989 0.0
H2262 H 0.71945 0.11481 0.07366 0.0
H2263 H 0.70185 0.10609 0.07413 0.0
H2264 H 0.68857 0.09155 0.11667 0.0
C2265 C 0.65349 0.06863 0.10416 0.0
C2266 C 0.67434 0.08382 0.08018 0.0
C2267 C 0.64339 0.06348 0.10438 0.0
C2268 C 0.71576 0.10925 0.08185 0.0
C2269 C 0.70566 0.10424 0.08212 0.0
C2270 C 0.68473 0.08935 0.10637 0.0
C2271 C 0.65853 0.07599 0.09383 0.0
C2272 C 0.6693 0.08144 0.09354 0.0
C2273 C 0.70056 0.09708 0.09273 0.0
C2274 C 0.68978 0.09172 0.09301 0.0
H2275 H 0.63924 0.07489 0.07618 0.0
H2276 H 0.65683 0.08381 0.07577 0.0
H2277 H 0.67098 0.08269 0.11712 0.0
H2278 H 0.71976 0.09828 0.11082 0.0
H2279 H 0.70218 0.08952 0.11125 0.0
C2280 C 0.95721 0.58344 0.10281 0.0
C2281 C 0.95453 0.57552 0.09346 0.0
C2282 C 0.95225 0.58857 0.10252 0.0
C2283 C 0.92912 0.58665 0.09081 0.0
H2284 H 0.94345 0.6145 0.09442 0.0
C2285 C 0.91142 0.61016 0.08158 0.0
C2286 C 0.91395 0.61786 0.09132 0.0
C2287 C 0.91636 0.605 0.08176 0.0
C2288 C 0.93932 0.60672 0.09355 0.0
H2289 H 0.94439 0.56674 0.07661 0.0
H2290 H 0.93589 0.5758 0.07587 0.0
H2291 H 0.95202 0.6055 0.09492 0.0
H2292 H 0.92379 0.62625 0.10873 0.0
H2293 H 0.93231 0.61719 0.10915 0.0
H2294 H 0.91642 0.58788 0.08938 0.0
C2295 C 0.94177 0.57799 0.08355 0.0
C2296 C 0.94424 0.60155 0.09385 0.0
C2297 C 0.94674 0.57286 0.08385 0.0
C2298 C 0.92158 0.6203 0.10118 0.0
C2299 C 0.92654 0.61517 0.10131 0.0
C2300 C 0.9242 0.59183 0.09047 0.0
C2301 C 0.94447 0.58593 0.09287 0.0
C2302 C 0.93921 0.59144 0.09251 0.0
C2303 C 0.92399 0.60744 0.09163 0.0
C2304 C 0.92923 0.60193 0.09187 0.0
H2305 H 0.96323 0.58577 0.11025 0.0
H2306 H 0.95446 0.59456 0.10998 0.0
H2307 H 0.92499 0.57887 0.08997 0.0
H2308 H 0.90553 0.60803 0.07394 0.0
H2309 H 0.91426 0.59916 0.07405 0.0
C2310 C 0.40092 0.30546 0.08155 0.0
C2311 C 0.40311 0.30019 0.09164 0.0
C2312 C 0.406 0.31556 0.08169 0.0
C2313 C 0.42112 0.33645 0.10554 0.0
H2314 H 0.4286 0.3507 0.06901 0.0
C2315 C 0.44628 0.37788 0.10371 0.0
C2316 C 0.44419 0.38312 0.09341 0.0
C2317 C 0.44132 0.36778 0.10347 0.0
C2318 C 0.42647 0.34684 0.07932 0.0
H2319 H 0.41256 0.3015 0.10961 0.0
H2320 H 0.42136 0.31908 0.10988 0.0
H2321 H 0.41989 0.33312 0.0686 0.0
H2322 H 0.4351 0.38178 0.07494 0.0
H2323 H 0.42644 0.36421 0.07455 0.0
H2324 H 0.42765 0.35016 0.11628 0.0
C2325 C 0.41561 0.31539 0.10199 0.0
C2326 C 0.42148 0.33675 0.07908 0.0
C2327 C 0.41055 0.3053 0.10184 0.0
C2328 C 0.43701 0.37799 0.08289 0.0
C2329 C 0.43204 0.3679 0.08267 0.0
C2330 C 0.4261 0.34654 0.10579 0.0
C2331 C 0.41339 0.32066 0.09194 0.0
C2332 C 0.41873 0.33142 0.09219 0.0
C2333 C 0.43413 0.36265 0.09294 0.0
C2334 C 0.42884 0.35188 0.09268 0.0
H2335 H 0.39515 0.30179 0.07369 0.0
H2336 H 0.404 0.31937 0.07392 0.0
H2337 H 0.419 0.33258 0.11585 0.0
H2338 H 0.45186 0.38158 0.11183 0.0
H2339 H 0.44324 0.364 0.11141 0.0
C2340 C 0.38283 0.94495 0.91498 0.0
C2341 C 0.38805 0.95225 0.9253 0.0
C2342 C 0.37272 0.93985 0.91515 0.0
C2343 C 0.3516 0.94131 0.92836 0.0
H2344 H 0.33781 0.91366 0.92214 0.0
C2345 C 0.31032 0.91809 0.9368 0.0
C2346 C 0.30506 0.9106 0.92678 0.0
C2347 C 0.32042 0.92311 0.93667 0.0
C2348 C 0.34154 0.9214 0.92372 0.0
H2349 H 0.38667 0.95997 0.94378 0.0
H2350 H 0.36908 0.951 0.94419 0.0
H2351 H 0.35541 0.92254 0.92169 0.0
H2352 H 0.30639 0.90244 0.90889 0.0
H2353 H 0.32397 0.91132 0.90844 0.0
H2354 H 0.33775 0.9402 0.93032 0.0
C2355 C 0.3728 0.94926 0.9359 0.0
C2356 C 0.35164 0.92649 0.92347 0.0
C2357 C 0.3829 0.95433 0.93576 0.0
C2358 C 0.31018 0.90823 0.91666 0.0
C2359 C 0.32029 0.91326 0.91652 0.0
C2360 C 0.3415 0.93623 0.92857 0.0
C2361 C 0.36757 0.94194 0.92561 0.0
C2362 C 0.35681 0.93651 0.9258 0.0
C2363 C 0.32555 0.92078 0.92651 0.0
C2364 C 0.33633 0.9262 0.92627 0.0
H2365 H 0.38655 0.94309 0.90686 0.0
H2366 H 0.36894 0.93433 0.90698 0.0
H2367 H 0.35534 0.94905 0.92997 0.0
H2368 H 0.30664 0.92019 0.94464 0.0
H2369 H 0.32422 0.92877 0.94464 0.0
C2370 C 0.07606 0.44173 0.91581 0.0
C2371 C 0.06852 0.43941 0.92582 0.0
C2372 C 0.0812 0.43677 0.91601 0.0
C2373 C 0.08675 0.42131 0.93976 0.0
H2374 H 0.09437 0.41477 0.90319 0.0
C2375 C 0.10254 0.39575 0.937 0.0
C2376 C 0.11025 0.39819 0.92728 0.0
C2377 C 0.09755 0.40085 0.9369 0.0
C2378 C 0.0924 0.41664 0.91351 0.0
H2379 H 0.06038 0.42988 0.9437 0.0
H2380 H 0.06927 0.4212 0.944 0.0
H2381 H 0.08547 0.42345 0.90281 0.0
H2382 H 0.11886 0.40812 0.91004 0.0
H2383 H 0.11013 0.41696 0.90982 0.0
H2384 H 0.09364 0.41445 0.95045 0.0
C2385 C 0.07135 0.42699 0.93617 0.0
C2386 C 0.08729 0.42162 0.9133 0.0
C2387 C 0.06624 0.43197 0.93599 0.0
C2388 C 0.11285 0.40591 0.9175 0.0
C2389 C 0.10785 0.411 0.91738 0.0
C2390 C 0.09184 0.41631 0.93997 0.0
C2391 C 0.07892 0.42933 0.92619 0.0
C2392 C 0.08439 0.42403 0.92642 0.0
C2393 C 0.10011 0.40853 0.92706 0.0
C2394 C 0.09473 0.4139 0.92685 0.0
H2395 H 0.07812 0.44751 0.90797 0.0
H2396 H 0.08707 0.43888 0.90831 0.0
H2397 H 0.08479 0.42318 0.95009 0.0
H2398 H 0.10022 0.38976 0.94452 0.0
H2399 H 0.09154 0.39866 0.94437 0.0
C2400 C 0.58393 0.63813 0.9384 0.0
C2401 C 0.58142 0.63311 0.92502 0.0
C2402 C 0.58893 0.64822 0.93871 0.0
C2403 C 0.59504 0.66971 0.91564 0.0
H2404 H 0.61446 0.68314 0.94542 0.0
C2405 C 0.61303 0.71099 0.92369 0.0
C2406 C 0.62289 0.71611 0.92726 0.0
C2407 C 0.60795 0.70089 0.92354 0.0
C2408 C 0.60913 0.67953 0.93693 0.0
H2409 H 0.58218 0.63491 0.90142 0.0
H2410 H 0.59114 0.65245 0.90195 0.0
H2411 H 0.6059 0.66561 0.94464 0.0
H2412 H 0.63517 0.71461 0.93328 0.0
H2413 H 0.62638 0.69703 0.93282 0.0
H2414 H 0.59848 0.68364 0.90765 0.0
C2415 C 0.58911 0.64859 0.91225 0.0
C2416 C 0.60411 0.66944 0.93661 0.0
C2417 C 0.58408 0.63849 0.91195 0.0
C2418 C 0.62755 0.71089 0.93068 0.0
C2419 C 0.62249 0.70079 0.93044 0.0
C2420 C 0.60009 0.67981 0.91592 0.0
C2421 C 0.59161 0.6536 0.92563 0.0
C2422 C 0.59698 0.66438 0.92596 0.0
C2423 C 0.61261 0.69564 0.92687 0.0
C2424 C 0.60721 0.68487 0.92658 0.0
H2425 H 0.58213 0.63426 0.94871 0.0
H2426 H 0.5906 0.65179 0.94923 0.0
H2427 H 0.58953 0.6661 0.90738 0.0
H2428 H 0.60918 0.71478 0.92121 0.0
H2429 H 0.60032 0.6972 0.921 0.0
C2430 C 0.38248 0.44254 0.43419 0.0
C2431 C 0.38759 0.44006 0.42422 0.0
C2432 C 0.37238 0.43749 0.43441 0.0
C2433 C 0.35117 0.41431 0.42306 0.0
H2434 H 0.33722 0.42803 0.42915 0.0
C2435 C 0.30971 0.39594 0.41631 0.0
C2436 C 0.30461 0.3982 0.42661 0.0
C2437 C 0.31981 0.40104 0.41603 0.0
C2438 C 0.341 0.42407 0.4276 0.0
H2439 H 0.38599 0.43024 0.4067 0.0
H2440 H 0.36841 0.42159 0.40685 0.0
H2441 H 0.35481 0.43695 0.42853 0.0
H2442 H 0.30619 0.40771 0.4446 0.0
H2443 H 0.3238 0.41651 0.44424 0.0
H2444 H 0.33735 0.40144 0.42208 0.0
C2445 C 0.37222 0.42738 0.41464 0.0
C2446 C 0.3511 0.42919 0.42724 0.0
C2447 C 0.38232 0.43243 0.41443 0.0
C2448 C 0.30988 0.4057 0.43662 0.0
C2449 C 0.31998 0.41083 0.4363 0.0
C2450 C 0.34107 0.4092 0.42338 0.0
C2451 C 0.36711 0.42982 0.42465 0.0
C2452 C 0.35633 0.42438 0.42497 0.0
C2453 C 0.32508 0.40856 0.42601 0.0
C2454 C 0.33585 0.41401 0.42567 0.0
H2455 H 0.38629 0.44845 0.44179 0.0
H2456 H 0.36871 0.43952 0.44237 0.0
H2457 H 0.35494 0.41034 0.42153 0.0
H2458 H 0.3059 0.39015 0.40854 0.0
H2459 H 0.32349 0.39915 0.40786 0.0
C2460 C 0.61467 0.90676 0.41648 0.0
C2461 C 0.62193 0.90893 0.42694 0.0
C2462 C 0.60961 0.9118 0.41624 0.0
C2463 C 0.61115 0.93457 0.42882 0.0
H2464 H 0.58369 0.92103 0.42068 0.0
C2465 C 0.58782 0.95263 0.43558 0.0
C2466 C 0.58076 0.95071 0.42487 0.0
C2467 C 0.59281 0.94753 0.43577 0.0
C2468 C 0.59138 0.92494 0.42281 0.0
H2469 H 0.62955 0.91819 0.44533 0.0
H2470 H 0.62059 0.92681 0.44513 0.0
H2471 H 0.59238 0.91213 0.42124 0.0
H2472 H 0.5734 0.94183 0.40604 0.0
H2473 H 0.58221 0.93304 0.40625 0.0
H2474 H 0.61014 0.94737 0.43044 0.0
C2475 C 0.61889 0.92128 0.43697 0.0
C2476 C 0.59637 0.91984 0.42313 0.0
C2477 C 0.62395 0.91625 0.4372 0.0
C2478 C 0.57884 0.94356 0.41436 0.0
C2479 C 0.58382 0.93844 0.41458 0.0
C2480 C 0.60615 0.93967 0.42853 0.0
C2481 C 0.61166 0.91915 0.42647 0.0
C2482 C 0.60633 0.92458 0.42614 0.0
C2483 C 0.59088 0.94036 0.42528 0.0
C2484 C 0.5962 0.93492 0.42553 0.0
H2485 H 0.61283 0.90111 0.40851 0.0
H2486 H 0.60417 0.91002 0.4079 0.0
H2487 H 0.61884 0.9385 0.43092 0.0
H2488 H 0.58956 0.95815 0.44375 0.0
H2489 H 0.59813 0.94915 0.44426 0.0
C2490 C 0.0774 0.63769 0.43599 0.0
C2491 C 0.07031 0.63266 0.42529 0.0
C2492 C 0.08249 0.64778 0.43627 0.0
C2493 C 0.08135 0.66913 0.42307 0.0
H2494 H 0.10865 0.68286 0.43237 0.0
C2495 C 0.10509 0.71049 0.41643 0.0
C2496 C 0.11188 0.71557 0.42747 0.0
C2497 C 0.10004 0.7004 0.41621 0.0
C2498 C 0.101 0.67914 0.4299 0.0
H2499 H 0.06301 0.63441 0.40652 0.0
H2500 H 0.07205 0.65196 0.40678 0.0
H2501 H 0.09986 0.66528 0.43181 0.0
H2502 H 0.11875 0.71395 0.44687 0.0
H2503 H 0.10987 0.69635 0.4466 0.0
H2504 H 0.08252 0.683 0.42109 0.0
C2505 C 0.07359 0.6481 0.4151 0.0
C2506 C 0.09595 0.66904 0.42959 0.0
C2507 C 0.06848 0.63801 0.41484 0.0
C2508 C 0.11351 0.71028 0.43828 0.0
C2509 C 0.10849 0.70019 0.43803 0.0
C2510 C 0.08641 0.67922 0.42334 0.0
C2511 C 0.08066 0.65313 0.42583 0.0
C2512 C 0.08605 0.6639 0.42617 0.0
C2513 C 0.10168 0.69512 0.42701 0.0
C2514 C 0.0963 0.68436 0.42676 0.0
H2515 H 0.07908 0.63382 0.44411 0.0
H2516 H 0.0878 0.65138 0.44479 0.0
H2517 H 0.07371 0.66543 0.42064 0.0
H2518 H 0.10357 0.71432 0.40801 0.0
H2519 H 0.09492 0.69674 0.40748 0.0
C2520 C 0.19956 0.35587 0.39062 0.0
C2521 C 0.20601 0.35232 0.39132 0.0
C2522 C 0.19311 0.35346 0.37893 0.0
C2523 C 0.18869 0.3442 0.34081 0.0
H2524 H 0.16263 0.33884 0.34851 0.0
C2525 C 0.16239 0.33965 0.2941 0.0
C2526 C 0.15266 0.33239 0.29555 0.0
C2527 C 0.16882 0.34203 0.3058 0.0
C2528 C 0.16986 0.34024 0.34616 0.0
H2529 H 0.21067 0.34339 0.38018 0.0
H2530 H 0.19942 0.33918 0.3598 0.0
H2531 H 0.17397 0.34293 0.36872 0.0
H2532 H 0.14212 0.32196 0.3106 0.0
H2533 H 0.15334 0.32612 0.33104 0.0
H2534 H 0.18453 0.34132 0.3183 0.0
C2535 C 0.19944 0.34395 0.36821 0.0
C2536 C 0.1764 0.34271 0.35775 0.0
C2537 C 0.20591 0.34637 0.37991 0.0
C2538 C 0.14952 0.32766 0.30912 0.0
C2539 C 0.15597 0.33005 0.32085 0.0
C2540 C 0.18215 0.34174 0.32923 0.0
C2541 C 0.19292 0.34742 0.36759 0.0
C2542 C 0.18592 0.34474 0.35524 0.0
C2543 C 0.16572 0.33724 0.31932 0.0
C2544 C 0.17265 0.33974 0.33173 0.0
H2545 H 0.19955 0.36059 0.39908 0.0
H2546 H 0.18834 0.35642 0.3787 0.0
H2547 H 0.19598 0.34579 0.33842 0.0
H2548 H 0.16503 0.34359 0.28393 0.0
H2549 H 0.17622 0.34773 0.30429 0.0
C2550 C 0.67956 0.86132 0.387 0.0
C2551 C 0.66998 0.85872 0.39039 0.0
C2552 C 0.68163 0.85703 0.37527 0.0
C2553 C 0.67049 0.83533 0.35159 0.0
H2554 H 0.69271 0.85056 0.3268 0.0
C2555 C 0.67746 0.82021 0.29828 0.0
C2556 C 0.68705 0.82281 0.29488 0.0
C2557 C 0.6754 0.82449 0.31003 0.0
C2558 C 0.68654 0.84617 0.33372 0.0
H2559 H 0.65506 0.84954 0.38395 0.0
H2560 H 0.65866 0.84217 0.36334 0.0
H2561 H 0.68904 0.85831 0.34676 0.0
H2562 H 0.70197 0.83198 0.30133 0.0
H2563 H 0.69837 0.83933 0.32197 0.0
H2564 H 0.66799 0.82319 0.33855 0.0
C2565 C 0.66459 0.84747 0.36988 0.0
C2566 C 0.68443 0.85062 0.34517 0.0
C2567 C 0.66253 0.85179 0.3816 0.0
C2568 C 0.6945 0.82974 0.30368 0.0
C2569 C 0.69244 0.83404 0.31542 0.0
C2570 C 0.6726 0.83088 0.34013 0.0
C2571 C 0.67416 0.85 0.36659 0.0
C2572 C 0.67637 0.84527 0.35427 0.0
C2573 C 0.68286 0.83151 0.31871 0.0
C2574 C 0.68066 0.83624 0.33103 0.0
H2575 H 0.68551 0.86672 0.39341 0.0
H2576 H 0.68908 0.8591 0.37317 0.0
H2577 H 0.66432 0.83094 0.35851 0.0
H2578 H 0.67152 0.81482 0.29186 0.0
H2579 H 0.66795 0.82241 0.31213 0.0
C2580 C 0.173 0.82129 0.39179 0.0
C2581 C 0.16321 0.81407 0.39157 0.0
C2582 C 0.17708 0.82776 0.3801 0.0
C2583 C 0.17334 0.83123 0.34094 0.0
H2584 H 0.19128 0.85815 0.34928 0.0
C2585 C 0.18641 0.86049 0.29593 0.0
C2586 C 0.19621 0.8677 0.29595 0.0
C2587 C 0.18242 0.85407 0.30768 0.0
C2588 C 0.18637 0.85064 0.34673 0.0
H2589 H 0.15004 0.80806 0.3788 0.0
H2590 H 0.15715 0.81932 0.35845 0.0
H2591 H 0.18432 0.84665 0.36939 0.0
H2592 H 0.20947 0.87377 0.30849 0.0
H2593 H 0.20251 0.86258 0.329 0.0
H2594 H 0.17537 0.83522 0.3183 0.0
C2595 C 0.16172 0.8199 0.36758 0.0
C2596 C 0.18237 0.84403 0.35828 0.0
C2597 C 0.15764 0.81343 0.37926 0.0
C2598 C 0.20188 0.8684 0.30817 0.0
C2599 C 0.19788 0.86197 0.31994 0.0
C2600 C 0.17733 0.83783 0.3294 0.0
C2601 C 0.17149 0.8272 0.36787 0.0
C2602 C 0.17579 0.83423 0.35555 0.0
C2603 C 0.18811 0.85467 0.3198 0.0
C2604 C 0.18389 0.84764 0.33213 0.0
H2605 H 0.17755 0.82191 0.40097 0.0
H2606 H 0.18467 0.83316 0.38061 0.0
H2607 H 0.16842 0.82372 0.33839 0.0
H2608 H 0.18179 0.85984 0.28683 0.0
H2609 H 0.17483 0.84868 0.3073 0.0
C2610 C 0.34353 0.15784 0.2262 0.0
C2611 C 0.3364 0.14808 0.22467 0.0
C2612 C 0.34587 0.1643 0.21453 0.0
C2613 C 0.3443 0.16535 0.17415 0.0
H2614 H 0.34903 0.1912 0.18157 0.0
C2615 C 0.34862 0.19144 0.12716 0.0
C2616 C 0.35574 0.2012 0.12863 0.0
C2617 C 0.34626 0.18502 0.1389 0.0
C2618 C 0.34784 0.18405 0.17931 0.0
H2619 H 0.3261 0.13753 0.20954 0.0
H2620 H 0.3302 0.14878 0.18917 0.0
H2621 H 0.3449 0.17988 0.20185 0.0
H2622 H 0.36597 0.21183 0.14374 0.0
H2623 H 0.36184 0.20065 0.16424 0.0
H2624 H 0.34725 0.16951 0.15163 0.0
C2625 C 0.33407 0.15142 0.19939 0.0
C2626 C 0.34547 0.17755 0.19096 0.0
C2627 C 0.33172 0.14495 0.21108 0.0
C2628 C 0.36037 0.2044 0.14224 0.0
C2629 C 0.358 0.19798 0.15401 0.0
C2630 C 0.34668 0.17185 0.16251 0.0
C2631 C 0.34116 0.16119 0.20096 0.0
C2632 C 0.34366 0.16811 0.18854 0.0
C2633 C 0.35094 0.18819 0.15247 0.0
C2634 C 0.34847 0.18129 0.16493 0.0
H2635 H 0.34744 0.16049 0.23639 0.0
H2636 H 0.35149 0.17172 0.21608 0.0
H2637 H 0.34311 0.1582 0.1719 0.0
H2638 H 0.34476 0.18874 0.11695 0.0
H2639 H 0.34066 0.17759 0.13738 0.0
C2640 C 0.81817 0.16373 0.13727 0.0
C2641 C 0.81944 0.15774 0.12734 0.0
C2642 C 0.82453 0.168 0.14903 0.0
C2643 C 0.84281 0.16599 0.1715 0.0
H2644 H 0.85119 0.19253 0.18159 0.0
C2645 C 0.87346 0.18729 0.2133 0.0
C2646 C 0.87219 0.19328 0.22324 0.0
C2647 C 0.86712 0.18305 0.20152 0.0
C2648 C 0.84885 0.18508 0.17904 0.0
H2649 H 0.82831 0.15139 0.12231 0.0
H2650 H 0.83945 0.15895 0.14261 0.0
H2651 H 0.83983 0.18485 0.16155 0.0
H2652 H 0.86335 0.19966 0.22825 0.0
H2653 H 0.85222 0.19214 0.20792 0.0
H2654 H 0.85182 0.16622 0.18899 0.0
C2655 C 0.8335 0.1603 0.14138 0.0
C2656 C 0.84231 0.18067 0.16753 0.0
C2657 C 0.82716 0.15605 0.12961 0.0
C2658 C 0.86449 0.195 0.22095 0.0
C2659 C 0.85816 0.19077 0.20916 0.0
C2660 C 0.84934 0.1704 0.18301 0.0
C2661 C 0.83231 0.16638 0.15121 0.0
C2662 C 0.8392 0.17106 0.16359 0.0
C2663 C 0.85935 0.18469 0.19932 0.0
C2664 C 0.85246 0.18001 0.18694 0.0
H2665 H 0.81235 0.16526 0.13581 0.0
H2666 H 0.82331 0.17254 0.15647 0.0
H2667 H 0.84047 0.15854 0.16894 0.0
H2668 H 0.87926 0.18573 0.21478 0.0
H2669 H 0.86833 0.1785 0.19408 0.0
C2670 C 0.82255 0.67832 0.21344 0.0
C2671 C 0.82848 0.68465 0.22444 0.0
C2672 C 0.82655 0.67582 0.20176 0.0
C2673 C 0.84952 0.68367 0.18176 0.0
H2674 H 0.83676 0.65711 0.16861 0.0
C2675 C 0.86735 0.66999 0.14027 0.0
C2676 C 0.86141 0.66366 0.12927 0.0
C2677 C 0.86335 0.67246 0.15198 0.0
C2678 C 0.84037 0.66458 0.17203 0.0
H2679 H 0.84332 0.69351 0.2315 0.0
H2680 H 0.85027 0.68907 0.21129 0.0
H2681 H 0.82974 0.66173 0.18849 0.0
H2682 H 0.84656 0.65475 0.12227 0.0
H2683 H 0.83962 0.65915 0.14252 0.0
H2684 H 0.86016 0.68652 0.16529 0.0
C2685 C 0.84252 0.68606 0.21163 0.0
C2686 C 0.83633 0.66723 0.18344 0.0
C2687 C 0.83852 0.68853 0.22332 0.0
C2688 C 0.85136 0.65974 0.13044 0.0
C2689 C 0.84737 0.66218 0.14215 0.0
C2690 C 0.85356 0.68101 0.17035 0.0
C2691 C 0.83659 0.67962 0.20074 0.0
C2692 C 0.84085 0.67682 0.18847 0.0
C2693 C 0.85331 0.66863 0.15304 0.0
C2694 C 0.84905 0.67143 0.16532 0.0
H2695 H 0.81478 0.67512 0.21399 0.0
H2696 H 0.82176 0.67093 0.19349 0.0
H2697 H 0.85313 0.69114 0.18518 0.0
H2698 H 0.87511 0.67322 0.13967 0.0
H2699 H 0.86814 0.67735 0.16024 0.0
C2700 C 0.81896 0.67078 0.63942 0.0
C2701 C 0.8189 0.66484 0.62803 0.0
C2702 C 0.82544 0.67326 0.65112 0.0
C2703 C 0.84123 0.6659 0.67027 0.0
H2704 H 0.85402 0.69214 0.68486 0.0
C2705 C 0.8728 0.67985 0.71163 0.0
C2706 C 0.8729 0.68578 0.72307 0.0
C2707 C 0.86629 0.67739 0.69999 0.0
C2708 C 0.85044 0.68475 0.68103 0.0
H2709 H 0.82547 0.65666 0.62031 0.0
H2710 H 0.83683 0.66108 0.64054 0.0
H2711 H 0.84238 0.68752 0.66498 0.0
H2712 H 0.86637 0.69396 0.73095 0.0
H2713 H 0.85495 0.68958 0.71079 0.0
H2714 H 0.8493 0.66313 0.68631 0.0
C2715 C 0.83184 0.66379 0.64049 0.0
C2716 C 0.84374 0.6821 0.66963 0.0
C2717 C 0.82539 0.66134 0.62878 0.0
C2718 C 0.86642 0.6893 0.72243 0.0
C2719 C 0.85994 0.68686 0.71077 0.0
C2720 C 0.84793 0.66856 0.68167 0.0
C2721 C 0.832 0.66984 0.65178 0.0
C2722 C 0.83905 0.67264 0.66407 0.0
C2723 C 0.85973 0.68082 0.69944 0.0
C2724 C 0.85264 0.67802 0.68721 0.0
H2725 H 0.81414 0.67368 0.63915 0.0
H2726 H 0.82527 0.67784 0.65969 0.0
H2727 H 0.83765 0.65852 0.66644 0.0
H2728 H 0.87761 0.67694 0.71182 0.0
H2729 H 0.86643 0.67282 0.69138 0.0
C2730 C 0.35018 0.15199 0.6406 0.0
C2731 C 0.35543 0.15774 0.6286 0.0
C2732 C 0.34773 0.15596 0.65235 0.0
C2733 C 0.35424 0.17928 0.6702 0.0
H2734 H 0.32866 0.1648 0.68719 0.0
C2735 C 0.33991 0.19631 0.71196 0.0
C2736 C 0.33467 0.19062 0.72402 0.0
C2737 C 0.34235 0.19227 0.70029 0.0
C2738 C 0.33587 0.1689 0.68268 0.0
H2739 H 0.36244 0.17227 0.61982 0.0
H2740 H 0.35806 0.17916 0.64015 0.0
H2741 H 0.33326 0.15782 0.66722 0.0
H2742 H 0.32767 0.17614 0.73299 0.0
H2743 H 0.33202 0.16914 0.71277 0.0
H2744 H 0.35684 0.19037 0.68565 0.0
C2745 C 0.35587 0.17158 0.64054 0.0
C2746 C 0.33852 0.16489 0.67123 0.0
C2747 C 0.35829 0.1676 0.62878 0.0
C2748 C 0.3318 0.18076 0.72397 0.0
C2749 C 0.33421 0.17672 0.71229 0.0
C2750 C 0.35159 0.18329 0.68165 0.0
C2751 C 0.35051 0.16581 0.65245 0.0
C2752 C 0.34773 0.17003 0.66481 0.0
C2753 C 0.33958 0.18243 0.70033 0.0
C2754 C 0.34237 0.17816 0.68805 0.0
H2755 H 0.34778 0.14435 0.64078 0.0
H2756 H 0.34369 0.15132 0.66141 0.0
H2757 H 0.36144 0.18339 0.6657 0.0
H2758 H 0.34231 0.20394 0.71167 0.0
H2759 H 0.34638 0.19687 0.69119 0.0
C2760 C 0.86096 0.20409 0.64095 0.0
C2761 C 0.86288 0.20095 0.62765 0.0
C2762 C 0.85694 0.19774 0.65282 0.0
C2763 C 0.84308 0.17164 0.66191 0.0
H2764 H 0.85189 0.18043 0.70141 0.0
C2765 C 0.83135 0.1454 0.71136 0.0
C2766 C 0.82936 0.14851 0.72464 0.0
C2767 C 0.83542 0.15176 0.69953 0.0
C2768 C 0.84926 0.17788 0.69047 0.0
H2769 H 0.86231 0.18867 0.61666 0.0
H2770 H 0.85532 0.17765 0.63727 0.0
H2771 H 0.85903 0.1916 0.68095 0.0
H2772 H 0.82989 0.16076 0.73564 0.0
H2773 H 0.83698 0.17183 0.7151 0.0
H2774 H 0.83331 0.15791 0.67143 0.0
C2775 C 0.85674 0.18497 0.63845 0.0
C2776 C 0.85336 0.18429 0.67872 0.0
C2777 C 0.86076 0.19131 0.62661 0.0
C2778 C 0.83149 0.15814 0.72571 0.0
C2779 C 0.83556 0.1645 0.7139 0.0
C2780 C 0.83898 0.16522 0.67366 0.0
C2781 C 0.85473 0.18808 0.65171 0.0
C2782 C 0.85033 0.18126 0.66427 0.0
C2783 C 0.83761 0.16142 0.70066 0.0
C2784 C 0.84201 0.16825 0.68811 0.0
H2785 H 0.86238 0.21141 0.64211 0.0
H2786 H 0.85538 0.20037 0.66278 0.0
H2787 H 0.84045 0.16908 0.65097 0.0
H2788 H 0.82994 0.13808 0.71018 0.0
H2789 H 0.83701 0.14916 0.68958 0.0
C2790 C 0.66541 0.81176 0.87677 0.0
C2791 C 0.67002 0.81499 0.89038 0.0
C2792 C 0.6678 0.81815 0.86495 0.0
C2793 C 0.67916 0.84425 0.85623 0.0
H2794 H 0.68089 0.83607 0.81698 0.0
C2795 C 0.69407 0.87099 0.80742 0.0
C2796 C 0.6894 0.86781 0.79384 0.0
C2797 C 0.69173 0.86456 0.81918 0.0
C2798 C 0.68033 0.83845 0.82785 0.0
H2799 H 0.681 0.82748 0.90201 0.0
H2800 H 0.68513 0.83857 0.88149 0.0
H2801 H 0.67677 0.82483 0.83736 0.0
H2802 H 0.67838 0.85534 0.7822 0.0
H2803 H 0.67433 0.84419 0.80261 0.0
H2804 H 0.68273 0.85788 0.84672 0.0
C2805 C 0.67953 0.83114 0.88 0.0
C2806 C 0.67796 0.83199 0.83955 0.0
C2807 C 0.67715 0.82476 0.8918 0.0
C2808 C 0.68228 0.85803 0.79238 0.0
C2809 C 0.67994 0.85162 0.80412 0.0
C2810 C 0.68154 0.85072 0.84453 0.0
C2811 C 0.67486 0.82794 0.86643 0.0
C2812 C 0.67735 0.8348 0.85391 0.0
C2813 C 0.68465 0.85478 0.81768 0.0
C2814 C 0.68216 0.84791 0.83017 0.0
H2815 H 0.65981 0.80432 0.8753 0.0
H2816 H 0.66396 0.81544 0.85472 0.0
H2817 H 0.6786 0.84664 0.86709 0.0
H2818 H 0.69968 0.87842 0.80891 0.0
H2819 H 0.6956 0.86724 0.82939 0.0
C2820 C 0.16042 0.82189 0.79761 0.0
C2821 C 0.15298 0.82396 0.79494 0.0
C2822 C 0.16686 0.82625 0.80923 0.0
C2823 C 0.1766 0.84743 0.83389 0.0
H2824 H 0.18528 0.83284 0.85689 0.0
C2825 C 0.19903 0.86255 0.88687 0.0
C2826 C 0.20649 0.86052 0.8896 0.0
C2827 C 0.19264 0.85818 0.8752 0.0
C2828 C 0.18303 0.83706 0.85047 0.0
H2829 H 0.1465 0.83225 0.80256 0.0
H2830 H 0.15762 0.83972 0.82298 0.0
H2831 H 0.17373 0.82493 0.83713 0.0
H2832 H 0.21306 0.85231 0.88204 0.0
H2833 H 0.20202 0.84482 0.86152 0.0
H2834 H 0.1859 0.85955 0.84723 0.0
C2835 C 0.15854 0.8348 0.81596 0.0
C2836 C 0.17638 0.83252 0.83913 0.0
C2837 C 0.15208 0.83042 0.80434 0.0
C2838 C 0.20746 0.8541 0.88021 0.0
C2839 C 0.20105 0.84971 0.86854 0.0
C2840 C 0.18324 0.85197 0.84523 0.0
C2841 C 0.16605 0.83281 0.81851 0.0
C2842 C 0.17307 0.83763 0.83069 0.0
C2843 C 0.19352 0.85166 0.86592 0.0
C2844 C 0.18655 0.84685 0.85368 0.0
H2845 H 0.16127 0.81687 0.79071 0.0
H2846 H 0.17259 0.8246 0.81076 0.0
H2847 H 0.17435 0.85165 0.82748 0.0
H2848 H 0.19812 0.86754 0.89375 0.0
H2849 H 0.18689 0.8598 0.87362 0.0
C2850 C 0.19197 0.33795 0.7917 0.0
C2851 C 0.19507 0.33118 0.79336 0.0
C2852 C 0.18795 0.34032 0.80347 0.0
C2853 C 0.17622 0.33134 0.83958 0.0
H2854 H 0.18235 0.35781 0.84506 0.0
C2855 C 0.16461 0.34371 0.89142 0.0
C2856 C 0.16146 0.35043 0.8897 0.0
C2857 C 0.16868 0.34137 0.87969 0.0
C2858 C 0.18047 0.35036 0.8436 0.0
H2859 H 0.19633 0.32161 0.80886 0.0
H2860 H 0.18952 0.32589 0.82947 0.0
H2861 H 0.1896 0.35378 0.8248 0.0
H2862 H 0.16019 0.35998 0.87416 0.0
H2863 H 0.16712 0.35577 0.85363 0.0
H2864 H 0.16709 0.32792 0.85839 0.0
C2865 C 0.19008 0.32928 0.81897 0.0
C2866 C 0.18463 0.34804 0.83197 0.0
C2867 C 0.1941 0.3269 0.80718 0.0
C2868 C 0.16246 0.35472 0.87588 0.0
C2869 C 0.16654 0.35238 0.86413 0.0
C2870 C 0.17206 0.33366 0.85122 0.0
C2871 C 0.18694 0.33601 0.81727 0.0
C2872 C 0.18257 0.3385 0.82978 0.0
C2873 C 0.16972 0.34568 0.86588 0.0
C2874 C 0.17412 0.3432 0.8534 0.0
H2875 H 0.1927 0.3415 0.78129 0.0
H2876 H 0.18553 0.34545 0.80168 0.0
H2877 H 0.17433 0.32389 0.83812 0.0
H2878 H 0.16385 0.34015 0.90183 0.0
H2879 H 0.17113 0.33626 0.88151 0.0
C2880 C 0.02485 0.52657 0.45951 0.0
C2881 C 0.02289 0.5342 0.46003 0.0
C2882 C 0.02246 0.52016 0.47129 0.0
C2883 C 1.00649 0.51097 0.50379 0.0
H2884 H 0.02371 0.50172 0.51555 0.0
C2885 C 1.00043 0.48868 0.55668 0.0
C2886 C 1.00243 0.48107 0.55629 0.0
C2887 C 1.0028 0.49502 0.54484 0.0
C2888 C 0.01876 0.50413 0.5123 0.0
H2889 H 0.01688 0.54107 0.47346 0.0
H2890 H 0.01286 0.53001 0.49409 0.0
H2891 H 0.02826 0.51317 0.49539 0.0
H2892 H 1.00848 0.47418 0.54298 0.0
H2893 H 0.01246 0.48514 0.52223 0.0
H2894 H 0.99699 0.50193 0.5207 0.0
C2895 C 0.01616 0.52891 0.48449 0.0
C2896 C 0.02137 0.51072 0.50073 0.0
C2897 C 0.01857 0.53533 0.47272 0.0
C2898 C 1.00676 0.4799 0.54364 0.0
C2899 C 1.00915 0.48627 0.53179 0.0
C2900 C 1.00387 0.50438 0.51536 0.0
C2901 C 0.01803 0.52121 0.48391 0.0
C2902 C 0.01528 0.51424 0.49632 0.0
C2903 C 1.00724 0.49395 0.53226 0.0
C2904 C 1.00997 0.50087 0.51978 0.0
H2905 H 0.02827 0.52554 0.45 0.0
H2906 H 0.02394 0.51428 0.47038 0.0
H2907 H 1.00154 0.51339 0.50055 0.0
H2908 H 0.99699 0.48973 0.56615 0.0
H2909 H 1.00129 0.50089 0.54567 0.0
C2910 C 0.4928 0.48783 0.46471 0.0
C2911 C 0.48591 0.49053 0.46118 0.0
C2912 C 0.49916 0.49213 0.47643 0.0
C2913 C 0.50997 0.51399 0.49978 0.0
H2914 H 0.51666 0.49871 0.52494 0.0
C2915 C 0.53218 0.52927 0.55297 0.0
C2916 C 0.53906 0.52656 0.55648 0.0
C2917 C 0.5258 0.52496 0.54126 0.0
C2918 C 0.51497 0.50311 0.51791 0.0
H2919 H 0.48036 0.4999 0.46735 0.0
H2920 H 0.49134 0.5073 0.48795 0.0
H2921 H 0.5052 0.49094 0.50503 0.0
H2922 H 0.54461 0.51718 0.55026 0.0
H2923 H 0.53361 0.5098 0.52968 0.0
H2924 H 0.51974 0.52616 0.51266 0.0
C2925 C 0.49189 0.50191 0.48153 0.0
C2926 C 0.50838 0.49865 0.50649 0.0
C2927 C 0.4855 0.49758 0.46981 0.0
C2928 C 0.53947 0.51951 0.54782 0.0
C2929 C 0.53307 0.51519 0.53612 0.0
C2930 C 0.51656 0.51845 0.5112 0.0
C2931 C 0.49884 0.49928 0.48496 0.0
C2932 C 0.50579 0.50402 0.49725 0.0
C2933 C 0.52612 0.51782 0.53272 0.0
C2934 C 0.51916 0.51308 0.52043 0.0
H2935 H 0.49326 0.48235 0.45842 0.0
H2936 H 0.50446 0.48998 0.47864 0.0
H2937 H 0.50828 0.51839 0.49275 0.0
H2938 H 0.53172 0.53475 0.55927 0.0
H2939 H 0.52051 0.52713 0.53907 0.0
C2940 C 0.50153 0.02314 0.54889 0.0
C2941 C 0.49309 0.01574 0.55542 0.0
C2942 C 0.50599 0.02113 0.53732 0.0
C2943 C 0.50155 1.00286 0.50873 0.0
H2944 H 0.52946 0.0151 0.50812 0.0
C2945 C 0.52164 0.99122 0.46817 0.0
C2946 C 0.53008 0.99856 0.46156 0.0
C2947 C 0.51719 0.99331 0.47967 0.0
C2948 C 0.52166 0.01169 0.50802 0.0
H2949 H 0.48261 1.00046 0.55454 0.0
H2950 H 0.49046 0.99694 0.53456 0.0
H2951 H 0.52153 0.01886 0.52773 0.0
H2952 H 0.54056 0.01385 0.46222 0.0
H2953 H 0.53274 0.01751 0.4821 0.0
H2954 H 0.50168 0.99568 0.48904 0.0
C2955 C 0.49361 1.00431 0.53832 0.0
C2956 C 0.51711 0.01386 0.51927 0.0
C2957 C 0.48916 1.00632 0.54991 0.0
C2958 C 0.53402 0.00803 0.46692 0.0
C2959 C 0.52959 0.01011 0.47844 0.0
C2960 C 0.5061 1.00069 0.49748 0.0
C2961 C 0.50212 0.01167 0.53192 0.0
C2962 C 0.50699 0.00947 0.5198 0.0
C2963 C 0.52107 1.00279 0.48492 0.0
C2964 C 0.51622 1.00507 0.49697 0.0
H2965 H 0.5048 0.03046 0.55293 0.0
H2966 H 0.51247 0.027 0.53255 0.0
H2967 H 0.49376 0.99945 0.50863 0.0
H2968 H 0.51836 0.98387 0.46425 0.0
H2969 H 0.51071 0.98747 0.48449 0.0
C2970 C 0.54065 0.01444 0.04598 0.0
C2971 C 0.5395 0.01873 0.05867 0.0
C2972 C 0.53424 0.01205 0.0342 0.0
C2973 C 0.50964 1.00732 0.02501 0.0
H2974 H 0.51902 0.01106 0.98507 0.0
C2975 C 0.48529 1.00277 0.97511 0.0
C2976 C 0.48645 0.99847 0.96243 0.0
C2977 C 0.49167 1.00514 0.98692 0.0
C2978 C 0.51625 0.00986 0.99615 0.0
H2979 H 0.53085 0.02415 0.06866 0.0
H2980 H 0.51973 0.02003 0.04817 0.0
H2981 H 0.53038 0.01551 1.00531 0.0
H2982 H 0.49509 0.99301 0.95252 0.0
H2983 H 0.50616 0.9971 0.97306 0.0
H2984 H 0.49551 1.00168 0.01585 0.0
C2985 C 0.52547 0.01831 0.04742 0.0
C2986 C 0.52278 0.01242 1.00778 0.0
C2987 C 0.53186 0.02069 0.05918 0.0
C2988 C 0.49407 0.99647 0.96198 0.0
C2989 C 0.50044 0.99883 0.97377 0.0
C2990 C 0.50311 1.00476 0.01339 0.0
C2991 C 0.52653 0.0139 0.03479 0.0
C2992 C 0.51957 0.01119 0.02238 0.0
C2993 C 0.49937 1.00326 0.98637 0.0
C2994 C 0.50632 1.00599 0.99879 0.0
H2995 H 0.54636 0.0127 0.04527 0.0
H2996 H 0.53522 0.00855 0.02475 0.0
H2997 H 0.50687 1.00612 0.0361 0.0
H2998 H 0.47959 1.00453 0.97577 0.0
H2999 H 0.49069 0.00865 0.99635 0.0
C3000 C 0.02504 0.50119 0.96274 0.0
C3001 C 0.02215 0.49132 0.96246 0.0
C3002 C 0.02261 0.50514 0.97454 0.0
C3003 C 1.00522 0.49836 1.00521 0.0
H3004 H 0.02356 0.52378 0.01985 0.0
C3005 C 0.99846 0.51401 0.05816 0.0
C3006 C 1.00132 0.52387 0.05832 0.0
C3007 C 1.0009 0.51002 0.04643 0.0
C3008 C 0.0183 0.51672 0.01579 0.0
H3009 H 0.01445 0.4779 0.97452 0.0
H3010 H 1.01036 0.48481 0.99522 0.0
H3011 H 0.02816 0.51687 0.99979 0.0
H3012 H 1.00899 0.53724 0.04613 0.0
H3013 H 0.01311 0.53027 0.02556 0.0
H3014 H 0.99536 0.49822 0.02121 0.0
C3015 C 0.01442 0.48948 0.98621 0.0
C3016 C 0.02095 0.51275 1.00428 0.0
C3017 C 0.01687 0.48553 0.97441 0.0
C3018 C 1.00659 0.52961 0.04633 0.0
C3019 C 1.00906 0.52563 0.03461 0.0
C3020 C 1.00258 0.50234 0.01673 0.0
C3021 C 0.01722 0.49933 0.9864 0.0
C3022 C 0.01444 0.50352 0.99882 0.0
C3023 C 1.00629 0.51579 0.03452 0.0
C3024 C 1.00908 0.51157 0.02217 0.0
H3025 H 0.02921 0.5059 0.95382 0.0
H3026 H 0.02483 0.51273 0.97422 0.0
H3027 H 0.99996 0.49131 1.00114 0.0
H3028 H 0.9943 0.50933 0.06712 0.0
H3029 H 0.99871 0.50244 0.04682 0.0
C3030 C 0.49082 0.48085 0.04524 0.0
C3031 C 0.49653 0.48147 0.05736 0.0
C3032 C 0.49482 0.48725 0.03344 0.0
C3033 C 0.5156 0.51119 0.02361 0.0
H3034 H 0.50804 0.50228 0.98379 0.0
C3035 C 0.53489 0.53528 0.97319 0.0
C3036 C 0.52917 0.53467 0.96109 0.0
C3037 C 0.53091 0.52888 0.98499 0.0
C3038 C 0.51015 0.50493 0.99485 0.0
H3039 H 0.51102 0.48916 0.06627 0.0
H3040 H 0.51797 0.50028 0.04574 0.0
H3041 H 0.50115 0.49089 1.00402 0.0
H3042 H 0.51467 0.52697 0.95222 0.0
H3043 H 0.50774 0.51585 0.97275 0.0
H3044 H 0.5246 0.52523 0.01443 0.0
C3045 C 0.51036 0.49497 0.04547 0.0
C3046 C 0.50619 0.49838 1.00647 0.0
C3047 C 0.50636 0.48857 0.05726 0.0
C3048 C 0.51933 0.52756 0.96122 0.0
C3049 C 0.51536 0.52116 0.97301 0.0
C3050 C 0.51955 0.51774 0.01198 0.0
C3051 C 0.50463 0.49444 0.03344 0.0
C3052 C 0.50886 0.50142 0.02102 0.0
C3053 C 0.5211 0.52168 0.98502 0.0
C3054 C 0.51688 0.51471 0.99744 0.0
H3055 H 0.4832 0.47556 0.04502 0.0
H3056 H 0.49015 0.4867 0.02447 0.0
H3057 H 0.51771 0.51384 0.03467 0.0
H3058 H 0.54251 0.54058 0.9734 0.0
H3059 H 0.53558 0.52943 0.99395 0.0
loop_
_geom_bond_atom_site_label_1
_geom_bond_atom_site_label_2
_geom_bond_distance
_geom_bond_site_symmetry_2
_ccdc_geom_bond_type
C0 C1 1.264 . S
C0 C5 1.479 . S
C0 C10 1.465 . S
C1 C0 1.264 . S
C1 C3 1.339 . S
C1 H28 0.931 . S
C2 C3 1.395 . S
C2 C4 1.320 . S
C3 C1 1.339 . S
C3 C2 1.395 . S
C3 H29 0.929 . S
C4 C2 1.320 . S
C4 C5 1.405 . S
C4 H30 0.930 . S
C5 C0 1.479 . S
C5 C4 1.405 . S
C5 H31 0.931 . S
U6 O7 2.454 . S
U6 O8 2.458 . S
U6 C9 2.984 . S
U6 C10 2.847 . S
U6 C23 2.882 . S
U6 O24 2.441 . S
U6 O25 2.420 . S
U6 O26 2.455 . S
U6 O27 2.449 . S
O7 U6 2.454 . S
O7 C9 1.353 . S
O8 U6 2.458 . S
O8 C9 1.286 . S
C9 U6 2.984 . S
C9 O7 1.353 . S
C9 O8 1.286 . S
C9 C11 1.363 . S
C10 C0 1.465 . S
C10 U6 2.847 . S
C10 O24 1.249 . S
C10 O25 1.202 . S
C11 C9 1.363 . S
C11 C13 1.408 . S
C11 C16 1.342 . S
C12 C13 1.310 . S
C12 C15 1.461 . S
C12 H32 0.932 . S
C13 C11 1.408 . S
C13 C12 1.310 . S
C13 H33 0.930 . S
C14 C15 1.474 . S
C14 C16 1.285 . S
C14 H34 0.929 . S
C15 C12 1.461 . S
C15 C14 1.474 . S
C16 C11 1.342 . S
C16 C14 1.285 . S
C16 H35 0.930 . S
C17 C20 1.424 . S
C17 C22 1.245 . S
C17 C23 1.428 . S
C18 C21 1.260 . S
C18 C22 1.477 . S
C18 H36 0.932 . S
C19 C20 1.384 . S
C19 C21 1.479 . S
C19 H37 0.929 . S
C20 C17 1.424 . S
C20 C19 1.384 . S
C20 H38 0.928 . S
C21 C18 1.260 . S
C21 C19 1.479 . S
C22 C17 1.245 . S
C22 C18 1.477 . S
C22 H39 0.932 . S
C23 U6 2.882 . S
C23 C17 1.428 . S
C23 O26 1.301 . S
C23 O27 1.282 . S
O24 U6 2.441 . S
O24 C10 1.249 . S
O25 U6 2.420 . S
O25 C10 1.202 . S
O26 U6 2.455 . S
O26 C23 1.301 . S
O27 U6 2.449 . S
O27 C23 1.282 . S
H28 C1 0.931 . S
H29 C3 0.929 . S
H30 C4 0.930 . S
H31 C5 0.931 . S
H32 C12 0.932 . S
H33 C13 0.930 . S
H34 C14 0.929 . S
H35 C16 0.930 . S
H36 C18 0.932 . S
H37 C19 0.929 . S
H38 C20 0.928 . S
H39 C22 0.932 . S
C40 C41 1.264 . S
C40 C45 1.479 . S
C40 C50 1.465 . S
C41 C40 1.264 . S
C41 C43 1.339 . S
C41 H68 0.931 . S
C42 C43 1.395 . S
C42 C44 1.320 . S
C43 C41 1.339 . S
C43 C42 1.395 . S
C43 H69 0.929 . S
C44 C42 1.320 . S
C44 C45 1.405 . S
C44 H70 0.930 . S
C45 C40 1.479 . S
C45 C44 1.405 . S
C45 H71 0.931 . S
U46 O47 2.454 . S
U46 O48 2.458 . S
U46 C49 2.984 . S
U46 C50 2.847 . S
U46 C63 2.882 . S
U46 O64 2.441 . S
U46 O65 2.420 . S
U46 O66 2.455 . S
U46 O67 2.449 . S
O47 U46 2.454 . S
O47 C49 1.353 . S
O48 U46 2.458 . S
O48 C49 1.286 . S
C49 U46 2.984 . S
C49 O47 1.353 . S
C49 O48 1.286 . S
C49 C51 1.363 . S
C50 C40 1.465 . S
C50 U46 2.847 . S
C50 O64 1.249 . S
C50 O65 1.202 . S
C51 C49 1.363 . S
C51 C53 1.408 . S
C51 C56 1.342 . S
C52 C53 1.310 . S
C52 C55 1.461 . S
C52 H72 0.932 . S
C53 C51 1.408 . S
C53 C52 1.310 . S
C53 H73 0.930 . S
C54 C55 1.474 . S
C54 C56 1.285 . S
C54 H74 0.929 . S
C55 C52 1.461 . S
C55 C54 1.474 . S
C56 C51 1.342 . S
C56 C54 1.285 . S
C56 H75 0.930 . S
C57 C60 1.424 . S
C57 C62 1.245 . S
C57 C63 1.428 . S
C58 C61 1.260 . S
C58 C62 1.477 . S
C58 H76 0.932 . S
C59 C60 1.384 . S
C59 C61 1.479 . S
C59 H77 0.929 . S
C60 C57 1.424 . S
C60 C59 1.384 . S
C60 H78 0.928 . S
C61 C58 1.260 . S
C61 C59 1.479 . S
C62 C57 1.245 . S
C62 C58 1.477 . S
C62 H79 0.932 . S
C63 U46 2.882 . S
C63 C57 1.428 . S
C63 O66 1.301 . S
C63 O67 1.282 . S
O64 U46 2.441 . S
O64 C50 1.249 . S
O65 U46 2.420 . S
O65 C50 1.202 . S
O66 U46 2.455 . S
O66 C63 1.301 . S
O67 U46 2.449 . S
O67 C63 1.282 . S
H68 C41 0.931 . S
H69 C43 0.929 . S
H70 C44 0.930 . S
H71 C45 0.931 . S
H72 C52 0.932 . S
H73 C53 0.930 . S
H74 C54 0.929 . S
H75 C56 0.930 . S
H76 C58 0.932 . S
H77 C59 0.929 . S
H78 C60 0.928 . S
H79 C62 0.932 . S
C80 C81 1.264 . S
C80 C85 1.479 . S
C80 C90 1.465 . S
C81 C80 1.264 . S
C81 C83 1.339 . S
C81 H108 0.931 . S
C82 C83 1.395 . S
C82 C84 1.320 . S
C83 C81 1.339 . S
C83 C82 1.395 . S
C83 H109 0.929 . S
C84 C82 1.320 . S
C84 C85 1.405 . S
C84 H110 0.930 . S
C85 C80 1.479 . S
C85 C84 1.405 . S
C85 H111 0.931 . S
U86 O87 2.454 . S
U86 O88 2.458 . S
U86 C89 2.984 . S
U86 C90 2.847 . S
U86 C103 2.882 . S
U86 O104 2.441 . S
U86 O105 2.420 . S
U86 O106 2.455 . S
U86 O107 2.449 . S
O87 U86 2.454 . S
O87 C89 1.353 . S
O88 U86 2.458 . S
O88 C89 1.286 . S
C89 U86 2.984 . S
C89 O87 1.353 . S
C89 O88 1.286 . S
C89 C91 1.363 . S
C90 C80 1.465 . S
C90 U86 2.847 . S
C90 O104 1.249 . S
C90 O105 1.202 . S
C91 C89 1.363 . S
C91 C93 1.408 . S
C91 C96 1.342 . S
C92 C93 1.310 . S
C92 C95 1.461 . S
C92 H112 0.932 . S
C93 C91 1.408 . S
C93 C92 1.310 . S
C93 H113 0.930 . S
C94 C95 1.474 . S
C94 C96 1.285 . S
C94 H114 0.929 . S
C95 C92 1.461 . S
C95 C94 1.474 . S
C96 C91 1.342 . S
C96 C94 1.285 . S
C96 H115 0.930 . S
C97 C100 1.424 . S
C97 C102 1.245 . S
C97 C103 1.428 . S
C98 C101 1.260 . S
C98 C102 1.477 . S
C98 H116 0.932 . S
C99 C100 1.384 . S
C99 C101 1.479 . S
C99 H117 0.929 . S
C100 C97 1.424 . S
C100 C99 1.384 . S
C100 H118 0.928 . S
C101 C98 1.260 . S
C101 C99 1.479 . S
C102 C97 1.245 . S
C102 C98 1.477 . S
C102 H119 0.932 . S
C103 U86 2.882 . S
C103 C97 1.428 . S
C103 O106 1.301 . S
C103 O107 1.282 . S
O104 U86 2.441 . S
O104 C90 1.249 . S
O105 U86 2.420 . S
O105 C90 1.202 . S
O106 U86 2.455 . S
O106 C103 1.301 . S
O107 U86 2.449 . S
O107 C103 1.282 . S
H108 C81 0.931 . S
H109 C83 0.929 . S
H110 C84 0.930 . S
H111 C85 0.931 . S
H112 C92 0.932 . S
H113 C93 0.930 . S
H114 C94 0.929 . S
H115 C96 0.930 . S
H116 C98 0.932 . S
H117 C99 0.929 . S
H118 C100 0.928 . S
H119 C102 0.932 . S
C120 C121 1.264 . S
C120 C125 1.479 . S
C120 C130 1.465 . S
C121 C120 1.264 . S
C121 C123 1.339 . S
C121 H148 0.931 . S
C122 C123 1.395 . S
C122 C124 1.320 . S
C123 C121 1.339 . S
C123 C122 1.395 . S
C123 H149 0.929 . S
C124 C122 1.320 . S
C124 C125 1.405 . S
C124 H150 0.930 . S
C125 C120 1.479 . S
C125 C124 1.405 . S
C125 H151 0.931 . S
U126 O127 2.454 . S
U126 O128 2.458 . S
U126 C129 2.984 . S
U126 C130 2.847 . S
U126 C143 2.882 . S
U126 O144 2.441 . S
U126 O145 2.420 . S
U126 O146 2.455 . S
U126 O147 2.449 . S
O127 U126 2.454 . S
O127 C129 1.353 . S
O128 U126 2.458 . S
O128 C129 1.286 . S
C129 U126 2.984 . S
C129 O127 1.353 . S
C129 O128 1.286 . S
C129 C131 1.363 . S
C130 C120 1.465 . S
C130 U126 2.847 . S
C130 O144 1.249 . S
C130 O145 1.202 . S
C131 C129 1.363 . S
C131 C133 1.408 . S
C131 C136 1.342 . S
C132 C133 1.310 . S
C132 C135 1.461 . S
C132 H152 0.932 . S
C133 C131 1.408 . S
C133 C132 1.310 . S
C133 H153 0.930 . S
C134 C135 1.474 . S
C134 C136 1.285 . S
C134 H154 0.929 . S
C135 C132 1.461 . S
C135 C134 1.474 . S
C136 C131 1.342 . S
C136 C134 1.285 . S
C136 H155 0.930 . S
C137 C140 1.424 . S
C137 C142 1.245 . S
C137 C143 1.428 . S
C138 C141 1.260 . S
C138 C142 1.477 . S
C138 H156 0.932 . S
C139 C140 1.384 . S
C139 C141 1.479 . S
C139 H157 0.929 . S
C140 C137 1.424 . S
C140 C139 1.384 . S
C140 H158 0.928 . S
C141 C138 1.260 . S
C141 C139 1.479 . S
C142 C137 1.245 . S
C142 C138 1.477 . S
C142 H159 0.932 . S
C143 U126 2.882 . S
C143 C137 1.428 . S
C143 O146 1.301 . S
C143 O147 1.282 . S
O144 U126 2.441 . S
O144 C130 1.249 . S
O145 U126 2.420 . S
O145 C130 1.202 . S
O146 U126 2.455 . S
O146 C143 1.301 . S
O147 U126 2.449 . S
O147 C143 1.282 . S
H148 C121 0.931 . S
H149 C123 0.929 . S
H150 C124 0.930 . S
H151 C125 0.931 . S
H152 C132 0.932 . S
H153 C133 0.930 . S
H154 C134 0.929 . S
H155 C136 0.930 . S
H156 C138 0.932 . S
H157 C139 0.929 . S
H158 C140 0.928 . S
H159 C142 0.932 . S
C160 C161 1.264 . S
C160 C165 1.479 . S
C160 C170 1.465 . S
C161 C160 1.264 . S
C161 C163 1.339 . S
C161 H188 0.931 . S
C162 C163 1.395 . S
C162 C164 1.320 . S
C163 C161 1.339 . S
C163 C162 1.395 . S
C163 H189 0.929 . S
C164 C162 1.320 . S
C164 C165 1.405 . S
C164 H190 0.930 . S
C165 C160 1.479 . S
C165 C164 1.405 . S
C165 H191 0.931 . S
U166 O167 2.454 . S
U166 O168 2.458 . S
U166 C169 2.984 . S
U166 C170 2.847 . S
U166 C183 2.882 . S
U166 O184 2.441 . S
U166 O185 2.420 . S
U166 O186 2.455 . S
U166 O187 2.449 . S
O167 U166 2.454 . S
O167 C169 1.353 . S
O168 U166 2.458 . S
O168 C169 1.286 . S
C169 U166 2.984 . S
C169 O167 1.353 . S
C169 O168 1.286 . S
C169 C171 1.363 . S
C170 C160 1.465 . S
C170 U166 2.847 . S
C170 O184 1.249 . S
C170 O185 1.202 . S
C171 C169 1.363 . S
C171 C173 1.408 . S
C171 C176 1.342 . S
C172 C173 1.310 . S
C172 C175 1.461 . S
C172 H192 0.932 . S
C173 C171 1.408 . S
C173 C172 1.310 . S
C173 H193 0.930 . S
C174 C175 1.474 . S
C174 C176 1.285 . S
C174 H194 0.929 . S
C175 C172 1.461 . S
C175 C174 1.474 . S
C176 C171 1.342 . S
C176 C174 1.285 . S
C176 H195 0.930 . S
C177 C180 1.424 . S
C177 C182 1.245 . S
C177 C183 1.428 . S
C178 C181 1.260 . S
C178 C182 1.477 . S
C178 H196 0.932 . S
C179 C180 1.384 . S
C179 C181 1.479 . S
C179 H197 0.929 . S
C180 C177 1.424 . S
C180 C179 1.384 . S
C180 H198 0.928 . S
C181 C178 1.260 . S
C181 C179 1.479 . S
C182 C177 1.245 . S
C182 C178 1.477 . S
C182 H199 0.932 . S
C183 U166 2.882 . S
C183 C177 1.428 . S
C183 O186 1.301 . S
C183 O187 1.282 . S
O184 U166 2.441 . S
O184 C170 1.249 . S
O185 U166 2.420 . S
O185 C170 1.202 . S
O186 U166 2.455 . S
O186 C183 1.301 . S
O187 U166 2.449 . S
O187 C183 1.282 . S
H188 C161 0.931 . S
H189 C163 0.929 . S
H190 C164 0.930 . S
H191 C165 0.931 . S
H192 C172 0.932 . S
H193 C173 0.930 . S
H194 C174 0.929 . S
H195 C176 0.930 . S
H196 C178 0.932 . S
H197 C179 0.929 . S
H198 C180 0.928 . S
H199 C182 0.932 . S
C200 C201 1.264 . S
C200 C205 1.479 . S
C200 C210 1.465 . S
C201 C200 1.264 . S
C201 C203 1.339 . S
C201 H228 0.931 . S
C202 C203 1.395 . S
C202 C204 1.320 . S
C203 C201 1.339 . S
C203 C202 1.395 . S
C203 H229 0.929 . S
C204 C202 1.320 . S
C204 C205 1.405 . S
C204 H230 0.930 . S
C205 C200 1.479 . S
C205 C204 1.405 . S
C205 H231 0.931 . S
U206 O207 2.454 . S
U206 O208 2.458 . S
U206 C209 2.984 . S
U206 C210 2.847 . S
U206 C223 2.882 . S
U206 O224 2.441 . S
U206 O225 2.420 . S
U206 O226 2.455 . S
U206 O227 2.449 . S
O207 U206 2.454 . S
O207 C209 1.353 . S
O208 U206 2.458 . S
O208 C209 1.286 . S
C209 U206 2.984 . S
C209 O207 1.353 . S
C209 O208 1.286 . S
C209 C211 1.363 . S
C210 C200 1.465 . S
C210 U206 2.847 . S
C210 O224 1.249 . S
C210 O225 1.202 . S
C211 C209 1.363 . S
C211 C213 1.408 . S
C211 C216 1.342 . S
C212 C213 1.310 . S
C212 C215 1.461 . S
C212 H232 0.932 . S
C213 C211 1.408 . S
C213 C212 1.310 . S
C213 H233 0.930 . S
C214 C215 1.474 . S
C214 C216 1.285 . S
C214 H234 0.929 . S
C215 C212 1.461 . S
C215 C214 1.474 . S
C216 C211 1.342 . S
C216 C214 1.285 . S
C216 H235 0.930 . S
C217 C220 1.424 . S
C217 C222 1.245 . S
C217 C223 1.428 . S
C218 C221 1.260 . S
C218 C222 1.477 . S
C218 H236 0.932 . S
C219 C220 1.384 . S
C219 C221 1.479 . S
C219 H237 0.929 . S
C220 C217 1.424 . S
C220 C219 1.384 . S
C220 H238 0.928 . S
C221 C218 1.260 . S
C221 C219 1.479 . S
C222 C217 1.245 . S
C222 C218 1.477 . S
C222 H239 0.932 . S
C223 U206 2.882 . S
C223 C217 1.428 . S
C223 O226 1.301 . S
C223 O227 1.282 . S
O224 U206 2.441 . S
O224 C210 1.249 . S
O225 U206 2.420 . S
O225 C210 1.202 . S
O226 U206 2.455 . S
O226 C223 1.301 . S
O227 U206 2.449 . S
O227 C223 1.282 . S
H228 C201 0.931 . S
H229 C203 0.929 . S
H230 C204 0.930 . S
H231 C205 0.931 . S
H232 C212 0.932 . S
H233 C213 0.930 . S
H234 C214 0.929 . S
H235 C216 0.930 . S
H236 C218 0.932 . S
H237 C219 0.929 . S
H238 C220 0.928 . S
H239 C222 0.932 . S
C240 C241 1.264 . S
C240 C245 1.479 . S
C240 C250 1.465 . S
C241 C240 1.264 . S
C241 C243 1.339 . S
C241 H268 0.931 . S
C242 C243 1.395 . S
C242 C244 1.320 . S
C243 C241 1.339 . S
C243 C242 1.395 . S
C243 H269 0.929 . S
C244 C242 1.320 . S
C244 C245 1.405 . S
C244 H270 0.930 . S
C245 C240 1.479 . S
C245 C244 1.405 . S
C245 H271 0.931 . S
U246 O247 2.454 . S
U246 O248 2.458 . S
U246 C249 2.984 . S
U246 C250 2.847 . S
U246 C263 2.882 . S
U246 O264 2.441 . S
U246 O265 2.420 . S
U246 O266 2.455 . S
U246 O267 2.449 . S
O247 U246 2.454 . S
O247 C249 1.353 . S
O248 U246 2.458 . S
O248 C249 1.286 . S
C249 U246 2.984 . S
C249 O247 1.353 . S
C249 O248 1.286 . S
C249 C251 1.363 . S
C250 C240 1.465 . S
C250 U246 2.847 . S
C250 O264 1.249 . S
C250 O265 1.202 . S
C251 C249 1.363 . S
C251 C253 1.408 . S
C251 C256 1.342 . S
C252 C253 1.310 . S
C252 C255 1.461 . S
C252 H272 0.932 . S
C253 C251 1.408 . S
C253 C252 1.310 . S
C253 H273 0.930 . S
C254 C255 1.474 . S
C254 C256 1.285 . S
C254 H274 0.929 . S
C255 C252 1.461 . S
C255 C254 1.474 . S
C256 C251 1.342 . S
C256 C254 1.285 . S
C256 H275 0.930 . S
C257 C260 1.424 . S
C257 C262 1.245 . S
C257 C263 1.428 . S
C258 C261 1.260 . S
C258 C262 1.477 . S
C258 H276 0.932 . S
C259 C260 1.384 . S
C259 C261 1.479 . S
C259 H277 0.929 . S
C260 C257 1.424 . S
C260 C259 1.384 . S
C260 H278 0.928 . S
C261 C258 1.260 . S
C261 C259 1.479 . S
C262 C257 1.245 . S
C262 C258 1.477 . S
C262 H279 0.932 . S
C263 U246 2.882 . S
C263 C257 1.428 . S
C263 O266 1.301 . S
C263 O267 1.282 . S
O264 U246 2.441 . S
O264 C250 1.249 . S
O265 U246 2.420 . S
O265 C250 1.202 . S
O266 U246 2.455 . S
O266 C263 1.301 . S
O267 U246 2.449 . S
O267 C263 1.282 . S
H268 C241 0.931 . S
H269 C243 0.929 . S
H270 C244 0.930 . S
H271 C245 0.931 . S
H272 C252 0.932 . S
H273 C253 0.930 . S
H274 C254 0.929 . S
H275 C256 0.930 . S
H276 C258 0.932 . S
H277 C259 0.929 . S
H278 C260 0.928 . S
H279 C262 0.932 . S
C280 C281 1.264 . S
C280 C285 1.479 . S
C280 C290 1.465 . S
C281 C280 1.264 . S
C281 C283 1.339 . S
C281 H308 0.931 . S
C282 C283 1.395 . S
C282 C284 1.320 . S
C283 C281 1.339 . S
C283 C282 1.395 . S
C283 H309 0.929 . S
C284 C282 1.320 . S
C284 C285 1.405 . S
C284 H310 0.930 . S
C285 C280 1.479 . S
C285 C284 1.405 . S
C285 H311 0.931 . S
U286 O287 2.454 . S
U286 O288 2.458 . S
U286 C289 2.984 . S
U286 C290 2.847 . S
U286 C303 2.882 . S
U286 O304 2.441 . S
U286 O305 2.420 . S
U286 O306 2.455 . S
U286 O307 2.449 . S
O287 U286 2.454 . S
O287 C289 1.353 . S
O288 U286 2.458 . S
O288 C289 1.286 . S
C289 U286 2.984 . S
C289 O287 1.353 . S
C289 O288 1.286 . S
C289 C291 1.363 . S
C290 C280 1.465 . S
C290 U286 2.847 . S
C290 O304 1.249 . S
C290 O305 1.202 . S
C291 C289 1.363 . S
C291 C293 1.408 . S
C291 C296 1.342 . S
C292 C293 1.310 . S
C292 C295 1.461 . S
C292 H312 0.932 . S
C293 C291 1.408 . S
C293 C292 1.310 . S
C293 H313 0.930 . S
C294 C295 1.474 . S
C294 C296 1.285 . S
C294 H314 0.929 . S
C295 C292 1.461 . S
C295 C294 1.474 . S
C296 C291 1.342 . S
C296 C294 1.285 . S
C296 H315 0.930 . S
C297 C300 1.424 . S
C297 C302 1.245 . S
C297 C303 1.428 . S
C298 C301 1.260 . S
C298 C302 1.477 . S
C298 H316 0.932 . S
C299 C300 1.384 . S
C299 C301 1.479 . S
C299 H317 0.929 . S
C300 C297 1.424 . S
C300 C299 1.384 . S
C300 H318 0.928 . S
C301 C298 1.260 . S
C301 C299 1.479 . S
C302 C297 1.245 . S
C302 C298 1.477 . S
C302 H319 0.932 . S
C303 U286 2.882 . S
C303 C297 1.428 . S
C303 O306 1.301 . S
C303 O307 1.282 . S
O304 U286 2.441 . S
O304 C290 1.249 . S
O305 U286 2.420 . S
O305 C290 1.202 . S
O306 U286 2.455 . S
O306 C303 1.301 . S
O307 U286 2.449 . S
O307 C303 1.282 . S
H308 C281 0.931 . S
H309 C283 0.929 . S
H310 C284 0.930 . S
H311 C285 0.931 . S
H312 C292 0.932 . S
H313 C293 0.930 . S
H314 C294 0.929 . S
H315 C296 0.930 . S
H316 C298 0.932 . S
H317 C299 0.929 . S
H318 C300 0.928 . S
H319 C302 0.932 . S
C320 C321 1.264 . S
C320 C325 1.479 . S
C320 C330 1.465 . S
C321 C320 1.264 . S
C321 C323 1.339 . S
C321 H348 0.931 . S
C322 C323 1.395 . S
C322 C324 1.320 . S
C323 C321 1.339 . S
C323 C322 1.395 . S
C323 H349 0.929 . S
C324 C322 1.320 . S
C324 C325 1.405 . S
C324 H350 0.930 . S
C325 C320 1.479 . S
C325 C324 1.405 . S
C325 H351 0.931 . S
U326 O327 2.454 . S
U326 O328 2.458 . S
U326 C329 2.984 . S
U326 C330 2.847 . S
U326 C343 2.882 . S
U326 O344 2.441 . S
U326 O345 2.420 . S
U326 O346 2.455 . S
U326 O347 2.449 . S
O327 U326 2.454 . S
O327 C329 1.353 . S
O328 U326 2.458 . S
O328 C329 1.286 . S
C329 U326 2.984 . S
C329 O327 1.353 . S
C329 O328 1.286 . S
C329 C331 1.363 . S
C330 C320 1.465 . S
C330 U326 2.847 . S
C330 O344 1.249 . S
C330 O345 1.202 . S
C331 C329 1.363 . S
C331 C333 1.408 . S
C331 C336 1.342 . S
C332 C333 1.310 . S
C332 C335 1.461 . S
C332 H352 0.932 . S
C333 C331 1.408 . S
C333 C332 1.310 . S
C333 H353 0.930 . S
C334 C335 1.474 . S
C334 C336 1.285 . S
C334 H354 0.929 . S
C335 C332 1.461 . S
C335 C334 1.474 . S
C336 C331 1.342 . S
C336 C334 1.285 . S
C336 H355 0.930 . S
C337 C340 1.424 . S
C337 C342 1.245 . S
C337 C343 1.428 . S
C338 C341 1.260 . S
C338 C342 1.477 . S
C338 H356 0.932 . S
C339 C340 1.384 . S
C339 C341 1.479 . S
C339 H357 0.929 . S
C340 C337 1.424 . S
C340 C339 1.384 . S
C340 H358 0.928 . S
C341 C338 1.260 . S
C341 C339 1.479 . S
C342 C337 1.245 . S
C342 C338 1.477 . S
C342 H359 0.932 . S
C343 U326 2.882 . S
C343 C337 1.428 . S
C343 O346 1.301 . S
C343 O347 1.282 . S
O344 U326 2.441 . S
O344 C330 1.249 . S
O345 U326 2.420 . S
O345 C330 1.202 . S
O346 U326 2.455 . S
O346 C343 1.301 . S
O347 U326 2.449 . S
O347 C343 1.282 . S
H348 C321 0.931 . S
H349 C323 0.929 . S
H350 C324 0.930 . S
H351 C325 0.931 . S
H352 C332 0.932 . S
H353 C333 0.930 . S
H354 C334 0.929 . S
H355 C336 0.930 . S
H356 C338 0.932 . S
H357 C339 0.929 . S
H358 C340 0.928 . S
H359 C342 0.932 . S
C360 C361 1.264 . S
C360 C365 1.479 . S
C360 C370 1.465 . S
C361 C360 1.264 . S
C361 C363 1.339 . S
C361 H388 0.931 . S
C362 C363 1.395 . S
C362 C364 1.320 . S
C363 C361 1.339 . S
C363 C362 1.395 . S
C363 H389 0.929 . S
C364 C362 1.320 . S
C364 C365 1.405 . S
C364 H390 0.930 . S
C365 C360 1.479 . S
C365 C364 1.405 . S
C365 H391 0.931 . S
U366 O367 2.454 . S
U366 O368 2.458 . S
U366 C369 2.984 . S
U366 C370 2.847 . S
U366 C383 2.882 . S
U366 O384 2.441 . S
U366 O385 2.420 . S
U366 O386 2.455 . S
U366 O387 2.449 . S
O367 U366 2.454 . S
O367 C369 1.353 . S
O368 U366 2.458 . S
O368 C369 1.286 . S
C369 U366 2.984 . S
C369 O367 1.353 . S
C369 O368 1.286 . S
C369 C371 1.363 . S
C370 C360 1.465 . S
C370 U366 2.847 . S
C370 O384 1.249 . S
C370 O385 1.202 . S
C371 C369 1.363 . S
C371 C373 1.408 . S
C371 C376 1.342 . S
C372 C373 1.310 . S
C372 C375 1.461 . S
C372 H392 0.932 . S
C373 C371 1.408 . S
C373 C372 1.310 . S
C373 H393 0.930 . S
C374 C375 1.474 . S
C374 C376 1.285 . S
C374 H394 0.929 . S
C375 C372 1.461 . S
C375 C374 1.474 . S
C376 C371 1.342 . S
C376 C374 1.285 . S
C376 H395 0.930 . S
C377 C380 1.424 . S
C377 C382 1.245 . S
C377 C383 1.428 . S
C378 C381 1.260 . S
C378 C382 1.477 . S
C378 H396 0.932 . S
C379 C380 1.384 . S
C379 C381 1.479 . S
C379 H397 0.929 . S
C380 C377 1.424 . S
C380 C379 1.384 . S
C380 H398 0.928 . S
C381 C378 1.260 . S
C381 C379 1.479 . S
C382 C377 1.245 . S
C382 C378 1.477 . S
C382 H399 0.932 . S
C383 U366 2.882 . S
C383 C377 1.428 . S
C383 O386 1.301 . S
C383 O387 1.282 . S
O384 U366 2.441 . S
O384 C370 1.249 . S
O385 U366 2.420 . S
O385 C370 1.202 . S
O386 U366 2.455 . S
O386 C383 1.301 . S
O387 U366 2.449 . S
O387 C383 1.282 . S
H388 C361 0.931 . S
H389 C363 0.929 . S
H390 C364 0.930 . S
H391 C365 0.931 . S
H392 C372 0.932 . S
H393 C373 0.930 . S
H394 C374 0.929 . S
H395 C376 0.930 . S
H396 C378 0.932 . S
H397 C379 0.929 . S
H398 C380 0.928 . S
H399 C382 0.932 . S
C400 C401 1.264 . S
C400 C405 1.479 . S
C400 C410 1.465 . S
C401 C400 1.264 . S
C401 C403 1.339 . S
C401 H428 0.931 . S
C402 C403 1.395 . S
C402 C404 1.320 . S
C403 C401 1.339 . S
C403 C402 1.395 . S
C403 H429 0.929 . S
C404 C402 1.320 . S
C404 C405 1.405 . S
C404 H430 0.930 . S
C405 C400 1.479 . S
C405 C404 1.405 . S
C405 H431 0.931 . S
U406 O407 2.454 . S
U406 O408 2.458 . S
U406 C409 2.984 . S
U406 C410 2.847 . S
U406 C423 2.882 . S
U406 O424 2.441 . S
U406 O425 2.420 . S
U406 O426 2.455 . S
U406 O427 2.449 . S
O407 U406 2.454 . S
O407 C409 1.353 . S
O408 U406 2.458 . S
O408 C409 1.286 . S
C409 U406 2.984 . S
C409 O407 1.353 . S
C409 O408 1.286 . S
C409 C411 1.363 . S
C410 C400 1.465 . S
C410 U406 2.847 . S
C410 O424 1.249 . S
C410 O425 1.202 . S
C411 C409 1.363 . S
C411 C413 1.408 . S
C411 C416 1.342 . S
C412 C413 1.310 . S
C412 C415 1.461 . S
C412 H432 0.932 . S
C413 C411 1.408 . S
C413 C412 1.310 . S
C413 H433 0.930 . S
C414 C415 1.474 . S
C414 C416 1.285 . S
C414 H434 0.929 . S
C415 C412 1.461 . S
C415 C414 1.474 . S
C416 C411 1.342 . S
C416 C414 1.285 . S
C416 H435 0.930 . S
C417 C420 1.424 . S
C417 C422 1.245 . S
C417 C423 1.428 . S
C418 C421 1.260 . S
C418 C422 1.477 . S
C418 H436 0.932 . S
C419 C420 1.384 . S
C419 C421 1.479 . S
C419 H437 0.929 . S
C420 C417 1.424 . S
C420 C419 1.384 . S
C420 H438 0.928 . S
C421 C418 1.260 . S
C421 C419 1.479 . S
C422 C417 1.245 . S
C422 C418 1.477 . S
C422 H439 0.932 . S
C423 U406 2.882 . S
C423 C417 1.428 . S
C423 O426 1.301 . S
C423 O427 1.282 . S
O424 U406 2.441 . S
O424 C410 1.249 . S
O425 U406 2.420 . S
O425 C410 1.202 . S
O426 U406 2.455 . S
O426 C423 1.301 . S
O427 U406 2.449 . S
O427 C423 1.282 . S
H428 C401 0.931 . S
H429 C403 0.929 . S
H430 C404 0.930 . S
H431 C405 0.931 . S
H432 C412 0.932 . S
H433 C413 0.930 . S
H434 C414 0.929 . S
H435 C416 0.930 . S
H436 C418 0.932 . S
H437 C419 0.929 . S
H438 C420 0.928 . S
H439 C422 0.932 . S
C440 C441 1.264 . S
C440 C445 1.479 . S
C440 C450 1.465 . S
C441 C440 1.264 . S
C441 C443 1.339 . S
C441 H468 0.931 . S
C442 C443 1.395 . S
C442 C444 1.320 . S
C443 C441 1.339 . S
C443 C442 1.395 . S
C443 H469 0.929 . S
C444 C442 1.320 . S
C444 C445 1.405 . S
C444 H470 0.930 . S
C445 C440 1.479 . S
C445 C444 1.405 . S
C445 H471 0.931 . S
U446 O447 2.454 . S
U446 O448 2.458 . S
U446 C449 2.984 . S
U446 C450 2.847 . S
U446 C463 2.882 . S
U446 O464 2.441 . S
U446 O465 2.420 . S
U446 O466 2.455 . S
U446 O467 2.449 . S
O447 U446 2.454 . S
O447 C449 1.353 . S
O448 U446 2.458 . S
O448 C449 1.286 . S
C449 U446 2.984 . S
C449 O447 1.353 . S
C449 O448 1.286 . S
C449 C451 1.363 . S
C450 C440 1.465 . S
C450 U446 2.847 . S
C450 O464 1.249 . S
C450 O465 1.202 . S
C451 C449 1.363 . S
C451 C453 1.408 . S
C451 C456 1.342 . S
C452 C453 1.310 . S
C452 C455 1.461 . S
C452 H472 0.932 . S
C453 C451 1.408 . S
C453 C452 1.310 . S
C453 H473 0.930 . S
C454 C455 1.474 . S
C454 C456 1.285 . S
C454 H474 0.929 . S
C455 C452 1.461 . S
C455 C454 1.474 . S
C456 C451 1.342 . S
C456 C454 1.285 . S
C456 H475 0.930 . S
C457 C460 1.424 . S
C457 C462 1.245 . S
C457 C463 1.428 . S
C458 C461 1.260 . S
C458 C462 1.477 . S
C458 H476 0.932 . S
C459 C460 1.384 . S
C459 C461 1.479 . S
C459 H477 0.929 . S
C460 C457 1.424 . S
C460 C459 1.384 . S
C460 H478 0.928 . S
C461 C458 1.260 . S
C461 C459 1.479 . S
C462 C457 1.245 . S
C462 C458 1.477 . S
C462 H479 0.932 . S
C463 U446 2.882 . S
C463 C457 1.428 . S
C463 O466 1.301 . S
C463 O467 1.282 . S
O464 U446 2.441 . S
O464 C450 1.249 . S
O465 U446 2.420 . S
O465 C450 1.202 . S
O466 U446 2.455 . S
O466 C463 1.301 . S
O467 U446 2.449 . S
O467 C463 1.282 . S
H468 C441 0.931 . S
H469 C443 0.929 . S
H470 C444 0.930 . S
H471 C445 0.931 . S
H472 C452 0.932 . S
H473 C453 0.930 . S
H474 C454 0.929 . S
H475 C456 0.930 . S
H476 C458 0.932 . S
H477 C459 0.929 . S
H478 C460 0.928 . S
H479 C462 0.932 . S
C480 C481 1.264 . S
C480 C485 1.479 . S
C480 C490 1.465 . S
C481 C480 1.264 . S
C481 C483 1.339 . S
C481 H508 0.931 . S
C482 C483 1.395 . S
C482 C484 1.320 . S
C483 C481 1.339 . S
C483 C482 1.395 . S
C483 H509 0.929 . S
C484 C482 1.320 . S
C484 C485 1.405 . S
C484 H510 0.930 . S
C485 C480 1.479 . S
C485 C484 1.405 . S
C485 H511 0.931 . S
U486 O487 2.454 . S
U486 O488 2.458 . S
U486 C489 2.984 . S
U486 C490 2.847 . S
U486 C503 2.882 . S
U486 O504 2.441 . S
U486 O505 2.420 . S
U486 O506 2.455 . S
U486 O507 2.449 . S
O487 U486 2.454 . S
O487 C489 1.353 . S
O488 U486 2.458 . S
O488 C489 1.286 . S
C489 U486 2.984 . S
C489 O487 1.353 . S
C489 O488 1.286 . S
C489 C491 1.363 . S
C490 C480 1.465 . S
C490 U486 2.847 . S
C490 O504 1.249 . S
C490 O505 1.202 . S
C491 C489 1.363 . S
C491 C493 1.408 . S
C491 C496 1.342 . S
C492 C493 1.310 . S
C492 C495 1.461 . S
C492 H512 0.932 . S
C493 C491 1.408 . S
C493 C492 1.310 . S
C493 H513 0.930 . S
C494 C495 1.474 . S
C494 C496 1.285 . S
C494 H514 0.929 . S
C495 C492 1.461 . S
C495 C494 1.474 . S
C496 C491 1.342 . S
C496 C494 1.285 . S
C496 H515 0.930 . S
C497 C500 1.424 . S
C497 C502 1.245 . S
C497 C503 1.428 . S
C498 C501 1.260 . S
C498 C502 1.477 . S
C498 H516 0.932 . S
C499 C500 1.384 . S
C499 C501 1.479 . S
C499 H517 0.929 . S
C500 C497 1.424 . S
C500 C499 1.384 . S
C500 H518 0.928 . S
C501 C498 1.260 . S
C501 C499 1.479 . S
C502 C497 1.245 . S
C502 C498 1.477 . S
C502 H519 0.932 . S
C503 U486 2.882 . S
C503 C497 1.428 . S
C503 O506 1.301 . S
C503 O507 1.282 . S
O504 U486 2.441 . S
O504 C490 1.249 . S
O505 U486 2.420 . S
O505 C490 1.202 . S
O506 U486 2.455 . S
O506 C503 1.301 . S
O507 U486 2.449 . S
O507 C503 1.282 . S
H508 C481 0.931 . S
H509 C483 0.929 . S
H510 C484 0.930 . S
H511 C485 0.931 . S
H512 C492 0.932 . S
H513 C493 0.930 . S
H514 C494 0.929 . S
H515 C496 0.930 . S
H516 C498 0.932 . S
H517 C499 0.929 . S
H518 C500 0.928 . S
H519 C502 0.932 . S
C520 C521 1.264 . S
C520 C525 1.479 . S
C520 C530 1.465 . S
C521 C520 1.264 . S
C521 C523 1.339 . S
C521 H548 0.931 . S
C522 C523 1.395 . S
C522 C524 1.320 . S
C523 C521 1.339 . S
C523 C522 1.395 . S
C523 H549 0.929 . S
C524 C522 1.320 . S
C524 C525 1.405 . S
C524 H550 0.930 . S
C525 C520 1.479 . S
C525 C524 1.405 . S
C525 H551 0.931 . S
U526 O527 2.454 . S
U526 O528 2.458 . S
U526 C529 2.984 . S
U526 C530 2.847 . S
U526 C543 2.882 . S
U526 O544 2.441 . S
U526 O545 2.420 . S
U526 O546 2.455 . S
U526 O547 2.449 . S
O527 U526 2.454 . S
O527 C529 1.353 . S
O528 U526 2.458 . S
O528 C529 1.286 . S
C529 U526 2.984 . S
C529 O527 1.353 . S
C529 O528 1.286 . S
C529 C531 1.363 . S
C530 C520 1.465 . S
C530 U526 2.847 . S
C530 O544 1.249 . S
C530 O545 1.202 . S
C531 C529 1.363 . S
C531 C533 1.408 . S
C531 C536 1.342 . S
C532 C533 1.310 . S
C532 C535 1.461 . S
C532 H552 0.932 . S
C533 C531 1.408 . S
C533 C532 1.310 . S
C533 H553 0.930 . S
C534 C535 1.474 . S
C534 C536 1.285 . S
C534 H554 0.929 . S
C535 C532 1.461 . S
C535 C534 1.474 . S
C536 C531 1.342 . S
C536 C534 1.285 . S
C536 H555 0.930 . S
C537 C540 1.424 . S
C537 C542 1.245 . S
C537 C543 1.428 . S
C538 C541 1.260 . S
C538 C542 1.477 . S
C538 H556 0.932 . S
C539 C540 1.384 . S
C539 C541 1.479 . S
C539 H557 0.929 . S
C540 C537 1.424 . S
C540 C539 1.384 . S
C540 H558 0.928 . S
C541 C538 1.260 . S
C541 C539 1.479 . S
C542 C537 1.245 . S
C542 C538 1.477 . S
C542 H559 0.932 . S
C543 U526 2.882 . S
C543 C537 1.428 . S
C543 O546 1.301 . S
C543 O547 1.282 . S
O544 U526 2.441 . S
O544 C530 1.249 . S
O545 U526 2.420 . S
O545 C530 1.202 . S
O546 U526 2.455 . S
O546 C543 1.301 . S
O547 U526 2.449 . S
O547 C543 1.282 . S
H548 C521 0.931 . S
H549 C523 0.929 . S
H550 C524 0.930 . S
H551 C525 0.931 . S
H552 C532 0.932 . S
H553 C533 0.930 . S
H554 C534 0.929 . S
H555 C536 0.930 . S
H556 C538 0.932 . S
H557 C539 0.929 . S
H558 C540 0.928 . S
H559 C542 0.932 . S
C560 C561 1.264 . S
C560 C565 1.479 . S
C560 C570 1.465 . S
C561 C560 1.264 . S
C561 C563 1.339 . S
C561 H588 0.931 . S
C562 C563 1.395 . S
C562 C564 1.320 . S
C563 C561 1.339 . S
C563 C562 1.395 . S
C563 H589 0.929 . S
C564 C562 1.320 . S
C564 C565 1.405 . S
C564 H590 0.930 . S
C565 C560 1.479 . S
C565 C564 1.405 . S
C565 H591 0.931 . S
U566 O567 2.454 . S
U566 O568 2.458 . S
U566 C569 2.984 . S
U566 C570 2.847 . S
U566 C583 2.882 . S
U566 O584 2.441 . S
U566 O585 2.420 . S
U566 O586 2.455 . S
U566 O587 2.449 . S
O567 U566 2.454 . S
O567 C569 1.353 . S
O568 U566 2.458 . S
O568 C569 1.286 . S
C569 U566 2.984 . S
C569 O567 1.353 . S
C569 O568 1.286 . S
C569 C571 1.363 . S
C570 C560 1.465 . S
C570 U566 2.847 . S
C570 O584 1.249 . S
C570 O585 1.202 . S
C571 C569 1.363 . S
C571 C573 1.408 . S
C571 C576 1.342 . S
C572 C573 1.310 . S
C572 C575 1.461 . S
C572 H592 0.932 . S
C573 C571 1.408 . S
C573 C572 1.310 . S
C573 H593 0.930 . S
C574 C575 1.474 . S
C574 C576 1.285 . S
C574 H594 0.929 . S
C575 C572 1.461 . S
C575 C574 1.474 . S
C576 C571 1.342 . S
C576 C574 1.285 . S
C576 H595 0.930 . S
C577 C580 1.424 . S
C577 C582 1.245 . S
C577 C583 1.428 . S
C578 C581 1.260 . S
C578 C582 1.477 . S
C578 H596 0.932 . S
C579 C580 1.384 . S
C579 C581 1.479 . S
C579 H597 0.929 . S
C580 C577 1.424 . S
C580 C579 1.384 . S
C580 H598 0.928 . S
C581 C578 1.260 . S
C581 C579 1.479 . S
C582 C577 1.245 . S
C582 C578 1.477 . S
C582 H599 0.932 . S
C583 U566 2.882 . S
C583 C577 1.428 . S
C583 O586 1.301 . S
C583 O587 1.282 . S
O584 U566 2.441 . S
O584 C570 1.249 . S
O585 U566 2.420 . S
O585 C570 1.202 . S
O586 U566 2.455 . S
O586 C583 1.301 . S
O587 U566 2.449 . S
O587 C583 1.282 . S
H588 C561 0.931 . S
H589 C563 0.929 . S
H590 C564 0.930 . S
H591 C565 0.931 . S
H592 C572 0.932 . S
H593 C573 0.930 . S
H594 C574 0.929 . S
H595 C576 0.930 . S
H596 C578 0.932 . S
H597 C579 0.929 . S
H598 C580 0.928 . S
H599 C582 0.932 . S
C600 C601 1.264 . S
C600 C605 1.479 . S
C600 C610 1.465 . S
C601 C600 1.264 . S
C601 C603 1.339 . S
C601 H628 0.931 . S
C602 C603 1.395 . S
C602 C604 1.320 . S
C603 C601 1.339 . S
C603 C602 1.395 . S
C603 H629 0.929 . S
C604 C602 1.320 . S
C604 C605 1.405 . S
C604 H630 0.930 . S
C605 C600 1.479 . S
C605 C604 1.405 . S
C605 H631 0.931 . S
U606 O607 2.454 . S
U606 O608 2.458 . S
U606 C609 2.984 . S
U606 C610 2.847 . S
U606 C623 2.882 . S
U606 O624 2.441 . S
U606 O625 2.420 . S
U606 O626 2.455 . S
U606 O627 2.449 . S
O607 U606 2.454 . S
O607 C609 1.353 . S
O608 U606 2.458 . S
O608 C609 1.286 . S
C609 U606 2.984 . S
C609 O607 1.353 . S
C609 O608 1.286 . S
C609 C611 1.363 . S
C610 C600 1.465 . S
C610 U606 2.847 . S
C610 O624 1.249 . S
C610 O625 1.202 . S
C611 C609 1.363 . S
C611 C613 1.408 . S
C611 C616 1.342 . S
C612 C613 1.310 . S
C612 C615 1.461 . S
C612 H632 0.932 . S
C613 C611 1.408 . S
C613 C612 1.310 . S
C613 H633 0.930 . S
C614 C615 1.474 . S
C614 C616 1.285 . S
C614 H634 0.929 . S
C615 C612 1.461 . S
C615 C614 1.474 . S
C616 C611 1.342 . S
C616 C614 1.285 . S
C616 H635 0.930 . S
C617 C620 1.424 . S
C617 C622 1.245 . S
C617 C623 1.428 . S
C618 C621 1.260 . S
C618 C622 1.477 . S
C618 H636 0.932 . S
C619 C620 1.384 . S
C619 C621 1.479 . S
C619 H637 0.929 . S
C620 C617 1.424 . S
C620 C619 1.384 . S
C620 H638 0.928 . S
C621 C618 1.260 . S
C621 C619 1.479 . S
C622 C617 1.245 . S
C622 C618 1.477 . S
C622 H639 0.932 . S
C623 U606 2.882 . S
C623 C617 1.428 . S
C623 O626 1.301 . S
C623 O627 1.282 . S
O624 U606 2.441 . S
O624 C610 1.249 . S
O625 U606 2.420 . S
O625 C610 1.202 . S
O626 U606 2.455 . S
O626 C623 1.301 . S
O627 U606 2.449 . S
O627 C623 1.282 . S
H628 C601 0.931 . S
H629 C603 0.929 . S
H630 C604 0.930 . S
H631 C605 0.931 . S
H632 C612 0.932 . S
H633 C613 0.930 . S
H634 C614 0.929 . S
H635 C616 0.930 . S
H636 C618 0.932 . S
H637 C619 0.929 . S
H638 C620 0.928 . S
H639 C622 0.932 . S
C640 C641 1.264 . S
C640 C645 1.479 . S
C640 C650 1.465 . S
C641 C640 1.264 . S
C641 C643 1.339 . S
C641 H668 0.931 . S
C642 C643 1.395 . S
C642 C644 1.320 . S
C643 C641 1.339 . S
C643 C642 1.395 . S
C643 H669 0.929 . S
C644 C642 1.320 . S
C644 C645 1.405 . S
C644 H670 0.930 . S
C645 C640 1.479 . S
C645 C644 1.405 . S
C645 H671 0.931 . S
U646 O647 2.454 . S
U646 O648 2.458 . S
U646 C649 2.984 . S
U646 C650 2.847 . S
U646 C663 2.882 . S
U646 O664 2.441 . S
U646 O665 2.420 . S
U646 O666 2.455 . S
U646 O667 2.449 . S
O647 U646 2.454 . S
O647 C649 1.353 . S
O648 U646 2.458 . S
O648 C649 1.286 . S
C649 U646 2.984 . S
C649 O647 1.353 . S
C649 O648 1.286 . S
C649 C651 1.363 . S
C650 C640 1.465 . S
C650 U646 2.847 . S
C650 O664 1.249 . S
C650 O665 1.202 . S
C651 C649 1.363 . S
C651 C653 1.408 . S
C651 C656 1.342 . S
C652 C653 1.310 . S
C652 C655 1.461 . S
C652 H672 0.932 . S
C653 C651 1.408 . S
C653 C652 1.310 . S
C653 H673 0.930 . S
C654 C655 1.474 . S
C654 C656 1.285 . S
C654 H674 0.929 . S
C655 C652 1.461 . S
C655 C654 1.474 . S
C656 C651 1.342 . S
C656 C654 1.285 . S
C656 H675 0.930 . S
C657 C660 1.424 . S
C657 C662 1.245 . S
C657 C663 1.428 . S
C658 C661 1.260 . S
C658 C662 1.477 . S
C658 H676 0.932 . S
C659 C660 1.384 . S
C659 C661 1.479 . S
C659 H677 0.929 . S
C660 C657 1.424 . S
C660 C659 1.384 . S
C660 H678 0.928 . S
C661 C658 1.260 . S
C661 C659 1.479 . S
C662 C657 1.245 . S
C662 C658 1.477 . S
C662 H679 0.932 . S
C663 U646 2.882 . S
C663 C657 1.428 . S
C663 O666 1.301 . S
C663 O667 1.282 . S
O664 U646 2.441 . S
O664 C650 1.249 . S
O665 U646 2.420 . S
O665 C650 1.202 . S
O666 U646 2.455 . S
O666 C663 1.301 . S
O667 U646 2.449 . S
O667 C663 1.282 . S
H668 C641 0.931 . S
H669 C643 0.929 . S
H670 C644 0.930 . S
H671 C645 0.931 . S
H672 C652 0.932 . S
H673 C653 0.930 . S
H674 C654 0.929 . S
H675 C656 0.930 . S
H676 C658 0.932 . S
H677 C659 0.929 . S
H678 C660 0.928 . S
H679 C662 0.932 . S
C680 C681 1.264 . S
C680 C685 1.479 . S
C680 C690 1.465 . S
C681 C680 1.264 . S
C681 C683 1.339 . S
C681 H708 0.931 . S
C682 C683 1.395 . S
C682 C684 1.320 . S
C683 C681 1.339 . S
C683 C682 1.395 . S
C683 H709 0.929 . S
C684 C682 1.320 . S
C684 C685 1.405 . S
C684 H710 0.930 . S
C685 C680 1.479 . S
C685 C684 1.405 . S
C685 H711 0.931 . S
U686 O687 2.454 . S
U686 O688 2.458 . S
U686 C689 2.984 . S
U686 C690 2.847 . S
U686 C703 2.882 . S
U686 O704 2.441 . S
U686 O705 2.420 . S
U686 O706 2.455 . S
U686 O707 2.449 . S
O687 U686 2.454 . S
O687 C689 1.353 . S
O688 U686 2.458 . S
O688 C689 1.286 . S
C689 U686 2.984 . S
C689 O687 1.353 . S
C689 O688 1.286 . S
C689 C691 1.363 . S
C690 C680 1.465 . S
C690 U686 2.847 . S
C690 O704 1.249 . S
C690 O705 1.202 . S
C691 C689 1.363 . S
C691 C693 1.408 . S
C691 C696 1.342 . S
C692 C693 1.310 . S
C692 C695 1.461 . S
C692 H712 0.932 . S
C693 C691 1.408 . S
C693 C692 1.310 . S
C693 H713 0.930 . S
C694 C695 1.474 . S
C694 C696 1.285 . S
C694 H714 0.929 . S
C695 C692 1.461 . S
C695 C694 1.474 . S
C696 C691 1.342 . S
C696 C694 1.285 . S
C696 H715 0.930 . S
C697 C700 1.424 . S
C697 C702 1.245 . S
C697 C703 1.428 . S
C698 C701 1.260 . S
C698 C702 1.477 . S
C698 H716 0.932 . S
C699 C700 1.384 . S
C699 C701 1.479 . S
C699 H717 0.929 . S
C700 C697 1.424 . S
C700 C699 1.384 . S
C700 H718 0.928 . S
C701 C698 1.260 . S
C701 C699 1.479 . S
C702 C697 1.245 . S
C702 C698 1.477 . S
C702 H719 0.932 . S
C703 U686 2.882 . S
C703 C697 1.428 . S
C703 O706 1.301 . S
C703 O707 1.282 . S
O704 U686 2.441 . S
O704 C690 1.249 . S
O705 U686 2.420 . S
O705 C690 1.202 . S
O706 U686 2.455 . S
O706 C703 1.301 . S
O707 U686 2.449 . S
O707 C703 1.282 . S
H708 C681 0.931 . S
H709 C683 0.929 . S
H710 C684 0.930 . S
H711 C685 0.931 . S
H712 C692 0.932 . S
H713 C693 0.930 . S
H714 C694 0.929 . S
H715 C696 0.930 . S
H716 C698 0.932 . S
H717 C699 0.929 . S
H718 C700 0.928 . S
H719 C702 0.932 . S
C720 C721 1.264 . S
C720 C725 1.479 . S
C720 C730 1.465 . S
C721 C720 1.264 . S
C721 C723 1.339 . S
C721 H748 0.931 . S
C722 C723 1.395 . S
C722 C724 1.320 . S
C723 C721 1.339 . S
C723 C722 1.395 . S
C723 H749 0.929 . S
C724 C722 1.320 . S
C724 C725 1.405 . S
C724 H750 0.930 . S
C725 C720 1.479 . S
C725 C724 1.405 . S
C725 H751 0.931 . S
U726 O727 2.454 . S
U726 O728 2.458 . S
U726 C729 2.984 . S
U726 C730 2.847 . S
U726 C743 2.882 . S
U726 O744 2.441 . S
U726 O745 2.420 . S
U726 O746 2.455 . S
U726 O747 2.449 . S
O727 U726 2.454 . S
O727 C729 1.353 . S
O728 U726 2.458 . S
O728 C729 1.286 . S
C729 U726 2.984 . S
C729 O727 1.353 . S
C729 O728 1.286 . S
C729 C731 1.363 . S
C730 C720 1.465 . S
C730 U726 2.847 . S
C730 O744 1.249 . S
C730 O745 1.202 . S
C731 C729 1.363 . S
C731 C733 1.408 . S
C731 C736 1.342 . S
C732 C733 1.310 . S
C732 C735 1.461 . S
C732 H752 0.932 . S
C733 C731 1.408 . S
C733 C732 1.310 . S
C733 H753 0.930 . S
C734 C735 1.474 . S
C734 C736 1.285 . S
C734 H754 0.929 . S
C735 C732 1.461 . S
C735 C734 1.474 . S
C736 C731 1.342 . S
C736 C734 1.285 . S
C736 H755 0.930 . S
C737 C740 1.424 . S
C737 C742 1.245 . S
C737 C743 1.428 . S
C738 C741 1.260 . S
C738 C742 1.477 . S
C738 H756 0.932 . S
C739 C740 1.384 . S
C739 C741 1.479 . S
C739 H757 0.929 . S
C740 C737 1.424 . S
C740 C739 1.384 . S
C740 H758 0.928 . S
C741 C738 1.260 . S
C741 C739 1.479 . S
C742 C737 1.245 . S
C742 C738 1.477 . S
C742 H759 0.932 . S
C743 U726 2.882 . S
C743 C737 1.428 . S
C743 O746 1.301 . S
C743 O747 1.282 . S
O744 U726 2.441 . S
O744 C730 1.249 . S
O745 U726 2.420 . S
O745 C730 1.202 . S
O746 U726 2.455 . S
O746 C743 1.301 . S
O747 U726 2.449 . S
O747 C743 1.282 . S
H748 C721 0.931 . S
H749 C723 0.929 . S
H750 C724 0.930 . S
H751 C725 0.931 . S
H752 C732 0.932 . S
H753 C733 0.930 . S
H754 C734 0.929 . S
H755 C736 0.930 . S
H756 C738 0.932 . S
H757 C739 0.929 . S
H758 C740 0.928 . S
H759 C742 0.932 . S
C760 C761 1.264 . S
C760 C765 1.479 . S
C760 C770 1.465 . S
C761 C760 1.264 . S
C761 C763 1.339 . S
C761 H788 0.931 . S
C762 C763 1.395 . S
C762 C764 1.320 . S
C763 C761 1.339 . S
C763 C762 1.395 . S
C763 H789 0.929 . S
C764 C762 1.320 . S
C764 C765 1.405 . S
C764 H790 0.930 . S
C765 C760 1.479 . S
C765 C764 1.405 . S
C765 H791 0.931 . S
U766 O767 2.454 . S
U766 O768 2.458 . S
U766 C769 2.984 . S
U766 C770 2.847 . S
U766 C783 2.882 . S
U766 O784 2.441 . S
U766 O785 2.420 . S
U766 O786 2.455 . S
U766 O787 2.449 . S
O767 U766 2.454 . S
O767 C769 1.353 . S
O768 U766 2.458 . S
O768 C769 1.286 . S
C769 U766 2.984 . S
C769 O767 1.353 . S
C769 O768 1.286 . S
C769 C771 1.363 . S
C770 C760 1.465 . S
C770 U766 2.847 . S
C770 O784 1.249 . S
C770 O785 1.202 . S
C771 C769 1.363 . S
C771 C773 1.408 . S
C771 C776 1.342 . S
C772 C773 1.310 . S
C772 C775 1.461 . S
C772 H792 0.932 . S
C773 C771 1.408 . S
C773 C772 1.310 . S
C773 H793 0.930 . S
C774 C775 1.474 . S
C774 C776 1.285 . S
C774 H794 0.929 . S
C775 C772 1.461 . S
C775 C774 1.474 . S
C776 C771 1.342 . S
C776 C774 1.285 . S
C776 H795 0.930 . S
C777 C780 1.424 . S
C777 C782 1.245 . S
C777 C783 1.428 . S
C778 C781 1.260 . S
C778 C782 1.477 . S
C778 H796 0.932 . S
C779 C780 1.384 . S
C779 C781 1.479 . S
C779 H797 0.929 . S
C780 C777 1.424 . S
C780 C779 1.384 . S
C780 H798 0.928 . S
C781 C778 1.260 . S
C781 C779 1.479 . S
C782 C777 1.245 . S
C782 C778 1.477 . S
C782 H799 0.932 . S
C783 U766 2.882 . S
C783 C777 1.428 . S
C783 O786 1.301 . S
C783 O787 1.282 . S
O784 U766 2.441 . S
O784 C770 1.249 . S
O785 U766 2.420 . S
O785 C770 1.202 . S
O786 U766 2.455 . S
O786 C783 1.301 . S
O787 U766 2.449 . S
O787 C783 1.282 . S
H788 C761 0.931 . S
H789 C763 0.929 . S
H790 C764 0.930 . S
H791 C765 0.931 . S
H792 C772 0.932 . S
H793 C773 0.930 . S
H794 C774 0.929 . S
H795 C776 0.930 . S
H796 C778 0.932 . S
H797 C779 0.929 . S
H798 C780 0.928 . S
H799 C782 0.932 . S
C800 C801 1.264 . S
C800 C805 1.479 . S
C800 C810 1.465 . S
C801 C800 1.264 . S
C801 C803 1.339 . S
C801 H828 0.931 . S
C802 C803 1.395 . S
C802 C804 1.320 . S
C803 C801 1.339 . S
C803 C802 1.395 . S
C803 H829 0.929 . S
C804 C802 1.320 . S
C804 C805 1.405 . S
C804 H830 0.930 . S
C805 C800 1.479 . S
C805 C804 1.405 . S
C805 H831 0.931 . S
U806 O807 2.454 . S
U806 O808 2.458 . S
U806 C809 2.984 . S
U806 C810 2.847 . S
U806 C823 2.882 . S
U806 O824 2.441 . S
U806 O825 2.420 . S
U806 O826 2.455 . S
U806 O827 2.449 . S
O807 U806 2.454 . S
O807 C809 1.353 . S
O808 U806 2.458 . S
O808 C809 1.286 . S
C809 U806 2.984 . S
C809 O807 1.353 . S
C809 O808 1.286 . S
C809 C811 1.363 . S
C810 C800 1.465 . S
C810 U806 2.847 . S
C810 O824 1.249 . S
C810 O825 1.202 . S
C811 C809 1.363 . S
C811 C813 1.408 . S
C811 C816 1.342 . S
C812 C813 1.310 . S
C812 C815 1.461 . S
C812 H832 0.932 . S
C813 C811 1.408 . S
C813 C812 1.310 . S
C813 H833 0.930 . S
C814 C815 1.474 . S
C814 C816 1.285 . S
C814 H834 0.929 . S
C815 C812 1.461 . S
C815 C814 1.474 . S
C816 C811 1.342 . S
C816 C814 1.285 . S
C816 H835 0.930 . S
C817 C820 1.424 . S
C817 C822 1.245 . S
C817 C823 1.428 . S
C818 C821 1.260 . S
C818 C822 1.477 . S
C818 H836 0.932 . S
C819 C820 1.384 . S
C819 C821 1.479 . S
C819 H837 0.929 . S
C820 C817 1.424 . S
C820 C819 1.384 . S
C820 H838 0.928 . S
C821 C818 1.260 . S
C821 C819 1.479 . S
C822 C817 1.245 . S
C822 C818 1.477 . S
C822 H839 0.932 . S
C823 U806 2.882 . S
C823 C817 1.428 . S
C823 O826 1.301 . S
C823 O827 1.282 . S
O824 U806 2.441 . S
O824 C810 1.249 . S
O825 U806 2.420 . S
O825 C810 1.202 . S
O826 U806 2.455 . S
O826 C823 1.301 . S
O827 U806 2.449 . S
O827 C823 1.282 . S
H828 C801 0.931 . S
H829 C803 0.929 . S
H830 C804 0.930 . S
H831 C805 0.931 . S
H832 C812 0.932 . S
H833 C813 0.930 . S
H834 C814 0.929 . S
H835 C816 0.930 . S
H836 C818 0.932 . S
H837 C819 0.929 . S
H838 C820 0.928 . S
H839 C822 0.932 . S
C840 C841 1.264 . S
C840 C845 1.479 . S
C840 C850 1.465 . S
C841 C840 1.264 . S
C841 C843 1.339 . S
C841 H868 0.931 . S
C842 C843 1.395 . S
C842 C844 1.320 . S
C843 C841 1.339 . S
C843 C842 1.395 . S
C843 H869 0.929 . S
C844 C842 1.320 . S
C844 C845 1.405 . S
C844 H870 0.930 . S
C845 C840 1.479 . S
C845 C844 1.405 . S
C845 H871 0.931 . S
U846 O847 2.454 . S
U846 O848 2.458 . S
U846 C849 2.984 . S
U846 C850 2.847 . S
U846 C863 2.882 . S
U846 O864 2.441 . S
U846 O865 2.420 . S
U846 O866 2.455 . S
U846 O867 2.449 . S
O847 U846 2.454 . S
O847 C849 1.353 . S
O848 U846 2.458 . S
O848 C849 1.286 . S
C849 U846 2.984 . S
C849 O847 1.353 . S
C849 O848 1.286 . S
C849 C851 1.363 . S
C850 C840 1.465 . S
C850 U846 2.847 . S
C850 O864 1.249 . S
C850 O865 1.202 . S
C851 C849 1.363 . S
C851 C853 1.408 . S
C851 C856 1.342 . S
C852 C853 1.310 . S
C852 C855 1.461 . S
C852 H872 0.932 . S
C853 C851 1.408 . S
C853 C852 1.310 . S
C853 H873 0.930 . S
C854 C855 1.474 . S
C854 C856 1.285 . S
C854 H874 0.929 . S
C855 C852 1.461 . S
C855 C854 1.474 . S
C856 C851 1.342 . S
C856 C854 1.285 . S
C856 H875 0.930 . S
C857 C860 1.409 1_554 S
C857 C862 1.245 . S
C857 C863 1.428 . S
C858 C861 1.260 . S
C858 C862 1.477 1_556 S
C858 H876 0.932 . S
C859 C860 1.406 . S
C859 C861 1.479 . S
C859 H877 0.929 . S
C860 C857 1.409 1_556 S
C860 C859 1.406 . S
C860 H878 0.921 1_556 S
C861 C858 1.260 . S
C861 C859 1.479 . S
C862 C857 1.245 . S
C862 C858 1.477 1_554 S
C862 H879 0.932 . S
C863 U846 2.882 . S
C863 C857 1.428 . S
C863 O866 1.301 . S
C863 O867 1.282 . S
O864 U846 2.441 . S
O864 C850 1.249 . S
O865 U846 2.420 . S
O865 C850 1.202 . S
O866 U846 2.455 . S
O866 C863 1.301 . S
O867 U846 2.449 . S
O867 C863 1.282 . S
H868 C841 0.931 . S
H869 C843 0.929 . S
H870 C844 0.930 . S
H871 C845 0.931 . S
H872 C852 0.932 . S
H873 C853 0.930 . S
H874 C854 0.929 . S
H875 C856 0.930 . S
H876 C858 0.932 . S
H877 C859 0.929 . S
H878 C860 0.921 1_554 S
H879 C862 0.932 . S
C880 C881 1.264 . S
C880 C885 1.479 . S
C880 C890 1.465 . S
C881 C880 1.264 . S
C881 C883 1.339 . S
C881 H908 0.931 . S
C882 C883 1.395 . S
C882 C884 1.320 . S
C883 C881 1.339 . S
C883 C882 1.395 . S
C883 H909 0.929 . S
C884 C882 1.320 . S
C884 C885 1.405 . S
C884 H910 0.930 . S
C885 C880 1.479 . S
C885 C884 1.405 . S
C885 H911 0.931 . S
U886 O887 2.454 . S
U886 O888 2.458 . S
U886 C889 2.984 . S
U886 C890 2.847 . S
U886 C903 2.882 . S
U886 O904 2.441 . S
U886 O905 2.420 . S
U886 O906 2.455 . S
U886 O907 2.449 . S
O887 U886 2.454 . S
O887 C889 1.353 . S
O888 U886 2.458 . S
O888 C889 1.286 . S
C889 U886 2.984 . S
C889 O887 1.353 . S
C889 O888 1.286 . S
C889 C891 1.363 . S
C890 C880 1.465 . S
C890 U886 2.847 . S
C890 O904 1.249 . S
C890 O905 1.202 . S
C891 C889 1.363 . S
C891 C893 1.408 . S
C891 C896 1.342 . S
C892 C893 1.310 . S
C892 C895 1.461 . S
C892 H912 0.932 . S
C893 C891 1.408 . S
C893 C892 1.310 . S
C893 H913 0.930 . S
C894 C895 1.474 . S
C894 C896 1.285 . S
C894 H914 0.929 . S
C895 C892 1.461 . S
C895 C894 1.474 . S
C896 C891 1.342 . S
C896 C894 1.285 . S
C896 H915 0.930 . S
C897 C900 1.409 1_554 S
C897 C902 1.245 . S
C897 C903 1.428 . S
C898 C901 1.260 . S
C898 C902 1.477 1_556 S
C898 H916 0.932 . S
C899 C900 1.406 . S
C899 C901 1.479 . S
C899 H917 0.929 . S
C900 C897 1.409 1_556 S
C900 C899 1.406 . S
C900 H918 0.921 1_556 S
C901 C898 1.260 . S
C901 C899 1.479 . S
C902 C897 1.245 . S
C902 C898 1.477 1_554 S
C902 H919 0.932 . S
C903 U886 2.882 . S
C903 C897 1.428 . S
C903 O906 1.301 . S
C903 O907 1.282 . S
O904 U886 2.441 . S
O904 C890 1.249 . S
O905 U886 2.420 . S
O905 C890 1.202 . S
O906 U886 2.455 . S
O906 C903 1.301 . S
O907 U886 2.449 . S
O907 C903 1.282 . S
H908 C881 0.931 . S
H909 C883 0.929 . S
H910 C884 0.930 . S
H911 C885 0.931 . S
H912 C892 0.932 . S
H913 C893 0.930 . S
H914 C894 0.929 . S
H915 C896 0.930 . S
H916 C898 0.932 . S
H917 C899 0.929 . S
H918 C900 0.921 1_554 S
H919 C902 0.932 . S
C920 C921 1.264 . S
C920 C925 1.479 . S
C920 C930 1.465 . S
C921 C920 1.264 . S
C921 C923 1.339 . S
C921 H948 0.931 . S
C922 C923 1.395 . S
C922 C924 1.320 . S
C923 C921 1.339 . S
C923 C922 1.395 . S
C923 H949 0.929 . S
C924 C922 1.320 . S
C924 C925 1.405 . S
C924 H950 0.930 . S
C925 C920 1.479 . S
C925 C924 1.405 . S
C925 H951 0.931 . S
U926 O927 2.454 . S
U926 O928 2.458 . S
U926 C929 2.984 . S
U926 C930 2.847 . S
U926 C943 2.882 . S
U926 O944 2.441 . S
U926 O945 2.420 . S
U926 O946 2.455 . S
U926 O947 2.449 . S
O927 U926 2.454 . S
O927 C929 1.353 . S
O928 U926 2.458 . S
O928 C929 1.286 . S
C929 U926 2.984 . S
C929 O927 1.353 . S
C929 O928 1.286 . S
C929 C931 1.363 . S
C930 C920 1.465 . S
C930 U926 2.847 . S
C930 O944 1.249 . S
C930 O945 1.202 . S
C931 C929 1.363 . S
C931 C933 1.408 . S
C931 C936 1.342 . S
C932 C933 1.310 . S
C932 C935 1.461 . S
C932 H952 0.932 . S
C933 C931 1.408 . S
C933 C932 1.310 . S
C933 H953 0.930 . S
C934 C935 1.474 . S
C934 C936 1.285 . S
C934 H954 0.929 . S
C935 C932 1.461 . S
C935 C934 1.474 . S
C936 C931 1.342 . S
C936 C934 1.285 . S
C936 H955 0.930 . S
C937 C940 1.409 1_554 S
C937 C942 1.245 . S
C937 C943 1.428 . S
C938 C941 1.260 . S
C938 C942 1.477 1_556 S
C938 H956 0.932 . S
C939 C940 1.406 . S
C939 C941 1.479 . S
C939 H957 0.929 . S
C940 C937 1.409 1_556 S
C940 C939 1.406 . S
C940 H958 0.921 1_556 S
C941 C938 1.260 . S
C941 C939 1.479 . S
C942 C937 1.245 . S
C942 C938 1.477 1_554 S
C942 H959 0.932 . S
C943 U926 2.882 . S
C943 C937 1.428 . S
C943 O946 1.301 . S
C943 O947 1.282 . S
O944 U926 2.441 . S
O944 C930 1.249 . S
O945 U926 2.420 . S
O945 C930 1.202 . S
O946 U926 2.455 . S
O946 C943 1.301 . S
O947 U926 2.449 . S
O947 C943 1.282 . S
H948 C921 0.931 . S
H949 C923 0.929 . S
H950 C924 0.930 . S
H951 C925 0.931 . S
H952 C932 0.932 . S
H953 C933 0.930 . S
H954 C934 0.929 . S
H955 C936 0.930 . S
H956 C938 0.932 . S
H957 C939 0.929 . S
H958 C940 0.921 1_554 S
H959 C942 0.932 . S
C960 C961 1.264 . S
C960 C965 1.479 . S
C960 C970 1.465 . S
C961 C960 1.264 . S
C961 C963 1.339 . S
C961 H988 0.931 . S
C962 C963 1.395 . S
C962 C964 1.320 . S
C963 C961 1.339 . S
C963 C962 1.395 . S
C963 H989 0.929 . S
C964 C962 1.320 . S
C964 C965 1.405 . S
C964 H990 0.930 . S
C965 C960 1.479 . S
C965 C964 1.405 . S
C965 H991 0.931 . S
U966 O967 2.454 . S
U966 O968 2.458 . S
U966 C969 2.984 . S
U966 C970 2.847 . S
U966 C983 2.882 . S
U966 O984 2.441 . S
U966 O985 2.420 . S
U966 O986 2.455 . S
U966 O987 2.449 . S
O967 U966 2.454 . S
O967 C969 1.353 . S
O968 U966 2.458 . S
O968 C969 1.286 . S
C969 U966 2.984 . S
C969 O967 1.353 . S
C969 O968 1.286 . S
C969 C971 1.363 . S
C970 C960 1.465 . S
C970 U966 2.847 . S
C970 O984 1.249 . S
C970 O985 1.202 . S
C971 C969 1.363 . S
C971 C973 1.408 . S
C971 C976 1.342 . S
C972 C973 1.310 . S
C972 C975 1.461 . S
C972 H992 0.932 . S
C973 C971 1.408 . S
C973 C972 1.310 . S
C973 H993 0.930 . S
C974 C975 1.474 . S
C974 C976 1.285 . S
C974 H994 0.929 . S
C975 C972 1.461 . S
C975 C974 1.474 . S
C976 C971 1.342 . S
C976 C974 1.285 . S
C976 H995 0.930 . S
C977 C980 1.424 . S
C977 C982 1.245 . S
C977 C983 1.428 . S
C978 C981 1.260 . S
C978 C982 1.477 . S
C978 H996 0.932 . S
C979 C980 1.384 . S
C979 C981 1.479 . S
C979 H997 0.929 . S
C980 C977 1.424 . S
C980 C979 1.384 . S
C980 H998 0.928 . S
C981 C978 1.260 . S
C981 C979 1.479 . S
C982 C977 1.245 . S
C982 C978 1.477 . S
C982 H999 0.932 . S
C983 U966 2.882 . S
C983 C977 1.428 . S
C983 O986 1.301 . S
C983 O987 1.282 . S
O984 U966 2.441 . S
O984 C970 1.249 . S
O985 U966 2.420 . S
O985 C970 1.202 . S
O986 U966 2.455 . S
O986 C983 1.301 . S
O987 U966 2.449 . S
O987 C983 1.282 . S
H988 C961 0.931 . S
H989 C963 0.929 . S
H990 C964 0.930 . S
H991 C965 0.931 . S
H992 C972 0.932 . S
H993 C973 0.930 . S
H994 C974 0.929 . S
H995 C976 0.930 . S
H996 C978 0.932 . S
H997 C979 0.929 . S
H998 C980 0.928 . S
H999 C982 0.932 . S
C1000 C1001 1.264 . S
C1000 C1005 1.479 . S
C1000 C1010 1.465 . S
C1001 C1000 1.264 . S
C1001 C1003 1.339 . S
C1001 H1028 0.931 . S
C1002 C1003 1.395 . S
C1002 C1004 1.320 . S
C1003 C1001 1.339 . S
C1003 C1002 1.395 . S
C1003 H1029 0.929 . S
C1004 C1002 1.320 . S
C1004 C1005 1.405 . S
C1004 H1030 0.930 . S
C1005 C1000 1.479 . S
C1005 C1004 1.405 . S
C1005 H1031 0.931 . S
U1006 O1007 2.454 . S
U1006 O1008 2.458 . S
U1006 C1009 2.984 . S
U1006 C1010 2.847 . S
U1006 C1023 2.882 . S
U1006 O1024 2.441 . S
U1006 O1025 2.420 . S
U1006 O1026 2.455 . S
U1006 O1027 2.449 . S
O1007 U1006 2.454 . S
O1007 C1009 1.353 . S
O1008 U1006 2.458 . S
O1008 C1009 1.286 . S
C1009 U1006 2.984 . S
C1009 O1007 1.353 . S
C1009 O1008 1.286 . S
C1009 C1011 1.363 . S
C1010 C1000 1.465 . S
C1010 U1006 2.847 . S
C1010 O1024 1.249 . S
C1010 O1025 1.202 . S
C1011 C1009 1.363 . S
C1011 C1013 1.408 . S
C1011 C1016 1.342 . S
C1012 C1013 1.310 . S
C1012 C1015 1.461 . S
C1012 H1032 0.932 . S
C1013 C1011 1.408 . S
C1013 C1012 1.310 . S
C1013 H1033 0.930 . S
C1014 C1015 1.474 . S
C1014 C1016 1.285 . S
C1014 H1034 0.929 . S
C1015 C1012 1.461 . S
C1015 C1014 1.474 . S
C1016 C1011 1.342 . S
C1016 C1014 1.285 . S
C1016 H1035 0.930 . S
C1017 C1020 1.424 . S
C1017 C1022 1.245 . S
C1017 C1023 1.428 . S
C1018 C1021 1.260 . S
C1018 C1022 1.477 . S
C1018 H1036 0.932 . S
C1019 C1020 1.384 . S
C1019 C1021 1.479 . S
C1019 H1037 0.929 . S
C1020 C1017 1.424 . S
C1020 C1019 1.384 . S
C1020 H1038 0.928 . S
C1021 C1018 1.260 . S
C1021 C1019 1.479 . S
C1022 C1017 1.245 . S
C1022 C1018 1.477 . S
C1022 H1039 0.932 . S
C1023 U1006 2.882 . S
C1023 C1017 1.428 . S
C1023 O1026 1.301 . S
C1023 O1027 1.282 . S
O1024 U1006 2.441 . S
O1024 C1010 1.249 . S
O1025 U1006 2.420 . S
O1025 C1010 1.202 . S
O1026 U1006 2.455 . S
O1026 C1023 1.301 . S
O1027 U1006 2.449 . S
O1027 C1023 1.282 . S
H1028 C1001 0.931 . S
H1029 C1003 0.929 . S
H1030 C1004 0.930 . S
H1031 C1005 0.931 . S
H1032 C1012 0.932 . S
H1033 C1013 0.930 . S
H1034 C1014 0.929 . S
H1035 C1016 0.930 . S
H1036 C1018 0.932 . S
H1037 C1019 0.929 . S
H1038 C1020 0.928 . S
H1039 C1022 0.932 . S
C1040 C1041 1.264 . S
C1040 C1045 1.479 . S
C1040 C1050 1.465 . S
C1041 C1040 1.264 . S
C1041 C1043 1.339 . S
C1041 H1068 0.931 . S
C1042 C1043 1.395 . S
C1042 C1044 1.320 . S
C1043 C1041 1.339 . S
C1043 C1042 1.395 . S
C1043 H1069 0.929 . S
C1044 C1042 1.320 . S
C1044 C1045 1.405 . S
C1044 H1070 0.930 . S
C1045 C1040 1.479 . S
C1045 C1044 1.405 . S
C1045 H1071 0.931 . S
U1046 O1047 2.454 . S
U1046 O1048 2.458 . S
U1046 C1049 2.984 . S
U1046 C1050 2.847 . S
U1046 C1063 2.882 . S
U1046 O1064 2.441 . S
U1046 O1065 2.420 . S
U1046 O1066 2.455 . S
U1046 O1067 2.449 . S
O1047 U1046 2.454 . S
O1047 C1049 1.353 . S
O1048 U1046 2.458 . S
O1048 C1049 1.286 . S
C1049 U1046 2.984 . S
C1049 O1047 1.353 . S
C1049 O1048 1.286 . S
C1049 C1051 1.363 . S
C1050 C1040 1.465 . S
C1050 U1046 2.847 . S
C1050 O1064 1.249 . S
C1050 O1065 1.202 . S
C1051 C1049 1.363 . S
C1051 C1053 1.408 . S
C1051 C1056 1.342 . S
C1052 C1053 1.310 . S
C1052 C1055 1.461 . S
C1052 H1072 0.932 . S
C1053 C1051 1.408 . S
C1053 C1052 1.310 . S
C1053 H1073 0.930 . S
C1054 C1055 1.474 . S
C1054 C1056 1.285 . S
C1054 H1074 0.929 . S
C1055 C1052 1.461 . S
C1055 C1054 1.474 . S
C1056 C1051 1.342 . S
C1056 C1054 1.285 . S
C1056 H1075 0.930 . S
C1057 C1060 1.424 . S
C1057 C1062 1.245 . S
C1057 C1063 1.428 . S
C1058 C1061 1.260 . S
C1058 C1062 1.477 . S
C1058 H1076 0.932 . S
C1059 C1060 1.384 . S
C1059 C1061 1.479 . S
C1059 H1077 0.929 . S
C1060 C1057 1.424 . S
C1060 C1059 1.384 . S
C1060 H1078 0.928 . S
C1061 C1058 1.260 . S
C1061 C1059 1.479 . S
C1062 C1057 1.245 . S
C1062 C1058 1.477 . S
C1062 H1079 0.932 . S
C1063 U1046 2.882 . S
C1063 C1057 1.428 . S
C1063 O1066 1.301 . S
C1063 O1067 1.282 . S
O1064 U1046 2.441 . S
O1064 C1050 1.249 . S
O1065 U1046 2.420 . S
O1065 C1050 1.202 . S
O1066 U1046 2.455 . S
O1066 C1063 1.301 . S
O1067 U1046 2.449 . S
O1067 C1063 1.282 . S
H1068 C1041 0.931 . S
H1069 C1043 0.929 . S
H1070 C1044 0.930 . S
H1071 C1045 0.931 . S
H1072 C1052 0.932 . S
H1073 C1053 0.930 . S
H1074 C1054 0.929 . S
H1075 C1056 0.930 . S
H1076 C1058 0.932 . S
H1077 C1059 0.929 . S
H1078 C1060 0.928 . S
H1079 C1062 0.932 . S
C1080 C1081 1.264 . S
C1080 C1085 1.479 . S
C1080 C1090 1.465 . S
C1081 C1080 1.264 . S
C1081 C1083 1.339 . S
C1081 H1108 0.931 . S
C1082 C1083 1.395 . S
C1082 C1084 1.320 . S
C1083 C1081 1.339 . S
C1083 C1082 1.395 . S
C1083 H1109 0.929 . S
C1084 C1082 1.320 . S
C1084 C1085 1.405 . S
C1084 H1110 0.930 . S
C1085 C1080 1.479 . S
C1085 C1084 1.405 . S
C1085 H1111 0.931 . S
U1086 O1087 2.454 . S
U1086 O1088 2.458 . S
U1086 C1089 2.984 . S
U1086 C1090 2.847 . S
U1086 C1103 2.882 . S
U1086 O1104 2.441 . S
U1086 O1105 2.420 . S
U1086 O1106 2.455 . S
U1086 O1107 2.449 . S
O1087 U1086 2.454 . S
O1087 C1089 1.353 . S
O1088 U1086 2.458 . S
O1088 C1089 1.286 . S
C1089 U1086 2.984 . S
C1089 O1087 1.353 . S
C1089 O1088 1.286 . S
C1089 C1091 1.363 . S
C1090 C1080 1.465 . S
C1090 U1086 2.847 . S
C1090 O1104 1.249 . S
C1090 O1105 1.202 . S
C1091 C1089 1.363 . S
C1091 C1093 1.408 . S
C1091 C1096 1.342 . S
C1092 C1093 1.310 . S
C1092 C1095 1.461 . S
C1092 H1112 0.932 . S
C1093 C1091 1.408 . S
C1093 C1092 1.310 . S
C1093 H1113 0.930 . S
C1094 C1095 1.474 . S
C1094 C1096 1.285 . S
C1094 H1114 0.929 . S
C1095 C1092 1.461 . S
C1095 C1094 1.474 . S
C1096 C1091 1.342 . S
C1096 C1094 1.285 . S
C1096 H1115 0.930 . S
C1097 C1100 1.424 . S
C1097 C1102 1.245 . S
C1097 C1103 1.428 . S
C1098 C1101 1.260 . S
C1098 C1102 1.477 1_554 S
C1098 H1116 0.932 . S
C1099 C1100 1.384 1_554 S
C1099 C1101 1.479 . S
C1099 H1117 0.929 . S
C1100 C1097 1.424 . S
C1100 C1099 1.384 1_556 S
C1100 H1118 0.928 . S
C1101 C1098 1.260 . S
C1101 C1099 1.479 . S
C1102 C1097 1.245 . S
C1102 C1098 1.477 1_556 S
C1102 H1119 0.932 . S
C1103 U1086 2.882 . S
C1103 C1097 1.428 . S
C1103 O1106 1.301 . S
C1103 O1107 1.282 . S
O1104 U1086 2.441 . S
O1104 C1090 1.249 . S
O1105 U1086 2.420 . S
O1105 C1090 1.202 . S
O1106 U1086 2.455 . S
O1106 C1103 1.301 . S
O1107 U1086 2.449 . S
O1107 C1103 1.282 . S
H1108 C1081 0.931 . S
H1109 C1083 0.929 . S
H1110 C1084 0.930 . S
H1111 C1085 0.931 . S
H1112 C1092 0.932 . S
H1113 C1093 0.930 . S
H1114 C1094 0.929 . S
H1115 C1096 0.930 . S
H1116 C1098 0.932 . S
H1117 C1099 0.929 . S
H1118 C1100 0.928 . S
H1119 C1102 0.932 . S
C1120 C1121 1.264 . S
C1120 C1125 1.479 . S
C1120 C1130 1.465 . S
C1121 C1120 1.264 . S
C1121 C1123 1.339 . S
C1121 H1148 0.931 . S
C1122 C1123 1.395 . S
C1122 C1124 1.320 . S
C1123 C1121 1.339 . S
C1123 C1122 1.395 . S
C1123 H1149 0.929 . S
C1124 C1122 1.320 . S
C1124 C1125 1.405 . S
C1124 H1150 0.930 . S
C1125 C1120 1.479 . S
C1125 C1124 1.405 . S
C1125 H1151 0.931 . S
U1126 O1127 2.454 . S
U1126 O1128 2.458 . S
U1126 C1129 2.984 . S
U1126 C1130 2.847 . S
U1126 C1143 2.882 . S
U1126 O1144 2.441 . S
U1126 O1145 2.420 . S
U1126 O1146 2.455 . S
U1126 O1147 2.449 . S
O1127 U1126 2.454 . S
O1127 C1129 1.353 . S
O1128 U1126 2.458 . S
O1128 C1129 1.286 . S
C1129 U1126 2.984 . S
C1129 O1127 1.353 . S
C1129 O1128 1.286 . S
C1129 C1131 1.363 . S
C1130 C1120 1.465 . S
C1130 U1126 2.847 . S
C1130 O1144 1.249 . S
C1130 O1145 1.202 . S
C1131 C1129 1.363 . S
C1131 C1133 1.408 . S
C1131 C1136 1.342 . S
C1132 C1133 1.310 . S
C1132 C1135 1.461 . S
C1132 H1152 0.932 . S
C1133 C1131 1.408 . S
C1133 C1132 1.310 . S
C1133 H1153 0.930 . S
C1134 C1135 1.474 . S
C1134 C1136 1.285 . S
C1134 H1154 0.929 . S
C1135 C1132 1.461 . S
C1135 C1134 1.474 . S
C1136 C1131 1.342 . S
C1136 C1134 1.285 . S
C1136 H1155 0.930 . S
C1137 C1140 1.424 . S
C1137 C1142 1.245 . S
C1137 C1143 1.428 . S
C1138 C1141 1.260 . S
C1138 C1142 1.477 1_554 S
C1138 H1156 0.932 . S
C1139 C1140 1.384 1_554 S
C1139 C1141 1.479 . S
C1139 H1157 0.929 . S
C1140 C1137 1.424 . S
C1140 C1139 1.384 1_556 S
C1140 H1158 0.928 . S
C1141 C1138 1.260 . S
C1141 C1139 1.479 . S
C1142 C1137 1.245 . S
C1142 C1138 1.477 1_556 S
C1142 H1159 0.932 . S
C1143 U1126 2.882 . S
C1143 C1137 1.428 . S
C1143 O1146 1.301 . S
C1143 O1147 1.282 . S
O1144 U1126 2.441 . S
O1144 C1130 1.249 . S
O1145 U1126 2.420 . S
O1145 C1130 1.202 . S
O1146 U1126 2.455 . S
O1146 C1143 1.301 . S
O1147 U1126 2.449 . S
O1147 C1143 1.282 . S
H1148 C1121 0.931 . S
H1149 C1123 0.929 . S
H1150 C1124 0.930 . S
H1151 C1125 0.931 . S
H1152 C1132 0.932 . S
H1153 C1133 0.930 . S
H1154 C1134 0.929 . S
H1155 C1136 0.930 . S
H1156 C1138 0.932 . S
H1157 C1139 0.929 . S
H1158 C1140 0.928 . S
H1159 C1142 0.932 . S
C1160 C1161 1.264 . S
C1160 C1165 1.479 . S
C1160 C1170 1.465 . S
C1161 C1160 1.264 . S
C1161 C1163 1.339 . S
C1161 H1188 0.931 . S
C1162 C1163 1.395 . S
C1162 C1164 1.320 . S
C1163 C1161 1.339 . S
C1163 C1162 1.395 . S
C1163 H1189 0.929 . S
C1164 C1162 1.320 . S
C1164 C1165 1.405 . S
C1164 H1190 0.930 . S
C1165 C1160 1.479 . S
C1165 C1164 1.405 . S
C1165 H1191 0.931 . S
U1166 O1167 2.454 . S
U1166 O1168 2.458 . S
U1166 C1169 2.984 . S
U1166 C1170 2.847 . S
U1166 C1183 2.882 . S
U1166 O1184 2.441 . S
U1166 O1185 2.420 . S
U1166 O1186 2.455 . S
U1166 O1187 2.449 . S
O1167 U1166 2.454 . S
O1167 C1169 1.353 . S
O1168 U1166 2.458 . S
O1168 C1169 1.286 . S
C1169 U1166 2.984 . S
C1169 O1167 1.353 . S
C1169 O1168 1.286 . S
C1169 C1171 1.363 . S
C1170 C1160 1.465 . S
C1170 U1166 2.847 . S
C1170 O1184 1.249 . S
C1170 O1185 1.202 . S
C1171 C1169 1.363 . S
C1171 C1173 1.408 . S
C1171 C1176 1.342 . S
C1172 C1173 1.310 . S
C1172 C1175 1.461 . S
C1172 H1192 0.932 . S
C1173 C1171 1.408 . S
C1173 C1172 1.310 . S
C1173 H1193 0.930 . S
C1174 C1175 1.474 . S
C1174 C1176 1.285 . S
C1174 H1194 0.929 . S
C1175 C1172 1.461 . S
C1175 C1174 1.474 . S
C1176 C1171 1.342 . S
C1176 C1174 1.285 . S
C1176 H1195 0.930 . S
C1177 C1180 1.424 . S
C1177 C1182 1.245 . S
C1177 C1183 1.428 . S
C1178 C1181 1.260 . S
C1178 C1182 1.477 1_554 S
C1178 H1196 0.932 . S
C1179 C1180 1.384 1_554 S
C1179 C1181 1.479 . S
C1179 H1197 0.929 . S
C1180 C1177 1.424 . S
C1180 C1179 1.384 1_556 S
C1180 H1198 0.928 . S
C1181 C1178 1.260 . S
C1181 C1179 1.479 . S
C1182 C1177 1.245 . S
C1182 C1178 1.477 1_556 S
C1182 H1199 0.932 . S
C1183 U1166 2.882 . S
C1183 C1177 1.428 . S
C1183 O1186 1.301 . S
C1183 O1187 1.282 . S
O1184 U1166 2.441 . S
O1184 C1170 1.249 . S
O1185 U1166 2.420 . S
O1185 C1170 1.202 . S
O1186 U1166 2.455 . S
O1186 C1183 1.301 . S
O1187 U1166 2.449 . S
O1187 C1183 1.282 . S
H1188 C1161 0.931 . S
H1189 C1163 0.929 . S
H1190 C1164 0.930 . S
H1191 C1165 0.931 . S
H1192 C1172 0.932 . S
H1193 C1173 0.930 . S
H1194 C1174 0.929 . S
H1195 C1176 0.930 . S
H1196 C1178 0.932 . S
H1197 C1179 0.929 . S
H1198 C1180 0.928 . S
H1199 C1182 0.932 . S
C1200 C1201 1.264 . S
C1200 C1205 1.479 . S
C1200 C1210 1.465 . S
C1201 C1200 1.264 . S
C1201 C1203 1.339 . S
C1201 H1228 0.931 . S
C1202 C1203 1.395 . S
C1202 C1204 1.320 . S
C1203 C1201 1.339 . S
C1203 C1202 1.395 . S
C1203 H1229 0.929 . S
C1204 C1202 1.320 . S
C1204 C1205 1.405 . S
C1204 H1230 0.930 . S
C1205 C1200 1.479 . S
C1205 C1204 1.405 . S
C1205 H1231 0.931 . S
U1206 O1207 2.454 . S
U1206 O1208 2.458 . S
U1206 C1209 2.984 . S
U1206 C1210 2.847 . S
U1206 C1223 2.882 . S
U1206 O1224 2.441 . S
U1206 O1225 2.420 . S
U1206 O1226 2.455 . S
U1206 O1227 2.449 . S
O1207 U1206 2.454 . S
O1207 C1209 1.353 . S
O1208 U1206 2.458 . S
O1208 C1209 1.286 . S
C1209 U1206 2.984 . S
C1209 O1207 1.353 . S
C1209 O1208 1.286 . S
C1209 C1211 1.363 . S
C1210 C1200 1.465 . S
C1210 U1206 2.847 . S
C1210 O1224 1.249 . S
C1210 O1225 1.202 . S
C1211 C1209 1.363 . S
C1211 C1213 1.408 . S
C1211 C1216 1.342 . S
C1212 C1213 1.310 . S
C1212 C1215 1.461 . S
C1212 H1232 0.932 . S
C1213 C1211 1.408 . S
C1213 C1212 1.310 . S
C1213 H1233 0.930 . S
C1214 C1215 1.474 . S
C1214 C1216 1.285 . S
C1214 H1234 0.929 . S
C1215 C1212 1.461 . S
C1215 C1214 1.474 . S
C1216 C1211 1.342 . S
C1216 C1214 1.285 . S
C1216 H1235 0.930 . S
C1217 C1220 1.424 . S
C1217 C1222 1.245 . S
C1217 C1223 1.428 . S
C1218 C1221 1.260 . S
C1218 C1222 1.477 . S
C1218 H1236 0.932 . S
C1219 C1220 1.384 . S
C1219 C1221 1.479 . S
C1219 H1237 0.929 . S
C1220 C1217 1.424 . S
C1220 C1219 1.384 . S
C1220 H1238 0.928 . S
C1221 C1218 1.260 . S
C1221 C1219 1.479 . S
C1222 C1217 1.245 . S
C1222 C1218 1.477 . S
C1222 H1239 0.932 . S
C1223 U1206 2.882 . S
C1223 C1217 1.428 . S
C1223 O1226 1.301 . S
C1223 O1227 1.282 . S
O1224 U1206 2.441 . S
O1224 C1210 1.249 . S
O1225 U1206 2.420 . S
O1225 C1210 1.202 . S
O1226 U1206 2.455 . S
O1226 C1223 1.301 . S
O1227 U1206 2.449 . S
O1227 C1223 1.282 . S
H1228 C1201 0.931 . S
H1229 C1203 0.929 . S
H1230 C1204 0.930 . S
H1231 C1205 0.931 . S
H1232 C1212 0.932 . S
H1233 C1213 0.930 . S
H1234 C1214 0.929 . S
H1235 C1216 0.930 . S
H1236 C1218 0.932 . S
H1237 C1219 0.929 . S
H1238 C1220 0.928 . S
H1239 C1222 0.932 . S
C1240 C1241 1.264 . S
C1240 C1245 1.479 . S
C1240 C1250 1.465 . S
C1241 C1240 1.264 . S
C1241 C1243 1.339 . S
C1241 H1268 0.931 . S
C1242 C1243 1.395 . S
C1242 C1244 1.320 . S
C1243 C1241 1.339 . S
C1243 C1242 1.395 . S
C1243 H1269 0.929 . S
C1244 C1242 1.320 . S
C1244 C1245 1.405 . S
C1244 H1270 0.930 . S
C1245 C1240 1.479 . S
C1245 C1244 1.405 . S
C1245 H1271 0.931 . S
U1246 O1247 2.454 . S
U1246 O1248 2.458 . S
U1246 C1249 2.984 . S
U1246 C1250 2.847 . S
U1246 C1263 2.882 . S
U1246 O1264 2.441 . S
U1246 O1265 2.420 . S
U1246 O1266 2.455 . S
U1246 O1267 2.449 . S
O1247 U1246 2.454 . S
O1247 C1249 1.353 . S
O1248 U1246 2.458 . S
O1248 C1249 1.286 . S
C1249 U1246 2.984 . S
C1249 O1247 1.353 . S
C1249 O1248 1.286 . S
C1249 C1251 1.363 . S
C1250 C1240 1.465 . S
C1250 U1246 2.847 . S
C1250 O1264 1.249 . S
C1250 O1265 1.202 . S
C1251 C1249 1.363 . S
C1251 C1253 1.408 . S
C1251 C1256 1.342 . S
C1252 C1253 1.310 . S
C1252 C1255 1.461 . S
C1252 H1272 0.932 . S
C1253 C1251 1.408 . S
C1253 C1252 1.310 . S
C1253 H1273 0.930 . S
C1254 C1255 1.474 . S
C1254 C1256 1.285 . S
C1254 H1274 0.929 . S
C1255 C1252 1.461 . S
C1255 C1254 1.474 . S
C1256 C1251 1.342 . S
C1256 C1254 1.285 . S
C1256 H1275 0.930 . S
C1257 C1260 1.424 . S
C1257 C1262 1.245 . S
C1257 C1263 1.428 . S
C1258 C1261 1.260 . S
C1258 C1262 1.477 . S
C1258 H1276 0.932 . S
C1259 C1260 1.384 . S
C1259 C1261 1.479 . S
C1259 H1277 0.929 . S
C1260 C1257 1.424 . S
C1260 C1259 1.384 . S
C1260 H1278 0.928 . S
C1261 C1258 1.260 . S
C1261 C1259 1.479 . S
C1262 C1257 1.245 . S
C1262 C1258 1.477 . S
C1262 H1279 0.932 . S
C1263 U1246 2.882 . S
C1263 C1257 1.428 . S
C1263 O1266 1.301 . S
C1263 O1267 1.282 . S
O1264 U1246 2.441 . S
O1264 C1250 1.249 . S
O1265 U1246 2.420 . S
O1265 C1250 1.202 . S
O1266 U1246 2.455 . S
O1266 C1263 1.301 . S
O1267 U1246 2.449 . S
O1267 C1263 1.282 . S
H1268 C1241 0.931 . S
H1269 C1243 0.929 . S
H1270 C1244 0.930 . S
H1271 C1245 0.931 . S
H1272 C1252 0.932 . S
H1273 C1253 0.930 . S
H1274 C1254 0.929 . S
H1275 C1256 0.930 . S
H1276 C1258 0.932 . S
H1277 C1259 0.929 . S
H1278 C1260 0.928 . S
H1279 C1262 0.932 . S
C1280 C1281 1.264 . S
C1280 C1285 1.479 . S
C1280 C1290 1.465 . S
C1281 C1280 1.264 . S
C1281 C1283 1.339 . S
C1281 H1308 0.931 . S
C1282 C1283 1.395 . S
C1282 C1284 1.320 . S
C1283 C1281 1.339 . S
C1283 C1282 1.395 . S
C1283 H1309 0.929 . S
C1284 C1282 1.320 . S
C1284 C1285 1.405 . S
C1284 H1310 0.930 . S
C1285 C1280 1.479 . S
C1285 C1284 1.405 . S
C1285 H1311 0.931 . S
U1286 O1287 2.454 . S
U1286 O1288 2.458 . S
U1286 C1289 2.984 . S
U1286 C1290 2.847 . S
U1286 C1303 2.882 . S
U1286 O1304 2.441 . S
U1286 O1305 2.420 . S
U1286 O1306 2.455 . S
U1286 O1307 2.449 . S
O1287 U1286 2.454 . S
O1287 C1289 1.353 . S
O1288 U1286 2.458 . S
O1288 C1289 1.286 . S
C1289 U1286 2.984 . S
C1289 O1287 1.353 . S
C1289 O1288 1.286 . S
C1289 C1291 1.363 . S
C1290 C1280 1.465 . S
C1290 U1286 2.847 . S
C1290 O1304 1.249 . S
C1290 O1305 1.202 . S
C1291 C1289 1.363 . S
C1291 C1293 1.408 . S
C1291 C1296 1.342 . S
C1292 C1293 1.310 . S
C1292 C1295 1.461 . S
C1292 H1312 0.932 . S
C1293 C1291 1.408 . S
C1293 C1292 1.310 . S
C1293 H1313 0.930 . S
C1294 C1295 1.474 . S
C1294 C1296 1.285 . S
C1294 H1314 0.929 . S
C1295 C1292 1.461 . S
C1295 C1294 1.474 . S
C1296 C1291 1.342 . S
C1296 C1294 1.285 . S
C1296 H1315 0.930 . S
C1297 C1300 1.424 . S
C1297 C1302 1.245 . S
C1297 C1303 1.428 . S
C1298 C1301 1.260 . S
C1298 C1302 1.477 . S
C1298 H1316 0.932 . S
C1299 C1300 1.384 . S
C1299 C1301 1.479 . S
C1299 H1317 0.929 . S
C1300 C1297 1.424 . S
C1300 C1299 1.384 . S
C1300 H1318 0.928 . S
C1301 C1298 1.260 . S
C1301 C1299 1.479 . S
C1302 C1297 1.245 . S
C1302 C1298 1.477 . S
C1302 H1319 0.932 . S
C1303 U1286 2.882 . S
C1303 C1297 1.428 . S
C1303 O1306 1.301 . S
C1303 O1307 1.282 . S
O1304 U1286 2.441 . S
O1304 C1290 1.249 . S
O1305 U1286 2.420 . S
O1305 C1290 1.202 . S
O1306 U1286 2.455 . S
O1306 C1303 1.301 . S
O1307 U1286 2.449 . S
O1307 C1303 1.282 . S
H1308 C1281 0.931 . S
H1309 C1283 0.929 . S
H1310 C1284 0.930 . S
H1311 C1285 0.931 . S
H1312 C1292 0.932 . S
H1313 C1293 0.930 . S
H1314 C1294 0.929 . S
H1315 C1296 0.930 . S
H1316 C1298 0.932 . S
H1317 C1299 0.929 . S
H1318 C1300 0.928 . S
H1319 C1302 0.932 . S
C1320 C1321 1.264 . S
C1320 C1325 1.479 . S
C1320 C1330 1.465 . S
C1321 C1320 1.264 . S
C1321 C1323 1.339 . S
C1321 H1348 0.931 . S
C1322 C1323 1.395 . S
C1322 C1324 1.320 . S
C1323 C1321 1.339 . S
C1323 C1322 1.395 . S
C1323 H1349 0.929 . S
C1324 C1322 1.320 . S
C1324 C1325 1.405 . S
C1324 H1350 0.930 . S
C1325 C1320 1.479 . S
C1325 C1324 1.405 . S
C1325 H1351 0.931 . S
U1326 O1327 2.454 . S
U1326 O1328 2.458 . S
U1326 C1329 2.984 . S
U1326 C1330 2.847 . S
U1326 C1343 2.882 . S
U1326 O1344 2.441 . S
U1326 O1345 2.420 . S
U1326 O1346 2.455 . S
U1326 O1347 2.449 . S
O1327 U1326 2.454 . S
O1327 C1329 1.353 . S
O1328 U1326 2.458 . S
O1328 C1329 1.286 . S
C1329 U1326 2.984 . S
C1329 O1327 1.353 . S
C1329 O1328 1.286 . S
C1329 C1331 1.363 . S
C1330 C1320 1.465 . S
C1330 U1326 2.847 . S
C1330 O1344 1.249 . S
C1330 O1345 1.202 . S
C1331 C1329 1.363 . S
C1331 C1333 1.408 . S
C1331 C1336 1.342 . S
C1332 C1333 1.310 . S
C1332 C1335 1.461 . S
C1332 H1352 0.932 . S
C1333 C1331 1.408 . S
C1333 C1332 1.310 . S
C1333 H1353 0.930 . S
C1334 C1335 1.474 . S
C1334 C1336 1.285 . S
C1334 H1354 0.929 . S
C1335 C1332 1.461 . S
C1335 C1334 1.474 . S
C1336 C1331 1.342 . S
C1336 C1334 1.285 . S
C1336 H1355 0.930 . S
C1337 C1340 1.424 . S
C1337 C1342 1.245 . S
C1337 C1343 1.428 . S
C1338 C1341 1.260 . S
C1338 C1342 1.477 . S
C1338 H1356 0.932 . S
C1339 C1340 1.384 . S
C1339 C1341 1.479 . S
C1339 H1357 0.929 . S
C1340 C1337 1.424 . S
C1340 C1339 1.384 . S
C1340 H1358 0.928 . S
C1341 C1338 1.260 . S
C1341 C1339 1.479 . S
C1342 C1337 1.245 . S
C1342 C1338 1.477 . S
C1342 H1359 0.932 . S
C1343 U1326 2.882 . S
C1343 C1337 1.428 . S
C1343 O1346 1.301 . S
C1343 O1347 1.282 . S
O1344 U1326 2.441 . S
O1344 C1330 1.249 . S
O1345 U1326 2.420 . S
O1345 C1330 1.202 . S
O1346 U1326 2.455 . S
O1346 C1343 1.301 . S
O1347 U1326 2.449 . S
O1347 C1343 1.282 . S
H1348 C1321 0.931 . S
H1349 C1323 0.929 . S
H1350 C1324 0.930 . S
H1351 C1325 0.931 . S
H1352 C1332 0.932 . S
H1353 C1333 0.930 . S
H1354 C1334 0.929 . S
H1355 C1336 0.930 . S
H1356 C1338 0.932 . S
H1357 C1339 0.929 . S
H1358 C1340 0.928 . S
H1359 C1342 0.932 . S
C1360 C1361 1.264 . S
C1360 C1365 1.479 . S
C1360 C1370 1.465 . S
C1361 C1360 1.264 . S
C1361 C1363 1.339 . S
C1361 H1388 0.931 . S
C1362 C1363 1.395 . S
C1362 C1364 1.320 . S
C1363 C1361 1.339 . S
C1363 C1362 1.395 . S
C1363 H1389 0.929 . S
C1364 C1362 1.320 . S
C1364 C1365 1.405 . S
C1364 H1390 0.930 . S
C1365 C1360 1.479 . S
C1365 C1364 1.405 . S
C1365 H1391 0.931 . S
U1366 O1367 2.454 . S
U1366 O1368 2.458 . S
U1366 C1369 2.984 . S
U1366 C1370 2.847 . S
U1366 C1383 2.882 . S
U1366 O1384 2.441 . S
U1366 O1385 2.420 . S
U1366 O1386 2.455 . S
U1366 O1387 2.449 . S
O1367 U1366 2.454 . S
O1367 C1369 1.353 . S
O1368 U1366 2.458 . S
O1368 C1369 1.286 . S
C1369 U1366 2.984 . S
C1369 O1367 1.353 . S
C1369 O1368 1.286 . S
C1369 C1371 1.363 . S
C1370 C1360 1.465 . S
C1370 U1366 2.847 . S
C1370 O1384 1.249 . S
C1370 O1385 1.202 . S
C1371 C1369 1.363 . S
C1371 C1373 1.408 . S
C1371 C1376 1.342 . S
C1372 C1373 1.310 . S
C1372 C1375 1.461 . S
C1372 H1392 0.932 . S
C1373 C1371 1.408 . S
C1373 C1372 1.310 . S
C1373 H1393 0.930 . S
C1374 C1375 1.474 . S
C1374 C1376 1.285 . S
C1374 H1394 0.929 . S
C1375 C1372 1.461 . S
C1375 C1374 1.474 . S
C1376 C1371 1.342 . S
C1376 C1374 1.285 . S
C1376 H1395 0.930 . S
C1377 C1380 1.424 . S
C1377 C1382 1.245 . S
C1377 C1383 1.428 . S
C1378 C1381 1.260 . S
C1378 C1382 1.477 . S
C1378 H1396 0.932 . S
C1379 C1380 1.384 . S
C1379 C1381 1.479 . S
C1379 H1397 0.929 . S
C1380 C1377 1.424 . S
C1380 C1379 1.384 . S
C1380 H1398 0.928 . S
C1381 C1378 1.260 . S
C1381 C1379 1.479 . S
C1382 C1377 1.245 . S
C1382 C1378 1.477 . S
C1382 H1399 0.932 . S
C1383 U1366 2.882 . S
C1383 C1377 1.428 . S
C1383 O1386 1.301 . S
C1383 O1387 1.282 . S
O1384 U1366 2.441 . S
O1384 C1370 1.249 . S
O1385 U1366 2.420 . S
O1385 C1370 1.202 . S
O1386 U1366 2.455 . S
O1386 C1383 1.301 . S
O1387 U1366 2.449 . S
O1387 C1383 1.282 . S
H1388 C1361 0.931 . S
H1389 C1363 0.929 . S
H1390 C1364 0.930 . S
H1391 C1365 0.931 . S
H1392 C1372 0.932 . S
H1393 C1373 0.930 . S
H1394 C1374 0.929 . S
H1395 C1376 0.930 . S
H1396 C1378 0.932 . S
H1397 C1379 0.929 . S
H1398 C1380 0.928 . S
H1399 C1382 0.932 . S
C1400 C1401 1.264 . S
C1400 C1405 1.479 . S
C1400 C1410 1.465 . S
C1401 C1400 1.264 . S
C1401 C1403 1.339 . S
C1401 H1428 0.931 . S
C1402 C1403 1.395 . S
C1402 C1404 1.320 . S
C1403 C1401 1.339 . S
C1403 C1402 1.395 . S
C1403 H1429 0.929 . S
C1404 C1402 1.320 . S
C1404 C1405 1.405 . S
C1404 H1430 0.930 . S
C1405 C1400 1.479 . S
C1405 C1404 1.405 . S
C1405 H1431 0.931 . S
U1406 O1407 2.454 . S
U1406 O1408 2.458 . S
U1406 C1409 2.984 . S
U1406 C1410 2.847 . S
U1406 C1423 2.882 . S
U1406 O1424 2.441 . S
U1406 O1425 2.420 . S
U1406 O1426 2.455 . S
U1406 O1427 2.449 . S
O1407 U1406 2.454 . S
O1407 C1409 1.353 . S
O1408 U1406 2.458 . S
O1408 C1409 1.286 . S
C1409 U1406 2.984 . S
C1409 O1407 1.353 . S
C1409 O1408 1.286 . S
C1409 C1411 1.363 . S
C1410 C1400 1.465 . S
C1410 U1406 2.847 . S
C1410 O1424 1.249 . S
C1410 O1425 1.202 . S
C1411 C1409 1.363 . S
C1411 C1413 1.408 . S
C1411 C1416 1.342 . S
C1412 C1413 1.310 . S
C1412 C1415 1.461 . S
C1412 H1432 0.932 . S
C1413 C1411 1.408 . S
C1413 C1412 1.310 . S
C1413 H1433 0.930 . S
C1414 C1415 1.474 . S
C1414 C1416 1.285 . S
C1414 H1434 0.929 . S
C1415 C1412 1.461 . S
C1415 C1414 1.474 . S
C1416 C1411 1.342 . S
C1416 C1414 1.285 . S
C1416 H1435 0.930 . S
C1417 C1420 1.424 . S
C1417 C1422 1.245 . S
C1417 C1423 1.428 . S
C1418 C1421 1.260 . S
C1418 C1422 1.477 . S
C1418 H1436 0.932 . S
C1419 C1420 1.384 . S
C1419 C1421 1.479 . S
C1419 H1437 0.929 . S
C1420 C1417 1.424 . S
C1420 C1419 1.384 . S
C1420 H1438 0.928 . S
C1421 C1418 1.260 . S
C1421 C1419 1.479 . S
C1422 C1417 1.245 . S
C1422 C1418 1.477 . S
C1422 H1439 0.932 . S
C1423 U1406 2.882 . S
C1423 C1417 1.428 . S
C1423 O1426 1.301 . S
C1423 O1427 1.282 . S
O1424 U1406 2.441 . S
O1424 C1410 1.249 . S
O1425 U1406 2.420 . S
O1425 C1410 1.202 . S
O1426 U1406 2.455 . S
O1426 C1423 1.301 . S
O1427 U1406 2.449 . S
O1427 C1423 1.282 . S
H1428 C1401 0.931 . S
H1429 C1403 0.929 . S
H1430 C1404 0.930 . S
H1431 C1405 0.931 . S
H1432 C1412 0.932 . S
H1433 C1413 0.930 . S
H1434 C1414 0.929 . S
H1435 C1416 0.930 . S
H1436 C1418 0.932 . S
H1437 C1419 0.929 . S
H1438 C1420 0.928 . S
H1439 C1422 0.932 . S
C1440 C1441 1.349 . S
C1440 C1442 1.327 . S
C1440 H1465 0.950 . S
C1441 C1440 1.349 . S
C1441 C1457 1.349 . S
C1442 C1440 1.327 . S
C1442 C1461 1.429 . S
C1442 H1466 0.950 . S
C1443 C1460 1.574 . S
C1443 C1462 1.368 . S
C1443 H1467 0.949 . S
H1444 C1448 0.949 . S
C1445 C1446 1.349 . S
C1445 C1447 1.327 . S
C1445 H1468 0.950 . S
C1446 C1445 1.349 . S
C1446 C1458 1.349 . S
C1447 C1445 1.327 . S
C1447 C1463 1.429 . S
C1447 H1469 0.950 . S
C1448 H1444 0.949 . S
C1448 C1456 1.574 . S
C1448 C1464 1.368 . S
H1449 C1457 0.950 . S
H1450 C1455 0.950 . S
H1451 C1456 0.949 . S
H1452 C1458 0.950 . S
H1453 C1459 0.950 . S
H1454 C1460 0.949 . S
C1455 H1450 0.950 . S
C1455 C1457 1.327 . S
C1455 C1461 1.429 . S
C1456 C1448 1.574 . S
C1456 H1451 0.949 . S
C1456 C1462 1.368 . S
C1457 C1441 1.349 . S
C1457 H1449 0.950 . S
C1457 C1455 1.327 . S
C1458 C1446 1.349 . S
C1458 H1452 0.950 . S
C1458 C1459 1.327 . S
C1459 H1453 0.950 . S
C1459 C1458 1.327 . S
C1459 C1463 1.429 . S
C1460 C1443 1.574 . S
C1460 H1454 0.949 . S
C1460 C1464 1.368 . S
C1461 C1442 1.429 . S
C1461 C1455 1.429 . S
C1461 C1462 1.523 . S
C1462 C1443 1.368 . S
C1462 C1456 1.368 . S
C1462 C1461 1.523 . S
C1463 C1447 1.429 . S
C1463 C1459 1.429 . S
C1463 C1464 1.523 . S
C1464 C1448 1.368 . S
C1464 C1460 1.368 . S
C1464 C1463 1.523 . S
H1465 C1440 0.950 . S
H1466 C1442 0.950 . S
H1467 C1443 0.949 . S
H1468 C1445 0.950 . S
H1469 C1447 0.950 . S
C1470 C1471 1.349 . S
C1470 C1472 1.327 . S
C1470 H1495 0.950 . S
C1471 C1470 1.349 . S
C1471 C1487 1.349 . S
C1472 C1470 1.327 . S
C1472 C1491 1.429 . S
C1472 H1496 0.950 . S
C1473 C1490 1.574 . S
C1473 C1492 1.368 . S
C1473 H1497 0.949 . S
H1474 C1478 0.949 . S
C1475 C1476 1.349 . S
C1475 C1477 1.327 . S
C1475 H1498 0.950 . S
C1476 C1475 1.349 . S
C1476 C1488 1.349 . S
C1477 C1475 1.327 . S
C1477 C1493 1.429 . S
C1477 H1499 0.950 . S
C1478 H1474 0.949 . S
C1478 C1486 1.574 . S
C1478 C1494 1.368 . S
H1479 C1487 0.950 . S
H1480 C1485 0.950 . S
H1481 C1486 0.949 . S
H1482 C1488 0.950 . S
H1483 C1489 0.950 . S
H1484 C1490 0.949 . S
C1485 H1480 0.950 . S
C1485 C1487 1.327 . S
C1485 C1491 1.429 . S
C1486 C1478 1.574 . S
C1486 H1481 0.949 . S
C1486 C1492 1.368 . S
C1487 C1471 1.349 . S
C1487 H1479 0.950 . S
C1487 C1485 1.327 . S
C1488 C1476 1.349 . S
C1488 H1482 0.950 . S
C1488 C1489 1.327 . S
C1489 H1483 0.950 . S
C1489 C1488 1.327 . S
C1489 C1493 1.429 . S
C1490 C1473 1.574 . S
C1490 H1484 0.949 . S
C1490 C1494 1.368 . S
C1491 C1472 1.429 . S
C1491 C1485 1.429 . S
C1491 C1492 1.523 . S
C1492 C1473 1.368 . S
C1492 C1486 1.368 . S
C1492 C1491 1.523 . S
C1493 C1477 1.429 . S
C1493 C1489 1.429 . S
C1493 C1494 1.523 . S
C1494 C1478 1.368 . S
C1494 C1490 1.368 . S
C1494 C1493 1.523 . S
H1495 C1470 0.950 . S
H1496 C1472 0.950 . S
H1497 C1473 0.949 . S
H1498 C1475 0.950 . S
H1499 C1477 0.950 . S
C1500 C1501 1.349 . S
C1500 C1502 1.327 . S
C1500 H1525 0.950 . S
C1501 C1500 1.349 . S
C1501 C1517 1.349 . S
C1502 C1500 1.327 . S
C1502 C1521 1.429 . S
C1502 H1526 0.950 . S
C1503 C1520 1.574 . S
C1503 C1522 1.368 . S
C1503 H1527 0.949 . S
H1504 C1508 0.949 . S
C1505 C1506 1.349 . S
C1505 C1507 1.327 . S
C1505 H1528 0.950 . S
C1506 C1505 1.349 . S
C1506 C1518 1.349 . S
C1507 C1505 1.327 . S
C1507 C1523 1.429 . S
C1507 H1529 0.950 . S
C1508 H1504 0.949 . S
C1508 C1516 1.574 . S
C1508 C1524 1.368 . S
H1509 C1517 0.950 . S
H1510 C1515 0.950 . S
H1511 C1516 0.949 . S
H1512 C1518 0.950 . S
H1513 C1519 0.950 . S
H1514 C1520 0.949 . S
C1515 H1510 0.950 . S
C1515 C1517 1.327 . S
C1515 C1521 1.429 . S
C1516 C1508 1.574 . S
C1516 H1511 0.949 . S
C1516 C1522 1.368 . S
C1517 C1501 1.349 . S
C1517 H1509 0.950 . S
C1517 C1515 1.327 . S
C1518 C1506 1.349 . S
C1518 H1512 0.950 . S
C1518 C1519 1.327 . S
C1519 H1513 0.950 . S
C1519 C1518 1.327 . S
C1519 C1523 1.429 . S
C1520 C1503 1.574 . S
C1520 H1514 0.949 . S
C1520 C1524 1.368 . S
C1521 C1502 1.429 . S
C1521 C1515 1.429 . S
C1521 C1522 1.523 . S
C1522 C1503 1.368 . S
C1522 C1516 1.368 . S
C1522 C1521 1.523 . S
C1523 C1507 1.429 . S
C1523 C1519 1.429 . S
C1523 C1524 1.523 . S
C1524 C1508 1.368 . S
C1524 C1520 1.368 . S
C1524 C1523 1.523 . S
H1525 C1500 0.950 . S
H1526 C1502 0.950 . S
H1527 C1503 0.949 . S
H1528 C1505 0.950 . S
H1529 C1507 0.950 . S
C1530 C1531 1.349 . S
C1530 C1532 1.327 . S
C1530 H1555 0.950 . S
C1531 C1530 1.349 . S
C1531 C1547 1.349 . S
C1532 C1530 1.327 . S
C1532 C1551 1.429 . S
C1532 H1556 0.950 . S
C1533 C1550 1.574 . S
C1533 C1552 1.368 . S
C1533 H1557 0.949 . S
H1534 C1538 0.949 . S
C1535 C1536 1.349 . S
C1535 C1537 1.327 . S
C1535 H1558 0.950 . S
C1536 C1535 1.349 . S
C1536 C1548 1.349 . S
C1537 C1535 1.327 . S
C1537 C1553 1.429 . S
C1537 H1559 0.950 . S
C1538 H1534 0.949 . S
C1538 C1546 1.574 . S
C1538 C1554 1.368 . S
H1539 C1547 0.950 . S
H1540 C1545 0.950 . S
H1541 C1546 0.949 . S
H1542 C1548 0.950 . S
H1543 C1549 0.950 . S
H1544 C1550 0.949 . S
C1545 H1540 0.950 . S
C1545 C1547 1.327 . S
C1545 C1551 1.429 . S
C1546 C1538 1.574 . S
C1546 H1541 0.949 . S
C1546 C1552 1.368 . S
C1547 C1531 1.349 . S
C1547 H1539 0.950 . S
C1547 C1545 1.327 . S
C1548 C1536 1.349 . S
C1548 H1542 0.950 . S
C1548 C1549 1.327 . S
C1549 H1543 0.950 . S
C1549 C1548 1.327 . S
C1549 C1553 1.429 . S
C1550 C1533 1.574 . S
C1550 H1544 0.949 . S
C1550 C1554 1.368 . S
C1551 C1532 1.429 . S
C1551 C1545 1.429 . S
C1551 C1552 1.523 . S
C1552 C1533 1.368 . S
C1552 C1546 1.368 . S
C1552 C1551 1.523 . S
C1553 C1537 1.429 . S
C1553 C1549 1.429 . S
C1553 C1554 1.523 . S
C1554 C1538 1.368 . S
C1554 C1550 1.368 . S
C1554 C1553 1.523 . S
H1555 C1530 0.950 . S
H1556 C1532 0.950 . S
H1557 C1533 0.949 . S
H1558 C1535 0.950 . S
H1559 C1537 0.950 . S
C1560 C1561 1.349 . S
C1560 C1562 1.327 . S
C1560 H1585 0.950 . S
C1561 C1560 1.349 . S
C1561 C1577 1.349 . S
C1562 C1560 1.327 . S
C1562 C1581 1.429 . S
C1562 H1586 0.950 . S
C1563 C1580 1.574 . S
C1563 C1582 1.368 . S
C1563 H1587 0.949 . S
H1564 C1568 0.949 . S
C1565 C1566 1.349 . S
C1565 C1567 1.327 . S
C1565 H1588 0.950 . S
C1566 C1565 1.349 . S
C1566 C1578 1.349 . S
C1567 C1565 1.327 . S
C1567 C1583 1.429 . S
C1567 H1589 0.950 . S
C1568 H1564 0.949 . S
C1568 C1576 1.574 . S
C1568 C1584 1.368 . S
H1569 C1577 0.950 . S
H1570 C1575 0.950 . S
H1571 C1576 0.949 . S
H1572 C1578 0.950 . S
H1573 C1579 0.950 . S
H1574 C1580 0.949 . S
C1575 H1570 0.950 . S
C1575 C1577 1.327 . S
C1575 C1581 1.429 . S
C1576 C1568 1.574 . S
C1576 H1571 0.949 . S
C1576 C1582 1.368 . S
C1577 C1561 1.349 . S
C1577 H1569 0.950 . S
C1577 C1575 1.327 . S
C1578 C1566 1.349 . S
C1578 H1572 0.950 . S
C1578 C1579 1.327 . S
C1579 H1573 0.950 . S
C1579 C1578 1.327 . S
C1579 C1583 1.429 . S
C1580 C1563 1.574 . S
C1580 H1574 0.949 . S
C1580 C1584 1.368 . S
C1581 C1562 1.429 . S
C1581 C1575 1.429 . S
C1581 C1582 1.523 . S
C1582 C1563 1.368 . S
C1582 C1576 1.368 . S
C1582 C1581 1.523 . S
C1583 C1567 1.429 . S
C1583 C1579 1.429 . S
C1583 C1584 1.523 . S
C1584 C1568 1.368 . S
C1584 C1580 1.368 . S
C1584 C1583 1.523 . S
H1585 C1560 0.950 . S
H1586 C1562 0.950 . S
H1587 C1563 0.949 . S
H1588 C1565 0.950 . S
H1589 C1567 0.950 . S
C1590 C1591 1.349 . S
C1590 C1592 1.327 . S
C1590 H1615 0.950 . S
C1591 C1590 1.349 . S
C1591 C1607 1.349 . S
C1592 C1590 1.327 . S
C1592 C1611 1.429 . S
C1592 H1616 0.950 . S
C1593 C1610 1.574 . S
C1593 C1612 1.368 . S
C1593 H1617 0.949 . S
H1594 C1598 0.949 . S
C1595 C1596 1.349 . S
C1595 C1597 1.327 . S
C1595 H1618 0.950 . S
C1596 C1595 1.349 . S
C1596 C1608 1.349 . S
C1597 C1595 1.327 . S
C1597 C1613 1.429 . S
C1597 H1619 0.950 . S
C1598 H1594 0.949 . S
C1598 C1606 1.574 . S
C1598 C1614 1.368 . S
H1599 C1607 0.950 . S
H1600 C1605 0.950 . S
H1601 C1606 0.949 . S
H1602 C1608 0.950 . S
H1603 C1609 0.950 . S
H1604 C1610 0.949 . S
C1605 H1600 0.950 . S
C1605 C1607 1.327 . S
C1605 C1611 1.429 . S
C1606 C1598 1.574 . S
C1606 H1601 0.949 . S
C1606 C1612 1.368 . S
C1607 C1591 1.349 . S
C1607 H1599 0.950 . S
C1607 C1605 1.327 . S
C1608 C1596 1.349 . S
C1608 H1602 0.950 . S
C1608 C1609 1.327 . S
C1609 H1603 0.950 . S
C1609 C1608 1.327 . S
C1609 C1613 1.429 . S
C1610 C1593 1.574 . S
C1610 H1604 0.949 . S
C1610 C1614 1.368 . S
C1611 C1592 1.429 . S
C1611 C1605 1.429 . S
C1611 C1612 1.523 . S
C1612 C1593 1.368 . S
C1612 C1606 1.368 . S
C1612 C1611 1.523 . S
C1613 C1597 1.429 . S
C1613 C1609 1.429 . S
C1613 C1614 1.523 . S
C1614 C1598 1.368 . S
C1614 C1610 1.368 . S
C1614 C1613 1.523 . S
H1615 C1590 0.950 . S
H1616 C1592 0.950 . S
H1617 C1593 0.949 . S
H1618 C1595 0.950 . S
H1619 C1597 0.950 . S
C1620 C1621 1.349 . S
C1620 C1622 1.327 . S
C1620 H1645 0.950 . S
C1621 C1620 1.349 . S
C1621 C1637 1.349 . S
C1622 C1620 1.327 . S
C1622 C1641 1.429 . S
C1622 H1646 0.950 . S
C1623 C1640 1.574 . S
C1623 C1642 1.368 . S
C1623 H1647 0.949 . S
H1624 C1628 0.949 . S
C1625 C1626 1.349 . S
C1625 C1627 1.327 . S
C1625 H1648 0.950 . S
C1626 C1625 1.349 . S
C1626 C1638 1.349 . S
C1627 C1625 1.327 . S
C1627 C1643 1.429 . S
C1627 H1649 0.950 . S
C1628 H1624 0.949 . S
C1628 C1636 1.574 . S
C1628 C1644 1.368 . S
H1629 C1637 0.950 . S
H1630 C1635 0.950 . S
H1631 C1636 0.949 . S
H1632 C1638 0.950 . S
H1633 C1639 0.950 . S
H1634 C1640 0.949 . S
C1635 H1630 0.950 . S
C1635 C1637 1.327 . S
C1635 C1641 1.429 . S
C1636 C1628 1.574 . S
C1636 H1631 0.949 . S
C1636 C1642 1.368 . S
C1637 C1621 1.349 . S
C1637 H1629 0.950 . S
C1637 C1635 1.327 . S
C1638 C1626 1.349 . S
C1638 H1632 0.950 . S
C1638 C1639 1.327 . S
C1639 H1633 0.950 . S
C1639 C1638 1.327 . S
C1639 C1643 1.429 . S
C1640 C1623 1.574 . S
C1640 H1634 0.949 . S
C1640 C1644 1.368 . S
C1641 C1622 1.429 . S
C1641 C1635 1.429 . S
C1641 C1642 1.523 . S
C1642 C1623 1.368 . S
C1642 C1636 1.368 . S
C1642 C1641 1.523 . S
C1643 C1627 1.429 . S
C1643 C1639 1.429 . S
C1643 C1644 1.523 . S
C1644 C1628 1.368 . S
C1644 C1640 1.368 . S
C1644 C1643 1.523 . S
H1645 C1620 0.950 . S
H1646 C1622 0.950 . S
H1647 C1623 0.949 . S
H1648 C1625 0.950 . S
H1649 C1627 0.950 . S
C1650 C1651 1.349 . S
C1650 C1652 1.327 . S
C1650 H1675 0.950 . S
C1651 C1650 1.349 . S
C1651 C1667 1.349 . S
C1652 C1650 1.327 . S
C1652 C1671 1.429 . S
C1652 H1676 0.950 . S
C1653 C1670 1.574 . S
C1653 C1672 1.368 . S
C1653 H1677 0.949 . S
H1654 C1658 0.949 . S
C1655 C1656 1.349 . S
C1655 C1657 1.327 . S
C1655 H1678 0.950 . S
C1656 C1655 1.349 . S
C1656 C1668 1.349 . S
C1657 C1655 1.327 . S
C1657 C1673 1.429 . S
C1657 H1679 0.950 . S
C1658 H1654 0.949 . S
C1658 C1666 1.574 . S
C1658 C1674 1.368 . S
H1659 C1667 0.950 . S
H1660 C1665 0.950 . S
H1661 C1666 0.949 . S
H1662 C1668 0.950 . S
H1663 C1669 0.950 . S
H1664 C1670 0.949 . S
C1665 H1660 0.950 . S
C1665 C1667 1.327 . S
C1665 C1671 1.429 . S
C1666 C1658 1.574 . S
C1666 H1661 0.949 . S
C1666 C1672 1.368 . S
C1667 C1651 1.349 . S
C1667 H1659 0.950 . S
C1667 C1665 1.327 . S
C1668 C1656 1.349 . S
C1668 H1662 0.950 . S
C1668 C1669 1.327 . S
C1669 H1663 0.950 . S
C1669 C1668 1.327 . S
C1669 C1673 1.429 . S
C1670 C1653 1.574 . S
C1670 H1664 0.949 . S
C1670 C1674 1.368 . S
C1671 C1652 1.429 . S
C1671 C1665 1.429 . S
C1671 C1672 1.523 . S
C1672 C1653 1.368 . S
C1672 C1666 1.368 . S
C1672 C1671 1.523 . S
C1673 C1657 1.429 . S
C1673 C1669 1.429 . S
C1673 C1674 1.523 . S
C1674 C1658 1.368 . S
C1674 C1670 1.368 . S
C1674 C1673 1.523 . S
H1675 C1650 0.950 . S
H1676 C1652 0.950 . S
H1677 C1653 0.949 . S
H1678 C1655 0.950 . S
H1679 C1657 0.950 . S
C1680 C1681 1.349 . S
C1680 C1682 1.327 . S
C1680 H1705 0.950 . S
C1681 C1680 1.349 . S
C1681 C1697 1.349 . S
C1682 C1680 1.327 . S
C1682 C1701 1.429 . S
C1682 H1706 0.950 . S
C1683 C1700 1.574 . S
C1683 C1702 1.368 . S
C1683 H1707 0.949 . S
H1684 C1688 0.949 . S
C1685 C1686 1.349 . S
C1685 C1687 1.327 . S
C1685 H1708 0.950 . S
C1686 C1685 1.349 . S
C1686 C1698 1.349 . S
C1687 C1685 1.327 . S
C1687 C1703 1.429 . S
C1687 H1709 0.950 . S
C1688 H1684 0.949 . S
C1688 C1696 1.574 . S
C1688 C1704 1.368 . S
H1689 C1697 0.950 . S
H1690 C1695 0.950 . S
H1691 C1696 0.949 . S
H1692 C1698 0.950 . S
H1693 C1699 0.950 . S
H1694 C1700 0.949 . S
C1695 H1690 0.950 . S
C1695 C1697 1.327 . S
C1695 C1701 1.429 . S
C1696 C1688 1.574 . S
C1696 H1691 0.949 . S
C1696 C1702 1.368 . S
C1697 C1681 1.349 . S
C1697 H1689 0.950 . S
C1697 C1695 1.327 . S
C1698 C1686 1.349 . S
C1698 H1692 0.950 . S
C1698 C1699 1.327 . S
C1699 H1693 0.950 . S
C1699 C1698 1.327 . S
C1699 C1703 1.429 . S
C1700 C1683 1.574 . S
C1700 H1694 0.949 . S
C1700 C1704 1.368 . S
C1701 C1682 1.429 . S
C1701 C1695 1.429 . S
C1701 C1702 1.523 . S
C1702 C1683 1.368 . S
C1702 C1696 1.368 . S
C1702 C1701 1.523 . S
C1703 C1687 1.429 . S
C1703 C1699 1.429 . S
C1703 C1704 1.523 . S
C1704 C1688 1.368 . S
C1704 C1700 1.368 . S
C1704 C1703 1.523 . S
H1705 C1680 0.950 . S
H1706 C1682 0.950 . S
H1707 C1683 0.949 . S
H1708 C1685 0.950 . S
H1709 C1687 0.950 . S
C1710 C1711 1.349 . S
C1710 C1712 1.327 . S
C1710 H1735 0.950 . S
C1711 C1710 1.349 . S
C1711 C1727 1.349 . S
C1712 C1710 1.327 . S
C1712 C1731 1.429 . S
C1712 H1736 0.950 . S
C1713 C1730 1.574 . S
C1713 C1732 1.368 . S
C1713 H1737 0.949 . S
H1714 C1718 0.949 . S
C1715 C1716 1.349 . S
C1715 C1717 1.327 . S
C1715 H1738 0.950 . S
C1716 C1715 1.349 . S
C1716 C1728 1.349 . S
C1717 C1715 1.327 . S
C1717 C1733 1.429 . S
C1717 H1739 0.950 . S
C1718 H1714 0.949 . S
C1718 C1726 1.574 . S
C1718 C1734 1.368 . S
H1719 C1727 0.950 . S
H1720 C1725 0.950 . S
H1721 C1726 0.949 . S
H1722 C1728 0.950 . S
H1723 C1729 0.950 . S
H1724 C1730 0.949 . S
C1725 H1720 0.950 . S
C1725 C1727 1.327 . S
C1725 C1731 1.429 . S
C1726 C1718 1.574 . S
C1726 H1721 0.949 . S
C1726 C1732 1.368 . S
C1727 C1711 1.349 . S
C1727 H1719 0.950 . S
C1727 C1725 1.327 . S
C1728 C1716 1.349 . S
C1728 H1722 0.950 . S
C1728 C1729 1.327 . S
C1729 H1723 0.950 . S
C1729 C1728 1.327 . S
C1729 C1733 1.429 . S
C1730 C1713 1.574 . S
C1730 H1724 0.949 . S
C1730 C1734 1.368 . S
C1731 C1712 1.429 . S
C1731 C1725 1.429 . S
C1731 C1732 1.523 . S
C1732 C1713 1.368 . S
C1732 C1726 1.368 . S
C1732 C1731 1.523 . S
C1733 C1717 1.429 . S
C1733 C1729 1.429 . S
C1733 C1734 1.523 . S
C1734 C1718 1.368 . S
C1734 C1730 1.368 . S
C1734 C1733 1.523 . S
H1735 C1710 0.950 . S
H1736 C1712 0.950 . S
H1737 C1713 0.949 . S
H1738 C1715 0.950 . S
H1739 C1717 0.950 . S
C1740 C1741 1.349 . S
C1740 C1742 1.327 . S
C1740 H1765 0.950 . S
C1741 C1740 1.349 . S
C1741 C1757 1.349 . S
C1742 C1740 1.327 . S
C1742 C1761 1.429 . S
C1742 H1766 0.950 . S
C1743 C1760 1.574 . S
C1743 C1762 1.368 . S
C1743 H1767 0.949 . S
H1744 C1748 0.949 . S
C1745 C1746 1.349 . S
C1745 C1747 1.327 . S
C1745 H1768 0.950 . S
C1746 C1745 1.349 . S
C1746 C1758 1.349 . S
C1747 C1745 1.327 . S
C1747 C1763 1.429 . S
C1747 H1769 0.950 . S
C1748 H1744 0.949 . S
C1748 C1756 1.574 . S
C1748 C1764 1.368 . S
H1749 C1757 0.950 . S
H1750 C1755 0.950 . S
H1751 C1756 0.949 . S
H1752 C1758 0.950 . S
H1753 C1759 0.950 . S
H1754 C1760 0.949 . S
C1755 H1750 0.950 . S
C1755 C1757 1.327 . S
C1755 C1761 1.429 . S
C1756 C1748 1.574 . S
C1756 H1751 0.949 . S
C1756 C1762 1.368 . S
C1757 C1741 1.349 . S
C1757 H1749 0.950 . S
C1757 C1755 1.327 . S
C1758 C1746 1.349 . S
C1758 H1752 0.950 . S
C1758 C1759 1.327 . S
C1759 H1753 0.950 . S
C1759 C1758 1.327 . S
C1759 C1763 1.429 . S
C1760 C1743 1.574 . S
C1760 H1754 0.949 . S
C1760 C1764 1.368 . S
C1761 C1742 1.429 . S
C1761 C1755 1.429 . S
C1761 C1762 1.523 . S
C1762 C1743 1.368 . S
C1762 C1756 1.368 . S
C1762 C1761 1.523 . S
C1763 C1747 1.429 . S
C1763 C1759 1.429 . S
C1763 C1764 1.523 . S
C1764 C1748 1.368 . S
C1764 C1760 1.368 . S
C1764 C1763 1.523 . S
H1765 C1740 0.950 . S
H1766 C1742 0.950 . S
H1767 C1743 0.949 . S
H1768 C1745 0.950 . S
H1769 C1747 0.950 . S
C1770 C1771 1.349 . S
C1770 C1772 1.327 . S
C1770 H1795 0.950 . S
C1771 C1770 1.349 . S
C1771 C1787 1.349 . S
C1772 C1770 1.327 . S
C1772 C1791 1.429 . S
C1772 H1796 0.950 . S
C1773 C1790 1.574 . S
C1773 C1792 1.368 . S
C1773 H1797 0.949 . S
H1774 C1778 0.949 . S
C1775 C1776 1.349 . S
C1775 C1777 1.327 . S
C1775 H1798 0.950 . S
C1776 C1775 1.349 . S
C1776 C1788 1.349 . S
C1777 C1775 1.327 . S
C1777 C1793 1.429 . S
C1777 H1799 0.950 . S
C1778 H1774 0.949 . S
C1778 C1786 1.574 . S
C1778 C1794 1.368 . S
H1779 C1787 0.950 . S
H1780 C1785 0.950 . S
H1781 C1786 0.949 . S
H1782 C1788 0.950 . S
H1783 C1789 0.950 . S
H1784 C1790 0.949 . S
C1785 H1780 0.950 . S
C1785 C1787 1.327 . S
C1785 C1791 1.429 . S
C1786 C1778 1.574 . S
C1786 H1781 0.949 . S
C1786 C1792 1.368 . S
C1787 C1771 1.349 . S
C1787 H1779 0.950 . S
C1787 C1785 1.327 . S
C1788 C1776 1.349 . S
C1788 H1782 0.950 . S
C1788 C1789 1.327 . S
C1789 H1783 0.950 . S
C1789 C1788 1.327 . S
C1789 C1793 1.429 . S
C1790 C1773 1.574 . S
C1790 H1784 0.949 . S
C1790 C1794 1.368 . S
C1791 C1772 1.429 . S
C1791 C1785 1.429 . S
C1791 C1792 1.523 . S
C1792 C1773 1.368 . S
C1792 C1786 1.368 . S
C1792 C1791 1.523 . S
C1793 C1777 1.429 . S
C1793 C1789 1.429 . S
C1793 C1794 1.523 . S
C1794 C1778 1.368 . S
C1794 C1790 1.368 . S
C1794 C1793 1.523 . S
H1795 C1770 0.950 . S
H1796 C1772 0.950 . S
H1797 C1773 0.949 . S
H1798 C1775 0.950 . S
H1799 C1777 0.950 . S
C1800 C1801 1.349 . S
C1800 C1802 1.327 . S
C1800 H1825 0.950 . S
C1801 C1800 1.349 . S
C1801 C1817 1.349 . S
C1802 C1800 1.327 . S
C1802 C1821 1.429 . S
C1802 H1826 0.950 . S
C1803 C1820 1.574 1_655 S
C1803 C1822 1.368 . S
C1803 H1827 0.949 . S
H1804 C1808 0.949 . S
C1805 C1806 1.349 . S
C1805 C1807 1.327 . S
C1805 H1828 0.950 . S
C1806 C1805 1.349 . S
C1806 C1818 1.349 . S
C1807 C1805 1.327 . S
C1807 C1823 1.429 . S
C1807 H1829 0.950 . S
C1808 H1804 0.949 . S
C1808 C1816 1.574 1_455 S
C1808 C1824 1.368 . S
H1809 C1817 0.950 . S
H1810 C1815 0.950 . S
H1811 C1816 0.949 . S
H1812 C1818 0.950 . S
H1813 C1819 0.950 . S
H1814 C1820 0.949 . S
C1815 H1810 0.950 . S
C1815 C1817 1.327 . S
C1815 C1821 1.429 . S
C1816 C1808 1.574 1_655 S
C1816 H1811 0.949 . S
C1816 C1822 1.368 . S
C1817 C1801 1.349 . S
C1817 H1809 0.950 . S
C1817 C1815 1.327 . S
C1818 C1806 1.349 . S
C1818 H1812 0.950 . S
C1818 C1819 1.327 . S
C1819 H1813 0.950 . S
C1819 C1818 1.327 . S
C1819 C1823 1.429 . S
C1820 C1803 1.574 1_455 S
C1820 H1814 0.949 . S
C1820 C1824 1.368 . S
C1821 C1802 1.429 . S
C1821 C1815 1.429 . S
C1821 C1822 1.523 . S
C1822 C1803 1.368 . S
C1822 C1816 1.368 . S
C1822 C1821 1.523 . S
C1823 C1807 1.429 . S
C1823 C1819 1.429 . S
C1823 C1824 1.523 . S
C1824 C1808 1.368 . S
C1824 C1820 1.368 . S
C1824 C1823 1.523 . S
H1825 C1800 0.950 . S
H1826 C1802 0.950 . S
H1827 C1803 0.949 . S
H1828 C1805 0.950 . S
H1829 C1807 0.950 . S
C1830 C1831 1.349 . S
C1830 C1832 1.327 . S
C1830 H1855 0.950 . S
C1831 C1830 1.349 . S
C1831 C1847 1.349 . S
C1832 C1830 1.327 . S
C1832 C1851 1.429 . S
C1832 H1856 0.950 . S
C1833 C1850 1.574 . S
C1833 C1852 1.368 . S
C1833 H1857 0.949 . S
H1834 C1838 0.949 . S
C1835 C1836 1.349 . S
C1835 C1837 1.327 . S
C1835 H1858 0.950 . S
C1836 C1835 1.349 . S
C1836 C1848 1.349 . S
C1837 C1835 1.327 . S
C1837 C1853 1.429 . S
C1837 H1859 0.950 . S
C1838 H1834 0.949 . S
C1838 C1846 1.574 . S
C1838 C1854 1.368 . S
H1839 C1847 0.950 . S
H1840 C1845 0.950 . S
H1841 C1846 0.949 . S
H1842 C1848 0.950 . S
H1843 C1849 0.950 . S
H1844 C1850 0.949 . S
C1845 H1840 0.950 . S
C1845 C1847 1.327 . S
C1845 C1851 1.429 . S
C1846 C1838 1.574 . S
C1846 H1841 0.949 . S
C1846 C1852 1.368 . S
C1847 C1831 1.349 . S
C1847 H1839 0.950 . S
C1847 C1845 1.327 . S
C1848 C1836 1.349 . S
C1848 H1842 0.950 . S
C1848 C1849 1.327 . S
C1849 H1843 0.950 . S
C1849 C1848 1.327 . S
C1849 C1853 1.429 . S
C1850 C1833 1.574 . S
C1850 H1844 0.949 . S
C1850 C1854 1.368 . S
C1851 C1832 1.429 . S
C1851 C1845 1.429 . S
C1851 C1852 1.523 . S
C1852 C1833 1.368 . S
C1852 C1846 1.368 . S
C1852 C1851 1.523 . S
C1853 C1837 1.429 . S
C1853 C1849 1.429 . S
C1853 C1854 1.523 . S
C1854 C1838 1.368 . S
C1854 C1850 1.368 . S
C1854 C1853 1.523 . S
H1855 C1830 0.950 . S
H1856 C1832 0.950 . S
H1857 C1833 0.949 . S
H1858 C1835 0.950 . S
H1859 C1837 0.950 . S
C1860 C1861 1.349 . S
C1860 C1862 1.327 . S
C1860 H1885 0.950 . S
C1861 C1860 1.349 . S
C1861 C1877 1.349 . S
C1862 C1860 1.327 . S
C1862 C1881 1.429 . S
C1862 H1886 0.950 . S
C1863 C1880 1.574 . S
C1863 C1882 1.368 1_565 S
C1863 H1887 0.949 . S
H1864 C1868 0.949 . S
C1865 C1866 1.349 . S
C1865 C1867 1.327 . S
C1865 H1888 0.950 . S
C1866 C1865 1.349 . S
C1866 C1878 1.349 . S
C1867 C1865 1.327 . S
C1867 C1883 1.429 . S
C1867 H1889 0.950 . S
C1868 H1864 0.949 . S
C1868 C1876 1.574 . S
C1868 C1884 1.368 1_545 S
H1869 C1877 0.950 . S
H1870 C1875 0.950 . S
H1871 C1876 0.949 . S
H1872 C1878 0.950 . S
H1873 C1879 0.950 . S
H1874 C1880 0.949 . S
C1875 H1870 0.950 . S
C1875 C1877 1.327 . S
C1875 C1881 1.429 . S
C1876 C1868 1.574 . S
C1876 H1871 0.949 . S
C1876 C1882 1.368 . S
C1877 C1861 1.349 . S
C1877 H1869 0.950 . S
C1877 C1875 1.327 . S
C1878 C1866 1.349 . S
C1878 H1872 0.950 . S
C1878 C1879 1.327 . S
C1879 H1873 0.950 . S
C1879 C1878 1.327 . S
C1879 C1883 1.429 . S
C1880 C1863 1.574 . S
C1880 H1874 0.949 . S
C1880 C1884 1.368 . S
C1881 C1862 1.429 . S
C1881 C1875 1.429 . S
C1881 C1882 1.523 . S
C1882 C1863 1.368 1_545 S
C1882 C1876 1.368 . S
C1882 C1881 1.523 . S
C1883 C1867 1.429 . S
C1883 C1879 1.429 . S
C1883 C1884 1.523 . S
C1884 C1868 1.368 1_565 S
C1884 C1880 1.368 . S
C1884 C1883 1.523 . S
H1885 C1860 0.950 . S
H1886 C1862 0.950 . S
H1887 C1863 0.949 . S
H1888 C1865 0.950 . S
H1889 C1867 0.950 . S
C1890 C1891 1.349 . S
C1890 C1892 1.327 . S
C1890 H1915 0.950 . S
C1891 C1890 1.349 . S
C1891 C1907 1.349 . S
C1892 C1890 1.327 . S
C1892 C1911 1.429 . S
C1892 H1916 0.950 . S
C1893 C1910 1.574 . S
C1893 C1912 1.368 . S
C1893 H1917 0.949 . S
H1894 C1898 0.949 . S
C1895 C1896 1.349 . S
C1895 C1897 1.327 . S
C1895 H1918 0.950 . S
C1896 C1895 1.349 . S
C1896 C1908 1.349 . S
C1897 C1895 1.327 . S
C1897 C1913 1.429 . S
C1897 H1919 0.950 . S
C1898 H1894 0.949 . S
C1898 C1906 1.574 . S
C1898 C1914 1.368 . S
H1899 C1907 0.950 . S
H1900 C1905 0.950 . S
H1901 C1906 0.949 . S
H1902 C1908 0.950 . S
H1903 C1909 0.950 . S
H1904 C1910 0.949 . S
C1905 H1900 0.950 . S
C1905 C1907 1.327 . S
C1905 C1911 1.429 . S
C1906 C1898 1.574 . S
C1906 H1901 0.949 . S
C1906 C1912 1.368 1_545 S
C1907 C1891 1.349 . S
C1907 H1899 0.950 . S
C1907 C1905 1.327 . S
C1908 C1896 1.349 . S
C1908 H1902 0.950 . S
C1908 C1909 1.327 . S
C1909 H1903 0.950 . S
C1909 C1908 1.327 . S
C1909 C1913 1.429 . S
C1910 C1893 1.574 . S
C1910 H1904 0.949 . S
C1910 C1914 1.368 1_565 S
C1911 C1892 1.429 . S
C1911 C1905 1.429 . S
C1911 C1912 1.523 . S
C1912 C1893 1.368 . S
C1912 C1906 1.368 1_565 S
C1912 C1911 1.523 . S
C1913 C1897 1.429 . S
C1913 C1909 1.429 . S
C1913 C1914 1.523 . S
C1914 C1898 1.368 . S
C1914 C1910 1.368 1_545 S
C1914 C1913 1.523 . S
H1915 C1890 0.950 . S
H1916 C1892 0.950 . S
H1917 C1893 0.949 . S
H1918 C1895 0.950 . S
H1919 C1897 0.950 . S
C1920 C1921 1.349 . S
C1920 C1922 1.327 . S
C1920 H1945 0.950 . S
C1921 C1920 1.349 . S
C1921 C1937 1.349 . S
C1922 C1920 1.327 . S
C1922 C1941 1.429 . S
C1922 H1946 0.950 . S
C1923 C1940 1.574 1_655 S
C1923 C1942 1.368 . S
C1923 H1947 0.949 . S
H1924 C1928 0.949 . S
C1925 C1926 1.349 . S
C1925 C1927 1.327 . S
C1925 H1948 0.950 . S
C1926 C1925 1.349 . S
C1926 C1938 1.349 . S
C1927 C1925 1.327 . S
C1927 C1943 1.429 . S
C1927 H1949 0.950 . S
C1928 H1924 0.949 . S
C1928 C1936 1.574 1_455 S
C1928 C1944 1.368 . S
H1929 C1937 0.950 . S
H1930 C1935 0.950 . S
H1931 C1936 0.949 . S
H1932 C1938 0.950 . S
H1933 C1939 0.950 . S
H1934 C1940 0.949 . S
C1935 H1930 0.950 . S
C1935 C1937 1.327 . S
C1935 C1941 1.429 . S
C1936 C1928 1.574 1_655 S
C1936 H1931 0.949 . S
C1936 C1942 1.368 . S
C1937 C1921 1.349 . S
C1937 H1929 0.950 . S
C1937 C1935 1.327 . S
C1938 C1926 1.349 . S
C1938 H1932 0.950 . S
C1938 C1939 1.327 . S
C1939 H1933 0.950 . S
C1939 C1938 1.327 . S
C1939 C1943 1.429 . S
C1940 C1923 1.574 1_455 S
C1940 H1934 0.949 . S
C1940 C1944 1.368 . S
C1941 C1922 1.429 . S
C1941 C1935 1.429 . S
C1941 C1942 1.523 . S
C1942 C1923 1.368 . S
C1942 C1936 1.368 . S
C1942 C1941 1.523 . S
C1943 C1927 1.429 . S
C1943 C1939 1.429 . S
C1943 C1944 1.523 . S
C1944 C1928 1.368 . S
C1944 C1940 1.368 . S
C1944 C1943 1.523 . S
H1945 C1920 0.950 . S
H1946 C1922 0.950 . S
H1947 C1923 0.949 . S
H1948 C1925 0.950 . S
H1949 C1927 0.950 . S
C1950 C1951 1.349 . S
C1950 C1952 1.327 . S
C1950 H1975 0.950 . S
C1951 C1950 1.349 . S
C1951 C1967 1.349 . S
C1952 C1950 1.327 . S
C1952 C1971 1.429 . S
C1952 H1976 0.950 . S
C1953 C1970 1.574 . S
C1953 C1972 1.368 . S
C1953 H1977 0.949 . S
H1954 C1958 0.949 . S
C1955 C1956 1.349 . S
C1955 C1957 1.327 . S
C1955 H1978 0.950 . S
C1956 C1955 1.349 . S
C1956 C1968 1.349 . S
C1957 C1955 1.327 . S
C1957 C1973 1.429 . S
C1957 H1979 0.950 . S
C1958 H1954 0.949 . S
C1958 C1966 1.574 . S
C1958 C1974 1.368 . S
H1959 C1967 0.950 . S
H1960 C1965 0.950 . S
H1961 C1966 0.949 . S
H1962 C1968 0.950 . S
H1963 C1969 0.950 . S
H1964 C1970 0.949 . S
C1965 H1960 0.950 . S
C1965 C1967 1.327 . S
C1965 C1971 1.429 . S
C1966 C1958 1.574 . S
C1966 H1961 0.949 . S
C1966 C1972 1.368 . S
C1967 C1951 1.349 . S
C1967 H1959 0.950 . S
C1967 C1965 1.327 . S
C1968 C1956 1.349 . S
C1968 H1962 0.950 . S
C1968 C1969 1.327 . S
C1969 H1963 0.950 . S
C1969 C1968 1.327 . S
C1969 C1973 1.429 . S
C1970 C1953 1.574 . S
C1970 H1964 0.949 . S
C1970 C1974 1.368 . S
C1971 C1952 1.429 . S
C1971 C1965 1.429 . S
C1971 C1972 1.523 . S
C1972 C1953 1.368 . S
C1972 C1966 1.368 . S
C1972 C1971 1.523 . S
C1973 C1957 1.429 . S
C1973 C1969 1.429 . S
C1973 C1974 1.523 . S
C1974 C1958 1.368 . S
C1974 C1970 1.368 . S
C1974 C1973 1.523 . S
H1975 C1950 0.950 . S
H1976 C1952 0.950 . S
H1977 C1953 0.949 . S
H1978 C1955 0.950 . S
H1979 C1957 0.950 . S
C1980 C1981 1.349 . S
C1980 C1982 1.327 . S
C1980 H2005 0.950 . S
C1981 C1980 1.349 . S
C1981 C1997 1.349 . S
C1982 C1980 1.327 . S
C1982 C2001 1.429 . S
C1982 H2006 0.950 . S
C1983 C2000 1.574 1_455 S
C1983 C2002 1.368 . S
C1983 H2007 0.949 . S
H1984 C1988 0.949 . S
C1985 C1986 1.349 . S
C1985 C1987 1.327 . S
C1985 H2008 0.950 . S
C1986 C1985 1.349 . S
C1986 C1998 1.349 . S
C1987 C1985 1.327 . S
C1987 C2003 1.429 . S
C1987 H2009 0.950 . S
C1988 H1984 0.949 . S
C1988 C1996 1.574 1_655 S
C1988 C2004 1.368 . S
H1989 C1997 0.950 . S
H1990 C1995 0.950 . S
H1991 C1996 0.949 . S
H1992 C1998 0.950 . S
H1993 C1999 0.950 . S
H1994 C2000 0.949 . S
C1995 H1990 0.950 . S
C1995 C1997 1.327 . S
C1995 C2001 1.429 . S
C1996 C1988 1.574 1_455 S
C1996 H1991 0.949 . S
C1996 C2002 1.368 . S
C1997 C1981 1.349 . S
C1997 H1989 0.950 . S
C1997 C1995 1.327 . S
C1998 C1986 1.349 . S
C1998 H1992 0.950 . S
C1998 C1999 1.327 . S
C1999 H1993 0.950 . S
C1999 C1998 1.327 . S
C1999 C2003 1.429 . S
C2000 C1983 1.574 1_655 S
C2000 H1994 0.949 . S
C2000 C2004 1.368 . S
C2001 C1982 1.429 . S
C2001 C1995 1.429 . S
C2001 C2002 1.523 . S
C2002 C1983 1.368 . S
C2002 C1996 1.368 . S
C2002 C2001 1.523 . S
C2003 C1987 1.429 . S
C2003 C1999 1.429 . S
C2003 C2004 1.523 . S
C2004 C1988 1.368 . S
C2004 C2000 1.368 . S
C2004 C2003 1.523 . S
H2005 C1980 0.950 . S
H2006 C1982 0.950 . S
H2007 C1983 0.949 . S
H2008 C1985 0.950 . S
H2009 C1987 0.950 . S
C2010 C2011 1.349 . S
C2010 C2012 1.327 . S
C2010 H2035 0.950 . S
C2011 C2010 1.349 . S
C2011 C2027 1.349 . S
C2012 C2010 1.327 . S
C2012 C2031 1.429 . S
C2012 H2036 0.950 . S
C2013 C2030 1.574 . S
C2013 C2032 1.368 . S
C2013 H2037 0.949 . S
H2014 C2018 0.949 . S
C2015 C2016 1.349 . S
C2015 C2017 1.327 . S
C2015 H2038 0.950 . S
C2016 C2015 1.349 . S
C2016 C2028 1.349 . S
C2017 C2015 1.327 . S
C2017 C2033 1.429 . S
C2017 H2039 0.950 . S
C2018 H2014 0.949 . S
C2018 C2026 1.574 . S
C2018 C2034 1.368 . S
H2019 C2027 0.950 . S
H2020 C2025 0.950 . S
H2021 C2026 0.949 . S
H2022 C2028 0.950 . S
H2023 C2029 0.950 . S
H2024 C2030 0.949 . S
C2025 H2020 0.950 . S
C2025 C2027 1.327 . S
C2025 C2031 1.429 . S
C2026 C2018 1.574 . S
C2026 H2021 0.949 . S
C2026 C2032 1.368 . S
C2027 C2011 1.349 . S
C2027 H2019 0.950 . S
C2027 C2025 1.327 . S
C2028 C2016 1.349 . S
C2028 H2022 0.950 . S
C2028 C2029 1.327 . S
C2029 H2023 0.950 . S
C2029 C2028 1.327 . S
C2029 C2033 1.429 . S
C2030 C2013 1.574 . S
C2030 H2024 0.949 . S
C2030 C2034 1.368 . S
C2031 C2012 1.429 . S
C2031 C2025 1.429 . S
C2031 C2032 1.523 . S
C2032 C2013 1.368 . S
C2032 C2026 1.368 . S
C2032 C2031 1.523 . S
C2033 C2017 1.429 . S
C2033 C2029 1.429 . S
C2033 C2034 1.523 . S
C2034 C2018 1.368 . S
C2034 C2030 1.368 . S
C2034 C2033 1.523 . S
H2035 C2010 0.950 . S
H2036 C2012 0.950 . S
H2037 C2013 0.949 . S
H2038 C2015 0.950 . S
H2039 C2017 0.950 . S
C2040 C2041 1.349 . S
C2040 C2042 1.327 . S
C2040 H2065 0.950 . S
C2041 C2040 1.349 . S
C2041 C2057 1.349 . S
C2042 C2040 1.327 . S
C2042 C2061 1.429 . S
C2042 H2066 0.950 . S
C2043 C2060 1.574 1_545 S
C2043 C2062 1.368 . S
C2043 H2067 0.949 . S
H2044 C2048 0.949 . S
C2045 C2046 1.349 . S
C2045 C2047 1.327 . S
C2045 H2068 0.950 . S
C2046 C2045 1.349 . S
C2046 C2058 1.349 . S
C2047 C2045 1.327 . S
C2047 C2063 1.429 . S
C2047 H2069 0.950 . S
C2048 H2044 0.949 . S
C2048 C2056 1.574 1_565 S
C2048 C2064 1.368 . S
H2049 C2057 0.950 . S
H2050 C2055 0.950 . S
H2051 C2056 0.949 . S
H2052 C2058 0.950 . S
H2053 C2059 0.950 . S
H2054 C2060 0.949 . S
C2055 H2050 0.950 . S
C2055 C2057 1.327 . S
C2055 C2061 1.429 . S
C2056 C2048 1.574 1_545 S
C2056 H2051 0.949 . S
C2056 C2062 1.368 . S
C2057 C2041 1.349 . S
C2057 H2049 0.950 . S
C2057 C2055 1.327 . S
C2058 C2046 1.349 . S
C2058 H2052 0.950 . S
C2058 C2059 1.327 . S
C2059 H2053 0.950 . S
C2059 C2058 1.327 . S
C2059 C2063 1.429 . S
C2060 C2043 1.574 1_565 S
C2060 H2054 0.949 . S
C2060 C2064 1.368 . S
C2061 C2042 1.429 . S
C2061 C2055 1.429 . S
C2061 C2062 1.523 . S
C2062 C2043 1.368 . S
C2062 C2056 1.368 . S
C2062 C2061 1.523 . S
C2063 C2047 1.429 . S
C2063 C2059 1.429 . S
C2063 C2064 1.523 . S
C2064 C2048 1.368 . S
C2064 C2060 1.368 . S
C2064 C2063 1.523 . S
H2065 C2040 0.950 . S
H2066 C2042 0.950 . S
H2067 C2043 0.949 . S
H2068 C2045 0.950 . S
H2069 C2047 0.950 . S
C2070 C2071 1.349 . S
C2070 C2072 1.327 . S
C2070 H2095 0.950 . S
C2071 C2070 1.349 . S
C2071 C2087 1.349 . S
C2072 C2070 1.327 . S
C2072 C2091 1.429 . S
C2072 H2096 0.950 . S
C2073 C2090 1.574 1_455 S
C2073 C2092 1.368 . S
C2073 H2097 0.949 . S
H2074 C2078 0.949 . S
C2075 C2076 1.349 . S
C2075 C2077 1.327 . S
C2075 H2098 0.950 . S
C2076 C2075 1.349 . S
C2076 C2088 1.349 . S
C2077 C2075 1.327 . S
C2077 C2093 1.429 . S
C2077 H2099 0.950 . S
C2078 H2074 0.949 . S
C2078 C2086 1.574 1_655 S
C2078 C2094 1.368 . S
H2079 C2087 0.950 . S
H2080 C2085 0.950 . S
H2081 C2086 0.949 . S
H2082 C2088 0.950 . S
H2083 C2089 0.950 . S
H2084 C2090 0.949 . S
C2085 H2080 0.950 . S
C2085 C2087 1.327 . S
C2085 C2091 1.429 . S
C2086 C2078 1.574 1_455 S
C2086 H2081 0.949 . S
C2086 C2092 1.368 . S
C2087 C2071 1.349 . S
C2087 H2079 0.950 . S
C2087 C2085 1.327 . S
C2088 C2076 1.349 . S
C2088 H2082 0.950 . S
C2088 C2089 1.327 . S
C2089 H2083 0.950 . S
C2089 C2088 1.327 . S
C2089 C2093 1.429 . S
C2090 C2073 1.574 1_655 S
C2090 H2084 0.949 . S
C2090 C2094 1.368 . S
C2091 C2072 1.429 . S
C2091 C2085 1.429 . S
C2091 C2092 1.523 . S
C2092 C2073 1.368 . S
C2092 C2086 1.368 . S
C2092 C2091 1.523 . S
C2093 C2077 1.429 . S
C2093 C2089 1.429 . S
C2093 C2094 1.523 . S
C2094 C2078 1.368 . S
C2094 C2090 1.368 . S
C2094 C2093 1.523 . S
H2095 C2070 0.950 . S
H2096 C2072 0.950 . S
H2097 C2073 0.949 . S
H2098 C2075 0.950 . S
H2099 C2077 0.950 . S
C2100 C2101 1.349 . S
C2100 C2102 1.327 . S
C2100 H2125 0.950 . S
C2101 C2100 1.349 . S
C2101 C2117 1.349 . S
C2102 C2100 1.327 . S
C2102 C2121 1.429 . S
C2102 H2126 0.950 . S
C2103 C2120 1.574 . S
C2103 C2122 1.368 . S
C2103 H2127 0.949 . S
H2104 C2108 0.949 . S
C2105 C2106 1.349 . S
C2105 C2107 1.327 . S
C2105 H2128 0.950 . S
C2106 C2105 1.349 . S
C2106 C2118 1.349 . S
C2107 C2105 1.327 . S
C2107 C2123 1.429 . S
C2107 H2129 0.950 . S
C2108 H2104 0.949 . S
C2108 C2116 1.574 . S
C2108 C2124 1.368 . S
H2109 C2117 0.950 . S
H2110 C2115 0.950 . S
H2111 C2116 0.949 . S
H2112 C2118 0.950 . S
H2113 C2119 0.950 . S
H2114 C2120 0.949 . S
C2115 H2110 0.950 . S
C2115 C2117 1.327 . S
C2115 C2121 1.429 . S
C2116 C2108 1.574 . S
C2116 H2111 0.949 . S
C2116 C2122 1.368 . S
C2117 C2101 1.349 . S
C2117 H2109 0.950 . S
C2117 C2115 1.327 . S
C2118 C2106 1.349 . S
C2118 H2112 0.950 . S
C2118 C2119 1.327 . S
C2119 H2113 0.950 . S
C2119 C2118 1.327 . S
C2119 C2123 1.429 . S
C2120 C2103 1.574 . S
C2120 H2114 0.949 . S
C2120 C2124 1.368 . S
C2121 C2102 1.429 . S
C2121 C2115 1.429 . S
C2121 C2122 1.523 . S
C2122 C2103 1.368 . S
C2122 C2116 1.368 . S
C2122 C2121 1.523 . S
C2123 C2107 1.429 . S
C2123 C2119 1.429 . S
C2123 C2124 1.523 . S
C2124 C2108 1.368 . S
C2124 C2120 1.368 . S
C2124 C2123 1.523 . S
H2125 C2100 0.950 . S
H2126 C2102 0.950 . S
H2127 C2103 0.949 . S
H2128 C2105 0.950 . S
H2129 C2107 0.950 . S
C2130 C2131 1.349 . S
C2130 C2132 1.327 . S
C2130 H2155 0.950 . S
C2131 C2130 1.349 . S
C2131 C2147 1.349 . S
C2132 C2130 1.327 . S
C2132 C2151 1.429 . S
C2132 H2156 0.950 . S
C2133 C2150 1.574 1_565 S
C2133 C2152 1.368 . S
C2133 H2157 0.949 . S
H2134 C2138 0.949 . S
C2135 C2136 1.349 . S
C2135 C2137 1.327 . S
C2135 H2158 0.950 . S
C2136 C2135 1.349 . S
C2136 C2148 1.349 . S
C2137 C2135 1.327 . S
C2137 C2153 1.429 . S
C2137 H2159 0.950 . S
C2138 H2134 0.949 . S
C2138 C2146 1.574 1_545 S
C2138 C2154 1.368 . S
H2139 C2147 0.950 . S
H2140 C2145 0.950 . S
H2141 C2146 0.949 . S
H2142 C2148 0.950 . S
H2143 C2149 0.950 . S
H2144 C2150 0.949 . S
C2145 H2140 0.950 . S
C2145 C2147 1.327 . S
C2145 C2151 1.429 . S
C2146 C2138 1.574 1_565 S
C2146 H2141 0.949 . S
C2146 C2152 1.368 . S
C2147 C2131 1.349 . S
C2147 H2139 0.950 . S
C2147 C2145 1.327 . S
C2148 C2136 1.349 . S
C2148 H2142 0.950 . S
C2148 C2149 1.327 . S
C2149 H2143 0.950 . S
C2149 C2148 1.327 . S
C2149 C2153 1.429 . S
C2150 C2133 1.574 1_545 S
C2150 H2144 0.949 . S
C2150 C2154 1.368 . S
C2151 C2132 1.429 . S
C2151 C2145 1.429 . S
C2151 C2152 1.523 . S
C2152 C2133 1.368 . S
C2152 C2146 1.368 . S
C2152 C2151 1.523 . S
C2153 C2137 1.429 . S
C2153 C2149 1.429 . S
C2153 C2154 1.523 . S
C2154 C2138 1.368 . S
C2154 C2150 1.368 . S
C2154 C2153 1.523 . S
H2155 C2130 0.950 . S
H2156 C2132 0.950 . S
H2157 C2133 0.949 . S
H2158 C2135 0.950 . S
H2159 C2137 0.950 . S
C2160 C2161 1.349 . S
C2160 C2162 1.327 . S
C2160 H2185 0.950 . S
C2161 C2160 1.349 . S
C2161 C2177 1.349 . S
C2162 C2160 1.327 . S
C2162 C2181 1.429 . S
C2162 H2186 0.950 . S
C2163 C2180 1.574 . S
C2163 C2182 1.368 . S
C2163 H2187 0.949 . S
H2164 C2168 0.949 . S
C2165 C2166 1.349 . S
C2165 C2167 1.327 . S
C2165 H2188 0.950 . S
C2166 C2165 1.349 . S
C2166 C2178 1.349 . S
C2167 C2165 1.327 . S
C2167 C2183 1.429 . S
C2167 H2189 0.950 . S
C2168 H2164 0.949 . S
C2168 C2176 1.574 . S
C2168 C2184 1.368 . S
H2169 C2177 0.950 . S
H2170 C2175 0.950 . S
H2171 C2176 0.949 . S
H2172 C2178 0.950 . S
H2173 C2179 0.950 . S
H2174 C2180 0.949 . S
C2175 H2170 0.950 . S
C2175 C2177 1.327 . S
C2175 C2181 1.429 . S
C2176 C2168 1.574 . S
C2176 H2171 0.949 . S
C2176 C2182 1.368 . S
C2177 C2161 1.349 . S
C2177 H2169 0.950 . S
C2177 C2175 1.327 . S
C2178 C2166 1.349 . S
C2178 H2172 0.950 . S
C2178 C2179 1.327 . S
C2179 H2173 0.950 . S
C2179 C2178 1.327 . S
C2179 C2183 1.429 . S
C2180 C2163 1.574 . S
C2180 H2174 0.949 . S
C2180 C2184 1.368 . S
C2181 C2162 1.429 . S
C2181 C2175 1.429 . S
C2181 C2182 1.523 . S
C2182 C2163 1.368 . S
C2182 C2176 1.368 . S
C2182 C2181 1.523 . S
C2183 C2167 1.429 . S
C2183 C2179 1.429 . S
C2183 C2184 1.523 . S
C2184 C2168 1.368 . S
C2184 C2180 1.368 . S
C2184 C2183 1.523 . S
H2185 C2160 0.950 . S
H2186 C2162 0.950 . S
H2187 C2163 0.949 . S
H2188 C2165 0.950 . S
H2189 C2167 0.950 . S
C2190 C2191 1.349 . S
C2190 C2192 1.327 . S
C2190 H2215 0.950 . S
C2191 C2190 1.349 . S
C2191 C2207 1.349 . S
C2192 C2190 1.327 . S
C2192 C2211 1.429 . S
C2192 H2216 0.950 . S
C2193 C2210 1.574 . S
C2193 C2212 1.368 . S
C2193 H2217 0.949 . S
H2194 C2198 0.949 . S
C2195 C2196 1.349 . S
C2195 C2197 1.327 . S
C2195 H2218 0.950 . S
C2196 C2195 1.349 . S
C2196 C2208 1.349 . S
C2197 C2195 1.327 . S
C2197 C2213 1.429 . S
C2197 H2219 0.950 . S
C2198 H2194 0.949 . S
C2198 C2206 1.574 . S
C2198 C2214 1.368 . S
H2199 C2207 0.950 . S
H2200 C2205 0.950 . S
H2201 C2206 0.949 . S
H2202 C2208 0.950 . S
H2203 C2209 0.950 . S
H2204 C2210 0.949 . S
C2205 H2200 0.950 . S
C2205 C2207 1.327 . S
C2205 C2211 1.429 . S
C2206 C2198 1.574 . S
C2206 H2201 0.949 . S
C2206 C2212 1.368 . S
C2207 C2191 1.349 . S
C2207 H2199 0.950 . S
C2207 C2205 1.327 . S
C2208 C2196 1.349 . S
C2208 H2202 0.950 . S
C2208 C2209 1.327 . S
C2209 H2203 0.950 . S
C2209 C2208 1.327 . S
C2209 C2213 1.429 . S
C2210 C2193 1.574 . S
C2210 H2204 0.949 . S
C2210 C2214 1.368 . S
C2211 C2192 1.429 . S
C2211 C2205 1.429 . S
C2211 C2212 1.523 . S
C2212 C2193 1.368 . S
C2212 C2206 1.368 . S
C2212 C2211 1.523 . S
C2213 C2197 1.429 . S
C2213 C2209 1.429 . S
C2213 C2214 1.523 . S
C2214 C2198 1.368 . S
C2214 C2210 1.368 . S
C2214 C2213 1.523 . S
H2215 C2190 0.950 . S
H2216 C2192 0.950 . S
H2217 C2193 0.949 . S
H2218 C2195 0.950 . S
H2219 C2197 0.950 . S
C2220 C2221 1.349 . S
C2220 C2222 1.327 . S
C2220 H2245 0.950 . S
C2221 C2220 1.349 . S
C2221 C2237 1.349 . S
C2222 C2220 1.327 . S
C2222 C2241 1.429 . S
C2222 H2246 0.950 . S
C2223 C2240 1.574 . S
C2223 C2242 1.368 . S
C2223 H2247 0.949 . S
H2224 C2228 0.949 . S
C2225 C2226 1.349 . S
C2225 C2227 1.327 . S
C2225 H2248 0.950 . S
C2226 C2225 1.349 . S
C2226 C2238 1.349 . S
C2227 C2225 1.327 . S
C2227 C2243 1.429 . S
C2227 H2249 0.950 . S
C2228 H2224 0.949 . S
C2228 C2236 1.574 . S
C2228 C2244 1.368 . S
H2229 C2237 0.950 . S
H2230 C2235 0.950 . S
H2231 C2236 0.949 . S
H2232 C2238 0.950 . S
H2233 C2239 0.950 . S
H2234 C2240 0.949 . S
C2235 H2230 0.950 . S
C2235 C2237 1.327 . S
C2235 C2241 1.429 . S
C2236 C2228 1.574 . S
C2236 H2231 0.949 . S
C2236 C2242 1.368 . S
C2237 C2221 1.349 . S
C2237 H2229 0.950 . S
C2237 C2235 1.327 . S
C2238 C2226 1.349 . S
C2238 H2232 0.950 . S
C2238 C2239 1.327 . S
C2239 H2233 0.950 . S
C2239 C2238 1.327 . S
C2239 C2243 1.429 . S
C2240 C2223 1.574 . S
C2240 H2234 0.949 . S
C2240 C2244 1.368 . S
C2241 C2222 1.429 . S
C2241 C2235 1.429 . S
C2241 C2242 1.523 . S
C2242 C2223 1.368 . S
C2242 C2236 1.368 . S
C2242 C2241 1.523 . S
C2243 C2227 1.429 . S
C2243 C2239 1.429 . S
C2243 C2244 1.523 . S
C2244 C2228 1.368 . S
C2244 C2240 1.368 . S
C2244 C2243 1.523 . S
H2245 C2220 0.950 . S
H2246 C2222 0.950 . S
H2247 C2223 0.949 . S
H2248 C2225 0.950 . S
H2249 C2227 0.950 . S
C2250 C2251 1.349 . S
C2250 C2252 1.327 . S
C2250 H2275 0.950 . S
C2251 C2250 1.349 . S
C2251 C2267 1.349 . S
C2252 C2250 1.327 . S
C2252 C2271 1.429 . S
C2252 H2276 0.950 . S
C2253 C2270 1.574 . S
C2253 C2272 1.368 . S
C2253 H2277 0.949 . S
H2254 C2258 0.949 . S
C2255 C2256 1.349 . S
C2255 C2257 1.327 . S
C2255 H2278 0.950 . S
C2256 C2255 1.349 . S
C2256 C2268 1.349 . S
C2257 C2255 1.327 . S
C2257 C2273 1.429 . S
C2257 H2279 0.950 . S
C2258 H2254 0.949 . S
C2258 C2266 1.574 . S
C2258 C2274 1.368 . S
H2259 C2267 0.950 . S
H2260 C2265 0.950 . S
H2261 C2266 0.949 . S
H2262 C2268 0.950 . S
H2263 C2269 0.950 . S
H2264 C2270 0.949 . S
C2265 H2260 0.950 . S
C2265 C2267 1.327 . S
C2265 C2271 1.429 . S
C2266 C2258 1.574 . S
C2266 H2261 0.949 . S
C2266 C2272 1.368 . S
C2267 C2251 1.349 . S
C2267 H2259 0.950 . S
C2267 C2265 1.327 . S
C2268 C2256 1.349 . S
C2268 H2262 0.950 . S
C2268 C2269 1.327 . S
C2269 H2263 0.950 . S
C2269 C2268 1.327 . S
C2269 C2273 1.429 . S
C2270 C2253 1.574 . S
C2270 H2264 0.949 . S
C2270 C2274 1.368 . S
C2271 C2252 1.429 . S
C2271 C2265 1.429 . S
C2271 C2272 1.523 . S
C2272 C2253 1.368 . S
C2272 C2266 1.368 . S
C2272 C2271 1.523 . S
C2273 C2257 1.429 . S
C2273 C2269 1.429 . S
C2273 C2274 1.523 . S
C2274 C2258 1.368 . S
C2274 C2270 1.368 . S
C2274 C2273 1.523 . S
H2275 C2250 0.950 . S
H2276 C2252 0.950 . S
H2277 C2253 0.949 . S
H2278 C2255 0.950 . S
H2279 C2257 0.950 . S
C2280 C2281 1.349 . S
C2280 C2282 1.327 . S
C2280 H2305 0.950 . S
C2281 C2280 1.349 . S
C2281 C2297 1.349 . S
C2282 C2280 1.327 . S
C2282 C2301 1.429 . S
C2282 H2306 0.950 . S
C2283 C2300 1.574 . S
C2283 C2302 1.368 . S
C2283 H2307 0.949 . S
H2284 C2288 0.949 . S
C2285 C2286 1.349 . S
C2285 C2287 1.327 . S
C2285 H2308 0.950 . S
C2286 C2285 1.349 . S
C2286 C2298 1.349 . S
C2287 C2285 1.327 . S
C2287 C2303 1.429 . S
C2287 H2309 0.950 . S
C2288 H2284 0.949 . S
C2288 C2296 1.574 . S
C2288 C2304 1.368 . S
H2289 C2297 0.950 . S
H2290 C2295 0.950 . S
H2291 C2296 0.949 . S
H2292 C2298 0.950 . S
H2293 C2299 0.950 . S
H2294 C2300 0.949 . S
C2295 H2290 0.950 . S
C2295 C2297 1.327 . S
C2295 C2301 1.429 . S
C2296 C2288 1.574 . S
C2296 H2291 0.949 . S
C2296 C2302 1.368 . S
C2297 C2281 1.349 . S
C2297 H2289 0.950 . S
C2297 C2295 1.327 . S
C2298 C2286 1.349 . S
C2298 H2292 0.950 . S
C2298 C2299 1.327 . S
C2299 H2293 0.950 . S
C2299 C2298 1.327 . S
C2299 C2303 1.429 . S
C2300 C2283 1.574 . S
C2300 H2294 0.949 . S
C2300 C2304 1.368 . S
C2301 C2282 1.429 . S
C2301 C2295 1.429 . S
C2301 C2302 1.523 . S
C2302 C2283 1.368 . S
C2302 C2296 1.368 . S
C2302 C2301 1.523 . S
C2303 C2287 1.429 . S
C2303 C2299 1.429 . S
C2303 C2304 1.523 . S
C2304 C2288 1.368 . S
C2304 C2300 1.368 . S
C2304 C2303 1.523 . S
H2305 C2280 0.950 . S
H2306 C2282 0.950 . S
H2307 C2283 0.949 . S
H2308 C2285 0.950 . S
H2309 C2287 0.950 . S
C2310 C2311 1.349 . S
C2310 C2312 1.327 . S
C2310 H2335 0.950 . S
C2311 C2310 1.349 . S
C2311 C2327 1.349 . S
C2312 C2310 1.327 . S
C2312 C2331 1.429 . S
C2312 H2336 0.950 . S
C2313 C2330 1.574 . S
C2313 C2332 1.368 . S
C2313 H2337 0.949 . S
H2314 C2318 0.949 . S
C2315 C2316 1.349 . S
C2315 C2317 1.327 . S
C2315 H2338 0.950 . S
C2316 C2315 1.349 . S
C2316 C2328 1.349 . S
C2317 C2315 1.327 . S
C2317 C2333 1.429 . S
C2317 H2339 0.950 . S
C2318 H2314 0.949 . S
C2318 C2326 1.574 . S
C2318 C2334 1.368 . S
H2319 C2327 0.950 . S
H2320 C2325 0.950 . S
H2321 C2326 0.949 . S
H2322 C2328 0.950 . S
H2323 C2329 0.950 . S
H2324 C2330 0.949 . S
C2325 H2320 0.950 . S
C2325 C2327 1.327 . S
C2325 C2331 1.429 . S
C2326 C2318 1.574 . S
C2326 H2321 0.949 . S
C2326 C2332 1.368 . S
C2327 C2311 1.349 . S
C2327 H2319 0.950 . S
C2327 C2325 1.327 . S
C2328 C2316 1.349 . S
C2328 H2322 0.950 . S
C2328 C2329 1.327 . S
C2329 H2323 0.950 . S
C2329 C2328 1.327 . S
C2329 C2333 1.429 . S
C2330 C2313 1.574 . S
C2330 H2324 0.949 . S
C2330 C2334 1.368 . S
C2331 C2312 1.429 . S
C2331 C2325 1.429 . S
C2331 C2332 1.523 . S
C2332 C2313 1.368 . S
C2332 C2326 1.368 . S
C2332 C2331 1.523 . S
C2333 C2317 1.429 . S
C2333 C2329 1.429 . S
C2333 C2334 1.523 . S
C2334 C2318 1.368 . S
C2334 C2330 1.368 . S
C2334 C2333 1.523 . S
H2335 C2310 0.950 . S
H2336 C2312 0.950 . S
H2337 C2313 0.949 . S
H2338 C2315 0.950 . S
H2339 C2317 0.950 . S
C2340 C2341 1.349 . S
C2340 C2342 1.327 . S
C2340 H2365 0.950 . S
C2341 C2340 1.349 . S
C2341 C2357 1.349 . S
C2342 C2340 1.327 . S
C2342 C2361 1.429 . S
C2342 H2366 0.950 . S
C2343 C2360 1.574 . S
C2343 C2362 1.368 . S
C2343 H2367 0.949 . S
H2344 C2348 0.949 . S
C2345 C2346 1.349 . S
C2345 C2347 1.327 . S
C2345 H2368 0.950 . S
C2346 C2345 1.349 . S
C2346 C2358 1.349 . S
C2347 C2345 1.327 . S
C2347 C2363 1.429 . S
C2347 H2369 0.950 . S
C2348 H2344 0.949 . S
C2348 C2356 1.574 . S
C2348 C2364 1.368 . S
H2349 C2357 0.950 . S
H2350 C2355 0.950 . S
H2351 C2356 0.949 . S
H2352 C2358 0.950 . S
H2353 C2359 0.950 . S
H2354 C2360 0.949 . S
C2355 H2350 0.950 . S
C2355 C2357 1.327 . S
C2355 C2361 1.429 . S
C2356 C2348 1.574 . S
C2356 H2351 0.949 . S
C2356 C2362 1.368 . S
C2357 C2341 1.349 . S
C2357 H2349 0.950 . S
C2357 C2355 1.327 . S
C2358 C2346 1.349 . S
C2358 H2352 0.950 . S
C2358 C2359 1.327 . S
C2359 H2353 0.950 . S
C2359 C2358 1.327 . S
C2359 C2363 1.429 . S
C2360 C2343 1.574 . S
C2360 H2354 0.949 . S
C2360 C2364 1.368 . S
C2361 C2342 1.429 . S
C2361 C2355 1.429 . S
C2361 C2362 1.523 . S
C2362 C2343 1.368 . S
C2362 C2356 1.368 . S
C2362 C2361 1.523 . S
C2363 C2347 1.429 . S
C2363 C2359 1.429 . S
C2363 C2364 1.523 . S
C2364 C2348 1.368 . S
C2364 C2360 1.368 . S
C2364 C2363 1.523 . S
H2365 C2340 0.950 . S
H2366 C2342 0.950 . S
H2367 C2343 0.949 . S
H2368 C2345 0.950 . S
H2369 C2347 0.950 . S
C2370 C2371 1.349 . S
C2370 C2372 1.327 . S
C2370 H2395 0.950 . S
C2371 C2370 1.349 . S
C2371 C2387 1.349 . S
C2372 C2370 1.327 . S
C2372 C2391 1.429 . S
C2372 H2396 0.950 . S
C2373 C2390 1.574 . S
C2373 C2392 1.368 . S
C2373 H2397 0.949 . S
H2374 C2378 0.949 . S
C2375 C2376 1.349 . S
C2375 C2377 1.327 . S
C2375 H2398 0.950 . S
C2376 C2375 1.349 . S
C2376 C2388 1.349 . S
C2377 C2375 1.327 . S
C2377 C2393 1.429 . S
C2377 H2399 0.950 . S
C2378 H2374 0.949 . S
C2378 C2386 1.574 . S
C2378 C2394 1.368 . S
H2379 C2387 0.950 . S
H2380 C2385 0.950 . S
H2381 C2386 0.949 . S
H2382 C2388 0.950 . S
H2383 C2389 0.950 . S
H2384 C2390 0.949 . S
C2385 H2380 0.950 . S
C2385 C2387 1.327 . S
C2385 C2391 1.429 . S
C2386 C2378 1.574 . S
C2386 H2381 0.949 . S
C2386 C2392 1.368 . S
C2387 C2371 1.349 . S
C2387 H2379 0.950 . S
C2387 C2385 1.327 . S
C2388 C2376 1.349 . S
C2388 H2382 0.950 . S
C2388 C2389 1.327 . S
C2389 H2383 0.950 . S
C2389 C2388 1.327 . S
C2389 C2393 1.429 . S
C2390 C2373 1.574 . S
C2390 H2384 0.949 . S
C2390 C2394 1.368 . S
C2391 C2372 1.429 . S
C2391 C2385 1.429 . S
C2391 C2392 1.523 . S
C2392 C2373 1.368 . S
C2392 C2386 1.368 . S
C2392 C2391 1.523 . S
C2393 C2377 1.429 . S
C2393 C2389 1.429 . S
C2393 C2394 1.523 . S
C2394 C2378 1.368 . S
C2394 C2390 1.368 . S
C2394 C2393 1.523 . S
H2395 C2370 0.950 . S
H2396 C2372 0.950 . S
H2397 C2373 0.949 . S
H2398 C2375 0.950 . S
H2399 C2377 0.950 . S
C2400 C2401 1.349 . S
C2400 C2402 1.327 . S
C2400 H2425 0.950 . S
C2401 C2400 1.349 . S
C2401 C2417 1.349 . S
C2402 C2400 1.327 . S
C2402 C2421 1.429 . S
C2402 H2426 0.950 . S
C2403 C2420 1.574 . S
C2403 C2422 1.368 . S
C2403 H2427 0.949 . S
H2404 C2408 0.949 . S
C2405 C2406 1.349 . S
C2405 C2407 1.327 . S
C2405 H2428 0.950 . S
C2406 C2405 1.349 . S
C2406 C2418 1.349 . S
C2407 C2405 1.327 . S
C2407 C2423 1.429 . S
C2407 H2429 0.950 . S
C2408 H2404 0.949 . S
C2408 C2416 1.574 . S
C2408 C2424 1.368 . S
H2409 C2417 0.950 . S
H2410 C2415 0.950 . S
H2411 C2416 0.949 . S
H2412 C2418 0.950 . S
H2413 C2419 0.950 . S
H2414 C2420 0.949 . S
C2415 H2410 0.950 . S
C2415 C2417 1.327 . S
C2415 C2421 1.429 . S
C2416 C2408 1.574 . S
C2416 H2411 0.949 . S
C2416 C2422 1.368 . S
C2417 C2401 1.349 . S
C2417 H2409 0.950 . S
C2417 C2415 1.327 . S
C2418 C2406 1.349 . S
C2418 H2412 0.950 . S
C2418 C2419 1.327 . S
C2419 H2413 0.950 . S
C2419 C2418 1.327 . S
C2419 C2423 1.429 . S
C2420 C2403 1.574 . S
C2420 H2414 0.949 . S
C2420 C2424 1.368 . S
C2421 C2402 1.429 . S
C2421 C2415 1.429 . S
C2421 C2422 1.523 . S
C2422 C2403 1.368 . S
C2422 C2416 1.368 . S
C2422 C2421 1.523 . S
C2423 C2407 1.429 . S
C2423 C2419 1.429 . S
C2423 C2424 1.523 . S
C2424 C2408 1.368 . S
C2424 C2420 1.368 . S
C2424 C2423 1.523 . S
H2425 C2400 0.950 . S
H2426 C2402 0.950 . S
H2427 C2403 0.949 . S
H2428 C2405 0.950 . S
H2429 C2407 0.950 . S
C2430 C2431 1.349 . S
C2430 C2432 1.327 . S
C2430 H2455 0.950 . S
C2431 C2430 1.349 . S
C2431 C2447 1.349 . S
C2432 C2430 1.327 . S
C2432 C2451 1.429 . S
C2432 H2456 0.950 . S
C2433 C2450 1.574 . S
C2433 C2452 1.368 . S
C2433 H2457 0.949 . S
H2434 C2438 0.949 . S
C2435 C2436 1.349 . S
C2435 C2437 1.327 . S
C2435 H2458 0.950 . S
C2436 C2435 1.349 . S
C2436 C2448 1.349 . S
C2437 C2435 1.327 . S
C2437 C2453 1.429 . S
C2437 H2459 0.950 . S
C2438 H2434 0.949 . S
C2438 C2446 1.574 . S
C2438 C2454 1.368 . S
H2439 C2447 0.950 . S
H2440 C2445 0.950 . S
H2441 C2446 0.949 . S
H2442 C2448 0.950 . S
H2443 C2449 0.950 . S
H2444 C2450 0.949 . S
C2445 H2440 0.950 . S
C2445 C2447 1.327 . S
C2445 C2451 1.429 . S
C2446 C2438 1.574 . S
C2446 H2441 0.949 . S
C2446 C2452 1.368 . S
C2447 C2431 1.349 . S
C2447 H2439 0.950 . S
C2447 C2445 1.327 . S
C2448 C2436 1.349 . S
C2448 H2442 0.950 . S
C2448 C2449 1.327 . S
C2449 H2443 0.950 . S
C2449 C2448 1.327 . S
C2449 C2453 1.429 . S
C2450 C2433 1.574 . S
C2450 H2444 0.949 . S
C2450 C2454 1.368 . S
C2451 C2432 1.429 . S
C2451 C2445 1.429 . S
C2451 C2452 1.523 . S
C2452 C2433 1.368 . S
C2452 C2446 1.368 . S
C2452 C2451 1.523 . S
C2453 C2437 1.429 . S
C2453 C2449 1.429 . S
C2453 C2454 1.523 . S
C2454 C2438 1.368 . S
C2454 C2450 1.368 . S
C2454 C2453 1.523 . S
H2455 C2430 0.950 . S
H2456 C2432 0.950 . S
H2457 C2433 0.949 . S
H2458 C2435 0.950 . S
H2459 C2437 0.950 . S
C2460 C2461 1.349 . S
C2460 C2462 1.327 . S
C2460 H2485 0.950 . S
C2461 C2460 1.349 . S
C2461 C2477 1.349 . S
C2462 C2460 1.327 . S
C2462 C2481 1.429 . S
C2462 H2486 0.950 . S
C2463 C2480 1.574 . S
C2463 C2482 1.368 . S
C2463 H2487 0.949 . S
H2464 C2468 0.949 . S
C2465 C2466 1.349 . S
C2465 C2467 1.327 . S
C2465 H2488 0.950 . S
C2466 C2465 1.349 . S
C2466 C2478 1.349 . S
C2467 C2465 1.327 . S
C2467 C2483 1.429 . S
C2467 H2489 0.950 . S
C2468 H2464 0.949 . S
C2468 C2476 1.574 . S
C2468 C2484 1.368 . S
H2469 C2477 0.950 . S
H2470 C2475 0.950 . S
H2471 C2476 0.949 . S
H2472 C2478 0.950 . S
H2473 C2479 0.950 . S
H2474 C2480 0.949 . S
C2475 H2470 0.950 . S
C2475 C2477 1.327 . S
C2475 C2481 1.429 . S
C2476 C2468 1.574 . S
C2476 H2471 0.949 . S
C2476 C2482 1.368 . S
C2477 C2461 1.349 . S
C2477 H2469 0.950 . S
C2477 C2475 1.327 . S
C2478 C2466 1.349 . S
C2478 H2472 0.950 . S
C2478 C2479 1.327 . S
C2479 H2473 0.950 . S
C2479 C2478 1.327 . S
C2479 C2483 1.429 . S
C2480 C2463 1.574 . S
C2480 H2474 0.949 . S
C2480 C2484 1.368 . S
C2481 C2462 1.429 . S
C2481 C2475 1.429 . S
C2481 C2482 1.523 . S
C2482 C2463 1.368 . S
C2482 C2476 1.368 . S
C2482 C2481 1.523 . S
C2483 C2467 1.429 . S
C2483 C2479 1.429 . S
C2483 C2484 1.523 . S
C2484 C2468 1.368 . S
C2484 C2480 1.368 . S
C2484 C2483 1.523 . S
H2485 C2460 0.950 . S
H2486 C2462 0.950 . S
H2487 C2463 0.949 . S
H2488 C2465 0.950 . S
H2489 C2467 0.950 . S
C2490 C2491 1.349 . S
C2490 C2492 1.327 . S
C2490 H2515 0.950 . S
C2491 C2490 1.349 . S
C2491 C2507 1.349 . S
C2492 C2490 1.327 . S
C2492 C2511 1.429 . S
C2492 H2516 0.950 . S
C2493 C2510 1.574 . S
C2493 C2512 1.368 . S
C2493 H2517 0.949 . S
H2494 C2498 0.949 . S
C2495 C2496 1.349 . S
C2495 C2497 1.327 . S
C2495 H2518 0.950 . S
C2496 C2495 1.349 . S
C2496 C2508 1.349 . S
C2497 C2495 1.327 . S
C2497 C2513 1.429 . S
C2497 H2519 0.950 . S
C2498 H2494 0.949 . S
C2498 C2506 1.574 . S
C2498 C2514 1.368 . S
H2499 C2507 0.950 . S
H2500 C2505 0.950 . S
H2501 C2506 0.949 . S
H2502 C2508 0.950 . S
H2503 C2509 0.950 . S
H2504 C2510 0.949 . S
C2505 H2500 0.950 . S
C2505 C2507 1.327 . S
C2505 C2511 1.429 . S
C2506 C2498 1.574 . S
C2506 H2501 0.949 . S
C2506 C2512 1.368 . S
C2507 C2491 1.349 . S
C2507 H2499 0.950 . S
C2507 C2505 1.327 . S
C2508 C2496 1.349 . S
C2508 H2502 0.950 . S
C2508 C2509 1.327 . S
C2509 H2503 0.950 . S
C2509 C2508 1.327 . S
C2509 C2513 1.429 . S
C2510 C2493 1.574 . S
C2510 H2504 0.949 . S
C2510 C2514 1.368 . S
C2511 C2492 1.429 . S
C2511 C2505 1.429 . S
C2511 C2512 1.523 . S
C2512 C2493 1.368 . S
C2512 C2506 1.368 . S
C2512 C2511 1.523 . S
C2513 C2497 1.429 . S
C2513 C2509 1.429 . S
C2513 C2514 1.523 . S
C2514 C2498 1.368 . S
C2514 C2510 1.368 . S
C2514 C2513 1.523 . S
H2515 C2490 0.950 . S
H2516 C2492 0.950 . S
H2517 C2493 0.949 . S
H2518 C2495 0.950 . S
H2519 C2497 0.950 . S
C2520 C2521 1.349 . S
C2520 C2522 1.327 . S
C2520 H2545 0.950 . S
C2521 C2520 1.349 . S
C2521 C2537 1.349 . S
C2522 C2520 1.327 . S
C2522 C2541 1.429 . S
C2522 H2546 0.950 . S
C2523 C2540 1.574 . S
C2523 C2542 1.368 . S
C2523 H2547 0.949 . S
H2524 C2528 0.949 . S
C2525 C2526 1.349 . S
C2525 C2527 1.327 . S
C2525 H2548 0.950 . S
C2526 C2525 1.349 . S
C2526 C2538 1.349 . S
C2527 C2525 1.327 . S
C2527 C2543 1.429 . S
C2527 H2549 0.950 . S
C2528 H2524 0.949 . S
C2528 C2536 1.574 . S
C2528 C2544 1.368 . S
H2529 C2537 0.950 . S
H2530 C2535 0.950 . S
H2531 C2536 0.949 . S
H2532 C2538 0.950 . S
H2533 C2539 0.950 . S
H2534 C2540 0.949 . S
C2535 H2530 0.950 . S
C2535 C2537 1.327 . S
C2535 C2541 1.429 . S
C2536 C2528 1.574 . S
C2536 H2531 0.949 . S
C2536 C2542 1.368 . S
C2537 C2521 1.349 . S
C2537 H2529 0.950 . S
C2537 C2535 1.327 . S
C2538 C2526 1.349 . S
C2538 H2532 0.950 . S
C2538 C2539 1.327 . S
C2539 H2533 0.950 . S
C2539 C2538 1.327 . S
C2539 C2543 1.429 . S
C2540 C2523 1.574 . S
C2540 H2534 0.949 . S
C2540 C2544 1.368 . S
C2541 C2522 1.429 . S
C2541 C2535 1.429 . S
C2541 C2542 1.523 . S
C2542 C2523 1.368 . S
C2542 C2536 1.368 . S
C2542 C2541 1.523 . S
C2543 C2527 1.429 . S
C2543 C2539 1.429 . S
C2543 C2544 1.523 . S
C2544 C2528 1.368 . S
C2544 C2540 1.368 . S
C2544 C2543 1.523 . S
H2545 C2520 0.950 . S
H2546 C2522 0.950 . S
H2547 C2523 0.949 . S
H2548 C2525 0.950 . S
H2549 C2527 0.950 . S
C2550 C2551 1.349 . S
C2550 C2552 1.327 . S
C2550 H2575 0.950 . S
C2551 C2550 1.349 . S
C2551 C2567 1.349 . S
C2552 C2550 1.327 . S
C2552 C2571 1.429 . S
C2552 H2576 0.950 . S
C2553 C2570 1.574 . S
C2553 C2572 1.368 . S
C2553 H2577 0.949 . S
H2554 C2558 0.949 . S
C2555 C2556 1.349 . S
C2555 C2557 1.327 . S
C2555 H2578 0.950 . S
C2556 C2555 1.349 . S
C2556 C2568 1.349 . S
C2557 C2555 1.327 . S
C2557 C2573 1.429 . S
C2557 H2579 0.950 . S
C2558 H2554 0.949 . S
C2558 C2566 1.574 . S
C2558 C2574 1.368 . S
H2559 C2567 0.950 . S
H2560 C2565 0.950 . S
H2561 C2566 0.949 . S
H2562 C2568 0.950 . S
H2563 C2569 0.950 . S
H2564 C2570 0.949 . S
C2565 H2560 0.950 . S
C2565 C2567 1.327 . S
C2565 C2571 1.429 . S
C2566 C2558 1.574 . S
C2566 H2561 0.949 . S
C2566 C2572 1.368 . S
C2567 C2551 1.349 . S
C2567 H2559 0.950 . S
C2567 C2565 1.327 . S
C2568 C2556 1.349 . S
C2568 H2562 0.950 . S
C2568 C2569 1.327 . S
C2569 H2563 0.950 . S
C2569 C2568 1.327 . S
C2569 C2573 1.429 . S
C2570 C2553 1.574 . S
C2570 H2564 0.949 . S
C2570 C2574 1.368 . S
C2571 C2552 1.429 . S
C2571 C2565 1.429 . S
C2571 C2572 1.523 . S
C2572 C2553 1.368 . S
C2572 C2566 1.368 . S
C2572 C2571 1.523 . S
C2573 C2557 1.429 . S
C2573 C2569 1.429 . S
C2573 C2574 1.523 . S
C2574 C2558 1.368 . S
C2574 C2570 1.368 . S
C2574 C2573 1.523 . S
H2575 C2550 0.950 . S
H2576 C2552 0.950 . S
H2577 C2553 0.949 . S
H2578 C2555 0.950 . S
H2579 C2557 0.950 . S
C2580 C2581 1.349 . S
C2580 C2582 1.327 . S
C2580 H2605 0.950 . S
C2581 C2580 1.349 . S
C2581 C2597 1.349 . S
C2582 C2580 1.327 . S
C2582 C2601 1.429 . S
C2582 H2606 0.950 . S
C2583 C2600 1.574 . S
C2583 C2602 1.368 . S
C2583 H2607 0.949 . S
H2584 C2588 0.949 . S
C2585 C2586 1.349 . S
C2585 C2587 1.327 . S
C2585 H2608 0.950 . S
C2586 C2585 1.349 . S
C2586 C2598 1.349 . S
C2587 C2585 1.327 . S
C2587 C2603 1.429 . S
C2587 H2609 0.950 . S
C2588 H2584 0.949 . S
C2588 C2596 1.574 . S
C2588 C2604 1.368 . S
H2589 C2597 0.950 . S
H2590 C2595 0.950 . S
H2591 C2596 0.949 . S
H2592 C2598 0.950 . S
H2593 C2599 0.950 . S
H2594 C2600 0.949 . S
C2595 H2590 0.950 . S
C2595 C2597 1.327 . S
C2595 C2601 1.429 . S
C2596 C2588 1.574 . S
C2596 H2591 0.949 . S
C2596 C2602 1.368 . S
C2597 C2581 1.349 . S
C2597 H2589 0.950 . S
C2597 C2595 1.327 . S
C2598 C2586 1.349 . S
C2598 H2592 0.950 . S
C2598 C2599 1.327 . S
C2599 H2593 0.950 . S
C2599 C2598 1.327 . S
C2599 C2603 1.429 . S
C2600 C2583 1.574 . S
C2600 H2594 0.949 . S
C2600 C2604 1.368 . S
C2601 C2582 1.429 . S
C2601 C2595 1.429 . S
C2601 C2602 1.523 . S
C2602 C2583 1.368 . S
C2602 C2596 1.368 . S
C2602 C2601 1.523 . S
C2603 C2587 1.429 . S
C2603 C2599 1.429 . S
C2603 C2604 1.523 . S
C2604 C2588 1.368 . S
C2604 C2600 1.368 . S
C2604 C2603 1.523 . S
H2605 C2580 0.950 . S
H2606 C2582 0.950 . S
H2607 C2583 0.949 . S
H2608 C2585 0.950 . S
H2609 C2587 0.950 . S
C2610 C2611 1.349 . S
C2610 C2612 1.327 . S
C2610 H2635 0.950 . S
C2611 C2610 1.349 . S
C2611 C2627 1.349 . S
C2612 C2610 1.327 . S
C2612 C2631 1.429 . S
C2612 H2636 0.950 . S
C2613 C2630 1.574 . S
C2613 C2632 1.368 . S
C2613 H2637 0.949 . S
H2614 C2618 0.949 . S
C2615 C2616 1.349 . S
C2615 C2617 1.327 . S
C2615 H2638 0.950 . S
C2616 C2615 1.349 . S
C2616 C2628 1.349 . S
C2617 C2615 1.327 . S
C2617 C2633 1.429 . S
C2617 H2639 0.950 . S
C2618 H2614 0.949 . S
C2618 C2626 1.574 . S
C2618 C2634 1.368 . S
H2619 C2627 0.950 . S
H2620 C2625 0.950 . S
H2621 C2626 0.949 . S
H2622 C2628 0.950 . S
H2623 C2629 0.950 . S
H2624 C2630 0.949 . S
C2625 H2620 0.950 . S
C2625 C2627 1.327 . S
C2625 C2631 1.429 . S
C2626 C2618 1.574 . S
C2626 H2621 0.949 . S
C2626 C2632 1.368 . S
C2627 C2611 1.349 . S
C2627 H2619 0.950 . S
C2627 C2625 1.327 . S
C2628 C2616 1.349 . S
C2628 H2622 0.950 . S
C2628 C2629 1.327 . S
C2629 H2623 0.950 . S
C2629 C2628 1.327 . S
C2629 C2633 1.429 . S
C2630 C2613 1.574 . S
C2630 H2624 0.949 . S
C2630 C2634 1.368 . S
C2631 C2612 1.429 . S
C2631 C2625 1.429 . S
C2631 C2632 1.523 . S
C2632 C2613 1.368 . S
C2632 C2626 1.368 . S
C2632 C2631 1.523 . S
C2633 C2617 1.429 . S
C2633 C2629 1.429 . S
C2633 C2634 1.523 . S
C2634 C2618 1.368 . S
C2634 C2630 1.368 . S
C2634 C2633 1.523 . S
H2635 C2610 0.950 . S
H2636 C2612 0.950 . S
H2637 C2613 0.949 . S
H2638 C2615 0.950 . S
H2639 C2617 0.950 . S
C2640 C2641 1.349 . S
C2640 C2642 1.327 . S
C2640 H2665 0.950 . S
C2641 C2640 1.349 . S
C2641 C2657 1.349 . S
C2642 C2640 1.327 . S
C2642 C2661 1.429 . S
C2642 H2666 0.950 . S
C2643 C2660 1.574 . S
C2643 C2662 1.368 . S
C2643 H2667 0.949 . S
H2644 C2648 0.949 . S
C2645 C2646 1.349 . S
C2645 C2647 1.327 . S
C2645 H2668 0.950 . S
C2646 C2645 1.349 . S
C2646 C2658 1.349 . S
C2647 C2645 1.327 . S
C2647 C2663 1.429 . S
C2647 H2669 0.950 . S
C2648 H2644 0.949 . S
C2648 C2656 1.574 . S
C2648 C2664 1.368 . S
H2649 C2657 0.950 . S
H2650 C2655 0.950 . S
H2651 C2656 0.949 . S
H2652 C2658 0.950 . S
H2653 C2659 0.950 . S
H2654 C2660 0.949 . S
C2655 H2650 0.950 . S
C2655 C2657 1.327 . S
C2655 C2661 1.429 . S
C2656 C2648 1.574 . S
C2656 H2651 0.949 . S
C2656 C2662 1.368 . S
C2657 C2641 1.349 . S
C2657 H2649 0.950 . S
C2657 C2655 1.327 . S
C2658 C2646 1.349 . S
C2658 H2652 0.950 . S
C2658 C2659 1.327 . S
C2659 H2653 0.950 . S
C2659 C2658 1.327 . S
C2659 C2663 1.429 . S
C2660 C2643 1.574 . S
C2660 H2654 0.949 . S
C2660 C2664 1.368 . S
C2661 C2642 1.429 . S
C2661 C2655 1.429 . S
C2661 C2662 1.523 . S
C2662 C2643 1.368 . S
C2662 C2656 1.368 . S
C2662 C2661 1.523 . S
C2663 C2647 1.429 . S
C2663 C2659 1.429 . S
C2663 C2664 1.523 . S
C2664 C2648 1.368 . S
C2664 C2660 1.368 . S
C2664 C2663 1.523 . S
H2665 C2640 0.950 . S
H2666 C2642 0.950 . S
H2667 C2643 0.949 . S
H2668 C2645 0.950 . S
H2669 C2647 0.950 . S
C2670 C2671 1.349 . S
C2670 C2672 1.327 . S
C2670 H2695 0.950 . S
C2671 C2670 1.349 . S
C2671 C2687 1.349 . S
C2672 C2670 1.327 . S
C2672 C2691 1.429 . S
C2672 H2696 0.950 . S
C2673 C2690 1.574 . S
C2673 C2692 1.368 . S
C2673 H2697 0.949 . S
H2674 C2678 0.949 . S
C2675 C2676 1.349 . S
C2675 C2677 1.327 . S
C2675 H2698 0.950 . S
C2676 C2675 1.349 . S
C2676 C2688 1.349 . S
C2677 C2675 1.327 . S
C2677 C2693 1.429 . S
C2677 H2699 0.950 . S
C2678 H2674 0.949 . S
C2678 C2686 1.574 . S
C2678 C2694 1.368 . S
H2679 C2687 0.950 . S
H2680 C2685 0.950 . S
H2681 C2686 0.949 . S
H2682 C2688 0.950 . S
H2683 C2689 0.950 . S
H2684 C2690 0.949 . S
C2685 H2680 0.950 . S
C2685 C2687 1.327 . S
C2685 C2691 1.429 . S
C2686 C2678 1.574 . S
C2686 H2681 0.949 . S
C2686 C2692 1.368 . S
C2687 C2671 1.349 . S
C2687 H2679 0.950 . S
C2687 C2685 1.327 . S
C2688 C2676 1.349 . S
C2688 H2682 0.950 . S
C2688 C2689 1.327 . S
C2689 H2683 0.950 . S
C2689 C2688 1.327 . S
C2689 C2693 1.429 . S
C2690 C2673 1.574 . S
C2690 H2684 0.949 . S
C2690 C2694 1.368 . S
C2691 C2672 1.429 . S
C2691 C2685 1.429 . S
C2691 C2692 1.523 . S
C2692 C2673 1.368 . S
C2692 C2686 1.368 . S
C2692 C2691 1.523 . S
C2693 C2677 1.429 . S
C2693 C2689 1.429 . S
C2693 C2694 1.523 . S
C2694 C2678 1.368 . S
C2694 C2690 1.368 . S
C2694 C2693 1.523 . S
H2695 C2670 0.950 . S
H2696 C2672 0.950 . S
H2697 C2673 0.949 . S
H2698 C2675 0.950 . S
H2699 C2677 0.950 . S
C2700 C2701 1.349 . S
C2700 C2702 1.327 . S
C2700 H2725 0.950 . S
C2701 C2700 1.349 . S
C2701 C2717 1.349 . S
C2702 C2700 1.327 . S
C2702 C2721 1.429 . S
C2702 H2726 0.950 . S
C2703 C2720 1.574 . S
C2703 C2722 1.368 . S
C2703 H2727 0.949 . S
H2704 C2708 0.949 . S
C2705 C2706 1.349 . S
C2705 C2707 1.327 . S
C2705 H2728 0.950 . S
C2706 C2705 1.349 . S
C2706 C2718 1.349 . S
C2707 C2705 1.327 . S
C2707 C2723 1.429 . S
C2707 H2729 0.950 . S
C2708 H2704 0.949 . S
C2708 C2716 1.574 . S
C2708 C2724 1.368 . S
H2709 C2717 0.950 . S
H2710 C2715 0.950 . S
H2711 C2716 0.949 . S
H2712 C2718 0.950 . S
H2713 C2719 0.950 . S
H2714 C2720 0.949 . S
C2715 H2710 0.950 . S
C2715 C2717 1.327 . S
C2715 C2721 1.429 . S
C2716 C2708 1.574 . S
C2716 H2711 0.949 . S
C2716 C2722 1.368 . S
C2717 C2701 1.349 . S
C2717 H2709 0.950 . S
C2717 C2715 1.327 . S
C2718 C2706 1.349 . S
C2718 H2712 0.950 . S
C2718 C2719 1.327 . S
C2719 H2713 0.950 . S
C2719 C2718 1.327 . S
C2719 C2723 1.429 . S
C2720 C2703 1.574 . S
C2720 H2714 0.949 . S
C2720 C2724 1.368 . S
C2721 C2702 1.429 . S
C2721 C2715 1.429 . S
C2721 C2722 1.523 . S
C2722 C2703 1.368 . S
C2722 C2716 1.368 . S
C2722 C2721 1.523 . S
C2723 C2707 1.429 . S
C2723 C2719 1.429 . S
C2723 C2724 1.523 . S
C2724 C2708 1.368 . S
C2724 C2720 1.368 . S
C2724 C2723 1.523 . S
H2725 C2700 0.950 . S
H2726 C2702 0.950 . S
H2727 C2703 0.949 . S
H2728 C2705 0.950 . S
H2729 C2707 0.950 . S
C2730 C2731 1.349 . S
C2730 C2732 1.327 . S
C2730 H2755 0.950 . S
C2731 C2730 1.349 . S
C2731 C2747 1.349 . S
C2732 C2730 1.327 . S
C2732 C2751 1.429 . S
C2732 H2756 0.950 . S
C2733 C2750 1.574 . S
C2733 C2752 1.368 . S
C2733 H2757 0.949 . S
H2734 C2738 0.949 . S
C2735 C2736 1.349 . S
C2735 C2737 1.327 . S
C2735 H2758 0.950 . S
C2736 C2735 1.349 . S
C2736 C2748 1.349 . S
C2737 C2735 1.327 . S
C2737 C2753 1.429 . S
C2737 H2759 0.950 . S
C2738 H2734 0.949 . S
C2738 C2746 1.574 . S
C2738 C2754 1.368 . S
H2739 C2747 0.950 . S
H2740 C2745 0.950 . S
H2741 C2746 0.949 . S
H2742 C2748 0.950 . S
H2743 C2749 0.950 . S
H2744 C2750 0.949 . S
C2745 H2740 0.950 . S
C2745 C2747 1.327 . S
C2745 C2751 1.429 . S
C2746 C2738 1.574 . S
C2746 H2741 0.949 . S
C2746 C2752 1.368 . S
C2747 C2731 1.349 . S
C2747 H2739 0.950 . S
C2747 C2745 1.327 . S
C2748 C2736 1.349 . S
C2748 H2742 0.950 . S
C2748 C2749 1.327 . S
C2749 H2743 0.950 . S
C2749 C2748 1.327 . S
C2749 C2753 1.429 . S
C2750 C2733 1.574 . S
C2750 H2744 0.949 . S
C2750 C2754 1.368 . S
C2751 C2732 1.429 . S
C2751 C2745 1.429 . S
C2751 C2752 1.523 . S
C2752 C2733 1.368 . S
C2752 C2746 1.368 . S
C2752 C2751 1.523 . S
C2753 C2737 1.429 . S
C2753 C2749 1.429 . S
C2753 C2754 1.523 . S
C2754 C2738 1.368 . S
C2754 C2750 1.368 . S
C2754 C2753 1.523 . S
H2755 C2730 0.950 . S
H2756 C2732 0.950 . S
H2757 C2733 0.949 . S
H2758 C2735 0.950 . S
H2759 C2737 0.950 . S
C2760 C2761 1.349 . S
C2760 C2762 1.327 . S
C2760 H2785 0.950 . S
C2761 C2760 1.349 . S
C2761 C2777 1.349 . S
C2762 C2760 1.327 . S
C2762 C2781 1.429 . S
C2762 H2786 0.950 . S
C2763 C2780 1.574 . S
C2763 C2782 1.368 . S
C2763 H2787 0.949 . S
H2764 C2768 0.949 . S
C2765 C2766 1.349 . S
C2765 C2767 1.327 . S
C2765 H2788 0.950 . S
C2766 C2765 1.349 . S
C2766 C2778 1.349 . S
C2767 C2765 1.327 . S
C2767 C2783 1.429 . S
C2767 H2789 0.950 . S
C2768 H2764 0.949 . S
C2768 C2776 1.574 . S
C2768 C2784 1.368 . S
H2769 C2777 0.950 . S
H2770 C2775 0.950 . S
H2771 C2776 0.949 . S
H2772 C2778 0.950 . S
H2773 C2779 0.950 . S
H2774 C2780 0.949 . S
C2775 H2770 0.950 . S
C2775 C2777 1.327 . S
C2775 C2781 1.429 . S
C2776 C2768 1.574 . S
C2776 H2771 0.949 . S
C2776 C2782 1.368 . S
C2777 C2761 1.349 . S
C2777 H2769 0.950 . S
C2777 C2775 1.327 . S
C2778 C2766 1.349 . S
C2778 H2772 0.950 . S
C2778 C2779 1.327 . S
C2779 H2773 0.950 . S
C2779 C2778 1.327 . S
C2779 C2783 1.429 . S
C2780 C2763 1.574 . S
C2780 H2774 0.949 . S
C2780 C2784 1.368 . S
C2781 C2762 1.429 . S
C2781 C2775 1.429 . S
C2781 C2782 1.523 . S
C2782 C2763 1.368 . S
C2782 C2776 1.368 . S
C2782 C2781 1.523 . S
C2783 C2767 1.429 . S
C2783 C2779 1.429 . S
C2783 C2784 1.523 . S
C2784 C2768 1.368 . S
C2784 C2780 1.368 . S
C2784 C2783 1.523 . S
H2785 C2760 0.950 . S
H2786 C2762 0.950 . S
H2787 C2763 0.949 . S
H2788 C2765 0.950 . S
H2789 C2767 0.950 . S
C2790 C2791 1.349 . S
C2790 C2792 1.327 . S
C2790 H2815 0.950 . S
C2791 C2790 1.349 . S
C2791 C2807 1.349 . S
C2792 C2790 1.327 . S
C2792 C2811 1.429 . S
C2792 H2816 0.950 . S
C2793 C2810 1.574 . S
C2793 C2812 1.368 . S
C2793 H2817 0.949 . S
H2794 C2798 0.949 . S
C2795 C2796 1.349 . S
C2795 C2797 1.327 . S
C2795 H2818 0.950 . S
C2796 C2795 1.349 . S
C2796 C2808 1.349 . S
C2797 C2795 1.327 . S
C2797 C2813 1.429 . S
C2797 H2819 0.950 . S
C2798 H2794 0.949 . S
C2798 C2806 1.574 . S
C2798 C2814 1.368 . S
H2799 C2807 0.950 . S
H2800 C2805 0.950 . S
H2801 C2806 0.949 . S
H2802 C2808 0.950 . S
H2803 C2809 0.950 . S
H2804 C2810 0.949 . S
C2805 H2800 0.950 . S
C2805 C2807 1.327 . S
C2805 C2811 1.429 . S
C2806 C2798 1.574 . S
C2806 H2801 0.949 . S
C2806 C2812 1.368 . S
C2807 C2791 1.349 . S
C2807 H2799 0.950 . S
C2807 C2805 1.327 . S
C2808 C2796 1.349 . S
C2808 H2802 0.950 . S
C2808 C2809 1.327 . S
C2809 H2803 0.950 . S
C2809 C2808 1.327 . S
C2809 C2813 1.429 . S
C2810 C2793 1.574 . S
C2810 H2804 0.949 . S
C2810 C2814 1.368 . S
C2811 C2792 1.429 . S
C2811 C2805 1.429 . S
C2811 C2812 1.523 . S
C2812 C2793 1.368 . S
C2812 C2806 1.368 . S
C2812 C2811 1.523 . S
C2813 C2797 1.429 . S
C2813 C2809 1.429 . S
C2813 C2814 1.523 . S
C2814 C2798 1.368 . S
C2814 C2810 1.368 . S
C2814 C2813 1.523 . S
H2815 C2790 0.950 . S
H2816 C2792 0.950 . S
H2817 C2793 0.949 . S
H2818 C2795 0.950 . S
H2819 C2797 0.950 . S
C2820 C2821 1.349 . S
C2820 C2822 1.327 . S
C2820 H2845 0.950 . S
C2821 C2820 1.349 . S
C2821 C2837 1.349 . S
C2822 C2820 1.327 . S
C2822 C2841 1.429 . S
C2822 H2846 0.950 . S
C2823 C2840 1.574 . S
C2823 C2842 1.368 . S
C2823 H2847 0.949 . S
H2824 C2828 0.949 . S
C2825 C2826 1.349 . S
C2825 C2827 1.327 . S
C2825 H2848 0.950 . S
C2826 C2825 1.349 . S
C2826 C2838 1.349 . S
C2827 C2825 1.327 . S
C2827 C2843 1.429 . S
C2827 H2849 0.950 . S
C2828 H2824 0.949 . S
C2828 C2836 1.574 . S
C2828 C2844 1.368 . S
H2829 C2837 0.950 . S
H2830 C2835 0.950 . S
H2831 C2836 0.949 . S
H2832 C2838 0.950 . S
H2833 C2839 0.950 . S
H2834 C2840 0.949 . S
C2835 H2830 0.950 . S
C2835 C2837 1.327 . S
C2835 C2841 1.429 . S
C2836 C2828 1.574 . S
C2836 H2831 0.949 . S
C2836 C2842 1.368 . S
C2837 C2821 1.349 . S
C2837 H2829 0.950 . S
C2837 C2835 1.327 . S
C2838 C2826 1.349 . S
C2838 H2832 0.950 . S
C2838 C2839 1.327 . S
C2839 H2833 0.950 . S
C2839 C2838 1.327 . S
C2839 C2843 1.429 . S
C2840 C2823 1.574 . S
C2840 H2834 0.949 . S
C2840 C2844 1.368 . S
C2841 C2822 1.429 . S
C2841 C2835 1.429 . S
C2841 C2842 1.523 . S
C2842 C2823 1.368 . S
C2842 C2836 1.368 . S
C2842 C2841 1.523 . S
C2843 C2827 1.429 . S
C2843 C2839 1.429 . S
C2843 C2844 1.523 . S
C2844 C2828 1.368 . S
C2844 C2840 1.368 . S
C2844 C2843 1.523 . S
H2845 C2820 0.950 . S
H2846 C2822 0.950 . S
H2847 C2823 0.949 . S
H2848 C2825 0.950 . S
H2849 C2827 0.950 . S
C2850 C2851 1.349 . S
C2850 C2852 1.327 . S
C2850 H2875 0.950 . S
C2851 C2850 1.349 . S
C2851 C2867 1.349 . S
C2852 C2850 1.327 . S
C2852 C2871 1.429 . S
C2852 H2876 0.950 . S
C2853 C2870 1.574 . S
C2853 C2872 1.368 . S
C2853 H2877 0.949 . S
H2854 C2858 0.949 . S
C2855 C2856 1.349 . S
C2855 C2857 1.327 . S
C2855 H2878 0.950 . S
C2856 C2855 1.349 . S
C2856 C2868 1.349 . S
C2857 C2855 1.327 . S
C2857 C2873 1.429 . S
C2857 H2879 0.950 . S
C2858 H2854 0.949 . S
C2858 C2866 1.574 . S
C2858 C2874 1.368 . S
H2859 C2867 0.950 . S
H2860 C2865 0.950 . S
H2861 C2866 0.949 . S
H2862 C2868 0.950 . S
H2863 C2869 0.950 . S
H2864 C2870 0.949 . S
C2865 H2860 0.950 . S
C2865 C2867 1.327 . S
C2865 C2871 1.429 . S
C2866 C2858 1.574 . S
C2866 H2861 0.949 . S
C2866 C2872 1.368 . S
C2867 C2851 1.349 . S
C2867 H2859 0.950 . S
C2867 C2865 1.327 . S
C2868 C2856 1.349 . S
C2868 H2862 0.950 . S
C2868 C2869 1.327 . S
C2869 H2863 0.950 . S
C2869 C2868 1.327 . S
C2869 C2873 1.429 . S
C2870 C2853 1.574 . S
C2870 H2864 0.949 . S
C2870 C2874 1.368 . S
C2871 C2852 1.429 . S
C2871 C2865 1.429 . S
C2871 C2872 1.523 . S
C2872 C2853 1.368 . S
C2872 C2866 1.368 . S
C2872 C2871 1.523 . S
C2873 C2857 1.429 . S
C2873 C2869 1.429 . S
C2873 C2874 1.523 . S
C2874 C2858 1.368 . S
C2874 C2870 1.368 . S
C2874 C2873 1.523 . S
H2875 C2850 0.950 . S
H2876 C2852 0.950 . S
H2877 C2853 0.949 . S
H2878 C2855 0.950 . S
H2879 C2857 0.950 . S
C2880 C2881 1.349 . S
C2880 C2882 1.327 . S
C2880 H2905 0.950 . S
C2881 C2880 1.349 . S
C2881 C2897 1.349 . S
C2882 C2880 1.327 . S
C2882 C2901 1.429 . S
C2882 H2906 0.950 . S
C2883 C2900 1.574 1_455 S
C2883 C2902 1.368 . S
C2883 H2907 0.949 . S
H2884 C2888 0.949 . S
C2885 C2886 1.349 . S
C2885 C2887 1.327 . S
C2885 H2908 0.950 . S
C2886 C2885 1.349 . S
C2886 C2898 1.349 . S
C2887 C2885 1.327 . S
C2887 C2903 1.429 . S
C2887 H2909 0.950 . S
C2888 H2884 0.949 . S
C2888 C2896 1.574 1_655 S
C2888 C2904 1.368 . S
H2889 C2897 0.950 . S
H2890 C2895 0.950 . S
H2891 C2896 0.949 . S
H2892 C2898 0.950 . S
H2893 C2899 0.950 . S
H2894 C2900 0.949 . S
C2895 H2890 0.950 . S
C2895 C2897 1.327 . S
C2895 C2901 1.429 . S
C2896 C2888 1.574 1_455 S
C2896 H2891 0.949 . S
C2896 C2902 1.368 . S
C2897 C2881 1.349 . S
C2897 H2889 0.950 . S
C2897 C2895 1.327 . S
C2898 C2886 1.349 . S
C2898 H2892 0.950 . S
C2898 C2899 1.327 . S
C2899 H2893 0.950 . S
C2899 C2898 1.327 . S
C2899 C2903 1.429 . S
C2900 C2883 1.574 1_655 S
C2900 H2894 0.949 . S
C2900 C2904 1.368 . S
C2901 C2882 1.429 . S
C2901 C2895 1.429 . S
C2901 C2902 1.523 . S
C2902 C2883 1.368 . S
C2902 C2896 1.368 . S
C2902 C2901 1.523 . S
C2903 C2887 1.429 . S
C2903 C2899 1.429 . S
C2903 C2904 1.523 . S
C2904 C2888 1.368 . S
C2904 C2900 1.368 . S
C2904 C2903 1.523 . S
H2905 C2880 0.950 . S
H2906 C2882 0.950 . S
H2907 C2883 0.949 . S
H2908 C2885 0.950 . S
H2909 C2887 0.950 . S
C2910 C2911 1.349 . S
C2910 C2912 1.327 . S
C2910 H2935 0.950 . S
C2911 C2910 1.349 . S
C2911 C2927 1.349 . S
C2912 C2910 1.327 . S
C2912 C2931 1.429 . S
C2912 H2936 0.950 . S
C2913 C2930 1.574 . S
C2913 C2932 1.368 . S
C2913 H2937 0.949 . S
H2914 C2918 0.949 . S
C2915 C2916 1.349 . S
C2915 C2917 1.327 . S
C2915 H2938 0.950 . S
C2916 C2915 1.349 . S
C2916 C2928 1.349 . S
C2917 C2915 1.327 . S
C2917 C2933 1.429 . S
C2917 H2939 0.950 . S
C2918 H2914 0.949 . S
C2918 C2926 1.574 . S
C2918 C2934 1.368 . S
H2919 C2927 0.950 . S
H2920 C2925 0.950 . S
H2921 C2926 0.949 . S
H2922 C2928 0.950 . S
H2923 C2929 0.950 . S
H2924 C2930 0.949 . S
C2925 H2920 0.950 . S
C2925 C2927 1.327 . S
C2925 C2931 1.429 . S
C2926 C2918 1.574 . S
C2926 H2921 0.949 . S
C2926 C2932 1.368 . S
C2927 C2911 1.349 . S
C2927 H2919 0.950 . S
C2927 C2925 1.327 . S
C2928 C2916 1.349 . S
C2928 H2922 0.950 . S
C2928 C2929 1.327 . S
C2929 H2923 0.950 . S
C2929 C2928 1.327 . S
C2929 C2933 1.429 . S
C2930 C2913 1.574 . S
C2930 H2924 0.949 . S
C2930 C2934 1.368 . S
C2931 C2912 1.429 . S
C2931 C2925 1.429 . S
C2931 C2932 1.523 . S
C2932 C2913 1.368 . S
C2932 C2926 1.368 . S
C2932 C2931 1.523 . S
C2933 C2917 1.429 . S
C2933 C2929 1.429 . S
C2933 C2934 1.523 . S
C2934 C2918 1.368 . S
C2934 C2930 1.368 . S
C2934 C2933 1.523 . S
H2935 C2910 0.950 . S
H2936 C2912 0.950 . S
H2937 C2913 0.949 . S
H2938 C2915 0.950 . S
H2939 C2917 0.950 . S
C2940 C2941 1.349 . S
C2940 C2942 1.327 . S
C2940 H2965 0.950 . S
C2941 C2940 1.349 . S
C2941 C2957 1.349 . S
C2942 C2940 1.327 . S
C2942 C2961 1.429 . S
C2942 H2966 0.950 . S
C2943 C2960 1.574 . S
C2943 C2962 1.368 1_565 S
C2943 H2967 0.949 . S
H2944 C2948 0.949 . S
C2945 C2946 1.349 . S
C2945 C2947 1.327 . S
C2945 H2968 0.950 . S
C2946 C2945 1.349 . S
C2946 C2958 1.349 . S
C2947 C2945 1.327 . S
C2947 C2963 1.429 . S
C2947 H2969 0.950 . S
C2948 H2944 0.949 . S
C2948 C2956 1.574 . S
C2948 C2964 1.368 1_545 S
H2949 C2957 0.950 . S
H2950 C2955 0.950 . S
H2951 C2956 0.949 . S
H2952 C2958 0.950 . S
H2953 C2959 0.950 . S
H2954 C2960 0.949 . S
C2955 H2950 0.950 . S
C2955 C2957 1.327 . S
C2955 C2961 1.429 . S
C2956 C2948 1.574 . S
C2956 H2951 0.949 . S
C2956 C2962 1.368 . S
C2957 C2941 1.349 . S
C2957 H2949 0.950 . S
C2957 C2955 1.327 . S
C2958 C2946 1.349 . S
C2958 H2952 0.950 . S
C2958 C2959 1.327 . S
C2959 H2953 0.950 . S
C2959 C2958 1.327 . S
C2959 C2963 1.429 . S
C2960 C2943 1.574 . S
C2960 H2954 0.949 . S
C2960 C2964 1.368 . S
C2961 C2942 1.429 . S
C2961 C2955 1.429 . S
C2961 C2962 1.523 . S
C2962 C2943 1.368 1_545 S
C2962 C2956 1.368 . S
C2962 C2961 1.523 . S
C2963 C2947 1.429 . S
C2963 C2959 1.429 . S
C2963 C2964 1.523 . S
C2964 C2948 1.368 1_565 S
C2964 C2960 1.368 . S
C2964 C2963 1.523 . S
H2965 C2940 0.950 . S
H2966 C2942 0.950 . S
H2967 C2943 0.949 . S
H2968 C2945 0.950 . S
H2969 C2947 0.950 . S
C2970 C2971 1.349 . S
C2970 C2972 1.327 . S
C2970 H2995 0.950 . S
C2971 C2970 1.349 . S
C2971 C2987 1.349 . S
C2972 C2970 1.327 . S
C2972 C2991 1.429 . S
C2972 H2996 0.950 . S
C2973 C2990 1.598 . S
C2973 C2992 1.359 1_565 S
C2973 H2997 0.955 . S
H2974 C2978 0.955 . S
C2975 C2976 1.349 . S
C2975 C2977 1.327 . S
C2975 H2998 0.950 . S
C2976 C2975 1.349 . S
C2976 C2988 1.349 . S
C2977 C2975 1.327 . S
C2977 C2993 1.429 . S
C2977 H2999 0.950 . S
C2978 H2974 0.955 . S
C2978 C2986 1.598 . S
C2978 C2994 1.359 1_545 S
H2979 C2987 0.950 . S
H2980 C2985 0.950 . S
H2981 C2986 0.949 . S
H2982 C2988 0.950 . S
H2983 C2989 0.950 . S
H2984 C2990 0.949 . S
C2985 H2980 0.950 . S
C2985 C2987 1.327 . S
C2985 C2991 1.429 . S
C2986 C2978 1.598 . S
C2986 H2981 0.949 . S
C2986 C2992 1.368 1_556 S
C2987 C2971 1.349 . S
C2987 H2979 0.950 . S
C2987 C2985 1.327 . S
C2988 C2976 1.349 . S
C2988 H2982 0.950 . S
C2988 C2989 1.327 . S
C2989 H2983 0.950 . S
C2989 C2988 1.327 . S
C2989 C2993 1.429 . S
C2990 C2973 1.598 . S
C2990 H2984 0.949 . S
C2990 C2994 1.368 1_554 S
C2991 C2972 1.429 . S
C2991 C2985 1.429 . S
C2991 C2992 1.523 . S
C2992 C2973 1.359 1_545 S
C2992 C2986 1.368 1_554 S
C2992 C2991 1.523 . S
C2993 C2977 1.429 . S
C2993 C2989 1.429 . S
C2993 C2994 1.523 . S
C2994 C2978 1.359 1_565 S
C2994 C2990 1.368 1_556 S
C2994 C2993 1.523 . S
H2995 C2970 0.950 . S
H2996 C2972 0.950 . S
H2997 C2973 0.955 . S
H2998 C2975 0.950 . S
H2999 C2977 0.950 . S
C3000 C3001 1.349 . S
C3000 C3002 1.327 . S
C3000 H3025 0.950 . S
C3001 C3000 1.349 . S
C3001 C3017 1.349 . S
C3002 C3000 1.327 . S
C3002 C3021 1.429 . S
C3002 H3026 0.950 . S
C3003 C3020 1.528 1_456 S
C3003 C3022 1.410 . S
C3003 H3027 0.956 . S
H3004 C3008 0.956 . S
C3005 C3006 1.349 . S
C3005 C3007 1.327 . S
C3005 H3028 0.950 . S
C3006 C3005 1.349 . S
C3006 C3018 1.349 . S
C3007 C3005 1.327 . S
C3007 C3023 1.429 . S
C3007 H3029 0.950 . S
C3008 H3004 0.956 . S
C3008 C3016 1.528 1_654 S
C3008 C3024 1.410 . S
H3009 C3017 0.950 . S
H3010 C3015 0.950 . S
H3011 C3016 0.949 . S
H3012 C3018 0.950 . S
H3013 C3019 0.950 . S
H3014 C3020 0.949 . S
C3015 H3010 0.950 . S
C3015 C3017 1.327 . S
C3015 C3021 1.429 . S
C3016 C3008 1.528 1_456 S
C3016 H3011 0.949 . S
C3016 C3022 1.368 . S
C3017 C3001 1.349 . S
C3017 H3009 0.950 . S
C3017 C3015 1.327 . S
C3018 C3006 1.349 . S
C3018 H3012 0.950 . S
C3018 C3019 1.327 . S
C3019 H3013 0.950 . S
C3019 C3018 1.327 . S
C3019 C3023 1.429 . S
C3020 C3003 1.528 1_654 S
C3020 H3014 0.949 . S
C3020 C3024 1.368 . S
C3021 C3002 1.429 . S
C3021 C3015 1.429 . S
C3021 C3022 1.523 . S
C3022 C3003 1.410 . S
C3022 C3016 1.368 . S
C3022 C3021 1.523 . S
C3023 C3007 1.429 . S
C3023 C3019 1.429 . S
C3023 C3024 1.523 . S
C3024 C3008 1.410 . S
C3024 C3020 1.368 . S
C3024 C3023 1.523 . S
H3025 C3000 0.950 . S
H3026 C3002 0.950 . S
H3027 C3003 0.956 . S
H3028 C3005 0.950 . S
H3029 C3007 0.950 . S
C3030 C3031 1.349 . S
C3030 C3032 1.327 . S
C3030 H3055 0.950 . S
C3031 C3030 1.349 . S
C3031 C3047 1.349 . S
C3032 C3030 1.327 . S
C3032 C3051 1.429 . S
C3032 H3056 0.950 . S
C3033 C3050 1.574 . S
C3033 C3052 1.368 . S
C3033 H3057 0.949 . S
H3034 C3038 0.949 . S
C3035 C3036 1.349 . S
C3035 C3037 1.327 . S
C3035 H3058 0.950 . S
C3036 C3035 1.349 . S
C3036 C3048 1.349 . S
C3037 C3035 1.327 . S
C3037 C3053 1.429 . S
C3037 H3059 0.950 . S
C3038 H3034 0.949 . S
C3038 C3046 1.574 . S
C3038 C3054 1.368 . S
H3039 C3047 0.950 . S
H3040 C3045 0.950 . S
H3041 C3046 0.949 . S
H3042 C3048 0.950 . S
H3043 C3049 0.950 . S
H3044 C3050 0.949 . S
C3045 H3040 0.950 . S
C3045 C3047 1.327 . S
C3045 C3051 1.429 . S
C3046 C3038 1.574 . S
C3046 H3041 0.949 . S
C3046 C3052 1.368 1_556 S
C3047 C3031 1.349 . S
C3047 H3039 0.950 . S
C3047 C3045 1.327 . S
C3048 C3036 1.349 . S
C3048 H3042 0.950 . S
C3048 C3049 1.327 . S
C3049 H3043 0.950 . S
C3049 C3048 1.327 . S
C3049 C3053 1.429 . S
C3050 C3033 1.574 . S
C3050 H3044 0.949 . S
C3050 C3054 1.368 1_554 S
C3051 C3032 1.429 . S
C3051 C3045 1.429 . S
C3051 C3052 1.523 . S
C3052 C3033 1.368 . S
C3052 C3046 1.368 1_554 S
C3052 C3051 1.523 . S
C3053 C3037 1.429 . S
C3053 C3049 1.429 . S
C3053 C3054 1.523 . S
C3054 C3038 1.368 . S
C3054 C3050 1.368 1_556 S
C3054 C3053 1.523 . S
H3055 C3030 0.950 . S
H3056 C3032 0.950 . S
H3057 C3033 0.949 . S
H3058 C3035 0.950 . S
H3059 C3037 0.950 . S
C1441 C21 1.695 . S
C1446 C1181 1.695 . S
C1471 C61 1.695 . S
C1476 C1101 1.695 . S
C1501 C101 1.695 . S
C1506 C1141 1.695 . S
C1531 C141 1.695 . S
C1536 C541 1.695 . S
C1561 C581 1.695 . S
C1566 C181 1.695 . S
C1591 C221 1.696 . S
C1596 C501 1.696 . S
C1621 C261 1.755 . S
C1626 C941 1.755 . S
C1651 C301 1.756 . S
C1656 C861 1.756 . S
C1681 C341 1.756 . S
C1686 C901 1.756 . S
C1711 C1261 1.756 . S
C1716 C381 1.756 . S
C1741 C421 1.756 . S
C1746 C1301 1.756 . S
C1771 C461 1.756 . S
C1776 C1221 1.756 . S
C1801 C621 1.695 . S
C1806 C1021 1.695 . S
C1831 C661 1.695 . S
C1836 C1061 1.695 . S
C1861 C701 1.695 . S
C1866 C981 1.695 . S
C1891 C1421 1.756 . S
C1896 C741 1.756 . S
C1921 C781 1.756 . S
C1926 C1341 1.756 . S
C1951 C1381 1.756 . S
C1956 C821 1.756 . S
C1981 C2 1.691 . S
C1986 C162 1.691 . S
C2011 C202 1.691 . S
C2016 C42 1.691 . S
C2041 C122 1.691 . S
C2046 C82 1.691 . S
C2071 C402 1.724 . S
C2076 C242 1.724 . S
C2101 C282 1.724 . S
C2106 C442 1.724 . S
C2131 C362 1.724 . S
C2136 C322 1.724 . S
C2161 C482 1.691 . S
C2166 C642 1.691 . S
C2191 C522 1.691 . S
C2196 C682 1.691 . S
C2221 C602 1.691 . S
C2226 C562 1.691 . S
C2251 C722 1.725 . S
C2256 C882 1.725 . S
C2281 C762 1.725 . S
C2286 C922 1.725 . S
C2311 C842 1.725 . S
C2316 C802 1.725 . S
C2341 C962 1.691 . S
C2346 C1122 1.691 . S
C2371 C1002 1.691 . S
C2376 C1162 1.691 . S
C2401 C1042 1.691 . S
C2406 C1082 1.691 . S
C2431 C1362 1.725 . S
C2436 C1202 1.725 . S
C2461 C1242 1.725 . S
C2466 C1402 1.725 . S
C2491 C1322 1.725 . S
C2496 C1282 1.725 . S
C2521 C1215 1.867 . S
C2526 C15 1.860 . S
C2551 C1255 1.867 . S
C2556 C55 1.860 . S
C2581 C1295 1.868 . S
C2586 C95 1.861 . S
C2611 C135 1.861 . S
C2616 C855 1.868 . S
C2641 C895 1.867 . S
C2646 C175 1.860 . S
C2671 C215 1.860 . S
C2676 C935 1.867 . S
C2701 C495 1.860 . S
C2706 C255 1.867 . S
C2731 C535 1.860 . S
C2736 C295 1.867 . S
C2761 C575 1.861 . S
C2766 C335 1.868 . S
C2791 C1095 1.861 . S
C2796 C375 1.868 . S
C2821 C415 1.867 . S
C2826 C1135 1.860 . S
C2851 C455 1.867 . S
C2856 C1175 1.860 . S
C2881 C1335 1.867 . S
C2886 C615 1.860 . S
C2911 C1375 1.867 . S
C2916 C655 1.860 . S
C2941 C695 1.860 . S
C2946 C1415 1.867 . S
C2971 C735 1.867 . S
C2976 C975 1.860 . S
C3001 C1015 1.859 . S
C3006 C775 1.866 . S
C3031 C815 1.867 . S
C3036 C1055 1.860 . S
