# Generated by pormake.
# Topology wfu, (7)-cn, num edge types: 1
# Building blocks:
#     Node 0, Type 0, BuildingBlock: NUHQUE_clean_sbu_2, # of connection points: 7
#     Node 1, Type 0, BuildingBlock: NUHQUE_clean_sbu_2, # of connection points: 7
#     Node 2, Type 0, BuildingBlock: NUHQUE_clean_sbu_2, # of connection points: 7
#     Node 3, Type 0, BuildingBlock: NUHQUE_clean_sbu_2, # of connection points: 7
#     Node 4, Type 0, BuildingBlock: NUHQUE_clean_sbu_2, # of connection points: 7
#     Node 5, Type 0, BuildingBlock: NUHQUE_clean_sbu_2, # of connection points: 7
#     Node 6, Type 0, BuildingBlock: NUHQUE_clean_sbu_2, # of connection points: 7
#     Node 7, Type 0, BuildingBlock: NUHQUE_clean_sbu_2, # of connection points: 7
#     Edge 8, Type (0, 0), BuildingBlock: UVAHIK_clean_linker_0, # of connection points: 2
#     Edge 9, Type (0, 0), BuildingBlock: UVAHIK_clean_linker_0, # of connection points: 2
#     Edge 10, Type (0, 0), BuildingBlock: UVAHIK_clean_linker_0, # of connection points: 2
#     Edge 11, Type (0, 0), BuildingBlock: UVAHIK_clean_linker_0, # of connection points: 2
#     Edge 12, Type (0, 0), BuildingBlock: UVAHIK_clean_linker_0, # of connection points: 2
#     Edge 13, Type (0, 0), BuildingBlock: UVAHIK_clean_linker_0, # of connection points: 2
#     Edge 14, Type (0, 0), BuildingBlock: UVAHIK_clean_linker_0, # of connection points: 2
#     Edge 15, Type (0, 0), BuildingBlock: UVAHIK_clean_linker_0, # of connection points: 2
#     Edge 16, Type (0, 0), BuildingBlock: UVAHIK_clean_linker_0, # of connection points: 2
#     Edge 17, Type (0, 0), BuildingBlock: UVAHIK_clean_linker_0, # of connection points: 2
#     Edge 18, Type (0, 0), BuildingBlock: UVAHIK_clean_linker_0, # of connection points: 2
#     Edge 19, Type (0, 0), BuildingBlock: UVAHIK_clean_linker_0, # of connection points: 2
#     Edge 20, Type (0, 0), BuildingBlock: UVAHIK_clean_linker_0, # of connection points: 2
#     Edge 21, Type (0, 0), BuildingBlock: UVAHIK_clean_linker_0, # of connection points: 2
#     Edge 22, Type (0, 0), BuildingBlock: UVAHIK_clean_linker_0, # of connection points: 2
#     Edge 23, Type (0, 0), BuildingBlock: UVAHIK_clean_linker_0, # of connection points: 2
#     Edge 24, Type (0, 0), BuildingBlock: UVAHIK_clean_linker_0, # of connection points: 2
#     Edge 25, Type (0, 0), BuildingBlock: UVAHIK_clean_linker_0, # of connection points: 2
#     Edge 26, Type (0, 0), BuildingBlock: UVAHIK_clean_linker_0, # of connection points: 2
#     Edge 27, Type (0, 0), BuildingBlock: UVAHIK_clean_linker_0, # of connection points: 2
#     Edge 28, Type (0, 0), BuildingBlock: UVAHIK_clean_linker_0, # of connection points: 2
#     Edge 29, Type (0, 0), BuildingBlock: UVAHIK_clean_linker_0, # of connection points: 2
#     Edge 30, Type (0, 0), BuildingBlock: UVAHIK_clean_linker_0, # of connection points: 2
#     Edge 31, Type (0, 0), BuildingBlock: UVAHIK_clean_linker_0, # of connection points: 2
#     Edge 32, Type (0, 0), BuildingBlock: UVAHIK_clean_linker_0, # of connection points: 2
#     Edge 33, Type (0, 0), BuildingBlock: UVAHIK_clean_linker_0, # of connection points: 2
#     Edge 34, Type (0, 0), BuildingBlock: UVAHIK_clean_linker_0, # of connection points: 2
#     Edge 35, Type (0, 0), BuildingBlock: UVAHIK_clean_linker_0, # of connection points: 2
# Relax obj value: 0.189
# Max RMSD: 0.200
# Mean RMSD: 0.200
data_MOF--net-wfu--node1-NUHQUE_clean_sbu_2--edge1-UVAHIK_clean_linker_0
_symmetry_space_group_name_H-M    P1
_symmetry_Int_Tables_number       1
_symmetry_cell_setting            triclinic
loop_
_symmetry_equiv_pos_as_xyz
'x, y, z'
_cell_length_a     45.817163
_cell_length_b     45.867014
_cell_length_c     38.819619
_cell_angle_alpha  89.600012
_cell_angle_beta   89.671312
_cell_angle_gamma 90.055682
loop_
_atom_site_label
_atom_site_type_symbol
_atom_site_fract_x
_atom_site_fract_y
_atom_site_fract_z
_atom_type_partial_charge
O0 O 0.29977 0.46505 0.20864 0.0
Tb1 Tb 0.31118 0.42961 0.17407 0.0
Eu2 Eu 0.33759 0.36979 0.23248 0.0
C3 C 0.31545 0.4891 0.20731 0.0
O4 O 0.33834 0.48993 0.1868 0.0
C5 C 0.37009 0.4291 0.21412 0.0
O6 O 0.3781 0.34936 0.21003 0.0
C7 C 0.31964 0.34735 0.29053 0.0
C8 C 0.3824 0.35341 0.17681 0.0
O9 O 0.36318 0.36873 0.15945 0.0
C10 C 0.28757 0.36677 0.17469 0.0
C11 C 0.30167 0.32349 0.30528 0.0
C12 C 0.29101 0.32609 0.33925 0.0
C13 C 0.27533 0.30314 0.35474 0.0
C14 C 0.26987 0.27786 0.33591 0.0
C15 C 0.27978 0.27497 0.30179 0.0
C16 C 0.29599 0.29786 0.28661 0.0
O17 O 0.35805 0.42894 0.18343 0.0
O18 O 0.35865 0.414 0.23983 0.0
O19 O 0.29152 0.45918 0.13648 0.0
O20 O 0.32037 0.42628 0.11877 0.0
C21 C 0.3039 0.44799 0.10944 0.0
O22 O 0.3101 0.35354 0.18847 0.0
O23 O 0.28106 0.3937 0.18304 0.0
O24 O 0.34432 0.33993 0.2754 0.0
O25 O 0.30575 0.36856 0.27447 0.0
H26 H 0.29559 0.34558 0.35393 0.0
H27 H 0.25823 0.26001 0.34832 0.0
H28 H 0.30411 0.29578 0.26046 0.0
O29 O 0.46309 0.72094 0.79923 0.0
Tb30 Tb 0.43304 0.70476 0.83872 0.0
Eu31 Eu 0.37149 0.67569 0.7876 0.0
C32 C 0.48346 0.70406 0.78605 0.0
O33 O 0.48297 0.67602 0.79285 0.0
C34 C 0.43009 0.64202 0.80687 0.0
O35 O 0.34209 0.63988 0.80739 0.0
C36 C 0.3528 0.70006 0.73121 0.0
C37 C 0.34928 0.61226 0.80444 0.0
O38 O 0.37191 0.60523 0.78536 0.0
C39 C 0.36966 0.7247 0.84612 0.0
C40 C 0.32914 0.71861 0.71747 0.0
C41 C 0.33178 0.73013 0.68381 0.0
C42 C 0.30968 0.74786 0.67003 0.0
C43 C 0.28501 0.75402 0.69005 0.0
C44 C 0.28165 0.74213 0.7232 0.0
C45 C 0.30375 0.72433 0.73696 0.0
O46 O 0.43219 0.65726 0.83538 0.0
O47 O 0.41406 0.65118 0.78089 0.0
O48 O 0.46954 0.72142 0.8687 0.0
O49 O 0.43172 0.7066 0.8952 0.0
C50 C 0.45757 0.71784 0.8988 0.0
O51 O 0.35784 0.70043 0.8351 0.0
O52 O 0.39527 0.73313 0.8344 0.0
O53 O 0.34554 0.67347 0.74099 0.0
O54 O 0.37182 0.71255 0.75179 0.0
H55 H 0.35091 0.72523 0.66833 0.0
H56 H 0.26773 0.76735 0.67921 0.0
H57 H 0.30122 0.71503 0.76255 0.0
O58 O 0.72587 0.56083 0.22195 0.0
Tb59 Tb 0.69506 0.5924 0.20107 0.0
Eu60 Eu 0.66596 0.66248 0.2258 0.0
C61 C 0.7162 0.53926 0.2415 0.0
O62 O 0.68852 0.53885 0.25041 0.0
C63 C 0.63436 0.60092 0.2337 0.0
O64 O 0.63474 0.69668 0.20652 0.0
C65 C 0.68664 0.67508 0.28631 0.0
C66 C 0.64213 0.71663 0.18362 0.0
O67 O 0.66974 0.71999 0.17524 0.0
C68 C 0.72185 0.65251 0.17534 0.0
C69 C 0.70882 0.69454 0.30179 0.0
C70 C 0.71995 0.68835 0.33491 0.0
C71 C 0.73966 0.7077 0.35058 0.0
C72 C 0.74799 0.73318 0.33307 0.0
C73 C 0.73662 0.74012 0.30054 0.0
C74 C 0.71717 0.72057 0.28487 0.0
O75 O 0.66044 0.59047 0.24002 0.0
O76 O 0.63148 0.62774 0.22259 0.0
O77 O 0.68958 0.55556 0.16664 0.0
O78 O 0.67335 0.59685 0.1508 0.0
C79 C 0.67644 0.56961 0.14211 0.0
O80 O 0.69837 0.66784 0.18264 0.0
O81 O 0.72713 0.6265 0.1889 0.0
O82 O 0.66406 0.68823 0.27238 0.0
O83 O 0.69605 0.65279 0.26807 0.0
H84 H 0.71295 0.66889 0.34864 0.0
H85 H 0.76234 0.74848 0.34581 0.0
H86 H 0.70815 0.72587 0.25984 0.0
O87 O 0.54826 0.28772 0.83448 0.0
Tb88 Tb 0.58879 0.30544 0.85467 0.0
Eu89 Eu 0.64677 0.34304 0.79268 0.0
C90 C 0.53812 0.29297 0.8034 0.0
O91 O 0.55363 0.30864 0.78157 0.0
C92 C 0.58215 0.36472 0.81186 0.0
O93 O 0.65555 0.38412 0.82287 0.0
C94 C 0.67248 0.33496 0.73359 0.0
C95 C 0.64942 0.38173 0.85597 0.0
O96 O 0.63997 0.35641 0.86739 0.0
C97 C 0.65294 0.28939 0.84454 0.0
C98 C 0.69678 0.31765 0.71864 0.0
C99 C 0.6934 0.30498 0.68578 0.0
C100 C 0.71546 0.28718 0.67168 0.0
C101 C 0.74102 0.28268 0.69066 0.0
C102 C 0.74491 0.2951 0.72321 0.0
C103 C 0.72276 0.31275 0.73712 0.0
O104 O 0.57994 0.35102 0.84181 0.0
O105 O 0.5991 0.35533 0.78662 0.0
O106 O 0.57555 0.28034 0.90007 0.0
O107 O 0.59747 0.32057 0.90711 0.0
C108 C 0.58534 0.29848 0.9228 0.0
O109 O 0.66618 0.3123 0.83154 0.0
O110 O 0.62653 0.28293 0.83406 0.0
O111 O 0.67919 0.35656 0.7544 0.0
O112 O 0.64955 0.31989 0.74402 0.0
H113 H 0.67343 0.30853 0.67153 0.0
H114 H 0.75857 0.2699 0.67954 0.0
H115 H 0.72557 0.3222 0.7624 0.0
O116 O 0.79784 0.05683 0.31969 0.0
Tb117 Tb 0.80878 0.09391 0.35187 0.0
Eu118 Eu 0.84239 0.15031 0.29163 0.0
C119 C 0.81258 0.03249 0.32424 0.0
O120 O 0.83379 0.03218 0.34686 0.0
C121 C 0.86874 0.08919 0.31365 0.0
O122 O 0.88364 0.16964 0.31322 0.0
C123 C 0.82589 0.17154 0.23261 0.0
C124 C 0.88781 0.16547 0.3464 0.0
O125 O 0.8682 0.15055 0.36394 0.0
C126 C 0.79285 0.15847 0.34901 0.0
C127 C 0.81226 0.19727 0.21619 0.0
C128 C 0.79927 0.19437 0.18349 0.0
C129 C 0.78909 0.21909 0.1656 0.0
C130 C 0.79165 0.24655 0.18084 0.0
C131 C 0.80385 0.24969 0.21359 0.0
C132 C 0.81399 0.225 0.23143 0.0
O133 O 0.8559 0.09081 0.34401 0.0
O134 O 0.85858 0.10387 0.28706 0.0
O135 O 0.78222 0.07142 0.39065 0.0
O136 O 0.81879 0.09619 0.40684 0.0
C137 C 0.79722 0.07979 0.41712 0.0
O138 O 0.81671 0.16976 0.33566 0.0
O139 O 0.78398 0.13273 0.3388 0.0
O140 O 0.85225 0.17518 0.24525 0.0
O141 O 0.80906 0.15469 0.25191 0.0
H142 H 0.79808 0.17314 0.17148 0.0
H143 H 0.78394 0.26572 0.16711 0.0
H144 H 0.82397 0.22748 0.2565 0.0
O145 O 0.04911 0.22193 0.69011 0.0
Tb146 Tb 0.09024 0.20536 0.67004 0.0
Eu147 Eu 0.14698 0.17123 0.73544 0.0
C148 C 0.04003 0.21885 0.72213 0.0
O149 O 0.05653 0.20527 0.74465 0.0
C150 C 0.08425 0.14535 0.71193 0.0
O151 O 0.1651 0.12922 0.7145 0.0
C152 C 0.16692 0.18701 0.79511 0.0
C153 C 0.16608 0.1268 0.68078 0.0
O154 O 0.15637 0.1484 0.66167 0.0
C155 C 0.15345 0.22184 0.68075 0.0
C156 C 0.19017 0.20537 0.81012 0.0
C157 C 0.18603 0.21718 0.84324 0.0
C158 C 0.20733 0.23537 0.85774 0.0
C159 C 0.23287 0.24141 0.83909 0.0
C160 C 0.23784 0.22933 0.80644 0.0
C161 C 0.2163 0.21128 0.79196 0.0
O162 O 0.08312 0.15928 0.68204 0.0
O163 O 0.10027 0.15435 0.73808 0.0
O164 O 0.07829 0.23135 0.625 0.0
O165 O 0.09967 0.19093 0.61737 0.0
C166 C 0.08819 0.21343 0.60198 0.0
O167 O 0.16709 0.19947 0.69408 0.0
O168 O 0.12712 0.2277 0.69204 0.0
O169 O 0.17512 0.16297 0.77944 0.0
O170 O 0.14578 0.20089 0.77905 0.0
H171 H 0.16621 0.2124 0.8576 0.0
H172 H 0.24963 0.2547 0.85087 0.0
H173 H 0.21981 0.20198 0.76668 0.0
O174 O 0.22501 0.96523 0.31419 0.0
Tb175 Tb 0.20476 0.92958 0.34306 0.0
Eu176 Eu 0.17388 0.86967 0.2874 0.0
C177 C 0.21321 0.97862 0.28761 0.0
O178 O 0.18906 0.96843 0.27425 0.0
C179 C 0.14291 0.93128 0.3053 0.0
O180 O 0.13396 0.84532 0.30535 0.0
C181 C 0.19608 0.85016 0.23019 0.0
C182 C 0.13603 0.81909 0.31893 0.0
O183 O 0.16131 0.8056 0.31801 0.0
C184 C 0.22333 0.86627 0.34424 0.0
C185 C 0.21483 0.8269 0.2159 0.0
C186 C 0.22612 0.83013 0.1822 0.0
C187 C 0.24278 0.80779 0.16725 0.0
C188 C 0.24852 0.7825 0.18632 0.0
C189 C 0.2375 0.77882 0.21988 0.0
C190 C 0.2204 0.80104 0.23458 0.0
O191 O 0.15818 0.93504 0.33364 0.0
O192 O 0.15091 0.91317 0.28068 0.0
O193 O 0.22345 0.95657 0.38333 0.0
O194 O 0.19733 0.92036 0.39805 0.0
C195 C 0.21264 0.94218 0.40932 0.0
O196 O 0.19909 0.85413 0.33376 0.0
O197 O 0.23107 0.89167 0.33145 0.0
O198 O 0.17041 0.84211 0.24232 0.0
O199 O 0.20881 0.87035 0.24888 0.0
H200 H 0.22137 0.84965 0.16735 0.0
H201 H 0.261 0.76511 0.17446 0.0
H202 H 0.21145 0.79821 0.2603 0.0
O203 O 0.96566 0.79919 0.71128 0.0
Tb204 Tb 0.93144 0.80801 0.67389 0.0
Eu205 Eu 0.87034 0.83512 0.72905 0.0
C206 C 0.98841 0.81674 0.71196 0.0
O207 O 0.98847 0.83995 0.69198 0.0
C208 C 0.92863 0.86912 0.70898 0.0
O209 O 0.84683 0.87378 0.7064 0.0
C210 C 0.8494 0.81595 0.78737 0.0
C211 C 0.85164 0.87858 0.67343 0.0
O212 O 0.8696 0.86116 0.65699 0.0
C213 C 0.86831 0.78511 0.67108 0.0
C214 C 0.82635 0.79713 0.80247 0.0
C215 C 0.82989 0.78618 0.83621 0.0
C216 C 0.8084 0.76829 0.85138 0.0
C217 C 0.78317 0.76182 0.83273 0.0
C218 C 0.77891 0.77279 0.79921 0.0
C219 C 0.80076 0.79047 0.78412 0.0
O220 O 0.92916 0.85531 0.67936 0.0
O221 O 0.91345 0.85881 0.7353 0.0
O222 O 0.96267 0.78574 0.64054 0.0
O223 O 0.93237 0.81507 0.618 0.0
C224 C 0.9539 0.79736 0.61182 0.0
O225 O 0.85495 0.8077 0.68449 0.0
O226 O 0.89487 0.77823 0.68076 0.0
O227 O 0.84098 0.84051 0.77273 0.0
O228 O 0.87072 0.80285 0.77059 0.0
H229 H 0.84938 0.7915 0.85059 0.0
H230 H 0.76616 0.74901 0.84514 0.0
H231 H 0.79793 0.79899 0.75824 0.0
C232 C 0.27187 0.32136 0.14422 0.0
C233 C 0.27114 0.35187 0.14701 0.0
C234 C 0.25938 0.30742 0.11589 0.0
C235 C 0.21195 0.32017 0.03827 0.0
H236 H 0.25328 0.25254 1.00389 0.0
C237 C 0.20553 0.27772 0.89791 0.0
C238 C 0.20436 0.24743 0.89297 0.0
C239 C 0.2084 0.28926 0.93102 0.0
C240 C 0.24122 0.27115 0.01341 0.0
H241 H 0.25634 0.39168 0.12238 0.0
H242 H 0.23556 0.36766 0.07245 0.0
H243 H 0.26881 0.275 0.05726 0.0
H244 H 0.20461 0.20544 0.91866 0.0
H245 H 0.21008 0.22558 0.97674 0.0
H246 H 0.1854 0.31695 0.99303 0.0
C247 C 0.24492 0.3542 0.09255 0.0
C248 C 0.25004 0.28407 0.04422 0.0
C249 C 0.25695 0.36809 0.12124 0.0
C250 C 0.20505 0.22888 0.92187 0.0
C251 C 0.20846 0.2404 0.955 0.0
C252 C 0.20344 0.30749 1.00712 0.0
C253 C 0.24635 0.32364 0.08912 0.0
C254 C 0.23571 0.30894 0.0571 0.0
C255 C 0.21077 0.27071 0.95985 0.0
C256 C 0.21809 0.28292 0.99423 0.0
H257 H 0.28248 0.30821 0.16376 0.0
H258 H 0.26032 0.28386 0.11488 0.0
H259 H 0.1999 0.33888 0.04746 0.0
H260 H 0.20538 0.29244 0.87596 0.0
H261 H 0.21036 0.31266 0.93383 0.0
C262 C 0.37087 0.76133 0.89424 0.0
C263 C 0.35538 0.74065 0.87492 0.0
C264 C 0.35828 0.77391 0.92363 0.0
C265 C 0.28725 0.78561 0.96881 0.0
H266 H 0.33487 0.7892 0.05089 0.0
C267 C 0.23785 0.79374 0.1057 0.0
C268 C 0.25297 0.80924 0.13101 0.0
C269 C 0.24982 0.79031 0.07273 0.0
C270 C 0.32133 0.7889 0.02812 0.0
H271 H 0.3141 0.71779 0.87086 0.0
H272 H 0.29225 0.73968 0.92178 0.0
H273 H 0.35678 0.77423 0.99647 0.0
H274 H 0.2922 0.83361 0.14191 0.0
H275 H 0.31314 0.82813 0.08397 0.0
H276 H 0.25167 0.79979 1.00057 0.0
C277 C 0.31406 0.74634 0.91424 0.0
C278 C 0.33394 0.78026 0.99683 0.0
C279 C 0.32669 0.73363 0.88506 0.0
C280 C 0.27995 0.82197 0.12256 0.0
C281 C 0.29204 0.81848 0.08954 0.0
C282 C 0.27465 0.79431 1.00007 0.0
C283 C 0.32982 0.76632 0.93426 0.0
C284 C 0.31696 0.77802 0.96686 0.0
C285 C 0.27739 0.80209 0.06435 0.0
C286 C 0.29139 0.79561 0.03032 0.0
H287 H 0.39306 0.76716 0.88731 0.0
H288 H 0.37096 0.78943 0.9382 0.0
H289 H 0.2736 0.78465 0.94616 0.0
H290 H 0.21726 0.78326 0.11191 0.0
H291 H 0.23805 0.77719 0.05434 0.0
C292 C 0.81311 0.77607 0.91513 0.0
C293 C 0.81098 0.75691 0.8872 0.0
C294 C 0.81006 0.76563 0.94904 0.0
C295 C 0.81096 0.69932 1.00422 0.0
H296 H 0.75116 0.73912 0.05681 0.0
C297 C 0.75422 0.64648 0.12351 0.0
C298 C 0.74172 0.66463 0.14855 0.0
C299 C 0.76779 0.6585 0.09416 0.0
C300 C 0.76844 0.72798 0.0431 0.0
H301 H 0.80558 0.71173 0.87276 0.0
H302 H 0.80103 0.69339 0.93187 0.0
H303 H 0.76676 0.75893 1.00157 0.0
H304 H 0.73554 0.70952 0.16383 0.0
H305 H 0.76059 0.73046 0.11406 0.0
H306 H 0.81283 0.6684 0.04574 0.0
C307 C 0.80488 0.71645 0.9277 0.0
C308 C 0.7773 0.7394 1.01119 0.0
C309 C 0.80742 0.72694 0.89387 0.0
C310 C 0.74479 0.69496 0.14482 0.0
C311 C 0.75887 0.70696 0.11594 0.0
C312 C 0.80243 0.6881 0.03647 0.0
C313 C 0.80533 0.73576 0.95566 0.0
C314 C 0.79833 0.72501 0.99111 0.0
C315 C 0.76961 0.68899 0.08945 0.0
C316 C 0.78068 0.70201 0.05624 0.0
H317 H 0.81556 0.79929 0.91068 0.0
H318 H 0.81067 0.78102 0.97006 0.0
H319 H 0.82737 0.68782 0.98943 0.0
H320 H 0.75183 0.62302 0.12545 0.0
H321 H 0.77543 0.64378 0.0744 0.0
C322 C 0.75022 0.20333 0.12402 0.0
C323 C 0.77691 0.21737 0.13032 0.0
C324 C 0.73627 0.20674 0.09206 0.0
C325 C 0.73433 0.25975 0.01968 0.0
H326 H 0.69006 0.20079 0.97145 0.0
C327 C 0.69583 0.28062 0.88251 0.0
C328 C 0.66658 0.27445 0.87452 0.0
C329 C 0.70826 0.27029 0.91294 0.0
C330 C 0.70214 0.21752 0.98483 0.0
H331 H 0.81086 0.24431 0.10779 0.0
H332 H 0.78732 0.24946 0.05199 0.0
H333 H 0.7144 0.18831 0.02583 0.0
H334 H 0.62802 0.25091 0.89153 0.0
H335 H 0.64985 0.23292 0.94533 0.0
H336 H 0.72238 0.28892 0.97903 0.0
C337 C 0.77652 0.23656 0.07176 0.0
C338 C 0.71609 0.21039 0.01596 0.0
C339 C 0.79022 0.23337 0.1036 0.0
C340 C 0.65053 0.25623 0.897 0.0
C341 C 0.66306 0.24586 0.92776 0.0
C342 C 0.72058 0.26678 0.98875 0.0
C343 C 0.74887 0.2242 0.06589 0.0
C344 C 0.73282 0.23135 0.03347 0.0
C345 C 0.69186 0.2535 0.93648 0.0
C346 C 0.70472 0.24571 0.97056 0.0
H347 H 0.73942 0.19109 0.14437 0.0
H348 H 0.715 0.19694 0.08851 0.0
H349 H 0.74613 0.27678 0.03288 0.0
H350 H 0.70907 0.29419 0.86563 0.0
H351 H 0.73071 0.27599 0.91839 0.0
C352 C 0.7528 0.16172 0.39383 0.0
C353 C 0.77809 0.1734 0.37831 0.0
C354 C 0.74044 0.17476 0.4231 0.0
C355 C 0.74285 0.24289 0.47647 0.0
H356 H 0.71243 0.19186 0.54805 0.0
C357 C 0.70424 0.28919 0.6079 0.0
C358 C 0.71293 0.27321 0.63712 0.0
C359 C 0.70667 0.27706 0.57482 0.0
C360 C 0.72096 0.20652 0.52846 0.0
H361 H 0.80995 0.20829 0.38146 0.0
H362 H 0.78904 0.23042 0.43252 0.0
H363 H 0.72835 0.17135 0.49358 0.0
H364 H 0.72898 0.23123 0.65459 0.0
H365 H 0.73385 0.21052 0.59759 0.0
H366 H 0.73705 0.27783 0.51211 0.0
C367 C 0.77816 0.21162 0.42181 0.0
C368 C 0.72975 0.19473 0.49683 0.0
C369 C 0.79035 0.19874 0.39247 0.0
C370 C 0.72244 0.24431 0.63262 0.0
C371 C 0.72495 0.23228 0.59975 0.0
C372 C 0.73431 0.25465 0.50822 0.0
C373 C 0.75315 0.19973 0.43783 0.0
C374 C 0.74134 0.21265 0.47051 0.0
C375 C 0.71777 0.24864 0.5702 0.0
C376 C 0.72373 0.23658 0.53499 0.0
H377 H 0.74274 0.14223 0.38366 0.0
H378 H 0.72094 0.16513 0.43424 0.0
H379 H 0.75105 0.25759 0.45673 0.0
H380 H 0.69687 0.3115 0.61043 0.0
H381 H 0.70038 0.29021 0.55282 0.0
C382 C 0.15015 0.25764 0.63108 0.0
C383 C 0.16593 0.23653 0.64969 0.0
C384 C 0.16183 0.27008 0.60083 0.0
C385 C 0.23224 0.28047 0.55347 0.0
H386 H 0.1834 0.28861 0.47278 0.0
C387 C 0.27891 0.28592 0.41554 0.0
C388 C 0.26555 0.30415 0.39114 0.0
C389 C 0.26712 0.28286 0.44867 0.0
C390 C 0.19726 0.28696 0.49521 0.0
H391 H 0.20661 0.21237 0.65122 0.0
H392 H 0.22673 0.23377 0.59896 0.0
H393 H 0.16163 0.27338 0.52764 0.0
H394 H 0.22964 0.3337 0.38203 0.0
H395 H 0.20878 0.32841 0.44026 0.0
H396 H 0.26798 0.29319 0.52088 0.0
C397 C 0.20548 0.24106 0.60771 0.0
C398 C 0.18476 0.27821 0.52671 0.0
C399 C 0.1938 0.22859 0.63768 0.0
C400 C 0.24053 0.31986 0.40066 0.0
C401 C 0.22848 0.31656 0.4338 0.0
C402 C 0.24471 0.28908 0.52203 0.0
C403 C 0.18969 0.26191 0.58874 0.0
C404 C 0.20221 0.27423 0.55609 0.0
C405 C 0.24142 0.29766 0.45806 0.0
C406 C 0.22751 0.29186 0.49231 0.0
H407 H 0.12867 0.26434 0.63966 0.0
H408 H 0.14912 0.28621 0.58703 0.0
H409 H 0.24627 0.2783 0.57569 0.0
H410 H 0.29796 0.27325 0.40854 0.0
H411 H 0.27745 0.26783 0.46644 0.0
C412 C 0.25686 0.87109 0.39503 0.0
C413 C 0.23884 0.85366 0.37438 0.0
C414 C 0.26902 0.85983 0.4254 0.0
C415 C 0.28828 0.79142 0.4707 0.0
H416 H 0.27704 0.83638 0.55386 0.0
C417 C 0.30276 0.74094 0.60685 0.0
C418 C 0.31082 0.75904 0.63416 0.0
C419 C 0.29812 0.75263 0.57387 0.0
C420 C 0.28104 0.82368 0.53092 0.0
H421 H 0.22032 0.81044 0.36886 0.0
H422 H 0.24207 0.79065 0.42137 0.0
H423 H 0.26182 0.85651 0.49868 0.0
H424 H 0.32125 0.80325 0.64854 0.0
H425 H 0.31474 0.82362 0.59074 0.0
H426 H 0.30775 0.75868 0.50267 0.0
C427 C 0.24666 0.81306 0.41419 0.0
C428 C 0.27213 0.83527 0.4992 0.0
C429 C 0.2341 0.82445 0.38417 0.0
C430 C 0.31534 0.78883 0.62771 0.0
C431 C 0.31113 0.80051 0.59466 0.0
C432 C 0.29758 0.77997 0.50237 0.0
C433 C 0.26388 0.83073 0.43548 0.0
C434 C 0.27528 0.81914 0.46877 0.0
C435 C 0.30164 0.78274 0.56739 0.0
C436 C 0.29375 0.79575 0.5331 0.0
H437 H 0.26084 0.89372 0.38835 0.0
H438 H 0.28233 0.87394 0.44114 0.0
H439 H 0.29131 0.77858 0.44764 0.0
H440 H 0.29856 0.71798 0.61144 0.0
H441 H 0.29042 0.7382 0.55395 0.0
C442 C 0.82433 0.77344 0.63513 0.0
C443 C 0.85408 0.76908 0.64242 0.0
C444 C 0.8116 0.76116 0.60585 0.0
C445 C 0.83092 0.73624 0.5187 0.0
H446 H 0.75246 0.70455 0.51839 0.0
C447 C 0.77996 0.69664 0.39178 0.0
C448 C 0.75049 0.70343 0.38623 0.0
C449 C 0.79225 0.69943 0.42459 0.0
C450 C 0.7743 0.71356 0.51784 0.0
H451 H 0.89356 0.74772 0.62472 0.0
H452 H 0.87137 0.72639 0.5736 0.0
H453 H 0.77442 0.71948 0.57266 0.0
H454 H 0.71065 0.71814 0.41051 0.0
H455 H 0.73195 0.72354 0.46767 0.0
H456 H 0.83063 0.73151 0.46399 0.0
C457 C 0.85789 0.73939 0.59058 0.0
C458 C 0.78694 0.72206 0.54908 0.0
C459 C 0.87057 0.75142 0.6201 0.0
C460 C 0.73325 0.71206 0.41435 0.0
C461 C 0.74559 0.71522 0.44713 0.0
C462 C 0.81822 0.72803 0.48747 0.0
C463 C 0.82833 0.74444 0.58279 0.0
C464 C 0.81536 0.73371 0.54991 0.0
C465 C 0.77552 0.70973 0.45259 0.0
C466 C 0.78961 0.71672 0.48643 0.0
H467 H 0.81096 0.78696 0.65166 0.0
H468 H 0.78887 0.76574 0.60057 0.0
H469 H 0.85265 0.74556 0.51821 0.0
H470 H 0.7938 0.69037 0.37036 0.0
H471 H 0.81515 0.69432 0.4277 0.0
C472 C 0.5661 0.2713 0.9737 0.0
C473 C 0.57749 0.29718 0.95962 0.0
C474 C 0.55213 0.27144 1.00576 0.0
C475 C 0.53218 0.31818 0.08119 0.0
H476 H 0.45731 0.27981 0.07083 0.0
C477 C 0.40702 0.33873 0.1225 0.0
C478 C 0.40789 0.34113 0.15851 0.0
C479 C 0.43103 0.32833 0.10425 0.0
C480 C 0.47823 0.29039 0.07433 0.0
H481 H 0.58568 0.34293 0.96907 0.0
H482 H 0.5605 0.3435 0.0246 0.0
H483 H 0.49589 0.27072 0.02929 0.0
H484 H 0.43463 0.33451 0.20376 0.0
H485 H 0.4773 0.31661 0.17139 0.0
H486 H 0.51335 0.33922 0.1253 0.0
C487 C 0.56266 0.32293 0.01132 0.0
C488 C 0.50054 0.28497 0.0507 0.0
C489 C 0.57701 0.32267 0.9794 0.0
C490 C 0.43335 0.33272 0.17601 0.0
C491 C 0.45773 0.32264 0.15755 0.0
C492 C 0.50973 0.32357 0.105 0.0
C493 C 0.54884 0.2976 0.02411 0.0
C494 C 0.52752 0.29948 0.05313 0.0
C495 C 0.45669 0.3203 0.12147 0.0
C496 C 0.48222 0.3105 0.10098 0.0
H497 H 0.56655 0.25127 0.95908 0.0
H498 H 0.54244 0.25137 0.01526 0.0
H499 H 0.55279 0.32945 0.08404 0.0
H500 H 0.38773 0.34499 0.10823 0.0
H501 H 0.42972 0.32718 0.07643 0.0
C502 C 0.31942 0.44947 0.04755 0.0
C503 C 0.30162 0.46001 0.07424 0.0
C504 C 0.31924 0.46297 0.0151 0.0
C505 C 0.30294 0.53433 0.97575 0.0
H506 H 0.31364 0.4934 0.88953 0.0
C507 C 0.31217 0.59814 0.84908 0.0
C508 C 0.33588 0.59042 0.82794 0.0
C509 C 0.30293 0.57963 0.87572 0.0
C510 C 0.31071 0.50512 0.91342 0.0
H511 H 0.26861 0.49181 0.08765 0.0
H512 H 0.26785 0.51503 0.03098 0.0
H513 H 0.307 0.46564 0.94306 0.0
H514 H 0.36721 0.55628 0.8167 0.0
H515 H 0.35133 0.52417 0.86343 0.0
H516 H 0.30732 0.57372 0.94656 0.0
C517 C 0.28244 0.4968 0.03516 0.0
C518 C 0.30695 0.48923 0.94408 0.0
C519 C 0.28274 0.48341 0.06758 0.0
C520 C 0.34886 0.56291 0.83253 0.0
C521 C 0.33969 0.54442 0.8593 0.0
C522 C 0.30665 0.55015 0.94521 0.0
C523 C 0.30118 0.4872 1.00875 0.0
C524 C 0.30329 0.50368 0.97566 0.0
C525 C 0.31728 0.55302 0.88193 0.0
C526 C 0.31085 0.53579 0.9137 0.0
H527 H 0.33419 0.43143 0.05207 0.0
H528 H 0.33413 0.45516 0.99547 0.0
H529 H 0.30081 0.54622 0.99963 0.0
H530 H 0.30149 0.61905 0.84602 0.0
H531 H 0.28517 0.58662 0.89223 0.0
C532 C 0.45753 0.71946 0.96324 0.0
C533 C 0.47166 0.725 0.9317 0.0
C534 C 0.47172 0.72516 0.99432 0.0
C535 C 0.53514 0.7643 0.0318 0.0
H536 H 0.53304 0.70194 0.09963 0.0
C537 C 0.62617 0.74322 0.13042 0.0
C538 C 0.61903 0.72972 0.16197 0.0
C539 C 0.60443 0.74939 0.10632 0.0
C540 C 0.53342 0.71994 0.08142 0.0
H541 H 0.51121 0.74151 0.90767 0.0
H542 H 0.53609 0.75113 0.9617 0.0
H543 H 0.50161 0.69946 0.04957 0.0
H544 H 0.58318 0.71494 0.19444 0.0
H545 H 0.54527 0.7262 0.15267 0.0
H546 H 0.56776 0.78426 0.06321 0.0
C547 C 0.51398 0.74276 0.96265 0.0
C548 C 0.51537 0.71847 0.05262 0.0
C549 C 0.49984 0.73701 0.93168 0.0
C550 C 0.58947 0.72497 0.17016 0.0
C551 C 0.56773 0.73125 0.14614 0.0
C552 C 0.5532 0.76579 0.06066 0.0
C553 C 0.50025 0.7366 0.99435 0.0
C554 C 0.51654 0.74026 0.02705 0.0
C555 C 0.57509 0.74234 0.11338 0.0
C556 C 0.55305 0.74327 0.08541 0.0
H557 H 0.43571 0.71035 0.96391 0.0
H558 H 0.46046 0.72042 0.01832 0.0
H559 H 0.53618 0.7817 0.01282 0.0
H560 H 0.64872 0.74723 0.12331 0.0
H561 H 0.61092 0.75783 0.08131 0.0
C562 C 0.64748 0.40048 0.9158 0.0
C563 C 0.65145 0.40632 0.88049 0.0
C564 C 0.6472 0.42294 0.93969 0.0
C565 C 0.62852 0.47367 0.98222 0.0
H566 H 0.68909 0.53261 0.98612 0.0
C567 C 0.66493 0.52584 0.10757 0.0
C568 C 0.66807 0.55622 0.10913 0.0
C569 C 0.65913 0.51221 0.07635 0.0
C570 C 0.67172 0.51662 0.98495 0.0
H571 H 0.65897 0.44052 0.84268 0.0
H572 H 0.65855 0.48033 0.88503 0.0
H573 H 0.68675 0.49981 0.93643 0.0
H574 H 0.66771 0.59633 0.07936 0.0
H575 H 0.65827 0.57214 0.02395 0.0
H576 H 0.61447 0.48926 0.03143 0.0
C577 C 0.65563 0.45808 0.89392 0.0
C578 C 0.67036 0.49787 0.95654 0.0
C579 C 0.65589 0.43534 0.86971 0.0
C580 C 0.66511 0.57286 0.0788 0.0
C581 C 0.65992 0.55907 0.0472 0.0
C582 C 0.63003 0.49213 1.01055 0.0
C583 C 0.65075 0.45207 0.92914 0.0
C584 C 0.64939 0.47547 0.95554 0.0
C585 C 0.65688 0.52858 0.04577 0.0
C586 C 0.6522 0.51314 0.01278 0.0
H587 H 0.64433 0.37841 0.92522 0.0
H588 H 0.64424 0.41737 0.96665 0.0
H589 H 0.61162 0.45715 0.98185 0.0
H590 H 0.6672 0.51249 0.13054 0.0
H591 H 0.65719 0.48867 0.07597 0.0
C592 C 0.91202 0.18034 0.40054 0.0
C593 C 0.91338 0.17739 0.3646 0.0
C594 C 0.93607 0.19023 0.41882 0.0
C595 C 0.01492 0.19221 0.41868 0.0
H596 H 1.00171 0.24546 0.49429 0.0
C597 C 0.08001 0.19014 0.54492 0.0
C598 C 0.08097 0.21538 0.56509 0.0
C599 C 0.06621 0.19065 0.51284 0.0
C600 C 1.00623 0.23108 0.47291 0.0
H601 H 0.94101 0.1826 0.31948 0.0
H602 H 0.98377 0.19959 0.35194 0.0
H603 H 0.96361 0.23784 0.45223 0.0
H604 H 0.07146 0.26158 0.56623 0.0
H605 H 0.04839 0.26281 0.50976 0.0
H606 H 0.05733 0.18475 0.44014 0.0
C607 C 0.96379 0.19438 0.3657 0.0
C608 C 0.98417 0.22651 0.44897 0.0
C609 C 0.93936 0.18482 0.34718 0.0
C610 C 0.07063 0.24173 0.5513 0.0
C611 C 0.05723 0.24235 0.51906 0.0
C612 C 0.03712 0.19677 0.44277 0.0
C613 C 0.96227 0.1972 0.40174 0.0
C614 C 0.98784 0.20624 0.42237 0.0
C615 C 0.05344 0.21651 0.50025 0.0
C616 C 0.03266 0.21556 0.47086 0.0
H617 H 0.89232 0.17486 0.41474 0.0
H618 H 0.93435 0.19174 0.4466 0.0
H619 H 0.01831 0.17642 0.39842 0.0
H620 H 0.08784 0.16953 0.55502 0.0
H621 H 0.06365 0.17028 0.49925 0.0
C622 C 0.17239 0.07259 0.67634 0.0
C623 C 0.17811 0.10083 0.66377 0.0
C624 C 0.1808 0.0482 0.65707 0.0
C625 C 0.23007 0.0238 0.58822 0.0
H626 H 0.16524 0.97865 0.55325 0.0
C627 C 0.2309 0.9767 0.4532 0.0
C628 C 0.21491 0.95153 0.44546 0.0
C629 C 0.23062 0.98799 0.48644 0.0
C630 C 0.18382 0.99037 0.56333 0.0
H631 H 0.19823 0.12591 0.62254 0.0
H632 H 0.21378 0.08355 0.58969 0.0
H633 H 0.15758 0.01133 0.60182 0.0
H634 H 0.18724 0.91747 0.46663 0.0
H635 H 0.18694 0.93709 0.52526 0.0
H636 H 0.2562 1.0037 0.54929 0.0
C637 C 0.2026 0.08012 0.61406 0.0
C638 C 0.17937 0.00912 0.59116 0.0
C639 C 0.19357 0.10434 0.63274 0.0
C640 C 0.19966 0.93701 0.47197 0.0
C641 C 0.19939 0.94833 0.50543 0.0
C642 C 0.23463 1.00482 0.56075 0.0
C643 C 0.19579 0.05186 0.62562 0.0
C644 C 0.20216 0.02693 0.60279 0.0
C645 C 0.21442 0.97432 0.51289 0.0
C646 C 0.21123 0.98895 0.54685 0.0
H647 H 0.16025 0.06944 0.70011 0.0
H648 H 0.1752 0.02657 0.66635 0.0
H649 H 0.24805 0.03716 0.59698 0.0
H650 H 0.24284 0.98835 0.43324 0.0
H651 H 0.24202 1.0083 0.49089 0.0
C652 C 0.08584 0.82357 0.34412 0.0
C653 C 0.11202 0.80782 0.34097 0.0
C654 C 0.06538 0.81617 0.36955 0.0
C655 C 0.06415 0.78385 0.45559 0.0
H656 H 0.98018 0.79158 0.44765 0.0
C657 C 0.99005 0.77188 0.57456 0.0
C658 C 0.96781 0.79267 0.578 0.0
C659 C 1.005 0.76888 0.54334 0.0
C660 C 1.0036 0.7895 0.45031 0.0
H661 H 0.1362 0.77055 0.36031 0.0
H662 H 0.10038 0.75757 0.40456 0.0
H663 H 0.01078 0.79408 0.3959 0.0
H664 H 0.94301 0.82602 0.55145 0.0
H665 H 0.96957 0.82137 0.49702 0.0
H666 H 0.05734 0.7804 0.5099 0.0
C667 C 0.09592 0.77593 0.3877 0.0
C668 C 0.0211 0.79082 0.42066 0.0
C669 C 0.11636 0.78327 0.36219 0.0
C670 C 0.96009 0.8098 0.5494 0.0
C671 C 0.9752 0.80697 0.51818 0.0
C672 C 0.04673 0.78267 0.48517 0.0
C673 C 0.07069 0.7929 0.3924 0.0
C674 C 0.05161 0.78837 0.42305 0.0
C675 C 0.9982 0.78682 0.51496 0.0
C676 C 0.01627 0.78584 0.48299 0.0
H677 H 0.08175 0.84253 0.32808 0.0
H678 H 0.04624 0.82977 0.37258 0.0
H679 H 0.08761 0.78248 0.45844 0.0
H680 H 0.99626 0.75822 0.59619 0.0
H681 H 0.02219 0.75276 0.5416 0.0
C682 C 0.81559 0.07051 0.47654 0.0
C683 C 0.79302 0.06852 0.45241 0.0
C684 C 0.81377 0.0552 0.50775 0.0
C685 C 0.77905 0.98835 0.54038 0.0
H686 H 0.82293 1.0067 0.62258 0.0
C687 C 0.82443 0.9263 0.67101 0.0
C688 C 0.83717 0.90237 0.65424 0.0
C689 C 0.81232 0.94926 0.65172 0.0
C690 C 0.81007 1.00145 0.60013 0.0
H691 H 0.74973 0.05149 0.44303 0.0
H692 H 0.74599 0.0256 0.49799 0.0
H693 H 0.81279 0.04509 0.58024 0.0
H694 H 0.84653 0.8833 0.60436 0.0
H695 H 0.82549 0.92279 0.57118 0.0
H696 H 0.77695 0.94467 0.55975 0.0
C697 C 0.76557 0.03808 0.49249 0.0
C698 C 0.80454 0.02333 0.57567 0.0
C699 C 0.7676 0.05302 0.46108 0.0
C700 C 0.83696 0.90145 0.61811 0.0
C701 C 0.82465 0.924 0.59903 0.0
C702 C 0.78447 0.96663 0.56479 0.0
C703 C 0.78917 0.03789 0.51555 0.0
C704 C 0.78995 0.01675 0.54484 0.0
C705 C 0.81234 0.94824 0.61551 0.0
C706 C 0.8011 0.97264 0.59416 0.0
H707 H 0.83542 0.08239 0.47043 0.0
H708 H 0.83251 0.05544 0.52461 0.0
H709 H 0.76797 0.98223 0.51695 0.0
H710 H 0.8244 0.92758 0.69885 0.0
H711 H 0.803 0.96775 0.66503 0.0
C712 C 0.40683 0.46618 0.19407 0.0
C713 C 0.39782 0.44557 0.2189 0.0
C714 C 0.43302 0.4815 0.19773 0.0
C715 C 0.49164 0.49991 0.26128 0.0
H716 H 0.5323 0.52413 0.17798 0.0
C717 C 0.60801 0.55533 0.25418 0.0
C718 C 0.60804 0.58188 0.23576 0.0
C719 C 0.58318 0.53725 0.25439 0.0
C720 C 0.5212 0.51748 0.20148 0.0
H721 H 0.40971 0.42476 0.26709 0.0
H722 H 0.45608 0.45057 0.27286 0.0
H723 H 0.48827 0.49475 0.17377 0.0
H724 H 0.58188 0.61007 0.20307 0.0
H725 H 0.53929 0.57829 0.20273 0.0
H726 H 0.52559 0.52223 0.28874 0.0
C727 C 0.44245 0.45563 0.25094 0.0
C728 C 0.49569 0.50083 0.19914 0.0
C729 C 0.41584 0.44064 0.24757 0.0
C730 C 0.58269 0.5899 0.21771 0.0
C731 C 0.55826 0.57163 0.21733 0.0
C732 C 0.51758 0.51614 0.26359 0.0
C733 C 0.45154 0.47626 0.22596 0.0
C734 C 0.48005 0.49229 0.22894 0.0
C735 C 0.55822 0.54507 0.2355 0.0
C736 C 0.53229 0.52556 0.23366 0.0
H737 H 0.39354 0.47071 0.17168 0.0
H738 H 0.43854 0.49769 0.17835 0.0
H739 H 0.48029 0.49412 0.28487 0.0
H740 H 0.62714 0.54852 0.26835 0.0
H741 H 0.58373 0.51683 0.26856 0.0
C742 C 0.46532 0.60526 0.83089 0.0
C743 C 0.44609 0.61375 0.80454 0.0
C744 C 0.47994 0.57851 0.82959 0.0
C745 C 0.50048 0.51743 0.77084 0.0
H746 H 0.5125 0.47669 0.85736 0.0
C747 C 0.54094 0.39771 0.82889 0.0
C748 C 0.5648 0.39189 0.80706 0.0
C749 C 0.52577 0.4241 0.82652 0.0
C750 C 0.50909 0.48746 0.83281 0.0
H751 H 0.42778 0.60066 0.75565 0.0
H752 H 0.45258 0.55358 0.75386 0.0
H753 H 0.48717 0.523 0.85699 0.0
H754 H 0.59107 0.4093 0.76512 0.0
H755 H 0.56506 0.45575 0.76148 0.0
H756 H 0.52163 0.48119 0.74661 0.0
C757 C 0.45673 0.56786 0.77537 0.0
C758 C 0.49489 0.51446 0.83267 0.0
C759 C 0.44227 0.59485 0.77652 0.0
C760 C 0.57267 0.41297 0.7822 0.0
C761 C 0.55765 0.43963 0.78007 0.0
C762 C 0.51455 0.49022 0.77095 0.0
C763 C 0.47563 0.55917 0.80206 0.0
C764 C 0.49047 0.53 0.80174 0.0
C765 C 0.5342 0.44577 0.80256 0.0
C766 C 0.51908 0.4748 0.80198 0.0
H767 H 0.4692 0.61932 0.8527 0.0
H768 H 0.49481 0.57312 0.85024 0.0
H769 H 0.4978 0.52875 0.7465 0.0
H770 H 0.53399 0.38188 0.84809 0.0
H771 H 0.5074 0.4275 0.84368 0.0
C772 C 0.9052 0.05335 0.33711 0.0
C773 C 0.89599 0.07167 0.31008 0.0
C774 C 0.93125 0.03756 0.33455 0.0
C775 C 0.98847 0.01236 0.27219 0.0
H776 H 0.0338 1.0034 0.35553 0.0
C777 C 0.11094 0.97333 0.32189 0.0
C778 C 0.11543 0.94839 0.30167 0.0
C779 C 0.0845 0.98852 0.32079 0.0
C780 C 0.02171 1.0059 0.33182 0.0
H781 H 0.90715 0.08744 0.25889 0.0
H782 H 0.95297 0.06051 0.25475 0.0
H783 H 0.98794 0.02956 0.35744 0.0
H784 H 0.09558 0.92029 0.26376 0.0
H785 H 0.04903 0.94641 0.26238 0.0
H786 H 0.02298 0.98947 0.24639 0.0
C787 C 0.93973 0.05785 0.27775 0.0
C788 C 0.99497 0.02059 0.33305 0.0
C789 C 0.91346 0.07348 0.2802 0.0
C790 C 0.09293 0.93947 0.27958 0.0
C791 C 0.06622 0.95455 0.27875 0.0
C792 C 0.01542 0.99777 0.2709 0.0
C793 C 0.94918 0.03982 0.30504 0.0
C794 C 0.97784 0.02403 0.30332 0.0
C795 C 0.06145 0.97908 0.29976 0.0
C796 C 0.03251 0.99439 0.30072 0.0
H797 H 0.8923 0.05118 0.36044 0.0
H798 H 0.93727 0.02347 0.35584 0.0
H799 H 0.97588 0.01423 0.24877 0.0
H800 H 0.12788 0.98116 0.33885 0.0
H801 H 0.08216 1.00772 0.33663 0.0
C802 C 0.07375 0.0965 0.74006 0.0
C803 C 0.06656 0.11817 0.71572 0.0
C804 C 0.05833 0.06998 0.74134 0.0
C805 C 0.01466 0.01949 0.74883 0.0
H806 H 0.98678 0.98932 0.66203 0.0
C807 C 0.94133 0.91544 0.7408 0.0
C808 C 0.9447 0.89736 0.71191 0.0
C809 C 0.95605 0.94231 0.74267 0.0
C810 C 0.99464 0.9971 0.68656 0.0
H811 H 0.03652 0.12931 0.67474 0.0
H812 H 1.0092 0.08398 0.67774 0.0
H813 H 0.01288 0.0352 0.66296 0.0
H814 H 0.96691 0.89335 0.66266 0.0
H815 H 0.99305 0.93919 0.66636 0.0
H816 H 0.99734 0.98057 0.77214 0.0
C817 C 0.02737 0.08677 0.69511 0.0
C818 C 1.00929 0.0239 0.68718 0.0
C819 C 0.04297 0.11302 0.69354 0.0
C820 C 0.96352 0.90668 0.68525 0.0
C821 C 0.97842 0.93327 0.68726 0.0
C822 C 1.00017 0.99246 0.74817 0.0
C823 C 0.0351 0.06453 0.71854 0.0
C824 C 0.01948 0.03566 0.7183 0.0
C825 C 0.97472 0.95175 0.71579 0.0
C826 C 0.98996 0.98078 0.71697 0.0
H827 H 0.09191 0.09963 0.75739 0.0
H828 H 0.06525 0.05343 0.75955 0.0
H829 H 0.02184 0.0278 0.77341 0.0
H830 H 0.92697 0.90908 0.7618 0.0
H831 H 0.95228 0.95592 0.76491 0.0
C832 C 0.2134 0.02203 0.24755 0.0
C833 C 0.22513 1.00721 0.27609 0.0
C834 C 0.22239 0.0505 0.23944 0.0
C835 C 0.27795 0.10762 0.26192 0.0
H836 H 0.21569 0.1608 0.23736 0.0
C837 C 0.29629 0.23192 0.26673 0.0
C838 C 0.27383 0.24723 0.28345 0.0
C839 C 0.29169 0.20328 0.25546 0.0
C840 C 0.23339 0.14631 0.24428 0.0
H841 H 0.25637 0.01037 0.3177 0.0
H842 H 0.27127 0.05986 0.3044 0.0
H843 H 0.20633 0.10873 0.23862 0.0
H844 H 0.22831 0.24554 0.29876 0.0
H845 H 0.22048 0.19584 0.28024 0.0
H846 H 0.30434 0.14534 0.27021 0.0
C847 C 0.25563 0.04952 0.2876 0.0
C848 C 0.22812 0.11626 0.24451 0.0
C849 C 0.24689 0.02104 0.29545 0.0
C850 C 0.24618 0.23414 0.28639 0.0
C851 C 0.24162 0.20563 0.27535 0.0
C852 C 0.2831 0.1377 0.26215 0.0
C853 C 0.24314 0.06493 0.25989 0.0
C854 C 0.25007 0.0965 0.25438 0.0
C855 C 0.26453 0.18941 0.2607 0.0
C856 C 0.26061 0.15753 0.2544 0.0
H857 H 0.19673 0.01194 0.23194 0.0
H858 H 0.21265 0.06137 0.2175 0.0
H859 H 0.29566 0.09314 0.26881 0.0
H860 H 0.31785 0.24143 0.26409 0.0
H861 H 0.30971 0.1917 0.24369 0.0
C862 C 0.24647 0.77635 0.75037 0.0
C863 C 0.25395 0.74767 0.74171 0.0
C864 C 0.21766 0.78343 0.75877 0.0
C865 C 0.14286 0.75363 0.77558 0.0
H866 H 0.11991 0.82227 0.72368 0.0
C867 C 0.02345 0.77919 0.73446 0.0
C868 C 0.01563 0.80857 0.72992 0.0
C869 C 0.05186 0.77174 0.74456 0.0
C870 C 0.12583 0.80341 0.73902 0.0
H871 H 0.23784 0.70358 0.73683 0.0
H872 H 0.18721 0.71592 0.75106 0.0
H873 H 0.1709 0.8093 0.72699 0.0
H874 H 0.03032 0.85317 0.73549 0.0
H875 H 0.07923 0.84035 0.7544 0.0
H876 H 0.09728 0.74749 0.7867 0.0
C877 C 0.20361 0.7329 0.75204 0.0
C878 C 0.15526 0.79592 0.74093 0.0
C879 C 0.2326 0.72577 0.74396 0.0
C880 C 0.03588 0.83033 0.73835 0.0
C881 C 0.06401 0.82293 0.74892 0.0
C882 C 0.11321 0.76121 0.77373 0.0
C883 C 0.19559 0.76208 0.75803 0.0
C884 C 0.16424 0.77085 0.759 0.0
C885 C 0.07282 0.79358 0.75066 0.0
C886 C 0.10431 0.78613 0.7552 0.0
H887 H 0.2626 0.7936 0.74859 0.0
H888 H 0.21241 0.80599 0.76403 0.0
H889 H 0.14902 0.73423 0.78982 0.0
H890 H 1.0083 0.76196 0.72798 0.0
H891 H 0.05782 0.74892 0.74551 0.0
C892 C 0.77211 0.77993 0.28583 0.0
C893 C 0.74342 0.76912 0.28512 0.0
C894 C 0.7779 0.80917 0.27815 0.0
C895 C 0.74152 0.88023 0.283 0.0
H896 H 0.81537 0.90791 0.24604 0.0
C897 C 0.77614 1.00133 0.29306 0.0
C898 C 0.80409 1.005 0.30715 0.0
C899 C 0.76722 0.97396 0.28108 0.0
C900 C 0.79459 0.90054 0.25634 0.0
H901 H 0.69853 0.78005 0.27352 0.0
H902 H 0.70868 0.83118 0.2595 0.0
H903 H 0.80217 0.85661 0.24028 0.0
H904 H 0.84512 0.98334 0.31792 0.0
H905 H 0.82972 0.93597 0.297 0.0
H906 H 0.7344 0.92397 0.30005 0.0
C907 C 0.72667 0.81709 0.26654 0.0
C908 C 0.78703 0.87113 0.25308 0.0
C909 C 0.72088 0.78772 0.27417 0.0
C910 C 0.82339 0.98121 0.30738 0.0
C911 C 0.81462 0.95406 0.29511 0.0
C912 C 0.74904 0.90967 0.28614 0.0
C913 C 0.75512 0.82839 0.26954 0.0
C914 C 0.76082 0.86039 0.26737 0.0
C915 C 0.78623 0.94989 0.28252 0.0
C916 C 0.77609 0.91998 0.27384 0.0
H917 H 0.78995 0.76605 0.29395 0.0
H918 H 0.80004 0.81703 0.28102 0.0
H919 H 0.72131 0.87275 0.29468 0.0
H920 H 0.76077 0.01926 0.29257 0.0
H921 H 0.74527 0.97149 0.2713 0.0
C922 C 0.99919 0.22571 0.76523 0.0
C923 C 0.01084 0.23025 0.73201 0.0
C924 C 0.97113 0.23577 0.77361 0.0
C925 C 0.91305 0.28668 0.7434 0.0
H926 H 0.86036 0.23398 0.79139 0.0
C927 C 0.7907 0.31301 0.75147 0.0
C928 C 0.7729 0.28972 0.74129 0.0
C929 C 0.81984 0.30804 0.76069 0.0
C930 C 0.8748 0.24904 0.77807 0.0
H931 H 1.00216 0.24928 0.68175 0.0
H932 H 0.95357 0.26633 0.69613 0.0
H933 H 0.91185 0.22132 0.7857 0.0
H934 H 0.77064 0.24283 0.73578 0.0
H935 H 0.82115 0.23412 0.75141 0.0
H936 H 0.87585 0.31354 0.73386 0.0
C937 C 0.96611 0.25546 0.71598 0.0
C938 C 0.90443 0.2419 0.7751 0.0
C939 C 0.99399 0.24541 0.70762 0.0
C940 C 0.78398 0.26121 0.74332 0.0
C941 C 0.81296 0.25623 0.75252 0.0
C942 C 0.88347 0.29377 0.74626 0.0
C943 C 0.9542 0.2507 0.74901 0.0
C944 C 0.92375 0.26021 0.75676 0.0
C945 C 0.83165 0.27966 0.76 0.0
C946 C 0.86375 0.27462 0.76271 0.0
H947 H 0.01159 0.21414 0.78465 0.0
H948 H 0.96271 0.23188 0.79936 0.0
H949 H 0.92741 0.30159 0.7297 0.0
H950 H 0.78271 0.33521 0.75007 0.0
H951 H 0.83347 0.32655 0.76691 0.0
C952 C 0.82426 0.2999 0.21137 0.0
C953 C 0.80628 0.27932 0.22791 0.0
C954 C 0.82209 0.32944 0.21946 0.0
C955 C 0.7875 0.38277 0.27969 0.0
H956 H 0.78505 0.43118 0.19745 0.0
C957 C 0.72393 0.49095 0.27026 0.0
C958 C 0.73456 0.51335 0.24867 0.0
C959 C 0.73872 0.46441 0.27296 0.0
C960 C 0.78624 0.41822 0.22083 0.0
H961 H 0.77285 0.27291 0.26673 0.0
H962 H 0.76845 0.3247 0.28059 0.0
H963 H 0.80014 0.3807 0.19307 0.0
H964 H 0.77012 0.52608 0.21466 0.0
H965 H 0.79608 0.47971 0.21949 0.0
H966 H 0.7723 0.4203 0.30711 0.0
C967 C 0.78475 0.31812 0.26191 0.0
C968 C 0.79495 0.38914 0.21835 0.0
C969 C 0.7872 0.28846 0.25404 0.0
C970 C 0.76127 0.50924 0.23142 0.0
C971 C 0.77605 0.4826 0.23401 0.0
C972 C 0.77865 0.41192 0.28215 0.0
C973 C 0.80146 0.3391 0.24383 0.0
C974 C 0.79525 0.37085 0.24761 0.0
C975 C 0.7645 0.45959 0.25405 0.0
C976 C 0.77743 0.42984 0.25262 0.0
H977 H 0.83906 0.29324 0.19103 0.0
H978 H 0.83578 0.34484 0.20558 0.0
H979 H 0.78785 0.36946 0.30283 0.0
H980 H 0.70347 0.49342 0.28406 0.0
H981 H 0.72905 0.44714 0.2884 0.0
C982 C 0.49188 0.2664 0.81821 0.0
C983 C 0.50844 0.28261 0.79423 0.0
C984 C 0.46326 0.25806 0.81085 0.0
C985 C 0.40036 0.27844 0.75685 0.0
H986 H 0.3689 0.20615 0.79377 0.0
C987 C 0.2789 0.26264 0.78949 0.0
C988 C 0.26654 0.23457 0.78935 0.0
C989 C 0.30821 0.2669 0.78073 0.0
C990 C 0.37729 0.2262 0.78263 0.0
H991 H 0.50796 0.30217 0.74321 0.0
H992 H 0.45796 0.28731 0.73017 0.0
H993 H 0.42109 0.2153 0.79647 0.0
H994 H 0.27466 0.18929 0.77722 0.0
H995 H 0.32585 0.19675 0.76104 0.0
H996 H 0.35649 0.28935 0.74309 0.0
C997 C 0.46709 0.28135 0.75491 0.0
C998 C 0.40727 0.23165 0.78466 0.0
C999 C 0.49582 0.28974 0.76231 0.0
C1000 C 0.28355 0.21117 0.77754 0.0
C1001 C 0.31299 0.21543 0.76872 0.0
C1002 C 0.37035 0.27294 0.75468 0.0
C1003 C 0.45034 0.2656 0.77924 0.0
C1004 C 0.41911 0.2582 0.77275 0.0
C1005 C 0.32598 0.24319 0.77145 0.0
C1006 C 0.35828 0.24709 0.76844 0.0
H1007 H 0.50079 0.26057 0.8431 0.0
H1008 H 0.45097 0.24642 0.8305 0.0
H1009 H 0.40862 0.29917 0.74747 0.0
H1010 H 0.26623 0.28116 0.79815 0.0
H1011 H 0.31731 0.28855 0.7834 0.0
C1012 C 0.27164 0.73985 0.23947 0.0
C1013 C 0.24306 0.75077 0.23789 0.0
C1014 C 0.27679 0.71094 0.24907 0.0
C1015 C 0.24067 0.64007 0.24401 0.0
H1016 H 0.312 0.61329 0.28714 0.0
C1017 C 0.27686 0.51949 0.23624 0.0
C1018 C 0.30578 0.51614 0.22465 0.0
C1019 C 0.26693 0.54664 0.24787 0.0
C1020 C 0.29192 0.62039 0.27511 0.0
H1021 H 0.19754 0.74063 0.24721 0.0
H1022 H 0.20649 0.68983 0.26431 0.0
H1023 H 0.2982 0.66456 0.29104 0.0
H1024 H 0.34739 0.53812 0.21813 0.0
H1025 H 0.33023 0.58514 0.23836 0.0
H1026 H 0.23501 0.59617 0.22689 0.0
C1027 C 0.22493 0.70364 0.25783 0.0
C1028 C 0.28401 0.64977 0.27735 0.0
C1029 C 0.21981 0.73277 0.24842 0.0
C1030 C 0.32494 0.53999 0.22674 0.0
C1031 C 0.31513 0.56696 0.23861 0.0
C1032 C 0.24857 0.61066 0.24182 0.0
C1033 C 0.25343 0.69213 0.25717 0.0
C1034 C 0.25881 0.66019 0.2608 0.0
C1035 C 0.28583 0.57086 0.24851 0.0
C1036 C 0.27482 0.60067 0.25632 0.0
H1037 H 0.28994 0.75332 0.23145 0.0
H1038 H 0.29898 0.70287 0.24791 0.0
H1039 H 0.22129 0.64732 0.23062 0.0
H1040 H 0.26156 0.50153 0.23492 0.0
H1041 H 0.2443 0.54886 0.2556 0.0
C1042 C 0.52687 0.70154 0.7469 0.0
C1043 C 0.51035 0.71695 0.77123 0.0
C1044 C 0.55504 0.71079 0.7379 0.0
C1045 C 0.61081 0.77008 0.75453 0.0
H1046 H 0.66456 0.70626 0.7396 0.0
C1047 C 0.73539 0.78853 0.76403 0.0
C1048 C 0.75083 0.76649 0.78147 0.0
C1049 C 0.70676 0.7836 0.75273 0.0
C1050 C 0.64999 0.72442 0.74409 0.0
H1051 H 0.50985 0.75466 0.80442 0.0
H1052 H 0.55926 0.76987 0.79061 0.0
H1053 H 0.61281 0.69689 0.73993 0.0
H1054 H 0.74915 0.72126 0.79795 0.0
H1055 H 0.69942 0.71314 0.78022 0.0
H1056 H 0.64829 0.797 0.76203 0.0
C1057 C 0.55046 0.75133 0.77707 0.0
C1058 C 0.61995 0.71914 0.74355 0.0
C1059 C 0.52196 0.74256 0.7852 0.0
C1060 C 0.7377 0.73894 0.78527 0.0
C1061 C 0.70911 0.73415 0.77451 0.0
C1062 C 0.64093 0.77521 0.75598 0.0
C1063 C 0.56785 0.73509 0.75403 0.0
C1064 C 0.59978 0.74172 0.74967 0.0
C1065 C 0.69284 0.7566 0.75885 0.0
C1066 C 0.66101 0.75226 0.7518 0.0
H1067 H 0.51833 0.68177 0.73561 0.0
H1068 H 0.56706 0.69818 0.71912 0.0
H1069 H 0.59625 0.78836 0.75829 0.0
H1070 H 0.74483 0.81001 0.76061 0.0
H1071 H 0.69532 0.80127 0.74007 0.0
loop_
_geom_bond_atom_site_label_1
_geom_bond_atom_site_label_2
_geom_bond_distance
_geom_bond_site_symmetry_2
_ccdc_geom_bond_type
O0 Tb1 2.292 . S
O0 C3 1.255 . S
Tb1 O0 2.292 . S
Tb1 O17 2.326 . S
Tb1 O19 2.500 . S
Tb1 O20 2.473 . S
Tb1 O23 2.324 . S
Eu2 O6 2.292 . S
Eu2 C7 2.852 . S
Eu2 O18 2.324 . S
Eu2 O22 2.326 . S
Eu2 O24 2.500 . S
Eu2 O25 2.473 . S
C3 O0 1.255 . S
C3 O4 1.247 . S
O4 C3 1.247 . S
C5 O17 1.242 . S
C5 O18 1.258 . S
O6 Eu2 2.292 . S
O6 C8 1.255 . S
C7 Eu2 2.852 . S
C7 C11 1.503 . S
C7 O24 1.273 . S
C7 O25 1.257 . S
C8 O6 1.255 . S
C8 O9 1.247 . S
O9 C8 1.247 . S
C10 O22 1.242 . S
C10 O23 1.258 . S
C11 C7 1.503 . S
C11 C12 1.379 . S
C11 C16 1.392 . S
C12 C11 1.379 . S
C12 C13 1.404 . S
C12 H26 0.929 . S
C13 C12 1.404 . S
C13 C14 1.389 . S
C14 C13 1.389 . S
C14 C15 1.399 . S
C14 H27 0.931 . S
C15 C14 1.399 . S
C15 C16 1.390 . S
C16 C11 1.392 . S
C16 C15 1.390 . S
C16 H28 0.929 . S
O17 Tb1 2.326 . S
O17 C5 1.242 . S
O18 Eu2 2.324 . S
O18 C5 1.258 . S
O19 Tb1 2.500 . S
O19 C21 1.273 . S
O20 Tb1 2.473 . S
O20 C21 1.257 . S
C21 O19 1.273 . S
C21 O20 1.257 . S
O22 Eu2 2.326 . S
O22 C10 1.242 . S
O23 Tb1 2.324 . S
O23 C10 1.258 . S
O24 Eu2 2.500 . S
O24 C7 1.273 . S
O25 Eu2 2.473 . S
O25 C7 1.257 . S
H26 C12 0.929 . S
H27 C14 0.931 . S
H28 C16 0.929 . S
O29 Tb30 2.292 . S
O29 C32 1.255 . S
Tb30 O29 2.292 . S
Tb30 O46 2.326 . S
Tb30 O48 2.500 . S
Tb30 O49 2.473 . S
Tb30 O52 2.324 . S
Eu31 O35 2.292 . S
Eu31 C36 2.852 . S
Eu31 O47 2.324 . S
Eu31 O51 2.326 . S
Eu31 O53 2.500 . S
Eu31 O54 2.473 . S
C32 O29 1.255 . S
C32 O33 1.247 . S
O33 C32 1.247 . S
C34 O46 1.242 . S
C34 O47 1.258 . S
O35 Eu31 2.292 . S
O35 C37 1.255 . S
C36 Eu31 2.852 . S
C36 C40 1.503 . S
C36 O53 1.273 . S
C36 O54 1.257 . S
C37 O35 1.255 . S
C37 O38 1.247 . S
O38 C37 1.247 . S
C39 O51 1.242 . S
C39 O52 1.258 . S
C40 C36 1.503 . S
C40 C41 1.379 . S
C40 C45 1.392 . S
C41 C40 1.379 . S
C41 C42 1.404 . S
C41 H55 0.929 . S
C42 C41 1.404 . S
C42 C43 1.389 . S
C43 C42 1.389 . S
C43 C44 1.399 . S
C43 H56 0.931 . S
C44 C43 1.399 . S
C44 C45 1.390 . S
C45 C40 1.392 . S
C45 C44 1.390 . S
C45 H57 0.929 . S
O46 Tb30 2.326 . S
O46 C34 1.242 . S
O47 Eu31 2.324 . S
O47 C34 1.258 . S
O48 Tb30 2.500 . S
O48 C50 1.273 . S
O49 Tb30 2.473 . S
O49 C50 1.257 . S
C50 O48 1.273 . S
C50 O49 1.257 . S
O51 Eu31 2.326 . S
O51 C39 1.242 . S
O52 Tb30 2.324 . S
O52 C39 1.258 . S
O53 Eu31 2.500 . S
O53 C36 1.273 . S
O54 Eu31 2.473 . S
O54 C36 1.257 . S
H55 C41 0.929 . S
H56 C43 0.931 . S
H57 C45 0.929 . S
O58 Tb59 2.292 . S
O58 C61 1.255 . S
Tb59 O58 2.292 . S
Tb59 O75 2.326 . S
Tb59 O77 2.500 . S
Tb59 O78 2.473 . S
Tb59 O81 2.324 . S
Eu60 O64 2.292 . S
Eu60 C65 2.852 . S
Eu60 O76 2.324 . S
Eu60 O80 2.326 . S
Eu60 O82 2.500 . S
Eu60 O83 2.473 . S
C61 O58 1.255 . S
C61 O62 1.247 . S
O62 C61 1.247 . S
C63 O75 1.242 . S
C63 O76 1.258 . S
O64 Eu60 2.292 . S
O64 C66 1.255 . S
C65 Eu60 2.852 . S
C65 C69 1.503 . S
C65 O82 1.273 . S
C65 O83 1.257 . S
C66 O64 1.255 . S
C66 O67 1.247 . S
O67 C66 1.247 . S
C68 O80 1.242 . S
C68 O81 1.258 . S
C69 C65 1.503 . S
C69 C70 1.379 . S
C69 C74 1.392 . S
C70 C69 1.379 . S
C70 C71 1.404 . S
C70 H84 0.929 . S
C71 C70 1.404 . S
C71 C72 1.389 . S
C72 C71 1.389 . S
C72 C73 1.399 . S
C72 H85 0.931 . S
C73 C72 1.399 . S
C73 C74 1.390 . S
C74 C69 1.392 . S
C74 C73 1.390 . S
C74 H86 0.929 . S
O75 Tb59 2.326 . S
O75 C63 1.242 . S
O76 Eu60 2.324 . S
O76 C63 1.258 . S
O77 Tb59 2.500 . S
O77 C79 1.273 . S
O78 Tb59 2.473 . S
O78 C79 1.257 . S
C79 O77 1.273 . S
C79 O78 1.257 . S
O80 Eu60 2.326 . S
O80 C68 1.242 . S
O81 Tb59 2.324 . S
O81 C68 1.258 . S
O82 Eu60 2.500 . S
O82 C65 1.273 . S
O83 Eu60 2.473 . S
O83 C65 1.257 . S
H84 C70 0.929 . S
H85 C72 0.931 . S
H86 C74 0.929 . S
O87 Tb88 2.292 . S
O87 C90 1.255 . S
Tb88 O87 2.292 . S
Tb88 O104 2.326 . S
Tb88 O106 2.500 . S
Tb88 O107 2.473 . S
Tb88 O110 2.324 . S
Eu89 O93 2.292 . S
Eu89 C94 2.852 . S
Eu89 O105 2.324 . S
Eu89 O109 2.326 . S
Eu89 O111 2.500 . S
Eu89 O112 2.473 . S
C90 O87 1.255 . S
C90 O91 1.247 . S
O91 C90 1.247 . S
C92 O104 1.242 . S
C92 O105 1.258 . S
O93 Eu89 2.292 . S
O93 C95 1.255 . S
C94 Eu89 2.852 . S
C94 C98 1.503 . S
C94 O111 1.273 . S
C94 O112 1.257 . S
C95 O93 1.255 . S
C95 O96 1.247 . S
O96 C95 1.247 . S
C97 O109 1.242 . S
C97 O110 1.258 . S
C98 C94 1.503 . S
C98 C99 1.379 . S
C98 C103 1.392 . S
C99 C98 1.379 . S
C99 C100 1.404 . S
C99 H113 0.929 . S
C100 C99 1.404 . S
C100 C101 1.389 . S
C101 C100 1.389 . S
C101 C102 1.399 . S
C101 H114 0.931 . S
C102 C101 1.399 . S
C102 C103 1.390 . S
C103 C98 1.392 . S
C103 C102 1.390 . S
C103 H115 0.929 . S
O104 Tb88 2.326 . S
O104 C92 1.242 . S
O105 Eu89 2.324 . S
O105 C92 1.258 . S
O106 Tb88 2.500 . S
O106 C108 1.273 . S
O107 Tb88 2.473 . S
O107 C108 1.257 . S
C108 O106 1.273 . S
C108 O107 1.257 . S
O109 Eu89 2.326 . S
O109 C97 1.242 . S
O110 Tb88 2.324 . S
O110 C97 1.258 . S
O111 Eu89 2.500 . S
O111 C94 1.273 . S
O112 Eu89 2.473 . S
O112 C94 1.257 . S
H113 C99 0.929 . S
H114 C101 0.931 . S
H115 C103 0.929 . S
O116 Tb117 2.292 . S
O116 C119 1.255 . S
Tb117 O116 2.292 . S
Tb117 O133 2.326 . S
Tb117 O135 2.500 . S
Tb117 O136 2.473 . S
Tb117 O139 2.324 . S
Eu118 O122 2.292 . S
Eu118 C123 2.852 . S
Eu118 O134 2.324 . S
Eu118 O138 2.326 . S
Eu118 O140 2.500 . S
Eu118 O141 2.473 . S
C119 O116 1.255 . S
C119 O120 1.247 . S
O120 C119 1.247 . S
C121 O133 1.242 . S
C121 O134 1.258 . S
O122 Eu118 2.292 . S
O122 C124 1.255 . S
C123 Eu118 2.852 . S
C123 C127 1.503 . S
C123 O140 1.273 . S
C123 O141 1.257 . S
C124 O122 1.255 . S
C124 O125 1.247 . S
O125 C124 1.247 . S
C126 O138 1.242 . S
C126 O139 1.258 . S
C127 C123 1.503 . S
C127 C128 1.379 . S
C127 C132 1.392 . S
C128 C127 1.379 . S
C128 C129 1.404 . S
C128 H142 0.929 . S
C129 C128 1.404 . S
C129 C130 1.389 . S
C130 C129 1.389 . S
C130 C131 1.399 . S
C130 H143 0.931 . S
C131 C130 1.399 . S
C131 C132 1.390 . S
C132 C127 1.392 . S
C132 C131 1.390 . S
C132 H144 0.929 . S
O133 Tb117 2.326 . S
O133 C121 1.242 . S
O134 Eu118 2.324 . S
O134 C121 1.258 . S
O135 Tb117 2.500 . S
O135 C137 1.273 . S
O136 Tb117 2.473 . S
O136 C137 1.257 . S
C137 O135 1.273 . S
C137 O136 1.257 . S
O138 Eu118 2.326 . S
O138 C126 1.242 . S
O139 Tb117 2.324 . S
O139 C126 1.258 . S
O140 Eu118 2.500 . S
O140 C123 1.273 . S
O141 Eu118 2.473 . S
O141 C123 1.257 . S
H142 C128 0.929 . S
H143 C130 0.931 . S
H144 C132 0.929 . S
O145 Tb146 2.292 . S
O145 C148 1.255 . S
Tb146 O145 2.292 . S
Tb146 O162 2.326 . S
Tb146 O164 2.500 . S
Tb146 O165 2.473 . S
Tb146 O168 2.324 . S
Eu147 O151 2.292 . S
Eu147 C152 2.852 . S
Eu147 O163 2.324 . S
Eu147 O167 2.326 . S
Eu147 O169 2.500 . S
Eu147 O170 2.473 . S
C148 O145 1.255 . S
C148 O149 1.247 . S
O149 C148 1.247 . S
C150 O162 1.242 . S
C150 O163 1.258 . S
O151 Eu147 2.292 . S
O151 C153 1.255 . S
C152 Eu147 2.852 . S
C152 C156 1.503 . S
C152 O169 1.273 . S
C152 O170 1.257 . S
C153 O151 1.255 . S
C153 O154 1.247 . S
O154 C153 1.247 . S
C155 O167 1.242 . S
C155 O168 1.258 . S
C156 C152 1.503 . S
C156 C157 1.379 . S
C156 C161 1.392 . S
C157 C156 1.379 . S
C157 C158 1.404 . S
C157 H171 0.929 . S
C158 C157 1.404 . S
C158 C159 1.389 . S
C159 C158 1.389 . S
C159 C160 1.399 . S
C159 H172 0.931 . S
C160 C159 1.399 . S
C160 C161 1.390 . S
C161 C156 1.392 . S
C161 C160 1.390 . S
C161 H173 0.929 . S
O162 Tb146 2.326 . S
O162 C150 1.242 . S
O163 Eu147 2.324 . S
O163 C150 1.258 . S
O164 Tb146 2.500 . S
O164 C166 1.273 . S
O165 Tb146 2.473 . S
O165 C166 1.257 . S
C166 O164 1.273 . S
C166 O165 1.257 . S
O167 Eu147 2.326 . S
O167 C155 1.242 . S
O168 Tb146 2.324 . S
O168 C155 1.258 . S
O169 Eu147 2.500 . S
O169 C152 1.273 . S
O170 Eu147 2.473 . S
O170 C152 1.257 . S
H171 C157 0.929 . S
H172 C159 0.931 . S
H173 C161 0.929 . S
O174 Tb175 2.292 . S
O174 C177 1.255 . S
Tb175 O174 2.292 . S
Tb175 O191 2.326 . S
Tb175 O193 2.500 . S
Tb175 O194 2.473 . S
Tb175 O197 2.324 . S
Eu176 O180 2.292 . S
Eu176 C181 2.852 . S
Eu176 O192 2.324 . S
Eu176 O196 2.326 . S
Eu176 O198 2.500 . S
Eu176 O199 2.473 . S
C177 O174 1.255 . S
C177 O178 1.247 . S
O178 C177 1.247 . S
C179 O191 1.242 . S
C179 O192 1.258 . S
O180 Eu176 2.292 . S
O180 C182 1.255 . S
C181 Eu176 2.852 . S
C181 C185 1.503 . S
C181 O198 1.273 . S
C181 O199 1.257 . S
C182 O180 1.255 . S
C182 O183 1.247 . S
O183 C182 1.247 . S
C184 O196 1.242 . S
C184 O197 1.258 . S
C185 C181 1.503 . S
C185 C186 1.379 . S
C185 C190 1.392 . S
C186 C185 1.379 . S
C186 C187 1.404 . S
C186 H200 0.929 . S
C187 C186 1.404 . S
C187 C188 1.389 . S
C188 C187 1.389 . S
C188 C189 1.399 . S
C188 H201 0.931 . S
C189 C188 1.399 . S
C189 C190 1.390 . S
C190 C185 1.392 . S
C190 C189 1.390 . S
C190 H202 0.929 . S
O191 Tb175 2.326 . S
O191 C179 1.242 . S
O192 Eu176 2.324 . S
O192 C179 1.258 . S
O193 Tb175 2.500 . S
O193 C195 1.273 . S
O194 Tb175 2.473 . S
O194 C195 1.257 . S
C195 O193 1.273 . S
C195 O194 1.257 . S
O196 Eu176 2.326 . S
O196 C184 1.242 . S
O197 Tb175 2.324 . S
O197 C184 1.258 . S
O198 Eu176 2.500 . S
O198 C181 1.273 . S
O199 Eu176 2.473 . S
O199 C181 1.257 . S
H200 C186 0.929 . S
H201 C188 0.931 . S
H202 C190 0.929 . S
O203 Tb204 2.292 . S
O203 C206 1.255 . S
Tb204 O203 2.292 . S
Tb204 O220 2.326 . S
Tb204 O222 2.500 . S
Tb204 O223 2.473 . S
Tb204 O226 2.324 . S
Eu205 O209 2.292 . S
Eu205 C210 2.852 . S
Eu205 O221 2.324 . S
Eu205 O225 2.326 . S
Eu205 O227 2.500 . S
Eu205 O228 2.473 . S
C206 O203 1.255 . S
C206 O207 1.247 . S
O207 C206 1.247 . S
C208 O220 1.242 . S
C208 O221 1.258 . S
O209 Eu205 2.292 . S
O209 C211 1.255 . S
C210 Eu205 2.852 . S
C210 C214 1.503 . S
C210 O227 1.273 . S
C210 O228 1.257 . S
C211 O209 1.255 . S
C211 O212 1.247 . S
O212 C211 1.247 . S
C213 O225 1.242 . S
C213 O226 1.258 . S
C214 C210 1.503 . S
C214 C215 1.379 . S
C214 C219 1.392 . S
C215 C214 1.379 . S
C215 C216 1.404 . S
C215 H229 0.929 . S
C216 C215 1.404 . S
C216 C217 1.389 . S
C217 C216 1.389 . S
C217 C218 1.399 . S
C217 H230 0.931 . S
C218 C217 1.399 . S
C218 C219 1.390 . S
C219 C214 1.392 . S
C219 C218 1.390 . S
C219 H231 0.929 . S
O220 Tb204 2.326 . S
O220 C208 1.242 . S
O221 Eu205 2.324 . S
O221 C208 1.258 . S
O222 Tb204 2.500 . S
O222 C224 1.273 . S
O223 Tb204 2.473 . S
O223 C224 1.257 . S
C224 O222 1.273 . S
C224 O223 1.257 . S
O225 Eu205 2.326 . S
O225 C213 1.242 . S
O226 Tb204 2.324 . S
O226 C213 1.258 . S
O227 Eu205 2.500 . S
O227 C210 1.273 . S
O228 Eu205 2.473 . S
O228 C210 1.257 . S
H229 C215 0.929 . S
H230 C217 0.931 . S
H231 C219 0.929 . S
C232 C233 1.349 . S
C232 C234 1.327 . S
C232 H257 0.950 . S
C233 C232 1.349 . S
C233 C249 1.349 . S
C234 C232 1.327 . S
C234 C253 1.429 1_554 S
C234 H258 0.950 1_554 S
C235 C252 1.574 . S
C235 C254 1.368 . S
C235 H259 0.949 . S
H236 C240 0.949 . S
C237 C238 1.349 . S
C237 C239 1.327 . S
C237 H260 0.950 . S
C238 C237 1.349 . S
C238 C250 1.349 . S
C239 C237 1.327 . S
C239 C255 1.429 . S
C239 H261 0.950 . S
C240 H236 0.949 . S
C240 C248 1.574 . S
C240 C256 1.368 . S
H241 C249 0.950 . S
H242 C247 0.950 . S
H243 C248 0.949 . S
H244 C250 0.950 . S
H245 C251 0.950 . S
H246 C252 0.949 . S
C247 H242 0.950 . S
C247 C249 1.327 . S
C247 C253 1.429 1_554 S
C248 C240 1.574 . S
C248 H243 0.949 . S
C248 C254 1.368 . S
C249 C233 1.349 . S
C249 H241 0.950 . S
C249 C247 1.327 . S
C250 C238 1.349 . S
C250 H244 0.950 . S
C250 C251 1.327 . S
C251 H245 0.950 . S
C251 C250 1.327 . S
C251 C255 1.429 . S
C252 C235 1.574 . S
C252 H246 0.949 . S
C252 C256 1.368 . S
C253 C234 1.429 1_556 S
C253 C247 1.429 1_556 S
C253 C254 1.523 . S
C254 C235 1.368 . S
C254 C248 1.368 . S
C254 C253 1.523 . S
C255 C239 1.429 . S
C255 C251 1.429 . S
C255 C256 1.523 . S
C256 C240 1.368 . S
C256 C252 1.368 . S
C256 C255 1.523 . S
H257 C232 0.950 . S
H258 C234 0.950 1_556 S
H259 C235 0.949 . S
H260 C237 0.950 . S
H261 C239 0.950 . S
C262 C263 1.349 . S
C262 C264 1.327 . S
C262 H287 0.950 . S
C263 C262 1.349 . S
C263 C279 1.349 . S
C264 C262 1.327 . S
C264 C283 1.429 1_556 S
C264 H288 0.950 1_556 S
C265 C282 1.574 . S
C265 C284 1.368 . S
C265 H289 0.949 . S
H266 C270 0.949 . S
C267 C268 1.349 . S
C267 C269 1.327 . S
C267 H290 0.950 . S
C268 C267 1.349 . S
C268 C280 1.349 . S
C269 C267 1.327 . S
C269 C285 1.429 . S
C269 H291 0.950 . S
C270 H266 0.949 . S
C270 C278 1.574 . S
C270 C286 1.368 . S
H271 C279 0.950 . S
H272 C277 0.950 . S
H273 C278 0.949 . S
H274 C280 0.950 . S
H275 C281 0.950 . S
H276 C282 0.949 . S
C277 H272 0.950 . S
C277 C279 1.327 . S
C277 C283 1.429 1_556 S
C278 C270 1.574 . S
C278 H273 0.949 . S
C278 C284 1.368 . S
C279 C263 1.349 . S
C279 H271 0.950 . S
C279 C277 1.327 . S
C280 C268 1.349 . S
C280 H274 0.950 . S
C280 C281 1.327 . S
C281 H275 0.950 . S
C281 C280 1.327 . S
C281 C285 1.429 . S
C282 C265 1.574 . S
C282 H276 0.949 . S
C282 C286 1.368 . S
C283 C264 1.429 1_554 S
C283 C277 1.429 1_554 S
C283 C284 1.523 . S
C284 C265 1.368 . S
C284 C278 1.368 . S
C284 C283 1.523 . S
C285 C269 1.429 . S
C285 C281 1.429 . S
C285 C286 1.523 . S
C286 C270 1.368 . S
C286 C282 1.368 . S
C286 C285 1.523 . S
H287 C262 0.950 . S
H288 C264 0.950 1_554 S
H289 C265 0.949 . S
H290 C267 0.950 . S
H291 C269 0.950 . S
C292 C293 1.349 . S
C292 C294 1.327 . S
C292 H317 0.950 . S
C293 C292 1.349 . S
C293 C309 1.349 . S
C294 C292 1.327 . S
C294 C313 1.429 . S
C294 H318 0.950 . S
C295 C312 1.574 . S
C295 C314 1.368 . S
C295 H319 0.949 . S
H296 C300 0.949 . S
C297 C298 1.349 . S
C297 C299 1.327 . S
C297 H320 0.950 . S
C298 C297 1.349 . S
C298 C310 1.349 . S
C299 C297 1.327 . S
C299 C315 1.429 1_554 S
C299 H321 0.950 . S
C300 H296 0.949 . S
C300 C308 1.574 . S
C300 C316 1.368 . S
H301 C309 0.950 . S
H302 C307 0.950 . S
H303 C308 0.949 . S
H304 C310 0.950 . S
H305 C311 0.950 . S
H306 C312 0.949 . S
C307 H302 0.950 . S
C307 C309 1.327 . S
C307 C313 1.429 . S
C308 C300 1.574 . S
C308 H303 0.949 . S
C308 C314 1.368 . S
C309 C293 1.349 . S
C309 H301 0.950 . S
C309 C307 1.327 . S
C310 C298 1.349 . S
C310 H304 0.950 . S
C310 C311 1.327 . S
C311 H305 0.950 . S
C311 C310 1.327 . S
C311 C315 1.429 1_554 S
C312 C295 1.574 . S
C312 H306 0.949 . S
C312 C316 1.368 . S
C313 C294 1.429 . S
C313 C307 1.429 . S
C313 C314 1.523 . S
C314 C295 1.368 . S
C314 C308 1.368 . S
C314 C313 1.523 . S
C315 C299 1.429 1_556 S
C315 C311 1.429 1_556 S
C315 C316 1.523 . S
C316 C300 1.368 . S
C316 C312 1.368 . S
C316 C315 1.523 . S
H317 C292 0.950 . S
H318 C294 0.950 . S
H319 C295 0.949 . S
H320 C297 0.950 . S
H321 C299 0.950 . S
C322 C323 1.349 . S
C322 C324 1.327 . S
C322 H347 0.950 . S
C323 C322 1.349 . S
C323 C339 1.349 . S
C324 C322 1.327 . S
C324 C343 1.429 . S
C324 H348 0.950 . S
C325 C342 1.574 . S
C325 C344 1.368 . S
C325 H349 0.949 . S
H326 C330 0.949 . S
C327 C328 1.349 . S
C327 C329 1.327 . S
C327 H350 0.950 . S
C328 C327 1.349 . S
C328 C340 1.349 . S
C329 C327 1.327 . S
C329 C345 1.429 1_556 S
C329 H351 0.950 . S
C330 H326 0.949 . S
C330 C338 1.574 . S
C330 C346 1.368 . S
H331 C339 0.950 . S
H332 C337 0.950 . S
H333 C338 0.949 . S
H334 C340 0.950 . S
H335 C341 0.950 . S
H336 C342 0.949 . S
C337 H332 0.950 . S
C337 C339 1.327 . S
C337 C343 1.429 . S
C338 C330 1.574 . S
C338 H333 0.949 . S
C338 C344 1.368 . S
C339 C323 1.349 . S
C339 H331 0.950 . S
C339 C337 1.327 . S
C340 C328 1.349 . S
C340 H334 0.950 . S
C340 C341 1.327 . S
C341 H335 0.950 . S
C341 C340 1.327 . S
C341 C345 1.429 1_556 S
C342 C325 1.574 . S
C342 H336 0.949 . S
C342 C346 1.368 . S
C343 C324 1.429 . S
C343 C337 1.429 . S
C343 C344 1.523 . S
C344 C325 1.368 . S
C344 C338 1.368 . S
C344 C343 1.523 . S
C345 C329 1.429 1_554 S
C345 C341 1.429 1_554 S
C345 C346 1.523 . S
C346 C330 1.368 . S
C346 C342 1.368 . S
C346 C345 1.523 . S
H347 C322 0.950 . S
H348 C324 0.950 . S
H349 C325 0.949 . S
H350 C327 0.950 . S
H351 C329 0.950 . S
C352 C353 1.349 . S
C352 C354 1.327 . S
C352 H377 0.950 . S
C353 C352 1.349 . S
C353 C369 1.349 . S
C354 C352 1.327 . S
C354 C373 1.429 . S
C354 H378 0.950 . S
C355 C372 1.574 . S
C355 C374 1.368 . S
C355 H379 0.949 . S
H356 C360 0.949 . S
C357 C358 1.349 . S
C357 C359 1.327 . S
C357 H380 0.950 . S
C358 C357 1.349 . S
C358 C370 1.349 . S
C359 C357 1.327 . S
C359 C375 1.429 . S
C359 H381 0.950 . S
C360 H356 0.949 . S
C360 C368 1.574 . S
C360 C376 1.368 . S
H361 C369 0.950 . S
H362 C367 0.950 . S
H363 C368 0.949 . S
H364 C370 0.950 . S
H365 C371 0.950 . S
H366 C372 0.949 . S
C367 H362 0.950 . S
C367 C369 1.327 . S
C367 C373 1.429 . S
C368 C360 1.574 . S
C368 H363 0.949 . S
C368 C374 1.368 . S
C369 C353 1.349 . S
C369 H361 0.950 . S
C369 C367 1.327 . S
C370 C358 1.349 . S
C370 H364 0.950 . S
C370 C371 1.327 . S
C371 H365 0.950 . S
C371 C370 1.327 . S
C371 C375 1.429 . S
C372 C355 1.574 . S
C372 H366 0.949 . S
C372 C376 1.368 . S
C373 C354 1.429 . S
C373 C367 1.429 . S
C373 C374 1.523 . S
C374 C355 1.368 . S
C374 C368 1.368 . S
C374 C373 1.523 . S
C375 C359 1.429 . S
C375 C371 1.429 . S
C375 C376 1.523 . S
C376 C360 1.368 . S
C376 C372 1.368 . S
C376 C375 1.523 . S
H377 C352 0.950 . S
H378 C354 0.950 . S
H379 C355 0.949 . S
H380 C357 0.950 . S
H381 C359 0.950 . S
C382 C383 1.349 . S
C382 C384 1.327 . S
C382 H407 0.950 . S
C383 C382 1.349 . S
C383 C399 1.349 . S
C384 C382 1.327 . S
C384 C403 1.429 . S
C384 H408 0.950 . S
C385 C402 1.574 . S
C385 C404 1.368 . S
C385 H409 0.949 . S
H386 C390 0.949 . S
C387 C388 1.349 . S
C387 C389 1.327 . S
C387 H410 0.950 . S
C388 C387 1.349 . S
C388 C400 1.349 . S
C389 C387 1.327 . S
C389 C405 1.429 . S
C389 H411 0.950 . S
C390 H386 0.949 . S
C390 C398 1.574 . S
C390 C406 1.368 . S
H391 C399 0.950 . S
H392 C397 0.950 . S
H393 C398 0.949 . S
H394 C400 0.950 . S
H395 C401 0.950 . S
H396 C402 0.949 . S
C397 H392 0.950 . S
C397 C399 1.327 . S
C397 C403 1.429 . S
C398 C390 1.574 . S
C398 H393 0.949 . S
C398 C404 1.368 . S
C399 C383 1.349 . S
C399 H391 0.950 . S
C399 C397 1.327 . S
C400 C388 1.349 . S
C400 H394 0.950 . S
C400 C401 1.327 . S
C401 H395 0.950 . S
C401 C400 1.327 . S
C401 C405 1.429 . S
C402 C385 1.574 . S
C402 H396 0.949 . S
C402 C406 1.368 . S
C403 C384 1.429 . S
C403 C397 1.429 . S
C403 C404 1.523 . S
C404 C385 1.368 . S
C404 C398 1.368 . S
C404 C403 1.523 . S
C405 C389 1.429 . S
C405 C401 1.429 . S
C405 C406 1.523 . S
C406 C390 1.368 . S
C406 C402 1.368 . S
C406 C405 1.523 . S
H407 C382 0.950 . S
H408 C384 0.950 . S
H409 C385 0.949 . S
H410 C387 0.950 . S
H411 C389 0.950 . S
C412 C413 1.349 . S
C412 C414 1.327 . S
C412 H437 0.950 . S
C413 C412 1.349 . S
C413 C429 1.349 . S
C414 C412 1.327 . S
C414 C433 1.429 . S
C414 H438 0.950 . S
C415 C432 1.574 . S
C415 C434 1.368 . S
C415 H439 0.949 . S
H416 C420 0.949 . S
C417 C418 1.349 . S
C417 C419 1.327 . S
C417 H440 0.950 . S
C418 C417 1.349 . S
C418 C430 1.349 . S
C419 C417 1.327 . S
C419 C435 1.429 . S
C419 H441 0.950 . S
C420 H416 0.949 . S
C420 C428 1.574 . S
C420 C436 1.368 . S
H421 C429 0.950 . S
H422 C427 0.950 . S
H423 C428 0.949 . S
H424 C430 0.950 . S
H425 C431 0.950 . S
H426 C432 0.949 . S
C427 H422 0.950 . S
C427 C429 1.327 . S
C427 C433 1.429 . S
C428 C420 1.574 . S
C428 H423 0.949 . S
C428 C434 1.368 . S
C429 C413 1.349 . S
C429 H421 0.950 . S
C429 C427 1.327 . S
C430 C418 1.349 . S
C430 H424 0.950 . S
C430 C431 1.327 . S
C431 H425 0.950 . S
C431 C430 1.327 . S
C431 C435 1.429 . S
C432 C415 1.574 . S
C432 H426 0.949 . S
C432 C436 1.368 . S
C433 C414 1.429 . S
C433 C427 1.429 . S
C433 C434 1.523 . S
C434 C415 1.368 . S
C434 C428 1.368 . S
C434 C433 1.523 . S
C435 C419 1.429 . S
C435 C431 1.429 . S
C435 C436 1.523 . S
C436 C420 1.368 . S
C436 C432 1.368 . S
C436 C435 1.523 . S
H437 C412 0.950 . S
H438 C414 0.950 . S
H439 C415 0.949 . S
H440 C417 0.950 . S
H441 C419 0.950 . S
C442 C443 1.349 . S
C442 C444 1.327 . S
C442 H467 0.950 . S
C443 C442 1.349 . S
C443 C459 1.349 . S
C444 C442 1.327 . S
C444 C463 1.429 . S
C444 H468 0.950 . S
C445 C462 1.574 . S
C445 C464 1.368 . S
C445 H469 0.949 . S
H446 C450 0.949 . S
C447 C448 1.349 . S
C447 C449 1.327 . S
C447 H470 0.950 . S
C448 C447 1.349 . S
C448 C460 1.349 . S
C449 C447 1.327 . S
C449 C465 1.429 . S
C449 H471 0.950 . S
C450 H446 0.949 . S
C450 C458 1.574 . S
C450 C466 1.368 . S
H451 C459 0.950 . S
H452 C457 0.950 . S
H453 C458 0.949 . S
H454 C460 0.950 . S
H455 C461 0.950 . S
H456 C462 0.949 . S
C457 H452 0.950 . S
C457 C459 1.327 . S
C457 C463 1.429 . S
C458 C450 1.574 . S
C458 H453 0.949 . S
C458 C464 1.368 . S
C459 C443 1.349 . S
C459 H451 0.950 . S
C459 C457 1.327 . S
C460 C448 1.349 . S
C460 H454 0.950 . S
C460 C461 1.327 . S
C461 H455 0.950 . S
C461 C460 1.327 . S
C461 C465 1.429 . S
C462 C445 1.574 . S
C462 H456 0.949 . S
C462 C466 1.368 . S
C463 C444 1.429 . S
C463 C457 1.429 . S
C463 C464 1.523 . S
C464 C445 1.368 . S
C464 C458 1.368 . S
C464 C463 1.523 . S
C465 C449 1.429 . S
C465 C461 1.429 . S
C465 C466 1.523 . S
C466 C450 1.368 . S
C466 C462 1.368 . S
C466 C465 1.523 . S
H467 C442 0.950 . S
H468 C444 0.950 . S
H469 C445 0.949 . S
H470 C447 0.950 . S
H471 C449 0.950 . S
C472 C473 1.349 . S
C472 C474 1.327 . S
C472 H497 0.950 . S
C473 C472 1.349 . S
C473 C489 1.349 . S
C474 C472 1.327 . S
C474 C493 1.429 . S
C474 H498 0.950 . S
C475 C492 1.574 . S
C475 C494 1.368 . S
C475 H499 0.949 . S
H476 C480 0.949 . S
C477 C478 1.349 . S
C477 C479 1.327 . S
C477 H500 0.950 . S
C478 C477 1.349 . S
C478 C490 1.349 . S
C479 C477 1.327 . S
C479 C495 1.429 . S
C479 H501 0.950 . S
C480 H476 0.949 . S
C480 C488 1.574 1_554 S
C480 C496 1.368 . S
H481 C489 0.950 . S
H482 C487 0.950 . S
H483 C488 0.949 . S
H484 C490 0.950 . S
H485 C491 0.950 . S
H486 C492 0.949 . S
C487 H482 0.950 . S
C487 C489 1.327 . S
C487 C493 1.429 . S
C488 C480 1.574 1_556 S
C488 H483 0.949 . S
C488 C494 1.368 . S
C489 C473 1.349 . S
C489 H481 0.950 . S
C489 C487 1.327 . S
C490 C478 1.349 . S
C490 H484 0.950 . S
C490 C491 1.327 . S
C491 H485 0.950 . S
C491 C490 1.327 . S
C491 C495 1.429 . S
C492 C475 1.574 . S
C492 H486 0.949 . S
C492 C496 1.368 1_556 S
C493 C474 1.429 . S
C493 C487 1.429 . S
C493 C494 1.523 . S
C494 C475 1.368 . S
C494 C488 1.368 . S
C494 C493 1.523 . S
C495 C479 1.429 . S
C495 C491 1.429 . S
C495 C496 1.523 . S
C496 C480 1.368 . S
C496 C492 1.368 1_554 S
C496 C495 1.523 . S
H497 C472 0.950 . S
H498 C474 0.950 . S
H499 C475 0.949 . S
H500 C477 0.950 . S
H501 C479 0.950 . S
C502 C503 1.349 . S
C502 C504 1.327 . S
C502 H527 0.950 . S
C503 C502 1.349 . S
C503 C519 1.349 . S
C504 C502 1.327 . S
C504 C523 1.429 . S
C504 H528 0.950 . S
C505 C522 1.574 . S
C505 C524 1.368 . S
C505 H529 0.949 . S
H506 C510 0.949 . S
C507 C508 1.349 . S
C507 C509 1.327 . S
C507 H530 0.950 . S
C508 C507 1.349 . S
C508 C520 1.349 . S
C509 C507 1.327 . S
C509 C525 1.429 . S
C509 H531 0.950 1_556 S
C510 H506 0.949 . S
C510 C518 1.574 . S
C510 C526 1.368 . S
H511 C519 0.950 . S
H512 C517 0.950 . S
H513 C518 0.949 . S
H514 C520 0.950 . S
H515 C521 0.950 . S
H516 C522 0.949 . S
C517 H512 0.950 . S
C517 C519 1.327 . S
C517 C523 1.429 . S
C518 C510 1.574 . S
C518 H513 0.949 . S
C518 C524 1.368 1_556 S
C519 C503 1.349 . S
C519 H511 0.950 . S
C519 C517 1.327 . S
C520 C508 1.349 . S
C520 H514 0.950 . S
C520 C521 1.327 . S
C521 H515 0.950 . S
C521 C520 1.327 . S
C521 C525 1.429 . S
C522 C505 1.574 . S
C522 H516 0.949 . S
C522 C526 1.368 1_554 S
C523 C504 1.429 . S
C523 C517 1.429 . S
C523 C524 1.523 . S
C524 C505 1.368 . S
C524 C518 1.368 1_554 S
C524 C523 1.523 . S
C525 C509 1.429 . S
C525 C521 1.429 . S
C525 C526 1.523 . S
C526 C510 1.368 . S
C526 C522 1.368 1_556 S
C526 C525 1.523 . S
H527 C502 0.950 . S
H528 C504 0.950 . S
H529 C505 0.949 . S
H530 C507 0.950 . S
H531 C509 0.950 1_554 S
C532 C533 1.349 . S
C532 C534 1.327 . S
C532 H557 0.950 . S
C533 C532 1.349 . S
C533 C549 1.349 . S
C534 C532 1.327 . S
C534 C553 1.429 . S
C534 H558 0.950 . S
C535 C552 1.574 . S
C535 C554 1.368 . S
C535 H559 0.949 . S
H536 C540 0.949 . S
C537 C538 1.349 . S
C537 C539 1.327 . S
C537 H560 0.950 . S
C538 C537 1.349 . S
C538 C550 1.349 . S
C539 C537 1.327 . S
C539 C555 1.429 . S
C539 H561 0.950 . S
C540 H536 0.949 . S
C540 C548 1.574 . S
C540 C556 1.368 . S
H541 C549 0.950 . S
H542 C547 0.950 . S
H543 C548 0.949 . S
H544 C550 0.950 . S
H545 C551 0.950 . S
H546 C552 0.949 . S
C547 H542 0.950 . S
C547 C549 1.327 . S
C547 C553 1.429 . S
C548 C540 1.574 . S
C548 H543 0.949 . S
C548 C554 1.368 1_554 S
C549 C533 1.349 . S
C549 H541 0.950 . S
C549 C547 1.327 . S
C550 C538 1.349 . S
C550 H544 0.950 . S
C550 C551 1.327 . S
C551 H545 0.950 . S
C551 C550 1.327 . S
C551 C555 1.429 . S
C552 C535 1.574 . S
C552 H546 0.949 . S
C552 C556 1.368 1_556 S
C553 C534 1.429 . S
C553 C547 1.429 . S
C553 C554 1.523 . S
C554 C535 1.368 . S
C554 C548 1.368 1_556 S
C554 C553 1.523 . S
C555 C539 1.429 . S
C555 C551 1.429 . S
C555 C556 1.523 . S
C556 C540 1.368 . S
C556 C552 1.368 1_554 S
C556 C555 1.523 . S
H557 C532 0.950 . S
H558 C534 0.950 . S
H559 C535 0.949 . S
H560 C537 0.950 . S
H561 C539 0.950 . S
C562 C563 1.349 . S
C562 C564 1.327 . S
C562 H587 0.950 . S
C563 C562 1.349 . S
C563 C579 1.349 . S
C564 C562 1.327 . S
C564 C583 1.429 . S
C564 H588 0.950 . S
C565 C582 1.574 1_556 S
C565 C584 1.368 . S
C565 H589 0.949 . S
H566 C570 0.949 . S
C567 C568 1.349 . S
C567 C569 1.327 . S
C567 H590 0.950 . S
C568 C567 1.349 . S
C568 C580 1.349 . S
C569 C567 1.327 . S
C569 C585 1.429 . S
C569 H591 0.950 . S
C570 H566 0.949 . S
C570 C578 1.574 1_554 S
C570 C586 1.368 . S
H571 C579 0.950 . S
H572 C577 0.950 . S
H573 C578 0.949 . S
H574 C580 0.950 . S
H575 C581 0.950 . S
H576 C582 0.949 . S
C577 H572 0.950 . S
C577 C579 1.327 . S
C577 C583 1.429 . S
C578 C570 1.574 1_556 S
C578 H573 0.949 . S
C578 C584 1.368 . S
C579 C563 1.349 . S
C579 H571 0.950 . S
C579 C577 1.327 . S
C580 C568 1.349 . S
C580 H574 0.950 . S
C580 C581 1.327 . S
C581 H575 0.950 . S
C581 C580 1.327 . S
C581 C585 1.429 . S
C582 C565 1.574 1_554 S
C582 H576 0.949 . S
C582 C586 1.368 . S
C583 C564 1.429 . S
C583 C577 1.429 . S
C583 C584 1.523 . S
C584 C565 1.368 . S
C584 C578 1.368 . S
C584 C583 1.523 . S
C585 C569 1.429 . S
C585 C581 1.429 . S
C585 C586 1.523 . S
C586 C570 1.368 . S
C586 C582 1.368 . S
C586 C585 1.523 . S
H587 C562 0.950 . S
H588 C564 0.950 . S
H589 C565 0.949 . S
H590 C567 0.950 . S
H591 C569 0.950 . S
C592 C593 1.349 . S
C592 C594 1.327 . S
C592 H617 0.950 . S
C593 C592 1.349 . S
C593 C609 1.349 . S
C594 C592 1.327 . S
C594 C613 1.429 . S
C594 H618 0.950 . S
C595 C612 1.574 . S
C595 C614 1.368 . S
C595 H619 0.949 . S
H596 C600 0.949 . S
C597 C598 1.349 . S
C597 C599 1.360 . S
C597 H620 0.950 . S
C598 C597 1.349 . S
C598 C610 1.349 . S
C599 C597 1.360 . S
C599 C615 1.398 1_455 S
C599 H621 0.948 1_455 S
C600 H596 0.949 . S
C600 C608 1.574 . S
C600 C616 1.368 . S
H601 C609 0.950 . S
H602 C607 0.950 . S
H603 C608 0.949 . S
H604 C610 0.950 . S
H605 C611 0.950 . S
H606 C612 0.949 . S
C607 H602 0.950 . S
C607 C609 1.327 . S
C607 C613 1.429 . S
C608 C600 1.574 . S
C608 H603 0.949 . S
C608 C614 1.368 . S
C609 C593 1.349 . S
C609 H601 0.950 . S
C609 C607 1.327 . S
C610 C598 1.349 . S
C610 H604 0.950 . S
C610 C611 1.327 1_455 S
C611 H605 0.950 . S
C611 C610 1.327 1_655 S
C611 C615 1.429 . S
C612 C595 1.574 . S
C612 H606 0.949 . S
C612 C616 1.368 . S
C613 C594 1.429 . S
C613 C607 1.429 . S
C613 C614 1.523 . S
C614 C595 1.368 . S
C614 C608 1.368 . S
C614 C613 1.523 . S
C615 C599 1.398 1_655 S
C615 C611 1.429 . S
C615 C616 1.523 . S
C616 C600 1.368 . S
C616 C612 1.368 . S
C616 C615 1.523 . S
H617 C592 0.950 . S
H618 C594 0.950 . S
H619 C595 0.949 . S
H620 C597 0.950 . S
H621 C599 0.948 1_655 S
C622 C623 1.349 . S
C622 C624 1.327 . S
C622 H647 0.950 . S
C623 C622 1.349 . S
C623 C639 1.349 . S
C624 C622 1.327 . S
C624 C643 1.429 . S
C624 H648 0.950 . S
C625 C642 1.574 . S
C625 C644 1.368 . S
C625 H649 0.949 . S
H626 C630 0.949 . S
C627 C628 1.349 . S
C627 C629 1.327 1_565 S
C627 H650 0.950 . S
C628 C627 1.349 . S
C628 C640 1.349 . S
C629 C627 1.327 1_545 S
C629 C645 1.429 . S
C629 H651 0.950 . S
C630 H626 0.949 . S
C630 C638 1.574 . S
C630 C646 1.368 . S
H631 C639 0.950 . S
H632 C637 0.950 . S
H633 C638 0.949 . S
H634 C640 0.950 . S
H635 C641 0.950 . S
H636 C642 0.949 . S
C637 H632 0.950 . S
C637 C639 1.327 . S
C637 C643 1.429 . S
C638 C630 1.574 . S
C638 H633 0.949 . S
C638 C644 1.368 . S
C639 C623 1.349 . S
C639 H631 0.950 . S
C639 C637 1.327 . S
C640 C628 1.349 . S
C640 H634 0.950 . S
C640 C641 1.327 . S
C641 H635 0.950 . S
C641 C640 1.327 . S
C641 C645 1.429 1_565 S
C642 C625 1.574 . S
C642 H636 0.949 . S
C642 C646 1.368 . S
C643 C624 1.429 . S
C643 C637 1.429 . S
C643 C644 1.523 . S
C644 C625 1.368 . S
C644 C638 1.368 . S
C644 C643 1.523 . S
C645 C629 1.429 . S
C645 C641 1.429 1_545 S
C645 C646 1.523 . S
C646 C630 1.368 . S
C646 C642 1.368 . S
C646 C645 1.523 . S
H647 C622 0.950 . S
H648 C624 0.950 . S
H649 C625 0.949 . S
H650 C627 0.950 . S
H651 C629 0.950 . S
C652 C653 1.349 . S
C652 C654 1.327 . S
C652 H677 0.950 . S
C653 C652 1.349 . S
C653 C669 1.349 . S
C654 C652 1.327 . S
C654 C673 1.429 . S
C654 H678 0.950 . S
C655 C672 1.574 . S
C655 C674 1.368 . S
C655 H679 0.949 . S
H656 C660 0.949 . S
C657 C658 1.349 . S
C657 C659 1.327 1_655 S
C657 H680 0.950 . S
C658 C657 1.349 . S
C658 C670 1.349 . S
C659 C657 1.327 1_455 S
C659 C675 1.429 . S
C659 H681 0.950 . S
C660 H656 0.949 . S
C660 C668 1.574 . S
C660 C676 1.368 . S
H661 C669 0.950 . S
H662 C667 0.950 . S
H663 C668 0.949 . S
H664 C670 0.950 . S
H665 C671 0.950 . S
H666 C672 0.949 . S
C667 H662 0.950 . S
C667 C669 1.327 . S
C667 C673 1.429 . S
C668 C660 1.574 . S
C668 H663 0.949 . S
C668 C674 1.368 . S
C669 C653 1.349 . S
C669 H661 0.950 . S
C669 C667 1.327 . S
C670 C658 1.349 . S
C670 H664 0.950 . S
C670 C671 1.327 . S
C671 H665 0.950 . S
C671 C670 1.327 . S
C671 C675 1.429 1_655 S
C672 C655 1.574 . S
C672 H666 0.949 . S
C672 C676 1.368 . S
C673 C654 1.429 . S
C673 C667 1.429 . S
C673 C674 1.523 . S
C674 C655 1.368 . S
C674 C668 1.368 . S
C674 C673 1.523 . S
C675 C659 1.429 . S
C675 C671 1.429 1_455 S
C675 C676 1.523 . S
C676 C660 1.368 . S
C676 C672 1.368 . S
C676 C675 1.523 . S
H677 C652 0.950 . S
H678 C654 0.950 . S
H679 C655 0.949 . S
H680 C657 0.950 . S
H681 C659 0.950 . S
C682 C683 1.349 . S
C682 C684 1.327 1_545 S
C682 H707 0.950 . S
C683 C682 1.349 . S
C683 C699 1.349 . S
C684 C682 1.327 1_565 S
C684 C703 1.429 . S
C684 H708 0.950 . S
C685 C702 1.574 . S
C685 C704 1.368 . S
C685 H709 0.949 . S
H686 C690 0.949 . S
C687 C688 1.349 . S
C687 C689 1.327 . S
C687 H710 0.950 . S
C688 C687 1.349 . S
C688 C700 1.349 . S
C689 C687 1.327 . S
C689 C705 1.429 . S
C689 H711 0.950 . S
C690 H686 0.949 . S
C690 C698 1.574 . S
C690 C706 1.368 . S
H691 C699 0.950 . S
H692 C697 0.950 . S
H693 C698 0.949 . S
H694 C700 0.950 . S
H695 C701 0.950 . S
H696 C702 0.949 . S
C697 H692 0.950 . S
C697 C699 1.327 1_565 S
C697 C703 1.429 . S
C698 C690 1.574 . S
C698 H693 0.949 . S
C698 C704 1.368 . S
C699 C683 1.349 . S
C699 H691 0.950 . S
C699 C697 1.327 1_545 S
C700 C688 1.349 . S
C700 H694 0.950 . S
C700 C701 1.327 . S
C701 H695 0.950 . S
C701 C700 1.327 . S
C701 C705 1.429 . S
C702 C685 1.574 . S
C702 H696 0.949 . S
C702 C706 1.368 . S
C703 C684 1.429 . S
C703 C697 1.429 . S
C703 C704 1.523 . S
C704 C685 1.368 . S
C704 C698 1.368 . S
C704 C703 1.523 . S
C705 C689 1.429 . S
C705 C701 1.429 . S
C705 C706 1.523 . S
C706 C690 1.368 . S
C706 C702 1.368 . S
C706 C705 1.523 . S
H707 C682 0.950 . S
H708 C684 0.950 . S
H709 C685 0.949 . S
H710 C687 0.950 . S
H711 C689 0.950 . S
C712 C713 1.349 . S
C712 C714 1.327 . S
C712 H737 0.950 . S
C713 C712 1.349 . S
C713 C729 1.349 . S
C714 C712 1.327 . S
C714 C733 1.429 . S
C714 H738 0.950 . S
C715 C732 1.574 . S
C715 C734 1.368 . S
C715 H739 0.949 . S
H716 C720 0.949 . S
C717 C718 1.349 . S
C717 C719 1.327 . S
C717 H740 0.950 . S
C718 C717 1.349 . S
C718 C730 1.349 . S
C719 C717 1.327 . S
C719 C735 1.429 . S
C719 H741 0.950 . S
C720 H716 0.949 . S
C720 C728 1.574 . S
C720 C736 1.368 . S
H721 C729 0.950 . S
H722 C727 0.950 . S
H723 C728 0.949 . S
H724 C730 0.950 . S
H725 C731 0.950 . S
H726 C732 0.949 . S
C727 H722 0.950 . S
C727 C729 1.327 . S
C727 C733 1.429 . S
C728 C720 1.574 . S
C728 H723 0.949 . S
C728 C734 1.368 . S
C729 C713 1.349 . S
C729 H721 0.950 . S
C729 C727 1.327 . S
C730 C718 1.349 . S
C730 H724 0.950 . S
C730 C731 1.327 . S
C731 H725 0.950 . S
C731 C730 1.327 . S
C731 C735 1.429 . S
C732 C715 1.574 . S
C732 H726 0.949 . S
C732 C736 1.368 . S
C733 C714 1.429 . S
C733 C727 1.429 . S
C733 C734 1.523 . S
C734 C715 1.368 . S
C734 C728 1.368 . S
C734 C733 1.523 . S
C735 C719 1.429 . S
C735 C731 1.429 . S
C735 C736 1.523 . S
C736 C720 1.368 . S
C736 C732 1.368 . S
C736 C735 1.523 . S
H737 C712 0.950 . S
H738 C714 0.950 . S
H739 C715 0.949 . S
H740 C717 0.950 . S
H741 C719 0.950 . S
C742 C743 1.349 . S
C742 C744 1.327 . S
C742 H767 0.950 . S
C743 C742 1.349 . S
C743 C759 1.349 . S
C744 C742 1.327 . S
C744 C763 1.429 . S
C744 H768 0.950 . S
C745 C762 1.574 . S
C745 C764 1.368 . S
C745 H769 0.949 . S
H746 C750 0.949 . S
C747 C748 1.349 . S
C747 C749 1.327 . S
C747 H770 0.950 . S
C748 C747 1.349 . S
C748 C760 1.349 . S
C749 C747 1.327 . S
C749 C765 1.429 . S
C749 H771 0.950 . S
C750 H746 0.949 . S
C750 C758 1.574 . S
C750 C766 1.368 . S
H751 C759 0.950 . S
H752 C757 0.950 . S
H753 C758 0.949 . S
H754 C760 0.950 . S
H755 C761 0.950 . S
H756 C762 0.949 . S
C757 H752 0.950 . S
C757 C759 1.327 . S
C757 C763 1.429 . S
C758 C750 1.574 . S
C758 H753 0.949 . S
C758 C764 1.368 . S
C759 C743 1.349 . S
C759 H751 0.950 . S
C759 C757 1.327 . S
C760 C748 1.349 . S
C760 H754 0.950 . S
C760 C761 1.327 . S
C761 H755 0.950 . S
C761 C760 1.327 . S
C761 C765 1.429 . S
C762 C745 1.574 . S
C762 H756 0.949 . S
C762 C766 1.368 . S
C763 C744 1.429 . S
C763 C757 1.429 . S
C763 C764 1.523 . S
C764 C745 1.368 . S
C764 C758 1.368 . S
C764 C763 1.523 . S
C765 C749 1.429 . S
C765 C761 1.429 . S
C765 C766 1.523 . S
C766 C750 1.368 . S
C766 C762 1.368 . S
C766 C765 1.523 . S
H767 C742 0.950 . S
H768 C744 0.950 . S
H769 C745 0.949 . S
H770 C747 0.950 . S
H771 C749 0.950 . S
C772 C773 1.349 . S
C772 C774 1.327 . S
C772 H797 0.950 . S
C773 C772 1.349 . S
C773 C789 1.349 . S
C774 C772 1.327 . S
C774 C793 1.429 . S
C774 H798 0.950 1_545 S
C775 C792 1.574 1_655 S
C775 C794 1.368 . S
C775 H799 0.949 . S
H776 C780 0.949 . S
C777 C778 1.349 . S
C777 C779 1.327 . S
C777 H800 0.950 . S
C778 C777 1.349 . S
C778 C790 1.349 . S
C779 C777 1.327 . S
C779 C795 1.429 . S
C779 H801 0.950 1_565 S
C780 H776 0.949 . S
C780 C788 1.574 1_455 S
C780 C796 1.368 . S
H781 C789 0.950 . S
H782 C787 0.950 . S
H783 C788 0.949 . S
H784 C790 0.950 . S
H785 C791 0.950 . S
H786 C792 0.949 . S
C787 H782 0.950 . S
C787 C789 1.327 . S
C787 C793 1.429 . S
C788 C780 1.574 1_655 S
C788 H783 0.949 . S
C788 C794 1.368 1_565 S
C789 C773 1.349 . S
C789 H781 0.950 . S
C789 C787 1.327 . S
C790 C778 1.349 . S
C790 H784 0.950 . S
C790 C791 1.327 . S
C791 H785 0.950 . S
C791 C790 1.327 . S
C791 C795 1.429 . S
C792 C775 1.574 1_455 S
C792 H786 0.949 . S
C792 C796 1.368 1_545 S
C793 C774 1.429 . S
C793 C787 1.429 . S
C793 C794 1.523 . S
C794 C775 1.368 . S
C794 C788 1.368 1_545 S
C794 C793 1.523 . S
C795 C779 1.429 . S
C795 C791 1.429 . S
C795 C796 1.523 . S
C796 C780 1.368 . S
C796 C792 1.368 1_565 S
C796 C795 1.523 . S
H797 C772 0.950 . S
H798 C774 0.950 1_565 S
H799 C775 0.949 . S
H800 C777 0.950 . S
H801 C779 0.950 1_545 S
C802 C803 1.349 . S
C802 C804 1.327 . S
C802 H827 0.950 . S
C803 C802 1.349 . S
C803 C819 1.349 . S
C804 C802 1.327 . S
C804 C823 1.429 . S
C804 H828 0.950 . S
C805 C822 1.574 1_545 S
C805 C824 1.368 1_655 S
C805 H829 0.949 . S
H806 C810 0.949 . S
C807 C808 1.349 . S
C807 C809 1.327 . S
C807 H830 0.950 . S
C808 C807 1.349 . S
C808 C820 1.349 . S
C809 C807 1.327 . S
C809 C825 1.429 . S
C809 H831 0.950 . S
C810 H806 0.949 . S
C810 C818 1.574 1_565 S
C810 C826 1.368 1_455 S
H811 C819 0.950 . S
H812 C817 0.950 1_655 S
H813 C818 0.949 . S
H814 C820 0.950 . S
H815 C821 0.950 1_455 S
H816 C822 0.949 . S
C817 H812 0.950 1_455 S
C817 C819 1.327 . S
C817 C823 1.429 . S
C818 C810 1.574 1_545 S
C818 H813 0.949 . S
C818 C824 1.368 . S
C819 C803 1.349 . S
C819 H811 0.950 . S
C819 C817 1.327 . S
C820 C808 1.349 . S
C820 H814 0.950 . S
C820 C821 1.327 . S
C821 H815 0.950 1_655 S
C821 C820 1.327 . S
C821 C825 1.429 . S
C822 C805 1.574 1_565 S
C822 H816 0.949 . S
C822 C826 1.368 . S
C823 C804 1.429 . S
C823 C817 1.429 . S
C823 C824 1.523 . S
C824 C805 1.368 1_455 S
C824 C818 1.368 . S
C824 C823 1.523 . S
C825 C809 1.429 . S
C825 C821 1.429 . S
C825 C826 1.523 . S
C826 C810 1.368 1_655 S
C826 C822 1.368 . S
C826 C825 1.523 . S
H827 C802 0.950 . S
H828 C804 0.950 . S
H829 C805 0.949 . S
H830 C807 0.950 . S
H831 C809 0.950 . S
C832 C833 1.349 . S
C832 C834 1.327 . S
C832 H857 0.950 . S
C833 C832 1.349 . S
C833 C849 1.349 . S
C834 C832 1.327 . S
C834 C853 1.429 . S
C834 H858 0.950 . S
C835 C852 1.574 . S
C835 C854 1.368 . S
C835 H859 0.949 . S
H836 C840 0.949 . S
C837 C838 1.349 . S
C837 C839 1.327 . S
C837 H860 0.950 . S
C838 C837 1.349 . S
C838 C850 1.349 . S
C839 C837 1.327 . S
C839 C855 1.429 . S
C839 H861 0.950 . S
C840 H836 0.949 . S
C840 C848 1.574 . S
C840 C856 1.368 . S
H841 C849 0.950 . S
H842 C847 0.950 . S
H843 C848 0.949 . S
H844 C850 0.950 . S
H845 C851 0.950 . S
H846 C852 0.949 . S
C847 H842 0.950 . S
C847 C849 1.327 . S
C847 C853 1.429 . S
C848 C840 1.574 . S
C848 H843 0.949 . S
C848 C854 1.368 . S
C849 C833 1.349 . S
C849 H841 0.950 . S
C849 C847 1.327 . S
C850 C838 1.349 . S
C850 H844 0.950 . S
C850 C851 1.327 . S
C851 H845 0.950 . S
C851 C850 1.327 . S
C851 C855 1.429 . S
C852 C835 1.574 . S
C852 H846 0.949 . S
C852 C856 1.368 . S
C853 C834 1.429 . S
C853 C847 1.429 . S
C853 C854 1.523 . S
C854 C835 1.368 . S
C854 C848 1.368 . S
C854 C853 1.523 . S
C855 C839 1.429 . S
C855 C851 1.429 . S
C855 C856 1.523 . S
C856 C840 1.368 . S
C856 C852 1.368 . S
C856 C855 1.523 . S
H857 C832 0.950 . S
H858 C834 0.950 . S
H859 C835 0.949 . S
H860 C837 0.950 . S
H861 C839 0.950 . S
C862 C863 1.349 . S
C862 C864 1.327 . S
C862 H887 0.950 . S
C863 C862 1.349 . S
C863 C879 1.349 . S
C864 C862 1.327 . S
C864 C883 1.429 . S
C864 H888 0.950 . S
C865 C882 1.574 . S
C865 C884 1.368 . S
C865 H889 0.949 . S
H866 C870 0.949 . S
C867 C868 1.349 . S
C867 C869 1.327 . S
C867 H890 0.950 . S
C868 C867 1.349 . S
C868 C880 1.349 . S
C869 C867 1.327 . S
C869 C885 1.429 . S
C869 H891 0.950 . S
C870 H866 0.949 . S
C870 C878 1.574 . S
C870 C886 1.368 . S
H871 C879 0.950 . S
H872 C877 0.950 . S
H873 C878 0.949 . S
H874 C880 0.950 . S
H875 C881 0.950 . S
H876 C882 0.949 . S
C877 H872 0.950 . S
C877 C879 1.327 . S
C877 C883 1.429 . S
C878 C870 1.574 . S
C878 H873 0.949 . S
C878 C884 1.368 . S
C879 C863 1.349 . S
C879 H871 0.950 . S
C879 C877 1.327 . S
C880 C868 1.349 . S
C880 H874 0.950 . S
C880 C881 1.327 . S
C881 H875 0.950 . S
C881 C880 1.327 . S
C881 C885 1.429 . S
C882 C865 1.574 . S
C882 H876 0.949 . S
C882 C886 1.368 . S
C883 C864 1.429 . S
C883 C877 1.429 . S
C883 C884 1.523 . S
C884 C865 1.368 . S
C884 C878 1.368 . S
C884 C883 1.523 . S
C885 C869 1.429 . S
C885 C881 1.429 . S
C885 C886 1.523 . S
C886 C870 1.368 . S
C886 C882 1.368 . S
C886 C885 1.523 . S
H887 C862 0.950 . S
H888 C864 0.950 . S
H889 C865 0.949 . S
H890 C867 0.950 . S
H891 C869 0.950 . S
C892 C893 1.349 . S
C892 C894 1.327 . S
C892 H917 0.950 . S
C893 C892 1.349 . S
C893 C909 1.349 . S
C894 C892 1.327 . S
C894 C913 1.429 . S
C894 H918 0.950 . S
C895 C912 1.574 . S
C895 C914 1.368 . S
C895 H919 0.949 . S
H896 C900 0.949 . S
C897 C898 1.349 . S
C897 C899 1.327 . S
C897 H920 0.950 . S
C898 C897 1.349 . S
C898 C910 1.349 . S
C899 C897 1.327 . S
C899 C915 1.429 . S
C899 H921 0.950 . S
C900 H896 0.949 . S
C900 C908 1.574 . S
C900 C916 1.368 . S
H901 C909 0.950 . S
H902 C907 0.950 . S
H903 C908 0.949 . S
H904 C910 0.950 . S
H905 C911 0.950 . S
H906 C912 0.949 . S
C907 H902 0.950 . S
C907 C909 1.327 . S
C907 C913 1.429 . S
C908 C900 1.574 . S
C908 H903 0.949 . S
C908 C914 1.368 . S
C909 C893 1.349 . S
C909 H901 0.950 . S
C909 C907 1.327 . S
C910 C898 1.349 . S
C910 H904 0.950 . S
C910 C911 1.327 . S
C911 H905 0.950 . S
C911 C910 1.327 . S
C911 C915 1.429 . S
C912 C895 1.574 . S
C912 H906 0.949 . S
C912 C916 1.368 . S
C913 C894 1.429 . S
C913 C907 1.429 . S
C913 C914 1.523 . S
C914 C895 1.368 . S
C914 C908 1.368 . S
C914 C913 1.523 . S
C915 C899 1.429 . S
C915 C911 1.429 . S
C915 C916 1.523 . S
C916 C900 1.368 . S
C916 C912 1.368 . S
C916 C915 1.523 . S
H917 C892 0.950 . S
H918 C894 0.950 . S
H919 C895 0.949 . S
H920 C897 0.950 . S
H921 C899 0.950 . S
C922 C923 1.349 . S
C922 C924 1.327 . S
C922 H947 0.950 . S
C923 C922 1.349 . S
C923 C939 1.349 . S
C924 C922 1.327 . S
C924 C943 1.429 . S
C924 H948 0.950 . S
C925 C942 1.574 . S
C925 C944 1.368 . S
C925 H949 0.949 . S
H926 C930 0.949 . S
C927 C928 1.349 . S
C927 C929 1.327 . S
C927 H950 0.950 . S
C928 C927 1.349 . S
C928 C940 1.349 . S
C929 C927 1.327 . S
C929 C945 1.429 . S
C929 H951 0.950 . S
C930 H926 0.949 . S
C930 C938 1.574 . S
C930 C946 1.368 . S
H931 C939 0.950 . S
H932 C937 0.950 . S
H933 C938 0.949 . S
H934 C940 0.950 . S
H935 C941 0.950 . S
H936 C942 0.949 . S
C937 H932 0.950 . S
C937 C939 1.327 . S
C937 C943 1.429 . S
C938 C930 1.574 . S
C938 H933 0.949 . S
C938 C944 1.368 . S
C939 C923 1.349 . S
C939 H931 0.950 . S
C939 C937 1.327 . S
C940 C928 1.349 . S
C940 H934 0.950 . S
C940 C941 1.327 . S
C941 H935 0.950 . S
C941 C940 1.327 . S
C941 C945 1.429 . S
C942 C925 1.574 . S
C942 H936 0.949 . S
C942 C946 1.368 . S
C943 C924 1.429 . S
C943 C937 1.429 . S
C943 C944 1.523 . S
C944 C925 1.368 . S
C944 C938 1.368 . S
C944 C943 1.523 . S
C945 C929 1.429 . S
C945 C941 1.429 . S
C945 C946 1.523 . S
C946 C930 1.368 . S
C946 C942 1.368 . S
C946 C945 1.523 . S
H947 C922 0.950 . S
H948 C924 0.950 . S
H949 C925 0.949 . S
H950 C927 0.950 . S
H951 C929 0.950 . S
C952 C953 1.349 . S
C952 C954 1.327 . S
C952 H977 0.950 . S
C953 C952 1.349 . S
C953 C969 1.349 . S
C954 C952 1.327 . S
C954 C973 1.429 . S
C954 H978 0.950 . S
C955 C972 1.574 . S
C955 C974 1.368 . S
C955 H979 0.949 . S
H956 C960 0.949 . S
C957 C958 1.349 . S
C957 C959 1.327 . S
C957 H980 0.950 . S
C958 C957 1.349 . S
C958 C970 1.349 . S
C959 C957 1.327 . S
C959 C975 1.429 . S
C959 H981 0.950 . S
C960 H956 0.949 . S
C960 C968 1.574 . S
C960 C976 1.368 . S
H961 C969 0.950 . S
H962 C967 0.950 . S
H963 C968 0.949 . S
H964 C970 0.950 . S
H965 C971 0.950 . S
H966 C972 0.949 . S
C967 H962 0.950 . S
C967 C969 1.327 . S
C967 C973 1.429 . S
C968 C960 1.574 . S
C968 H963 0.949 . S
C968 C974 1.368 . S
C969 C953 1.349 . S
C969 H961 0.950 . S
C969 C967 1.327 . S
C970 C958 1.349 . S
C970 H964 0.950 . S
C970 C971 1.327 . S
C971 H965 0.950 . S
C971 C970 1.327 . S
C971 C975 1.429 . S
C972 C955 1.574 . S
C972 H966 0.949 . S
C972 C976 1.368 . S
C973 C954 1.429 . S
C973 C967 1.429 . S
C973 C974 1.523 . S
C974 C955 1.368 . S
C974 C968 1.368 . S
C974 C973 1.523 . S
C975 C959 1.429 . S
C975 C971 1.429 . S
C975 C976 1.523 . S
C976 C960 1.368 . S
C976 C972 1.368 . S
C976 C975 1.523 . S
H977 C952 0.950 . S
H978 C954 0.950 . S
H979 C955 0.949 . S
H980 C957 0.950 . S
H981 C959 0.950 . S
C982 C983 1.349 . S
C982 C984 1.327 . S
C982 H1007 0.950 . S
C983 C982 1.349 . S
C983 C999 1.349 . S
C984 C982 1.327 . S
C984 C1003 1.429 . S
C984 H1008 0.950 . S
C985 C1002 1.574 . S
C985 C1004 1.368 . S
C985 H1009 0.949 . S
H986 C990 0.949 . S
C987 C988 1.349 . S
C987 C989 1.327 . S
C987 H1010 0.950 . S
C988 C987 1.349 . S
C988 C1000 1.349 . S
C989 C987 1.327 . S
C989 C1005 1.429 . S
C989 H1011 0.950 . S
C990 H986 0.949 . S
C990 C998 1.574 . S
C990 C1006 1.368 . S
H991 C999 0.950 . S
H992 C997 0.950 . S
H993 C998 0.949 . S
H994 C1000 0.950 . S
H995 C1001 0.950 . S
H996 C1002 0.949 . S
C997 H992 0.950 . S
C997 C999 1.327 . S
C997 C1003 1.429 . S
C998 C990 1.574 . S
C998 H993 0.949 . S
C998 C1004 1.368 . S
C999 C983 1.349 . S
C999 H991 0.950 . S
C999 C997 1.327 . S
C1000 C988 1.349 . S
C1000 H994 0.950 . S
C1000 C1001 1.327 . S
C1001 H995 0.950 . S
C1001 C1000 1.327 . S
C1001 C1005 1.429 . S
C1002 C985 1.574 . S
C1002 H996 0.949 . S
C1002 C1006 1.368 . S
C1003 C984 1.429 . S
C1003 C997 1.429 . S
C1003 C1004 1.523 . S
C1004 C985 1.368 . S
C1004 C998 1.368 . S
C1004 C1003 1.523 . S
C1005 C989 1.429 . S
C1005 C1001 1.429 . S
C1005 C1006 1.523 . S
C1006 C990 1.368 . S
C1006 C1002 1.368 . S
C1006 C1005 1.523 . S
H1007 C982 0.950 . S
H1008 C984 0.950 . S
H1009 C985 0.949 . S
H1010 C987 0.950 . S
H1011 C989 0.950 . S
C1012 C1013 1.349 . S
C1012 C1014 1.327 . S
C1012 H1037 0.950 . S
C1013 C1012 1.349 . S
C1013 C1029 1.349 . S
C1014 C1012 1.327 . S
C1014 C1033 1.429 . S
C1014 H1038 0.950 . S
C1015 C1032 1.574 . S
C1015 C1034 1.368 . S
C1015 H1039 0.949 . S
H1016 C1020 0.949 . S
C1017 C1018 1.349 . S
C1017 C1019 1.327 . S
C1017 H1040 0.950 . S
C1018 C1017 1.349 . S
C1018 C1030 1.349 . S
C1019 C1017 1.327 . S
C1019 C1035 1.429 . S
C1019 H1041 0.950 . S
C1020 H1016 0.949 . S
C1020 C1028 1.574 . S
C1020 C1036 1.368 . S
H1021 C1029 0.950 . S
H1022 C1027 0.950 . S
H1023 C1028 0.949 . S
H1024 C1030 0.950 . S
H1025 C1031 0.950 . S
H1026 C1032 0.949 . S
C1027 H1022 0.950 . S
C1027 C1029 1.327 . S
C1027 C1033 1.429 . S
C1028 C1020 1.574 . S
C1028 H1023 0.949 . S
C1028 C1034 1.368 . S
C1029 C1013 1.349 . S
C1029 H1021 0.950 . S
C1029 C1027 1.327 . S
C1030 C1018 1.349 . S
C1030 H1024 0.950 . S
C1030 C1031 1.327 . S
C1031 H1025 0.950 . S
C1031 C1030 1.327 . S
C1031 C1035 1.429 . S
C1032 C1015 1.574 . S
C1032 H1026 0.949 . S
C1032 C1036 1.368 . S
C1033 C1014 1.429 . S
C1033 C1027 1.429 . S
C1033 C1034 1.523 . S
C1034 C1015 1.368 . S
C1034 C1028 1.368 . S
C1034 C1033 1.523 . S
C1035 C1019 1.429 . S
C1035 C1031 1.429 . S
C1035 C1036 1.523 . S
C1036 C1020 1.368 . S
C1036 C1032 1.368 . S
C1036 C1035 1.523 . S
H1037 C1012 0.950 . S
H1038 C1014 0.950 . S
H1039 C1015 0.949 . S
H1040 C1017 0.950 . S
H1041 C1019 0.950 . S
C1042 C1043 1.349 . S
C1042 C1044 1.327 . S
C1042 H1067 0.950 . S
C1043 C1042 1.349 . S
C1043 C1059 1.349 . S
C1044 C1042 1.327 . S
C1044 C1063 1.429 . S
C1044 H1068 0.950 . S
C1045 C1062 1.574 . S
C1045 C1064 1.368 . S
C1045 H1069 0.949 . S
H1046 C1050 0.949 . S
C1047 C1048 1.349 . S
C1047 C1049 1.327 . S
C1047 H1070 0.950 . S
C1048 C1047 1.349 . S
C1048 C1060 1.349 . S
C1049 C1047 1.327 . S
C1049 C1065 1.429 . S
C1049 H1071 0.950 . S
C1050 H1046 0.949 . S
C1050 C1058 1.574 . S
C1050 C1066 1.368 . S
H1051 C1059 0.950 . S
H1052 C1057 0.950 . S
H1053 C1058 0.949 . S
H1054 C1060 0.950 . S
H1055 C1061 0.950 . S
H1056 C1062 0.949 . S
C1057 H1052 0.950 . S
C1057 C1059 1.327 . S
C1057 C1063 1.429 . S
C1058 C1050 1.574 . S
C1058 H1053 0.949 . S
C1058 C1064 1.368 . S
C1059 C1043 1.349 . S
C1059 H1051 0.950 . S
C1059 C1057 1.327 . S
C1060 C1048 1.349 . S
C1060 H1054 0.950 . S
C1060 C1061 1.327 . S
C1061 H1055 0.950 . S
C1061 C1060 1.327 . S
C1061 C1065 1.429 . S
C1062 C1045 1.574 . S
C1062 H1056 0.949 . S
C1062 C1066 1.368 . S
C1063 C1044 1.429 . S
C1063 C1057 1.429 . S
C1063 C1064 1.523 . S
C1064 C1045 1.368 . S
C1064 C1058 1.368 . S
C1064 C1063 1.523 . S
C1065 C1049 1.429 . S
C1065 C1061 1.429 . S
C1065 C1066 1.523 . S
C1066 C1050 1.368 . S
C1066 C1062 1.368 . S
C1066 C1065 1.523 . S
H1067 C1042 0.950 . S
H1068 C1044 0.950 . S
H1069 C1045 0.949 . S
H1070 C1047 0.950 . S
H1071 C1049 0.950 . S
C233 C10 2.385 . S
C238 C158 2.244 . S
C263 C39 2.385 . S
C268 C187 2.244 . S
C293 C216 2.244 . S
C298 C68 2.385 . S
C323 C129 2.244 . S
C328 C97 2.385 . S
C353 C126 2.385 . S
C358 C100 2.244 . S
C383 C155 2.385 . S
C388 C13 2.244 . S
C413 C184 2.385 . S
C418 C42 2.244 . S
C443 C213 2.385 . S
C448 C71 2.244 . S
C473 C108 0.510 . S
C478 C8 0.811 . S
C503 C21 0.510 . S
C508 C37 0.811 . S
C533 C50 0.510 . S
C538 C66 0.811 . S
C563 C95 0.811 . S
C568 C79 0.510 . S
C593 C124 0.811 . S
C598 C166 0.510 . S
C623 C153 0.811 . S
C628 C195 0.510 . S
C653 C182 0.811 . S
C658 C224 0.510 . S
C683 C137 0.510 . S
C688 C211 0.811 . S
C713 C5 2.764 . S
C718 C63 2.764 . S
C743 C34 2.764 . S
C748 C92 2.764 . S
C773 C121 2.764 . S
C778 C179 2.764 . S
C803 C150 2.764 . S
C808 C208 2.764 . S
C833 C177 1.556 1_545 S
C838 C15 1.546 . S
C863 C44 1.546 . S
C868 C206 1.556 1_455 S
C893 C73 1.546 . S
C898 C119 1.556 1_565 S
C923 C148 1.556 1_655 S
C928 C102 1.546 . S
C953 C131 1.546 . S
C958 C61 1.556 . S
C983 C90 1.556 . S
C988 C160 1.546 . S
C1013 C189 1.546 . S
C1018 C3 1.556 . S
C1043 C32 1.556 . S
C1048 C218 1.546 . S
