# Generated by pormake.
# Topology lvt, (4)-cn, num edge types: 1
# Building blocks:
#     Node 0, Type 0, BuildingBlock: KOZSID_clean_sbu_0, # of connection points: 4
#     Node 1, Type 0, BuildingBlock: KOZSID_clean_sbu_0, # of connection points: 4
#     Node 2, Type 0, BuildingBlock: KOZSID_clean_sbu_0, # of connection points: 4
#     Node 3, Type 0, BuildingBlock: KOZSID_clean_sbu_0, # of connection points: 4
#     Node 4, Type 0, BuildingBlock: KOZSID_clean_sbu_0, # of connection points: 4
#     Node 5, Type 0, BuildingBlock: KOZSID_clean_sbu_0, # of connection points: 4
#     Node 6, Type 0, BuildingBlock: KOZSID_clean_sbu_0, # of connection points: 4
#     Node 7, Type 0, BuildingBlock: KOZSID_clean_sbu_0, # of connection points: 4
#     Edge 8, Type (0, 0), BuildingBlock: CIFDUS_clean_linker_0, # of connection points: 2
#     Edge 9, Type (0, 0), BuildingBlock: CIFDUS_clean_linker_0, # of connection points: 2
#     Edge 10, Type (0, 0), BuildingBlock: CIFDUS_clean_linker_0, # of connection points: 2
#     Edge 11, Type (0, 0), BuildingBlock: CIFDUS_clean_linker_0, # of connection points: 2
#     Edge 12, Type (0, 0), BuildingBlock: CIFDUS_clean_linker_0, # of connection points: 2
#     Edge 13, Type (0, 0), BuildingBlock: CIFDUS_clean_linker_0, # of connection points: 2
#     Edge 14, Type (0, 0), BuildingBlock: CIFDUS_clean_linker_0, # of connection points: 2
#     Edge 15, Type (0, 0), BuildingBlock: CIFDUS_clean_linker_0, # of connection points: 2
#     Edge 16, Type (0, 0), BuildingBlock: CIFDUS_clean_linker_0, # of connection points: 2
#     Edge 17, Type (0, 0), BuildingBlock: CIFDUS_clean_linker_0, # of connection points: 2
#     Edge 18, Type (0, 0), BuildingBlock: CIFDUS_clean_linker_0, # of connection points: 2
#     Edge 19, Type (0, 0), BuildingBlock: CIFDUS_clean_linker_0, # of connection points: 2
#     Edge 20, Type (0, 0), BuildingBlock: CIFDUS_clean_linker_0, # of connection points: 2
#     Edge 21, Type (0, 0), BuildingBlock: CIFDUS_clean_linker_0, # of connection points: 2
#     Edge 22, Type (0, 0), BuildingBlock: CIFDUS_clean_linker_0, # of connection points: 2
#     Edge 23, Type (0, 0), BuildingBlock: CIFDUS_clean_linker_0, # of connection points: 2
# Relax obj value: 0.004
# Max RMSD: 0.033
# Mean RMSD: 0.022
data_MOF--net-lvt--node1-KOZSID_clean_sbu_0--edge1-CIFDUS_clean_linker_0
_symmetry_space_group_name_H-M    P1
_symmetry_Int_Tables_number       1
_symmetry_cell_setting            triclinic
loop_
_symmetry_equiv_pos_as_xyz
'x, y, z'
_cell_length_a     38.697001
_cell_length_b     38.728353
_cell_length_c     35.463719
_cell_angle_alpha  82.982956
_cell_angle_beta   93.382144
_cell_angle_gamma 86.642343
loop_
_atom_site_label
_atom_site_type_symbol
_atom_site_fract_x
_atom_site_fract_y
_atom_site_fract_z
_atom_type_partial_charge
C0 C 0.06158 0.94551 0.52534 0.0
C1 C 0.0769 0.91795 0.5093 0.0
C2 C 0.05983 0.91762 0.47457 0.0
C3 C 0.03549 0.94517 0.47114 0.0
N4 N 0.03627 0.96336 0.50135 0.0
Co5 Co 0.00635 0.00622 0.50712 0.0
N6 N 0.97918 1.00396 0.45758 0.0
C7 C 0.98213 0.9783 0.43509 0.0
C8 C 0.96091 0.98426 0.40233 0.0
C9 C 0.94359 0.01575 0.40376 0.0
C10 C 0.95515 0.02723 0.4376 0.0
N11 N 0.9777 0.05017 0.51192 0.0
C12 C 0.95417 0.06928 0.48671 0.0
C13 C 0.94099 0.09879 0.50107 0.0
C14 C 0.95759 0.09894 0.53603 0.0
C15 C 0.97971 0.06959 0.54107 0.0
N16 N 0.03249 0.00761 0.55752 0.0
C17 C 0.02667 0.03101 0.58216 0.0
C18 C 0.04592 0.02365 0.61613 0.0
C19 C 0.06484 0.99336 0.61343 0.0
C20 C 0.0563 0.9841 0.57756 0.0
N21 N 0.04042 0.03523 0.48006 0.0
C22 C 0.08547 0.07878 0.43903 0.0
C23 C 0.0763 0.08468 0.47547 0.0
C24 C 0.05405 0.06275 0.49535 0.0
C25 C 0.07208 0.05023 0.42398 0.0
C26 C 0.04993 0.02904 0.44471 0.0
N27 N 0.97208 0.97704 0.53413 0.0
C28 C 0.92917 0.96882 0.58119 0.0
C29 C 0.92527 0.93435 0.5742 0.0
C30 C 0.94523 0.92201 0.54632 0.0
C31 C 0.96771 0.94361 0.52654 0.0
C32 C 0.95266 0.98927 0.56144 0.0
H33 H 0.98146 0.93237 0.5054 0.0
H34 H 0.95459 0.0149 0.56898 0.0
H35 H 0.04788 0.06871 0.5229 0.0
H36 H 0.04037 0.0081 0.43119 0.0
C37 C 0.00908 0.95229 0.44217 0.0
C38 C 0.07018 0.95199 0.56447 0.0
C39 C 0.94436 0.06128 0.44847 0.0
C40 C 1.00233 0.05919 0.57299 0.0
H41 H 0.09749 0.89925 0.52197 0.0
H42 H 0.0638 0.89875 0.45484 0.0
H43 H 0.95972 0.96861 0.37905 0.0
H44 H 0.92559 0.0292 0.38158 0.0
H45 H 0.92169 0.11844 0.48745 0.0
H46 H 0.9542 0.11832 0.55531 0.0
H47 H 0.04556 0.0381 0.64039 0.0
H48 H 0.08221 0.97938 0.63588 0.0
H49 H 0.08631 0.10611 0.48878 0.0
H50 H 0.07787 0.04462 0.39576 0.0
H51 H 0.91405 0.98041 0.60167 0.0
H52 H 0.94413 0.89549 0.53984 0.0
C53 C 0.18703 0.79683 0.73479 0.0
C54 C 0.15446 0.80314 0.74807 0.0
C55 C 0.14814 0.77421 0.77231 0.0
C56 C 0.17726 0.75212 0.77301 0.0
N57 N 0.20178 0.76553 0.75123 0.0
Co58 Co 0.24805 0.74236 0.74542 0.0
N59 N 0.24417 0.70795 0.7909 0.0
C60 C 0.21425 0.69893 0.80566 0.0
C61 C 0.21863 0.67122 0.83387 0.0
C62 C 0.25353 0.66224 0.83708 0.0
C63 C 0.26871 0.68561 0.81106 0.0
N64 N 0.29465 0.71944 0.74045 0.0
C65 C 0.3167 0.7008 0.76783 0.0
C66 C 0.3495 0.69649 0.75435 0.0
C67 C 0.34702 0.71046 0.71685 0.0
C68 C 0.31339 0.72383 0.70963 0.0
N69 N 0.25143 0.77608 0.69901 0.0
C70 C 0.27346 0.77223 0.67157 0.0
C71 C 0.26884 0.79829 0.64155 0.0
C72 C 0.24192 0.81973 0.65035 0.0
C73 C 0.23171 0.80561 0.6856 0.0
N74 N 0.26995 0.77433 0.77711 0.0
C75 C 0.30382 0.81799 0.82358 0.0
C76 C 0.31401 0.81453 0.78677 0.0
C77 C 0.29717 0.79244 0.7644 0.0
C78 C 0.27566 0.79925 0.83612 0.0
C79 C 0.25893 0.77804 0.8124 0.0
N80 N 0.22614 0.71031 0.7137 0.0
C81 C 0.21988 0.65212 0.69757 0.0
C82 C 0.19191 0.66402 0.67127 0.0
C83 C 0.18205 0.69978 0.66621 0.0
C84 C 0.19944 0.72235 0.68748 0.0
C85 C 0.23659 0.67559 0.71838 0.0
H86 H 0.19096 0.74959 0.68277 0.0
H87 H 0.25769 0.66549 0.7387 0.0
H88 H 0.30646 0.78992 0.73679 0.0
H89 H 0.23731 0.76426 0.82287 0.0
C90 C 0.18382 0.72027 0.79626 0.0
C91 C 0.20107 0.81899 0.70333 0.0
C92 C 0.30618 0.68507 0.80533 0.0
C93 C 0.3014 0.74731 0.67786 0.0
H94 H 0.13667 0.82583 0.74029 0.0
H95 H 0.12524 0.77002 0.78793 0.0
H96 H 0.19899 0.6595 0.8508 0.0
H97 H 0.26619 0.64081 0.85633 0.0
H98 H 0.37332 0.68564 0.76977 0.0
H99 H 0.36801 0.71303 0.69803 0.0
H100 H 0.2838 0.80182 0.61668 0.0
H101 H 0.23079 0.84275 0.63239 0.0
H102 H 0.33481 0.82888 0.77488 0.0
H103 H 0.26677 0.80034 0.86433 0.0
H104 H 0.22842 0.62473 0.7027 0.0
H105 H 0.16112 0.71044 0.64571 0.0
C106 C 0.44885 0.0617 0.01657 0.0
C107 C 0.43297 0.09235 0.99721 0.0
C108 C 0.44741 0.09738 0.9629 0.0
C109 C 0.47107 0.06953 0.96319 0.0
N110 N 0.47219 0.04675 0.99537 0.0
Co111 Co 0.50337 1.00319 0.008 0.0
N112 N 0.52961 0.01426 0.96127 0.0
C113 C 0.52475 0.04329 0.93567 0.0
C114 C 0.54619 0.04346 0.90623 0.0
C115 C 0.56564 0.01251 0.91318 0.0
C116 C 0.55485 0.99514 0.94657 0.0
N117 N 0.53355 0.95882 0.01975 0.0
C118 C 0.55727 0.94424 0.99866 0.0
C119 C 0.57061 0.91181 0.01615 0.0
C120 C 0.55418 0.90525 0.04903 0.0
C121 C 0.53185 0.93394 0.04973 0.0
N122 N 0.47838 0.99314 0.05581 0.0
C123 C 0.48445 0.9651 0.08259 0.0
C124 C 0.4655 0.96668 0.11385 0.0
C125 C 0.44679 0.99804 0.10712 0.0
C126 C 0.45531 0.01372 0.07188 0.0
N127 N 0.46979 0.97731 0.97886 0.0
C128 C 0.4284 0.93635 0.93583 0.0
C129 C 0.43386 0.92826 0.97524 0.0
C130 C 0.45469 0.94874 0.99601 0.0
C131 C 0.44274 0.96599 0.9185 0.0
C132 C 0.46261 0.98626 0.9404 0.0
N133 N 0.53681 0.02893 0.03705 0.0
C134 C 0.575 0.03224 0.093 0.0
C135 C 0.57936 0.06759 0.08184 0.0
C136 C 0.56276 0.08282 0.04714 0.0
C137 C 0.54205 0.06318 0.02532 0.0
C138 C 0.55385 0.0136 0.07044 0.0
H139 H 0.52999 0.07651 0.99935 0.0
H140 H 0.5513 0.9869 0.08085 0.0
H141 H 0.45875 0.9404 0.02578 0.0
H142 H 0.47236 0.00872 0.92531 0.0
C143 C 0.49656 0.06725 0.93714 0.0
C144 C 0.44243 0.04895 0.05581 0.0
C145 C 0.56709 0.95941 0.96138 0.0
C146 C 0.50898 0.93831 0.07802 0.0
H147 H 0.41389 0.10988 0.00747 0.0
H148 H 0.44272 0.11974 0.94132 0.0
H149 H 0.54637 0.06291 0.88159 0.0
H150 H 0.58458 1.0032 0.89489 0.0
H151 H 0.58982 0.89445 0.00583 0.0
H152 H 0.55769 0.88209 0.06965 0.0
H153 H 0.46602 0.94777 0.13906 0.0
H154 H 0.42956 0.00855 0.12645 0.0
H155 H 0.42319 0.90546 0.98981 0.0
H156 H 0.43877 0.97342 0.88802 0.0
H157 H 0.58785 0.0188 0.1191 0.0
H158 H 0.5649 0.11011 0.0371 0.0
C159 C 0.26913 0.2997 0.17968 0.0
C160 C 0.25371 0.31441 0.1446 0.0
C161 C 0.22357 0.29851 0.13938 0.0
C162 C 0.2223 0.27493 0.1713 0.0
N163 N 0.24973 0.2749 0.19681 0.0
Co164 Co 0.25891 0.24329 0.24615 0.0
N165 N 0.21444 0.21987 0.23835 0.0
C166 C 0.19097 0.2266 0.20811 0.0
C167 C 0.16224 0.20767 0.21149 0.0
C168 C 0.16733 0.18799 0.24624 0.0
C169 C 0.19902 0.19611 0.2621 0.0
N170 N 0.26817 0.21152 0.29533 0.0
C171 C 0.24793 0.18812 0.31341 0.0
C172 C 0.26401 0.1722 0.34767 0.0
C173 C 0.29529 0.18632 0.35165 0.0
C174 C 0.29656 0.20995 0.31975 0.0
N175 N 0.30306 0.26704 0.25433 0.0
C176 C 0.32648 0.26012 0.28457 0.0
C177 C 0.35407 0.28072 0.28266 0.0
C178 C 0.34812 0.302 0.24904 0.0
C179 C 0.31721 0.29294 0.23215 0.0
N180 N 0.23349 0.27774 0.27352 0.0
C181 C 0.19313 0.31994 0.31594 0.0
C182 C 0.2266 0.30706 0.3295 0.0
C183 C 0.24617 0.28594 0.30805 0.0
C184 C 0.18088 0.31282 0.28013 0.0
C185 C 0.20151 0.29233 0.25933 0.0
N186 N 0.28426 0.20858 0.21863 0.0
C187 C 0.33574 0.17183 0.21076 0.0
C188 C 0.32056 0.16122 0.17768 0.0
C189 C 0.2869 0.17462 0.16565 0.0
C190 C 0.26951 0.19804 0.18618 0.0
C191 C 0.3172 0.19509 0.23079 0.0
H192 H 0.24422 0.20738 0.17492 0.0
H193 H 0.33012 0.20178 0.25597 0.0
H194 H 0.2711 0.27585 0.32034 0.0
H195 H 0.19067 0.28802 0.23218 0.0
C196 C 0.1959 0.25222 0.17791 0.0
C197 C 0.30271 0.30943 0.19484 0.0
C198 C 0.21287 0.18118 0.30017 0.0
C199 C 0.32244 0.23324 0.31367 0.0
H200 H 0.26344 0.33426 0.12454 0.0
H201 H 0.20499 0.30327 0.11499 0.0
H202 H 0.13984 0.20871 0.1915 0.0
H203 H 0.14946 0.17015 0.25882 0.0
H204 H 0.25378 0.15301 0.36812 0.0
H205 H 0.3143 0.18093 0.37562 0.0
H206 H 0.3761 0.28007 0.30309 0.0
H207 H 0.36484 0.32177 0.23808 0.0
H208 H 0.2371 0.31212 0.35714 0.0
H209 H 0.15526 0.32281 0.26832 0.0
H210 H 0.36166 0.16188 0.2215 0.0
H211 H 0.27408 0.16755 0.13997 0.0
C212 C 0.78194 0.21094 0.32393 0.0
C213 C 0.76856 0.19858 0.35816 0.0
C214 C 0.73889 0.21857 0.36101 0.0
C215 C 0.73593 0.24215 0.32875 0.0
N216 N 0.7619 0.23851 0.30532 0.0
Co217 Co 0.76846 0.26886 0.25648 0.0
N218 N 0.72501 0.29858 0.26122 0.0
C219 C 0.70384 0.29563 0.29029 0.0
C220 C 0.6759 0.3195 0.28567 0.0
C221 C 0.67906 0.33864 0.25129 0.0
C222 C 0.70877 0.32507 0.23674 0.0
N223 N 0.77483 0.2991 0.20744 0.0
C224 C 0.75359 0.32514 0.18764 0.0
C225 C 0.767 0.33766 0.1535 0.0
C226 C 0.79773 0.31905 0.15169 0.0
C227 C 0.80127 0.2961 0.18446 0.0
N228 N 0.81196 0.23915 0.2517 0.0
C229 C 0.83381 0.24303 0.22328 0.0
C230 C 0.86102 0.21835 0.22704 0.0
C231 C 0.85654 0.19754 0.26001 0.0
C232 C 0.82688 0.21099 0.27478 0.0
N233 N 0.74087 0.23762 0.22759 0.0
C234 C 0.70064 0.19582 0.18417 0.0
C235 C 0.73313 0.2058 0.17331 0.0
C236 C 0.75252 0.22647 0.19509 0.0
C237 C 0.68904 0.20656 0.21783 0.0
C238 C 0.70941 0.2272 0.23895 0.0
N239 N 0.79624 0.30014 0.28551 0.0
C240 C 0.84853 0.33067 0.29442 0.0
C241 C 0.83844 0.34029 0.32911 0.0
C242 C 0.80624 0.33032 0.34096 0.0
C243 C 0.78579 0.31047 0.31897 0.0
C244 C 0.82726 0.31099 0.27329 0.0
H245 H 0.76186 0.30342 0.32999 0.0
H246 H 0.83673 0.30463 0.24731 0.0
H247 H 0.77681 0.23327 0.18485 0.0
H248 H 0.69905 0.23477 0.26416 0.0
C249 C 0.70989 0.26895 0.32053 0.0
C250 C 0.81417 0.19617 0.31091 0.0
C251 C 0.7199 0.33773 0.19916 0.0
C252 C 0.82775 0.26977 0.19304 0.0
H253 H 0.7793 0.17766 0.37935 0.0
H254 H 0.72188 0.21661 0.38422 0.0
H255 H 0.65528 0.32219 0.30466 0.0
H256 H 0.6612 0.35984 0.23816 0.0
H257 H 0.75546 0.35754 0.13158 0.0
H258 H 0.81485 0.32116 0.12858 0.0
H259 H 0.88157 0.2157 0.20796 0.0
H260 H 0.87329 0.17497 0.27175 0.0
H261 H 0.74382 0.19763 0.14803 0.0
H262 H 0.66401 0.19978 0.22751 0.0
H263 H 0.87284 0.33834 0.28342 0.0
H264 H 0.79715 0.33696 0.36763 0.0
C265 C 0.68708 0.72395 0.76779 0.0
C266 C 0.65297 0.72389 0.75302 0.0
C267 C 0.64621 0.75403 0.72864 0.0
C268 C 0.67627 0.77096 0.72987 0.0
N269 N 0.70188 0.75321 0.75306 0.0
Co270 Co 0.7481 0.77085 0.76519 0.0
N271 N 0.74232 0.80806 0.72089 0.0
C272 C 0.71209 0.81998 0.70174 0.0
C273 C 0.71576 0.84629 0.67292 0.0
C274 C 0.75052 0.85139 0.67406 0.0
C275 C 0.76618 0.82766 0.70353 0.0
N276 N 0.79421 0.78871 0.77714 0.0
C277 C 0.81409 0.80926 0.75473 0.0
C278 C 0.84576 0.8132 0.77378 0.0
C279 C 0.84518 0.79543 0.80951 0.0
C280 C 0.81358 0.78119 0.81026 0.0
N281 N 0.75401 0.73374 0.80969 0.0
C282 C 0.77838 0.73186 0.83876 0.0
C283 C 0.77778 0.70236 0.86427 0.0
C284 C 0.75092 0.68482 0.85095 0.0
C285 C 0.73604 0.70504 0.81829 0.0
N286 N 0.76991 0.73898 0.73321 0.0
C287 C 0.80309 0.69524 0.68643 0.0
C288 C 0.81571 0.69645 0.72417 0.0
C289 C 0.79911 0.71862 0.74673 0.0
C290 C 0.77295 0.71626 0.67303 0.0
C291 C 0.75664 0.73752 0.69689 0.0
N292 N 0.72619 0.80283 0.7972 0.0
C293 C 0.71747 0.86039 0.816 0.0
C294 C 0.69214 0.84901 0.84059 0.0
C295 C 0.68487 0.81379 0.8434 0.0
C296 C 0.70206 0.79131 0.82164 0.0
C297 C 0.73418 0.83697 0.79471 0.0
H298 H 0.6955 0.76457 0.82461 0.0
H299 H 0.7533 0.84663 0.77589 0.0
H300 H 0.81017 0.71931 0.77515 0.0
H301 H 0.73352 0.75316 0.6857 0.0
C302 C 0.68215 0.80221 0.70773 0.0
C303 C 0.7026 0.69831 0.79931 0.0
C304 C 0.80312 0.82658 0.71619 0.0
C305 C 0.80451 0.75524 0.83805 0.0
H306 H 0.63428 0.70485 0.76007 0.0
H307 H 0.62217 0.76261 0.7121 0.0
H308 H 0.69576 0.85944 0.6527 0.0
H309 H 0.76282 0.87062 0.65557 0.0
H310 H 0.86735 0.82698 0.76303 0.0
H311 H 0.86615 0.79165 0.83151 0.0
H312 H 0.79543 0.69402 0.88895 0.0
H313 H 0.74279 0.66026 0.86432 0.0
H314 H 0.83826 0.68027 0.73659 0.0
H315 H 0.76215 0.71691 0.64408 0.0
H316 H 0.72396 0.88736 0.81261 0.0
H317 H 0.66616 0.80342 0.86255 0.0
C318 C 0.45369 0.51798 0.93379 0.0
C319 C 0.43961 0.50287 0.90326 0.0
C320 C 0.4601 0.47352 0.90053 0.0
C321 C 0.48479 0.47169 0.9301 0.0
N322 N 0.48082 0.49761 0.95208 0.0
Co323 Co 0.50724 0.50134 1.00148 0.0
N324 N 0.53883 0.45935 0.99634 0.0
C325 C 0.53873 0.4405 0.96664 0.0
C326 C 0.564 0.41379 0.97047 0.0
C327 C 0.58112 0.4154 0.00488 0.0
C328 C 0.56497 0.44291 0.0203 0.0
N329 N 0.53322 0.50446 0.05156 0.0
C330 C 0.55872 0.48273 0.07129 0.0
C331 C 0.56731 0.49309 0.10661 0.0
C332 C 0.54665 0.5223 0.10929 0.0
C333 C 0.52648 0.52797 0.07581 0.0
N334 N 0.47622 0.5441 0.00578 0.0
C335 C 0.47761 0.5639 0.03471 0.0
C336 C 0.45878 0.59519 0.02692 0.0
C337 C 0.44459 0.59567 0.99081 0.0
C338 C 0.45451 0.56386 0.97882 0.0
N339 N 0.4744 0.47072 0.02889 0.0
C340 C 0.43202 0.42464 0.07075 0.0
C341 C 0.43675 0.45803 0.08063 0.0
C342 C 0.45782 0.48044 0.05952 0.0
C343 C 0.44798 0.41535 0.03876 0.0
C344 C 0.4687 0.43845 0.01851 0.0
N345 N 0.54005 0.5318 0.97416 0.0
C346 C 0.57023 0.58501 0.96796 0.0
C347 C 0.58497 0.57708 0.93453 0.0
C348 C 0.57633 0.54562 0.9215 0.0
C349 C 0.55361 0.52399 0.94113 0.0
C350 C 0.54901 0.56197 0.98748 0.0
H351 H 0.5473 0.50108 0.92898 0.0
H352 H 0.53986 0.5694 0.01321 0.0
H353 H 0.4607 0.50527 0.06891 0.0
H354 H 0.48015 0.42928 0.9948 0.0
C355 C 0.51268 0.44672 0.93719 0.0
C356 C 0.44282 0.55325 0.94185 0.0
C357 C 0.57443 0.45127 0.05849 0.0
C358 C 0.50077 0.55485 0.06651 0.0
H359 H 0.41748 0.51258 0.88404 0.0
H360 H 0.45762 0.45594 0.87918 0.0
H361 H 0.56879 0.39481 0.95105 0.0
H362 H 0.60258 0.39781 0.01758 0.0
H363 H 0.58604 0.48056 0.1286 0.0
H364 H 0.54595 0.53726 0.13314 0.0
H365 H 0.45745 0.61619 0.04443 0.0
H366 H 0.42996 0.61792 0.97505 0.0
H367 H 0.42506 0.46658 0.10519 0.0
H368 H 0.44458 0.39016 0.02922 0.0
H369 H 0.57441 0.60914 0.97941 0.0
H370 H 0.58698 0.53723 0.89638 0.0
C371 C 0.05878 0.51727 0.5679 0.0
C372 C 0.0749 0.50013 0.60158 0.0
C373 C 0.06068 0.46866 0.60785 0.0
C374 C 0.0368 0.46832 0.57779 0.0
N375 N 0.03511 0.49755 0.55249 0.0
Co376 Co 1.00348 0.50788 0.50495 0.0
N377 N 0.97898 0.46399 0.51722 0.0
C378 C 0.98437 0.44097 0.5492 0.0
C379 C 0.96369 0.41337 0.54984 0.0
C380 C 0.94402 0.41897 0.51615 0.0
C381 C 0.95402 0.44969 0.49672 0.0
N382 N 0.97312 0.51731 0.4564 0.0
C383 C 0.94962 0.49742 0.44096 0.0
C384 C 0.93618 0.51277 0.40528 0.0
C385 C 0.95188 0.54326 0.39775 0.0
C386 C 0.97405 0.54472 0.42901 0.0
N387 N 0.02666 0.55269 0.49373 0.0
C388 C 0.01949 0.57711 0.46318 0.0
C389 C 0.038 0.60612 0.46419 0.0
C390 C 0.05767 0.60027 0.49784 0.0
C391 C 0.04996 0.56789 0.51546 0.0
N392 N 0.03824 0.4825 0.47719 0.0
C393 C 0.08598 0.44578 0.43677 0.0
C394 C 0.07677 0.48114 0.4258 0.0
C395 C 0.05283 0.49878 0.446 0.0
C396 C 0.07124 0.42921 0.46851 0.0
C397 C 0.04797 0.44794 0.48837 0.0
N398 N 0.96898 0.53337 0.53283 0.0
C399 C 0.92863 0.58316 0.53581 0.0
C400 C 0.92727 0.57459 0.57505 0.0
C401 C 0.94563 0.54419 0.59248 0.0
C402 C 0.96565 0.52379 0.57091 0.0
C403 C 0.94969 0.56245 0.51539 0.0
H404 H 0.97886 0.50081 0.58593 0.0
H405 H 0.95066 0.57102 0.48573 0.0
H406 H 0.04638 0.5255 0.4356 0.0
H407 H 0.03817 0.43375 0.51262 0.0
C408 C 0.01207 0.44364 0.57556 0.0
C409 C 0.0649 0.55314 0.55318 0.0
C410 C 0.93995 0.46349 0.45837 0.0
C411 C 0.99546 0.5718 0.43391 0.0
H412 H 0.094 0.50983 0.62043 0.0
H413 H 0.06584 0.44915 0.63244 0.0
H414 H 0.96388 0.3911 0.57152 0.0
H415 H 0.92508 0.40193 0.5065 0.0
H416 H 0.91727 0.50277 0.38642 0.0
H417 H 0.94781 0.562 0.37238 0.0
H418 H 0.03701 0.62897 0.44317 0.0
H419 H 0.07541 0.61799 0.50847 0.0
H420 H 0.08741 0.49501 0.40117 0.0
H421 H 0.07794 0.4019 0.47831 0.0
H422 H 0.91467 0.60652 0.52121 0.0
H423 H 0.94483 0.53636 0.62279 0.0
H424 H 0.13615 0.06144 0.39246 0.0
H425 H 0.08528 0.15007 0.43413 0.0
H426 H 0.12028 0.1893 0.3956 0.0
H427 H 0.16468 0.19884 0.34847 0.0
H428 H 0.21475 0.11048 0.30626 0.0
H429 H 0.18051 0.07083 0.34595 0.0
C430 C 0.13249 0.08934 0.39299 0.0
C431 C 0.10794 0.1026 0.41636 0.0
C432 C 0.15254 0.11189 0.3704 0.0
C433 C 0.1042 0.13891 0.41698 0.0
C434 C 0.12406 0.16147 0.39466 0.0
C435 C 0.16796 0.17087 0.34814 0.0
C436 C 0.19202 0.15739 0.32462 0.0
C437 C 0.1482 0.14831 0.37111 0.0
C438 C 0.19629 0.12123 0.32424 0.0
C439 C 0.17675 0.09865 0.3469 0.0
H440 H 0.13274 0.95546 0.60366 0.0
H441 H 0.052 0.88611 0.58529 0.0
H442 H 0.08498 0.83889 0.62686 0.0
H443 H 0.13772 0.81685 0.66675 0.0
H444 H 0.21625 0.88711 0.69005 0.0
H445 H 0.1832 0.93469 0.64863 0.0
C446 C 0.12223 0.93013 0.60933 0.0
C447 C 0.09001 0.92419 0.59155 0.0
C448 C 0.1409 0.90341 0.63416 0.0
C449 C 0.07681 0.89117 0.59863 0.0
C450 C 0.0956 0.86425 0.62242 0.0
C451 C 0.14712 0.84282 0.66345 0.0
C452 C 0.17907 0.84873 0.68177 0.0
C453 C 0.12772 0.87001 0.6402 0.0
C454 C 0.19149 0.88221 0.67652 0.0
C455 C 0.1727 0.90927 0.65274 0.0
H456 H 0.36125 0.9185 0.93915 0.0
H457 H 0.45386 0.9021 0.88021 0.0
H458 H 0.42425 0.86316 0.84153 0.0
H459 H 0.37243 0.83353 0.82485 0.0
H460 H 0.27756 0.85464 0.87896 0.0
H461 H 0.30785 0.89102 0.91959 0.0
C462 C 0.37482 0.9063 0.91782 0.0
C463 C 0.40969 0.91302 0.91254 0.0
C464 C 0.35732 0.88455 0.89498 0.0
C465 C 0.42699 0.89737 0.88464 0.0
C466 C 0.41008 0.87507 0.8626 0.0
C467 C 0.35793 0.84646 0.84492 0.0
C468 C 0.32244 0.84083 0.84845 0.0
C469 C 0.3752 0.86854 0.86741 0.0
C470 C 0.30491 0.85749 0.87573 0.0
C471 C 0.32218 0.87874 0.8989 0.0
H472 H 0.38785 0.16119 0.15788 0.0
H473 H 0.29518 0.10537 0.14779 0.0
H474 H 0.32444 0.06583 0.10944 0.0
H475 H 0.37634 0.04731 0.07777 0.0
H476 H 0.46873 0.10322 0.08698 0.0
H477 H 0.4399 0.14241 0.12657 0.0
C478 C 0.3742 0.14016 0.1476 0.0
C479 C 0.33931 0.13635 0.1557 0.0
C480 C 0.39116 0.11758 0.12523 0.0
C481 C 0.32189 0.10918 0.14168 0.0
C482 C 0.33864 0.08646 0.11981 0.0
C483 C 0.39001 0.06808 0.08863 0.0
C484 C 0.42452 0.07247 0.07982 0.0
C485 C 0.37319 0.0905 0.1112 0.0
C486 C 0.44212 0.09949 0.09363 0.0
C487 C 0.42566 0.1218 0.11624 0.0
H488 H 0.90487 0.93634 0.64725 0.0
H489 H 0.88966 0.88034 0.54993 0.0
H490 H 0.85256 0.84161 0.58548 0.0
H491 H 0.82374 0.82318 0.64448 0.0
H492 H 0.83301 0.88384 0.73815 0.0
H493 H 0.87226 0.92146 0.7035 0.0
C494 C 0.89311 0.91618 0.63326 0.0
C495 C 0.90093 0.91146 0.59572 0.0
C496 C 0.87057 0.89452 0.65342 0.0
C497 C 0.8854 0.88442 0.57898 0.0
C498 C 0.86369 0.86228 0.59922 0.0
C499 C 0.83451 0.84461 0.65721 0.0
C500 C 0.82658 0.84991 0.69439 0.0
C501 C 0.8562 0.86693 0.63653 0.0
C502 C 0.83979 0.87841 0.71016 0.0
C503 C 0.86202 0.9001 0.69022 0.0
H504 H 0.87918 0.06026 0.4147 0.0
H505 H 0.96629 0.12413 0.42103 0.0
H506 H 0.93369 0.17184 0.37971 0.0
H507 H 0.87963 0.19593 0.34316 0.0
H508 H 0.79436 0.13046 0.33199 0.0
H509 H 0.82681 0.08272 0.37359 0.0
C510 C 0.89112 0.08443 0.40639 0.0
C511 C 0.92508 0.08873 0.42061 0.0
C512 C 0.87243 0.11146 0.38202 0.0
C513 C 0.94018 0.12033 0.41024 0.0
C514 C 0.92155 0.14756 0.38673 0.0
C515 C 0.86838 0.17106 0.34967 0.0
C516 C 0.83459 0.16671 0.335 0.0
C517 C 0.88757 0.14353 0.37267 0.0
C518 C 0.82022 0.13441 0.3434 0.0
C519 C 0.83878 0.10716 0.36705 0.0
H520 H 0.65924 0.1429 0.20717 0.0
H521 H 0.69312 0.20195 0.10634 0.0
H522 H 0.65981 0.16728 0.06632 0.0
H523 H 0.62139 0.11994 0.0595 0.0
H524 H 0.58482 0.06272 0.15997 0.0
H525 H 0.61892 0.0967 0.2002 0.0
C526 C 0.6591 0.14847 0.17645 0.0
C527 C 0.67908 0.17497 0.16002 0.0
C528 C 0.6395 0.12855 0.15334 0.0
C529 C 0.67869 0.18136 0.12002 0.0
C530 C 0.65941 0.16165 0.09698 0.0
C531 C 0.62047 0.11506 0.09016 0.0
C532 C 0.60047 0.08851 0.10641 0.0
C533 C 0.63979 0.13511 0.11329 0.0
C534 C 0.60035 0.08242 0.1464 0.0
C535 C 0.61967 0.10209 0.16955 0.0
H536 H 0.63474 0.96003 0.94371 0.0
H537 H 0.54083 0.90856 0.92451 0.0
H538 H 0.57078 0.87028 0.88493 0.0
H539 H 0.62371 0.85135 0.8561 0.0
H540 H 0.71836 0.90188 0.8763 0.0
H541 H 0.6881 0.94098 0.9144 0.0
C542 C 0.621 0.94046 0.93064 0.0
C543 C 0.58573 0.93699 0.93676 0.0
C544 C 0.63847 0.91852 0.908 0.0
C545 C 0.568 0.91155 0.92001 0.0
C546 C 0.58512 0.88974 0.89744 0.0
C547 C 0.63789 0.87068 0.86908 0.0
C548 C 0.67342 0.87343 0.86327 0.0
C549 C 0.62039 0.89288 0.89134 0.0
C550 C 0.69099 0.89927 0.87979 0.0
C551 C 0.67373 0.92155 0.90186 0.0
H552 H 0.60195 0.58288 0.8587 0.0
H553 H 0.62426 0.6266 0.96361 0.0
H554 H 0.65868 0.66886 0.93048 0.0
H555 H 0.68283 0.69443 0.87202 0.0
H556 H 0.67129 0.6444 0.77043 0.0
H557 H 0.63267 0.60357 0.80212 0.0
C558 C 0.61467 0.60099 0.87491 0.0
C559 C 0.60885 0.60146 0.91396 0.0
C560 C 0.63665 0.62438 0.85614 0.0
C561 C 0.62607 0.62592 0.93343 0.0
C562 C 0.64652 0.65012 0.91456 0.0
C563 C 0.67246 0.67412 0.857 0.0
C564 C 0.68015 0.67231 0.81896 0.0
C565 C 0.65184 0.64974 0.87595 0.0
C566 C 0.66581 0.64631 0.79973 0.0
C567 C 0.64379 0.62296 0.8179 0.0
H568 H 0.65657 0.32753 0.16702 0.0
H569 H 0.73119 0.4052 0.17326 0.0
H570 H 0.69328 0.44714 0.1297 0.0
H571 H 0.63865 0.46155 0.0895 0.0
H572 H 0.56259 0.3849 0.08654 0.0
H573 H 0.60106 0.34265 0.12896 0.0
C574 C 0.66438 0.35368 0.15874 0.0
C575 C 0.69672 0.36325 0.17275 0.0
C576 C 0.64215 0.37775 0.13433 0.0
C577 C 0.70657 0.39724 0.1623 0.0
C578 C 0.68488 0.42118 0.13754 0.0
C579 C 0.63056 0.43564 0.09845 0.0
C580 C 0.59792 0.42623 0.0851 0.0
C581 C 0.65261 0.41173 0.12333 0.0
C582 C 0.58766 0.39258 0.09655 0.0
C583 C 0.60961 0.36849 0.12077 0.0
H584 H 0.82085 0.39411 0.36955 0.0
H585 H 0.90883 0.33011 0.34257 0.0
H586 H 0.94764 0.36198 0.38029 0.0
H587 H 0.95705 0.40862 0.42078 0.0
H588 H 0.86961 0.4728 0.4477 0.0
H589 H 0.83015 0.44021 0.41078 0.0
C590 C 0.84846 0.38692 0.37217 0.0
C591 C 0.86177 0.35977 0.35292 0.0
C592 C 0.8708 0.40544 0.39404 0.0
C593 C 0.89779 0.3512 0.35643 0.0
C594 C 0.92006 0.36929 0.37824 0.0
C595 C 0.92931 0.41523 0.41856 0.0
C596 C 0.91606 0.4429 0.4368 0.0
C597 C 0.90693 0.39654 0.39705 0.0
C598 C 0.88019 0.45151 0.43382 0.0
C599 C 0.85773 0.43292 0.4127 0.0
H600 H 0.87278 0.67656 0.68743 0.0
H601 H 0.77475 0.66189 0.62854 0.0
H602 H 0.80445 0.62531 0.5877 0.0
H603 H 0.8584 0.59581 0.5694 0.0
H604 H 0.95495 0.60606 0.63274 0.0
H605 H 0.92558 0.64518 0.67166 0.0
C606 C 0.85757 0.665 0.66622 0.0
C607 C 0.82131 0.6724 0.66142 0.0
C608 C 0.87465 0.64289 0.64356 0.0
C609 C 0.80266 0.65755 0.63276 0.0
C610 C 0.81962 0.63623 0.60946 0.0
C611 C 0.87287 0.60673 0.59173 0.0
C612 C 0.90874 0.5982 0.59825 0.0
C613 C 0.85561 0.62861 0.61463 0.0
C614 C 0.92728 0.6122 0.62739 0.0
C615 C 0.91051 0.6346 0.64956 0.0
H616 H 0.37075 0.43686 0.10398 0.0
H617 H 0.4475 0.35473 0.09002 0.0
H618 H 0.41421 0.31219 0.12608 0.0
H619 H 0.36314 0.29781 0.16186 0.0
H620 H 0.28689 0.37941 0.17736 0.0
H621 H 0.31997 0.42254 0.14078 0.0
C622 C 0.38035 0.40972 0.10907 0.0
C623 C 0.41158 0.39915 0.09387 0.0
C624 C 0.36104 0.38518 0.13012 0.0
C625 C 0.42331 0.36368 0.10062 0.0
C626 C 0.40437 0.33926 0.12149 0.0
C627 C 0.35388 0.32507 0.15711 0.0
C628 C 0.32265 0.33553 0.17202 0.0
C629 C 0.37315 0.34964 0.13626 0.0
C630 C 0.31081 0.37086 0.16589 0.0
C631 C 0.32976 0.39546 0.14508 0.0
H632 H 0.35866 0.63494 0.79648 0.0
H633 H 0.30826 0.68574 0.88229 0.0
H634 H 0.34142 0.6458 0.93195 0.0
H635 H 0.38347 0.59478 0.94998 0.0
H636 H 0.4524 0.56656 0.86563 0.0
H637 H 0.41374 0.59985 0.81554 0.0
C638 C 0.35646 0.63961 0.82571 0.0
C639 C 0.33103 0.66418 0.83508 0.0
C640 C 0.37869 0.61991 0.85425 0.0
C641 C 0.32725 0.66694 0.87392 0.0
C642 C 0.3463 0.6442 0.90242 0.0
C643 C 0.39148 0.5973 0.92108 0.0
C644 C 0.42101 0.57762 0.91203 0.0
C645 C 0.37207 0.62043 0.89285 0.0
C646 C 0.42938 0.5804 0.87366 0.0
C647 C 0.40749 0.59978 0.84494 0.0
H648 H 0.12211 0.66398 0.65395 0.0
H649 H 0.21937 0.60859 0.63892 0.0
H650 H 0.18887 0.56891 0.60219 0.0
H651 H 0.13436 0.55062 0.57267 0.0
H652 H 0.03751 0.60643 0.58722 0.0
H653 H 0.06791 0.6455 0.62525 0.0
C654 C 0.13673 0.64342 0.64241 0.0
C655 C 0.17311 0.63947 0.64923 0.0
C656 C 0.11901 0.62075 0.62109 0.0
C657 C 0.1914 0.61214 0.63457 0.0
C658 C 0.17397 0.58951 0.61332 0.0
C659 C 0.12007 0.57125 0.58447 0.0
C660 C 0.08384 0.5757 0.57746 0.0
C661 C 0.13779 0.5936 0.60627 0.0
C662 C 0.06543 0.60259 0.59248 0.0
C663 C 0.08281 0.62488 0.61414 0.0
H664 H 0.20455 0.38024 0.34589 0.0
H665 H 0.13009 0.30248 0.33825 0.0
H666 H 0.0908 0.33384 0.37587 0.0
H667 H 0.07707 0.38397 0.40999 0.0
H668 H 0.14963 0.46386 0.41463 0.0
H669 H 0.19008 0.43142 0.37908 0.0
C670 C 0.17977 0.37021 0.35272 0.0
C671 C 0.17017 0.33911 0.33951 0.0
C672 C 0.15694 0.38887 0.37365 0.0
C673 C 0.13789 0.32646 0.34808 0.0
C674 C 0.11547 0.34435 0.36958 0.0
C675 C 0.10184 0.39413 0.40337 0.0
C676 C 0.11045 0.42615 0.41505 0.0
C677 C 0.12463 0.37565 0.38238 0.0
C678 C 0.14238 0.43933 0.40578 0.0
C679 C 0.16554 0.42073 0.38558 0.0
loop_
_geom_bond_atom_site_label_1
_geom_bond_atom_site_label_2
_geom_bond_distance
_geom_bond_site_symmetry_2
_ccdc_geom_bond_type
C0 C1 1.443 . S
C0 N4 1.376 . S
C0 C38 1.389 . S
C1 C0 1.443 . S
C1 C2 1.340 . S
C1 H41 0.951 . S
C2 C1 1.340 . S
C2 C3 1.439 . S
C2 H42 0.950 . S
C3 C2 1.439 . S
C3 N4 1.374 . S
C3 C37 1.395 1_455 S
N4 C0 1.376 . S
N4 C3 1.374 . S
N4 Co5 1.998 1_565 S
Co5 N4 1.998 1_545 S
Co5 N6 1.995 1_455 S
Co5 N11 2.018 1_455 S
Co5 N16 1.997 . S
Co5 N21 2.289 . S
Co5 N27 2.276 1_445 S
N6 Co5 1.995 1_655 S
N6 C7 1.357 1_545 S
N6 C10 1.400 . S
C7 N6 1.357 1_565 S
C7 C8 1.446 . S
C7 C37 1.391 . S
C8 C7 1.446 . S
C8 C9 1.339 1_565 S
C8 H43 0.949 . S
C9 C8 1.339 1_545 S
C9 C10 1.439 . S
C9 H44 0.950 . S
C10 N6 1.400 . S
C10 C9 1.439 . S
C10 C39 1.392 . S
N11 Co5 2.018 1_655 S
N11 C12 1.376 . S
N11 C15 1.374 . S
C12 N11 1.376 . S
C12 C13 1.443 . S
C12 C39 1.389 . S
C13 C12 1.443 . S
C13 C14 1.340 . S
C13 H45 0.951 . S
C14 C13 1.340 . S
C14 C15 1.439 . S
C14 H46 0.950 . S
C15 N11 1.374 . S
C15 C14 1.439 . S
C15 C40 1.395 1_655 S
N16 Co5 1.997 . S
N16 C17 1.375 . S
N16 C20 1.384 1_545 S
C17 N16 1.375 . S
C17 C18 1.446 . S
C17 C40 1.391 . S
C18 C17 1.446 . S
C18 C19 1.339 1_545 S
C18 H47 0.949 . S
C19 C18 1.339 1_565 S
C19 C20 1.439 . S
C19 H48 0.950 . S
C20 N16 1.384 1_565 S
C20 C19 1.439 . S
C20 C38 1.392 . S
N21 Co5 2.289 . S
N21 C24 1.332 . S
N21 C26 1.332 . S
C22 C23 1.386 . S
C22 C25 1.388 . S
C23 C22 1.386 . S
C23 C24 1.382 . S
C23 H49 0.950 . S
C24 N21 1.332 . S
C24 C23 1.382 . S
C24 H35 0.952 . S
C25 C22 1.388 . S
C25 C26 1.382 . S
C25 H50 0.950 . S
C26 N21 1.332 . S
C26 C25 1.382 . S
C26 H36 0.948 . S
N27 Co5 2.276 1_665 S
N27 C31 1.332 . S
N27 C32 1.332 . S
C28 C29 1.388 . S
C28 C32 1.382 . S
C28 H51 0.950 . S
C29 C28 1.388 . S
C29 C30 1.386 . S
C30 C29 1.386 . S
C30 C31 1.382 . S
C30 H52 0.950 . S
C31 N27 1.332 . S
C31 C30 1.382 . S
C31 H33 0.952 . S
C32 N27 1.332 . S
C32 C28 1.382 . S
C32 H34 0.948 . S
H33 C31 0.952 . S
H34 C32 0.948 . S
H35 C24 0.952 . S
H36 C26 0.948 . S
C37 C3 1.395 1_655 S
C37 C7 1.391 . S
C38 C0 1.389 . S
C38 C20 1.392 . S
C39 C10 1.392 . S
C39 C12 1.389 . S
C40 C15 1.395 1_455 S
C40 C17 1.391 . S
H41 C1 0.951 . S
H42 C2 0.950 . S
H43 C8 0.949 . S
H44 C9 0.950 . S
H45 C13 0.951 . S
H46 C14 0.950 . S
H47 C18 0.949 . S
H48 C19 0.950 . S
H49 C23 0.950 . S
H50 C25 0.950 . S
H51 C28 0.950 . S
H52 C30 0.950 . S
C53 C54 1.443 . S
C53 N57 1.376 . S
C53 C91 1.389 . S
C54 C53 1.443 . S
C54 C55 1.340 . S
C54 H94 0.951 . S
C55 C54 1.340 . S
C55 C56 1.439 . S
C55 H95 0.950 . S
C56 C55 1.439 . S
C56 N57 1.374 . S
C56 C90 1.395 . S
N57 C53 1.376 . S
N57 C56 1.374 . S
N57 Co58 2.008 . S
Co58 N57 2.008 . S
Co58 N59 1.995 . S
Co58 N64 2.008 . S
Co58 N69 1.995 . S
Co58 N74 2.282 . S
Co58 N80 2.282 . S
N59 Co58 1.995 . S
N59 C60 1.376 . S
N59 C63 1.383 . S
C60 N59 1.376 . S
C60 C61 1.446 . S
C60 C90 1.391 . S
C61 C60 1.446 . S
C61 C62 1.339 . S
C61 H96 0.949 . S
C62 C61 1.339 . S
C62 C63 1.439 . S
C62 H97 0.950 . S
C63 N59 1.383 . S
C63 C62 1.439 . S
C63 C92 1.392 . S
N64 Co58 2.008 . S
N64 C65 1.376 . S
N64 C68 1.374 . S
C65 N64 1.376 . S
C65 C66 1.443 . S
C65 C92 1.389 . S
C66 C65 1.443 . S
C66 C67 1.340 . S
C66 H98 0.951 . S
C67 C66 1.340 . S
C67 C68 1.439 . S
C67 H99 0.950 . S
C68 N64 1.374 . S
C68 C67 1.439 . S
C68 C93 1.395 . S
N69 Co58 1.995 . S
N69 C70 1.376 . S
N69 C73 1.383 . S
C70 N69 1.376 . S
C70 C71 1.446 . S
C70 C93 1.391 . S
C71 C70 1.446 . S
C71 C72 1.339 . S
C71 H100 0.949 . S
C72 C71 1.339 . S
C72 C73 1.439 . S
C72 H101 0.950 . S
C73 N69 1.383 . S
C73 C72 1.439 . S
C73 C91 1.392 . S
N74 Co58 2.282 . S
N74 C77 1.332 . S
N74 C79 1.332 . S
C75 C76 1.386 . S
C75 C78 1.388 . S
C76 C75 1.386 . S
C76 C77 1.382 . S
C76 H102 0.950 . S
C77 N74 1.332 . S
C77 C76 1.382 . S
C77 H88 0.952 . S
C78 C75 1.388 . S
C78 C79 1.382 . S
C78 H103 0.950 . S
C79 N74 1.332 . S
C79 C78 1.382 . S
C79 H89 0.948 . S
N80 Co58 2.282 . S
N80 C84 1.332 . S
N80 C85 1.332 . S
C81 C82 1.388 . S
C81 C85 1.382 . S
C81 H104 0.950 . S
C82 C81 1.388 . S
C82 C83 1.386 . S
C83 C82 1.386 . S
C83 C84 1.382 . S
C83 H105 0.950 . S
C84 N80 1.332 . S
C84 C83 1.382 . S
C84 H86 0.952 . S
C85 N80 1.332 . S
C85 C81 1.382 . S
C85 H87 0.948 . S
H86 C84 0.952 . S
H87 C85 0.948 . S
H88 C77 0.952 . S
H89 C79 0.948 . S
C90 C56 1.395 . S
C90 C60 1.391 . S
C91 C53 1.389 . S
C91 C73 1.392 . S
C92 C63 1.392 . S
C92 C65 1.389 . S
C93 C68 1.395 . S
C93 C70 1.391 . S
H94 C54 0.951 . S
H95 C55 0.950 . S
H96 C61 0.949 . S
H97 C62 0.950 . S
H98 C66 0.951 . S
H99 C67 0.950 . S
H100 C71 0.949 . S
H101 C72 0.950 . S
H102 C76 0.950 . S
H103 C78 0.950 . S
H104 C81 0.950 . S
H105 C83 0.950 . S
C106 C107 1.437 1_554 S
C106 N110 1.376 1_554 S
C106 C144 1.389 . S
C107 C106 1.437 1_556 S
C107 C108 1.366 . S
C107 H147 0.936 1_556 S
C108 C107 1.366 . S
C108 C109 1.439 . S
C108 H148 0.950 . S
C109 C108 1.439 . S
C109 N110 1.374 . S
C109 C143 1.395 . S
N110 C106 1.376 1_556 S
N110 C109 1.374 . S
N110 Co111 2.027 1_556 S
Co111 N110 2.027 1_554 S
Co111 N112 1.991 1_554 S
Co111 N117 1.989 1_545 S
Co111 N122 1.999 1_545 S
Co111 N127 2.266 1_544 S
Co111 N133 2.299 . S
N112 Co111 1.991 1_556 S
N112 C113 1.376 . S
N112 C116 1.383 1_545 S
C113 N112 1.376 . S
C113 C114 1.446 . S
C113 C143 1.391 . S
C114 C113 1.446 . S
C114 C115 1.339 . S
C114 H149 0.949 . S
C115 C114 1.339 . S
C115 C116 1.439 1_545 S
C115 H150 0.950 1_545 S
C116 N112 1.383 1_565 S
C116 C115 1.439 1_565 S
C116 C145 1.392 . S
N117 Co111 1.989 1_565 S
N117 C118 1.376 1_554 S
N117 C121 1.374 . S
C118 N117 1.376 1_556 S
C118 C119 1.443 1_556 S
C118 C145 1.389 . S
C119 C118 1.443 1_554 S
C119 C120 1.340 . S
C119 H151 0.951 1_554 S
C120 C119 1.340 . S
C120 C121 1.439 . S
C120 H152 0.950 . S
C121 N117 1.374 . S
C121 C120 1.439 . S
C121 C146 1.395 . S
N122 Co111 1.999 1_565 S
N122 C123 1.376 . S
N122 C126 1.383 1_565 S
C123 N122 1.376 . S
C123 C124 1.446 . S
C123 C146 1.391 . S
C124 C123 1.446 . S
C124 C125 1.357 . S
C124 H153 0.949 . S
C125 C124 1.357 . S
C125 C126 1.432 1_565 S
C125 H154 0.940 1_565 S
C126 N122 1.383 1_545 S
C126 C125 1.432 1_545 S
C126 C144 1.392 . S
N127 Co111 2.266 1_566 S
N127 C130 1.332 . S
N127 C132 1.332 . S
C128 C129 1.386 . S
C128 C131 1.388 . S
C129 C128 1.386 . S
C129 C130 1.382 . S
C129 H155 0.950 . S
C130 N127 1.332 . S
C130 C129 1.382 . S
C130 H141 0.952 1_556 S
C131 C128 1.388 . S
C131 C132 1.382 . S
C131 H156 0.950 . S
C132 N127 1.332 . S
C132 C131 1.382 . S
C132 H142 0.948 . S
N133 Co111 2.299 . S
N133 C137 1.332 . S
N133 C138 1.332 . S
C134 C135 1.388 . S
C134 C138 1.382 . S
C134 H157 0.950 . S
C135 C134 1.388 . S
C135 C136 1.386 . S
C136 C135 1.386 . S
C136 C137 1.382 . S
C136 H158 0.950 . S
C137 N133 1.332 . S
C137 C136 1.382 . S
C137 H139 0.952 1_554 S
C138 N133 1.332 . S
C138 C134 1.382 . S
C138 H140 0.948 . S
H139 C137 0.952 1_556 S
H140 C138 0.948 . S
H141 C130 0.952 1_554 S
H142 C132 0.948 . S
C143 C109 1.395 . S
C143 C113 1.391 . S
C144 C106 1.389 . S
C144 C126 1.392 . S
C145 C116 1.392 . S
C145 C118 1.389 . S
C146 C121 1.395 . S
C146 C123 1.391 . S
H147 C107 0.936 1_554 S
H148 C108 0.950 . S
H149 C114 0.949 . S
H150 C115 0.950 1_565 S
H151 C119 0.951 1_556 S
H152 C120 0.950 . S
H153 C124 0.949 . S
H154 C125 0.940 1_545 S
H155 C129 0.950 . S
H156 C131 0.950 . S
H157 C134 0.950 . S
H158 C136 0.950 . S
C159 C160 1.443 . S
C159 N163 1.376 . S
C159 C197 1.389 . S
C160 C159 1.443 . S
C160 C161 1.340 . S
C160 H200 0.951 . S
C161 C160 1.340 . S
C161 C162 1.439 . S
C161 H201 0.950 . S
C162 C161 1.439 . S
C162 N163 1.374 . S
C162 C196 1.395 . S
N163 C159 1.376 . S
N163 C162 1.374 . S
N163 Co164 2.008 . S
Co164 N163 2.008 . S
Co164 N165 1.995 . S
Co164 N170 2.008 . S
Co164 N175 1.995 . S
Co164 N180 2.282 . S
Co164 N186 2.282 . S
N165 Co164 1.995 . S
N165 C166 1.376 . S
N165 C169 1.383 . S
C166 N165 1.376 . S
C166 C167 1.446 . S
C166 C196 1.391 . S
C167 C166 1.446 . S
C167 C168 1.339 . S
C167 H202 0.949 . S
C168 C167 1.339 . S
C168 C169 1.439 . S
C168 H203 0.950 . S
C169 N165 1.383 . S
C169 C168 1.439 . S
C169 C198 1.392 . S
N170 Co164 2.008 . S
N170 C171 1.376 . S
N170 C174 1.374 . S
C171 N170 1.376 . S
C171 C172 1.443 . S
C171 C198 1.389 . S
C172 C171 1.443 . S
C172 C173 1.340 . S
C172 H204 0.951 . S
C173 C172 1.340 . S
C173 C174 1.439 . S
C173 H205 0.950 . S
C174 N170 1.374 . S
C174 C173 1.439 . S
C174 C199 1.395 . S
N175 Co164 1.995 . S
N175 C176 1.376 . S
N175 C179 1.383 . S
C176 N175 1.376 . S
C176 C177 1.446 . S
C176 C199 1.391 . S
C177 C176 1.446 . S
C177 C178 1.339 . S
C177 H206 0.949 . S
C178 C177 1.339 . S
C178 C179 1.439 . S
C178 H207 0.950 . S
C179 N175 1.383 . S
C179 C178 1.439 . S
C179 C197 1.392 . S
N180 Co164 2.282 . S
N180 C183 1.332 . S
N180 C185 1.332 . S
C181 C182 1.386 . S
C181 C184 1.388 . S
C182 C181 1.386 . S
C182 C183 1.382 . S
C182 H208 0.950 . S
C183 N180 1.332 . S
C183 C182 1.382 . S
C183 H194 0.952 . S
C184 C181 1.388 . S
C184 C185 1.382 . S
C184 H209 0.950 . S
C185 N180 1.332 . S
C185 C184 1.382 . S
C185 H195 0.948 . S
N186 Co164 2.282 . S
N186 C190 1.332 . S
N186 C191 1.332 . S
C187 C188 1.388 . S
C187 C191 1.382 . S
C187 H210 0.950 . S
C188 C187 1.388 . S
C188 C189 1.386 . S
C189 C188 1.386 . S
C189 C190 1.382 . S
C189 H211 0.950 . S
C190 N186 1.332 . S
C190 C189 1.382 . S
C190 H192 0.952 . S
C191 N186 1.332 . S
C191 C187 1.382 . S
C191 H193 0.948 . S
H192 C190 0.952 . S
H193 C191 0.948 . S
H194 C183 0.952 . S
H195 C185 0.948 . S
C196 C162 1.395 . S
C196 C166 1.391 . S
C197 C159 1.389 . S
C197 C179 1.392 . S
C198 C169 1.392 . S
C198 C171 1.389 . S
C199 C174 1.395 . S
C199 C176 1.391 . S
H200 C160 0.951 . S
H201 C161 0.950 . S
H202 C167 0.949 . S
H203 C168 0.950 . S
H204 C172 0.951 . S
H205 C173 0.950 . S
H206 C177 0.949 . S
H207 C178 0.950 . S
H208 C182 0.950 . S
H209 C184 0.950 . S
H210 C187 0.950 . S
H211 C189 0.950 . S
C212 C213 1.443 . S
C212 N216 1.376 . S
C212 C250 1.389 . S
C213 C212 1.443 . S
C213 C214 1.340 . S
C213 H253 0.951 . S
C214 C213 1.340 . S
C214 C215 1.439 . S
C214 H254 0.950 . S
C215 C214 1.439 . S
C215 N216 1.374 . S
C215 C249 1.395 . S
N216 C212 1.376 . S
N216 C215 1.374 . S
N216 Co217 2.008 . S
Co217 N216 2.008 . S
Co217 N218 1.995 . S
Co217 N223 2.008 . S
Co217 N228 1.995 . S
Co217 N233 2.282 . S
Co217 N239 2.282 . S
N218 Co217 1.995 . S
N218 C219 1.376 . S
N218 C222 1.383 . S
C219 N218 1.376 . S
C219 C220 1.446 . S
C219 C249 1.391 . S
C220 C219 1.446 . S
C220 C221 1.339 . S
C220 H255 0.949 . S
C221 C220 1.339 . S
C221 C222 1.439 . S
C221 H256 0.950 . S
C222 N218 1.383 . S
C222 C221 1.439 . S
C222 C251 1.392 . S
N223 Co217 2.008 . S
N223 C224 1.376 . S
N223 C227 1.374 . S
C224 N223 1.376 . S
C224 C225 1.443 . S
C224 C251 1.389 . S
C225 C224 1.443 . S
C225 C226 1.340 . S
C225 H257 0.951 . S
C226 C225 1.340 . S
C226 C227 1.439 . S
C226 H258 0.950 . S
C227 N223 1.374 . S
C227 C226 1.439 . S
C227 C252 1.395 . S
N228 Co217 1.995 . S
N228 C229 1.376 . S
N228 C232 1.383 . S
C229 N228 1.376 . S
C229 C230 1.446 . S
C229 C252 1.391 . S
C230 C229 1.446 . S
C230 C231 1.339 . S
C230 H259 0.949 . S
C231 C230 1.339 . S
C231 C232 1.439 . S
C231 H260 0.950 . S
C232 N228 1.383 . S
C232 C231 1.439 . S
C232 C250 1.392 . S
N233 Co217 2.282 . S
N233 C236 1.332 . S
N233 C238 1.332 . S
C234 C235 1.386 . S
C234 C237 1.388 . S
C235 C234 1.386 . S
C235 C236 1.382 . S
C235 H261 0.950 . S
C236 N233 1.332 . S
C236 C235 1.382 . S
C236 H247 0.952 . S
C237 C234 1.388 . S
C237 C238 1.382 . S
C237 H262 0.950 . S
C238 N233 1.332 . S
C238 C237 1.382 . S
C238 H248 0.948 . S
N239 Co217 2.282 . S
N239 C243 1.332 . S
N239 C244 1.332 . S
C240 C241 1.388 . S
C240 C244 1.382 . S
C240 H263 0.950 . S
C241 C240 1.388 . S
C241 C242 1.386 . S
C242 C241 1.386 . S
C242 C243 1.382 . S
C242 H264 0.950 . S
C243 N239 1.332 . S
C243 C242 1.382 . S
C243 H245 0.952 . S
C244 N239 1.332 . S
C244 C240 1.382 . S
C244 H246 0.948 . S
H245 C243 0.952 . S
H246 C244 0.948 . S
H247 C236 0.952 . S
H248 C238 0.948 . S
C249 C215 1.395 . S
C249 C219 1.391 . S
C250 C212 1.389 . S
C250 C232 1.392 . S
C251 C222 1.392 . S
C251 C224 1.389 . S
C252 C227 1.395 . S
C252 C229 1.391 . S
H253 C213 0.951 . S
H254 C214 0.950 . S
H255 C220 0.949 . S
H256 C221 0.950 . S
H257 C225 0.951 . S
H258 C226 0.950 . S
H259 C230 0.949 . S
H260 C231 0.950 . S
H261 C235 0.950 . S
H262 C237 0.950 . S
H263 C240 0.950 . S
H264 C242 0.950 . S
C265 C266 1.443 . S
C265 N269 1.376 . S
C265 C303 1.389 . S
C266 C265 1.443 . S
C266 C267 1.340 . S
C266 H306 0.951 . S
C267 C266 1.340 . S
C267 C268 1.439 . S
C267 H307 0.950 . S
C268 C267 1.439 . S
C268 N269 1.374 . S
C268 C302 1.395 . S
N269 C265 1.376 . S
N269 C268 1.374 . S
N269 Co270 2.008 . S
Co270 N269 2.008 . S
Co270 N271 1.995 . S
Co270 N276 2.008 . S
Co270 N281 1.995 . S
Co270 N286 2.282 . S
Co270 N292 2.282 . S
N271 Co270 1.995 . S
N271 C272 1.376 . S
N271 C275 1.383 . S
C272 N271 1.376 . S
C272 C273 1.446 . S
C272 C302 1.391 . S
C273 C272 1.446 . S
C273 C274 1.339 . S
C273 H308 0.949 . S
C274 C273 1.339 . S
C274 C275 1.439 . S
C274 H309 0.950 . S
C275 N271 1.383 . S
C275 C274 1.439 . S
C275 C304 1.392 . S
N276 Co270 2.008 . S
N276 C277 1.376 . S
N276 C280 1.374 . S
C277 N276 1.376 . S
C277 C278 1.443 . S
C277 C304 1.389 . S
C278 C277 1.443 . S
C278 C279 1.340 . S
C278 H310 0.951 . S
C279 C278 1.340 . S
C279 C280 1.439 . S
C279 H311 0.950 . S
C280 N276 1.374 . S
C280 C279 1.439 . S
C280 C305 1.395 . S
N281 Co270 1.995 . S
N281 C282 1.376 . S
N281 C285 1.383 . S
C282 N281 1.376 . S
C282 C283 1.446 . S
C282 C305 1.391 . S
C283 C282 1.446 . S
C283 C284 1.339 . S
C283 H312 0.949 . S
C284 C283 1.339 . S
C284 C285 1.439 . S
C284 H313 0.950 . S
C285 N281 1.383 . S
C285 C284 1.439 . S
C285 C303 1.392 . S
N286 Co270 2.282 . S
N286 C289 1.332 . S
N286 C291 1.332 . S
C287 C288 1.386 . S
C287 C290 1.388 . S
C288 C287 1.386 . S
C288 C289 1.382 . S
C288 H314 0.950 . S
C289 N286 1.332 . S
C289 C288 1.382 . S
C289 H300 0.952 . S
C290 C287 1.388 . S
C290 C291 1.382 . S
C290 H315 0.950 . S
C291 N286 1.332 . S
C291 C290 1.382 . S
C291 H301 0.948 . S
N292 Co270 2.282 . S
N292 C296 1.332 . S
N292 C297 1.332 . S
C293 C294 1.388 . S
C293 C297 1.382 . S
C293 H316 0.950 . S
C294 C293 1.388 . S
C294 C295 1.386 . S
C295 C294 1.386 . S
C295 C296 1.382 . S
C295 H317 0.950 . S
C296 N292 1.332 . S
C296 C295 1.382 . S
C296 H298 0.952 . S
C297 N292 1.332 . S
C297 C293 1.382 . S
C297 H299 0.948 . S
H298 C296 0.952 . S
H299 C297 0.948 . S
H300 C289 0.952 . S
H301 C291 0.948 . S
C302 C268 1.395 . S
C302 C272 1.391 . S
C303 C265 1.389 . S
C303 C285 1.392 . S
C304 C275 1.392 . S
C304 C277 1.389 . S
C305 C280 1.395 . S
C305 C282 1.391 . S
H306 C266 0.951 . S
H307 C267 0.950 . S
H308 C273 0.949 . S
H309 C274 0.950 . S
H310 C278 0.951 . S
H311 C279 0.950 . S
H312 C283 0.949 . S
H313 C284 0.950 . S
H314 C288 0.950 . S
H315 C290 0.950 . S
H316 C293 0.950 . S
H317 C295 0.950 . S
C318 C319 1.443 . S
C318 N322 1.376 . S
C318 C356 1.389 . S
C319 C318 1.443 . S
C319 C320 1.340 . S
C319 H359 0.951 . S
C320 C319 1.340 . S
C320 C321 1.439 . S
C320 H360 0.950 . S
C321 C320 1.439 . S
C321 N322 1.374 . S
C321 C355 1.395 . S
N322 C318 1.376 . S
N322 C321 1.374 . S
N322 Co323 1.991 1_556 S
Co323 N322 1.991 1_554 S
Co323 N324 1.990 1_554 S
Co323 N329 2.025 . S
Co323 N334 1.999 . S
Co323 N339 2.290 . S
Co323 N345 2.275 1_554 S
N324 Co323 1.990 1_556 S
N324 C325 1.376 . S
N324 C328 1.383 1_556 S
C325 N324 1.376 . S
C325 C326 1.446 . S
C325 C355 1.391 . S
C326 C325 1.446 . S
C326 C327 1.339 1_556 S
C326 H361 0.949 . S
C327 C326 1.339 1_554 S
C327 C328 1.439 . S
C327 H362 0.950 . S
C328 N324 1.383 1_554 S
C328 C327 1.439 . S
C328 C357 1.392 . S
N329 Co323 2.025 . S
N329 C330 1.376 . S
N329 C333 1.374 . S
C330 N329 1.376 . S
C330 C331 1.443 . S
C330 C357 1.389 . S
C331 C330 1.443 . S
C331 C332 1.340 . S
C331 H363 0.951 . S
C332 C331 1.340 . S
C332 C333 1.439 . S
C332 H364 0.950 . S
C333 N329 1.374 . S
C333 C332 1.439 . S
C333 C358 1.395 . S
N334 Co323 1.999 . S
N334 C335 1.376 . S
N334 C338 1.383 1_554 S
C335 N334 1.376 . S
C335 C336 1.446 . S
C335 C358 1.391 . S
C336 C335 1.446 . S
C336 C337 1.339 1_554 S
C336 H365 0.949 . S
C337 C336 1.339 1_556 S
C337 C338 1.439 . S
C337 H366 0.950 . S
C338 N334 1.383 1_556 S
C338 C337 1.439 . S
C338 C356 1.392 . S
N339 Co323 2.290 . S
N339 C342 1.332 . S
N339 C344 1.332 . S
C340 C341 1.386 . S
C340 C343 1.388 . S
C341 C340 1.386 . S
C341 C342 1.382 . S
C341 H367 0.950 . S
C342 N339 1.332 . S
C342 C341 1.382 . S
C342 H353 0.952 . S
C343 C340 1.388 . S
C343 C344 1.382 . S
C343 H368 0.950 . S
C344 N339 1.332 . S
C344 C343 1.382 . S
C344 H354 0.948 . S
N345 Co323 2.275 1_556 S
N345 C349 1.332 . S
N345 C350 1.332 . S
C346 C347 1.388 . S
C346 C350 1.382 . S
C346 H369 0.950 . S
C347 C346 1.388 . S
C347 C348 1.386 . S
C348 C347 1.386 . S
C348 C349 1.382 . S
C348 H370 0.950 . S
C349 N345 1.332 . S
C349 C348 1.382 . S
C349 H351 0.952 . S
C350 N345 1.332 . S
C350 C346 1.382 . S
C350 H352 0.948 . S
H351 C349 0.952 . S
H352 C350 0.948 . S
H353 C342 0.952 . S
H354 C344 0.948 . S
C355 C321 1.395 . S
C355 C325 1.391 . S
C356 C318 1.389 . S
C356 C338 1.392 . S
C357 C328 1.392 . S
C357 C330 1.389 . S
C358 C333 1.395 . S
C358 C335 1.391 . S
H359 C319 0.951 . S
H360 C320 0.950 . S
H361 C326 0.949 . S
H362 C327 0.950 . S
H363 C331 0.951 . S
H364 C332 0.950 . S
H365 C336 0.949 . S
H366 C337 0.950 . S
H367 C341 0.950 . S
H368 C343 0.950 . S
H369 C346 0.950 . S
H370 C348 0.950 . S
C371 C372 1.443 . S
C371 N375 1.376 . S
C371 C409 1.389 . S
C372 C371 1.443 . S
C372 C373 1.340 . S
C372 H412 0.951 . S
C373 C372 1.340 . S
C373 C374 1.439 . S
C373 H413 0.950 . S
C374 C373 1.439 . S
C374 N375 1.374 . S
C374 C408 1.389 1_455 S
N375 C371 1.376 . S
N375 C374 1.374 . S
N375 Co376 2.009 . S
Co376 N375 2.009 . S
Co376 N377 1.993 1_455 S
Co376 N382 2.007 1_455 S
Co376 N387 1.996 . S
Co376 N392 2.285 . S
Co376 N398 2.280 1_455 S
N377 Co376 1.993 1_655 S
N377 C378 1.376 . S
N377 C381 1.383 . S
C378 N377 1.376 . S
C378 C379 1.446 . S
C378 C408 1.396 . S
C379 C378 1.446 . S
C379 C380 1.339 . S
C379 H414 0.949 . S
C380 C379 1.339 . S
C380 C381 1.439 . S
C380 H415 0.950 . S
C381 N377 1.383 . S
C381 C380 1.439 . S
C381 C410 1.392 . S
N382 Co376 2.007 1_655 S
N382 C383 1.376 . S
N382 C386 1.374 . S
C383 N382 1.376 . S
C383 C384 1.443 . S
C383 C410 1.389 . S
C384 C383 1.443 . S
C384 C385 1.340 . S
C384 H416 0.951 . S
C385 C384 1.340 . S
C385 C386 1.439 . S
C385 H417 0.950 . S
C386 N382 1.374 . S
C386 C385 1.439 . S
C386 C411 1.381 1_655 S
N387 Co376 1.996 . S
N387 C388 1.376 . S
N387 C391 1.383 . S
C388 N387 1.376 . S
C388 C389 1.446 . S
C388 C411 1.404 . S
C389 C388 1.446 . S
C389 C390 1.339 . S
C389 H418 0.949 . S
C390 C389 1.339 . S
C390 C391 1.439 . S
C390 H419 0.950 . S
C391 N387 1.383 . S
C391 C390 1.439 . S
C391 C409 1.392 . S
N392 Co376 2.285 . S
N392 C395 1.332 . S
N392 C397 1.332 . S
C393 C394 1.386 . S
C393 C396 1.388 . S
C394 C393 1.386 . S
C394 C395 1.382 . S
C394 H420 0.950 . S
C395 N392 1.332 . S
C395 C394 1.382 . S
C395 H406 0.952 . S
C396 C393 1.388 . S
C396 C397 1.382 . S
C396 H421 0.950 . S
C397 N392 1.332 . S
C397 C396 1.382 . S
C397 H407 0.948 . S
N398 Co376 2.280 1_655 S
N398 C402 1.332 . S
N398 C403 1.332 . S
C399 C400 1.388 . S
C399 C403 1.382 . S
C399 H422 0.950 . S
C400 C399 1.388 . S
C400 C401 1.386 . S
C401 C400 1.386 . S
C401 C402 1.382 . S
C401 H423 0.950 . S
C402 N398 1.332 . S
C402 C401 1.382 . S
C402 H404 0.952 . S
C403 N398 1.332 . S
C403 C399 1.382 . S
C403 H405 0.948 . S
H404 C402 0.952 . S
H405 C403 0.948 . S
H406 C395 0.952 . S
H407 C397 0.948 . S
C408 C374 1.389 1_655 S
C408 C378 1.396 . S
C409 C371 1.389 . S
C409 C391 1.392 . S
C410 C381 1.392 . S
C410 C383 1.389 . S
C411 C386 1.381 1_455 S
C411 C388 1.404 . S
H412 C372 0.951 . S
H413 C373 0.950 . S
H414 C379 0.949 . S
H415 C380 0.950 . S
H416 C384 0.951 . S
H417 C385 0.950 . S
H418 C389 0.949 . S
H419 C390 0.950 . S
H420 C394 0.950 . S
H421 C396 0.950 . S
H422 C399 0.950 . S
H423 C401 0.950 . S
H424 C430 0.930 . S
H425 C433 0.930 . S
H426 C434 0.930 . S
H427 C435 0.930 . S
H428 C438 0.930 . S
H429 C439 0.930 . S
C430 H424 0.930 . S
C430 C431 1.355 . S
C430 C432 1.415 . S
C431 C430 1.355 . S
C431 C433 1.419 . S
C432 C430 1.415 . S
C432 C437 1.425 . S
C432 C439 1.409 . S
C433 H425 0.930 . S
C433 C431 1.419 . S
C433 C434 1.362 . S
C434 H426 0.930 . S
C434 C433 1.362 . S
C434 C437 1.409 . S
C435 H427 0.930 . S
C435 C436 1.355 . S
C435 C437 1.415 . S
C436 C435 1.355 . S
C436 C438 1.419 . S
C437 C432 1.425 . S
C437 C434 1.409 . S
C437 C435 1.415 . S
C438 H428 0.930 . S
C438 C436 1.419 . S
C438 C439 1.362 . S
C439 H429 0.930 . S
C439 C432 1.409 . S
C439 C438 1.362 . S
H440 C446 0.930 . S
H441 C449 0.930 . S
H442 C450 0.930 . S
H443 C451 0.930 . S
H444 C454 0.930 . S
H445 C455 0.930 . S
C446 H440 0.930 . S
C446 C447 1.355 . S
C446 C448 1.415 . S
C447 C446 1.355 . S
C447 C449 1.419 . S
C448 C446 1.415 . S
C448 C453 1.425 . S
C448 C455 1.409 . S
C449 H441 0.930 . S
C449 C447 1.419 . S
C449 C450 1.362 . S
C450 H442 0.930 . S
C450 C449 1.362 . S
C450 C453 1.409 . S
C451 H443 0.930 . S
C451 C452 1.355 . S
C451 C453 1.415 . S
C452 C451 1.355 . S
C452 C454 1.419 . S
C453 C448 1.425 . S
C453 C450 1.409 . S
C453 C451 1.415 . S
C454 H444 0.930 . S
C454 C452 1.419 . S
C454 C455 1.362 . S
C455 H445 0.930 . S
C455 C448 1.409 . S
C455 C454 1.362 . S
H456 C462 0.930 . S
H457 C465 0.930 . S
H458 C466 0.930 . S
H459 C467 0.930 . S
H460 C470 0.930 . S
H461 C471 0.930 . S
C462 H456 0.930 . S
C462 C463 1.355 . S
C462 C464 1.415 . S
C463 C462 1.355 . S
C463 C465 1.419 . S
C464 C462 1.415 . S
C464 C469 1.425 . S
C464 C471 1.409 . S
C465 H457 0.930 . S
C465 C463 1.419 . S
C465 C466 1.362 . S
C466 H458 0.930 . S
C466 C465 1.362 . S
C466 C469 1.409 . S
C467 H459 0.930 . S
C467 C468 1.355 . S
C467 C469 1.415 . S
C468 C467 1.355 . S
C468 C470 1.419 . S
C469 C464 1.425 . S
C469 C466 1.409 . S
C469 C467 1.415 . S
C470 H460 0.930 . S
C470 C468 1.419 . S
C470 C471 1.362 . S
C471 H461 0.930 . S
C471 C464 1.409 . S
C471 C470 1.362 . S
H472 C478 0.930 . S
H473 C481 0.930 . S
H474 C482 0.930 . S
H475 C483 0.930 . S
H476 C486 0.930 . S
H477 C487 0.930 . S
C478 H472 0.930 . S
C478 C479 1.355 . S
C478 C480 1.415 . S
C479 C478 1.355 . S
C479 C481 1.419 . S
C480 C478 1.415 . S
C480 C485 1.425 . S
C480 C487 1.409 . S
C481 H473 0.930 . S
C481 C479 1.419 . S
C481 C482 1.362 . S
C482 H474 0.930 . S
C482 C481 1.362 . S
C482 C485 1.409 . S
C483 H475 0.930 . S
C483 C484 1.355 . S
C483 C485 1.415 . S
C484 C483 1.355 . S
C484 C486 1.419 . S
C485 C480 1.425 . S
C485 C482 1.409 . S
C485 C483 1.415 . S
C486 H476 0.930 . S
C486 C484 1.419 . S
C486 C487 1.362 . S
C487 H477 0.930 . S
C487 C480 1.409 . S
C487 C486 1.362 . S
H488 C494 0.930 . S
H489 C497 0.930 . S
H490 C498 0.930 . S
H491 C499 0.930 . S
H492 C502 0.930 . S
H493 C503 0.930 . S
C494 H488 0.930 . S
C494 C495 1.355 . S
C494 C496 1.415 . S
C495 C494 1.355 . S
C495 C497 1.419 . S
C496 C494 1.415 . S
C496 C501 1.425 . S
C496 C503 1.409 . S
C497 H489 0.930 . S
C497 C495 1.419 . S
C497 C498 1.362 . S
C498 H490 0.930 . S
C498 C497 1.362 . S
C498 C501 1.409 . S
C499 H491 0.930 . S
C499 C500 1.355 . S
C499 C501 1.415 . S
C500 C499 1.355 . S
C500 C502 1.419 . S
C501 C496 1.425 . S
C501 C498 1.409 . S
C501 C499 1.415 . S
C502 H492 0.930 . S
C502 C500 1.419 . S
C502 C503 1.362 . S
C503 H493 0.930 . S
C503 C496 1.409 . S
C503 C502 1.362 . S
H504 C510 0.930 . S
H505 C513 0.930 . S
H506 C514 0.930 . S
H507 C515 0.930 . S
H508 C518 0.930 . S
H509 C519 0.930 . S
C510 H504 0.930 . S
C510 C511 1.355 . S
C510 C512 1.415 . S
C511 C510 1.355 . S
C511 C513 1.419 . S
C512 C510 1.415 . S
C512 C517 1.425 . S
C512 C519 1.409 . S
C513 H505 0.930 . S
C513 C511 1.419 . S
C513 C514 1.362 . S
C514 H506 0.930 . S
C514 C513 1.362 . S
C514 C517 1.409 . S
C515 H507 0.930 . S
C515 C516 1.355 . S
C515 C517 1.415 . S
C516 C515 1.355 . S
C516 C518 1.419 . S
C517 C512 1.425 . S
C517 C514 1.409 . S
C517 C515 1.415 . S
C518 H508 0.930 . S
C518 C516 1.419 . S
C518 C519 1.362 . S
C519 H509 0.930 . S
C519 C512 1.409 . S
C519 C518 1.362 . S
H520 C526 0.930 . S
H521 C529 0.930 . S
H522 C530 0.930 . S
H523 C531 0.930 . S
H524 C534 0.930 . S
H525 C535 0.930 . S
C526 H520 0.930 . S
C526 C527 1.355 . S
C526 C528 1.415 . S
C527 C526 1.355 . S
C527 C529 1.419 . S
C528 C526 1.415 . S
C528 C533 1.425 . S
C528 C535 1.409 . S
C529 H521 0.930 . S
C529 C527 1.419 . S
C529 C530 1.362 . S
C530 H522 0.930 . S
C530 C529 1.362 . S
C530 C533 1.409 . S
C531 H523 0.930 . S
C531 C532 1.355 . S
C531 C533 1.415 . S
C532 C531 1.355 . S
C532 C534 1.419 . S
C533 C528 1.425 . S
C533 C530 1.409 . S
C533 C531 1.415 . S
C534 H524 0.930 . S
C534 C532 1.419 . S
C534 C535 1.362 . S
C535 H525 0.930 . S
C535 C528 1.409 . S
C535 C534 1.362 . S
H536 C542 0.930 . S
H537 C545 0.930 . S
H538 C546 0.930 . S
H539 C547 0.930 . S
H540 C550 0.930 . S
H541 C551 0.930 . S
C542 H536 0.930 . S
C542 C543 1.355 . S
C542 C544 1.415 . S
C543 C542 1.355 . S
C543 C545 1.419 . S
C544 C542 1.415 . S
C544 C549 1.425 . S
C544 C551 1.409 . S
C545 H537 0.930 . S
C545 C543 1.419 . S
C545 C546 1.362 . S
C546 H538 0.930 . S
C546 C545 1.362 . S
C546 C549 1.409 . S
C547 H539 0.930 . S
C547 C548 1.355 . S
C547 C549 1.415 . S
C548 C547 1.355 . S
C548 C550 1.419 . S
C549 C544 1.425 . S
C549 C546 1.409 . S
C549 C547 1.415 . S
C550 H540 0.930 . S
C550 C548 1.419 . S
C550 C551 1.362 . S
C551 H541 0.930 . S
C551 C544 1.409 . S
C551 C550 1.362 . S
H552 C558 0.930 . S
H553 C561 0.930 . S
H554 C562 0.930 . S
H555 C563 0.930 . S
H556 C566 0.930 . S
H557 C567 0.930 . S
C558 H552 0.930 . S
C558 C559 1.355 . S
C558 C560 1.415 . S
C559 C558 1.355 . S
C559 C561 1.419 . S
C560 C558 1.415 . S
C560 C565 1.425 . S
C560 C567 1.409 . S
C561 H553 0.930 . S
C561 C559 1.419 . S
C561 C562 1.362 . S
C562 H554 0.930 . S
C562 C561 1.362 . S
C562 C565 1.409 . S
C563 H555 0.930 . S
C563 C564 1.355 . S
C563 C565 1.415 . S
C564 C563 1.355 . S
C564 C566 1.419 . S
C565 C560 1.425 . S
C565 C562 1.409 . S
C565 C563 1.415 . S
C566 H556 0.930 . S
C566 C564 1.419 . S
C566 C567 1.362 . S
C567 H557 0.930 . S
C567 C560 1.409 . S
C567 C566 1.362 . S
H568 C574 0.930 . S
H569 C577 0.930 . S
H570 C578 0.930 . S
H571 C579 0.930 . S
H572 C582 0.930 . S
H573 C583 0.930 . S
C574 H568 0.930 . S
C574 C575 1.355 . S
C574 C576 1.415 . S
C575 C574 1.355 . S
C575 C577 1.419 . S
C576 C574 1.415 . S
C576 C581 1.425 . S
C576 C583 1.409 . S
C577 H569 0.930 . S
C577 C575 1.419 . S
C577 C578 1.362 . S
C578 H570 0.930 . S
C578 C577 1.362 . S
C578 C581 1.409 . S
C579 H571 0.930 . S
C579 C580 1.355 . S
C579 C581 1.415 . S
C580 C579 1.355 . S
C580 C582 1.419 . S
C581 C576 1.425 . S
C581 C578 1.409 . S
C581 C579 1.415 . S
C582 H572 0.930 . S
C582 C580 1.419 . S
C582 C583 1.362 . S
C583 H573 0.930 . S
C583 C576 1.409 . S
C583 C582 1.362 . S
H584 C590 0.930 . S
H585 C593 0.930 . S
H586 C594 0.930 . S
H587 C595 0.930 . S
H588 C598 0.930 . S
H589 C599 0.930 . S
C590 H584 0.930 . S
C590 C591 1.355 . S
C590 C592 1.415 . S
C591 C590 1.355 . S
C591 C593 1.419 . S
C592 C590 1.415 . S
C592 C597 1.425 . S
C592 C599 1.409 . S
C593 H585 0.930 . S
C593 C591 1.419 . S
C593 C594 1.362 . S
C594 H586 0.930 . S
C594 C593 1.362 . S
C594 C597 1.409 . S
C595 H587 0.930 . S
C595 C596 1.355 . S
C595 C597 1.415 . S
C596 C595 1.355 . S
C596 C598 1.419 . S
C597 C592 1.425 . S
C597 C594 1.409 . S
C597 C595 1.415 . S
C598 H588 0.930 . S
C598 C596 1.419 . S
C598 C599 1.362 . S
C599 H589 0.930 . S
C599 C592 1.409 . S
C599 C598 1.362 . S
H600 C606 0.930 . S
H601 C609 0.930 . S
H602 C610 0.930 . S
H603 C611 0.930 . S
H604 C614 0.930 . S
H605 C615 0.930 . S
C606 H600 0.930 . S
C606 C607 1.355 . S
C606 C608 1.415 . S
C607 C606 1.355 . S
C607 C609 1.419 . S
C608 C606 1.415 . S
C608 C613 1.425 . S
C608 C615 1.409 . S
C609 H601 0.930 . S
C609 C607 1.419 . S
C609 C610 1.362 . S
C610 H602 0.930 . S
C610 C609 1.362 . S
C610 C613 1.409 . S
C611 H603 0.930 . S
C611 C612 1.355 . S
C611 C613 1.415 . S
C612 C611 1.355 . S
C612 C614 1.419 . S
C613 C608 1.425 . S
C613 C610 1.409 . S
C613 C611 1.415 . S
C614 H604 0.930 . S
C614 C612 1.419 . S
C614 C615 1.362 . S
C615 H605 0.930 . S
C615 C608 1.409 . S
C615 C614 1.362 . S
H616 C622 0.930 . S
H617 C625 0.930 . S
H618 C626 0.930 . S
H619 C627 0.930 . S
H620 C630 0.930 . S
H621 C631 0.930 . S
C622 H616 0.930 . S
C622 C623 1.355 . S
C622 C624 1.415 . S
C623 C622 1.355 . S
C623 C625 1.419 . S
C624 C622 1.415 . S
C624 C629 1.425 . S
C624 C631 1.409 . S
C625 H617 0.930 . S
C625 C623 1.419 . S
C625 C626 1.362 . S
C626 H618 0.930 . S
C626 C625 1.362 . S
C626 C629 1.409 . S
C627 H619 0.930 . S
C627 C628 1.355 . S
C627 C629 1.415 . S
C628 C627 1.355 . S
C628 C630 1.419 . S
C629 C624 1.425 . S
C629 C626 1.409 . S
C629 C627 1.415 . S
C630 H620 0.930 . S
C630 C628 1.419 . S
C630 C631 1.362 . S
C631 H621 0.930 . S
C631 C624 1.409 . S
C631 C630 1.362 . S
H632 C638 0.930 . S
H633 C641 0.930 . S
H634 C642 0.930 . S
H635 C643 0.930 . S
H636 C646 0.930 . S
H637 C647 0.930 . S
C638 H632 0.930 . S
C638 C639 1.355 . S
C638 C640 1.415 . S
C639 C638 1.355 . S
C639 C641 1.419 . S
C640 C638 1.415 . S
C640 C645 1.425 . S
C640 C647 1.409 . S
C641 H633 0.930 . S
C641 C639 1.419 . S
C641 C642 1.362 . S
C642 H634 0.930 . S
C642 C641 1.362 . S
C642 C645 1.409 . S
C643 H635 0.930 . S
C643 C644 1.355 . S
C643 C645 1.415 . S
C644 C643 1.355 . S
C644 C646 1.419 . S
C645 C640 1.425 . S
C645 C642 1.409 . S
C645 C643 1.415 . S
C646 H636 0.930 . S
C646 C644 1.419 . S
C646 C647 1.362 . S
C647 H637 0.930 . S
C647 C640 1.409 . S
C647 C646 1.362 . S
H648 C654 0.930 . S
H649 C657 0.930 . S
H650 C658 0.930 . S
H651 C659 0.930 . S
H652 C662 0.930 . S
H653 C663 0.930 . S
C654 H648 0.930 . S
C654 C655 1.355 . S
C654 C656 1.415 . S
C655 C654 1.355 . S
C655 C657 1.419 . S
C656 C654 1.415 . S
C656 C661 1.425 . S
C656 C663 1.409 . S
C657 H649 0.930 . S
C657 C655 1.419 . S
C657 C658 1.362 . S
C658 H650 0.930 . S
C658 C657 1.362 . S
C658 C661 1.409 . S
C659 H651 0.930 . S
C659 C660 1.355 . S
C659 C661 1.415 . S
C660 C659 1.355 . S
C660 C662 1.419 . S
C661 C656 1.425 . S
C661 C658 1.409 . S
C661 C659 1.415 . S
C662 H652 0.930 . S
C662 C660 1.419 . S
C662 C663 1.362 . S
C663 H653 0.930 . S
C663 C656 1.409 . S
C663 C662 1.362 . S
H664 C670 0.930 . S
H665 C673 0.930 . S
H666 C674 0.930 . S
H667 C675 0.930 . S
H668 C678 0.930 . S
H669 C679 0.930 . S
C670 H664 0.930 . S
C670 C671 1.355 . S
C670 C672 1.415 . S
C671 C670 1.355 . S
C671 C673 1.419 . S
C672 C670 1.415 . S
C672 C677 1.425 . S
C672 C679 1.409 . S
C673 H665 0.930 . S
C673 C671 1.419 . S
C673 C674 1.362 . S
C674 H666 0.930 . S
C674 C673 1.362 . S
C674 C677 1.409 . S
C675 H667 0.930 . S
C675 C676 1.355 . S
C675 C677 1.415 . S
C676 C675 1.355 . S
C676 C678 1.419 . S
C677 C672 1.425 . S
C677 C674 1.409 . S
C677 C675 1.415 . S
C678 H668 0.930 . S
C678 C676 1.419 . S
C678 C679 1.362 . S
C679 H669 0.930 . S
C679 C672 1.409 . S
C679 C678 1.362 . S
C431 C22 1.569 . S
C436 C198 1.570 . S
C447 C38 1.603 . S
C452 C91 1.592 . S
C463 C128 1.392 . S
C468 C75 1.384 . S
C479 C188 1.461 . S
C484 C144 1.463 . S
C495 C29 1.560 . S
C500 C304 1.563 . S
C511 C39 1.603 . S
C516 C250 1.596 . S
C527 C234 1.395 . S
C532 C135 1.393 . S
C543 C145 1.462 . S
C548 C294 1.459 . S
C559 C347 1.513 . S
C564 C303 1.514 . S
C575 C251 1.639 . S
C580 C357 1.643 . S
C591 C241 1.531 . S
C596 C410 1.531 . S
C607 C287 1.334 . S
C612 C400 1.335 . S
C623 C340 1.524 . S
C628 C197 1.516 . S
C639 C92 1.641 . S
C644 C356 1.642 . S
C655 C82 1.527 . S
C660 C409 1.529 . S
C671 C181 1.336 . S
C676 C393 1.334 . S
