# Generated by pormake.
# Topology snp, (6)-cn, num edge types: 1
# Building blocks:
#     Node 0, Type 0, BuildingBlock: KUMBUR_clean_sbu_1, # of connection points: 6
#     Node 1, Type 0, BuildingBlock: KUMBUR_clean_sbu_1, # of connection points: 6
#     Node 2, Type 0, BuildingBlock: KUMBUR_clean_sbu_1, # of connection points: 6
#     Node 3, Type 0, BuildingBlock: KUMBUR_clean_sbu_1, # of connection points: 6
#     Edge 4, Type (0, 0), BuildingBlock: FUNLAD_clean_linker_0, # of connection points: 2
#     Edge 5, Type (0, 0), BuildingBlock: FUNLAD_clean_linker_0, # of connection points: 2
#     Edge 6, Type (0, 0), BuildingBlock: FUNLAD_clean_linker_0, # of connection points: 2
#     Edge 7, Type (0, 0), BuildingBlock: FUNLAD_clean_linker_0, # of connection points: 2
#     Edge 8, Type (0, 0), BuildingBlock: FUNLAD_clean_linker_0, # of connection points: 2
#     Edge 9, Type (0, 0), BuildingBlock: FUNLAD_clean_linker_0, # of connection points: 2
#     Edge 10, Type (0, 0), BuildingBlock: FUNLAD_clean_linker_0, # of connection points: 2
#     Edge 11, Type (0, 0), BuildingBlock: FUNLAD_clean_linker_0, # of connection points: 2
#     Edge 12, Type (0, 0), BuildingBlock: FUNLAD_clean_linker_0, # of connection points: 2
#     Edge 13, Type (0, 0), BuildingBlock: FUNLAD_clean_linker_0, # of connection points: 2
#     Edge 14, Type (0, 0), BuildingBlock: FUNLAD_clean_linker_0, # of connection points: 2
#     Edge 15, Type (0, 0), BuildingBlock: FUNLAD_clean_linker_0, # of connection points: 2
# Relax obj value: 0.353
# Max RMSD: 0.299
# Mean RMSD: 0.255
data_MOF--net-snp--node1-KUMBUR_clean_sbu_1--edge1-FUNLAD_clean_linker_0
_symmetry_space_group_name_H-M    P1
_symmetry_Int_Tables_number       1
_symmetry_cell_setting            triclinic
loop_
_symmetry_equiv_pos_as_xyz
'x, y, z'
_cell_length_a     27.647626
_cell_length_b     27.785766
_cell_length_c     34.990427
_cell_angle_alpha  96.851083
_cell_angle_beta   79.327276
_cell_angle_gamma 154.92453
loop_
_atom_site_label
_atom_site_type_symbol
_atom_site_fract_x
_atom_site_fract_y
_atom_site_fract_z
_atom_type_partial_charge
Tb0 Tb 0.90333 0.69693 1.02104 0.0
C1 C 0.37858 0.17257 0.13217 0.0
N2 N 0.46423 0.28115 0.13843 0.0
C3 C 0.32247 0.21515 0.16884 0.0
C4 C 0.26089 0.08113 0.14316 0.0
C5 C 0.43793 0.30275 0.15842 0.0
C6 C 0.23383 0.10429 0.1607 0.0
C7 C 0.32164 0.0395 0.11173 0.0
C8 C 0.4089 0.15226 0.1163 0.0
C9 C 0.20439 0.94882 0.12113 0.0
C10 C 0.17417 -0.0304 0.13685 0.0
Tb11 Tb 0.64733 0.41335 0.12167 0.0
N12 N 0.52288 0.24107 0.1088 0.0
C13 C 0.35462 0.02062 0.09941 0.0
C14 C 0.55407 0.22115 0.10075 0.0
C15 C 0.47124 0.11162 0.09457 0.0
H16 H 0.5069 0.38861 0.16499 0.0
H17 H 0.49713 0.09714 0.08687 0.0
H18 H 0.94417 0.63706 0.95471 0.0
H19 H 0.21518 0.10275 0.07208 0.0
H20 H 0.64329 0.29033 0.09907 0.0
H21 H 0.29028 0.93544 0.09524 0.0
H22 H 0.02263 0.90548 0.05979 0.0
H23 H 0.30178 0.23291 0.18332 0.0
H24 H 0.13629 0.86192 0.11723 0.0
H25 H 0.08345 0.89858 0.1445 0.0
H26 H 0.1007 0.71695 0.9299 0.0
H27 H 0.1448 0.03682 0.16881 0.0
H28 H 0.38099 0.19415 1.05265 0.0
N29 N 0.04513 0.77143 0.98965 0.0
C30 C 0.15156 0.87577 0.99877 0.0
C31 C 0.11559 0.76149 0.94973 0.0
C32 C 0.24393 0.92558 0.98468 0.0
C33 C 0.02749 0.71699 0.96349 0.0
C34 C 0.22299 0.86419 0.96155 0.0
N35 N 0.07535 0.88059 1.03571 0.0
C36 C 0.0928 0.94242 1.05181 0.0
C37 C 0.2801 0.04663 1.02805 0.0
C38 C 0.16777 0.9331 1.02179 0.0
C39 C 0.29646 0.10733 1.04691 0.0
C40 C 0.20286 0.05571 0.05817 0.0
H41 H 0.28997 0.89678 0.95198 0.0
H42 H 0.42536 0.07386 0.98344 0.0
H43 H 0.45873 0.18255 1.02013 0.0
O44 O 0.82051 0.67839 0.99969 0.0
O45 O 0.87804 0.71781 0.07903 0.0
O46 O 0.74548 0.56932 0.13224 0.0
O47 O 0.96371 0.77161 0.96325 0.0
O48 O 0.74203 0.54615 0.05786 0.0
O49 O 0.56692 0.39076 0.09023 0.0
O50 O 0.66359 0.37582 0.16009 0.0
O51 O 0.68695 0.40423 0.06131 0.0
O52 O 0.77968 0.52859 1.00642 0.0
O53 O 0.61528 0.40482 0.18341 0.0
O54 O 0.83702 0.5848 0.10241 0.0
O55 O 0.94187 0.66074 1.04157 0.0
C56 C 0.82184 0.66928 0.1161 0.0
C57 C 0.93011 0.82636 0.95467 0.0
C58 C 0.94435 0.90393 0.90893 0.0
C59 C 0.97122 0.96098 0.93971 0.0
C60 C 0.9518 0.88174 0.98405 0.0
C61 C -0.02485 0.95026 0.97636 0.0
C62 C 0.93227 0.84288 0.91629 0.0
C63 C 0.63779 0.46962 0.06159 0.0
C64 C 0.88962 0.74037 0.9664 0.0
C65 C 0.3539 0.03506 0.99363 0.0
C66 C 0.37261 0.09651 1.0146 0.0
C67 C 0.72308 0.44061 1.02262 0.0
C68 C 0.52949 0.26625 0.22211 0.0
C69 C 0.42291 0.1648 0.29041 0.0
C70 C 0.34389 0.06305 0.2741 0.0
C71 C 0.44958 0.16194 0.20853 0.0
C72 C 0.51544 0.26731 0.2638 0.0
C73 C 0.3574 0.06193 0.23395 0.0
C74 C 0.90067 0.61021 0.07658 0.0
C75 C 0.62623 0.37106 0.19218 0.0
H76 H -0.01195 0.01372 0.93598 0.0
H77 H 0.94767 0.86969 1.01359 0.0
H78 H -0.00771 -0.00753 0.99959 0.0
H79 H 0.9196 0.80413 0.89298 0.0
H80 H 0.27062 -0.01721 0.29267 0.0
H81 H 0.45826 0.15679 0.17799 0.0
H82 H 0.57698 0.34685 0.27534 0.0
H83 H 0.29627 -0.01743 0.22238 0.0
Tb84 Tb 0.26511 0.50114 0.61464 0.0
C85 C 0.84139 0.03349 0.53149 0.0
N86 N 0.74039 0.95443 0.52089 0.0
C87 C 0.8371 0.10183 0.48381 0.0
C88 C 0.94368 0.15082 0.52002 0.0
C89 C 0.73798 -0.01401 0.49561 0.0
C90 C 0.94009 0.18483 0.49657 0.0
C91 C 0.94839 0.07396 0.56058 0.0
C92 C 0.84494 -0.00418 0.55041 0.0
C93 C 0.0467 0.19064 0.55327 0.0
C94 C 0.04611 0.2295 0.53174 0.0
Tb95 Tb 0.58935 0.76977 0.53947 0.0
N96 N 0.7497 0.88241 0.55529 0.0
C97 C 0.95132 0.03262 0.57614 0.0
C98 C 0.75566 0.84217 0.56584 0.0
C99 C 0.85538 0.91622 0.57772 0.0
H100 H 0.65888 0.92141 0.48507 0.0
H101 H 0.85807 0.8835 0.58793 0.0
H102 H 0.34667 0.47513 0.65075 0.0
H103 H 0.85662 0.18232 0.57849 0.0
H104 H 0.68157 0.75218 0.56643 0.0
H105 H 0.02893 0.09049 0.58507 0.0
H106 H 0.06869 0.37639 0.57495 0.0
H107 H 0.83438 0.12699 0.46461 0.0
H108 H 0.12319 0.25029 0.5639 0.0
H109 H 0.12484 0.32005 0.5244 0.0
H110 H 0.25022 0.32279 0.68427 0.0
H111 H 0.01682 0.27438 0.48734 0.0
H112 H 0.74193 0.01908 0.61541 0.0
N113 N 0.18938 0.36746 0.64398 0.0
C114 C 0.07263 0.25792 0.64754 0.0
C115 C 0.19894 0.30359 0.67464 0.0
C116 C 0.01375 0.16732 0.66615 0.0
C117 C 0.25343 0.39069 0.65606 0.0
C118 C 0.07838 0.19158 0.68021 0.0
N119 N 0.07414 0.32397 0.61007 0.0
C120 C 0.01986 0.30592 0.59108 0.0
C121 C 0.89172 0.12316 0.63268 0.0
C122 C 0.01281 0.23569 0.63037 0.0
C123 C 0.83493 0.10427 0.61423 0.0
C124 C 0.89943 0.19612 0.59324 0.0
H125 H 0.03643 0.12417 0.69444 0.0
H126 H 0.84659 -0.01473 0.68369 0.0
H127 H 0.73896 0.94649 0.65483 0.0
O128 O 0.20679 0.52124 0.62166 0.0
O129 O 0.2626 0.50538 0.55154 0.0
O130 O 0.45238 0.68275 0.51475 0.0
O131 O 0.22729 0.50424 0.67162 0.0
O132 O 0.43123 0.6723 0.59073 0.0
O133 O 0.57375 0.83425 0.55932 0.0
O134 O 0.52053 0.67158 0.4926 0.0
O135 O 0.5812 0.74509 0.60221 0.0
O136 O 0.4063 0.6101 0.64703 0.0
O137 O 0.70181 0.82892 0.49419 0.0
O138 O 0.47455 0.61767 0.57097 0.0
O139 O 0.28182 0.44894 0.57424 0.0
C140 C 0.33665 0.57728 0.51835 0.0
C141 C 0.09481 0.45185 0.68333 0.0
C142 C 0.02162 0.45392 0.73295 0.0
C143 C 0.90794 0.33495 0.73293 0.0
C144 C -0.01858 0.33302 0.68495 0.0
C145 C 0.88834 0.27542 0.7089 0.0
C146 C 0.1138 0.51154 0.7069 0.0
C147 C 0.48103 0.75822 0.58546 0.0
C148 C 0.1966 0.51642 0.65958 0.0
C149 C 0.89294 0.05531 0.66917 0.0
C150 C 0.83187 0.0333 0.6527 0.0
C151 C 0.51653 0.69233 0.6386 0.0
C152 C 0.65447 0.7958 0.43373 0.0
C153 C 0.78973 0.91253 0.3715 0.0
C154 C 0.72511 0.89136 0.36033 0.0
C155 C 0.59146 0.77582 0.42193 0.0
C156 C 0.75473 0.86642 0.40891 0.0
C157 C 0.62705 0.82379 0.38548 0.0
C158 C 0.38194 0.51699 0.55915 0.0
C159 C 0.62289 0.75123 0.4727 0.0
H160 H 0.8344 0.28632 0.75293 0.0
H161 H 0.96424 0.28393 0.66872 0.0
H162 H 0.80099 0.18353 0.70997 0.0
H163 H 0.20167 0.60279 0.70605 0.0
H164 H 0.74675 0.92279 0.33163 0.0
H165 H 0.51576 0.72463 0.44079 0.0
H166 H 0.80496 0.88479 0.41911 0.0
H167 H 0.57752 0.80726 0.37647 0.0
Tb168 Tb 0.96403 0.2071 0.09998 0.0
C169 C 0.45214 0.65641 0.17142 0.0
N170 N 0.51156 0.74936 0.18373 0.0
C171 C 0.33177 0.63197 0.20678 0.0
C172 C 0.33044 0.54893 0.17498 0.0
C173 C 0.45194 0.73643 0.2032 0.0
C174 C 0.27143 0.53869 0.19209 0.0
C175 C 0.44952 0.56749 0.14988 0.0
C176 C 0.51063 0.66463 0.15981 0.0
C177 C 0.33028 0.46352 0.14993 0.0
C178 C 0.27049 0.45367 0.16312 0.0
Tb179 Tb 0.70368 0.90672 0.1821 0.0
N180 N 0.62529 0.76512 0.16132 0.0
C181 C 0.50842 0.57568 0.14253 0.0
C182 C 0.682 0.77222 0.15605 0.0
C183 C 0.62453 0.67781 0.14642 0.0
H184 H 0.4945 0.80397 0.21785 0.0
H185 H 0.6696 0.68372 0.14187 0.0
H186 H 0.03788 0.1779 1.03259 0.0
H187 H 0.20707 0.5807 0.14446 0.0
H188 H 0.77154 0.85076 0.15923 0.0
H189 H 0.46374 0.50231 0.13545 0.0
H190 H 0.03135 0.37346 0.14446 0.0
H191 H 0.28535 0.6228 0.22152 0.0
H192 H 0.28275 0.38909 0.14146 0.0
H193 H 0.1773 0.37115 0.1651 0.0
H194 H 0.21949 0.30294 0.99423 0.0
H195 H 0.17904 0.45873 0.19433 0.0
H196 H 0.39821 0.71852 0.11012 0.0
N197 N 0.12414 0.31115 0.06318 0.0
C198 C 0.22681 0.42496 0.06657 0.0
C199 C 0.22272 0.33817 1.01456 0.0
C200 C 0.33191 0.49992 1.04401 0.0
C201 C 0.12009 0.26763 1.03634 0.0
C202 C 0.32927 0.45473 1.01866 0.0
N203 N 0.12185 0.39326 0.11048 0.0
C204 C 0.11439 0.43265 0.1296 0.0
C205 C 0.32821 0.58684 0.09001 0.0
C206 C 0.22528 0.46767 0.09012 0.0
C207 C 0.32129 0.62759 0.10992 0.0
C208 C 0.21359 0.55009 0.12934 0.0
H209 H 0.40852 0.50964 1.00112 0.0
H210 H 0.51585 0.67626 1.02826 0.0
H211 H 0.51391 0.75323 0.06861 0.0
O212 O 0.93301 0.24995 0.08858 0.0
O213 O 0.96607 0.23113 0.16544 0.0
O214 O 0.85045 0.07448 0.20519 0.0
O215 O 0.96837 0.22377 1.04164 0.0
O216 O 0.77948 0.04287 0.12246 0.0
O217 O 0.68014 0.96465 0.18246 0.0
O218 O 0.74626 0.8926 0.21668 0.0
O219 O 0.72001 0.89004 0.11835 0.0
O220 O 0.8551 0.05163 0.07326 0.0
O221 O 0.6373 0.857 0.24209 0.0
O222 O 0.87088 0.05917 0.14816 0.0
O223 O 0.03961 0.20867 0.1128 0.0
C224 C 0.93085 0.18061 0.19959 0.0
C225 C 0.03541 0.36197 1.02865 0.0
C226 C 0.07305 0.47167 1.00022 0.0
C227 C 0.18949 0.56119 0.98671 0.0
C228 C 0.15057 0.45043 1.01349 0.0
C229 C 0.2277 0.55044 0.99345 0.0
C230 C -0.00281 0.37319 1.02213 0.0
C231 C 0.72755 0.0268 0.15134 0.0
C232 C 0.95367 0.25714 1.05093 0.0
C233 C 0.43527 0.61788 1.0459 0.0
C234 C 0.43368 0.6615 0.06868 0.0
C235 C 0.77393 0.94513 0.08188 0.0
C236 C 0.58612 0.73759 0.267 0.0
C237 C 0.53172 0.62833 0.31161 0.0
C238 C 0.41438 0.53036 0.31002 0.0
C239 C 0.46797 0.63853 0.26591 0.0
C240 C 0.61782 0.73112 0.28905 0.0
C241 C 0.38319 0.53542 0.28675 0.0
C242 C 0.96594 0.11969 0.13589 0.0
C243 C 0.67489 0.84848 0.2474 0.0
H244 H 0.24994 0.63731 0.96911 0.0
H245 H 0.18076 0.44191 1.01646 0.0
H246 H 0.31651 0.6184 0.982 0.0
H247 H 0.90766 0.30395 1.03325 0.0
H248 H 0.34689 0.45007 0.32694 0.0
H249 H 0.44031 0.64079 0.24975 0.0
H250 H 0.7085 0.80684 0.29009 0.0
H251 H 0.29299 0.45998 0.2855 0.0
Tb252 Tb 0.03011 0.82326 0.74126 0.0
C253 C 0.59397 0.40323 0.79305 0.0
N254 N 0.67296 0.45273 0.76228 0.0
C255 C 0.68969 0.40079 0.79855 0.0
C256 C 0.56634 0.35794 0.82862 0.0
C257 C 0.70534 0.43478 0.76318 0.0
C258 C 0.62098 0.36358 0.83176 0.0
C259 C 0.4528 0.34106 0.81911 0.0
C260 C 0.53807 0.3951 0.78861 0.0
C261 C 0.42679 0.29789 0.85472 0.0
C262 C 0.48432 0.30736 0.8596 0.0
Tb263 Tb 0.71975 0.54028 0.71005 0.0
N264 N 0.57191 0.44576 0.75499 0.0
C265 C 0.39852 0.33482 0.81324 0.0
C266 C 0.51945 0.44026 0.7491 0.0
C267 C 0.4316 0.38412 0.77798 0.0
H268 H 0.74115 0.4437 0.73708 0.0
H269 H 0.39103 0.38082 0.77332 0.0
H270 H 0.24412 0.00314 0.66124 0.0
H271 H 0.94597 0.64659 0.86624 0.0
H272 H 0.54769 0.48212 0.72258 0.0
H273 H 0.33219 0.29352 0.83588 0.0
H274 H 0.91639 0.68592 0.82868 0.0
H275 H 0.72661 0.39875 0.79966 0.0
H276 H 0.36259 0.25733 0.87869 0.0
H277 H 0.46313 0.27329 0.88718 0.0
H278 H 0.38953 0.07209 0.62889 0.0
H279 H 0.6047 0.33258 0.85879 0.0
H280 H 0.09343 0.71542 0.83869 0.0
N281 N 0.17522 0.90066 0.70827 0.0
C282 C 0.19247 0.87703 0.72665 0.0
C283 C 0.3339 0.01636 0.6562 0.0
C284 C 0.28031 0.92109 0.71012 0.0
C285 C 0.24834 -0.02614 0.67424 0.0
C286 C 0.34935 -0.01091 0.67402 0.0
N287 N 0.04033 0.77011 0.77799 0.0
C288 C -0.02178 0.71337 0.81508 0.0
C289 C 0.14434 0.79092 0.78387 0.0
C290 C 0.12439 0.81151 0.7629 0.0
C291 C 0.07853 0.73013 0.82125 0.0
C292 C -0.0045 0.69158 0.83696 0.0
H293 H 0.41693 0.02361 0.66021 0.0
H294 H 0.36469 0.93054 0.71805 0.0
H295 H 0.24682 0.81807 0.78292 0.0
O296 O 0.05862 0.89971 0.78732 0.0
O297 O 0.04526 0.8424 0.67714 0.0
O298 O 0.8651 0.66346 0.65803 0.0
O299 O 0.20253 -0.00305 0.74601 0.0
O300 O 0.9276 0.66698 0.73686 0.0
O301 O 0.83185 0.57682 0.68674 0.0
O302 O 0.61928 0.47652 0.67328 0.0
O303 O 0.74595 0.62197 0.75715 0.0
O304 O 0.87455 0.7024 0.78777 0.0
O305 O 0.58763 0.37779 0.6914 0.0
O306 O 0.80563 0.68468 0.69427 0.0
O307 O -0.01553 0.84671 0.7163 0.0
C308 C -0.02051 0.7738 0.6498 0.0
C309 C 0.21662 0.0178 0.81312 0.0
C310 C 0.29839 0.026 0.84113 0.0
C311 C 0.26007 0.01632 0.87879 0.0
C312 C 0.18253 0.01193 0.85084 0.0
C313 C 0.20426 0.01125 0.88347 0.0
C314 C 0.27944 0.03023 0.80839 0.0
C315 C 0.91451 0.63457 0.70252 0.0
C316 C 0.16994 -0.00798 0.78028 0.0
C317 C 0.29795 0.89774 0.73039 0.0
C318 C 0.23069 0.8335 0.76729 0.0
C319 C 0.78687 0.65377 0.78913 0.0
C320 C 0.55919 0.3637 0.62755 0.0
C321 C 0.56985 0.38951 0.55989 0.0
C322 C 0.56437 0.33447 0.54835 0.0
C323 C 0.55336 0.30857 0.61556 0.0
C324 C 0.56355 0.40029 0.59973 0.0
C325 C 0.55499 0.29334 0.57616 0.0
C326 C 0.90457 0.79422 0.70004 0.0
C327 C 0.56303 0.3861 0.66854 0.0
H328 H 0.27604 0.0158 0.90462 0.0
H329 H 0.13631 0.00475 0.85509 0.0
H330 H 0.17677 0.00566 0.91251 0.0
H331 H 0.30934 0.03821 0.77944 0.0
H332 H 0.56931 0.32488 0.51786 0.0
H333 H 0.5486 0.27824 0.63645 0.0
H334 H 0.56301 0.4384 0.60923 0.0
H335 H 0.55098 0.25125 0.56705 0.0
C336 C 0.06437 0.1453 0.16076 0.0
C337 C -0.01517 0.08556 0.13782 0.0
C338 C 0.14827 0.1845 0.14585 0.0
C339 C 0.1534 0.16584 0.10772 0.0
C340 C 0.06113 0.08841 0.08825 0.0
C341 C -0.02386 0.04714 0.10361 0.0
C342 C 0.26339 0.24234 0.08655 0.0
C343 C 0.30626 0.28718 1.049 0.0
C344 C 0.42353 0.37432 1.03203 0.0
C345 C 0.51446 0.47439 1.05026 0.0
C346 C 0.60224 0.52199 1.05442 0.0
C347 C 0.60005 0.4712 1.03917 0.0
H348 H 0.36611 0.26267 0.99537 0.0
C349 C 0.52487 0.38865 1.01338 0.0
C350 C 0.43534 0.33925 1.00991 0.0
H351 H 0.52421 0.35044 1.00092 0.0
H352 H 0.07369 0.1773 0.18691 0.0
H353 H 0.21787 0.24227 0.1617 0.0
H354 H 0.06063 0.06844 0.05962 0.0
H355 H 0.91572 0.00078 0.08536 0.0
H356 H 0.31716 0.27326 0.1034 0.0
H357 H 0.25708 0.26117 1.03132 0.0
H358 H 0.50677 0.50311 0.06692 0.0
H359 H 0.6605 0.58642 0.07425 0.0
C360 C 0.93952 0.86363 0.63821 0.0
C361 C 0.9473 0.87291 0.67803 0.0
C362 C 0.0149 0.95836 0.6134 0.0
C363 C 0.09628 0.06197 0.62857 0.0
C364 C 0.09599 0.0671 0.66889 0.0
C365 C 0.02399 -0.02547 0.6932 0.0
C366 C 0.18375 0.16784 0.6043 0.0
C367 C 0.22383 0.19342 0.56556 0.0
C368 C 0.30678 0.302 0.54667 0.0
C369 C 0.26961 0.2975 0.52096 0.0
C370 C 0.3085 0.38009 0.52017 0.0
C371 C 0.38111 0.46398 0.54592 0.0
H372 H 0.43321 0.40828 0.58372 0.0
C373 C 0.43663 0.48172 0.56488 0.0
C374 C 0.40101 0.40183 0.56461 0.0
H375 H 0.49579 0.54792 0.58408 0.0
H376 H 0.8828 0.78694 0.62558 0.0
H377 H 0.01108 0.95095 0.58253 0.0
H378 H 0.15701 0.14563 0.68138 0.0
H379 H 0.03502 -0.01392 0.7233 0.0
H380 H 0.21931 0.23086 0.61996 0.0
H381 H 0.18866 0.1326 0.54797 0.0
H382 H 0.1987 0.22236 0.50617 0.0
H383 H 0.26974 0.36905 0.50362 0.0
C384 C 0.70904 0.08436 0.1181 0.0
C385 C 0.73597 0.0879 0.15029 0.0
C386 C 0.73325 0.15494 0.11334 0.0
C387 C 0.78396 0.23035 0.14099 0.0
C388 C 0.80324 0.22764 0.17454 0.0
C389 C 0.77946 0.15731 0.17919 0.0
C390 C 0.81459 0.31009 0.13661 0.0
C391 C 0.83553 0.34787 0.10194 0.0
C392 C 0.86457 0.42621 0.09663 0.0
C393 C 0.88912 0.46163 0.05837 0.0
C394 C 0.90834 0.52746 1.05158 0.0
C395 C 0.90022 0.5573 0.08299 0.0
H396 H 0.84889 0.44131 0.15799 0.0
C397 C 0.8839 0.52917 0.12111 0.0
C398 C 0.86532 0.46385 0.12798 0.0
H399 H 0.88279 0.55561 0.14592 0.0
H400 H 0.67361 0.0302 0.09565 0.0
H401 H 0.71234 0.15015 0.08786 0.0
H402 H 0.83993 0.2826 0.19686 0.0
H403 H 0.79974 0.16093 0.20454 0.0
H404 H 0.8237 0.34111 0.16319 0.0
H405 H 0.83219 0.32076 0.07538 0.0
H406 H 0.88964 0.43501 1.03345 0.0
H407 H 0.92346 0.54965 1.0217 0.0
C408 C 0.36302 0.72385 0.57709 0.0
C409 C 0.42874 0.75991 0.59963 0.0
C410 C 0.30318 0.71384 0.59238 0.0
C411 C 0.31113 0.7436 0.63016 0.0
C412 C 0.38389 0.78717 0.65132 0.0
C413 C 0.44102 0.79413 0.63644 0.0
C414 C 0.24071 0.72461 0.64962 0.0
C415 C 0.18266 0.70144 0.63094 0.0
C416 C 0.11081 0.6805 0.65058 0.0
C417 C 0.0889 0.69688 0.62773 0.0
C418 C 0.02239 0.6786 0.64454 0.0
C419 C -0.0239 0.64371 0.68474 0.0
H420 H 0.07115 0.62311 0.70918 0.0
C421 C -0.00675 0.62226 0.70751 0.0
C422 C 0.06016 0.64076 0.6907 0.0
H423 H 0.95559 0.59197 0.73839 0.0
H424 H 0.35325 0.69798 0.54841 0.0
H425 H 0.24819 0.67916 0.57486 0.0
H426 H 0.39334 0.81216 0.68021 0.0
H427 H 0.49262 0.82372 0.65411 0.0
H428 H 0.23843 0.73187 0.68079 0.0
H429 H 0.19123 0.70226 0.59939 0.0
H430 H 0.12486 0.72565 0.5967 0.0
H431 H 0.00973 0.6947 0.62617 0.0
C432 C 0.90293 0.93756 0.34428 0.0
C433 C 0.88398 -0.02972 0.34279 0.0
C434 C 0.96771 0.96734 0.31246 0.0
C435 C 0.01131 0.02687 0.27823 0.0
C436 C 0.00609 0.07256 0.27822 0.0
C437 C 0.944 0.04562 0.31058 0.0
C438 C 0.03009 0.01087 0.24157 0.0
C439 C 0.962 0.95515 0.21537 0.0
C440 C 0.92659 0.88182 0.19021 0.0
C441 C 0.90409 0.86856 0.1534 0.0
C442 C 0.86794 0.79765 0.1294 0.0
C443 C 0.85062 0.73638 0.14249 0.0
H444 H 0.91645 0.82151 0.23308 0.0
C445 C 0.8664 0.74411 0.1803 0.0
C446 C 0.90494 0.81701 0.20396 0.0
H447 H 0.85259 0.69674 0.19105 0.0
H448 H 0.85888 0.8794 0.36807 0.0
H449 H 0.97074 0.93114 0.3129 0.0
H450 H 0.04119 0.12047 0.25209 0.0
H451 H 0.93577 0.0766 0.30895 0.0
H452 H 0.0721 0.01378 0.24136 0.0
H453 H 0.91818 0.95028 0.21577 0.0
H454 H 0.91457 0.91312 0.14329 0.0
H455 H 0.85247 0.7899 0.10076 0.0
C456 C 0.96176 0.47534 0.78083 0.0
C457 C 0.04529 0.51404 0.76376 0.0
C458 C 0.97187 0.51251 0.81601 0.0
C459 C 0.0663 0.58982 0.83434 0.0
C460 C 0.1569 0.63999 0.81461 0.0
C461 C 0.14607 0.60165 0.78006 0.0
C462 C 0.06499 0.60497 0.87629 0.0
C463 C 0.96907 0.51336 0.90319 0.0
C464 C -0.02249 0.49834 0.939 0.0
C465 C 0.07503 0.59165 0.95729 0.0
C466 C 0.10028 0.58026 0.98095 0.0
C467 C 0.02894 0.47578 0.98658 0.0
H468 H 0.82108 0.31665 0.93619 0.0
C469 C 0.92332 0.37918 0.97281 0.0
C470 C 0.89756 0.39038 0.94949 0.0
H471 H 0.86565 0.29702 0.97673 0.0
H472 H 0.8855 0.41187 0.76825 0.0
H473 H 0.90332 0.47657 0.82985 0.0
H474 H 0.23138 0.7009 0.82791 0.0
H475 H 0.21283 0.63438 0.76838 0.0
H476 H 0.14924 0.68148 0.8851 0.0
H477 H 0.88596 0.43567 0.89359 0.0
H478 H 0.13701 0.67557 0.95103 0.0
H479 H 0.18011 0.65536 0.99245 0.0
C480 C 0.52741 0.38044 0.4985 0.0
C481 C 0.5837 0.43749 0.53088 0.0
C482 C 0.5364 0.4233 0.47245 0.0
C483 C 0.60134 0.52369 0.47845 0.0
C484 C 0.65802 0.5811 0.51053 0.0
C485 C 0.65093 0.53959 0.53614 0.0
C486 C 0.60488 0.56574 0.45301 0.0
C487 C 0.61088 0.56157 0.41415 0.0
C488 C 0.60081 0.59092 0.3891 0.0
C489 C 0.65581 0.63391 0.34963 0.0
C490 C 0.63791 0.65144 0.32452 0.0
C491 C 0.56223 0.62312 0.33846 0.0
H492 H 0.48307 0.53164 0.43331 0.0
C493 C 0.50939 0.58268 0.37807 0.0
C494 C 0.52871 0.56705 0.40325 0.0
H495 H 0.45152 0.56137 0.38937 0.0
H496 H 0.47398 0.30118 0.49383 0.0
H497 H 0.48942 0.37582 0.44838 0.0
H498 H 0.70803 0.65833 0.51576 0.0
H499 H 0.69788 0.58753 0.56019 0.0
H500 H 0.60453 0.60272 0.46662 0.0
H501 H 0.62302 0.53528 0.40022 0.0
H502 H 0.71138 0.65247 0.33811 0.0
H503 H 0.67952 0.68289 0.29399 0.0
C504 C 0.32946 -0.0269 0.86257 0.0
C505 C 0.36379 0.0383 0.83664 0.0
C506 C 0.41007 0.01185 0.86874 0.0
C507 C 0.52698 0.11954 0.85067 0.0
C508 C 0.5526 0.16832 0.81805 0.0
C509 C 0.4708 0.12755 0.81095 0.0
C510 C 0.62318 0.1975 0.87183 0.0
C511 C 0.60242 0.17833 0.911 0.0
C512 C 0.6543 0.26137 0.93726 0.0
C513 C 0.68033 0.33141 0.92663 0.0
C514 C 0.70243 0.38888 0.95436 0.0
C515 C 0.70053 0.3793 0.9935 0.0
H516 H 0.63566 0.2007 0.98497 0.0
C517 C 0.68055 0.31408 1.00347 0.0
C518 C 0.65635 0.25474 0.97585 0.0
H519 H 0.68359 0.3085 1.03245 0.0
H520 H 0.24341 0.89777 0.88023 0.0
H521 H 0.38387 0.96422 0.89059 0.0
H522 H 0.64007 0.24653 0.80137 0.0
H523 H 0.49623 0.17402 0.78853 0.0
H524 H 0.7076 0.28602 0.85877 0.0
H525 H 0.52502 0.09169 0.92503 0.0
H526 H 0.67699 0.33682 0.89743 0.0
H527 H 0.71789 0.43847 0.94516 0.0
C528 C 0.76183 0.91265 1.00915 0.0
C529 C 0.74617 0.88524 1.04743 0.0
C530 C 0.73593 0.85725 0.97728 0.0
C531 C 0.69612 0.77384 0.98168 0.0
C532 C 0.68332 0.7484 1.01972 0.0
C533 C 0.70687 0.80221 1.05174 0.0
C534 C 0.6689 0.71668 0.94595 0.0
C535 C 0.66184 0.66074 0.94162 0.0
C536 C 0.662 0.62806 0.90292 0.0
C537 C 0.64461 0.62895 0.86764 0.0
C538 C 0.67291 0.62439 0.83118 0.0
C539 C 0.72767 0.62769 0.82834 0.0
H540 H 0.69787 0.59493 0.9269 0.0
C541 C 0.72838 0.60956 0.86396 0.0
C542 C 0.69145 0.60486 0.90048 0.0
H543 H 0.76157 0.60308 0.86374 0.0
H544 H 0.79236 -0.02404 1.00378 0.0
H545 H 0.74749 0.88035 0.94877 0.0
H546 H 0.65347 0.68572 1.02516 0.0
H547 H 0.69616 0.77983 0.07986 0.0
H548 H 0.66267 0.72935 0.92071 0.0
H549 H 0.67076 0.65037 0.96663 0.0
H550 H 0.61428 0.63837 0.86765 0.0
H551 H 0.66254 0.62991 0.80476 0.0
C552 C 0.37425 0.09044 0.35696 0.0
C553 C 0.4034 0.15606 0.33503 0.0
C554 C 0.33209 0.05938 0.39767 0.0
C555 C 0.31765 0.09314 0.41868 0.0
C556 C 0.35363 0.16491 0.39735 0.0
C557 C 0.39507 0.19529 0.35622 0.0
C558 C 0.2677 0.05653 0.4625 0.0
C559 C 0.19342 0.9589 0.48193 0.0
C560 C 0.13892 0.91601 0.52528 0.0
C561 C 0.03443 0.79804 0.53732 0.0
C562 C -0.01698 0.75298 0.57714 0.0
C563 C 0.03524 0.82422 0.60703 0.0
H564 H 0.27119 0.07915 0.54743 0.0
C565 C 0.13968 0.94267 0.59519 0.0
C566 C 0.19035 -0.01219 0.55501 0.0
H567 H 0.18214 0.0008 0.617 0.0
H568 H 0.38078 0.05959 0.34223 0.0
H569 H 0.31056 0.00829 0.41251 0.0
H570 H 0.3459 0.19453 0.41234 0.0
H571 H 0.41544 0.24502 0.34083 0.0
H572 H 0.28812 0.10863 0.47868 0.0
H573 H 0.16536 0.90227 0.46467 0.0
H574 H -0.0081 0.73957 0.51562 0.0
H575 H 0.90286 0.66168 0.58453 0.0
C576 C 0.63697 0.73956 0.66605 0.0
C577 C 0.56876 0.72139 0.67166 0.0
C578 C 0.68734 0.76877 0.69655 0.0
C579 C 0.67188 0.78144 0.73432 0.0
C580 C 0.60147 0.76069 0.73996 0.0
C581 C 0.55057 0.73063 0.70962 0.0
C582 C 0.72568 0.81576 0.76867 0.0
C583 C 0.79568 0.83917 0.76903 0.0
C584 C 0.8457 0.8702 0.8042 0.0
C585 C 0.89911 0.87211 0.80215 0.0
C586 C 0.93331 0.88578 0.83518 0.0
C587 C 0.92042 0.90264 0.87167 0.0
H588 H 0.80413 0.89929 0.84357 0.0
C589 C 0.87836 0.91303 0.87248 0.0
C590 C 0.8399 0.89508 0.84 0.0
H591 H 0.86897 0.92958 0.89896 0.0
H592 H 0.64939 0.7284 0.63815 0.0
H593 H 0.73876 0.78184 0.69013 0.0
H594 H 0.58572 0.76827 0.76829 0.0
H595 H 0.49842 0.71677 0.71578 0.0
H596 H 0.70418 0.82072 0.79569 0.0
H597 H 0.81513 0.83161 0.7424 0.0
H598 H 0.90532 0.85268 0.77577 0.0
H599 H 0.96445 0.87719 0.83284 0.0
C600 C 0.01992 0.23554 0.25515 0.0
C601 C -0.01041 0.246 0.2349 0.0
C602 C 0.06291 0.28341 0.29052 0.0
C603 C 0.07836 0.345 0.30767 0.0
C604 C 0.04804 0.35564 0.28732 0.0
C605 C 0.0035 0.3063 0.25195 0.0
C606 C 0.12299 0.39695 0.34652 0.0
C607 C 0.15792 0.39513 0.36832 0.0
C608 C 0.20279 0.4447 0.40715 0.0
C609 C 0.24229 0.43992 0.42249 0.0
C610 C 0.28419 0.4823 0.45805 0.0
C611 C 0.28792 0.53087 0.48067 0.0
H612 H 0.17729 0.49986 0.41962 0.0
C613 C 0.24855 0.53631 0.46581 0.0
C614 C 0.20676 0.49407 0.42964 0.0
H615 H 0.25037 0.57353 0.48207 0.0
H616 H 0.00887 0.18823 0.24374 0.0
H617 H 0.08269 0.27029 0.30426 0.0
H618 H 0.05743 0.40142 0.29913 0.0
H619 H -0.0208 0.31472 0.23813 0.0
H620 H 0.12719 0.43882 0.35735 0.0
H621 H 0.15513 0.3547 0.35701 0.0
H622 H 0.24114 0.40294 0.40671 0.0
H623 H 0.3143 0.4771 0.46792 0.0
loop_
_geom_bond_atom_site_label_1
_geom_bond_atom_site_label_2
_geom_bond_distance
_geom_bond_site_symmetry_2
_ccdc_geom_bond_type
Tb0 N29 2.617 1_655 S
Tb0 N35 2.572 . S
Tb0 O44 2.465 1_554 S
Tb0 O45 2.387 . S
Tb0 O47 2.428 1_654 S
Tb0 O48 2.308 . S
Tb0 O52 2.349 1_554 S
Tb0 O55 2.393 . S
Tb0 C64 2.802 1_554 S
C1 N2 1.379 . S
C1 C4 1.416 1_545 S
C1 C8 1.424 . S
N2 C1 1.379 . S
N2 C5 1.334 . S
N2 Tb11 2.617 . S
C3 C5 1.390 . S
C3 C6 1.339 1_545 S
C3 H23 0.930 . S
C4 C1 1.416 1_565 S
C4 C6 1.416 . S
C4 C10 1.448 . S
C5 N2 1.334 . S
C5 C3 1.390 . S
C5 H16 0.930 . S
C6 C3 1.339 1_565 S
C6 C4 1.416 . S
C6 H27 0.930 . S
C7 C8 1.413 1_565 S
C7 C9 1.427 . S
C7 C13 1.416 1_565 S
C8 C1 1.424 . S
C8 C7 1.413 1_545 S
C8 N12 1.361 . S
C9 C7 1.427 . S
C9 C10 1.328 . S
C9 H24 0.929 . S
C10 C4 1.448 . S
C10 C9 1.328 . S
C10 H25 0.930 . S
Tb11 N2 2.617 . S
Tb11 N12 2.572 . S
Tb11 O46 2.349 . S
Tb11 O49 2.393 . S
Tb11 O50 2.465 . S
Tb11 O51 2.387 . S
Tb11 O53 2.428 . S
Tb11 O54 2.308 . S
Tb11 C75 2.802 . S
N12 C8 1.361 . S
N12 Tb11 2.572 . S
N12 C14 1.340 . S
C13 C7 1.416 1_545 S
C13 C15 1.332 . S
C13 H21 0.931 1_545 S
C14 N12 1.340 . S
C14 C15 1.407 . S
C14 H20 0.930 . S
C15 C13 1.332 . S
C15 C14 1.407 . S
C15 H17 0.929 . S
H16 C5 0.930 . S
H17 C15 0.929 . S
H18 C33 0.930 . S
H19 C40 0.929 . S
H20 C14 0.930 . S
H21 C13 0.931 1_565 S
H22 C36 0.930 . S
H23 C3 0.930 . S
H24 C9 0.929 . S
H25 C10 0.930 . S
H26 C31 0.931 1_556 S
H27 C6 0.930 . S
H28 C39 0.931 . S
N29 Tb0 2.617 1_455 S
N29 C30 1.379 . S
N29 C33 1.334 1_554 S
C30 N29 1.379 . S
C30 C32 1.416 1_565 S
C30 C38 1.424 . S
C31 H26 0.931 1_554 S
C31 C33 1.390 1_544 S
C31 C34 1.339 . S
C32 C30 1.416 1_545 S
C32 C34 1.416 . S
C32 C65 1.448 . S
C33 H18 0.930 . S
C33 N29 1.334 1_556 S
C33 C31 1.390 1_566 S
C34 C31 1.339 . S
C34 C32 1.416 . S
C34 H41 0.930 . S
N35 Tb0 2.572 . S
N35 C36 1.340 . S
N35 C38 1.361 1_655 S
C36 H22 0.930 . S
C36 N35 1.340 . S
C36 C40 1.407 . S
C37 C38 1.413 1_545 S
C37 C39 1.416 . S
C37 C66 1.427 . S
C38 C30 1.424 . S
C38 N35 1.361 1_455 S
C38 C37 1.413 1_565 S
C39 H28 0.931 . S
C39 C37 1.416 . S
C39 C40 1.332 1_445 S
C40 H19 0.929 . S
C40 C36 1.407 . S
C40 C39 1.332 1_665 S
H41 C34 0.930 . S
H42 C65 0.930 . S
H43 C66 0.929 . S
O44 Tb0 2.465 1_556 S
O44 C64 1.264 . S
O45 Tb0 2.387 . S
O45 C56 1.264 . S
O46 Tb11 2.349 . S
O46 C56 1.243 . S
O47 Tb0 2.428 1_456 S
O47 C64 1.256 1_455 S
O48 Tb0 2.308 . S
O48 C63 1.266 . S
O49 Tb11 2.393 . S
O49 C63 1.248 . S
O50 Tb11 2.465 . S
O50 C75 1.264 . S
O51 Tb11 2.387 . S
O51 C67 1.264 1_554 S
O52 Tb0 2.349 1_556 S
O52 C67 1.243 . S
O53 Tb11 2.428 . S
O53 C75 1.256 . S
O54 Tb11 2.308 . S
O54 C74 1.266 . S
O55 Tb0 2.393 . S
O55 C74 1.248 . S
C56 O45 1.264 . S
C56 O46 1.243 . S
C57 C60 1.399 1_655 S
C57 C62 1.383 . S
C57 C64 1.496 . S
C58 C59 1.399 1_655 S
C58 C62 1.389 . S
C59 C58 1.399 1_455 S
C59 C61 1.380 . S
C59 H76 0.929 . S
C60 C57 1.399 1_455 S
C60 C61 1.392 . S
C60 H77 0.929 . S
C61 C59 1.380 . S
C61 C60 1.392 . S
C61 H78 0.929 . S
C62 C57 1.383 . S
C62 C58 1.389 . S
C62 H79 0.931 . S
C63 O48 1.266 . S
C63 O49 1.248 . S
C64 Tb0 2.802 1_556 S
C64 O44 1.264 . S
C64 O47 1.256 1_655 S
C64 C57 1.496 . S
C65 C32 1.448 . S
C65 H42 0.930 . S
C65 C66 1.328 . S
C66 C37 1.427 . S
C66 H43 0.929 . S
C66 C65 1.328 . S
C67 O51 1.264 1_556 S
C67 O52 1.243 . S
C68 C71 1.399 . S
C68 C72 1.383 . S
C68 C75 1.496 . S
C69 C70 1.399 . S
C69 C72 1.389 . S
C70 C69 1.399 . S
C70 C73 1.380 . S
C70 H80 0.929 . S
C71 C68 1.399 . S
C71 C73 1.392 . S
C71 H81 0.929 . S
C72 C68 1.383 . S
C72 C69 1.389 . S
C72 H82 0.931 . S
C73 C70 1.380 . S
C73 C71 1.392 . S
C73 H83 0.929 . S
C74 O54 1.266 . S
C74 O55 1.248 . S
C75 Tb11 2.802 . S
C75 O50 1.264 . S
C75 O53 1.256 . S
C75 C68 1.496 . S
H76 C59 0.929 . S
H77 C60 0.929 . S
H78 C61 0.929 . S
H79 C62 0.931 . S
H80 C70 0.929 . S
H81 C71 0.929 . S
H82 C72 0.931 . S
H83 C73 0.929 . S
Tb84 N113 2.617 . S
Tb84 N119 2.572 . S
Tb84 O128 2.465 . S
Tb84 O129 2.387 . S
Tb84 O131 2.428 . S
Tb84 O132 2.308 . S
Tb84 O136 2.349 . S
Tb84 O139 2.393 . S
Tb84 C148 2.802 . S
C85 N86 1.379 . S
C85 C88 1.416 1_655 S
C85 C92 1.424 . S
N86 C85 1.379 . S
N86 C89 1.334 . S
N86 Tb95 2.617 1_545 S
C87 C89 1.390 1_455 S
C87 C90 1.339 . S
C87 H107 0.930 . S
C88 C85 1.416 1_455 S
C88 C90 1.416 . S
C88 C94 1.448 . S
C89 N86 1.334 . S
C89 C87 1.390 1_655 S
C89 H100 0.930 . S
C90 C87 1.339 . S
C90 C88 1.416 . S
C90 H111 0.930 . S
C91 C92 1.413 1_455 S
C91 C93 1.427 . S
C91 C97 1.416 . S
C92 C85 1.424 . S
C92 C91 1.413 1_655 S
C92 N96 1.361 1_545 S
C93 C91 1.427 . S
C93 C94 1.328 . S
C93 H108 0.929 . S
C94 C88 1.448 . S
C94 C93 1.328 . S
C94 H109 0.930 . S
Tb95 N86 2.617 1_565 S
Tb95 N96 2.572 . S
Tb95 O130 2.349 . S
Tb95 O133 2.393 . S
Tb95 O134 2.465 . S
Tb95 O135 2.387 . S
Tb95 O137 2.428 . S
Tb95 O138 2.308 . S
Tb95 C159 2.802 . S
N96 C92 1.361 1_565 S
N96 Tb95 2.572 . S
N96 C98 1.340 . S
C97 C91 1.416 . S
C97 C99 1.332 1_445 S
C97 H105 0.931 . S
C98 N96 1.340 . S
C98 C99 1.407 . S
C98 H104 0.930 . S
C99 C97 1.332 1_665 S
C99 C98 1.407 . S
C99 H101 0.929 . S
H100 C89 0.930 . S
H101 C99 0.929 . S
H102 C117 0.930 . S
H103 C124 0.929 . S
H104 C98 0.930 . S
H105 C97 0.931 . S
H106 C120 0.930 . S
H107 C87 0.930 . S
H108 C93 0.929 . S
H109 C94 0.930 . S
H110 C115 0.930 . S
H111 C90 0.930 . S
H112 C123 0.931 1_655 S
N113 Tb84 2.617 . S
N113 C114 1.379 . S
N113 C117 1.334 . S
C114 N113 1.379 . S
C114 C116 1.416 1_455 S
C114 C122 1.424 . S
C115 H110 0.930 . S
C115 C117 1.390 . S
C115 C118 1.339 1_455 S
C116 C114 1.416 1_655 S
C116 C118 1.416 . S
C116 C149 1.448 . S
C117 H102 0.930 . S
C117 N113 1.334 . S
C117 C115 1.390 . S
C118 C115 1.339 1_655 S
C118 C116 1.416 . S
C118 H125 0.930 . S
N119 Tb84 2.572 . S
N119 C120 1.340 . S
N119 C122 1.361 . S
C120 H106 0.930 . S
C120 N119 1.340 . S
C120 C124 1.407 . S
C121 C122 1.413 1_655 S
C121 C123 1.416 1_655 S
C121 C150 1.427 . S
C122 C114 1.424 . S
C122 N119 1.361 . S
C122 C121 1.413 1_455 S
C123 H112 0.931 1_455 S
C123 C121 1.416 1_455 S
C123 C124 1.332 . S
C124 H103 0.929 . S
C124 C120 1.407 . S
C124 C123 1.332 . S
H125 C118 0.930 . S
H126 C149 0.930 . S
H127 C150 0.929 . S
O128 Tb84 2.465 . S
O128 C148 1.264 . S
O129 Tb84 2.387 . S
O129 C140 1.264 . S
O130 Tb95 2.349 . S
O130 C140 1.243 . S
O131 Tb84 2.428 . S
O131 C148 1.256 . S
O132 Tb84 2.308 . S
O132 C147 1.266 . S
O133 Tb95 2.393 . S
O133 C147 1.248 . S
O134 Tb95 2.465 . S
O134 C159 1.264 . S
O135 Tb95 2.387 . S
O135 C151 1.264 . S
O136 Tb84 2.349 . S
O136 C151 1.243 . S
O137 Tb95 2.428 . S
O137 C159 1.256 . S
O138 Tb95 2.308 . S
O138 C158 1.266 . S
O139 Tb84 2.393 . S
O139 C158 1.248 . S
C140 O129 1.264 . S
C140 O130 1.243 . S
C141 C144 1.399 . S
C141 C146 1.383 . S
C141 C148 1.496 . S
C142 C143 1.399 . S
C142 C146 1.389 . S
C143 C142 1.399 . S
C143 C145 1.380 . S
C143 H160 0.929 . S
C144 C141 1.399 . S
C144 C145 1.392 . S
C144 H161 0.929 . S
C145 C143 1.380 . S
C145 C144 1.392 . S
C145 H162 0.929 . S
C146 C141 1.383 . S
C146 C142 1.389 . S
C146 H163 0.931 . S
C147 O132 1.266 . S
C147 O133 1.248 . S
C148 Tb84 2.802 . S
C148 O128 1.264 . S
C148 O131 1.256 . S
C148 C141 1.496 . S
C149 C116 1.448 . S
C149 H126 0.930 . S
C149 C150 1.328 . S
C150 C121 1.427 . S
C150 H127 0.929 . S
C150 C149 1.328 . S
C151 O135 1.264 . S
C151 O136 1.243 . S
C152 C155 1.399 1_565 S
C152 C156 1.383 . S
C152 C159 1.496 . S
C153 C154 1.399 1_565 S
C153 C156 1.389 . S
C154 C153 1.399 1_545 S
C154 C157 1.380 . S
C154 H164 0.929 . S
C155 C152 1.399 1_545 S
C155 C157 1.392 . S
C155 H165 0.929 . S
C156 C152 1.383 . S
C156 C153 1.389 . S
C156 H166 0.931 . S
C157 C154 1.380 . S
C157 C155 1.392 . S
C157 H167 0.929 . S
C158 O138 1.266 . S
C158 O139 1.248 . S
C159 Tb95 2.802 . S
C159 O134 1.264 . S
C159 O137 1.256 . S
C159 C152 1.496 . S
H160 C143 0.929 . S
H161 C144 0.929 . S
H162 C145 0.929 . S
H163 C146 0.931 . S
H164 C154 0.929 . S
H165 C155 0.929 . S
H166 C156 0.931 . S
H167 C157 0.929 . S
Tb168 N197 2.617 1_655 S
Tb168 N203 2.572 1_655 S
Tb168 O212 2.465 . S
Tb168 O213 2.387 . S
Tb168 O215 2.428 1_655 S
Tb168 O216 2.308 . S
Tb168 O220 2.349 . S
Tb168 O223 2.393 . S
Tb168 C232 2.795 1_654 S
C169 N170 1.379 . S
C169 C172 1.416 . S
C169 C176 1.424 . S
N170 C169 1.379 . S
N170 C173 1.334 . S
N170 Tb179 2.617 . S
C171 C173 1.390 . S
C171 C174 1.339 . S
C171 H191 0.930 . S
C172 C169 1.416 . S
C172 C174 1.416 . S
C172 C178 1.448 . S
C173 N170 1.334 . S
C173 C171 1.390 . S
C173 H184 0.930 . S
C174 C171 1.339 . S
C174 C172 1.416 . S
C174 H195 0.930 . S
C175 C176 1.413 . S
C175 C177 1.427 . S
C175 C181 1.416 . S
C176 C169 1.424 . S
C176 C175 1.413 . S
C176 N180 1.361 . S
C177 C175 1.427 . S
C177 C178 1.328 . S
C177 H192 0.929 . S
C178 C172 1.448 . S
C178 C177 1.328 . S
C178 H193 0.930 . S
Tb179 N170 2.617 . S
Tb179 N180 2.572 . S
Tb179 O214 2.349 1_565 S
Tb179 O217 2.393 . S
Tb179 O218 2.465 . S
Tb179 O219 2.387 . S
Tb179 O221 2.428 . S
Tb179 O222 2.308 . S
Tb179 C243 2.802 . S
N180 C176 1.361 . S
N180 Tb179 2.572 . S
N180 C182 1.340 . S
C181 C175 1.416 . S
C181 C183 1.332 . S
C181 H189 0.931 . S
C182 N180 1.340 . S
C182 C183 1.407 . S
C182 H188 0.930 . S
C183 C181 1.332 . S
C183 C182 1.407 . S
C183 H185 0.929 . S
H184 C173 0.930 . S
H185 C183 0.929 . S
H186 C201 0.930 . S
H187 C208 0.929 1_655 S
H188 C182 0.930 . S
H189 C181 0.931 . S
H190 C204 0.930 . S
H191 C171 0.930 . S
H192 C177 0.929 . S
H193 C178 0.930 . S
H194 C199 0.930 . S
H195 C174 0.930 . S
H196 C207 0.931 . S
N197 Tb168 2.617 1_455 S
N197 C198 1.379 . S
N197 C201 1.334 . S
C198 N197 1.379 . S
C198 C200 1.416 . S
C198 C206 1.424 . S
C199 H194 0.930 . S
C199 C201 1.390 . S
C199 C202 1.339 . S
C200 C198 1.416 . S
C200 C202 1.416 . S
C200 C233 1.448 . S
C201 H186 0.930 . S
C201 N197 1.334 . S
C201 C199 1.390 . S
C202 C199 1.339 . S
C202 C200 1.416 . S
C202 H209 0.930 . S
N203 Tb168 2.572 1_455 S
N203 C204 1.340 1_455 S
N203 C206 1.361 . S
C204 H190 0.930 . S
C204 N203 1.340 1_655 S
C204 C208 1.407 1_655 S
C205 C206 1.413 . S
C205 C207 1.416 . S
C205 C234 1.427 . S
C206 C198 1.424 . S
C206 N203 1.361 . S
C206 C205 1.413 . S
C207 H196 0.931 . S
C207 C205 1.416 . S
C207 C208 1.332 . S
C208 H187 0.929 1_455 S
C208 C204 1.407 1_455 S
C208 C207 1.332 . S
H209 C202 0.930 . S
H210 C233 0.930 . S
H211 C234 0.929 . S
O212 Tb168 2.465 . S
O212 C232 1.260 1_654 S
O213 Tb168 2.387 . S
O213 C224 1.264 . S
O214 Tb179 2.349 1_545 S
O214 C224 1.243 . S
O215 Tb168 2.428 1_455 S
O215 C232 1.253 1_554 S
O216 Tb168 2.308 . S
O216 C231 1.266 1_545 S
O217 Tb179 2.393 . S
O217 C231 1.248 . S
O218 Tb179 2.465 . S
O218 C243 1.264 . S
O219 Tb179 2.387 . S
O219 C235 1.264 . S
O220 Tb168 2.349 . S
O220 C235 1.243 1_545 S
O221 Tb179 2.428 . S
O221 C243 1.256 . S
O222 Tb179 2.308 . S
O222 C242 1.266 1_565 S
O223 Tb168 2.393 . S
O223 C242 1.248 . S
C224 O213 1.264 . S
C224 O214 1.243 . S
C225 C228 1.399 . S
C225 C230 1.383 1_455 S
C225 C232 1.503 . S
C226 C227 1.399 . S
C226 C230 1.389 1_455 S
C227 C226 1.399 . S
C227 C229 1.380 . S
C227 H244 0.929 . S
C228 C225 1.399 . S
C228 C229 1.392 . S
C228 H245 0.929 . S
C229 C227 1.380 . S
C229 C228 1.392 . S
C229 H246 0.929 . S
C230 C225 1.383 1_655 S
C230 C226 1.389 1_655 S
C230 H247 0.931 . S
C231 O216 1.266 1_565 S
C231 O217 1.248 . S
C232 Tb168 2.795 1_456 S
C232 O212 1.260 1_456 S
C232 O215 1.253 1_556 S
C232 C225 1.503 . S
C233 C200 1.448 . S
C233 H210 0.930 . S
C233 C234 1.328 . S
C234 C205 1.427 . S
C234 H211 0.929 . S
C234 C233 1.328 . S
C235 O219 1.264 . S
C235 O220 1.243 1_565 S
C236 C239 1.399 . S
C236 C240 1.383 . S
C236 C243 1.496 . S
C237 C238 1.399 . S
C237 C240 1.389 . S
C238 C237 1.399 . S
C238 C241 1.380 . S
C238 H248 0.929 . S
C239 C236 1.399 . S
C239 C241 1.392 . S
C239 H249 0.929 . S
C240 C236 1.383 . S
C240 C237 1.389 . S
C240 H250 0.931 . S
C241 C238 1.380 . S
C241 C239 1.392 . S
C241 H251 0.929 . S
C242 O222 1.266 1_545 S
C242 O223 1.248 . S
C243 Tb179 2.802 . S
C243 O218 1.264 . S
C243 O221 1.256 . S
C243 C236 1.496 . S
H244 C227 0.929 . S
H245 C228 0.929 . S
H246 C229 0.929 . S
H247 C230 0.931 . S
H248 C238 0.929 . S
H249 C239 0.929 . S
H250 C240 0.931 . S
H251 C241 0.929 . S
Tb252 N281 2.617 1_565 S
Tb252 N287 2.572 1_565 S
Tb252 O296 2.465 . S
Tb252 O297 2.387 . S
Tb252 O299 2.428 1_565 S
Tb252 O300 2.308 . S
Tb252 O304 2.358 . S
Tb252 O307 2.397 . S
Tb252 C316 2.802 1_565 S
C253 N254 1.379 . S
C253 C256 1.416 . S
C253 C260 1.424 . S
N254 C253 1.379 . S
N254 C257 1.334 . S
N254 Tb263 2.617 . S
C255 C257 1.390 . S
C255 C258 1.339 . S
C255 H275 0.930 . S
C256 C253 1.416 . S
C256 C258 1.416 . S
C256 C262 1.448 . S
C257 N254 1.334 . S
C257 C255 1.390 . S
C257 H268 0.930 . S
C258 C255 1.339 . S
C258 C256 1.416 . S
C258 H279 0.930 . S
C259 C260 1.413 . S
C259 C261 1.427 . S
C259 C265 1.416 . S
C260 C253 1.424 . S
C260 C259 1.413 . S
C260 N264 1.361 . S
C261 C259 1.427 . S
C261 C262 1.328 . S
C261 H276 0.929 . S
C262 C256 1.448 . S
C262 C261 1.328 . S
C262 H277 0.930 . S
Tb263 N254 2.617 . S
Tb263 N264 2.572 . S
Tb263 O298 2.352 . S
Tb263 O301 2.393 . S
Tb263 O302 2.465 . S
Tb263 O303 2.387 . S
Tb263 O305 2.428 . S
Tb263 O306 2.308 . S
Tb263 C327 2.802 . S
N264 C260 1.361 . S
N264 Tb263 2.572 . S
N264 C266 1.340 . S
C265 C259 1.416 . S
C265 C267 1.332 . S
C265 H273 0.931 . S
C266 N264 1.340 . S
C266 C267 1.407 . S
C266 H272 0.930 . S
C267 C265 1.332 . S
C267 C266 1.407 . S
C267 H269 0.929 . S
H268 C257 0.930 . S
H269 C267 0.929 . S
H270 C285 0.930 . S
H271 C292 0.929 . S
H272 C266 0.930 . S
H273 C265 0.931 . S
H274 C288 0.930 1_565 S
H275 C255 0.930 . S
H276 C261 0.929 . S
H277 C262 0.930 . S
H278 C283 0.930 . S
H279 C258 0.930 . S
H280 C291 0.931 . S
N281 Tb252 2.617 1_545 S
N281 C282 1.379 . S
N281 C285 1.334 . S
C282 N281 1.379 . S
C282 C284 1.416 . S
C282 C290 1.424 . S
C283 H278 0.930 . S
C283 C285 1.390 . S
C283 C286 1.339 . S
C284 C282 1.416 . S
C284 C286 1.416 . S
C284 C317 1.448 . S
C285 H270 0.930 . S
C285 N281 1.334 . S
C285 C283 1.390 . S
C286 C283 1.339 . S
C286 C284 1.416 . S
C286 H293 0.930 . S
N287 Tb252 2.572 1_545 S
N287 C288 1.340 . S
N287 C290 1.361 . S
C288 H274 0.930 1_545 S
C288 N287 1.340 . S
C288 C292 1.407 . S
C289 C290 1.413 . S
C289 C291 1.416 . S
C289 C318 1.427 . S
C290 C282 1.424 . S
C290 N287 1.361 . S
C290 C289 1.413 . S
C291 H280 0.931 . S
C291 C289 1.416 . S
C291 C292 1.332 . S
C292 H271 0.929 . S
C292 C288 1.407 . S
C292 C291 1.332 . S
H293 C286 0.930 . S
H294 C317 0.930 . S
H295 C318 0.929 . S
O296 Tb252 2.465 . S
O296 C316 1.264 1_565 S
O297 Tb252 2.387 . S
O297 C308 1.264 . S
O298 Tb263 2.352 . S
O298 C308 1.240 1_655 S
O299 Tb252 2.428 1_545 S
O299 C316 1.256 . S
O300 Tb252 2.308 . S
O300 C315 1.266 1_455 S
O301 Tb263 2.393 . S
O301 C315 1.248 . S
O302 Tb263 2.465 . S
O302 C327 1.264 . S
O303 Tb263 2.387 . S
O303 C319 1.264 . S
O304 Tb252 2.358 . S
O304 C319 1.233 1_455 S
O305 Tb263 2.428 . S
O305 C327 1.256 . S
O306 Tb263 2.308 . S
O306 C326 1.266 1_655 S
O307 Tb252 2.397 . S
O307 C326 1.247 . S
C308 O297 1.264 . S
C308 O298 1.240 1_455 S
C309 C312 1.399 . S
C309 C314 1.383 . S
C309 C316 1.496 . S
C310 C311 1.399 . S
C310 C314 1.389 . S
C311 C310 1.399 . S
C311 C313 1.380 . S
C311 H328 0.929 . S
C312 C309 1.399 . S
C312 C313 1.392 . S
C312 H329 0.929 . S
C313 C311 1.380 . S
C313 C312 1.392 . S
C313 H330 0.929 . S
C314 C309 1.383 . S
C314 C310 1.389 . S
C314 H331 0.931 1_545 S
C315 O300 1.266 1_655 S
C315 O301 1.248 . S
C316 Tb252 2.802 1_545 S
C316 O296 1.264 1_545 S
C316 O299 1.256 . S
C316 C309 1.496 . S
C317 C284 1.448 . S
C317 H294 0.930 . S
C317 C318 1.328 . S
C318 C289 1.427 . S
C318 H295 0.929 . S
C318 C317 1.328 . S
C319 O303 1.264 . S
C319 O304 1.233 1_655 S
C320 C323 1.399 . S
C320 C324 1.383 . S
C320 C327 1.496 . S
C321 C322 1.399 . S
C321 C324 1.389 . S
C322 C321 1.399 . S
C322 C325 1.380 . S
C322 H332 0.929 . S
C323 C320 1.399 . S
C323 C325 1.392 . S
C323 H333 0.929 . S
C324 C320 1.383 . S
C324 C321 1.389 . S
C324 H334 0.931 . S
C325 C322 1.380 . S
C325 C323 1.392 . S
C325 H335 0.929 . S
C326 O306 1.266 1_455 S
C326 O307 1.247 . S
C327 Tb263 2.802 . S
C327 O302 1.264 . S
C327 O305 1.256 . S
C327 C320 1.496 . S
H328 C311 0.929 . S
H329 C312 0.929 . S
H330 C313 0.929 . S
H331 C314 0.931 1_565 S
H332 C322 0.929 . S
H333 C323 0.929 . S
H334 C324 0.931 . S
H335 C325 0.929 . S
C336 C337 1.386 . S
C336 C338 1.383 1_655 S
C336 H352 0.951 1_545 S
C337 C336 1.386 . S
C337 C341 1.383 . S
C338 C336 1.383 1_455 S
C338 C339 1.402 . S
C338 H353 0.951 . S
C339 C338 1.402 . S
C339 C340 1.375 . S
C339 C342 1.481 . S
C340 C339 1.375 . S
C340 C341 1.367 1_455 S
C340 H354 0.951 . S
C341 C337 1.383 . S
C341 C340 1.367 1_655 S
C341 H355 0.950 . S
C342 C339 1.481 . S
C342 C343 1.297 . S
C342 H356 0.950 . S
C343 C342 1.297 . S
C343 C344 1.479 . S
C343 H357 0.950 . S
C344 C343 1.479 . S
C344 C345 1.375 . S
C344 C350 1.404 . S
C345 C344 1.375 . S
C345 C346 1.369 . S
C345 H358 0.950 . S
C346 C345 1.369 . S
C346 C347 1.392 . S
C346 H359 0.951 . S
C347 C346 1.392 . S
C347 C349 1.384 . S
H348 C350 0.949 . S
C349 C347 1.384 . S
C349 C350 1.385 . S
C349 H351 0.950 1_554 S
C350 C344 1.404 . S
C350 H348 0.949 . S
C350 C349 1.385 . S
H351 C349 0.950 1_556 S
H352 C336 0.951 1_565 S
H353 C338 0.951 . S
H354 C340 0.951 . S
H355 C341 0.950 . S
H356 C342 0.950 . S
H357 C343 0.950 . S
H358 C345 0.950 . S
H359 C346 0.951 . S
C360 C361 1.386 . S
C360 C362 1.383 1_565 S
C360 H376 0.951 1_455 S
C361 C360 1.386 . S
C361 C365 1.383 1_565 S
C362 C360 1.383 1_545 S
C362 C363 1.402 . S
C362 H377 0.951 . S
C363 C362 1.402 . S
C363 C364 1.375 . S
C363 C366 1.481 . S
C364 C363 1.375 . S
C364 C365 1.367 . S
C364 H378 0.951 . S
C365 C361 1.383 1_545 S
C365 C364 1.367 . S
C365 H379 0.950 . S
C366 C363 1.481 . S
C366 C367 1.297 . S
C366 H380 0.950 . S
C367 C366 1.297 . S
C367 C368 1.479 . S
C367 H381 0.950 . S
C368 C367 1.479 . S
C368 C369 1.375 . S
C368 C374 1.404 . S
C369 C368 1.375 . S
C369 C370 1.369 . S
C369 H382 0.950 . S
C370 C369 1.369 . S
C370 C371 1.392 . S
C370 H383 0.951 . S
C371 C370 1.392 . S
C371 C373 1.384 . S
H372 C374 0.949 . S
C373 C371 1.384 . S
C373 C374 1.385 . S
C373 H375 0.950 . S
C374 C368 1.404 . S
C374 H372 0.949 . S
C374 C373 1.385 . S
H375 C373 0.950 . S
H376 C360 0.951 1_655 S
H377 C362 0.951 . S
H378 C364 0.951 . S
H379 C365 0.950 . S
H380 C366 0.950 . S
H381 C367 0.950 . S
H382 C369 0.950 . S
H383 C370 0.951 . S
C384 C385 1.386 . S
C384 C386 1.383 . S
C384 H400 0.951 1_545 S
C385 C384 1.386 . S
C385 C389 1.383 . S
C386 C384 1.383 . S
C386 C387 1.402 . S
C386 H401 0.951 . S
C387 C386 1.402 . S
C387 C388 1.375 . S
C387 C390 1.481 . S
C388 C387 1.375 . S
C388 C389 1.367 . S
C388 H402 0.951 . S
C389 C385 1.383 . S
C389 C388 1.367 . S
C389 H403 0.950 . S
C390 C387 1.481 . S
C390 C391 1.297 . S
C390 H404 0.950 . S
C391 C390 1.297 . S
C391 C392 1.479 . S
C391 H405 0.950 . S
C392 C391 1.479 . S
C392 C393 1.375 . S
C392 C398 1.404 . S
C393 C392 1.375 . S
C393 C394 1.369 . S
C393 H406 0.950 . S
C394 C393 1.369 . S
C394 C395 1.392 . S
C394 H407 0.951 1_554 S
C395 C394 1.392 . S
C395 C397 1.384 . S
H396 C398 0.949 . S
C397 C395 1.384 . S
C397 C398 1.385 . S
C397 H399 0.950 . S
C398 C392 1.404 . S
C398 H396 0.949 . S
C398 C397 1.385 . S
H399 C397 0.950 . S
H400 C384 0.951 1_565 S
H401 C386 0.951 . S
H402 C388 0.951 . S
H403 C389 0.950 . S
H404 C390 0.950 . S
H405 C391 0.950 . S
H406 C393 0.950 . S
H407 C394 0.951 1_556 S
C408 C409 1.386 . S
C408 C410 1.383 . S
C408 H424 0.951 . S
C409 C408 1.386 . S
C409 C413 1.383 . S
C410 C408 1.383 . S
C410 C411 1.402 . S
C410 H425 0.951 . S
C411 C410 1.402 . S
C411 C412 1.375 . S
C411 C414 1.481 . S
C412 C411 1.375 . S
C412 C413 1.367 . S
C412 H426 0.951 . S
C413 C409 1.383 . S
C413 C412 1.367 . S
C413 H427 0.950 . S
C414 C411 1.481 . S
C414 C415 1.297 . S
C414 H428 0.950 . S
C415 C414 1.297 . S
C415 C416 1.479 . S
C415 H429 0.950 . S
C416 C415 1.479 . S
C416 C417 1.375 . S
C416 C422 1.404 . S
C417 C416 1.375 . S
C417 C418 1.369 1_455 S
C417 H430 0.950 . S
C418 C417 1.369 1_655 S
C418 C419 1.392 1_655 S
C418 H431 0.951 . S
C419 C418 1.392 1_455 S
C419 C421 1.384 . S
H420 C422 0.949 . S
C421 C419 1.384 . S
C421 C422 1.385 . S
C421 H423 0.950 . S
C422 C416 1.404 . S
C422 H420 0.949 . S
C422 C421 1.385 . S
H423 C421 0.950 . S
H424 C408 0.951 . S
H425 C410 0.951 . S
H426 C412 0.951 . S
H427 C413 0.950 . S
H428 C414 0.950 . S
H429 C415 0.950 . S
H430 C417 0.950 . S
H431 C418 0.951 . S
C432 C433 1.386 . S
C432 C434 1.383 . S
C432 H448 0.951 . S
C433 C432 1.386 . S
C433 C437 1.383 1_565 S
C434 C432 1.383 . S
C434 C435 1.402 . S
C434 H449 0.951 . S
C435 C434 1.402 . S
C435 C436 1.375 . S
C435 C438 1.481 . S
C436 C435 1.375 . S
C436 C437 1.367 1_565 S
C436 H450 0.951 1_665 S
C437 C433 1.383 1_545 S
C437 C436 1.367 1_545 S
C437 H451 0.950 1_655 S
C438 C435 1.481 . S
C438 C439 1.297 . S
C438 H452 0.950 . S
C439 C438 1.297 . S
C439 C440 1.479 . S
C439 H453 0.950 . S
C440 C439 1.479 . S
C440 C441 1.375 . S
C440 C446 1.404 . S
C441 C440 1.375 . S
C441 C442 1.369 . S
C441 H454 0.950 . S
C442 C441 1.369 . S
C442 C443 1.392 . S
C442 H455 0.951 . S
C443 C442 1.392 . S
C443 C445 1.384 . S
H444 C446 0.949 1_455 S
C445 C443 1.384 . S
C445 C446 1.385 . S
C445 H447 0.950 1_655 S
C446 C440 1.404 . S
C446 H444 0.949 1_655 S
C446 C445 1.385 . S
H447 C445 0.950 1_455 S
H448 C432 0.951 . S
H449 C434 0.951 . S
H450 C436 0.951 1_445 S
H451 C437 0.950 1_455 S
H452 C438 0.950 . S
H453 C439 0.950 . S
H454 C441 0.950 . S
H455 C442 0.951 . S
C456 C457 1.386 . S
C456 C458 1.383 . S
C456 H472 0.951 . S
C457 C456 1.386 . S
C457 C461 1.383 . S
C458 C456 1.383 . S
C458 C459 1.402 . S
C458 H473 0.951 . S
C459 C458 1.402 . S
C459 C460 1.375 . S
C459 C462 1.481 . S
C460 C459 1.375 . S
C460 C461 1.367 . S
C460 H474 0.951 . S
C461 C457 1.383 . S
C461 C460 1.367 . S
C461 H475 0.950 . S
C462 C459 1.481 . S
C462 C463 1.297 . S
C462 H476 0.950 . S
C463 C462 1.297 . S
C463 C464 1.473 . S
C463 H477 0.950 1_455 S
C464 C463 1.473 . S
C464 C465 1.360 1_455 S
C464 C470 1.424 . S
C465 C464 1.360 1_655 S
C465 C466 1.369 . S
C465 H478 0.950 . S
C466 C465 1.369 . S
C466 C467 1.392 . S
C466 H479 0.951 . S
C467 C466 1.392 . S
C467 C469 1.384 1_655 S
H468 C470 0.949 . S
C469 C467 1.384 1_455 S
C469 C470 1.385 . S
C469 H471 0.950 . S
C470 C464 1.424 . S
C470 H468 0.949 . S
C470 C469 1.385 . S
H471 C469 0.950 . S
H472 C456 0.951 . S
H473 C458 0.951 . S
H474 C460 0.951 . S
H475 C461 0.950 . S
H476 C462 0.950 . S
H477 C463 0.950 1_655 S
H478 C465 0.950 . S
H479 C466 0.951 . S
C480 C481 1.386 . S
C480 C482 1.383 . S
C480 H496 0.951 . S
C481 C480 1.386 . S
C481 C485 1.383 . S
C482 C480 1.383 . S
C482 C483 1.402 . S
C482 H497 0.951 . S
C483 C482 1.402 . S
C483 C484 1.375 . S
C483 C486 1.481 . S
C484 C483 1.375 . S
C484 C485 1.367 . S
C484 H498 0.951 . S
C485 C481 1.383 . S
C485 C484 1.367 . S
C485 H499 0.950 . S
C486 C483 1.481 . S
C486 C487 1.297 . S
C486 H500 0.950 . S
C487 C486 1.297 . S
C487 C488 1.479 . S
C487 H501 0.950 . S
C488 C487 1.479 . S
C488 C489 1.375 . S
C488 C494 1.404 . S
C489 C488 1.375 . S
C489 C490 1.369 . S
C489 H502 0.950 . S
C490 C489 1.369 . S
C490 C491 1.392 . S
C490 H503 0.951 . S
C491 C490 1.392 . S
C491 C493 1.384 . S
H492 C494 0.949 . S
C493 C491 1.384 . S
C493 C494 1.385 . S
C493 H495 0.950 . S
C494 C488 1.404 . S
C494 H492 0.949 . S
C494 C493 1.385 . S
H495 C493 0.950 . S
H496 C480 0.951 . S
H497 C482 0.951 . S
H498 C484 0.951 . S
H499 C485 0.950 . S
H500 C486 0.950 . S
H501 C487 0.950 . S
H502 C489 0.950 . S
H503 C490 0.951 . S
C504 C505 1.386 . S
C504 C506 1.383 . S
C504 H520 0.951 1_545 S
C505 C504 1.386 . S
C505 C509 1.383 . S
C506 C504 1.383 . S
C506 C507 1.402 . S
C506 H521 0.951 . S
C507 C506 1.402 . S
C507 C508 1.375 . S
C507 C510 1.481 . S
C508 C507 1.375 . S
C508 C509 1.367 . S
C508 H522 0.951 . S
C509 C505 1.383 . S
C509 C508 1.367 . S
C509 H523 0.950 . S
C510 C507 1.481 . S
C510 C511 1.297 . S
C510 H524 0.950 . S
C511 C510 1.297 . S
C511 C512 1.479 . S
C511 H525 0.950 . S
C512 C511 1.479 . S
C512 C513 1.375 . S
C512 C518 1.404 . S
C513 C512 1.375 . S
C513 C514 1.369 . S
C513 H526 0.950 . S
C514 C513 1.369 . S
C514 C515 1.392 . S
C514 H527 0.951 . S
C515 C514 1.392 . S
C515 C517 1.384 . S
H516 C518 0.949 . S
C517 C515 1.384 . S
C517 C518 1.385 . S
C517 H519 0.950 . S
C518 C512 1.404 . S
C518 H516 0.949 . S
C518 C517 1.385 . S
H519 C517 0.950 . S
H520 C504 0.951 1_565 S
H521 C506 0.951 . S
H522 C508 0.951 . S
H523 C509 0.950 . S
H524 C510 0.950 . S
H525 C511 0.950 . S
H526 C513 0.950 . S
H527 C514 0.951 . S
C528 C529 1.386 . S
C528 C530 1.383 . S
C528 H544 0.951 . S
C529 C528 1.386 . S
C529 C533 1.383 . S
C530 C528 1.383 . S
C530 C531 1.402 . S
C530 H545 0.951 . S
C531 C530 1.402 . S
C531 C532 1.375 . S
C531 C534 1.481 . S
C532 C531 1.375 . S
C532 C533 1.367 . S
C532 H546 0.951 . S
C533 C529 1.383 . S
C533 C532 1.367 . S
C533 H547 0.950 . S
C534 C531 1.481 . S
C534 C535 1.297 . S
C534 H548 0.950 . S
C535 C534 1.297 . S
C535 C536 1.479 . S
C535 H549 0.950 . S
C536 C535 1.479 . S
C536 C537 1.375 . S
C536 C542 1.404 . S
C537 C536 1.375 . S
C537 C538 1.369 . S
C537 H550 0.950 . S
C538 C537 1.369 . S
C538 C539 1.392 . S
C538 H551 0.951 . S
C539 C538 1.392 . S
C539 C541 1.384 . S
H540 C542 0.949 . S
C541 C539 1.384 . S
C541 C542 1.385 . S
C541 H543 0.950 . S
C542 C536 1.404 . S
C542 H540 0.949 . S
C542 C541 1.385 . S
H543 C541 0.950 . S
H544 C528 0.951 . S
H545 C530 0.951 . S
H546 C532 0.951 . S
H547 C533 0.950 . S
H548 C534 0.950 . S
H549 C535 0.950 . S
H550 C537 0.950 . S
H551 C538 0.951 . S
C552 C553 1.386 . S
C552 C554 1.383 . S
C552 H568 0.951 . S
C553 C552 1.386 . S
C553 C557 1.383 . S
C554 C552 1.383 . S
C554 C555 1.402 . S
C554 H569 0.951 . S
C555 C554 1.402 . S
C555 C556 1.375 . S
C555 C558 1.481 . S
C556 C555 1.375 . S
C556 C557 1.367 . S
C556 H570 0.951 . S
C557 C553 1.383 . S
C557 C556 1.367 . S
C557 H571 0.950 . S
C558 C555 1.481 . S
C558 C559 1.297 1_545 S
C558 H572 0.950 . S
C559 C558 1.297 1_565 S
C559 C560 1.479 . S
C559 H573 0.950 . S
C560 C559 1.479 . S
C560 C561 1.375 . S
C560 C566 1.404 . S
C561 C560 1.375 . S
C561 C562 1.369 . S
C561 H574 0.950 . S
C562 C561 1.369 . S
C562 C563 1.392 . S
C562 H575 0.951 . S
C563 C562 1.392 . S
C563 C565 1.384 . S
H564 C566 0.949 1_545 S
C565 C563 1.384 . S
C565 C566 1.385 . S
C565 H567 0.950 . S
C566 C560 1.404 . S
C566 H564 0.949 1_565 S
C566 C565 1.385 . S
H567 C565 0.950 . S
H568 C552 0.951 . S
H569 C554 0.951 . S
H570 C556 0.951 . S
H571 C557 0.950 . S
H572 C558 0.950 . S
H573 C559 0.950 . S
H574 C561 0.950 . S
H575 C562 0.951 . S
C576 C577 1.386 . S
C576 C578 1.383 . S
C576 H592 0.951 . S
C577 C576 1.386 . S
C577 C581 1.383 . S
C578 C576 1.383 . S
C578 C579 1.402 . S
C578 H593 0.951 . S
C579 C578 1.402 . S
C579 C580 1.375 . S
C579 C582 1.481 . S
C580 C579 1.375 . S
C580 C581 1.367 . S
C580 H594 0.951 . S
C581 C577 1.383 . S
C581 C580 1.367 . S
C581 H595 0.950 . S
C582 C579 1.481 . S
C582 C583 1.297 . S
C582 H596 0.950 . S
C583 C582 1.297 . S
C583 C584 1.479 . S
C583 H597 0.950 . S
C584 C583 1.479 . S
C584 C585 1.375 . S
C584 C590 1.404 . S
C585 C584 1.375 . S
C585 C586 1.369 . S
C585 H598 0.950 . S
C586 C585 1.369 . S
C586 C587 1.392 . S
C586 H599 0.957 . S
C587 C586 1.392 . S
C587 C589 1.384 . S
H588 C590 0.949 . S
C589 C587 1.384 . S
C589 C590 1.385 . S
C589 H591 0.950 . S
C590 C584 1.404 . S
C590 H588 0.949 . S
C590 C589 1.385 . S
H591 C589 0.950 . S
H592 C576 0.951 . S
H593 C578 0.951 . S
H594 C580 0.951 . S
H595 C581 0.950 . S
H596 C582 0.950 . S
H597 C583 0.950 . S
H598 C585 0.950 . S
H599 C586 0.957 . S
C600 C601 1.386 . S
C600 C602 1.383 1_655 S
C600 H616 0.951 . S
C601 C600 1.386 . S
C601 C605 1.383 1_655 S
C602 C600 1.383 1_455 S
C602 C603 1.402 . S
C602 H617 0.951 . S
C603 C602 1.402 . S
C603 C604 1.375 . S
C603 C606 1.481 . S
C604 C603 1.375 . S
C604 C605 1.367 . S
C604 H618 0.951 . S
C605 C601 1.383 1_455 S
C605 C604 1.367 . S
C605 H619 0.950 . S
C606 C603 1.481 . S
C606 C607 1.297 . S
C606 H620 0.950 . S
C607 C606 1.297 . S
C607 C608 1.479 . S
C607 H621 0.950 . S
C608 C607 1.479 . S
C608 C609 1.375 . S
C608 C614 1.404 . S
C609 C608 1.375 . S
C609 C610 1.369 . S
C609 H622 0.950 . S
C610 C609 1.369 . S
C610 C611 1.392 . S
C610 H623 0.951 . S
C611 C610 1.392 . S
C611 C613 1.384 . S
H612 C614 0.949 . S
C613 C611 1.384 . S
C613 C614 1.385 . S
C613 H615 0.950 . S
C614 C608 1.404 . S
C614 H612 0.949 . S
C614 C613 1.385 . S
H615 C613 0.950 . S
H616 C600 0.951 . S
H617 C602 0.951 . S
H618 C604 0.951 . S
H619 C605 0.950 . S
H620 C606 0.950 . S
H621 C607 0.950 . S
H622 C609 0.950 . S
H623 C610 0.951 . S
C337 C242 0.486 . S
C347 C63 0.580 . S
C361 C326 0.593 . S
C371 C158 0.566 . S
C385 C231 1.658 1_545 S
C395 C74 1.602 . S
C409 C147 1.750 . S
C419 C315 1.742 1_455 S
C433 C153 0.782 . S
C443 C56 0.802 . S
C457 C142 1.081 . S
C467 C226 0.971 1_655 S
C481 C321 0.833 . S
C491 C237 0.711 . S
C505 C310 0.851 . S
C515 C67 0.729 . S
C529 C235 3.348 1_556 S
C539 C319 3.339 . S
C553 C69 1.587 . S
C563 C308 1.880 . S
C577 C151 3.156 . S
C587 C58 3.102 . S
C601 C224 2.857 . S
C611 C140 2.897 . S
