# Generated by pormake.
# Topology sxc, (6)-cn, num edge types: 1
# Building blocks:
#     Node 0, Type 0, BuildingBlock: FUNLAD_clean_sbu_0, # of connection points: 6
#     Node 1, Type 0, BuildingBlock: FUNLAD_clean_sbu_0, # of connection points: 6
#     Node 2, Type 0, BuildingBlock: FUNLAD_clean_sbu_0, # of connection points: 6
#     Edge 3, Type (0, 0), BuildingBlock: ZUJKAS_clean_linker_0, # of connection points: 2
#     Edge 4, Type (0, 0), BuildingBlock: ZUJKAS_clean_linker_0, # of connection points: 2
#     Edge 5, Type (0, 0), BuildingBlock: ZUJKAS_clean_linker_0, # of connection points: 2
#     Edge 6, Type (0, 0), BuildingBlock: ZUJKAS_clean_linker_0, # of connection points: 2
#     Edge 7, Type (0, 0), BuildingBlock: ZUJKAS_clean_linker_0, # of connection points: 2
#     Edge 8, Type (0, 0), BuildingBlock: ZUJKAS_clean_linker_0, # of connection points: 2
#     Edge 9, Type (0, 0), BuildingBlock: ZUJKAS_clean_linker_0, # of connection points: 2
#     Edge 10, Type (0, 0), BuildingBlock: ZUJKAS_clean_linker_0, # of connection points: 2
#     Edge 11, Type (0, 0), BuildingBlock: ZUJKAS_clean_linker_0, # of connection points: 2
# Relax obj value: 0.140
# Max RMSD: 0.177
# Mean RMSD: 0.176
data_MOF--net-sxc--node1-FUNLAD_clean_sbu_0--edge1-ZUJKAS_clean_linker_0
_symmetry_space_group_name_H-M    P1
_symmetry_Int_Tables_number       1
_symmetry_cell_setting            triclinic
loop_
_symmetry_equiv_pos_as_xyz
'x, y, z'
_cell_length_a     19.468355
_cell_length_b     19.452499
_cell_length_c     78.787366
_cell_angle_alpha  88.871074
_cell_angle_beta   93.558618
_cell_angle_gamma 119.66806
loop_
_atom_site_label
_atom_site_type_symbol
_atom_site_fract_x
_atom_site_fract_y
_atom_site_fract_z
_atom_type_partial_charge
C0 C 0.83164 0.8834 0.02865 0.0
N1 N -0.00953 0.0019 0.07003 0.0
C2 C 0.92849 -4e-05 0.07755 0.0
C3 C 0.92639 -0.00161 0.09523 0.0
C4 C -0.01128 -0.00109 0.10531 0.0
C5 C 0.05222 0.00141 0.09722 0.0
C6 C 0.05185 0.00279 0.07947 0.0
Zn7 Zn -0.01043 0.00229 0.04408 0.0
C8 C 0.02886 0.88628 0.0306 0.0
N9 N -0.01613 0.00193 0.98982 0.0
C10 C 0.92377 0.00368 0.98041 0.0
C11 C 0.0441 0.00046 0.98227 0.0
C12 C 0.04537 0.00051 0.96458 0.0
C13 C -0.01573 0.00254 0.9545 0.0
C14 C 0.92287 0.00417 0.96266 0.0
Zn15 Zn -0.01509 0.00175 0.01578 0.0
O16 O 0.86997 0.91199 0.04277 0.0
C17 C 0.94563 0.11776 0.0293 0.0
O18 O 0.86512 0.91155 0.01487 0.0
H19 H 0.09129 -0.00096 0.98998 0.0
H20 H 0.88041 -0.00047 0.06981 0.0
H21 H 0.87653 0.00495 0.98668 0.0
O22 O 0.95633 0.08994 0.0433 0.0
O23 O 0.95215 0.09002 0.0154 0.0
H24 H 0.10041 0.00411 0.07323 0.0
O25 O 0.10464 0.09168 0.01706 0.0
O26 O 0.10922 0.09285 0.04496 0.0
O27 O 0.01765 0.91372 0.01659 0.0
O28 O 0.02283 0.91439 0.04449 0.0
C29 C 0.14283 0.12065 0.03118 0.0
H30 H 0.87682 -0.00237 0.10093 0.0
H31 H 0.10108 0.00104 0.1045 0.0
H32 H 0.09327 -0.00204 0.95888 0.0
H33 H 0.87509 0.00681 0.95544 0.0
C34 C 0.12636 0.01348 0.36437 0.0
N35 N -0.03398 -0.02401 0.32304 0.0
C36 C 0.02711 0.03715 0.31541 0.0
C37 C 0.02894 0.03985 0.29773 0.0
C38 C -0.03269 -0.02097 0.28775 0.0
C39 C 0.90488 0.91663 0.29596 0.0
C40 C 0.9054 0.9163 0.31371 0.0
Zn41 Zn -0.03258 -0.02534 0.34901 0.0
C42 C 0.93109 0.81907 0.36294 0.0
N43 N -0.02507 -0.02521 0.4033 0.0
C44 C 0.03448 0.03641 0.4124 0.0
C45 C 0.91505 0.91338 0.41115 0.0
C46 C 0.91315 0.91272 0.42884 0.0
C47 C -0.02671 -0.02397 0.43858 0.0
C48 C 0.03478 0.03829 0.43012 0.0
Zn49 Zn -0.02676 -0.02459 0.37733 0.0
O50 O 0.08731 0.00486 0.3503 0.0
C51 C 0.0097 0.13108 0.36335 0.0
O52 O 0.0932 0.00601 0.3782 0.0
H53 H 0.86828 0.86495 0.40368 0.0
H54 H 0.07487 0.08386 0.32306 0.0
H55 H 0.08141 0.08473 0.4059 0.0
O56 O -0.00135 0.09444 0.34941 0.0
O57 O 0.004 0.09535 0.3773 0.0
H58 H 0.85738 0.86831 0.32003 0.0
O59 O 0.85324 0.94455 0.37607 0.0
O60 O 0.84746 0.9444 0.34816 0.0
O61 O 0.94252 0.85574 0.37691 0.0
O62 O 0.93618 0.85468 0.34899 0.0
C63 C 0.81418 0.9362 0.36201 0.0
H64 H 0.07881 0.08851 0.29197 0.0
H65 H 0.85572 0.86897 0.28875 0.0
H66 H 0.86523 0.86288 0.43481 0.0
H67 H 0.08185 0.08879 0.43707 0.0
C68 C 0.86418 0.03651 0.69602 0.0
N69 N -0.00953 -0.00041 0.73664 0.0
C70 C -0.01044 0.0601 0.7448 0.0
C71 C -0.00918 0.06206 0.76252 0.0
C72 C -0.00657 0.00133 0.772 0.0
C73 C -0.00468 0.94011 0.76322 0.0
C74 C -0.00641 0.9403 0.74548 0.0
Zn75 Zn -0.01555 -0.00333 0.71066 0.0
C76 C 0.86192 0.83976 0.6968 0.0
N77 N -0.03023 -0.00935 0.65636 0.0
C78 C -0.02777 0.0524 0.64746 0.0
C79 C -0.0356 0.92688 0.64827 0.0
C80 C -0.03841 0.92364 0.63055 0.0
C81 C -0.03516 -0.01313 0.621 0.0
C82 C -0.02997 0.05182 0.62971 0.0
Zn83 Zn -0.02403 -0.00614 0.68235 0.0
O84 O 0.89589 0.02888 0.70999 0.0
C85 C 0.09854 0.15074 0.69628 0.0
O86 O 0.88815 0.02712 0.68208 0.0
H87 H -0.03747 0.87842 0.65559 0.0
H88 H -0.01305 0.10659 0.73753 0.0
H89 H -0.0234 0.10257 0.65415 0.0
O90 O 0.07396 0.11635 0.71028 0.0
O91 O 0.06644 0.11336 0.68238 0.0
H92 H -0.00569 0.89277 0.73874 0.0
O93 O 0.06382 0.96069 0.68296 0.0
O94 O 0.07299 0.96438 0.71087 0.0
O95 O 0.88574 0.87443 0.68279 0.0
O96 O 0.89472 0.87691 0.71069 0.0
C97 C 0.09626 0.95405 0.69692 0.0
H98 H -0.01183 0.10987 0.76869 0.0
H99 H -0.00147 0.89268 0.76998 0.0
H100 H 0.95633 0.87179 0.62441 0.0
H101 H -0.02625 0.10238 0.62292 0.0
H102 H 0.93472 0.20069 1.00184 0.0
H103 H 0.94769 0.33231 1.00231 0.0
H104 H 0.95234 0.32845 0.05709 0.0
H105 H 0.93966 0.1971 0.05684 0.0
H106 H 0.8568 0.39452 0.01855 0.0
H107 H 0.16922 0.52208 0.04425 0.0
H108 H 0.11457 0.42498 0.03446 0.0
H109 H 0.09651 0.44016 0.05576 0.0
C110 C 0.93691 0.22711 0.01398 0.0
C111 C 0.93725 0.18902 0.02931 0.0
C112 C 0.94446 0.30227 0.01421 0.0
C113 C 0.95262 0.34019 0.02974 0.0
C114 C 0.94747 0.30026 0.04501 0.0
H115 H 0.03998 0.80359 0.05808 0.0
H116 H 0.02701 0.67196 0.05765 0.0
C117 C 0.9398 0.22513 0.04481 0.0
C118 C -0.02878 0.42328 0.03002 0.0
H119 H 0.11765 0.60951 0.04144 0.0
C120 C 0.91377 0.44167 0.0235 0.0
C121 C 0.04586 0.48418 0.03646 0.0
C122 C 0.11052 0.46735 0.04302 0.0
C123 C 0.92858 0.51985 0.02353 0.0
C124 C 0.00323 0.58075 0.02997 0.0
C125 C 0.06068 0.56236 0.03649 0.0
C126 C 0.02186 0.66386 0.03022 0.0
C127 C 0.86391 0.53667 0.01697 0.0
C128 C 0.02692 0.70367 0.01494 0.0
C129 C 0.0346 0.7788 0.01512 0.0
C130 C 0.03725 0.81504 0.0306 0.0
C131 C 0.03772 0.77707 0.04595 0.0
C132 C 0.03015 0.70191 0.04574 0.0
H133 H 0.80519 0.48195 0.01577 0.0
H134 H 0.85994 0.57913 0.02552 0.0
H135 H 0.87784 0.56373 1.00422 0.0
H136 H 0.02197 0.67538 1.00287 0.0
H137 H 0.03465 0.80673 1.00308 0.0
H138 H 0.2175 0.01123 0.39193 0.0
H139 H 0.337 0.00016 0.39156 0.0
H140 H 0.33343 0.02135 0.33696 0.0
H141 H 0.21343 0.03159 0.33713 0.0
H142 H 0.33706 0.886 0.34913 0.0
H143 H 0.56838 0.15953 0.38252 0.0
H144 H 0.47906 0.10496 0.39354 0.0
H145 H 0.47627 0.14968 0.37352 0.0
C146 C 0.24315 0.01544 0.37988 0.0
C147 C 0.20582 0.02179 0.36455 0.0
C148 C 0.3115 0.00927 0.3797 0.0
C149 C 0.34385 0.01021 0.36423 0.0
C150 C 0.30907 0.02053 0.34901 0.0
H151 H 0.72219 0.93771 0.33453 0.0
H152 H 0.60158 0.94676 0.33504 0.0
C153 C 0.24071 0.02656 0.34915 0.0
C154 C 0.40943 -0.00691 0.36378 0.0
H155 H 0.60153 0.05976 0.37759 0.0
C156 C 0.39511 0.92412 0.35526 0.0
C157 C 0.48454 0.0428 0.37191 0.0
C158 C 0.50349 0.11877 0.38078 0.0
C159 C 0.45406 0.90295 0.35481 0.0
C160 C 0.52919 0.95271 0.36293 0.0
C161 C 0.54346 0.02161 0.37147 0.0
C162 C 0.59501 0.93602 0.36236 0.0
C163 C 0.43518 0.82702 0.34594 0.0
C164 C 0.63026 0.9259 0.37754 0.0
C165 C 0.69924 0.92104 0.37732 0.0
C166 C 0.73429 0.92682 0.36189 0.0
C167 C 0.69646 0.93283 0.3466 0.0
C168 C 0.62746 0.93779 0.34686 0.0
H169 H 0.3703 0.78618 0.34421 0.0
H170 H 0.45955 0.84087 0.33317 0.0
H171 H 0.46253 0.7962 0.35318 0.0
H172 H 0.60584 0.92447 0.38962 0.0
H173 H 0.72685 0.91616 0.3893 0.0
H174 H 0.78584 0.75595 0.72444 0.0
H175 H 0.65653 0.6358 0.72438 0.0
H176 H 0.64571 0.62653 0.66958 0.0
H177 H 0.77516 0.74621 0.66947 0.0
H178 H 0.51869 0.62788 0.70814 0.0
H179 H 0.5769 0.39708 0.68349 0.0
H180 H 0.65481 0.49033 0.69226 0.0
H181 H 0.61343 0.4852 0.67098 0.0
C182 C 0.75681 0.72743 0.71238 0.0
C183 C 0.79062 0.76074 0.69695 0.0
C184 C 0.68287 0.65899 0.71239 0.0
C185 C 0.64197 0.62236 0.69699 0.0
C186 C 0.67696 0.65341 0.6816 0.0
H187 H 0.17525 0.23454 0.6687 0.0
H188 H 0.30471 0.35453 0.66884 0.0
C189 C 0.75084 0.72194 0.68157 0.0
C190 C 0.55997 0.5558 0.69695 0.0
H191 H 0.44215 0.3623 0.68514 0.0
C192 C 0.50187 0.5696 0.70322 0.0
C193 C 0.53854 0.4803 0.69039 0.0
C194 C 0.5992 0.46183 0.68402 0.0
C195 C 0.4223 0.50988 0.70289 0.0
C196 C 0.40086 0.43438 0.69633 0.0
C197 C 0.45897 0.42058 0.69007 0.0
C198 C 0.31879 0.36789 0.69623 0.0
C199 C 0.36164 0.52839 0.70925 0.0
C200 C 0.28348 0.33686 0.71159 0.0
C201 C 0.2095 0.26844 0.71158 0.0
C202 C 0.16995 0.22971 0.69618 0.0
C203 C 0.2041 0.263 0.68077 0.0
C204 C 0.27813 0.33134 0.68082 0.0
H205 H 0.38396 0.59313 0.70978 0.0
H206 H 0.30604 0.4999 0.70101 0.0
H207 H 0.34738 0.50504 0.72229 0.0
H208 H 0.31455 0.36366 0.72363 0.0
H209 H 0.18493 0.24417 0.72366 0.0
H210 H 0.79241 0.04839 0.72361 0.0
H211 H 0.66126 0.0359 0.72377 0.0
H212 H 0.64221 0.02841 0.66894 0.0
H213 H 0.77359 0.04122 0.66858 0.0
H214 H 0.58474 0.12272 0.68539 0.0
H215 H 0.46357 0.81676 0.71003 0.0
H216 H 0.54855 0.89229 0.72195 0.0
H217 H 0.55813 0.86888 0.70061 0.0
C218 C 0.76106 0.04559 0.71157 0.0
C219 C 0.79288 0.04475 0.69608 0.0
C220 C 0.68605 0.03801 0.7117 0.0
C221 C 0.64189 0.02952 0.69638 0.0
C222 C 0.67551 0.03422 0.68088 0.0
H223 H 0.16783 0.94219 0.66928 0.0
H224 H 0.29905 0.95488 0.66907 0.0
C225 C 0.75055 0.0417 0.68072 0.0
C226 C 0.55894 0.01121 0.69653 0.0
H227 H 0.37583 0.86819 0.7074 0.0
C228 C 0.5389 0.06711 0.69015 0.0
C229 C 0.49972 0.93834 0.70272 0.0
C230 C 0.51807 0.87516 0.7091 0.0
C231 C 0.46085 0.05256 0.69007 0.0
C232 C 0.40163 -0.02031 0.69626 0.0
C233 C 0.42166 0.92379 0.70264 0.0
C234 C 0.31871 0.96143 0.69645 0.0
C235 C 0.44248 0.11573 0.68369 0.0
C236 C 0.28525 0.95679 0.71196 0.0
C237 C 0.21018 0.9492 0.71217 0.0
C238 C 0.16763 0.94596 0.69683 0.0
C239 C 0.19931 0.94509 0.68132 0.0
C240 C 0.27438 0.95281 0.68114 0.0
H241 H 0.49698 0.1741 0.68272 0.0
H242 H 0.41184 0.09852 0.67085 0.0
H243 H 0.40254 0.1221 0.6922 0.0
H244 H 0.31867 0.96269 0.72389 0.0
H245 H 0.18725 0.9497 0.72432 0.0
H246 H 0.74341 0.79242 1.0011 0.0
H247 H 0.62322 0.66306 1.00142 0.0
H248 H 0.62285 0.68198 0.05585 0.0
H249 H 0.74251 0.81139 0.0557 0.0
H250 H 0.61819 0.53399 0.02004 0.0
H251 H 0.39083 0.60571 0.03928 0.0
H252 H 0.48253 0.67858 0.03068 0.0
H253 H 0.48119 0.64964 0.0525 0.0
C254 C 0.71678 0.76991 0.0131 0.0
C255 C 0.75258 0.81202 0.02839 0.0
C256 C 0.64835 0.69592 0.01325 0.0
C257 C 0.61421 0.66338 0.02864 0.0
C258 C 0.64778 0.70669 0.04382 0.0
H259 H 0.231 0.21194 0.05869 0.0
H260 H 0.35109 0.34136 0.05834 0.0
C261 C 0.7163 0.78051 0.0437 0.0
C262 C 0.54768 0.58145 0.02905 0.0
H263 H 0.35609 0.47022 0.03969 0.0
C264 C 0.56065 0.51991 0.02422 0.0
C265 C 0.47318 0.56365 0.03465 0.0
C266 C 0.45556 0.62781 0.03945 0.0
C267 C 0.5011 0.44056 0.02508 0.0
C268 C 0.4266 0.42276 0.03068 0.0
C269 C 0.41363 0.4843 0.03551 0.0
C270 C 0.3601 0.34081 0.03112 0.0
C271 C 0.51875 0.37641 0.02029 0.0
C272 C 0.32657 0.29735 0.01596 0.0
C273 C 0.25811 0.22348 0.0161 0.0
C274 C 0.22185 0.19208 0.03142 0.0
C275 C 0.25762 0.23436 0.04669 0.0
C276 C 0.32599 0.30839 0.04652 0.0
H277 H 0.58348 0.39852 0.02046 0.0
H278 H 0.49177 0.32564 0.02906 0.0
H279 H 0.49315 0.35458 1.00723 0.0
H280 H 0.35147 0.32197 1.00392 0.0
H281 H 0.23192 0.19249 1.00411 0.0
H282 H 0.02444 0.2222 0.39076 0.0
H283 H 0.01301 0.34186 0.39035 0.0
H284 H 0.00183 0.33884 0.33553 0.0
H285 H 0.01294 0.21911 0.33571 0.0
H286 H 0.10331 0.4957 0.37334 0.0
H287 H 0.7873 0.31747 0.34992 0.0
H288 H 0.84267 0.2732 0.35945 0.0
H289 H 0.85793 0.30777 0.33798 0.0
C290 C 0.02109 0.2478 0.37861 0.0
C291 C 0.01843 0.21068 0.36326 0.0
C292 C 0.01449 0.31598 0.37842 0.0
C293 C 0.00501 0.34762 0.36291 0.0
C294 C 0.00784 0.31406 0.3476 0.0
H295 H 0.91547 0.7279 0.33547 0.0
H296 H 0.92804 0.60889 0.33573 0.0
C297 C 0.01455 0.246 0.34775 0.0
C298 C -0.01295 0.41263 0.36275 0.0
H299 H 0.83966 0.45562 0.3526 0.0
C300 C 0.04577 0.48719 0.36886 0.0
C301 C 0.91165 0.40047 0.35691 0.0
C302 C 0.84585 0.32033 0.3508 0.0
C303 C 0.03136 0.55089 0.36902 0.0
C304 C 0.9559 0.5387 0.36321 0.0
C305 C 0.89723 0.46416 0.35708 0.0
C306 C 0.93768 0.60353 0.36316 0.0
C307 C 0.09722 0.63105 0.3751 0.0
C308 C 0.93537 0.63705 0.37853 0.0
C309 C 0.92798 0.70473 0.37846 0.0
C310 C 0.9229 0.73968 0.36299 0.0
C311 C 0.91975 0.70258 0.34759 0.0
C312 C 0.92702 0.63478 0.3477 0.0
H313 H 0.15584 0.63408 0.37582 0.0
H314 H 0.09992 0.67826 0.36653 0.0
H315 H 0.08563 0.64335 0.38799 0.0
H316 H 0.94221 0.61253 0.39056 0.0
H317 H 0.93002 0.73162 0.39053 0.0
H318 H 0.92674 0.85521 0.26585 0.0
H319 H 0.93057 0.85887 0.23485 0.0
H320 H 0.01655 0.1101 0.23603 0.0
H321 H 0.01052 0.10663 0.26697 0.0
H322 H 0.89498 0.02938 0.21126 0.0
H323 H 0.13083 0.94921 0.2081 0.0
H324 H 0.04786 0.88087 0.21973 0.0
H325 H 0.10979 -0.0196 0.22761 0.0
C326 C 0.94583 0.91114 0.25951 0.0
C327 C -0.03133 -0.01928 0.2689 0.0
C328 C 0.94886 0.91327 0.24182 0.0
C329 C -0.02487 -0.01501 0.23319 0.0
C330 C -0.00325 0.05427 0.24248 0.0
H331 H 0.11166 0.08298 0.12875 0.0
H332 H 0.10811 0.08018 0.15977 0.0
C333 C -0.00625 0.05224 0.26016 0.0
C334 C -0.02115 -0.01225 0.21446 0.0
H335 H 0.06581 0.95298 0.18186 0.0
C336 C 0.93242 0.01285 0.20482 0.0
C337 C 0.0286 0.96718 0.20613 0.0
C338 C 0.08272 0.94359 0.2159 0.0
C339 C 0.93342 0.01673 0.18703 0.0
C340 C -0.01877 -0.00629 0.17866 0.0
C341 C 0.02867 -0.03013 0.18832 0.0
C342 C -0.01678 -0.00553 0.1599 0.0
C343 C 0.88426 0.04662 0.17736 0.0
C344 C 0.91446 0.94626 0.14973 0.0
C345 C 0.91632 0.94754 0.13203 0.0
C346 C -0.01281 -0.00329 0.12415 0.0
C347 C 0.05631 0.04397 0.13441 0.0
C348 C 0.05433 0.04272 0.15213 0.0
H349 H 0.8677 0.08076 0.18572 0.0
H350 H 0.91656 0.08482 0.16668 0.0
H351 H 0.82884 -0.00452 0.17197 0.0
H352 H 0.85939 0.90723 0.15549 0.0
H353 H 0.86242 0.90929 0.12451 0.0
H354 H 0.84415 0.92983 0.45744 0.0
H355 H 0.84109 0.93223 0.4884 0.0
H356 H 0.0942 0.02912 0.49333 0.0
H357 H 0.09787 0.02549 0.46239 0.0
H358 H 0.89681 0.85625 0.51301 0.0
H359 H 0.05211 0.1833 0.52114 0.0
H360 H 0.00777 0.13446 0.50092 0.0
H361 H 0.10131 0.14565 0.50883 0.0
C362 C 0.89916 0.95098 0.46509 0.0
C363 C -0.02868 -0.02243 0.45741 0.0
C364 C 0.89728 0.95273 0.48277 0.0
C365 C -0.0325 -0.01828 0.49309 0.0
C366 C 0.03955 0.00785 0.48553 0.0
H367 H 0.03767 0.93121 0.60105 0.0
H368 H 0.03474 0.92787 0.57002 0.0
C369 C 0.0415 0.00587 0.46785 0.0
C370 C -0.03487 -0.01676 0.51181 0.0
H371 H 0.02755 0.10767 0.5463 0.0
C372 C 0.92519 0.91114 0.52031 0.0
C373 C 0.00154 0.05507 0.52121 0.0
C374 C 0.04262 0.13419 0.5126 0.0
C375 C 0.92206 0.90892 0.53807 0.0
C376 C -0.03975 -0.01936 0.54751 0.0
C377 C -0.00116 0.05282 0.53899 0.0
C378 C -0.03895 -0.01813 0.56628 0.0
C379 C 0.87744 0.83003 0.54662 0.0
C380 C 0.92134 0.01426 0.57442 0.0
C381 C 0.92221 0.01563 0.59216 0.0
C382 C -0.03647 -0.01471 0.6021 0.0
C383 C 0.00395 0.95363 0.59383 0.0
C384 C 0.00264 0.95191 0.57609 0.0
H385 H 0.83779 0.78219 0.53741 0.0
H386 H 0.92039 0.81406 0.55277 0.0
H387 H 0.84144 0.83315 0.55667 0.0
H388 H 0.889 0.03775 0.56702 0.0
H389 H 0.88965 0.03955 0.59808 0.0
H390 H 0.91567 0.8744 0.79279 0.0
H391 H 0.91414 0.87482 0.82379 0.0
H392 H 0.0665 0.12794 0.825 0.0
H393 H 0.07021 0.12815 0.79403 0.0
H394 H 0.05088 0.93721 0.8485 0.0
H395 H 0.86924 0.08446 0.85182 0.0
H396 H 0.87263 0.0369 0.83267 0.0
H397 H 0.95355 0.13235 0.839 0.0
C398 C 0.94967 0.93013 0.79963 0.0
C399 C -0.00702 0.0013 0.79087 0.0
C400 C 0.94826 0.93024 0.81734 0.0
C401 C -0.01055 0.00147 0.82661 0.0
C402 C 0.03329 0.07251 0.81801 0.0
H403 H 0.11159 0.08083 0.93481 0.0
H404 H 0.11241 0.07854 0.90381 0.0
C405 C 0.0351 0.07248 0.8003 0.0
C406 C -0.0128 0.0013 0.84534 0.0
H407 H 0.92205 0.06266 0.87795 0.0
C408 C 0.0227 0.96452 0.85496 0.0
C409 C 0.94969 0.03639 0.85365 0.0
C410 C 0.90848 0.07432 0.84381 0.0
C411 C 0.02275 0.963 0.87278 0.0
C412 C -0.01333 -0.00048 0.88111 0.0
C413 C 0.95007 0.0352 0.87148 0.0
C414 C -0.01396 0.00091 0.89986 0.0
C415 C 0.06058 0.92166 0.88258 0.0
C416 C 0.91448 0.95894 0.90784 0.0
C417 C 0.91378 0.95951 0.92556 0.0
C418 C -0.01533 0.00272 0.93562 0.0
C419 C 0.05613 0.04569 0.9275 0.0
C420 C 0.05676 0.04471 0.90978 0.0
H421 H 0.07135 0.88304 0.87422 0.0
H422 H 0.11834 0.9666 0.88861 0.0
H423 H 0.02271 0.88522 0.89284 0.0
H424 H 0.85929 0.92486 0.90034 0.0
H425 H 0.85785 0.925 0.93138 0.0
loop_
_geom_bond_atom_site_label_1
_geom_bond_atom_site_label_2
_geom_bond_distance
_geom_bond_site_symmetry_2
_ccdc_geom_bond_type
C0 O16 1.251 . S
C0 O18 1.254 . S
N1 C2 1.333 1_455 S
N1 C6 1.307 . S
N1 Zn7 2.020 . S
C2 N1 1.333 1_655 S
C2 C3 1.379 . S
C2 H20 0.952 . S
C3 C2 1.379 . S
C3 C4 1.390 1_655 S
C3 H30 0.947 . S
C4 C3 1.390 1_455 S
C4 C5 1.357 . S
C5 C4 1.357 . S
C5 C6 1.370 . S
C5 H31 0.950 . S
C6 N1 1.307 . S
C6 C5 1.370 . S
C6 H24 0.948 . S
Zn7 N1 2.020 . S
Zn7 O16 2.039 1_445 S
Zn7 O22 2.034 . S
Zn7 O26 2.025 . S
Zn7 O28 2.024 1_545 S
C8 O27 1.246 . S
C8 O28 1.249 . S
N9 C10 1.307 1_455 S
N9 C11 1.333 . S
N9 Zn15 1.966 1_556 S
C10 N9 1.307 1_655 S
C10 C14 1.370 . S
C10 H21 0.948 . S
C11 N9 1.333 . S
C11 C12 1.379 . S
C11 H19 0.952 . S
C12 C11 1.379 . S
C12 C13 1.390 . S
C12 H32 0.949 . S
C13 C12 1.390 . S
C13 C14 1.357 1_455 S
C14 C10 1.370 . S
C14 C13 1.357 1_655 S
C14 H33 0.950 . S
Zn15 N9 1.966 1_554 S
Zn15 O18 2.038 1_445 S
Zn15 O23 2.037 . S
Zn15 O25 2.047 . S
Zn15 O27 2.044 1_545 S
O16 C0 1.251 . S
O16 Zn7 2.039 1_665 S
C17 O22 1.242 1_655 S
C17 O23 1.245 1_655 S
O18 C0 1.254 . S
O18 Zn15 2.038 1_665 S
H19 C11 0.952 . S
H20 C2 0.952 . S
H21 C10 0.948 . S
O22 Zn7 2.034 . S
O22 C17 1.242 1_455 S
O23 Zn15 2.037 . S
O23 C17 1.245 1_455 S
H24 C6 0.948 . S
O25 Zn15 2.047 . S
O25 C29 1.251 . S
O26 Zn7 2.025 . S
O26 C29 1.254 . S
O27 C8 1.246 . S
O27 Zn15 2.044 1_565 S
O28 Zn7 2.024 1_565 S
O28 C8 1.249 . S
C29 O25 1.251 . S
C29 O26 1.254 . S
H30 C3 0.947 . S
H31 C5 0.950 . S
H32 C12 0.949 . S
H33 C14 0.950 . S
C34 O50 1.251 . S
C34 O52 1.254 . S
N35 C36 1.333 1_665 S
N35 C40 1.307 . S
N35 Zn41 2.020 . S
C36 N35 1.333 1_445 S
C36 C37 1.379 . S
C36 H54 0.952 . S
C37 C36 1.379 . S
C37 C38 1.390 1_455 S
C37 H64 0.949 . S
C38 C37 1.390 1_655 S
C38 C39 1.357 1_545 S
C39 C38 1.357 1_565 S
C39 C40 1.370 . S
C39 H65 0.950 . S
C40 N35 1.307 . S
C40 C39 1.370 . S
C40 H58 0.948 . S
Zn41 N35 2.020 . S
Zn41 O50 2.039 1_665 S
Zn41 O56 2.034 1_665 S
Zn41 O60 2.025 . S
Zn41 O62 2.024 . S
C42 O61 1.246 . S
C42 O62 1.249 . S
N43 C44 1.307 . S
N43 C45 1.333 1_445 S
N43 Zn49 2.020 . S
C44 N43 1.307 . S
C44 C48 1.370 . S
C44 H55 0.948 . S
C45 N43 1.333 1_665 S
C45 C46 1.379 . S
C45 H53 0.952 . S
C46 C45 1.379 . S
C46 C47 1.390 1_655 S
C46 H66 0.949 . S
C47 C46 1.390 1_455 S
C47 C48 1.357 1_565 S
C48 C44 1.370 . S
C48 C47 1.357 1_545 S
C48 H67 0.950 . S
Zn49 N43 2.020 . S
Zn49 O52 2.025 . S
Zn49 O57 2.024 . S
Zn49 O59 2.039 1_445 S
Zn49 O61 2.034 1_445 S
O50 C34 1.251 . S
O50 Zn41 2.039 1_445 S
C51 O56 1.246 . S
C51 O57 1.249 . S
O52 C34 1.254 . S
O52 Zn49 2.025 . S
H53 C45 0.952 . S
H54 C36 0.952 . S
H55 C44 0.948 . S
O56 Zn41 2.034 1_445 S
O56 C51 1.246 . S
O57 Zn49 2.024 . S
O57 C51 1.249 . S
H58 C40 0.948 . S
O59 Zn49 2.039 1_665 S
O59 C63 1.251 . S
O60 Zn41 2.025 . S
O60 C63 1.254 . S
O61 C42 1.246 . S
O61 Zn49 2.034 1_665 S
O62 Zn41 2.024 . S
O62 C42 1.249 . S
C63 O59 1.251 . S
C63 O60 1.254 . S
H64 C37 0.949 . S
H65 C39 0.950 . S
H66 C46 0.949 . S
H67 C48 0.950 . S
C68 O84 1.251 . S
C68 O86 1.254 . S
N69 C70 1.333 . S
N69 C74 1.307 1_545 S
N69 Zn75 2.020 . S
C70 N69 1.333 . S
C70 C71 1.379 . S
C70 H88 0.952 1_455 S
C71 C70 1.379 . S
C71 C72 1.390 . S
C71 H98 0.949 1_455 S
C72 C71 1.390 . S
C72 C73 1.357 1_545 S
C73 C72 1.357 1_565 S
C73 C74 1.370 . S
C73 H99 0.950 . S
C74 N69 1.307 1_565 S
C74 C73 1.370 . S
C74 H92 0.948 . S
Zn75 N69 2.020 . S
Zn75 O84 2.039 1_455 S
Zn75 O90 2.034 . S
Zn75 O94 2.025 1_545 S
Zn75 O96 2.024 1_445 S
C76 O95 1.246 . S
C76 O96 1.249 . S
N77 C78 1.307 1_455 S
N77 C79 1.333 1_545 S
N77 Zn83 2.020 . S
C78 N77 1.307 1_655 S
C78 C82 1.370 . S
C78 H89 0.948 . S
C79 N77 1.333 1_565 S
C79 C80 1.379 . S
C79 H87 0.952 . S
C80 C79 1.379 . S
C80 C81 1.390 1_565 S
C80 H100 0.949 . S
C81 C80 1.390 1_545 S
C81 C82 1.357 1_455 S
C82 C78 1.370 . S
C82 C81 1.357 1_655 S
C82 H101 0.950 . S
Zn83 N77 2.020 . S
Zn83 O86 2.025 1_455 S
Zn83 O91 2.024 . S
Zn83 O93 2.039 1_545 S
Zn83 O95 2.034 1_445 S
O84 C68 1.251 . S
O84 Zn75 2.039 1_655 S
C85 O90 1.246 . S
C85 O91 1.249 . S
O86 C68 1.254 . S
O86 Zn83 2.025 1_655 S
H87 C79 0.952 . S
H88 C70 0.952 1_655 S
H89 C78 0.948 . S
O90 Zn75 2.034 . S
O90 C85 1.246 . S
O91 Zn83 2.024 . S
O91 C85 1.249 . S
H92 C74 0.948 . S
O93 Zn83 2.039 1_565 S
O93 C97 1.251 . S
O94 Zn75 2.025 1_565 S
O94 C97 1.254 . S
O95 C76 1.246 . S
O95 Zn83 2.034 1_665 S
O96 Zn75 2.024 1_665 S
O96 C76 1.249 . S
C97 O93 1.251 . S
C97 O94 1.254 . S
H98 C71 0.949 1_655 S
H99 C73 0.950 . S
H100 C80 0.949 . S
H101 C82 0.950 . S
H102 C110 0.929 1_556 S
H103 C112 0.930 1_556 S
H104 C114 0.930 . S
H105 C117 0.929 . S
H106 C120 0.930 . S
H107 C122 0.960 . S
H108 C122 0.960 . S
H109 C122 0.960 . S
C110 H102 0.929 1_554 S
C110 C111 1.377 . S
C110 C112 1.384 . S
C111 C110 1.377 . S
C111 C117 1.390 1_655 S
C112 H103 0.930 1_554 S
C112 C110 1.384 . S
C112 C113 1.372 1_655 S
C113 C112 1.372 1_455 S
C113 C114 1.400 . S
C113 C118 1.490 . S
C114 H104 0.930 . S
C114 C113 1.400 . S
C114 C117 1.386 . S
H115 C131 0.930 . S
H116 C132 0.931 . S
C117 H105 0.929 . S
C117 C111 1.390 1_455 S
C117 C114 1.386 . S
C118 C113 1.490 . S
C118 C120 1.395 1_455 S
C118 C121 1.403 . S
H119 C125 0.930 . S
C120 H106 0.930 . S
C120 C118 1.395 1_655 S
C120 C123 1.403 . S
C121 C118 1.403 . S
C121 C122 1.524 . S
C121 C125 1.400 . S
C122 H107 0.960 . S
C122 H108 0.960 . S
C122 H109 0.960 . S
C122 C121 1.524 . S
C123 C120 1.403 . S
C123 C124 1.392 1_655 S
C123 C127 1.495 . S
C124 C123 1.392 1_455 S
C124 C125 1.385 . S
C124 C126 1.478 . S
C125 H119 0.930 . S
C125 C121 1.400 . S
C125 C124 1.385 . S
C126 C124 1.478 . S
C126 C128 1.381 . S
C126 C132 1.383 . S
C127 C123 1.495 . S
C127 H133 0.959 . S
C127 H134 0.961 . S
C127 H135 0.960 1_554 S
C128 C126 1.381 . S
C128 C129 1.394 . S
C128 H136 0.930 1_554 S
C129 C128 1.394 . S
C129 C130 1.383 . S
C129 H137 0.929 1_554 S
C130 C129 1.383 . S
C130 C131 1.377 . S
C131 H115 0.930 . S
C131 C130 1.377 . S
C131 C132 1.379 . S
C132 H116 0.931 . S
C132 C126 1.383 . S
C132 C131 1.379 . S
H133 C127 0.959 . S
H134 C127 0.961 . S
H135 C127 0.960 1_556 S
H136 C128 0.930 1_556 S
H137 C129 0.929 1_556 S
H138 C146 0.929 . S
H139 C148 0.930 . S
H140 C150 0.930 . S
H141 C153 0.929 . S
H142 C156 0.930 . S
H143 C158 0.960 . S
H144 C158 0.960 . S
H145 C158 0.960 . S
C146 H138 0.929 . S
C146 C147 1.377 1_565 S
C146 C148 1.384 . S
C147 C146 1.377 1_545 S
C147 C153 1.390 . S
C148 H139 0.930 . S
C148 C146 1.384 . S
C148 C149 1.372 1_565 S
C149 C148 1.372 1_545 S
C149 C150 1.400 . S
C149 C154 1.490 . S
C150 H140 0.930 . S
C150 C149 1.400 . S
C150 C153 1.386 . S
H151 C167 0.930 . S
H152 C168 0.931 . S
C153 H141 0.929 . S
C153 C147 1.390 . S
C153 C150 1.386 . S
C154 C149 1.490 . S
C154 C156 1.395 1_545 S
C154 C157 1.403 . S
H155 C161 0.930 . S
C156 H142 0.930 . S
C156 C154 1.395 1_565 S
C156 C159 1.403 . S
C157 C154 1.403 . S
C157 C158 1.524 . S
C157 C161 1.400 . S
C158 H143 0.960 . S
C158 H144 0.960 . S
C158 H145 0.960 . S
C158 C157 1.524 . S
C159 C156 1.403 . S
C159 C160 1.392 . S
C159 C163 1.495 . S
C160 C159 1.392 . S
C160 C161 1.385 1_565 S
C160 C162 1.478 . S
C161 H155 0.930 . S
C161 C157 1.400 . S
C161 C160 1.385 1_545 S
C162 C160 1.478 . S
C162 C164 1.381 . S
C162 C168 1.383 1_565 S
C163 C159 1.495 . S
C163 H169 0.959 . S
C163 H170 0.961 . S
C163 H171 0.960 . S
C164 C162 1.381 . S
C164 C165 1.394 . S
C164 H172 0.930 . S
C165 C164 1.394 . S
C165 C166 1.383 . S
C165 H173 0.929 . S
C166 C165 1.383 . S
C166 C167 1.377 1_565 S
C167 H151 0.930 . S
C167 C166 1.377 1_545 S
C167 C168 1.379 . S
C168 H152 0.931 . S
C168 C162 1.383 1_545 S
C168 C167 1.379 . S
H169 C163 0.959 . S
H170 C163 0.961 . S
H171 C163 0.960 . S
H172 C164 0.930 . S
H173 C165 0.929 . S
H174 C182 0.929 . S
H175 C184 0.930 . S
H176 C186 0.930 . S
H177 C189 0.929 . S
H178 C192 0.930 . S
H179 C194 0.960 . S
H180 C194 0.960 . S
H181 C194 0.960 . S
C182 H174 0.929 . S
C182 C183 1.377 . S
C182 C184 1.384 . S
C183 C182 1.377 . S
C183 C189 1.390 . S
C184 H175 0.930 . S
C184 C182 1.384 . S
C184 C185 1.372 . S
C185 C184 1.372 . S
C185 C186 1.400 . S
C185 C190 1.490 . S
C186 H176 0.930 . S
C186 C185 1.400 . S
C186 C189 1.386 . S
H187 C203 0.930 . S
H188 C204 0.931 . S
C189 H177 0.929 . S
C189 C183 1.390 . S
C189 C186 1.386 . S
C190 C185 1.490 . S
C190 C192 1.395 . S
C190 C193 1.403 . S
H191 C197 0.930 . S
C192 H178 0.930 . S
C192 C190 1.395 . S
C192 C195 1.403 . S
C193 C190 1.403 . S
C193 C194 1.524 . S
C193 C197 1.400 . S
C194 H179 0.960 . S
C194 H180 0.960 . S
C194 H181 0.960 . S
C194 C193 1.524 . S
C195 C192 1.403 . S
C195 C196 1.392 . S
C195 C199 1.495 . S
C196 C195 1.392 . S
C196 C197 1.385 . S
C196 C198 1.478 . S
C197 H191 0.930 . S
C197 C193 1.400 . S
C197 C196 1.385 . S
C198 C196 1.478 . S
C198 C200 1.381 . S
C198 C204 1.383 . S
C199 C195 1.495 . S
C199 H205 0.959 . S
C199 H206 0.961 . S
C199 H207 0.960 . S
C200 C198 1.381 . S
C200 C201 1.394 . S
C200 H208 0.930 . S
C201 C200 1.394 . S
C201 C202 1.383 . S
C201 H209 0.929 . S
C202 C201 1.383 . S
C202 C203 1.377 . S
C203 H187 0.930 . S
C203 C202 1.377 . S
C203 C204 1.379 . S
C204 H188 0.931 . S
C204 C198 1.383 . S
C204 C203 1.379 . S
H205 C199 0.959 . S
H206 C199 0.961 . S
H207 C199 0.960 . S
H208 C200 0.930 . S
H209 C201 0.929 . S
H210 C218 0.929 . S
H211 C220 0.930 . S
H212 C222 0.930 . S
H213 C225 0.929 1_565 S
H214 C228 0.930 . S
H215 C230 0.960 . S
H216 C230 0.960 . S
H217 C230 0.960 . S
C218 H210 0.929 . S
C218 C219 1.377 . S
C218 C220 1.384 . S
C219 C218 1.377 . S
C219 C225 1.390 . S
C220 H211 0.930 . S
C220 C218 1.384 . S
C220 C221 1.372 . S
C221 C220 1.372 . S
C221 C222 1.400 1_545 S
C221 C226 1.490 . S
C222 H212 0.930 . S
C222 C221 1.400 1_565 S
C222 C225 1.386 1_565 S
H223 C239 0.930 . S
H224 C240 0.931 . S
C225 H213 0.929 1_545 S
C225 C219 1.390 . S
C225 C222 1.386 1_545 S
C226 C221 1.490 . S
C226 C228 1.395 . S
C226 C229 1.403 1_545 S
H227 C233 0.930 . S
C228 H214 0.930 . S
C228 C226 1.395 . S
C228 C231 1.403 . S
C229 C226 1.403 1_565 S
C229 C230 1.524 . S
C229 C233 1.400 . S
C230 H215 0.960 . S
C230 H216 0.960 . S
C230 H217 0.960 . S
C230 C229 1.524 . S
C231 C228 1.403 . S
C231 C232 1.392 . S
C231 C235 1.495 . S
C232 C231 1.392 . S
C232 C233 1.385 1_545 S
C232 C234 1.478 . S
C233 H227 0.930 . S
C233 C229 1.400 . S
C233 C232 1.385 1_565 S
C234 C232 1.478 . S
C234 C236 1.381 . S
C234 C240 1.383 1_545 S
C235 C231 1.495 . S
C235 H241 0.959 . S
C235 H242 0.961 . S
C235 H243 0.960 . S
C236 C234 1.381 . S
C236 C237 1.394 . S
C236 H244 0.930 . S
C237 C236 1.394 . S
C237 C238 1.383 1_545 S
C237 H245 0.929 . S
C238 C237 1.383 1_565 S
C238 C239 1.377 . S
C239 H223 0.930 . S
C239 C238 1.377 . S
C239 C240 1.379 . S
C240 H224 0.931 . S
C240 C234 1.383 1_565 S
C240 C239 1.379 . S
H241 C235 0.959 . S
H242 C235 0.961 . S
H243 C235 0.960 . S
H244 C236 0.930 . S
H245 C237 0.929 . S
H246 C254 0.929 1_556 S
H247 C256 0.930 1_556 S
H248 C258 0.930 . S
H249 C261 0.929 . S
H250 C264 0.967 . S
H251 C266 0.960 . S
H252 C266 0.960 . S
H253 C266 0.960 . S
C254 H246 0.929 1_554 S
C254 C255 1.377 . S
C254 C256 1.384 . S
C255 C254 1.377 . S
C255 C261 1.390 . S
C256 H247 0.930 1_554 S
C256 C254 1.384 . S
C256 C257 1.372 . S
C257 C256 1.372 . S
C257 C258 1.400 . S
C257 C262 1.490 . S
C258 H248 0.930 . S
C258 C257 1.400 . S
C258 C261 1.386 . S
H259 C275 0.930 . S
H260 C276 0.931 . S
C261 H249 0.929 . S
C261 C255 1.390 . S
C261 C258 1.386 . S
C262 C257 1.490 . S
C262 C264 1.395 . S
C262 C265 1.403 . S
H263 C269 0.930 . S
C264 H250 0.967 . S
C264 C262 1.395 . S
C264 C267 1.403 . S
C265 C262 1.403 . S
C265 C266 1.524 . S
C265 C269 1.400 . S
C266 H251 0.960 . S
C266 H252 0.960 . S
C266 H253 0.960 . S
C266 C265 1.524 . S
C267 C264 1.403 . S
C267 C268 1.392 . S
C267 C271 1.495 1_554 S
C268 C267 1.392 . S
C268 C269 1.385 . S
C268 C270 1.478 . S
C269 H263 0.930 . S
C269 C265 1.400 . S
C269 C268 1.385 . S
C270 C268 1.478 . S
C270 C272 1.381 . S
C270 C276 1.383 . S
C271 C267 1.495 1_556 S
C271 H277 0.959 . S
C271 H278 0.961 1_556 S
C271 H279 0.960 . S
C272 C270 1.381 . S
C272 C273 1.394 . S
C272 H280 0.930 1_554 S
C273 C272 1.394 . S
C273 C274 1.383 . S
C273 H281 0.929 1_554 S
C274 C273 1.383 . S
C274 C275 1.377 . S
C275 H259 0.930 . S
C275 C274 1.377 . S
C275 C276 1.379 . S
C276 H260 0.931 . S
C276 C270 1.383 . S
C276 C275 1.379 . S
H277 C271 0.959 . S
H278 C271 0.961 1_554 S
H279 C271 0.960 . S
H280 C272 0.930 1_556 S
H281 C273 0.929 1_556 S
H282 C290 0.929 . S
H283 C292 0.930 . S
H284 C294 0.930 . S
H285 C297 0.929 . S
H286 C300 0.930 . S
H287 C302 0.960 . S
H288 C302 0.960 . S
H289 C302 0.960 . S
C290 H282 0.929 . S
C290 C291 1.377 1_655 S
C290 C292 1.384 . S
C291 C290 1.377 1_455 S
C291 C297 1.390 . S
C292 H283 0.930 . S
C292 C290 1.384 . S
C292 C293 1.372 1_655 S
C293 C292 1.372 1_455 S
C293 C294 1.400 . S
C293 C298 1.490 . S
C294 H284 0.930 . S
C294 C293 1.400 . S
C294 C297 1.386 . S
H295 C311 0.930 . S
H296 C312 0.931 . S
C297 H285 0.929 . S
C297 C291 1.390 . S
C297 C294 1.386 . S
C298 C293 1.490 . S
C298 C300 1.395 . S
C298 C301 1.403 1_455 S
H299 C305 0.930 . S
C300 H286 0.930 . S
C300 C298 1.395 . S
C300 C303 1.403 . S
C301 C298 1.403 1_655 S
C301 C302 1.524 . S
C301 C305 1.400 . S
C302 H287 0.960 . S
C302 H288 0.960 . S
C302 H289 0.960 . S
C302 C301 1.524 . S
C303 C300 1.403 . S
C303 C304 1.392 1_455 S
C303 C307 1.495 . S
C304 C303 1.392 1_655 S
C304 C305 1.385 . S
C304 C306 1.478 . S
C305 H299 0.930 . S
C305 C301 1.400 . S
C305 C304 1.385 . S
C306 C304 1.478 . S
C306 C308 1.381 . S
C306 C312 1.383 1_655 S
C307 C303 1.495 . S
C307 H313 0.959 . S
C307 H314 0.961 . S
C307 H315 0.960 1_455 S
C308 C306 1.381 . S
C308 C309 1.394 . S
C308 H316 0.930 . S
C309 C308 1.394 . S
C309 C310 1.383 . S
C309 H317 0.929 . S
C310 C309 1.383 . S
C310 C311 1.377 1_655 S
C311 H295 0.930 . S
C311 C310 1.377 1_455 S
C311 C312 1.379 . S
C312 H296 0.931 . S
C312 C306 1.383 1_455 S
C312 C311 1.379 . S
H313 C307 0.959 . S
H314 C307 0.961 . S
H315 C307 0.960 1_655 S
H316 C308 0.930 . S
H317 C309 0.929 . S
H318 C326 0.929 . S
H319 C328 0.930 . S
H320 C330 0.930 . S
H321 C333 0.929 . S
H322 C336 0.930 . S
H323 C338 0.960 . S
H324 C338 0.960 . S
H325 C338 0.960 . S
C326 H318 0.929 . S
C326 C327 1.377 1_665 S
C326 C328 1.384 . S
C327 C326 1.377 1_445 S
C327 C333 1.390 . S
C328 H319 0.930 . S
C328 C326 1.384 . S
C328 C329 1.372 1_665 S
C329 C328 1.372 1_445 S
C329 C330 1.400 . S
C329 C334 1.490 . S
C330 H320 0.930 . S
C330 C329 1.400 . S
C330 C333 1.386 . S
H331 C347 0.930 . S
H332 C348 0.931 . S
C333 H321 0.929 . S
C333 C327 1.390 . S
C333 C330 1.386 . S
C334 C329 1.490 . S
C334 C336 1.395 1_445 S
C334 C337 1.403 . S
H335 C341 0.930 . S
C336 H322 0.930 . S
C336 C334 1.395 1_665 S
C336 C339 1.403 . S
C337 C334 1.403 . S
C337 C338 1.524 . S
C337 C341 1.400 . S
C338 H323 0.960 . S
C338 H324 0.960 . S
C338 H325 0.960 . S
C338 C337 1.524 . S
C339 C336 1.403 . S
C339 C340 1.392 1_665 S
C339 C343 1.495 . S
C340 C339 1.392 1_445 S
C340 C341 1.385 . S
C340 C342 1.478 . S
C341 H335 0.930 . S
C341 C337 1.400 . S
C341 C340 1.385 . S
C342 C340 1.478 . S
C342 C344 1.381 1_445 S
C342 C348 1.383 . S
C343 C339 1.495 . S
C343 H349 0.959 . S
C343 H350 0.961 . S
C343 H351 0.960 . S
C344 C342 1.381 1_665 S
C344 C345 1.394 . S
C344 H352 0.930 . S
C345 C344 1.394 . S
C345 C346 1.383 1_665 S
C345 H353 0.929 . S
C346 C345 1.383 1_445 S
C346 C347 1.377 . S
C347 H331 0.930 . S
C347 C346 1.377 . S
C347 C348 1.379 . S
C348 H332 0.931 . S
C348 C342 1.383 . S
C348 C347 1.379 . S
H349 C343 0.959 . S
H350 C343 0.961 . S
H351 C343 0.960 . S
H352 C344 0.930 . S
H353 C345 0.929 . S
H354 C362 0.929 . S
H355 C364 0.930 . S
H356 C366 0.930 . S
H357 C369 0.929 . S
H358 C372 0.930 . S
H359 C374 0.960 . S
H360 C374 0.960 . S
H361 C374 0.960 . S
C362 H354 0.929 . S
C362 C363 1.377 1_545 S
C362 C364 1.384 . S
C363 C362 1.377 1_565 S
C363 C369 1.390 1_655 S
C364 H355 0.930 . S
C364 C362 1.384 . S
C364 C365 1.352 1_645 S
C365 C364 1.352 1_465 S
C365 C366 1.421 . S
C365 C370 1.489 . S
C366 H356 0.930 . S
C366 C365 1.421 . S
C366 C369 1.386 . S
H367 C383 0.930 . S
H368 C384 0.931 . S
C369 H357 0.929 . S
C369 C363 1.390 1_455 S
C369 C366 1.386 . S
C370 C365 1.489 . S
C370 C372 1.390 1_455 S
C370 C373 1.407 1_565 S
H371 C377 0.930 . S
C372 H358 0.930 . S
C372 C370 1.390 1_655 S
C372 C375 1.403 . S
C373 C370 1.407 1_545 S
C373 C374 1.524 . S
C373 C377 1.400 . S
C374 H359 0.960 . S
C374 H360 0.960 . S
C374 H361 0.960 . S
C374 C373 1.524 . S
C375 C372 1.403 . S
C375 C376 1.392 . S
C375 C379 1.495 . S
C376 C375 1.392 . S
C376 C377 1.385 1_665 S
C376 C378 1.478 . S
C377 H371 0.930 . S
C377 C373 1.400 . S
C377 C376 1.385 1_445 S
C378 C376 1.478 . S
C378 C380 1.381 1_565 S
C378 C384 1.383 1_655 S
C379 C375 1.495 . S
C379 H385 0.959 . S
C379 H386 0.961 . S
C379 H387 0.960 . S
C380 C378 1.381 1_545 S
C380 C381 1.394 . S
C380 H388 0.930 . S
C381 C380 1.394 . S
C381 C382 1.383 1_655 S
C381 H389 0.929 . S
C382 C381 1.383 1_455 S
C382 C383 1.377 1_545 S
C383 H367 0.930 . S
C383 C382 1.377 1_565 S
C383 C384 1.379 . S
C384 H368 0.931 . S
C384 C378 1.383 1_455 S
C384 C383 1.379 . S
H385 C379 0.959 . S
H386 C379 0.961 . S
H387 C379 0.960 . S
H388 C380 0.930 . S
H389 C381 0.929 . S
H390 C398 0.929 . S
H391 C400 0.930 . S
H392 C402 0.930 . S
H393 C405 0.929 . S
H394 C408 0.930 . S
H395 C410 0.960 . S
H396 C410 0.960 . S
H397 C410 0.960 . S
C398 H390 0.929 . S
C398 C399 1.377 1_665 S
C398 C400 1.384 . S
C399 C398 1.377 1_445 S
C399 C405 1.390 . S
C400 H391 0.930 . S
C400 C398 1.384 . S
C400 C401 1.372 1_665 S
C401 C400 1.372 1_445 S
C401 C402 1.400 . S
C401 C406 1.490 . S
C402 H392 0.930 . S
C402 C401 1.400 . S
C402 C405 1.386 . S
H403 C419 0.930 . S
H404 C420 0.931 . S
C405 H393 0.929 . S
C405 C399 1.390 . S
C405 C402 1.386 . S
C406 C401 1.490 . S
C406 C408 1.395 1_545 S
C406 C409 1.403 . S
H407 C413 0.930 1_655 S
C408 H394 0.930 . S
C408 C406 1.395 1_565 S
C408 C411 1.403 . S
C409 C406 1.403 . S
C409 C410 1.524 1_455 S
C409 C413 1.400 . S
C410 H395 0.960 . S
C410 H396 0.960 . S
C410 H397 0.960 . S
C410 C409 1.524 1_655 S
C411 C408 1.403 . S
C411 C412 1.392 1_565 S
C411 C415 1.495 . S
C412 C411 1.392 1_545 S
C412 C413 1.385 . S
C412 C414 1.478 . S
C413 H407 0.930 1_455 S
C413 C409 1.400 . S
C413 C412 1.385 . S
C414 C412 1.478 . S
C414 C416 1.381 1_545 S
C414 C420 1.383 . S
C415 C411 1.495 . S
C415 H421 0.959 . S
C415 H422 0.961 . S
C415 H423 0.960 . S
C416 C414 1.381 1_565 S
C416 C417 1.395 . S
C416 H424 0.930 1_455 S
C417 C416 1.395 . S
C417 C418 1.384 1_565 S
C417 H425 0.928 1_455 S
C418 C417 1.384 1_545 S
C418 C419 1.377 . S
C419 H403 0.930 . S
C419 C418 1.377 . S
C419 C420 1.379 . S
C420 H404 0.931 . S
C420 C414 1.383 . S
C420 C419 1.379 . S
H421 C415 0.959 . S
H422 C415 0.961 . S
H423 C415 0.960 . S
H424 C416 0.930 1_655 S
H425 C417 0.928 1_655 S
C111 C17 1.035 . S
C130 C8 1.015 . S
C147 C34 1.019 . S
C166 C63 1.030 . S
C183 C76 1.043 . S
C202 C85 1.054 . S
C219 C68 1.021 . S
C238 C97 0.999 . S
C255 C0 1.020 . S
C274 C29 1.033 . S
C291 C51 1.029 . S
C310 C42 1.029 . S
C327 C38 1.504 1_455 S
C346 C4 1.503 . S
C363 C47 1.500 1_655 S
C382 C81 1.495 . S
C399 C72 1.502 . S
C418 C13 1.497 . S
