# Generated by pormake.
# Topology wir, (6)-cn, num edge types: 1
# Building blocks:
#     Node 0, Type 0, BuildingBlock: BETDAH_clean_sbu_0, # of connection points: 6
#     Node 1, Type 0, BuildingBlock: BETDAH_clean_sbu_0, # of connection points: 6
#     Node 2, Type 0, BuildingBlock: BETDAH_clean_sbu_0, # of connection points: 6
#     Node 3, Type 0, BuildingBlock: BETDAH_clean_sbu_0, # of connection points: 6
#     Node 4, Type 0, BuildingBlock: BETDAH_clean_sbu_0, # of connection points: 6
#     Node 5, Type 0, BuildingBlock: BETDAH_clean_sbu_0, # of connection points: 6
#     Node 6, Type 0, BuildingBlock: BETDAH_clean_sbu_0, # of connection points: 6
#     Node 7, Type 0, BuildingBlock: BETDAH_clean_sbu_0, # of connection points: 6
#     Node 8, Type 0, BuildingBlock: BETDAH_clean_sbu_0, # of connection points: 6
#     Node 9, Type 0, BuildingBlock: BETDAH_clean_sbu_0, # of connection points: 6
#     Node 10, Type 0, BuildingBlock: BETDAH_clean_sbu_0, # of connection points: 6
#     Node 11, Type 0, BuildingBlock: BETDAH_clean_sbu_0, # of connection points: 6
#     Node 12, Type 0, BuildingBlock: BETDAH_clean_sbu_0, # of connection points: 6
#     Node 13, Type 0, BuildingBlock: BETDAH_clean_sbu_0, # of connection points: 6
#     Node 14, Type 0, BuildingBlock: BETDAH_clean_sbu_0, # of connection points: 6
#     Node 15, Type 0, BuildingBlock: BETDAH_clean_sbu_0, # of connection points: 6
#     Node 16, Type 0, BuildingBlock: BETDAH_clean_sbu_0, # of connection points: 6
#     Node 17, Type 0, BuildingBlock: BETDAH_clean_sbu_0, # of connection points: 6
#     Node 18, Type 0, BuildingBlock: BETDAH_clean_sbu_0, # of connection points: 6
#     Node 19, Type 0, BuildingBlock: BETDAH_clean_sbu_0, # of connection points: 6
#     Node 20, Type 0, BuildingBlock: BETDAH_clean_sbu_0, # of connection points: 6
#     Node 21, Type 0, BuildingBlock: BETDAH_clean_sbu_0, # of connection points: 6
#     Node 22, Type 0, BuildingBlock: BETDAH_clean_sbu_0, # of connection points: 6
#     Node 23, Type 0, BuildingBlock: BETDAH_clean_sbu_0, # of connection points: 6
#     Node 24, Type 0, BuildingBlock: BETDAH_clean_sbu_0, # of connection points: 6
#     Node 25, Type 0, BuildingBlock: BETDAH_clean_sbu_0, # of connection points: 6
#     Node 26, Type 0, BuildingBlock: BETDAH_clean_sbu_0, # of connection points: 6
#     Node 27, Type 0, BuildingBlock: BETDAH_clean_sbu_0, # of connection points: 6
#     Node 28, Type 0, BuildingBlock: BETDAH_clean_sbu_0, # of connection points: 6
#     Node 29, Type 0, BuildingBlock: BETDAH_clean_sbu_0, # of connection points: 6
#     Node 30, Type 0, BuildingBlock: BETDAH_clean_sbu_0, # of connection points: 6
#     Node 31, Type 0, BuildingBlock: BETDAH_clean_sbu_0, # of connection points: 6
#     Edge 32, Type (0, 0), BuildingBlock: XIVTED_clean_linker_0, # of connection points: 2
#     Edge 33, Type (0, 0), BuildingBlock: XIVTED_clean_linker_0, # of connection points: 2
#     Edge 34, Type (0, 0), BuildingBlock: XIVTED_clean_linker_0, # of connection points: 2
#     Edge 35, Type (0, 0), BuildingBlock: XIVTED_clean_linker_0, # of connection points: 2
#     Edge 36, Type (0, 0), BuildingBlock: XIVTED_clean_linker_0, # of connection points: 2
#     Edge 37, Type (0, 0), BuildingBlock: XIVTED_clean_linker_0, # of connection points: 2
#     Edge 38, Type (0, 0), BuildingBlock: XIVTED_clean_linker_0, # of connection points: 2
#     Edge 39, Type (0, 0), BuildingBlock: XIVTED_clean_linker_0, # of connection points: 2
#     Edge 40, Type (0, 0), BuildingBlock: XIVTED_clean_linker_0, # of connection points: 2
#     Edge 41, Type (0, 0), BuildingBlock: XIVTED_clean_linker_0, # of connection points: 2
#     Edge 42, Type (0, 0), BuildingBlock: XIVTED_clean_linker_0, # of connection points: 2
#     Edge 43, Type (0, 0), BuildingBlock: XIVTED_clean_linker_0, # of connection points: 2
#     Edge 44, Type (0, 0), BuildingBlock: XIVTED_clean_linker_0, # of connection points: 2
#     Edge 45, Type (0, 0), BuildingBlock: XIVTED_clean_linker_0, # of connection points: 2
#     Edge 46, Type (0, 0), BuildingBlock: XIVTED_clean_linker_0, # of connection points: 2
#     Edge 47, Type (0, 0), BuildingBlock: XIVTED_clean_linker_0, # of connection points: 2
#     Edge 48, Type (0, 0), BuildingBlock: XIVTED_clean_linker_0, # of connection points: 2
#     Edge 49, Type (0, 0), BuildingBlock: XIVTED_clean_linker_0, # of connection points: 2
#     Edge 50, Type (0, 0), BuildingBlock: XIVTED_clean_linker_0, # of connection points: 2
#     Edge 51, Type (0, 0), BuildingBlock: XIVTED_clean_linker_0, # of connection points: 2
#     Edge 52, Type (0, 0), BuildingBlock: XIVTED_clean_linker_0, # of connection points: 2
#     Edge 53, Type (0, 0), BuildingBlock: XIVTED_clean_linker_0, # of connection points: 2
#     Edge 54, Type (0, 0), BuildingBlock: XIVTED_clean_linker_0, # of connection points: 2
#     Edge 55, Type (0, 0), BuildingBlock: XIVTED_clean_linker_0, # of connection points: 2
#     Edge 56, Type (0, 0), BuildingBlock: XIVTED_clean_linker_0, # of connection points: 2
#     Edge 57, Type (0, 0), BuildingBlock: XIVTED_clean_linker_0, # of connection points: 2
#     Edge 58, Type (0, 0), BuildingBlock: XIVTED_clean_linker_0, # of connection points: 2
#     Edge 59, Type (0, 0), BuildingBlock: XIVTED_clean_linker_0, # of connection points: 2
#     Edge 60, Type (0, 0), BuildingBlock: XIVTED_clean_linker_0, # of connection points: 2
#     Edge 61, Type (0, 0), BuildingBlock: XIVTED_clean_linker_0, # of connection points: 2
#     Edge 62, Type (0, 0), BuildingBlock: XIVTED_clean_linker_0, # of connection points: 2
#     Edge 63, Type (0, 0), BuildingBlock: XIVTED_clean_linker_0, # of connection points: 2
#     Edge 64, Type (0, 0), BuildingBlock: XIVTED_clean_linker_0, # of connection points: 2
#     Edge 65, Type (0, 0), BuildingBlock: XIVTED_clean_linker_0, # of connection points: 2
#     Edge 66, Type (0, 0), BuildingBlock: XIVTED_clean_linker_0, # of connection points: 2
#     Edge 67, Type (0, 0), BuildingBlock: XIVTED_clean_linker_0, # of connection points: 2
#     Edge 68, Type (0, 0), BuildingBlock: XIVTED_clean_linker_0, # of connection points: 2
#     Edge 69, Type (0, 0), BuildingBlock: XIVTED_clean_linker_0, # of connection points: 2
#     Edge 70, Type (0, 0), BuildingBlock: XIVTED_clean_linker_0, # of connection points: 2
#     Edge 71, Type (0, 0), BuildingBlock: XIVTED_clean_linker_0, # of connection points: 2
#     Edge 72, Type (0, 0), BuildingBlock: XIVTED_clean_linker_0, # of connection points: 2
#     Edge 73, Type (0, 0), BuildingBlock: XIVTED_clean_linker_0, # of connection points: 2
#     Edge 74, Type (0, 0), BuildingBlock: XIVTED_clean_linker_0, # of connection points: 2
#     Edge 75, Type (0, 0), BuildingBlock: XIVTED_clean_linker_0, # of connection points: 2
#     Edge 76, Type (0, 0), BuildingBlock: XIVTED_clean_linker_0, # of connection points: 2
#     Edge 77, Type (0, 0), BuildingBlock: XIVTED_clean_linker_0, # of connection points: 2
#     Edge 78, Type (0, 0), BuildingBlock: XIVTED_clean_linker_0, # of connection points: 2
#     Edge 79, Type (0, 0), BuildingBlock: XIVTED_clean_linker_0, # of connection points: 2
#     Edge 80, Type (0, 0), BuildingBlock: XIVTED_clean_linker_0, # of connection points: 2
#     Edge 81, Type (0, 0), BuildingBlock: XIVTED_clean_linker_0, # of connection points: 2
#     Edge 82, Type (0, 0), BuildingBlock: XIVTED_clean_linker_0, # of connection points: 2
#     Edge 83, Type (0, 0), BuildingBlock: XIVTED_clean_linker_0, # of connection points: 2
#     Edge 84, Type (0, 0), BuildingBlock: XIVTED_clean_linker_0, # of connection points: 2
#     Edge 85, Type (0, 0), BuildingBlock: XIVTED_clean_linker_0, # of connection points: 2
#     Edge 86, Type (0, 0), BuildingBlock: XIVTED_clean_linker_0, # of connection points: 2
#     Edge 87, Type (0, 0), BuildingBlock: XIVTED_clean_linker_0, # of connection points: 2
#     Edge 88, Type (0, 0), BuildingBlock: XIVTED_clean_linker_0, # of connection points: 2
#     Edge 89, Type (0, 0), BuildingBlock: XIVTED_clean_linker_0, # of connection points: 2
#     Edge 90, Type (0, 0), BuildingBlock: XIVTED_clean_linker_0, # of connection points: 2
#     Edge 91, Type (0, 0), BuildingBlock: XIVTED_clean_linker_0, # of connection points: 2
#     Edge 92, Type (0, 0), BuildingBlock: XIVTED_clean_linker_0, # of connection points: 2
#     Edge 93, Type (0, 0), BuildingBlock: XIVTED_clean_linker_0, # of connection points: 2
#     Edge 94, Type (0, 0), BuildingBlock: XIVTED_clean_linker_0, # of connection points: 2
#     Edge 95, Type (0, 0), BuildingBlock: XIVTED_clean_linker_0, # of connection points: 2
#     Edge 96, Type (0, 0), BuildingBlock: XIVTED_clean_linker_0, # of connection points: 2
#     Edge 97, Type (0, 0), BuildingBlock: XIVTED_clean_linker_0, # of connection points: 2
#     Edge 98, Type (0, 0), BuildingBlock: XIVTED_clean_linker_0, # of connection points: 2
#     Edge 99, Type (0, 0), BuildingBlock: XIVTED_clean_linker_0, # of connection points: 2
#     Edge 100, Type (0, 0), BuildingBlock: XIVTED_clean_linker_0, # of connection points: 2
#     Edge 101, Type (0, 0), BuildingBlock: XIVTED_clean_linker_0, # of connection points: 2
#     Edge 102, Type (0, 0), BuildingBlock: XIVTED_clean_linker_0, # of connection points: 2
#     Edge 103, Type (0, 0), BuildingBlock: XIVTED_clean_linker_0, # of connection points: 2
#     Edge 104, Type (0, 0), BuildingBlock: XIVTED_clean_linker_0, # of connection points: 2
#     Edge 105, Type (0, 0), BuildingBlock: XIVTED_clean_linker_0, # of connection points: 2
#     Edge 106, Type (0, 0), BuildingBlock: XIVTED_clean_linker_0, # of connection points: 2
#     Edge 107, Type (0, 0), BuildingBlock: XIVTED_clean_linker_0, # of connection points: 2
#     Edge 108, Type (0, 0), BuildingBlock: XIVTED_clean_linker_0, # of connection points: 2
#     Edge 109, Type (0, 0), BuildingBlock: XIVTED_clean_linker_0, # of connection points: 2
#     Edge 110, Type (0, 0), BuildingBlock: XIVTED_clean_linker_0, # of connection points: 2
#     Edge 111, Type (0, 0), BuildingBlock: XIVTED_clean_linker_0, # of connection points: 2
#     Edge 112, Type (0, 0), BuildingBlock: XIVTED_clean_linker_0, # of connection points: 2
#     Edge 113, Type (0, 0), BuildingBlock: XIVTED_clean_linker_0, # of connection points: 2
#     Edge 114, Type (0, 0), BuildingBlock: XIVTED_clean_linker_0, # of connection points: 2
#     Edge 115, Type (0, 0), BuildingBlock: XIVTED_clean_linker_0, # of connection points: 2
#     Edge 116, Type (0, 0), BuildingBlock: XIVTED_clean_linker_0, # of connection points: 2
#     Edge 117, Type (0, 0), BuildingBlock: XIVTED_clean_linker_0, # of connection points: 2
#     Edge 118, Type (0, 0), BuildingBlock: XIVTED_clean_linker_0, # of connection points: 2
#     Edge 119, Type (0, 0), BuildingBlock: XIVTED_clean_linker_0, # of connection points: 2
#     Edge 120, Type (0, 0), BuildingBlock: XIVTED_clean_linker_0, # of connection points: 2
#     Edge 121, Type (0, 0), BuildingBlock: XIVTED_clean_linker_0, # of connection points: 2
#     Edge 122, Type (0, 0), BuildingBlock: XIVTED_clean_linker_0, # of connection points: 2
#     Edge 123, Type (0, 0), BuildingBlock: XIVTED_clean_linker_0, # of connection points: 2
#     Edge 124, Type (0, 0), BuildingBlock: XIVTED_clean_linker_0, # of connection points: 2
#     Edge 125, Type (0, 0), BuildingBlock: XIVTED_clean_linker_0, # of connection points: 2
#     Edge 126, Type (0, 0), BuildingBlock: XIVTED_clean_linker_0, # of connection points: 2
#     Edge 127, Type (0, 0), BuildingBlock: XIVTED_clean_linker_0, # of connection points: 2
# Relax obj value: 0.444
# Max RMSD: 0.206
# Mean RMSD: 0.206
data_MOF--net-wir--node1-BETDAH_clean_sbu_0--edge1-XIVTED_clean_linker_0
_symmetry_space_group_name_H-M    P1
_symmetry_Int_Tables_number       1
_symmetry_cell_setting            triclinic
loop_
_symmetry_equiv_pos_as_xyz
'x, y, z'
_cell_length_a     39.402394
_cell_length_b     39.485836
_cell_length_c     109.36128
_cell_angle_alpha  89.792648
_cell_angle_beta   89.833191
_cell_angle_gamma 89.84229
loop_
_atom_site_label
_atom_site_type_symbol
_atom_site_fract_x
_atom_site_fract_y
_atom_site_fract_z
_atom_type_partial_charge
Ho0 Ho 0.25025 0.22176 0.38895 0.0
Ho1 Ho 0.22417 0.1854 0.3807 0.0
C2 C 0.20221 0.1858 0.4071 0.0
C3 C 0.26768 0.28194 0.39601 0.0
C4 C 0.24835 0.31357 0.3966 0.0
C5 C 0.21822 0.31707 0.38988 0.0
C6 C 0.19466 0.34199 0.39302 0.0
C7 C 0.2011 0.36365 0.40287 0.0
C8 C 0.23299 0.36262 0.4086 0.0
C9 C 0.25644 0.3375 0.40553 0.0
C10 C 0.29026 0.17086 0.40176 0.0
C11 C 0.25849 0.23038 0.35962 0.0
C12 C 0.22708 0.13197 0.36733 0.0
C13 C 0.2334 0.09565 0.36933 0.0
C14 C 0.26148 0.08379 0.37603 0.0
C15 C 0.26807 0.04899 0.37687 0.0
C16 C 0.24652 1.02561 0.37113 0.0
C17 C 0.21738 0.03773 0.36508 0.0
C18 C 0.211 0.07234 0.36418 0.0
C19 C 0.16377 0.2218 0.38302 0.0
O20 O 0.21476 0.21598 0.40517 0.0
O21 O 0.2058 0.16418 0.39823 0.0
O22 O 0.25686 0.25843 0.40338 0.0
O23 O 0.27382 0.27024 0.38512 0.0
O24 O 0.29954 0.20075 0.39813 0.0
O25 O 0.26066 0.16714 0.39655 0.0
O26 O 0.22933 0.21613 0.36227 0.0
O27 O 0.27738 0.23026 0.36961 0.0
O28 O 0.19883 0.14367 0.37196 0.0
O29 O 0.25284 0.15259 0.36873 0.0
O30 O 0.16726 0.18909 0.383 0.0
O31 O 0.19446 0.2349 0.38195 0.0
H32 H 0.21171 0.29897 0.38287 0.0
H33 H 0.1703 0.3426 0.38847 0.0
H34 H 0.23839 0.37888 0.41631 0.0
H35 H 0.27956 0.33506 0.4108 0.0
H36 H 0.27885 0.10136 0.38029 0.0
H37 H 0.29065 0.04045 0.38161 0.0
H38 H 0.20055 1.02065 0.36033 0.0
H39 H 0.18908 0.08098 0.35906 0.0
Ho40 Ho 0.07025 0.99795 0.64553 0.0
Ho41 Ho 0.11074 0.97408 0.64053 0.0
C42 C 0.0874 0.95197 0.66614 0.0
C43 C 1.01528 1.02926 0.6517 0.0
C44 C 0.98084 1.01641 0.64978 0.0
C45 C 0.97555 0.99242 0.6405 0.0
C46 C 0.94897 0.96936 0.64143 0.0
C47 C 0.92743 0.97002 0.65165 0.0
C48 C 0.92973 0.99717 0.65992 0.0
C49 C 0.95652 1.02016 0.65903 0.0
C50 C 0.12419 1.0263 0.6646 0.0
C51 C 0.06904 1.00384 0.61636 0.0
C52 C 0.17211 0.9644 0.63258 0.0
C53 C 0.19011 0.94023 0.62468 0.0
C54 C 0.1793 0.93346 0.61273 0.0
C55 C 0.19786 0.9113 0.60535 0.0
C56 C 0.22738 0.89537 0.60982 0.0
C57 C 0.23721 0.90118 0.62197 0.0
C58 C 0.21881 0.92352 0.6293 0.0
C59 C 0.07298 0.91292 0.64043 0.0
O60 O 0.05975 0.96271 0.66104 0.0
O61 O 0.11544 0.95749 0.66014 0.0
O62 O 0.03297 1.01094 0.65931 0.0
O63 O 0.03243 0.03667 0.64183 0.0
O64 O 0.11866 1.02486 0.6526 0.0
O65 O 0.11766 1.02401 0.65257 0.0
O66 O 0.09388 0.98278 0.6196 0.0
O67 O 0.05503 1.01698 0.62611 0.0
O68 O 0.16043 0.95183 0.64271 0.0
O69 O 0.15083 0.98556 0.62751 0.0
O70 O 0.10468 0.91699 0.64302 0.0
O71 O 0.06134 0.94324 0.63779 0.0
H72 H 0.99411 0.98886 0.63329 0.0
H73 H 0.94762 0.94875 0.63494 0.0
H74 H 0.91355 0.99815 0.66794 0.0
H75 H 0.96034 0.03828 0.66631 0.0
H76 H 0.15701 0.94577 0.609 0.0
H77 H 0.18986 0.90784 0.59598 0.0
H78 H 0.25955 0.88903 0.62574 0.0
H79 H 0.2273 0.92813 0.63857 0.0
Ho80 Ho 0.32218 0.82847 0.89004 0.0
Ho81 Ho 0.34836 0.86671 0.88224 0.0
C82 C 0.36462 0.86153 0.90902 0.0
C83 C 0.29927 0.76767 0.8938 0.0
C84 C 0.31759 0.73536 0.89355 0.0
C85 C 0.3484 0.73298 0.88711 0.0
C86 C 0.37199 0.708 0.89019 0.0
C87 C 0.36501 0.68528 0.89975 0.0
C88 C 0.33235 0.68492 0.90499 0.0
C89 C 0.30881 0.71002 0.90194 0.0
C90 C 0.28598 0.87862 0.90462 0.0
C91 C 0.31329 0.82364 0.8608 0.0
C92 C 0.35767 0.91782 0.86779 0.0
C93 C 0.37312 0.92075 0.85553 0.0
C94 C 0.36183 0.90062 0.8458 0.0
C95 C 0.37751 0.90249 0.83438 0.0
C96 C 0.40427 0.92526 0.8323 0.0
C97 C 0.41563 0.94537 0.84208 0.0
C98 C 0.40029 0.94298 0.85359 0.0
C99 C 0.4086 0.82916 0.88554 0.0
O100 O 0.36024 0.83059 0.90524 0.0
O101 O 0.35637 0.88514 0.90123 0.0
O102 O 0.30898 0.78781 0.90246 0.0
O103 O 0.29629 0.78358 0.88343 0.0
O104 O 0.29195 0.84707 0.90696 0.0
O105 O 0.2989 0.88254 0.89346 0.0
O106 O 0.34281 0.83686 0.86364 0.0
O107 O 0.29426 0.82334 0.87081 0.0
O108 O 0.37838 0.91004 0.87664 0.0
O109 O 0.32912 0.90117 0.86851 0.0
O110 O 0.40468 0.86166 0.88651 0.0
O111 O 0.37823 0.81671 0.88336 0.0
H112 H 0.35561 0.75228 0.88054 0.0
H113 H 0.39687 0.70849 0.88595 0.0
H114 H 0.32636 0.66781 0.91245 0.0
H115 H 0.28521 0.71159 0.90703 0.0
H116 H 0.34069 0.88351 0.84692 0.0
H117 H 0.36827 0.88632 0.82715 0.0
H118 H 0.43567 0.96375 0.84077 0.0
H119 H 0.40943 0.95877 0.86096 0.0
Ho120 Ho 0.46646 0.07164 0.14417 0.0
Ho121 Ho 0.42719 0.0977 0.13627 0.0
C122 C 0.42755 0.10931 0.16348 0.0
C123 C 0.52794 0.05055 0.14775 0.0
C124 C 0.56037 0.06729 0.1452 0.0
C125 C 0.56226 0.10268 0.14561 0.0
C126 C 0.59362 0.11867 0.14581 0.0
C127 C 0.6239 0.09956 0.14549 0.0
C128 C 0.62152 0.06449 0.14314 0.0
C129 C 0.58993 0.04838 0.14323 0.0
C130 C 0.41715 0.03326 0.15835 0.0
C131 C 0.47162 0.06353 0.11472 0.0
C132 C 0.37293 0.10738 0.1234 0.0
C133 C 0.33677 0.09894 0.12412 0.0
C134 C 0.32529 0.06967 0.13016 0.0
C135 C 0.29117 0.06015 0.12934 0.0
C136 C 0.26814 0.07987 0.12252 0.0
C137 C 0.27956 0.1104 0.11725 0.0
C138 C 0.31354 0.11976 0.11804 0.0
C139 C 0.46555 0.15736 0.14004 0.0
O140 O 0.45941 0.10602 0.16037 0.0
O141 O 0.4058 0.10286 0.15489 0.0
O142 O 0.50945 0.06503 0.15611 0.0
O143 O 0.51012 0.04199 0.13827 0.0
O144 O 0.44872 0.03924 0.16063 0.0
O145 O 0.41278 0.04724 0.14733 0.0
O146 O 0.4558 0.09197 0.11736 0.0
O147 O 0.47379 0.04493 0.1248 0.0
O148 O 0.38395 0.1289 0.13144 0.0
O149 O 0.39389 0.08215 0.12168 0.0
O150 O 0.43315 0.1534 0.14147 0.0
O151 O 0.47738 0.12723 0.13721 0.0
H152 H 0.53958 0.11789 0.14679 0.0
H153 H 0.5936 0.14563 0.1475 0.0
H154 H 0.64406 0.04899 0.14221 0.0
H155 H 0.58878 1.02106 0.14246 0.0
H156 H 0.3429 0.05353 0.13508 0.0
H157 H 0.28314 0.03666 0.13358 0.0
H158 H 0.26285 0.126 0.11174 0.0
H159 H 0.32198 0.14255 0.1134 0.0
Ho160 Ho 0.23757 0.83719 0.24484 0.0
Ho161 Ho 0.21264 0.86927 0.25202 0.0
C162 C 0.18469 0.86888 0.22713 0.0
C163 C 0.25751 0.77773 0.23766 0.0
C164 C 0.23812 0.74633 0.23653 0.0
C165 C 0.20835 0.74177 0.24344 0.0
C166 C 0.1853 0.71654 0.24031 0.0
C167 C 0.19197 0.6954 0.23033 0.0
C168 C 0.22322 0.69801 0.22415 0.0
C169 C 0.2461 0.72352 0.22719 0.0
C170 C 0.27543 0.88882 0.23109 0.0
C171 C 0.24305 0.82649 0.27395 0.0
C172 C 0.2316 0.91378 0.26757 0.0
C173 C 0.23875 0.91077 0.28083 0.0
C174 C 0.27166 0.90216 0.28477 0.0
C175 C 0.2784 0.89636 0.29711 0.0
C176 C 0.25265 0.89991 0.30591 0.0
C177 C 0.21972 0.90869 0.30199 0.0
C178 C 0.21282 0.91394 0.28959 0.0
C179 C 0.15091 0.83562 0.25119 0.0
O180 O 0.19912 0.83961 0.22946 0.0
O181 O 0.1882 0.89163 0.23567 0.0
O182 O 0.24819 0.8017 0.23024 0.0
O183 O 0.26167 0.78891 0.24871 0.0
O184 O 0.28729 0.86232 0.23678 0.0
O185 O 0.24395 0.88879 0.23479 0.0
O186 O 0.21313 0.83705 0.27032 0.0
O187 O 0.26367 0.82997 0.26447 0.0
O188 O 0.19986 0.91116 0.26399 0.0
O189 O 0.25284 0.89706 0.26055 0.0
O190 O 0.15506 0.86843 0.25207 0.0
O191 O 0.1814 0.82141 0.25085 0.0
H192 H 0.20189 0.75896 0.25077 0.0
H193 H 0.16146 0.71473 0.24522 0.0
H194 H 0.22873 0.68217 0.21632 0.0
H195 H 0.26886 0.72682 0.22173 0.0
H196 H 0.29229 0.89931 0.27829 0.0
H197 H 0.30392 0.88924 0.29973 0.0
H198 H 0.19938 0.91246 0.30852 0.0
H199 H 0.18721 0.9205 0.28687 0.0
Ho200 Ho 0.48242 0.9898 0.48791 0.0
Ho201 Ho 0.44042 0.96358 0.49587 0.0
C202 C 0.44511 0.95007 0.46866 0.0
C203 C 0.54349 1.01161 0.48392 0.0
C204 C 0.57595 0.99686 0.4877 0.0
C205 C 0.57601 0.97027 0.49626 0.0
C206 C 0.60201 0.94619 0.49608 0.0
C207 C 0.62791 0.94844 0.48726 0.0
C208 C 0.63064 0.97821 0.4802 0.0
C209 C 0.60456 1.0022 0.48035 0.0
C210 C 0.43215 1.02704 0.47379 0.0
C211 C 0.48464 0.99738 0.51771 0.0
C212 C 0.38518 0.95012 0.50783 0.0
C213 C 0.37584 0.92836 0.51814 0.0
C214 C 0.40063 0.91428 0.52583 0.0
C215 C 0.39101 0.89379 0.53569 0.0
C216 C 0.35653 0.88684 0.53786 0.0
C217 C 0.332 0.90013 0.52984 0.0
C218 C 0.34161 0.92075 0.52007 0.0
C219 C 0.48093 0.90477 0.49287 0.0
O220 O 0.47666 0.95438 0.47193 0.0
O221 O 0.42237 0.95753 0.47686 0.0
O222 O 0.52682 0.99255 0.47638 0.0
O223 O 0.52399 1.02348 0.49254 0.0
O224 O 0.46341 1.02024 0.47118 0.0
O225 O 0.42868 1.0147 0.48508 0.0
O226 O 0.46522 0.9711 0.51533 0.0
O227 O 0.49131 1.01426 0.50749 0.0
O228 O 0.39474 0.93413 0.49805 0.0
O229 O 0.40455 0.97602 0.51024 0.0
O230 O 0.44869 0.90796 0.49104 0.0
O231 O 0.49161 0.9351 0.49583 0.0
H232 H 0.5541 0.96583 0.50206 0.0
H233 H 0.59959 0.92374 0.50174 0.0
H234 H 0.65031 0.98077 0.47332 0.0
H235 H 0.60486 1.02256 0.47368 0.0
H236 H 0.42729 0.9194 0.5243 0.0
H237 H 0.41042 0.88382 0.54172 0.0
H238 H 0.3052 0.89578 0.5314 0.0
H239 H 0.32225 0.93118 0.51411 0.0
Ho240 Ho 0.30966 0.23911 0.74526 0.0
Ho241 Ho 0.33313 0.19756 0.7509 0.0
C242 C 0.35697 0.22072 0.72516 0.0
C243 C 0.27539 0.29162 0.73826 0.0
C244 C 0.28491 0.32733 0.73816 0.0
C245 C 0.31865 0.33589 0.74067 0.0
C246 C 0.33194 0.36615 0.73622 0.0
C247 C 0.31146 0.38823 0.72926 0.0
C248 C 0.27614 0.38242 0.72902 0.0
C249 C 0.26305 0.3516 0.73318 0.0
C250 C 0.28155 0.18319 0.72712 0.0
C251 C 0.30062 0.24079 0.77435 0.0
C252 C 0.34519 0.13631 0.7585 0.0
C253 C 0.37399 0.11246 0.75952 0.0
C254 C 0.3959 0.11376 0.76959 0.0
C255 C 0.41844 0.08724 0.77189 0.0
C256 C 0.41946 0.05873 0.76419 0.0
C257 C 0.39994 0.05912 0.75345 0.0
C258 C 0.3772 0.08562 0.75119 0.0
C259 C 0.39501 0.23464 0.75001 0.0
O260 O 0.34473 0.24845 0.7297 0.0
O261 O 0.35298 0.19311 0.7316 0.0
O262 O 0.29365 0.27304 0.73091 0.0
O263 O 0.27167 0.27765 0.74899 0.0
O264 O 0.28231 0.19016 0.73904 0.0
O265 O 0.28313 0.19109 0.73905 0.0
O266 O 0.31514 0.21159 0.77128 0.0
O267 O 0.29503 0.25914 0.7646 0.0
O268 O 0.33455 0.1435 0.74757 0.0
O269 O 0.34508 0.1627 0.76559 0.0
O270 O 0.39029 0.20286 0.74779 0.0
O271 O 0.36492 0.24697 0.75262 0.0
H272 H 0.33572 0.31747 0.74473 0.0
H273 H 0.3591 0.36963 0.73686 0.0
H274 H 0.25928 0.39972 0.72429 0.0
H275 H 0.23669 0.34555 0.73144 0.0
H276 H 0.39417 0.13414 0.77617 0.0
H277 H 0.4327 0.08784 0.78033 0.0
H278 H 0.40047 0.03783 0.74723 0.0
H279 H 0.36074 0.08404 0.74329 0.0
Ho280 Ho 0.09461 0.06449 0.98993 0.0
Ho281 Ho 0.12652 0.08796 0.99776 0.0
C282 C 0.1339 0.11578 0.97308 0.0
C283 C 0.03391 0.049 0.98299 0.0
C284 C 1.00311 0.06986 0.98355 0.0
C285 C 1.00507 0.1047 0.98117 0.0
C286 C 0.97598 0.1246 0.98133 0.0
C287 C 0.94415 0.1102 0.98398 0.0
C288 C 0.9427 0.07573 0.98733 0.0
C289 C 0.97201 0.05566 0.98706 0.0
C290 C 0.14425 1.02424 0.97654 0.0
C291 C 0.08223 0.05749 1.01885 0.0
C292 C 0.1692 0.07053 1.01438 0.0
C293 C 0.16485 0.06504 1.0277 0.0
C294 C 0.15813 0.03231 1.03222 0.0
C295 C 0.15179 1.02693 1.04463 0.0
C296 C 0.15269 0.05404 1.0529 0.0
C297 C 0.15924 0.08682 1.04837 0.0
C298 C 0.16518 0.09227 1.03592 0.0
C299 C 0.09313 0.1503 0.99632 0.0
O300 O 0.10435 0.10062 0.97396 0.0
O301 O 0.15336 0.11319 0.98263 0.0
O302 O 0.05744 0.05941 0.97553 0.0
O303 O 0.04622 0.0403 0.99355 0.0
O304 O 0.11537 1.01442 0.98107 0.0
O305 O 0.14727 0.05463 0.98112 0.0
O306 O 0.09207 0.08762 1.01537 0.0
O307 O 0.08722 0.03723 1.0094 0.0
O308 O 0.1668 0.10169 1.01024 0.0
O309 O 0.15342 0.04864 1.00745 0.0
O310 O 0.12586 0.14555 0.99732 0.0
O311 O 0.07879 0.12009 0.99606 0.0
H312 H 1.02897 0.11648 0.97874 0.0
H313 H 0.97837 0.15079 0.97851 0.0
H314 H 0.91871 0.06393 0.98961 0.0
H315 H 0.97027 1.02898 0.98931 0.0
H316 H 0.15741 1.01075 1.02613 0.0
H317 H 0.14649 1.00144 1.04776 0.0
H318 H 0.1609 0.10824 1.0545 0.0
H319 H 0.17017 0.11781 1.03276 0.0
Ho320 Ho 0.84493 0.87043 0.74497 0.0
Ho321 Ho 0.82035 0.83125 0.74045 0.0
C322 C 0.81745 0.82953 0.76975 0.0
C323 C 0.85336 0.93222 0.75235 0.0
C324 C 0.87614 0.95149 0.76019 0.0
C325 C 0.86877 0.98555 0.7624 0.0
C326 C 0.89051 1.00497 0.76951 0.0
C327 C 0.92015 0.99063 0.77451 0.0
C328 C 0.92773 0.95645 0.7721 0.0
C329 C 0.90583 0.93698 0.76496 0.0
C330 C 0.90636 0.83294 0.74488 0.0
C331 C 0.86447 0.8453 0.71919 0.0
C332 C 0.7856 0.77765 0.73557 0.0
C333 C 0.79592 0.74245 0.73752 0.0
C334 C 0.83022 0.73538 0.73964 0.0
C335 C 0.84226 0.70237 0.73883 0.0
C336 C 0.82007 0.67555 0.73597 0.0
C337 C 0.78481 0.68241 0.73598 0.0
C338 C 0.77288 0.71581 0.73644 0.0
C339 C 0.79302 0.88699 0.72117 0.0
O340 O 0.83904 0.85345 0.76612 0.0
O341 O 0.80257 0.8166 0.76017 0.0
O342 O 0.86723 0.91973 0.74258 0.0
O343 O 0.83279 0.9109 0.75768 0.0
O344 O 0.90212 0.86474 0.74243 0.0
O345 O 0.87604 0.821 0.7474 0.0
O346 O 0.85315 0.81834 0.72456 0.0
O347 O 0.86066 0.87356 0.72516 0.0
O348 O 0.8037 0.79382 0.72744 0.0
O349 O 0.78129 0.79523 0.74551 0.0
O350 O 0.79347 0.87974 0.73312 0.0
O351 O 0.7945 0.87862 0.7331 0.0
H352 H 0.84602 0.9971 0.75869 0.0
H353 H 0.88341 0.03093 0.77143 0.0
H354 H 0.95036 0.94472 0.77581 0.0
H355 H 0.91199 0.91069 0.76319 0.0
H356 H 0.84824 0.75576 0.74092 0.0
H357 H 0.86945 0.69902 0.7392 0.0
H358 H 0.76647 0.66247 0.73461 0.0
H359 H 0.74604 0.72088 0.73529 0.0
Ho360 Ho 0.93541 0.0944 0.50131 0.0
Ho361 Ho 0.97403 0.07026 0.49607 0.0
C362 C 0.97776 0.06426 0.5251 0.0
C363 C 0.87515 0.10034 0.51062 0.0
C364 C 0.8403 0.08971 0.50794 0.0
C365 C 0.83304 0.05781 0.50295 0.0
C366 C 0.79944 0.0465 0.50236 0.0
C367 C 0.77275 0.06697 0.50674 0.0
C368 C 0.78021 0.10003 0.5107 0.0
C369 C 0.81366 0.1112 0.5113 0.0
C370 C 0.97292 0.15543 0.50071 0.0
C371 C 0.95506 0.1153 0.47538 0.0
C372 C 1.02807 0.03792 0.48927 0.0
C373 C 0.06323 0.04966 0.489 0.0
C374 C 0.06968 0.08443 0.48991 0.0
C375 C 0.10108 0.0973 0.48641 0.0
C376 C 0.12676 0.07547 0.48208 0.0
C377 C 0.12172 0.04018 0.48317 0.0
C378 C 0.08984 1.02736 0.48636 0.0
C379 C 0.92002 0.04159 0.47716 0.0
O380 O 0.95557 0.08805 0.52193 0.0
O381 O 0.98836 0.0486 0.51529 0.0
O382 O 0.8966 0.07664 0.51376 0.0
O383 O 0.8884 0.12247 0.50321 0.0
O384 O 0.94113 0.15124 0.49818 0.0
O385 O 0.98484 0.12518 0.50338 0.0
O386 O 0.98316 0.10511 0.48034 0.0
O387 O 0.92752 0.11007 0.48173 0.0
O388 O 1.00809 0.05398 0.48176 0.0
O389 O 1.01456 0.03457 0.50008 0.0
O390 O 0.92526 0.04369 0.48918 0.0
O391 O 0.92631 0.04456 0.4892 0.0
H392 H 0.85335 0.04105 0.50008 0.0
H393 H 0.79455 1.02109 0.49913 0.0
H394 H 0.76057 0.11643 0.51431 0.0
H395 H 0.81882 0.136 0.51507 0.0
H396 H 0.04948 0.10196 0.49223 0.0
H397 H 0.10354 0.12454 0.48588 0.0
H398 H 0.14138 1.02246 0.48051 0.0
H399 H 0.08541 1.00032 0.48596 0.0
Ho400 Ho 0.72343 0.18126 0.2462 0.0
Ho401 Ho 0.74932 0.22245 0.23824 0.0
C402 C 0.75728 0.22608 0.26791 0.0
C403 C 0.70971 0.1285 0.25931 0.0
C404 C 0.6878 0.12396 0.27018 0.0
C405 C 0.70189 0.12486 0.28194 0.0
C406 C 0.68123 0.12133 0.29224 0.0
C407 C 0.64604 0.11663 0.291 0.0
C408 C 0.63186 0.11603 0.27925 0.0
C409 C 0.65251 0.11965 0.26894 0.0
C410 C 0.66397 0.22075 0.24335 0.0
C411 C 0.70868 0.18619 0.21916 0.0
C412 C 0.77159 0.28306 0.23393 0.0
C413 C 0.75638 0.31563 0.23722 0.0
C414 C 0.72856 0.31611 0.24527 0.0
C415 C 0.70488 0.3424 0.24464 0.0
C416 C 0.70893 0.36832 0.23594 0.0
C417 C 0.73959 0.37041 0.22934 0.0
C418 C 0.7631 0.34395 0.2299 0.0
C419 C 0.7861 0.17198 0.22403 0.0
O420 O 0.73105 0.20653 0.26556 0.0
O421 O 0.77407 0.2326 0.25767 0.0
O422 O 0.69426 0.13574 0.24912 0.0
O423 O 0.73711 0.14657 0.26079 0.0
O424 O 0.66744 0.18854 0.24166 0.0
O425 O 0.69437 0.23208 0.246 0.0
O426 O 0.71241 0.21749 0.22271 0.0
O427 O 0.71677 0.16311 0.22717 0.0
O428 O 0.75331 0.26585 0.22629 0.0
O429 O 0.78259 0.26427 0.2429 0.0
O430 O 0.77889 0.20305 0.22137 0.0
O431 O 0.77439 0.16884 0.23541 0.0
H432 H 0.72896 0.12804 0.2832 0.0
H433 H 0.69307 0.12109 0.30116 0.0
H434 H 0.60484 0.11241 0.27803 0.0
H435 H 0.64078 0.11893 0.26 0.0
H436 H 0.72305 0.2944 0.25102 0.0
H437 H 0.6816 0.34041 0.24988 0.0
H438 H 0.74335 0.39003 0.22252 0.0
H439 H 0.78438 0.34388 0.2236 0.0
Ho440 Ho 0.61185 0.9703 1.00118 0.0
Ho441 Ho 0.57675 0.99895 0.99524 0.0
C442 C 0.57141 1.00283 1.02424 0.0
C443 C 0.6685 0.97375 1.01277 0.0
C444 C 0.70477 0.97994 1.01047 0.0
C445 C 0.71662 1.01015 1.00514 0.0
C446 C 0.75145 1.01712 1.00486 0.0
C447 C 0.77486 0.99401 1.00991 0.0
C448 C 0.76282 0.96273 1.01434 0.0
C449 C 0.7282 0.95588 1.01464 0.0
C450 C 0.5746 0.91127 1.00077 0.0
C451 C 0.59613 0.94782 0.97548 0.0
C452 C 0.51746 1.02349 0.98994 0.0
C453 C 0.48471 1.00623 0.98941 0.0
C454 C 0.48004 0.97562 0.99579 0.0
C455 C 0.45289 0.95454 0.99292 0.0
C456 C 0.43017 0.96382 0.98363 0.0
C457 C 0.43306 0.99609 0.97818 0.0
C458 C 0.4603 1.01708 0.98102 0.0
C459 C 0.62979 0.03552 0.98161 0.0
O460 O 0.58345 0.97347 1.02047 0.0
O461 O 0.57213 1.02373 1.01486 0.0
O462 O 0.6563 0.94552 1.00843 0.0
O463 O 0.6475 0.99951 1.01174 0.0
O464 O 0.60745 0.91374 1.00002 0.0
O465 O 0.56189 0.94234 1.0017 0.0
O466 O 0.56941 0.96439 0.9792 0.0
O467 O 0.62257 0.9489 0.98263 0.0
O468 O 0.5393 1.01369 0.98176 0.0
O469 O 0.53105 1.02556 1.00072 0.0
O470 O 0.60563 0.04804 0.98838 0.0
O471 O 0.62693 1.00344 0.98407 0.0
H472 H 0.69901 1.02897 1.00168 0.0
H473 H 0.75989 0.04127 1.00127 0.0
H474 H 0.7798 0.94446 1.01851 0.0
H475 H 0.71961 0.93238 1.01875 0.0
H476 H 0.49862 0.9669 1.00237 0.0
H477 H 0.45111 0.92998 0.99731 0.0
H478 H 0.41621 1.00383 0.97087 0.0
H479 H 0.46366 0.04055 0.976 0.0
Ho480 Ho 0.83249 0.19212 0.88757 0.0
Ho481 Ho 0.80593 0.233 0.89497 0.0
C482 C 0.79883 0.23616 0.86537 0.0
C483 C 0.8469 0.13765 0.87555 0.0
C484 C 0.87008 0.13026 0.86524 0.0
C485 C 0.85942 0.13478 0.85311 0.0
C486 C 0.88127 0.12726 0.84343 0.0
C487 C 0.91424 0.11496 0.84566 0.0
C488 C 0.92514 0.11113 0.8578 0.0
C489 C 0.90325 0.11858 0.86749 0.0
C490 C 0.89207 0.23121 0.8901 0.0
C491 C 0.84787 0.20175 0.91447 0.0
C492 C 0.7816 0.29328 0.89846 0.0
C493 C 0.79773 0.32573 0.89565 0.0
C494 C 0.82585 0.32615 0.88772 0.0
C495 C 0.85071 0.35094 0.889 0.0
C496 C 0.84756 0.37536 0.89823 0.0
C497 C 0.81668 0.37818 0.90464 0.0
C498 C 0.79193 0.3532 0.90343 0.0
C499 C 0.76971 0.18231 0.9095 0.0
O500 O 0.82539 0.21702 0.86795 0.0
O501 O 0.78147 0.24233 0.87548 0.0
O502 O 0.86133 0.14586 0.88579 0.0
O503 O 0.82033 0.15644 0.87323 0.0
O504 O 0.88854 0.199 0.8918 0.0
O505 O 0.86153 0.24288 0.88756 0.0
O506 O 0.84388 0.23229 0.91017 0.0
O507 O 0.83939 0.17737 0.9071 0.0
O508 O 0.79756 0.27596 0.90678 0.0
O509 O 0.77336 0.27454 0.88917 0.0
O510 O 0.77693 0.21337 0.91205 0.0
O511 O 0.78138 0.17931 0.89813 0.0
H512 H 0.83401 0.14362 0.85105 0.0
H513 H 0.87177 0.12977 0.83418 0.0
H514 H 0.9504 0.10182 0.85981 0.0
H515 H 0.91224 0.11484 0.87675 0.0
H516 H 0.83071 0.30512 0.88162 0.0
H517 H 0.87418 0.34848 0.8839 0.0
H518 H 0.81364 0.39674 0.91184 0.0
H519 H 0.77043 0.35318 0.90963 0.0
Ho520 Ho 0.62126 0.09034 0.62941 0.0
Ho521 Ho 0.589 0.06714 0.638 0.0
C522 C 0.57662 0.05893 0.60885 0.0
C523 C 0.66362 0.07241 0.6127 0.0
C524 C 0.65958 0.06521 0.5995 0.0
C525 C 0.64984 0.03266 0.59565 0.0
C526 C 0.64463 1.02577 0.5833 0.0
C527 C 0.64983 0.051 0.57442 0.0
C528 C 0.65945 0.08362 0.57827 0.0
C529 C 0.66419 0.09066 0.59067 0.0
C530 C 0.58814 0.1528 0.63119 0.0
C531 C 0.62955 0.11872 0.6539 0.0
C532 C 0.52883 0.05069 0.64577 0.0
C533 C 0.49727 0.07008 0.64691 0.0
C534 C 0.49311 0.10051 0.64039 0.0
C535 C 0.468 0.12355 0.64386 0.0
C536 C 0.44659 0.11618 0.65377 0.0
C537 C 0.44851 0.08418 0.65941 0.0
C538 C 0.47392 0.06133 0.65604 0.0
C539 C 0.6388 1.0279 0.65169 0.0
O540 O 0.58716 0.0891 0.61186 0.0
O541 O 0.5809 0.03935 0.61863 0.0
O542 O 0.6605 0.10396 0.61632 0.0
O543 O 0.6484 0.05091 0.62004 0.0
O544 O 0.62074 0.14795 0.62969 0.0
O545 O 0.57369 0.12271 0.63184 0.0
O546 O 0.59931 0.10501 0.65318 0.0
O547 O 0.64911 0.11467 0.6444 0.0
O548 O 0.55312 0.06097 0.65284 0.0
O549 O 0.53957 0.04487 0.63472 0.0
O550 O 0.60806 1.01953 0.64879 0.0
O551 O 0.64331 0.05617 0.64555 0.0
H552 H 0.64592 1.01237 0.60219 0.0
H553 H 0.63683 1.00052 0.58072 0.0
H554 H 0.6645 0.10352 0.57168 0.0
H555 H 0.67179 0.11593 0.59331 0.0
H556 H 0.51063 0.10748 0.63319 0.0
H557 H 0.46677 0.14803 0.63938 0.0
H558 H 0.43248 0.07809 0.66717 0.0
H559 H 0.47687 0.03799 0.66118 0.0
Ho560 Ho 0.71315 0.86902 0.38996 0.0
Ho561 Ho 0.73792 0.82948 0.39446 0.0
C562 C 0.74178 0.82829 0.3653 0.0
C563 C 0.7052 0.93125 0.38279 0.0
C564 C 0.68312 0.95251 0.37527 0.0
C565 C 0.69397 0.98522 0.37236 0.0
C566 C 0.6728 1.00711 0.36591 0.0
C567 C 0.64025 0.99669 0.36227 0.0
C568 C 0.62935 0.96377 0.36526 0.0
C569 C 0.65066 0.9418 0.37176 0.0
C570 C 0.65197 0.83167 0.38986 0.0
C571 C 0.69291 0.84291 0.41555 0.0
C572 C 0.77101 0.77511 0.40001 0.0
C573 C 0.75874 0.74051 0.39812 0.0
C574 C 0.73355 0.735 0.38927 0.0
C575 C 0.71166 0.70749 0.39035 0.0
C576 C 0.71471 0.68523 0.40031 0.0
C577 C 0.74287 0.68812 0.40813 0.0
C578 C 0.76467 0.71584 0.40709 0.0
C579 C 0.76576 0.88305 0.4139 0.0
O580 O 0.71977 0.85203 0.36886 0.0
O581 O 0.75673 0.81539 0.37489 0.0
O582 O 0.69118 0.91841 0.3925 0.0
O583 O 0.72511 0.90978 0.37723 0.0
O584 O 0.65599 0.8634 0.39236 0.0
O585 O 0.68235 0.81975 0.38736 0.0
O586 O 0.70408 0.8162 0.41002 0.0
O587 O 0.69723 0.87152 0.40979 0.0
O588 O 0.75303 0.79212 0.40791 0.0
O589 O 0.77706 0.79266 0.39011 0.0
O590 O 0.76415 0.87786 0.40187 0.0
O591 O 0.76328 0.87682 0.40185 0.0
H592 H 0.71888 0.99388 0.37511 0.0
H593 H 0.6824 0.03192 0.36347 0.0
H594 H 0.60445 0.95502 0.36256 0.0
H595 H 0.64182 0.91662 0.37408 0.0
H596 H 0.72828 0.75388 0.38231 0.0
H597 H 0.69022 0.70573 0.38421 0.0
H598 H 0.74565 0.67143 0.41594 0.0
H599 H 0.78373 0.71984 0.41405 0.0
Ho600 Ho 0.9455 0.96404 0.13127 0.0
Ho601 Ho 0.9772 0.98916 0.13824 0.0
C602 C 0.98738 0.99477 0.10938 0.0
C603 C 0.89983 0.98066 0.11562 0.0
C604 C 0.90171 0.98661 0.10225 0.0
C605 C 0.91192 1.01838 0.09768 0.0
C606 C 0.91515 1.02392 0.08513 0.0
C607 C 0.90752 0.9981 0.0768 0.0
C608 C 0.89753 0.96623 0.08136 0.0
C609 C 0.8947 0.96054 0.09395 0.0
C610 C 0.97974 0.90272 0.13221 0.0
C611 C 0.94614 0.93612 0.15625 0.0
C612 C 0.03704 1.01097 0.14411 0.0
C613 C 0.06989 0.99375 0.14448 0.0
C614 C 0.07112 0.95854 0.14589 0.0
C615 C 0.10187 0.94246 0.14814 0.0
C616 C 0.132 0.9614 0.14908 0.0
C617 C 0.13112 0.99606 0.14593 0.0
C618 C 0.10008 1.01224 0.1438 0.0
C619 C 0.92602 1.02704 0.15194 0.0
O620 O 0.97886 0.96457 0.11328 0.0
O621 O 0.98193 1.01553 0.1186 0.0
O622 O 0.90373 0.94942 0.11955 0.0
O623 O 0.9161 1.00279 0.12231 0.0
O624 O 0.94686 0.90673 0.13138 0.0
O625 O 0.99379 0.93313 0.13252 0.0
O626 O 0.97457 0.95264 0.15438 0.0
O627 O 0.92391 0.93827 0.14746 0.0
O628 O 1.0147 1.00055 0.15203 0.0
O629 O 1.02411 1.01434 0.13329 0.0
O630 O 0.95242 0.03886 0.14621 0.0
O631 O 0.92597 0.9956 0.14839 0.0
H632 H 0.91768 0.0391 0.10378 0.0
H633 H 0.92325 0.04863 0.08196 0.0
H634 H 0.89071 0.94595 0.07521 0.0
H635 H 0.88673 0.93583 0.09717 0.0
H636 H 0.04805 0.94373 0.14613 0.0
H637 H 0.10106 0.91579 0.15044 0.0
H638 H 0.15396 1.01122 0.14616 0.0
H639 H 0.09952 0.03937 0.14228 0.0
Ho640 Ho 0.75003 0.7276 0.89105 0.0
Ho641 Ho 0.72571 0.6876 0.88234 0.0
C642 C 0.71181 0.68392 0.90918 0.0
C643 C 0.76875 0.78851 0.89686 0.0
C644 C 0.75051 0.8208 0.89617 0.0
C645 C 0.71995 0.8227 0.88962 0.0
C646 C 0.69596 0.84749 0.89253 0.0
C647 C 0.70238 0.87051 0.90198 0.0
C648 C 0.73486 0.87139 0.90727 0.0
C649 C 0.75875 0.84645 0.90443 0.0
C650 C 0.7894 0.67727 0.90435 0.0
C651 C 0.76025 0.73409 0.86134 0.0
C652 C 0.71194 0.63743 0.86817 0.0
C653 C 0.68849 0.63491 0.85772 0.0
C654 C 0.7015 0.63168 0.84584 0.0
C655 C 0.6796 0.62982 0.83587 0.0
C656 C 0.64421 0.63091 0.8376 0.0
C657 C 0.63117 0.63466 0.84946 0.0
C658 C 0.65307 0.63678 0.85943 0.0
C659 C 0.66503 0.72541 0.88622 0.0
O660 O 0.71356 0.71624 0.90658 0.0
O661 O 0.7212 0.66362 0.9005 0.0
O662 O 0.75519 0.76716 0.90447 0.0
O663 O 0.77686 0.77415 0.88657 0.0
O664 O 0.78148 0.70788 0.90734 0.0
O665 O 0.77698 0.67458 0.89305 0.0
O666 O 0.73361 0.71489 0.86337 0.0
O667 O 0.77661 0.73914 0.87178 0.0
O668 O 0.69796 0.64168 0.87886 0.0
O669 O 0.73852 0.65669 0.8666 0.0
O670 O 0.66947 0.69311 0.88735 0.0
O671 O 0.69511 0.73755 0.8836 0.0
H672 H 0.71322 0.80311 0.88317 0.0
H673 H 0.67122 0.84664 0.88826 0.0
H674 H 0.74039 0.88876 0.91464 0.0
H675 H 0.78214 0.8452 0.9096 0.0
H676 H 0.72864 0.63029 0.84427 0.0
H677 H 0.69039 0.62621 0.82684 0.0
H678 H 0.60402 0.63552 0.85103 0.0
H679 H 0.64214 0.63965 0.86846 0.0
Ho680 Ho 0.57465 0.49971 0.14561 0.0
Ho681 Ho 0.60994 0.4712 0.1391 0.0
C682 C 0.59721 0.44899 0.16519 0.0
C683 C 0.51449 0.52182 0.15099 0.0
C684 C 0.48235 0.50364 0.14958 0.0
C685 C 0.47968 0.47838 0.1406 0.0
C686 C 0.45471 0.45357 0.14156 0.0
C687 C 0.43214 0.45373 0.15149 0.0
C688 C 0.43229 0.48136 0.15959 0.0
C689 C 0.45744 0.50609 0.15868 0.0
C690 C 0.6273 0.53689 0.15901 0.0
C691 C 0.56859 0.50487 0.11653 0.0
C692 C 0.66493 0.47345 0.1263 0.0
C693 C 0.70176 0.47948 0.12682 0.0
C694 C 0.71528 0.51133 0.12976 0.0
C695 C 0.74955 0.51825 0.12747 0.0
C696 C 0.77069 0.49353 0.12213 0.0
C697 C 0.75757 0.46082 0.12029 0.0
C698 C 0.7235 0.45395 0.12259 0.0
C699 C 0.5719 0.4123 0.14007 0.0
O700 O 0.57011 0.46572 0.162 0.0
O701 O 0.62262 0.4496 0.15749 0.0
O702 O 0.53493 0.50851 0.15899 0.0
O703 O 0.53024 0.52955 0.1409 0.0
O704 O 0.60089 0.54887 0.15333 0.0
O705 O 0.6267 0.5052 0.15571 0.0
O706 O 0.58106 0.47541 0.12004 0.0
O707 O 0.56902 0.52514 0.12605 0.0
O708 O 0.65364 0.44577 0.13146 0.0
O709 O 0.64448 0.49949 0.12764 0.0
O710 O 0.60472 0.41462 0.1409 0.0
O711 O 0.55973 0.44354 0.13879 0.0
H712 H 0.49868 0.47599 0.13347 0.0
H713 H 0.45496 0.43262 0.13519 0.0
H714 H 0.41536 0.4819 0.16741 0.0
H715 H 0.45925 0.52526 0.16571 0.0
H716 H 0.69909 0.53143 0.13315 0.0
H717 H 0.75896 0.54352 0.12919 0.0
H718 H 0.77272 0.44117 0.11605 0.0
H719 H 0.71363 0.42923 0.12024 0.0
Ho720 Ho 0.82215 0.32274 0.38791 0.0
Ho721 Ho 0.84644 0.36272 0.38296 0.0
C722 C 0.86766 0.339 0.40857 0.0
C723 C 0.79036 0.26871 0.39474 0.0
C724 C 0.80411 0.23424 0.39464 0.0
C725 C 0.8332 0.22771 0.38756 0.0
C726 C 0.85536 0.20173 0.39087 0.0
C727 C 0.84858 0.182 0.40128 0.0
C728 C 0.81704 0.1854 0.40722 0.0
C729 C 0.79497 0.21166 0.40397 0.0
C730 C 0.79315 0.37737 0.4067 0.0
C731 C 0.81729 0.32099 0.35873 0.0
C732 C 0.85794 0.42344 0.37489 0.0
C733 C 0.88481 0.43963 0.3676 0.0
C734 C 0.89361 0.42788 0.35593 0.0
C735 C 0.91871 0.44436 0.34914 0.0
C736 C 0.93565 0.4727 0.35395 0.0
C737 C 0.92784 0.4833 0.36588 0.0
C738 C 0.90253 0.46702 0.37261 0.0
C739 C 0.90783 0.32508 0.38325 0.0
O740 O 0.85742 0.31159 0.4033 0.0
O741 O 0.86204 0.36713 0.40266 0.0
O742 O 0.80619 0.28858 0.40227 0.0
O743 O 0.78585 0.28291 0.38408 0.0
O744 O 0.79502 0.3715 0.39471 0.0
O745 O 0.79586 0.37051 0.39469 0.0
O746 O 0.83849 0.34547 0.36205 0.0
O747 O 0.80342 0.30741 0.36846 0.0
O748 O 0.86747 0.41255 0.38554 0.0
O749 O 0.83777 0.40218 0.36943 0.0
O750 O 0.90348 0.35678 0.38569 0.0
O751 O 0.87762 0.31329 0.38062 0.0
H752 H 0.84086 0.24508 0.38037 0.0
H753 H 0.8795 0.19953 0.38616 0.0
H754 H 0.81134 0.17064 0.41534 0.0
H755 H 0.77284 0.21655 0.4096 0.0
H756 H 0.88066 0.40648 0.35192 0.0
H757 H 0.92362 0.43583 0.3399 0.0
H758 H 0.94065 0.50476 0.36991 0.0
H759 H 0.89645 0.47613 0.3817 0.0
Ho760 Ho 0.97145 0.57306 0.64452 0.0
Ho761 Ho 0.93195 0.59744 0.63585 0.0
C762 C 0.92771 0.61173 0.66271 0.0
C763 C 0.03262 0.55314 0.64959 0.0
C764 C 0.06528 0.5685 0.64648 0.0
C765 C 0.06611 0.59757 0.63904 0.0
C766 C 0.09391 0.61938 0.63948 0.0
C767 C 0.12122 0.6121 0.64728 0.0
C768 C 0.12206 0.58068 0.65343 0.0
C769 C 0.09409 0.55915 0.65311 0.0
C770 C 0.92122 0.5351 0.6583 0.0
C771 C 0.97824 0.56376 0.61493 0.0
C772 C 0.88252 0.60827 0.62093 0.0
C773 C 0.881 0.62764 0.60939 0.0
C774 C 0.87803 0.61035 0.59827 0.0
C775 C 0.87756 0.62817 0.58725 0.0
C776 C 0.87976 0.66372 0.58712 0.0
C777 C 0.88308 0.68106 0.59822 0.0
C778 C 0.88386 0.66319 0.60926 0.0
C779 C 0.96949 0.65775 0.63963 0.0
O780 O 0.96008 0.60792 0.66038 0.0
O781 O 0.90734 0.6043 0.65382 0.0
O782 O 1.01415 0.57167 0.6568 0.0
O783 O 1.01501 0.54093 0.64058 0.0
O784 O 0.95161 0.54369 0.66137 0.0
O785 O 0.91874 0.54653 0.64684 0.0
O786 O 0.96099 0.59157 0.61714 0.0
O787 O 0.98141 0.54628 0.62525 0.0
O788 O 0.88708 0.62573 0.63088 0.0
O789 O 0.90093 0.5807 0.62072 0.0
O790 O 0.93707 0.65349 0.64077 0.0
O791 O 0.98178 0.62776 0.63701 0.0
H792 H 0.04406 0.605 0.63379 0.0
H793 H 0.09276 0.64326 0.63459 0.0
H794 H 0.14261 0.57442 0.65961 0.0
H795 H 0.09375 0.53689 0.65893 0.0
H796 H 0.87588 0.583 0.59811 0.0
H797 H 0.8742 0.61416 0.57884 0.0
H798 H 0.88474 0.70844 0.59837 0.0
H799 H 0.88655 0.67732 0.61767 0.0
Ho800 Ho 0.73864 0.33219 0.74484 0.0
Ho801 Ho 0.7135 0.37159 0.7491 0.0
C802 C 0.69342 0.34255 0.7239 0.0
C803 C 0.77538 0.28 0.7393 0.0
C804 C 0.76703 0.24402 0.73913 0.0
C805 C 0.73316 0.23431 0.74077 0.0
C806 C 0.72208 0.20333 0.73628 0.0
C807 C 0.74491 0.18174 0.73013 0.0
C808 C 0.7799 0.18897 0.73072 0.0
C809 C 0.79084 0.22043 0.73495 0.0
C810 C 0.76554 0.3869 0.72531 0.0
C811 C 0.74213 0.33126 0.77395 0.0
C812 C 0.7047 0.43436 0.75536 0.0
C813 C 0.68048 0.45678 0.76142 0.0
C814 C 0.68968 0.49056 0.76312 0.0
C815 C 0.66661 0.51345 0.76807 0.0
C816 C 0.63374 0.50298 0.7714 0.0
C817 C 0.62446 0.46897 0.76961 0.0
C818 C 0.64771 0.44598 0.76459 0.0
C819 C 0.65205 0.33481 0.74933 0.0
O820 O 0.70466 0.31642 0.72978 0.0
O821 O 0.69783 0.37169 0.72923 0.0
O822 O 0.75862 0.29793 0.7313 0.0
O823 O 0.77593 0.29426 0.75002 0.0
O824 O 0.76475 0.38083 0.73734 0.0
O825 O 0.76382 0.37975 0.73733 0.0
O826 O 0.72056 0.35533 0.77031 0.0
O827 O 0.75684 0.31787 0.76441 0.0
O828 O 0.69439 0.42147 0.74514 0.0
O829 O 0.72129 0.41254 0.76205 0.0
O830 O 0.65632 0.36662 0.74697 0.0
O831 O 0.6824 0.3224 0.75162 0.0
H832 H 0.71456 0.25222 0.7442 0.0
H833 H 0.69502 0.19875 0.73621 0.0
H834 H 0.79836 0.17218 0.72657 0.0
H835 H 0.81726 0.22742 0.73388 0.0
H836 H 0.71482 0.49928 0.76059 0.0
H837 H 0.67499 0.53916 0.76965 0.0
H838 H 0.59939 0.46015 0.77213 0.0
H839 H 0.64013 0.41995 0.76317 0.0
Ho840 Ho 0.98538 0.49353 0.98945 0.0
Ho841 Ho 0.95253 0.46699 0.99572 0.0
C842 C 0.96279 0.44075 0.97047 0.0
C843 C 0.04541 0.51644 0.98434 0.0
C844 C 0.07788 0.49909 0.98628 0.0
C845 C 0.08026 0.47388 0.99536 0.0
C846 C 0.10589 0.44954 0.99478 0.0
C847 C 0.12936 0.45015 0.98512 0.0
C848 C 0.12956 0.478 0.97704 0.0
C849 C 0.10373 0.50224 0.97757 0.0
C850 C 0.93341 0.53018 0.97532 0.0
C851 C 0.99222 0.49833 1.01838 0.0
C852 C 0.903 0.48119 1.01013 0.0
C853 C 0.90112 0.48568 1.02357 0.0
C854 C 0.91115 0.51648 1.0289 0.0
C855 C 0.91009 0.52079 1.04154 0.0
C856 C 0.89855 0.49461 1.04918 0.0
C857 C 0.88884 0.46366 1.04389 0.0
C858 C 0.89008 0.45926 1.03121 0.0
C859 C 0.98804 0.40655 0.99561 0.0
O860 O 0.98955 0.45845 0.97333 0.0
O861 O 0.9377 0.44163 0.97832 0.0
O862 O 1.02587 0.50214 0.97634 0.0
O863 O 1.02877 0.52445 0.99419 0.0
O864 O 0.95823 0.54263 0.98168 0.0
O865 O 0.93527 0.49832 0.97833 0.0
O866 O 0.98241 0.46842 1.01457 0.0
O867 O 0.98942 0.5191 1.00902 0.0
O868 O 0.90835 0.45043 1.00599 0.0
O869 O 0.92069 0.50427 1.00428 0.0
O870 O 0.95502 0.40992 0.99523 0.0
O871 O 1.00143 0.43739 0.9961 0.0
H872 H 0.06056 0.47106 1.00221 0.0
H873 H 0.1053 0.4284 1.00112 0.0
H874 H 0.14719 0.47894 0.96943 0.0
H875 H 0.10221 0.52144 0.97049 0.0
H876 H 0.9199 0.53746 1.02333 0.0
H877 H 0.91804 0.5448 1.04532 0.0
H878 H 0.87923 0.44318 1.04952 0.0
H879 H 0.8821 0.4353 1.0274 0.0
Ho880 Ho 0.80772 0.73375 0.24439 0.0
Ho881 Ho 0.83469 0.69262 0.25132 0.0
C882 C 0.85245 0.70795 0.22496 0.0
C883 C 0.78186 0.79375 0.2413 0.0
C884 C 0.79863 0.82672 0.24115 0.0
C885 C 0.83411 0.82786 0.24161 0.0
C886 C 0.85122 0.85675 0.23775 0.0
C887 C 0.83299 0.88502 0.23337 0.0
C888 C 0.79744 0.88557 0.23498 0.0
C889 C 0.78027 0.85624 0.2386 0.0
C890 C 0.77171 0.68289 0.2299 0.0
C891 C 0.79963 0.7342 0.27389 0.0
C892 C 0.8512 0.63602 0.26175 0.0
C893 C 0.87838 0.62576 0.27026 0.0
C894 C 0.87683 0.63405 0.28271 0.0
C895 C 0.90247 0.62349 0.29064 0.0
C896 C 0.93025 0.60449 0.28628 0.0
C897 C 0.93228 0.59717 0.27374 0.0
C898 C 0.90651 0.60753 0.26583 0.0
C899 C 0.89428 0.73244 0.24926 0.0
O900 O 0.8477 0.73754 0.22985 0.0
O901 O 0.84238 0.68215 0.23143 0.0
O902 O 0.79079 0.77393 0.23239 0.0
O903 O 0.78182 0.77792 0.25173 0.0
O904 O 0.77968 0.71377 0.22719 0.0
O905 O 0.78304 0.68009 0.24131 0.0
O906 O 0.82667 0.7158 0.27117 0.0
O907 O 0.78212 0.74045 0.26384 0.0
O908 O 0.86136 0.64491 0.2509 0.0
O909 O 0.82727 0.65589 0.26589 0.0
O910 O 0.89117 0.70026 0.24753 0.0
O911 O 0.86345 0.74359 0.25167 0.0
H912 H 0.84865 0.80533 0.24376 0.0
H913 H 0.87852 0.85499 0.23685 0.0
H914 H 0.7826 0.90742 0.23225 0.0
H915 H 0.75278 0.85589 0.23848 0.0
H916 H 0.85554 0.64813 0.28641 0.0
H917 H 0.89964 0.62894 0.30029 0.0
H918 H 0.95339 0.58276 0.27008 0.0
H919 H 0.90842 0.60091 0.25625 0.0
Ho920 Ho 0.58285 0.56419 0.48921 0.0
Ho921 Ho 0.62327 0.58856 0.49346 0.0
C922 C 0.59632 0.60887 0.46802 0.0
C923 C 0.52793 0.53117 0.48459 0.0
C924 C 0.49333 0.54346 0.48671 0.0
C925 C 0.48874 0.57748 0.48991 0.0
C926 C 0.45685 0.59243 0.48904 0.0
C927 C 0.42879 0.57348 0.48502 0.0
C928 C 0.43272 0.538 0.48392 0.0
C929 C 0.46502 0.52319 0.48446 0.0
C930 C 0.63627 0.53536 0.46969 0.0
C931 C 0.5834 0.56047 0.51834 0.0
C932 C 0.68615 0.5958 0.49991 0.0
C933 C 0.70914 0.61776 0.50669 0.0
C934 C 0.74078 0.60473 0.51005 0.0
C935 C 0.76481 0.62559 0.51545 0.0
C936 C 0.75766 0.66 0.51757 0.0
C937 C 0.72568 0.67301 0.51427 0.0
C938 C 0.70156 0.652 0.50882 0.0
C939 C 0.58568 0.64982 0.49362 0.0
O940 O 0.56951 0.59781 0.47358 0.0
O941 O 0.62506 0.60432 0.47365 0.0
O942 O 0.54464 0.54825 0.47632 0.0
O943 O 0.54579 0.5263 0.49444 0.0
O944 O 0.63098 0.53712 0.48173 0.0
O945 O 0.62993 0.53802 0.48174 0.0
O946 O 0.60729 0.58203 0.51465 0.0
O947 O 0.5697 0.54589 0.50888 0.0
O948 O 0.67297 0.6089 0.49011 0.0
O949 O 0.66453 0.57748 0.50608 0.0
O950 O 0.61745 0.64572 0.49096 0.0
O951 O 0.57403 0.61964 0.49636 0.0
H952 H 0.51036 0.5933 0.49201 0.0
H953 H 0.45551 0.61959 0.49018 0.0
H954 H 0.41146 0.5221 0.48151 0.0
H955 H 0.46808 0.49656 0.48238 0.0
H956 H 0.74706 0.5784 0.50837 0.0
H957 H 0.78879 0.6145 0.5182 0.0
H958 H 0.71943 0.69936 0.51584 0.0
H959 H 0.67725 0.66251 0.50614 0.0
Ho960 Ho 0.35124 0.36523 0.24406 0.0
Ho961 Ho 0.31961 0.32817 0.24015 0.0
C962 C 0.31903 0.32937 0.26907 0.0
C963 C 0.35852 0.42701 0.25118 0.0
C964 C 0.37584 0.44736 0.26037 0.0
C965 C 0.39312 0.47628 0.25632 0.0
C966 C 0.41264 0.49509 0.26439 0.0
C967 C 0.4149 0.48557 0.27674 0.0
C968 C 0.39741 0.45648 0.28079 0.0
C969 C 0.37817 0.43732 0.27263 0.0
C970 C 0.4087 0.32525 0.24447 0.0
C971 C 0.36656 0.33456 0.21875 0.0
C972 C 0.28943 0.27055 0.23726 0.0
C973 C 0.30391 0.23657 0.23846 0.0
C974 C 0.33921 0.23285 0.23875 0.0
C975 C 0.35384 0.20087 0.23824 0.0
C976 C 0.33339 0.17172 0.2375 0.0
C977 C 0.29793 0.17558 0.2389 0.0
C978 C 0.28325 0.20789 0.23918 0.0
C979 C 0.28415 0.38243 0.22641 0.0
O980 O 0.34666 0.34481 0.26485 0.0
O981 O 0.29822 0.32447 0.25999 0.0
O982 O 0.37908 0.41161 0.2437 0.0
O983 O 0.33239 0.40838 0.25441 0.0
O984 O 0.40736 0.35757 0.24252 0.0
O985 O 0.37721 0.31439 0.24637 0.0
O986 O 0.35063 0.31038 0.22434 0.0
O987 O 0.36655 0.36388 0.22424 0.0
O988 O 0.30128 0.28857 0.22822 0.0
O989 O 0.2885 0.28761 0.24738 0.0
O990 O 0.27184 0.36222 0.23474 0.0
O991 O 0.31593 0.37504 0.22732 0.0
H992 H 0.39201 0.48399 0.24681 0.0
H993 H 0.42611 0.51698 0.26091 0.0
H994 H 0.39812 0.44879 0.2903 0.0
H995 H 0.36537 0.41475 0.27587 0.0
H996 H 0.3556 0.25478 0.23863 0.0
H997 H 0.38113 0.19972 0.23725 0.0
H998 H 0.2813 0.15382 0.23891 0.0
H999 H 0.25588 0.21045 0.23943 0.0
Ho1000 Ho 0.4334 0.59585 1.00103 0.0
Ho1001 Ho 0.47154 0.57081 0.99655 0.0
C1002 C 0.47373 0.56606 1.0255 0.0
C1003 C 0.37411 0.60798 1.01025 0.0
C1004 C 0.36217 0.63324 1.01918 0.0
C1005 C 0.37216 0.63159 1.03148 0.0
C1006 C 0.36176 0.65651 1.03968 0.0
C1007 C 0.34132 0.68376 1.03577 0.0
C1008 C 0.33178 0.68562 1.02342 0.0
C1009 C 0.34197 0.66051 1.01523 0.0
C1010 C 0.47087 0.65667 1.00059 0.0
C1011 C 0.45751 0.61563 0.9754 0.0
C1012 C 0.52565 0.53763 0.99043 0.0
C1013 C 0.56048 0.55028 0.98989 0.0
C1014 C 0.56592 0.58522 0.99078 0.0
C1015 C 0.5968 0.59907 0.9872 0.0
C1016 C 0.62316 0.57809 0.98287 0.0
C1017 C 0.61902 0.54263 0.98378 0.0
C1018 C 0.58757 0.52882 0.98701 0.0
C1019 C 0.41807 0.54296 0.97721 0.0
O1020 O 0.45291 0.59067 1.02187 0.0
O1021 O 0.48361 0.54891 1.01594 0.0
O1022 O 0.38457 0.6205 0.99991 0.0
O1023 O 0.39395 0.58378 1.01421 0.0
O1024 O 0.43925 0.65253 0.99789 0.0
O1025 O 0.48271 0.62644 1.00333 0.0
O1026 O 0.48442 0.60482 0.98094 0.0
O1027 O 0.42898 0.61123 0.98122 0.0
O1028 O 0.50538 0.55195 0.98258 0.0
O1029 O 0.51218 0.53595 1.0013 0.0
O1030 O 0.42281 0.54487 0.98927 0.0
O1031 O 0.42385 0.54571 0.98929 0.0
H1032 H 0.38785 0.611 1.03482 0.0
H1033 H 0.36887 0.6537 1.04919 0.0
H1034 H 0.31618 0.70629 1.0201 0.0
H1035 H 0.33416 0.66248 1.00576 0.0
H1036 H 0.54534 0.60212 0.99326 0.0
H1037 H 0.59843 0.62638 0.98676 0.0
H1038 H 0.63917 0.52547 0.98112 0.0
H1039 H 0.58392 0.50167 0.98658 0.0
Ho1040 Ho 0.22415 0.69085 0.74526 0.0
Ho1041 Ho 0.24729 0.73019 0.73997 0.0
C1042 C 0.25296 0.73296 0.76924 0.0
C1043 C 0.21436 0.63194 0.75515 0.0
C1044 C 0.19126 0.62021 0.76472 0.0
C1045 C 0.16828 0.64281 0.77018 0.0
C1046 C 0.14573 0.63139 0.77915 0.0
C1047 C 0.14582 0.59719 0.78274 0.0
C1048 C 0.1686 0.5746 0.77706 0.0
C1049 C 0.19112 0.58606 0.76811 0.0
C1050 C 0.16244 0.7286 0.7446 0.0
C1051 C 0.20583 0.70653 0.71885 0.0
C1052 C 0.27589 0.78595 0.73314 0.0
C1053 C 0.26102 0.81975 0.73464 0.0
C1054 C 0.2351 0.8241 0.74337 0.0
C1055 C 0.21155 0.85024 0.74207 0.0
C1056 C 0.21372 0.87237 0.73205 0.0
C1057 C 0.24222 0.87066 0.72428 0.0
C1058 C 0.26566 0.84425 0.72552 0.0
C1059 C 0.2803 0.67831 0.72126 0.0
O1060 O 0.2306 0.70954 0.76603 0.0
O1061 O 0.26757 0.74514 0.75938 0.0
O1062 O 0.19943 0.6422 0.74523 0.0
O1063 O 0.23835 0.65252 0.75858 0.0
O1064 O 0.16712 0.69712 0.74181 0.0
O1065 O 0.19249 0.74004 0.74753 0.0
O1066 O 0.21273 0.73564 0.72376 0.0
O1067 O 0.21173 0.68023 0.72571 0.0
O1068 O 0.25873 0.76675 0.72577 0.0
O1069 O 0.28391 0.77012 0.7432 0.0
O1070 O 0.27597 0.68232 0.73326 0.0
O1071 O 0.27517 0.68325 0.73334 0.0
H1072 H 0.16786 0.66927 0.76752 0.0
H1073 H 0.12841 0.64933 0.78332 0.0
H1074 H 0.16982 0.54824 0.77981 0.0
H1075 H 0.2086 0.56833 0.76389 0.0
H1076 H 0.23084 0.80525 0.75043 0.0
H1077 H 0.18982 0.85107 0.74815 0.0
H1078 H 0.24428 0.88727 0.71641 0.0
H1079 H 0.28523 0.84106 0.71863 0.0
Ho1080 Ho 0.11481 0.46935 0.50103 0.0
Ho1081 Ho 0.07882 0.49774 0.49502 0.0
C1082 C 0.07428 0.50259 0.52404 0.0
C1083 C 0.1719 0.47436 0.51225 0.0
C1084 C 0.20781 0.48215 0.50975 0.0
C1085 C 0.21813 0.51368 0.50504 0.0
C1086 C 0.25256 0.52234 0.50486 0.0
C1087 C 0.27713 0.49961 0.50938 0.0
C1088 C 0.26674 0.46706 0.51309 0.0
C1089 C 0.23246 0.45852 0.51331 0.0
C1090 C 0.07764 0.4101 0.50098 0.0
C1091 C 0.09813 0.44549 0.47564 0.0
C1092 C 1.01947 0.52055 0.48889 0.0
C1093 C 0.98826 0.50089 0.48733 0.0
C1094 C 0.98367 0.47095 0.49412 0.0
C1095 C 0.96038 0.44674 0.4903 0.0
C1096 C 0.94138 0.45218 0.47967 0.0
C1097 C 0.94334 0.48365 0.47365 0.0
C1098 C 0.96685 0.50784 0.47743 0.0
C1099 C 0.13235 0.53423 0.48154 0.0
O1100 O 0.08746 0.47344 0.5205 0.0
O1101 O 0.07348 0.52289 0.5145 0.0
O1102 O 0.16046 0.44579 0.5079 0.0
O1103 O 0.14993 0.49937 0.51147 0.0
O1104 O 0.11051 0.41265 0.50029 0.0
O1105 O 0.06485 0.44118 0.50176 0.0
O1106 O 0.07129 0.46156 0.47949 0.0
O1107 O 0.12508 0.44762 0.48252 0.0
O1108 O 0.04319 0.51352 0.48103 0.0
O1109 O 1.03129 0.52201 0.49997 0.0
O1110 O 0.10878 0.54675 0.4886 0.0
O1111 O 0.12864 0.50209 0.48369 0.0
H1112 H 0.1996 0.53226 0.50207 0.0
H1113 H 0.25977 0.54746 0.50183 0.0
H1114 H 0.28471 0.44901 0.51681 0.0
H1115 H 0.22509 0.43404 0.51694 0.0
H1116 H 0.99993 0.46499 0.50181 0.0
H1117 H 0.95903 0.42273 0.4951 0.0
H1118 H 0.92912 0.48824 0.46534 0.0
H1119 H 0.97024 0.53065 0.47203 0.0
Ho1120 Ho 0.33704 0.68798 0.38737 0.0
Ho1121 Ho 0.31137 0.72973 0.39509 0.0
C1122 C 0.30427 0.73216 0.36523 0.0
C1123 C 0.35016 0.63229 0.37588 0.0
C1124 C 0.37492 0.62322 0.3665 0.0
C1125 C 0.39523 0.64815 0.361 0.0
C1126 C 0.41918 0.63911 0.35216 0.0
C1127 C 0.42325 0.605 0.34882 0.0
C1128 C 0.40352 0.58011 0.35471 0.0
C1129 C 0.37954 0.58919 0.36349 0.0
C1130 C 0.39692 0.72699 0.38993 0.0
C1131 C 0.35418 0.69499 0.41418 0.0
C1132 C 0.28844 0.79067 0.39836 0.0
C1133 C 0.30374 0.82303 0.39471 0.0
C1134 C 0.33859 0.82418 0.3922 0.0
C1135 C 0.35567 0.85494 0.39219 0.0
C1136 C 0.33812 0.88534 0.39465 0.0
C1137 C 0.30223 0.88434 0.39478 0.0
C1138 C 0.2852 0.85325 0.39515 0.0
C1139 C 0.27478 0.67916 0.40948 0.0
O1140 O 0.3305 0.71259 0.36778 0.0
O1141 O 0.28714 0.73881 0.37539 0.0
O1142 O 0.36341 0.64022 0.38633 0.0
O1143 O 0.32613 0.65322 0.3726 0.0
O1144 O 0.39336 0.69474 0.39144 0.0
O1145 O 0.36649 0.7386 0.38739 0.0
O1146 O 0.34817 0.72618 0.4108 0.0
O1147 O 0.34583 0.67158 0.40644 0.0
O1148 O 0.3057 0.7739 0.4065 0.0
O1149 O 0.27828 0.77122 0.38954 0.0
O1150 O 0.283 0.70983 0.41227 0.0
O1151 O 0.28555 0.67675 0.39797 0.0
H1152 H 0.3923 0.67456 0.36346 0.0
H1153 H 0.43403 0.65876 0.34777 0.0
H1154 H 0.40549 0.5537 0.35215 0.0
H1155 H 0.3643 0.5697 0.36781 0.0
H1156 H 0.35324 0.80108 0.39148 0.0
H1157 H 0.38304 0.85383 0.39171 0.0
H1158 H 0.28737 0.90723 0.39581 0.0
H1159 H 0.25801 0.85284 0.39663 0.0
Ho1160 Ho 0.12099 0.5861 0.13457 0.0
Ho1161 Ho 0.08225 0.56033 0.13888 0.0
C1162 C 0.08152 0.55603 0.10994 0.0
C1163 C 0.18141 0.60064 0.12683 0.0
C1164 C 0.1955 0.62802 0.11922 0.0
C1165 C 0.18475 0.63312 0.10714 0.0
C1166 C 0.19826 0.6595 0.10018 0.0
C1167 C 0.22257 0.68155 0.10518 0.0
C1168 C 0.23243 0.677 0.11741 0.0
C1169 C 0.21914 0.65037 0.12433 0.0
C1170 C 0.08206 0.64647 0.13468 0.0
C1171 C 0.09457 0.60415 0.16006 0.0
C1172 C 1.02992 0.52548 0.14575 0.0
C1173 C 0.99486 0.53657 0.14756 0.0
C1174 C 0.98401 0.56688 0.14202 0.0
C1175 C 0.95844 0.58615 0.14746 0.0
C1176 C 0.94395 0.57531 0.15851 0.0
C1177 C 0.95136 0.54276 0.163 0.0
C1178 C 0.97675 0.52338 0.15751 0.0
C1179 C 0.13478 0.52964 0.15787 0.0
O1180 O 0.1039 0.57916 0.11353 0.0
O1181 O 0.06942 0.54017 0.11948 0.0
O1182 O 0.16931 0.61038 0.13729 0.0
O1183 O 0.162 0.57827 0.12157 0.0
O1184 O 0.11356 0.64272 0.13763 0.0
O1185 O 0.07102 0.61605 0.13194 0.0
O1186 O 0.0679 0.59564 0.15394 0.0
O1187 O 0.12342 0.59799 0.15469 0.0
O1188 O 0.0509 0.5398 0.15327 0.0
O1189 O 0.0414 0.52551 0.13456 0.0
O1190 O 0.13153 0.53441 0.14586 0.0
O1191 O 0.13062 0.53509 0.14581 0.0
H1192 H 0.16626 0.61651 0.10299 0.0
H1193 H 0.19059 0.66167 0.09071 0.0
H1194 H 0.25084 0.69363 0.12158 0.0
H1195 H 0.22745 0.64714 0.1337 0.0
H1196 H 0.998 0.57766 0.1344 0.0
H1197 H 0.95322 0.61131 0.14393 0.0
H1198 H 0.94036 0.53408 0.17154 0.0
H1199 H 0.98501 0.5002 0.16194 0.0
Ho1200 Ho 0.20871 0.37212 0.89013 0.0
Ho1201 Ho 0.23492 0.33362 0.89421 0.0
C1202 C 0.2377 0.33244 0.86522 0.0
C1203 C 0.19624 0.43357 0.88299 0.0
C1204 C 0.17271 0.45021 0.87452 0.0
C1205 C 0.16408 0.43534 0.86333 0.0
C1206 C 0.14303 0.45257 0.85515 0.0
C1207 C 0.13006 0.48481 0.85808 0.0
C1208 C 0.13724 0.49863 0.86961 0.0
C1209 C 0.1585 0.48149 0.87774 0.0
C1210 C 0.14834 0.33381 0.89002 0.0
C1211 C 0.19115 0.34214 0.91559 0.0
C1212 C 0.27455 0.28289 0.89872 0.0
C1213 C 0.26922 0.24679 0.89662 0.0
C1214 C 0.23663 0.23548 0.8937 0.0
C1215 C 0.22837 0.2015 0.89521 0.0
C1216 C 0.25271 0.1784 0.89971 0.0
C1217 C 0.2869 0.18895 0.90016 0.0
C1218 C 0.29497 0.22327 0.89897 0.0
C1219 C 0.26166 0.3868 0.91392 0.0
O1220 O 0.21671 0.35692 0.8689 0.0
O1221 O 0.25168 0.31814 0.87468 0.0
O1222 O 0.18226 0.41968 0.89251 0.0
O1223 O 0.22005 0.41463 0.87824 0.0
O1224 O 0.15195 0.36541 0.89273 0.0
O1225 O 0.17896 0.32236 0.88741 0.0
O1226 O 0.20297 0.31641 0.90967 0.0
O1227 O 0.19432 0.37152 0.91019 0.0
O1228 O 0.25419 0.29619 0.90685 0.0
O1229 O 0.27697 0.30142 0.88888 0.0
O1230 O 0.25938 0.38272 0.90184 0.0
O1231 O 0.25862 0.3817 0.90184 0.0
H1232 H 0.17434 0.4109 0.86075 0.0
H1233 H 0.13844 0.44135 0.84629 0.0
H1234 H 0.12727 0.52317 0.87221 0.0
H1235 H 0.16444 0.493 0.88646 0.0
H1236 H 0.21668 0.25342 0.89148 0.0
H1237 H 0.20188 0.19483 0.89438 0.0
H1238 H 0.3068 0.17154 0.90287 0.0
H1239 H 0.32061 0.23162 0.90081 0.0
Ho1240 Ho 0.44845 0.47041 0.6311 0.0
Ho1241 Ho 0.48149 0.49396 0.63908 0.0
C1242 C 0.49282 0.50088 0.60982 0.0
C1243 C 0.40426 0.49029 0.6154 0.0
C1244 C 0.40595 0.49638 0.60204 0.0
C1245 C 0.41794 0.52751 0.59743 0.0
C1246 C 0.4203 0.53321 0.58486 0.0
C1247 C 0.41019 0.50818 0.57656 0.0
C1248 C 0.39847 0.47695 0.58116 0.0
C1249 C 0.39638 0.47112 0.59375 0.0
C1250 C 0.48299 0.40871 0.63178 0.0
C1251 C 0.44342 0.43981 0.65542 0.0
C1252 C 0.54063 0.5114 0.64742 0.0
C1253 C 0.57261 0.49248 0.64755 0.0
C1254 C 0.57719 0.46497 0.6396 0.0
C1255 C 0.60243 0.44099 0.64192 0.0
C1256 C 0.62347 0.44448 0.65214 0.0
C1257 C 0.6213 0.47407 0.65924 0.0
C1258 C 0.59579 0.49785 0.657 0.0
C1259 C 0.42954 0.53309 0.65194 0.0
O1260 O 0.47992 0.47147 0.61279 0.0
O1261 O 0.49118 0.52035 0.61963 0.0
O1262 O 0.40617 0.45874 0.61922 0.0
O1263 O 0.42215 0.51121 0.6221 0.0
O1264 O 0.45015 0.41297 0.6309 0.0
O1265 O 0.49703 0.43909 0.63219 0.0
O1266 O 0.47261 0.45577 0.65453 0.0
O1267 O 0.42312 0.44315 0.64611 0.0
O1268 O 0.51683 0.49829 0.65413 0.0
O1269 O 0.5294 0.52017 0.63673 0.0
O1270 O 0.45657 0.54439 0.64643 0.0
O1271 O 0.42949 0.50158 0.64847 0.0
H1272 H 0.42564 0.54759 0.60353 0.0
H1273 H 0.42972 0.55741 0.58165 0.0
H1274 H 0.38971 0.45734 0.57504 0.0
H1275 H 0.38691 0.44696 0.59699 0.0
H1276 H 0.55971 0.46063 0.63215 0.0
H1277 H 0.60384 0.41846 0.63632 0.0
H1278 H 0.63702 0.47715 0.66727 0.0
H1279 H 0.59252 0.5189 0.66323 0.0
H1280 H 0.14281 0.3346 0.41055 0.0
H1281 H 0.09086 0.48354 0.45535 0.0
H1282 H 0.19625 0.42981 0.41028 0.0
H1283 H 0.11231 0.38191 0.46763 0.0
H1284 H 0.10505 0.46655 0.4343 0.0
H1285 H 0.10566 0.35619 0.42671 0.0
C1286 C 0.14571 0.3606 0.4135 0.0
C1287 C 0.17273 0.38049 0.4092 0.0
C1288 C 0.10561 0.44788 0.44158 0.0
C1289 C 0.1305 0.40498 0.42752 0.0
C1290 C 0.09754 0.45741 0.45349 0.0
C1291 C 0.10056 0.43388 0.46305 0.0
C1292 C 0.11576 0.41448 0.43932 0.0
C1293 C 0.10979 0.40055 0.4604 0.0
C1294 C 0.12472 0.37268 0.42276 0.0
C1295 C 0.17578 0.41377 0.41345 0.0
N1296 N 0.11715 0.39174 0.44871 0.0
N1297 N 0.15511 0.42493 0.42255 0.0
H1298 H 0.95535 0.9074 0.65301 0.0
H1299 H 0.81797 0.8462 0.70125 0.0
H1300 H 0.86237 0.96176 0.66031 0.0
H1301 H 0.92573 0.84837 0.70772 0.0
H1302 H 0.82792 0.86495 0.68011 0.0
H1303 H 0.93619 0.86184 0.66645 0.0
C1304 C 0.93015 0.90903 0.65695 0.0
C1305 C 0.91052 0.9386 0.65571 0.0
C1306 C 0.84938 0.86 0.68604 0.0
C1307 C 0.88882 0.88673 0.67106 0.0
C1308 C 0.8438 0.84937 0.69803 0.0
C1309 C 0.87119 0.84607 0.70609 0.0
C1310 C 0.88259 0.86664 0.68215 0.0
C1311 C 0.90413 0.85067 0.70167 0.0
C1312 C 0.91944 0.88311 0.66469 0.0
C1313 C 0.87834 0.93953 0.66118 0.0
N1314 N 0.90897 0.86107 0.68995 0.0
N1315 N 0.86867 0.91415 0.66884 0.0
H1316 H 0.42275 0.71546 0.90742 0.0
H1317 H 0.46499 0.57281 0.95649 0.0
H1318 H 0.37014 0.61976 0.90818 0.0
H1319 H 0.45007 0.67809 0.96523 0.0
H1320 H 0.45422 0.58585 0.9348 0.0
H1321 H 0.45833 0.69608 0.92431 0.0
C1322 C 0.4197 0.68977 0.91076 0.0
C1323 C 0.39319 0.66923 0.90652 0.0
C1324 C 0.45433 0.60613 0.94145 0.0
C1325 C 0.43365 0.64728 0.92578 0.0
C1326 C 0.46037 0.5988 0.95372 0.0
C1327 C 0.45805 0.62452 0.96246 0.0
C1328 C 0.44688 0.63952 0.938 0.0
C1329 C 0.45194 0.65774 0.95865 0.0
C1330 C 0.43982 0.67895 0.92045 0.0
C1331 C 0.39009 0.63639 0.9113 0.0
N1332 N 0.44642 0.66436 0.94662 0.0
N1333 N 0.40979 0.62653 0.92085 0.0
H1334 H 0.69071 0.22683 0.19964 0.0
H1335 H 0.6756 0.06672 0.15782 0.0
H1336 H 0.71991 0.12468 0.20921 0.0
H1337 H 0.64595 0.16674 0.14554 0.0
H1338 H 0.70907 0.09197 0.17363 0.0
H1339 H 0.6862 0.20921 0.17814 0.0
C1340 C 0.69609 0.20079 0.19722 0.0
C1341 C 0.70465 0.17693 0.20624 0.0
C1342 C 0.69555 0.10856 0.1674 0.0
C1343 C 0.70077 0.15699 0.18181 0.0
C1344 C 0.67657 0.09406 0.15811 0.0
C1345 C 0.65546 0.1144 0.15077 0.0
C1346 C 0.69278 0.14347 0.16956 0.0
C1347 C 0.65949 0.14978 0.1516 0.0
C1348 C 0.69397 0.19086 0.18497 0.0
C1349 C 0.71224 0.14373 0.20263 0.0
N1350 N 0.67643 0.16326 0.16123 0.0
N1351 N 0.70991 0.13477 0.19074 0.0
H1352 H 0.12904 0.71737 0.22401 0.0
H1353 H 0.11136 0.56281 0.1786 0.0
H1354 H 0.19328 0.62878 0.22368 0.0
H1355 H 0.07531 0.66357 0.17082 0.0
H1356 H 0.12214 0.57919 0.19972 0.0
H1357 H 0.09099 0.68979 0.20948 0.0
C1358 C 0.13441 0.69158 0.22123 0.0
C1359 C 0.16452 0.67537 0.22484 0.0
C1360 C 0.11112 0.59754 0.1935 0.0
C1361 C 0.12151 0.64408 0.20827 0.0
C1362 C 0.1051 0.58823 0.18147 0.0
C1363 C 0.09318 0.61216 0.17306 0.0
C1364 C 0.10564 0.6312 0.19703 0.0
C1365 C 0.08485 0.64463 0.17713 0.0
C1366 C 0.11284 0.67603 0.2129 0.0
C1367 C 0.17051 0.64218 0.22095 0.0
N1368 N 0.0919 0.65352 0.18885 0.0
N1369 N 0.14942 0.62777 0.2127 0.0
H1370 H 0.73737 0.8363 0.43404 0.0
H1371 H 0.59707 0.88869 0.48249 0.0
H1372 H 0.63104 0.84978 0.42634 0.0
H1373 H 0.69454 0.93794 0.48039 0.0
H1374 H 0.61598 0.84786 0.46735 0.0
H1375 H 0.72617 0.84874 0.45573 0.0
C1376 C 0.71153 0.84082 0.43705 0.0
C1377 C 0.68499 0.84237 0.42857 0.0
C1378 C 0.63367 0.86676 0.47059 0.0
C1379 C 0.67209 0.85552 0.45307 0.0
C1380 C 0.62311 0.88992 0.47937 0.0
C1381 C 0.6441 0.91719 0.48257 0.0
C1382 C 0.66546 0.8708 0.46507 0.0
C1383 C 0.67741 0.91763 0.478 0.0
C1384 C 0.70524 0.84781 0.44934 0.0
C1385 C 0.65201 0.84847 0.43271 0.0
N1386 N 0.68688 0.8952 0.46922 0.0
N1387 N 0.64645 0.85504 0.44472 0.0
H1388 H 0.46607 0.45582 0.67838 0.0
H1389 H 0.288 0.40072 0.70612 0.0
H1390 H 0.38752 0.40174 0.65924 0.0
H1391 H 0.37295 0.42275 0.72976 0.0
H1392 H 0.3222 0.41542 0.68868 0.0
H1393 H 0.43235 0.45157 0.69727 0.0
C1394 C 0.44224 0.44222 0.67823 0.0
C1395 C 0.42941 0.42913 0.66726 0.0
C1396 C 0.33335 0.41732 0.69769 0.0
C1397 C 0.39052 0.42556 0.68852 0.0
C1398 C 0.3135 0.40962 0.7078 0.0
C1399 C 0.32777 0.40924 0.71957 0.0
C1400 C 0.36783 0.42457 0.69926 0.0
C1401 C 0.36122 0.42124 0.72085 0.0
C1402 C 0.42284 0.44032 0.68894 0.0
C1403 C 0.39824 0.41227 0.66749 0.0
N1404 N 0.38049 0.42767 0.71077 0.0
N1405 N 0.3797 0.41132 0.67792 0.0
H1406 H 0.93033 0.17872 0.9863 0.0
H1407 H 0.87572 0.24304 0.93194 0.0
H1408 H 0.88637 0.08537 0.9735 0.0
H1409 H 0.82834 0.1458 0.92679 0.0
H1410 H 0.88454 0.22893 0.95348 0.0
H1411 H 0.89471 0.20995 0.97202 0.0
C1412 C 0.91257 0.16481 0.98069 0.0
C1413 C 0.91308 0.12919 0.9805 0.0
C1414 C 0.87166 0.21081 0.94777 0.0
C1415 C 0.87262 0.16459 0.96402 0.0
C1416 C 0.86706 0.21881 0.93541 0.0
C1417 C 0.8526 0.195 0.92755 0.0
C1418 C 0.8613 0.17887 0.9522 0.0
C1419 C 0.84084 0.1644 0.93245 0.0
C1420 C 0.89239 0.18271 0.97242 0.0
C1421 C 0.88805 0.1127 0.97368 0.0
N1422 N 0.84574 0.15715 0.94441 0.0
N1423 N 0.86958 0.13048 0.96545 0.0
H1424 H 0.78807 0.63238 0.71969 0.0
H1425 H 0.96217 0.61425 0.68468 0.0
H1426 H 0.8845 0.64551 0.73787 0.0
H1427 H 0.8616 0.61255 0.6691 0.0
H1428 H 0.9364 0.61227 0.70524 0.0
H1429 H 0.81673 0.60433 0.70324 0.0
C1430 C 0.81518 0.62903 0.72052 0.0
C1431 C 0.83405 0.64465 0.72983 0.0
C1432 C 0.92017 0.61203 0.69726 0.0
C1433 C 0.8673 0.61358 0.71038 0.0
C1434 C 0.93479 0.61377 0.68558 0.0
C1435 C 0.91397 0.61431 0.6752 0.0
C1436 C 0.88465 0.61048 0.69844 0.0
C1437 C 0.87871 0.61274 0.67683 0.0
C1438 C 0.83173 0.61319 0.71087 0.0
C1439 C 0.86904 0.63705 0.73033 0.0
N1440 N 0.86528 0.61096 0.68818 0.0
N1441 N 0.8849 0.62357 0.72042 0.0
H1442 H 0.1558 0.04444 0.46218 0.0
H1443 H 0.21185 0.21578 0.42961 0.0
H1444 H 0.15861 0.13845 0.48237 0.0
H1445 H 0.17175 0.12649 0.41222 0.0
H1446 H 0.20449 0.18776 0.44966 0.0
H1447 H 0.18072 0.07284 0.4449 0.0
C1448 C 0.16243 0.07082 0.46324 0.0
C1449 C 0.15336 0.08926 0.47373 0.0
C1450 C 0.19731 0.17456 0.4414 0.0
C1451 C 0.18056 0.12244 0.45343 0.0
C1452 C 0.201 0.19063 0.43002 0.0
C1453 C 0.19231 0.17338 0.41928 0.0
C1454 C 0.1854 0.14108 0.44185 0.0
C1455 C 0.17887 0.1407 0.42026 0.0
C1456 C 0.17619 0.08724 0.45317 0.0
C1457 C 0.16333 0.12351 0.47427 0.0
N1458 N 0.17609 0.1256 0.43131 0.0
N1459 N 0.17546 0.13936 0.4641 0.0
H1460 H 0.61766 0.38631 0.17229 0.0
H1461 H 0.70086 0.43568 0.23007 0.0
H1462 H 0.58778 0.48409 0.18609 0.0
H1463 H 0.64962 0.33926 0.22938 0.0
H1464 H 0.66084 0.45697 0.21467 0.0
H1465 H 0.63222 0.36871 0.1932 0.0
C1466 C 0.61363 0.40373 0.1798 0.0
C1467 C 0.60145 0.43643 0.17765 0.0
C1468 C 0.65765 0.43161 0.21829 0.0
C1469 C 0.61879 0.41718 0.20125 0.0
C1470 C 0.68034 0.41953 0.22708 0.0
C1471 C 0.67875 0.38562 0.23088 0.0
C1472 C 0.63417 0.40921 0.21312 0.0
C1473 C 0.6518 0.36558 0.22668 0.0
C1474 C 0.62168 0.39374 0.19167 0.0
C1475 C 0.59686 0.45848 0.18755 0.0
N1476 N 0.63127 0.37729 0.21768 0.0
N1477 N 0.60643 0.44876 0.19896 0.0
H1478 H 0.39445 0.82279 0.927 0.0
H1479 H 0.36476 0.97016 0.97542 0.0
H1480 H 0.3431 0.91786 0.92055 0.0
H1481 H 0.44786 0.89901 0.97779 0.0
H1482 H 0.34019 0.93612 0.95908 0.0
H1483 H 0.40021 0.83823 0.94874 0.0
C1484 C 0.38439 0.84677 0.93018 0.0
C1485 C 0.36919 0.86955 0.92199 0.0
C1486 C 0.36332 0.92749 0.96344 0.0
C1487 C 0.37419 0.88646 0.94662 0.0
C1488 C 0.37722 0.9468 0.97278 0.0
C1489 C 0.40889 0.93798 0.97766 0.0
C1490 C 0.38143 0.89948 0.95894 0.0
C1491 C 0.42362 0.90703 0.97414 0.0
C1492 C 0.38734 0.85536 0.94253 0.0
C1493 C 0.35587 0.89998 0.92651 0.0
N1494 N 0.41024 0.8893 0.96471 0.0
N1495 N 0.35875 0.90756 0.93851 0.0
H1496 H 0.86074 0.44093 0.90514 0.0
H1497 H 0.93434 0.38134 0.96337 0.0
H1498 H 0.9026 0.33985 0.90542 0.0
H1499 H 0.9788 0.47354 0.94954 0.0
H1500 H 0.91841 0.36612 0.94238 0.0
H1501 H 0.90138 0.4568 0.92113 0.0
C1502 C 0.87942 0.42259 0.90818 0.0
C1503 C 0.87836 0.38909 0.904 0.0
C1504 C 0.9324 0.38928 0.94395 0.0
C1505 C 0.92341 0.40651 0.92241 0.0
C1506 C 0.94128 0.39792 0.95586 0.0
C1507 C 0.95798 0.42846 0.95802 0.0
C1508 C 0.93908 0.41207 0.93436 0.0
C1509 C 0.96623 0.44953 0.9481 0.0
C1510 C 0.90244 0.43156 0.91729 0.0
C1511 C 0.90277 0.36602 0.90833 0.0
N1512 N 0.95584 0.4414 0.93665 0.0
N1513 N 0.92358 0.37483 0.91762 0.0
H1514 H 0.37991 0.11755 0.66094 0.0
H1515 H 0.42251 0.21419 0.7179 0.0
H1516 H 0.47227 0.17587 0.66142 0.0
H1517 H 0.32016 0.22223 0.70447 0.0
H1518 H 0.44191 0.20036 0.69714 0.0
H1519 H 0.3557 0.15574 0.67635 0.0
C1520 C 0.39457 0.13906 0.664 0.0
C1521 C 0.42807 0.1436 0.66001 0.0
C1522 C 0.41533 0.20605 0.69868 0.0
C1523 C 0.40127 0.18626 0.67776 0.0
C1524 C 0.40438 0.2138 0.71047 0.0
C1525 C 0.3699 0.2192 0.71269 0.0
C1526 C 0.39131 0.20248 0.6893 0.0
C1527 C 0.34701 0.21808 0.70294 0.0
C1528 C 0.38084 0.16079 0.67275 0.0
C1529 C 0.44628 0.17165 0.66428 0.0
N1530 N 0.35798 0.20894 0.69165 0.0
N1531 N 0.43301 0.19141 0.67322 0.0
H1532 H 0.7112 0.61928 0.40829 0.0
H1533 H 0.59847 0.67242 0.45857 0.0
H1534 H 0.65068 0.70931 0.40291 0.0
H1535 H 0.5954 0.56705 0.44868 0.0
H1536 H 0.61425 0.68667 0.43746 0.0
H1537 H 0.66687 0.59683 0.42182 0.0
C1538 C 0.68802 0.63366 0.40958 0.0
C1539 C 0.68471 0.66627 0.40462 0.0
C1540 C 0.60901 0.66051 0.4398 0.0
C1541 C 0.63483 0.64148 0.42027 0.0
C1542 C 0.60005 0.6525 0.4518 0.0
C1543 C 0.5959 0.61865 0.45518 0.0
C1544 C 0.61517 0.63427 0.43142 0.0
C1545 C 0.59871 0.59345 0.44626 0.0
C1546 C 0.66276 0.62091 0.41727 0.0
C1547 C 0.65424 0.68405 0.40658 0.0
N1548 N 0.60926 0.60161 0.4348 0.0
N1549 N 0.63092 0.67193 0.4146 0.0
H1550 H 0.18746 0.83006 0.20641 0.0
H1551 H 0.17192 0.99532 0.16545 0.0
H1552 H 0.16957 0.93208 0.21905 0.0
H1553 H 0.15642 0.89544 0.15047 0.0
H1554 H 0.19308 0.96986 0.184 0.0
H1555 H 0.19002 0.85156 0.18533 0.0
C1556 C 0.18344 0.85682 0.20474 0.0
C1557 C 0.17806 0.87934 0.21447 0.0
C1558 C 0.18559 0.95346 0.17657 0.0
C1559 C 0.18266 0.904 0.19063 0.0
C1560 C 0.17404 0.96801 0.16578 0.0
C1561 C 0.16012 0.94747 0.15661 0.0
C1562 C 0.18298 0.91834 0.17819 0.0
C1563 C 0.16485 0.91224 0.15764 0.0
C1564 C 0.18553 0.86907 0.19276 0.0
C1565 C 0.17352 0.91377 0.21183 0.0
N1566 N 0.17457 0.89858 0.1685 0.0
N1567 N 0.17617 0.92505 0.20018 0.0
H1568 H 0.58957 0.98652 0.95525 0.0
H1569 H 0.64542 0.83952 0.91011 0.0
H1570 H 0.61172 0.88478 0.96724 0.0
H1571 H 0.69572 0.93647 0.90965 0.0
H1572 H 0.6084 0.85972 0.92652 0.0
H1573 H 0.60541 0.97049 0.93425 0.0
C1574 C 0.59673 0.96055 0.95334 0.0
C1575 C 0.59935 0.93672 0.96282 0.0
C1576 C 0.62677 0.87686 0.9225 0.0
C1577 C 0.61658 0.91839 0.9391 0.0
C1578 C 0.64769 0.86557 0.91308 0.0
C1579 C 0.67382 0.88638 0.90861 0.0
C1580 C 0.63167 0.90928 0.92729 0.0
C1581 C 0.67599 0.91968 0.91294 0.0
C1582 C 0.60581 0.95157 0.94145 0.0
C1583 C 0.60937 0.90364 0.96008 0.0
N1584 N 0.65539 0.93007 0.92219 0.0
N1585 N 0.61765 0.89536 0.94841 0.0
H1586 H 0.31983 0.3357 0.20095 0.0
H1587 H 0.46119 0.39192 0.15374 0.0
H1588 H 0.42767 0.33248 0.20719 0.0
H1589 H 0.36605 0.44424 0.15883 0.0
H1590 H 0.44073 0.34589 0.16664 0.0
H1591 H 0.33043 0.3512 0.17951 0.0
C1592 C 0.34574 0.33676 0.1976 0.0
C1593 C 0.37306 0.33294 0.20566 0.0
C1594 C 0.42383 0.36677 0.16451 0.0
C1595 C 0.38517 0.35038 0.18145 0.0
C1596 C 0.43532 0.39293 0.15704 0.0
C1597 C 0.41536 0.42206 0.15533 0.0
C1598 C 0.39225 0.36991 0.17029 0.0
C1599 C 0.38231 0.42236 0.16009 0.0
C1600 C 0.3517 0.34567 0.18545 0.0
C1601 C 0.40612 0.33523 0.20114 0.0
N1602 N 0.37196 0.39691 0.1676 0.0
N1603 N 0.41133 0.3442 0.18929 0.0
H1604 H 0.96366 0.07361 0.45619 0.0
H1605 H 0.90819 0.21118 0.40726 0.0
H1606 H 0.94063 0.17699 0.46563 0.0
H1607 H 0.85213 0.11803 0.41124 0.0
H1608 H 0.94617 0.19286 0.42363 0.0
H1609 H 0.94747 0.08575 0.43486 0.0
C1610 C 0.95623 0.0991 0.45363 0.0
C1611 C 0.95322 0.12446 0.46249 0.0
C1612 C 0.92632 0.17597 0.42057 0.0
C1613 C 0.93596 0.13848 0.43843 0.0
C1614 C 0.90481 0.18617 0.41119 0.0
C1615 C 0.8769 0.16606 0.40797 0.0
C1616 C 0.9202 0.14527 0.42657 0.0
C1617 C 0.8733 0.13422 0.41353 0.0
C1618 C 0.94705 0.10589 0.44156 0.0
C1619 C 0.94325 0.15697 0.45894 0.0
N1620 N 0.89455 0.12489 0.42272 0.0
N1621 N 0.93487 0.16313 0.44711 0.0
H1622 H 0.19001 0.60981 0.65099 0.0
H1623 H 0.1719 0.74914 0.70292 0.0
H1624 H 0.10325 0.6762 0.65395 0.0
H1625 H 0.22699 0.6547 0.7049 0.0
H1626 H 0.16048 0.73788 0.68108 0.0
H1627 H 0.2197 0.64465 0.66593 0.0
C1628 C 0.17772 0.63245 0.65442 0.0
C1629 C 0.14378 0.63946 0.65157 0.0
C1630 C 0.17564 0.72013 0.68632 0.0
C1631 C 0.17706 0.67874 0.66881 0.0
C1632 C 0.18187 0.72637 0.69873 0.0
C1633 C 0.19959 0.70236 0.70571 0.0
C1634 C 0.18822 0.69027 0.68096 0.0
C1635 C 0.21251 0.6735 0.6999 0.0
C1636 C 0.19455 0.65221 0.663 0.0
C1637 C 0.12924 0.66951 0.65608 0.0
N1638 N 0.20649 0.66824 0.6879 0.0
N1639 N 0.14558 0.68754 0.66482 0.0
H1640 H 0.68855 0.15221 0.65712 0.0
H1641 H 0.68579 0.14358 0.72977 0.0
H1642 H 0.60446 0.10881 0.67704 0.0
H1643 H 0.77287 0.17031 0.70763 0.0
H1644 H 0.65592 0.12694 0.71114 0.0
H1645 H 0.71884 0.15946 0.67621 0.0
C1646 C 0.67624 0.14472 0.66557 0.0
C1647 C 0.64403 0.12992 0.66553 0.0
C1648 C 0.68183 0.13584 0.71046 0.0
C1649 C 0.67889 0.1373 0.68746 0.0
C1650 C 0.69899 0.14521 0.72109 0.0
C1651 C 0.73162 0.15948 0.72032 0.0
C1652 C 0.69759 0.14068 0.69907 0.0
C1653 C 0.74776 0.15984 0.70885 0.0
C1654 C 0.69372 0.14842 0.67647 0.0
C1655 C 0.62922 0.1206 0.67673 0.0
N1656 N 0.73034 0.15129 0.69869 0.0
N1657 N 0.6469 0.1243 0.68731 0.0
H1658 H 0.2373 0.335 0.93347 0.0
H1659 H 0.10008 0.38874 0.98258 0.0
H1660 H 0.13003 0.34606 0.92705 0.0
H1661 H 0.19562 0.4403 0.97792 0.0
H1662 H 0.11925 0.34493 0.96856 0.0
H1663 H 0.22776 0.34656 0.9553 0.0
C1664 C 0.21161 0.33863 0.9368 0.0
C1665 C 0.18432 0.34004 0.92864 0.0
C1666 C 0.13658 0.36501 0.97107 0.0
C1667 C 0.17334 0.35218 0.95329 0.0
C1668 C 0.12585 0.3899 0.97917 0.0
C1669 C 0.14613 0.41849 0.98123 0.0
C1670 C 0.16777 0.3688 0.96509 0.0
C1671 C 0.17906 0.41891 0.97636 0.0
C1672 C 0.20627 0.34508 0.94917 0.0
C1673 C 0.15157 0.34499 0.93318 0.0
N1674 N 0.18866 0.39476 0.96824 0.0
N1675 N 0.14695 0.3512 0.94526 0.0
H1676 H 0.89281 0.89619 0.16194 0.0
H1677 H 0.80414 0.91464 0.21314 0.0
H1678 H 0.97316 0.95438 0.17835 0.0
H1679 H 0.89997 0.90727 0.23221 0.0
H1680 H 0.83425 0.93047 0.19478 0.0
H1681 H 0.86485 0.89258 0.18177 0.0
C1682 C 0.90483 0.90773 0.16978 0.0
C1683 C 0.93506 0.92589 0.16852 0.0
C1684 C 0.84865 0.92545 0.20302 0.0
C1685 C 0.90246 0.92332 0.19107 0.0
C1686 C 0.83142 0.91714 0.21369 0.0
C1687 C 0.84952 0.90775 0.22424 0.0
C1688 C 0.88416 0.92393 0.20281 0.0
C1689 C 0.88499 0.91236 0.22413 0.0
C1690 C 0.88853 0.90631 0.18103 0.0
C1691 C 0.94978 0.94015 0.179 0.0
N1692 N 0.90138 0.91918 0.21343 0.0
N1693 N 0.93315 0.93876 0.18991 0.0
H1694 H 0.4014 0.63776 0.48945 0.0
H1695 H 0.33947 0.72512 0.43635 0.0
H1696 H 0.39055 0.5512 0.46565 0.0
H1697 H 0.39041 0.63999 0.41977 0.0
H1698 H 0.34553 0.69726 0.45654 0.0
H1699 H 0.37859 0.6738 0.47318 0.0
C1700 C 0.39346 0.62601 0.48101 0.0
C1701 C 0.40037 0.59151 0.47871 0.0
C1702 C 0.3558 0.68515 0.44847 0.0
C1703 C 0.37313 0.6324 0.46035 0.0
C1704 C 0.3528 0.70117 0.43703 0.0
C1705 C 0.36466 0.68474 0.42648 0.0
C1706 C 0.37033 0.65262 0.44908 0.0
C1707 C 0.3809 0.65342 0.4277 0.0
C1708 C 0.38015 0.64672 0.47176 0.0
C1709 C 0.38725 0.57763 0.4679 0.0
N1710 N 0.38285 0.63825 0.43874 0.0
N1711 N 0.37537 0.59829 0.45901 0.0
H1712 H 0.39926 0.14595 0.23924 0.0
H1713 H 0.36639 0.08858 0.17165 0.0
H1714 H 0.3018 0.12411 0.22308 0.0
H1715 H 0.46335 0.12453 0.18445 0.0
H1716 H 0.34722 0.08303 0.19253 0.0
H1717 H 0.4268 0.11774 0.22202 0.0
C1718 C 0.38348 0.13457 0.2323 0.0
C1719 C 0.34816 0.14032 0.23208 0.0
C1720 C 0.37273 0.09213 0.19085 0.0
C1721 C 0.37946 0.10689 0.21275 0.0
C1722 C 0.38362 0.0958 0.17888 0.0
C1723 C 0.4162 0.10818 0.17629 0.0
C1724 C 0.39403 0.10204 0.20042 0.0
C1725 C 0.43771 0.11581 0.18608 0.0
C1726 C 0.39934 0.11837 0.22249 0.0
C1727 C 0.32914 0.12228 0.22345 0.0
N1728 N 0.42595 0.11333 0.19778 0.0
N1729 N 0.34509 0.10733 0.21391 0.0
H1730 H 0.65255 0.64215 0.98408 0.0
H1731 H 0.72688 0.6208 0.91687 0.0
H1732 H 0.65669 0.54872 0.96353 0.0
H1733 H 0.68683 0.71611 0.92983 0.0
H1734 H 0.71796 0.59632 0.93692 0.0
H1735 H 0.68171 0.67067 0.96716 0.0
C1736 C 0.65992 0.62737 0.97619 0.0
C1737 C 0.65061 0.59303 0.97514 0.0
C1738 C 0.71117 0.62262 0.93544 0.0
C1739 C 0.68512 0.62543 0.95607 0.0
C1740 C 0.71595 0.63664 0.92394 0.0
C1741 C 0.70657 0.67033 0.92159 0.0
C1742 C 0.69648 0.64217 0.9447 0.0
C1743 C 0.69368 0.68982 0.93124 0.0
C1744 C 0.6767 0.64377 0.96658 0.0
C1745 C 0.66269 0.5751 0.96493 0.0
N1746 N 0.68848 0.67525 0.94241 0.0
N1747 N 0.67882 0.59163 0.95576 0.0
H1748 H 0.20749 0.93846 0.72445 0.0
H1749 H 0.09419 0.88745 0.67427 0.0
H1750 H 0.151 0.84585 0.72914 0.0
H1751 H 0.08525 0.99077 0.6863 0.0
H1752 H 0.11268 0.87104 0.69487 0.0
H1753 H 0.16175 0.96047 0.71145 0.0
C1754 C 0.18491 0.92334 0.7231 0.0
C1755 C 0.18305 0.89029 0.72775 0.0
C1756 C 0.10559 0.89714 0.69312 0.0
C1757 C 0.13162 0.91462 0.71272 0.0
C1758 C 0.09507 0.90638 0.68142 0.0
C1759 C 0.08843 0.94036 0.67878 0.0
C1760 C 0.11081 0.9224 0.70193 0.0
C1761 C 0.09045 0.96431 0.68814 0.0
C1762 C 0.15886 0.93585 0.71573 0.0
C1763 C 0.15337 0.87152 0.72572 0.0
N1764 N 0.10256 0.9551 0.69929 0.0
N1765 N 0.12925 0.88351 0.71801 0.0
H1766 H 0.97184 0.39292 0.47381 0.0
H1767 H 0.82615 0.33682 0.42809 0.0
H1768 H 0.8768 0.44668 0.47062 0.0
H1769 H 0.93136 0.34458 0.41773 0.0
H1770 H 0.84101 0.35426 0.44898 0.0
H1771 H 0.95204 0.35204 0.45865 0.0
C1772 C 0.94628 0.39533 0.47027 0.0
C1773 C 0.92588 0.42325 0.47334 0.0
C1774 C 0.86089 0.35098 0.44222 0.0
C1775 C 0.90335 0.37674 0.45619 0.0
C1776 C 0.85252 0.34109 0.43039 0.0
C1777 C 0.87769 0.33962 0.42136 0.0
C1778 C 0.89472 0.35863 0.44494 0.0
C1779 C 0.91144 0.34545 0.42457 0.0
C1780 C 0.93518 0.37215 0.4616 0.0
C1781 C 0.89323 0.42556 0.46838 0.0
N1782 N 0.91905 0.35499 0.43615 0.0
N1783 N 0.88302 0.40271 0.45991 0.0
H1784 H 0.48432 0.94861 0.44758 0.0
H1785 H 0.40628 0.9047 0.39226 0.0
H1786 H 0.381 0.94311 0.46068 0.0
H1787 H 0.31362 0.93316 0.41091 0.0
H1788 H 0.43855 0.92735 0.40926 0.0
H1789 H 0.46293 0.94751 0.42647 0.0
C1790 C 0.45727 0.94666 0.44601 0.0
C1791 C 0.43444 0.94537 0.45588 0.0
C1792 C 0.4112 0.92954 0.40947 0.0
C1793 C 0.40977 0.945 0.43194 0.0
C1794 C 0.39252 0.91623 0.39975 0.0
C1795 C 0.35683 0.91391 0.40055 0.0
C1796 C 0.39384 0.94163 0.41979 0.0
C1797 C 0.34088 0.93225 0.40996 0.0
C1798 C 0.44503 0.94636 0.43397 0.0
C1799 C 0.39964 0.94378 0.45339 0.0
N1800 N 0.35947 0.9443 0.41936 0.0
N1801 N 0.38852 0.94373 0.44173 0.0
H1802 H 0.91541 0.72192 0.21615 0.0
H1803 H 0.97138 0.59423 0.17979 0.0
H1804 H 0.81821 0.68082 0.20617 0.0
H1805 H 0.88672 0.615 0.15599 0.0
H1806 H 0.95122 0.63784 0.19375 0.0
H1807 H 0.94005 0.69717 0.1975 0.0
C1808 C 0.89914 0.70874 0.20978 0.0
C1809 C 0.86503 0.70297 0.21257 0.0
C1810 C 0.93735 0.6334 0.18537 0.0
C1811 C 0.89269 0.67418 0.19172 0.0
C1812 C 0.9484 0.60807 0.17756 0.0
C1813 C 0.93017 0.60079 0.16692 0.0
C1814 C 0.90764 0.65137 0.18259 0.0
C1815 C 0.90103 0.61976 0.16424 0.0
C1816 C 0.91315 0.69434 0.19928 0.0
C1817 C 0.84477 0.68542 0.20424 0.0
N1818 N 0.89013 0.64389 0.17221 0.0
N1819 N 0.85901 0.67123 0.19418 0.0
H1820 H 0.19433 0.13879 0.8977 0.0
H1821 H 0.19327 0.14806 0.96923 0.0
H1822 H 0.28343 0.15157 0.9202 0.0
H1823 H 0.11029 0.10092 0.9501 0.0
H1824 H 0.22555 0.14951 0.95035 0.0
H1825 H 0.16341 0.11889 0.91575 0.0
C1826 C 0.20778 0.13668 0.90629 0.0
C1827 C 0.24085 0.14972 0.90754 0.0
C1828 C 0.20028 0.13879 0.95022 0.0
C1829 C 0.2059 0.12638 0.92803 0.0
C1830 C 0.18159 0.13857 0.96097 0.0
C1831 C 0.14909 0.12442 0.96121 0.0
C1832 C 0.18629 0.12515 0.93953 0.0
C1833 C 0.13521 0.11236 0.95024 0.0
C1834 C 0.19 0.12531 0.91659 0.0
C1835 C 0.25754 0.14369 0.9187 0.0
N1836 N 0.15396 0.113 0.93977 0.0
N1837 N 0.23954 0.13357 0.92859 0.0
H1838 H 0.59639 0.38278 0.65668 0.0
H1839 H 0.73914 0.34272 0.70565 0.0
H1840 H 0.68933 0.43944 0.65997 0.0
H1841 H 0.63165 0.33987 0.71285 0.0
H1842 H 0.7274 0.35394 0.68398 0.0
H1843 H 0.6175 0.34236 0.67186 0.0
C1844 C 0.62192 0.38581 0.66017 0.0
C1845 C 0.64104 0.41472 0.65728 0.0
C1846 C 0.70646 0.3497 0.69024 0.0
C1847 C 0.66496 0.36888 0.67455 0.0
C1848 C 0.71307 0.34344 0.70254 0.0
C1849 C 0.68619 0.34088 0.71087 0.0
C1850 C 0.67275 0.35293 0.68636 0.0
C1851 C 0.65288 0.34192 0.70658 0.0
C1852 C 0.63375 0.3629 0.66888 0.0
C1853 C 0.67376 0.41766 0.66212 0.0
N1854 N 0.64701 0.34825 0.69455 0.0
N1855 N 0.68453 0.39528 0.67073 0.0
H1856 H 0.09983 0.19068 0.38184 0.0
H1857 H 0.97159 0.35621 0.38528 0.0
H1858 H 0.13804 0.29225 0.38344 0.0
H1859 H 0.93388 0.25538 0.38002 0.0
H1860 H 1.0301 0.33401 0.38505 0.0
H1861 H 0.04144 0.21307 0.38158 0.0
C1862 C 0.0966 0.21789 0.38211 0.0
C1863 C 0.12631 0.23872 0.38261 0.0
C1864 C 1.0094 0.31636 0.38389 0.0
C1865 C 0.055 0.2661 0.38243 0.0
C1866 C 0.97499 0.32925 0.384 0.0
C1867 C 0.94542 0.30859 0.38255 0.0
C1868 C 1.01677 0.28137 0.38243 0.0
C1869 C 0.95418 0.27352 0.38107 0.0
C1870 C 0.06224 0.23088 0.38197 0.0
C1871 C 0.11767 0.27405 0.383 0.0
N1872 N 0.98791 0.26162 0.38109 0.0
N1873 N 0.08396 0.28602 0.38294 0.0
H1874 H 0.93791 0.72185 0.63971 0.0
H1875 H 0.10418 0.84884 0.64177 0.0
H1876 H 0.03988 0.68328 0.63871 0.0
H1877 H 1.00296 0.88751 0.63739 0.0
H1878 H 0.08179 0.79063 0.6413 0.0
H1879 H 0.96031 0.78012 0.63951 0.0
C1880 C 0.96519 0.725 0.63941 0.0
C1881 C 0.98611 0.69524 0.63915 0.0
C1882 C 0.06408 0.81148 0.64039 0.0
C1883 C 1.01353 0.76634 0.63907 0.0
C1884 C 0.07708 0.84573 0.64064 0.0
C1885 C 0.05639 0.87549 0.63952 0.0
C1886 C 1.02891 0.80444 0.63915 0.0
C1887 C 1.02114 0.86706 0.63821 0.0
C1888 C 0.97819 0.75927 0.6393 0.0
C1889 C 1.02155 0.70372 0.63883 0.0
N1890 N 1.00913 0.83348 0.63812 0.0
N1891 N 0.03351 0.7373 0.63886 0.0
H1892 H 0.47279 0.86026 0.88585 0.0
H1893 H 0.60091 0.69403 0.88739 0.0
H1894 H 0.43439 0.7587 0.88473 0.0
H1895 H 0.63893 0.79538 0.884 0.0
H1896 H 0.54238 0.71634 0.88702 0.0
H1897 H 0.5312 0.83776 0.88578 0.0
C1898 C 0.47598 0.83304 0.88556 0.0
C1899 C 0.44619 0.81229 0.88522 0.0
C1900 C 0.56316 0.73411 0.88634 0.0
C1901 C 0.51757 0.7847 0.88528 0.0
C1902 C 0.5976 0.72116 0.88655 0.0
C1903 C 0.62731 0.74195 0.8857 0.0
C1904 C 0.55585 0.7693 0.88538 0.0
C1905 C 0.61858 0.77719 0.88468 0.0
C1906 C 0.51037 0.81998 0.88552 0.0
C1907 C 0.4548 0.77691 0.88492 0.0
N1908 N 0.58485 0.78914 0.8846 0.0
N1909 N 0.48851 0.76486 0.885 0.0
H1910 H 0.43452 0.22182 0.14088 0.0
H1911 H 0.60181 0.34773 0.14151 0.0
H1912 H 0.5361 0.1828 0.13827 0.0
H1913 H 0.50105 0.3876 0.13744 0.0
H1914 H 0.57879 0.28986 0.14122 0.0
H1915 H 0.45719 0.28 0.14058 0.0
C1916 C 0.46176 0.22481 0.14021 0.0
C1917 C 0.48243 0.19488 0.13953 0.0
C1918 C 0.56124 0.31088 0.1404 0.0
C1919 C 0.51027 0.26604 0.13934 0.0
C1920 C 0.57462 0.34501 0.14056 0.0
C1921 C 0.55429 0.37511 0.13957 0.0
C1922 C 0.52597 0.30415 0.13936 0.0
C1923 C 0.51892 0.36697 0.1384 0.0
C1924 C 0.47493 0.25908 0.14004 0.0
C1925 C 0.51787 0.20329 0.13876 0.0
N1926 N 0.5065 0.33347 0.1384 0.0
N1927 N 0.53001 0.23686 0.13875 0.0
H1928 H 0.91785 0.80241 0.25333 0.0
H1929 H 0.12659 0.76594 0.24837 0.0
H1930 H 0.95967 0.70367 0.24659 0.0
H1931 H 0.08552 0.86555 0.25377 0.0
H1932 H 0.06773 0.74326 0.24802 0.0
H1933 H 0.97668 0.82541 0.25384 0.0
C1934 C 0.93885 0.78508 0.25199 0.0
C1935 C 0.93147 0.75005 0.24995 0.0
C1936 C 0.0712 0.77018 0.24933 0.0
C1937 C 1.00285 0.77775 0.25053 0.0
C1938 C 0.10573 0.78348 0.24957 0.0
C1939 C 0.11338 0.81859 0.25119 0.0
C1940 C 0.04183 0.79135 0.25074 0.0
C1941 C 0.08291 0.83852 0.25253 0.0
C1942 C 0.97335 0.79859 0.25226 0.0
C1943 C 0.96208 0.73055 0.24825 0.0
N1944 N 0.04998 0.82507 0.2523 0.0
N1945 N 0.99489 0.74417 0.24859 0.0
H1946 H 0.55097 0.88156 0.49669 0.0
H1947 H 0.51531 0.67347 0.49546 0.0
H1948 H 0.45196 0.83965 0.49093 0.0
H1949 H 0.6158 0.71489 0.49316 0.0
H1950 H 0.49214 0.7322 0.49544 0.0
H1951 H 0.57467 0.82295 0.49693 0.0
C1952 C 0.53381 0.86054 0.49547 0.0
C1953 C 0.49858 0.86775 0.49369 0.0
C1954 C 0.51937 0.7288 0.49501 0.0
C1955 C 0.52677 0.79682 0.49425 0.0
C1956 C 0.53297 0.69441 0.49507 0.0
C1957 C 0.56848 0.68704 0.4944 0.0
C1958 C 0.54066 0.75811 0.49441 0.0
C1959 C 0.5885 0.71743 0.49376 0.0
C1960 C 0.54764 0.82622 0.49564 0.0
C1961 C 0.47903 0.83727 0.49232 0.0
N1962 N 0.57478 0.75021 0.49385 0.0
N1963 N 0.49289 0.80459 0.49269 0.0
H1964 H 0.5882 0.36691 0.7492 0.0
H1965 H 0.45882 0.2025 0.74875 0.0
H1966 H 0.62576 0.26486 0.75121 0.0
H1967 H 0.42155 0.30426 0.7524 0.0
H1968 H 0.51749 0.22407 0.74898 0.0
H1969 H 0.52959 0.34524 0.74971 0.0
C1970 C 0.58476 0.33976 0.74981 0.0
C1971 C 0.61437 0.3186 0.75026 0.0
C1972 C 0.49685 0.24207 0.74978 0.0
C1973 C 0.5428 0.29203 0.75067 0.0
C1974 C 0.46234 0.22955 0.74966 0.0
C1975 C 0.43281 0.25067 0.75067 0.0
C1976 C 0.50442 0.27713 0.75075 0.0
C1977 C 0.44178 0.28578 0.7517 0.0
C1978 C 0.55028 0.32719 0.75009 0.0
C1979 C 0.60548 0.28337 0.75094 0.0
N1980 N 0.47559 0.29731 0.75165 0.0
N1981 N 0.57168 0.2718 0.75106 0.0
H1982 H 0.12443 0.2145 0.99813 0.0
H1983 H 0.95777 0.3423 0.99349 0.0
H1984 H 1.02293 0.17657 0.99464 0.0
H1985 H 0.05843 0.38089 0.99857 0.0
H1986 H 0.98058 0.28413 0.99371 0.0
H1987 H 0.10192 0.27291 0.99808 0.0
C1988 C 0.09723 0.21778 0.99737 0.0
C1989 C 0.0765 0.18808 0.99643 0.0
C1990 C 0.99814 0.30494 0.99477 0.0
C1991 C 0.04889 0.25952 0.99631 0.0
C1992 C 0.98487 0.33922 0.99466 0.0
C1993 C 1.00526 0.36905 0.99595 0.0
C1994 C 0.0333 0.29778 0.99618 0.0
C1995 C 0.04052 0.36049 0.99739 0.0
C1996 C 0.08415 0.25218 0.99733 0.0
C1997 C 0.04116 0.19686 0.99543 0.0
N1998 N 0.05278 0.32687 0.99744 0.0
N1999 N 1.02914 0.23053 0.99539 0.0
H2000 H 0.0982 0.69748 0.74361 0.0
H2001 H 0.97062 0.86407 0.74437 0.0
H2002 H 0.1367 0.79856 0.74723 0.0
H2003 H 0.932 0.7627 0.74688 0.0
H2004 H 1.02902 0.84145 0.7447 0.0
H2005 H 0.03977 0.72007 0.74409 0.0
C2006 C 0.095 0.72458 0.74457 0.0
C2007 C 0.12479 0.74517 0.74548 0.0
C2008 C 1.00814 0.82374 0.74523 0.0
C2009 C 0.05348 0.7729 0.74584 0.0
C2010 C 0.97378 0.83689 0.74505 0.0
C2011 C 0.94395 0.81623 0.7457 0.0
C2012 C 1.01526 0.78847 0.74589 0.0
C2013 C 0.95248 0.78087 0.74647 0.0
C2014 C 0.06063 0.73771 0.74483 0.0
C2015 C 0.11624 0.78044 0.7466 0.0
N2016 N 0.98615 0.76874 0.74647 0.0
N2017 N 0.08257 0.79256 0.74667 0.0
H2018 H 0.9421 0.21938 0.49802 0.0
H2019 H 0.10811 0.34596 0.50291 0.0
H2020 H 0.04251 0.18106 0.50461 0.0
H2021 H 1.00672 0.38523 0.50007 0.0
H2022 H 0.08534 0.28798 0.50314 0.0
H2023 H 0.96446 0.27763 0.49832 0.0
C2024 C 0.96901 0.22258 0.4996 0.0
C2025 C 0.98948 0.1929 0.50138 0.0
C2026 C 0.06763 0.30891 0.5025 0.0
C2027 C 1.01691 0.26398 0.50161 0.0
C2028 C 0.08084 0.34307 0.50238 0.0
C2029 C 0.06022 0.37297 0.50157 0.0
C2030 C 0.03236 0.30205 0.50168 0.0
C2031 C 1.0248 0.36472 0.50083 0.0
C2032 C 0.98199 0.25685 0.49975 0.0
C2033 C 1.02449 0.20144 0.50326 0.0
N2034 N 1.01262 0.33119 0.50086 0.0
N2035 N 0.03649 0.23502 0.50328 0.0
H2036 H 0.64009 0.29086 0.24608 0.0
H2037 H 0.43149 0.25384 0.24532 0.0
H2038 H 0.59902 0.19083 0.24231 0.0
H2039 H 0.47375 0.35402 0.24485 0.0
H2040 H 0.49037 0.23046 0.24523 0.0
H2041 H 0.58112 0.31366 0.24657 0.0
C2042 C 0.6192 0.27325 0.24541 0.0
C2043 C 0.62673 0.23799 0.24416 0.0
C2044 C 0.48704 0.25767 0.2452 0.0
C2045 C 0.55539 0.26528 0.24481 0.0
C2046 C 0.45257 0.27136 0.24532 0.0
C2047 C 0.44542 0.3069 0.24519 0.0
C2048 C 0.51654 0.27888 0.24503 0.0
C2049 C 0.47604 0.32672 0.24502 0.0
C2050 C 0.58466 0.2866 0.24568 0.0
C2051 C 0.59636 0.21796 0.2433 0.0
N2052 N 0.50877 0.31293 0.24498 0.0
N2053 N 0.56346 0.23142 0.24367 0.0
H2054 H 0.60523 0.84735 1.00264 0.0
H2055 H 0.43972 0.72037 0.99805 0.0
H2056 H 0.50365 0.88639 0.99998 0.0
H2057 H 0.5404 0.68244 1.00443 0.0
H2058 H 0.46182 0.77869 0.99834 0.0
H2059 H 0.58265 0.78934 1.00291 0.0
C2060 C 0.57797 0.84438 1.00216 0.0
C2061 C 0.55723 0.8742 1.00139 0.0
C2062 C 0.47945 0.75798 0.99973 0.0
C2063 C 0.52963 0.80329 1.00156 0.0
C2064 C 0.46664 0.72369 0.99958 0.0
C2065 C 0.48729 0.69412 1.0013 0.0
C2066 C 0.51437 0.76522 1.00151 0.0
C2067 C 0.52228 0.70275 1.00312 0.0
C2068 C 0.56488 0.81022 1.00231 0.0
C2069 C 0.52182 0.86591 1.00071 0.0
N2070 N 0.53412 0.73637 1.00313 0.0
N2071 N 0.50976 0.83234 1.00078 0.0
H2072 H 0.08426 0.3652 0.89074 0.0
H2073 H 0.9562 0.19993 0.89088 0.0
H2074 H 0.1225 0.26364 0.88767 0.0
H2075 H 0.91787 0.30147 0.88782 0.0
H2076 H 1.0146 0.222 0.89043 0.0
H2077 H 1.02582 0.34319 0.8904 0.0
C2078 C 0.08103 0.33809 0.88992 0.0
C2079 C 0.1108 0.31721 0.88912 0.0
C2080 C 0.99379 0.23987 0.88983 0.0
C2081 C 0.03934 0.29018 0.88893 0.0
C2082 C 0.9594 0.22706 0.89009 0.0
C2083 C 0.92961 0.24794 0.88936 0.0
C2084 C 1.00104 0.27503 0.88899 0.0
C2085 C 0.93826 0.28318 0.8884 0.0
C2086 C 0.04662 0.32532 0.88975 0.0
C2087 C 0.10212 0.28198 0.8882 0.0
N2088 N 0.972 0.29501 0.88832 0.0
N2089 N 0.06837 0.2702 0.8882 0.0
H2090 H 0.45197 0.34435 0.63126 0.0
H2091 H 0.61958 0.21714 0.63058 0.0
H2092 H 0.55359 0.38311 0.632 0.0
H2093 H 0.51787 0.17871 0.63202 0.0
H2094 H 0.59687 0.27548 0.63075 0.0
H2095 H 0.47484 0.28613 0.6312 0.0
C2096 C 0.47927 0.34128 0.63138 0.0
C2097 C 0.49993 0.37113 0.63159 0.0
C2098 C 0.57909 0.25464 0.63103 0.0
C2099 C 0.52799 0.29995 0.63152 0.0
C2100 C 0.5923 0.22031 0.63091 0.0
C2101 C 0.57154 0.19053 0.63127 0.0
C2102 C 0.54369 0.26179 0.63145 0.0
C2103 C 0.53608 0.19911 0.63173 0.0
C2104 C 0.49257 0.307 0.63136 0.0
C2105 C 0.53544 0.36265 0.6318 0.0
N2106 N 0.52393 0.23272 0.63178 0.0
N2107 N 0.5477 0.32907 0.63173 0.0
H2108 H 0.58765 0.8628 0.39065 0.0
H2109 H 0.46131 0.69613 0.3903 0.0
H2110 H 0.62677 0.76155 0.38759 0.0
H2111 H 0.42192 0.7975 0.38819 0.0
H2112 H 0.51949 0.71884 0.38989 0.0
H2113 H 0.52938 0.84022 0.39033 0.0
C2114 C 0.58462 0.83566 0.38984 0.0
C2115 C 0.61452 0.81501 0.38904 0.0
C2116 C 0.49849 0.73652 0.38948 0.0
C2117 C 0.54343 0.78733 0.38885 0.0
C2118 C 0.46425 0.72334 0.38971 0.0
C2119 C 0.43428 0.74397 0.38921 0.0
C2120 C 0.50533 0.7718 0.38889 0.0
C2121 C 0.44252 0.77936 0.38853 0.0
C2122 C 0.55034 0.82255 0.38968 0.0
C2123 C 0.6062 0.7797 0.38813 0.0
N2124 N 0.47611 0.79152 0.38845 0.0
N2125 N 0.5726 0.7676 0.38812 0.0
H2126 H 0.04957 0.87826 0.13535 0.0
H2127 H 1.01287 0.67072 0.12941 0.0
H2128 H 0.94989 0.83799 0.12936 0.0
H2129 H 0.11101 0.71115 0.13797 0.0
H2130 H 0.99011 0.72964 0.12877 0.0
H2131 H 0.07218 0.81933 0.13574 0.0
C2132 C 0.03202 0.85756 0.13403 0.0
C2133 C 0.9969 0.86535 0.13223 0.0
C2134 C 1.01675 0.72597 0.13077 0.0
C2135 C 1.02405 0.79396 0.13272 0.0
C2136 C 1.03011 0.69145 0.13112 0.0
C2137 C 0.06486 0.68372 0.13371 0.0
C2138 C 0.03753 0.75505 0.13297 0.0
C2139 C 0.08433 0.71391 0.13587 0.0
C2140 C 0.04527 0.82303 0.13429 0.0
C2141 C 0.97693 0.83517 0.13074 0.0
N2142 N 0.07088 0.74677 0.13543 0.0
N2143 N 0.99035 0.80227 0.13098 0.0
H2144 H 0.22159 0.23179 0.33718 0.0
H2145 H 0.35841 0.33132 0.29154 0.0
H2146 H 0.31865 0.26473 0.35023 0.0
H2147 H 0.26167 0.29516 0.27932 0.0
H2148 H 0.34541 0.3089 0.31232 0.0
H2149 H 0.23579 0.25475 0.31673 0.0
C2150 C 0.24607 0.24371 0.33597 0.0
C2151 C 0.26841 0.24535 0.34625 0.0
C2152 C 0.32672 0.30574 0.30518 0.0
C2153 C 0.28581 0.27346 0.32137 0.0
C2154 C 0.33427 0.31892 0.293 0.0
C2155 C 0.3115 0.31613 0.28287 0.0
C2156 C 0.29564 0.28877 0.30801 0.0
C2157 C 0.28077 0.2989 0.28627 0.0
C2158 C 0.25432 0.25718 0.32395 0.0
C2159 C 0.29976 0.26195 0.34315 0.0
N2160 N 0.27415 0.28648 0.29807 0.0
N2161 N 0.3071 0.27483 0.33142 0.0
H2162 H 1.02749 1.01681 0.53329 0.0
H2163 H 1.01777 0.04921 0.60809 0.0
H2164 H 0.96036 0.09039 0.54921 0.0
H2165 H 0.08913 0.97969 0.59217 0.0
H2166 H 0.99677 0.06335 0.58741 0.0
H2167 H 0.04894 1.00276 0.55395 0.0
C2168 C 1.01683 0.03032 0.541 0.0
C2169 C 0.99122 0.05534 0.53871 0.0
C2170 C 1.01706 0.04496 0.58826 0.0
C2171 C 1.01715 0.03832 0.56384 0.0
C2172 C 1.02947 0.03662 0.60037 0.0
C2173 C 0.05615 1.01276 0.60268 0.0
C2174 C 1.03054 1.02971 0.57751 0.0
C2175 C 0.0689 0.99819 0.59155 0.0
C2176 C 1.02949 1.02203 0.5531 0.0
C2177 C 0.97975 0.07101 0.54982 0.0
N2178 N 0.0563 1.00666 0.57991 0.0
N2179 N 0.99238 0.0624 0.56143 0.0
H2180 H 0.25414 0.78806 0.85188 0.0
H2181 H 0.30524 0.77631 0.7782 0.0
H2182 H 0.34849 0.82566 0.83766 0.0
H2183 H 0.22114 0.72058 0.793 0.0
H2184 H 0.3188 0.79656 0.79901 0.0
H2185 H 0.23997 0.76665 0.83118 0.0
C2186 C 0.27219 0.79229 0.84455 0.0
C2187 C 0.30305 0.80976 0.84733 0.0
C2188 C 0.29727 0.77991 0.79789 0.0
C2189 C 0.28586 0.78404 0.82213 0.0
C2190 C 0.28924 0.76797 0.78568 0.0
C2191 C 0.26157 0.74575 0.783 0.0
C2192 C 0.27767 0.77078 0.80837 0.0
C2193 C 0.2428 0.73716 0.79389 0.0
C2194 C 0.26384 0.77965 0.83242 0.0
C2195 C 0.32429 0.81312 0.83667 0.0
N2196 N 0.2509 0.74943 0.8056 0.0
N2197 N 0.31544 0.80103 0.82504 0.0
H2198 H 0.47227 0.10095 0.09224 0.0
H2199 H 0.5685 0.963 1.04637 0.0
H2200 H 0.50621 1.00387 0.10516 0.0
H2201 H 0.53993 0.06273 1.03444 0.0
H2202 H 0.54598 0.97627 0.06702 0.0
H2203 H 0.49514 0.08729 0.07172 0.0
C2204 C 0.48435 0.07655 0.09098 0.0
C2205 C 0.48633 0.05405 0.10126 0.0
C2206 C 0.54446 0.99557 1.05999 0.0
C2207 C 0.5142 0.03725 0.07628 0.0
C2208 C 0.55766 0.98787 1.04787 0.0
C2209 C 0.55711 1.01131 1.03784 0.0
C2210 C 0.52947 1.02753 1.0629 0.0
C2211 C 0.54186 0.04301 1.0413 0.0
C2212 C 0.49778 0.06863 0.07893 0.0
C2213 C 0.50315 1.02288 0.0981 0.0
N2214 N 0.52916 0.04974 1.05307 0.0
N2215 N 0.51582 1.01581 0.08633 0.0
H2216 H 0.3395 0.72622 0.3423 0.0
H2217 H 0.20487 0.82695 0.29633 0.0
H2218 H 0.24765 0.77162 0.35574 0.0
H2219 H 0.30309 0.79404 0.28408 0.0
H2220 H 0.2186 0.80615 0.31715 0.0
H2221 H 0.32617 0.74811 0.32159 0.0
C2222 C 0.31632 0.74063 0.34112 0.0
C2223 C 0.29516 0.74612 0.35161 0.0
C2224 C 0.23742 0.80315 0.31001 0.0
C2225 C 0.2787 0.7727 0.32639 0.0
C2226 C 0.22943 0.81529 0.29778 0.0
C2227 C 0.25226 0.81295 0.28759 0.0
C2228 C 0.26899 0.78723 0.31289 0.0
C2229 C 0.28377 0.79717 0.29104 0.0
C2230 C 0.3086 0.75349 0.32896 0.0
C2231 C 0.26555 0.76576 0.34853 0.0
N2232 N 0.29069 0.78526 0.30292 0.0
N2233 N 0.25856 0.77766 0.33665 0.0
H2234 H 0.54541 0.99784 0.59953 0.0
H2235 H 0.52395 0.05385 0.52651 0.0
H2236 H 0.57577 0.09547 0.5861 0.0
H2237 H 0.47867 0.96345 0.54105 0.0
H2238 H 0.54508 0.0676 0.54726 0.0
H2239 H 0.52434 0.98376 0.57877 0.0
C2240 C 0.54794 1.01669 0.59238 0.0
C2241 C 0.56297 0.04854 0.59539 0.0
C2242 C 0.5305 0.04467 0.54607 0.0
C2243 C 0.53783 0.03148 0.57015 0.0
C2244 C 0.51807 0.03655 0.53391 0.0
C2245 C 0.4985 1.007 0.53123 0.0
C2246 C 0.52438 1.02339 0.55643 0.0
C2247 C 0.49307 0.98658 0.54198 0.0
C2248 C 0.53555 1.0084 0.58022 0.0
C2249 C 0.5646 0.0707 0.58493 0.0
N2250 N 0.50558 0.9949 0.55361 0.0
N2251 N 0.55276 0.06192 0.57327 0.0
H2252 H 0.31339 0.21222 0.79834 0.0
H2253 H 0.21812 0.35822 0.84123 0.0
H2254 H 0.26511 0.29977 0.7827 0.0
H2255 H 0.27682 0.27676 0.85654 0.0
H2256 H 0.23245 0.33714 0.82044 0.0
H2257 H 0.29875 0.23363 0.81902 0.0
C2258 C 0.29962 0.23589 0.79902 0.0
C2259 C 0.29096 0.2534 0.78799 0.0
C2260 C 0.24237 0.3236 0.82827 0.0
C2261 C 0.27302 0.27942 0.81299 0.0
C2262 C 0.23398 0.3359 0.84046 0.0
C2263 C 0.24582 0.32004 0.85143 0.0
C2264 C 0.26304 0.29426 0.82632 0.0
C2265 C 0.2665 0.29083 0.84889 0.0
C2266 C 0.29111 0.24843 0.81114 0.0
C2267 C 0.27292 0.28438 0.79041 0.0
N2268 N 0.27398 0.2794 0.83707 0.0
N2269 N 0.26484 0.29578 0.8022 0.0
H2270 H 0.07511 0.09747 1.04038 0.0
H2271 H 0.99481 0.95423 0.08793 0.0
H2272 H 0.05657 0.99497 1.02936 0.0
H2273 H 1.01245 0.05709 0.09871 0.0
H2274 H 1.01642 0.96806 0.06721 0.0
H2275 H 0.05354 0.08349 1.06107 0.0
C2276 C 0.06649 0.07188 1.04209 0.0
C2277 C 0.06825 0.04793 1.03232 0.0
C2278 C 1.01583 0.98789 0.07401 0.0
C2279 C 0.042 0.03083 1.05739 0.0
C2280 C 1.0032 0.97987 0.08615 0.0
C2281 C 1.00117 1.00399 0.09586 0.0
C2282 C 1.02749 1.02088 0.07079 0.0
C2283 C 1.01291 0.0368 0.09209 0.0
C2284 C 0.05389 0.06377 1.05422 0.0
C2285 C 0.05628 1.01514 1.03602 0.0
N2286 N 1.02517 0.04385 0.08029 0.0
N2287 N 0.04408 1.00799 1.04783 0.0
H2288 H 0.81257 0.78082 0.8532 0.0
H2289 H 0.77 0.78111 0.77872 0.0
H2290 H 0.73165 0.72296 0.83753 0.0
H2291 H 0.8463 0.84618 0.79372 0.0
H2292 H 0.75744 0.75977 0.79951 0.0
H2293 H 0.82618 0.80342 0.83252 0.0
C2294 C 0.79738 0.77241 0.84557 0.0
C2295 C 0.7704 0.74898 0.84793 0.0
C2296 C 0.77702 0.77873 0.79845 0.0
C2297 C 0.78682 0.77631 0.82278 0.0
C2298 C 0.78446 0.79136 0.78625 0.0
C2299 C 0.80967 0.81645 0.7836 0.0
C2300 C 0.79461 0.79025 0.80901 0.0
C2301 C 0.82659 0.82729 0.79456 0.0
C2302 C 0.80538 0.78575 0.83345 0.0
C2303 C 0.75264 0.74049 0.83689 0.0
N2304 N 0.81898 0.81447 0.8063 0.0
N2305 N 0.76099 0.75362 0.82531 0.0
H2306 H 0.84475 0.33978 0.33496 0.0
H2307 H 0.72861 0.21223 0.29153 0.0
H2308 H 0.77071 0.27134 0.34979 0.0
H2309 H 0.80814 0.27361 0.27636 0.0
H2310 H 0.74252 0.23413 0.31211 0.0
H2311 H 0.83166 0.31824 0.31417 0.0
C2312 C 0.82561 0.32033 0.33408 0.0
C2313 C 0.80925 0.30822 0.34496 0.0
C2314 C 0.75722 0.24309 0.30438 0.0
C2315 C 0.7932 0.28204 0.31977 0.0
C2316 C 0.74912 0.23028 0.2923 0.0
C2317 C 0.76676 0.24014 0.28139 0.0
C2318 C 0.78363 0.26708 0.30639 0.0
C2319 C 0.79314 0.26421 0.28394 0.0
C2320 C 0.81801 0.3077 0.32189 0.0
C2321 C 0.78468 0.28245 0.34226 0.0
N2322 N 0.80033 0.27635 0.29573 0.0
N2323 N 0.77774 0.27087 0.33041 0.0
H2324 H 0.78993 0.28303 0.78273 0.0
H2325 H 0.74692 0.28241 0.85714 0.0
H2326 H 0.71325 0.34791 0.79798 0.0
H2327 H 0.82855 0.2246 0.84153 0.0
H2328 H 0.7335 0.30495 0.83649 0.0
H2329 H 0.80272 0.26153 0.80345 0.0
C2330 C 0.77545 0.29321 0.7903 0.0
C2331 C 0.75007 0.3183 0.78776 0.0
C2332 C 0.75442 0.28731 0.83742 0.0
C2333 C 0.76537 0.2919 0.81306 0.0
C2334 C 0.76231 0.274 0.84951 0.0
C2335 C 0.7894 0.25061 0.85188 0.0
C2336 C 0.7732 0.27789 0.82677 0.0
C2337 C 0.80746 0.2421 0.84086 0.0
C2338 C 0.78303 0.28049 0.80246 0.0
C2339 C 0.73311 0.32906 0.79876 0.0
N2340 N 0.79918 0.25522 0.82929 0.0
N2341 N 0.74084 0.31613 0.81045 0.0
H2342 H 0.79021 0.78054 0.35655 0.0
H2343 H 0.74688 0.77925 0.28224 0.0
H2344 H 0.7127 0.84439 0.34128 0.0
H2345 H 0.8298 0.72303 0.29769 0.0
H2346 H 0.73323 0.80148 0.30287 0.0
H2347 H 0.80329 0.7592 0.33585 0.0
C2348 C 0.7756 0.79053 0.34898 0.0
C2349 C 0.74989 0.81529 0.35151 0.0
C2350 C 0.75446 0.78424 0.30192 0.0
C2351 C 0.76554 0.78907 0.32623 0.0
C2352 C 0.76249 0.7711 0.28983 0.0
C2353 C 0.79001 0.74824 0.28741 0.0
C2354 C 0.77353 0.77518 0.31253 0.0
C2355 C 0.80834 0.74008 0.29839 0.0
C2356 C 0.78335 0.7779 0.33683 0.0
C2357 C 0.73279 0.82579 0.34052 0.0
N2358 N 0.79992 0.75302 0.30997 0.0
N2359 N 0.74069 0.81296 0.32884 0.0
H2360 H 0.57018 0.46792 0.09392 0.0
H2361 H 0.46443 0.601 1.04864 0.0
H2362 H 0.53329 0.56366 0.10692 0.0
H2363 H 0.51422 0.51178 1.03512 0.0
H2364 H 0.48615 0.58757 0.06943 0.0
H2365 H 0.54842 0.48215 0.07328 0.0
C2366 C 0.5576 0.49208 0.09266 0.0
C2367 C 0.55454 0.51412 0.10298 0.0
C2368 C 0.4925 0.57063 1.06201 0.0
C2369 C 0.52767 0.53143 0.07793 0.0
C2370 C 0.47974 0.57843 1.04981 0.0
C2371 C 0.48663 0.55796 1.0393 0.0
C2372 C 0.51291 0.54142 1.06451 0.0
C2373 C 0.50731 0.52909 1.04237 0.0
C2374 C 0.54486 0.50037 0.08054 0.0
C2375 C 0.5372 0.54505 0.09982 0.0
N2376 N 0.51905 0.52204 1.05422 0.0
N2377 N 0.52486 0.5523 0.08804 0.0
H2378 H 1.0154 0.50505 0.60627 0.0
H2379 H 0.04088 0.56179 0.53346 0.0
H2380 H 0.97585 0.59822 0.59173 0.0
H2381 H 0.07423 0.46505 0.54691 0.0
H2382 H 1.01897 0.57541 0.55413 0.0
H2383 H 0.03743 0.49072 0.58561 0.0
C2384 C 1.01103 0.52287 0.5989 0.0
C2385 C 0.99284 0.55345 0.60155 0.0
C2386 C 1.03105 0.55108 0.55273 0.0
C2387 C 1.0197 0.53631 0.57647 0.0
C2388 C 0.04397 0.54304 0.54062 0.0
C2389 C 0.06034 0.51171 0.53763 0.0
C2390 C 0.0338 0.52815 0.5628 0.0
C2391 C 0.06236 0.48957 0.54808 0.0
C2392 C 1.02398 0.51442 0.58679 0.0
C2393 C 0.98921 0.57438 0.59083 0.0
N2394 N 0.04976 0.49804 0.55972 0.0
N2395 N 1.0021 0.56567 0.57927 0.0
H2396 H 0.04003 0.50312 0.10078 0.0
H2397 H 1.02594 0.55729 1.02765 0.0
H2398 H 0.09298 0.58945 0.08639 0.0
H2399 H 0.99006 0.46178 1.04129 0.0
H2400 H 0.04716 0.57093 1.04839 0.0
H2401 H 1.01974 0.48995 0.07997 0.0
C2402 C 0.04779 0.51966 0.09338 0.0
C2403 C 0.06922 0.54782 0.09615 0.0
C2404 C 0.03469 0.54687 1.047 0.0
C2405 C 0.04417 0.53219 0.07083 0.0
C2406 C 1.02218 0.53884 1.03486 0.0
C2407 C 1.00556 0.50774 1.03193 0.0
C2408 C 1.03088 0.52428 1.05712 0.0
C2409 C 1.00246 0.48597 1.04242 0.0
C2410 C 0.03582 0.51185 0.08119 0.0
C2411 C 0.07706 0.56736 0.08539 0.0
N2412 N 1.01443 0.49454 1.05408 0.0
N2413 N 0.06479 0.55943 0.07368 0.0
H2414 H 0.531 0.55845 0.60111 0.0
H2415 H 0.53813 0.51053 0.5274 0.0
H2416 H 0.48738 0.46759 0.58662 0.0
H2417 H 0.59853 0.59102 0.54207 0.0
H2418 H 0.51762 0.49727 0.54823 0.0
H2419 H 0.55262 0.57267 0.58036 0.0
C2420 C 0.52563 0.54116 0.59371 0.0
C2421 C 0.50675 0.51112 0.59639 0.0
C2422 C 0.5354 0.51789 0.54707 0.0
C2423 C 0.53246 0.52838 0.57124 0.0
C2424 C 0.54751 0.52574 0.53487 0.0
C2425 C 0.57107 0.55229 0.53217 0.0
C2426 C 0.54582 0.53655 0.55752 0.0
C2427 C 0.5809 0.57022 0.54301 0.0
C2428 C 0.53835 0.54952 0.58157 0.0
C2429 C 0.50163 0.49084 0.58568 0.0
N2430 N 0.56848 0.56228 0.55475 0.0
N2431 N 0.51384 0.49972 0.57405 0.0
H2432 H 0.35957 0.17097 0.41051 0.0
H2433 H 0.35695 0.03626 0.47032 0.0
H2434 H 0.26861 0.11676 0.41937 0.0
H2435 H 0.44911 0.06996 0.45334 0.0
H2436 H 0.32428 0.06713 0.4542 0.0
H2437 H 0.38985 0.13911 0.42672 0.0
C2438 C 0.34521 0.15245 0.41568 0.0
C2439 C 0.30996 0.148 0.41253 0.0
C2440 C 0.3517 0.06834 0.45389 0.0
C2441 C 0.34735 0.10887 0.43304 0.0
C2442 C 0.37112 0.05028 0.4635 0.0
C2443 C 0.40773 0.04933 0.4642 0.0
C2444 C 0.36739 0.08754 0.44415 0.0
C2445 C 0.42176 0.06878 0.45409 0.0
C2446 C 0.36326 0.13364 0.4253 0.0
C2447 C 0.29524 0.12248 0.42055 0.0
N2448 N 0.40253 0.08624 0.44513 0.0
N2449 N 0.31319 0.1051 0.42997 0.0
H2450 H 0.28018 0.17442 0.70202 0.0
H2451 H 0.1303 1.03012 0.68985 0.0
H2452 H 0.2225 0.13291 0.73176 0.0
H2453 H 0.17753 0.08244 0.65994 0.0
H2454 H 0.16342 0.06392 0.70437 0.0
H2455 H 0.24635 0.1413 0.68747 0.0
C2456 C 0.26049 0.15847 0.70581 0.0
C2457 C 0.25619 0.15849 0.71894 0.0
C2458 C 0.16709 0.0686 0.6947 0.0
C2459 C 0.21388 0.11665 0.70075 0.0
C2460 C 0.1475 0.04859 0.686 0.0
C2461 C 0.14903 0.05143 0.67284 0.0
C2462 C 0.19093 0.09374 0.69101 0.0
C2463 C 0.17347 0.07736 0.66955 0.0
C2464 C 0.2405 0.1389 0.69711 0.0
C2465 C 0.2288 0.13566 0.72218 0.0
N2466 N 0.19249 0.09633 0.67824 0.0
N2467 N 0.20988 0.1166 0.71349 0.0
H2468 H 0.14524 0.95403 0.96871 0.0
H2469 H 0.27651 0.9538 0.90772 0.0
H2470 H 0.19625 0.04515 0.95794 0.0
H2471 H 0.24428 0.86264 0.92563 0.0
H2472 H 0.24606 0.98715 0.92373 0.0
H2473 H 0.17663 0.92287 0.95261 0.0
C2474 C 0.16293 0.96828 0.96314 0.0
C2475 C 0.16659 1.00393 0.96573 0.0
C2476 C 0.2451 0.95981 0.92429 0.0
C2477 C 0.20528 0.96531 0.94534 0.0
C2478 C 0.26296 0.93996 0.91474 0.0
C2479 C 0.26423 0.90337 0.91432 0.0
C2480 C 0.22639 0.94466 0.93427 0.0
C2481 C 0.24525 0.88989 0.92466 0.0
C2482 C 0.18149 0.94969 0.95357 0.0
C2483 C 0.19112 1.01833 0.95721 0.0
N2484 N 0.22799 0.90952 0.93357 0.0
N2485 N 0.2083 0.99981 0.94788 0.0
H2486 H 0.34647 0.89439 0.22384 0.0
H2487 H 0.34191 1.02104 0.16143 0.0
H2488 H 0.25235 0.93663 0.21141 0.0
H2489 H 0.43412 0.99309 0.17959 0.0
H2490 H 0.30946 0.9898 0.17755 0.0
H2491 H 0.37656 0.92627 0.20755 0.0
C2492 C 0.3313 0.91017 0.21786 0.0
C2493 C 0.29512 0.91117 0.22005 0.0
C2494 C 0.33686 0.98995 0.17815 0.0
C2495 C 0.33258 0.95067 0.19944 0.0
C2496 C 0.3562 1.00831 0.16853 0.0
C2497 C 0.39281 1.01103 0.16812 0.0
C2498 C 0.35258 0.97222 0.18825 0.0
C2499 C 0.40682 0.99296 0.17858 0.0
C2500 C 0.34929 0.92907 0.20817 0.0
C2501 C 0.27961 0.93352 0.21101 0.0
N2502 N 0.3877 0.97528 0.18756 0.0
N2503 N 0.29762 0.95115 0.20162 0.0
H2504 H 0.71712 0.89515 0.71884 0.0
H2505 H 0.71024 0.03511 0.66015 0.0
H2506 H 0.80727 0.93557 0.70249 0.0
H2507 H 0.624 0.97417 0.66939 0.0
H2508 H 0.74339 1.00493 0.67622 0.0
H2509 H 0.68287 0.92661 0.70331 0.0
C2510 C 0.7305 0.91131 0.71245 0.0
C2511 C 0.76712 0.91235 0.71324 0.0
C2512 C 0.71719 0.99771 0.67491 0.0
C2513 C 0.72475 0.95059 0.69361 0.0
C2514 C 0.69746 1.01559 0.66537 0.0
C2515 C 0.66242 1.00871 0.66244 0.0
C2516 C 0.70336 0.97148 0.68265 0.0
C2517 C 0.6501 0.98197 0.67049 0.0
C2518 C 0.71016 0.92953 0.7031 0.0
C2519 C 0.77999 0.9335 0.70335 0.0
N2520 N 0.66952 0.96557 0.67972 0.0
N2521 N 0.75991 0.95097 0.69461 0.0
H2522 H 0.86701 0.98623 0.48237 0.0
H2523 H 0.82163 0.93553 0.40884 0.0
H2524 H 0.91337 0.03636 0.45178 0.0
H2525 H 0.76887 0.89145 0.43929 0.0
H2526 H 0.85508 0.97019 0.42362 0.0
H2527 H 0.83326 0.95171 0.46762 0.0
C2528 C 0.8708 0.99065 0.4727 0.0
C2529 C 0.89499 1.01621 0.46907 0.0
C2530 C 0.83622 0.95299 0.42726 0.0
C2531 C 0.85351 0.97347 0.45078 0.0
C2532 C 0.81637 0.93247 0.41849 0.0
C2533 C 0.79043 0.90863 0.42206 0.0
C2534 C 0.83192 0.9512 0.44041 0.0
C2535 C 0.78748 0.90833 0.43532 0.0
C2536 C 0.85079 0.97019 0.46394 0.0
C2537 C 0.89617 1.01814 0.4558 0.0
N2538 N 0.80689 0.92806 0.44347 0.0
N2539 N 0.87694 0.99817 0.44767 0.0
H2540 H 0.88001 1.00317 0.17165 0.0
H2541 H 0.82435 0.18945 0.20274 0.0
H2542 H 0.91992 0.09807 0.15911 0.0
H2543 H 0.79966 0.09669 0.22116 0.0
H2544 H 0.85509 0.15692 0.18696 0.0
H2545 H 0.84933 0.03375 0.18825 0.0
C2546 C 0.88269 0.03042 0.17206 0.0
C2547 C 0.90413 0.04648 0.163 0.0
C2548 C 0.84335 0.143 0.19438 0.0
C2549 C 0.86597 0.08461 0.18355 0.0
C2550 C 0.82516 0.1622 0.20381 0.0
C2551 C 0.80825 0.1478 0.21434 0.0
C2552 C 0.84581 0.10683 0.19438 0.0
C2553 C 0.81169 0.11115 0.21394 0.0
C2554 C 0.86457 0.04846 0.18194 0.0
C2555 C 0.90469 0.0827 0.1652 0.0
N2556 N 0.82911 0.09308 0.20454 0.0
N2557 N 0.88666 0.09938 0.17469 0.0
H2558 H 0.67099 1.01208 0.96056 0.0
H2559 H 0.73464 0.19903 0.9316 0.0
H2560 H 0.64009 0.10731 0.97569 0.0
H2561 H 0.75286 0.10738 0.91171 0.0
H2562 H 0.70385 0.16629 0.94735 0.0
H2563 H 0.70161 0.04313 0.94402 0.0
C2564 C 0.67025 0.03948 0.96073 0.0
C2565 C 0.6513 0.05541 0.97049 0.0
C2566 C 0.71418 0.15266 0.93962 0.0
C2567 C 0.68949 0.0942 0.94998 0.0
C2568 C 0.73241 0.17201 0.93019 0.0
C2569 C 0.74764 0.15804 0.91927 0.0
C2570 C 0.70981 0.11669 0.93919 0.0
C2571 C 0.74234 0.12159 0.91927 0.0
C2572 C 0.68837 0.05782 0.95088 0.0
C2573 C 0.65324 0.09192 0.96901 0.0
N2574 N 0.72485 0.10336 0.92865 0.0
N2575 N 0.67116 0.10887 0.95952 0.0
H2576 H 0.82742 0.69394 0.9257 0.0
H2577 H 0.88929 0.50669 0.9551 0.0
H2578 H 0.805 0.60193 0.90672 0.0
H2579 H 0.92439 0.60179 0.96889 0.0
H2580 H 0.8578 0.53771 0.93879 0.0
H2581 H 0.85904 0.66108 0.94118 0.0
C2582 C 0.82891 0.6668 0.92442 0.0
C2583 C 0.81226 0.6528 0.91382 0.0
C2584 C 0.87216 0.55239 0.9453 0.0
C2585 C 0.85109 0.61128 0.93345 0.0
C2586 C 0.8908 0.53406 0.95502 0.0
C2587 C 0.91122 0.54996 0.96435 0.0
C2588 C 0.87194 0.58874 0.94411 0.0
C2589 C 0.91013 0.58642 0.96256 0.0
C2590 C 0.84763 0.64738 0.93369 0.0
C2591 C 0.81669 0.6162 0.91399 0.0
N2592 N 0.89167 0.60336 0.95322 0.0
N2593 N 0.83467 0.5979 0.92323 0.0
H2594 H 0.67314 0.51336 0.17887 0.0
H2595 H 0.7345 0.70005 0.20824 0.0
H2596 H 0.63516 0.60842 0.16565 0.0
H2597 H 0.75531 0.60786 0.22764 0.0
H2598 H 0.70278 0.66755 0.19278 0.0
H2599 H 0.70462 0.54419 0.19511 0.0
C2600 C 0.671 0.54069 0.17905 0.0
C2601 C 0.64974 0.5566 0.1699 0.0
C2602 C 0.71389 0.65373 0.20035 0.0
C2603 C 0.68912 0.59522 0.19007 0.0
C2604 C 0.73269 0.67296 0.2096 0.0
C2605 C 0.74896 0.65881 0.22031 0.0
C2606 C 0.71001 0.61765 0.2007 0.0
C2607 C 0.74404 0.62226 0.22026 0.0
C2608 C 0.68963 0.55892 0.18873 0.0
C2609 C 0.65009 0.59301 0.17182 0.0
N2610 N 0.72609 0.60416 0.21103 0.0
N2611 N 0.66863 0.60987 0.18111 0.0
H2612 H 0.73692 0.42958 0.40144 0.0
H2613 H 0.68817 0.47898 0.47487 0.0
H2614 H 0.78901 0.38568 0.43203 0.0
H2615 H 0.64441 0.53128 0.44429 0.0
H2616 H 0.72248 0.44456 0.46014 0.0
H2617 H 0.70274 0.4642 0.41616 0.0
C2618 C 0.74186 0.42653 0.41111 0.0
C2619 C 0.76785 0.40277 0.41475 0.0
C2620 C 0.7054 0.46351 0.45646 0.0
C2621 C 0.7255 0.44521 0.43298 0.0
C2622 C 0.68509 0.48392 0.4652 0.0
C2623 C 0.66147 0.51004 0.46157 0.0
C2624 C 0.70351 0.46739 0.44331 0.0
C2625 C 0.6611 0.51257 0.44831 0.0
C2626 C 0.72159 0.44702 0.41984 0.0
C2627 C 0.7704 0.40247 0.42801 0.0
N2628 N 0.68058 0.4926 0.44019 0.0
N2629 N 0.75058 0.42213 0.43611 0.0
H2630 H 0.83193 0.42633 0.72895 0.0
H2631 H 0.85281 0.50134 0.65656 0.0
H2632 H 0.75945 0.40633 0.70074 0.0
H2633 H 0.92999 0.5164 0.68354 0.0
H2634 H 0.81914 0.46938 0.67211 0.0
H2635 H 0.86603 0.45938 0.71371 0.0
C2636 C 0.82222 0.42862 0.71974 0.0
C2637 C 0.79055 0.41202 0.71696 0.0
C2638 C 0.84348 0.47946 0.67483 0.0
C2639 C 0.83287 0.45255 0.69801 0.0
C2640 C 0.86349 0.49839 0.6656 0.0
C2641 C 0.89636 0.5131 0.66786 0.0
C2642 C 0.85454 0.47378 0.68725 0.0
C2643 C 0.90588 0.50652 0.6805 0.0
C2644 C 0.84256 0.44806 0.71068 0.0
C2645 C 0.78253 0.41764 0.70414 0.0
N2646 N 0.8861 0.48842 0.68916 0.0
N2647 N 0.80236 0.43636 0.69572 0.0
H2648 H 0.21353 0.40335 0.22411 0.0
H2649 H 0.2058 0.4982 0.15486 0.0
H2650 H 0.30406 0.41269 0.20253 0.0
H2651 H 0.12521 0.50254 0.18124 0.0
H2652 H 0.24027 0.4653 0.17006 0.0
H2653 H 0.18197 0.43511 0.20817 0.0
C2654 C 0.22753 0.41169 0.21612 0.0
C2655 C 0.26324 0.40378 0.21558 0.0
C2656 C 0.21491 0.47306 0.17266 0.0
C2657 C 0.22398 0.44284 0.19559 0.0
C2658 C 0.19435 0.49228 0.16361 0.0
C2659 C 0.16034 0.50449 0.16593 0.0
C2660 C 0.2029 0.46424 0.18478 0.0
C2661 C 0.1502 0.49479 0.17822 0.0
C2662 C 0.20875 0.43051 0.20668 0.0
C2663 C 0.27732 0.41697 0.20422 0.0
N2664 N 0.17018 0.4762 0.18659 0.0
N2665 N 0.25843 0.43476 0.19517 0.0
H2666 H 0.41102 0.54076 0.95198 0.0
H2667 H 0.26448 0.39297 0.9392 0.0
H2668 H 0.36495 0.48634 0.98164 0.0
H2669 H 0.31738 0.4408 0.90954 0.0
H2670 H 0.29787 0.42609 0.95389 0.0
H2671 H 0.37777 0.50748 0.93731 0.0
C2672 C 0.394 0.52195 0.95574 0.0
C2673 C 0.39279 0.51842 0.96889 0.0
C2674 C 0.30273 0.42993 0.94424 0.0
C2675 C 0.35086 0.47662 0.95052 0.0
C2676 C 0.28296 0.41038 0.93544 0.0
C2677 C 0.28604 0.41213 0.92229 0.0
C2678 C 0.32798 0.45384 0.94068 0.0
C2679 C 0.312 0.43668 0.91913 0.0
C2680 C 0.37434 0.50225 0.94695 0.0
C2681 C 0.36866 0.49206 0.97205 0.0
N2682 N 0.33082 0.45555 0.92791 0.0
N2683 N 0.34967 0.47333 0.96328 0.0
H2684 H 0.42356 0.60413 0.65847 0.0
H2685 H 0.29704 0.60324 0.72088 0.0
H2686 H 0.38228 0.51069 0.67182 0.0
H2687 H 0.32264 0.69341 0.70107 0.0
H2688 H 0.32975 0.56964 0.70546 0.0
H2689 H 0.39158 0.63487 0.67453 0.0
C2690 C 0.40797 0.58928 0.66462 0.0
C2691 C 0.40718 0.5531 0.66279 0.0
C2692 C 0.32905 0.5969 0.70443 0.0
C2693 C 0.36775 0.59126 0.68306 0.0
C2694 C 0.31012 0.61691 0.7137 0.0
C2695 C 0.30673 0.65339 0.71345 0.0
C2696 C 0.34618 0.61178 0.69402 0.0
C2697 C 0.32415 0.66641 0.7027 0.0
C2698 C 0.38905 0.60761 0.67416 0.0
C2699 C 0.38512 0.53793 0.67198 0.0
N2700 N 0.34225 0.64673 0.69406 0.0
N2701 N 0.36748 0.55628 0.68123 0.0
H2702 H 0.14463 0.60584 0.47675 0.0
H2703 H 0.25501 0.60536 0.41048 0.0
H2704 H 0.1718 0.51214 0.45961 0.0
H2705 H 0.24176 0.69429 0.43236 0.0
H2706 H 0.22387 0.5722 0.42642 0.0
H2707 H 0.17597 0.63681 0.46053 0.0
C2708 C 0.15691 0.59096 0.46972 0.0
C2709 C 0.15396 0.55457 0.47053 0.0
C2710 C 0.22732 0.59905 0.42789 0.0
C2711 C 0.19269 0.59314 0.4501 0.0
C2712 C 0.24564 0.61881 0.41841 0.0
C2713 C 0.2524 0.65474 0.41911 0.0
C2714 C 0.21379 0.61367 0.43898 0.0
C2715 C 0.23833 0.66764 0.43049 0.0
C2716 C 0.17549 0.60944 0.46009 0.0
C2717 C 0.17198 0.53947 0.46027 0.0
N2718 N 0.22063 0.64818 0.43935 0.0
N2719 N 0.18941 0.55801 0.45099 0.0
H2720 H 0.30999 1.00118 0.36586 0.0
H2721 H 0.21358 0.87486 0.32487 0.0
H2722 H 0.20702 0.96816 0.3719 0.0
H2723 H 0.31063 0.92113 0.31735 0.0
H2724 H 0.22117 0.88742 0.34657 0.0
H2725 H 0.32086 0.94999 0.35421 0.0
C2726 C 0.28996 0.98257 0.36518 0.0
C2727 C 0.25696 0.98983 0.36928 0.0
C2728 C 0.24123 0.8939 0.34019 0.0
C2729 C 0.26891 0.93194 0.35549 0.0
C2730 C 0.23675 0.88706 0.32778 0.0
C2731 C 0.26076 0.89833 0.31917 0.0
C2732 C 0.26975 0.91237 0.34396 0.0
C2733 C 0.29101 0.91252 0.32355 0.0
C2734 C 0.29614 0.95334 0.3584 0.0
C2735 C 0.23238 0.9643 0.36831 0.0
N2736 N 0.29424 0.91987 0.33559 0.0
N2737 N 0.23843 0.93701 0.36111 0.0
H2738 H 0.20943 0.85127 0.59155 0.0
H2739 H 0.3075 0.83814 0.54064 0.0
H2740 H 0.29673 0.89625 0.60876 0.0
H2741 H 0.38008 0.89673 0.56099 0.0
H2742 H 0.27963 0.82246 0.5597 0.0
H2743 H 0.24542 0.83216 0.57493 0.0
C2744 C 0.23637 0.85655 0.59193 0.0
C2745 C 0.24984 0.8763 0.60138 0.0
C2746 C 0.30169 0.83859 0.56012 0.0
C2747 C 0.29177 0.85428 0.58234 0.0
C2748 C 0.3178 0.84731 0.54918 0.0
C2749 C 0.3454 0.86967 0.54922 0.0
C2750 C 0.31294 0.85303 0.57112 0.0
C2751 C 0.35853 0.87985 0.56051 0.0
C2752 C 0.25719 0.84537 0.58242 0.0
C2753 C 0.28505 0.88142 0.60163 0.0
N2754 N 0.3417 0.87208 0.57098 0.0
N2755 N 0.3046 0.87111 0.59212 0.0
H2756 H 0.47832 0.04908 0.77742 0.0
H2757 H 0.46998 0.93964 0.8251 0.0
H2758 H 0.39374 0.9947 0.76208 0.0
H2759 H 0.36948 0.92288 0.81068 0.0
H2760 H 0.48824 0.95915 0.8049 0.0
H2761 H 0.48683 1.00319 0.79193 0.0
C2762 C 0.4623 1.02691 0.7768 0.0
C2763 C 0.43425 1.02659 0.76891 0.0
C2764 C 0.46228 0.95099 0.80614 0.0
C2765 C 0.44397 0.97351 0.78542 0.0
C2766 C 0.45181 0.93984 0.81769 0.0
C2767 C 0.41782 0.93063 0.81974 0.0
C2768 C 0.43843 0.95319 0.79664 0.0
C2769 C 0.39585 0.92994 0.80967 0.0
C2770 C 0.46729 1.00041 0.78509 0.0
C2771 C 0.41519 0.99667 0.76818 0.0
N2772 N 0.40642 0.9416 0.79864 0.0
N2773 N 0.41974 0.97183 0.77661 0.0
H2774 H 0.12253 0.09332 0.07072 0.0
H2775 H 0.2522 1.01467 0.11633 0.0
H2776 H 0.17888 1.00042 1.06578 0.0
H2777 H 0.20738 0.11397 0.12002 0.0
H2778 H 0.20584 0.99846 0.10301 0.0
H2779 H 0.13434 0.09041 0.09264 0.0
C2780 C 0.13681 0.07197 0.07426 0.0
C2781 C 0.15094 0.04785 1.0663 0.0
C2782 C 0.20556 1.02353 0.10699 0.0
C2783 C 0.16424 0.04423 0.09135 0.0
C2784 C 0.23198 0.03277 0.11474 0.0
C2785 C 0.23455 0.06631 0.11885 0.0
C2786 C 0.18209 0.0482 0.10316 0.0
C2787 C 0.20721 0.08832 0.11656 0.0
C2788 C 0.14329 0.07018 0.08679 0.0
C2789 C 0.16794 1.01999 0.07147 0.0
N2790 N 0.18267 0.07928 0.10852 0.0
N2791 N 0.17479 1.01938 0.08361 0.0
H2792 H 0.9382 0.05774 0.77319 0.0
H2793 H 0.95279 0.05728 0.84481 0.0
H2794 H 0.94806 0.96891 0.79604 0.0
H2795 H 0.92342 0.14377 0.82298 0.0
H2796 H 0.97446 1.02985 0.82648 0.0
H2797 H 0.95568 0.09277 0.79043 0.0
C2798 C 0.94479 0.04553 0.78175 0.0
C2799 C 0.94041 1.01049 0.78333 0.0
C2800 C 0.96403 0.05518 0.82573 0.0
C2801 C 0.96049 0.05031 0.803 0.0
C2802 C 0.9518 0.071 0.83623 0.0
C2803 C 0.93526 0.10244 0.83536 0.0
C2804 C 0.95925 0.07072 0.8143 0.0
C2805 C 0.93486 0.11896 0.82397 0.0
C2806 C 0.95491 0.06552 0.79156 0.0
C2807 C 0.95051 0.99586 0.79445 0.0
N2808 N 0.94592 0.10255 0.81382 0.0
N2809 N 0.9593 1.01594 0.80396 0.0
H2810 H 0.67065 0.99213 0.5634 0.0
H2811 H 0.70942 0.09667 0.50493 0.0
H2812 H 0.62749 0.09017 0.5551 0.0
H2813 H 0.75894 1.00379 0.51583 0.0
H2814 H 0.66148 0.08223 0.51815 0.0
H2815 H 0.68324 0.98434 0.54187 0.0
C2816 C 0.66288 1.01173 0.55704 0.0
C2817 C 0.6492 0.04253 0.56118 0.0
C2818 C 0.68235 0.06446 0.51732 0.0
C2819 C 0.66479 0.03409 0.53646 0.0
C2820 C 0.70976 0.0727 0.50978 0.0
C2821 C 0.73905 0.0523 0.50977 0.0
C2822 C 0.6845 0.03577 0.52491 0.0
C2823 C 0.73743 1.02088 0.51579 0.0
C2824 C 0.67029 1.00727 0.54469 0.0
C2825 C 0.63956 0.0667 0.5524 0.0
N2826 N 0.71111 1.01408 0.52343 0.0
N2827 N 0.64842 0.06239 0.54048 0.0
H2828 H 0.6308 0.06544 0.36404 0.0
H2829 H 0.5976 0.06758 0.29336 0.0
H2830 H 0.60337 0.97914 0.34211 0.0
H2831 H 0.64733 0.14689 0.31354 0.0
H2832 H 0.5758 0.0445 0.31252 0.0
H2833 H 0.6131 0.10285 0.34738 0.0
C2834 C 0.62027 0.05438 0.35584 0.0
C2835 C 0.61985 1.01911 0.35425 0.0
C2836 C 0.59072 0.06749 0.31274 0.0
C2837 C 0.59952 0.06164 0.33525 0.0
C2838 C 0.60307 0.08081 0.30178 0.0
C2839 C 0.62527 0.10852 0.30192 0.0
C2840 C 0.60101 0.08178 0.32385 0.0
C2841 C 0.63128 0.12471 0.3131 0.0
C2842 C 0.61004 0.07575 0.34637 0.0
C2843 C 0.60479 1.00615 0.34365 0.0
N2844 N 0.6199 0.11062 0.32367 0.0
N2845 N 0.59601 1.02743 0.33442 0.0
H2846 H 0.92618 0.95699 1.05759 0.0
H2847 H 0.79677 0.05607 1.01773 0.0
H2848 H 0.8852 0.05603 1.06555 0.0
H2849 H 0.8336 0.95576 1.00931 0.0
H2850 H 0.84662 0.06541 1.03021 0.0
H2851 H 0.90962 0.96441 1.03621 0.0
C2852 C 0.91428 0.98053 1.05481 0.0
C2853 C 0.90596 1.00538 1.06348 0.0
C2854 C 0.84434 0.04161 1.02539 0.0
C2855 C 0.88714 1.01412 1.03906 0.0
C2856 C 0.81589 0.03635 1.0181 0.0
C2857 C 0.81009 1.0044 1.01293 0.0
C2858 C 0.86661 1.01451 1.02772 0.0
C2859 C 0.83623 0.9802 1.01365 0.0
C2860 C 0.90508 0.98488 1.04258 0.0
C2861 C 0.89174 0.0359 1.05927 0.0
N2862 N 0.86281 0.98526 1.02131 0.0
N2863 N 0.88209 0.03907 1.04743 0.0
H2864 H 0.59032 0.58767 0.837 0.0
H2865 H 0.62258 0.57052 0.76677 0.0
H2866 H 0.64663 0.65776 0.81447 0.0
H2867 H 0.59428 0.48996 0.7915 0.0
H2868 H 0.60416 0.61184 0.782 0.0
H2869 H 0.56513 0.56366 0.81862 0.0
C2870 C 0.59647 0.59884 0.82821 0.0
C2871 C 0.62149 0.62391 0.82718 0.0
C2872 C 0.6009 0.58511 0.78391 0.0
C2873 C 0.59326 0.5962 0.80619 0.0
C2874 C 0.61154 0.56151 0.77526 0.0
C2875 C 0.61145 0.52681 0.77813 0.0
C2876 C 0.5903 0.57378 0.79548 0.0
C2877 C 0.59564 0.51648 0.78902 0.0
C2878 C 0.58214 0.58503 0.81772 0.0
C2879 C 0.62831 0.63759 0.81559 0.0
N2880 N 0.58656 0.53992 0.79746 0.0
N2881 N 0.6149 0.62299 0.80549 0.0
H2882 H 0.91215 0.45144 0.06835 0.0
H2883 H 0.78646 0.55253 0.11014 0.0
H2884 H 0.87352 0.5514 1.06026 0.0
H2885 H 0.82961 0.45581 0.12028 0.0
H2886 H 0.83093 0.55953 0.095 0.0
H2887 H 0.89403 0.45837 0.08961 0.0
C2888 C 0.90027 0.47501 0.07108 0.0
C2889 C 0.89362 0.50055 1.06245 0.0
C2890 C 0.83121 0.53705 0.1007 0.0
C2891 C 0.87289 0.50871 0.08673 0.0
C2892 C 0.80589 0.53317 0.10951 0.0
C2893 C 0.80345 0.5029 0.11624 0.0
C2894 C 0.85384 0.51024 0.09843 0.0
C2895 C 0.82965 0.47894 0.11494 0.0
C2896 C 0.89016 0.47908 0.08324 0.0
C2897 C 0.87902 0.53093 0.06656 0.0
N2898 N 0.85319 0.48264 0.10593 0.0
N2899 N 0.86858 0.5339 0.07834 0.0
H2900 H 0.98192 0.45208 0.33651 0.0
H2901 H 0.95687 0.54046 0.2856 0.0
H2902 H 0.93884 0.5418 0.35289 0.0
H2903 H 0.95758 0.63178 0.30716 0.0
H2904 H 0.98029 0.50955 0.30268 0.0
H2905 H 1.00326 0.48684 0.31964 0.0
C2906 C 0.97737 0.47914 0.33665 0.0
C2907 C 0.95728 0.4938 0.34585 0.0
C2908 C 0.97679 0.53658 0.30364 0.0
C2909 C 0.98069 0.53348 0.32648 0.0
C2910 C 0.96322 0.5544 0.29378 0.0
C2911 C 0.95407 0.58858 0.29508 0.0
C2912 C 0.98073 0.55299 0.31493 0.0
C2913 C 0.96296 0.60511 0.30594 0.0
C2914 C 0.98943 0.49896 0.32699 0.0
C2915 C 0.95356 0.52916 0.34589 0.0
N2916 N 0.97484 0.58693 0.31558 0.0
N2917 N 0.96441 0.54765 0.33619 0.0
H2918 H 0.82678 0.66206 0.51458 0.0
H2919 H 0.83842 0.71818 0.58309 0.0
H2920 H 0.7454 0.70514 0.536 0.0
H2921 H 0.90855 0.65125 0.56475 0.0
H2922 H 0.817 0.73676 0.56325 0.0
H2923 H 0.86736 0.6815 0.52986 0.0
C2924 C 0.81754 0.67637 0.52234 0.0
C2925 C 0.78257 0.68076 0.52431 0.0
C2926 C 0.83779 0.71877 0.56356 0.0
C2927 C 0.82872 0.7031 0.54172 0.0
C2928 C 0.85015 0.70826 0.57488 0.0
C2929 C 0.87446 0.6823 0.57553 0.0
C2930 C 0.84966 0.70294 0.55289 0.0
C2931 C 0.88892 0.6705 0.56461 0.0
C2932 C 0.84073 0.6876 0.53101 0.0
C2933 C 0.77207 0.70056 0.53425 0.0
N2934 N 0.87572 0.68032 0.55371 0.0
N2935 N 0.795 0.71026 0.54277 0.0
H2936 H 0.46584 0.55039 0.34618 0.0
H2937 H 0.41861 0.55484 0.2771 0.0
H2938 H 0.42699 0.63759 0.32683 0.0
H2939 H 0.45408 0.46575 0.29627 0.0
H2940 H 0.44124 0.5899 0.29329 0.0
H2941 H 0.482 0.52514 0.32666 0.0
C2942 C 0.46162 0.56463 0.33784 0.0
C2943 C 0.44385 0.59546 0.33806 0.0
C2944 C 0.44471 0.56272 0.29387 0.0
C2945 C 0.46175 0.56669 0.31578 0.0
C2946 C 0.43184 0.54258 0.28458 0.0
C2947 C 0.43356 0.50714 0.28549 0.0
C2948 C 0.45869 0.54734 0.3043 0.0
C2949 C 0.45101 0.4929 0.29543 0.0
C2950 C 0.47085 0.55024 0.3267 0.0
C2951 C 0.44 0.61342 0.32706 0.0
N2952 N 0.46225 0.51302 0.30459 0.0
N2953 N 0.44799 0.59832 0.31632 0.0
H2954 H 0.27715 0.71079 1.03653 0.0
H2955 H 0.29006 0.69841 0.10538 0.0
H2956 H 0.37241 0.71113 1.05593 0.0
H2957 H 0.19649 0.72055 0.08648 0.0
H2958 H 0.32152 0.7231 0.08852 0.0
H2959 H 0.24943 0.73447 1.05439 0.0
C2960 C 0.29256 0.71681 1.0444 0.0
C2961 C 0.32693 0.70749 1.04492 0.0
C2962 C 0.29405 0.72346 0.08815 0.0
C2963 C 0.29492 0.73347 1.06561 0.0
C2964 C 0.27594 0.70943 0.09787 0.0
C2965 C 0.24056 0.70593 0.0971 0.0
C2966 C 0.27672 0.73308 0.07748 0.0
C2967 C 0.22389 0.72113 0.08716 0.0
C2968 C 0.27658 0.73027 1.05468 0.0
C2969 C 0.34547 0.71634 1.05536 0.0
N2970 N 0.24216 0.73307 0.07754 0.0
N2971 N 0.32904 0.72786 1.06545 0.0
H2972 H 0.11051 0.53773 0.78504 0.0
H2973 H 0.08404 0.46508 0.84057 0.0
H2974 H 0.13392 0.62984 0.80434 0.0
H2975 H 0.13874 0.55231 0.85361 0.0
H2976 H 0.06972 0.49643 0.822 0.0
H2977 H 0.08939 0.51319 0.80396 0.0
C2978 C 0.11039 0.55308 0.79323 0.0
C2979 C 0.12491 0.58548 0.7932 0.0
C2980 C 0.08473 0.50881 0.82892 0.0
C2981 C 0.10017 0.55784 0.81497 0.0
C2982 C 0.09272 0.49095 0.83958 0.0
C2983 C 0.11361 0.50566 0.84847 0.0
C2984 C 0.09829 0.54136 0.82712 0.0
C2985 C 0.12296 0.53967 0.84696 0.0
C2986 C 0.09789 0.53918 0.80408 0.0
C2987 C 0.1233 0.60462 0.80396 0.0
N2988 N 0.11582 0.55609 0.83637 0.0
N2989 N 0.11195 0.5902 0.81447 0.0
H2990 H 0.33799 0.46518 0.50769 0.0
H2991 H 0.39078 0.56755 0.56551 0.0
H2992 H 0.29515 0.56074 0.51907 0.0
H2993 H 0.42483 0.46618 0.55719 0.0
H2994 H 0.37437 0.57506 0.54427 0.0
H2995 H 0.38705 0.47572 0.52074 0.0
C2996 C 0.33936 0.48886 0.51262 0.0
C2997 C 0.31167 0.51136 0.51272 0.0
C2998 C 0.38615 0.55141 0.547 0.0
C2999 C 0.36749 0.52344 0.52768 0.0
C3000 C 0.39573 0.54712 0.55916 0.0
C3001 C 0.40815 0.5157 0.56326 0.0
C3002 C 0.38841 0.52394 0.53892 0.0
C3003 C 0.41405 0.49034 0.55453 0.0
C3004 C 0.36739 0.49486 0.52008 0.0
C3005 C 0.31543 0.54221 0.51891 0.0
N3006 N 0.40334 0.4947 0.54283 0.0
N3007 N 0.34233 0.54689 0.52643 0.0
loop_
_geom_bond_atom_site_label_1
_geom_bond_atom_site_label_2
_geom_bond_distance
_geom_bond_site_symmetry_2
_ccdc_geom_bond_type
Ho0 C3 2.811 . S
Ho0 O20 2.322 . S
Ho0 O22 2.378 . S
Ho0 O23 2.524 . S
Ho0 O24 2.381 . S
Ho0 O25 2.669 . S
Ho0 O27 2.346 . S
Ho0 O31 2.305 . S
Ho1 C12 2.811 . S
Ho1 O21 2.346 . S
Ho1 O25 2.305 . S
Ho1 O26 2.322 . S
Ho1 O28 2.378 . S
Ho1 O29 2.524 . S
Ho1 O30 2.381 . S
Ho1 O31 2.669 . S
C2 O20 1.259 . S
C2 O21 1.268 . S
C3 Ho0 2.811 . S
C3 C4 1.488 . S
C3 O22 1.215 . S
C3 O23 1.289 . S
C4 C3 1.488 . S
C4 C5 1.348 . S
C4 C9 1.413 . S
C5 C4 1.348 . S
C5 C6 1.442 . S
C5 H32 0.930 . S
C6 C5 1.442 . S
C6 C7 1.381 . S
C6 H33 0.931 . S
C7 C6 1.381 . S
C7 C8 1.321 . S
C8 C7 1.321 . S
C8 C9 1.403 . S
C8 H34 0.934 . S
C9 C4 1.413 . S
C9 C8 1.403 . S
C9 H35 0.930 . S
C10 O24 1.275 . S
C10 O25 1.256 . S
C11 O26 1.259 . S
C11 O27 1.268 . S
C12 Ho1 2.811 . S
C12 C13 1.488 . S
C12 O28 1.215 . S
C12 O29 1.289 . S
C13 C12 1.488 . S
C13 C14 1.348 . S
C13 C18 1.413 . S
C14 C13 1.348 . S
C14 C15 1.442 . S
C14 H36 0.930 . S
C15 C14 1.442 . S
C15 C16 1.381 . S
C15 H37 0.931 . S
C16 C15 1.381 . S
C16 C17 1.321 . S
C17 C16 1.321 . S
C17 C18 1.403 . S
C17 H38 0.934 . S
C18 C13 1.413 . S
C18 C17 1.403 . S
C18 H39 0.930 . S
C19 O30 1.275 . S
C19 O31 1.256 . S
O20 Ho0 2.322 . S
O20 C2 1.259 . S
O21 Ho1 2.346 . S
O21 C2 1.268 . S
O22 Ho0 2.378 . S
O22 C3 1.215 . S
O23 Ho0 2.524 . S
O23 C3 1.289 . S
O24 Ho0 2.381 . S
O24 C10 1.275 . S
O25 Ho0 2.669 . S
O25 Ho1 2.305 . S
O25 C10 1.256 . S
O26 Ho1 2.322 . S
O26 C11 1.259 . S
O27 Ho0 2.346 . S
O27 C11 1.268 . S
O28 Ho1 2.378 . S
O28 C12 1.215 . S
O29 Ho1 2.524 . S
O29 C12 1.289 . S
O30 Ho1 2.381 . S
O30 C19 1.275 . S
O31 Ho0 2.305 . S
O31 Ho1 2.669 . S
O31 C19 1.256 . S
H32 C5 0.930 . S
H33 C6 0.931 . S
H34 C8 0.934 . S
H35 C9 0.930 . S
H36 C14 0.930 . S
H37 C15 0.931 . S
H38 C17 0.934 . S
H39 C18 0.930 . S
Ho40 C43 2.811 1_455 S
Ho40 O60 2.322 . S
Ho40 O62 2.378 1_455 S
Ho40 O63 2.524 1_455 S
Ho40 O64 2.381 1_565 S
Ho40 O65 2.669 . S
Ho40 O67 2.346 . S
Ho40 O71 2.305 . S
Ho41 C52 2.811 . S
Ho41 O61 2.346 . S
Ho41 O65 2.305 . S
Ho41 O66 2.322 . S
Ho41 O68 2.378 . S
Ho41 O69 2.524 . S
Ho41 O70 2.381 . S
Ho41 O71 2.669 . S
C42 O60 1.259 . S
C42 O61 1.268 . S
C43 Ho40 2.811 1_655 S
C43 C44 1.488 . S
C43 O62 1.215 . S
C43 O63 1.289 . S
C44 C43 1.488 . S
C44 C45 1.348 . S
C44 C49 1.413 . S
C45 C44 1.348 . S
C45 C46 1.442 . S
C45 H72 0.930 . S
C46 C45 1.442 . S
C46 C47 1.381 . S
C46 H73 0.931 . S
C47 C46 1.381 . S
C47 C48 1.321 . S
C48 C47 1.321 . S
C48 C49 1.403 . S
C48 H74 0.934 . S
C49 C44 1.413 . S
C49 C48 1.403 . S
C49 H75 0.930 . S
C50 O64 1.275 . S
C50 O65 1.256 1_545 S
C51 O66 1.259 . S
C51 O67 1.268 . S
C52 Ho41 2.811 . S
C52 C53 1.488 . S
C52 O68 1.215 . S
C52 O69 1.289 . S
C53 C52 1.488 . S
C53 C54 1.348 . S
C53 C58 1.413 . S
C54 C53 1.348 . S
C54 C55 1.442 . S
C54 H76 0.930 1_565 S
C55 C54 1.442 . S
C55 C56 1.381 . S
C55 H77 0.931 1_565 S
C56 C55 1.381 . S
C56 C57 1.321 . S
C57 C56 1.321 . S
C57 C58 1.403 . S
C57 H78 0.934 . S
C58 C53 1.413 . S
C58 C57 1.403 . S
C58 H79 0.930 . S
C59 O70 1.275 . S
C59 O71 1.256 . S
O60 Ho40 2.322 . S
O60 C42 1.259 . S
O61 Ho41 2.346 . S
O61 C42 1.268 . S
O62 Ho40 2.378 1_655 S
O62 C43 1.215 . S
O63 Ho40 2.524 1_655 S
O63 C43 1.289 . S
O64 Ho40 2.381 1_545 S
O64 C50 1.275 . S
O65 Ho40 2.669 . S
O65 Ho41 2.305 . S
O65 C50 1.256 1_565 S
O66 Ho41 2.322 . S
O66 C51 1.259 . S
O67 Ho40 2.346 . S
O67 C51 1.268 . S
O68 Ho41 2.378 . S
O68 C52 1.215 . S
O69 Ho41 2.524 . S
O69 C52 1.289 . S
O70 Ho41 2.381 . S
O70 C59 1.275 . S
O71 Ho40 2.305 . S
O71 Ho41 2.669 . S
O71 C59 1.256 . S
H72 C45 0.930 . S
H73 C46 0.931 . S
H74 C48 0.934 . S
H75 C49 0.930 . S
H76 C54 0.930 1_545 S
H77 C55 0.931 1_545 S
H78 C57 0.934 . S
H79 C58 0.930 . S
Ho80 C83 2.811 . S
Ho80 O100 2.322 . S
Ho80 O102 2.378 . S
Ho80 O103 2.524 . S
Ho80 O104 2.381 . S
Ho80 O105 2.669 . S
Ho80 O107 2.346 . S
Ho80 O111 2.305 . S
Ho81 C92 2.811 . S
Ho81 O101 2.346 . S
Ho81 O105 2.305 . S
Ho81 O106 2.322 . S
Ho81 O108 2.378 . S
Ho81 O109 2.524 . S
Ho81 O110 2.381 . S
Ho81 O111 2.669 . S
C82 O100 1.259 . S
C82 O101 1.268 . S
C83 Ho80 2.811 . S
C83 C84 1.488 . S
C83 O102 1.215 . S
C83 O103 1.289 . S
C84 C83 1.488 . S
C84 C85 1.348 . S
C84 C89 1.413 . S
C85 C84 1.348 . S
C85 C86 1.442 . S
C85 H112 0.930 . S
C86 C85 1.442 . S
C86 C87 1.381 . S
C86 H113 0.931 . S
C87 C86 1.381 . S
C87 C88 1.321 . S
C88 C87 1.321 . S
C88 C89 1.403 . S
C88 H114 0.934 . S
C89 C84 1.413 . S
C89 C88 1.403 . S
C89 H115 0.930 . S
C90 O104 1.275 . S
C90 O105 1.256 . S
C91 O106 1.259 . S
C91 O107 1.268 . S
C92 Ho81 2.811 . S
C92 C93 1.488 . S
C92 O108 1.215 . S
C92 O109 1.289 . S
C93 C92 1.488 . S
C93 C94 1.348 . S
C93 C98 1.413 . S
C94 C93 1.348 . S
C94 C95 1.442 . S
C94 H116 0.930 . S
C95 C94 1.442 . S
C95 C96 1.381 . S
C95 H117 0.931 . S
C96 C95 1.381 . S
C96 C97 1.321 . S
C97 C96 1.321 . S
C97 C98 1.403 . S
C97 H118 0.934 . S
C98 C93 1.413 . S
C98 C97 1.403 . S
C98 H119 0.930 . S
C99 O110 1.275 . S
C99 O111 1.256 . S
O100 Ho80 2.322 . S
O100 C82 1.259 . S
O101 Ho81 2.346 . S
O101 C82 1.268 . S
O102 Ho80 2.378 . S
O102 C83 1.215 . S
O103 Ho80 2.524 . S
O103 C83 1.289 . S
O104 Ho80 2.381 . S
O104 C90 1.275 . S
O105 Ho80 2.669 . S
O105 Ho81 2.305 . S
O105 C90 1.256 . S
O106 Ho81 2.322 . S
O106 C91 1.259 . S
O107 Ho80 2.346 . S
O107 C91 1.268 . S
O108 Ho81 2.378 . S
O108 C92 1.215 . S
O109 Ho81 2.524 . S
O109 C92 1.289 . S
O110 Ho81 2.381 . S
O110 C99 1.275 . S
O111 Ho80 2.305 . S
O111 Ho81 2.669 . S
O111 C99 1.256 . S
H112 C85 0.930 . S
H113 C86 0.931 . S
H114 C88 0.934 . S
H115 C89 0.930 . S
H116 C94 0.930 . S
H117 C95 0.931 . S
H118 C97 0.934 . S
H119 C98 0.930 . S
Ho120 C123 2.811 . S
Ho120 O140 2.322 . S
Ho120 O142 2.378 . S
Ho120 O143 2.524 . S
Ho120 O144 2.381 1_545 S
Ho120 O145 2.669 . S
Ho120 O147 2.346 . S
Ho120 O151 2.305 . S
Ho121 C132 2.811 . S
Ho121 O141 2.346 . S
Ho121 O145 2.305 . S
Ho121 O146 2.322 . S
Ho121 O148 2.378 . S
Ho121 O149 2.524 . S
Ho121 O150 2.381 . S
Ho121 O151 2.669 . S
C122 O140 1.259 . S
C122 O141 1.268 . S
C123 Ho120 2.811 . S
C123 C124 1.488 . S
C123 O142 1.215 . S
C123 O143 1.289 . S
C124 C123 1.488 . S
C124 C125 1.348 . S
C124 C129 1.413 . S
C125 C124 1.348 . S
C125 C126 1.442 . S
C125 H152 0.930 . S
C126 C125 1.442 . S
C126 C127 1.381 . S
C126 H153 0.931 . S
C127 C126 1.381 . S
C127 C128 1.321 . S
C128 C127 1.321 . S
C128 C129 1.403 . S
C128 H154 0.934 . S
C129 C124 1.413 . S
C129 C128 1.403 . S
C129 H155 0.930 . S
C130 O144 1.275 . S
C130 O145 1.256 1_565 S
C131 O146 1.259 . S
C131 O147 1.268 . S
C132 Ho121 2.811 . S
C132 C133 1.488 . S
C132 O148 1.215 . S
C132 O149 1.289 . S
C133 C132 1.488 . S
C133 C134 1.348 . S
C133 C138 1.413 . S
C134 C133 1.348 . S
C134 C135 1.442 . S
C134 H156 0.930 1_545 S
C135 C134 1.442 . S
C135 C136 1.381 . S
C135 H157 0.931 1_545 S
C136 C135 1.381 . S
C136 C137 1.321 . S
C137 C136 1.321 . S
C137 C138 1.403 . S
C137 H158 0.934 . S
C138 C133 1.413 . S
C138 C137 1.403 . S
C138 H159 0.930 . S
C139 O150 1.275 . S
C139 O151 1.256 . S
O140 Ho120 2.322 . S
O140 C122 1.259 . S
O141 Ho121 2.346 . S
O141 C122 1.268 . S
O142 Ho120 2.378 . S
O142 C123 1.215 . S
O143 Ho120 2.524 . S
O143 C123 1.289 . S
O144 Ho120 2.381 1_565 S
O144 C130 1.275 . S
O145 Ho120 2.669 . S
O145 Ho121 2.305 . S
O145 C130 1.256 1_545 S
O146 Ho121 2.322 . S
O146 C131 1.259 . S
O147 Ho120 2.346 . S
O147 C131 1.268 . S
O148 Ho121 2.378 . S
O148 C132 1.215 . S
O149 Ho121 2.524 . S
O149 C132 1.289 . S
O150 Ho121 2.381 . S
O150 C139 1.275 . S
O151 Ho120 2.305 . S
O151 Ho121 2.669 . S
O151 C139 1.256 . S
H152 C125 0.930 . S
H153 C126 0.931 . S
H154 C128 0.934 . S
H155 C129 0.930 . S
H156 C134 0.930 1_565 S
H157 C135 0.931 1_565 S
H158 C137 0.934 . S
H159 C138 0.930 . S
Ho160 C163 2.811 . S
Ho160 O180 2.322 . S
Ho160 O182 2.378 . S
Ho160 O183 2.524 . S
Ho160 O184 2.381 . S
Ho160 O185 2.669 . S
Ho160 O187 2.346 . S
Ho160 O191 2.305 . S
Ho161 C172 2.811 . S
Ho161 O181 2.346 . S
Ho161 O185 2.305 . S
Ho161 O186 2.322 . S
Ho161 O188 2.378 . S
Ho161 O189 2.524 . S
Ho161 O190 2.381 . S
Ho161 O191 2.669 . S
C162 O180 1.259 . S
C162 O181 1.268 . S
C163 Ho160 2.811 . S
C163 C164 1.488 . S
C163 O182 1.215 . S
C163 O183 1.289 . S
C164 C163 1.488 . S
C164 C165 1.348 . S
C164 C169 1.413 . S
C165 C164 1.348 . S
C165 C166 1.442 . S
C165 H192 0.930 . S
C166 C165 1.442 . S
C166 C167 1.381 . S
C166 H193 0.931 . S
C167 C166 1.381 . S
C167 C168 1.321 . S
C168 C167 1.321 . S
C168 C169 1.403 . S
C168 H194 0.934 . S
C169 C164 1.413 . S
C169 C168 1.403 . S
C169 H195 0.930 . S
C170 O184 1.275 . S
C170 O185 1.256 . S
C171 O186 1.259 . S
C171 O187 1.268 . S
C172 Ho161 2.811 . S
C172 C173 1.488 . S
C172 O188 1.215 . S
C172 O189 1.289 . S
C173 C172 1.488 . S
C173 C174 1.348 . S
C173 C178 1.413 . S
C174 C173 1.348 . S
C174 C175 1.442 . S
C174 H196 0.930 . S
C175 C174 1.442 . S
C175 C176 1.381 . S
C175 H197 0.931 . S
C176 C175 1.381 . S
C176 C177 1.321 . S
C177 C176 1.321 . S
C177 C178 1.403 . S
C177 H198 0.934 . S
C178 C173 1.413 . S
C178 C177 1.403 . S
C178 H199 0.930 . S
C179 O190 1.275 . S
C179 O191 1.256 . S
O180 Ho160 2.322 . S
O180 C162 1.259 . S
O181 Ho161 2.346 . S
O181 C162 1.268 . S
O182 Ho160 2.378 . S
O182 C163 1.215 . S
O183 Ho160 2.524 . S
O183 C163 1.289 . S
O184 Ho160 2.381 . S
O184 C170 1.275 . S
O185 Ho160 2.669 . S
O185 Ho161 2.305 . S
O185 C170 1.256 . S
O186 Ho161 2.322 . S
O186 C171 1.259 . S
O187 Ho160 2.346 . S
O187 C171 1.268 . S
O188 Ho161 2.378 . S
O188 C172 1.215 . S
O189 Ho161 2.524 . S
O189 C172 1.289 . S
O190 Ho161 2.381 . S
O190 C179 1.275 . S
O191 Ho160 2.305 . S
O191 Ho161 2.669 . S
O191 C179 1.256 . S
H192 C165 0.930 . S
H193 C166 0.931 . S
H194 C168 0.934 . S
H195 C169 0.930 . S
H196 C174 0.930 . S
H197 C175 0.931 . S
H198 C177 0.934 . S
H199 C178 0.930 . S
Ho200 C203 2.811 . S
Ho200 O220 2.322 . S
Ho200 O222 2.378 . S
Ho200 O223 2.524 . S
Ho200 O224 2.381 1_565 S
Ho200 O225 2.669 . S
Ho200 O227 2.346 . S
Ho200 O231 2.305 . S
Ho201 C212 2.811 . S
Ho201 O221 2.346 . S
Ho201 O225 2.305 . S
Ho201 O226 2.322 . S
Ho201 O228 2.378 . S
Ho201 O229 2.524 . S
Ho201 O230 2.381 . S
Ho201 O231 2.669 . S
C202 O220 1.259 . S
C202 O221 1.268 . S
C203 Ho200 2.811 . S
C203 C204 1.488 . S
C203 O222 1.215 . S
C203 O223 1.289 . S
C204 C203 1.488 . S
C204 C205 1.348 . S
C204 C209 1.413 . S
C205 C204 1.348 . S
C205 C206 1.442 . S
C205 H232 0.930 . S
C206 C205 1.442 . S
C206 C207 1.381 . S
C206 H233 0.931 . S
C207 C206 1.381 . S
C207 C208 1.321 . S
C208 C207 1.321 . S
C208 C209 1.403 . S
C208 H234 0.934 . S
C209 C204 1.413 . S
C209 C208 1.403 . S
C209 H235 0.930 . S
C210 O224 1.275 . S
C210 O225 1.256 1_545 S
C211 O226 1.259 . S
C211 O227 1.268 . S
C212 Ho201 2.811 . S
C212 C213 1.488 . S
C212 O228 1.215 . S
C212 O229 1.289 . S
C213 C212 1.488 . S
C213 C214 1.348 . S
C213 C218 1.413 . S
C214 C213 1.348 . S
C214 C215 1.442 . S
C214 H236 0.930 1_565 S
C215 C214 1.442 . S
C215 C216 1.381 . S
C215 H237 0.931 1_565 S
C216 C215 1.381 . S
C216 C217 1.321 . S
C217 C216 1.321 . S
C217 C218 1.403 . S
C217 H238 0.934 . S
C218 C213 1.413 . S
C218 C217 1.403 . S
C218 H239 0.930 . S
C219 O230 1.275 . S
C219 O231 1.256 . S
O220 Ho200 2.322 . S
O220 C202 1.259 . S
O221 Ho201 2.346 . S
O221 C202 1.268 . S
O222 Ho200 2.378 . S
O222 C203 1.215 . S
O223 Ho200 2.524 . S
O223 C203 1.289 . S
O224 Ho200 2.381 1_545 S
O224 C210 1.275 . S
O225 Ho200 2.669 . S
O225 Ho201 2.305 . S
O225 C210 1.256 1_565 S
O226 Ho201 2.322 . S
O226 C211 1.259 . S
O227 Ho200 2.346 . S
O227 C211 1.268 . S
O228 Ho201 2.378 . S
O228 C212 1.215 . S
O229 Ho201 2.524 . S
O229 C212 1.289 . S
O230 Ho201 2.381 . S
O230 C219 1.275 . S
O231 Ho200 2.305 . S
O231 Ho201 2.669 . S
O231 C219 1.256 . S
H232 C205 0.930 . S
H233 C206 0.931 . S
H234 C208 0.934 . S
H235 C209 0.930 . S
H236 C214 0.930 1_545 S
H237 C215 0.931 1_545 S
H238 C217 0.934 . S
H239 C218 0.930 . S
Ho240 C243 2.811 . S
Ho240 O260 2.322 . S
Ho240 O262 2.378 . S
Ho240 O263 2.524 . S
Ho240 O264 2.381 . S
Ho240 O265 2.669 . S
Ho240 O267 2.346 . S
Ho240 O271 2.305 . S
Ho241 C252 2.811 . S
Ho241 O261 2.346 . S
Ho241 O265 2.305 . S
Ho241 O266 2.322 . S
Ho241 O268 2.378 . S
Ho241 O269 2.524 . S
Ho241 O270 2.381 . S
Ho241 O271 2.669 . S
C242 O260 1.259 . S
C242 O261 1.268 . S
C243 Ho240 2.811 . S
C243 C244 1.488 . S
C243 O262 1.215 . S
C243 O263 1.289 . S
C244 C243 1.488 . S
C244 C245 1.348 . S
C244 C249 1.413 . S
C245 C244 1.348 . S
C245 C246 1.442 . S
C245 H272 0.930 . S
C246 C245 1.442 . S
C246 C247 1.381 . S
C246 H273 0.931 . S
C247 C246 1.381 . S
C247 C248 1.321 . S
C248 C247 1.321 . S
C248 C249 1.403 . S
C248 H274 0.934 . S
C249 C244 1.413 . S
C249 C248 1.403 . S
C249 H275 0.930 . S
C250 O264 1.275 . S
C250 O265 1.256 . S
C251 O266 1.259 . S
C251 O267 1.268 . S
C252 Ho241 2.811 . S
C252 C253 1.488 . S
C252 O268 1.215 . S
C252 O269 1.289 . S
C253 C252 1.488 . S
C253 C254 1.348 . S
C253 C258 1.413 . S
C254 C253 1.348 . S
C254 C255 1.442 . S
C254 H276 0.930 . S
C255 C254 1.442 . S
C255 C256 1.381 . S
C255 H277 0.931 . S
C256 C255 1.381 . S
C256 C257 1.321 . S
C257 C256 1.321 . S
C257 C258 1.403 . S
C257 H278 0.934 . S
C258 C253 1.413 . S
C258 C257 1.403 . S
C258 H279 0.930 . S
C259 O270 1.275 . S
C259 O271 1.256 . S
O260 Ho240 2.322 . S
O260 C242 1.259 . S
O261 Ho241 2.346 . S
O261 C242 1.268 . S
O262 Ho240 2.378 . S
O262 C243 1.215 . S
O263 Ho240 2.524 . S
O263 C243 1.289 . S
O264 Ho240 2.381 . S
O264 C250 1.275 . S
O265 Ho240 2.669 . S
O265 Ho241 2.305 . S
O265 C250 1.256 . S
O266 Ho241 2.322 . S
O266 C251 1.259 . S
O267 Ho240 2.346 . S
O267 C251 1.268 . S
O268 Ho241 2.378 . S
O268 C252 1.215 . S
O269 Ho241 2.524 . S
O269 C252 1.289 . S
O270 Ho241 2.381 . S
O270 C259 1.275 . S
O271 Ho240 2.305 . S
O271 Ho241 2.669 . S
O271 C259 1.256 . S
H272 C245 0.930 . S
H273 C246 0.931 . S
H274 C248 0.934 . S
H275 C249 0.930 . S
H276 C254 0.930 . S
H277 C255 0.931 . S
H278 C257 0.934 . S
H279 C258 0.930 . S
Ho280 C283 2.811 1_455 S
Ho280 O300 2.322 . S
Ho280 O302 2.378 1_455 S
Ho280 O303 2.524 1_455 S
Ho280 O304 2.381 1_545 S
Ho280 O305 2.669 . S
Ho280 O307 2.346 . S
Ho280 O311 2.305 . S
Ho281 C292 2.811 . S
Ho281 O301 2.346 . S
Ho281 O305 2.305 . S
Ho281 O306 2.322 . S
Ho281 O308 2.378 . S
Ho281 O309 2.524 . S
Ho281 O310 2.381 . S
Ho281 O311 2.669 . S
C282 O300 1.259 . S
C282 O301 1.268 . S
C283 Ho280 2.811 1_655 S
C283 C284 1.488 . S
C283 O302 1.215 . S
C283 O303 1.289 . S
C284 C283 1.488 . S
C284 C285 1.348 . S
C284 C289 1.413 . S
C285 C284 1.348 . S
C285 C286 1.442 . S
C285 H312 0.930 . S
C286 C285 1.442 . S
C286 C287 1.381 . S
C286 H313 0.931 . S
C287 C286 1.381 . S
C287 C288 1.321 . S
C288 C287 1.321 . S
C288 C289 1.403 . S
C288 H314 0.934 . S
C289 C284 1.413 . S
C289 C288 1.403 . S
C289 H315 0.930 . S
C290 O304 1.275 . S
C290 O305 1.256 1_565 S
C291 O306 1.259 . S
C291 O307 1.268 . S
C292 Ho281 2.811 . S
C292 C293 1.488 . S
C292 O308 1.215 . S
C292 O309 1.289 . S
C293 C292 1.488 . S
C293 C294 1.348 . S
C293 C298 1.413 . S
C294 C293 1.348 . S
C294 C295 1.442 . S
C294 H316 0.930 1_545 S
C295 C294 1.442 . S
C295 C296 1.381 . S
C295 H317 0.931 1_545 S
C296 C295 1.381 . S
C296 C297 1.321 . S
C297 C296 1.321 . S
C297 C298 1.403 . S
C297 H318 0.934 . S
C298 C293 1.413 . S
C298 C297 1.403 . S
C298 H319 0.930 . S
C299 O310 1.275 . S
C299 O311 1.256 . S
O300 Ho280 2.322 . S
O300 C282 1.259 . S
O301 Ho281 2.346 . S
O301 C282 1.268 . S
O302 Ho280 2.378 1_655 S
O302 C283 1.215 . S
O303 Ho280 2.524 1_655 S
O303 C283 1.289 . S
O304 Ho280 2.381 1_565 S
O304 C290 1.275 . S
O305 Ho280 2.669 . S
O305 Ho281 2.305 . S
O305 C290 1.256 1_545 S
O306 Ho281 2.322 . S
O306 C291 1.259 . S
O307 Ho280 2.346 . S
O307 C291 1.268 . S
O308 Ho281 2.378 . S
O308 C292 1.215 . S
O309 Ho281 2.524 . S
O309 C292 1.289 . S
O310 Ho281 2.381 . S
O310 C299 1.275 . S
O311 Ho280 2.305 . S
O311 Ho281 2.669 . S
O311 C299 1.256 . S
H312 C285 0.930 . S
H313 C286 0.931 . S
H314 C288 0.934 . S
H315 C289 0.930 . S
H316 C294 0.930 1_565 S
H317 C295 0.931 1_565 S
H318 C297 0.934 . S
H319 C298 0.930 . S
Ho320 C323 2.811 . S
Ho320 O340 2.322 . S
Ho320 O342 2.378 . S
Ho320 O343 2.524 . S
Ho320 O344 2.381 . S
Ho320 O345 2.669 . S
Ho320 O347 2.346 . S
Ho320 O351 2.305 . S
Ho321 C332 2.811 . S
Ho321 O341 2.346 . S
Ho321 O345 2.305 . S
Ho321 O346 2.322 . S
Ho321 O348 2.378 . S
Ho321 O349 2.524 . S
Ho321 O350 2.381 . S
Ho321 O351 2.669 . S
C322 O340 1.259 . S
C322 O341 1.268 . S
C323 Ho320 2.811 . S
C323 C324 1.488 . S
C323 O342 1.215 . S
C323 O343 1.289 . S
C324 C323 1.488 . S
C324 C325 1.348 . S
C324 C329 1.413 . S
C325 C324 1.348 . S
C325 C326 1.442 . S
C325 H352 0.930 . S
C326 C325 1.442 . S
C326 C327 1.381 . S
C326 H353 0.931 . S
C327 C326 1.381 . S
C327 C328 1.321 . S
C328 C327 1.321 . S
C328 C329 1.403 . S
C328 H354 0.934 . S
C329 C324 1.413 . S
C329 C328 1.403 . S
C329 H355 0.930 . S
C330 O344 1.275 . S
C330 O345 1.256 . S
C331 O346 1.259 . S
C331 O347 1.268 . S
C332 Ho321 2.811 . S
C332 C333 1.488 . S
C332 O348 1.215 . S
C332 O349 1.289 . S
C333 C332 1.488 . S
C333 C334 1.348 . S
C333 C338 1.413 . S
C334 C333 1.348 . S
C334 C335 1.442 . S
C334 H356 0.930 . S
C335 C334 1.442 . S
C335 C336 1.381 . S
C335 H357 0.931 . S
C336 C335 1.381 . S
C336 C337 1.321 . S
C337 C336 1.321 . S
C337 C338 1.403 . S
C337 H358 0.934 . S
C338 C333 1.413 . S
C338 C337 1.403 . S
C338 H359 0.930 . S
C339 O350 1.275 . S
C339 O351 1.256 . S
O340 Ho320 2.322 . S
O340 C322 1.259 . S
O341 Ho321 2.346 . S
O341 C322 1.268 . S
O342 Ho320 2.378 . S
O342 C323 1.215 . S
O343 Ho320 2.524 . S
O343 C323 1.289 . S
O344 Ho320 2.381 . S
O344 C330 1.275 . S
O345 Ho320 2.669 . S
O345 Ho321 2.305 . S
O345 C330 1.256 . S
O346 Ho321 2.322 . S
O346 C331 1.259 . S
O347 Ho320 2.346 . S
O347 C331 1.268 . S
O348 Ho321 2.378 . S
O348 C332 1.215 . S
O349 Ho321 2.524 . S
O349 C332 1.289 . S
O350 Ho321 2.381 . S
O350 C339 1.275 . S
O351 Ho320 2.305 . S
O351 Ho321 2.669 . S
O351 C339 1.256 . S
H352 C325 0.930 . S
H353 C326 0.931 . S
H354 C328 0.934 . S
H355 C329 0.930 . S
H356 C334 0.930 . S
H357 C335 0.931 . S
H358 C337 0.934 . S
H359 C338 0.930 . S
Ho360 C363 2.811 . S
Ho360 O380 2.322 . S
Ho360 O382 2.378 . S
Ho360 O383 2.524 . S
Ho360 O384 2.381 . S
Ho360 O385 2.669 . S
Ho360 O387 2.346 . S
Ho360 O391 2.305 . S
Ho361 C372 2.811 1_655 S
Ho361 O381 2.346 . S
Ho361 O385 2.305 . S
Ho361 O386 2.322 . S
Ho361 O388 2.378 1_655 S
Ho361 O389 2.524 1_655 S
Ho361 O390 2.381 1_545 S
Ho361 O391 2.669 . S
C362 O380 1.259 . S
C362 O381 1.268 . S
C363 Ho360 2.811 . S
C363 C364 1.488 . S
C363 O382 1.215 . S
C363 O383 1.289 . S
C364 C363 1.488 . S
C364 C365 1.348 . S
C364 C369 1.413 . S
C365 C364 1.348 . S
C365 C366 1.442 . S
C365 H392 0.930 1_545 S
C366 C365 1.442 . S
C366 C367 1.381 . S
C366 H393 0.931 1_545 S
C367 C366 1.381 . S
C367 C368 1.321 . S
C368 C367 1.321 . S
C368 C369 1.403 . S
C368 H394 0.934 . S
C369 C364 1.413 . S
C369 C368 1.403 . S
C369 H395 0.930 . S
C370 O384 1.275 . S
C370 O385 1.256 . S
C371 O386 1.259 . S
C371 O387 1.268 . S
C372 Ho361 2.811 1_455 S
C372 C373 1.488 . S
C372 O388 1.215 . S
C372 O389 1.289 . S
C373 C372 1.488 . S
C373 C374 1.348 . S
C373 C378 1.413 . S
C374 C373 1.348 . S
C374 C375 1.442 . S
C374 H396 0.930 . S
C375 C374 1.442 . S
C375 C376 1.381 . S
C375 H397 0.931 . S
C376 C375 1.381 . S
C376 C377 1.321 . S
C377 C376 1.321 . S
C377 C378 1.403 . S
C377 H398 0.934 . S
C378 C373 1.413 . S
C378 C377 1.403 . S
C378 H399 0.930 . S
C379 O390 1.275 . S
C379 O391 1.256 1_565 S
O380 Ho360 2.322 . S
O380 C362 1.259 . S
O381 Ho361 2.346 . S
O381 C362 1.268 . S
O382 Ho360 2.378 . S
O382 C363 1.215 . S
O383 Ho360 2.524 . S
O383 C363 1.289 . S
O384 Ho360 2.381 . S
O384 C370 1.275 . S
O385 Ho360 2.669 . S
O385 Ho361 2.305 . S
O385 C370 1.256 . S
O386 Ho361 2.322 . S
O386 C371 1.259 . S
O387 Ho360 2.346 . S
O387 C371 1.268 . S
O388 Ho361 2.378 1_455 S
O388 C372 1.215 . S
O389 Ho361 2.524 1_455 S
O389 C372 1.289 . S
O390 Ho361 2.381 1_565 S
O390 C379 1.275 . S
O391 Ho360 2.305 . S
O391 Ho361 2.669 . S
O391 C379 1.256 1_545 S
H392 C365 0.930 1_565 S
H393 C366 0.931 1_565 S
H394 C368 0.934 . S
H395 C369 0.930 . S
H396 C374 0.930 . S
H397 C375 0.931 . S
H398 C377 0.934 . S
H399 C378 0.930 . S
Ho400 C403 2.811 . S
Ho400 O420 2.322 . S
Ho400 O422 2.378 . S
Ho400 O423 2.524 . S
Ho400 O424 2.381 . S
Ho400 O425 2.669 . S
Ho400 O427 2.346 . S
Ho400 O431 2.305 . S
Ho401 C412 2.811 . S
Ho401 O421 2.346 . S
Ho401 O425 2.305 . S
Ho401 O426 2.322 . S
Ho401 O428 2.378 . S
Ho401 O429 2.524 . S
Ho401 O430 2.381 . S
Ho401 O431 2.669 . S
C402 O420 1.259 . S
C402 O421 1.268 . S
C403 Ho400 2.811 . S
C403 C404 1.488 . S
C403 O422 1.215 . S
C403 O423 1.289 . S
C404 C403 1.488 . S
C404 C405 1.348 . S
C404 C409 1.413 . S
C405 C404 1.348 . S
C405 C406 1.442 . S
C405 H432 0.930 . S
C406 C405 1.442 . S
C406 C407 1.381 . S
C406 H433 0.931 . S
C407 C406 1.381 . S
C407 C408 1.321 . S
C408 C407 1.321 . S
C408 C409 1.403 . S
C408 H434 0.934 . S
C409 C404 1.413 . S
C409 C408 1.403 . S
C409 H435 0.930 . S
C410 O424 1.275 . S
C410 O425 1.256 . S
C411 O426 1.259 . S
C411 O427 1.268 . S
C412 Ho401 2.811 . S
C412 C413 1.488 . S
C412 O428 1.215 . S
C412 O429 1.289 . S
C413 C412 1.488 . S
C413 C414 1.348 . S
C413 C418 1.413 . S
C414 C413 1.348 . S
C414 C415 1.442 . S
C414 H436 0.930 . S
C415 C414 1.442 . S
C415 C416 1.381 . S
C415 H437 0.931 . S
C416 C415 1.381 . S
C416 C417 1.321 . S
C417 C416 1.321 . S
C417 C418 1.403 . S
C417 H438 0.934 . S
C418 C413 1.413 . S
C418 C417 1.403 . S
C418 H439 0.930 . S
C419 O430 1.275 . S
C419 O431 1.256 . S
O420 Ho400 2.322 . S
O420 C402 1.259 . S
O421 Ho401 2.346 . S
O421 C402 1.268 . S
O422 Ho400 2.378 . S
O422 C403 1.215 . S
O423 Ho400 2.524 . S
O423 C403 1.289 . S
O424 Ho400 2.381 . S
O424 C410 1.275 . S
O425 Ho400 2.669 . S
O425 Ho401 2.305 . S
O425 C410 1.256 . S
O426 Ho401 2.322 . S
O426 C411 1.259 . S
O427 Ho400 2.346 . S
O427 C411 1.268 . S
O428 Ho401 2.378 . S
O428 C412 1.215 . S
O429 Ho401 2.524 . S
O429 C412 1.289 . S
O430 Ho401 2.381 . S
O430 C419 1.275 . S
O431 Ho400 2.305 . S
O431 Ho401 2.669 . S
O431 C419 1.256 . S
H432 C405 0.930 . S
H433 C406 0.931 . S
H434 C408 0.934 . S
H435 C409 0.930 . S
H436 C414 0.930 . S
H437 C415 0.931 . S
H438 C417 0.934 . S
H439 C418 0.930 . S
Ho440 C443 2.811 . S
Ho440 O460 2.322 . S
Ho440 O462 2.378 . S
Ho440 O463 2.524 . S
Ho440 O464 2.381 . S
Ho440 O465 2.669 . S
Ho440 O467 2.346 . S
Ho440 O471 2.305 . S
Ho441 C452 2.811 . S
Ho441 O461 2.346 . S
Ho441 O465 2.305 . S
Ho441 O466 2.322 . S
Ho441 O468 2.378 . S
Ho441 O469 2.524 . S
Ho441 O470 2.381 1_565 S
Ho441 O471 2.669 . S
C442 O460 1.259 . S
C442 O461 1.268 . S
C443 Ho440 2.811 . S
C443 C444 1.488 . S
C443 O462 1.215 . S
C443 O463 1.289 . S
C444 C443 1.488 . S
C444 C445 1.348 . S
C444 C449 1.413 . S
C445 C444 1.348 . S
C445 C446 1.442 . S
C445 H472 0.930 1_565 S
C446 C445 1.442 . S
C446 C447 1.381 . S
C446 H473 0.931 1_565 S
C447 C446 1.381 . S
C447 C448 1.321 . S
C448 C447 1.321 . S
C448 C449 1.403 . S
C448 H474 0.934 . S
C449 C444 1.413 . S
C449 C448 1.403 . S
C449 H475 0.930 . S
C450 O464 1.275 . S
C450 O465 1.256 . S
C451 O466 1.259 . S
C451 O467 1.268 . S
C452 Ho441 2.811 . S
C452 C453 1.488 . S
C452 O468 1.215 . S
C452 O469 1.289 . S
C453 C452 1.488 . S
C453 C454 1.348 . S
C453 C458 1.413 . S
C454 C453 1.348 . S
C454 C455 1.442 . S
C454 H476 0.930 . S
C455 C454 1.442 . S
C455 C456 1.381 . S
C455 H477 0.931 . S
C456 C455 1.381 . S
C456 C457 1.321 . S
C457 C456 1.321 . S
C457 C458 1.403 . S
C457 H478 0.934 . S
C458 C453 1.413 . S
C458 C457 1.403 . S
C458 H479 0.930 . S
C459 O470 1.275 . S
C459 O471 1.256 1_545 S
O460 Ho440 2.322 . S
O460 C442 1.259 . S
O461 Ho441 2.346 . S
O461 C442 1.268 . S
O462 Ho440 2.378 . S
O462 C443 1.215 . S
O463 Ho440 2.524 . S
O463 C443 1.289 . S
O464 Ho440 2.381 . S
O464 C450 1.275 . S
O465 Ho440 2.669 . S
O465 Ho441 2.305 . S
O465 C450 1.256 . S
O466 Ho441 2.322 . S
O466 C451 1.259 . S
O467 Ho440 2.346 . S
O467 C451 1.268 . S
O468 Ho441 2.378 . S
O468 C452 1.215 . S
O469 Ho441 2.524 . S
O469 C452 1.289 . S
O470 Ho441 2.381 1_545 S
O470 C459 1.275 . S
O471 Ho440 2.305 . S
O471 Ho441 2.669 . S
O471 C459 1.256 1_565 S
H472 C445 0.930 1_545 S
H473 C446 0.931 1_545 S
H474 C448 0.934 . S
H475 C449 0.930 . S
H476 C454 0.930 . S
H477 C455 0.931 . S
H478 C457 0.934 . S
H479 C458 0.930 . S
Ho480 C483 2.811 . S
Ho480 O500 2.322 . S
Ho480 O502 2.378 . S
Ho480 O503 2.524 . S
Ho480 O504 2.381 . S
Ho480 O505 2.669 . S
Ho480 O507 2.346 . S
Ho480 O511 2.305 . S
Ho481 C492 2.811 . S
Ho481 O501 2.346 . S
Ho481 O505 2.305 . S
Ho481 O506 2.322 . S
Ho481 O508 2.378 . S
Ho481 O509 2.524 . S
Ho481 O510 2.381 . S
Ho481 O511 2.669 . S
C482 O500 1.259 . S
C482 O501 1.268 . S
C483 Ho480 2.811 . S
C483 C484 1.488 . S
C483 O502 1.215 . S
C483 O503 1.289 . S
C484 C483 1.488 . S
C484 C485 1.348 . S
C484 C489 1.413 . S
C485 C484 1.348 . S
C485 C486 1.442 . S
C485 H512 0.930 . S
C486 C485 1.442 . S
C486 C487 1.381 . S
C486 H513 0.931 . S
C487 C486 1.381 . S
C487 C488 1.321 . S
C488 C487 1.321 . S
C488 C489 1.403 . S
C488 H514 0.934 . S
C489 C484 1.413 . S
C489 C488 1.403 . S
C489 H515 0.930 . S
C490 O504 1.275 . S
C490 O505 1.256 . S
C491 O506 1.259 . S
C491 O507 1.268 . S
C492 Ho481 2.811 . S
C492 C493 1.488 . S
C492 O508 1.215 . S
C492 O509 1.289 . S
C493 C492 1.488 . S
C493 C494 1.348 . S
C493 C498 1.413 . S
C494 C493 1.348 . S
C494 C495 1.442 . S
C494 H516 0.930 . S
C495 C494 1.442 . S
C495 C496 1.381 . S
C495 H517 0.931 . S
C496 C495 1.381 . S
C496 C497 1.321 . S
C497 C496 1.321 . S
C497 C498 1.403 . S
C497 H518 0.934 . S
C498 C493 1.413 . S
C498 C497 1.403 . S
C498 H519 0.930 . S
C499 O510 1.275 . S
C499 O511 1.256 . S
O500 Ho480 2.322 . S
O500 C482 1.259 . S
O501 Ho481 2.346 . S
O501 C482 1.268 . S
O502 Ho480 2.378 . S
O502 C483 1.215 . S
O503 Ho480 2.524 . S
O503 C483 1.289 . S
O504 Ho480 2.381 . S
O504 C490 1.275 . S
O505 Ho480 2.669 . S
O505 Ho481 2.305 . S
O505 C490 1.256 . S
O506 Ho481 2.322 . S
O506 C491 1.259 . S
O507 Ho480 2.346 . S
O507 C491 1.268 . S
O508 Ho481 2.378 . S
O508 C492 1.215 . S
O509 Ho481 2.524 . S
O509 C492 1.289 . S
O510 Ho481 2.381 . S
O510 C499 1.275 . S
O511 Ho480 2.305 . S
O511 Ho481 2.669 . S
O511 C499 1.256 . S
H512 C485 0.930 . S
H513 C486 0.931 . S
H514 C488 0.934 . S
H515 C489 0.930 . S
H516 C494 0.930 . S
H517 C495 0.931 . S
H518 C497 0.934 . S
H519 C498 0.930 . S
Ho520 C523 2.811 . S
Ho520 O540 2.322 . S
Ho520 O542 2.378 . S
Ho520 O543 2.524 . S
Ho520 O544 2.381 . S
Ho520 O545 2.669 . S
Ho520 O547 2.346 . S
Ho520 O551 2.305 . S
Ho521 C532 2.811 . S
Ho521 O541 2.346 . S
Ho521 O545 2.305 . S
Ho521 O546 2.322 . S
Ho521 O548 2.378 . S
Ho521 O549 2.524 . S
Ho521 O550 2.381 1_545 S
Ho521 O551 2.669 . S
C522 O540 1.259 . S
C522 O541 1.268 . S
C523 Ho520 2.811 . S
C523 C524 1.488 . S
C523 O542 1.215 . S
C523 O543 1.289 . S
C524 C523 1.488 . S
C524 C525 1.348 . S
C524 C529 1.413 . S
C525 C524 1.348 . S
C525 C526 1.442 . S
C525 H552 0.930 1_545 S
C526 C525 1.442 . S
C526 C527 1.381 . S
C526 H553 0.931 1_545 S
C527 C526 1.381 . S
C527 C528 1.321 . S
C528 C527 1.321 . S
C528 C529 1.403 . S
C528 H554 0.934 . S
C529 C524 1.413 . S
C529 C528 1.403 . S
C529 H555 0.930 . S
C530 O544 1.275 . S
C530 O545 1.256 . S
C531 O546 1.259 . S
C531 O547 1.268 . S
C532 Ho521 2.811 . S
C532 C533 1.488 . S
C532 O548 1.215 . S
C532 O549 1.289 . S
C533 C532 1.488 . S
C533 C534 1.348 . S
C533 C538 1.413 . S
C534 C533 1.348 . S
C534 C535 1.442 . S
C534 H556 0.930 . S
C535 C534 1.442 . S
C535 C536 1.381 . S
C535 H557 0.931 . S
C536 C535 1.381 . S
C536 C537 1.321 . S
C537 C536 1.321 . S
C537 C538 1.403 . S
C537 H558 0.934 . S
C538 C533 1.413 . S
C538 C537 1.403 . S
C538 H559 0.930 . S
C539 O550 1.275 . S
C539 O551 1.256 1_565 S
O540 Ho520 2.322 . S
O540 C522 1.259 . S
O541 Ho521 2.346 . S
O541 C522 1.268 . S
O542 Ho520 2.378 . S
O542 C523 1.215 . S
O543 Ho520 2.524 . S
O543 C523 1.289 . S
O544 Ho520 2.381 . S
O544 C530 1.275 . S
O545 Ho520 2.669 . S
O545 Ho521 2.305 . S
O545 C530 1.256 . S
O546 Ho521 2.322 . S
O546 C531 1.259 . S
O547 Ho520 2.346 . S
O547 C531 1.268 . S
O548 Ho521 2.378 . S
O548 C532 1.215 . S
O549 Ho521 2.524 . S
O549 C532 1.289 . S
O550 Ho521 2.381 1_565 S
O550 C539 1.275 . S
O551 Ho520 2.305 . S
O551 Ho521 2.669 . S
O551 C539 1.256 1_545 S
H552 C525 0.930 1_565 S
H553 C526 0.931 1_565 S
H554 C528 0.934 . S
H555 C529 0.930 . S
H556 C534 0.930 . S
H557 C535 0.931 . S
H558 C537 0.934 . S
H559 C538 0.930 . S
Ho560 C563 2.811 . S
Ho560 O580 2.322 . S
Ho560 O582 2.378 . S
Ho560 O583 2.524 . S
Ho560 O584 2.381 . S
Ho560 O585 2.669 . S
Ho560 O587 2.346 . S
Ho560 O591 2.305 . S
Ho561 C572 2.811 . S
Ho561 O581 2.346 . S
Ho561 O585 2.305 . S
Ho561 O586 2.322 . S
Ho561 O588 2.378 . S
Ho561 O589 2.524 . S
Ho561 O590 2.381 . S
Ho561 O591 2.669 . S
C562 O580 1.259 . S
C562 O581 1.268 . S
C563 Ho560 2.811 . S
C563 C564 1.488 . S
C563 O582 1.215 . S
C563 O583 1.289 . S
C564 C563 1.488 . S
C564 C565 1.348 . S
C564 C569 1.413 . S
C565 C564 1.348 . S
C565 C566 1.442 . S
C565 H592 0.930 . S
C566 C565 1.442 . S
C566 C567 1.381 . S
C566 H593 0.931 . S
C567 C566 1.381 . S
C567 C568 1.321 . S
C568 C567 1.321 . S
C568 C569 1.403 . S
C568 H594 0.934 . S
C569 C564 1.413 . S
C569 C568 1.403 . S
C569 H595 0.930 . S
C570 O584 1.275 . S
C570 O585 1.256 . S
C571 O586 1.259 . S
C571 O587 1.268 . S
C572 Ho561 2.811 . S
C572 C573 1.488 . S
C572 O588 1.215 . S
C572 O589 1.289 . S
C573 C572 1.488 . S
C573 C574 1.348 . S
C573 C578 1.413 . S
C574 C573 1.348 . S
C574 C575 1.442 . S
C574 H596 0.930 . S
C575 C574 1.442 . S
C575 C576 1.381 . S
C575 H597 0.931 . S
C576 C575 1.381 . S
C576 C577 1.321 . S
C577 C576 1.321 . S
C577 C578 1.403 . S
C577 H598 0.934 . S
C578 C573 1.413 . S
C578 C577 1.403 . S
C578 H599 0.930 . S
C579 O590 1.275 . S
C579 O591 1.256 . S
O580 Ho560 2.322 . S
O580 C562 1.259 . S
O581 Ho561 2.346 . S
O581 C562 1.268 . S
O582 Ho560 2.378 . S
O582 C563 1.215 . S
O583 Ho560 2.524 . S
O583 C563 1.289 . S
O584 Ho560 2.381 . S
O584 C570 1.275 . S
O585 Ho560 2.669 . S
O585 Ho561 2.305 . S
O585 C570 1.256 . S
O586 Ho561 2.322 . S
O586 C571 1.259 . S
O587 Ho560 2.346 . S
O587 C571 1.268 . S
O588 Ho561 2.378 . S
O588 C572 1.215 . S
O589 Ho561 2.524 . S
O589 C572 1.289 . S
O590 Ho561 2.381 . S
O590 C579 1.275 . S
O591 Ho560 2.305 . S
O591 Ho561 2.669 . S
O591 C579 1.256 . S
H592 C565 0.930 . S
H593 C566 0.931 . S
H594 C568 0.934 . S
H595 C569 0.930 . S
H596 C574 0.930 . S
H597 C575 0.931 . S
H598 C577 0.934 . S
H599 C578 0.930 . S
Ho600 C603 2.811 . S
Ho600 O620 2.322 . S
Ho600 O622 2.378 . S
Ho600 O623 2.524 . S
Ho600 O624 2.381 . S
Ho600 O625 2.669 . S
Ho600 O627 2.346 . S
Ho600 O631 2.305 . S
Ho601 C612 2.811 1_655 S
Ho601 O621 2.346 . S
Ho601 O625 2.305 . S
Ho601 O626 2.322 . S
Ho601 O628 2.378 1_655 S
Ho601 O629 2.524 1_655 S
Ho601 O630 2.381 1_565 S
Ho601 O631 2.669 . S
C602 O620 1.259 . S
C602 O621 1.268 . S
C603 Ho600 2.811 . S
C603 C604 1.488 . S
C603 O622 1.215 . S
C603 O623 1.289 . S
C604 C603 1.488 . S
C604 C605 1.348 . S
C604 C609 1.413 . S
C605 C604 1.348 . S
C605 C606 1.442 . S
C605 H632 0.930 1_565 S
C606 C605 1.442 . S
C606 C607 1.381 . S
C606 H633 0.931 1_565 S
C607 C606 1.381 . S
C607 C608 1.321 . S
C608 C607 1.321 . S
C608 C609 1.403 . S
C608 H634 0.934 . S
C609 C604 1.413 . S
C609 C608 1.403 . S
C609 H635 0.930 . S
C610 O624 1.275 . S
C610 O625 1.256 . S
C611 O626 1.259 . S
C611 O627 1.268 . S
C612 Ho601 2.811 1_455 S
C612 C613 1.488 . S
C612 O628 1.215 . S
C612 O629 1.289 . S
C613 C612 1.488 . S
C613 C614 1.348 . S
C613 C618 1.413 . S
C614 C613 1.348 . S
C614 C615 1.442 . S
C614 H636 0.930 . S
C615 C614 1.442 . S
C615 C616 1.381 . S
C615 H637 0.931 . S
C616 C615 1.381 . S
C616 C617 1.321 . S
C617 C616 1.321 . S
C617 C618 1.403 . S
C617 H638 0.934 . S
C618 C613 1.413 . S
C618 C617 1.403 . S
C618 H639 0.930 . S
C619 O630 1.275 . S
C619 O631 1.256 1_545 S
O620 Ho600 2.322 . S
O620 C602 1.259 . S
O621 Ho601 2.346 . S
O621 C602 1.268 . S
O622 Ho600 2.378 . S
O622 C603 1.215 . S
O623 Ho600 2.524 . S
O623 C603 1.289 . S
O624 Ho600 2.381 . S
O624 C610 1.275 . S
O625 Ho600 2.669 . S
O625 Ho601 2.305 . S
O625 C610 1.256 . S
O626 Ho601 2.322 . S
O626 C611 1.259 . S
O627 Ho600 2.346 . S
O627 C611 1.268 . S
O628 Ho601 2.378 1_455 S
O628 C612 1.215 . S
O629 Ho601 2.524 1_455 S
O629 C612 1.289 . S
O630 Ho601 2.381 1_545 S
O630 C619 1.275 . S
O631 Ho600 2.305 . S
O631 Ho601 2.669 . S
O631 C619 1.256 1_565 S
H632 C605 0.930 1_545 S
H633 C606 0.931 1_545 S
H634 C608 0.934 . S
H635 C609 0.930 . S
H636 C614 0.930 . S
H637 C615 0.931 . S
H638 C617 0.934 . S
H639 C618 0.930 . S
Ho640 C643 2.811 . S
Ho640 O660 2.322 . S
Ho640 O662 2.378 . S
Ho640 O663 2.524 . S
Ho640 O664 2.381 . S
Ho640 O665 2.669 . S
Ho640 O667 2.346 . S
Ho640 O671 2.305 . S
Ho641 C652 2.811 . S
Ho641 O661 2.346 . S
Ho641 O665 2.305 . S
Ho641 O666 2.322 . S
Ho641 O668 2.378 . S
Ho641 O669 2.524 . S
Ho641 O670 2.381 . S
Ho641 O671 2.669 . S
C642 O660 1.259 . S
C642 O661 1.268 . S
C643 Ho640 2.811 . S
C643 C644 1.488 . S
C643 O662 1.215 . S
C643 O663 1.289 . S
C644 C643 1.488 . S
C644 C645 1.348 . S
C644 C649 1.413 . S
C645 C644 1.348 . S
C645 C646 1.442 . S
C645 H672 0.930 . S
C646 C645 1.442 . S
C646 C647 1.381 . S
C646 H673 0.931 . S
C647 C646 1.381 . S
C647 C648 1.321 . S
C648 C647 1.321 . S
C648 C649 1.403 . S
C648 H674 0.934 . S
C649 C644 1.413 . S
C649 C648 1.403 . S
C649 H675 0.930 . S
C650 O664 1.275 . S
C650 O665 1.256 . S
C651 O666 1.259 . S
C651 O667 1.268 . S
C652 Ho641 2.811 . S
C652 C653 1.488 . S
C652 O668 1.215 . S
C652 O669 1.289 . S
C653 C652 1.488 . S
C653 C654 1.348 . S
C653 C658 1.413 . S
C654 C653 1.348 . S
C654 C655 1.442 . S
C654 H676 0.930 . S
C655 C654 1.442 . S
C655 C656 1.381 . S
C655 H677 0.931 . S
C656 C655 1.381 . S
C656 C657 1.321 . S
C657 C656 1.321 . S
C657 C658 1.403 . S
C657 H678 0.934 . S
C658 C653 1.413 . S
C658 C657 1.403 . S
C658 H679 0.930 . S
C659 O670 1.275 . S
C659 O671 1.256 . S
O660 Ho640 2.322 . S
O660 C642 1.259 . S
O661 Ho641 2.346 . S
O661 C642 1.268 . S
O662 Ho640 2.378 . S
O662 C643 1.215 . S
O663 Ho640 2.524 . S
O663 C643 1.289 . S
O664 Ho640 2.381 . S
O664 C650 1.275 . S
O665 Ho640 2.669 . S
O665 Ho641 2.305 . S
O665 C650 1.256 . S
O666 Ho641 2.322 . S
O666 C651 1.259 . S
O667 Ho640 2.346 . S
O667 C651 1.268 . S
O668 Ho641 2.378 . S
O668 C652 1.215 . S
O669 Ho641 2.524 . S
O669 C652 1.289 . S
O670 Ho641 2.381 . S
O670 C659 1.275 . S
O671 Ho640 2.305 . S
O671 Ho641 2.669 . S
O671 C659 1.256 . S
H672 C645 0.930 . S
H673 C646 0.931 . S
H674 C648 0.934 . S
H675 C649 0.930 . S
H676 C654 0.930 . S
H677 C655 0.931 . S
H678 C657 0.934 . S
H679 C658 0.930 . S
Ho680 C683 2.811 . S
Ho680 O700 2.322 . S
Ho680 O702 2.378 . S
Ho680 O703 2.524 . S
Ho680 O704 2.381 . S
Ho680 O705 2.669 . S
Ho680 O707 2.346 . S
Ho680 O711 2.305 . S
Ho681 C692 2.811 . S
Ho681 O701 2.346 . S
Ho681 O705 2.305 . S
Ho681 O706 2.322 . S
Ho681 O708 2.378 . S
Ho681 O709 2.524 . S
Ho681 O710 2.381 . S
Ho681 O711 2.669 . S
C682 O700 1.259 . S
C682 O701 1.268 . S
C683 Ho680 2.811 . S
C683 C684 1.488 . S
C683 O702 1.215 . S
C683 O703 1.289 . S
C684 C683 1.488 . S
C684 C685 1.348 . S
C684 C689 1.413 . S
C685 C684 1.348 . S
C685 C686 1.442 . S
C685 H712 0.930 . S
C686 C685 1.442 . S
C686 C687 1.381 . S
C686 H713 0.931 . S
C687 C686 1.381 . S
C687 C688 1.321 . S
C688 C687 1.321 . S
C688 C689 1.403 . S
C688 H714 0.934 . S
C689 C684 1.413 . S
C689 C688 1.403 . S
C689 H715 0.930 . S
C690 O704 1.275 . S
C690 O705 1.256 . S
C691 O706 1.259 . S
C691 O707 1.268 . S
C692 Ho681 2.811 . S
C692 C693 1.488 . S
C692 O708 1.215 . S
C692 O709 1.289 . S
C693 C692 1.488 . S
C693 C694 1.348 . S
C693 C698 1.413 . S
C694 C693 1.348 . S
C694 C695 1.442 . S
C694 H716 0.930 . S
C695 C694 1.442 . S
C695 C696 1.381 . S
C695 H717 0.931 . S
C696 C695 1.381 . S
C696 C697 1.321 . S
C697 C696 1.321 . S
C697 C698 1.403 . S
C697 H718 0.934 . S
C698 C693 1.413 . S
C698 C697 1.403 . S
C698 H719 0.930 . S
C699 O710 1.275 . S
C699 O711 1.256 . S
O700 Ho680 2.322 . S
O700 C682 1.259 . S
O701 Ho681 2.346 . S
O701 C682 1.268 . S
O702 Ho680 2.378 . S
O702 C683 1.215 . S
O703 Ho680 2.524 . S
O703 C683 1.289 . S
O704 Ho680 2.381 . S
O704 C690 1.275 . S
O705 Ho680 2.669 . S
O705 Ho681 2.305 . S
O705 C690 1.256 . S
O706 Ho681 2.322 . S
O706 C691 1.259 . S
O707 Ho680 2.346 . S
O707 C691 1.268 . S
O708 Ho681 2.378 . S
O708 C692 1.215 . S
O709 Ho681 2.524 . S
O709 C692 1.289 . S
O710 Ho681 2.381 . S
O710 C699 1.275 . S
O711 Ho680 2.305 . S
O711 Ho681 2.669 . S
O711 C699 1.256 . S
H712 C685 0.930 . S
H713 C686 0.931 . S
H714 C688 0.934 . S
H715 C689 0.930 . S
H716 C694 0.930 . S
H717 C695 0.931 . S
H718 C697 0.934 . S
H719 C698 0.930 . S
Ho720 C723 2.811 . S
Ho720 O740 2.322 . S
Ho720 O742 2.378 . S
Ho720 O743 2.524 . S
Ho720 O744 2.381 . S
Ho720 O745 2.669 . S
Ho720 O747 2.346 . S
Ho720 O751 2.305 . S
Ho721 C732 2.811 . S
Ho721 O741 2.346 . S
Ho721 O745 2.305 . S
Ho721 O746 2.322 . S
Ho721 O748 2.378 . S
Ho721 O749 2.524 . S
Ho721 O750 2.381 . S
Ho721 O751 2.669 . S
C722 O740 1.259 . S
C722 O741 1.268 . S
C723 Ho720 2.811 . S
C723 C724 1.488 . S
C723 O742 1.215 . S
C723 O743 1.289 . S
C724 C723 1.488 . S
C724 C725 1.348 . S
C724 C729 1.413 . S
C725 C724 1.348 . S
C725 C726 1.442 . S
C725 H752 0.930 . S
C726 C725 1.442 . S
C726 C727 1.381 . S
C726 H753 0.931 . S
C727 C726 1.381 . S
C727 C728 1.321 . S
C728 C727 1.321 . S
C728 C729 1.403 . S
C728 H754 0.934 . S
C729 C724 1.413 . S
C729 C728 1.403 . S
C729 H755 0.930 . S
C730 O744 1.275 . S
C730 O745 1.256 . S
C731 O746 1.259 . S
C731 O747 1.268 . S
C732 Ho721 2.811 . S
C732 C733 1.488 . S
C732 O748 1.215 . S
C732 O749 1.289 . S
C733 C732 1.488 . S
C733 C734 1.348 . S
C733 C738 1.413 . S
C734 C733 1.348 . S
C734 C735 1.442 . S
C734 H756 0.930 . S
C735 C734 1.442 . S
C735 C736 1.381 . S
C735 H757 0.931 . S
C736 C735 1.381 . S
C736 C737 1.321 . S
C737 C736 1.321 . S
C737 C738 1.403 . S
C737 H758 0.934 . S
C738 C733 1.413 . S
C738 C737 1.403 . S
C738 H759 0.930 . S
C739 O750 1.275 . S
C739 O751 1.256 . S
O740 Ho720 2.322 . S
O740 C722 1.259 . S
O741 Ho721 2.346 . S
O741 C722 1.268 . S
O742 Ho720 2.378 . S
O742 C723 1.215 . S
O743 Ho720 2.524 . S
O743 C723 1.289 . S
O744 Ho720 2.381 . S
O744 C730 1.275 . S
O745 Ho720 2.669 . S
O745 Ho721 2.305 . S
O745 C730 1.256 . S
O746 Ho721 2.322 . S
O746 C731 1.259 . S
O747 Ho720 2.346 . S
O747 C731 1.268 . S
O748 Ho721 2.378 . S
O748 C732 1.215 . S
O749 Ho721 2.524 . S
O749 C732 1.289 . S
O750 Ho721 2.381 . S
O750 C739 1.275 . S
O751 Ho720 2.305 . S
O751 Ho721 2.669 . S
O751 C739 1.256 . S
H752 C725 0.930 . S
H753 C726 0.931 . S
H754 C728 0.934 . S
H755 C729 0.930 . S
H756 C734 0.930 . S
H757 C735 0.931 . S
H758 C737 0.934 . S
H759 C738 0.930 . S
Ho760 C763 2.811 1_655 S
Ho760 O780 2.322 . S
Ho760 O782 2.378 1_655 S
Ho760 O783 2.524 1_655 S
Ho760 O784 2.381 . S
Ho760 O785 2.669 . S
Ho760 O787 2.346 . S
Ho760 O791 2.305 . S
Ho761 C772 2.811 . S
Ho761 O781 2.346 . S
Ho761 O785 2.305 . S
Ho761 O786 2.322 . S
Ho761 O788 2.378 . S
Ho761 O789 2.524 . S
Ho761 O790 2.381 . S
Ho761 O791 2.669 . S
C762 O780 1.259 . S
C762 O781 1.268 . S
C763 Ho760 2.811 1_455 S
C763 C764 1.488 . S
C763 O782 1.215 . S
C763 O783 1.289 . S
C764 C763 1.488 . S
C764 C765 1.348 . S
C764 C769 1.413 . S
C765 C764 1.348 . S
C765 C766 1.442 . S
C765 H792 0.930 . S
C766 C765 1.442 . S
C766 C767 1.381 . S
C766 H793 0.931 . S
C767 C766 1.381 . S
C767 C768 1.321 . S
C768 C767 1.321 . S
C768 C769 1.403 . S
C768 H794 0.934 . S
C769 C764 1.413 . S
C769 C768 1.403 . S
C769 H795 0.930 . S
C770 O784 1.275 . S
C770 O785 1.256 . S
C771 O786 1.259 . S
C771 O787 1.268 . S
C772 Ho761 2.811 . S
C772 C773 1.488 . S
C772 O788 1.215 . S
C772 O789 1.289 . S
C773 C772 1.488 . S
C773 C774 1.348 . S
C773 C778 1.413 . S
C774 C773 1.348 . S
C774 C775 1.442 . S
C774 H796 0.930 . S
C775 C774 1.442 . S
C775 C776 1.381 . S
C775 H797 0.931 . S
C776 C775 1.381 . S
C776 C777 1.321 . S
C777 C776 1.321 . S
C777 C778 1.403 . S
C777 H798 0.934 . S
C778 C773 1.413 . S
C778 C777 1.403 . S
C778 H799 0.930 . S
C779 O790 1.275 . S
C779 O791 1.256 . S
O780 Ho760 2.322 . S
O780 C762 1.259 . S
O781 Ho761 2.346 . S
O781 C762 1.268 . S
O782 Ho760 2.378 1_455 S
O782 C763 1.215 . S
O783 Ho760 2.524 1_455 S
O783 C763 1.289 . S
O784 Ho760 2.381 . S
O784 C770 1.275 . S
O785 Ho760 2.669 . S
O785 Ho761 2.305 . S
O785 C770 1.256 . S
O786 Ho761 2.322 . S
O786 C771 1.259 . S
O787 Ho760 2.346 . S
O787 C771 1.268 . S
O788 Ho761 2.378 . S
O788 C772 1.215 . S
O789 Ho761 2.524 . S
O789 C772 1.289 . S
O790 Ho761 2.381 . S
O790 C779 1.275 . S
O791 Ho760 2.305 . S
O791 Ho761 2.669 . S
O791 C779 1.256 . S
H792 C765 0.930 . S
H793 C766 0.931 . S
H794 C768 0.934 . S
H795 C769 0.930 . S
H796 C774 0.930 . S
H797 C775 0.931 . S
H798 C777 0.934 . S
H799 C778 0.930 . S
Ho800 C803 2.811 . S
Ho800 O820 2.322 . S
Ho800 O822 2.378 . S
Ho800 O823 2.524 . S
Ho800 O824 2.381 . S
Ho800 O825 2.669 . S
Ho800 O827 2.346 . S
Ho800 O831 2.305 . S
Ho801 C812 2.811 . S
Ho801 O821 2.346 . S
Ho801 O825 2.305 . S
Ho801 O826 2.322 . S
Ho801 O828 2.378 . S
Ho801 O829 2.524 . S
Ho801 O830 2.381 . S
Ho801 O831 2.669 . S
C802 O820 1.259 . S
C802 O821 1.268 . S
C803 Ho800 2.811 . S
C803 C804 1.488 . S
C803 O822 1.215 . S
C803 O823 1.289 . S
C804 C803 1.488 . S
C804 C805 1.348 . S
C804 C809 1.413 . S
C805 C804 1.348 . S
C805 C806 1.442 . S
C805 H832 0.930 . S
C806 C805 1.442 . S
C806 C807 1.381 . S
C806 H833 0.931 . S
C807 C806 1.381 . S
C807 C808 1.321 . S
C808 C807 1.321 . S
C808 C809 1.403 . S
C808 H834 0.934 . S
C809 C804 1.413 . S
C809 C808 1.403 . S
C809 H835 0.930 . S
C810 O824 1.275 . S
C810 O825 1.256 . S
C811 O826 1.259 . S
C811 O827 1.268 . S
C812 Ho801 2.811 . S
C812 C813 1.488 . S
C812 O828 1.215 . S
C812 O829 1.289 . S
C813 C812 1.488 . S
C813 C814 1.348 . S
C813 C818 1.413 . S
C814 C813 1.348 . S
C814 C815 1.442 . S
C814 H836 0.930 . S
C815 C814 1.442 . S
C815 C816 1.381 . S
C815 H837 0.931 . S
C816 C815 1.381 . S
C816 C817 1.321 . S
C817 C816 1.321 . S
C817 C818 1.403 . S
C817 H838 0.934 . S
C818 C813 1.413 . S
C818 C817 1.403 . S
C818 H839 0.930 . S
C819 O830 1.275 . S
C819 O831 1.256 . S
O820 Ho800 2.322 . S
O820 C802 1.259 . S
O821 Ho801 2.346 . S
O821 C802 1.268 . S
O822 Ho800 2.378 . S
O822 C803 1.215 . S
O823 Ho800 2.524 . S
O823 C803 1.289 . S
O824 Ho800 2.381 . S
O824 C810 1.275 . S
O825 Ho800 2.669 . S
O825 Ho801 2.305 . S
O825 C810 1.256 . S
O826 Ho801 2.322 . S
O826 C811 1.259 . S
O827 Ho800 2.346 . S
O827 C811 1.268 . S
O828 Ho801 2.378 . S
O828 C812 1.215 . S
O829 Ho801 2.524 . S
O829 C812 1.289 . S
O830 Ho801 2.381 . S
O830 C819 1.275 . S
O831 Ho800 2.305 . S
O831 Ho801 2.669 . S
O831 C819 1.256 . S
H832 C805 0.930 . S
H833 C806 0.931 . S
H834 C808 0.934 . S
H835 C809 0.930 . S
H836 C814 0.930 . S
H837 C815 0.931 . S
H838 C817 0.934 . S
H839 C818 0.930 . S
Ho840 C843 2.811 1_655 S
Ho840 O860 2.322 . S
Ho840 O862 2.378 1_655 S
Ho840 O863 2.524 1_655 S
Ho840 O864 2.381 . S
Ho840 O865 2.669 . S
Ho840 O867 2.346 . S
Ho840 O871 2.305 . S
Ho841 C852 2.811 . S
Ho841 O861 2.346 . S
Ho841 O865 2.305 . S
Ho841 O866 2.322 . S
Ho841 O868 2.378 . S
Ho841 O869 2.524 . S
Ho841 O870 2.381 . S
Ho841 O871 2.669 . S
C842 O860 1.259 . S
C842 O861 1.268 . S
C843 Ho840 2.811 1_455 S
C843 C844 1.488 . S
C843 O862 1.215 . S
C843 O863 1.289 . S
C844 C843 1.488 . S
C844 C845 1.348 . S
C844 C849 1.413 . S
C845 C844 1.348 . S
C845 C846 1.442 . S
C845 H872 0.930 . S
C846 C845 1.442 . S
C846 C847 1.381 . S
C846 H873 0.931 . S
C847 C846 1.381 . S
C847 C848 1.321 . S
C848 C847 1.321 . S
C848 C849 1.403 . S
C848 H874 0.934 . S
C849 C844 1.413 . S
C849 C848 1.403 . S
C849 H875 0.930 . S
C850 O864 1.275 . S
C850 O865 1.256 . S
C851 O866 1.259 . S
C851 O867 1.268 . S
C852 Ho841 2.811 . S
C852 C853 1.488 . S
C852 O868 1.215 . S
C852 O869 1.289 . S
C853 C852 1.488 . S
C853 C854 1.348 . S
C853 C858 1.413 . S
C854 C853 1.348 . S
C854 C855 1.442 . S
C854 H876 0.930 . S
C855 C854 1.442 . S
C855 C856 1.381 . S
C855 H877 0.931 . S
C856 C855 1.381 . S
C856 C857 1.321 . S
C857 C856 1.321 . S
C857 C858 1.403 . S
C857 H878 0.934 . S
C858 C853 1.413 . S
C858 C857 1.403 . S
C858 H879 0.930 . S
C859 O870 1.275 . S
C859 O871 1.256 . S
O860 Ho840 2.322 . S
O860 C842 1.259 . S
O861 Ho841 2.346 . S
O861 C842 1.268 . S
O862 Ho840 2.378 1_455 S
O862 C843 1.215 . S
O863 Ho840 2.524 1_455 S
O863 C843 1.289 . S
O864 Ho840 2.381 . S
O864 C850 1.275 . S
O865 Ho840 2.669 . S
O865 Ho841 2.305 . S
O865 C850 1.256 . S
O866 Ho841 2.322 . S
O866 C851 1.259 . S
O867 Ho840 2.346 . S
O867 C851 1.268 . S
O868 Ho841 2.378 . S
O868 C852 1.215 . S
O869 Ho841 2.524 . S
O869 C852 1.289 . S
O870 Ho841 2.381 . S
O870 C859 1.275 . S
O871 Ho840 2.305 . S
O871 Ho841 2.669 . S
O871 C859 1.256 . S
H872 C845 0.930 . S
H873 C846 0.931 . S
H874 C848 0.934 . S
H875 C849 0.930 . S
H876 C854 0.930 . S
H877 C855 0.931 . S
H878 C857 0.934 . S
H879 C858 0.930 . S
Ho880 C883 2.811 . S
Ho880 O900 2.322 . S
Ho880 O902 2.378 . S
Ho880 O903 2.524 . S
Ho880 O904 2.381 . S
Ho880 O905 2.669 . S
Ho880 O907 2.346 . S
Ho880 O911 2.305 . S
Ho881 C892 2.811 . S
Ho881 O901 2.346 . S
Ho881 O905 2.305 . S
Ho881 O906 2.322 . S
Ho881 O908 2.378 . S
Ho881 O909 2.524 . S
Ho881 O910 2.381 . S
Ho881 O911 2.669 . S
C882 O900 1.259 . S
C882 O901 1.268 . S
C883 Ho880 2.811 . S
C883 C884 1.488 . S
C883 O902 1.215 . S
C883 O903 1.289 . S
C884 C883 1.488 . S
C884 C885 1.348 . S
C884 C889 1.413 . S
C885 C884 1.348 . S
C885 C886 1.442 . S
C885 H912 0.930 . S
C886 C885 1.442 . S
C886 C887 1.381 . S
C886 H913 0.931 . S
C887 C886 1.381 . S
C887 C888 1.321 . S
C888 C887 1.321 . S
C888 C889 1.403 . S
C888 H914 0.934 . S
C889 C884 1.413 . S
C889 C888 1.403 . S
C889 H915 0.930 . S
C890 O904 1.275 . S
C890 O905 1.256 . S
C891 O906 1.259 . S
C891 O907 1.268 . S
C892 Ho881 2.811 . S
C892 C893 1.488 . S
C892 O908 1.215 . S
C892 O909 1.289 . S
C893 C892 1.488 . S
C893 C894 1.348 . S
C893 C898 1.413 . S
C894 C893 1.348 . S
C894 C895 1.442 . S
C894 H916 0.930 . S
C895 C894 1.442 . S
C895 C896 1.381 . S
C895 H917 0.931 . S
C896 C895 1.381 . S
C896 C897 1.321 . S
C897 C896 1.321 . S
C897 C898 1.403 . S
C897 H918 0.934 . S
C898 C893 1.413 . S
C898 C897 1.403 . S
C898 H919 0.930 . S
C899 O910 1.275 . S
C899 O911 1.256 . S
O900 Ho880 2.322 . S
O900 C882 1.259 . S
O901 Ho881 2.346 . S
O901 C882 1.268 . S
O902 Ho880 2.378 . S
O902 C883 1.215 . S
O903 Ho880 2.524 . S
O903 C883 1.289 . S
O904 Ho880 2.381 . S
O904 C890 1.275 . S
O905 Ho880 2.669 . S
O905 Ho881 2.305 . S
O905 C890 1.256 . S
O906 Ho881 2.322 . S
O906 C891 1.259 . S
O907 Ho880 2.346 . S
O907 C891 1.268 . S
O908 Ho881 2.378 . S
O908 C892 1.215 . S
O909 Ho881 2.524 . S
O909 C892 1.289 . S
O910 Ho881 2.381 . S
O910 C899 1.275 . S
O911 Ho880 2.305 . S
O911 Ho881 2.669 . S
O911 C899 1.256 . S
H912 C885 0.930 . S
H913 C886 0.931 . S
H914 C888 0.934 . S
H915 C889 0.930 . S
H916 C894 0.930 . S
H917 C895 0.931 . S
H918 C897 0.934 . S
H919 C898 0.930 . S
Ho920 C923 2.811 . S
Ho920 O940 2.322 . S
Ho920 O942 2.378 . S
Ho920 O943 2.524 . S
Ho920 O944 2.381 . S
Ho920 O945 2.669 . S
Ho920 O947 2.346 . S
Ho920 O951 2.305 . S
Ho921 C932 2.811 . S
Ho921 O941 2.346 . S
Ho921 O945 2.305 . S
Ho921 O946 2.322 . S
Ho921 O948 2.378 . S
Ho921 O949 2.524 . S
Ho921 O950 2.381 . S
Ho921 O951 2.669 . S
C922 O940 1.259 . S
C922 O941 1.268 . S
C923 Ho920 2.811 . S
C923 C924 1.488 . S
C923 O942 1.215 . S
C923 O943 1.289 . S
C924 C923 1.488 . S
C924 C925 1.348 . S
C924 C929 1.413 . S
C925 C924 1.348 . S
C925 C926 1.442 . S
C925 H952 0.930 . S
C926 C925 1.442 . S
C926 C927 1.381 . S
C926 H953 0.931 . S
C927 C926 1.381 . S
C927 C928 1.321 . S
C928 C927 1.321 . S
C928 C929 1.403 . S
C928 H954 0.934 . S
C929 C924 1.413 . S
C929 C928 1.403 . S
C929 H955 0.930 . S
C930 O944 1.275 . S
C930 O945 1.256 . S
C931 O946 1.259 . S
C931 O947 1.268 . S
C932 Ho921 2.811 . S
C932 C933 1.488 . S
C932 O948 1.215 . S
C932 O949 1.289 . S
C933 C932 1.488 . S
C933 C934 1.348 . S
C933 C938 1.413 . S
C934 C933 1.348 . S
C934 C935 1.442 . S
C934 H956 0.930 . S
C935 C934 1.442 . S
C935 C936 1.381 . S
C935 H957 0.931 . S
C936 C935 1.381 . S
C936 C937 1.321 . S
C937 C936 1.321 . S
C937 C938 1.403 . S
C937 H958 0.934 . S
C938 C933 1.413 . S
C938 C937 1.403 . S
C938 H959 0.930 . S
C939 O950 1.275 . S
C939 O951 1.256 . S
O940 Ho920 2.322 . S
O940 C922 1.259 . S
O941 Ho921 2.346 . S
O941 C922 1.268 . S
O942 Ho920 2.378 . S
O942 C923 1.215 . S
O943 Ho920 2.524 . S
O943 C923 1.289 . S
O944 Ho920 2.381 . S
O944 C930 1.275 . S
O945 Ho920 2.669 . S
O945 Ho921 2.305 . S
O945 C930 1.256 . S
O946 Ho921 2.322 . S
O946 C931 1.259 . S
O947 Ho920 2.346 . S
O947 C931 1.268 . S
O948 Ho921 2.378 . S
O948 C932 1.215 . S
O949 Ho921 2.524 . S
O949 C932 1.289 . S
O950 Ho921 2.381 . S
O950 C939 1.275 . S
O951 Ho920 2.305 . S
O951 Ho921 2.669 . S
O951 C939 1.256 . S
H952 C925 0.930 . S
H953 C926 0.931 . S
H954 C928 0.934 . S
H955 C929 0.930 . S
H956 C934 0.930 . S
H957 C935 0.931 . S
H958 C937 0.934 . S
H959 C938 0.930 . S
Ho960 C963 2.811 . S
Ho960 O980 2.322 . S
Ho960 O982 2.378 . S
Ho960 O983 2.524 . S
Ho960 O984 2.381 . S
Ho960 O985 2.669 . S
Ho960 O987 2.346 . S
Ho960 O991 2.305 . S
Ho961 C972 2.811 . S
Ho961 O981 2.346 . S
Ho961 O985 2.305 . S
Ho961 O986 2.322 . S
Ho961 O988 2.378 . S
Ho961 O989 2.524 . S
Ho961 O990 2.381 . S
Ho961 O991 2.669 . S
C962 O980 1.259 . S
C962 O981 1.268 . S
C963 Ho960 2.811 . S
C963 C964 1.488 . S
C963 O982 1.215 . S
C963 O983 1.289 . S
C964 C963 1.488 . S
C964 C965 1.348 . S
C964 C969 1.413 . S
C965 C964 1.348 . S
C965 C966 1.442 . S
C965 H992 0.930 . S
C966 C965 1.442 . S
C966 C967 1.381 . S
C966 H993 0.931 . S
C967 C966 1.381 . S
C967 C968 1.321 . S
C968 C967 1.321 . S
C968 C969 1.403 . S
C968 H994 0.934 . S
C969 C964 1.413 . S
C969 C968 1.403 . S
C969 H995 0.930 . S
C970 O984 1.275 . S
C970 O985 1.256 . S
C971 O986 1.259 . S
C971 O987 1.268 . S
C972 Ho961 2.811 . S
C972 C973 1.488 . S
C972 O988 1.215 . S
C972 O989 1.289 . S
C973 C972 1.488 . S
C973 C974 1.348 . S
C973 C978 1.413 . S
C974 C973 1.348 . S
C974 C975 1.442 . S
C974 H996 0.930 . S
C975 C974 1.442 . S
C975 C976 1.381 . S
C975 H997 0.931 . S
C976 C975 1.381 . S
C976 C977 1.321 . S
C977 C976 1.321 . S
C977 C978 1.403 . S
C977 H998 0.934 . S
C978 C973 1.413 . S
C978 C977 1.403 . S
C978 H999 0.930 . S
C979 O990 1.275 . S
C979 O991 1.256 . S
O980 Ho960 2.322 . S
O980 C962 1.259 . S
O981 Ho961 2.346 . S
O981 C962 1.268 . S
O982 Ho960 2.378 . S
O982 C963 1.215 . S
O983 Ho960 2.524 . S
O983 C963 1.289 . S
O984 Ho960 2.381 . S
O984 C970 1.275 . S
O985 Ho960 2.669 . S
O985 Ho961 2.305 . S
O985 C970 1.256 . S
O986 Ho961 2.322 . S
O986 C971 1.259 . S
O987 Ho960 2.346 . S
O987 C971 1.268 . S
O988 Ho961 2.378 . S
O988 C972 1.215 . S
O989 Ho961 2.524 . S
O989 C972 1.289 . S
O990 Ho961 2.381 . S
O990 C979 1.275 . S
O991 Ho960 2.305 . S
O991 Ho961 2.669 . S
O991 C979 1.256 . S
H992 C965 0.930 . S
H993 C966 0.931 . S
H994 C968 0.934 . S
H995 C969 0.930 . S
H996 C974 0.930 . S
H997 C975 0.931 . S
H998 C977 0.934 . S
H999 C978 0.930 . S
Ho1000 C1003 2.811 . S
Ho1000 O1020 2.322 . S
Ho1000 O1022 2.378 . S
Ho1000 O1023 2.524 . S
Ho1000 O1024 2.381 . S
Ho1000 O1025 2.669 . S
Ho1000 O1027 2.346 . S
Ho1000 O1031 2.305 . S
Ho1001 C1012 2.811 . S
Ho1001 O1021 2.346 . S
Ho1001 O1025 2.305 . S
Ho1001 O1026 2.322 . S
Ho1001 O1028 2.378 . S
Ho1001 O1029 2.524 . S
Ho1001 O1030 2.381 . S
Ho1001 O1031 2.669 . S
C1002 O1020 1.259 . S
C1002 O1021 1.268 . S
C1003 Ho1000 2.811 . S
C1003 C1004 1.488 . S
C1003 O1022 1.215 . S
C1003 O1023 1.289 . S
C1004 C1003 1.488 . S
C1004 C1005 1.348 . S
C1004 C1009 1.413 . S
C1005 C1004 1.348 . S
C1005 C1006 1.442 . S
C1005 H1032 0.930 . S
C1006 C1005 1.442 . S
C1006 C1007 1.381 . S
C1006 H1033 0.931 . S
C1007 C1006 1.381 . S
C1007 C1008 1.321 . S
C1008 C1007 1.321 . S
C1008 C1009 1.403 . S
C1008 H1034 0.934 . S
C1009 C1004 1.413 . S
C1009 C1008 1.403 . S
C1009 H1035 0.930 . S
C1010 O1024 1.275 . S
C1010 O1025 1.256 . S
C1011 O1026 1.259 . S
C1011 O1027 1.268 . S
C1012 Ho1001 2.811 . S
C1012 C1013 1.488 . S
C1012 O1028 1.215 . S
C1012 O1029 1.289 . S
C1013 C1012 1.488 . S
C1013 C1014 1.348 . S
C1013 C1018 1.413 . S
C1014 C1013 1.348 . S
C1014 C1015 1.442 . S
C1014 H1036 0.930 . S
C1015 C1014 1.442 . S
C1015 C1016 1.381 . S
C1015 H1037 0.931 . S
C1016 C1015 1.381 . S
C1016 C1017 1.321 . S
C1017 C1016 1.321 . S
C1017 C1018 1.403 . S
C1017 H1038 0.934 . S
C1018 C1013 1.413 . S
C1018 C1017 1.403 . S
C1018 H1039 0.930 . S
C1019 O1030 1.275 . S
C1019 O1031 1.256 . S
O1020 Ho1000 2.322 . S
O1020 C1002 1.259 . S
O1021 Ho1001 2.346 . S
O1021 C1002 1.268 . S
O1022 Ho1000 2.378 . S
O1022 C1003 1.215 . S
O1023 Ho1000 2.524 . S
O1023 C1003 1.289 . S
O1024 Ho1000 2.381 . S
O1024 C1010 1.275 . S
O1025 Ho1000 2.669 . S
O1025 Ho1001 2.305 . S
O1025 C1010 1.256 . S
O1026 Ho1001 2.322 . S
O1026 C1011 1.259 . S
O1027 Ho1000 2.346 . S
O1027 C1011 1.268 . S
O1028 Ho1001 2.378 . S
O1028 C1012 1.215 . S
O1029 Ho1001 2.524 . S
O1029 C1012 1.289 . S
O1030 Ho1001 2.381 . S
O1030 C1019 1.275 . S
O1031 Ho1000 2.305 . S
O1031 Ho1001 2.669 . S
O1031 C1019 1.256 . S
H1032 C1005 0.930 . S
H1033 C1006 0.931 . S
H1034 C1008 0.934 . S
H1035 C1009 0.930 . S
H1036 C1014 0.930 . S
H1037 C1015 0.931 . S
H1038 C1017 0.934 . S
H1039 C1018 0.930 . S
Ho1040 C1043 2.811 . S
Ho1040 O1060 2.322 . S
Ho1040 O1062 2.378 . S
Ho1040 O1063 2.524 . S
Ho1040 O1064 2.381 . S
Ho1040 O1065 2.669 . S
Ho1040 O1067 2.346 . S
Ho1040 O1071 2.305 . S
Ho1041 C1052 2.811 . S
Ho1041 O1061 2.346 . S
Ho1041 O1065 2.305 . S
Ho1041 O1066 2.322 . S
Ho1041 O1068 2.378 . S
Ho1041 O1069 2.524 . S
Ho1041 O1070 2.381 . S
Ho1041 O1071 2.669 . S
C1042 O1060 1.259 . S
C1042 O1061 1.268 . S
C1043 Ho1040 2.811 . S
C1043 C1044 1.488 . S
C1043 O1062 1.215 . S
C1043 O1063 1.289 . S
C1044 C1043 1.488 . S
C1044 C1045 1.348 . S
C1044 C1049 1.413 . S
C1045 C1044 1.348 . S
C1045 C1046 1.442 . S
C1045 H1072 0.930 . S
C1046 C1045 1.442 . S
C1046 C1047 1.381 . S
C1046 H1073 0.931 . S
C1047 C1046 1.381 . S
C1047 C1048 1.321 . S
C1048 C1047 1.321 . S
C1048 C1049 1.403 . S
C1048 H1074 0.934 . S
C1049 C1044 1.413 . S
C1049 C1048 1.403 . S
C1049 H1075 0.930 . S
C1050 O1064 1.275 . S
C1050 O1065 1.256 . S
C1051 O1066 1.259 . S
C1051 O1067 1.268 . S
C1052 Ho1041 2.811 . S
C1052 C1053 1.488 . S
C1052 O1068 1.215 . S
C1052 O1069 1.289 . S
C1053 C1052 1.488 . S
C1053 C1054 1.348 . S
C1053 C1058 1.413 . S
C1054 C1053 1.348 . S
C1054 C1055 1.442 . S
C1054 H1076 0.930 . S
C1055 C1054 1.442 . S
C1055 C1056 1.381 . S
C1055 H1077 0.931 . S
C1056 C1055 1.381 . S
C1056 C1057 1.321 . S
C1057 C1056 1.321 . S
C1057 C1058 1.403 . S
C1057 H1078 0.934 . S
C1058 C1053 1.413 . S
C1058 C1057 1.403 . S
C1058 H1079 0.930 . S
C1059 O1070 1.275 . S
C1059 O1071 1.256 . S
O1060 Ho1040 2.322 . S
O1060 C1042 1.259 . S
O1061 Ho1041 2.346 . S
O1061 C1042 1.268 . S
O1062 Ho1040 2.378 . S
O1062 C1043 1.215 . S
O1063 Ho1040 2.524 . S
O1063 C1043 1.289 . S
O1064 Ho1040 2.381 . S
O1064 C1050 1.275 . S
O1065 Ho1040 2.669 . S
O1065 Ho1041 2.305 . S
O1065 C1050 1.256 . S
O1066 Ho1041 2.322 . S
O1066 C1051 1.259 . S
O1067 Ho1040 2.346 . S
O1067 C1051 1.268 . S
O1068 Ho1041 2.378 . S
O1068 C1052 1.215 . S
O1069 Ho1041 2.524 . S
O1069 C1052 1.289 . S
O1070 Ho1041 2.381 . S
O1070 C1059 1.275 . S
O1071 Ho1040 2.305 . S
O1071 Ho1041 2.669 . S
O1071 C1059 1.256 . S
H1072 C1045 0.930 . S
H1073 C1046 0.931 . S
H1074 C1048 0.934 . S
H1075 C1049 0.930 . S
H1076 C1054 0.930 . S
H1077 C1055 0.931 . S
H1078 C1057 0.934 . S
H1079 C1058 0.930 . S
Ho1080 C1083 2.811 . S
Ho1080 O1100 2.322 . S
Ho1080 O1102 2.378 . S
Ho1080 O1103 2.524 . S
Ho1080 O1104 2.381 . S
Ho1080 O1105 2.669 . S
Ho1080 O1107 2.346 . S
Ho1080 O1111 2.305 . S
Ho1081 C1092 2.811 1_455 S
Ho1081 O1101 2.346 . S
Ho1081 O1105 2.305 . S
Ho1081 O1106 2.322 . S
Ho1081 O1108 2.378 1_455 S
Ho1081 O1109 2.524 1_455 S
Ho1081 O1110 2.381 . S
Ho1081 O1111 2.669 . S
C1082 O1100 1.259 . S
C1082 O1101 1.268 . S
C1083 Ho1080 2.811 . S
C1083 C1084 1.488 . S
C1083 O1102 1.215 . S
C1083 O1103 1.289 . S
C1084 C1083 1.488 . S
C1084 C1085 1.348 . S
C1084 C1089 1.413 . S
C1085 C1084 1.348 . S
C1085 C1086 1.442 . S
C1085 H1112 0.930 . S
C1086 C1085 1.442 . S
C1086 C1087 1.381 . S
C1086 H1113 0.931 . S
C1087 C1086 1.381 . S
C1087 C1088 1.321 . S
C1088 C1087 1.321 . S
C1088 C1089 1.403 . S
C1088 H1114 0.934 . S
C1089 C1084 1.413 . S
C1089 C1088 1.403 . S
C1089 H1115 0.930 . S
C1090 O1104 1.275 . S
C1090 O1105 1.256 . S
C1091 O1106 1.259 . S
C1091 O1107 1.268 . S
C1092 Ho1081 2.811 1_655 S
C1092 C1093 1.488 . S
C1092 O1108 1.215 . S
C1092 O1109 1.289 . S
C1093 C1092 1.488 . S
C1093 C1094 1.348 . S
C1093 C1098 1.413 . S
C1094 C1093 1.348 . S
C1094 C1095 1.442 . S
C1094 H1116 0.930 . S
C1095 C1094 1.442 . S
C1095 C1096 1.381 . S
C1095 H1117 0.931 . S
C1096 C1095 1.381 . S
C1096 C1097 1.321 . S
C1097 C1096 1.321 . S
C1097 C1098 1.403 . S
C1097 H1118 0.934 . S
C1098 C1093 1.413 . S
C1098 C1097 1.403 . S
C1098 H1119 0.930 . S
C1099 O1110 1.275 . S
C1099 O1111 1.256 . S
O1100 Ho1080 2.322 . S
O1100 C1082 1.259 . S
O1101 Ho1081 2.346 . S
O1101 C1082 1.268 . S
O1102 Ho1080 2.378 . S
O1102 C1083 1.215 . S
O1103 Ho1080 2.524 . S
O1103 C1083 1.289 . S
O1104 Ho1080 2.381 . S
O1104 C1090 1.275 . S
O1105 Ho1080 2.669 . S
O1105 Ho1081 2.305 . S
O1105 C1090 1.256 . S
O1106 Ho1081 2.322 . S
O1106 C1091 1.259 . S
O1107 Ho1080 2.346 . S
O1107 C1091 1.268 . S
O1108 Ho1081 2.378 1_655 S
O1108 C1092 1.215 . S
O1109 Ho1081 2.524 1_655 S
O1109 C1092 1.289 . S
O1110 Ho1081 2.381 . S
O1110 C1099 1.275 . S
O1111 Ho1080 2.305 . S
O1111 Ho1081 2.669 . S
O1111 C1099 1.256 . S
H1112 C1085 0.930 . S
H1113 C1086 0.931 . S
H1114 C1088 0.934 . S
H1115 C1089 0.930 . S
H1116 C1094 0.930 . S
H1117 C1095 0.931 . S
H1118 C1097 0.934 . S
H1119 C1098 0.930 . S
Ho1120 C1123 2.811 . S
Ho1120 O1140 2.322 . S
Ho1120 O1142 2.378 . S
Ho1120 O1143 2.524 . S
Ho1120 O1144 2.381 . S
Ho1120 O1145 2.669 . S
Ho1120 O1147 2.346 . S
Ho1120 O1151 2.305 . S
Ho1121 C1132 2.811 . S
Ho1121 O1141 2.346 . S
Ho1121 O1145 2.305 . S
Ho1121 O1146 2.322 . S
Ho1121 O1148 2.378 . S
Ho1121 O1149 2.524 . S
Ho1121 O1150 2.381 . S
Ho1121 O1151 2.669 . S
C1122 O1140 1.259 . S
C1122 O1141 1.268 . S
C1123 Ho1120 2.811 . S
C1123 C1124 1.488 . S
C1123 O1142 1.215 . S
C1123 O1143 1.289 . S
C1124 C1123 1.488 . S
C1124 C1125 1.348 . S
C1124 C1129 1.413 . S
C1125 C1124 1.348 . S
C1125 C1126 1.442 . S
C1125 H1152 0.930 . S
C1126 C1125 1.442 . S
C1126 C1127 1.381 . S
C1126 H1153 0.931 . S
C1127 C1126 1.381 . S
C1127 C1128 1.321 . S
C1128 C1127 1.321 . S
C1128 C1129 1.403 . S
C1128 H1154 0.934 . S
C1129 C1124 1.413 . S
C1129 C1128 1.403 . S
C1129 H1155 0.930 . S
C1130 O1144 1.275 . S
C1130 O1145 1.256 . S
C1131 O1146 1.259 . S
C1131 O1147 1.268 . S
C1132 Ho1121 2.811 . S
C1132 C1133 1.488 . S
C1132 O1148 1.215 . S
C1132 O1149 1.289 . S
C1133 C1132 1.488 . S
C1133 C1134 1.348 . S
C1133 C1138 1.413 . S
C1134 C1133 1.348 . S
C1134 C1135 1.442 . S
C1134 H1156 0.930 . S
C1135 C1134 1.442 . S
C1135 C1136 1.381 . S
C1135 H1157 0.931 . S
C1136 C1135 1.381 . S
C1136 C1137 1.321 . S
C1137 C1136 1.321 . S
C1137 C1138 1.403 . S
C1137 H1158 0.934 . S
C1138 C1133 1.413 . S
C1138 C1137 1.403 . S
C1138 H1159 0.930 . S
C1139 O1150 1.275 . S
C1139 O1151 1.256 . S
O1140 Ho1120 2.322 . S
O1140 C1122 1.259 . S
O1141 Ho1121 2.346 . S
O1141 C1122 1.268 . S
O1142 Ho1120 2.378 . S
O1142 C1123 1.215 . S
O1143 Ho1120 2.524 . S
O1143 C1123 1.289 . S
O1144 Ho1120 2.381 . S
O1144 C1130 1.275 . S
O1145 Ho1120 2.669 . S
O1145 Ho1121 2.305 . S
O1145 C1130 1.256 . S
O1146 Ho1121 2.322 . S
O1146 C1131 1.259 . S
O1147 Ho1120 2.346 . S
O1147 C1131 1.268 . S
O1148 Ho1121 2.378 . S
O1148 C1132 1.215 . S
O1149 Ho1121 2.524 . S
O1149 C1132 1.289 . S
O1150 Ho1121 2.381 . S
O1150 C1139 1.275 . S
O1151 Ho1120 2.305 . S
O1151 Ho1121 2.669 . S
O1151 C1139 1.256 . S
H1152 C1125 0.930 . S
H1153 C1126 0.931 . S
H1154 C1128 0.934 . S
H1155 C1129 0.930 . S
H1156 C1134 0.930 . S
H1157 C1135 0.931 . S
H1158 C1137 0.934 . S
H1159 C1138 0.930 . S
Ho1160 C1163 2.811 . S
Ho1160 O1180 2.322 . S
Ho1160 O1182 2.378 . S
Ho1160 O1183 2.524 . S
Ho1160 O1184 2.381 . S
Ho1160 O1185 2.669 . S
Ho1160 O1187 2.346 . S
Ho1160 O1191 2.305 . S
Ho1161 C1172 2.811 1_455 S
Ho1161 O1181 2.346 . S
Ho1161 O1185 2.305 . S
Ho1161 O1186 2.322 . S
Ho1161 O1188 2.378 1_455 S
Ho1161 O1189 2.524 1_455 S
Ho1161 O1190 2.381 . S
Ho1161 O1191 2.669 . S
C1162 O1180 1.259 . S
C1162 O1181 1.268 . S
C1163 Ho1160 2.811 . S
C1163 C1164 1.488 . S
C1163 O1182 1.215 . S
C1163 O1183 1.289 . S
C1164 C1163 1.488 . S
C1164 C1165 1.348 . S
C1164 C1169 1.413 . S
C1165 C1164 1.348 . S
C1165 C1166 1.442 . S
C1165 H1192 0.930 . S
C1166 C1165 1.442 . S
C1166 C1167 1.381 . S
C1166 H1193 0.931 . S
C1167 C1166 1.381 . S
C1167 C1168 1.321 . S
C1168 C1167 1.321 . S
C1168 C1169 1.403 . S
C1168 H1194 0.934 . S
C1169 C1164 1.413 . S
C1169 C1168 1.403 . S
C1169 H1195 0.930 . S
C1170 O1184 1.275 . S
C1170 O1185 1.256 . S
C1171 O1186 1.259 . S
C1171 O1187 1.268 . S
C1172 Ho1161 2.811 1_655 S
C1172 C1173 1.488 . S
C1172 O1188 1.215 . S
C1172 O1189 1.289 . S
C1173 C1172 1.488 . S
C1173 C1174 1.348 . S
C1173 C1178 1.413 . S
C1174 C1173 1.348 . S
C1174 C1175 1.442 . S
C1174 H1196 0.930 . S
C1175 C1174 1.442 . S
C1175 C1176 1.381 . S
C1175 H1197 0.931 . S
C1176 C1175 1.381 . S
C1176 C1177 1.321 . S
C1177 C1176 1.321 . S
C1177 C1178 1.403 . S
C1177 H1198 0.934 . S
C1178 C1173 1.413 . S
C1178 C1177 1.403 . S
C1178 H1199 0.930 . S
C1179 O1190 1.275 . S
C1179 O1191 1.256 . S
O1180 Ho1160 2.322 . S
O1180 C1162 1.259 . S
O1181 Ho1161 2.346 . S
O1181 C1162 1.268 . S
O1182 Ho1160 2.378 . S
O1182 C1163 1.215 . S
O1183 Ho1160 2.524 . S
O1183 C1163 1.289 . S
O1184 Ho1160 2.381 . S
O1184 C1170 1.275 . S
O1185 Ho1160 2.669 . S
O1185 Ho1161 2.305 . S
O1185 C1170 1.256 . S
O1186 Ho1161 2.322 . S
O1186 C1171 1.259 . S
O1187 Ho1160 2.346 . S
O1187 C1171 1.268 . S
O1188 Ho1161 2.378 1_655 S
O1188 C1172 1.215 . S
O1189 Ho1161 2.524 1_655 S
O1189 C1172 1.289 . S
O1190 Ho1161 2.381 . S
O1190 C1179 1.275 . S
O1191 Ho1160 2.305 . S
O1191 Ho1161 2.669 . S
O1191 C1179 1.256 . S
H1192 C1165 0.930 . S
H1193 C1166 0.931 . S
H1194 C1168 0.934 . S
H1195 C1169 0.930 . S
H1196 C1174 0.930 . S
H1197 C1175 0.931 . S
H1198 C1177 0.934 . S
H1199 C1178 0.930 . S
Ho1200 C1203 2.811 . S
Ho1200 O1220 2.322 . S
Ho1200 O1222 2.378 . S
Ho1200 O1223 2.524 . S
Ho1200 O1224 2.381 . S
Ho1200 O1225 2.669 . S
Ho1200 O1227 2.346 . S
Ho1200 O1231 2.305 . S
Ho1201 C1212 2.811 . S
Ho1201 O1221 2.346 . S
Ho1201 O1225 2.305 . S
Ho1201 O1226 2.322 . S
Ho1201 O1228 2.378 . S
Ho1201 O1229 2.524 . S
Ho1201 O1230 2.381 . S
Ho1201 O1231 2.669 . S
C1202 O1220 1.259 . S
C1202 O1221 1.268 . S
C1203 Ho1200 2.811 . S
C1203 C1204 1.488 . S
C1203 O1222 1.215 . S
C1203 O1223 1.289 . S
C1204 C1203 1.488 . S
C1204 C1205 1.348 . S
C1204 C1209 1.413 . S
C1205 C1204 1.348 . S
C1205 C1206 1.442 . S
C1205 H1232 0.930 . S
C1206 C1205 1.442 . S
C1206 C1207 1.381 . S
C1206 H1233 0.931 . S
C1207 C1206 1.381 . S
C1207 C1208 1.321 . S
C1208 C1207 1.321 . S
C1208 C1209 1.403 . S
C1208 H1234 0.934 . S
C1209 C1204 1.413 . S
C1209 C1208 1.403 . S
C1209 H1235 0.930 . S
C1210 O1224 1.275 . S
C1210 O1225 1.256 . S
C1211 O1226 1.259 . S
C1211 O1227 1.268 . S
C1212 Ho1201 2.811 . S
C1212 C1213 1.488 . S
C1212 O1228 1.215 . S
C1212 O1229 1.289 . S
C1213 C1212 1.488 . S
C1213 C1214 1.348 . S
C1213 C1218 1.413 . S
C1214 C1213 1.348 . S
C1214 C1215 1.442 . S
C1214 H1236 0.930 . S
C1215 C1214 1.442 . S
C1215 C1216 1.381 . S
C1215 H1237 0.931 . S
C1216 C1215 1.381 . S
C1216 C1217 1.321 . S
C1217 C1216 1.321 . S
C1217 C1218 1.403 . S
C1217 H1238 0.934 . S
C1218 C1213 1.413 . S
C1218 C1217 1.403 . S
C1218 H1239 0.930 . S
C1219 O1230 1.275 . S
C1219 O1231 1.256 . S
O1220 Ho1200 2.322 . S
O1220 C1202 1.259 . S
O1221 Ho1201 2.346 . S
O1221 C1202 1.268 . S
O1222 Ho1200 2.378 . S
O1222 C1203 1.215 . S
O1223 Ho1200 2.524 . S
O1223 C1203 1.289 . S
O1224 Ho1200 2.381 . S
O1224 C1210 1.275 . S
O1225 Ho1200 2.669 . S
O1225 Ho1201 2.305 . S
O1225 C1210 1.256 . S
O1226 Ho1201 2.322 . S
O1226 C1211 1.259 . S
O1227 Ho1200 2.346 . S
O1227 C1211 1.268 . S
O1228 Ho1201 2.378 . S
O1228 C1212 1.215 . S
O1229 Ho1201 2.524 . S
O1229 C1212 1.289 . S
O1230 Ho1201 2.381 . S
O1230 C1219 1.275 . S
O1231 Ho1200 2.305 . S
O1231 Ho1201 2.669 . S
O1231 C1219 1.256 . S
H1232 C1205 0.930 . S
H1233 C1206 0.931 . S
H1234 C1208 0.934 . S
H1235 C1209 0.930 . S
H1236 C1214 0.930 . S
H1237 C1215 0.931 . S
H1238 C1217 0.934 . S
H1239 C1218 0.930 . S
Ho1240 C1243 2.811 . S
Ho1240 O1260 2.322 . S
Ho1240 O1262 2.378 . S
Ho1240 O1263 2.524 . S
Ho1240 O1264 2.381 . S
Ho1240 O1265 2.669 . S
Ho1240 O1267 2.346 . S
Ho1240 O1271 2.305 . S
Ho1241 C1252 2.811 . S
Ho1241 O1261 2.346 . S
Ho1241 O1265 2.305 . S
Ho1241 O1266 2.322 . S
Ho1241 O1268 2.378 . S
Ho1241 O1269 2.524 . S
Ho1241 O1270 2.381 . S
Ho1241 O1271 2.669 . S
C1242 O1260 1.259 . S
C1242 O1261 1.268 . S
C1243 Ho1240 2.811 . S
C1243 C1244 1.488 . S
C1243 O1262 1.215 . S
C1243 O1263 1.289 . S
C1244 C1243 1.488 . S
C1244 C1245 1.348 . S
C1244 C1249 1.413 . S
C1245 C1244 1.348 . S
C1245 C1246 1.442 . S
C1245 H1272 0.930 . S
C1246 C1245 1.442 . S
C1246 C1247 1.381 . S
C1246 H1273 0.931 . S
C1247 C1246 1.381 . S
C1247 C1248 1.321 . S
C1248 C1247 1.321 . S
C1248 C1249 1.403 . S
C1248 H1274 0.934 . S
C1249 C1244 1.413 . S
C1249 C1248 1.403 . S
C1249 H1275 0.930 . S
C1250 O1264 1.275 . S
C1250 O1265 1.256 . S
C1251 O1266 1.259 . S
C1251 O1267 1.268 . S
C1252 Ho1241 2.811 . S
C1252 C1253 1.488 . S
C1252 O1268 1.215 . S
C1252 O1269 1.289 . S
C1253 C1252 1.488 . S
C1253 C1254 1.348 . S
C1253 C1258 1.413 . S
C1254 C1253 1.348 . S
C1254 C1255 1.442 . S
C1254 H1276 0.930 . S
C1255 C1254 1.442 . S
C1255 C1256 1.381 . S
C1255 H1277 0.931 . S
C1256 C1255 1.381 . S
C1256 C1257 1.321 . S
C1257 C1256 1.321 . S
C1257 C1258 1.403 . S
C1257 H1278 0.934 . S
C1258 C1253 1.413 . S
C1258 C1257 1.403 . S
C1258 H1279 0.930 . S
C1259 O1270 1.275 . S
C1259 O1271 1.256 . S
O1260 Ho1240 2.322 . S
O1260 C1242 1.259 . S
O1261 Ho1241 2.346 . S
O1261 C1242 1.268 . S
O1262 Ho1240 2.378 . S
O1262 C1243 1.215 . S
O1263 Ho1240 2.524 . S
O1263 C1243 1.289 . S
O1264 Ho1240 2.381 . S
O1264 C1250 1.275 . S
O1265 Ho1240 2.669 . S
O1265 Ho1241 2.305 . S
O1265 C1250 1.256 . S
O1266 Ho1241 2.322 . S
O1266 C1251 1.259 . S
O1267 Ho1240 2.346 . S
O1267 C1251 1.268 . S
O1268 Ho1241 2.378 . S
O1268 C1252 1.215 . S
O1269 Ho1241 2.524 . S
O1269 C1252 1.289 . S
O1270 Ho1241 2.381 . S
O1270 C1259 1.275 . S
O1271 Ho1240 2.305 . S
O1271 Ho1241 2.669 . S
O1271 C1259 1.256 . S
H1272 C1245 0.930 . S
H1273 C1246 0.931 . S
H1274 C1248 0.934 . S
H1275 C1249 0.930 . S
H1276 C1254 0.930 . S
H1277 C1255 0.931 . S
H1278 C1257 0.934 . S
H1279 C1258 0.930 . S
H1280 C1286 0.930 . S
H1281 C1290 0.930 . S
H1282 C1295 0.929 . S
H1283 C1293 0.929 . S
H1284 C1288 0.929 . S
H1285 C1294 0.929 . S
C1286 H1280 0.930 . S
C1286 C1287 1.367 . S
C1286 C1294 1.378 . S
C1287 C1286 1.367 . S
C1287 C1295 1.433 . S
C1288 H1284 0.929 . S
C1288 C1290 1.378 . S
C1288 C1292 1.350 . S
C1289 C1292 1.463 . S
C1289 C1294 1.350 . S
C1289 N1297 1.427 . S
C1290 H1281 0.930 . S
C1290 C1288 1.378 . S
C1290 C1291 1.367 . S
C1291 C1290 1.367 . S
C1291 C1293 1.433 . S
C1292 C1288 1.350 . S
C1292 C1289 1.463 . S
C1292 N1296 1.427 . S
C1293 H1283 0.929 . S
C1293 C1291 1.433 . S
C1293 N1296 1.384 . S
C1294 H1285 0.929 . S
C1294 C1286 1.378 . S
C1294 C1289 1.350 . S
C1295 H1282 0.929 . S
C1295 C1287 1.433 . S
C1295 N1297 1.384 . S
N1296 C1292 1.427 . S
N1296 C1293 1.384 . S
N1297 C1289 1.427 . S
N1297 C1295 1.384 . S
H1298 C1304 0.930 . S
H1299 C1308 0.930 . S
H1300 C1313 0.929 . S
H1301 C1311 0.929 . S
H1302 C1306 0.929 . S
H1303 C1312 0.929 . S
C1304 H1298 0.930 . S
C1304 C1305 1.367 . S
C1304 C1312 1.378 . S
C1305 C1304 1.367 . S
C1305 C1313 1.433 . S
C1306 H1302 0.929 . S
C1306 C1308 1.378 . S
C1306 C1310 1.350 . S
C1307 C1310 1.463 . S
C1307 C1312 1.350 . S
C1307 N1315 1.427 . S
C1308 H1299 0.930 . S
C1308 C1306 1.378 . S
C1308 C1309 1.367 . S
C1309 C1308 1.367 . S
C1309 C1311 1.433 . S
C1310 C1306 1.350 . S
C1310 C1307 1.463 . S
C1310 N1314 1.427 . S
C1311 H1301 0.929 . S
C1311 C1309 1.433 . S
C1311 N1314 1.384 . S
C1312 H1303 0.929 . S
C1312 C1304 1.378 . S
C1312 C1307 1.350 . S
C1313 H1300 0.929 . S
C1313 C1305 1.433 . S
C1313 N1315 1.384 . S
N1314 C1310 1.427 . S
N1314 C1311 1.384 . S
N1315 C1307 1.427 . S
N1315 C1313 1.384 . S
H1316 C1322 0.930 . S
H1317 C1326 0.930 . S
H1318 C1331 0.929 . S
H1319 C1329 0.929 . S
H1320 C1324 0.929 . S
H1321 C1330 0.929 . S
C1322 H1316 0.930 . S
C1322 C1323 1.367 . S
C1322 C1330 1.378 . S
C1323 C1322 1.367 . S
C1323 C1331 1.433 . S
C1324 H1320 0.929 . S
C1324 C1326 1.378 . S
C1324 C1328 1.350 . S
C1325 C1328 1.463 . S
C1325 C1330 1.350 . S
C1325 N1333 1.427 . S
C1326 H1317 0.930 . S
C1326 C1324 1.378 . S
C1326 C1327 1.367 . S
C1327 C1326 1.367 . S
C1327 C1329 1.433 . S
C1328 C1324 1.350 . S
C1328 C1325 1.463 . S
C1328 N1332 1.427 . S
C1329 H1319 0.929 . S
C1329 C1327 1.433 . S
C1329 N1332 1.384 . S
C1330 H1321 0.929 . S
C1330 C1322 1.378 . S
C1330 C1325 1.350 . S
C1331 H1318 0.929 . S
C1331 C1323 1.433 . S
C1331 N1333 1.384 . S
N1332 C1328 1.427 . S
N1332 C1329 1.384 . S
N1333 C1325 1.427 . S
N1333 C1331 1.384 . S
H1334 C1340 0.930 . S
H1335 C1344 0.930 . S
H1336 C1349 0.929 . S
H1337 C1347 0.929 . S
H1338 C1342 0.929 . S
H1339 C1348 0.929 . S
C1340 H1334 0.930 . S
C1340 C1341 1.367 . S
C1340 C1348 1.378 . S
C1341 C1340 1.367 . S
C1341 C1349 1.433 . S
C1342 H1338 0.929 . S
C1342 C1344 1.378 . S
C1342 C1346 1.350 . S
C1343 C1346 1.463 . S
C1343 C1348 1.350 . S
C1343 N1351 1.427 . S
C1344 H1335 0.930 . S
C1344 C1342 1.378 . S
C1344 C1345 1.367 . S
C1345 C1344 1.367 . S
C1345 C1347 1.433 . S
C1346 C1342 1.350 . S
C1346 C1343 1.463 . S
C1346 N1350 1.427 . S
C1347 H1337 0.929 . S
C1347 C1345 1.433 . S
C1347 N1350 1.384 . S
C1348 H1339 0.929 . S
C1348 C1340 1.378 . S
C1348 C1343 1.350 . S
C1349 H1336 0.929 . S
C1349 C1341 1.433 . S
C1349 N1351 1.384 . S
N1350 C1346 1.427 . S
N1350 C1347 1.384 . S
N1351 C1343 1.427 . S
N1351 C1349 1.384 . S
H1352 C1358 0.930 . S
H1353 C1362 0.930 . S
H1354 C1367 0.929 . S
H1355 C1365 0.929 . S
H1356 C1360 0.929 . S
H1357 C1366 0.929 . S
C1358 H1352 0.930 . S
C1358 C1359 1.367 . S
C1358 C1366 1.378 . S
C1359 C1358 1.367 . S
C1359 C1367 1.433 . S
C1360 H1356 0.929 . S
C1360 C1362 1.378 . S
C1360 C1364 1.350 . S
C1361 C1364 1.463 . S
C1361 C1366 1.350 . S
C1361 N1369 1.427 . S
C1362 H1353 0.930 . S
C1362 C1360 1.378 . S
C1362 C1363 1.367 . S
C1363 C1362 1.367 . S
C1363 C1365 1.433 . S
C1364 C1360 1.350 . S
C1364 C1361 1.463 . S
C1364 N1368 1.427 . S
C1365 H1355 0.929 . S
C1365 C1363 1.433 . S
C1365 N1368 1.384 . S
C1366 H1357 0.929 . S
C1366 C1358 1.378 . S
C1366 C1361 1.350 . S
C1367 H1354 0.929 . S
C1367 C1359 1.433 . S
C1367 N1369 1.384 . S
N1368 C1364 1.427 . S
N1368 C1365 1.384 . S
N1369 C1361 1.427 . S
N1369 C1367 1.384 . S
H1370 C1376 0.930 . S
H1371 C1380 0.930 . S
H1372 C1385 0.929 . S
H1373 C1383 0.929 . S
H1374 C1378 0.929 . S
H1375 C1384 0.929 . S
C1376 H1370 0.930 . S
C1376 C1377 1.367 . S
C1376 C1384 1.378 . S
C1377 C1376 1.367 . S
C1377 C1385 1.433 . S
C1378 H1374 0.929 . S
C1378 C1380 1.378 . S
C1378 C1382 1.350 . S
C1379 C1382 1.463 . S
C1379 C1384 1.350 . S
C1379 N1387 1.427 . S
C1380 H1371 0.930 . S
C1380 C1378 1.378 . S
C1380 C1381 1.367 . S
C1381 C1380 1.367 . S
C1381 C1383 1.433 . S
C1382 C1378 1.350 . S
C1382 C1379 1.463 . S
C1382 N1386 1.427 . S
C1383 H1373 0.929 . S
C1383 C1381 1.433 . S
C1383 N1386 1.384 . S
C1384 H1375 0.929 . S
C1384 C1376 1.378 . S
C1384 C1379 1.350 . S
C1385 H1372 0.929 . S
C1385 C1377 1.433 . S
C1385 N1387 1.384 . S
N1386 C1382 1.427 . S
N1386 C1383 1.384 . S
N1387 C1379 1.427 . S
N1387 C1385 1.384 . S
H1388 C1394 0.930 . S
H1389 C1398 0.930 . S
H1390 C1403 0.929 . S
H1391 C1401 0.929 . S
H1392 C1396 0.929 . S
H1393 C1402 0.929 . S
C1394 H1388 0.930 . S
C1394 C1395 1.367 . S
C1394 C1402 1.378 . S
C1395 C1394 1.367 . S
C1395 C1403 1.433 . S
C1396 H1392 0.929 . S
C1396 C1398 1.378 . S
C1396 C1400 1.350 . S
C1397 C1400 1.463 . S
C1397 C1402 1.350 . S
C1397 N1405 1.427 . S
C1398 H1389 0.930 . S
C1398 C1396 1.378 . S
C1398 C1399 1.367 . S
C1399 C1398 1.367 . S
C1399 C1401 1.433 . S
C1400 C1396 1.350 . S
C1400 C1397 1.463 . S
C1400 N1404 1.427 . S
C1401 H1391 0.929 . S
C1401 C1399 1.433 . S
C1401 N1404 1.384 . S
C1402 H1393 0.929 . S
C1402 C1394 1.378 . S
C1402 C1397 1.350 . S
C1403 H1390 0.929 . S
C1403 C1395 1.433 . S
C1403 N1405 1.384 . S
N1404 C1400 1.427 . S
N1404 C1401 1.384 . S
N1405 C1397 1.427 . S
N1405 C1403 1.384 . S
H1406 C1412 0.930 . S
H1407 C1416 0.930 . S
H1408 C1421 0.929 . S
H1409 C1419 0.929 . S
H1410 C1414 0.929 . S
H1411 C1420 0.929 . S
C1412 H1406 0.930 . S
C1412 C1413 1.367 . S
C1412 C1420 1.378 . S
C1413 C1412 1.367 . S
C1413 C1421 1.433 . S
C1414 H1410 0.929 . S
C1414 C1416 1.378 . S
C1414 C1418 1.350 . S
C1415 C1418 1.463 . S
C1415 C1420 1.350 . S
C1415 N1423 1.427 . S
C1416 H1407 0.930 . S
C1416 C1414 1.378 . S
C1416 C1417 1.367 . S
C1417 C1416 1.367 . S
C1417 C1419 1.433 . S
C1418 C1414 1.350 . S
C1418 C1415 1.463 . S
C1418 N1422 1.427 . S
C1419 H1409 0.929 . S
C1419 C1417 1.433 . S
C1419 N1422 1.384 . S
C1420 H1411 0.929 . S
C1420 C1412 1.378 . S
C1420 C1415 1.350 . S
C1421 H1408 0.929 . S
C1421 C1413 1.433 . S
C1421 N1423 1.384 . S
N1422 C1418 1.427 . S
N1422 C1419 1.384 . S
N1423 C1415 1.427 . S
N1423 C1421 1.384 . S
H1424 C1430 0.930 . S
H1425 C1434 0.930 . S
H1426 C1439 0.929 . S
H1427 C1437 0.929 . S
H1428 C1432 0.929 . S
H1429 C1438 0.929 . S
C1430 H1424 0.930 . S
C1430 C1431 1.367 . S
C1430 C1438 1.378 . S
C1431 C1430 1.367 . S
C1431 C1439 1.433 . S
C1432 H1428 0.929 . S
C1432 C1434 1.378 . S
C1432 C1436 1.350 . S
C1433 C1436 1.463 . S
C1433 C1438 1.350 . S
C1433 N1441 1.427 . S
C1434 H1425 0.930 . S
C1434 C1432 1.378 . S
C1434 C1435 1.367 . S
C1435 C1434 1.367 . S
C1435 C1437 1.433 . S
C1436 C1432 1.350 . S
C1436 C1433 1.463 . S
C1436 N1440 1.427 . S
C1437 H1427 0.929 . S
C1437 C1435 1.433 . S
C1437 N1440 1.384 . S
C1438 H1429 0.929 . S
C1438 C1430 1.378 . S
C1438 C1433 1.350 . S
C1439 H1426 0.929 . S
C1439 C1431 1.433 . S
C1439 N1441 1.384 . S
N1440 C1436 1.427 . S
N1440 C1437 1.384 . S
N1441 C1433 1.427 . S
N1441 C1439 1.384 . S
H1442 C1448 0.930 . S
H1443 C1452 0.930 . S
H1444 C1457 0.929 . S
H1445 C1455 0.929 . S
H1446 C1450 0.929 . S
H1447 C1456 0.929 . S
C1448 H1442 0.930 . S
C1448 C1449 1.367 . S
C1448 C1456 1.378 . S
C1449 C1448 1.367 . S
C1449 C1457 1.433 . S
C1450 H1446 0.929 . S
C1450 C1452 1.378 . S
C1450 C1454 1.350 . S
C1451 C1454 1.463 . S
C1451 C1456 1.350 . S
C1451 N1459 1.427 . S
C1452 H1443 0.930 . S
C1452 C1450 1.378 . S
C1452 C1453 1.367 . S
C1453 C1452 1.367 . S
C1453 C1455 1.433 . S
C1454 C1450 1.350 . S
C1454 C1451 1.463 . S
C1454 N1458 1.427 . S
C1455 H1445 0.929 . S
C1455 C1453 1.433 . S
C1455 N1458 1.384 . S
C1456 H1447 0.929 . S
C1456 C1448 1.378 . S
C1456 C1451 1.350 . S
C1457 H1444 0.929 . S
C1457 C1449 1.433 . S
C1457 N1459 1.384 . S
N1458 C1454 1.427 . S
N1458 C1455 1.384 . S
N1459 C1451 1.427 . S
N1459 C1457 1.384 . S
H1460 C1466 0.930 . S
H1461 C1470 0.930 . S
H1462 C1475 0.929 . S
H1463 C1473 0.929 . S
H1464 C1468 0.929 . S
H1465 C1474 0.929 . S
C1466 H1460 0.930 . S
C1466 C1467 1.367 . S
C1466 C1474 1.378 . S
C1467 C1466 1.367 . S
C1467 C1475 1.433 . S
C1468 H1464 0.929 . S
C1468 C1470 1.378 . S
C1468 C1472 1.350 . S
C1469 C1472 1.463 . S
C1469 C1474 1.350 . S
C1469 N1477 1.427 . S
C1470 H1461 0.930 . S
C1470 C1468 1.378 . S
C1470 C1471 1.367 . S
C1471 C1470 1.367 . S
C1471 C1473 1.433 . S
C1472 C1468 1.350 . S
C1472 C1469 1.463 . S
C1472 N1476 1.427 . S
C1473 H1463 0.929 . S
C1473 C1471 1.433 . S
C1473 N1476 1.384 . S
C1474 H1465 0.929 . S
C1474 C1466 1.378 . S
C1474 C1469 1.350 . S
C1475 H1462 0.929 . S
C1475 C1467 1.433 . S
C1475 N1477 1.384 . S
N1476 C1472 1.427 . S
N1476 C1473 1.384 . S
N1477 C1469 1.427 . S
N1477 C1475 1.384 . S
H1478 C1484 0.930 . S
H1479 C1488 0.930 . S
H1480 C1493 0.929 . S
H1481 C1491 0.929 . S
H1482 C1486 0.929 . S
H1483 C1492 0.929 . S
C1484 H1478 0.930 . S
C1484 C1485 1.367 . S
C1484 C1492 1.378 . S
C1485 C1484 1.367 . S
C1485 C1493 1.433 . S
C1486 H1482 0.929 . S
C1486 C1488 1.378 . S
C1486 C1490 1.350 . S
C1487 C1490 1.463 . S
C1487 C1492 1.350 . S
C1487 N1495 1.427 . S
C1488 H1479 0.930 . S
C1488 C1486 1.378 . S
C1488 C1489 1.367 . S
C1489 C1488 1.367 . S
C1489 C1491 1.433 . S
C1490 C1486 1.350 . S
C1490 C1487 1.463 . S
C1490 N1494 1.427 . S
C1491 H1481 0.929 . S
C1491 C1489 1.433 . S
C1491 N1494 1.384 . S
C1492 H1483 0.929 . S
C1492 C1484 1.378 . S
C1492 C1487 1.350 . S
C1493 H1480 0.929 . S
C1493 C1485 1.433 . S
C1493 N1495 1.384 . S
N1494 C1490 1.427 . S
N1494 C1491 1.384 . S
N1495 C1487 1.427 . S
N1495 C1493 1.384 . S
H1496 C1502 0.930 . S
H1497 C1506 0.930 . S
H1498 C1511 0.929 . S
H1499 C1509 0.929 . S
H1500 C1504 0.929 . S
H1501 C1510 0.929 . S
C1502 H1496 0.930 . S
C1502 C1503 1.367 . S
C1502 C1510 1.378 . S
C1503 C1502 1.367 . S
C1503 C1511 1.433 . S
C1504 H1500 0.929 . S
C1504 C1506 1.378 . S
C1504 C1508 1.350 . S
C1505 C1508 1.463 . S
C1505 C1510 1.350 . S
C1505 N1513 1.427 . S
C1506 H1497 0.930 . S
C1506 C1504 1.378 . S
C1506 C1507 1.367 . S
C1507 C1506 1.367 . S
C1507 C1509 1.433 . S
C1508 C1504 1.350 . S
C1508 C1505 1.463 . S
C1508 N1512 1.427 . S
C1509 H1499 0.929 . S
C1509 C1507 1.433 . S
C1509 N1512 1.384 . S
C1510 H1501 0.929 . S
C1510 C1502 1.378 . S
C1510 C1505 1.350 . S
C1511 H1498 0.929 . S
C1511 C1503 1.433 . S
C1511 N1513 1.384 . S
N1512 C1508 1.427 . S
N1512 C1509 1.384 . S
N1513 C1505 1.427 . S
N1513 C1511 1.384 . S
H1514 C1520 0.930 . S
H1515 C1524 0.930 . S
H1516 C1529 0.929 . S
H1517 C1527 0.929 . S
H1518 C1522 0.929 . S
H1519 C1528 0.929 . S
C1520 H1514 0.930 . S
C1520 C1521 1.367 . S
C1520 C1528 1.378 . S
C1521 C1520 1.367 . S
C1521 C1529 1.433 . S
C1522 H1518 0.929 . S
C1522 C1524 1.378 . S
C1522 C1526 1.350 . S
C1523 C1526 1.463 . S
C1523 C1528 1.350 . S
C1523 N1531 1.427 . S
C1524 H1515 0.930 . S
C1524 C1522 1.378 . S
C1524 C1525 1.367 . S
C1525 C1524 1.367 . S
C1525 C1527 1.433 . S
C1526 C1522 1.350 . S
C1526 C1523 1.463 . S
C1526 N1530 1.427 . S
C1527 H1517 0.929 . S
C1527 C1525 1.433 . S
C1527 N1530 1.384 . S
C1528 H1519 0.929 . S
C1528 C1520 1.378 . S
C1528 C1523 1.350 . S
C1529 H1516 0.929 . S
C1529 C1521 1.433 . S
C1529 N1531 1.384 . S
N1530 C1526 1.427 . S
N1530 C1527 1.384 . S
N1531 C1523 1.427 . S
N1531 C1529 1.384 . S
H1532 C1538 0.930 . S
H1533 C1542 0.930 . S
H1534 C1547 0.929 . S
H1535 C1545 0.929 . S
H1536 C1540 0.929 . S
H1537 C1546 0.929 . S
C1538 H1532 0.930 . S
C1538 C1539 1.367 . S
C1538 C1546 1.378 . S
C1539 C1538 1.367 . S
C1539 C1547 1.433 . S
C1540 H1536 0.929 . S
C1540 C1542 1.378 . S
C1540 C1544 1.350 . S
C1541 C1544 1.463 . S
C1541 C1546 1.350 . S
C1541 N1549 1.427 . S
C1542 H1533 0.930 . S
C1542 C1540 1.378 . S
C1542 C1543 1.367 . S
C1543 C1542 1.367 . S
C1543 C1545 1.433 . S
C1544 C1540 1.350 . S
C1544 C1541 1.463 . S
C1544 N1548 1.427 . S
C1545 H1535 0.929 . S
C1545 C1543 1.433 . S
C1545 N1548 1.384 . S
C1546 H1537 0.929 . S
C1546 C1538 1.378 . S
C1546 C1541 1.350 . S
C1547 H1534 0.929 . S
C1547 C1539 1.433 . S
C1547 N1549 1.384 . S
N1548 C1544 1.427 . S
N1548 C1545 1.384 . S
N1549 C1541 1.427 . S
N1549 C1547 1.384 . S
H1550 C1556 0.930 . S
H1551 C1560 0.930 . S
H1552 C1565 0.929 . S
H1553 C1563 0.929 . S
H1554 C1558 0.929 . S
H1555 C1564 0.929 . S
C1556 H1550 0.930 . S
C1556 C1557 1.367 . S
C1556 C1564 1.378 . S
C1557 C1556 1.367 . S
C1557 C1565 1.433 . S
C1558 H1554 0.929 . S
C1558 C1560 1.378 . S
C1558 C1562 1.350 . S
C1559 C1562 1.463 . S
C1559 C1564 1.350 . S
C1559 N1567 1.427 . S
C1560 H1551 0.930 . S
C1560 C1558 1.378 . S
C1560 C1561 1.367 . S
C1561 C1560 1.367 . S
C1561 C1563 1.433 . S
C1562 C1558 1.350 . S
C1562 C1559 1.463 . S
C1562 N1566 1.427 . S
C1563 H1553 0.929 . S
C1563 C1561 1.433 . S
C1563 N1566 1.384 . S
C1564 H1555 0.929 . S
C1564 C1556 1.378 . S
C1564 C1559 1.350 . S
C1565 H1552 0.929 . S
C1565 C1557 1.433 . S
C1565 N1567 1.384 . S
N1566 C1562 1.427 . S
N1566 C1563 1.384 . S
N1567 C1559 1.427 . S
N1567 C1565 1.384 . S
H1568 C1574 0.930 . S
H1569 C1578 0.930 . S
H1570 C1583 0.929 . S
H1571 C1581 0.929 . S
H1572 C1576 0.929 . S
H1573 C1582 0.929 . S
C1574 H1568 0.930 . S
C1574 C1575 1.367 . S
C1574 C1582 1.378 . S
C1575 C1574 1.367 . S
C1575 C1583 1.433 . S
C1576 H1572 0.929 . S
C1576 C1578 1.378 . S
C1576 C1580 1.350 . S
C1577 C1580 1.463 . S
C1577 C1582 1.350 . S
C1577 N1585 1.427 . S
C1578 H1569 0.930 . S
C1578 C1576 1.378 . S
C1578 C1579 1.367 . S
C1579 C1578 1.367 . S
C1579 C1581 1.433 . S
C1580 C1576 1.350 . S
C1580 C1577 1.463 . S
C1580 N1584 1.427 . S
C1581 H1571 0.929 . S
C1581 C1579 1.433 . S
C1581 N1584 1.384 . S
C1582 H1573 0.929 . S
C1582 C1574 1.378 . S
C1582 C1577 1.350 . S
C1583 H1570 0.929 . S
C1583 C1575 1.433 . S
C1583 N1585 1.384 . S
N1584 C1580 1.427 . S
N1584 C1581 1.384 . S
N1585 C1577 1.427 . S
N1585 C1583 1.384 . S
H1586 C1592 0.930 . S
H1587 C1596 0.930 . S
H1588 C1601 0.929 . S
H1589 C1599 0.929 . S
H1590 C1594 0.929 . S
H1591 C1600 0.929 . S
C1592 H1586 0.930 . S
C1592 C1593 1.367 . S
C1592 C1600 1.378 . S
C1593 C1592 1.367 . S
C1593 C1601 1.433 . S
C1594 H1590 0.929 . S
C1594 C1596 1.378 . S
C1594 C1598 1.350 . S
C1595 C1598 1.463 . S
C1595 C1600 1.350 . S
C1595 N1603 1.427 . S
C1596 H1587 0.930 . S
C1596 C1594 1.378 . S
C1596 C1597 1.367 . S
C1597 C1596 1.367 . S
C1597 C1599 1.433 . S
C1598 C1594 1.350 . S
C1598 C1595 1.463 . S
C1598 N1602 1.427 . S
C1599 H1589 0.929 . S
C1599 C1597 1.433 . S
C1599 N1602 1.384 . S
C1600 H1591 0.929 . S
C1600 C1592 1.378 . S
C1600 C1595 1.350 . S
C1601 H1588 0.929 . S
C1601 C1593 1.433 . S
C1601 N1603 1.384 . S
N1602 C1598 1.427 . S
N1602 C1599 1.384 . S
N1603 C1595 1.427 . S
N1603 C1601 1.384 . S
H1604 C1610 0.930 . S
H1605 C1614 0.930 . S
H1606 C1619 0.929 . S
H1607 C1617 0.929 . S
H1608 C1612 0.929 . S
H1609 C1618 0.929 . S
C1610 H1604 0.930 . S
C1610 C1611 1.367 . S
C1610 C1618 1.378 . S
C1611 C1610 1.367 . S
C1611 C1619 1.433 . S
C1612 H1608 0.929 . S
C1612 C1614 1.378 . S
C1612 C1616 1.350 . S
C1613 C1616 1.463 . S
C1613 C1618 1.350 . S
C1613 N1621 1.427 . S
C1614 H1605 0.930 . S
C1614 C1612 1.378 . S
C1614 C1615 1.367 . S
C1615 C1614 1.367 . S
C1615 C1617 1.433 . S
C1616 C1612 1.350 . S
C1616 C1613 1.463 . S
C1616 N1620 1.427 . S
C1617 H1607 0.929 . S
C1617 C1615 1.433 . S
C1617 N1620 1.384 . S
C1618 H1609 0.929 . S
C1618 C1610 1.378 . S
C1618 C1613 1.350 . S
C1619 H1606 0.929 . S
C1619 C1611 1.433 . S
C1619 N1621 1.384 . S
N1620 C1616 1.427 . S
N1620 C1617 1.384 . S
N1621 C1613 1.427 . S
N1621 C1619 1.384 . S
H1622 C1628 0.930 . S
H1623 C1632 0.930 . S
H1624 C1637 0.929 . S
H1625 C1635 0.929 . S
H1626 C1630 0.929 . S
H1627 C1636 0.929 . S
C1628 H1622 0.930 . S
C1628 C1629 1.367 . S
C1628 C1636 1.378 . S
C1629 C1628 1.367 . S
C1629 C1637 1.433 . S
C1630 H1626 0.929 . S
C1630 C1632 1.378 . S
C1630 C1634 1.350 . S
C1631 C1634 1.463 . S
C1631 C1636 1.350 . S
C1631 N1639 1.427 . S
C1632 H1623 0.930 . S
C1632 C1630 1.378 . S
C1632 C1633 1.367 . S
C1633 C1632 1.367 . S
C1633 C1635 1.433 . S
C1634 C1630 1.350 . S
C1634 C1631 1.463 . S
C1634 N1638 1.427 . S
C1635 H1625 0.929 . S
C1635 C1633 1.433 . S
C1635 N1638 1.384 . S
C1636 H1627 0.929 . S
C1636 C1628 1.378 . S
C1636 C1631 1.350 . S
C1637 H1624 0.929 . S
C1637 C1629 1.433 . S
C1637 N1639 1.384 . S
N1638 C1634 1.427 . S
N1638 C1635 1.384 . S
N1639 C1631 1.427 . S
N1639 C1637 1.384 . S
H1640 C1646 0.930 . S
H1641 C1650 0.930 . S
H1642 C1655 0.929 . S
H1643 C1653 0.929 . S
H1644 C1648 0.929 . S
H1645 C1654 0.929 . S
C1646 H1640 0.930 . S
C1646 C1647 1.367 . S
C1646 C1654 1.378 . S
C1647 C1646 1.367 . S
C1647 C1655 1.433 . S
C1648 H1644 0.929 . S
C1648 C1650 1.378 . S
C1648 C1652 1.350 . S
C1649 C1652 1.463 . S
C1649 C1654 1.350 . S
C1649 N1657 1.427 . S
C1650 H1641 0.930 . S
C1650 C1648 1.378 . S
C1650 C1651 1.367 . S
C1651 C1650 1.367 . S
C1651 C1653 1.433 . S
C1652 C1648 1.350 . S
C1652 C1649 1.463 . S
C1652 N1656 1.427 . S
C1653 H1643 0.929 . S
C1653 C1651 1.433 . S
C1653 N1656 1.384 . S
C1654 H1645 0.929 . S
C1654 C1646 1.378 . S
C1654 C1649 1.350 . S
C1655 H1642 0.929 . S
C1655 C1647 1.433 . S
C1655 N1657 1.384 . S
N1656 C1652 1.427 . S
N1656 C1653 1.384 . S
N1657 C1649 1.427 . S
N1657 C1655 1.384 . S
H1658 C1664 0.930 . S
H1659 C1668 0.930 . S
H1660 C1673 0.929 . S
H1661 C1671 0.929 . S
H1662 C1666 0.929 . S
H1663 C1672 0.929 . S
C1664 H1658 0.930 . S
C1664 C1665 1.367 . S
C1664 C1672 1.378 . S
C1665 C1664 1.367 . S
C1665 C1673 1.433 . S
C1666 H1662 0.929 . S
C1666 C1668 1.378 . S
C1666 C1670 1.350 . S
C1667 C1670 1.463 . S
C1667 C1672 1.350 . S
C1667 N1675 1.427 . S
C1668 H1659 0.930 . S
C1668 C1666 1.378 . S
C1668 C1669 1.367 . S
C1669 C1668 1.367 . S
C1669 C1671 1.433 . S
C1670 C1666 1.350 . S
C1670 C1667 1.463 . S
C1670 N1674 1.427 . S
C1671 H1661 0.929 . S
C1671 C1669 1.433 . S
C1671 N1674 1.384 . S
C1672 H1663 0.929 . S
C1672 C1664 1.378 . S
C1672 C1667 1.350 . S
C1673 H1660 0.929 . S
C1673 C1665 1.433 . S
C1673 N1675 1.384 . S
N1674 C1670 1.427 . S
N1674 C1671 1.384 . S
N1675 C1667 1.427 . S
N1675 C1673 1.384 . S
H1676 C1682 0.930 . S
H1677 C1686 0.930 . S
H1678 C1691 0.929 . S
H1679 C1689 0.929 . S
H1680 C1684 0.929 . S
H1681 C1690 0.929 . S
C1682 H1676 0.930 . S
C1682 C1683 1.367 . S
C1682 C1690 1.378 . S
C1683 C1682 1.367 . S
C1683 C1691 1.433 . S
C1684 H1680 0.929 . S
C1684 C1686 1.378 . S
C1684 C1688 1.350 . S
C1685 C1688 1.463 . S
C1685 C1690 1.350 . S
C1685 N1693 1.427 . S
C1686 H1677 0.930 . S
C1686 C1684 1.378 . S
C1686 C1687 1.367 . S
C1687 C1686 1.367 . S
C1687 C1689 1.433 . S
C1688 C1684 1.350 . S
C1688 C1685 1.463 . S
C1688 N1692 1.427 . S
C1689 H1679 0.929 . S
C1689 C1687 1.433 . S
C1689 N1692 1.384 . S
C1690 H1681 0.929 . S
C1690 C1682 1.378 . S
C1690 C1685 1.350 . S
C1691 H1678 0.929 . S
C1691 C1683 1.433 . S
C1691 N1693 1.384 . S
N1692 C1688 1.427 . S
N1692 C1689 1.384 . S
N1693 C1685 1.427 . S
N1693 C1691 1.384 . S
H1694 C1700 0.930 . S
H1695 C1704 0.930 . S
H1696 C1709 0.929 . S
H1697 C1707 0.929 . S
H1698 C1702 0.929 . S
H1699 C1708 0.929 . S
C1700 H1694 0.930 . S
C1700 C1701 1.367 . S
C1700 C1708 1.378 . S
C1701 C1700 1.367 . S
C1701 C1709 1.433 . S
C1702 H1698 0.929 . S
C1702 C1704 1.378 . S
C1702 C1706 1.350 . S
C1703 C1706 1.463 . S
C1703 C1708 1.350 . S
C1703 N1711 1.427 . S
C1704 H1695 0.930 . S
C1704 C1702 1.378 . S
C1704 C1705 1.367 . S
C1705 C1704 1.367 . S
C1705 C1707 1.433 . S
C1706 C1702 1.350 . S
C1706 C1703 1.463 . S
C1706 N1710 1.427 . S
C1707 H1697 0.929 . S
C1707 C1705 1.433 . S
C1707 N1710 1.384 . S
C1708 H1699 0.929 . S
C1708 C1700 1.378 . S
C1708 C1703 1.350 . S
C1709 H1696 0.929 . S
C1709 C1701 1.433 . S
C1709 N1711 1.384 . S
N1710 C1706 1.427 . S
N1710 C1707 1.384 . S
N1711 C1703 1.427 . S
N1711 C1709 1.384 . S
H1712 C1718 0.930 . S
H1713 C1722 0.930 . S
H1714 C1727 0.929 . S
H1715 C1725 0.929 . S
H1716 C1720 0.929 . S
H1717 C1726 0.929 . S
C1718 H1712 0.930 . S
C1718 C1719 1.367 . S
C1718 C1726 1.378 . S
C1719 C1718 1.367 . S
C1719 C1727 1.433 . S
C1720 H1716 0.929 . S
C1720 C1722 1.378 . S
C1720 C1724 1.350 . S
C1721 C1724 1.463 . S
C1721 C1726 1.350 . S
C1721 N1729 1.427 . S
C1722 H1713 0.930 . S
C1722 C1720 1.378 . S
C1722 C1723 1.367 . S
C1723 C1722 1.367 . S
C1723 C1725 1.433 . S
C1724 C1720 1.350 . S
C1724 C1721 1.463 . S
C1724 N1728 1.427 . S
C1725 H1715 0.929 . S
C1725 C1723 1.433 . S
C1725 N1728 1.384 . S
C1726 H1717 0.929 . S
C1726 C1718 1.378 . S
C1726 C1721 1.350 . S
C1727 H1714 0.929 . S
C1727 C1719 1.433 . S
C1727 N1729 1.384 . S
N1728 C1724 1.427 . S
N1728 C1725 1.384 . S
N1729 C1721 1.427 . S
N1729 C1727 1.384 . S
H1730 C1736 0.930 . S
H1731 C1740 0.930 . S
H1732 C1745 0.929 . S
H1733 C1743 0.929 . S
H1734 C1738 0.929 . S
H1735 C1744 0.929 . S
C1736 H1730 0.930 . S
C1736 C1737 1.367 . S
C1736 C1744 1.378 . S
C1737 C1736 1.367 . S
C1737 C1745 1.433 . S
C1738 H1734 0.929 . S
C1738 C1740 1.378 . S
C1738 C1742 1.350 . S
C1739 C1742 1.463 . S
C1739 C1744 1.350 . S
C1739 N1747 1.427 . S
C1740 H1731 0.930 . S
C1740 C1738 1.378 . S
C1740 C1741 1.367 . S
C1741 C1740 1.367 . S
C1741 C1743 1.433 . S
C1742 C1738 1.350 . S
C1742 C1739 1.463 . S
C1742 N1746 1.427 . S
C1743 H1733 0.929 . S
C1743 C1741 1.433 . S
C1743 N1746 1.384 . S
C1744 H1735 0.929 . S
C1744 C1736 1.378 . S
C1744 C1739 1.350 . S
C1745 H1732 0.929 . S
C1745 C1737 1.433 . S
C1745 N1747 1.384 . S
N1746 C1742 1.427 . S
N1746 C1743 1.384 . S
N1747 C1739 1.427 . S
N1747 C1745 1.384 . S
H1748 C1754 0.930 . S
H1749 C1758 0.930 . S
H1750 C1763 0.929 . S
H1751 C1761 0.929 . S
H1752 C1756 0.929 . S
H1753 C1762 0.929 . S
C1754 H1748 0.930 . S
C1754 C1755 1.367 . S
C1754 C1762 1.378 . S
C1755 C1754 1.367 . S
C1755 C1763 1.433 . S
C1756 H1752 0.929 . S
C1756 C1758 1.378 . S
C1756 C1760 1.350 . S
C1757 C1760 1.463 . S
C1757 C1762 1.350 . S
C1757 N1765 1.427 . S
C1758 H1749 0.930 . S
C1758 C1756 1.378 . S
C1758 C1759 1.367 . S
C1759 C1758 1.367 . S
C1759 C1761 1.433 . S
C1760 C1756 1.350 . S
C1760 C1757 1.463 . S
C1760 N1764 1.427 . S
C1761 H1751 0.929 . S
C1761 C1759 1.433 . S
C1761 N1764 1.384 . S
C1762 H1753 0.929 . S
C1762 C1754 1.378 . S
C1762 C1757 1.350 . S
C1763 H1750 0.929 . S
C1763 C1755 1.433 . S
C1763 N1765 1.384 . S
N1764 C1760 1.427 . S
N1764 C1761 1.384 . S
N1765 C1757 1.427 . S
N1765 C1763 1.384 . S
H1766 C1772 0.930 . S
H1767 C1776 0.930 . S
H1768 C1781 0.929 . S
H1769 C1779 0.929 . S
H1770 C1774 0.929 . S
H1771 C1780 0.929 . S
C1772 H1766 0.930 . S
C1772 C1773 1.367 . S
C1772 C1780 1.378 . S
C1773 C1772 1.367 . S
C1773 C1781 1.433 . S
C1774 H1770 0.929 . S
C1774 C1776 1.378 . S
C1774 C1778 1.350 . S
C1775 C1778 1.463 . S
C1775 C1780 1.350 . S
C1775 N1783 1.427 . S
C1776 H1767 0.930 . S
C1776 C1774 1.378 . S
C1776 C1777 1.367 . S
C1777 C1776 1.367 . S
C1777 C1779 1.433 . S
C1778 C1774 1.350 . S
C1778 C1775 1.463 . S
C1778 N1782 1.427 . S
C1779 H1769 0.929 . S
C1779 C1777 1.433 . S
C1779 N1782 1.384 . S
C1780 H1771 0.929 . S
C1780 C1772 1.378 . S
C1780 C1775 1.350 . S
C1781 H1768 0.929 . S
C1781 C1773 1.433 . S
C1781 N1783 1.384 . S
N1782 C1778 1.427 . S
N1782 C1779 1.384 . S
N1783 C1775 1.427 . S
N1783 C1781 1.384 . S
H1784 C1790 0.930 . S
H1785 C1794 0.930 . S
H1786 C1799 0.929 . S
H1787 C1797 0.929 . S
H1788 C1792 0.929 . S
H1789 C1798 0.929 . S
C1790 H1784 0.930 . S
C1790 C1791 1.367 . S
C1790 C1798 1.378 . S
C1791 C1790 1.367 . S
C1791 C1799 1.433 . S
C1792 H1788 0.929 . S
C1792 C1794 1.378 . S
C1792 C1796 1.350 . S
C1793 C1796 1.463 . S
C1793 C1798 1.350 . S
C1793 N1801 1.427 . S
C1794 H1785 0.930 . S
C1794 C1792 1.378 . S
C1794 C1795 1.367 . S
C1795 C1794 1.367 . S
C1795 C1797 1.433 . S
C1796 C1792 1.350 . S
C1796 C1793 1.463 . S
C1796 N1800 1.427 . S
C1797 H1787 0.929 . S
C1797 C1795 1.433 . S
C1797 N1800 1.384 . S
C1798 H1789 0.929 . S
C1798 C1790 1.378 . S
C1798 C1793 1.350 . S
C1799 H1786 0.929 . S
C1799 C1791 1.433 . S
C1799 N1801 1.384 . S
N1800 C1796 1.427 . S
N1800 C1797 1.384 . S
N1801 C1793 1.427 . S
N1801 C1799 1.384 . S
H1802 C1808 0.930 . S
H1803 C1812 0.930 . S
H1804 C1817 0.929 . S
H1805 C1815 0.929 . S
H1806 C1810 0.929 . S
H1807 C1816 0.929 . S
C1808 H1802 0.930 . S
C1808 C1809 1.367 . S
C1808 C1816 1.378 . S
C1809 C1808 1.367 . S
C1809 C1817 1.433 . S
C1810 H1806 0.929 . S
C1810 C1812 1.378 . S
C1810 C1814 1.350 . S
C1811 C1814 1.463 . S
C1811 C1816 1.350 . S
C1811 N1819 1.427 . S
C1812 H1803 0.930 . S
C1812 C1810 1.378 . S
C1812 C1813 1.367 . S
C1813 C1812 1.367 . S
C1813 C1815 1.433 . S
C1814 C1810 1.350 . S
C1814 C1811 1.463 . S
C1814 N1818 1.427 . S
C1815 H1805 0.929 . S
C1815 C1813 1.433 . S
C1815 N1818 1.384 . S
C1816 H1807 0.929 . S
C1816 C1808 1.378 . S
C1816 C1811 1.350 . S
C1817 H1804 0.929 . S
C1817 C1809 1.433 . S
C1817 N1819 1.384 . S
N1818 C1814 1.427 . S
N1818 C1815 1.384 . S
N1819 C1811 1.427 . S
N1819 C1817 1.384 . S
H1820 C1826 0.930 . S
H1821 C1830 0.930 . S
H1822 C1835 0.929 . S
H1823 C1833 0.929 . S
H1824 C1828 0.929 . S
H1825 C1834 0.929 . S
C1826 H1820 0.930 . S
C1826 C1827 1.367 . S
C1826 C1834 1.378 . S
C1827 C1826 1.367 . S
C1827 C1835 1.433 . S
C1828 H1824 0.929 . S
C1828 C1830 1.378 . S
C1828 C1832 1.350 . S
C1829 C1832 1.463 . S
C1829 C1834 1.350 . S
C1829 N1837 1.427 . S
C1830 H1821 0.930 . S
C1830 C1828 1.378 . S
C1830 C1831 1.367 . S
C1831 C1830 1.367 . S
C1831 C1833 1.433 . S
C1832 C1828 1.350 . S
C1832 C1829 1.463 . S
C1832 N1836 1.427 . S
C1833 H1823 0.929 . S
C1833 C1831 1.433 . S
C1833 N1836 1.384 . S
C1834 H1825 0.929 . S
C1834 C1826 1.378 . S
C1834 C1829 1.350 . S
C1835 H1822 0.929 . S
C1835 C1827 1.433 . S
C1835 N1837 1.384 . S
N1836 C1832 1.427 . S
N1836 C1833 1.384 . S
N1837 C1829 1.427 . S
N1837 C1835 1.384 . S
H1838 C1844 0.930 . S
H1839 C1848 0.930 . S
H1840 C1853 0.929 . S
H1841 C1851 0.929 . S
H1842 C1846 0.929 . S
H1843 C1852 0.929 . S
C1844 H1838 0.930 . S
C1844 C1845 1.367 . S
C1844 C1852 1.378 . S
C1845 C1844 1.367 . S
C1845 C1853 1.433 . S
C1846 H1842 0.929 . S
C1846 C1848 1.378 . S
C1846 C1850 1.350 . S
C1847 C1850 1.463 . S
C1847 C1852 1.350 . S
C1847 N1855 1.427 . S
C1848 H1839 0.930 . S
C1848 C1846 1.378 . S
C1848 C1849 1.367 . S
C1849 C1848 1.367 . S
C1849 C1851 1.433 . S
C1850 C1846 1.350 . S
C1850 C1847 1.463 . S
C1850 N1854 1.427 . S
C1851 H1841 0.929 . S
C1851 C1849 1.433 . S
C1851 N1854 1.384 . S
C1852 H1843 0.929 . S
C1852 C1844 1.378 . S
C1852 C1847 1.350 . S
C1853 H1840 0.929 . S
C1853 C1845 1.433 . S
C1853 N1855 1.384 . S
N1854 C1850 1.427 . S
N1854 C1851 1.384 . S
N1855 C1847 1.427 . S
N1855 C1853 1.384 . S
H1856 C1862 0.930 . S
H1857 C1866 0.930 . S
H1858 C1871 0.929 . S
H1859 C1869 0.929 . S
H1860 C1864 0.929 . S
H1861 C1870 0.929 . S
C1862 H1856 0.930 . S
C1862 C1863 1.367 . S
C1862 C1870 1.378 . S
C1863 C1862 1.367 . S
C1863 C1871 1.433 . S
C1864 H1860 0.929 . S
C1864 C1866 1.378 . S
C1864 C1868 1.350 . S
C1865 C1868 1.463 1_455 S
C1865 C1870 1.350 . S
C1865 N1873 1.427 . S
C1866 H1857 0.930 . S
C1866 C1864 1.378 . S
C1866 C1867 1.367 . S
C1867 C1866 1.367 . S
C1867 C1869 1.433 . S
C1868 C1864 1.350 . S
C1868 C1865 1.463 1_655 S
C1868 N1872 1.427 . S
C1869 H1859 0.929 . S
C1869 C1867 1.433 . S
C1869 N1872 1.384 . S
C1870 H1861 0.929 . S
C1870 C1862 1.378 . S
C1870 C1865 1.350 . S
C1871 H1858 0.929 . S
C1871 C1863 1.433 . S
C1871 N1873 1.384 . S
N1872 C1868 1.427 . S
N1872 C1869 1.384 . S
N1873 C1865 1.427 . S
N1873 C1871 1.384 . S
H1874 C1880 0.930 . S
H1875 C1884 0.930 . S
H1876 C1889 0.927 1_455 S
H1877 C1887 0.927 1_655 S
H1878 C1882 0.929 . S
H1879 C1888 0.929 . S
C1880 H1874 0.930 . S
C1880 C1881 1.367 . S
C1880 C1888 1.378 . S
C1881 C1880 1.367 . S
C1881 C1889 1.439 . S
C1882 H1878 0.929 . S
C1882 C1884 1.378 . S
C1882 C1886 1.350 . S
C1883 C1886 1.463 1_655 S
C1883 C1888 1.350 . S
C1883 N1891 1.427 1_655 S
C1884 H1875 0.930 . S
C1884 C1882 1.378 . S
C1884 C1885 1.367 . S
C1885 C1884 1.367 . S
C1885 C1887 1.439 . S
C1886 C1882 1.350 . S
C1886 C1883 1.463 1_455 S
C1886 N1890 1.427 1_455 S
C1887 H1877 0.927 1_455 S
C1887 C1885 1.439 . S
C1887 N1890 1.382 1_455 S
C1888 H1879 0.929 . S
C1888 C1880 1.378 . S
C1888 C1883 1.350 . S
C1889 H1876 0.927 1_655 S
C1889 C1881 1.439 . S
C1889 N1891 1.382 1_655 S
N1890 C1886 1.427 1_655 S
N1890 C1887 1.382 1_655 S
N1891 C1883 1.427 1_455 S
N1891 C1889 1.382 1_455 S
H1892 C1898 0.930 . S
H1893 C1902 0.930 . S
H1894 C1907 0.929 . S
H1895 C1905 0.929 . S
H1896 C1900 0.929 . S
H1897 C1906 0.929 . S
C1898 H1892 0.930 . S
C1898 C1899 1.367 . S
C1898 C1906 1.378 . S
C1899 C1898 1.367 . S
C1899 C1907 1.433 . S
C1900 H1896 0.929 . S
C1900 C1902 1.378 . S
C1900 C1904 1.350 . S
C1901 C1904 1.463 . S
C1901 C1906 1.350 . S
C1901 N1909 1.427 . S
C1902 H1893 0.930 . S
C1902 C1900 1.378 . S
C1902 C1903 1.367 . S
C1903 C1902 1.367 . S
C1903 C1905 1.433 . S
C1904 C1900 1.350 . S
C1904 C1901 1.463 . S
C1904 N1908 1.427 . S
C1905 H1895 0.929 . S
C1905 C1903 1.433 . S
C1905 N1908 1.384 . S
C1906 H1897 0.929 . S
C1906 C1898 1.378 . S
C1906 C1901 1.350 . S
C1907 H1894 0.929 . S
C1907 C1899 1.433 . S
C1907 N1909 1.384 . S
N1908 C1904 1.427 . S
N1908 C1905 1.384 . S
N1909 C1901 1.427 . S
N1909 C1907 1.384 . S
H1910 C1916 0.930 . S
H1911 C1920 0.930 . S
H1912 C1925 0.929 . S
H1913 C1923 0.929 . S
H1914 C1918 0.929 . S
H1915 C1924 0.929 . S
C1916 H1910 0.930 . S
C1916 C1917 1.367 . S
C1916 C1924 1.378 . S
C1917 C1916 1.367 . S
C1917 C1925 1.433 . S
C1918 H1914 0.929 . S
C1918 C1920 1.378 . S
C1918 C1922 1.350 . S
C1919 C1922 1.463 . S
C1919 C1924 1.350 . S
C1919 N1927 1.427 . S
C1920 H1911 0.930 . S
C1920 C1918 1.378 . S
C1920 C1921 1.367 . S
C1921 C1920 1.367 . S
C1921 C1923 1.433 . S
C1922 C1918 1.350 . S
C1922 C1919 1.463 . S
C1922 N1926 1.427 . S
C1923 H1913 0.929 . S
C1923 C1921 1.433 . S
C1923 N1926 1.384 . S
C1924 H1915 0.929 . S
C1924 C1916 1.378 . S
C1924 C1919 1.350 . S
C1925 H1912 0.929 . S
C1925 C1917 1.433 . S
C1925 N1927 1.384 . S
N1926 C1922 1.427 . S
N1926 C1923 1.384 . S
N1927 C1919 1.427 . S
N1927 C1925 1.384 . S
H1928 C1934 0.930 . S
H1929 C1938 0.930 . S
H1930 C1943 0.929 . S
H1931 C1941 0.929 . S
H1932 C1936 0.929 . S
H1933 C1942 0.929 . S
C1934 H1928 0.930 . S
C1934 C1935 1.367 . S
C1934 C1942 1.378 . S
C1935 C1934 1.367 . S
C1935 C1943 1.433 . S
C1936 H1932 0.929 . S
C1936 C1938 1.378 . S
C1936 C1940 1.350 . S
C1937 C1940 1.463 1_655 S
C1937 C1942 1.350 . S
C1937 N1945 1.427 . S
C1938 H1929 0.930 . S
C1938 C1936 1.378 . S
C1938 C1939 1.367 . S
C1939 C1938 1.367 . S
C1939 C1941 1.433 . S
C1940 C1936 1.350 . S
C1940 C1937 1.463 1_455 S
C1940 N1944 1.427 . S
C1941 H1931 0.929 . S
C1941 C1939 1.433 . S
C1941 N1944 1.384 . S
C1942 H1933 0.929 . S
C1942 C1934 1.378 . S
C1942 C1937 1.350 . S
C1943 H1930 0.929 . S
C1943 C1935 1.433 . S
C1943 N1945 1.384 . S
N1944 C1940 1.427 . S
N1944 C1941 1.384 . S
N1945 C1937 1.427 . S
N1945 C1943 1.384 . S
H1946 C1952 0.930 . S
H1947 C1956 0.930 . S
H1948 C1961 0.929 . S
H1949 C1959 0.929 . S
H1950 C1954 0.929 . S
H1951 C1960 0.929 . S
C1952 H1946 0.930 . S
C1952 C1953 1.367 . S
C1952 C1960 1.378 . S
C1953 C1952 1.367 . S
C1953 C1961 1.433 . S
C1954 H1950 0.929 . S
C1954 C1956 1.378 . S
C1954 C1958 1.350 . S
C1955 C1958 1.463 . S
C1955 C1960 1.350 . S
C1955 N1963 1.427 . S
C1956 H1947 0.930 . S
C1956 C1954 1.378 . S
C1956 C1957 1.367 . S
C1957 C1956 1.367 . S
C1957 C1959 1.433 . S
C1958 C1954 1.350 . S
C1958 C1955 1.463 . S
C1958 N1962 1.427 . S
C1959 H1949 0.929 . S
C1959 C1957 1.433 . S
C1959 N1962 1.384 . S
C1960 H1951 0.929 . S
C1960 C1952 1.378 . S
C1960 C1955 1.350 . S
C1961 H1948 0.929 . S
C1961 C1953 1.433 . S
C1961 N1963 1.384 . S
N1962 C1958 1.427 . S
N1962 C1959 1.384 . S
N1963 C1955 1.427 . S
N1963 C1961 1.384 . S
H1964 C1970 0.930 . S
H1965 C1974 0.930 . S
H1966 C1979 0.929 . S
H1967 C1977 0.929 . S
H1968 C1972 0.929 . S
H1969 C1978 0.929 . S
C1970 H1964 0.930 . S
C1970 C1971 1.367 . S
C1970 C1978 1.378 . S
C1971 C1970 1.367 . S
C1971 C1979 1.433 . S
C1972 H1968 0.929 . S
C1972 C1974 1.378 . S
C1972 C1976 1.350 . S
C1973 C1976 1.463 . S
C1973 C1978 1.350 . S
C1973 N1981 1.427 . S
C1974 H1965 0.930 . S
C1974 C1972 1.378 . S
C1974 C1975 1.367 . S
C1975 C1974 1.367 . S
C1975 C1977 1.433 . S
C1976 C1972 1.350 . S
C1976 C1973 1.463 . S
C1976 N1980 1.427 . S
C1977 H1967 0.929 . S
C1977 C1975 1.433 . S
C1977 N1980 1.384 . S
C1978 H1969 0.929 . S
C1978 C1970 1.378 . S
C1978 C1973 1.350 . S
C1979 H1966 0.929 . S
C1979 C1971 1.433 . S
C1979 N1981 1.384 . S
N1980 C1976 1.427 . S
N1980 C1977 1.384 . S
N1981 C1973 1.427 . S
N1981 C1979 1.384 . S
H1982 C1988 0.930 . S
H1983 C1992 0.930 . S
H1984 C1997 0.929 . S
H1985 C1995 0.929 . S
H1986 C1990 0.929 . S
H1987 C1996 0.929 . S
C1988 H1982 0.930 . S
C1988 C1989 1.367 . S
C1988 C1996 1.378 . S
C1989 C1988 1.367 . S
C1989 C1997 1.433 1_455 S
C1990 H1986 0.929 . S
C1990 C1992 1.378 . S
C1990 C1994 1.350 . S
C1991 C1994 1.463 1_455 S
C1991 C1996 1.350 . S
C1991 N1999 1.427 1_455 S
C1992 H1983 0.930 . S
C1992 C1990 1.378 . S
C1992 C1993 1.367 . S
C1993 C1992 1.367 . S
C1993 C1995 1.433 1_655 S
C1994 C1990 1.350 . S
C1994 C1991 1.463 1_655 S
C1994 N1998 1.427 1_655 S
C1995 H1985 0.929 . S
C1995 C1993 1.433 1_455 S
C1995 N1998 1.384 . S
C1996 H1987 0.929 . S
C1996 C1988 1.378 . S
C1996 C1991 1.350 . S
C1997 H1984 0.929 . S
C1997 C1989 1.433 1_655 S
C1997 N1999 1.384 . S
N1998 C1994 1.427 1_455 S
N1998 C1995 1.384 . S
N1999 C1991 1.427 1_655 S
N1999 C1997 1.384 . S
H2000 C2006 0.930 . S
H2001 C2010 0.930 . S
H2002 C2015 0.929 . S
H2003 C2013 0.929 . S
H2004 C2008 0.929 . S
H2005 C2014 0.929 . S
C2006 H2000 0.930 . S
C2006 C2007 1.367 . S
C2006 C2014 1.378 . S
C2007 C2006 1.367 . S
C2007 C2015 1.433 . S
C2008 H2004 0.929 . S
C2008 C2010 1.378 . S
C2008 C2012 1.350 . S
C2009 C2012 1.463 1_455 S
C2009 C2014 1.350 . S
C2009 N2017 1.427 . S
C2010 H2001 0.930 . S
C2010 C2008 1.378 . S
C2010 C2011 1.367 . S
C2011 C2010 1.367 . S
C2011 C2013 1.433 . S
C2012 C2008 1.350 . S
C2012 C2009 1.463 1_655 S
C2012 N2016 1.427 . S
C2013 H2003 0.929 . S
C2013 C2011 1.433 . S
C2013 N2016 1.384 . S
C2014 H2005 0.929 . S
C2014 C2006 1.378 . S
C2014 C2009 1.350 . S
C2015 H2002 0.929 . S
C2015 C2007 1.433 . S
C2015 N2017 1.384 . S
N2016 C2012 1.427 . S
N2016 C2013 1.384 . S
N2017 C2009 1.427 . S
N2017 C2015 1.384 . S
H2018 C2024 0.930 . S
H2019 C2028 0.930 . S
H2020 C2033 0.929 . S
H2021 C2031 0.929 . S
H2022 C2026 0.929 . S
H2023 C2032 0.929 . S
C2024 H2018 0.930 . S
C2024 C2025 1.367 . S
C2024 C2032 1.378 . S
C2025 C2024 1.367 . S
C2025 C2033 1.433 1_655 S
C2026 H2022 0.929 . S
C2026 C2028 1.378 . S
C2026 C2030 1.350 . S
C2027 C2030 1.463 1_655 S
C2027 C2032 1.350 . S
C2027 N2035 1.427 1_655 S
C2028 H2019 0.930 . S
C2028 C2026 1.378 . S
C2028 C2029 1.367 . S
C2029 C2028 1.367 . S
C2029 C2031 1.433 1_455 S
C2030 C2026 1.350 . S
C2030 C2027 1.463 1_455 S
C2030 N2034 1.427 1_455 S
C2031 H2021 0.929 . S
C2031 C2029 1.433 1_655 S
C2031 N2034 1.384 . S
C2032 H2023 0.929 . S
C2032 C2024 1.378 . S
C2032 C2027 1.350 . S
C2033 H2020 0.929 . S
C2033 C2025 1.433 1_455 S
C2033 N2035 1.384 . S
N2034 C2030 1.427 1_655 S
N2034 C2031 1.384 . S
N2035 C2027 1.427 1_455 S
N2035 C2033 1.384 . S
H2036 C2042 0.930 . S
H2037 C2046 0.930 . S
H2038 C2051 0.929 . S
H2039 C2049 0.929 . S
H2040 C2044 0.929 . S
H2041 C2050 0.929 . S
C2042 H2036 0.930 . S
C2042 C2043 1.367 . S
C2042 C2050 1.378 . S
C2043 C2042 1.367 . S
C2043 C2051 1.433 . S
C2044 H2040 0.929 . S
C2044 C2046 1.378 . S
C2044 C2048 1.350 . S
C2045 C2048 1.463 . S
C2045 C2050 1.350 . S
C2045 N2053 1.427 . S
C2046 H2037 0.930 . S
C2046 C2044 1.378 . S
C2046 C2047 1.367 . S
C2047 C2046 1.367 . S
C2047 C2049 1.433 . S
C2048 C2044 1.350 . S
C2048 C2045 1.463 . S
C2048 N2052 1.427 . S
C2049 H2039 0.929 . S
C2049 C2047 1.433 . S
C2049 N2052 1.384 . S
C2050 H2041 0.929 . S
C2050 C2042 1.378 . S
C2050 C2045 1.350 . S
C2051 H2038 0.929 . S
C2051 C2043 1.433 . S
C2051 N2053 1.384 . S
N2052 C2048 1.427 . S
N2052 C2049 1.384 . S
N2053 C2045 1.427 . S
N2053 C2051 1.384 . S
H2054 C2060 0.930 . S
H2055 C2064 0.930 . S
H2056 C2069 0.929 . S
H2057 C2067 0.929 . S
H2058 C2062 0.929 . S
H2059 C2068 0.929 . S
C2060 H2054 0.930 . S
C2060 C2061 1.367 . S
C2060 C2068 1.378 . S
C2061 C2060 1.367 . S
C2061 C2069 1.433 . S
C2062 H2058 0.929 . S
C2062 C2064 1.378 . S
C2062 C2066 1.350 . S
C2063 C2066 1.463 . S
C2063 C2068 1.350 . S
C2063 N2071 1.427 . S
C2064 H2055 0.930 . S
C2064 C2062 1.378 . S
C2064 C2065 1.367 . S
C2065 C2064 1.367 . S
C2065 C2067 1.433 . S
C2066 C2062 1.350 . S
C2066 C2063 1.463 . S
C2066 N2070 1.427 . S
C2067 H2057 0.929 . S
C2067 C2065 1.433 . S
C2067 N2070 1.384 . S
C2068 H2059 0.929 . S
C2068 C2060 1.378 . S
C2068 C2063 1.350 . S
C2069 H2056 0.929 . S
C2069 C2061 1.433 . S
C2069 N2071 1.384 . S
N2070 C2066 1.427 . S
N2070 C2067 1.384 . S
N2071 C2063 1.427 . S
N2071 C2069 1.384 . S
H2072 C2078 0.930 . S
H2073 C2082 0.930 . S
H2074 C2087 0.929 . S
H2075 C2085 0.929 . S
H2076 C2080 0.929 . S
H2077 C2086 0.929 . S
C2078 H2072 0.930 . S
C2078 C2079 1.367 . S
C2078 C2086 1.378 . S
C2079 C2078 1.367 . S
C2079 C2087 1.433 . S
C2080 H2076 0.929 . S
C2080 C2082 1.378 . S
C2080 C2084 1.350 . S
C2081 C2084 1.463 1_455 S
C2081 C2086 1.350 . S
C2081 N2089 1.427 . S
C2082 H2073 0.930 . S
C2082 C2080 1.378 . S
C2082 C2083 1.367 . S
C2083 C2082 1.367 . S
C2083 C2085 1.433 . S
C2084 C2080 1.350 . S
C2084 C2081 1.463 1_655 S
C2084 N2088 1.427 . S
C2085 H2075 0.929 . S
C2085 C2083 1.433 . S
C2085 N2088 1.384 . S
C2086 H2077 0.929 . S
C2086 C2078 1.378 . S
C2086 C2081 1.350 . S
C2087 H2074 0.929 . S
C2087 C2079 1.433 . S
C2087 N2089 1.384 . S
N2088 C2084 1.427 . S
N2088 C2085 1.384 . S
N2089 C2081 1.427 . S
N2089 C2087 1.384 . S
H2090 C2096 0.930 . S
H2091 C2100 0.930 . S
H2092 C2105 0.929 . S
H2093 C2103 0.929 . S
H2094 C2098 0.929 . S
H2095 C2104 0.929 . S
C2096 H2090 0.930 . S
C2096 C2097 1.367 . S
C2096 C2104 1.378 . S
C2097 C2096 1.367 . S
C2097 C2105 1.433 . S
C2098 H2094 0.929 . S
C2098 C2100 1.378 . S
C2098 C2102 1.350 . S
C2099 C2102 1.463 . S
C2099 C2104 1.350 . S
C2099 N2107 1.427 . S
C2100 H2091 0.930 . S
C2100 C2098 1.378 . S
C2100 C2101 1.367 . S
C2101 C2100 1.367 . S
C2101 C2103 1.433 . S
C2102 C2098 1.350 . S
C2102 C2099 1.463 . S
C2102 N2106 1.427 . S
C2103 H2093 0.929 . S
C2103 C2101 1.433 . S
C2103 N2106 1.384 . S
C2104 H2095 0.929 . S
C2104 C2096 1.378 . S
C2104 C2099 1.350 . S
C2105 H2092 0.929 . S
C2105 C2097 1.433 . S
C2105 N2107 1.384 . S
N2106 C2102 1.427 . S
N2106 C2103 1.384 . S
N2107 C2099 1.427 . S
N2107 C2105 1.384 . S
H2108 C2114 0.930 . S
H2109 C2118 0.930 . S
H2110 C2123 0.929 . S
H2111 C2121 0.929 . S
H2112 C2116 0.929 . S
H2113 C2122 0.929 . S
C2114 H2108 0.930 . S
C2114 C2115 1.367 . S
C2114 C2122 1.378 . S
C2115 C2114 1.367 . S
C2115 C2123 1.433 . S
C2116 H2112 0.929 . S
C2116 C2118 1.378 . S
C2116 C2120 1.350 . S
C2117 C2120 1.463 . S
C2117 C2122 1.350 . S
C2117 N2125 1.427 . S
C2118 H2109 0.930 . S
C2118 C2116 1.378 . S
C2118 C2119 1.367 . S
C2119 C2118 1.367 . S
C2119 C2121 1.433 . S
C2120 C2116 1.350 . S
C2120 C2117 1.463 . S
C2120 N2124 1.427 . S
C2121 H2111 0.929 . S
C2121 C2119 1.433 . S
C2121 N2124 1.384 . S
C2122 H2113 0.929 . S
C2122 C2114 1.378 . S
C2122 C2117 1.350 . S
C2123 H2110 0.929 . S
C2123 C2115 1.433 . S
C2123 N2125 1.384 . S
N2124 C2120 1.427 . S
N2124 C2121 1.384 . S
N2125 C2117 1.427 . S
N2125 C2123 1.384 . S
H2126 C2132 0.930 . S
H2127 C2136 0.930 . S
H2128 C2141 0.929 . S
H2129 C2139 0.929 . S
H2130 C2134 0.929 . S
H2131 C2140 0.929 . S
C2132 H2126 0.930 . S
C2132 C2133 1.367 1_455 S
C2132 C2140 1.378 . S
C2133 C2132 1.367 1_655 S
C2133 C2141 1.433 . S
C2134 H2130 0.929 . S
C2134 C2136 1.378 . S
C2134 C2138 1.350 1_655 S
C2135 C2138 1.463 1_655 S
C2135 C2140 1.350 1_655 S
C2135 N2143 1.427 . S
C2136 H2127 0.930 . S
C2136 C2134 1.378 . S
C2136 C2137 1.367 1_655 S
C2137 C2136 1.367 1_455 S
C2137 C2139 1.433 . S
C2138 C2134 1.350 1_455 S
C2138 C2135 1.463 1_455 S
C2138 N2142 1.427 . S
C2139 H2129 0.929 . S
C2139 C2137 1.433 . S
C2139 N2142 1.384 . S
C2140 H2131 0.929 . S
C2140 C2132 1.378 . S
C2140 C2135 1.350 1_455 S
C2141 H2128 0.929 . S
C2141 C2133 1.433 . S
C2141 N2143 1.384 . S
N2142 C2138 1.427 . S
N2142 C2139 1.384 . S
N2143 C2135 1.427 . S
N2143 C2141 1.384 . S
H2144 C2150 0.930 . S
H2145 C2154 0.930 . S
H2146 C2159 0.929 . S
H2147 C2157 0.929 . S
H2148 C2152 0.929 . S
H2149 C2158 0.929 . S
C2150 H2144 0.930 . S
C2150 C2151 1.367 . S
C2150 C2158 1.378 . S
C2151 C2150 1.367 . S
C2151 C2159 1.433 . S
C2152 H2148 0.929 . S
C2152 C2154 1.378 . S
C2152 C2156 1.350 . S
C2153 C2156 1.463 . S
C2153 C2158 1.350 . S
C2153 N2161 1.427 . S
C2154 H2145 0.930 . S
C2154 C2152 1.378 . S
C2154 C2155 1.367 . S
C2155 C2154 1.367 . S
C2155 C2157 1.433 . S
C2156 C2152 1.350 . S
C2156 C2153 1.463 . S
C2156 N2160 1.427 . S
C2157 H2147 0.929 . S
C2157 C2155 1.433 . S
C2157 N2160 1.384 . S
C2158 H2149 0.929 . S
C2158 C2150 1.378 . S
C2158 C2153 1.350 . S
C2159 H2146 0.929 . S
C2159 C2151 1.433 . S
C2159 N2161 1.384 . S
N2160 C2156 1.427 . S
N2160 C2157 1.384 . S
N2161 C2153 1.427 . S
N2161 C2159 1.384 . S
H2162 C2168 0.930 . S
H2163 C2172 0.930 . S
H2164 C2177 0.929 . S
H2165 C2175 0.929 . S
H2166 C2170 0.929 . S
H2167 C2176 0.929 . S
C2168 H2162 0.930 . S
C2168 C2169 1.367 1_465 S
C2168 C2176 1.378 . S
C2169 C2168 1.367 1_645 S
C2169 C2177 1.433 . S
C2170 H2166 0.929 . S
C2170 C2172 1.378 . S
C2170 C2174 1.331 1_645 S
C2171 C2174 1.461 1_645 S
C2171 C2176 1.331 1_645 S
C2171 N2179 1.450 . S
C2172 H2163 0.930 . S
C2172 C2170 1.378 . S
C2172 C2173 1.367 1_645 S
C2173 C2172 1.367 1_465 S
C2173 C2175 1.433 . S
C2174 C2170 1.331 1_465 S
C2174 C2171 1.461 1_465 S
C2174 N2178 1.450 . S
C2175 H2165 0.929 . S
C2175 C2173 1.433 . S
C2175 N2178 1.384 . S
C2176 H2167 0.929 . S
C2176 C2168 1.378 . S
C2176 C2171 1.331 1_465 S
C2177 H2164 0.929 . S
C2177 C2169 1.433 . S
C2177 N2179 1.384 . S
N2178 C2174 1.450 . S
N2178 C2175 1.384 . S
N2179 C2171 1.450 . S
N2179 C2177 1.384 . S
H2180 C2186 0.930 . S
H2181 C2190 0.930 . S
H2182 C2195 0.929 . S
H2183 C2193 0.929 . S
H2184 C2188 0.929 . S
H2185 C2194 0.929 . S
C2186 H2180 0.930 . S
C2186 C2187 1.367 . S
C2186 C2194 1.378 . S
C2187 C2186 1.367 . S
C2187 C2195 1.433 . S
C2188 H2184 0.929 . S
C2188 C2190 1.378 . S
C2188 C2192 1.350 . S
C2189 C2192 1.463 . S
C2189 C2194 1.350 . S
C2189 N2197 1.427 . S
C2190 H2181 0.930 . S
C2190 C2188 1.378 . S
C2190 C2191 1.367 . S
C2191 C2190 1.367 . S
C2191 C2193 1.433 . S
C2192 C2188 1.350 . S
C2192 C2189 1.463 . S
C2192 N2196 1.427 . S
C2193 H2183 0.929 . S
C2193 C2191 1.433 . S
C2193 N2196 1.384 . S
C2194 H2185 0.929 . S
C2194 C2186 1.378 . S
C2194 C2189 1.350 . S
C2195 H2182 0.929 . S
C2195 C2187 1.433 . S
C2195 N2197 1.384 . S
N2196 C2192 1.427 . S
N2196 C2193 1.384 . S
N2197 C2189 1.427 . S
N2197 C2195 1.384 . S
H2198 C2204 0.930 . S
H2199 C2208 0.930 . S
H2200 C2213 0.929 . S
H2201 C2211 0.929 . S
H2202 C2206 0.929 . S
H2203 C2212 0.929 . S
C2204 H2198 0.930 . S
C2204 C2205 1.367 1_565 S
C2204 C2212 1.378 . S
C2205 C2204 1.367 1_545 S
C2205 C2213 1.433 . S
C2206 H2202 0.929 . S
C2206 C2208 1.378 . S
C2206 C2210 1.350 1_545 S
C2207 C2210 1.463 1_544 S
C2207 C2212 1.350 1_545 S
C2207 N2215 1.427 . S
C2208 H2199 0.930 . S
C2208 C2206 1.378 . S
C2208 C2209 1.367 1_545 S
C2209 C2208 1.367 1_565 S
C2209 C2211 1.433 . S
C2210 C2206 1.350 1_565 S
C2210 C2207 1.463 1_566 S
C2210 N2214 1.427 . S
C2211 H2201 0.929 . S
C2211 C2209 1.433 . S
C2211 N2214 1.384 . S
C2212 H2203 0.929 . S
C2212 C2204 1.378 . S
C2212 C2207 1.350 1_565 S
C2213 H2200 0.929 . S
C2213 C2205 1.433 . S
C2213 N2215 1.384 . S
N2214 C2210 1.427 . S
N2214 C2211 1.384 . S
N2215 C2207 1.427 . S
N2215 C2213 1.384 . S
H2216 C2222 0.930 . S
H2217 C2226 0.930 . S
H2218 C2231 0.929 . S
H2219 C2229 0.929 . S
H2220 C2224 0.929 . S
H2221 C2230 0.929 . S
C2222 H2216 0.930 . S
C2222 C2223 1.367 . S
C2222 C2230 1.378 . S
C2223 C2222 1.367 . S
C2223 C2231 1.433 . S
C2224 H2220 0.929 . S
C2224 C2226 1.378 . S
C2224 C2228 1.350 . S
C2225 C2228 1.463 . S
C2225 C2230 1.350 . S
C2225 N2233 1.427 . S
C2226 H2217 0.930 . S
C2226 C2224 1.378 . S
C2226 C2227 1.367 . S
C2227 C2226 1.367 . S
C2227 C2229 1.433 . S
C2228 C2224 1.350 . S
C2228 C2225 1.463 . S
C2228 N2232 1.427 . S
C2229 H2219 0.929 . S
C2229 C2227 1.433 . S
C2229 N2232 1.384 . S
C2230 H2221 0.929 . S
C2230 C2222 1.378 . S
C2230 C2225 1.350 . S
C2231 H2218 0.929 . S
C2231 C2223 1.433 . S
C2231 N2233 1.384 . S
N2232 C2228 1.427 . S
N2232 C2229 1.384 . S
N2233 C2225 1.427 . S
N2233 C2231 1.384 . S
H2234 C2240 0.930 . S
H2235 C2244 0.930 . S
H2236 C2249 0.929 . S
H2237 C2247 0.929 . S
H2238 C2242 0.929 . S
H2239 C2248 0.929 . S
C2240 H2234 0.930 . S
C2240 C2241 1.367 1_565 S
C2240 C2248 1.378 . S
C2241 C2240 1.367 1_545 S
C2241 C2249 1.433 . S
C2242 H2238 0.929 . S
C2242 C2244 1.378 . S
C2242 C2246 1.331 1_545 S
C2243 C2246 1.461 1_545 S
C2243 C2248 1.331 1_545 S
C2243 N2251 1.449 . S
C2244 H2235 0.930 . S
C2244 C2242 1.378 . S
C2244 C2245 1.367 1_545 S
C2245 C2244 1.367 1_565 S
C2245 C2247 1.433 . S
C2246 C2242 1.331 1_565 S
C2246 C2243 1.461 1_565 S
C2246 N2250 1.449 . S
C2247 H2237 0.929 . S
C2247 C2245 1.433 . S
C2247 N2250 1.384 . S
C2248 H2239 0.929 . S
C2248 C2240 1.378 . S
C2248 C2243 1.331 1_565 S
C2249 H2236 0.929 . S
C2249 C2241 1.433 . S
C2249 N2251 1.384 . S
N2250 C2246 1.449 . S
N2250 C2247 1.384 . S
N2251 C2243 1.449 . S
N2251 C2249 1.384 . S
H2252 C2258 0.930 . S
H2253 C2262 0.930 . S
H2254 C2267 0.929 . S
H2255 C2265 0.929 . S
H2256 C2260 0.929 . S
H2257 C2266 0.929 . S
C2258 H2252 0.930 . S
C2258 C2259 1.367 . S
C2258 C2266 1.378 . S
C2259 C2258 1.367 . S
C2259 C2267 1.433 . S
C2260 H2256 0.929 . S
C2260 C2262 1.378 . S
C2260 C2264 1.350 . S
C2261 C2264 1.463 . S
C2261 C2266 1.350 . S
C2261 N2269 1.427 . S
C2262 H2253 0.930 . S
C2262 C2260 1.378 . S
C2262 C2263 1.367 . S
C2263 C2262 1.367 . S
C2263 C2265 1.433 . S
C2264 C2260 1.350 . S
C2264 C2261 1.463 . S
C2264 N2268 1.427 . S
C2265 H2255 0.929 . S
C2265 C2263 1.433 . S
C2265 N2268 1.384 . S
C2266 H2257 0.929 . S
C2266 C2258 1.378 . S
C2266 C2261 1.350 . S
C2267 H2254 0.929 . S
C2267 C2259 1.433 . S
C2267 N2269 1.384 . S
N2268 C2264 1.427 . S
N2268 C2265 1.384 . S
N2269 C2261 1.427 . S
N2269 C2267 1.384 . S
H2270 C2276 0.930 . S
H2271 C2280 0.930 . S
H2272 C2285 0.929 . S
H2273 C2283 0.929 . S
H2274 C2278 0.929 . S
H2275 C2284 0.929 . S
C2276 H2270 0.930 . S
C2276 C2277 1.367 1_655 S
C2276 C2284 1.378 . S
C2277 C2276 1.367 1_455 S
C2277 C2285 1.433 1_545 S
C2278 H2274 0.929 . S
C2278 C2280 1.378 . S
C2278 C2282 1.350 1_455 S
C2279 C2282 1.463 1_446 S
C2279 C2284 1.350 1_455 S
C2279 N2287 1.427 1_545 S
C2280 H2271 0.930 . S
C2280 C2278 1.378 . S
C2280 C2281 1.367 1_455 S
C2281 C2280 1.367 1_655 S
C2281 C2283 1.433 1_565 S
C2282 C2278 1.350 1_655 S
C2282 C2279 1.463 1_664 S
C2282 N2286 1.427 1_565 S
C2283 H2273 0.929 . S
C2283 C2281 1.433 1_545 S
C2283 N2286 1.384 . S
C2284 H2275 0.929 . S
C2284 C2276 1.378 . S
C2284 C2279 1.350 1_655 S
C2285 H2272 0.929 . S
C2285 C2277 1.433 1_565 S
C2285 N2287 1.384 . S
N2286 C2282 1.427 1_545 S
N2286 C2283 1.384 . S
N2287 C2279 1.427 1_565 S
N2287 C2285 1.384 . S
H2288 C2294 0.930 . S
H2289 C2298 0.930 . S
H2290 C2303 0.929 . S
H2291 C2301 0.929 . S
H2292 C2296 0.929 . S
H2293 C2302 0.929 . S
C2294 H2288 0.930 . S
C2294 C2295 1.367 . S
C2294 C2302 1.378 . S
C2295 C2294 1.367 . S
C2295 C2303 1.433 . S
C2296 H2292 0.929 . S
C2296 C2298 1.378 . S
C2296 C2300 1.350 . S
C2297 C2300 1.463 . S
C2297 C2302 1.350 . S
C2297 N2305 1.427 . S
C2298 H2289 0.930 . S
C2298 C2296 1.378 . S
C2298 C2299 1.367 . S
C2299 C2298 1.367 . S
C2299 C2301 1.433 . S
C2300 C2296 1.350 . S
C2300 C2297 1.463 . S
C2300 N2304 1.427 . S
C2301 H2291 0.929 . S
C2301 C2299 1.433 . S
C2301 N2304 1.384 . S
C2302 H2293 0.929 . S
C2302 C2294 1.378 . S
C2302 C2297 1.350 . S
C2303 H2290 0.929 . S
C2303 C2295 1.433 . S
C2303 N2305 1.384 . S
N2304 C2300 1.427 . S
N2304 C2301 1.384 . S
N2305 C2297 1.427 . S
N2305 C2303 1.384 . S
H2306 C2312 0.930 . S
H2307 C2316 0.930 . S
H2308 C2321 0.929 . S
H2309 C2319 0.929 . S
H2310 C2314 0.929 . S
H2311 C2320 0.929 . S
C2312 H2306 0.930 . S
C2312 C2313 1.367 . S
C2312 C2320 1.378 . S
C2313 C2312 1.367 . S
C2313 C2321 1.433 . S
C2314 H2310 0.929 . S
C2314 C2316 1.378 . S
C2314 C2318 1.350 . S
C2315 C2318 1.463 . S
C2315 C2320 1.350 . S
C2315 N2323 1.427 . S
C2316 H2307 0.930 . S
C2316 C2314 1.378 . S
C2316 C2317 1.367 . S
C2317 C2316 1.367 . S
C2317 C2319 1.433 . S
C2318 C2314 1.350 . S
C2318 C2315 1.463 . S
C2318 N2322 1.427 . S
C2319 H2309 0.929 . S
C2319 C2317 1.433 . S
C2319 N2322 1.384 . S
C2320 H2311 0.929 . S
C2320 C2312 1.378 . S
C2320 C2315 1.350 . S
C2321 H2308 0.929 . S
C2321 C2313 1.433 . S
C2321 N2323 1.384 . S
N2322 C2318 1.427 . S
N2322 C2319 1.384 . S
N2323 C2315 1.427 . S
N2323 C2321 1.384 . S
H2324 C2330 0.930 . S
H2325 C2334 0.930 . S
H2326 C2339 0.929 . S
H2327 C2337 0.929 . S
H2328 C2332 0.929 . S
H2329 C2338 0.929 . S
C2330 H2324 0.930 . S
C2330 C2331 1.367 . S
C2330 C2338 1.378 . S
C2331 C2330 1.367 . S
C2331 C2339 1.433 . S
C2332 H2328 0.929 . S
C2332 C2334 1.378 . S
C2332 C2336 1.350 . S
C2333 C2336 1.463 . S
C2333 C2338 1.350 . S
C2333 N2341 1.427 . S
C2334 H2325 0.930 . S
C2334 C2332 1.378 . S
C2334 C2335 1.367 . S
C2335 C2334 1.367 . S
C2335 C2337 1.433 . S
C2336 C2332 1.350 . S
C2336 C2333 1.463 . S
C2336 N2340 1.427 . S
C2337 H2327 0.929 . S
C2337 C2335 1.433 . S
C2337 N2340 1.384 . S
C2338 H2329 0.929 . S
C2338 C2330 1.378 . S
C2338 C2333 1.350 . S
C2339 H2326 0.929 . S
C2339 C2331 1.433 . S
C2339 N2341 1.384 . S
N2340 C2336 1.427 . S
N2340 C2337 1.384 . S
N2341 C2333 1.427 . S
N2341 C2339 1.384 . S
H2342 C2348 0.930 . S
H2343 C2352 0.930 . S
H2344 C2357 0.929 . S
H2345 C2355 0.929 . S
H2346 C2350 0.929 . S
H2347 C2356 0.929 . S
C2348 H2342 0.930 . S
C2348 C2349 1.367 . S
C2348 C2356 1.378 . S
C2349 C2348 1.367 . S
C2349 C2357 1.433 . S
C2350 H2346 0.929 . S
C2350 C2352 1.378 . S
C2350 C2354 1.350 . S
C2351 C2354 1.463 . S
C2351 C2356 1.350 . S
C2351 N2359 1.427 . S
C2352 H2343 0.930 . S
C2352 C2350 1.378 . S
C2352 C2353 1.367 . S
C2353 C2352 1.367 . S
C2353 C2355 1.433 . S
C2354 C2350 1.350 . S
C2354 C2351 1.463 . S
C2354 N2358 1.427 . S
C2355 H2345 0.929 . S
C2355 C2353 1.433 . S
C2355 N2358 1.384 . S
C2356 H2347 0.929 . S
C2356 C2348 1.378 . S
C2356 C2351 1.350 . S
C2357 H2344 0.929 . S
C2357 C2349 1.433 . S
C2357 N2359 1.384 . S
N2358 C2354 1.427 . S
N2358 C2355 1.384 . S
N2359 C2351 1.427 . S
N2359 C2357 1.384 . S
H2360 C2366 0.930 . S
H2361 C2370 0.930 . S
H2362 C2375 0.929 . S
H2363 C2373 0.929 . S
H2364 C2368 0.929 . S
H2365 C2374 0.929 . S
C2366 H2360 0.930 . S
C2366 C2367 1.367 . S
C2366 C2374 1.378 . S
C2367 C2366 1.367 . S
C2367 C2375 1.433 . S
C2368 H2364 0.929 . S
C2368 C2370 1.378 . S
C2368 C2372 1.350 . S
C2369 C2372 1.463 1_554 S
C2369 C2374 1.350 . S
C2369 N2377 1.427 . S
C2370 H2361 0.930 . S
C2370 C2368 1.378 . S
C2370 C2371 1.367 . S
C2371 C2370 1.367 . S
C2371 C2373 1.433 . S
C2372 C2368 1.350 . S
C2372 C2369 1.463 1_556 S
C2372 N2376 1.427 . S
C2373 H2363 0.929 . S
C2373 C2371 1.433 . S
C2373 N2376 1.384 . S
C2374 H2365 0.929 . S
C2374 C2366 1.378 . S
C2374 C2369 1.350 . S
C2375 H2362 0.929 . S
C2375 C2367 1.433 . S
C2375 N2377 1.384 . S
N2376 C2372 1.427 . S
N2376 C2373 1.384 . S
N2377 C2369 1.427 . S
N2377 C2375 1.384 . S
H2378 C2384 0.930 . S
H2379 C2388 0.930 . S
H2380 C2393 0.924 1_455 S
H2381 C2391 0.924 1_655 S
H2382 C2386 0.929 . S
H2383 C2392 0.929 . S
C2384 H2378 0.930 . S
C2384 C2385 1.367 . S
C2384 C2392 1.378 . S
C2385 C2384 1.367 . S
C2385 C2393 1.433 . S
C2386 H2382 0.929 . S
C2386 C2388 1.378 . S
C2386 C2390 1.350 . S
C2387 C2390 1.463 1_655 S
C2387 C2392 1.350 . S
C2387 N2395 1.427 1_655 S
C2388 H2379 0.930 . S
C2388 C2386 1.378 . S
C2388 C2389 1.367 . S
C2389 C2388 1.367 . S
C2389 C2391 1.433 . S
C2390 C2386 1.350 . S
C2390 C2387 1.463 1_455 S
C2390 N2394 1.427 1_455 S
C2391 H2381 0.924 1_455 S
C2391 C2389 1.433 . S
C2391 N2394 1.384 1_455 S
C2392 H2383 0.929 . S
C2392 C2384 1.378 . S
C2392 C2387 1.350 . S
C2393 H2380 0.924 1_655 S
C2393 C2385 1.433 . S
C2393 N2395 1.384 1_655 S
N2394 C2390 1.427 1_655 S
N2394 C2391 1.384 1_655 S
N2395 C2387 1.427 1_455 S
N2395 C2393 1.384 1_455 S
H2396 C2402 0.930 . S
H2397 C2406 0.930 . S
H2398 C2411 0.929 . S
H2399 C2409 0.929 . S
H2400 C2404 0.929 . S
H2401 C2410 0.929 . S
C2402 H2396 0.930 . S
C2402 C2403 1.367 1_655 S
C2402 C2410 1.378 . S
C2403 C2402 1.367 1_455 S
C2403 C2411 1.433 . S
C2404 H2400 0.929 . S
C2404 C2406 1.378 . S
C2404 C2408 1.350 1_455 S
C2405 C2408 1.463 1_454 S
C2405 C2410 1.350 1_455 S
C2405 N2413 1.427 . S
C2406 H2397 0.930 . S
C2406 C2404 1.378 . S
C2406 C2407 1.367 1_455 S
C2407 C2406 1.367 1_655 S
C2407 C2409 1.433 . S
C2408 C2404 1.350 1_655 S
C2408 C2405 1.463 1_656 S
C2408 N2412 1.427 . S
C2409 H2399 0.929 . S
C2409 C2407 1.433 . S
C2409 N2412 1.384 . S
C2410 H2401 0.929 . S
C2410 C2402 1.378 . S
C2410 C2405 1.350 1_655 S
C2411 H2398 0.929 . S
C2411 C2403 1.433 . S
C2411 N2413 1.384 . S
N2412 C2408 1.427 . S
N2412 C2409 1.384 . S
N2413 C2405 1.427 . S
N2413 C2411 1.384 . S
H2414 C2420 0.930 . S
H2415 C2424 0.930 . S
H2416 C2429 0.929 . S
H2417 C2427 0.929 . S
H2418 C2422 0.929 . S
H2419 C2428 0.929 . S
C2420 H2414 0.930 . S
C2420 C2421 1.367 . S
C2420 C2428 1.378 . S
C2421 C2420 1.367 . S
C2421 C2429 1.433 . S
C2422 H2418 0.929 . S
C2422 C2424 1.378 . S
C2422 C2426 1.350 . S
C2423 C2426 1.463 . S
C2423 C2428 1.350 . S
C2423 N2431 1.427 . S
C2424 H2415 0.930 . S
C2424 C2422 1.378 . S
C2424 C2425 1.367 . S
C2425 C2424 1.367 . S
C2425 C2427 1.433 . S
C2426 C2422 1.350 . S
C2426 C2423 1.463 . S
C2426 N2430 1.427 . S
C2427 H2417 0.929 . S
C2427 C2425 1.433 . S
C2427 N2430 1.384 . S
C2428 H2419 0.929 . S
C2428 C2420 1.378 . S
C2428 C2423 1.350 . S
C2429 H2416 0.929 . S
C2429 C2421 1.433 . S
C2429 N2431 1.384 . S
N2430 C2426 1.427 . S
N2430 C2427 1.384 . S
N2431 C2423 1.427 . S
N2431 C2429 1.384 . S
H2432 C2438 0.930 . S
H2433 C2442 0.930 . S
H2434 C2447 0.929 . S
H2435 C2445 0.929 . S
H2436 C2440 0.929 . S
H2437 C2446 0.929 . S
C2438 H2432 0.930 . S
C2438 C2439 1.367 . S
C2438 C2446 1.378 . S
C2439 C2438 1.367 . S
C2439 C2447 1.433 . S
C2440 H2436 0.929 . S
C2440 C2442 1.378 . S
C2440 C2444 1.350 . S
C2441 C2444 1.463 . S
C2441 C2446 1.350 . S
C2441 N2449 1.427 . S
C2442 H2433 0.930 . S
C2442 C2440 1.378 . S
C2442 C2443 1.367 . S
C2443 C2442 1.367 . S
C2443 C2445 1.433 . S
C2444 C2440 1.350 . S
C2444 C2441 1.463 . S
C2444 N2448 1.427 . S
C2445 H2435 0.929 . S
C2445 C2443 1.433 . S
C2445 N2448 1.384 . S
C2446 H2437 0.929 . S
C2446 C2438 1.378 . S
C2446 C2441 1.350 . S
C2447 H2434 0.929 . S
C2447 C2439 1.433 . S
C2447 N2449 1.384 . S
N2448 C2444 1.427 . S
N2448 C2445 1.384 . S
N2449 C2441 1.427 . S
N2449 C2447 1.384 . S
H2450 C2456 0.930 . S
H2451 C2460 0.930 . S
H2452 C2465 0.929 . S
H2453 C2463 0.929 . S
H2454 C2458 0.929 . S
H2455 C2464 0.929 . S
C2456 H2450 0.930 . S
C2456 C2457 1.367 . S
C2456 C2464 1.378 . S
C2457 C2456 1.367 . S
C2457 C2465 1.433 . S
C2458 H2454 0.929 . S
C2458 C2460 1.378 . S
C2458 C2462 1.350 . S
C2459 C2462 1.463 . S
C2459 C2464 1.350 . S
C2459 N2467 1.427 . S
C2460 H2451 0.930 . S
C2460 C2458 1.378 . S
C2460 C2461 1.367 . S
C2461 C2460 1.367 . S
C2461 C2463 1.433 . S
C2462 C2458 1.350 . S
C2462 C2459 1.463 . S
C2462 N2466 1.427 . S
C2463 H2453 0.929 . S
C2463 C2461 1.433 . S
C2463 N2466 1.384 . S
C2464 H2455 0.929 . S
C2464 C2456 1.378 . S
C2464 C2459 1.350 . S
C2465 H2452 0.929 . S
C2465 C2457 1.433 . S
C2465 N2467 1.384 . S
N2466 C2462 1.427 . S
N2466 C2463 1.384 . S
N2467 C2459 1.427 . S
N2467 C2465 1.384 . S
H2468 C2474 0.930 . S
H2469 C2478 0.930 . S
H2470 C2483 0.929 . S
H2471 C2481 0.929 . S
H2472 C2476 0.929 . S
H2473 C2482 0.929 . S
C2474 H2468 0.930 . S
C2474 C2475 1.367 . S
C2474 C2482 1.378 . S
C2475 C2474 1.367 . S
C2475 C2483 1.433 . S
C2476 H2472 0.929 . S
C2476 C2478 1.378 . S
C2476 C2480 1.350 . S
C2477 C2480 1.463 . S
C2477 C2482 1.350 . S
C2477 N2485 1.427 . S
C2478 H2469 0.930 . S
C2478 C2476 1.378 . S
C2478 C2479 1.367 . S
C2479 C2478 1.367 . S
C2479 C2481 1.433 . S
C2480 C2476 1.350 . S
C2480 C2477 1.463 . S
C2480 N2484 1.427 . S
C2481 H2471 0.929 . S
C2481 C2479 1.433 . S
C2481 N2484 1.384 . S
C2482 H2473 0.929 . S
C2482 C2474 1.378 . S
C2482 C2477 1.350 . S
C2483 H2470 0.929 . S
C2483 C2475 1.433 . S
C2483 N2485 1.384 . S
N2484 C2480 1.427 . S
N2484 C2481 1.384 . S
N2485 C2477 1.427 . S
N2485 C2483 1.384 . S
H2486 C2492 0.930 . S
H2487 C2496 0.930 . S
H2488 C2501 0.929 . S
H2489 C2499 0.929 . S
H2490 C2494 0.929 . S
H2491 C2500 0.929 . S
C2492 H2486 0.930 . S
C2492 C2493 1.367 . S
C2492 C2500 1.378 . S
C2493 C2492 1.367 . S
C2493 C2501 1.433 . S
C2494 H2490 0.929 . S
C2494 C2496 1.378 . S
C2494 C2498 1.350 . S
C2495 C2498 1.463 . S
C2495 C2500 1.350 . S
C2495 N2503 1.427 . S
C2496 H2487 0.930 . S
C2496 C2494 1.378 . S
C2496 C2497 1.367 . S
C2497 C2496 1.367 . S
C2497 C2499 1.433 . S
C2498 C2494 1.350 . S
C2498 C2495 1.463 . S
C2498 N2502 1.427 . S
C2499 H2489 0.929 . S
C2499 C2497 1.433 . S
C2499 N2502 1.384 . S
C2500 H2491 0.929 . S
C2500 C2492 1.378 . S
C2500 C2495 1.350 . S
C2501 H2488 0.929 . S
C2501 C2493 1.433 . S
C2501 N2503 1.384 . S
N2502 C2498 1.427 . S
N2502 C2499 1.384 . S
N2503 C2495 1.427 . S
N2503 C2501 1.384 . S
H2504 C2510 0.930 . S
H2505 C2514 0.930 . S
H2506 C2519 0.929 . S
H2507 C2517 0.929 . S
H2508 C2512 0.929 . S
H2509 C2518 0.929 . S
C2510 H2504 0.930 . S
C2510 C2511 1.367 . S
C2510 C2518 1.378 . S
C2511 C2510 1.367 . S
C2511 C2519 1.433 . S
C2512 H2508 0.929 . S
C2512 C2514 1.378 . S
C2512 C2516 1.350 . S
C2513 C2516 1.463 . S
C2513 C2518 1.350 . S
C2513 N2521 1.427 . S
C2514 H2505 0.930 . S
C2514 C2512 1.378 . S
C2514 C2515 1.367 . S
C2515 C2514 1.367 . S
C2515 C2517 1.433 . S
C2516 C2512 1.350 . S
C2516 C2513 1.463 . S
C2516 N2520 1.427 . S
C2517 H2507 0.929 . S
C2517 C2515 1.433 . S
C2517 N2520 1.384 . S
C2518 H2509 0.929 . S
C2518 C2510 1.378 . S
C2518 C2513 1.350 . S
C2519 H2506 0.929 . S
C2519 C2511 1.433 . S
C2519 N2521 1.384 . S
N2520 C2516 1.427 . S
N2520 C2517 1.384 . S
N2521 C2513 1.427 . S
N2521 C2519 1.384 . S
H2522 C2528 0.930 . S
H2523 C2532 0.930 . S
H2524 C2537 0.929 . S
H2525 C2535 0.929 . S
H2526 C2530 0.929 . S
H2527 C2536 0.929 . S
C2528 H2522 0.930 . S
C2528 C2529 1.367 . S
C2528 C2536 1.378 . S
C2529 C2528 1.367 . S
C2529 C2537 1.433 . S
C2530 H2526 0.929 . S
C2530 C2532 1.378 . S
C2530 C2534 1.350 . S
C2531 C2534 1.463 . S
C2531 C2536 1.350 . S
C2531 N2539 1.427 . S
C2532 H2523 0.930 . S
C2532 C2530 1.378 . S
C2532 C2533 1.367 . S
C2533 C2532 1.367 . S
C2533 C2535 1.433 . S
C2534 C2530 1.350 . S
C2534 C2531 1.463 . S
C2534 N2538 1.427 . S
C2535 H2525 0.929 . S
C2535 C2533 1.433 . S
C2535 N2538 1.384 . S
C2536 H2527 0.929 . S
C2536 C2528 1.378 . S
C2536 C2531 1.350 . S
C2537 H2524 0.929 . S
C2537 C2529 1.433 . S
C2537 N2539 1.384 . S
N2538 C2534 1.427 . S
N2538 C2535 1.384 . S
N2539 C2531 1.427 . S
N2539 C2537 1.384 . S
H2540 C2546 0.930 . S
H2541 C2550 0.930 . S
H2542 C2555 0.929 . S
H2543 C2553 0.929 . S
H2544 C2548 0.929 . S
H2545 C2554 0.929 . S
C2546 H2540 0.930 . S
C2546 C2547 1.367 . S
C2546 C2554 1.378 . S
C2547 C2546 1.367 . S
C2547 C2555 1.433 . S
C2548 H2544 0.929 . S
C2548 C2550 1.378 . S
C2548 C2552 1.350 . S
C2549 C2552 1.463 . S
C2549 C2554 1.350 . S
C2549 N2557 1.427 . S
C2550 H2541 0.930 . S
C2550 C2548 1.378 . S
C2550 C2551 1.367 . S
C2551 C2550 1.367 . S
C2551 C2553 1.433 . S
C2552 C2548 1.350 . S
C2552 C2549 1.463 . S
C2552 N2556 1.427 . S
C2553 H2543 0.929 . S
C2553 C2551 1.433 . S
C2553 N2556 1.384 . S
C2554 H2545 0.929 . S
C2554 C2546 1.378 . S
C2554 C2549 1.350 . S
C2555 H2542 0.929 . S
C2555 C2547 1.433 . S
C2555 N2557 1.384 . S
N2556 C2552 1.427 . S
N2556 C2553 1.384 . S
N2557 C2549 1.427 . S
N2557 C2555 1.384 . S
H2558 C2564 0.930 . S
H2559 C2568 0.930 . S
H2560 C2573 0.929 . S
H2561 C2571 0.929 . S
H2562 C2566 0.929 . S
H2563 C2572 0.929 . S
C2564 H2558 0.930 . S
C2564 C2565 1.367 . S
C2564 C2572 1.378 . S
C2565 C2564 1.367 . S
C2565 C2573 1.433 . S
C2566 H2562 0.929 . S
C2566 C2568 1.378 . S
C2566 C2570 1.350 . S
C2567 C2570 1.463 . S
C2567 C2572 1.350 . S
C2567 N2575 1.427 . S
C2568 H2559 0.930 . S
C2568 C2566 1.378 . S
C2568 C2569 1.367 . S
C2569 C2568 1.367 . S
C2569 C2571 1.433 . S
C2570 C2566 1.350 . S
C2570 C2567 1.463 . S
C2570 N2574 1.427 . S
C2571 H2561 0.929 . S
C2571 C2569 1.433 . S
C2571 N2574 1.384 . S
C2572 H2563 0.929 . S
C2572 C2564 1.378 . S
C2572 C2567 1.350 . S
C2573 H2560 0.929 . S
C2573 C2565 1.433 . S
C2573 N2575 1.384 . S
N2574 C2570 1.427 . S
N2574 C2571 1.384 . S
N2575 C2567 1.427 . S
N2575 C2573 1.384 . S
H2576 C2582 0.930 . S
H2577 C2586 0.930 . S
H2578 C2591 0.929 . S
H2579 C2589 0.929 . S
H2580 C2584 0.929 . S
H2581 C2590 0.929 . S
C2582 H2576 0.930 . S
C2582 C2583 1.367 . S
C2582 C2590 1.378 . S
C2583 C2582 1.367 . S
C2583 C2591 1.433 . S
C2584 H2580 0.929 . S
C2584 C2586 1.378 . S
C2584 C2588 1.350 . S
C2585 C2588 1.463 . S
C2585 C2590 1.350 . S
C2585 N2593 1.427 . S
C2586 H2577 0.930 . S
C2586 C2584 1.378 . S
C2586 C2587 1.367 . S
C2587 C2586 1.367 . S
C2587 C2589 1.433 . S
C2588 C2584 1.350 . S
C2588 C2585 1.463 . S
C2588 N2592 1.427 . S
C2589 H2579 0.929 . S
C2589 C2587 1.433 . S
C2589 N2592 1.384 . S
C2590 H2581 0.929 . S
C2590 C2582 1.378 . S
C2590 C2585 1.350 . S
C2591 H2578 0.929 . S
C2591 C2583 1.433 . S
C2591 N2593 1.384 . S
N2592 C2588 1.427 . S
N2592 C2589 1.384 . S
N2593 C2585 1.427 . S
N2593 C2591 1.384 . S
H2594 C2600 0.930 . S
H2595 C2604 0.930 . S
H2596 C2609 0.929 . S
H2597 C2607 0.929 . S
H2598 C2602 0.929 . S
H2599 C2608 0.929 . S
C2600 H2594 0.930 . S
C2600 C2601 1.367 . S
C2600 C2608 1.378 . S
C2601 C2600 1.367 . S
C2601 C2609 1.433 . S
C2602 H2598 0.929 . S
C2602 C2604 1.378 . S
C2602 C2606 1.350 . S
C2603 C2606 1.463 . S
C2603 C2608 1.350 . S
C2603 N2611 1.427 . S
C2604 H2595 0.930 . S
C2604 C2602 1.378 . S
C2604 C2605 1.367 . S
C2605 C2604 1.367 . S
C2605 C2607 1.433 . S
C2606 C2602 1.350 . S
C2606 C2603 1.463 . S
C2606 N2610 1.427 . S
C2607 H2597 0.929 . S
C2607 C2605 1.433 . S
C2607 N2610 1.384 . S
C2608 H2599 0.929 . S
C2608 C2600 1.378 . S
C2608 C2603 1.350 . S
C2609 H2596 0.929 . S
C2609 C2601 1.433 . S
C2609 N2611 1.384 . S
N2610 C2606 1.427 . S
N2610 C2607 1.384 . S
N2611 C2603 1.427 . S
N2611 C2609 1.384 . S
H2612 C2618 0.930 . S
H2613 C2622 0.930 . S
H2614 C2627 0.929 . S
H2615 C2625 0.929 . S
H2616 C2620 0.929 . S
H2617 C2626 0.929 . S
C2618 H2612 0.930 . S
C2618 C2619 1.367 . S
C2618 C2626 1.378 . S
C2619 C2618 1.367 . S
C2619 C2627 1.433 . S
C2620 H2616 0.929 . S
C2620 C2622 1.378 . S
C2620 C2624 1.350 . S
C2621 C2624 1.463 . S
C2621 C2626 1.350 . S
C2621 N2629 1.427 . S
C2622 H2613 0.930 . S
C2622 C2620 1.378 . S
C2622 C2623 1.367 . S
C2623 C2622 1.367 . S
C2623 C2625 1.433 . S
C2624 C2620 1.350 . S
C2624 C2621 1.463 . S
C2624 N2628 1.427 . S
C2625 H2615 0.929 . S
C2625 C2623 1.433 . S
C2625 N2628 1.384 . S
C2626 H2617 0.929 . S
C2626 C2618 1.378 . S
C2626 C2621 1.350 . S
C2627 H2614 0.929 . S
C2627 C2619 1.433 . S
C2627 N2629 1.384 . S
N2628 C2624 1.427 . S
N2628 C2625 1.384 . S
N2629 C2621 1.427 . S
N2629 C2627 1.384 . S
H2630 C2636 0.930 . S
H2631 C2640 0.930 . S
H2632 C2645 0.929 . S
H2633 C2643 0.929 . S
H2634 C2638 0.929 . S
H2635 C2644 0.929 . S
C2636 H2630 0.930 . S
C2636 C2637 1.367 . S
C2636 C2644 1.378 . S
C2637 C2636 1.367 . S
C2637 C2645 1.433 . S
C2638 H2634 0.929 . S
C2638 C2640 1.378 . S
C2638 C2642 1.350 . S
C2639 C2642 1.463 . S
C2639 C2644 1.350 . S
C2639 N2647 1.427 . S
C2640 H2631 0.930 . S
C2640 C2638 1.378 . S
C2640 C2641 1.367 . S
C2641 C2640 1.367 . S
C2641 C2643 1.433 . S
C2642 C2638 1.350 . S
C2642 C2639 1.463 . S
C2642 N2646 1.427 . S
C2643 H2633 0.929 . S
C2643 C2641 1.433 . S
C2643 N2646 1.384 . S
C2644 H2635 0.929 . S
C2644 C2636 1.378 . S
C2644 C2639 1.350 . S
C2645 H2632 0.929 . S
C2645 C2637 1.433 . S
C2645 N2647 1.384 . S
N2646 C2642 1.427 . S
N2646 C2643 1.384 . S
N2647 C2639 1.427 . S
N2647 C2645 1.384 . S
H2648 C2654 0.930 . S
H2649 C2658 0.930 . S
H2650 C2663 0.929 . S
H2651 C2661 0.929 . S
H2652 C2656 0.929 . S
H2653 C2662 0.929 . S
C2654 H2648 0.930 . S
C2654 C2655 1.367 . S
C2654 C2662 1.378 . S
C2655 C2654 1.367 . S
C2655 C2663 1.433 . S
C2656 H2652 0.929 . S
C2656 C2658 1.378 . S
C2656 C2660 1.350 . S
C2657 C2660 1.463 . S
C2657 C2662 1.350 . S
C2657 N2665 1.427 . S
C2658 H2649 0.930 . S
C2658 C2656 1.378 . S
C2658 C2659 1.367 . S
C2659 C2658 1.367 . S
C2659 C2661 1.433 . S
C2660 C2656 1.350 . S
C2660 C2657 1.463 . S
C2660 N2664 1.427 . S
C2661 H2651 0.929 . S
C2661 C2659 1.433 . S
C2661 N2664 1.384 . S
C2662 H2653 0.929 . S
C2662 C2654 1.378 . S
C2662 C2657 1.350 . S
C2663 H2650 0.929 . S
C2663 C2655 1.433 . S
C2663 N2665 1.384 . S
N2664 C2660 1.427 . S
N2664 C2661 1.384 . S
N2665 C2657 1.427 . S
N2665 C2663 1.384 . S
H2666 C2672 0.930 . S
H2667 C2676 0.930 . S
H2668 C2681 0.929 . S
H2669 C2679 0.929 . S
H2670 C2674 0.929 . S
H2671 C2680 0.929 . S
C2672 H2666 0.930 . S
C2672 C2673 1.367 . S
C2672 C2680 1.378 . S
C2673 C2672 1.367 . S
C2673 C2681 1.433 . S
C2674 H2670 0.929 . S
C2674 C2676 1.378 . S
C2674 C2678 1.350 . S
C2675 C2678 1.463 . S
C2675 C2680 1.350 . S
C2675 N2683 1.427 . S
C2676 H2667 0.930 . S
C2676 C2674 1.378 . S
C2676 C2677 1.367 . S
C2677 C2676 1.367 . S
C2677 C2679 1.433 . S
C2678 C2674 1.350 . S
C2678 C2675 1.463 . S
C2678 N2682 1.427 . S
C2679 H2669 0.929 . S
C2679 C2677 1.433 . S
C2679 N2682 1.384 . S
C2680 H2671 0.929 . S
C2680 C2672 1.378 . S
C2680 C2675 1.350 . S
C2681 H2668 0.929 . S
C2681 C2673 1.433 . S
C2681 N2683 1.384 . S
N2682 C2678 1.427 . S
N2682 C2679 1.384 . S
N2683 C2675 1.427 . S
N2683 C2681 1.384 . S
H2684 C2690 0.930 . S
H2685 C2694 0.930 . S
H2686 C2699 0.929 . S
H2687 C2697 0.929 . S
H2688 C2692 0.929 . S
H2689 C2698 0.929 . S
C2690 H2684 0.930 . S
C2690 C2691 1.367 . S
C2690 C2698 1.378 . S
C2691 C2690 1.367 . S
C2691 C2699 1.433 . S
C2692 H2688 0.929 . S
C2692 C2694 1.378 . S
C2692 C2696 1.350 . S
C2693 C2696 1.463 . S
C2693 C2698 1.350 . S
C2693 N2701 1.427 . S
C2694 H2685 0.930 . S
C2694 C2692 1.378 . S
C2694 C2695 1.367 . S
C2695 C2694 1.367 . S
C2695 C2697 1.433 . S
C2696 C2692 1.350 . S
C2696 C2693 1.463 . S
C2696 N2700 1.427 . S
C2697 H2687 0.929 . S
C2697 C2695 1.433 . S
C2697 N2700 1.384 . S
C2698 H2689 0.929 . S
C2698 C2690 1.378 . S
C2698 C2693 1.350 . S
C2699 H2686 0.929 . S
C2699 C2691 1.433 . S
C2699 N2701 1.384 . S
N2700 C2696 1.427 . S
N2700 C2697 1.384 . S
N2701 C2693 1.427 . S
N2701 C2699 1.384 . S
H2702 C2708 0.930 . S
H2703 C2712 0.930 . S
H2704 C2717 0.929 . S
H2705 C2715 0.929 . S
H2706 C2710 0.929 . S
H2707 C2716 0.929 . S
C2708 H2702 0.930 . S
C2708 C2709 1.367 . S
C2708 C2716 1.378 . S
C2709 C2708 1.367 . S
C2709 C2717 1.433 . S
C2710 H2706 0.929 . S
C2710 C2712 1.378 . S
C2710 C2714 1.350 . S
C2711 C2714 1.463 . S
C2711 C2716 1.350 . S
C2711 N2719 1.427 . S
C2712 H2703 0.930 . S
C2712 C2710 1.378 . S
C2712 C2713 1.367 . S
C2713 C2712 1.367 . S
C2713 C2715 1.433 . S
C2714 C2710 1.350 . S
C2714 C2711 1.463 . S
C2714 N2718 1.427 . S
C2715 H2705 0.929 . S
C2715 C2713 1.433 . S
C2715 N2718 1.384 . S
C2716 H2707 0.929 . S
C2716 C2708 1.378 . S
C2716 C2711 1.350 . S
C2717 H2704 0.929 . S
C2717 C2709 1.433 . S
C2717 N2719 1.384 . S
N2718 C2714 1.427 . S
N2718 C2715 1.384 . S
N2719 C2711 1.427 . S
N2719 C2717 1.384 . S
H2720 C2726 0.930 . S
H2721 C2730 0.930 . S
H2722 C2735 0.929 . S
H2723 C2733 0.929 . S
H2724 C2728 0.929 . S
H2725 C2734 0.929 . S
C2726 H2720 0.930 . S
C2726 C2727 1.367 . S
C2726 C2734 1.378 . S
C2727 C2726 1.367 . S
C2727 C2735 1.433 . S
C2728 H2724 0.929 . S
C2728 C2730 1.378 . S
C2728 C2732 1.350 . S
C2729 C2732 1.463 1_545 S
C2729 C2734 1.350 . S
C2729 N2737 1.427 . S
C2730 H2721 0.930 . S
C2730 C2728 1.378 . S
C2730 C2731 1.367 . S
C2731 C2730 1.367 . S
C2731 C2733 1.433 . S
C2732 C2728 1.350 . S
C2732 C2729 1.463 1_565 S
C2732 N2736 1.427 . S
C2733 H2723 0.929 . S
C2733 C2731 1.433 . S
C2733 N2736 1.384 . S
C2734 H2725 0.929 . S
C2734 C2726 1.378 . S
C2734 C2729 1.350 . S
C2735 H2722 0.929 . S
C2735 C2727 1.433 . S
C2735 N2737 1.384 . S
N2736 C2732 1.427 . S
N2736 C2733 1.384 . S
N2737 C2729 1.427 . S
N2737 C2735 1.384 . S
H2738 C2744 0.923 1_545 S
H2739 C2748 0.930 . S
H2740 C2753 0.929 . S
H2741 C2751 0.918 1_545 S
H2742 C2746 0.929 . S
H2743 C2752 0.921 1_545 S
C2744 H2738 0.923 1_565 S
C2744 C2745 1.367 . S
C2744 C2752 1.378 . S
C2745 C2744 1.367 . S
C2745 C2753 1.433 . S
C2746 H2742 0.929 . S
C2746 C2748 1.378 . S
C2746 C2750 1.350 . S
C2747 C2750 1.463 . S
C2747 C2752 1.350 . S
C2747 N2755 1.427 . S
C2748 H2739 0.930 . S
C2748 C2746 1.378 . S
C2748 C2749 1.367 . S
C2749 C2748 1.367 . S
C2749 C2751 1.433 . S
C2750 C2746 1.350 . S
C2750 C2747 1.463 . S
C2750 N2754 1.427 . S
C2751 H2741 0.918 1_565 S
C2751 C2749 1.433 . S
C2751 N2754 1.384 . S
C2752 H2743 0.921 1_565 S
C2752 C2744 1.378 . S
C2752 C2747 1.350 . S
C2753 H2740 0.929 . S
C2753 C2745 1.433 . S
C2753 N2755 1.384 . S
N2754 C2750 1.427 . S
N2754 C2751 1.384 . S
N2755 C2747 1.427 . S
N2755 C2753 1.384 . S
H2756 C2762 0.930 . S
H2757 C2766 0.930 . S
H2758 C2771 0.929 . S
H2759 C2769 0.929 . S
H2760 C2764 0.929 . S
H2761 C2770 0.929 . S
C2762 H2756 0.930 . S
C2762 C2763 1.367 . S
C2762 C2770 1.378 . S
C2763 C2762 1.367 . S
C2763 C2771 1.433 . S
C2764 H2760 0.929 . S
C2764 C2766 1.378 . S
C2764 C2768 1.350 . S
C2765 C2768 1.463 1_545 S
C2765 C2770 1.350 . S
C2765 N2773 1.427 . S
C2766 H2757 0.930 . S
C2766 C2764 1.378 . S
C2766 C2767 1.367 . S
C2767 C2766 1.367 . S
C2767 C2769 1.433 . S
C2768 C2764 1.350 . S
C2768 C2765 1.463 1_565 S
C2768 N2772 1.427 . S
C2769 H2759 0.929 . S
C2769 C2767 1.433 . S
C2769 N2772 1.384 . S
C2770 H2761 0.929 . S
C2770 C2762 1.378 . S
C2770 C2765 1.350 . S
C2771 H2758 0.929 . S
C2771 C2763 1.433 . S
C2771 N2773 1.384 . S
N2772 C2768 1.427 . S
N2772 C2769 1.384 . S
N2773 C2765 1.427 . S
N2773 C2771 1.384 . S
H2774 C2780 0.954 . S
H2775 C2784 0.954 1_565 S
H2776 C2789 0.929 1_565 S
H2777 C2787 0.929 . S
H2778 C2782 0.929 1_565 S
H2779 C2788 0.929 . S
C2780 H2774 0.954 . S
C2780 C2781 1.367 . S
C2780 C2788 1.378 1_556 S
C2781 C2780 1.367 . S
C2781 C2789 1.433 . S
C2782 H2778 0.929 1_545 S
C2782 C2784 1.378 1_556 S
C2782 C2786 1.350 1_556 S
C2783 C2786 1.463 1_556 S
C2783 C2788 1.350 1_556 S
C2783 N2791 1.427 . S
C2784 H2775 0.954 1_545 S
C2784 C2782 1.378 1_554 S
C2784 C2785 1.367 . S
C2785 C2784 1.367 . S
C2785 C2787 1.433 . S
C2786 C2782 1.350 1_554 S
C2786 C2783 1.463 1_554 S
C2786 N2790 1.427 . S
C2787 H2777 0.929 . S
C2787 C2785 1.433 . S
C2787 N2790 1.384 . S
C2788 H2779 0.929 . S
C2788 C2780 1.378 1_554 S
C2788 C2783 1.350 1_554 S
C2789 H2776 0.929 1_545 S
C2789 C2781 1.433 . S
C2789 N2791 1.384 . S
N2790 C2786 1.427 . S
N2790 C2787 1.384 . S
N2791 C2783 1.427 . S
N2791 C2789 1.384 . S
H2792 C2798 0.930 . S
H2793 C2802 0.930 . S
H2794 C2807 0.929 . S
H2795 C2805 0.929 . S
H2796 C2800 0.929 . S
H2797 C2806 0.929 . S
C2798 H2792 0.930 . S
C2798 C2799 1.367 . S
C2798 C2806 1.378 . S
C2799 C2798 1.367 . S
C2799 C2807 1.433 . S
C2800 H2796 0.929 . S
C2800 C2802 1.378 . S
C2800 C2804 1.350 . S
C2801 C2804 1.463 1_565 S
C2801 C2806 1.350 . S
C2801 N2809 1.427 . S
C2802 H2793 0.930 . S
C2802 C2800 1.378 . S
C2802 C2803 1.367 . S
C2803 C2802 1.367 . S
C2803 C2805 1.433 . S
C2804 C2800 1.350 . S
C2804 C2801 1.463 1_545 S
C2804 N2808 1.427 . S
C2805 H2795 0.929 . S
C2805 C2803 1.433 . S
C2805 N2808 1.384 . S
C2806 H2797 0.929 . S
C2806 C2798 1.378 . S
C2806 C2801 1.350 . S
C2807 H2794 0.929 . S
C2807 C2799 1.433 . S
C2807 N2809 1.384 . S
N2808 C2804 1.427 . S
N2808 C2805 1.384 . S
N2809 C2801 1.427 . S
N2809 C2807 1.384 . S
H2810 C2816 0.930 . S
H2811 C2820 0.930 . S
H2812 C2825 0.929 . S
H2813 C2823 0.929 . S
H2814 C2818 0.929 . S
H2815 C2824 0.929 . S
C2816 H2810 0.930 . S
C2816 C2817 1.367 . S
C2816 C2824 1.378 . S
C2817 C2816 1.367 . S
C2817 C2825 1.433 . S
C2818 H2814 0.929 . S
C2818 C2820 1.378 . S
C2818 C2822 1.350 . S
C2819 C2822 1.463 . S
C2819 C2824 1.350 . S
C2819 N2827 1.427 . S
C2820 H2811 0.930 . S
C2820 C2818 1.378 . S
C2820 C2821 1.367 . S
C2821 C2820 1.367 . S
C2821 C2823 1.433 . S
C2822 C2818 1.350 . S
C2822 C2819 1.463 . S
C2822 N2826 1.427 . S
C2823 H2813 0.929 . S
C2823 C2821 1.433 . S
C2823 N2826 1.384 . S
C2824 H2815 0.929 . S
C2824 C2816 1.378 . S
C2824 C2819 1.350 . S
C2825 H2812 0.929 . S
C2825 C2817 1.433 . S
C2825 N2827 1.384 . S
N2826 C2822 1.427 . S
N2826 C2823 1.384 . S
N2827 C2819 1.427 . S
N2827 C2825 1.384 . S
H2828 C2834 0.930 . S
H2829 C2838 0.930 . S
H2830 C2843 0.929 . S
H2831 C2841 0.929 . S
H2832 C2836 0.929 . S
H2833 C2842 0.929 . S
C2834 H2828 0.930 . S
C2834 C2835 1.367 . S
C2834 C2842 1.378 . S
C2835 C2834 1.367 . S
C2835 C2843 1.433 . S
C2836 H2832 0.929 . S
C2836 C2838 1.378 . S
C2836 C2840 1.350 . S
C2837 C2840 1.463 1_565 S
C2837 C2842 1.350 . S
C2837 N2845 1.427 . S
C2838 H2829 0.930 . S
C2838 C2836 1.378 . S
C2838 C2839 1.367 . S
C2839 C2838 1.367 . S
C2839 C2841 1.433 . S
C2840 C2836 1.350 . S
C2840 C2837 1.463 1_545 S
C2840 N2844 1.427 . S
C2841 H2831 0.929 . S
C2841 C2839 1.433 . S
C2841 N2844 1.384 . S
C2842 H2833 0.929 . S
C2842 C2834 1.378 . S
C2842 C2837 1.350 . S
C2843 H2830 0.929 . S
C2843 C2835 1.433 . S
C2843 N2845 1.384 . S
N2844 C2840 1.427 . S
N2844 C2841 1.384 . S
N2845 C2837 1.427 . S
N2845 C2843 1.384 . S
H2846 C2852 0.930 1_556 S
H2847 C2856 0.930 1_554 S
H2848 C2861 0.929 . S
H2849 C2859 0.929 . S
H2850 C2854 0.929 . S
H2851 C2860 0.929 . S
C2852 H2846 0.930 1_554 S
C2852 C2853 1.367 . S
C2852 C2860 1.378 1_554 S
C2853 C2852 1.367 . S
C2853 C2861 1.433 . S
C2854 H2850 0.929 . S
C2854 C2856 1.378 1_554 S
C2854 C2858 1.350 1_554 S
C2855 C2858 1.463 1_554 S
C2855 C2860 1.350 1_554 S
C2855 N2863 1.427 . S
C2856 H2847 0.930 1_556 S
C2856 C2854 1.378 1_556 S
C2856 C2857 1.367 . S
C2857 C2856 1.367 . S
C2857 C2859 1.433 . S
C2858 C2854 1.350 1_556 S
C2858 C2855 1.463 1_556 S
C2858 N2862 1.427 . S
C2859 H2849 0.929 . S
C2859 C2857 1.433 . S
C2859 N2862 1.384 . S
C2860 H2851 0.929 . S
C2860 C2852 1.378 1_556 S
C2860 C2855 1.350 1_556 S
C2861 H2848 0.929 . S
C2861 C2853 1.433 . S
C2861 N2863 1.384 . S
N2862 C2858 1.427 . S
N2862 C2859 1.384 . S
N2863 C2855 1.427 . S
N2863 C2861 1.384 . S
H2864 C2870 0.930 . S
H2865 C2874 0.930 . S
H2866 C2879 0.929 . S
H2867 C2877 0.929 . S
H2868 C2872 0.929 . S
H2869 C2878 0.929 . S
C2870 H2864 0.930 . S
C2870 C2871 1.367 . S
C2870 C2878 1.378 . S
C2871 C2870 1.367 . S
C2871 C2879 1.433 . S
C2872 H2868 0.929 . S
C2872 C2874 1.378 . S
C2872 C2876 1.350 . S
C2873 C2876 1.463 . S
C2873 C2878 1.350 . S
C2873 N2881 1.427 . S
C2874 H2865 0.930 . S
C2874 C2872 1.378 . S
C2874 C2875 1.367 . S
C2875 C2874 1.367 . S
C2875 C2877 1.433 . S
C2876 C2872 1.350 . S
C2876 C2873 1.463 . S
C2876 N2880 1.427 . S
C2877 H2867 0.929 . S
C2877 C2875 1.433 . S
C2877 N2880 1.384 . S
C2878 H2869 0.929 . S
C2878 C2870 1.378 . S
C2878 C2873 1.350 . S
C2879 H2866 0.929 . S
C2879 C2871 1.433 . S
C2879 N2881 1.384 . S
N2880 C2876 1.427 . S
N2880 C2877 1.384 . S
N2881 C2873 1.427 . S
N2881 C2879 1.384 . S
H2882 C2888 0.930 . S
H2883 C2892 0.930 . S
H2884 C2897 0.929 . S
H2885 C2895 0.929 . S
H2886 C2890 0.929 1_556 S
H2887 C2896 0.929 1_554 S
C2888 H2882 0.930 . S
C2888 C2889 1.367 . S
C2888 C2896 1.378 . S
C2889 C2888 1.367 . S
C2889 C2897 1.433 . S
C2890 H2886 0.929 1_554 S
C2890 C2892 1.378 . S
C2890 C2894 1.350 . S
C2891 C2894 1.463 1_556 S
C2891 C2896 1.350 . S
C2891 N2899 1.427 . S
C2892 H2883 0.930 . S
C2892 C2890 1.378 . S
C2892 C2893 1.367 . S
C2893 C2892 1.367 . S
C2893 C2895 1.433 . S
C2894 C2890 1.350 . S
C2894 C2891 1.463 1_554 S
C2894 N2898 1.427 . S
C2895 H2885 0.929 . S
C2895 C2893 1.433 . S
C2895 N2898 1.384 . S
C2896 H2887 0.929 1_556 S
C2896 C2888 1.378 . S
C2896 C2891 1.350 . S
C2897 H2884 0.929 . S
C2897 C2889 1.433 . S
C2897 N2899 1.384 . S
N2898 C2894 1.427 . S
N2898 C2895 1.384 . S
N2899 C2891 1.427 . S
N2899 C2897 1.384 . S
H2900 C2906 0.930 . S
H2901 C2910 0.930 . S
H2902 C2915 0.929 . S
H2903 C2913 0.929 . S
H2904 C2908 0.929 . S
H2905 C2914 0.929 . S
C2906 H2900 0.930 . S
C2906 C2907 1.367 . S
C2906 C2914 1.378 . S
C2907 C2906 1.367 . S
C2907 C2915 1.433 . S
C2908 H2904 0.929 . S
C2908 C2910 1.378 . S
C2908 C2912 1.350 . S
C2909 C2912 1.463 . S
C2909 C2914 1.350 . S
C2909 N2917 1.427 . S
C2910 H2901 0.930 . S
C2910 C2908 1.378 . S
C2910 C2911 1.367 . S
C2911 C2910 1.367 . S
C2911 C2913 1.433 . S
C2912 C2908 1.350 . S
C2912 C2909 1.463 . S
C2912 N2916 1.427 . S
C2913 H2903 0.929 . S
C2913 C2911 1.433 . S
C2913 N2916 1.384 . S
C2914 H2905 0.929 . S
C2914 C2906 1.378 . S
C2914 C2909 1.350 . S
C2915 H2902 0.929 . S
C2915 C2907 1.433 . S
C2915 N2917 1.384 . S
N2916 C2912 1.427 . S
N2916 C2913 1.384 . S
N2917 C2909 1.427 . S
N2917 C2915 1.384 . S
H2918 C2924 0.930 . S
H2919 C2928 0.930 . S
H2920 C2933 0.929 . S
H2921 C2931 0.929 . S
H2922 C2926 0.929 . S
H2923 C2932 0.929 . S
C2924 H2918 0.930 . S
C2924 C2925 1.367 . S
C2924 C2932 1.378 . S
C2925 C2924 1.367 . S
C2925 C2933 1.433 . S
C2926 H2922 0.929 . S
C2926 C2928 1.378 . S
C2926 C2930 1.350 . S
C2927 C2930 1.463 . S
C2927 C2932 1.350 . S
C2927 N2935 1.427 . S
C2928 H2919 0.930 . S
C2928 C2926 1.378 . S
C2928 C2929 1.367 . S
C2929 C2928 1.367 . S
C2929 C2931 1.433 . S
C2930 C2926 1.350 . S
C2930 C2927 1.463 . S
C2930 N2934 1.427 . S
C2931 H2921 0.929 . S
C2931 C2929 1.433 . S
C2931 N2934 1.384 . S
C2932 H2923 0.929 . S
C2932 C2924 1.378 . S
C2932 C2927 1.350 . S
C2933 H2920 0.929 . S
C2933 C2925 1.433 . S
C2933 N2935 1.384 . S
N2934 C2930 1.427 . S
N2934 C2931 1.384 . S
N2935 C2927 1.427 . S
N2935 C2933 1.384 . S
H2936 C2942 0.930 . S
H2937 C2946 0.930 . S
H2938 C2951 0.929 . S
H2939 C2949 0.929 . S
H2940 C2944 0.929 . S
H2941 C2950 0.929 . S
C2942 H2936 0.930 . S
C2942 C2943 1.367 . S
C2942 C2950 1.378 . S
C2943 C2942 1.367 . S
C2943 C2951 1.433 . S
C2944 H2940 0.929 . S
C2944 C2946 1.378 . S
C2944 C2948 1.350 . S
C2945 C2948 1.463 . S
C2945 C2950 1.350 . S
C2945 N2953 1.427 . S
C2946 H2937 0.930 . S
C2946 C2944 1.378 . S
C2946 C2947 1.367 . S
C2947 C2946 1.367 . S
C2947 C2949 1.433 . S
C2948 C2944 1.350 . S
C2948 C2945 1.463 . S
C2948 N2952 1.427 . S
C2949 H2939 0.929 . S
C2949 C2947 1.433 . S
C2949 N2952 1.384 . S
C2950 H2941 0.929 . S
C2950 C2942 1.378 . S
C2950 C2945 1.350 . S
C2951 H2938 0.929 . S
C2951 C2943 1.433 . S
C2951 N2953 1.384 . S
N2952 C2948 1.427 . S
N2952 C2949 1.384 . S
N2953 C2945 1.427 . S
N2953 C2951 1.384 . S
H2954 C2960 0.930 . S
H2955 C2964 0.930 . S
H2956 C2969 0.929 . S
H2957 C2967 0.929 . S
H2958 C2962 0.929 . S
H2959 C2968 0.929 . S
C2960 H2954 0.930 . S
C2960 C2961 1.367 . S
C2960 C2968 1.378 . S
C2961 C2960 1.367 . S
C2961 C2969 1.433 . S
C2962 H2958 0.929 . S
C2962 C2964 1.378 . S
C2962 C2966 1.350 . S
C2963 C2966 1.463 1_556 S
C2963 C2968 1.350 . S
C2963 N2971 1.427 . S
C2964 H2955 0.930 . S
C2964 C2962 1.378 . S
C2964 C2965 1.367 . S
C2965 C2964 1.367 . S
C2965 C2967 1.433 . S
C2966 C2962 1.350 . S
C2966 C2963 1.463 1_554 S
C2966 N2970 1.427 . S
C2967 H2957 0.929 . S
C2967 C2965 1.433 . S
C2967 N2970 1.384 . S
C2968 H2959 0.929 . S
C2968 C2960 1.378 . S
C2968 C2963 1.350 . S
C2969 H2956 0.929 . S
C2969 C2961 1.433 . S
C2969 N2971 1.384 . S
N2970 C2966 1.427 . S
N2970 C2967 1.384 . S
N2971 C2963 1.427 . S
N2971 C2969 1.384 . S
H2972 C2978 0.930 . S
H2973 C2982 0.930 . S
H2974 C2987 0.929 . S
H2975 C2985 0.929 . S
H2976 C2980 0.929 . S
H2977 C2986 0.929 . S
C2978 H2972 0.930 . S
C2978 C2979 1.367 . S
C2978 C2986 1.378 . S
C2979 C2978 1.367 . S
C2979 C2987 1.433 . S
C2980 H2976 0.929 . S
C2980 C2982 1.378 . S
C2980 C2984 1.350 . S
C2981 C2984 1.463 . S
C2981 C2986 1.350 . S
C2981 N2989 1.427 . S
C2982 H2973 0.930 . S
C2982 C2980 1.378 . S
C2982 C2983 1.367 . S
C2983 C2982 1.367 . S
C2983 C2985 1.433 . S
C2984 C2980 1.350 . S
C2984 C2981 1.463 . S
C2984 N2988 1.427 . S
C2985 H2975 0.929 . S
C2985 C2983 1.433 . S
C2985 N2988 1.384 . S
C2986 H2977 0.929 . S
C2986 C2978 1.378 . S
C2986 C2981 1.350 . S
C2987 H2974 0.929 . S
C2987 C2979 1.433 . S
C2987 N2989 1.384 . S
N2988 C2984 1.427 . S
N2988 C2985 1.384 . S
N2989 C2981 1.427 . S
N2989 C2987 1.384 . S
H2990 C2996 0.930 . S
H2991 C3000 0.930 . S
H2992 C3005 0.929 . S
H2993 C3003 0.929 . S
H2994 C2998 0.929 . S
H2995 C3004 0.929 . S
C2996 H2990 0.930 . S
C2996 C2997 1.367 . S
C2996 C3004 1.378 . S
C2997 C2996 1.367 . S
C2997 C3005 1.433 . S
C2998 H2994 0.929 . S
C2998 C3000 1.378 . S
C2998 C3002 1.350 . S
C2999 C3002 1.463 . S
C2999 C3004 1.350 . S
C2999 N3007 1.427 . S
C3000 H2991 0.930 . S
C3000 C2998 1.378 . S
C3000 C3001 1.367 . S
C3001 C3000 1.367 . S
C3001 C3003 1.433 . S
C3002 C2998 1.350 . S
C3002 C2999 1.463 . S
C3002 N3006 1.427 . S
C3003 H2993 0.929 . S
C3003 C3001 1.433 . S
C3003 N3006 1.384 . S
C3004 H2995 0.929 . S
C3004 C2996 1.378 . S
C3004 C2999 1.350 . S
C3005 H2992 0.929 . S
C3005 C2997 1.433 . S
C3005 N3007 1.384 . S
N3006 C3002 1.427 . S
N3006 C3003 1.384 . S
N3007 C2999 1.427 . S
N3007 C3005 1.384 . S
C1287 C7 0.487 . S
C1291 C1091 0.535 . S
C1305 C47 0.528 . S
C1309 C331 0.579 . S
C1323 C87 0.506 . S
C1327 C1011 0.554 . S
C1341 C411 0.575 . S
C1345 C127 0.525 . S
C1359 C167 0.481 . S
C1363 C1171 0.529 . S
C1377 C571 0.579 . S
C1381 C207 0.528 . S
C1395 C1251 0.556 . S
C1399 C247 0.507 . S
C1413 C287 0.480 . S
C1417 C491 0.530 . S
C1431 C336 0.482 . S
C1435 C762 0.531 . S
C1449 C376 0.508 . S
C1453 C2 0.557 . S
C1467 C682 0.572 . S
C1471 C416 0.520 . S
C1485 C82 0.578 . S
C1489 C456 0.526 . S
C1503 C496 0.531 . S
C1507 C842 0.583 . S
C1521 C536 0.512 . S
C1525 C242 0.564 . S
C1539 C576 0.512 . S
C1543 C922 0.564 . S
C1557 C162 0.539 . S
C1561 C616 0.491 . S
C1575 C451 0.539 . S
C1579 C647 0.490 . S
C1593 C971 0.566 . S
C1597 C687 0.516 . S
C1611 C371 0.528 . S
C1615 C727 0.479 . S
C1629 C767 0.528 . S
C1633 C1051 0.580 . S
C1647 C531 0.553 . S
C1651 C807 0.502 . S
C1665 C1211 0.558 . S
C1669 C847 0.509 . S
C1683 C611 0.582 . S
C1687 C887 0.531 . S
C1701 C927 0.480 . S
C1705 C1131 0.530 . S
C1719 C976 0.497 . S
C1723 C122 0.548 . S
C1737 C1016 0.482 . S
C1741 C642 0.532 . S
C1755 C1056 0.486 . S
C1759 C42 0.536 . S
C1773 C1096 0.521 . S
C1777 C722 0.571 . S
C1791 C202 0.529 . S
C1795 C1136 0.480 . S
C1809 C882 0.582 . S
C1813 C1176 0.531 . S
C1827 C1216 0.510 . S
C1831 C282 0.562 . S
C1845 C1256 0.480 . S
C1849 C802 0.529 . S
C1863 C19 2.665 . S
C1867 C739 2.666 . S
C1881 C779 2.670 . S
C1885 C59 2.668 . S
C1899 C99 2.667 . S
C1903 C659 2.666 . S
C1917 C139 2.665 . S
C1921 C699 2.665 . S
C1935 C899 2.670 . S
C1939 C179 2.672 . S
C1953 C219 2.672 . S
C1957 C939 2.674 . S
C1971 C819 2.667 . S
C1975 C259 2.668 . S
C1989 C299 2.667 . S
C1993 C859 2.666 . S
C2007 C1050 2.665 . S
C2011 C330 2.665 . S
C2025 C370 2.666 . S
C2029 C1090 2.668 . S
C2043 C410 2.671 . S
C2047 C970 2.669 . S
C2061 C450 2.667 . S
C2065 C1010 2.668 . S
C2079 C1210 2.667 . S
C2083 C490 2.668 . S
C2097 C1250 2.669 . S
C2101 C530 2.668 . S
C2115 C570 2.669 . S
C2119 C1130 2.671 . S
C2133 C610 2.672 . S
C2137 C1170 2.673 . S
C2151 C11 3.307 . S
C2155 C962 3.307 . S
C2169 C362 3.311 . S
C2173 C51 3.311 . S
C2187 C91 3.312 . S
C2191 C1042 3.312 . S
C2205 C131 3.310 . S
C2209 C442 3.310 . S
C2223 C1122 3.306 . S
C2227 C171 3.306 . S
C2241 C522 3.311 . S
C2245 C211 3.311 . S
C2259 C251 3.305 . S
C2263 C1202 3.305 . S
C2277 C291 3.306 . S
C2281 C602 3.306 . S
C2295 C651 3.311 . S
C2299 C322 3.311 . S
C2313 C731 3.307 . S
C2317 C402 3.307 . S
C2331 C811 3.310 . S
C2335 C482 3.310 . S
C2349 C562 3.312 . S
C2353 C891 3.312 . S
C2367 C691 3.305 . S
C2371 C1002 3.305 . S
C2385 C771 3.312 . S
C2389 C1082 3.312 . S
C2403 C1162 3.307 . S
C2407 C851 3.307 . S
C2421 C1242 3.312 . S
C2425 C931 3.312 . S
C2439 C10 4.571 . S
C2443 C210 4.572 . S
C2457 C250 4.566 . S
C2461 C50 4.565 . S
C2475 C290 4.567 . S
C2479 C90 4.567 . S
C2493 C170 4.567 . S
C2497 C130 4.567 . S
C2511 C339 4.566 . S
C2515 C539 4.566 . S
C2529 C379 4.572 . S
C2533 C579 4.572 . S
C2547 C619 4.570 . S
C2551 C419 4.569 . S
C2565 C459 4.566 . S
C2569 C499 4.566 . S
C2583 C650 4.567 . S
C2587 C850 4.567 . S
C2601 C690 4.568 . S
C2605 C890 4.568 . S
C2619 C730 4.572 . S
C2623 C930 4.572 . S
C2637 C810 4.566 . S
C2641 C770 4.566 . S
C2655 C979 4.571 . S
C2659 C1179 4.571 . S
C2673 C1019 4.565 . S
C2677 C1219 4.565 . S
C2691 C1259 4.571 . S
C2695 C1059 4.571 . S
C2709 C1099 4.572 . S
C2713 C1139 4.572 . S
C2727 C16 0.712 . S
C2731 C176 0.707 . S
C2745 C56 0.711 . S
C2749 C216 0.706 . S
C2763 C256 0.709 . S
C2767 C96 0.699 . S
C2781 C296 0.706 . S
C2785 C136 0.711 . S
C2799 C327 0.700 . S
C2803 C487 0.689 . S
C2817 C527 0.689 . S
C2821 C367 0.685 . S
C2835 C567 0.693 . S
C2839 C407 0.686 . S
C2853 C607 0.709 . S
C2857 C447 0.711 . S
C2871 C656 0.687 . S
C2875 C816 0.696 . S
C2889 C856 0.699 . S
C2893 C696 0.709 . S
C2907 C736 0.704 . S
C2911 C896 0.693 . S
C2925 C936 0.698 . S
C2929 C776 0.688 . S
C2943 C1127 0.701 . S
C2947 C967 0.710 . S
C2961 C1007 0.690 . S
C2965 C1167 0.701 . S
C2979 C1047 0.710 . S
C2983 C1207 0.711 . S
C2997 C1087 0.685 . S
C3001 C1247 0.691 . S
