# Generated by pormake.
# Topology lcy-a, (4)-cn, num edge types: 1
# Building blocks:
#     Node 0, Type 0, BuildingBlock: ICAMEG_clean_sbu_1, # of connection points: 4
#     Node 1, Type 0, BuildingBlock: ICAMEG_clean_sbu_1, # of connection points: 4
#     Node 2, Type 0, BuildingBlock: ICAMEG_clean_sbu_1, # of connection points: 4
#     Node 3, Type 0, BuildingBlock: ICAMEG_clean_sbu_1, # of connection points: 4
#     Node 4, Type 0, BuildingBlock: ICAMEG_clean_sbu_1, # of connection points: 4
#     Node 5, Type 0, BuildingBlock: ICAMEG_clean_sbu_1, # of connection points: 4
#     Node 6, Type 0, BuildingBlock: ICAMEG_clean_sbu_1, # of connection points: 4
#     Node 7, Type 0, BuildingBlock: ICAMEG_clean_sbu_1, # of connection points: 4
#     Node 8, Type 0, BuildingBlock: ICAMEG_clean_sbu_1, # of connection points: 4
#     Node 9, Type 0, BuildingBlock: ICAMEG_clean_sbu_1, # of connection points: 4
#     Node 10, Type 0, BuildingBlock: ICAMEG_clean_sbu_1, # of connection points: 4
#     Node 11, Type 0, BuildingBlock: ICAMEG_clean_sbu_1, # of connection points: 4
#     Node 12, Type 0, BuildingBlock: ICAMEG_clean_sbu_1, # of connection points: 4
#     Node 13, Type 0, BuildingBlock: ICAMEG_clean_sbu_1, # of connection points: 4
#     Node 14, Type 0, BuildingBlock: ICAMEG_clean_sbu_1, # of connection points: 4
#     Node 15, Type 0, BuildingBlock: ICAMEG_clean_sbu_1, # of connection points: 4
#     Node 16, Type 0, BuildingBlock: ICAMEG_clean_sbu_1, # of connection points: 4
#     Node 17, Type 0, BuildingBlock: ICAMEG_clean_sbu_1, # of connection points: 4
#     Node 18, Type 0, BuildingBlock: ICAMEG_clean_sbu_1, # of connection points: 4
#     Node 19, Type 0, BuildingBlock: ICAMEG_clean_sbu_1, # of connection points: 4
#     Node 20, Type 0, BuildingBlock: ICAMEG_clean_sbu_1, # of connection points: 4
#     Node 21, Type 0, BuildingBlock: ICAMEG_clean_sbu_1, # of connection points: 4
#     Node 22, Type 0, BuildingBlock: ICAMEG_clean_sbu_1, # of connection points: 4
#     Node 23, Type 0, BuildingBlock: ICAMEG_clean_sbu_1, # of connection points: 4
#     Edge 24, Type (0, 0), BuildingBlock: AJUNOK_clean_linker_0, # of connection points: 2
#     Edge 25, Type (0, 0), BuildingBlock: AJUNOK_clean_linker_0, # of connection points: 2
#     Edge 26, Type (0, 0), BuildingBlock: AJUNOK_clean_linker_0, # of connection points: 2
#     Edge 27, Type (0, 0), BuildingBlock: AJUNOK_clean_linker_0, # of connection points: 2
#     Edge 28, Type (0, 0), BuildingBlock: AJUNOK_clean_linker_0, # of connection points: 2
#     Edge 29, Type (0, 0), BuildingBlock: AJUNOK_clean_linker_0, # of connection points: 2
#     Edge 30, Type (0, 0), BuildingBlock: AJUNOK_clean_linker_0, # of connection points: 2
#     Edge 31, Type (0, 0), BuildingBlock: AJUNOK_clean_linker_0, # of connection points: 2
#     Edge 32, Type (0, 0), BuildingBlock: AJUNOK_clean_linker_0, # of connection points: 2
#     Edge 33, Type (0, 0), BuildingBlock: AJUNOK_clean_linker_0, # of connection points: 2
#     Edge 34, Type (0, 0), BuildingBlock: AJUNOK_clean_linker_0, # of connection points: 2
#     Edge 35, Type (0, 0), BuildingBlock: AJUNOK_clean_linker_0, # of connection points: 2
#     Edge 36, Type (0, 0), BuildingBlock: AJUNOK_clean_linker_0, # of connection points: 2
#     Edge 37, Type (0, 0), BuildingBlock: AJUNOK_clean_linker_0, # of connection points: 2
#     Edge 38, Type (0, 0), BuildingBlock: AJUNOK_clean_linker_0, # of connection points: 2
#     Edge 39, Type (0, 0), BuildingBlock: AJUNOK_clean_linker_0, # of connection points: 2
#     Edge 40, Type (0, 0), BuildingBlock: AJUNOK_clean_linker_0, # of connection points: 2
#     Edge 41, Type (0, 0), BuildingBlock: AJUNOK_clean_linker_0, # of connection points: 2
#     Edge 42, Type (0, 0), BuildingBlock: AJUNOK_clean_linker_0, # of connection points: 2
#     Edge 43, Type (0, 0), BuildingBlock: AJUNOK_clean_linker_0, # of connection points: 2
#     Edge 44, Type (0, 0), BuildingBlock: AJUNOK_clean_linker_0, # of connection points: 2
#     Edge 45, Type (0, 0), BuildingBlock: AJUNOK_clean_linker_0, # of connection points: 2
#     Edge 46, Type (0, 0), BuildingBlock: AJUNOK_clean_linker_0, # of connection points: 2
#     Edge 47, Type (0, 0), BuildingBlock: AJUNOK_clean_linker_0, # of connection points: 2
#     Edge 48, Type (0, 0), BuildingBlock: AJUNOK_clean_linker_0, # of connection points: 2
#     Edge 49, Type (0, 0), BuildingBlock: AJUNOK_clean_linker_0, # of connection points: 2
#     Edge 50, Type (0, 0), BuildingBlock: AJUNOK_clean_linker_0, # of connection points: 2
#     Edge 51, Type (0, 0), BuildingBlock: AJUNOK_clean_linker_0, # of connection points: 2
#     Edge 52, Type (0, 0), BuildingBlock: AJUNOK_clean_linker_0, # of connection points: 2
#     Edge 53, Type (0, 0), BuildingBlock: AJUNOK_clean_linker_0, # of connection points: 2
#     Edge 54, Type (0, 0), BuildingBlock: AJUNOK_clean_linker_0, # of connection points: 2
#     Edge 55, Type (0, 0), BuildingBlock: AJUNOK_clean_linker_0, # of connection points: 2
#     Edge 56, Type (0, 0), BuildingBlock: AJUNOK_clean_linker_0, # of connection points: 2
#     Edge 57, Type (0, 0), BuildingBlock: AJUNOK_clean_linker_0, # of connection points: 2
#     Edge 58, Type (0, 0), BuildingBlock: AJUNOK_clean_linker_0, # of connection points: 2
#     Edge 59, Type (0, 0), BuildingBlock: AJUNOK_clean_linker_0, # of connection points: 2
#     Edge 60, Type (0, 0), BuildingBlock: AJUNOK_clean_linker_0, # of connection points: 2
#     Edge 61, Type (0, 0), BuildingBlock: AJUNOK_clean_linker_0, # of connection points: 2
#     Edge 62, Type (0, 0), BuildingBlock: AJUNOK_clean_linker_0, # of connection points: 2
#     Edge 63, Type (0, 0), BuildingBlock: AJUNOK_clean_linker_0, # of connection points: 2
#     Edge 64, Type (0, 0), BuildingBlock: AJUNOK_clean_linker_0, # of connection points: 2
#     Edge 65, Type (0, 0), BuildingBlock: AJUNOK_clean_linker_0, # of connection points: 2
#     Edge 66, Type (0, 0), BuildingBlock: AJUNOK_clean_linker_0, # of connection points: 2
#     Edge 67, Type (0, 0), BuildingBlock: AJUNOK_clean_linker_0, # of connection points: 2
#     Edge 68, Type (0, 0), BuildingBlock: AJUNOK_clean_linker_0, # of connection points: 2
#     Edge 69, Type (0, 0), BuildingBlock: AJUNOK_clean_linker_0, # of connection points: 2
#     Edge 70, Type (0, 0), BuildingBlock: AJUNOK_clean_linker_0, # of connection points: 2
#     Edge 71, Type (0, 0), BuildingBlock: AJUNOK_clean_linker_0, # of connection points: 2
# Relax obj value: 0.375
# Max RMSD: 0.170
# Mean RMSD: 0.170
data_MOF--net-lcy-a--node1-ICAMEG_clean_sbu_1--edge1-AJUNOK_clean_linker_0
_symmetry_space_group_name_H-M    P1
_symmetry_Int_Tables_number       1
_symmetry_cell_setting            triclinic
loop_
_symmetry_equiv_pos_as_xyz
'x, y, z'
_cell_length_a     45.694387
_cell_length_b     45.750257
_cell_length_c     45.626461
_cell_angle_alpha  89.833736
_cell_angle_beta   89.997542
_cell_angle_gamma 90.07398
loop_
_atom_site_label
_atom_site_type_symbol
_atom_site_fract_x
_atom_site_fract_y
_atom_site_fract_z
_atom_type_partial_charge
Co0 Co 0.22444 0.30912 0.39147 0.0
Co1 Co 0.16511 0.27238 0.36613 0.0
O2 O 0.18551 0.29294 0.39809 0.0
C3 C 0.21121 0.34284 0.44707 0.0
O4 O 0.18968 0.32671 0.45709 0.0
C5 C 0.15745 0.23297 0.41589 0.0
O6 O 0.18605 0.23139 0.4176 0.0
O7 O 0.19849 0.24395 0.3632 0.0
O8 O 0.23449 0.27721 0.36331 0.0
H9 H 0.1567 0.22253 0.26842 0.0
H10 H 0.20173 0.27912 0.44706 0.0
O11 O 0.21794 0.34257 0.41984 0.0
H12 H 0.30411 0.24825 0.43811 0.0
H13 H 0.32532 0.34059 0.41732 0.0
H14 H 0.25488 0.32682 0.33874 0.0
H15 H 0.28069 0.27621 0.39876 0.0
H16 H 0.27533 0.33083 0.4285 0.0
O17 O 0.14541 0.2478 0.39578 0.0
H18 H 0.18221 0.24895 0.30796 0.0
H19 H 0.10423 0.25004 0.35865 0.0
H20 H 0.29838 0.34615 0.32518 0.0
H21 H 0.224 0.25106 0.48678 0.0
H22 H 0.37742 0.35595 0.35953 0.0
H23 H 0.27591 0.23568 0.48292 0.0
O24 O 0.20727 0.33304 0.35813 0.0
H25 H 0.09189 0.33421 0.41981 0.0
H26 H 0.13094 0.3076 0.32274 0.0
H27 H 0.09146 0.34411 0.32622 0.0
H28 H 0.0716 0.35758 0.37502 0.0
H29 H 0.13155 0.29799 0.41537 0.0
H30 H 0.07797 0.22341 0.31977 0.0
H31 H 0.10419 0.20963 0.27418 0.0
O32 O 0.18391 0.29676 0.33541 0.0
C33 C 0.22536 0.25109 0.36011 0.0
C34 C 0.14502 0.22849 0.28815 0.0
C35 C 0.10084 0.22894 0.31699 0.0
N36 N 0.14468 0.25124 0.3355 0.0
C37 C 0.15933 0.2435 0.3106 0.0
C38 C 0.11586 0.24395 0.33896 0.0
C39 C 0.11556 0.22123 0.29141 0.0
C40 C 0.22474 0.27471 0.44583 0.0
N41 N 0.24104 0.28385 0.42238 0.0
C42 C 0.23706 0.25771 0.46813 0.0
C43 C 0.26607 0.24888 0.46586 0.0
C44 C 0.28191 0.25603 0.44083 0.0
C45 C 0.26858 0.27249 0.41877 0.0
C46 C 0.31047 0.34025 0.39891 0.0
C47 C 0.26949 0.3321 0.35605 0.0
C48 C 0.28145 0.33354 0.40576 0.0
N49 N 0.26226 0.32662 0.38411 0.0
C50 C 0.29636 0.34326 0.34861 0.0
C51 C 0.32042 0.34482 0.3692 0.0
C52 C 0.19613 0.32168 0.33493 0.0
C53 C 0.1003 0.32846 0.39842 0.0
C54 C 0.12248 0.31339 0.34407 0.0
C55 C 0.10008 0.33405 0.34589 0.0
C56 C 0.08895 0.34159 0.37328 0.0
N57 N 0.13344 0.30052 0.36883 0.0
C58 C 0.12271 0.3079 0.39576 0.0
Co59 Co 0.933 0.96894 0.64032 0.0
Co60 Co 0.97474 0.91298 0.61612 0.0
O61 O 0.95064 0.93131 0.64724 0.0
C62 C 0.89522 0.95369 0.6923 0.0
O63 O 0.90961 0.93103 0.70248 0.0
C64 C 0.00973 0.90769 0.66894 0.0
O65 O 0.0108 0.93632 0.66945 0.0
O66 O 0.00237 0.94722 0.61576 0.0
O67 O 0.9685 0.98222 0.61802 0.0
H68 H 0.03436 0.90775 0.52363 0.0
H69 H 0.95962 0.94508 0.69651 0.0
O70 O 0.89644 0.95959 0.66475 0.0
H71 H 0.97354 0.05145 0.70215 0.0
H72 H 0.87661 0.06069 0.65533 0.0
H73 H 0.93175 0.00025 0.58641 0.0
H74 H 0.95466 0.02922 0.65738 0.0
H75 H 0.89596 0.0144 0.67044 0.0
O76 O -0.00291 0.89419 0.6482 0.0
H77 H 0.00426 0.93204 0.56123 0.0
H78 H -0.00073 0.85306 0.61007 0.0
H79 H 0.9192 0.04525 0.57083 0.0
H80 H 0.98132 0.96622 0.74044 0.0
H81 H 0.88175 0.11636 0.60409 0.0
H82 H 0.98741 0.01997 0.74428 0.0
O83 O 0.91394 0.95182 0.60439 0.0
H84 H 0.90837 0.83815 0.66245 0.0
H85 H 0.94601 0.87778 0.56915 0.0
H86 H 0.91051 0.83715 0.5684 0.0
H87 H 0.89157 0.81693 0.6153 0.0
H88 H 0.94349 0.87905 0.66215 0.0
H89 H 0.02965 0.82797 0.57321 0.0
H90 H 0.04713 0.85528 0.52944 0.0
O91 O 0.95252 0.93155 0.5829 0.0
C92 C 0.99489 0.97406 0.615 0.0
C93 C 0.02671 0.89555 0.54249 0.0
C94 C 0.02409 0.85079 0.57034 0.0
N95 N -0.00053 0.89382 0.58745 0.0
C96 C 0.00953 0.90916 0.56378 0.0
C97 C 0.00695 0.86513 0.59116 0.0
C98 C 0.0339 0.86613 0.54579 0.0
C99 C 0.96155 0.96847 0.69759 0.0
N100 N 0.9522 0.98595 0.67504 0.0
C101 C 0.97433 0.98035 0.7227 0.0
C102 C 0.97782 0.01045 0.72483 0.0
C103 C 0.96984 0.0281 0.70132 0.0
C104 C 0.9582 0.01531 0.67613 0.0
C105 C 0.88876 0.04813 0.63937 0.0
C106 C 0.91957 0.0135 0.60159 0.0
C107 C 0.89884 0.02107 0.64812 0.0
N108 N 0.91521 0.00488 0.62962 0.0
C109 C 0.91103 0.04047 0.5922 0.0
C110 C 0.89664 0.06051 0.61148 0.0
C111 C 0.92706 0.94269 0.5814 0.0
C112 C 0.91665 0.84658 0.64187 0.0
C113 C 0.93794 0.86907 0.58968 0.0
C114 C 0.91782 0.84606 0.5891 0.0
C115 C 0.9072 0.83473 0.61541 0.0
N116 N 0.94741 0.88036 0.61574 0.0
C117 C 0.93676 0.8696 0.64159 0.0
Co118 Co 0.26687 0.67413 0.89602 0.0
Co119 Co 0.32343 0.71507 0.8686 0.0
O120 O 0.30622 0.68983 0.89921 0.0
C121 C 0.28771 0.6369 0.94478 0.0
O122 O 0.30368 0.65877 0.95435 0.0
C123 C 0.34458 0.73626 0.92691 0.0
O124 O 0.33022 0.71596 0.94126 0.0
O125 O 0.28919 0.74241 0.8708 0.0
O126 O 0.25258 0.7098 0.87524 0.0
H127 H 0.32344 0.77519 0.77602 0.0
H128 H 0.22857 0.65689 0.9478 0.0
O129 O 0.27874 0.63749 0.91814 0.0
H130 H 0.2648 0.75557 0.97055 0.0
H131 H 0.15707 0.67315 0.89487 0.0
H132 H 0.24624 0.61772 0.87535 0.0
H133 H 0.27962 0.73123 0.92518 0.0
H134 H 0.20419 0.69329 0.90821 0.0
O135 O 0.3441 0.7381 0.89911 0.0
H136 H 0.30181 0.74331 0.81391 0.0
H137 H 0.38259 0.74132 0.85985 0.0
H138 H 0.2012 0.60111 0.85397 0.0
H139 H 0.21375 0.68033 0.9937 0.0
H140 H 0.1254 0.62335 0.8393 0.0
H141 H 0.23185 0.73012 0.00547 0.0
O142 O 0.27839 0.65654 0.85684 0.0
H143 H 0.40217 0.64772 0.90717 0.0
H144 H 0.35544 0.68837 0.81869 0.0
H145 H 0.39618 0.65364 0.8135 0.0
H146 H 0.42002 0.63318 0.85794 0.0
H147 H 0.36121 0.68205 0.91141 0.0
H148 H 0.40506 0.77338 0.8226 0.0
H149 H 0.37548 0.79041 0.78021 0.0
O150 O 0.30325 0.69373 0.83682 0.0
C151 C 0.26204 0.73555 0.87017 0.0
C152 C 0.33656 0.76792 0.7944 0.0
C153 C 0.38235 0.76694 0.82055 0.0
N154 N 0.34084 0.74047 0.83913 0.0
C155 C 0.32441 0.74986 0.81594 0.0
C156 C 0.36945 0.74891 0.84167 0.0
C157 C 0.36575 0.77647 0.79676 0.0
C158 C 0.23706 0.67836 0.95268 0.0
N159 N 0.25546 0.6923 0.93343 0.0
C160 C 0.22835 0.69162 0.97879 0.0
C161 C 0.2385 0.7195 0.98539 0.0
C162 C 0.25711 0.7337 0.96588 0.0
C163 C 0.26544 0.71969 0.94002 0.0
C164 C 0.17664 0.66171 0.88801 0.0
C165 C 0.22693 0.63112 0.87778 0.0
C166 C 0.20354 0.67261 0.89699 0.0
N167 N 0.22851 0.65763 0.89091 0.0
C168 C 0.20108 0.62208 0.86491 0.0
C169 C 0.17562 0.64045 0.86501 0.0
C170 C 0.28933 0.66989 0.83464 0.0
C171 C 0.39217 0.65672 0.88763 0.0
C172 C 0.36569 0.67971 0.83822 0.0
C173 C 0.38877 0.65999 0.83509 0.0
C174 C 0.40213 0.64851 0.86002 0.0
N175 N 0.35623 0.68804 0.8654 0.0
C176 C 0.369 0.67648 0.88991 0.0
Co177 Co 0.56046 0.01744 0.14305 0.0
Co178 Co 0.52266 0.07653 0.11836 0.0
O179 O 0.5448 0.0561 0.14952 0.0
C180 C 0.59599 0.02925 0.19746 0.0
O181 O 0.58188 0.0523 0.20699 0.0
C182 C 0.48453 0.08144 0.16913 0.0
O183 O 0.48069 0.05304 0.16839 0.0
O184 O 0.49388 0.04315 0.11486 0.0
O185 O 0.52593 0.00647 0.11813 0.0
H186 H 0.46982 0.08855 0.02231 0.0
H187 H 0.53194 0.04312 0.19747 0.0
O188 O 0.59604 0.02357 0.16987 0.0
H189 H 0.50633 0.93893 0.20089 0.0
H190 H 0.5946 0.91613 0.16173 0.0
H191 H 0.56896 0.98892 0.08868 0.0
H192 H 0.5327 0.95877 0.15892 0.0
H193 H 0.58836 0.96623 0.17626 0.0
O194 O 0.49954 0.09462 0.14984 0.0
H195 H 0.49893 0.06224 0.05934 0.0
H196 H 0.49788 0.13662 0.11475 0.0
H197 H 0.5872 0.94622 0.07103 0.0
H198 H 0.50421 0.02434 0.23885 0.0
H199 H 0.59776 0.86668 0.10234 0.0
H200 H 0.49173 0.97164 0.2416 0.0
O201 O 0.58228 0.0343 0.1077 0.0
H202 H 0.58782 0.14808 0.17074 0.0
H203 H 0.55449 0.11287 0.07429 0.0
H204 H 0.59037 0.15308 0.0768 0.0
H205 H 0.60712 0.1711 0.12529 0.0
H206 H 0.55235 0.10763 0.16716 0.0
H207 H 0.46866 0.16377 0.07834 0.0
H208 H 0.45448 0.13975 0.03169 0.0
O209 O 0.54574 0.05867 0.08627 0.0
C210 C 0.50027 0.01603 0.11297 0.0
C211 C 0.47584 0.09927 0.04255 0.0
C212 C 0.47516 0.14146 0.07402 0.0
N213 N 0.50004 0.09777 0.08924 0.0
C214 C 0.49233 0.08444 0.06363 0.0
C215 C 0.49161 0.12591 0.09461 0.0
C216 C 0.46723 0.12798 0.04784 0.0
C217 C 0.52795 0.01999 0.19826 0.0
N218 N 0.53777 0.00169 0.17663 0.0
C219 C 0.51148 0.00954 0.22189 0.0
C220 C 0.50439 0.98005 0.22338 0.0
C221 C 0.51281 0.9617 0.20072 0.0
C222 C 0.52882 0.97307 0.17721 0.0
C223 C 0.59089 0.93197 0.14455 0.0
C224 C 0.5773 0.97412 0.10462 0.0
C225 C 0.58705 0.96076 0.15327 0.0
N226 N 0.57672 0.98034 0.13352 0.0
C227 C 0.58657 0.94776 0.09468 0.0
C228 C 0.58866 0.92337 0.11425 0.0
C229 C 0.5701 0.04551 0.08485 0.0
C230 C 0.58053 0.14059 0.14947 0.0
C231 C 0.56165 0.12059 0.09549 0.0
C232 C 0.58198 0.14337 0.09676 0.0
C233 C 0.59138 0.15346 0.12397 0.0
N234 N 0.5508 0.10832 0.12061 0.0
C235 C 0.56026 0.11782 0.14733 0.0
Co236 Co 0.72509 0.18653 0.59715 0.0
Co237 Co 0.66704 0.22137 0.62903 0.0
O238 O 0.68446 0.19898 0.59621 0.0
C239 C 0.71233 0.14944 0.5441 0.0
O240 O 0.69559 0.16966 0.53238 0.0
C241 C 0.64285 0.24505 0.57264 0.0
O242 O 0.6553 0.22414 0.55753 0.0
O243 O 0.7001 0.25095 0.6286 0.0
O244 O 0.73742 0.22052 0.62115 0.0
H245 H 0.66712 0.2742 0.7256 0.0
H246 H 0.76636 0.18225 0.54384 0.0
O247 O 0.71743 0.15039 0.57181 0.0
H248 H 0.71372 0.27474 0.53149 0.0
H249 H 0.8329 0.19617 0.59649 0.0
H250 H 0.75026 0.13084 0.61363 0.0
H251 H 0.70467 0.24396 0.57437 0.0
H252 H 0.78439 0.21292 0.58751 0.0
O253 O 0.64484 0.24613 0.60048 0.0
H254 H 0.68885 0.2457 0.68535 0.0
H255 H 0.60733 0.24478 0.64067 0.0
H256 H 0.79642 0.1159 0.63126 0.0
H257 H 0.77511 0.21151 0.49999 0.0
H258 H 0.87371 0.14186 0.63882 0.0
H259 H 0.74878 0.25849 0.49338 0.0
O260 O 0.71571 0.16464 0.63463 0.0
H261 H 0.59067 0.15165 0.58893 0.0
H262 H 0.63759 0.1904 0.67791 0.0
H263 H 0.59898 0.15324 0.68254 0.0
H264 H 0.57501 0.13367 0.63786 0.0
H265 H 0.62951 0.1883 0.58523 0.0
H266 H 0.58475 0.27346 0.68034 0.0
H267 H 0.61469 0.28828 0.72326 0.0
O268 O 0.68903 0.1981 0.6585 0.0
C269 C 0.7275 0.24521 0.62869 0.0
C270 C 0.65385 0.26789 0.70702 0.0
C271 C 0.60764 0.26751 0.6816 0.0
N272 N 0.64944 0.24363 0.66064 0.0
C273 C 0.66605 0.25173 0.68415 0.0
C274 C 0.62059 0.25139 0.65913 0.0
C275 C 0.62444 0.27579 0.70568 0.0
C276 C 0.75367 0.20157 0.5409 0.0
N277 N 0.73368 0.20998 0.56161 0.0
C278 C 0.75922 0.21859 0.51606 0.0
C279 C 0.74457 0.24494 0.51241 0.0
C280 C 0.72484 0.25398 0.5337 0.0
C281 C 0.7197 0.2362 0.55811 0.0
C282 C 0.81502 0.18224 0.60352 0.0
C283 C 0.76827 0.14611 0.61216 0.0
C284 C 0.78729 0.19137 0.59653 0.0
N285 N 0.76429 0.17324 0.60079 0.0
C286 C 0.79509 0.13796 0.62334 0.0
C287 C 0.81955 0.15739 0.62246 0.0
C288 C 0.70441 0.175 0.65812 0.0
C289 C 0.60066 0.16029 0.60859 0.0
C290 C 0.62721 0.1823 0.65826 0.0
C291 C 0.60535 0.16113 0.66108 0.0
C292 C 0.59193 0.15015 0.63603 0.0
N293 N 0.63544 0.1926 0.63127 0.0
C294 C 0.62264 0.18147 0.60662 0.0
Co295 Co 0.06139 0.48211 0.85364 0.0
Co296 Co 0.02898 0.41811 0.87681 0.0
O297 O 0.05056 0.44162 0.84656 0.0
C298 C 0.10454 0.47016 0.80489 0.0
O299 O 0.09601 0.44357 0.7983 0.0
C300 C 0.9916 0.41504 0.82598 0.0
O301 O 0.99029 0.44363 0.82697 0.0
O302 O -0.00269 0.44847 0.88289 0.0
O303 O 0.02365 0.48792 0.87299 0.0
H304 H 0.97821 0.39707 0.97247 0.0
H305 H 0.04428 0.45348 0.79635 0.0
O306 O 0.09981 0.48028 0.8307 0.0
H307 H 0.00713 0.55399 0.78872 0.0
H308 H 0.1048 0.58153 0.84438 0.0
H309 H 0.04874 0.51521 0.90591 0.0
H310 H 0.03118 0.53763 0.83359 0.0
H311 H 0.09679 0.53282 0.82868 0.0
O312 O 0.00625 0.40051 0.84458 0.0
H313 H 0.00408 0.42774 0.93633 0.0
H314 H 0.00929 0.35606 0.87761 0.0
H315 H 0.05142 0.5631 0.92043 0.0
H316 H 0.02034 0.46922 0.75132 0.0
H317 H 0.10101 0.63218 0.89985 0.0
H318 H 0.00163 0.51992 0.74686 0.0
O319 O 0.0813 0.4697 0.89113 0.0
H320 H 0.09506 0.35163 0.81941 0.0
H321 H 0.06583 0.38366 0.91828 0.0
H322 H 0.10425 0.34624 0.91291 0.0
H323 H 0.119 0.32989 0.8632 0.0
H324 H 0.05697 0.3892 0.82574 0.0
H325 H 0.98329 0.32461 0.9131 0.0
H326 H 0.9677 0.34506 0.96099 0.0
O327 O 0.05087 0.43603 0.90985 0.0
C328 C 0.00037 0.47611 0.88178 0.0
C329 C 0.98493 0.38788 0.9517 0.0
C330 C 0.98775 0.34724 0.91836 0.0
N331 N 0.00829 0.39371 0.90489 0.0
C332 C -0.00037 0.40515 0.93113 0.0
C333 C 0.00238 0.36518 0.89831 0.0
C334 C 0.97902 0.35872 0.94523 0.0
C335 C 0.03731 0.47586 0.79487 0.0
N336 N 0.04147 0.49496 0.81759 0.0
C337 C 0.02324 0.48455 0.76912 0.0
C338 C 0.01267 0.51292 0.76665 0.0
C339 C 0.01585 0.53204 0.79008 0.0
C340 C 0.03006 0.5226 0.8155 0.0
C341 C 0.09297 0.56747 0.85883 0.0
C342 C 0.06071 0.52983 0.89187 0.0
C343 C 0.08774 0.53943 0.84918 0.0
N344 N 0.07105 0.52114 0.86534 0.0
C345 C 0.06449 0.55787 0.90173 0.0
C346 C 0.08273 0.57811 0.88648 0.0
C347 C 0.07158 0.45434 0.91251 0.0
C348 C 0.08878 0.35854 0.84119 0.0
C349 C 0.07227 0.37682 0.89656 0.0
C350 C 0.09397 0.35555 0.89367 0.0
C351 C 0.10223 0.34637 0.86577 0.0
N352 N 0.05909 0.38856 0.87235 0.0
C353 C 0.06717 0.37976 0.84492 0.0
Co354 Co 0.77126 0.81476 0.10738 0.0
Co355 Co 0.82976 0.77649 0.12946 0.0
O356 O 0.80957 0.79895 0.09836 0.0
C357 C 0.78253 0.85043 0.05107 0.0
O358 O 0.80662 0.83749 0.04236 0.0
C359 C 0.83571 0.73951 0.07798 0.0
O360 O 0.80708 0.73852 0.07627 0.0
O361 O 0.79578 0.74784 0.13183 0.0
O362 O 0.76359 0.78339 0.1361 0.0
H363 H 0.83873 0.7224 0.22509 0.0
H364 H 0.78914 0.79019 0.04825 0.0
O365 O 0.77458 0.84861 0.07803 0.0
H366 H 0.69315 0.74654 0.06907 0.0
H367 H 0.67196 0.85272 0.08802 0.0
H368 H 0.74419 0.82948 0.16319 0.0
H369 H 0.71637 0.77898 0.1048 0.0
H370 H 0.71864 0.83484 0.07458 0.0
O371 O 0.84828 0.75292 0.09866 0.0
H372 H 0.81312 0.75087 0.18694 0.0
H373 H 0.89018 0.75257 0.13491 0.0
H374 H 0.70339 0.85389 0.17829 0.0
H375 H 0.76615 0.75915 0.01137 0.0
H376 H 0.6226 0.86592 0.14687 0.0
H377 H 0.71767 0.73679 0.02153 0.0
O378 O 0.79035 0.83843 0.1399 0.0
H379 H 0.90291 0.83983 0.07684 0.0
H380 H 0.86596 0.80859 0.17355 0.0
H381 H 0.90627 0.84437 0.17074 0.0
H382 H 0.92509 0.86014 0.12213 0.0
H383 H 0.86243 0.80436 0.08062 0.0
H384 H 0.91652 0.72385 0.17233 0.0
H385 H 0.89083 0.70875 0.21791 0.0
O386 O 0.81217 0.80048 0.16165 0.0
C387 C 0.76963 0.75643 0.13628 0.0
C388 C 0.85019 0.72896 0.20538 0.0
C389 C 0.89385 0.72973 0.17575 0.0
N390 N 0.85022 0.75367 0.15891 0.0
C391 C 0.83583 0.74517 0.18376 0.0
C392 C 0.87878 0.74592 0.15461 0.0
C393 C 0.87942 0.72128 0.20132 0.0
C394 C 0.76725 0.78275 0.05218 0.0
N395 N 0.75303 0.78948 0.07764 0.0
C396 C 0.75463 0.76417 0.03146 0.0
C397 C 0.72757 0.75144 0.03726 0.0
C398 C 0.7138 0.75696 0.06385 0.0
C399 C 0.72704 0.77574 0.08394 0.0
C400 C 0.68683 0.8479 0.10588 0.0
C401 C 0.7286 0.83508 0.1467 0.0
C402 C 0.71416 0.83812 0.09753 0.0
N403 N 0.73416 0.83064 0.118 0.0
C404 C 0.70269 0.84703 0.15579 0.0
C405 C 0.67809 0.84981 0.13637 0.0
C406 C 0.80106 0.82601 0.16293 0.0
C407 C 0.89497 0.83305 0.09816 0.0
C408 C 0.87397 0.81538 0.15229 0.0
C409 C 0.89684 0.83562 0.15085 0.0
C410 C 0.90739 0.84446 0.12357 0.0
N411 N 0.862 0.80415 0.12726 0.0
C412 C 0.87211 0.81288 0.10044 0.0
Co413 Co 0.43123 0.51661 0.3533 0.0
Co414 Co 0.46821 0.57616 0.37649 0.0
O415 O 0.44702 0.55525 0.34559 0.0
C416 C 0.39476 0.53304 0.29933 0.0
O417 O 0.40966 0.5562 0.29118 0.0
C418 C 0.50618 0.58278 0.32576 0.0
O419 O 0.50717 0.55418 0.32423 0.0
O420 O 0.4971 0.54314 0.37902 0.0
O421 O 0.46397 0.50707 0.38059 0.0
H422 H 0.52123 0.58721 0.47242 0.0
H423 H 0.45681 0.53802 0.29522 0.0
O424 O 0.39695 0.52315 0.32556 0.0
H425 H 0.49236 0.43744 0.30714 0.0
H426 H 0.37388 0.42858 0.32634 0.0
H427 H 0.41771 0.48358 0.40755 0.0
H428 H 0.46378 0.4607 0.34605 0.0
H429 H 0.40847 0.4679 0.31657 0.0
O430 O 0.49166 0.59544 0.34565 0.0
H431 H 0.494 0.56047 0.43423 0.0
H432 H 0.48987 0.63731 0.38191 0.0
H433 H 0.38079 0.44658 0.41827 0.0
H434 H 0.48511 0.51571 0.2558 0.0
H435 H 0.35684 0.42017 0.37774 0.0
H436 H 0.50308 0.46481 0.2613 0.0
O437 O 0.40824 0.53357 0.38714 0.0
H438 H 0.40303 0.64694 0.32322 0.0
H439 H 0.43377 0.61042 0.42024 0.0
H440 H 0.39593 0.64868 0.41703 0.0
H441 H 0.38034 0.66722 0.36825 0.0
H442 H 0.4406 0.60853 0.3274 0.0
H443 H 0.51721 0.6648 0.41942 0.0
H444 H 0.53292 0.63978 0.46516 0.0
O445 O 0.44505 0.55749 0.40842 0.0
C446 C 0.49024 0.51623 0.3822 0.0
C447 C 0.51441 0.59837 0.45263 0.0
C448 C 0.5122 0.64192 0.42287 0.0
N449 N 0.49012 0.59738 0.40601 0.0
C450 C 0.49894 0.58336 0.43095 0.0
C451 C 0.49679 0.62621 0.40168 0.0
C452 C 0.52099 0.62786 0.44853 0.0
C453 C 0.46264 0.51544 0.29736 0.0
N454 N 0.4553 0.49978 0.32185 0.0
C455 C 0.47958 0.50308 0.27512 0.0
C456 C 0.48983 0.47462 0.27829 0.0
C457 C 0.48375 0.45925 0.30391 0.0
C458 C 0.46712 0.47251 0.3258 0.0
C459 C 0.38304 0.44053 0.34446 0.0
C460 C 0.40783 0.47185 0.38977 0.0
C461 C 0.40302 0.46273 0.33901 0.0
N462 N 0.41396 0.47906 0.36149 0.0
C463 C 0.38711 0.45059 0.39599 0.0
C464 C 0.37406 0.43542 0.37313 0.0
C465 C 0.42029 0.54489 0.40984 0.0
C466 C 0.40971 0.63911 0.3446 0.0
C467 C 0.42711 0.61836 0.39892 0.0
C468 C 0.4057 0.64006 0.39725 0.0
C469 C 0.39697 0.65046 0.36987 0.0
N470 N 0.43953 0.60736 0.37403 0.0
C471 C 0.43105 0.61743 0.34712 0.0
Co472 Co 0.39124 0.22646 0.31778 0.0
Co473 Co 0.3673 0.16829 0.27831 0.0
O474 O 0.39873 0.18791 0.30109 0.0
C475 C 0.44411 0.21036 0.35241 0.0
O476 O 0.45229 0.19075 0.33321 0.0
C477 C 0.41743 0.15851 0.23994 0.0
O478 O 0.42023 0.18681 0.23643 0.0
O479 O 0.36732 0.2013 0.24932 0.0
O480 O 0.36775 0.23726 0.28229 0.0
H481 H 0.2727 0.1618 0.22227 0.0
H482 H 0.44317 0.2036 0.28275 0.0
O483 O 0.41736 0.21872 0.35304 0.0
H484 H 0.45135 0.31046 0.2757 0.0
H485 H 0.40087 0.31777 0.37909 0.0
H486 H 0.33774 0.25871 0.31606 0.0
H487 H 0.41058 0.28874 0.30155 0.0
H488 H 0.41783 0.27112 0.36107 0.0
O489 O 0.39757 0.14769 0.25593 0.0
H490 H 0.31043 0.18608 0.25214 0.0
H491 H 0.36007 0.10775 0.25516 0.0
H492 H 0.3219 0.30408 0.32711 0.0
H493 H 0.48246 0.22501 0.25405 0.0
H494 H 0.35001 0.37379 0.37029 0.0
H495 H 0.48761 0.27884 0.25077 0.0
O496 O 0.35623 0.20917 0.33857 0.0
H497 H 0.41449 0.09318 0.3434 0.0
H498 H 0.32072 0.13539 0.31064 0.0
H499 H 0.32062 0.09521 0.3468 0.0
H500 H 0.36774 0.07372 0.36328 0.0
H501 H 0.41362 0.13354 0.30747 0.0
H502 H 0.32296 0.08262 0.22518 0.0
H503 H 0.27883 0.10965 0.20857 0.0
O504 O 0.33547 0.1881 0.30003 0.0
C505 C 0.36655 0.22837 0.25593 0.0
C506 C 0.29186 0.14979 0.22931 0.0
C507 C 0.32007 0.10537 0.23092 0.0
N508 N 0.33759 0.14851 0.2552 0.0
C509 C 0.31334 0.16347 0.2462 0.0
C510 C 0.3411 0.11978 0.24778 0.0
C511 C 0.29531 0.12054 0.22163 0.0
C512 C 0.44431 0.22699 0.28183 0.0
N513 N 0.42468 0.24428 0.29653 0.0
C514 C 0.46707 0.23905 0.26523 0.0
C515 C 0.47003 0.26922 0.26344 0.0
C516 C 0.4499 0.28691 0.27768 0.0
C517 C 0.42705 0.27411 0.29355 0.0
C518 C 0.38665 0.30567 0.36451 0.0
C519 C 0.3523 0.27192 0.32896 0.0
C520 C 0.39638 0.27856 0.35459 0.0
N521 N 0.37982 0.26299 0.33537 0.0
C522 C 0.34229 0.29884 0.33721 0.0
C523 C 0.35973 0.31841 0.35437 0.0
C524 C 0.33367 0.19937 0.32526 0.0
C525 C 0.39381 0.10233 0.33635 0.0
C526 C 0.34133 0.1263 0.31785 0.0
C527 C 0.34113 0.10349 0.33827 0.0
C528 C 0.36757 0.09144 0.34751 0.0
N529 N 0.36716 0.13674 0.30686 0.0
C530 C 0.39317 0.12516 0.31597 0.0
Co531 Co 0.01412 0.13613 0.56769 0.0
Co532 Co 0.07622 0.11785 0.53289 0.0
O533 O 0.05262 0.14764 0.55313 0.0
C534 C 0.02555 0.19258 0.60296 0.0
O535 O 0.05185 0.19735 0.59238 0.0
C536 C 0.08208 0.16873 0.49409 0.0
O537 O 0.05347 0.16994 0.49194 0.0
O538 O 0.04394 0.11309 0.50318 0.0
O539 O 0.0099 0.10518 0.53704 0.0
H540 H 0.09283 0.02277 0.48058 0.0
H541 H 0.02823 0.19632 0.54475 0.0
O542 O 0.01283 0.16796 0.59894 0.0
H543 H 0.93839 0.16787 0.49285 0.0
H544 H 0.90836 0.14685 0.58395 0.0
H545 H 0.99175 0.08299 0.60072 0.0
H546 H 0.96204 0.13368 0.52696 0.0
H547 H 0.95639 0.16512 0.57759 0.0
O548 O 0.09428 0.14894 0.50913 0.0
H549 H 0.06403 0.05948 0.50751 0.0
H550 H 0.13821 0.11527 0.5123 0.0
H551 H 0.94804 0.07015 0.62377 0.0
H552 H 0.00519 0.2311 0.51118 0.0
H553 H 0.86552 0.08754 0.61299 0.0
H554 H 0.95967 0.21722 0.48498 0.0
O555 O 0.03499 0.10651 0.5935 0.0
H556 H 0.14349 0.17615 0.5974 0.0
H557 H 0.11331 0.07692 0.56809 0.0
H558 H 0.15196 0.08301 0.60527 0.0
H559 H 0.16739 0.13291 0.62007 0.0
H560 H 0.10471 0.16907 0.56048 0.0
H561 H 0.16774 0.07932 0.48514 0.0
H562 H 0.1451 0.03259 0.46923 0.0
O563 O 0.05951 0.08537 0.55694 0.0
C564 C 0.01794 0.10584 0.51034 0.0
C565 C 0.10299 0.04298 0.48752 0.0
C566 C 0.14502 0.07474 0.49005 0.0
N567 N 0.09949 0.08932 0.51183 0.0
C568 C 0.08681 0.0638 0.50289 0.0
C569 C 0.12816 0.09504 0.50537 0.0
C570 C 0.1323 0.04852 0.48113 0.0
C571 C 0.00797 0.1902 0.53458 0.0
N572 N 0.99556 0.16349 0.53993 0.0
C573 C 0.99522 0.20996 0.515 0.0
C574 C 0.9698 0.20213 0.50019 0.0
C575 C 0.95783 0.1745 0.50465 0.0
C576 C 0.9714 0.15522 0.52414 0.0
C577 C 0.92613 0.13221 0.58938 0.0
C578 C 0.97396 0.09766 0.59771 0.0
C579 C 0.95391 0.14259 0.58397 0.0
N580 N 0.97688 0.12389 0.58382 0.0
C581 C 0.94747 0.08907 0.60955 0.0
C582 C 0.92101 0.10322 0.60081 0.0
C583 C 0.04732 0.08391 0.582 0.0
C584 C 0.137 0.15429 0.59109 0.0
C585 C 0.11978 0.09872 0.5745 0.0
C586 C 0.14174 0.10202 0.59552 0.0
C587 C 0.15039 0.13002 0.60381 0.0
N588 N 0.10687 0.12264 0.56197 0.0
C589 C 0.1151 0.15015 0.57015 0.0
Co590 Co 0.10219 0.75962 0.81331 0.0
Co591 Co 0.12591 0.82225 0.78095 0.0
O592 O 0.09499 0.80031 0.80312 0.0
C593 C 0.04923 0.76765 0.85402 0.0
O594 O 0.03737 0.7868 0.83611 0.0
C595 C 0.06733 0.8412 0.75834 0.0
O596 O 0.05334 0.82471 0.77728 0.0
O597 O 0.12872 0.79096 0.74949 0.0
O598 O 0.1287 0.75324 0.77983 0.0
H599 H 0.22102 0.83411 0.72665 0.0
H600 H 0.04849 0.71908 0.81835 0.0
O601 O 0.07599 0.76003 0.84986 0.0
H602 H 0.03636 0.76931 0.72461 0.0
H603 H 0.1013 0.64828 0.80998 0.0
H604 H 0.15656 0.73379 0.83713 0.0
H605 H 0.07862 0.77923 0.75521 0.0
H606 H 0.08546 0.69496 0.795 0.0
O607 O 0.09516 0.84244 0.75755 0.0
H608 H 0.18349 0.80727 0.75472 0.0
H609 H 0.13153 0.88396 0.76022 0.0
H610 H 0.17776 0.69119 0.8445 0.0
H611 H 0.0047 0.70964 0.78974 0.0
H612 H 0.14994 0.60894 0.85804 0.0
H613 H -0.0016 0.73439 0.74165 0.0
O614 O 0.13508 0.77597 0.83755 0.0
H615 H 0.07744 0.89165 0.85219 0.0
H616 H 0.17124 0.85599 0.81297 0.0
H617 H 0.17127 0.89445 0.8505 0.0
H618 H 0.12412 0.9128 0.87023 0.0
H619 H 0.07836 0.85306 0.81509 0.0
H620 H 0.16835 0.91156 0.73188 0.0
H621 H 0.21356 0.88665 0.71501 0.0
O622 O 0.15785 0.80281 0.80354 0.0
C623 C 0.13282 0.76385 0.75471 0.0
C624 C 0.20143 0.84522 0.73391 0.0
C625 C 0.17185 0.88867 0.7368 0.0
N626 N 0.15533 0.84402 0.75917 0.0
C627 C 0.18011 0.83015 0.74988 0.0
C628 C 0.151 0.87289 0.75271 0.0
C629 C 0.19722 0.87469 0.72736 0.0
C630 C 0.04627 0.73024 0.79827 0.0
N631 N 0.06808 0.74834 0.78858 0.0
C632 C 0.02122 0.72461 0.78167 0.0
C633 C 0.01768 0.73845 0.75481 0.0
C634 C 0.03897 0.7579 0.74525 0.0
C635 C 0.06359 0.76299 0.7627 0.0
C636 C 0.11353 0.66679 0.81831 0.0
C637 C 0.14196 0.71621 0.83395 0.0
C638 C 0.10275 0.69444 0.81072 0.0
N639 N 0.11461 0.7192 0.82234 0.0
C640 C 0.15485 0.68958 0.83894 0.0
C641 C 0.13927 0.66273 0.83624 0.0
C642 C 0.15783 0.78928 0.82793 0.0
C643 C 0.09813 0.88408 0.84351 0.0
C644 C 0.15055 0.8638 0.82129 0.0
C645 C 0.15075 0.88562 0.84263 0.0
C646 C 0.12431 0.89589 0.85369 0.0
N647 N 0.12475 0.85263 0.8109 0.0
C648 C 0.09878 0.86227 0.82215 0.0
Co649 Co 0.46984 0.85457 0.05996 0.0
Co650 Co 0.41286 0.87979 0.01961 0.0
O651 O 0.43213 0.84784 0.0421 0.0
C652 C 0.45716 0.80027 0.09464 0.0
O653 O 0.43662 0.78923 0.0779 0.0
C654 C 0.40805 0.8291 0.98161 0.0
O655 O 0.43665 0.82966 0.97937 0.0
O656 O 0.44691 0.88218 0.99179 0.0
O657 O 0.48227 0.87841 0.02533 0.0
H658 H 0.40473 0.97528 0.96536 0.0
H659 H 0.44697 0.80104 0.02789 0.0
O660 O 0.46109 0.82813 0.09518 0.0
H661 H 0.55384 0.79521 0.01797 0.0
H662 H 0.56122 0.84171 0.11837 0.0
H663 H 0.50008 0.90901 0.06216 0.0
H664 H 0.53153 0.83761 0.04091 0.0
H665 H 0.51536 0.82562 0.09915 0.0
O666 O 0.39445 0.84863 0.99587 0.0
H667 H 0.42991 0.937 0.9939 0.0
H668 H 0.35274 0.88543 0.99502 0.0
H669 H 0.54362 0.92631 0.0771 0.0
H670 H 0.46856 0.75919 0.00337 0.0
H671 H 0.61637 0.89304 0.11413 0.0
H672 H 0.52251 0.7553 -0.00122 0.0
O673 O 0.45195 0.88901 0.08066 0.0
H674 H 0.33894 0.82895 0.08371 0.0
H675 H 0.377 0.92446 0.05081 0.0
H676 H 0.33628 0.9227 0.08623 0.0
H677 H 0.31683 0.87468 0.10276 0.0
H678 H 0.37992 0.83173 0.0487 0.0
H679 H 0.32663 0.923 0.9663 0.0
H680 H 0.35259 0.96844 0.95148 0.0
O681 O 0.43109 0.91208 0.04325 0.0
C682 C 0.47387 0.8824 -0.0009 0.0
C683 C 0.39312 0.95564 0.97176 0.0
C684 C 0.34931 0.92628 0.97227 0.0
N685 N 0.39278 0.90922 0.99641 0.0
C686 C 0.4073 0.93393 0.98796 0.0
C687 C 0.36424 0.90505 0.98846 0.0
C688 C 0.36389 0.95177 0.96396 0.0
C689 C 0.47044 0.79992 0.02692 0.0
N690 N 0.4877 0.82114 0.0392 0.0
C691 C 0.48259 0.77592 0.01254 0.0
C692 C 0.51279 0.77376 0.00992 0.0
C693 C 0.53035 0.79598 0.02091 0.0
C694 C 0.5174 0.81977 0.03496 0.0
C695 C 0.54859 0.85732 0.10584 0.0
C696 C 0.51362 0.89401 0.07428 0.0
C697 C 0.52182 0.84788 0.09544 0.0
N698 N 0.50567 0.86572 0.07821 0.0
C699 C 0.53997 0.90434 0.08398 0.0
C700 C 0.56059 0.88549 0.09813 0.0
C701 C 0.44264 0.91249 0.06861 0.0
C702 C 0.34706 0.85001 0.0765 0.0
C703 C 0.36867 0.90346 0.05787 0.0
C704 C 0.34559 0.90261 0.07794 0.0
C705 C 0.3347 0.87567 0.08722 0.0
N706 N 0.38044 0.87819 0.04715 0.0
C707 C 0.37014 0.85171 0.0565 0.0
Co708 Co 0.89262 0.26993 0.68076 0.0
Co709 Co 0.8669 0.32491 0.72232 0.0
O710 O 0.89867 0.30837 0.69744 0.0
C711 C 0.94729 0.28391 0.64904 0.0
O712 O 0.95541 0.3 0.67138 0.0
C713 C 0.92456 0.34729 0.74465 0.0
O714 O 0.93881 0.3338 0.72376 0.0
O715 O 0.86933 0.29033 0.75032 0.0
O716 O 0.86833 0.25741 0.71506 0.0
H717 H 0.77416 0.32155 0.78161 0.0
H718 H 0.93994 0.21956 0.67339 0.0
O719 O 0.91982 0.27829 0.64608 0.0
H720 H 0.96498 0.27033 0.76431 0.0
H721 H 0.90141 0.17906 0.62036 0.0
H722 H 0.8375 0.23936 0.68069 0.0
H723 H 0.92168 0.28464 0.7372 0.0
H724 H 0.91645 0.22691 0.63463 0.0
O725 O 0.89675 0.34587 0.74657 0.0
H726 H 0.81327 0.3012 0.75051 0.0
H727 H 0.85496 0.38409 0.74676 0.0
H728 H 0.81783 0.19632 0.66217 0.0
H729 H 0.98234 0.2045 0.70025 0.0
H730 H 0.84635 0.12624 0.62501 0.0
H731 H 0.996 0.22979 0.7462 0.0
O732 O 0.85775 0.28704 0.65976 0.0
H733 H 0.90591 0.40476 0.65598 0.0
H734 H 0.81724 0.35699 0.69477 0.0
H735 H 0.81236 0.39823 0.66042 0.0
H736 H 0.85688 0.42264 0.64093 0.0
H737 H 0.90986 0.36333 0.68983 0.0
H738 H 0.81666 0.40525 0.77827 0.0
H739 H 0.77573 0.37393 0.79573 0.0
O740 O 0.83532 0.30469 0.69916 0.0
C741 C 0.86753 0.26376 0.74196 0.0
C742 C 0.79192 0.3354 0.77421 0.0
C743 C 0.81578 0.38236 0.77238 0.0
N744 N 0.83654 0.34138 0.74705 0.0
C745 C 0.81413 0.324 0.75659 0.0
C746 C 0.83756 0.37021 0.75476 0.0
C747 C 0.79281 0.36479 0.78213 0.0
C748 C 0.94415 0.23121 0.69295 0.0
N749 N 0.92697 0.25393 0.70251 0.0
C750 C 0.96903 0.22228 0.70839 0.0
C751 C 0.97676 0.23646 0.73409 0.0
C752 C 0.95945 0.25919 0.74415 0.0
C753 C 0.93473 0.26749 0.72819 0.0
C754 C 0.88688 0.19164 0.63395 0.0
C755 C 0.8522 0.22612 0.66808 0.0
C756 C 0.89629 0.21873 0.64312 0.0
N757 N 0.88084 0.23349 0.66355 0.0
C758 C 0.84041 0.2012 0.65664 0.0
C759 C 0.85889 0.18055 0.64224 0.0
C760 C 0.83446 0.29553 0.67281 0.0
C761 C 0.88632 0.39453 0.66459 0.0
C762 C 0.83683 0.36744 0.68653 0.0
C763 C 0.83387 0.39083 0.66702 0.0
C764 C 0.85883 0.4045 0.65609 0.0
N765 N 0.8639 0.358 0.69528 0.0
C766 C 0.88844 0.37106 0.68414 0.0
Co767 Co 0.96759 0.64394 0.9352 0.0
Co768 Co 0.91668 0.60897 0.97932 0.0
O769 O 0.92908 0.6415 0.95298 0.0
C770 C 0.95883 0.68171 0.87818 0.0
O771 O 0.94142 0.68554 0.85562 0.0
C772 C 0.90956 0.66199 0.01283 0.0
O773 O 0.9369 0.66783 0.0064 0.0
O774 O 0.95412 0.61046 0.00335 0.0
O775 O 0.98631 0.62792 0.97095 0.0
H776 H 0.92539 0.51525 0.03653 0.0
H777 H 0.93187 0.69714 0.92786 0.0
O778 O 0.95191 0.66083 0.89647 0.0
H779 H 0.00263 0.72547 0.00345 0.0
H780 H 0.07625 0.65309 0.93548 0.0
H781 H 0.99017 0.61803 0.88218 0.0
H782 H 0.0017 0.67583 0.98477 0.0
H783 H 0.02921 0.6712 0.94691 0.0
O784 O 0.89818 0.63807 0.00492 0.0
H785 H 0.94298 0.55512 0.00455 0.0
H786 H 0.86047 0.59722 0.01021 0.0
H787 H 0.03643 0.59991 0.86792 0.0
H788 H 0.93179 0.74723 0.94613 0.0
H789 H 0.11519 0.60371 0.8872 0.0
H790 H 0.96792 0.76225 0.98378 0.0
O791 O 0.96154 0.60233 0.9206 0.0
H792 H 0.82927 0.65084 0.927 0.0
H793 H 0.883 0.56051 0.95114 0.0
H794 H 0.83875 0.55777 0.92036 0.0
H795 H 0.81152 0.60315 0.90813 0.0
H796 H 0.87378 0.65271 0.95739 0.0
H797 H 0.84194 0.55791 0.04231 0.0
H798 H 0.87442 0.51641 0.05551 0.0
O799 O 0.93457 0.57869 0.95409 0.0
C800 C 0.98035 0.61685 0.99576 0.0
C801 C 0.91097 0.53314 0.03086 0.0
C802 C 0.86416 0.55709 0.03412 0.0
N803 N 0.90272 0.57827 0.00523 0.0
C804 C 0.92082 0.55575 0.01272 0.0
C805 C 0.8748 0.57932 0.01597 0.0
C806 C 0.88239 0.53382 0.04151 0.0
C807 C 0.94917 0.70358 0.94255 0.0
N808 N 0.97039 0.6841 0.95097 0.0
C809 C 0.94832 0.73202 0.95361 0.0
C810 C 0.9684 0.74037 0.97485 0.0
C811 C 0.98801 0.71983 0.98567 0.0
C812 C 0.98795 0.69155 0.97418 0.0
C813 C 0.05765 0.64344 0.92438 0.0
C814 C 0.00878 0.62387 0.89553 0.0
C815 C 0.03019 0.65423 0.93108 0.0
N816 N 0.0059 0.64318 0.91794 0.0
C817 C 0.03573 0.6131 0.88758 0.0
C818 C 0.06147 0.61996 0.904 0.0
C819 C 0.95001 0.57892 0.93101 0.0
C820 C 0.8409 0.63091 0.93223 0.0
C821 C 0.87137 0.58039 0.94585 0.0
C822 C 0.84626 0.57868 0.92847 0.0
C823 C 0.83098 0.60414 0.92163 0.0
N824 N 0.88099 0.60673 0.95619 0.0
C825 C 0.8661 0.63179 0.94954 0.0
Co826 Co 0.60381 0.73223 0.18249 0.0
Co827 Co 0.62658 0.67015 0.21599 0.0
O828 O 0.59472 0.69284 0.19676 0.0
C829 C 0.54668 0.72309 0.14728 0.0
O830 O 0.53889 0.69816 0.15924 0.0
C831 C 0.57693 0.65907 0.25487 0.0
O832 O 0.57299 0.68741 0.2565 0.0
O833 O 0.62897 0.70078 0.24724 0.0
O834 O 0.63236 0.73811 0.21576 0.0
H835 H 0.72203 0.65784 0.2694 0.0
H836 H 0.54656 0.71163 0.20836 0.0
O837 O 0.57328 0.73211 0.1493 0.0
H838 H 0.56286 0.80839 0.25177 0.0
H839 H 0.59032 0.83824 0.1619 0.0
H840 H 0.65332 0.75518 0.14339 0.0
H841 H 0.60082 0.78563 0.2214 0.0
H842 H 0.57372 0.79043 0.17181 0.0
O843 O 0.59689 0.64852 0.23884 0.0
H844 H 0.68333 0.68534 0.24376 0.0
H845 H 0.63511 0.60706 0.23064 0.0
H846 H 0.66908 0.79864 0.12608 0.0
H847 H 0.50963 0.73195 0.2411 0.0
H848 H 0.65211 0.88149 0.13906 0.0
H849 H 0.5169 0.78133 0.26236 0.0
O850 O 0.63526 0.71301 0.15762 0.0
H851 H 0.57303 0.60254 0.14795 0.0
H852 H 0.67004 0.63882 0.17827 0.0
H853 H 0.66653 0.60233 0.13879 0.0
H854 H 0.61776 0.58381 0.12349 0.0
H855 H 0.5775 0.6393 0.18716 0.0
H856 H 0.67311 0.57875 0.25646 0.0
H857 H 0.71704 0.60415 0.27595 0.0
O858 O 0.6583 0.69056 0.19391 0.0
C859 C 0.63294 0.72789 0.24194 0.0
C860 C 0.70298 0.64653 0.26104 0.0
C861 C 0.67552 0.60214 0.2538 0.0
N862 N 0.65688 0.64786 0.23582 0.0
C863 C 0.68097 0.66199 0.24649 0.0
C864 C 0.654 0.61832 0.23933 0.0
C865 C 0.70017 0.6164 0.26471 0.0
C866 C 0.55 0.73328 0.21664 0.0
N867 N 0.5745 0.74897 0.20933 0.0
C868 C 0.52903 0.74451 0.23583 0.0
C869 C 0.53318 0.77209 0.24788 0.0
C870 C 0.55888 0.7873 0.24186 0.0
C871 C 0.58009 0.7745 0.22401 0.0
C872 C 0.60562 0.82065 0.15789 0.0
C873 C 0.63994 0.77296 0.14963 0.0
C874 C 0.59601 0.79294 0.16523 0.0
N875 N 0.6149 0.77014 0.16575 0.0
C876 C 0.64933 0.79955 0.13897 0.0
C877 C 0.63472 0.82587 0.14684 0.0
C878 C 0.65891 0.70283 0.16898 0.0
C879 C 0.5944 0.6104 0.15447 0.0
C880 C 0.64871 0.63106 0.17161 0.0
C881 C 0.64688 0.6103 0.1493 0.0
C882 C 0.61951 0.59992 0.14073 0.0
N883 N 0.62398 0.64112 0.18511 0.0
C884 C 0.59708 0.63116 0.17669 0.0
Co885 Co 0.51322 0.352 0.42054 0.0
Co886 Co 0.57037 0.37471 0.46229 0.0
O887 O 0.55056 0.34426 0.43984 0.0
C888 C 0.52886 0.29446 0.39837 0.0
O889 O 0.54353 0.28952 0.4226 0.0
C890 C 0.58499 0.34122 0.51498 0.0
O891 O 0.57104 0.36096 0.53046 0.0
O892 O 0.53499 0.37721 0.48771 0.0
O893 O 0.50131 0.38013 0.45207 0.0
H894 H 0.57671 0.47034 0.51591 0.0
H895 H 0.5273 0.31933 0.47627 0.0
O896 O 0.52362 0.32099 0.39069 0.0
H897 H 0.42804 0.28607 0.45205 0.0
H898 H 0.43957 0.33935 0.33829 0.0
H899 H 0.47803 0.40581 0.41361 0.0
H900 H 0.4524 0.32034 0.42037 0.0
H901 H 0.47535 0.32192 0.3738 0.0
O902 O 0.58647 0.34337 0.4873 0.0
H903 H 0.55282 0.43229 0.48611 0.0
H904 H 0.62983 0.38053 0.48914 0.0
H905 H 0.44203 0.42365 0.37865 0.0
H906 H 0.50264 0.28551 0.50872 0.0
H907 H 0.42213 0.39056 0.34046 0.0
H908 H 0.45247 0.26841 0.49722 0.0
O909 O 0.53349 0.38464 0.39852 0.0
H910 H 0.64741 0.32109 0.40511 0.0
H911 H 0.60883 0.41805 0.43176 0.0
H912 H 0.65214 0.41468 0.39972 0.0
H913 H 0.6719 0.36593 0.38643 0.0
H914 H 0.60385 0.32548 0.43674 0.0
H915 H 0.65459 0.41802 0.51901 0.0
H916 H 0.62801 0.46335 0.53253 0.0
O917 O 0.5544 0.40607 0.43722 0.0
C918 C 0.50869 0.38099 0.4791 0.0
C919 C 0.58855 0.45071 0.51012 0.0
C920 C 0.63225 0.42134 0.51188 0.0
N921 N 0.5899 0.40426 0.48581 0.0
C922 C 0.57512 0.4291 0.49324 0.0
C923 C 0.6181 0.40018 0.49499 0.0
C924 C 0.61732 0.44676 0.51946 0.0
C925 C 0.50595 0.31199 0.46972 0.0
N926 N 0.49279 0.32174 0.4444 0.0
C927 C 0.49183 0.29274 0.48887 0.0
C928 C 0.46372 0.28322 0.48249 0.0
C929 C 0.45012 0.29301 0.45709 0.0
C930 C 0.46481 0.31239 0.43846 0.0
C931 C 0.44763 0.35395 0.35511 0.0
C932 C 0.46904 0.39054 0.39811 0.0
C933 C 0.46829 0.34424 0.37546 0.0
N934 N 0.47834 0.36213 0.39742 0.0
C935 C 0.44874 0.4011 0.37787 0.0
C936 C 0.43783 0.38263 0.35634 0.0
C937 C 0.54357 0.40737 0.4116 0.0
C938 C 0.63912 0.34246 0.4109 0.0
C939 C 0.61719 0.39674 0.42596 0.0
C940 C 0.64176 0.39498 0.40784 0.0
C941 C 0.65283 0.36763 0.40039 0.0
N942 N 0.60416 0.37196 0.4366 0.0
C943 C 0.61455 0.34508 0.42892 0.0
Co944 Co 0.31271 0.38777 0.23433 0.0
Co945 Co 0.27945 0.36581 0.17184 0.0
O946 O 0.29856 0.39705 0.19471 0.0
C947 C 0.34835 0.44376 0.22024 0.0
O948 O 0.33825 0.44794 0.19361 0.0
C949 C 0.23886 0.41478 0.16241 0.0
O950 O 0.23863 0.41951 0.19076 0.0
O951 O 0.24948 0.36182 0.20373 0.0
O952 O 0.28244 0.35638 0.2394 0.0
H953 H 0.2254 0.27074 0.15981 0.0
H954 H 0.29143 0.44795 0.21782 0.0
O955 O 0.34379 0.41954 0.23369 0.0
H956 H 0.2336 0.42117 0.3046 0.0
H957 H 0.3259 0.40215 0.34253 0.0
H958 H 0.35514 0.34255 0.25934 0.0
H959 H 0.26819 0.38621 0.28337 0.0
H960 H 0.31418 0.4171 0.29487 0.0
O961 O 0.25481 0.39497 0.15155 0.0
H962 H 0.25095 0.30942 0.1872 0.0
H963 H 0.26426 0.35748 0.10856 0.0
H964 H 0.37741 0.33281 0.30472 0.0
H965 H 0.25739 0.48352 0.23843 0.0
H966 H 0.35888 0.3448 0.38623 0.0
H967 H 0.22818 0.47049 0.28246 0.0
O968 O 0.33916 0.35779 0.21536 0.0
H969 H 0.34264 0.42308 0.10218 0.0
H970 H 0.31733 0.32446 0.13803 0.0
H971 H 0.35488 0.3301 0.09965 0.0
H972 H 0.36763 0.37968 0.08132 0.0
H973 H 0.30537 0.41648 0.14079 0.0
H974 H 0.23858 0.31945 0.08034 0.0
H975 H 0.2191 0.27555 0.10594 0.0
O976 O 0.30388 0.33491 0.19051 0.0
C977 C 0.25613 0.35533 0.23008 0.0
C978 C 0.23391 0.28968 0.14836 0.0
C979 C 0.24133 0.31699 0.10378 0.0
N980 N 0.25958 0.33552 0.14951 0.0
C981 C 0.24848 0.31167 0.16377 0.0
C982 C 0.25586 0.33848 0.11991 0.0
C983 C 0.23038 0.2924 0.11815 0.0
C984 C 0.28013 0.44227 0.23761 0.0
N985 N 0.28414 0.4156 0.2506 0.0
C986 C 0.26016 0.46243 0.24887 0.0
C987 C 0.2436 0.45504 0.27337 0.0
C988 C 0.24656 0.42738 0.28572 0.0
C989 C 0.26619 0.40756 0.27337 0.0
C990 C 0.33329 0.38827 0.32486 0.0
C991 C 0.34813 0.35576 0.2771 0.0
C992 C 0.32486 0.39641 0.29682 0.0
N993 N 0.32885 0.3783 0.27348 0.0
C994 C 0.36042 0.34926 0.30431 0.0
C995 C 0.34854 0.36142 0.33056 0.0
C996 C 0.32885 0.33474 0.20288 0.0
C997 C 0.33722 0.40136 0.10994 0.0
C998 C 0.32293 0.34615 0.1304 0.0
C999 C 0.34414 0.34918 0.10855 0.0
C1000 C 0.35126 0.377 0.09827 0.0
N1001 N 0.30905 0.37014 0.14156 0.0
C1002 C 0.3161 0.39749 0.13175 0.0
Co1003 Co 0.81145 0.1033 0.75852 0.0
Co1004 Co 0.78093 0.12284 0.82267 0.0
O1005 O 0.7984 0.09193 0.79782 0.0
C1006 C 0.84655 0.04592 0.76803 0.0
O1007 O 0.83781 0.0417 0.79513 0.0
C1008 C 0.73899 0.07469 0.82926 0.0
O1009 O 0.73687 0.07364 0.8006 0.0
O1010 O 0.75029 0.13055 0.79148 0.0
O1011 O 0.78371 0.13643 0.75702 0.0
H1012 H 0.73673 0.2214 0.84223 0.0
H1013 H 0.78783 0.0438 0.77183 0.0
O1014 O 0.84054 0.06976 0.75462 0.0
H1015 H 0.73253 0.07696 0.68539 0.0
H1016 H 0.83345 0.09246 0.65238 0.0
H1017 H 0.83354 0.15876 0.73535 0.0
H1018 H 0.76887 0.10918 0.7084 0.0
H1019 H 0.82131 0.07479 0.69966 0.0
O1020 O 0.75555 0.09323 0.84139 0.0
H1021 H 0.76007 0.18329 0.81213 0.0
H1022 H 0.7623 0.12585 0.8854 0.0
H1023 H 0.86174 0.17135 0.69492 0.0
H1024 H 0.75166 0.011 0.74958 0.0
H1025 H 0.8593 0.15428 0.61016 0.0
H1026 H 0.7237 0.02738 0.70588 0.0
O1027 O 0.84025 0.13058 0.77826 0.0
H1028 H 0.84293 0.05889 0.88734 0.0
H1029 H 0.82006 0.16046 0.85917 0.0
H1030 H 0.85773 0.15108 0.89667 0.0
H1031 H 0.86932 0.1 0.91108 0.0
H1032 H 0.8055 0.06924 0.84975 0.0
H1033 H 0.73873 0.16324 0.91621 0.0
H1034 H 0.7259 0.21147 0.89467 0.0
O1035 O 0.80703 0.15382 0.80567 0.0
C1036 C 0.75749 0.13813 0.76555 0.0
C1037 C 0.74232 0.20051 0.8519 0.0
C1038 C 0.74341 0.16785 0.8934 0.0
N1039 N 0.76285 0.15249 0.84704 0.0
C1040 C 0.75564 0.17888 0.83498 0.0
C1041 C 0.75671 0.14675 0.87582 0.0
C1042 C 0.73623 0.19491 0.88131 0.0
C1043 C 0.7764 0.05103 0.75253 0.0
N1044 N 0.78165 0.07809 0.74087 0.0
C1045 C 0.7556 0.03239 0.74016 0.0
C1046 C 0.73984 0.04161 0.71572 0.0
C1047 C 0.74478 0.0694 0.70424 0.0
C1048 C 0.76549 0.08757 0.71742 0.0
C1049 C 0.83364 0.10853 0.66972 0.0
C1050 C 0.83438 0.14371 0.71759 0.0
C1051 C 0.82663 0.09763 0.69734 0.0
N1052 N 0.82486 0.11593 0.72055 0.0
C1053 C 0.84721 0.15296 0.69198 0.0
C1054 C 0.8413 0.1389 0.66437 0.0
C1055 C 0.8316 0.15346 0.79237 0.0
C1056 C 0.83804 0.08125 0.88127 0.0
C1057 C 0.82506 0.13815 0.86518 0.0
C1058 C 0.84638 0.13298 0.8865 0.0
C1059 C 0.85286 0.10432 0.89458 0.0
N1060 N 0.8105 0.1154 0.85233 0.0
C1061 C 0.81685 0.08724 0.86004 0.0
Co1062 Co 0.1397 0.56018 0.01529 0.0
Co1063 Co 0.12068 0.52767 0.07855 0.0
O1064 O 0.15148 0.54481 0.05338 0.0
C1065 C 0.19995 0.58752 0.0238 0.0
O1066 O 0.20564 0.57322 0.0481 0.0
C1067 C 0.16762 0.48426 0.08453 0.0
O1068 O 0.16657 0.4801 0.05612 0.0
O1069 O 0.11302 0.49751 0.04741 0.0
O1070 O 0.10742 0.53097 0.01272 0.0
H1071 H 0.02349 0.48046 0.09916 0.0
H1072 H 0.19421 0.52538 0.02961 0.0
O1073 O 0.17364 0.58927 0.01414 0.0
H1074 H 0.16569 0.49409 0.93062 0.0
H1075 H 0.14835 0.61053 0.91837 0.0
H1076 H 0.08146 0.56984 0.9915 0.0
H1077 H 0.13579 0.52948 0.95717 0.0
H1078 H 0.16691 0.59061 0.96269 0.0
O1079 O 0.15081 0.50249 0.0968 0.0
H1080 H 0.06092 0.50458 0.06851 0.0
H1081 H 0.11822 0.5101 0.14154 0.0
H1082 H 0.06076 0.594 0.95202 0.0
H1083 H 0.22393 0.4892 0.00411 0.0
H1084 H 0.08751 0.6171 0.87204 0.0
H1085 H 0.21017 0.47343 0.95397 0.0
O1086 O 0.11288 0.58779 0.0366 0.0
H1087 H 0.18532 0.59055 0.1414 0.0
H1088 H 0.08332 0.56665 0.1154 0.0
H1089 H 0.0931 0.6049 0.15208 0.0
H1090 H 0.14441 0.61702 0.16536 0.0
H1091 H 0.17456 0.55256 0.10468 0.0
H1092 H 0.08154 0.48583 0.17295 0.0
H1093 H 0.03371 0.47096 0.15181 0.0
O1094 O 0.08907 0.55346 0.06173 0.0
C1095 C 0.10689 0.50457 0.02108 0.0
C1096 C 0.04417 0.48701 0.10868 0.0
C1097 C 0.07675 0.49001 0.15009 0.0
N1098 N 0.09145 0.50929 0.10335 0.0
C1099 C 0.06538 0.50079 0.09146 0.0
C1100 C 0.09743 0.50376 0.1322 0.0
C1101 C 0.04992 0.48166 0.13821 0.0
C1102 C 0.18803 0.5195 0.00771 0.0
N1103 N 0.16412 0.53176 0.99442 0.0
C1104 C 0.20498 0.49854 0.99339 0.0
C1105 C 0.19724 0.48966 0.96531 0.0
C1106 C 0.17243 0.50138 0.95214 0.0
C1107 C 0.15582 0.52207 0.96724 0.0
C1108 C 0.13262 0.60145 0.93363 0.0
C1109 C 0.0963 0.5786 0.97548 0.0
C1110 C 0.14374 0.58984 0.95937 0.0
N1111 N 0.12569 0.57711 0.97925 0.0
C1112 C 0.08429 0.59188 0.95123 0.0
C1113 C 0.10194 0.60047 0.92668 0.0
C1114 C 0.08951 0.57848 0.04923 0.0
C1115 C 0.16287 0.58542 0.13584 0.0
C1116 C 0.10572 0.57186 0.12097 0.0
C1117 C 0.11112 0.5935 0.14181 0.0
C1118 C 0.13991 0.60028 0.14926 0.0
N1119 N 0.12836 0.55729 0.10797 0.0
C1120 C 0.15664 0.56389 0.1151 0.0
Co1121 Co 0.68149 0.88807 0.27079 0.0
Co1122 Co 0.72011 0.86513 0.32949 0.0
O1123 O 0.69788 0.89626 0.30917 0.0
C1124 C 0.64764 0.94425 0.28094 0.0
O1125 O 0.65659 0.95397 0.30647 0.0
C1126 C 0.75707 0.91614 0.33538 0.0
O1127 O 0.75692 0.91793 0.30671 0.0
O1128 O 0.7488 0.86346 0.29609 0.0
O1129 O 0.71538 0.86169 0.2606 0.0
H1130 H 0.77494 0.77029 0.33829 0.0
H1131 H 0.70728 0.94526 0.292 0.0
O1132 O 0.64685 0.91641 0.27655 0.0
H1133 H 0.73411 0.93954 0.18778 0.0
H1134 H 0.64075 0.9092 0.17386 0.0
H1135 H 0.67358 0.83237 0.24083 0.0
H1136 H 0.71045 0.89796 0.21212 0.0
H1137 H 0.65028 0.91964 0.2235 0.0
O1138 O 0.74339 0.89593 0.34857 0.0
H1139 H 0.74643 0.80827 0.31262 0.0
H1140 H 0.74317 0.85909 0.39031 0.0
H1141 H 0.65882 0.81758 0.19402 0.0
H1142 H 0.73327 0.98614 0.26915 0.0
H1143 H 0.64034 0.85597 0.11929 0.0
H1144 H 0.7461 0.98408 0.21633 0.0
O1145 O 0.6592 0.8543 0.28902 0.0
H1146 H 0.65631 0.91578 0.40331 0.0
H1147 H 0.68715 0.82033 0.36411 0.0
H1148 H 0.6508 0.8221 0.404 0.0
H1149 H 0.63522 0.87009 0.42394 0.0
H1150 H 0.69239 0.91305 0.36322 0.0
H1151 H 0.77185 0.82177 0.41675 0.0
H1152 H 0.78779 0.77689 0.39076 0.0
O1153 O 0.69715 0.83301 0.31093 0.0
C1154 C 0.74192 0.8607 0.26915 0.0
C1155 C 0.76803 0.7897 0.34988 0.0
C1156 C 0.76633 0.8186 0.39391 0.0
N1157 N 0.74286 0.83572 0.35003 0.0
C1158 C 0.75181 0.81124 0.33549 0.0
C1159 C 0.75015 0.83969 0.37881 0.0
C1160 C 0.77526 0.79343 0.37932 0.0
C1161 C 0.71235 0.94387 0.26902 0.0
N1162 N 0.70436 0.91995 0.25291 0.0
C1163 C 0.72742 0.96723 0.25621 0.0
C1164 C 0.73467 0.96605 0.22663 0.0
C1165 C 0.72781 0.94115 0.21059 0.0
C1166 C 0.71372 0.91779 0.22446 0.0
C1167 C 0.64679 0.89115 0.18787 0.0
C1168 C 0.66493 0.84884 0.22644 0.0
C1169 C 0.65243 0.89765 0.21659 0.0
N1170 N 0.6644 0.87736 0.23437 0.0
C1171 C 0.65664 0.84057 0.19871 0.0
C1172 C 0.65081 0.86235 0.17662 0.0
C1173 C 0.6718 0.83157 0.29961 0.0
C1174 C 0.66297 0.89474 0.39484 0.0
C1175 C 0.6804 0.84131 0.37256 0.0
C1176 C 0.65985 0.84217 0.39521 0.0
C1177 C 0.65113 0.86909 0.40639 0.0
N1178 N 0.69198 0.86657 0.36139 0.0
C1179 C 0.68345 0.89305 0.37218 0.0
Co1180 Co 0.35625 0.43184 0.5107 0.0
Co1181 Co 0.37677 0.46247 0.57405 0.0
O1182 O 0.34515 0.44577 0.54951 0.0
C1183 C 0.29851 0.39873 0.52193 0.0
O1184 O 0.29318 0.41132 0.54717 0.0
C1185 C 0.32855 0.50345 0.58143 0.0
O1186 O 0.3272 0.50575 0.55281 0.0
O1187 O 0.38316 0.49373 0.54354 0.0
O1188 O 0.38824 0.46142 0.50806 0.0
H1189 H 0.47539 0.50749 0.59239 0.0
H1190 H 0.29891 0.46027 0.52598 0.0
O1191 O 0.3233 0.40186 0.50927 0.0
H1192 H 0.32613 0.50085 0.42977 0.0
H1193 H 0.34373 0.38414 0.41438 0.0
H1194 H 0.41482 0.42339 0.48352 0.0
H1195 H 0.35954 0.46799 0.45614 0.0
H1196 H 0.32723 0.40905 0.45692 0.0
O1197 O 0.34754 0.48726 0.59344 0.0
H1198 H 0.4364 0.48518 0.56245 0.0
H1199 H 0.3815 0.4786 0.63727 0.0
H1200 H 0.43263 0.3941 0.44276 0.0
H1201 H 0.26583 0.49472 0.5016 0.0
H1202 H 0.39723 0.373 0.40723 0.0
H1203 H 0.2788 0.51467 0.45261 0.0
O1204 O 0.38302 0.40375 0.53062 0.0
H1205 H 0.31429 0.39851 0.63835 0.0
H1206 H 0.41534 0.42255 0.6089 0.0
H1207 H 0.40678 0.38371 0.64547 0.0
H1208 H 0.35595 0.37152 0.66051 0.0
H1209 H 0.32382 0.43706 0.60165 0.0
H1210 H 0.41973 0.50114 0.66798 0.0
H1211 H 0.46718 0.51555 0.64559 0.0
O1212 O 0.40767 0.43712 0.55581 0.0
C1213 C 0.38842 0.48764 0.51687 0.0
C1214 C 0.45487 0.50117 0.60244 0.0
C1215 C 0.42363 0.49762 0.64486 0.0
N1216 N 0.40691 0.48015 0.59819 0.0
C1217 C 0.43276 0.48844 0.58562 0.0
C1218 C 0.40204 0.48491 0.62735 0.0
C1219 C 0.45024 0.50571 0.63228 0.0
C1220 C 0.30497 0.46862 0.50478 0.0
N1221 N 0.33047 0.46016 0.49162 0.0
C1222 C 0.28606 0.48836 0.49106 0.0
C1223 C 0.29332 0.49953 0.4636 0.0
C1224 C 0.31976 0.49164 0.4507 0.0
C1225 C 0.33842 0.47247 0.46547 0.0
C1226 C 0.35979 0.39056 0.4299 0.0
C1227 C 0.39909 0.41382 0.46883 0.0
C1228 C 0.35024 0.4058 0.45412 0.0
N1229 N 0.36972 0.41662 0.47372 0.0
C1230 C 0.40945 0.39738 0.44543 0.0
C1231 C 0.38955 0.38531 0.42586 0.0
C1232 C 0.40647 0.41228 0.54324 0.0
C1233 C 0.33653 0.40364 0.632 0.0
C1234 C 0.39314 0.41729 0.61519 0.0
C1235 C 0.38844 0.39531 0.63598 0.0
C1236 C 0.35992 0.3885 0.64441 0.0
N1237 N 0.37008 0.43214 0.60318 0.0
C1238 C 0.34207 0.42548 0.61126 0.0
Co1239 Co 0.19327 0.59911 0.7248 0.0
Co1240 Co 0.22455 0.6308 0.6636 0.0
O1241 O 0.20492 0.59701 0.68383 0.0
C1242 C 0.15321 0.5479 0.71355 0.0
O1243 O 0.16481 0.53772 0.68936 0.0
C1244 C 0.26447 0.58257 0.65529 0.0
O1245 O 0.26539 0.58082 0.68395 0.0
O1246 O 0.25521 0.63584 0.69513 0.0
O1247 O 0.22944 0.62018 0.73334 0.0
H1248 H 0.2709 0.73013 0.65291 0.0
H1249 H 0.21598 0.54661 0.6911 0.0
O1250 O 0.15558 0.57525 0.71956 0.0
H1251 H 0.25152 0.5327 0.79184 0.0
H1252 H 0.14486 0.57774 0.82058 0.0
H1253 H 0.20111 0.64839 0.76291 0.0
H1254 H 0.22537 0.5772 0.77843 0.0
H1255 H 0.16338 0.56427 0.7732 0.0
O1256 O 0.24945 0.60232 0.64292 0.0
H1257 H 0.24708 0.68974 0.67972 0.0
H1258 H 0.24349 0.63932 0.60176 0.0
H1259 H 0.19156 0.65994 0.81134 0.0
H1260 H 0.24256 0.50207 0.70369 0.0
H1261 H 0.13459 0.63788 0.86898 0.0
H1262 H 0.2604 0.49445 0.75448 0.0
O1263 O 0.17126 0.6363 0.71561 0.0
H1264 H 0.16231 0.57596 0.5913 0.0
H1265 H 0.18532 0.6728 0.63259 0.0
H1266 H 0.14719 0.66848 0.59459 0.0
H1267 H 0.13554 0.61981 0.57361 0.0
H1268 H 0.20006 0.58118 0.62951 0.0
H1269 H 0.26755 0.67906 0.57418 0.0
H1270 H 0.28127 0.72494 0.59973 0.0
O1271 O 0.2003 0.66044 0.68421 0.0
C1272 C 0.25191 0.63181 0.72256 0.0
C1273 C 0.26491 0.71029 0.6415 0.0
C1274 C 0.26308 0.68162 0.59732 0.0
N1275 N 0.24359 0.66231 0.64228 0.0
C1276 C 0.25131 0.68737 0.65655 0.0
C1277 C 0.24951 0.65917 0.61308 0.0
C1278 C 0.27076 0.70735 0.61167 0.0
C1279 C 0.22223 0.54337 0.71361 0.0
N1280 N 0.21558 0.56359 0.73465 0.0
C1281 C 0.23804 0.51813 0.72045 0.0
C1282 C 0.24809 0.51388 0.74889 0.0
C1283 C 0.24295 0.53522 0.76986 0.0
C1284 C 0.22725 0.56026 0.76217 0.0
C1285 C 0.15705 0.59389 0.80851 0.0
C1286 C 0.18982 0.63211 0.77578 0.0
C1287 C 0.16732 0.58601 0.78109 0.0
N1288 N 0.1824 0.6056 0.76466 0.0
C1289 C 0.18252 0.63965 0.80373 0.0
C1290 C 0.16253 0.62229 0.82032 0.0
C1291 C 0.17926 0.65973 0.70237 0.0
C1292 C 0.16723 0.5973 0.60023 0.0
C1293 C 0.18026 0.65151 0.6237 0.0
C1294 C 0.15871 0.64922 0.60212 0.0
C1295 C 0.1522 0.6219 0.59034 0.0
N1296 N 0.19499 0.62728 0.63324 0.0
C1297 C 0.18865 0.60042 0.62184 0.0
Co1298 Co 0.63576 0.93319 0.98125 0.0
Co1299 Co 0.6163 0.96779 0.919 0.0
O1300 O 0.64685 0.94755 0.94221 0.0
C1301 C 0.69197 0.89621 0.97041 0.0
O1302 O 0.69784 0.90667 0.94422 0.0
C1303 C 0.66717 0.00663 0.90879 0.0
O1304 O 0.67173 0.00797 0.93717 0.0
O1305 O 0.61302 -0.00215 0.95122 0.0
O1306 O 0.60524 0.96415 0.98556 0.0
H1307 H 0.52382 0.02602 0.90617 0.0
H1308 H 0.69636 0.95418 0.96642 0.0
O1309 O 0.667 0.90114 0.98233 0.0
H1310 H 0.66924 0.00941 0.05452 0.0
H1311 H 0.64778 0.91208 0.08778 0.0
H1312 H 0.58256 0.90156 0.00427 0.0
H1313 H 0.63441 0.97506 0.03235 0.0
H1314 H 0.66368 0.92659 0.04109 0.0
O1315 O 0.64652 0.99123 0.89868 0.0
H1316 H 0.56136 -0.00088 0.9339 0.0
H1317 H 0.60789 0.98184 0.85533 0.0
H1318 H 0.57074 0.8751 0.04635 0.0
H1319 H 0.73195 0.98759 0.98823 0.0
H1320 H 0.58711 0.88434 0.12973 0.0
H1321 H 0.7187 0.01557 0.03282 0.0
O1322 O 0.60565 0.90763 0.96083 0.0
H1323 H 0.67222 0.90217 0.85099 0.0
H1324 H 0.57393 0.93114 0.88467 0.0
H1325 H 0.5788 0.89288 0.8471 0.0
H1326 H 0.62821 0.87826 0.82988 0.0
H1327 H 0.6664 0.94013 0.88882 0.0
H1328 H 0.5711 0.00891 0.82677 0.0
H1329 H 0.5285 0.03109 0.85215 0.0
O1330 O 0.58417 0.94442 0.9371 0.0
C1331 C 0.60578 0.99075 0.97735 0.0
C1332 C 0.54225 0.01642 0.89483 0.0
C1333 C 0.56876 0.00683 0.8503 0.0
N1334 N 0.58682 0.98865 0.89634 0.0
C1335 C 0.56361 0.00109 0.91044 0.0
C1336 C 0.58964 0.99161 0.86664 0.0
C1337 C 0.54488 0.01927 0.86454 0.0
C1338 C 0.6906 0.96494 0.98645 0.0
N1339 N 0.66381 0.96057 -0.0009 0.0
C1340 C 0.71078 0.9845 -0.00157 0.0
C1341 C 0.70328 0.00034 0.0233 0.0
C1342 C 0.67558 -0.00312 0.03547 0.0
C1343 C 0.65589 0.97735 0.02267 0.0
C1344 C 0.63264 0.90854 0.06985 0.0
C1345 C 0.59772 0.90302 0.02178 0.0
C1346 C 0.642 0.91775 0.04257 0.0
N1347 N 0.62362 0.91755 0.0192 0.0
C1348 C 0.58964 0.88927 0.0476 0.0
C1349 C 0.60383 0.8965 0.07448 0.0
C1350 C 0.58292 0.91907 0.94857 0.0
C1351 C 0.65057 0.90842 0.85826 0.0
C1352 C 0.59555 0.92477 0.8775 0.0
C1353 C 0.59815 0.90316 0.85611 0.0
C1354 C 0.62587 0.89498 0.84645 0.0
N1355 N 0.61988 0.93803 0.88885 0.0
C1356 C 0.64713 0.92996 0.87961 0.0
Co1357 Co 0.85315 0.05937 0.47824 0.0
Co1358 Co 0.8804 0.02533 0.41748 0.0
O1359 O 0.84775 0.04555 0.43819 0.0
C1360 C 0.80055 0.09856 0.46406 0.0
O1361 O 0.79365 0.08754 0.43844 0.0
C1362 C 0.83117 0.9863 0.40827 0.0
O1363 O 0.82736 0.98617 0.43678 0.0
O1364 O 0.88355 0.99477 0.44947 0.0
O1365 O 0.87791 0.02441 0.48791 0.0
H1366 H 0.97778 0.97513 0.40755 0.0
H1367 H 0.79727 0.03768 0.45022 0.0
O1368 O 0.82673 0.09541 0.47392 0.0
H1369 H 0.79442 -0.00186 0.5503 0.0
H1370 H 0.83305 0.09249 0.58117 0.0
H1371 H 0.90677 0.06839 0.50854 0.0
H1372 H 0.83727 0.02544 0.53323 0.0
H1373 H 0.81851 0.0788 0.53262 0.0
O1374 O 0.8513 0.00145 0.39671 0.0
H1375 H 0.93862 0.00133 0.43367 0.0
H1376 H 0.88917 0.0076 0.35527 0.0
H1377 H 0.92352 0.08962 0.55023 0.0
H1378 H 0.75407 0.01093 0.4665 0.0
H1379 H 0.8931 0.09758 0.63065 0.0
H1380 H 0.752 0.99099 0.51709 0.0
O1381 O 0.88843 0.08263 0.46358 0.0
H1382 H 0.82739 0.08934 0.34524 0.0
H1383 H 0.92382 0.06285 0.38584 0.0
H1384 H 0.92063 0.10074 0.34745 0.0
H1385 H 0.87216 0.11412 0.32678 0.0
H1386 H 0.83152 0.05175 0.38385 0.0
H1387 H 0.92761 0.98125 0.32821 0.0
H1388 H 0.97237 0.96483 0.35438 0.0
O1389 O 0.91101 0.04827 0.43764 0.0
C1390 C 0.88421 -0.00043 0.47706 0.0
C1391 C 0.9583 0.98196 0.39593 0.0
C1392 C 0.93014 0.98537 0.35142 0.0
N1393 N 0.91128 0.00535 0.39623 0.0
C1394 C 0.93599 -0.00331 0.41067 0.0
C1395 C 0.90831 5e-05 0.36691 0.0
C1396 C 0.95526 0.97621 0.36611 0.0
C1397 C 0.79645 0.03072 0.47268 0.0
N1398 N 0.81918 0.03617 0.49148 0.0
C1399 C 0.77191 0.01479 0.48161 0.0
C1400 C 0.77083 0.00346 0.50989 0.0
C1401 C 0.79454 0.00756 0.52852 0.0
C1402 C 0.81873 0.02355 0.51873 0.0
C1403 C 0.85028 0.08821 0.56546 0.0
C1404 C 0.89047 0.07609 0.52316 0.0
C1405 C 0.8415 0.08092 0.53725 0.0
N1406 N 0.86172 0.07317 0.51701 0.0
C1407 C 0.89997 0.08738 0.54906 0.0
C1408 C 0.88072 0.08878 0.57373 0.0
C1409 C 0.91163 0.07183 0.45203 0.0
C1410 C 0.84864 0.08366 0.35403 0.0
C1411 C 0.90262 0.06868 0.37713 0.0
C1412 C 0.90096 0.09009 0.35531 0.0
C1413 C 0.87376 0.09758 0.3437 0.0
N1414 N 0.87788 0.055 0.38704 0.0
C1415 C 0.85113 0.06234 0.37586 0.0
C1416 C 0.08978 0.20106 0.45102 0.0
C1417 C 0.10092 0.18783 0.47638 0.0
C1418 C 0.10832 0.21586 0.43174 0.0
C1419 C 0.13862 0.21792 0.43721 0.0
H1420 H 0.06682 0.1991 0.44541 0.0
H1421 H 0.09882 0.22516 0.41207 0.0
S1422 S 0.1779 0.19011 0.50268 0.0
N1423 N 0.14356 0.18003 0.50759 0.0
N1424 N 0.17846 0.20767 0.47106 0.0
C1425 C 0.14981 0.20588 0.46317 0.0
C1426 C 0.13092 0.19092 0.48288 0.0
C1427 C 0.04915 0.90121 0.70521 0.0
C1428 C 0.0231 0.89107 0.69264 0.0
C1429 C 0.0631 0.88506 0.72699 0.0
C1430 C 0.05097 0.85872 0.73728 0.0
H1431 H 0.05925 0.92129 0.69759 0.0
H1432 H 0.08359 0.89318 0.73571 0.0
S1433 S 0.98176 0.8242 0.71296 0.0
N1434 N 0.98495 0.85392 0.69261 0.0
N1435 N 0.01071 0.82402 0.7346 0.0
C1436 C 0.02428 0.84899 0.72576 0.0
C1437 C 0.01046 0.86505 0.70304 0.0
C1438 C 0.38829 0.76738 0.93139 0.0
C1439 C 0.36133 0.75802 0.94279 0.0
C1440 C 0.40351 0.79029 0.94443 0.0
C1441 C 0.39176 0.80491 0.96871 0.0
H1442 H 0.39756 0.75706 0.91217 0.0
H1443 H 0.42423 0.79701 0.935 0.0
S1444 S 0.32184 0.78808 0.00671 0.0
N1445 N 0.3238 0.76403 0.9799 0.0
N1446 N 0.35179 0.80812 0.00394 0.0
C1447 C 0.36484 0.79554 0.9804 0.0
C1448 C 0.34978 0.7717 0.96756 0.0
C1449 C 0.43929 0.09351 0.1955 0.0
C1450 C 0.46894 0.09908 0.1903 0.0
C1451 C 0.42275 0.11301 0.21193 0.0
C1452 C 0.43556 0.13843 0.22352 0.0
H1453 H 0.42855 0.07479 0.1857 0.0
H1454 H 0.39962 0.10863 0.21479 0.0
S1455 S 0.5134 0.16019 0.21965 0.0
N1456 N 0.51126 0.1298 0.20032 0.0
N1457 N 0.47986 0.16664 0.23145 0.0
C1458 C 0.46544 0.14351 0.21962 0.0
C1459 C 0.48229 0.12366 0.20294 0.0
C1460 C 0.60645 0.28533 0.57203 0.0
C1461 C 0.62772 0.26874 0.55727 0.0
C1462 C 0.59273 0.30892 0.55825 0.0
C1463 C 0.60001 0.31673 0.52939 0.0
H1464 H 0.60027 0.28 0.59434 0.0
H1465 H 0.57621 0.32093 0.57023 0.0
S1466 S 0.65605 0.2815 0.48215 0.0
N1467 N 0.65616 0.26221 0.51273 0.0
N1468 N 0.63116 0.30707 0.4871 0.0
C1469 C 0.62163 0.30055 0.51459 0.0
C1470 C 0.63526 0.27636 0.52846 0.0
C1471 C 0.97168 0.36232 0.7669 0.0
C1472 C 0.94105 0.36522 0.76552 0.0
C1473 C 0.98809 0.37892 0.78647 0.0
C1474 C 0.9744 0.3993 0.80466 0.0
H1475 H 0.9831 0.34685 0.75308 0.0
H1476 H 0.0116 0.37587 0.78738 0.0
S1477 S 0.89528 0.41486 0.81071 0.0
N1478 N 0.89779 0.38958 0.7851 0.0
N1479 N 0.9292 0.42143 0.82128 0.0
C1480 C 0.94406 0.4027 0.80362 0.0
C1481 C 0.92719 0.38541 0.78418 0.0
C1482 C 0.84273 0.69622 0.0466 0.0
C1483 C 0.85385 0.72219 0.05828 0.0
C1484 C 0.86102 0.67707 0.03164 0.0
C1485 C 0.89097 0.6834 0.02772 0.0
H1486 H 0.82011 0.69 0.0501 0.0
H1487 H 0.85157 0.6569 0.0236 0.0
S1488 S 0.92956 0.75084 0.05095 0.0
N1489 N 0.89568 0.75494 0.06272 0.0
N1490 N 0.93022 0.71879 0.03446 0.0
C1491 C 0.90197 0.71012 0.03797 0.0
C1492 C 0.88333 0.72959 0.0533 0.0
C1493 C 0.53067 0.64736 0.28093 0.0
C1494 C 0.55888 0.639 0.27226 0.0
C1495 C 0.51331 0.62853 0.29766 0.0
C1496 C 0.52365 0.60079 0.306 0.0
H1497 H 0.52194 0.66851 0.27475 0.0
H1498 H 0.49172 0.63576 0.30426 0.0
S1499 S 0.59668 0.56946 0.2908 0.0
N1500 N 0.59693 0.60176 0.27461 0.0
N1501 N 0.5639 0.56624 0.30562 0.0
C1502 C 0.55169 0.59211 0.29746 0.0
C1503 C 0.56947 0.61132 0.28069 0.0
C1504 C 0.21256 0.46075 0.14982 0.0
C1505 C 0.22056 0.43214 0.14241 0.0
C1506 C 0.19593 0.47774 0.13053 0.0
C1507 C 0.18686 0.46664 0.10323 0.0
H1508 H 0.21941 0.47017 0.17048 0.0
H1509 H 0.19014 0.49974 0.13706 0.0
S1510 S 0.20004 0.39216 0.07461 0.0
N1511 N 0.21665 0.39281 0.1067 0.0
N1512 N 0.18583 0.42503 0.07033 0.0
C1513 C 0.19455 0.43806 0.09563 0.0
C1514 C 0.21125 0.42069 0.11531 0.0
C1515 C 0.71211 0.03553 0.8972 0.0
C1516 C 0.6856 0.02317 0.88789 0.0
C1517 C 0.72961 0.05151 0.87776 0.0
C1518 C 0.72124 0.05568 0.8483 0.0
H1519 H 0.71943 0.03292 0.91964 0.0
H1520 H 0.7498 0.06084 0.886 0.0
S1521 S 0.65357 0.02851 0.81298 0.0
N1522 N 0.65168 0.01663 0.84708 0.0
N1523 N 0.68477 0.04653 0.81077 0.0
C1524 C 0.69504 0.04323 0.83857 0.0
C1525 C 0.67714 0.02705 0.85833 0.0
C1526 C 0.76644 0.94332 0.38109 0.0
C1527 C 0.7753 0.9356 0.35266 0.0
C1528 C 0.78467 0.95987 0.39909 0.0
C1529 C 0.81232 0.96887 0.38918 0.0
H1530 H 0.74534 0.93642 0.38948 0.0
H1531 H 0.77705 0.96565 0.4208 0.0
S1532 S 0.84625 0.95201 0.31712 0.0
N1533 N 0.81347 0.93694 0.31568 0.0
N1534 N 0.84822 0.96755 0.34963 0.0
C1535 C 0.82143 0.961 0.36078 0.0
C1536 C 0.80273 0.94448 0.34242 0.0
C1537 C 0.28125 0.56572 0.60647 0.0
C1538 C 0.28005 0.56135 0.63701 0.0
C1539 C 0.29613 0.54625 0.58841 0.0
C1540 C 0.31025 0.52176 0.60027 0.0
H1541 H 0.27103 0.58458 0.59637 0.0
H1542 H 0.29721 0.55093 0.56514 0.0
S1543 S 0.31129 0.49889 0.67851 0.0
N1544 N 0.29292 0.5299 0.67814 0.0
N1545 N 0.32025 0.49273 0.64407 0.0
C1546 C 0.30828 0.51646 0.63063 0.0
C1547 C 0.29338 0.53646 0.64906 0.0
C1548 C 0.25897 0.36073 0.51356 0.0
C1549 C 0.27391 0.38609 0.50444 0.0
C1550 C 0.23749 0.34758 0.49556 0.0
C1551 C 0.23029 0.35929 0.46778 0.0
H1552 H 0.26458 0.35046 0.53422 0.0
H1553 H 0.22742 0.32738 0.50287 0.0
S1554 S 0.25989 0.42764 0.4357 0.0
N1555 N 0.27696 0.42422 0.46738 0.0
N1556 N 0.23811 0.39897 0.43337 0.0
C1557 C 0.24418 0.38523 0.45912 0.0
C1558 C 0.26555 0.39876 0.47751 0.0
C1559 C 0.8572 0.99225 0.7045 0.0
C1560 C 0.88089 0.97466 0.71341 0.0
C1561 C 0.84635 0.01491 0.72237 0.0
C1562 C 0.85824 0.02087 0.75029 0.0
H1563 H 0.84754 0.98911 0.68305 0.0
H1564 H 0.82822 0.02772 0.71425 0.0
S1565 S 0.91806 0.97923 0.78584 0.0
N1566 N 0.91418 0.96341 0.75356 0.0
N1567 N 0.89345 0.00561 0.78695 0.0
C1568 C 0.88065 0.00237 0.76029 0.0
C1569 C 0.89195 0.97938 0.742 0.0
C1570 C 0.26707 0.62958 0.99588 0.0
C1571 C 0.27015 0.61965 0.96665 0.0
C1572 C 0.2448 0.61879 0.01451 0.0
C1573 C 0.22477 0.59758 0.00477 0.0
H1574 H 0.28068 0.64723 0.00388 0.0
H1575 H 0.24252 0.62798 0.03624 0.0
S1576 S 0.22761 0.55948 0.9329 0.0
N1577 N 0.25391 0.58411 0.93082 0.0
N1578 N 0.21316 0.56338 0.96578 0.0
C1579 C 0.22938 0.58567 0.97665 0.0
C1580 C 0.25181 0.59671 0.95769 0.0
C1581 C 0.63578 0.9937 0.21321 0.0
C1582 C 0.60949 0.00843 0.21933 0.0
C1583 C 0.64812 0.9737 0.2334 0.0
C1584 C 0.63383 0.96567 0.25976 0.0
H1585 H 0.64729 -0.00189 0.19292 0.0
H1586 H 0.6691 0.96437 0.22804 0.0
S1587 S 0.56541 -0.0008 0.28732 0.0
N1588 N 0.57087 0.01534 0.25535 0.0
N1589 N 0.59278 0.97603 0.29163 0.0
C1590 C 0.60789 0.98071 0.26641 0.0
C1591 C 0.59595 0.00215 0.24654 0.0
C1592 C 0.76236 0.12874 0.5324 0.0
C1593 C 0.73295 0.13292 0.52415 0.0
C1594 C 0.78403 0.12111 0.51191 0.0
C1595 C 0.77715 0.11212 0.48327 0.0
H1596 H 0.76944 0.13397 0.5543 0.0
H1597 H 0.80655 0.12278 0.5187 0.0
S1598 S 0.70253 0.11541 0.4508 0.0
N1599 N 0.69794 0.12773 0.48449 0.0
N1600 N 0.7376 0.10719 0.44784 0.0
C1601 C 0.74738 0.11438 0.47498 0.0
C1602 C 0.72562 0.12547 0.49506 0.0
C1603 C 0.11496 0.53477 0.75165 0.0
C1604 C 0.13977 0.52695 0.73521 0.0
C1605 C 0.10354 0.51611 0.77355 0.0
C1606 C 0.11714 0.48943 0.78122 0.0
H1607 H 0.10412 0.55539 0.74741 0.0
H1608 H 0.08346 0.52258 0.78407 0.0
S1609 S 0.1815 0.4577 0.74355 0.0
N1610 N 0.17622 0.48923 0.72666 0.0
N1611 N 0.15572 0.45534 0.76884 0.0
C1612 C 0.14136 0.48094 0.76431 0.0
C1613 C 0.15251 0.49946 0.74131 0.0
C1614 C 0.71379 0.88611 0.02013 0.0
C1615 C 0.71624 0.88407 0.98947 0.0
C1616 C 0.73644 0.87808 0.03922 0.0
C1617 C 0.76209 0.86454 0.02915 0.0
H1618 H 0.6942 0.8942 0.02988 0.0
H1619 H 0.73326 0.88192 0.06237 0.0
S1620 S 0.78105 0.85442 0.95052 0.0
N1621 N 0.74829 0.86965 0.94955 0.0
N1622 N 0.78953 0.85081 0.98555 0.0
C1623 C 0.76537 0.86236 -0.00164 0.0
C1624 C 0.74276 0.87257 0.97863 0.0
C1625 C 0.35309 0.46863 0.2687 0.0
C1626 C 0.35874 0.46908 0.23841 0.0
C1627 C 0.36201 0.49104 0.28738 0.0
C1628 C 0.37894 0.51458 0.27725 0.0
H1629 H 0.34151 0.45073 0.27836 0.0
H1630 H 0.35661 0.48906 0.3104 0.0
S1631 S 0.39526 0.52997 0.19887 0.0
N1632 N 0.3779 0.49825 0.19816 0.0
N1633 N 0.39726 0.53956 0.23372 0.0
C1634 C 0.38318 0.51675 0.2466 0.0
C1635 C 0.37273 0.49418 0.22718 0.0
C1636 C 0.50191 0.2704 0.35701 0.0
C1637 C 0.50981 0.27062 0.38669 0.0
C1638 C 0.48142 0.25021 0.34625 0.0
C1639 C 0.46701 0.23007 0.36469 0.0
H1640 H 0.5114 0.28617 0.342 0.0
H1641 H 0.47666 0.25087 0.3233 0.0
S1642 S 0.48151 0.21953 0.44374 0.0
N1643 N 0.50344 0.24666 0.43412 0.0
N1644 N 0.46351 0.21025 0.41378 0.0
C1645 C 0.47518 0.22943 0.39424 0.0
C1646 C 0.49691 0.24928 0.4052 0.0
C1647 C 0.98077 0.22477 0.5998 0.0
C1648 C 0.00747 0.21779 0.61372 0.0
C1649 C 0.9627 0.24773 0.60968 0.0
C1650 C 0.96981 0.26426 0.63471 0.0
H1651 H 0.97368 0.21243 0.58095 0.0
H1652 H 0.94235 0.25178 0.59821 0.0
S1653 S 0.03919 0.25699 0.67712 0.0
N1654 N 0.04165 0.23136 0.65184 0.0
N1655 N 0.00762 0.27357 0.67133 0.0
C1656 C -0.00254 0.25861 0.64774 0.0
C1657 C 0.01612 0.23555 0.6372 0.0
C1658 C 0.97804 0.73366 0.88321 0.0
C1659 C 0.98388 0.70334 0.88082 0.0
C1660 C -0.00015 0.75512 0.87738 0.0
C1661 C 0.02915 0.74731 0.87113 0.0
H1662 H 0.95581 0.7409 0.88702 0.0
H1663 H 0.99332 0.77784 0.87612 0.0
S1664 S 0.0553 0.67316 0.85792 0.0
N1665 N 0.01964 0.66982 0.86151 0.0
N1666 N 0.06305 0.70694 0.86731 0.0
C1667 C 0.03578 0.71731 0.87291 0.0
C1668 C 0.01258 0.69616 0.8726 0.0
C1669 C 0.51012 0.73593 0.10709 0.0
C1670 C 0.52354 0.74262 0.13406 0.0
C1671 C 0.48816 0.75417 0.09489 0.0
C1672 C 0.47871 0.77997 0.10907 0.0
H1673 H 0.51681 0.71662 0.09518 0.0
H1674 H 0.47901 0.74832 0.07382 0.0
S1675 S 0.50375 0.80546 0.18175 0.0
N1676 N 0.52281 0.77544 0.1758 0.0
N1677 N 0.48303 0.80986 0.15248 0.0
C1678 C 0.49122 0.78632 0.13635 0.0
C1679 C 0.5132 0.76767 0.14888 0.0
C1680 C 0.22714 0.311 0.2921 0.0
C1681 C 0.20746 0.33026 0.30572 0.0
C1682 C 0.24072 0.318 0.26563 0.0
C1683 C 0.23412 0.34404 0.25087 0.0
H1684 H 0.23366 0.29123 0.30318 0.0
H1685 H 0.25785 0.30374 0.25755 0.0
S1686 S 0.17784 0.39808 0.27283 0.0
N1687 N 0.17812 0.37411 0.30005 0.0
N1688 N 0.20244 0.3867 0.24883 0.0
C1689 C 0.2118 0.36193 0.2623 0.0
C1690 C 0.19874 0.35524 0.29014 0.0
C1691 C 0.87485 0.97252 0.52372 0.0
C1692 C 0.8926 0.97644 0.49881 0.0
C1693 C 0.88552 0.96015 0.54977 0.0
C1694 C 0.91436 0.9498 0.55182 0.0
H1695 H 0.85261 0.97989 0.52347 0.0
H1696 H 0.87127 0.95975 0.56874 0.0
S1697 S 0.96656 0.94477 0.48934 0.0
N1698 N 0.93815 0.96239 0.47558 0.0
N1699 N 0.95822 0.93771 0.52387 0.0
C1700 C 0.93102 0.94945 0.52561 0.0
C1701 C 0.92012 0.96286 0.49919 0.0
C1702 C 0.26854 0.67194 0.75405 0.0
C1703 C 0.27229 0.6429 0.74494 0.0
C1704 C 0.27446 0.68028 0.78307 0.0
C1705 C 0.28385 0.6598 0.80427 0.0
H1706 H 0.25836 0.68769 0.73949 0.0
H1707 H 0.27018 0.70269 0.78936 0.0
S1708 S 0.30167 0.58225 0.79032 0.0
N1709 N 0.28952 0.59453 0.75846 0.0
N1710 N 0.30026 0.61021 0.81312 0.0
C1711 C 0.28961 0.63124 0.79499 0.0
C1712 C 0.28408 0.62288 0.76529 0.0
C1713 C 0.60567 0.04212 0.04194 0.0
C1714 C 0.57851 0.03546 0.05491 0.0
C1715 C 0.61306 0.03111 0.01392 0.0
C1716 C 0.59405 0.01213 -0.00131 0.0
H1717 H 0.62143 0.05534 0.05369 0.0
H1718 H 0.63473 0.03541 0.0053 0.0
S1719 S 0.51993 0.98947 0.02232 0.0
N1720 N 0.53161 0.01099 0.04884 0.0
N1721 N 0.54652 0.98878 -0.00209 0.0
C1722 C 0.56639 0.00677 0.01081 0.0
C1723 C 0.55844 0.0187 0.0385 0.0
C1724 C 0.73734 0.18244 0.70018 0.0
C1725 C 0.71549 0.16543 0.68696 0.0
C1726 C 0.74797 0.17565 0.72811 0.0
C1727 C 0.73722 0.15151 0.7441 0.0
H1728 H 0.7468 0.20084 0.6885 0.0
H1729 H 0.76633 0.18817 0.73644 0.0
S1730 S 0.67655 0.1029 0.72102 0.0
N1731 N 0.68061 0.1258 0.69318 0.0
N1732 N 0.70118 0.11245 0.74579 0.0
C1733 C 0.71372 0.13568 0.73208 0.0
C1734 C 0.70282 0.14267 0.70339 0.0
C1735 C 0.11466 0.46642 0.98315 0.0
C1736 C 0.09513 0.48357 -0.00032 0.0
C1737 C 0.1071 0.45642 0.95489 0.0
C1738 C 0.07948 0.46263 0.94284 0.0
H1739 H 0.13676 0.46293 0.99099 0.0
H1740 H 0.12319 0.44465 0.94212 0.0
S1741 S 0.01982 0.5043 0.97856 0.0
N1742 N 0.04683 0.505 0.00254 0.0
N1743 N 0.03172 0.48453 0.95078 0.0
C1744 C 0.05905 0.47764 0.96026 0.0
C1745 C 0.06705 0.48844 0.98841 0.0
C1746 C 0.76792 0.82307 0.23946 0.0
C1747 C 0.76423 0.85252 0.24689 0.0
C1748 C 0.78255 0.81503 0.2136 0.0
C1749 C 0.79217 0.83605 0.19293 0.0
H1750 H 0.75834 0.80612 0.25306 0.0
H1751 H 0.78465 0.79198 0.20895 0.0
S1752 S 0.79583 0.91562 0.2065 0.0
N1753 N 0.77834 0.90248 0.23544 0.0
N1754 N 0.80253 0.88741 0.185 0.0
C1755 C 0.79081 0.86548 0.20132 0.0
C1756 C 0.77749 0.87365 0.22864 0.0
C1757 C 0.42567 0.50397 0.48155 0.0
C1758 C 0.39899 0.50962 0.49561 0.0
C1759 C 0.43222 0.51657 0.45442 0.0
C1760 C 0.41205 0.53438 0.4395 0.0
H1761 H 0.44083 0.4882 0.49075 0.0
H1762 H 0.45265 0.51097 0.44409 0.0
S1763 S 0.34161 0.56069 0.46945 0.0
N1764 N 0.35408 0.53805 0.49488 0.0
N1765 N 0.36616 0.56079 0.44281 0.0
C1766 C 0.38619 0.54202 0.45414 0.0
C1767 C 0.37978 0.52986 0.48248 0.0
C1768 C 0.2581 0.23267 0.32131 0.0
C1769 C 0.24739 0.22986 0.34998 0.0
C1770 C 0.28574 0.22202 0.31368 0.0
C1771 C 0.30394 0.20831 0.3345 0.0
H1772 H 0.24566 0.24439 0.30496 0.0
H1773 H 0.2935 0.22581 0.29153 0.0
S1774 S 0.2828 0.18857 0.4103 0.0
N1775 N 0.25458 0.20745 0.39775 0.0
N1776 N 0.30709 0.18773 0.38345 0.0
C1777 C 0.29251 0.20303 0.36254 0.0
C1778 C 0.26402 0.21361 0.37021 0.0
C1779 C 0.02182 0.00466 0.57875 0.0
C1780 C 0.01629 -0.00249 0.60809 0.0
C1781 C 0.03404 0.03182 0.57108 0.0
C1782 C 0.03991 0.05363 0.59224 0.0
H1783 H 0.01511 0.98989 0.56148 0.0
H1784 H 0.03734 0.03632 0.54809 0.0
S1785 S 0.036 0.04282 0.67248 0.0
N1786 N 0.02313 0.01192 0.65882 0.0
N1787 N 0.04401 0.06389 0.64413 0.0
C1788 C 0.0366 0.04583 0.62178 0.0
C1789 C 0.02517 0.01764 0.6297 0.0
C1790 C 0.23825 0.77012 0.83514 0.0
C1791 C 0.23944 0.75756 0.8632 0.0
C1792 C 0.21229 0.7829 0.82472 0.0
C1793 C 0.1866 0.78328 0.84197 0.0
H1794 H 0.25654 0.76791 0.82025 0.0
H1795 H 0.21178 0.79032 0.80216 0.0
S1796 S 0.18063 0.75874 0.91921 0.0
N1797 N 0.21449 0.75059 0.90966 0.0
N1798 N 0.16574 0.77428 0.89013 0.0
C1799 C 0.1886 0.7735 0.87108 0.0
C1800 C 0.21499 0.76065 0.88164 0.0
C1801 C 0.47659 0.96744 0.12089 0.0
C1802 C 0.4781 0.99347 0.10446 0.0
C1803 C 0.46343 0.94199 0.11004 0.0
C1804 C 0.45038 0.94141 0.08219 0.0
H1805 H 0.48644 0.96632 0.14213 0.0
H1806 H 0.46474 0.92228 0.12319 0.0
S1807 S 0.44082 0.0062 0.0335 0.0
N1808 N 0.46035 0.01873 0.06123 0.0
N1809 N 0.43463 0.97135 0.04076 0.0
C1810 C 0.44843 0.96838 0.06692 0.0
C1811 C 0.46236 0.99432 0.07807 0.0
C1812 C 0.75373 0.27355 0.66762 0.0
C1813 C 0.75014 0.26677 0.63782 0.0
C1814 C 0.78049 0.28464 0.67835 0.0
C1815 C 0.80503 0.28879 0.65984 0.0
H1816 H 0.73662 0.26821 0.68314 0.0
H1817 H 0.78245 0.2881 0.70173 0.0
S1818 S 0.80539 0.27834 0.57925 0.0
N1819 N 0.77208 0.26862 0.58942 0.0
N1820 N 0.82248 0.28818 0.60957 0.0
C1821 C 0.80098 0.2839 0.62971 0.0
C1822 C 0.77358 0.27323 0.61877 0.0
C1823 C 0.97598 0.52381 0.87468 0.0
C1824 C 0.97746 0.49737 0.89062 0.0
C1825 C 0.96607 0.54977 0.88742 0.0
C1826 C 0.95587 0.55025 0.9164 0.0
H1827 H 0.98474 0.52497 0.85277 0.0
H1828 H 0.96743 0.56974 0.87471 0.0
S1829 S 0.94546 0.48469 0.96401 0.0
N1830 N 0.96196 0.47185 0.93453 0.0
N1831 N 0.94113 0.52007 0.95815 0.0
C1832 C 0.95297 0.52298 0.93103 0.0
C1833 C 0.96407 0.49661 0.91818 0.0
C1834 C 0.70585 0.70227 0.13819 0.0
C1835 C 0.6882 0.71474 0.16028 0.0
C1836 C 0.73415 0.71366 0.13178 0.0
C1837 C 0.74585 0.73729 0.14789 0.0
H1838 H 0.69754 0.68413 0.12545 0.0
H1839 H 0.74614 0.70506 0.11325 0.0
S1840 S 0.70842 0.77802 0.20687 0.0
N1841 N 0.68486 0.75253 0.19722 0.0
N1842 N 0.73752 0.77203 0.18675 0.0
C1843 C 0.72878 0.74864 0.1707 0.0
C1844 C 0.70018 0.7379 0.1765 0.0
C1845 C 0.50852 0.48144 0.41877 0.0
C1846 C 0.51194 0.49419 0.39107 0.0
C1847 C 0.51903 0.45347 0.42468 0.0
C1848 C 0.53361 0.43695 0.40315 0.0
H1849 H 0.49619 0.49245 0.4356 0.0
H1850 H 0.51466 0.44423 0.44615 0.0
S1851 S 0.55444 0.4633 0.32928 0.0
N1852 N 0.53502 0.49039 0.34325 0.0
N1853 N 0.55526 0.43733 0.35457 0.0
C1854 C 0.53943 0.45029 0.37607 0.0
C1855 C 0.52865 0.47913 0.37006 0.0
C1856 C 0.37935 0.27619 0.23329 0.0
C1857 C 0.3613 0.25124 0.23353 0.0
C1858 C 0.37015 0.3027 0.22082 0.0
C1859 C 0.34224 0.3053 0.20827 0.0
H1860 H 0.40024 0.27562 0.24403 0.0
H1861 H 0.38426 0.32164 0.22272 0.0
S1862 S 0.29103 0.24323 0.19434 0.0
N1863 N 0.31764 0.22869 0.21396 0.0
N1864 N 0.30012 0.27786 0.18977 0.0
C1865 C 0.326 0.27908 0.2043 0.0
C1866 C 0.33551 0.25219 0.2172 0.0
C1867 C 0.82977 0.20895 0.79233 0.0
C1868 C 0.84549 0.18277 0.78671 0.0
C1869 C 0.83849 0.23617 0.78039 0.0
C1870 C 0.8633 0.23835 0.76237 0.0
H1871 H 0.80935 0.20824 0.80433 0.0
H1872 H 0.82445 0.25498 0.78337 0.0
S1873 S 0.91471 0.17762 0.74511 0.0
N1874 N 0.88944 0.16213 0.7657 0.0
N1875 N 0.90507 0.21224 0.74248 0.0
C1876 C 0.88039 0.21281 0.75885 0.0
C1877 C 0.87185 0.1854 0.77136 0.0
C1878 C 0.03321 0.62486 0.00938 0.0
C1879 C 0.00626 0.61069 0.01518 0.0
C1880 C 0.05944 0.61648 0.02296 0.0
C1881 C 0.06052 0.59253 0.04224 0.0
H1882 H 0.03475 0.64176 0.99295 0.0
H1883 H 0.0794 0.62744 0.01632 0.0
S1884 S 0.99573 0.55061 0.06887 0.0
N1885 N 0.98194 0.57401 0.045 0.0
N1886 N 0.03121 0.55734 0.06984 0.0
C1887 C 0.03341 0.57962 0.05023 0.0
C1888 C 0.00643 0.58874 0.03678 0.0
C1889 C 0.68195 0.78253 0.27813 0.0
C1890 C 0.66167 0.80185 0.29101 0.0
C1891 C 0.67295 0.75598 0.26567 0.0
C1892 C 0.64341 0.74784 0.26535 0.0
H1893 H 0.70474 0.78876 0.27603 0.0
H1894 H 0.68896 0.74249 0.25467 0.0
S1895 S 0.58493 0.78324 0.30893 0.0
N1896 N 0.61273 0.80631 0.311 0.0
N1897 N 0.59607 0.7558 0.28818 0.0
C1898 C 0.62388 0.76445 0.28237 0.0
C1899 C 0.63291 0.79179 0.29483 0.0
C1900 C 0.43419 0.37541 0.51422 0.0
C1901 C 0.43459 0.39814 0.53486 0.0
C1902 C 0.4587 0.36962 0.49693 0.0
C1903 C 0.4851 0.38487 0.50082 0.0
H1904 H 0.41397 0.36419 0.50897 0.0
H1905 H 0.45636 0.35409 0.47938 0.0
S1906 S 0.50086 0.43886 0.55895 0.0
N1907 N 0.46579 0.43106 0.56305 0.0
N1908 N 0.51234 0.41867 0.5313 0.0
C1909 C 0.48729 0.40421 0.52444 0.0
C1910 C 0.46197 0.41096 0.54154 0.0
C1911 C 0.18203 0.71417 0.71102 0.0
C1912 C 0.16525 0.68816 0.70998 0.0
C1913 C 0.17039 0.74045 0.72226 0.0
C1914 C 0.14133 0.74188 0.73222 0.0
H1915 H 0.20494 0.71378 0.70499 0.0
H1916 H 0.18487 0.75896 0.72528 0.0
S1917 S 0.087 0.68122 0.72957 0.0
N1918 N 0.11737 0.66652 0.71684 0.0
N1919 N 0.09531 0.71553 0.73693 0.0
C1920 C 0.12384 0.71658 0.72888 0.0
C1921 C 0.1358 0.68984 0.71808 0.0
C1922 C 0.52167 0.86948 0.97624 0.0
C1923 C 0.4975 0.88854 0.97762 0.0
C1924 C 0.54875 0.87837 0.96459 0.0
C1925 C 0.55275 0.90688 0.95379 0.0
H1926 H 0.52004 0.84787 0.98549 0.0
H1927 H 0.56712 0.86348 0.96589 0.0
S1928 S 0.49353 0.96243 0.94501 0.0
N1929 N 0.47755 0.93499 0.96225 0.0
N1930 N 0.52759 0.95189 0.93937 0.0
C1931 C 0.52739 0.92475 0.95147 0.0
C1932 C 0.49998 0.9156 0.96367 0.0
C1933 C 0.95424 0.10735 0.45751 0.0
C1934 C 0.94106 0.08013 0.4633 0.0
C1935 C 0.98193 0.11439 0.46953 0.0
C1936 C 0.99649 0.09491 0.48863 0.0
H1937 H 0.94295 0.12337 0.44416 0.0
H1938 H 0.99081 0.13605 0.46584 0.0
S1939 S 0.97211 0.02053 0.50904 0.0
N1940 N 0.94631 0.0327 0.48688 0.0
N1941 N 0.99648 0.04701 0.511 0.0
C1942 C 0.98415 0.06728 0.49309 0.0
C1943 C 0.95689 0.05967 0.48011 0.0
loop_
_geom_bond_atom_site_label_1
_geom_bond_atom_site_label_2
_geom_bond_distance
_geom_bond_site_symmetry_2
_ccdc_geom_bond_type
Co0 O2 2.143 . S
Co0 O8 2.074 . S
Co0 O11 2.093 . S
Co0 O24 2.097 . S
Co0 N41 2.151 . S
Co0 N49 2.214 . S
Co1 O2 2.160 . S
Co1 O7 2.058 . S
Co1 O17 2.057 . S
Co1 O32 2.037 . S
Co1 N36 2.145 . S
Co1 N57 2.257 . S
O2 Co0 2.143 . S
O2 Co1 2.160 . S
C3 O4 1.278 . S
C3 O11 1.224 . S
O4 C3 1.278 . S
C5 O6 1.245 . S
C5 O17 1.232 . S
O6 C5 1.245 . S
O7 Co1 2.058 . S
O7 C33 1.269 . S
O8 Co0 2.074 . S
O8 C33 1.257 . S
H9 C34 0.930 . S
H10 C40 0.930 . S
O11 Co0 2.093 . S
O11 C3 1.224 . S
H12 C44 0.929 . S
H13 C46 0.930 . S
H14 C47 0.930 . S
H15 C45 0.929 . S
H16 C48 0.928 . S
O17 Co1 2.057 . S
O17 C5 1.232 . S
H18 C37 0.929 . S
H19 C38 0.929 . S
H20 C50 0.931 . S
H21 C42 0.929 . S
H22 C51 0.930 . S
H23 C43 0.931 . S
O24 Co0 2.097 . S
O24 C52 1.214 . S
H25 C53 0.929 . S
H26 C54 0.929 . S
H27 C55 0.930 . S
H28 C56 0.929 . S
H29 C58 0.930 . S
H30 C35 0.930 . S
H31 C39 0.930 . S
O32 Co1 2.037 . S
O32 C52 1.234 . S
C33 O7 1.269 . S
C33 O8 1.257 . S
C34 H9 0.930 . S
C34 C37 1.388 . S
C34 C39 1.418 . S
C35 H30 0.930 . S
C35 C38 1.404 . S
C35 C39 1.353 . S
N36 Co1 2.145 . S
N36 C37 1.397 . S
N36 C38 1.334 . S
C37 H18 0.929 . S
C37 C34 1.388 . S
C37 N36 1.397 . S
C38 H19 0.929 . S
C38 C35 1.404 . S
C38 N36 1.334 . S
C39 H31 0.930 . S
C39 C34 1.418 . S
C39 C35 1.353 . S
C40 H10 0.930 . S
C40 N41 1.330 . S
C40 C42 1.446 . S
N41 Co0 2.151 . S
N41 C40 1.330 . S
N41 C45 1.418 . S
C42 H21 0.929 . S
C42 C40 1.446 . S
C42 C43 1.332 . S
C43 H23 0.931 . S
C43 C42 1.332 . S
C43 C44 1.267 . S
C44 H12 0.929 . S
C44 C43 1.267 . S
C44 C45 1.251 . S
C45 H15 0.929 . S
C45 N41 1.418 . S
C45 C44 1.251 . S
C46 H13 0.930 . S
C46 C48 1.406 . S
C46 C51 1.261 . S
C47 H14 0.930 . S
C47 N49 1.325 . S
C47 C50 1.357 . S
C48 H16 0.928 . S
C48 C46 1.406 . S
C48 N49 1.261 . S
N49 Co0 2.214 . S
N49 C47 1.325 . S
N49 C48 1.261 . S
C50 H20 0.931 . S
C50 C47 1.357 . S
C50 C51 1.312 . S
C51 H22 0.930 . S
C51 C46 1.261 . S
C51 C50 1.312 . S
C52 O24 1.214 . S
C52 O32 1.234 . S
C53 H25 0.929 . S
C53 C56 1.391 . S
C53 C58 1.391 . S
C54 H26 0.929 . S
C54 C55 1.390 . S
C54 N57 1.391 . S
C55 H27 0.930 . S
C55 C54 1.390 . S
C55 C56 1.392 . S
C56 H28 0.929 . S
C56 C53 1.391 . S
C56 C55 1.392 . S
N57 Co1 2.257 . S
N57 C54 1.391 . S
N57 C58 1.388 . S
C58 H29 0.930 . S
C58 C53 1.391 . S
C58 N57 1.388 . S
Co59 O61 2.143 . S
Co59 O67 2.074 . S
Co59 O70 2.093 . S
Co59 O83 2.097 . S
Co59 N100 2.151 1_565 S
Co59 N108 2.214 1_565 S
Co60 O61 2.160 . S
Co60 O66 2.074 . S
Co60 O76 2.057 . S
Co60 O91 2.037 . S
Co60 N95 2.145 . S
Co60 N116 2.257 . S
O61 Co59 2.143 . S
O61 Co60 2.160 . S
C62 O63 1.278 . S
C62 O70 1.224 . S
O63 C62 1.278 . S
C64 O65 1.245 . S
C64 O76 1.232 . S
O65 C64 1.245 . S
O66 Co60 2.074 . S
O66 C92 1.272 . S
O67 Co59 2.074 . S
O67 C92 1.257 . S
H68 C93 0.930 . S
H69 C99 0.930 1_565 S
O70 Co59 2.093 . S
O70 C62 1.224 . S
H71 C103 0.929 1_455 S
H72 C105 0.930 . S
H73 C106 0.930 . S
H74 C104 0.929 . S
H75 C107 0.928 . S
O76 Co60 2.057 . S
O76 C64 1.232 . S
H77 C96 0.929 . S
H78 C97 0.929 . S
H79 C109 0.931 . S
H80 C101 0.929 . S
H81 C110 0.930 . S
H82 C102 0.939 . S
O83 Co59 2.097 . S
O83 C111 1.214 . S
H84 C112 0.929 . S
H85 C113 0.929 . S
H86 C114 0.930 . S
H87 C115 0.929 . S
H88 C117 0.930 . S
H89 C94 0.930 . S
H90 C98 0.930 . S
O91 Co60 2.037 . S
O91 C111 1.234 . S
C92 O66 1.272 . S
C92 O67 1.257 . S
C93 H68 0.930 . S
C93 C96 1.388 . S
C93 C98 1.418 1_655 S
C94 H89 0.930 . S
C94 C97 1.404 1_455 S
C94 C98 1.353 . S
N95 Co60 2.145 . S
N95 C96 1.397 . S
N95 C97 1.334 . S
C96 H77 0.929 . S
C96 C93 1.388 . S
C96 N95 1.397 . S
C97 H78 0.929 . S
C97 C94 1.404 1_655 S
C97 N95 1.334 . S
C98 H90 0.930 . S
C98 C93 1.418 1_455 S
C98 C94 1.353 . S
C99 H69 0.930 1_545 S
C99 N100 1.330 . S
C99 C101 1.446 . S
N100 Co59 2.151 1_545 S
N100 C99 1.330 . S
N100 C104 1.418 . S
C101 H80 0.929 . S
C101 C99 1.446 . S
C101 C102 1.332 . S
C102 H82 0.939 . S
C102 C101 1.332 . S
C102 C103 1.267 . S
C103 H71 0.929 1_655 S
C103 C102 1.267 . S
C103 C104 1.251 . S
C104 H74 0.929 . S
C104 N100 1.418 . S
C104 C103 1.251 . S
C105 H72 0.930 . S
C105 C107 1.406 . S
C105 C110 1.261 . S
C106 H73 0.930 . S
C106 N108 1.325 . S
C106 C109 1.357 . S
C107 H75 0.928 . S
C107 C105 1.406 . S
C107 N108 1.261 . S
N108 Co59 2.214 1_545 S
N108 C106 1.325 . S
N108 C107 1.261 . S
C109 H79 0.931 . S
C109 C106 1.357 . S
C109 C110 1.312 . S
C110 H81 0.930 . S
C110 C105 1.261 . S
C110 C109 1.312 . S
C111 O83 1.214 . S
C111 O91 1.234 . S
C112 H84 0.929 . S
C112 C115 1.391 . S
C112 C117 1.391 . S
C113 H85 0.929 . S
C113 C114 1.390 . S
C113 N116 1.391 . S
C114 H86 0.930 . S
C114 C113 1.390 . S
C114 C115 1.392 . S
C115 H87 0.929 . S
C115 C112 1.391 . S
C115 C114 1.392 . S
N116 Co60 2.257 . S
N116 C113 1.391 . S
N116 C117 1.388 . S
C117 H88 0.930 . S
C117 C112 1.391 . S
C117 N116 1.388 . S
Co118 O120 2.143 . S
Co118 O126 2.074 . S
Co118 O129 2.093 . S
Co118 O142 2.097 . S
Co118 N159 2.151 . S
Co118 N167 2.214 . S
Co119 O120 2.160 . S
Co119 O125 2.058 . S
Co119 O135 2.057 . S
Co119 O150 2.037 . S
Co119 N154 2.145 . S
Co119 N175 2.257 . S
O120 Co118 2.143 . S
O120 Co119 2.160 . S
C121 O122 1.278 . S
C121 O129 1.224 . S
O122 C121 1.278 . S
C123 O124 1.245 . S
C123 O135 1.232 . S
O124 C123 1.245 . S
O125 Co119 2.058 . S
O125 C151 1.269 . S
O126 Co118 2.074 . S
O126 C151 1.257 . S
H127 C152 0.930 . S
H128 C158 0.930 . S
O129 Co118 2.093 . S
O129 C121 1.224 . S
H130 C162 0.929 . S
H131 C164 0.930 . S
H132 C165 0.930 . S
H133 C163 0.929 . S
H134 C166 0.928 . S
O135 Co119 2.057 . S
O135 C123 1.232 . S
H136 C155 0.929 . S
H137 C156 0.929 . S
H138 C168 0.931 . S
H139 C160 0.929 . S
H140 C169 0.930 . S
H141 C161 0.931 . S
O142 Co118 2.097 . S
O142 C170 1.214 . S
H143 C171 0.929 . S
H144 C172 0.929 . S
H145 C173 0.930 . S
H146 C174 0.929 . S
H147 C176 0.930 . S
H148 C153 0.930 . S
H149 C157 0.930 . S
O150 Co119 2.037 . S
O150 C170 1.234 . S
C151 O125 1.269 . S
C151 O126 1.257 . S
C152 H127 0.930 . S
C152 C155 1.388 . S
C152 C157 1.418 . S
C153 H148 0.930 . S
C153 C156 1.404 . S
C153 C157 1.353 . S
N154 Co119 2.145 . S
N154 C155 1.397 . S
N154 C156 1.334 . S
C155 H136 0.929 . S
C155 C152 1.388 . S
C155 N154 1.397 . S
C156 H137 0.929 . S
C156 C153 1.404 . S
C156 N154 1.334 . S
C157 H149 0.930 . S
C157 C152 1.418 . S
C157 C153 1.353 . S
C158 H128 0.930 . S
C158 N159 1.330 . S
C158 C160 1.446 . S
N159 Co118 2.151 . S
N159 C158 1.330 . S
N159 C163 1.418 . S
C160 H139 0.929 . S
C160 C158 1.446 . S
C160 C161 1.332 . S
C161 H141 0.931 . S
C161 C160 1.332 . S
C161 C162 1.267 . S
C162 H130 0.929 . S
C162 C161 1.267 . S
C162 C163 1.251 . S
C163 H133 0.929 . S
C163 N159 1.418 . S
C163 C162 1.251 . S
C164 H131 0.930 . S
C164 C166 1.406 . S
C164 C169 1.261 . S
C165 H132 0.930 . S
C165 N167 1.325 . S
C165 C168 1.357 . S
C166 H134 0.928 . S
C166 C164 1.406 . S
C166 N167 1.261 . S
N167 Co118 2.214 . S
N167 C165 1.325 . S
N167 C166 1.261 . S
C168 H138 0.931 . S
C168 C165 1.357 . S
C168 C169 1.312 . S
C169 H140 0.930 . S
C169 C164 1.261 . S
C169 C168 1.312 . S
C170 O142 1.214 . S
C170 O150 1.234 . S
C171 H143 0.929 . S
C171 C174 1.391 . S
C171 C176 1.391 . S
C172 H144 0.929 . S
C172 C173 1.390 . S
C172 N175 1.391 . S
C173 H145 0.930 . S
C173 C172 1.390 . S
C173 C174 1.392 . S
C174 H146 0.929 . S
C174 C171 1.391 . S
C174 C173 1.392 . S
N175 Co119 2.257 . S
N175 C172 1.391 . S
N175 C176 1.388 . S
C176 H147 0.930 . S
C176 C171 1.391 . S
C176 N175 1.388 . S
Co177 O179 2.143 . S
Co177 O185 2.074 . S
Co177 O188 2.093 . S
Co177 O201 2.097 . S
Co177 N218 2.151 1_545 S
Co177 N226 2.214 1_545 S
Co178 O179 2.160 . S
Co178 O184 2.058 . S
Co178 O194 2.057 . S
Co178 O209 2.037 . S
Co178 N213 2.145 . S
Co178 N234 2.257 . S
O179 Co177 2.143 . S
O179 Co178 2.160 . S
C180 O181 1.278 . S
C180 O188 1.224 . S
O181 C180 1.278 . S
C182 O183 1.245 . S
C182 O194 1.232 . S
O183 C182 1.245 . S
O184 Co178 2.058 . S
O184 C210 1.269 . S
O185 Co177 2.074 . S
O185 C210 1.257 . S
H186 C211 0.930 . S
H187 C217 0.930 1_545 S
O188 Co177 2.093 . S
O188 C180 1.224 . S
H189 C221 0.929 . S
H190 C223 0.930 . S
H191 C224 0.930 . S
H192 C222 0.929 . S
H193 C225 0.928 . S
O194 Co178 2.057 . S
O194 C182 1.232 . S
H195 C214 0.929 . S
H196 C215 0.929 . S
H197 C227 0.931 . S
H198 C219 0.929 . S
H199 C228 0.930 . S
H200 C220 0.931 . S
O201 Co177 2.097 . S
O201 C229 1.214 . S
H202 C230 0.929 . S
H203 C231 0.929 . S
H204 C232 0.930 . S
H205 C233 0.929 . S
H206 C235 0.930 . S
H207 C212 0.930 . S
H208 C216 0.930 . S
O209 Co178 2.037 . S
O209 C229 1.234 . S
C210 O184 1.269 . S
C210 O185 1.257 . S
C211 H186 0.930 . S
C211 C214 1.388 . S
C211 C216 1.418 . S
C212 H207 0.930 . S
C212 C215 1.404 . S
C212 C216 1.353 . S
N213 Co178 2.145 . S
N213 C214 1.397 . S
N213 C215 1.334 . S
C214 H195 0.929 . S
C214 C211 1.388 . S
C214 N213 1.397 . S
C215 H196 0.929 . S
C215 C212 1.404 . S
C215 N213 1.334 . S
C216 H208 0.930 . S
C216 C211 1.418 . S
C216 C212 1.353 . S
C217 H187 0.930 1_565 S
C217 N218 1.330 . S
C217 C219 1.446 . S
N218 Co177 2.151 1_565 S
N218 C217 1.330 . S
N218 C222 1.418 . S
C219 H198 0.929 . S
C219 C217 1.446 . S
C219 C220 1.332 . S
C220 H200 0.931 . S
C220 C219 1.332 . S
C220 C221 1.267 . S
C221 H189 0.929 . S
C221 C220 1.267 . S
C221 C222 1.251 . S
C222 H192 0.929 . S
C222 N218 1.418 . S
C222 C221 1.251 . S
C223 H190 0.930 . S
C223 C225 1.406 . S
C223 C228 1.261 . S
C224 H191 0.930 . S
C224 N226 1.325 . S
C224 C227 1.357 . S
C225 H193 0.928 . S
C225 C223 1.406 . S
C225 N226 1.261 . S
N226 Co177 2.214 1_565 S
N226 C224 1.325 . S
N226 C225 1.261 . S
C227 H197 0.931 . S
C227 C224 1.357 . S
C227 C228 1.312 . S
C228 H199 0.930 . S
C228 C223 1.261 . S
C228 C227 1.312 . S
C229 O201 1.214 . S
C229 O209 1.234 . S
C230 H202 0.929 . S
C230 C233 1.391 . S
C230 C235 1.391 . S
C231 H203 0.929 . S
C231 C232 1.390 . S
C231 N234 1.391 . S
C232 H204 0.930 . S
C232 C231 1.390 . S
C232 C233 1.392 . S
C233 H205 0.929 . S
C233 C230 1.391 . S
C233 C232 1.392 . S
N234 Co178 2.257 . S
N234 C231 1.391 . S
N234 C235 1.388 . S
C235 H206 0.930 . S
C235 C230 1.391 . S
C235 N234 1.388 . S
Co236 O238 2.143 . S
Co236 O244 2.074 . S
Co236 O247 2.093 . S
Co236 O260 2.097 . S
Co236 N277 2.151 . S
Co236 N285 2.214 . S
Co237 O238 2.160 . S
Co237 O243 2.058 . S
Co237 O253 2.057 . S
Co237 O268 2.037 . S
Co237 N272 2.145 . S
Co237 N293 2.257 . S
O238 Co236 2.143 . S
O238 Co237 2.160 . S
C239 O240 1.278 . S
C239 O247 1.224 . S
O240 C239 1.278 . S
C241 O242 1.245 . S
C241 O253 1.232 . S
O242 C241 1.245 . S
O243 Co237 2.058 . S
O243 C269 1.269 . S
O244 Co236 2.074 . S
O244 C269 1.257 . S
H245 C270 0.930 . S
H246 C276 0.930 . S
O247 Co236 2.093 . S
O247 C239 1.224 . S
H248 C280 0.929 . S
H249 C282 0.930 . S
H250 C283 0.930 . S
H251 C281 0.929 . S
H252 C284 0.928 . S
O253 Co237 2.057 . S
O253 C241 1.232 . S
H254 C273 0.929 . S
H255 C274 0.929 . S
H256 C286 0.931 . S
H257 C278 0.929 . S
H258 C287 0.930 . S
H259 C279 0.931 . S
O260 Co236 2.097 . S
O260 C288 1.214 . S
H261 C289 0.929 . S
H262 C290 0.929 . S
H263 C291 0.930 . S
H264 C292 0.929 . S
H265 C294 0.930 . S
H266 C271 0.930 . S
H267 C275 0.930 . S
O268 Co237 2.037 . S
O268 C288 1.234 . S
C269 O243 1.269 . S
C269 O244 1.257 . S
C270 H245 0.930 . S
C270 C273 1.388 . S
C270 C275 1.418 . S
C271 H266 0.930 . S
C271 C274 1.404 . S
C271 C275 1.353 . S
N272 Co237 2.145 . S
N272 C273 1.397 . S
N272 C274 1.334 . S
C273 H254 0.929 . S
C273 C270 1.388 . S
C273 N272 1.397 . S
C274 H255 0.929 . S
C274 C271 1.404 . S
C274 N272 1.334 . S
C275 H267 0.930 . S
C275 C270 1.418 . S
C275 C271 1.353 . S
C276 H246 0.930 . S
C276 N277 1.330 . S
C276 C278 1.446 . S
N277 Co236 2.151 . S
N277 C276 1.330 . S
N277 C281 1.418 . S
C278 H257 0.929 . S
C278 C276 1.446 . S
C278 C279 1.332 . S
C279 H259 0.931 . S
C279 C278 1.332 . S
C279 C280 1.267 . S
C280 H248 0.929 . S
C280 C279 1.267 . S
C280 C281 1.251 . S
C281 H251 0.929 . S
C281 N277 1.418 . S
C281 C280 1.251 . S
C282 H249 0.930 . S
C282 C284 1.406 . S
C282 C287 1.261 . S
C283 H250 0.930 . S
C283 N285 1.325 . S
C283 C286 1.357 . S
C284 H252 0.928 . S
C284 C282 1.406 . S
C284 N285 1.261 . S
N285 Co236 2.214 . S
N285 C283 1.325 . S
N285 C284 1.261 . S
C286 H256 0.931 . S
C286 C283 1.357 . S
C286 C287 1.312 . S
C287 H258 0.930 . S
C287 C282 1.261 . S
C287 C286 1.312 . S
C288 O260 1.214 . S
C288 O268 1.234 . S
C289 H261 0.929 . S
C289 C292 1.391 . S
C289 C294 1.391 . S
C290 H262 0.929 . S
C290 C291 1.390 . S
C290 N293 1.391 . S
C291 H263 0.930 . S
C291 C290 1.390 . S
C291 C292 1.392 . S
C292 H264 0.929 . S
C292 C289 1.391 . S
C292 C291 1.392 . S
N293 Co237 2.257 . S
N293 C290 1.391 . S
N293 C294 1.388 . S
C294 H265 0.930 . S
C294 C289 1.391 . S
C294 N293 1.388 . S
Co295 O297 2.143 . S
Co295 O303 2.074 . S
Co295 O306 2.093 . S
Co295 O319 2.097 . S
Co295 N336 2.151 . S
Co295 N344 2.214 . S
Co296 O297 2.160 . S
Co296 O302 2.074 . S
Co296 O312 2.057 . S
Co296 O327 2.037 . S
Co296 N331 2.145 . S
Co296 N352 2.257 . S
O297 Co295 2.143 . S
O297 Co296 2.160 . S
C298 O299 1.278 . S
C298 O306 1.224 . S
O299 C298 1.278 . S
C300 O301 1.245 . S
C300 O312 1.232 . S
O301 C300 1.245 . S
O302 Co296 2.074 . S
O302 C328 1.272 . S
O303 Co295 2.074 . S
O303 C328 1.257 . S
H304 C329 0.930 . S
H305 C335 0.930 . S
O306 Co295 2.093 . S
O306 C298 1.224 . S
H307 C339 0.929 1_655 S
H308 C341 0.930 . S
H309 C342 0.930 . S
H310 C340 0.929 . S
H311 C343 0.928 . S
O312 Co296 2.057 . S
O312 C300 1.232 . S
H313 C332 0.929 . S
H314 C333 0.929 . S
H315 C345 0.931 . S
H316 C337 0.929 . S
H317 C346 0.930 . S
H318 C338 0.939 . S
O319 Co295 2.097 . S
O319 C347 1.214 . S
H320 C348 0.929 . S
H321 C349 0.929 . S
H322 C350 0.930 . S
H323 C351 0.929 . S
H324 C353 0.930 . S
H325 C330 0.930 . S
H326 C334 0.930 . S
O327 Co296 2.037 . S
O327 C347 1.234 . S
C328 O302 1.272 . S
C328 O303 1.257 . S
C329 H304 0.930 . S
C329 C332 1.388 . S
C329 C334 1.418 1_455 S
C330 H325 0.930 . S
C330 C333 1.404 1_655 S
C330 C334 1.353 . S
N331 Co296 2.145 . S
N331 C332 1.397 . S
N331 C333 1.334 . S
C332 H313 0.929 . S
C332 C329 1.388 . S
C332 N331 1.397 . S
C333 H314 0.929 . S
C333 C330 1.404 1_455 S
C333 N331 1.334 . S
C334 H326 0.930 . S
C334 C329 1.418 1_655 S
C334 C330 1.353 . S
C335 H305 0.930 . S
C335 N336 1.330 . S
C335 C337 1.446 . S
N336 Co295 2.151 . S
N336 C335 1.330 . S
N336 C340 1.418 . S
C337 H316 0.929 . S
C337 C335 1.446 . S
C337 C338 1.332 . S
C338 H318 0.939 . S
C338 C337 1.332 . S
C338 C339 1.267 . S
C339 H307 0.929 1_455 S
C339 C338 1.267 . S
C339 C340 1.251 . S
C340 H310 0.929 . S
C340 N336 1.418 . S
C340 C339 1.251 . S
C341 H308 0.930 . S
C341 C343 1.406 . S
C341 C346 1.261 . S
C342 H309 0.930 . S
C342 N344 1.325 . S
C342 C345 1.357 . S
C343 H311 0.928 . S
C343 C341 1.406 . S
C343 N344 1.261 . S
N344 Co295 2.214 . S
N344 C342 1.325 . S
N344 C343 1.261 . S
C345 H315 0.931 . S
C345 C342 1.357 . S
C345 C346 1.312 . S
C346 H317 0.930 . S
C346 C341 1.261 . S
C346 C345 1.312 . S
C347 O319 1.214 . S
C347 O327 1.234 . S
C348 H320 0.929 . S
C348 C351 1.391 . S
C348 C353 1.391 . S
C349 H321 0.929 . S
C349 C350 1.390 . S
C349 N352 1.391 . S
C350 H322 0.930 . S
C350 C349 1.390 . S
C350 C351 1.392 . S
C351 H323 0.929 . S
C351 C348 1.391 . S
C351 C350 1.392 . S
N352 Co296 2.257 . S
N352 C349 1.391 . S
N352 C353 1.388 . S
C353 H324 0.930 . S
C353 C348 1.391 . S
C353 N352 1.388 . S
Co354 O356 2.143 . S
Co354 O362 2.074 . S
Co354 O365 2.093 . S
Co354 O378 2.097 . S
Co354 N395 2.151 . S
Co354 N403 2.214 . S
Co355 O356 2.160 . S
Co355 O361 2.058 . S
Co355 O371 2.057 . S
Co355 O386 2.037 . S
Co355 N390 2.145 . S
Co355 N411 2.257 . S
O356 Co354 2.143 . S
O356 Co355 2.160 . S
C357 O358 1.278 . S
C357 O365 1.224 . S
O358 C357 1.278 . S
C359 O360 1.245 . S
C359 O371 1.232 . S
O360 C359 1.245 . S
O361 Co355 2.058 . S
O361 C387 1.269 . S
O362 Co354 2.074 . S
O362 C387 1.257 . S
H363 C388 0.930 . S
H364 C394 0.930 . S
O365 Co354 2.093 . S
O365 C357 1.224 . S
H366 C398 0.929 . S
H367 C400 0.930 . S
H368 C401 0.930 . S
H369 C399 0.929 . S
H370 C402 0.928 . S
O371 Co355 2.057 . S
O371 C359 1.232 . S
H372 C391 0.929 . S
H373 C392 0.929 . S
H374 C404 0.931 . S
H375 C396 0.929 . S
H376 C405 0.930 . S
H377 C397 0.931 . S
O378 Co354 2.097 . S
O378 C406 1.214 . S
H379 C407 0.929 . S
H380 C408 0.929 . S
H381 C409 0.930 . S
H382 C410 0.929 . S
H383 C412 0.930 . S
H384 C389 0.930 . S
H385 C393 0.930 . S
O386 Co355 2.037 . S
O386 C406 1.234 . S
C387 O361 1.269 . S
C387 O362 1.257 . S
C388 H363 0.930 . S
C388 C391 1.388 . S
C388 C393 1.418 . S
C389 H384 0.930 . S
C389 C392 1.404 . S
C389 C393 1.353 . S
N390 Co355 2.145 . S
N390 C391 1.397 . S
N390 C392 1.334 . S
C391 H372 0.929 . S
C391 C388 1.388 . S
C391 N390 1.397 . S
C392 H373 0.929 . S
C392 C389 1.404 . S
C392 N390 1.334 . S
C393 H385 0.930 . S
C393 C388 1.418 . S
C393 C389 1.353 . S
C394 H364 0.930 . S
C394 N395 1.330 . S
C394 C396 1.446 . S
N395 Co354 2.151 . S
N395 C394 1.330 . S
N395 C399 1.418 . S
C396 H375 0.929 . S
C396 C394 1.446 . S
C396 C397 1.332 . S
C397 H377 0.931 . S
C397 C396 1.332 . S
C397 C398 1.267 . S
C398 H366 0.929 . S
C398 C397 1.267 . S
C398 C399 1.251 . S
C399 H369 0.929 . S
C399 N395 1.418 . S
C399 C398 1.251 . S
C400 H367 0.930 . S
C400 C402 1.406 . S
C400 C405 1.261 . S
C401 H368 0.930 . S
C401 N403 1.325 . S
C401 C404 1.357 . S
C402 H370 0.928 . S
C402 C400 1.406 . S
C402 N403 1.261 . S
N403 Co354 2.214 . S
N403 C401 1.325 . S
N403 C402 1.261 . S
C404 H374 0.931 . S
C404 C401 1.357 . S
C404 C405 1.312 . S
C405 H376 0.930 . S
C405 C400 1.261 . S
C405 C404 1.312 . S
C406 O378 1.214 . S
C406 O386 1.234 . S
C407 H379 0.929 . S
C407 C410 1.391 . S
C407 C412 1.391 . S
C408 H380 0.929 . S
C408 C409 1.390 . S
C408 N411 1.391 . S
C409 H381 0.930 . S
C409 C408 1.390 . S
C409 C410 1.392 . S
C410 H382 0.929 . S
C410 C407 1.391 . S
C410 C409 1.392 . S
N411 Co355 2.257 . S
N411 C408 1.391 . S
N411 C412 1.388 . S
C412 H383 0.930 . S
C412 C407 1.391 . S
C412 N411 1.388 . S
Co413 O415 2.143 . S
Co413 O421 2.074 . S
Co413 O424 2.093 . S
Co413 O437 2.097 . S
Co413 N454 2.151 . S
Co413 N462 2.214 . S
Co414 O415 2.160 . S
Co414 O420 2.058 . S
Co414 O430 2.057 . S
Co414 O445 2.037 . S
Co414 N449 2.145 . S
Co414 N470 2.257 . S
O415 Co413 2.143 . S
O415 Co414 2.160 . S
C416 O417 1.278 . S
C416 O424 1.224 . S
O417 C416 1.278 . S
C418 O419 1.245 . S
C418 O430 1.232 . S
O419 C418 1.245 . S
O420 Co414 2.058 . S
O420 C446 1.269 . S
O421 Co413 2.074 . S
O421 C446 1.257 . S
H422 C447 0.930 . S
H423 C453 0.930 . S
O424 Co413 2.093 . S
O424 C416 1.224 . S
H425 C457 0.929 . S
H426 C459 0.930 . S
H427 C460 0.930 . S
H428 C458 0.929 . S
H429 C461 0.928 . S
O430 Co414 2.057 . S
O430 C418 1.232 . S
H431 C450 0.929 . S
H432 C451 0.929 . S
H433 C463 0.931 . S
H434 C455 0.929 . S
H435 C464 0.930 . S
H436 C456 0.931 . S
O437 Co413 2.097 . S
O437 C465 1.214 . S
H438 C466 0.929 . S
H439 C467 0.929 . S
H440 C468 0.930 . S
H441 C469 0.929 . S
H442 C471 0.930 . S
H443 C448 0.930 . S
H444 C452 0.930 . S
O445 Co414 2.037 . S
O445 C465 1.234 . S
C446 O420 1.269 . S
C446 O421 1.257 . S
C447 H422 0.930 . S
C447 C450 1.388 . S
C447 C452 1.418 . S
C448 H443 0.930 . S
C448 C451 1.404 . S
C448 C452 1.353 . S
N449 Co414 2.145 . S
N449 C450 1.397 . S
N449 C451 1.334 . S
C450 H431 0.929 . S
C450 C447 1.388 . S
C450 N449 1.397 . S
C451 H432 0.929 . S
C451 C448 1.404 . S
C451 N449 1.334 . S
C452 H444 0.930 . S
C452 C447 1.418 . S
C452 C448 1.353 . S
C453 H423 0.930 . S
C453 N454 1.330 . S
C453 C455 1.446 . S
N454 Co413 2.151 . S
N454 C453 1.330 . S
N454 C458 1.418 . S
C455 H434 0.929 . S
C455 C453 1.446 . S
C455 C456 1.332 . S
C456 H436 0.931 . S
C456 C455 1.332 . S
C456 C457 1.267 . S
C457 H425 0.929 . S
C457 C456 1.267 . S
C457 C458 1.251 . S
C458 H428 0.929 . S
C458 N454 1.418 . S
C458 C457 1.251 . S
C459 H426 0.930 . S
C459 C461 1.406 . S
C459 C464 1.261 . S
C460 H427 0.930 . S
C460 N462 1.325 . S
C460 C463 1.357 . S
C461 H429 0.928 . S
C461 C459 1.406 . S
C461 N462 1.261 . S
N462 Co413 2.214 . S
N462 C460 1.325 . S
N462 C461 1.261 . S
C463 H433 0.931 . S
C463 C460 1.357 . S
C463 C464 1.312 . S
C464 H435 0.930 . S
C464 C459 1.261 . S
C464 C463 1.312 . S
C465 O437 1.214 . S
C465 O445 1.234 . S
C466 H438 0.929 . S
C466 C469 1.391 . S
C466 C471 1.391 . S
C467 H439 0.929 . S
C467 C468 1.390 . S
C467 N470 1.391 . S
C468 H440 0.930 . S
C468 C467 1.390 . S
C468 C469 1.392 . S
C469 H441 0.929 . S
C469 C466 1.391 . S
C469 C468 1.392 . S
N470 Co414 2.257 . S
N470 C467 1.391 . S
N470 C471 1.388 . S
C471 H442 0.930 . S
C471 C466 1.391 . S
C471 N470 1.388 . S
Co472 O474 2.143 . S
Co472 O480 2.074 . S
Co472 O483 2.093 . S
Co472 O496 2.097 . S
Co472 N513 2.151 . S
Co472 N521 2.214 . S
Co473 O474 2.160 . S
Co473 O479 2.058 . S
Co473 O489 2.057 . S
Co473 O504 2.037 . S
Co473 N508 2.145 . S
Co473 N529 2.257 . S
O474 Co472 2.143 . S
O474 Co473 2.160 . S
C475 O476 1.278 . S
C475 O483 1.224 . S
O476 C475 1.278 . S
C477 O478 1.245 . S
C477 O489 1.232 . S
O478 C477 1.245 . S
O479 Co473 2.058 . S
O479 C505 1.269 . S
O480 Co472 2.074 . S
O480 C505 1.257 . S
H481 C506 0.930 . S
H482 C512 0.930 . S
O483 Co472 2.093 . S
O483 C475 1.224 . S
H484 C516 0.929 . S
H485 C518 0.930 . S
H486 C519 0.930 . S
H487 C517 0.929 . S
H488 C520 0.928 . S
O489 Co473 2.057 . S
O489 C477 1.232 . S
H490 C509 0.929 . S
H491 C510 0.929 . S
H492 C522 0.931 . S
H493 C514 0.929 . S
H494 C523 0.930 . S
H495 C515 0.931 . S
O496 Co472 2.097 . S
O496 C524 1.214 . S
H497 C525 0.929 . S
H498 C526 0.929 . S
H499 C527 0.930 . S
H500 C528 0.929 . S
H501 C530 0.930 . S
H502 C507 0.930 . S
H503 C511 0.930 . S
O504 Co473 2.037 . S
O504 C524 1.234 . S
C505 O479 1.269 . S
C505 O480 1.257 . S
C506 H481 0.930 . S
C506 C509 1.388 . S
C506 C511 1.418 . S
C507 H502 0.930 . S
C507 C510 1.404 . S
C507 C511 1.353 . S
N508 Co473 2.145 . S
N508 C509 1.397 . S
N508 C510 1.334 . S
C509 H490 0.929 . S
C509 C506 1.388 . S
C509 N508 1.397 . S
C510 H491 0.929 . S
C510 C507 1.404 . S
C510 N508 1.334 . S
C511 H503 0.930 . S
C511 C506 1.418 . S
C511 C507 1.353 . S
C512 H482 0.930 . S
C512 N513 1.330 . S
C512 C514 1.446 . S
N513 Co472 2.151 . S
N513 C512 1.330 . S
N513 C517 1.418 . S
C514 H493 0.929 . S
C514 C512 1.446 . S
C514 C515 1.332 . S
C515 H495 0.931 . S
C515 C514 1.332 . S
C515 C516 1.267 . S
C516 H484 0.929 . S
C516 C515 1.267 . S
C516 C517 1.251 . S
C517 H487 0.929 . S
C517 N513 1.418 . S
C517 C516 1.251 . S
C518 H485 0.930 . S
C518 C520 1.406 . S
C518 C523 1.261 . S
C519 H486 0.930 . S
C519 N521 1.325 . S
C519 C522 1.357 . S
C520 H488 0.928 . S
C520 C518 1.406 . S
C520 N521 1.261 . S
N521 Co472 2.214 . S
N521 C519 1.325 . S
N521 C520 1.261 . S
C522 H492 0.931 . S
C522 C519 1.357 . S
C522 C523 1.312 . S
C523 H494 0.930 . S
C523 C518 1.261 . S
C523 C522 1.312 . S
C524 O496 1.214 . S
C524 O504 1.234 . S
C525 H497 0.929 . S
C525 C528 1.391 . S
C525 C530 1.391 . S
C526 H498 0.929 . S
C526 C527 1.390 . S
C526 N529 1.391 . S
C527 H499 0.930 . S
C527 C526 1.390 . S
C527 C528 1.392 . S
C528 H500 0.929 . S
C528 C525 1.391 . S
C528 C527 1.392 . S
N529 Co473 2.257 . S
N529 C526 1.391 . S
N529 C530 1.388 . S
C530 H501 0.930 . S
C530 C525 1.391 . S
C530 N529 1.388 . S
Co531 O533 2.143 . S
Co531 O539 2.074 . S
Co531 O542 2.093 . S
Co531 O555 2.097 . S
Co531 N572 2.151 1_455 S
Co531 N580 2.214 1_455 S
Co532 O533 2.160 . S
Co532 O538 2.058 . S
Co532 O548 2.057 . S
Co532 O563 2.037 . S
Co532 N567 2.145 . S
Co532 N588 2.257 . S
O533 Co531 2.143 . S
O533 Co532 2.160 . S
C534 O535 1.278 . S
C534 O542 1.224 . S
O535 C534 1.278 . S
C536 O537 1.245 . S
C536 O548 1.232 . S
O537 C536 1.245 . S
O538 Co532 2.058 . S
O538 C564 1.269 . S
O539 Co531 2.074 . S
O539 C564 1.257 . S
H540 C565 0.930 . S
H541 C571 0.930 1_455 S
O542 Co531 2.093 . S
O542 C534 1.224 . S
H543 C575 0.929 . S
H544 C577 0.930 . S
H545 C578 0.930 . S
H546 C576 0.929 . S
H547 C579 0.928 . S
O548 Co532 2.057 . S
O548 C536 1.232 . S
H549 C568 0.929 . S
H550 C569 0.929 . S
H551 C581 0.931 . S
H552 C573 0.929 . S
H553 C582 0.930 . S
H554 C574 0.931 . S
O555 Co531 2.097 . S
O555 C583 1.214 . S
H556 C584 0.929 . S
H557 C585 0.929 . S
H558 C586 0.930 . S
H559 C587 0.929 . S
H560 C589 0.930 . S
H561 C566 0.930 . S
H562 C570 0.930 . S
O563 Co532 2.037 . S
O563 C583 1.234 . S
C564 O538 1.269 . S
C564 O539 1.257 . S
C565 H540 0.930 . S
C565 C568 1.388 . S
C565 C570 1.418 . S
C566 H561 0.930 . S
C566 C569 1.404 . S
C566 C570 1.353 . S
N567 Co532 2.145 . S
N567 C568 1.397 . S
N567 C569 1.334 . S
C568 H549 0.929 . S
C568 C565 1.388 . S
C568 N567 1.397 . S
C569 H550 0.929 . S
C569 C566 1.404 . S
C569 N567 1.334 . S
C570 H562 0.930 . S
C570 C565 1.418 . S
C570 C566 1.353 . S
C571 H541 0.930 1_655 S
C571 N572 1.330 . S
C571 C573 1.446 . S
N572 Co531 2.151 1_655 S
N572 C571 1.330 . S
N572 C576 1.418 . S
C573 H552 0.929 . S
C573 C571 1.446 . S
C573 C574 1.332 . S
C574 H554 0.931 . S
C574 C573 1.332 . S
C574 C575 1.267 . S
C575 H543 0.929 . S
C575 C574 1.267 . S
C575 C576 1.251 . S
C576 H546 0.929 . S
C576 N572 1.418 . S
C576 C575 1.251 . S
C577 H544 0.930 . S
C577 C579 1.406 . S
C577 C582 1.261 . S
C578 H545 0.930 . S
C578 N580 1.325 . S
C578 C581 1.357 . S
C579 H547 0.928 . S
C579 C577 1.406 . S
C579 N580 1.261 . S
N580 Co531 2.214 1_655 S
N580 C578 1.325 . S
N580 C579 1.261 . S
C581 H551 0.931 . S
C581 C578 1.357 . S
C581 C582 1.312 . S
C582 H553 0.930 . S
C582 C577 1.261 . S
C582 C581 1.312 . S
C583 O555 1.214 . S
C583 O563 1.234 . S
C584 H556 0.929 . S
C584 C587 1.391 . S
C584 C589 1.391 . S
C585 H557 0.929 . S
C585 C586 1.390 . S
C585 N588 1.391 . S
C586 H558 0.930 . S
C586 C585 1.390 . S
C586 C587 1.392 . S
C587 H559 0.929 . S
C587 C584 1.391 . S
C587 C586 1.392 . S
N588 Co532 2.257 . S
N588 C585 1.391 . S
N588 C589 1.388 . S
C589 H560 0.930 . S
C589 C584 1.391 . S
C589 N588 1.388 . S
Co590 O592 2.143 . S
Co590 O598 2.074 . S
Co590 O601 2.093 . S
Co590 O614 2.097 . S
Co590 N631 2.151 . S
Co590 N639 2.214 . S
Co591 O592 2.160 . S
Co591 O597 2.058 . S
Co591 O607 2.057 . S
Co591 O622 2.037 . S
Co591 N626 2.145 . S
Co591 N647 2.257 . S
O592 Co590 2.143 . S
O592 Co591 2.160 . S
C593 O594 1.278 . S
C593 O601 1.224 . S
O594 C593 1.278 . S
C595 O596 1.245 . S
C595 O607 1.232 . S
O596 C595 1.245 . S
O597 Co591 2.058 . S
O597 C623 1.269 . S
O598 Co590 2.074 . S
O598 C623 1.257 . S
H599 C624 0.930 . S
H600 C630 0.930 . S
O601 Co590 2.093 . S
O601 C593 1.224 . S
H602 C634 0.929 . S
H603 C636 0.930 . S
H604 C637 0.930 . S
H605 C635 0.929 . S
H606 C638 0.928 . S
O607 Co591 2.057 . S
O607 C595 1.232 . S
H608 C627 0.929 . S
H609 C628 0.929 . S
H610 C640 0.931 . S
H611 C632 0.929 . S
H612 C641 0.930 . S
H613 C633 0.931 . S
O614 Co590 2.097 . S
O614 C642 1.214 . S
H615 C643 0.929 . S
H616 C644 0.929 . S
H617 C645 0.930 . S
H618 C646 0.929 . S
H619 C648 0.930 . S
H620 C625 0.930 . S
H621 C629 0.930 . S
O622 Co591 2.037 . S
O622 C642 1.234 . S
C623 O597 1.269 . S
C623 O598 1.257 . S
C624 H599 0.930 . S
C624 C627 1.388 . S
C624 C629 1.418 . S
C625 H620 0.930 . S
C625 C628 1.404 . S
C625 C629 1.353 . S
N626 Co591 2.145 . S
N626 C627 1.397 . S
N626 C628 1.334 . S
C627 H608 0.929 . S
C627 C624 1.388 . S
C627 N626 1.397 . S
C628 H609 0.929 . S
C628 C625 1.404 . S
C628 N626 1.334 . S
C629 H621 0.930 . S
C629 C624 1.418 . S
C629 C625 1.353 . S
C630 H600 0.930 . S
C630 N631 1.330 . S
C630 C632 1.446 . S
N631 Co590 2.151 . S
N631 C630 1.330 . S
N631 C635 1.418 . S
C632 H611 0.929 . S
C632 C630 1.446 . S
C632 C633 1.332 . S
C633 H613 0.931 . S
C633 C632 1.332 . S
C633 C634 1.267 . S
C634 H602 0.929 . S
C634 C633 1.267 . S
C634 C635 1.251 . S
C635 H605 0.929 . S
C635 N631 1.418 . S
C635 C634 1.251 . S
C636 H603 0.930 . S
C636 C638 1.406 . S
C636 C641 1.261 . S
C637 H604 0.930 . S
C637 N639 1.325 . S
C637 C640 1.357 . S
C638 H606 0.928 . S
C638 C636 1.406 . S
C638 N639 1.261 . S
N639 Co590 2.214 . S
N639 C637 1.325 . S
N639 C638 1.261 . S
C640 H610 0.931 . S
C640 C637 1.357 . S
C640 C641 1.312 . S
C641 H612 0.930 . S
C641 C636 1.261 . S
C641 C640 1.312 . S
C642 O614 1.214 . S
C642 O622 1.234 . S
C643 H615 0.929 . S
C643 C646 1.391 . S
C643 C648 1.391 . S
C644 H616 0.929 . S
C644 C645 1.390 . S
C644 N647 1.391 . S
C645 H617 0.930 . S
C645 C644 1.390 . S
C645 C646 1.392 . S
C646 H618 0.929 . S
C646 C643 1.391 . S
C646 C645 1.392 . S
N647 Co591 2.257 . S
N647 C644 1.391 . S
N647 C648 1.388 . S
C648 H619 0.930 . S
C648 C643 1.391 . S
C648 N647 1.388 . S
Co649 O651 2.143 . S
Co649 O657 2.074 . S
Co649 O660 2.093 . S
Co649 O673 2.097 . S
Co649 N690 2.151 . S
Co649 N698 2.214 . S
Co650 O651 2.160 . S
Co650 O656 2.074 . S
Co650 O666 2.057 . S
Co650 O681 2.037 . S
Co650 N685 2.145 . S
Co650 N706 2.257 . S
O651 Co649 2.143 . S
O651 Co650 2.160 . S
C652 O653 1.278 . S
C652 O660 1.224 . S
O653 C652 1.278 . S
C654 O655 1.245 . S
C654 O666 1.232 . S
O655 C654 1.245 . S
O656 Co650 2.074 . S
O656 C682 1.272 . S
O657 Co649 2.074 . S
O657 C682 1.257 . S
H658 C683 0.930 . S
H659 C689 0.930 . S
O660 Co649 2.093 . S
O660 C652 1.224 . S
H661 C693 0.929 1_556 S
H662 C695 0.930 . S
H663 C696 0.930 . S
H664 C694 0.929 . S
H665 C697 0.928 . S
O666 Co650 2.057 . S
O666 C654 1.232 . S
H667 C686 0.929 . S
H668 C687 0.929 . S
H669 C699 0.931 . S
H670 C691 0.929 . S
H671 C700 0.930 . S
H672 C692 0.939 . S
O673 Co649 2.097 . S
O673 C701 1.214 . S
H674 C702 0.929 . S
H675 C703 0.929 . S
H676 C704 0.930 . S
H677 C705 0.929 . S
H678 C707 0.930 . S
H679 C684 0.930 . S
H680 C688 0.930 . S
O681 Co650 2.037 . S
O681 C701 1.234 . S
C682 O656 1.272 . S
C682 O657 1.257 . S
C683 H658 0.930 . S
C683 C686 1.388 . S
C683 C688 1.418 1_554 S
C684 H679 0.930 . S
C684 C687 1.404 1_556 S
C684 C688 1.353 . S
N685 Co650 2.145 . S
N685 C686 1.397 . S
N685 C687 1.334 . S
C686 H667 0.929 . S
C686 C683 1.388 . S
C686 N685 1.397 . S
C687 H668 0.929 . S
C687 C684 1.404 1_554 S
C687 N685 1.334 . S
C688 H680 0.930 . S
C688 C683 1.418 1_556 S
C688 C684 1.353 . S
C689 H659 0.930 . S
C689 N690 1.330 . S
C689 C691 1.446 . S
N690 Co649 2.151 . S
N690 C689 1.330 . S
N690 C694 1.418 . S
C691 H670 0.929 . S
C691 C689 1.446 . S
C691 C692 1.332 . S
C692 H672 0.939 . S
C692 C691 1.332 . S
C692 C693 1.267 . S
C693 H661 0.929 1_554 S
C693 C692 1.267 . S
C693 C694 1.251 . S
C694 H664 0.929 . S
C694 N690 1.418 . S
C694 C693 1.251 . S
C695 H662 0.930 . S
C695 C697 1.406 . S
C695 C700 1.261 . S
C696 H663 0.930 . S
C696 N698 1.325 . S
C696 C699 1.357 . S
C697 H665 0.928 . S
C697 C695 1.406 . S
C697 N698 1.261 . S
N698 Co649 2.214 . S
N698 C696 1.325 . S
N698 C697 1.261 . S
C699 H669 0.931 . S
C699 C696 1.357 . S
C699 C700 1.312 . S
C700 H671 0.930 . S
C700 C695 1.261 . S
C700 C699 1.312 . S
C701 O673 1.214 . S
C701 O681 1.234 . S
C702 H674 0.929 . S
C702 C705 1.391 . S
C702 C707 1.391 . S
C703 H675 0.929 . S
C703 C704 1.390 . S
C703 N706 1.391 . S
C704 H676 0.930 . S
C704 C703 1.390 . S
C704 C705 1.392 . S
C705 H677 0.929 . S
C705 C702 1.391 . S
C705 C704 1.392 . S
N706 Co650 2.257 . S
N706 C703 1.391 . S
N706 C707 1.388 . S
C707 H678 0.930 . S
C707 C702 1.391 . S
C707 N706 1.388 . S
Co708 O710 2.143 . S
Co708 O716 2.074 . S
Co708 O719 2.093 . S
Co708 O732 2.097 . S
Co708 N749 2.151 . S
Co708 N757 2.214 . S
Co709 O710 2.160 . S
Co709 O715 2.058 . S
Co709 O725 2.057 . S
Co709 O740 2.037 . S
Co709 N744 2.145 . S
Co709 N765 2.257 . S
O710 Co708 2.143 . S
O710 Co709 2.160 . S
C711 O712 1.278 . S
C711 O719 1.224 . S
O712 C711 1.278 . S
C713 O714 1.245 . S
C713 O725 1.232 . S
O714 C713 1.245 . S
O715 Co709 2.058 . S
O715 C741 1.269 . S
O716 Co708 2.074 . S
O716 C741 1.257 . S
H717 C742 0.930 . S
H718 C748 0.930 . S
O719 Co708 2.093 . S
O719 C711 1.224 . S
H720 C752 0.929 . S
H721 C754 0.930 . S
H722 C755 0.930 . S
H723 C753 0.929 . S
H724 C756 0.928 . S
O725 Co709 2.057 . S
O725 C713 1.232 . S
H726 C745 0.929 . S
H727 C746 0.929 . S
H728 C758 0.931 . S
H729 C750 0.929 . S
H730 C759 0.930 . S
H731 C751 0.931 . S
O732 Co708 2.097 . S
O732 C760 1.214 . S
H733 C761 0.929 . S
H734 C762 0.929 . S
H735 C763 0.930 . S
H736 C764 0.929 . S
H737 C766 0.930 . S
H738 C743 0.930 . S
H739 C747 0.930 . S
O740 Co709 2.037 . S
O740 C760 1.234 . S
C741 O715 1.269 . S
C741 O716 1.257 . S
C742 H717 0.930 . S
C742 C745 1.388 . S
C742 C747 1.418 . S
C743 H738 0.930 . S
C743 C746 1.404 . S
C743 C747 1.353 . S
N744 Co709 2.145 . S
N744 C745 1.397 . S
N744 C746 1.334 . S
C745 H726 0.929 . S
C745 C742 1.388 . S
C745 N744 1.397 . S
C746 H727 0.929 . S
C746 C743 1.404 . S
C746 N744 1.334 . S
C747 H739 0.930 . S
C747 C742 1.418 . S
C747 C743 1.353 . S
C748 H718 0.930 . S
C748 N749 1.330 . S
C748 C750 1.446 . S
N749 Co708 2.151 . S
N749 C748 1.330 . S
N749 C753 1.418 . S
C750 H729 0.929 . S
C750 C748 1.446 . S
C750 C751 1.332 . S
C751 H731 0.931 . S
C751 C750 1.332 . S
C751 C752 1.267 . S
C752 H720 0.929 . S
C752 C751 1.267 . S
C752 C753 1.251 . S
C753 H723 0.929 . S
C753 N749 1.418 . S
C753 C752 1.251 . S
C754 H721 0.930 . S
C754 C756 1.406 . S
C754 C759 1.261 . S
C755 H722 0.930 . S
C755 N757 1.325 . S
C755 C758 1.357 . S
C756 H724 0.928 . S
C756 C754 1.406 . S
C756 N757 1.261 . S
N757 Co708 2.214 . S
N757 C755 1.325 . S
N757 C756 1.261 . S
C758 H728 0.931 . S
C758 C755 1.357 . S
C758 C759 1.312 . S
C759 H730 0.930 . S
C759 C754 1.261 . S
C759 C758 1.312 . S
C760 O732 1.214 . S
C760 O740 1.234 . S
C761 H733 0.929 . S
C761 C764 1.391 . S
C761 C766 1.391 . S
C762 H734 0.929 . S
C762 C763 1.390 . S
C762 N765 1.391 . S
C763 H735 0.930 . S
C763 C762 1.390 . S
C763 C764 1.392 . S
C764 H736 0.929 . S
C764 C761 1.391 . S
C764 C763 1.392 . S
N765 Co709 2.257 . S
N765 C762 1.391 . S
N765 C766 1.388 . S
C766 H737 0.930 . S
C766 C761 1.391 . S
C766 N765 1.388 . S
Co767 O769 2.143 . S
Co767 O775 2.074 . S
Co767 O778 2.093 . S
Co767 O791 2.097 . S
Co767 N808 2.151 1_655 S
Co767 N816 2.214 1_655 S
Co768 O769 2.160 . S
Co768 O774 2.074 . S
Co768 O784 2.057 . S
Co768 O799 2.037 . S
Co768 N803 2.145 . S
Co768 N824 2.257 . S
O769 Co767 2.143 . S
O769 Co768 2.160 . S
C770 O771 1.278 . S
C770 O778 1.224 . S
O771 C770 1.278 . S
C772 O773 1.245 . S
C772 O784 1.232 . S
O773 C772 1.245 . S
O774 Co768 2.074 . S
O774 C800 1.272 . S
O775 Co767 2.074 . S
O775 C800 1.257 . S
H776 C801 0.930 . S
H777 C807 0.930 1_655 S
O778 Co767 2.093 . S
O778 C770 1.224 . S
H779 C811 0.929 1_554 S
H780 C813 0.930 . S
H781 C814 0.930 . S
H782 C812 0.929 . S
H783 C815 0.928 . S
O784 Co768 2.057 . S
O784 C772 1.232 . S
H785 C804 0.929 . S
H786 C805 0.929 . S
H787 C817 0.931 . S
H788 C809 0.929 . S
H789 C818 0.930 . S
H790 C810 0.939 . S
O791 Co767 2.097 . S
O791 C819 1.214 . S
H792 C820 0.929 . S
H793 C821 0.929 . S
H794 C822 0.930 . S
H795 C823 0.929 . S
H796 C825 0.930 . S
H797 C802 0.930 . S
H798 C806 0.930 . S
O799 Co768 2.037 . S
O799 C819 1.234 . S
C800 O774 1.272 . S
C800 O775 1.257 . S
C801 H776 0.930 . S
C801 C804 1.388 . S
C801 C806 1.418 1_556 S
C802 H797 0.930 . S
C802 C805 1.404 1_554 S
C802 C806 1.353 . S
N803 Co768 2.145 . S
N803 C804 1.397 . S
N803 C805 1.334 . S
C804 H785 0.929 . S
C804 C801 1.388 . S
C804 N803 1.397 . S
C805 H786 0.929 . S
C805 C802 1.404 1_556 S
C805 N803 1.334 . S
C806 H798 0.930 . S
C806 C801 1.418 1_554 S
C806 C802 1.353 . S
C807 H777 0.930 1_455 S
C807 N808 1.330 . S
C807 C809 1.446 . S
N808 Co767 2.151 1_455 S
N808 C807 1.330 . S
N808 C812 1.418 . S
C809 H788 0.929 . S
C809 C807 1.446 . S
C809 C810 1.332 . S
C810 H790 0.939 . S
C810 C809 1.332 . S
C810 C811 1.267 . S
C811 H779 0.929 1_556 S
C811 C810 1.267 . S
C811 C812 1.251 . S
C812 H782 0.929 . S
C812 N808 1.418 . S
C812 C811 1.251 . S
C813 H780 0.930 . S
C813 C815 1.406 . S
C813 C818 1.261 . S
C814 H781 0.930 . S
C814 N816 1.325 . S
C814 C817 1.357 . S
C815 H783 0.928 . S
C815 C813 1.406 . S
C815 N816 1.261 . S
N816 Co767 2.214 1_455 S
N816 C814 1.325 . S
N816 C815 1.261 . S
C817 H787 0.931 . S
C817 C814 1.357 . S
C817 C818 1.312 . S
C818 H789 0.930 . S
C818 C813 1.261 . S
C818 C817 1.312 . S
C819 O791 1.214 . S
C819 O799 1.234 . S
C820 H792 0.929 . S
C820 C823 1.391 . S
C820 C825 1.391 . S
C821 H793 0.929 . S
C821 C822 1.390 . S
C821 N824 1.391 . S
C822 H794 0.930 . S
C822 C821 1.390 . S
C822 C823 1.392 . S
C823 H795 0.929 . S
C823 C820 1.391 . S
C823 C822 1.392 . S
N824 Co768 2.257 . S
N824 C821 1.391 . S
N824 C825 1.388 . S
C825 H796 0.930 . S
C825 C820 1.391 . S
C825 N824 1.388 . S
Co826 O828 2.143 . S
Co826 O834 2.074 . S
Co826 O837 2.093 . S
Co826 O850 2.097 . S
Co826 N867 2.151 . S
Co826 N875 2.214 . S
Co827 O828 2.160 . S
Co827 O833 2.058 . S
Co827 O843 2.057 . S
Co827 O858 2.037 . S
Co827 N862 2.145 . S
Co827 N883 2.257 . S
O828 Co826 2.143 . S
O828 Co827 2.160 . S
C829 O830 1.278 . S
C829 O837 1.224 . S
O830 C829 1.278 . S
C831 O832 1.245 . S
C831 O843 1.232 . S
O832 C831 1.245 . S
O833 Co827 2.058 . S
O833 C859 1.269 . S
O834 Co826 2.074 . S
O834 C859 1.257 . S
H835 C860 0.930 . S
H836 C866 0.930 . S
O837 Co826 2.093 . S
O837 C829 1.224 . S
H838 C870 0.929 . S
H839 C872 0.930 . S
H840 C873 0.930 . S
H841 C871 0.929 . S
H842 C874 0.928 . S
O843 Co827 2.057 . S
O843 C831 1.232 . S
H844 C863 0.929 . S
H845 C864 0.929 . S
H846 C876 0.931 . S
H847 C868 0.929 . S
H848 C877 0.930 . S
H849 C869 0.931 . S
O850 Co826 2.097 . S
O850 C878 1.214 . S
H851 C879 0.929 . S
H852 C880 0.929 . S
H853 C881 0.930 . S
H854 C882 0.929 . S
H855 C884 0.930 . S
H856 C861 0.930 . S
H857 C865 0.930 . S
O858 Co827 2.037 . S
O858 C878 1.234 . S
C859 O833 1.269 . S
C859 O834 1.257 . S
C860 H835 0.930 . S
C860 C863 1.388 . S
C860 C865 1.418 . S
C861 H856 0.930 . S
C861 C864 1.404 . S
C861 C865 1.353 . S
N862 Co827 2.145 . S
N862 C863 1.397 . S
N862 C864 1.334 . S
C863 H844 0.929 . S
C863 C860 1.388 . S
C863 N862 1.397 . S
C864 H845 0.929 . S
C864 C861 1.404 . S
C864 N862 1.334 . S
C865 H857 0.930 . S
C865 C860 1.418 . S
C865 C861 1.353 . S
C866 H836 0.930 . S
C866 N867 1.330 . S
C866 C868 1.446 . S
N867 Co826 2.151 . S
N867 C866 1.330 . S
N867 C871 1.418 . S
C868 H847 0.929 . S
C868 C866 1.446 . S
C868 C869 1.332 . S
C869 H849 0.931 . S
C869 C868 1.332 . S
C869 C870 1.267 . S
C870 H838 0.929 . S
C870 C869 1.267 . S
C870 C871 1.251 . S
C871 H841 0.929 . S
C871 N867 1.418 . S
C871 C870 1.251 . S
C872 H839 0.930 . S
C872 C874 1.406 . S
C872 C877 1.261 . S
C873 H840 0.930 . S
C873 N875 1.325 . S
C873 C876 1.357 . S
C874 H842 0.928 . S
C874 C872 1.406 . S
C874 N875 1.261 . S
N875 Co826 2.214 . S
N875 C873 1.325 . S
N875 C874 1.261 . S
C876 H846 0.931 . S
C876 C873 1.357 . S
C876 C877 1.312 . S
C877 H848 0.930 . S
C877 C872 1.261 . S
C877 C876 1.312 . S
C878 O850 1.214 . S
C878 O858 1.234 . S
C879 H851 0.929 . S
C879 C882 1.391 . S
C879 C884 1.391 . S
C880 H852 0.929 . S
C880 C881 1.390 . S
C880 N883 1.391 . S
C881 H853 0.930 . S
C881 C880 1.390 . S
C881 C882 1.392 . S
C882 H854 0.929 . S
C882 C879 1.391 . S
C882 C881 1.392 . S
N883 Co827 2.257 . S
N883 C880 1.391 . S
N883 C884 1.388 . S
C884 H855 0.930 . S
C884 C879 1.391 . S
C884 N883 1.388 . S
Co885 O887 2.143 . S
Co885 O893 2.074 . S
Co885 O896 2.093 . S
Co885 O909 2.097 . S
Co885 N926 2.151 . S
Co885 N934 2.214 . S
Co886 O887 2.160 . S
Co886 O892 2.058 . S
Co886 O902 2.057 . S
Co886 O917 2.037 . S
Co886 N921 2.145 . S
Co886 N942 2.257 . S
O887 Co885 2.143 . S
O887 Co886 2.160 . S
C888 O889 1.278 . S
C888 O896 1.224 . S
O889 C888 1.278 . S
C890 O891 1.245 . S
C890 O902 1.232 . S
O891 C890 1.245 . S
O892 Co886 2.058 . S
O892 C918 1.269 . S
O893 Co885 2.074 . S
O893 C918 1.257 . S
H894 C919 0.930 . S
H895 C925 0.930 . S
O896 Co885 2.093 . S
O896 C888 1.224 . S
H897 C929 0.929 . S
H898 C931 0.930 . S
H899 C932 0.930 . S
H900 C930 0.929 . S
H901 C933 0.928 . S
O902 Co886 2.057 . S
O902 C890 1.232 . S
H903 C922 0.929 . S
H904 C923 0.929 . S
H905 C935 0.931 . S
H906 C927 0.929 . S
H907 C936 0.930 . S
H908 C928 0.931 . S
O909 Co885 2.097 . S
O909 C937 1.214 . S
H910 C938 0.929 . S
H911 C939 0.929 . S
H912 C940 0.930 . S
H913 C941 0.929 . S
H914 C943 0.930 . S
H915 C920 0.930 . S
H916 C924 0.930 . S
O917 Co886 2.037 . S
O917 C937 1.234 . S
C918 O892 1.269 . S
C918 O893 1.257 . S
C919 H894 0.930 . S
C919 C922 1.388 . S
C919 C924 1.418 . S
C920 H915 0.930 . S
C920 C923 1.404 . S
C920 C924 1.353 . S
N921 Co886 2.145 . S
N921 C922 1.397 . S
N921 C923 1.334 . S
C922 H903 0.929 . S
C922 C919 1.388 . S
C922 N921 1.397 . S
C923 H904 0.929 . S
C923 C920 1.404 . S
C923 N921 1.334 . S
C924 H916 0.930 . S
C924 C919 1.418 . S
C924 C920 1.353 . S
C925 H895 0.930 . S
C925 N926 1.330 . S
C925 C927 1.446 . S
N926 Co885 2.151 . S
N926 C925 1.330 . S
N926 C930 1.418 . S
C927 H906 0.929 . S
C927 C925 1.446 . S
C927 C928 1.332 . S
C928 H908 0.931 . S
C928 C927 1.332 . S
C928 C929 1.267 . S
C929 H897 0.929 . S
C929 C928 1.267 . S
C929 C930 1.251 . S
C930 H900 0.929 . S
C930 N926 1.418 . S
C930 C929 1.251 . S
C931 H898 0.930 . S
C931 C933 1.406 . S
C931 C936 1.261 . S
C932 H899 0.930 . S
C932 N934 1.325 . S
C932 C935 1.357 . S
C933 H901 0.928 . S
C933 C931 1.406 . S
C933 N934 1.261 . S
N934 Co885 2.214 . S
N934 C932 1.325 . S
N934 C933 1.261 . S
C935 H905 0.931 . S
C935 C932 1.357 . S
C935 C936 1.312 . S
C936 H907 0.930 . S
C936 C931 1.261 . S
C936 C935 1.312 . S
C937 O909 1.214 . S
C937 O917 1.234 . S
C938 H910 0.929 . S
C938 C941 1.391 . S
C938 C943 1.391 . S
C939 H911 0.929 . S
C939 C940 1.390 . S
C939 N942 1.391 . S
C940 H912 0.930 . S
C940 C939 1.390 . S
C940 C941 1.392 . S
C941 H913 0.929 . S
C941 C938 1.391 . S
C941 C940 1.392 . S
N942 Co886 2.257 . S
N942 C939 1.391 . S
N942 C943 1.388 . S
C943 H914 0.930 . S
C943 C938 1.391 . S
C943 N942 1.388 . S
Co944 O946 2.143 . S
Co944 O952 2.074 . S
Co944 O955 2.093 . S
Co944 O968 2.097 . S
Co944 N985 2.151 . S
Co944 N993 2.214 . S
Co945 O946 2.160 . S
Co945 O951 2.058 . S
Co945 O961 2.057 . S
Co945 O976 2.037 . S
Co945 N980 2.145 . S
Co945 N1001 2.257 . S
O946 Co944 2.143 . S
O946 Co945 2.160 . S
C947 O948 1.278 . S
C947 O955 1.224 . S
O948 C947 1.278 . S
C949 O950 1.245 . S
C949 O961 1.232 . S
O950 C949 1.245 . S
O951 Co945 2.058 . S
O951 C977 1.269 . S
O952 Co944 2.074 . S
O952 C977 1.257 . S
H953 C978 0.930 . S
H954 C984 0.930 . S
O955 Co944 2.093 . S
O955 C947 1.224 . S
H956 C988 0.929 . S
H957 C990 0.930 . S
H958 C991 0.930 . S
H959 C989 0.929 . S
H960 C992 0.928 . S
O961 Co945 2.057 . S
O961 C949 1.232 . S
H962 C981 0.929 . S
H963 C982 0.929 . S
H964 C994 0.931 . S
H965 C986 0.929 . S
H966 C995 0.930 . S
H967 C987 0.931 . S
O968 Co944 2.097 . S
O968 C996 1.214 . S
H969 C997 0.929 . S
H970 C998 0.929 . S
H971 C999 0.930 . S
H972 C1000 0.929 . S
H973 C1002 0.930 . S
H974 C979 0.930 . S
H975 C983 0.930 . S
O976 Co945 2.037 . S
O976 C996 1.234 . S
C977 O951 1.269 . S
C977 O952 1.257 . S
C978 H953 0.930 . S
C978 C981 1.388 . S
C978 C983 1.418 . S
C979 H974 0.930 . S
C979 C982 1.404 . S
C979 C983 1.353 . S
N980 Co945 2.145 . S
N980 C981 1.397 . S
N980 C982 1.334 . S
C981 H962 0.929 . S
C981 C978 1.388 . S
C981 N980 1.397 . S
C982 H963 0.929 . S
C982 C979 1.404 . S
C982 N980 1.334 . S
C983 H975 0.930 . S
C983 C978 1.418 . S
C983 C979 1.353 . S
C984 H954 0.930 . S
C984 N985 1.330 . S
C984 C986 1.446 . S
N985 Co944 2.151 . S
N985 C984 1.330 . S
N985 C989 1.418 . S
C986 H965 0.929 . S
C986 C984 1.446 . S
C986 C987 1.332 . S
C987 H967 0.931 . S
C987 C986 1.332 . S
C987 C988 1.267 . S
C988 H956 0.929 . S
C988 C987 1.267 . S
C988 C989 1.251 . S
C989 H959 0.929 . S
C989 N985 1.418 . S
C989 C988 1.251 . S
C990 H957 0.930 . S
C990 C992 1.406 . S
C990 C995 1.261 . S
C991 H958 0.930 . S
C991 N993 1.325 . S
C991 C994 1.357 . S
C992 H960 0.928 . S
C992 C990 1.406 . S
C992 N993 1.261 . S
N993 Co944 2.214 . S
N993 C991 1.325 . S
N993 C992 1.261 . S
C994 H964 0.931 . S
C994 C991 1.357 . S
C994 C995 1.312 . S
C995 H966 0.930 . S
C995 C990 1.261 . S
C995 C994 1.312 . S
C996 O968 1.214 . S
C996 O976 1.234 . S
C997 H969 0.929 . S
C997 C1000 1.391 . S
C997 C1002 1.391 . S
C998 H970 0.929 . S
C998 C999 1.390 . S
C998 N1001 1.391 . S
C999 H971 0.930 . S
C999 C998 1.390 . S
C999 C1000 1.392 . S
C1000 H972 0.929 . S
C1000 C997 1.391 . S
C1000 C999 1.392 . S
N1001 Co945 2.257 . S
N1001 C998 1.391 . S
N1001 C1002 1.388 . S
C1002 H973 0.930 . S
C1002 C997 1.391 . S
C1002 N1001 1.388 . S
Co1003 O1005 2.143 . S
Co1003 O1011 2.074 . S
Co1003 O1014 2.093 . S
Co1003 O1027 2.097 . S
Co1003 N1044 2.151 . S
Co1003 N1052 2.214 . S
Co1004 O1005 2.160 . S
Co1004 O1010 2.058 . S
Co1004 O1020 2.057 . S
Co1004 O1035 2.037 . S
Co1004 N1039 2.145 . S
Co1004 N1060 2.257 . S
O1005 Co1003 2.143 . S
O1005 Co1004 2.160 . S
C1006 O1007 1.278 . S
C1006 O1014 1.224 . S
O1007 C1006 1.278 . S
C1008 O1009 1.245 . S
C1008 O1020 1.232 . S
O1009 C1008 1.245 . S
O1010 Co1004 2.058 . S
O1010 C1036 1.269 . S
O1011 Co1003 2.074 . S
O1011 C1036 1.257 . S
H1012 C1037 0.930 . S
H1013 C1043 0.930 . S
O1014 Co1003 2.093 . S
O1014 C1006 1.224 . S
H1015 C1047 0.929 . S
H1016 C1049 0.930 . S
H1017 C1050 0.930 . S
H1018 C1048 0.929 . S
H1019 C1051 0.928 . S
O1020 Co1004 2.057 . S
O1020 C1008 1.232 . S
H1021 C1040 0.929 . S
H1022 C1041 0.929 . S
H1023 C1053 0.931 . S
H1024 C1045 0.929 . S
H1025 C1054 0.930 . S
H1026 C1046 0.931 . S
O1027 Co1003 2.097 . S
O1027 C1055 1.214 . S
H1028 C1056 0.929 . S
H1029 C1057 0.929 . S
H1030 C1058 0.930 . S
H1031 C1059 0.929 . S
H1032 C1061 0.930 . S
H1033 C1038 0.930 . S
H1034 C1042 0.930 . S
O1035 Co1004 2.037 . S
O1035 C1055 1.234 . S
C1036 O1010 1.269 . S
C1036 O1011 1.257 . S
C1037 H1012 0.930 . S
C1037 C1040 1.388 . S
C1037 C1042 1.418 . S
C1038 H1033 0.930 . S
C1038 C1041 1.404 . S
C1038 C1042 1.353 . S
N1039 Co1004 2.145 . S
N1039 C1040 1.397 . S
N1039 C1041 1.334 . S
C1040 H1021 0.929 . S
C1040 C1037 1.388 . S
C1040 N1039 1.397 . S
C1041 H1022 0.929 . S
C1041 C1038 1.404 . S
C1041 N1039 1.334 . S
C1042 H1034 0.930 . S
C1042 C1037 1.418 . S
C1042 C1038 1.353 . S
C1043 H1013 0.930 . S
C1043 N1044 1.330 . S
C1043 C1045 1.446 . S
N1044 Co1003 2.151 . S
N1044 C1043 1.330 . S
N1044 C1048 1.418 . S
C1045 H1024 0.929 . S
C1045 C1043 1.446 . S
C1045 C1046 1.332 . S
C1046 H1026 0.931 . S
C1046 C1045 1.332 . S
C1046 C1047 1.267 . S
C1047 H1015 0.929 . S
C1047 C1046 1.267 . S
C1047 C1048 1.251 . S
C1048 H1018 0.929 . S
C1048 N1044 1.418 . S
C1048 C1047 1.251 . S
C1049 H1016 0.930 . S
C1049 C1051 1.406 . S
C1049 C1054 1.261 . S
C1050 H1017 0.930 . S
C1050 N1052 1.325 . S
C1050 C1053 1.357 . S
C1051 H1019 0.928 . S
C1051 C1049 1.406 . S
C1051 N1052 1.261 . S
N1052 Co1003 2.214 . S
N1052 C1050 1.325 . S
N1052 C1051 1.261 . S
C1053 H1023 0.931 . S
C1053 C1050 1.357 . S
C1053 C1054 1.312 . S
C1054 H1025 0.930 . S
C1054 C1049 1.261 . S
C1054 C1053 1.312 . S
C1055 O1027 1.214 . S
C1055 O1035 1.234 . S
C1056 H1028 0.929 . S
C1056 C1059 1.391 . S
C1056 C1061 1.391 . S
C1057 H1029 0.929 . S
C1057 C1058 1.390 . S
C1057 N1060 1.391 . S
C1058 H1030 0.930 . S
C1058 C1057 1.390 . S
C1058 C1059 1.392 . S
C1059 H1031 0.929 . S
C1059 C1056 1.391 . S
C1059 C1058 1.392 . S
N1060 Co1004 2.257 . S
N1060 C1057 1.391 . S
N1060 C1061 1.388 . S
C1061 H1032 0.930 . S
C1061 C1056 1.391 . S
C1061 N1060 1.388 . S
Co1062 O1064 2.143 . S
Co1062 O1070 2.074 . S
Co1062 O1073 2.093 . S
Co1062 O1086 2.097 . S
Co1062 N1103 2.151 1_554 S
Co1062 N1111 2.214 1_554 S
Co1063 O1064 2.160 . S
Co1063 O1069 2.058 . S
Co1063 O1079 2.057 . S
Co1063 O1094 2.037 . S
Co1063 N1098 2.145 . S
Co1063 N1119 2.257 . S
O1064 Co1062 2.143 . S
O1064 Co1063 2.160 . S
C1065 O1066 1.278 . S
C1065 O1073 1.224 . S
O1066 C1065 1.278 . S
C1067 O1068 1.245 . S
C1067 O1079 1.232 . S
O1068 C1067 1.245 . S
O1069 Co1063 2.058 . S
O1069 C1095 1.269 . S
O1070 Co1062 2.074 . S
O1070 C1095 1.257 . S
H1071 C1096 0.930 . S
H1072 C1102 0.930 1_554 S
O1073 Co1062 2.093 . S
O1073 C1065 1.224 . S
H1074 C1106 0.929 . S
H1075 C1108 0.930 . S
H1076 C1109 0.930 . S
H1077 C1107 0.929 . S
H1078 C1110 0.928 . S
O1079 Co1063 2.057 . S
O1079 C1067 1.232 . S
H1080 C1099 0.929 . S
H1081 C1100 0.929 . S
H1082 C1112 0.931 . S
H1083 C1104 0.929 . S
H1084 C1113 0.930 . S
H1085 C1105 0.931 . S
O1086 Co1062 2.097 . S
O1086 C1114 1.214 . S
H1087 C1115 0.929 . S
H1088 C1116 0.929 . S
H1089 C1117 0.930 . S
H1090 C1118 0.929 . S
H1091 C1120 0.930 . S
H1092 C1097 0.930 . S
H1093 C1101 0.930 . S
O1094 Co1063 2.037 . S
O1094 C1114 1.234 . S
C1095 O1069 1.269 . S
C1095 O1070 1.257 . S
C1096 H1071 0.930 . S
C1096 C1099 1.388 . S
C1096 C1101 1.418 . S
C1097 H1092 0.930 . S
C1097 C1100 1.404 . S
C1097 C1101 1.353 . S
N1098 Co1063 2.145 . S
N1098 C1099 1.397 . S
N1098 C1100 1.334 . S
C1099 H1080 0.929 . S
C1099 C1096 1.388 . S
C1099 N1098 1.397 . S
C1100 H1081 0.929 . S
C1100 C1097 1.404 . S
C1100 N1098 1.334 . S
C1101 H1093 0.930 . S
C1101 C1096 1.418 . S
C1101 C1097 1.353 . S
C1102 H1072 0.930 1_556 S
C1102 N1103 1.330 . S
C1102 C1104 1.446 . S
N1103 Co1062 2.151 1_556 S
N1103 C1102 1.330 . S
N1103 C1107 1.418 . S
C1104 H1083 0.929 . S
C1104 C1102 1.446 . S
C1104 C1105 1.332 . S
C1105 H1085 0.931 . S
C1105 C1104 1.332 . S
C1105 C1106 1.267 . S
C1106 H1074 0.929 . S
C1106 C1105 1.267 . S
C1106 C1107 1.251 . S
C1107 H1077 0.929 . S
C1107 N1103 1.418 . S
C1107 C1106 1.251 . S
C1108 H1075 0.930 . S
C1108 C1110 1.406 . S
C1108 C1113 1.261 . S
C1109 H1076 0.930 . S
C1109 N1111 1.325 . S
C1109 C1112 1.357 . S
C1110 H1078 0.928 . S
C1110 C1108 1.406 . S
C1110 N1111 1.261 . S
N1111 Co1062 2.214 1_556 S
N1111 C1109 1.325 . S
N1111 C1110 1.261 . S
C1112 H1082 0.931 . S
C1112 C1109 1.357 . S
C1112 C1113 1.312 . S
C1113 H1084 0.930 . S
C1113 C1108 1.261 . S
C1113 C1112 1.312 . S
C1114 O1086 1.214 . S
C1114 O1094 1.234 . S
C1115 H1087 0.929 . S
C1115 C1118 1.391 . S
C1115 C1120 1.391 . S
C1116 H1088 0.929 . S
C1116 C1117 1.390 . S
C1116 N1119 1.391 . S
C1117 H1089 0.930 . S
C1117 C1116 1.390 . S
C1117 C1118 1.392 . S
C1118 H1090 0.929 . S
C1118 C1115 1.391 . S
C1118 C1117 1.392 . S
N1119 Co1063 2.257 . S
N1119 C1116 1.391 . S
N1119 C1120 1.388 . S
C1120 H1091 0.930 . S
C1120 C1115 1.391 . S
C1120 N1119 1.388 . S
Co1121 O1123 2.143 . S
Co1121 O1129 2.074 . S
Co1121 O1132 2.093 . S
Co1121 O1145 2.097 . S
Co1121 N1162 2.151 . S
Co1121 N1170 2.214 . S
Co1122 O1123 2.160 . S
Co1122 O1128 2.058 . S
Co1122 O1138 2.057 . S
Co1122 O1153 2.037 . S
Co1122 N1157 2.145 . S
Co1122 N1178 2.257 . S
O1123 Co1121 2.143 . S
O1123 Co1122 2.160 . S
C1124 O1125 1.278 . S
C1124 O1132 1.224 . S
O1125 C1124 1.278 . S
C1126 O1127 1.245 . S
C1126 O1138 1.232 . S
O1127 C1126 1.245 . S
O1128 Co1122 2.058 . S
O1128 C1154 1.269 . S
O1129 Co1121 2.074 . S
O1129 C1154 1.257 . S
H1130 C1155 0.930 . S
H1131 C1161 0.930 . S
O1132 Co1121 2.093 . S
O1132 C1124 1.224 . S
H1133 C1165 0.929 . S
H1134 C1167 0.930 . S
H1135 C1168 0.930 . S
H1136 C1166 0.929 . S
H1137 C1169 0.928 . S
O1138 Co1122 2.057 . S
O1138 C1126 1.232 . S
H1139 C1158 0.929 . S
H1140 C1159 0.929 . S
H1141 C1171 0.931 . S
H1142 C1163 0.929 . S
H1143 C1172 0.930 . S
H1144 C1164 0.931 . S
O1145 Co1121 2.097 . S
O1145 C1173 1.214 . S
H1146 C1174 0.929 . S
H1147 C1175 0.929 . S
H1148 C1176 0.930 . S
H1149 C1177 0.929 . S
H1150 C1179 0.930 . S
H1151 C1156 0.930 . S
H1152 C1160 0.930 . S
O1153 Co1122 2.037 . S
O1153 C1173 1.234 . S
C1154 O1128 1.269 . S
C1154 O1129 1.257 . S
C1155 H1130 0.930 . S
C1155 C1158 1.388 . S
C1155 C1160 1.418 . S
C1156 H1151 0.930 . S
C1156 C1159 1.404 . S
C1156 C1160 1.353 . S
N1157 Co1122 2.145 . S
N1157 C1158 1.397 . S
N1157 C1159 1.334 . S
C1158 H1139 0.929 . S
C1158 C1155 1.388 . S
C1158 N1157 1.397 . S
C1159 H1140 0.929 . S
C1159 C1156 1.404 . S
C1159 N1157 1.334 . S
C1160 H1152 0.930 . S
C1160 C1155 1.418 . S
C1160 C1156 1.353 . S
C1161 H1131 0.930 . S
C1161 N1162 1.330 . S
C1161 C1163 1.446 . S
N1162 Co1121 2.151 . S
N1162 C1161 1.330 . S
N1162 C1166 1.418 . S
C1163 H1142 0.929 . S
C1163 C1161 1.446 . S
C1163 C1164 1.332 . S
C1164 H1144 0.931 . S
C1164 C1163 1.332 . S
C1164 C1165 1.267 . S
C1165 H1133 0.929 . S
C1165 C1164 1.267 . S
C1165 C1166 1.251 . S
C1166 H1136 0.929 . S
C1166 N1162 1.418 . S
C1166 C1165 1.251 . S
C1167 H1134 0.930 . S
C1167 C1169 1.406 . S
C1167 C1172 1.261 . S
C1168 H1135 0.930 . S
C1168 N1170 1.325 . S
C1168 C1171 1.357 . S
C1169 H1137 0.928 . S
C1169 C1167 1.406 . S
C1169 N1170 1.261 . S
N1170 Co1121 2.214 . S
N1170 C1168 1.325 . S
N1170 C1169 1.261 . S
C1171 H1141 0.931 . S
C1171 C1168 1.357 . S
C1171 C1172 1.312 . S
C1172 H1143 0.930 . S
C1172 C1167 1.261 . S
C1172 C1171 1.312 . S
C1173 O1145 1.214 . S
C1173 O1153 1.234 . S
C1174 H1146 0.929 . S
C1174 C1177 1.391 . S
C1174 C1179 1.391 . S
C1175 H1147 0.929 . S
C1175 C1176 1.390 . S
C1175 N1178 1.391 . S
C1176 H1148 0.930 . S
C1176 C1175 1.390 . S
C1176 C1177 1.392 . S
C1177 H1149 0.929 . S
C1177 C1174 1.391 . S
C1177 C1176 1.392 . S
N1178 Co1122 2.257 . S
N1178 C1175 1.391 . S
N1178 C1179 1.388 . S
C1179 H1150 0.930 . S
C1179 C1174 1.391 . S
C1179 N1178 1.388 . S
Co1180 O1182 2.143 . S
Co1180 O1188 2.074 . S
Co1180 O1191 2.093 . S
Co1180 O1204 2.097 . S
Co1180 N1221 2.151 . S
Co1180 N1229 2.214 . S
Co1181 O1182 2.160 . S
Co1181 O1187 2.058 . S
Co1181 O1197 2.057 . S
Co1181 O1212 2.037 . S
Co1181 N1216 2.145 . S
Co1181 N1237 2.257 . S
O1182 Co1180 2.143 . S
O1182 Co1181 2.160 . S
C1183 O1184 1.278 . S
C1183 O1191 1.224 . S
O1184 C1183 1.278 . S
C1185 O1186 1.245 . S
C1185 O1197 1.232 . S
O1186 C1185 1.245 . S
O1187 Co1181 2.058 . S
O1187 C1213 1.269 . S
O1188 Co1180 2.074 . S
O1188 C1213 1.257 . S
H1189 C1214 0.930 . S
H1190 C1220 0.930 . S
O1191 Co1180 2.093 . S
O1191 C1183 1.224 . S
H1192 C1224 0.929 . S
H1193 C1226 0.930 . S
H1194 C1227 0.930 . S
H1195 C1225 0.929 . S
H1196 C1228 0.928 . S
O1197 Co1181 2.057 . S
O1197 C1185 1.232 . S
H1198 C1217 0.929 . S
H1199 C1218 0.929 . S
H1200 C1230 0.931 . S
H1201 C1222 0.929 . S
H1202 C1231 0.930 . S
H1203 C1223 0.931 . S
O1204 Co1180 2.097 . S
O1204 C1232 1.214 . S
H1205 C1233 0.929 . S
H1206 C1234 0.929 . S
H1207 C1235 0.930 . S
H1208 C1236 0.929 . S
H1209 C1238 0.930 . S
H1210 C1215 0.930 . S
H1211 C1219 0.930 . S
O1212 Co1181 2.037 . S
O1212 C1232 1.234 . S
C1213 O1187 1.269 . S
C1213 O1188 1.257 . S
C1214 H1189 0.930 . S
C1214 C1217 1.388 . S
C1214 C1219 1.418 . S
C1215 H1210 0.930 . S
C1215 C1218 1.404 . S
C1215 C1219 1.353 . S
N1216 Co1181 2.145 . S
N1216 C1217 1.397 . S
N1216 C1218 1.334 . S
C1217 H1198 0.929 . S
C1217 C1214 1.388 . S
C1217 N1216 1.397 . S
C1218 H1199 0.929 . S
C1218 C1215 1.404 . S
C1218 N1216 1.334 . S
C1219 H1211 0.930 . S
C1219 C1214 1.418 . S
C1219 C1215 1.353 . S
C1220 H1190 0.930 . S
C1220 N1221 1.330 . S
C1220 C1222 1.446 . S
N1221 Co1180 2.151 . S
N1221 C1220 1.330 . S
N1221 C1225 1.418 . S
C1222 H1201 0.929 . S
C1222 C1220 1.446 . S
C1222 C1223 1.332 . S
C1223 H1203 0.931 . S
C1223 C1222 1.332 . S
C1223 C1224 1.267 . S
C1224 H1192 0.929 . S
C1224 C1223 1.267 . S
C1224 C1225 1.251 . S
C1225 H1195 0.929 . S
C1225 N1221 1.418 . S
C1225 C1224 1.251 . S
C1226 H1193 0.930 . S
C1226 C1228 1.406 . S
C1226 C1231 1.261 . S
C1227 H1194 0.930 . S
C1227 N1229 1.325 . S
C1227 C1230 1.357 . S
C1228 H1196 0.928 . S
C1228 C1226 1.406 . S
C1228 N1229 1.261 . S
N1229 Co1180 2.214 . S
N1229 C1227 1.325 . S
N1229 C1228 1.261 . S
C1230 H1200 0.931 . S
C1230 C1227 1.357 . S
C1230 C1231 1.312 . S
C1231 H1202 0.930 . S
C1231 C1226 1.261 . S
C1231 C1230 1.312 . S
C1232 O1204 1.214 . S
C1232 O1212 1.234 . S
C1233 H1205 0.929 . S
C1233 C1236 1.391 . S
C1233 C1238 1.391 . S
C1234 H1206 0.929 . S
C1234 C1235 1.390 . S
C1234 N1237 1.391 . S
C1235 H1207 0.930 . S
C1235 C1234 1.390 . S
C1235 C1236 1.392 . S
C1236 H1208 0.929 . S
C1236 C1233 1.391 . S
C1236 C1235 1.392 . S
N1237 Co1181 2.257 . S
N1237 C1234 1.391 . S
N1237 C1238 1.388 . S
C1238 H1209 0.930 . S
C1238 C1233 1.391 . S
C1238 N1237 1.388 . S
Co1239 O1241 2.143 . S
Co1239 O1247 2.074 . S
Co1239 O1250 2.093 . S
Co1239 O1263 2.097 . S
Co1239 N1280 2.151 . S
Co1239 N1288 2.214 . S
Co1240 O1241 2.160 . S
Co1240 O1246 2.058 . S
Co1240 O1256 2.057 . S
Co1240 O1271 2.037 . S
Co1240 N1275 2.145 . S
Co1240 N1296 2.257 . S
O1241 Co1239 2.143 . S
O1241 Co1240 2.160 . S
C1242 O1243 1.278 . S
C1242 O1250 1.224 . S
O1243 C1242 1.278 . S
C1244 O1245 1.245 . S
C1244 O1256 1.232 . S
O1245 C1244 1.245 . S
O1246 Co1240 2.058 . S
O1246 C1272 1.269 . S
O1247 Co1239 2.074 . S
O1247 C1272 1.257 . S
H1248 C1273 0.930 . S
H1249 C1279 0.930 . S
O1250 Co1239 2.093 . S
O1250 C1242 1.224 . S
H1251 C1283 0.929 . S
H1252 C1285 0.930 . S
H1253 C1286 0.930 . S
H1254 C1284 0.929 . S
H1255 C1287 0.928 . S
O1256 Co1240 2.057 . S
O1256 C1244 1.232 . S
H1257 C1276 0.929 . S
H1258 C1277 0.929 . S
H1259 C1289 0.931 . S
H1260 C1281 0.929 . S
H1261 C1290 0.930 . S
H1262 C1282 0.931 . S
O1263 Co1239 2.097 . S
O1263 C1291 1.214 . S
H1264 C1292 0.929 . S
H1265 C1293 0.929 . S
H1266 C1294 0.930 . S
H1267 C1295 0.929 . S
H1268 C1297 0.930 . S
H1269 C1274 0.930 . S
H1270 C1278 0.930 . S
O1271 Co1240 2.037 . S
O1271 C1291 1.234 . S
C1272 O1246 1.269 . S
C1272 O1247 1.257 . S
C1273 H1248 0.930 . S
C1273 C1276 1.388 . S
C1273 C1278 1.418 . S
C1274 H1269 0.930 . S
C1274 C1277 1.404 . S
C1274 C1278 1.353 . S
N1275 Co1240 2.145 . S
N1275 C1276 1.397 . S
N1275 C1277 1.334 . S
C1276 H1257 0.929 . S
C1276 C1273 1.388 . S
C1276 N1275 1.397 . S
C1277 H1258 0.929 . S
C1277 C1274 1.404 . S
C1277 N1275 1.334 . S
C1278 H1270 0.930 . S
C1278 C1273 1.418 . S
C1278 C1274 1.353 . S
C1279 H1249 0.930 . S
C1279 N1280 1.330 . S
C1279 C1281 1.446 . S
N1280 Co1239 2.151 . S
N1280 C1279 1.330 . S
N1280 C1284 1.418 . S
C1281 H1260 0.929 . S
C1281 C1279 1.446 . S
C1281 C1282 1.332 . S
C1282 H1262 0.931 . S
C1282 C1281 1.332 . S
C1282 C1283 1.267 . S
C1283 H1251 0.929 . S
C1283 C1282 1.267 . S
C1283 C1284 1.251 . S
C1284 H1254 0.929 . S
C1284 N1280 1.418 . S
C1284 C1283 1.251 . S
C1285 H1252 0.930 . S
C1285 C1287 1.406 . S
C1285 C1290 1.261 . S
C1286 H1253 0.930 . S
C1286 N1288 1.325 . S
C1286 C1289 1.357 . S
C1287 H1255 0.928 . S
C1287 C1285 1.406 . S
C1287 N1288 1.261 . S
N1288 Co1239 2.214 . S
N1288 C1286 1.325 . S
N1288 C1287 1.261 . S
C1289 H1259 0.931 . S
C1289 C1286 1.357 . S
C1289 C1290 1.312 . S
C1290 H1261 0.930 . S
C1290 C1285 1.261 . S
C1290 C1289 1.312 . S
C1291 O1263 1.214 . S
C1291 O1271 1.234 . S
C1292 H1264 0.929 . S
C1292 C1295 1.391 . S
C1292 C1297 1.391 . S
C1293 H1265 0.929 . S
C1293 C1294 1.390 . S
C1293 N1296 1.391 . S
C1294 H1266 0.930 . S
C1294 C1293 1.390 . S
C1294 C1295 1.392 . S
C1295 H1267 0.929 . S
C1295 C1292 1.391 . S
C1295 C1294 1.392 . S
N1296 Co1240 2.257 . S
N1296 C1293 1.391 . S
N1296 C1297 1.388 . S
C1297 H1268 0.930 . S
C1297 C1292 1.391 . S
C1297 N1296 1.388 . S
Co1298 O1300 2.143 . S
Co1298 O1306 2.074 . S
Co1298 O1309 2.093 . S
Co1298 O1322 2.097 . S
Co1298 N1339 2.151 1_556 S
Co1298 N1347 2.214 1_556 S
Co1299 O1300 2.160 . S
Co1299 O1305 2.074 . S
Co1299 O1315 2.057 . S
Co1299 O1330 2.037 . S
Co1299 N1334 2.145 . S
Co1299 N1355 2.257 . S
O1300 Co1298 2.143 . S
O1300 Co1299 2.160 . S
C1301 O1302 1.278 . S
C1301 O1309 1.224 . S
O1302 C1301 1.278 . S
C1303 O1304 1.245 . S
C1303 O1315 1.232 . S
O1304 C1303 1.245 . S
O1305 Co1299 2.074 . S
O1305 C1331 1.272 . S
O1306 Co1298 2.074 . S
O1306 C1331 1.257 . S
H1307 C1332 0.930 . S
H1308 C1338 0.930 1_556 S
O1309 Co1298 2.093 . S
O1309 C1301 1.224 . S
H1310 C1342 0.929 1_545 S
H1311 C1344 0.930 . S
H1312 C1345 0.930 . S
H1313 C1343 0.929 . S
H1314 C1346 0.928 . S
O1315 Co1299 2.057 . S
O1315 C1303 1.232 . S
H1316 C1335 0.929 . S
H1317 C1336 0.929 . S
H1318 C1348 0.931 . S
H1319 C1340 0.929 . S
H1320 C1349 0.930 . S
H1321 C1341 0.939 . S
O1322 Co1298 2.097 . S
O1322 C1350 1.214 . S
H1323 C1351 0.929 . S
H1324 C1352 0.929 . S
H1325 C1353 0.930 . S
H1326 C1354 0.929 . S
H1327 C1356 0.930 . S
H1328 C1333 0.930 . S
H1329 C1337 0.930 . S
O1330 Co1299 2.037 . S
O1330 C1350 1.234 . S
C1331 O1305 1.272 . S
C1331 O1306 1.257 . S
C1332 H1307 0.930 . S
C1332 C1335 1.388 . S
C1332 C1337 1.418 1_565 S
C1333 H1328 0.930 . S
C1333 C1336 1.404 1_545 S
C1333 C1337 1.353 . S
N1334 Co1299 2.145 . S
N1334 C1335 1.397 . S
N1334 C1336 1.334 . S
C1335 H1316 0.929 . S
C1335 C1332 1.388 . S
C1335 N1334 1.397 . S
C1336 H1317 0.929 . S
C1336 C1333 1.404 1_565 S
C1336 N1334 1.334 . S
C1337 H1329 0.930 . S
C1337 C1332 1.418 1_545 S
C1337 C1333 1.353 . S
C1338 H1308 0.930 1_554 S
C1338 N1339 1.330 . S
C1338 C1340 1.446 . S
N1339 Co1298 2.151 1_554 S
N1339 C1338 1.330 . S
N1339 C1343 1.418 . S
C1340 H1319 0.929 . S
C1340 C1338 1.446 . S
C1340 C1341 1.332 . S
C1341 H1321 0.939 . S
C1341 C1340 1.332 . S
C1341 C1342 1.267 . S
C1342 H1310 0.929 1_565 S
C1342 C1341 1.267 . S
C1342 C1343 1.251 . S
C1343 H1313 0.929 . S
C1343 N1339 1.418 . S
C1343 C1342 1.251 . S
C1344 H1311 0.930 . S
C1344 C1346 1.406 . S
C1344 C1349 1.261 . S
C1345 H1312 0.930 . S
C1345 N1347 1.325 . S
C1345 C1348 1.357 . S
C1346 H1314 0.928 . S
C1346 C1344 1.406 . S
C1346 N1347 1.261 . S
N1347 Co1298 2.214 1_554 S
N1347 C1345 1.325 . S
N1347 C1346 1.261 . S
C1348 H1318 0.931 . S
C1348 C1345 1.357 . S
C1348 C1349 1.312 . S
C1349 H1320 0.930 . S
C1349 C1344 1.261 . S
C1349 C1348 1.312 . S
C1350 O1322 1.214 . S
C1350 O1330 1.234 . S
C1351 H1323 0.929 . S
C1351 C1354 1.391 . S
C1351 C1356 1.391 . S
C1352 H1324 0.929 . S
C1352 C1353 1.390 . S
C1352 N1355 1.391 . S
C1353 H1325 0.930 . S
C1353 C1352 1.390 . S
C1353 C1354 1.392 . S
C1354 H1326 0.929 . S
C1354 C1351 1.391 . S
C1354 C1353 1.392 . S
N1355 Co1299 2.257 . S
N1355 C1352 1.391 . S
N1355 C1356 1.388 . S
C1356 H1327 0.930 . S
C1356 C1351 1.391 . S
C1356 N1355 1.388 . S
Co1357 O1359 2.143 . S
Co1357 O1365 2.074 . S
Co1357 O1368 2.093 . S
Co1357 O1381 2.097 . S
Co1357 N1398 2.151 . S
Co1357 N1406 2.214 . S
Co1358 O1359 2.160 . S
Co1358 O1364 2.074 . S
Co1358 O1374 2.057 . S
Co1358 O1389 2.037 . S
Co1358 N1393 2.145 . S
Co1358 N1414 2.257 . S
O1359 Co1357 2.143 . S
O1359 Co1358 2.160 . S
C1360 O1361 1.278 . S
C1360 O1368 1.224 . S
O1361 C1360 1.278 . S
C1362 O1363 1.245 . S
C1362 O1374 1.232 . S
O1363 C1362 1.245 . S
O1364 Co1358 2.074 . S
O1364 C1390 1.272 . S
O1365 Co1357 2.074 . S
O1365 C1390 1.257 . S
H1366 C1391 0.930 . S
H1367 C1397 0.930 . S
O1368 Co1357 2.093 . S
O1368 C1360 1.224 . S
H1369 C1401 0.929 1_565 S
H1370 C1403 0.930 . S
H1371 C1404 0.930 . S
H1372 C1402 0.929 . S
H1373 C1405 0.928 . S
O1374 Co1358 2.057 . S
O1374 C1362 1.232 . S
H1375 C1394 0.929 . S
H1376 C1395 0.929 . S
H1377 C1407 0.931 . S
H1378 C1399 0.929 . S
H1379 C1408 0.930 . S
H1380 C1400 0.939 . S
O1381 Co1357 2.097 . S
O1381 C1409 1.214 . S
H1382 C1410 0.929 . S
H1383 C1411 0.929 . S
H1384 C1412 0.930 . S
H1385 C1413 0.929 . S
H1386 C1415 0.930 . S
H1387 C1392 0.930 . S
H1388 C1396 0.930 . S
O1389 Co1358 2.037 . S
O1389 C1409 1.234 . S
C1390 O1364 1.272 . S
C1390 O1365 1.257 . S
C1391 H1366 0.930 . S
C1391 C1394 1.388 . S
C1391 C1396 1.418 1_545 S
C1392 H1387 0.930 . S
C1392 C1395 1.404 1_565 S
C1392 C1396 1.353 . S
N1393 Co1358 2.145 . S
N1393 C1394 1.397 . S
N1393 C1395 1.334 . S
C1394 H1375 0.929 . S
C1394 C1391 1.388 . S
C1394 N1393 1.397 . S
C1395 H1376 0.929 . S
C1395 C1392 1.404 1_545 S
C1395 N1393 1.334 . S
C1396 H1388 0.930 . S
C1396 C1391 1.418 1_565 S
C1396 C1392 1.353 . S
C1397 H1367 0.930 . S
C1397 N1398 1.330 . S
C1397 C1399 1.446 . S
N1398 Co1357 2.151 . S
N1398 C1397 1.330 . S
N1398 C1402 1.418 . S
C1399 H1378 0.929 . S
C1399 C1397 1.446 . S
C1399 C1400 1.332 . S
C1400 H1380 0.939 . S
C1400 C1399 1.332 . S
C1400 C1401 1.267 . S
C1401 H1369 0.929 1_545 S
C1401 C1400 1.267 . S
C1401 C1402 1.251 . S
C1402 H1372 0.929 . S
C1402 N1398 1.418 . S
C1402 C1401 1.251 . S
C1403 H1370 0.930 . S
C1403 C1405 1.406 . S
C1403 C1408 1.261 . S
C1404 H1371 0.930 . S
C1404 N1406 1.325 . S
C1404 C1407 1.357 . S
C1405 H1373 0.928 . S
C1405 C1403 1.406 . S
C1405 N1406 1.261 . S
N1406 Co1357 2.214 . S
N1406 C1404 1.325 . S
N1406 C1405 1.261 . S
C1407 H1377 0.931 . S
C1407 C1404 1.357 . S
C1407 C1408 1.312 . S
C1408 H1379 0.930 . S
C1408 C1403 1.261 . S
C1408 C1407 1.312 . S
C1409 O1381 1.214 . S
C1409 O1389 1.234 . S
C1410 H1382 0.929 . S
C1410 C1413 1.391 . S
C1410 C1415 1.391 . S
C1411 H1383 0.929 . S
C1411 C1412 1.390 . S
C1411 N1414 1.391 . S
C1412 H1384 0.930 . S
C1412 C1411 1.390 . S
C1412 C1413 1.392 . S
C1413 H1385 0.929 . S
C1413 C1410 1.391 . S
C1413 C1412 1.392 . S
N1414 Co1358 2.257 . S
N1414 C1411 1.391 . S
N1414 C1415 1.388 . S
C1415 H1386 0.930 . S
C1415 C1410 1.391 . S
C1415 N1414 1.388 . S
C1416 C1417 1.369 . S
C1416 C1418 1.419 . S
C1416 H1420 0.930 . S
C1417 C1416 1.369 . S
C1417 C1426 1.429 . S
C1418 C1416 1.419 . S
C1418 C1419 1.363 . S
C1418 H1421 0.929 . S
C1419 C1418 1.363 . S
C1419 C1425 1.428 . S
H1420 C1416 0.930 . S
H1421 C1418 0.929 . S
S1422 N1423 1.613 . S
S1422 N1424 1.610 . S
N1423 S1422 1.613 . S
N1423 C1426 1.350 . S
N1424 S1422 1.610 . S
N1424 C1425 1.351 . S
C1425 C1419 1.428 . S
C1425 N1424 1.351 . S
C1425 C1426 1.434 . S
C1426 C1417 1.429 . S
C1426 N1423 1.350 . S
C1426 C1425 1.434 . S
C1427 C1428 1.369 . S
C1427 C1429 1.419 . S
C1427 H1431 0.930 . S
C1428 C1427 1.369 . S
C1428 C1437 1.429 . S
C1429 C1427 1.419 . S
C1429 C1430 1.363 . S
C1429 H1432 0.929 . S
C1430 C1429 1.363 . S
C1430 C1436 1.428 . S
H1431 C1427 0.930 . S
H1432 C1429 0.929 . S
S1433 N1434 1.613 . S
S1433 N1435 1.610 1_655 S
N1434 S1433 1.613 . S
N1434 C1437 1.350 1_655 S
N1435 S1433 1.610 1_455 S
N1435 C1436 1.351 . S
C1436 C1430 1.428 . S
C1436 N1435 1.351 . S
C1436 C1437 1.434 . S
C1437 C1428 1.429 . S
C1437 N1434 1.350 1_455 S
C1437 C1436 1.434 . S
C1438 C1439 1.369 . S
C1438 C1440 1.419 . S
C1438 H1442 0.930 . S
C1439 C1438 1.369 . S
C1439 C1448 1.429 . S
C1440 C1438 1.419 . S
C1440 C1441 1.363 . S
C1440 H1443 0.929 . S
C1441 C1440 1.363 . S
C1441 C1447 1.428 . S
H1442 C1438 0.930 . S
H1443 C1440 0.929 . S
S1444 N1445 1.613 . S
S1444 N1446 1.610 1_556 S
N1445 S1444 1.613 . S
N1445 C1448 1.350 . S
N1446 S1444 1.610 1_554 S
N1446 C1447 1.351 1_554 S
C1447 C1441 1.428 . S
C1447 N1446 1.351 1_556 S
C1447 C1448 1.434 . S
C1448 C1439 1.429 . S
C1448 N1445 1.350 . S
C1448 C1447 1.434 . S
C1449 C1450 1.369 . S
C1449 C1451 1.419 . S
C1449 H1453 0.930 . S
C1450 C1449 1.369 . S
C1450 C1459 1.429 . S
C1451 C1449 1.419 . S
C1451 C1452 1.363 . S
C1451 H1454 0.929 . S
C1452 C1451 1.363 . S
C1452 C1458 1.428 . S
H1453 C1449 0.930 . S
H1454 C1451 0.929 . S
S1455 N1456 1.613 . S
S1455 N1457 1.610 . S
N1456 S1455 1.613 . S
N1456 C1459 1.350 . S
N1457 S1455 1.610 . S
N1457 C1458 1.351 . S
C1458 C1452 1.428 . S
C1458 N1457 1.351 . S
C1458 C1459 1.434 . S
C1459 C1450 1.429 . S
C1459 N1456 1.350 . S
C1459 C1458 1.434 . S
C1460 C1461 1.369 . S
C1460 C1462 1.419 . S
C1460 H1464 0.930 . S
C1461 C1460 1.369 . S
C1461 C1470 1.429 . S
C1462 C1460 1.419 . S
C1462 C1463 1.363 . S
C1462 H1465 0.929 . S
C1463 C1462 1.363 . S
C1463 C1469 1.428 . S
H1464 C1460 0.930 . S
H1465 C1462 0.929 . S
S1466 N1467 1.613 . S
S1466 N1468 1.610 . S
N1467 S1466 1.613 . S
N1467 C1470 1.350 . S
N1468 S1466 1.610 . S
N1468 C1469 1.351 . S
C1469 C1463 1.428 . S
C1469 N1468 1.351 . S
C1469 C1470 1.434 . S
C1470 C1461 1.429 . S
C1470 N1467 1.350 . S
C1470 C1469 1.434 . S
C1471 C1472 1.369 . S
C1471 C1473 1.419 . S
C1471 H1475 0.930 . S
C1472 C1471 1.369 . S
C1472 C1481 1.429 . S
C1473 C1471 1.419 . S
C1473 C1474 1.363 . S
C1473 H1476 0.929 1_655 S
C1474 C1473 1.363 . S
C1474 C1480 1.428 . S
H1475 C1471 0.930 . S
H1476 C1473 0.929 1_455 S
S1477 N1478 1.613 . S
S1477 N1479 1.610 . S
N1478 S1477 1.613 . S
N1478 C1481 1.350 . S
N1479 S1477 1.610 . S
N1479 C1480 1.351 . S
C1480 C1474 1.428 . S
C1480 N1479 1.351 . S
C1480 C1481 1.434 . S
C1481 C1472 1.429 . S
C1481 N1478 1.350 . S
C1481 C1480 1.434 . S
C1482 C1483 1.369 . S
C1482 C1484 1.419 . S
C1482 H1486 0.930 . S
C1483 C1482 1.369 . S
C1483 C1492 1.429 . S
C1484 C1482 1.419 . S
C1484 C1485 1.363 . S
C1484 H1487 0.929 . S
C1485 C1484 1.363 . S
C1485 C1491 1.428 . S
H1486 C1482 0.930 . S
H1487 C1484 0.929 . S
S1488 N1489 1.644 . S
S1488 N1490 1.602 1_554 S
N1489 S1488 1.644 . S
N1489 C1492 1.350 . S
N1490 S1488 1.602 1_556 S
N1490 C1491 1.351 1_556 S
C1491 C1485 1.428 . S
C1491 N1490 1.351 1_554 S
C1491 C1492 1.434 . S
C1492 C1483 1.429 . S
C1492 N1489 1.350 . S
C1492 C1491 1.434 . S
C1493 C1494 1.369 . S
C1493 C1495 1.419 . S
C1493 H1497 0.930 . S
C1494 C1493 1.369 . S
C1494 C1503 1.429 . S
C1495 C1493 1.419 . S
C1495 C1496 1.363 . S
C1495 H1498 0.929 . S
C1496 C1495 1.363 . S
C1496 C1502 1.428 . S
H1497 C1493 0.930 . S
H1498 C1495 0.929 . S
S1499 N1500 1.613 . S
S1499 N1501 1.610 . S
N1500 S1499 1.613 . S
N1500 C1503 1.350 . S
N1501 S1499 1.610 . S
N1501 C1502 1.351 . S
C1502 C1496 1.428 . S
C1502 N1501 1.351 . S
C1502 C1503 1.434 . S
C1503 C1494 1.429 . S
C1503 N1500 1.350 . S
C1503 C1502 1.434 . S
C1504 C1505 1.369 . S
C1504 C1506 1.419 . S
C1504 H1508 0.930 . S
C1505 C1504 1.369 . S
C1505 C1514 1.429 . S
C1506 C1504 1.419 . S
C1506 C1507 1.363 . S
C1506 H1509 0.929 . S
C1507 C1506 1.363 . S
C1507 C1513 1.428 . S
H1508 C1504 0.930 . S
H1509 C1506 0.929 . S
S1510 N1511 1.613 . S
S1510 N1512 1.610 . S
N1511 S1510 1.613 . S
N1511 C1514 1.350 . S
N1512 S1510 1.610 . S
N1512 C1513 1.351 . S
C1513 C1507 1.428 . S
C1513 N1512 1.351 . S
C1513 C1514 1.434 . S
C1514 C1505 1.429 . S
C1514 N1511 1.350 . S
C1514 C1513 1.434 . S
C1515 C1516 1.369 . S
C1515 C1517 1.419 . S
C1515 H1519 0.930 . S
C1516 C1515 1.369 . S
C1516 C1525 1.429 . S
C1517 C1515 1.419 . S
C1517 C1518 1.363 . S
C1517 H1520 0.929 . S
C1518 C1517 1.363 . S
C1518 C1524 1.428 . S
H1519 C1515 0.930 . S
H1520 C1517 0.929 . S
S1521 N1522 1.613 . S
S1521 N1523 1.610 . S
N1522 S1521 1.613 . S
N1522 C1525 1.350 . S
N1523 S1521 1.610 . S
N1523 C1524 1.351 . S
C1524 C1518 1.428 . S
C1524 N1523 1.351 . S
C1524 C1525 1.434 . S
C1525 C1516 1.429 . S
C1525 N1522 1.350 . S
C1525 C1524 1.434 . S
C1526 C1527 1.369 . S
C1526 C1528 1.419 . S
C1526 H1530 0.930 . S
C1527 C1526 1.369 . S
C1527 C1536 1.429 . S
C1528 C1526 1.419 . S
C1528 C1529 1.363 . S
C1528 H1531 0.929 1_565 S
C1529 C1528 1.363 . S
C1529 C1535 1.428 . S
H1530 C1526 0.930 . S
H1531 C1528 0.929 1_545 S
S1532 N1533 1.613 . S
S1532 N1534 1.610 . S
N1533 S1532 1.613 . S
N1533 C1536 1.350 . S
N1534 S1532 1.610 . S
N1534 C1535 1.351 . S
C1535 C1529 1.428 . S
C1535 N1534 1.351 . S
C1535 C1536 1.434 . S
C1536 C1527 1.429 . S
C1536 N1533 1.350 . S
C1536 C1535 1.434 . S
C1537 C1538 1.369 . S
C1537 C1539 1.419 . S
C1537 H1541 0.930 . S
C1538 C1537 1.369 . S
C1538 C1547 1.429 . S
C1539 C1537 1.419 . S
C1539 C1540 1.363 . S
C1539 H1542 0.929 . S
C1540 C1539 1.363 . S
C1540 C1546 1.428 . S
H1541 C1537 0.930 . S
H1542 C1539 0.929 . S
S1543 N1544 1.613 . S
S1543 N1545 1.610 . S
N1544 S1543 1.613 . S
N1544 C1547 1.350 . S
N1545 S1543 1.610 . S
N1545 C1546 1.351 . S
C1546 C1540 1.428 . S
C1546 N1545 1.351 . S
C1546 C1547 1.434 . S
C1547 C1538 1.429 . S
C1547 N1544 1.350 . S
C1547 C1546 1.434 . S
C1548 C1549 1.369 . S
C1548 C1550 1.419 . S
C1548 H1552 0.930 . S
C1549 C1548 1.369 . S
C1549 C1558 1.429 . S
C1550 C1548 1.419 . S
C1550 C1551 1.363 . S
C1550 H1553 0.929 . S
C1551 C1550 1.363 . S
C1551 C1557 1.428 . S
H1552 C1548 0.930 . S
H1553 C1550 0.929 . S
S1554 N1555 1.613 . S
S1554 N1556 1.610 . S
N1555 S1554 1.613 . S
N1555 C1558 1.350 . S
N1556 S1554 1.610 . S
N1556 C1557 1.351 . S
C1557 C1551 1.428 . S
C1557 N1556 1.351 . S
C1557 C1558 1.434 . S
C1558 C1549 1.429 . S
C1558 N1555 1.350 . S
C1558 C1557 1.434 . S
C1559 C1560 1.369 1_545 S
C1559 C1561 1.419 . S
C1559 H1563 0.930 . S
C1560 C1559 1.369 1_565 S
C1560 C1569 1.429 . S
C1561 C1559 1.419 . S
C1561 C1562 1.363 . S
C1561 H1564 0.929 . S
C1562 C1561 1.363 . S
C1562 C1568 1.428 . S
H1563 C1559 0.930 . S
H1564 C1561 0.929 . S
S1565 N1566 1.613 . S
S1565 N1567 1.610 1_565 S
N1566 S1565 1.613 . S
N1566 C1569 1.350 . S
N1567 S1565 1.610 1_545 S
N1567 C1568 1.351 . S
C1568 C1562 1.428 . S
C1568 N1567 1.351 . S
C1568 C1569 1.434 1_545 S
C1569 C1560 1.429 . S
C1569 N1566 1.350 . S
C1569 C1568 1.434 1_565 S
C1570 C1571 1.369 . S
C1570 C1572 1.419 1_556 S
C1570 H1574 0.930 1_556 S
C1571 C1570 1.369 . S
C1571 C1580 1.429 . S
C1572 C1570 1.419 1_554 S
C1572 C1573 1.363 . S
C1572 H1575 0.929 . S
C1573 C1572 1.363 . S
C1573 C1579 1.428 1_554 S
H1574 C1570 0.930 1_554 S
H1575 C1572 0.929 . S
S1576 N1577 1.613 . S
S1576 N1578 1.610 . S
N1577 S1576 1.613 . S
N1577 C1580 1.350 . S
N1578 S1576 1.610 . S
N1578 C1579 1.351 . S
C1579 C1573 1.428 1_556 S
C1579 N1578 1.351 . S
C1579 C1580 1.434 . S
C1580 C1571 1.429 . S
C1580 N1577 1.350 . S
C1580 C1579 1.434 . S
C1581 C1582 1.369 1_565 S
C1581 C1583 1.419 . S
C1581 H1585 0.930 . S
C1582 C1581 1.369 1_545 S
C1582 C1591 1.429 . S
C1583 C1581 1.419 . S
C1583 C1584 1.363 . S
C1583 H1586 0.929 . S
C1584 C1583 1.363 . S
C1584 C1590 1.428 . S
H1585 C1581 0.930 . S
H1586 C1583 0.929 . S
S1587 N1588 1.613 . S
S1587 N1589 1.622 . S
N1588 S1587 1.613 . S
N1588 C1591 1.350 . S
N1589 S1587 1.622 . S
N1589 C1590 1.348 1_545 S
C1590 C1584 1.428 . S
C1590 N1589 1.348 1_565 S
C1590 C1591 1.434 1_565 S
C1591 C1582 1.429 . S
C1591 N1588 1.350 . S
C1591 C1590 1.434 1_545 S
C1592 C1593 1.369 . S
C1592 C1594 1.419 . S
C1592 H1596 0.930 . S
C1593 C1592 1.369 . S
C1593 C1602 1.429 . S
C1594 C1592 1.419 . S
C1594 C1595 1.363 . S
C1594 H1597 0.929 . S
C1595 C1594 1.363 . S
C1595 C1601 1.428 . S
H1596 C1592 0.930 . S
H1597 C1594 0.929 . S
S1598 N1599 1.613 . S
S1598 N1600 1.610 . S
N1599 S1598 1.613 . S
N1599 C1602 1.350 . S
N1600 S1598 1.610 . S
N1600 C1601 1.351 . S
C1601 C1595 1.428 . S
C1601 N1600 1.351 . S
C1601 C1602 1.434 . S
C1602 C1593 1.429 . S
C1602 N1599 1.350 . S
C1602 C1601 1.434 . S
C1603 C1604 1.369 . S
C1603 C1605 1.419 . S
C1603 H1607 0.930 . S
C1604 C1603 1.369 . S
C1604 C1613 1.429 . S
C1605 C1603 1.419 . S
C1605 C1606 1.363 . S
C1605 H1608 0.929 . S
C1606 C1605 1.363 . S
C1606 C1612 1.428 . S
H1607 C1603 0.930 . S
H1608 C1605 0.929 . S
S1609 N1610 1.613 . S
S1609 N1611 1.610 . S
N1610 S1609 1.613 . S
N1610 C1613 1.350 . S
N1611 S1609 1.610 . S
N1611 C1612 1.351 . S
C1612 C1606 1.428 . S
C1612 N1611 1.351 . S
C1612 C1613 1.434 . S
C1613 C1604 1.429 . S
C1613 N1610 1.350 . S
C1613 C1612 1.434 . S
C1614 C1615 1.369 1_554 S
C1614 C1616 1.419 . S
C1614 H1618 0.930 . S
C1615 C1614 1.369 1_556 S
C1615 C1624 1.429 . S
C1616 C1614 1.419 . S
C1616 C1617 1.363 . S
C1616 H1619 0.929 . S
C1617 C1616 1.363 . S
C1617 C1623 1.428 . S
H1618 C1614 0.930 . S
H1619 C1616 0.929 . S
S1620 N1621 1.613 . S
S1620 N1622 1.610 . S
N1621 S1620 1.613 . S
N1621 C1624 1.350 . S
N1622 S1620 1.610 . S
N1622 C1623 1.351 1_556 S
C1623 C1617 1.428 . S
C1623 N1622 1.351 1_554 S
C1623 C1624 1.434 1_554 S
C1624 C1615 1.429 . S
C1624 N1621 1.350 . S
C1624 C1623 1.434 1_556 S
C1625 C1626 1.369 . S
C1625 C1627 1.419 . S
C1625 H1629 0.930 . S
C1626 C1625 1.369 . S
C1626 C1635 1.429 . S
C1627 C1625 1.419 . S
C1627 C1628 1.363 . S
C1627 H1630 0.929 . S
C1628 C1627 1.363 . S
C1628 C1634 1.428 . S
H1629 C1625 0.930 . S
H1630 C1627 0.929 . S
S1631 N1632 1.613 . S
S1631 N1633 1.610 . S
N1632 S1631 1.613 . S
N1632 C1635 1.350 . S
N1633 S1631 1.610 . S
N1633 C1634 1.351 . S
C1634 C1628 1.428 . S
C1634 N1633 1.351 . S
C1634 C1635 1.434 . S
C1635 C1626 1.429 . S
C1635 N1632 1.350 . S
C1635 C1634 1.434 . S
C1636 C1637 1.369 . S
C1636 C1638 1.419 . S
C1636 H1640 0.930 . S
C1637 C1636 1.369 . S
C1637 C1646 1.429 . S
C1638 C1636 1.419 . S
C1638 C1639 1.363 . S
C1638 H1641 0.929 . S
C1639 C1638 1.363 . S
C1639 C1645 1.428 . S
H1640 C1636 0.930 . S
H1641 C1638 0.929 . S
S1642 N1643 1.613 . S
S1642 N1644 1.610 . S
N1643 S1642 1.613 . S
N1643 C1646 1.350 . S
N1644 S1642 1.610 . S
N1644 C1645 1.351 . S
C1645 C1639 1.428 . S
C1645 N1644 1.351 . S
C1645 C1646 1.434 . S
C1646 C1637 1.429 . S
C1646 N1643 1.350 . S
C1646 C1645 1.434 . S
C1647 C1648 1.369 1_655 S
C1647 C1649 1.419 . S
C1647 H1651 0.930 . S
C1648 C1647 1.369 1_455 S
C1648 C1657 1.429 . S
C1649 C1647 1.419 . S
C1649 C1650 1.363 . S
C1649 H1652 0.929 . S
C1650 C1649 1.363 . S
C1650 C1656 1.428 . S
H1651 C1647 0.930 . S
H1652 C1649 0.929 . S
S1653 N1654 1.613 . S
S1653 N1655 1.610 . S
N1654 S1653 1.613 . S
N1654 C1657 1.350 . S
N1655 S1653 1.610 . S
N1655 C1656 1.351 1_455 S
C1656 C1650 1.428 . S
C1656 N1655 1.351 1_655 S
C1656 C1657 1.434 1_655 S
C1657 C1648 1.429 . S
C1657 N1654 1.350 . S
C1657 C1656 1.434 1_455 S
C1658 C1659 1.369 . S
C1658 C1660 1.419 1_655 S
C1658 H1662 0.930 . S
C1659 C1658 1.369 . S
C1659 C1668 1.429 1_655 S
C1660 C1658 1.419 1_455 S
C1660 C1661 1.363 . S
C1660 H1663 0.929 1_455 S
C1661 C1660 1.363 . S
C1661 C1667 1.428 . S
H1662 C1658 0.930 . S
H1663 C1660 0.929 1_655 S
S1664 N1665 1.613 . S
S1664 N1666 1.610 . S
N1665 S1664 1.613 . S
N1665 C1668 1.350 . S
N1666 S1664 1.610 . S
N1666 C1667 1.351 . S
C1667 C1661 1.428 . S
C1667 N1666 1.351 . S
C1667 C1668 1.434 . S
C1668 C1659 1.429 1_455 S
C1668 N1665 1.350 . S
C1668 C1667 1.434 . S
C1669 C1670 1.369 . S
C1669 C1671 1.419 . S
C1669 H1673 0.930 . S
C1670 C1669 1.369 . S
C1670 C1679 1.429 . S
C1671 C1669 1.419 . S
C1671 C1672 1.363 . S
C1671 H1674 0.929 . S
C1672 C1671 1.363 . S
C1672 C1678 1.428 . S
H1673 C1669 0.930 . S
H1674 C1671 0.929 . S
S1675 N1676 1.613 . S
S1675 N1677 1.610 . S
N1676 S1675 1.613 . S
N1676 C1679 1.350 . S
N1677 S1675 1.610 . S
N1677 C1678 1.351 . S
C1678 C1672 1.428 . S
C1678 N1677 1.351 . S
C1678 C1679 1.434 . S
C1679 C1670 1.429 . S
C1679 N1676 1.350 . S
C1679 C1678 1.434 . S
C1680 C1681 1.369 . S
C1680 C1682 1.419 . S
C1680 H1684 0.930 . S
C1681 C1680 1.369 . S
C1681 C1690 1.429 . S
C1682 C1680 1.419 . S
C1682 C1683 1.363 . S
C1682 H1685 0.929 . S
C1683 C1682 1.363 . S
C1683 C1689 1.428 . S
H1684 C1680 0.930 . S
H1685 C1682 0.929 . S
S1686 N1687 1.613 . S
S1686 N1688 1.610 . S
N1687 S1686 1.613 . S
N1687 C1690 1.350 . S
N1688 S1686 1.610 . S
N1688 C1689 1.351 . S
C1689 C1683 1.428 . S
C1689 N1688 1.351 . S
C1689 C1690 1.434 . S
C1690 C1681 1.429 . S
C1690 N1687 1.350 . S
C1690 C1689 1.434 . S
C1691 C1692 1.369 . S
C1691 C1693 1.419 . S
C1691 H1695 0.930 1_565 S
C1692 C1691 1.369 . S
C1692 C1701 1.429 . S
C1693 C1691 1.419 . S
C1693 C1694 1.363 . S
C1693 H1696 0.929 . S
C1694 C1693 1.363 . S
C1694 C1700 1.428 . S
H1695 C1691 0.930 1_545 S
H1696 C1693 0.929 . S
S1697 N1698 1.613 . S
S1697 N1699 1.610 . S
N1698 S1697 1.613 . S
N1698 C1701 1.350 . S
N1699 S1697 1.610 . S
N1699 C1700 1.351 . S
C1700 C1694 1.428 . S
C1700 N1699 1.351 . S
C1700 C1701 1.434 . S
C1701 C1692 1.429 . S
C1701 N1698 1.350 . S
C1701 C1700 1.434 . S
C1702 C1703 1.369 . S
C1702 C1704 1.419 . S
C1702 H1706 0.930 . S
C1703 C1702 1.369 . S
C1703 C1712 1.429 . S
C1704 C1702 1.419 . S
C1704 C1705 1.363 . S
C1704 H1707 0.929 . S
C1705 C1704 1.363 . S
C1705 C1711 1.428 . S
H1706 C1702 0.930 . S
H1707 C1704 0.929 . S
S1708 N1709 1.613 . S
S1708 N1710 1.610 . S
N1709 S1708 1.613 . S
N1709 C1712 1.350 . S
N1710 S1708 1.610 . S
N1710 C1711 1.351 . S
C1711 C1705 1.428 . S
C1711 N1710 1.351 . S
C1711 C1712 1.434 . S
C1712 C1703 1.429 . S
C1712 N1709 1.350 . S
C1712 C1711 1.434 . S
C1713 C1714 1.369 . S
C1713 C1715 1.419 . S
C1713 H1717 0.930 . S
C1714 C1713 1.369 . S
C1714 C1723 1.429 . S
C1715 C1713 1.419 . S
C1715 C1716 1.363 1_554 S
C1715 H1718 0.929 1_554 S
C1716 C1715 1.363 1_556 S
C1716 C1722 1.428 1_556 S
H1717 C1713 0.930 . S
H1718 C1715 0.929 1_556 S
S1719 N1720 1.613 1_565 S
S1719 N1721 1.610 . S
N1720 S1719 1.613 1_545 S
N1720 C1723 1.350 . S
N1721 S1719 1.610 . S
N1721 C1722 1.351 1_565 S
C1722 C1716 1.428 1_554 S
C1722 N1721 1.351 1_545 S
C1722 C1723 1.434 . S
C1723 C1714 1.429 . S
C1723 N1720 1.350 . S
C1723 C1722 1.434 . S
C1724 C1725 1.369 . S
C1724 C1726 1.419 . S
C1724 H1728 0.930 . S
C1725 C1724 1.369 . S
C1725 C1734 1.429 . S
C1726 C1724 1.419 . S
C1726 C1727 1.363 . S
C1726 H1729 0.929 . S
C1727 C1726 1.363 . S
C1727 C1733 1.428 . S
H1728 C1724 0.930 . S
H1729 C1726 0.929 . S
S1730 N1731 1.613 . S
S1730 N1732 1.610 . S
N1731 S1730 1.613 . S
N1731 C1734 1.350 . S
N1732 S1730 1.610 . S
N1732 C1733 1.351 . S
C1733 C1727 1.428 . S
C1733 N1732 1.351 . S
C1733 C1734 1.434 . S
C1734 C1725 1.429 . S
C1734 N1731 1.350 . S
C1734 C1733 1.434 . S
C1735 C1736 1.369 1_556 S
C1735 C1737 1.419 . S
C1735 H1739 0.930 1_556 S
C1736 C1735 1.369 1_554 S
C1736 C1745 1.429 1_554 S
C1737 C1735 1.419 . S
C1737 C1738 1.363 . S
C1737 H1740 0.929 . S
C1738 C1737 1.363 . S
C1738 C1744 1.428 . S
H1739 C1735 0.930 1_554 S
H1740 C1737 0.929 . S
S1741 N1742 1.613 . S
S1741 N1743 1.610 . S
N1742 S1741 1.613 . S
N1742 C1745 1.350 . S
N1743 S1741 1.610 . S
N1743 C1744 1.351 . S
C1744 C1738 1.428 . S
C1744 N1743 1.351 . S
C1744 C1745 1.434 . S
C1745 C1736 1.429 1_556 S
C1745 N1742 1.350 . S
C1745 C1744 1.434 . S
C1746 C1747 1.369 . S
C1746 C1748 1.419 . S
C1746 H1750 0.930 . S
C1747 C1746 1.369 . S
C1747 C1756 1.429 . S
C1748 C1746 1.419 . S
C1748 C1749 1.363 . S
C1748 H1751 0.929 . S
C1749 C1748 1.363 . S
C1749 C1755 1.428 . S
H1750 C1746 0.930 . S
H1751 C1748 0.929 . S
S1752 N1753 1.613 . S
S1752 N1754 1.610 . S
N1753 S1752 1.613 . S
N1753 C1756 1.350 . S
N1754 S1752 1.610 . S
N1754 C1755 1.351 . S
C1755 C1749 1.428 . S
C1755 N1754 1.351 . S
C1755 C1756 1.434 . S
C1756 C1747 1.429 . S
C1756 N1753 1.350 . S
C1756 C1755 1.434 . S
C1757 C1758 1.369 . S
C1757 C1759 1.419 . S
C1757 H1761 0.930 . S
C1758 C1757 1.369 . S
C1758 C1767 1.429 . S
C1759 C1757 1.419 . S
C1759 C1760 1.363 . S
C1759 H1762 0.929 . S
C1760 C1759 1.363 . S
C1760 C1766 1.428 . S
H1761 C1757 0.930 . S
H1762 C1759 0.929 . S
S1763 N1764 1.613 . S
S1763 N1765 1.610 . S
N1764 S1763 1.613 . S
N1764 C1767 1.350 . S
N1765 S1763 1.610 . S
N1765 C1766 1.351 . S
C1766 C1760 1.428 . S
C1766 N1765 1.351 . S
C1766 C1767 1.434 . S
C1767 C1758 1.429 . S
C1767 N1764 1.350 . S
C1767 C1766 1.434 . S
C1768 C1769 1.369 . S
C1768 C1770 1.419 . S
C1768 H1772 0.930 . S
C1769 C1768 1.369 . S
C1769 C1778 1.429 . S
C1770 C1768 1.419 . S
C1770 C1771 1.363 . S
C1770 H1773 0.929 . S
C1771 C1770 1.363 . S
C1771 C1777 1.428 . S
H1772 C1768 0.930 . S
H1773 C1770 0.929 . S
S1774 N1775 1.613 . S
S1774 N1776 1.610 . S
N1775 S1774 1.613 . S
N1775 C1778 1.350 . S
N1776 S1774 1.610 . S
N1776 C1777 1.351 . S
C1777 C1771 1.428 . S
C1777 N1776 1.351 . S
C1777 C1778 1.434 . S
C1778 C1769 1.429 . S
C1778 N1775 1.350 . S
C1778 C1777 1.434 . S
C1779 C1780 1.369 1_545 S
C1779 C1781 1.419 . S
C1779 H1783 0.930 . S
C1780 C1779 1.369 1_565 S
C1780 C1789 1.429 1_565 S
C1781 C1779 1.419 . S
C1781 C1782 1.363 . S
C1781 H1784 0.929 . S
C1782 C1781 1.363 . S
C1782 C1788 1.428 . S
H1783 C1779 0.930 . S
H1784 C1781 0.929 . S
S1785 N1786 1.613 1_545 S
S1785 N1787 1.610 . S
N1786 S1785 1.613 1_565 S
N1786 C1789 1.350 1_565 S
N1787 S1785 1.610 . S
N1787 C1788 1.351 . S
C1788 C1782 1.428 . S
C1788 N1787 1.351 . S
C1788 C1789 1.434 . S
C1789 C1780 1.429 1_545 S
C1789 N1786 1.350 1_545 S
C1789 C1788 1.434 . S
C1790 C1791 1.369 . S
C1790 C1792 1.419 . S
C1790 H1794 0.930 . S
C1791 C1790 1.369 . S
C1791 C1800 1.429 . S
C1792 C1790 1.419 . S
C1792 C1793 1.363 . S
C1792 H1795 0.929 . S
C1793 C1792 1.363 . S
C1793 C1799 1.428 . S
H1794 C1790 0.930 . S
H1795 C1792 0.929 . S
S1796 N1797 1.613 . S
S1796 N1798 1.610 . S
N1797 S1796 1.613 . S
N1797 C1800 1.350 . S
N1798 S1796 1.610 . S
N1798 C1799 1.351 . S
C1799 C1793 1.428 . S
C1799 N1798 1.351 . S
C1799 C1800 1.434 . S
C1800 C1791 1.429 . S
C1800 N1797 1.350 . S
C1800 C1799 1.434 . S
C1801 C1802 1.369 1_565 S
C1801 C1803 1.419 . S
C1801 H1805 0.930 . S
C1802 C1801 1.369 1_545 S
C1802 C1811 1.429 1_545 S
C1803 C1801 1.419 . S
C1803 C1804 1.363 . S
C1803 H1806 0.929 . S
C1804 C1803 1.363 . S
C1804 C1810 1.428 . S
H1805 C1801 0.930 . S
H1806 C1803 0.929 . S
S1807 N1808 1.613 . S
S1807 N1809 1.610 1_545 S
N1808 S1807 1.613 . S
N1808 C1811 1.350 1_545 S
N1809 S1807 1.610 1_565 S
N1809 C1810 1.351 . S
C1810 C1804 1.428 . S
C1810 N1809 1.351 . S
C1810 C1811 1.434 . S
C1811 C1802 1.429 1_565 S
C1811 N1808 1.350 1_565 S
C1811 C1810 1.434 . S
C1812 C1813 1.369 . S
C1812 C1814 1.419 . S
C1812 H1816 0.930 . S
C1813 C1812 1.369 . S
C1813 C1822 1.429 . S
C1814 C1812 1.419 . S
C1814 C1815 1.363 . S
C1814 H1817 0.929 . S
C1815 C1814 1.363 . S
C1815 C1821 1.428 . S
H1816 C1812 0.930 . S
H1817 C1814 0.929 . S
S1818 N1819 1.613 . S
S1818 N1820 1.610 . S
N1819 S1818 1.613 . S
N1819 C1822 1.350 . S
N1820 S1818 1.610 . S
N1820 C1821 1.351 . S
C1821 C1815 1.428 . S
C1821 N1820 1.351 . S
C1821 C1822 1.434 . S
C1822 C1813 1.429 . S
C1822 N1819 1.350 . S
C1822 C1821 1.434 . S
C1823 C1824 1.369 . S
C1823 C1825 1.419 . S
C1823 H1827 0.930 . S
C1824 C1823 1.369 . S
C1824 C1833 1.429 1_655 S
C1825 C1823 1.419 . S
C1825 C1826 1.363 . S
C1825 H1828 0.929 . S
C1826 C1825 1.363 . S
C1826 C1832 1.428 . S
H1827 C1823 0.930 . S
H1828 C1825 0.929 . S
S1829 N1830 1.613 . S
S1829 N1831 1.610 . S
N1830 S1829 1.613 . S
N1830 C1833 1.350 . S
N1831 S1829 1.610 . S
N1831 C1832 1.351 1_455 S
C1832 C1826 1.428 . S
C1832 N1831 1.351 1_655 S
C1832 C1833 1.434 1_655 S
C1833 C1824 1.429 1_455 S
C1833 N1830 1.350 . S
C1833 C1832 1.434 1_455 S
C1834 C1835 1.369 . S
C1834 C1836 1.419 . S
C1834 H1838 0.930 . S
C1835 C1834 1.369 . S
C1835 C1844 1.429 . S
C1836 C1834 1.419 . S
C1836 C1837 1.363 . S
C1836 H1839 0.929 . S
C1837 C1836 1.363 . S
C1837 C1843 1.428 . S
H1838 C1834 0.930 . S
H1839 C1836 0.929 . S
S1840 N1841 1.613 . S
S1840 N1842 1.610 . S
N1841 S1840 1.613 . S
N1841 C1844 1.350 . S
N1842 S1840 1.610 . S
N1842 C1843 1.351 . S
C1843 C1837 1.428 . S
C1843 N1842 1.351 . S
C1843 C1844 1.434 . S
C1844 C1835 1.429 . S
C1844 N1841 1.350 . S
C1844 C1843 1.434 . S
C1845 C1846 1.369 . S
C1845 C1847 1.419 . S
C1845 H1849 0.930 . S
C1846 C1845 1.369 . S
C1846 C1855 1.429 . S
C1847 C1845 1.419 . S
C1847 C1848 1.363 . S
C1847 H1850 0.929 . S
C1848 C1847 1.363 . S
C1848 C1854 1.428 . S
H1849 C1845 0.930 . S
H1850 C1847 0.929 . S
S1851 N1852 1.613 . S
S1851 N1853 1.610 . S
N1852 S1851 1.613 . S
N1852 C1855 1.350 . S
N1853 S1851 1.610 . S
N1853 C1854 1.351 . S
C1854 C1848 1.428 . S
C1854 N1853 1.351 . S
C1854 C1855 1.434 . S
C1855 C1846 1.429 . S
C1855 N1852 1.350 . S
C1855 C1854 1.434 . S
C1856 C1857 1.369 . S
C1856 C1858 1.419 . S
C1856 H1860 0.930 . S
C1857 C1856 1.369 . S
C1857 C1866 1.429 . S
C1858 C1856 1.419 . S
C1858 C1859 1.363 . S
C1858 H1861 0.929 . S
C1859 C1858 1.363 . S
C1859 C1865 1.428 . S
H1860 C1856 0.930 . S
H1861 C1858 0.929 . S
S1862 N1863 1.613 . S
S1862 N1864 1.610 . S
N1863 S1862 1.613 . S
N1863 C1866 1.350 . S
N1864 S1862 1.610 . S
N1864 C1865 1.351 . S
C1865 C1859 1.428 . S
C1865 N1864 1.351 . S
C1865 C1866 1.434 . S
C1866 C1857 1.429 . S
C1866 N1863 1.350 . S
C1866 C1865 1.434 . S
C1867 C1868 1.369 . S
C1867 C1869 1.419 . S
C1867 H1871 0.930 . S
C1868 C1867 1.369 . S
C1868 C1877 1.429 . S
C1869 C1867 1.419 . S
C1869 C1870 1.363 . S
C1869 H1872 0.929 . S
C1870 C1869 1.363 . S
C1870 C1876 1.428 . S
H1871 C1867 0.930 . S
H1872 C1869 0.929 . S
S1873 N1874 1.613 . S
S1873 N1875 1.610 . S
N1874 S1873 1.613 . S
N1874 C1877 1.350 . S
N1875 S1873 1.610 . S
N1875 C1876 1.351 . S
C1876 C1870 1.428 . S
C1876 N1875 1.351 . S
C1876 C1877 1.434 . S
C1877 C1868 1.429 . S
C1877 N1874 1.350 . S
C1877 C1876 1.434 . S
C1878 C1879 1.369 1_455 S
C1878 C1880 1.419 . S
C1878 H1882 0.930 1_455 S
C1879 C1878 1.369 1_655 S
C1879 C1888 1.429 1_655 S
C1880 C1878 1.419 . S
C1880 C1881 1.363 . S
C1880 H1883 0.929 . S
C1881 C1880 1.363 . S
C1881 C1887 1.428 . S
H1882 C1878 0.930 1_655 S
H1883 C1880 0.929 . S
S1884 N1885 1.613 . S
S1884 N1886 1.610 . S
N1885 S1884 1.613 . S
N1885 C1888 1.350 1_556 S
N1886 S1884 1.610 . S
N1886 C1887 1.351 1_556 S
C1887 C1881 1.428 . S
C1887 N1886 1.351 1_554 S
C1887 C1888 1.434 . S
C1888 C1879 1.429 1_455 S
C1888 N1885 1.350 1_554 S
C1888 C1887 1.434 . S
C1889 C1890 1.369 . S
C1889 C1891 1.419 . S
C1889 H1893 0.930 . S
C1890 C1889 1.369 . S
C1890 C1899 1.429 . S
C1891 C1889 1.419 . S
C1891 C1892 1.363 . S
C1891 H1894 0.929 . S
C1892 C1891 1.363 . S
C1892 C1898 1.428 . S
H1893 C1889 0.930 . S
H1894 C1891 0.929 . S
S1895 N1896 1.613 . S
S1895 N1897 1.610 . S
N1896 S1895 1.613 . S
N1896 C1899 1.350 . S
N1897 S1895 1.610 . S
N1897 C1898 1.351 . S
C1898 C1892 1.428 . S
C1898 N1897 1.351 . S
C1898 C1899 1.434 . S
C1899 C1890 1.429 . S
C1899 N1896 1.350 . S
C1899 C1898 1.434 . S
C1900 C1901 1.369 . S
C1900 C1902 1.419 . S
C1900 H1904 0.930 . S
C1901 C1900 1.369 . S
C1901 C1910 1.429 . S
C1902 C1900 1.419 . S
C1902 C1903 1.363 . S
C1902 H1905 0.929 . S
C1903 C1902 1.363 . S
C1903 C1909 1.428 . S
H1904 C1900 0.930 . S
H1905 C1902 0.929 . S
S1906 N1907 1.613 . S
S1906 N1908 1.610 . S
N1907 S1906 1.613 . S
N1907 C1910 1.350 . S
N1908 S1906 1.610 . S
N1908 C1909 1.351 . S
C1909 C1903 1.428 . S
C1909 N1908 1.351 . S
C1909 C1910 1.434 . S
C1910 C1901 1.429 . S
C1910 N1907 1.350 . S
C1910 C1909 1.434 . S
C1911 C1912 1.369 . S
C1911 C1913 1.419 . S
C1911 H1915 0.930 . S
C1912 C1911 1.369 . S
C1912 C1921 1.429 . S
C1913 C1911 1.419 . S
C1913 C1914 1.363 . S
C1913 H1916 0.929 . S
C1914 C1913 1.363 . S
C1914 C1920 1.428 . S
H1915 C1911 0.930 . S
H1916 C1913 0.929 . S
S1917 N1918 1.613 . S
S1917 N1919 1.610 . S
N1918 S1917 1.613 . S
N1918 C1921 1.350 . S
N1919 S1917 1.610 . S
N1919 C1920 1.351 . S
C1920 C1914 1.428 . S
C1920 N1919 1.351 . S
C1920 C1921 1.434 . S
C1921 C1912 1.429 . S
C1921 N1918 1.350 . S
C1921 C1920 1.434 . S
C1922 C1923 1.369 . S
C1922 C1924 1.419 . S
C1922 H1926 0.930 1_556 S
C1923 C1922 1.369 . S
C1923 C1932 1.429 . S
C1924 C1922 1.419 . S
C1924 C1925 1.363 . S
C1924 H1927 0.929 . S
C1925 C1924 1.363 . S
C1925 C1931 1.428 . S
H1926 C1922 0.930 1_554 S
H1927 C1924 0.929 . S
S1928 N1929 1.613 . S
S1928 N1930 1.610 . S
N1929 S1928 1.613 . S
N1929 C1932 1.350 . S
N1930 S1928 1.610 . S
N1930 C1931 1.351 . S
C1931 C1925 1.428 . S
C1931 N1930 1.351 . S
C1931 C1932 1.434 . S
C1932 C1923 1.429 . S
C1932 N1929 1.350 . S
C1932 C1931 1.434 . S
C1933 C1934 1.369 . S
C1933 C1935 1.419 . S
C1933 H1937 0.930 . S
C1934 C1933 1.369 . S
C1934 C1943 1.429 . S
C1935 C1933 1.419 . S
C1935 C1936 1.363 1_655 S
C1935 H1938 0.929 1_655 S
C1936 C1935 1.363 1_455 S
C1936 C1942 1.428 1_455 S
H1937 C1933 0.930 . S
H1938 C1935 0.929 1_455 S
S1939 N1940 1.613 . S
S1939 N1941 1.610 . S
N1940 S1939 1.613 . S
N1940 C1943 1.350 . S
N1941 S1939 1.610 . S
N1941 C1942 1.351 . S
C1942 C1936 1.428 1_655 S
C1942 N1941 1.351 . S
C1942 C1943 1.434 . S
C1943 C1934 1.429 . S
C1943 N1940 1.350 . S
C1943 C1942 1.434 . S
C1417 C536 1.342 . S
C1419 C5 1.334 . S
C1428 C64 1.338 1_455 S
C1430 C595 1.337 . S
C1439 C123 1.332 . S
C1441 C654 1.341 1_556 S
C1450 C182 1.336 . S
C1452 C477 1.339 . S
C1461 C241 1.332 . S
C1463 C890 1.341 . S
C1472 C713 1.340 . S
C1474 C300 1.335 1_655 S
C1483 C359 1.339 . S
C1485 C772 1.336 1_554 S
C1494 C831 1.340 . S
C1496 C418 1.335 . S
C1505 C949 1.341 . S
C1507 C1067 1.335 . S
C1516 C1303 1.342 1_545 S
C1518 C1008 1.334 . S
C1527 C1126 1.336 . S
C1529 C1362 1.338 1_565 S
C1538 C1244 1.332 . S
C1540 C1185 1.341 . S
C1549 C1183 2.026 . S
C1551 C3 2.030 . S
C1560 C62 2.032 . S
C1562 C1006 2.034 . S
C1571 C121 2.027 . S
C1573 C1065 2.028 . S
C1582 C180 2.033 . S
C1584 C1124 2.033 . S
C1593 C239 2.034 . S
C1595 C1360 2.032 . S
C1604 C1242 2.031 . S
C1606 C298 2.034 . S
C1615 C1301 2.035 . S
C1617 C357 2.032 . S
C1626 C947 2.034 . S
C1628 C416 2.032 . S
C1637 C888 2.026 . S
C1639 C475 2.030 . S
C1648 C534 2.034 . S
C1650 C711 2.030 . S
C1659 C770 2.027 . S
C1661 C593 2.029 . S
C1670 C829 2.026 . S
C1672 C652 2.029 . S
C1681 C52 1.491 . S
C1683 C977 1.452 . S
C1692 C1390 1.456 1_565 S
C1694 C111 1.488 . S
C1703 C1272 1.449 . S
C1705 C170 1.491 . S
C1714 C229 1.484 . S
C1716 C1331 1.449 1_545 S
C1725 C288 1.491 . S
C1727 C1036 1.451 . S
C1736 C1095 1.449 . S
C1738 C347 1.484 . S
C1747 C1154 1.445 . S
C1749 C406 1.489 . S
C1758 C1213 1.447 . S
C1760 C465 1.491 . S
C1769 C33 1.451 . S
C1771 C524 1.491 . S
C1780 C92 1.446 1_455 S
C1782 C583 1.490 . S
C1791 C151 1.448 . S
C1793 C642 1.485 . S
C1802 C210 1.453 . S
C1804 C701 1.490 . S
C1813 C269 1.446 . S
C1815 C760 1.486 . S
C1824 C328 1.450 1_655 S
C1826 C819 1.484 . S
C1835 C878 1.486 . S
C1837 C387 1.447 . S
C1846 C446 1.447 . S
C1848 C937 1.491 . S
C1857 C505 1.453 . S
C1859 C996 1.490 . S
C1868 C1055 1.490 . S
C1870 C741 1.446 . S
C1879 C800 1.451 1_554 S
C1881 C1114 1.484 . S
C1890 C1173 1.490 . S
C1892 C859 1.453 . S
C1901 C1232 1.488 . S
C1903 C918 1.454 . S
C1912 C1291 1.488 . S
C1914 C623 1.446 . S
C1923 C682 1.455 1_556 S
C1925 C1350 1.489 . S
C1934 C1409 1.485 . S
C1936 C564 1.447 . S
