# Generated by pormake.
# Topology ske, (6)-cn, num edge types: 1
# Building blocks:
#     Node 0, Type 0, BuildingBlock: BETFAJ_clean_sbu_0, # of connection points: 6
#     Node 1, Type 0, BuildingBlock: BETFAJ_clean_sbu_0, # of connection points: 6
#     Node 2, Type 0, BuildingBlock: BETFAJ_clean_sbu_0, # of connection points: 6
#     Node 3, Type 0, BuildingBlock: BETFAJ_clean_sbu_0, # of connection points: 6
#     Node 4, Type 0, BuildingBlock: BETFAJ_clean_sbu_0, # of connection points: 6
#     Node 5, Type 0, BuildingBlock: BETFAJ_clean_sbu_0, # of connection points: 6
#     Node 6, Type 0, BuildingBlock: BETFAJ_clean_sbu_0, # of connection points: 6
#     Node 7, Type 0, BuildingBlock: BETFAJ_clean_sbu_0, # of connection points: 6
#     Edge 8, Type (0, 0), BuildingBlock: KIFKEQ_clean_linker_1, # of connection points: 2
#     Edge 9, Type (0, 0), BuildingBlock: KIFKEQ_clean_linker_1, # of connection points: 2
#     Edge 10, Type (0, 0), BuildingBlock: KIFKEQ_clean_linker_1, # of connection points: 2
#     Edge 11, Type (0, 0), BuildingBlock: KIFKEQ_clean_linker_1, # of connection points: 2
#     Edge 12, Type (0, 0), BuildingBlock: KIFKEQ_clean_linker_1, # of connection points: 2
#     Edge 13, Type (0, 0), BuildingBlock: KIFKEQ_clean_linker_1, # of connection points: 2
#     Edge 14, Type (0, 0), BuildingBlock: KIFKEQ_clean_linker_1, # of connection points: 2
#     Edge 15, Type (0, 0), BuildingBlock: KIFKEQ_clean_linker_1, # of connection points: 2
#     Edge 16, Type (0, 0), BuildingBlock: KIFKEQ_clean_linker_1, # of connection points: 2
#     Edge 17, Type (0, 0), BuildingBlock: KIFKEQ_clean_linker_1, # of connection points: 2
#     Edge 18, Type (0, 0), BuildingBlock: KIFKEQ_clean_linker_1, # of connection points: 2
#     Edge 19, Type (0, 0), BuildingBlock: KIFKEQ_clean_linker_1, # of connection points: 2
#     Edge 20, Type (0, 0), BuildingBlock: KIFKEQ_clean_linker_1, # of connection points: 2
#     Edge 21, Type (0, 0), BuildingBlock: KIFKEQ_clean_linker_1, # of connection points: 2
#     Edge 22, Type (0, 0), BuildingBlock: KIFKEQ_clean_linker_1, # of connection points: 2
#     Edge 23, Type (0, 0), BuildingBlock: KIFKEQ_clean_linker_1, # of connection points: 2
#     Edge 24, Type (0, 0), BuildingBlock: KIFKEQ_clean_linker_1, # of connection points: 2
#     Edge 25, Type (0, 0), BuildingBlock: KIFKEQ_clean_linker_1, # of connection points: 2
#     Edge 26, Type (0, 0), BuildingBlock: KIFKEQ_clean_linker_1, # of connection points: 2
#     Edge 27, Type (0, 0), BuildingBlock: KIFKEQ_clean_linker_1, # of connection points: 2
#     Edge 28, Type (0, 0), BuildingBlock: KIFKEQ_clean_linker_1, # of connection points: 2
#     Edge 29, Type (0, 0), BuildingBlock: KIFKEQ_clean_linker_1, # of connection points: 2
#     Edge 30, Type (0, 0), BuildingBlock: KIFKEQ_clean_linker_1, # of connection points: 2
#     Edge 31, Type (0, 0), BuildingBlock: KIFKEQ_clean_linker_1, # of connection points: 2
# Relax obj value: 0.206
# Max RMSD: 0.207
# Mean RMSD: 0.200
data_MOF--net-ske--node1-BETFAJ_clean_sbu_0--edge1-KIFKEQ_clean_linker_1
_symmetry_space_group_name_H-M    P1
_symmetry_Int_Tables_number       1
_symmetry_cell_setting            triclinic
loop_
_symmetry_equiv_pos_as_xyz
'x, y, z'
_cell_length_a     104.55886
_cell_length_b     29.777161
_cell_length_c     15.885721
_cell_angle_alpha  90.327832
_cell_angle_beta   89.903123
_cell_angle_gamma 84.2957
loop_
_atom_site_label
_atom_site_type_symbol
_atom_site_fract_x
_atom_site_fract_y
_atom_site_fract_z
_atom_type_partial_charge
Sm0 Sm 0.15605 0.25887 0.54787 0.0
Sm1 Sm 0.12754 0.25331 0.55401 0.0
C2 C 0.18018 0.27972 0.5604 0.0
C3 C 0.19248 0.27451 0.60748 0.0
C4 C 0.19862 0.31314 0.62651 0.0
C5 C 0.21097 0.30937 0.66137 0.0
C6 C 0.21755 0.26677 0.67799 0.0
C7 C 0.2112 0.22807 0.66142 0.0
C8 C 0.19882 0.23188 0.62636 0.0
C9 C 0.14928 0.17106 0.53957 0.0
C10 C 0.14217 0.25241 0.73142 0.0
C11 C 0.10344 0.23205 0.54669 0.0
C12 C 0.09 0.24044 0.51606 0.0
C13 C 0.08448 0.20604 0.47248 0.0
C14 C 0.07125 0.20951 0.45626 0.0
C15 C 0.06317 0.24744 0.48369 0.0
C16 C 0.06881 0.28283 0.52393 0.0
C17 C 0.08205 0.27935 0.54007 0.0
C18 C 0.13421 0.34155 0.55716 0.0
C19 C 0.14167 0.25753 0.3695 0.0
O20 O 0.17038 0.30444 0.59348 0.0
O21 O 0.17682 0.245 0.51812 0.0
O22 O 0.14411 0.20187 0.58716 0.0
O23 O 0.15879 0.1854 0.49872 0.0
O24 O 0.15151 0.26916 0.68976 0.0
O25 O 0.13279 0.2353 0.69076 0.0
O26 O 0.11248 0.21445 0.49587 0.0
O27 O 0.10753 0.26015 0.60156 0.0
O28 O 0.13946 0.30982 0.5122 0.0
O29 O 0.12457 0.32792 0.59769 0.0
O30 O 0.13196 0.24317 0.4116 0.0
O31 O 0.15139 0.27318 0.40927 0.0
H32 H 0.19398 0.34639 0.61225 0.0
H33 H 0.21543 0.33996 0.67457 0.0
H34 H 0.21596 0.19469 0.67274 0.0
H35 H 0.19437 0.20142 0.612 0.0
H36 H 0.09033 0.1755 0.45384 0.0
H37 H 0.06732 0.18193 0.42379 0.0
H38 H 0.06292 0.31238 0.54668 0.0
H39 H 0.08596 0.30636 0.57447 0.0
Sm40 Sm 0.87272 0.25608 0.53462 0.0
Sm41 Sm 0.90108 0.26286 0.54264 0.0
C42 C 0.84848 0.23604 0.54604 0.0
C43 C 0.83584 0.24493 0.58944 0.0
C44 C 0.83265 0.21862 0.65826 0.0
C45 C 0.82015 0.223 0.6916 0.0
C46 C 0.81048 0.2535 0.65648 0.0
C47 C 0.81378 0.28061 0.58912 0.0
C48 C 0.82627 0.27629 0.55594 0.0
C49 C 0.87928 0.34385 0.52418 0.0
C50 C 0.8862 0.26436 0.71908 0.0
C51 C 0.92511 0.28499 0.5365 0.0
C52 C 0.93861 0.27584 0.50765 0.0
C53 C 0.94521 0.3121 0.48136 0.0
C54 C 0.95851 0.30635 0.4674 0.0
C55 C 0.96555 0.2641 0.47964 0.0
C56 C 0.9588 0.2273 0.50243 0.0
C57 C 0.94548 0.2331 0.51641 0.0
C58 C 0.89466 0.1744 0.54693 0.0
C59 C 0.8874 0.2555 0.35749 0.0
O60 O 0.85806 0.21373 0.58564 0.0
O61 O 0.8522 0.26738 0.49705 0.0
O62 O 0.8843 0.31422 0.57389 0.0
O63 O 0.87011 0.32835 0.48168 0.0
O64 O 0.87705 0.24671 0.67682 0.0
O65 O 0.89551 0.282 0.67888 0.0
O66 O 0.91623 0.30088 0.48354 0.0
O67 O 0.92091 0.25799 0.59245 0.0
O68 O 0.88946 0.20538 0.50107 0.0
O69 O 0.90421 0.18867 0.58748 0.0
O70 O 0.89684 0.27172 0.39981 0.0
O71 O 0.8779 0.23871 0.39739 0.0
H72 H 0.83971 0.1936 0.68481 0.0
H73 H 0.81795 0.20122 0.7429 0.0
H74 H 0.80667 0.30495 0.5612 0.0
H75 H 0.8283 0.29676 0.50233 0.0
H76 H 0.94016 0.3455 0.47516 0.0
H77 H 0.96333 0.33561 0.45085 0.0
H78 H 0.96385 0.1941 0.51104 0.0
H79 H 0.94066 0.20449 0.53676 0.0
Sm80 Sm 0.12667 0.75049 0.50646 0.0
Sm81 Sm 0.15706 0.75973 0.50868 0.0
C82 C 0.10383 0.71878 0.50472 0.0
C83 C 0.09005 0.72748 0.52796 0.0
C84 C 0.08407 0.69403 0.57054 0.0
C85 C 0.07075 0.69853 0.58349 0.0
C86 C 0.06303 0.73658 0.55375 0.0
C87 C 0.06911 0.77085 0.51369 0.0
C88 C 0.08246 0.76635 0.50089 0.0
C89 C 0.13128 0.841 0.52588 0.0
C90 C 0.14171 0.75839 0.68545 0.0
C91 C 0.18049 0.78655 0.49673 0.0
C92 C 0.19306 0.78095 0.45292 0.0
C93 C 0.19927 0.81948 0.43536 0.0
C94 C 0.21173 0.81552 0.40207 0.0
C95 C 0.21832 0.77282 0.38557 0.0
C96 C 0.21191 0.73419 0.40078 0.0
C97 C 0.19941 0.7382 0.43431 0.0
C98 C 0.15022 0.67246 0.52215 0.0
C99 C 0.14236 0.75336 0.32512 0.0
O100 O 0.11228 0.70927 0.5646 0.0
O101 O 0.10811 0.74298 0.44411 0.0
O102 O 0.13924 0.80669 0.51933 0.0
O103 O 0.11983 0.82766 0.52278 0.0
O104 O 0.13273 0.73849 0.64493 0.0
O105 O 0.15074 0.77778 0.64464 0.0
O106 O 0.17057 0.80602 0.45614 0.0
O107 O 0.17757 0.75403 0.54616 0.0
O108 O 0.14458 0.70328 0.47708 0.0
O109 O 0.16053 0.68623 0.55478 0.0
O110 O 0.15314 0.75923 0.36566 0.0
O111 O 0.13152 0.74703 0.36469 0.0
H112 H 0.08968 0.66365 0.59174 0.0
H113 H 0.06647 0.67182 0.61593 0.0
H114 H 0.06352 0.80044 0.48918 0.0
H115 H 0.08675 0.7927 0.4675 0.0
H116 H 0.19457 0.8528 0.44925 0.0
H117 H 0.21624 0.84602 0.38976 0.0
H118 H 0.2167 0.70076 0.38935 0.0
H119 H 0.19485 0.70789 0.44746 0.0
Sm120 Sm 0.90078 0.76311 0.49852 0.0
Sm121 Sm 0.87241 0.75569 0.50643 0.0
C122 C 0.92488 0.78449 0.50373 0.0
C123 C 0.93835 0.77496 0.53233 0.0
C124 C 0.94521 0.81119 0.55593 0.0
C125 C 0.9585 0.80472 0.56933 0.0
C126 C 0.96528 0.76175 0.5592 0.0
C127 C 0.95827 0.72507 0.53918 0.0
C128 C 0.94496 0.7316 0.52577 0.0
C129 C 0.89437 0.67475 0.49363 0.0
C130 C 0.88696 0.75752 0.68397 0.0
C131 C 0.8485 0.73277 0.4944 0.0
C132 C 0.83613 0.7376 0.44803 0.0
C133 C 0.83056 0.69856 0.42372 0.0
C134 C 0.81817 0.70151 0.38959 0.0
C135 C 0.81098 0.74366 0.37911 0.0
C136 C 0.81676 0.7829 0.40092 0.0
C137 C 0.82918 0.77991 0.43518 0.0
C138 C 0.87866 0.84396 0.51641 0.0
C139 C 0.88597 0.76459 0.32231 0.0
O140 O 0.91604 0.80115 0.5568 0.0
O141 O 0.92061 0.75715 0.44822 0.0
O142 O 0.88928 0.7057 0.54078 0.0
O143 O 0.90354 0.68934 0.44979 0.0
O144 O 0.89654 0.77261 0.64148 0.0
O145 O 0.87733 0.7412 0.64451 0.0
O146 O 0.85839 0.70929 0.45975 0.0
O147 O 0.85167 0.76724 0.53819 0.0
O148 O 0.88396 0.81386 0.46793 0.0
O149 O 0.86915 0.82891 0.55607 0.0
O150 O 0.87687 0.74644 0.36407 0.0
O151 O 0.89516 0.78269 0.36307 0.0
H152 H 0.94037 0.84504 0.56039 0.0
H153 H 0.96354 0.83387 0.58375 0.0
H154 H 0.96311 0.69137 0.53226 0.0
H155 H 0.93992 0.703 0.50752 0.0
H156 H 0.83567 0.66552 0.43329 0.0
H157 H 0.81416 0.67061 0.37219 0.0
H158 H 0.81151 0.81591 0.3944 0.0
H159 H 0.83318 0.81066 0.4537 0.0
Sm160 Sm 0.65708 0.75974 0.03365 0.0
Sm161 Sm 0.62842 0.75946 0.03697 0.0
C162 C 0.68141 0.77781 0.04902 0.0
C163 C 0.69376 0.76919 0.09552 0.0
C164 C 0.69673 0.79745 0.16249 0.0
C165 C 0.70902 0.79324 0.19862 0.0
C166 C 0.7187 0.76083 0.16845 0.0
C167 C 0.7156 0.73184 0.10285 0.0
C168 C 0.70333 0.73607 0.06674 0.0
C169 C 0.64941 0.67379 1.01905 0.0
C170 C 0.6422 0.75701 0.21809 0.0
C171 C 0.60359 0.75052 1.02079 0.0
C172 C 0.58956 0.74749 1.01179 0.0
C173 C 0.58447 0.70558 1.00943 0.0
C174 C 0.57115 0.70336 1.003 0.0
C175 C 0.56261 0.74305 0.99924 0.0
C176 C 0.5678 0.7849 1.00178 0.0
C177 C 0.58107 0.78706 1.00767 0.0
C178 C 0.63688 0.84456 0.0506 0.0
C179 C 0.64302 0.75978 0.85597 0.0
O180 O 0.67175 0.80171 0.08562 0.0
O181 O 0.67776 0.74575 1.00071 0.0
O182 O 0.64426 0.7043 0.0677 0.0
O183 O 0.65931 0.68742 0.98125 0.0
O184 O 0.65278 0.76434 0.17675 0.0
O185 O 0.63153 0.74986 0.17831 0.0
O186 O 0.61187 0.71658 0.04188 0.0
O187 O 0.60861 0.78819 1.0067 0.0
O188 O 0.64133 0.81382 1.00047 0.0
O189 O 0.62766 0.83087 0.09541 0.0
O190 O 0.63374 0.74283 0.89809 0.0
O191 O 0.65228 0.77772 0.89643 0.0
H192 H 0.68967 0.8237 0.18565 0.0
H193 H 0.71098 0.81578 0.24972 0.0
H194 H 0.72281 0.70691 0.07701 0.0
H195 H 0.70148 0.71425 1.01429 0.0
H196 H 0.59077 0.67448 1.01243 0.0
H197 H 0.56758 0.6705 1.0002 0.0
H198 H 0.56159 0.81623 1.00083 0.0
H199 H 0.58466 0.81993 1.01026 0.0
Sm200 Sm 0.37177 0.75697 0.03527 0.0
Sm201 Sm 0.40012 0.76223 0.04189 0.0
C202 C 0.34768 0.73582 0.04877 0.0
C203 C 0.33533 0.74363 0.09582 0.0
C204 C 0.33204 0.71248 0.15642 0.0
C205 C 0.31978 0.71646 0.19322 0.0
C206 C 0.31045 0.75156 0.17001 0.0
C207 C 0.31386 0.78328 0.11075 0.0
C208 C 0.32611 0.77931 0.07402 0.0
C209 C 0.37827 0.84494 0.02579 0.0
C210 C 0.38539 0.76522 0.21887 0.0
C211 C 0.42446 0.78119 0.03595 0.0
C212 C 0.43808 0.76771 1.01317 0.0
C213 C 0.44483 0.79729 0.96571 0.0
C214 C 0.45819 0.78948 0.95562 0.0
C215 C 0.46514 0.752 0.99337 0.0
C216 C 0.45829 0.72137 0.03798 0.0
C217 C 0.44492 0.7291 0.04774 0.0
C218 C 0.39326 0.67405 0.04334 0.0
C219 C 0.38616 0.75909 0.85748 0.0
O220 O 0.35747 0.7129 0.08505 0.0
O221 O 0.35111 0.76825 1.00121 0.0
O222 O 0.38363 0.8148 0.0734 0.0
O223 O 0.36863 0.83006 0.98728 0.0
O224 O 0.37621 0.74746 0.17719 0.0
O225 O 0.39467 0.78258 0.17791 0.0
O226 O 0.41613 0.79344 0.97704 0.0
O227 O 0.4195 0.76009 0.09796 0.0
O228 O 0.38827 0.7058 0.99848 0.0
O229 O 0.40272 0.68761 0.08584 0.0
O230 O 0.39564 0.77463 0.9003 0.0
O231 O 0.37666 0.74192 0.89682 0.0
H232 H 0.33884 0.68427 0.17397 0.0
H233 H 0.31758 0.69173 0.23941 0.0
H234 H 0.30691 0.81038 0.09029 0.0
H235 H 0.32821 0.80353 0.02658 0.0
H236 H 0.43984 0.82762 0.93939 0.0
H237 H 0.46313 0.81403 0.92155 0.0
H238 H 0.4633 0.6918 0.0668 0.0
H239 H 0.44003 0.70564 0.08491 0.0
Sm240 Sm 0.62839 0.25336 0.99185 0.0
Sm241 Sm 0.65694 0.26433 0.99665 0.0
C242 C 0.6048 0.22724 1.00056 0.0
C243 C 0.59111 0.23598 0.02587 0.0
C244 C 0.58504 0.20105 0.0629 0.0
C245 C 0.57169 0.20514 0.07448 0.0
C246 C 0.56406 0.24433 0.04906 0.0
C247 C 0.57024 0.28017 1.01543 0.0
C248 C 0.58362 0.27601 1.00375 0.0
C249 C 0.63381 0.34295 0.99031 0.0
C250 C 0.6426 0.25986 0.17452 0.0
C251 C 0.68053 0.28996 0.98361 0.0
C252 C 0.69296 0.28313 0.93792 0.0
C253 C 0.69865 0.32094 0.90908 0.0
C254 C 0.71101 0.31624 0.87389 0.0
C255 C 0.71803 0.2735 0.86688 0.0
C256 C 0.71217 0.23546 0.89397 0.0
C257 C 0.69978 0.2402 0.92905 0.0
C258 C 0.65148 0.17534 1.00608 0.0
C259 C 0.64309 0.25421 0.81314 0.0
O260 O 0.61357 0.21655 0.05761 0.0
O261 O 0.6089 0.25106 0.93917 0.0
O262 O 0.63961 0.31178 0.03294 0.0
O263 O 0.62403 0.32827 0.95295 0.0
O264 O 0.63363 0.241 0.13222 0.0
O265 O 0.6515 0.28003 0.13457 0.0
O266 O 0.67059 0.31035 0.94452 0.0
O267 O 0.67749 0.25774 0.03318 0.0
O268 O 0.64575 0.20498 0.95918 0.0
O269 O 0.66108 0.19124 0.04348 0.0
O270 O 0.65248 0.27113 0.85437 0.0
O271 O 0.63367 0.23739 0.85382 0.0
H272 H 0.59057 0.16973 0.08001 0.0
H273 H 0.56731 0.17717 0.10195 0.0
H274 H 0.5647 0.31073 0.99458 0.0
H275 H 0.58802 0.30345 0.9745 0.0
H276 H 0.69367 0.35444 0.91596 0.0
H277 H 0.71522 0.34637 0.8548 0.0
H278 H 0.71719 0.20197 0.88846 0.0
H279 H 0.69565 0.21035 0.95066 0.0
Sm280 Sm 0.40199 0.26267 0.99495 0.0
Sm281 Sm 0.37147 0.254 0.99722 0.0
C282 C 0.42551 0.28919 1.00207 0.0
C283 C 0.43925 0.27895 0.02414 0.0
C284 C 0.44597 0.31367 0.05653 0.0
C285 C 0.45932 0.30732 0.06718 0.0
C286 C 0.4663 0.26596 0.04559 0.0
C287 C 0.45945 0.23062 1.01583 0.0
C288 C 0.44607 0.23706 1.0051 0.0
C289 C 0.39508 0.17496 0.98865 0.0
C290 C 0.38674 0.2604 0.17819 0.0
C291 C 0.34854 0.223 0.99089 0.0
C292 C 0.33557 0.23094 0.95202 0.0
C293 C 0.33157 0.19984 0.89312 0.0
C294 C 0.31903 0.20455 0.86106 0.0
C295 C 0.31008 0.24037 0.88743 0.0
C296 C 0.31416 0.27189 0.94552 0.0
C297 C 0.32672 0.26722 0.97746 0.0
C298 C 0.37636 0.34442 0.98303 0.0
C299 C 0.3864 0.26324 0.81845 0.0
O300 O 0.41705 0.29744 0.06242 0.0
O301 O 0.42112 0.2677 0.93793 0.0
O302 O 0.38934 0.20746 0.02951 0.0
O303 O 0.40562 0.18727 0.95679 0.0
O304 O 0.39732 0.26887 0.13731 0.0
O305 O 0.37623 0.25001 0.13891 0.0
O306 O 0.35819 0.20769 0.94227 0.0
O307 O 0.35175 0.25188 0.04789 0.0
O308 O 0.38423 0.30978 0.98629 0.0
O309 O 0.36487 0.33141 0.98526 0.0
O310 O 0.3774 0.24326 0.85809 0.0
O311 O 0.39544 0.28205 0.8602 0.0
H312 H 0.44094 0.34644 0.07076 0.0
H313 H 0.46421 0.33553 0.08919 0.0
H314 H 0.46444 0.19807 0.99983 0.0
H315 H 0.44113 0.20968 0.97988 0.0
H316 H 0.33811 0.17133 0.87272 0.0
H317 H 0.31635 0.17996 0.81556 0.0
H318 H 0.30754 0.29959 0.9683 0.0
H319 H 0.32939 0.29162 0.02337 0.0
H320 H 0.23715 0.31608 0.6306 0.0
H321 H 0.22879 0.20834 0.79643 0.0
H322 H 0.25925 0.30968 0.68045 0.0
H323 H 0.25093 0.20206 0.84684 0.0
H324 H 0.29469 0.1723 0.857 0.0
H325 H 0.27265 0.17848 0.8058 0.0
H326 H 0.27228 0.32359 0.7995 0.0
H327 H 0.29453 0.31728 0.84695 0.0
C328 C 0.23997 0.29134 0.67851 0.0
C329 C 0.2311 0.26286 0.70962 0.0
C330 C 0.25269 0.28766 0.70721 0.0
C331 C 0.25696 0.25541 0.76801 0.0
C332 C 0.24809 0.22687 0.7991 0.0
C333 C 0.23535 0.2305 0.77024 0.0
C334 C 0.28999 0.20554 0.84368 0.0
C335 C 0.2965 0.24426 0.85604 0.0
C336 C 0.27724 0.20913 0.81535 0.0
C337 C 0.27058 0.25155 0.79851 0.0
C338 C 0.27709 0.29028 0.8108 0.0
C339 C 0.28985 0.28669 0.83909 0.0
H340 H 0.7388 0.21832 0.92413 0.0
H341 H 0.72797 0.31878 0.7355 0.0
H342 H 0.76091 0.2124 0.87292 0.0
H343 H 0.75015 0.31419 0.68652 0.0
H344 H 0.78831 0.26188 0.5634 0.0
H345 H 0.76618 0.26556 0.61291 0.0
H346 H 0.7796 0.25392 0.86959 0.0
H347 H 0.8018 0.25006 0.81986 0.0
C348 C 0.7411 0.239 0.87142 0.0
C349 C 0.73153 0.269 0.834 0.0
C350 C 0.75385 0.23604 0.84274 0.0
C351 C 0.7574 0.26292 0.77564 0.0
C352 C 0.7478 0.2926 0.73774 0.0
C353 C 0.73506 0.29561 0.7665 0.0
C354 C 0.78657 0.26058 0.63052 0.0
C355 C 0.7969 0.25593 0.68756 0.0
C356 C 0.77383 0.26267 0.65899 0.0
C357 C 0.77103 0.26017 0.74541 0.0
C358 C 0.78136 0.2553 0.80251 0.0
C359 C 0.79412 0.25316 0.77398 0.0
H360 H 0.29473 0.82718 0.2166 0.0
H361 H 0.29574 0.68198 0.20194 0.0
H362 H 0.27263 0.8317 0.26706 0.0
H363 H 0.27382 0.68637 0.256 0.0
H364 H 0.22976 0.71473 0.26597 0.0
H365 H 0.25195 0.7092 0.21577 0.0
H366 H 0.25995 0.81603 0.38707 0.0
H367 H 0.23781 0.82168 0.43667 0.0
C368 C 0.29027 0.79617 0.22428 0.0
C369 C 0.29709 0.75422 0.20494 0.0
C370 C 0.2776 0.79872 0.25422 0.0
C371 C 0.27137 0.7594 0.26579 0.0
C372 C 0.27822 0.71743 0.24703 0.0
C373 C 0.29089 0.71487 0.21707 0.0
C374 C 0.23628 0.73682 0.29333 0.0
C375 C 0.23193 0.76885 0.35505 0.0
C376 C 0.24903 0.73362 0.26461 0.0
C377 C 0.2578 0.76228 0.29703 0.0
C378 C 0.25345 0.79399 0.35932 0.0
C379 C 0.24072 0.79723 0.38785 0.0
H380 H 0.73532 0.68527 0.19962 0.0
H381 H 0.73256 0.8308 0.21417 0.0
H382 H 0.75747 0.68148 0.24863 0.0
H383 H 0.75454 0.82693 0.26653 0.0
H384 H 0.79869 0.80506 0.26983 0.0
H385 H 0.77649 0.80935 0.22092 0.0
H386 H 0.7702 0.69306 0.37107 0.0
H387 H 0.79235 0.68873 0.41965 0.0
C388 C 0.73941 0.7165 0.21343 0.0
C389 C 0.73209 0.75834 0.20268 0.0
C390 C 0.75211 0.71431 0.2425 0.0
C391 C 0.75787 0.75389 0.26165 0.0
C392 C 0.75051 0.79573 0.25153 0.0
C393 C 0.73781 0.79792 0.22254 0.0
C394 C 0.79255 0.78057 0.29285 0.0
C395 C 0.7974 0.74641 0.34845 0.0
C396 C 0.77979 0.78306 0.26486 0.0
C397 C 0.77149 0.7515 0.29179 0.0
C398 C 0.77633 0.71747 0.34764 0.0
C399 C 0.78908 0.71497 0.37553 0.0
H400 H 0.15484 0.87477 0.5298 0.0
H401 H 0.11414 0.91593 0.53668 0.0
H402 H 0.15923 0.954 0.53673 0.0
H403 H 0.11843 0.99495 0.54258 0.0
H404 H 0.13063 0.13212 0.62825 0.0
H405 H 0.12654 0.05248 0.62933 0.0
H406 H 0.15767 0.02149 0.45271 0.0
H407 H 0.16181 0.10062 0.45282 0.0
C408 C 0.14684 0.90073 0.53264 0.0
C409 C 0.13415 0.88896 0.5323 0.0
C410 C 0.14933 0.94628 0.53628 0.0
C411 C 0.13919 0.9813 0.54006 0.0
C412 C 0.12651 0.96922 0.54084 0.0
C413 C 0.12404 0.92377 0.53691 0.0
C414 C 0.1366 0.10822 0.58986 0.0
C415 C 0.14657 0.1228 0.54065 0.0
C416 C 0.13423 0.06251 0.59007 0.0
C417 C 0.14179 0.03012 0.54127 0.0
C418 C 0.15176 0.04499 0.4922 0.0
C419 C 0.15409 0.09059 0.49179 0.0
H420 H 0.87347 0.4037 0.39858 0.0
H421 H 0.89128 0.3925 0.64334 0.0
H422 H 0.87735 0.48327 0.39262 0.0
H423 H 0.89486 0.47294 0.63831 0.0
H424 H 0.88251 0.63211 0.62053 0.0
H425 H 0.8795 0.55148 0.63058 0.0
H426 H 0.89799 0.52769 0.38926 0.0
H427 H 0.90131 0.60781 0.38025 0.0
C428 C 0.87821 0.4183 0.45122 0.0
C429 C 0.88207 0.39181 0.52141 0.0
C430 C 0.88045 0.46385 0.44767 0.0
C431 C 0.88637 0.48444 0.51504 0.0
C432 C 0.8902 0.45806 0.58565 0.0
C433 C 0.88822 0.41202 0.58835 0.0
C434 C 0.88594 0.60961 0.56975 0.0
C435 C 0.89215 0.6263 0.49955 0.0
C436 C 0.88429 0.56344 0.57577 0.0
C437 C 0.88854 0.53322 0.51079 0.0
C438 C 0.89459 0.55012 0.44023 0.0
C439 C 0.8965 0.59598 0.43513 0.0
H440 H 0.90006 0.8815 0.46005 0.0
H441 H 0.86283 0.9158 0.57363 0.0
H442 H 0.90408 0.96147 0.46498 0.0
H443 H 0.8667 0.99538 0.57675 0.0
H444 H 0.87369 0.1387 0.48083 0.0
H445 H 0.86991 0.05882 0.47 0.0
H446 H 0.90683 0.0209 0.58357 0.0
H447 H 0.91048 0.10065 0.59612 0.0
C448 C 0.89271 0.90612 0.48544 0.0
C449 C 0.88113 0.89232 0.51638 0.0
C450 C 0.89502 0.95183 0.48859 0.0
C451 C 0.88569 0.98484 0.52103 0.0
C452 C 0.87404 0.97095 0.5507 0.0
C453 C 0.87185 0.92528 0.54922 0.0
C454 C 0.88098 0.11328 0.50348 0.0
C455 C 0.89236 0.12601 0.53947 0.0
C456 C 0.87882 0.06756 0.49744 0.0
C457 C 0.8881 0.03346 0.52566 0.0
C458 C 0.89955 0.04626 0.56055 0.0
C459 C 0.9016 0.09198 0.56818 0.0
H460 H 0.12815 0.6354 0.47367 0.0
H461 H 0.16616 0.60018 0.57344 0.0
H462 H 0.12405 0.55546 0.47892 0.0
H463 H 0.16219 0.52088 0.57698 0.0
H464 H 0.15492 0.37734 0.4868 0.0
H465 H 0.15849 0.45727 0.47436 0.0
H466 H 0.12186 0.49535 0.59334 0.0
H467 H 0.11841 0.41562 0.60717 0.0
C468 C 0.13563 0.61066 0.4963 0.0
C469 C 0.14747 0.62425 0.52317 0.0
C470 C 0.13328 0.5649 0.49954 0.0
C471 C 0.14282 0.53162 0.528 0.0
C472 C 0.15468 0.54538 0.55385 0.0
C473 C 0.15692 0.591 0.55221 0.0
C474 C 0.14764 0.40279 0.51023 0.0
C475 C 0.1364 0.39003 0.54819 0.0
C476 C 0.14969 0.4486 0.50327 0.0
C477 C 0.14044 0.48285 0.53264 0.0
C478 C 0.12912 0.46999 0.56931 0.0
C479 C 0.12719 0.42422 0.57772 0.0
H480 H 0.66487 0.60183 0.95937 0.0
H481 H 0.62809 0.63642 0.07906 0.0
H482 H 0.66096 0.52246 0.95724 0.0
H483 H 0.62403 0.55643 0.0751 0.0
H484 H 0.61742 0.4163 0.94595 0.0
H485 H 0.62082 0.4963 0.95865 0.0
H486 H 0.65837 0.45945 0.06405 0.0
H487 H 0.65487 0.37942 0.05294 0.0
C488 C 0.65592 0.59249 0.9853 0.0
C489 C 0.64679 0.62555 1.01948 0.0
C490 C 0.65372 0.54688 0.98438 0.0
C491 C 0.6422 0.53301 1.01614 0.0
C492 C 0.63298 0.56606 0.04985 0.0
C493 C 0.63531 0.61181 0.05235 0.0
C494 C 0.62638 0.42528 0.97218 0.0
C495 C 0.63589 0.3915 0.99831 0.0
C496 C 0.62829 0.47113 0.97994 0.0
C497 C 0.63985 0.48431 1.01244 0.0
C498 C 0.64938 0.45045 0.03842 0.0
C499 C 0.64737 0.40462 0.03218 0.0
H500 H 0.39958 0.8833 0.08295 0.0
H501 H 0.36254 0.91632 0.9676 0.0
H502 H 0.4036 0.96321 0.07682 0.0
H503 H 0.36643 0.99576 0.96277 0.0
H504 H 0.37326 0.14122 0.04813 0.0
H505 H 0.36921 0.06173 0.06137 0.0
H506 H 0.407 0.02055 0.96173 0.0
H507 H 0.41094 0.0997 0.9471 0.0
C508 C 0.39227 0.90762 0.05695 0.0
C509 C 0.38074 0.89341 0.02583 0.0
C510 C 0.39458 0.95335 0.05306 0.0
C511 C 0.38532 0.98604 1.01944 0.0
C512 C 0.37372 0.97173 0.98979 0.0
C513 C 0.37152 0.92606 0.99223 0.0
C514 C 0.38067 0.11517 0.02881 0.0
C515 C 0.3924 0.12687 0.99629 0.0
C516 C 0.37836 0.06962 0.03633 0.0
C517 C 0.38781 0.03463 1.01301 0.0
C518 C 0.39957 0.04649 0.98121 0.0
C519 C 0.40178 0.09194 0.97228 0.0
H520 H 0.39995 0.37792 0.99545 0.0
H521 H 0.35933 0.41945 0.97975 0.0
H522 H 0.40426 0.45722 1.00743 0.0
H523 H 0.36351 0.49817 0.99318 0.0
H524 H 0.37558 0.63851 0.94202 0.0
H525 H 0.37202 0.55922 0.92278 0.0
H526 H 0.40194 0.52091 0.10316 0.0
H527 H 0.40563 0.6002 0.12088 0.0
C528 C 0.39195 0.40398 0.99429 0.0
C529 C 0.3793 0.39235 0.98649 0.0
C530 C 0.39439 0.4495 1.0018 0.0
C531 C 0.38424 0.48452 1.00138 0.0
C532 C 0.37161 0.47254 0.99255 0.0
C533 C 0.3692 0.42721 0.98528 0.0
C534 C 0.38139 0.61313 0.97752 0.0
C535 C 0.39089 0.62576 0.03296 0.0
C536 C 0.37932 0.56755 0.96683 0.0
C537 C 0.38668 0.53322 1.01133 0.0
C538 C 0.3962 0.54606 0.06677 0.0
C539 C 0.39825 0.59166 0.0775 0.0
H540 H 0.62979 0.13616 0.96002 0.0
H541 H 0.66819 0.10481 0.05613 0.0
H542 H 0.62619 0.05591 0.96893 0.0
H543 H 0.66472 0.02497 0.06305 0.0
H544 H 0.65708 0.88003 0.97401 0.0
H545 H 0.66054 0.95999 0.95929 0.0
H546 H 0.62506 0.99807 0.09221 0.0
H547 H 0.62176 0.91835 0.10864 0.0
C548 C 0.63748 0.11212 0.98225 0.0
C549 C 0.64927 0.1268 1.00731 0.0
C550 C 0.63542 0.06626 0.98771 0.0
C551 C 0.6452 0.03405 1.01652 0.0
C552 C 0.65704 0.0488 0.03996 0.0
C553 C 0.659 0.0946 0.03629 0.0
C554 C 0.65006 0.90551 1.0003 0.0
C555 C 0.63918 0.89285 0.04271 0.0
C556 C 0.65203 0.95125 0.99192 0.0
C557 C 0.64303 0.98539 0.02417 0.0
C558 C 0.6321 0.97265 0.06592 0.0
C559 C 0.63027 0.92695 0.07585 0.0
H560 H 0.16195 0.26509 0.26387 0.0
H561 H 0.12143 0.24782 0.26377 0.0
H562 H 0.16221 0.26236 0.11096 0.0
H563 H 0.1215 0.24719 0.11032 0.0
H564 H 0.12812 0.20424 0.83734 0.0
H565 H 0.12812 0.20461 0.9906 0.0
H566 H 0.15596 0.30275 0.98989 0.0
H567 H 0.15636 0.30066 0.83676 0.0
C568 C 0.15304 0.2612 0.23111 0.0
C569 C 0.14166 0.25672 0.27612 0.0
C570 C 0.15317 0.25991 0.1431 0.0
C571 C 0.14187 0.25471 0.09752 0.0
C572 C 0.13045 0.25045 0.14283 0.0
C573 C 0.13037 0.25113 0.23101 0.0
C574 C 0.13427 0.22577 0.86999 0.0
C575 C 0.14227 0.25232 0.82477 0.0
C576 C 0.13421 0.22627 0.9581 0.0
C577 C 0.14201 0.2538 1.00337 0.0
C578 C 0.14998 0.28045 0.95774 0.0
C579 C 0.15017 0.27947 0.86966 0.0
H580 H 0.86728 0.24496 0.25259 0.0
H581 H 0.90739 0.26818 0.25082 0.0
H582 H 0.8668 0.24862 0.09992 0.0
H583 H 0.90713 0.26969 0.09735 0.0
H584 H 0.89983 0.31359 0.8266 0.0
H585 H 0.90003 0.31198 0.97982 0.0
H586 H 0.87312 0.21071 0.97606 0.0
H587 H 0.87248 0.21409 0.82311 0.0
C588 C 0.87606 0.25027 0.21947 0.0
C589 C 0.88738 0.25621 0.26404 0.0
C590 C 0.87581 0.25212 0.13152 0.0
C591 C 0.88693 0.25933 0.08539 0.0
C592 C 0.8983 0.26489 0.13025 0.0
C593 C 0.89849 0.26367 0.21844 0.0
C594 C 0.8939 0.29116 0.85859 0.0
C595 C 0.8861 0.2641 0.81254 0.0
C596 C 0.8941 0.28991 0.9467 0.0
C597 C 0.88663 0.26108 0.99118 0.0
C598 C 0.87883 0.23399 0.94468 0.0
C599 C 0.8785 0.23573 0.85665 0.0
H600 H 0.16299 0.75502 0.21804 0.0
H601 H 0.12174 0.75266 0.21906 0.0
H602 H 0.16289 0.75585 0.0646 0.0
H603 H 0.12159 0.75492 0.06612 0.0
H604 H 0.12676 0.71327 0.7912 0.0
H605 H 0.12717 0.71121 0.94422 0.0
H606 H 0.15699 0.80184 0.94595 0.0
H607 H 0.15685 0.80274 0.79252 0.0
C608 C 0.15388 0.75487 0.18569 0.0
C609 C 0.14238 0.75361 0.23132 0.0
C610 C 0.15381 0.75566 0.09744 0.0
C611 C 0.14223 0.75547 0.05234 0.0
C612 C 0.13073 0.75431 0.0982 0.0
C613 C 0.13081 0.75325 0.1863 0.0
C614 C 0.1334 0.73285 0.82407 0.0
C615 C 0.14177 0.75819 0.77917 0.0
C616 C 0.13359 0.73186 0.91218 0.0
C617 C 0.1421 0.75641 0.9581 0.0
C618 C 0.15044 0.78192 0.91307 0.0
C619 C 0.1503 0.7827 0.82484 0.0
H620 H 0.90706 0.76938 0.79011 0.0
H621 H 0.86678 0.74837 0.78936 0.0
H622 H 0.90687 0.77058 0.94368 0.0
H623 H 0.8664 0.75162 0.94212 0.0
H624 H 0.87221 0.71486 0.21686 0.0
H625 H 0.8728 0.71221 0.06379 0.0
H626 H 0.89986 0.81298 0.06301 0.0
H627 H 0.89968 0.81395 0.21631 0.0
C628 C 0.89814 0.76534 0.82272 0.0
C629 C 0.88696 0.75854 0.7774 0.0
C630 C 0.89799 0.76634 0.91095 0.0
C631 C 0.88661 0.76118 0.95605 0.0
C632 C 0.87542 0.75477 0.91022 0.0
C633 C 0.87562 0.75317 0.82224 0.0
C634 C 0.87826 0.73655 0.18397 0.0
C635 C 0.88589 0.76462 0.2289 0.0
C636 C 0.87856 0.73523 0.0959 0.0
C637 C 0.88637 0.76244 0.05024 0.0
C638 C 0.8939 0.79089 0.09552 0.0
C639 C 0.89372 0.79175 0.18366 0.0
H640 H 0.62174 0.75641 0.32567 0.0
H641 H 0.66304 0.75712 0.32236 0.0
H642 H 0.62194 0.75758 0.47887 0.0
H643 H 0.6633 0.75667 0.47559 0.0
H644 H 0.65814 0.80298 0.74856 0.0
H645 H 0.65785 0.80252 0.59529 0.0
H646 H 0.62771 0.71312 0.59865 0.0
H647 H 0.62771 0.71493 0.75191 0.0
C648 C 0.63088 0.75641 0.35759 0.0
C649 C 0.64237 0.75672 0.31154 0.0
C650 C 0.63101 0.75682 0.44567 0.0
C651 C 0.64264 0.75718 0.49009 0.0
C652 C 0.65413 0.75717 0.44383 0.0
C653 C 0.65399 0.75714 0.35574 0.0
C654 C 0.65145 0.78323 0.71659 0.0
C655 C 0.64293 0.75907 0.7626 0.0
C656 C 0.65133 0.78272 0.62851 0.0
C657 C 0.64276 0.75773 0.58411 0.0
C658 C 0.63429 0.73337 0.63039 0.0
C659 C 0.63434 0.73419 0.71846 0.0
H660 H 0.36598 0.75022 0.75216 0.0
H661 H 0.40623 0.77143 0.75135 0.0
H662 H 0.36562 0.75355 0.59944 0.0
H663 H 0.40609 0.7726 0.59784 0.0
H664 H 0.39922 0.81443 0.32532 0.0
H665 H 0.39929 0.81412 0.47866 0.0
H666 H 0.37194 0.71429 0.47704 0.0
H667 H 0.37145 0.71639 0.32406 0.0
C668 C 0.37481 0.7551 0.71924 0.0
C669 C 0.38614 0.76048 0.76407 0.0
C670 C 0.37463 0.75674 0.63127 0.0
C671 C 0.38584 0.76313 0.58538 0.0
C672 C 0.3972 0.76838 0.63052 0.0
C673 C 0.39732 0.76739 0.71875 0.0
C674 C 0.39318 0.79259 0.35782 0.0
C675 C 0.38529 0.76557 0.31235 0.0
C676 C 0.39329 0.7921 0.446 0.0
C677 C 0.38564 0.76411 0.49111 0.0
C678 C 0.37778 0.737 0.44517 0.0
C679 C 0.37754 0.73798 0.3571 0.0
H680 H 0.65571 0.31037 0.28269 0.0
H681 H 0.6295 0.20712 0.27797 0.0
H682 H 0.65573 0.30898 0.43582 0.0
H683 H 0.62994 0.20413 0.4311 0.0
H684 H 0.62324 0.2404 0.70742 0.0
H685 H 0.62301 0.24242 0.55438 0.0
H686 H 0.66305 0.26732 0.55373 0.0
H687 H 0.66306 0.26731 0.70707 0.0
C688 C 0.65002 0.28709 0.31437 0.0
C689 C 0.64258 0.25895 0.26797 0.0
C690 C 0.6501 0.28601 0.40246 0.0
C691 C 0.64287 0.25632 0.44665 0.0
C692 C 0.63546 0.22804 0.39986 0.0
C693 C 0.63526 0.22955 0.31176 0.0
C694 C 0.632 0.2462 0.6746 0.0
C695 C 0.64316 0.25374 0.71964 0.0
C696 C 0.6319 0.24712 0.58651 0.0
C697 C 0.64301 0.25503 0.54087 0.0
C698 C 0.65423 0.262 0.58623 0.0
C699 C 0.65427 0.26166 0.6744 0.0
H700 H 0.36619 0.25814 0.28484 0.0
H701 H 0.40723 0.2658 0.28466 0.0
H702 H 0.36604 0.26061 0.43787 0.0
H703 H 0.40717 0.26664 0.43806 0.0
H704 H 0.40119 0.30965 0.71296 0.0
H705 H 0.40117 0.31028 0.55946 0.0
H706 H 0.37189 0.21755 0.55794 0.0
H707 H 0.3716 0.21824 0.71094 0.0
C708 C 0.37522 0.26 0.31738 0.0
C709 C 0.38672 0.26169 0.272 0.0
C710 C 0.37515 0.26116 0.40554 0.0
C711 C 0.3866 0.26364 0.45114 0.0
C712 C 0.39811 0.26541 0.40559 0.0
C713 C 0.39816 0.26463 0.3173 0.0
C714 C 0.39472 0.2895 0.67987 0.0
C715 C 0.38638 0.264 0.72467 0.0
C716 C 0.39476 0.2896 0.59156 0.0
C717 C 0.38652 0.26395 0.54553 0.0
C718 C 0.37821 0.23841 0.59064 0.0
C719 C 0.3781 0.23858 0.6788 0.0
H720 H 0.04806 0.17807 0.50458 0.0
H721 H 0.04575 0.31997 0.44487 0.0
H722 H 0.02476 0.18046 0.49687 0.0
H723 H 0.02235 0.32276 0.44049 0.0
H724 H 0.98094 0.30311 0.36577 0.0
H725 H 1.00438 0.29839 0.36177 0.0
H726 H 1.00619 0.2099 0.57676 0.0
H727 H 0.98284 0.21468 0.58092 0.0
C728 C 0.04261 0.20976 0.48902 0.0
C729 C 0.04887 0.24881 0.47517 0.0
C730 C 0.02919 0.21126 0.48573 0.0
C731 C 0.0216 0.25186 0.46853 0.0
C732 C 0.02786 0.29078 0.4532 0.0
C733 C 0.0413 0.2893 0.45662 0.0
C734 C 0.98633 0.28271 0.41233 0.0
C735 C 0.97992 0.25922 0.47358 0.0
C736 C 0.9998 0.28004 0.41009 0.0
C737 C 1.00724 0.25378 0.46895 0.0
C738 C 1.00083 0.22986 0.52947 0.0
C739 C 0.98738 0.23255 0.53176 0.0
H740 H 0.98101 0.80184 0.66982 0.0
H741 H 0.98222 0.70895 0.45949 0.0
H742 H 1.00446 0.79524 0.67266 0.0
H743 H 1.00559 0.70236 0.46236 0.0
H744 H 0.04738 0.66852 0.53435 0.0
H745 H 0.02404 0.67317 0.54203 0.0
H746 H 0.02262 0.81625 0.59248 0.0
H747 H 0.04605 0.81125 0.58837 0.0
C748 C 0.98625 0.78006 0.62405 0.0
C749 C 0.97965 0.75587 0.56454 0.0
C750 C 0.99973 0.77633 0.6256 0.0
C751 C 1.00699 0.74829 0.5677 0.0
C752 C 1.00038 0.72371 0.5089 0.0
C753 C 0.98692 0.72744 0.50735 0.0
C754 C 0.04213 0.7009 0.5485 0.0
C755 C 0.04869 0.73949 0.56091 0.0
C756 C 0.02869 0.70367 0.55178 0.0
C757 C 0.02137 0.74513 0.56748 0.0
C758 C 0.02791 0.78365 0.58102 0.0
C759 C 0.04137 0.78088 0.57769 0.0
H760 H 0.54781 0.6835 0.0761 0.0
H761 H 0.54498 0.7984 0.90995 0.0
H762 H 0.52458 0.68194 0.06984 0.0
H763 H 0.52174 0.79845 0.90762 0.0
H764 H 0.48099 0.76534 0.85943 0.0
H765 H 0.50442 0.76021 0.85727 0.0
H766 H 0.50525 0.72227 0.11949 0.0
H767 H 0.48188 0.72675 0.12104 0.0
C768 C 0.54228 0.70834 0.03789 0.0
C769 C 0.54837 0.74116 0.99376 0.0
C770 C 0.52888 0.70783 0.03521 0.0
C771 C 0.52118 0.7402 0.98852 0.0
C772 C 0.5273 0.77261 0.94352 0.0
C773 C 0.54067 0.77299 0.94588 0.0
C774 C 0.48618 0.75585 0.91658 0.0
C775 C 0.4795 0.74644 0.99036 0.0
C776 C 0.49964 0.75303 0.91549 0.0
C777 C 0.50682 0.74098 0.98831 0.0
C778 C 0.50013 0.73092 0.06172 0.0
C779 C 0.48668 0.73352 0.06266 0.0
H780 H 0.48348 0.22129 0.93531 0.0
H781 H 0.48186 0.29904 0.16616 0.0
H782 H 0.50686 0.21554 0.93923 0.0
H783 H 0.50529 0.29355 0.16962 0.0
H784 H 0.54686 0.31662 0.09416 0.0
H785 H 0.5234 0.32087 0.09513 0.0
H786 H 0.52527 0.18135 1.01619 0.0
H787 H 0.54864 0.17754 1.01256 0.0
C788 C 0.48808 0.23664 0.98764 0.0
C789 C 0.48069 0.26061 0.05046 0.0
C790 C 0.50154 0.23342 0.98977 0.0
C791 C 0.50802 0.25415 0.05467 0.0
C792 C 0.50065 0.27776 0.11794 0.0
C793 C 0.48718 0.28088 0.11595 0.0
C794 C 0.54227 0.2869 0.07668 0.0
C795 C 0.5497 0.24672 0.05342 0.0
C796 C 0.5288 0.28919 0.07805 0.0
C797 C 0.52239 0.25145 0.05569 0.0
C798 C 0.52984 0.21124 0.03296 0.0
C799 C 0.54328 0.2089 0.03192 0.0
loop_
_geom_bond_atom_site_label_1
_geom_bond_atom_site_label_2
_geom_bond_distance
_geom_bond_site_symmetry_2
_ccdc_geom_bond_type
Sm0 C2 2.846 . S
Sm0 O20 2.543 . S
Sm0 O21 2.450 . S
Sm0 O22 2.681 . S
Sm0 O23 2.464 . S
Sm0 O24 2.396 . S
Sm0 O28 2.386 . S
Sm0 O31 2.408 . S
Sm1 C11 2.846 . S
Sm1 O22 2.386 . S
Sm1 O25 2.408 . S
Sm1 O26 2.543 . S
Sm1 O27 2.450 . S
Sm1 O28 2.681 . S
Sm1 O29 2.464 . S
Sm1 O30 2.396 . S
C2 Sm0 2.846 . S
C2 C3 1.506 . S
C2 O20 1.261 . S
C2 O21 1.242 . S
C3 C2 1.506 . S
C3 C4 1.358 . S
C3 C8 1.382 . S
C4 C3 1.358 . S
C4 C5 1.385 . S
C4 H32 0.930 . S
C5 C4 1.385 . S
C5 C6 1.395 . S
C5 H33 0.929 . S
C6 C5 1.395 . S
C6 C7 1.335 . S
C7 C6 1.335 . S
C7 C8 1.398 . S
C7 H34 0.930 . S
C8 C3 1.382 . S
C8 C7 1.398 . S
C8 H35 0.929 . S
C9 O22 1.271 . S
C9 O23 1.251 . S
C10 O24 1.252 . S
C10 O25 1.272 . S
C11 Sm1 2.846 . S
C11 C12 1.506 . S
C11 O26 1.261 . S
C11 O27 1.242 . S
C12 C11 1.506 . S
C12 C13 1.358 . S
C12 C17 1.382 . S
C13 C12 1.358 . S
C13 C14 1.385 . S
C13 H36 0.930 . S
C14 C13 1.385 . S
C14 C15 1.395 . S
C14 H37 0.929 . S
C15 C14 1.395 . S
C15 C16 1.335 . S
C16 C15 1.335 . S
C16 C17 1.398 . S
C16 H38 0.930 . S
C17 C12 1.382 . S
C17 C16 1.398 . S
C17 H39 0.929 . S
C18 O28 1.271 . S
C18 O29 1.251 . S
C19 O30 1.252 . S
C19 O31 1.272 . S
O20 Sm0 2.543 . S
O20 C2 1.261 . S
O21 Sm0 2.450 . S
O21 C2 1.242 . S
O22 Sm0 2.681 . S
O22 Sm1 2.386 . S
O22 C9 1.271 . S
O23 Sm0 2.464 . S
O23 C9 1.251 . S
O24 Sm0 2.396 . S
O24 C10 1.252 . S
O25 Sm1 2.408 . S
O25 C10 1.272 . S
O26 Sm1 2.543 . S
O26 C11 1.261 . S
O27 Sm1 2.450 . S
O27 C11 1.242 . S
O28 Sm0 2.386 . S
O28 Sm1 2.681 . S
O28 C18 1.271 . S
O29 Sm1 2.464 . S
O29 C18 1.251 . S
O30 Sm1 2.396 . S
O30 C19 1.252 . S
O31 Sm0 2.408 . S
O31 C19 1.272 . S
H32 C4 0.930 . S
H33 C5 0.929 . S
H34 C7 0.930 . S
H35 C8 0.929 . S
H36 C13 0.930 . S
H37 C14 0.929 . S
H38 C16 0.930 . S
H39 C17 0.929 . S
Sm40 C42 2.846 . S
Sm40 O60 2.543 . S
Sm40 O61 2.450 . S
Sm40 O62 2.681 . S
Sm40 O63 2.464 . S
Sm40 O64 2.396 . S
Sm40 O68 2.386 . S
Sm40 O71 2.408 . S
Sm41 C51 2.846 . S
Sm41 O62 2.386 . S
Sm41 O65 2.408 . S
Sm41 O66 2.543 . S
Sm41 O67 2.450 . S
Sm41 O68 2.681 . S
Sm41 O69 2.464 . S
Sm41 O70 2.396 . S
C42 Sm40 2.846 . S
C42 C43 1.506 . S
C42 O60 1.261 . S
C42 O61 1.242 . S
C43 C42 1.506 . S
C43 C44 1.358 . S
C43 C48 1.382 . S
C44 C43 1.358 . S
C44 C45 1.385 . S
C44 H72 0.930 . S
C45 C44 1.385 . S
C45 C46 1.395 . S
C45 H73 0.929 . S
C46 C45 1.395 . S
C46 C47 1.335 . S
C47 C46 1.335 . S
C47 C48 1.398 . S
C47 H74 0.930 . S
C48 C43 1.382 . S
C48 C47 1.398 . S
C48 H75 0.929 . S
C49 O62 1.271 . S
C49 O63 1.251 . S
C50 O64 1.252 . S
C50 O65 1.272 . S
C51 Sm41 2.846 . S
C51 C52 1.506 . S
C51 O66 1.261 . S
C51 O67 1.242 . S
C52 C51 1.506 . S
C52 C53 1.358 . S
C52 C57 1.382 . S
C53 C52 1.358 . S
C53 C54 1.385 . S
C53 H76 0.930 . S
C54 C53 1.385 . S
C54 C55 1.395 . S
C54 H77 0.929 . S
C55 C54 1.395 . S
C55 C56 1.335 . S
C56 C55 1.335 . S
C56 C57 1.398 . S
C56 H78 0.930 . S
C57 C52 1.382 . S
C57 C56 1.398 . S
C57 H79 0.929 . S
C58 O68 1.271 . S
C58 O69 1.251 . S
C59 O70 1.252 . S
C59 O71 1.272 . S
O60 Sm40 2.543 . S
O60 C42 1.261 . S
O61 Sm40 2.450 . S
O61 C42 1.242 . S
O62 Sm40 2.681 . S
O62 Sm41 2.386 . S
O62 C49 1.271 . S
O63 Sm40 2.464 . S
O63 C49 1.251 . S
O64 Sm40 2.396 . S
O64 C50 1.252 . S
O65 Sm41 2.408 . S
O65 C50 1.272 . S
O66 Sm41 2.543 . S
O66 C51 1.261 . S
O67 Sm41 2.450 . S
O67 C51 1.242 . S
O68 Sm40 2.386 . S
O68 Sm41 2.681 . S
O68 C58 1.271 . S
O69 Sm41 2.464 . S
O69 C58 1.251 . S
O70 Sm41 2.396 . S
O70 C59 1.252 . S
O71 Sm40 2.408 . S
O71 C59 1.272 . S
H72 C44 0.930 . S
H73 C45 0.929 . S
H74 C47 0.930 . S
H75 C48 0.929 . S
H76 C53 0.930 . S
H77 C54 0.929 . S
H78 C56 0.930 . S
H79 C57 0.929 . S
Sm80 C82 2.846 . S
Sm80 O100 2.543 . S
Sm80 O101 2.450 . S
Sm80 O102 2.681 . S
Sm80 O103 2.464 . S
Sm80 O104 2.396 . S
Sm80 O108 2.386 . S
Sm80 O111 2.408 . S
Sm81 C91 2.846 . S
Sm81 O102 2.386 . S
Sm81 O105 2.408 . S
Sm81 O106 2.543 . S
Sm81 O107 2.450 . S
Sm81 O108 2.681 . S
Sm81 O109 2.464 . S
Sm81 O110 2.396 . S
C82 Sm80 2.846 . S
C82 C83 1.506 . S
C82 O100 1.261 . S
C82 O101 1.242 . S
C83 C82 1.506 . S
C83 C84 1.358 . S
C83 C88 1.382 . S
C84 C83 1.358 . S
C84 C85 1.385 . S
C84 H112 0.930 . S
C85 C84 1.385 . S
C85 C86 1.395 . S
C85 H113 0.929 . S
C86 C85 1.395 . S
C86 C87 1.335 . S
C87 C86 1.335 . S
C87 C88 1.398 . S
C87 H114 0.930 . S
C88 C83 1.382 . S
C88 C87 1.398 . S
C88 H115 0.929 . S
C89 O102 1.271 . S
C89 O103 1.251 . S
C90 O104 1.252 . S
C90 O105 1.272 . S
C91 Sm81 2.846 . S
C91 C92 1.506 . S
C91 O106 1.261 . S
C91 O107 1.242 . S
C92 C91 1.506 . S
C92 C93 1.358 . S
C92 C97 1.382 . S
C93 C92 1.358 . S
C93 C94 1.385 . S
C93 H116 0.930 . S
C94 C93 1.385 . S
C94 C95 1.395 . S
C94 H117 0.929 . S
C95 C94 1.395 . S
C95 C96 1.335 . S
C96 C95 1.335 . S
C96 C97 1.398 . S
C96 H118 0.930 . S
C97 C92 1.382 . S
C97 C96 1.398 . S
C97 H119 0.929 . S
C98 O108 1.271 . S
C98 O109 1.251 . S
C99 O110 1.252 . S
C99 O111 1.272 . S
O100 Sm80 2.543 . S
O100 C82 1.261 . S
O101 Sm80 2.450 . S
O101 C82 1.242 . S
O102 Sm80 2.681 . S
O102 Sm81 2.386 . S
O102 C89 1.271 . S
O103 Sm80 2.464 . S
O103 C89 1.251 . S
O104 Sm80 2.396 . S
O104 C90 1.252 . S
O105 Sm81 2.408 . S
O105 C90 1.272 . S
O106 Sm81 2.543 . S
O106 C91 1.261 . S
O107 Sm81 2.450 . S
O107 C91 1.242 . S
O108 Sm80 2.386 . S
O108 Sm81 2.681 . S
O108 C98 1.271 . S
O109 Sm81 2.464 . S
O109 C98 1.251 . S
O110 Sm81 2.396 . S
O110 C99 1.252 . S
O111 Sm80 2.408 . S
O111 C99 1.272 . S
H112 C84 0.930 . S
H113 C85 0.929 . S
H114 C87 0.930 . S
H115 C88 0.929 . S
H116 C93 0.930 . S
H117 C94 0.929 . S
H118 C96 0.930 . S
H119 C97 0.929 . S
Sm120 C122 2.846 . S
Sm120 O140 2.543 . S
Sm120 O141 2.450 . S
Sm120 O142 2.681 . S
Sm120 O143 2.464 . S
Sm120 O144 2.396 . S
Sm120 O148 2.386 . S
Sm120 O151 2.408 . S
Sm121 C131 2.846 . S
Sm121 O142 2.386 . S
Sm121 O145 2.408 . S
Sm121 O146 2.543 . S
Sm121 O147 2.450 . S
Sm121 O148 2.681 . S
Sm121 O149 2.464 . S
Sm121 O150 2.396 . S
C122 Sm120 2.846 . S
C122 C123 1.506 . S
C122 O140 1.261 . S
C122 O141 1.242 . S
C123 C122 1.506 . S
C123 C124 1.358 . S
C123 C128 1.382 . S
C124 C123 1.358 . S
C124 C125 1.385 . S
C124 H152 0.930 . S
C125 C124 1.385 . S
C125 C126 1.395 . S
C125 H153 0.929 . S
C126 C125 1.395 . S
C126 C127 1.335 . S
C127 C126 1.335 . S
C127 C128 1.398 . S
C127 H154 0.930 . S
C128 C123 1.382 . S
C128 C127 1.398 . S
C128 H155 0.929 . S
C129 O142 1.271 . S
C129 O143 1.251 . S
C130 O144 1.252 . S
C130 O145 1.272 . S
C131 Sm121 2.846 . S
C131 C132 1.506 . S
C131 O146 1.261 . S
C131 O147 1.242 . S
C132 C131 1.506 . S
C132 C133 1.358 . S
C132 C137 1.382 . S
C133 C132 1.358 . S
C133 C134 1.385 . S
C133 H156 0.930 . S
C134 C133 1.385 . S
C134 C135 1.395 . S
C134 H157 0.929 . S
C135 C134 1.395 . S
C135 C136 1.335 . S
C136 C135 1.335 . S
C136 C137 1.398 . S
C136 H158 0.930 . S
C137 C132 1.382 . S
C137 C136 1.398 . S
C137 H159 0.929 . S
C138 O148 1.271 . S
C138 O149 1.251 . S
C139 O150 1.252 . S
C139 O151 1.272 . S
O140 Sm120 2.543 . S
O140 C122 1.261 . S
O141 Sm120 2.450 . S
O141 C122 1.242 . S
O142 Sm120 2.681 . S
O142 Sm121 2.386 . S
O142 C129 1.271 . S
O143 Sm120 2.464 . S
O143 C129 1.251 . S
O144 Sm120 2.396 . S
O144 C130 1.252 . S
O145 Sm121 2.408 . S
O145 C130 1.272 . S
O146 Sm121 2.543 . S
O146 C131 1.261 . S
O147 Sm121 2.450 . S
O147 C131 1.242 . S
O148 Sm120 2.386 . S
O148 Sm121 2.681 . S
O148 C138 1.271 . S
O149 Sm121 2.464 . S
O149 C138 1.251 . S
O150 Sm121 2.396 . S
O150 C139 1.252 . S
O151 Sm120 2.408 . S
O151 C139 1.272 . S
H152 C124 0.930 . S
H153 C125 0.929 . S
H154 C127 0.930 . S
H155 C128 0.929 . S
H156 C133 0.930 . S
H157 C134 0.929 . S
H158 C136 0.930 . S
H159 C137 0.929 . S
Sm160 C162 2.846 1_556 S
Sm160 O180 2.543 1_556 S
Sm160 O181 2.450 1_556 S
Sm160 O182 2.681 . S
Sm160 O183 2.464 . S
Sm160 O184 2.396 1_556 S
Sm160 O188 2.386 1_556 S
Sm160 O191 2.408 . S
Sm161 C171 2.846 1_554 S
Sm161 O182 2.386 1_554 S
Sm161 O185 2.408 . S
Sm161 O186 2.543 1_554 S
Sm161 O187 2.450 1_554 S
Sm161 O188 2.681 . S
Sm161 O189 2.464 . S
Sm161 O190 2.396 1_554 S
C162 Sm160 2.846 1_554 S
C162 C163 1.506 . S
C162 O180 1.261 . S
C162 O181 1.242 . S
C163 C162 1.506 . S
C163 C164 1.358 . S
C163 C168 1.382 . S
C164 C163 1.358 . S
C164 C165 1.385 . S
C164 H192 0.930 . S
C165 C164 1.385 . S
C165 C166 1.395 . S
C165 H193 0.929 . S
C166 C165 1.395 . S
C166 C167 1.335 . S
C167 C166 1.335 . S
C167 C168 1.398 . S
C167 H194 0.930 . S
C168 C163 1.382 . S
C168 C167 1.398 . S
C168 H195 0.929 . S
C169 O182 1.271 . S
C169 O183 1.251 . S
C170 O184 1.252 . S
C170 O185 1.272 . S
C171 Sm161 2.846 1_556 S
C171 C172 1.506 . S
C171 O186 1.261 . S
C171 O187 1.242 . S
C172 C171 1.506 . S
C172 C173 1.358 . S
C172 C177 1.382 . S
C173 C172 1.358 . S
C173 C174 1.385 . S
C173 H196 0.930 . S
C174 C173 1.385 . S
C174 C175 1.395 . S
C174 H197 0.929 . S
C175 C174 1.395 . S
C175 C176 1.335 . S
C176 C175 1.335 . S
C176 C177 1.398 . S
C176 H198 0.930 . S
C177 C172 1.382 . S
C177 C176 1.398 . S
C177 H199 0.929 . S
C178 O188 1.271 . S
C178 O189 1.251 . S
C179 O190 1.252 . S
C179 O191 1.272 . S
O180 Sm160 2.543 1_554 S
O180 C162 1.261 . S
O181 Sm160 2.450 1_554 S
O181 C162 1.242 . S
O182 Sm160 2.681 . S
O182 Sm161 2.386 1_556 S
O182 C169 1.271 . S
O183 Sm160 2.464 . S
O183 C169 1.251 . S
O184 Sm160 2.396 1_554 S
O184 C170 1.252 . S
O185 Sm161 2.408 . S
O185 C170 1.272 . S
O186 Sm161 2.543 1_556 S
O186 C171 1.261 . S
O187 Sm161 2.450 1_556 S
O187 C171 1.242 . S
O188 Sm160 2.386 1_554 S
O188 Sm161 2.681 . S
O188 C178 1.271 . S
O189 Sm161 2.464 . S
O189 C178 1.251 . S
O190 Sm161 2.396 1_556 S
O190 C179 1.252 . S
O191 Sm160 2.408 . S
O191 C179 1.272 . S
H192 C164 0.930 . S
H193 C165 0.929 . S
H194 C167 0.930 . S
H195 C168 0.929 . S
H196 C173 0.930 . S
H197 C174 0.929 . S
H198 C176 0.930 . S
H199 C177 0.929 . S
Sm200 C202 2.846 1_556 S
Sm200 O220 2.543 1_556 S
Sm200 O221 2.450 1_556 S
Sm200 O222 2.681 . S
Sm200 O223 2.464 . S
Sm200 O224 2.396 1_556 S
Sm200 O228 2.386 1_556 S
Sm200 O231 2.408 . S
Sm201 C211 2.846 1_554 S
Sm201 O222 2.386 1_554 S
Sm201 O225 2.408 . S
Sm201 O226 2.543 1_554 S
Sm201 O227 2.450 1_554 S
Sm201 O228 2.681 . S
Sm201 O229 2.464 . S
Sm201 O230 2.396 1_554 S
C202 Sm200 2.846 1_554 S
C202 C203 1.506 . S
C202 O220 1.261 . S
C202 O221 1.242 . S
C203 C202 1.506 . S
C203 C204 1.358 . S
C203 C208 1.382 . S
C204 C203 1.358 . S
C204 C205 1.385 . S
C204 H232 0.930 . S
C205 C204 1.385 . S
C205 C206 1.395 . S
C205 H233 0.929 . S
C206 C205 1.395 . S
C206 C207 1.335 . S
C207 C206 1.335 . S
C207 C208 1.398 . S
C207 H234 0.930 . S
C208 C203 1.382 . S
C208 C207 1.398 . S
C208 H235 0.929 . S
C209 O222 1.271 . S
C209 O223 1.251 . S
C210 O224 1.252 . S
C210 O225 1.272 . S
C211 Sm201 2.846 1_556 S
C211 C212 1.506 . S
C211 O226 1.261 . S
C211 O227 1.242 . S
C212 C211 1.506 . S
C212 C213 1.358 . S
C212 C217 1.382 . S
C213 C212 1.358 . S
C213 C214 1.385 . S
C213 H236 0.930 . S
C214 C213 1.385 . S
C214 C215 1.395 . S
C214 H237 0.929 . S
C215 C214 1.395 . S
C215 C216 1.335 . S
C216 C215 1.335 . S
C216 C217 1.398 . S
C216 H238 0.930 . S
C217 C212 1.382 . S
C217 C216 1.398 . S
C217 H239 0.929 . S
C218 O228 1.271 . S
C218 O229 1.251 . S
C219 O230 1.252 . S
C219 O231 1.272 . S
O220 Sm200 2.543 1_554 S
O220 C202 1.261 . S
O221 Sm200 2.450 1_554 S
O221 C202 1.242 . S
O222 Sm200 2.681 . S
O222 Sm201 2.386 1_556 S
O222 C209 1.271 . S
O223 Sm200 2.464 . S
O223 C209 1.251 . S
O224 Sm200 2.396 1_554 S
O224 C210 1.252 . S
O225 Sm201 2.408 . S
O225 C210 1.272 . S
O226 Sm201 2.543 1_556 S
O226 C211 1.261 . S
O227 Sm201 2.450 1_556 S
O227 C211 1.242 . S
O228 Sm200 2.386 1_554 S
O228 Sm201 2.681 . S
O228 C218 1.271 . S
O229 Sm201 2.464 . S
O229 C218 1.251 . S
O230 Sm201 2.396 1_556 S
O230 C219 1.252 . S
O231 Sm200 2.408 . S
O231 C219 1.272 . S
H232 C204 0.930 . S
H233 C205 0.929 . S
H234 C207 0.930 . S
H235 C208 0.929 . S
H236 C213 0.930 . S
H237 C214 0.929 . S
H238 C216 0.930 . S
H239 C217 0.929 . S
Sm240 C242 2.846 1_556 S
Sm240 O260 2.543 1_556 S
Sm240 O261 2.450 1_556 S
Sm240 O262 2.681 . S
Sm240 O263 2.464 . S
Sm240 O264 2.396 1_556 S
Sm240 O268 2.386 1_556 S
Sm240 O271 2.408 . S
Sm241 C251 2.846 1_554 S
Sm241 O262 2.386 1_554 S
Sm241 O265 2.408 . S
Sm241 O266 2.543 1_554 S
Sm241 O267 2.450 1_554 S
Sm241 O268 2.681 . S
Sm241 O269 2.464 . S
Sm241 O270 2.396 1_554 S
C242 Sm240 2.846 1_554 S
C242 C243 1.506 . S
C242 O260 1.261 . S
C242 O261 1.242 . S
C243 C242 1.506 . S
C243 C244 1.358 . S
C243 C248 1.382 . S
C244 C243 1.358 . S
C244 C245 1.385 . S
C244 H272 0.930 . S
C245 C244 1.385 . S
C245 C246 1.395 . S
C245 H273 0.929 . S
C246 C245 1.395 . S
C246 C247 1.335 . S
C247 C246 1.335 . S
C247 C248 1.398 . S
C247 H274 0.930 . S
C248 C243 1.382 . S
C248 C247 1.398 . S
C248 H275 0.929 . S
C249 O262 1.271 . S
C249 O263 1.251 . S
C250 O264 1.252 . S
C250 O265 1.272 . S
C251 Sm241 2.846 1_556 S
C251 C252 1.506 . S
C251 O266 1.261 . S
C251 O267 1.242 . S
C252 C251 1.506 . S
C252 C253 1.358 . S
C252 C257 1.382 . S
C253 C252 1.358 . S
C253 C254 1.385 . S
C253 H276 0.930 . S
C254 C253 1.385 . S
C254 C255 1.395 . S
C254 H277 0.929 . S
C255 C254 1.395 . S
C255 C256 1.335 . S
C256 C255 1.335 . S
C256 C257 1.398 . S
C256 H278 0.930 . S
C257 C252 1.382 . S
C257 C256 1.398 . S
C257 H279 0.929 . S
C258 O268 1.271 . S
C258 O269 1.251 . S
C259 O270 1.252 . S
C259 O271 1.272 . S
O260 Sm240 2.543 1_554 S
O260 C242 1.261 . S
O261 Sm240 2.450 1_554 S
O261 C242 1.242 . S
O262 Sm240 2.681 . S
O262 Sm241 2.386 1_556 S
O262 C249 1.271 . S
O263 Sm240 2.464 . S
O263 C249 1.251 . S
O264 Sm240 2.396 1_554 S
O264 C250 1.252 . S
O265 Sm241 2.408 . S
O265 C250 1.272 . S
O266 Sm241 2.543 1_556 S
O266 C251 1.261 . S
O267 Sm241 2.450 1_556 S
O267 C251 1.242 . S
O268 Sm240 2.386 1_554 S
O268 Sm241 2.681 . S
O268 C258 1.271 . S
O269 Sm241 2.464 . S
O269 C258 1.251 . S
O270 Sm241 2.396 1_556 S
O270 C259 1.252 . S
O271 Sm240 2.408 . S
O271 C259 1.272 . S
H272 C244 0.930 . S
H273 C245 0.929 . S
H274 C247 0.930 . S
H275 C248 0.929 . S
H276 C253 0.930 . S
H277 C254 0.929 . S
H278 C256 0.930 . S
H279 C257 0.929 . S
Sm280 C282 2.846 1_556 S
Sm280 O300 2.543 1_556 S
Sm280 O301 2.450 1_556 S
Sm280 O302 2.681 . S
Sm280 O303 2.464 . S
Sm280 O304 2.396 1_556 S
Sm280 O308 2.386 1_556 S
Sm280 O311 2.408 . S
Sm281 C291 2.846 1_554 S
Sm281 O302 2.386 1_554 S
Sm281 O305 2.408 . S
Sm281 O306 2.543 1_554 S
Sm281 O307 2.450 1_554 S
Sm281 O308 2.681 . S
Sm281 O309 2.464 . S
Sm281 O310 2.396 1_554 S
C282 Sm280 2.846 1_554 S
C282 C283 1.506 . S
C282 O300 1.261 . S
C282 O301 1.242 . S
C283 C282 1.506 . S
C283 C284 1.358 . S
C283 C288 1.382 . S
C284 C283 1.358 . S
C284 C285 1.385 . S
C284 H312 0.930 . S
C285 C284 1.385 . S
C285 C286 1.395 . S
C285 H313 0.929 . S
C286 C285 1.395 . S
C286 C287 1.335 . S
C287 C286 1.335 . S
C287 C288 1.398 . S
C287 H314 0.930 . S
C288 C283 1.382 . S
C288 C287 1.398 . S
C288 H315 0.929 . S
C289 O302 1.271 . S
C289 O303 1.251 . S
C290 O304 1.252 . S
C290 O305 1.272 . S
C291 Sm281 2.846 1_556 S
C291 C292 1.506 . S
C291 O306 1.261 . S
C291 O307 1.242 . S
C292 C291 1.506 . S
C292 C293 1.358 . S
C292 C297 1.382 . S
C293 C292 1.358 . S
C293 C294 1.385 . S
C293 H316 0.930 . S
C294 C293 1.385 . S
C294 C295 1.395 . S
C294 H317 0.929 . S
C295 C294 1.395 . S
C295 C296 1.335 . S
C296 C295 1.335 . S
C296 C297 1.398 . S
C296 H318 0.930 . S
C297 C292 1.382 . S
C297 C296 1.398 . S
C297 H319 0.929 . S
C298 O308 1.271 . S
C298 O309 1.251 . S
C299 O310 1.252 . S
C299 O311 1.272 . S
O300 Sm280 2.543 1_554 S
O300 C282 1.261 . S
O301 Sm280 2.450 1_554 S
O301 C282 1.242 . S
O302 Sm280 2.681 . S
O302 Sm281 2.386 1_556 S
O302 C289 1.271 . S
O303 Sm280 2.464 . S
O303 C289 1.251 . S
O304 Sm280 2.396 1_554 S
O304 C290 1.252 . S
O305 Sm281 2.408 . S
O305 C290 1.272 . S
O306 Sm281 2.543 1_556 S
O306 C291 1.261 . S
O307 Sm281 2.450 1_556 S
O307 C291 1.242 . S
O308 Sm280 2.386 1_554 S
O308 Sm281 2.681 . S
O308 C298 1.271 . S
O309 Sm281 2.464 . S
O309 C298 1.251 . S
O310 Sm281 2.396 1_556 S
O310 C299 1.252 . S
O311 Sm280 2.408 . S
O311 C299 1.272 . S
H312 C284 0.930 . S
H313 C285 0.929 . S
H314 C287 0.930 . S
H315 C288 0.929 . S
H316 C293 0.930 . S
H317 C294 0.929 . S
H318 C296 0.930 . S
H319 C297 0.929 . S
H320 C328 0.950 . S
H321 C333 0.950 . S
H322 C330 0.950 . S
H323 C332 0.950 . S
H324 C334 0.950 . S
H325 C336 0.950 . S
H326 C338 0.950 . S
H327 C339 0.950 . S
C328 H320 0.950 . S
C328 C329 1.386 . S
C328 C330 1.391 . S
C329 C328 1.386 . S
C329 C333 1.393 . S
C330 H322 0.950 . S
C330 C328 1.391 . S
C330 C331 1.400 . S
C331 C330 1.400 . S
C331 C332 1.398 . S
C331 C337 1.491 . S
C332 H323 0.950 . S
C332 C331 1.398 . S
C332 C333 1.391 . S
C333 H321 0.950 . S
C333 C329 1.393 . S
C333 C332 1.391 . S
C334 H324 0.950 . S
C334 C335 1.386 . S
C334 C336 1.391 . S
C335 C334 1.386 . S
C335 C339 1.393 . S
C336 H325 0.950 . S
C336 C334 1.391 . S
C336 C337 1.400 . S
C337 C331 1.491 . S
C337 C336 1.400 . S
C337 C338 1.398 . S
C338 H326 0.950 . S
C338 C337 1.398 . S
C338 C339 1.391 . S
C339 H327 0.950 . S
C339 C335 1.393 . S
C339 C338 1.391 . S
H340 C348 0.950 . S
H341 C353 0.950 . S
H342 C350 0.950 . S
H343 C352 0.950 . S
H344 C354 0.950 . S
H345 C356 0.950 . S
H346 C358 0.950 . S
H347 C359 0.950 . S
C348 H340 0.950 . S
C348 C349 1.386 . S
C348 C350 1.391 . S
C349 C348 1.386 . S
C349 C353 1.393 . S
C350 H342 0.950 . S
C350 C348 1.391 . S
C350 C351 1.400 . S
C351 C350 1.400 . S
C351 C352 1.398 . S
C351 C357 1.491 . S
C352 H343 0.950 . S
C352 C351 1.398 . S
C352 C353 1.391 . S
C353 H341 0.950 . S
C353 C349 1.393 . S
C353 C352 1.391 . S
C354 H344 0.950 . S
C354 C355 1.386 . S
C354 C356 1.391 . S
C355 C354 1.386 . S
C355 C359 1.393 . S
C356 H345 0.950 . S
C356 C354 1.391 . S
C356 C357 1.400 . S
C357 C351 1.491 . S
C357 C356 1.400 . S
C357 C358 1.398 . S
C358 H346 0.950 . S
C358 C357 1.398 . S
C358 C359 1.391 . S
C359 H347 0.950 . S
C359 C355 1.393 . S
C359 C358 1.391 . S
H360 C368 0.950 . S
H361 C373 0.950 . S
H362 C370 0.950 . S
H363 C372 0.950 . S
H364 C374 0.950 . S
H365 C376 0.950 . S
H366 C378 0.950 . S
H367 C379 0.950 . S
C368 H360 0.950 . S
C368 C369 1.386 . S
C368 C370 1.391 . S
C369 C368 1.386 . S
C369 C373 1.393 . S
C370 H362 0.950 . S
C370 C368 1.391 . S
C370 C371 1.400 . S
C371 C370 1.400 . S
C371 C372 1.398 . S
C371 C377 1.491 . S
C372 H363 0.950 . S
C372 C371 1.398 . S
C372 C373 1.391 . S
C373 H361 0.950 . S
C373 C369 1.393 . S
C373 C372 1.391 . S
C374 H364 0.950 . S
C374 C375 1.386 . S
C374 C376 1.391 . S
C375 C374 1.386 . S
C375 C379 1.393 . S
C376 H365 0.950 . S
C376 C374 1.391 . S
C376 C377 1.400 . S
C377 C371 1.491 . S
C377 C376 1.400 . S
C377 C378 1.398 . S
C378 H366 0.950 . S
C378 C377 1.398 . S
C378 C379 1.391 . S
C379 H367 0.950 . S
C379 C375 1.393 . S
C379 C378 1.391 . S
H380 C388 0.950 . S
H381 C393 0.950 . S
H382 C390 0.950 . S
H383 C392 0.950 . S
H384 C394 0.950 . S
H385 C396 0.950 . S
H386 C398 0.950 . S
H387 C399 0.950 . S
C388 H380 0.950 . S
C388 C389 1.386 . S
C388 C390 1.391 . S
C389 C388 1.386 . S
C389 C393 1.393 . S
C390 H382 0.950 . S
C390 C388 1.391 . S
C390 C391 1.400 . S
C391 C390 1.400 . S
C391 C392 1.398 . S
C391 C397 1.491 . S
C392 H383 0.950 . S
C392 C391 1.398 . S
C392 C393 1.391 . S
C393 H381 0.950 . S
C393 C389 1.393 . S
C393 C392 1.391 . S
C394 H384 0.950 . S
C394 C395 1.386 . S
C394 C396 1.391 . S
C395 C394 1.386 . S
C395 C399 1.393 . S
C396 H385 0.950 . S
C396 C394 1.391 . S
C396 C397 1.400 . S
C397 C391 1.491 . S
C397 C396 1.400 . S
C397 C398 1.398 . S
C398 H386 0.950 . S
C398 C397 1.398 . S
C398 C399 1.391 . S
C399 H387 0.950 . S
C399 C395 1.393 . S
C399 C398 1.391 . S
H400 C408 0.950 . S
H401 C413 0.950 . S
H402 C410 0.950 . S
H403 C412 0.950 . S
H404 C414 0.950 . S
H405 C416 0.950 . S
H406 C418 0.950 . S
H407 C419 0.950 . S
C408 H400 0.950 . S
C408 C409 1.386 . S
C408 C410 1.391 . S
C409 C408 1.386 . S
C409 C413 1.393 . S
C410 H402 0.950 . S
C410 C408 1.391 . S
C410 C411 1.400 . S
C411 C410 1.400 . S
C411 C412 1.398 . S
C411 C417 1.491 1_565 S
C412 H403 0.950 . S
C412 C411 1.398 . S
C412 C413 1.391 . S
C413 H401 0.950 . S
C413 C409 1.393 . S
C413 C412 1.391 . S
C414 H404 0.950 . S
C414 C415 1.386 . S
C414 C416 1.391 . S
C415 C414 1.386 . S
C415 C419 1.393 . S
C416 H405 0.950 . S
C416 C414 1.391 . S
C416 C417 1.400 . S
C417 C411 1.491 1_545 S
C417 C416 1.400 . S
C417 C418 1.398 . S
C418 H406 0.950 . S
C418 C417 1.398 . S
C418 C419 1.391 . S
C419 H407 0.950 . S
C419 C415 1.393 . S
C419 C418 1.391 . S
H420 C428 0.950 . S
H421 C433 0.950 . S
H422 C430 0.950 . S
H423 C432 0.950 . S
H424 C434 0.950 . S
H425 C436 0.950 . S
H426 C438 0.950 . S
H427 C439 0.950 . S
C428 H420 0.950 . S
C428 C429 1.386 . S
C428 C430 1.391 . S
C429 C428 1.386 . S
C429 C433 1.393 . S
C430 H422 0.950 . S
C430 C428 1.391 . S
C430 C431 1.400 . S
C431 C430 1.400 . S
C431 C432 1.398 . S
C431 C437 1.491 . S
C432 H423 0.950 . S
C432 C431 1.398 . S
C432 C433 1.391 . S
C433 H421 0.950 . S
C433 C429 1.393 . S
C433 C432 1.391 . S
C434 H424 0.950 . S
C434 C435 1.386 . S
C434 C436 1.391 . S
C435 C434 1.386 . S
C435 C439 1.393 . S
C436 H425 0.950 . S
C436 C434 1.391 . S
C436 C437 1.400 . S
C437 C431 1.491 . S
C437 C436 1.400 . S
C437 C438 1.398 . S
C438 H426 0.950 . S
C438 C437 1.398 . S
C438 C439 1.391 . S
C439 H427 0.950 . S
C439 C435 1.393 . S
C439 C438 1.391 . S
H440 C448 0.950 . S
H441 C453 0.950 . S
H442 C450 0.950 . S
H443 C452 0.950 . S
H444 C454 0.950 . S
H445 C456 0.950 . S
H446 C458 0.950 . S
H447 C459 0.950 . S
C448 H440 0.950 . S
C448 C449 1.386 . S
C448 C450 1.391 . S
C449 C448 1.386 . S
C449 C453 1.393 . S
C450 H442 0.950 . S
C450 C448 1.391 . S
C450 C451 1.400 . S
C451 C450 1.400 . S
C451 C452 1.398 . S
C451 C457 1.491 1_565 S
C452 H443 0.950 . S
C452 C451 1.398 . S
C452 C453 1.391 . S
C453 H441 0.950 . S
C453 C449 1.393 . S
C453 C452 1.391 . S
C454 H444 0.950 . S
C454 C455 1.386 . S
C454 C456 1.391 . S
C455 C454 1.386 . S
C455 C459 1.393 . S
C456 H445 0.950 . S
C456 C454 1.391 . S
C456 C457 1.400 . S
C457 C451 1.491 1_545 S
C457 C456 1.400 . S
C457 C458 1.398 . S
C458 H446 0.950 . S
C458 C457 1.398 . S
C458 C459 1.391 . S
C459 H447 0.950 . S
C459 C455 1.393 . S
C459 C458 1.391 . S
H460 C468 0.950 . S
H461 C473 0.950 . S
H462 C470 0.950 . S
H463 C472 0.950 . S
H464 C474 0.950 . S
H465 C476 0.950 . S
H466 C478 0.950 . S
H467 C479 0.950 . S
C468 H460 0.950 . S
C468 C469 1.386 . S
C468 C470 1.391 . S
C469 C468 1.386 . S
C469 C473 1.393 . S
C470 H462 0.950 . S
C470 C468 1.391 . S
C470 C471 1.400 . S
C471 C470 1.400 . S
C471 C472 1.398 . S
C471 C477 1.491 . S
C472 H463 0.950 . S
C472 C471 1.398 . S
C472 C473 1.391 . S
C473 H461 0.950 . S
C473 C469 1.393 . S
C473 C472 1.391 . S
C474 H464 0.950 . S
C474 C475 1.386 . S
C474 C476 1.391 . S
C475 C474 1.386 . S
C475 C479 1.393 . S
C476 H465 0.950 . S
C476 C474 1.391 . S
C476 C477 1.400 . S
C477 C471 1.491 . S
C477 C476 1.400 . S
C477 C478 1.398 . S
C478 H466 0.950 . S
C478 C477 1.398 . S
C478 C479 1.391 . S
C479 H467 0.950 . S
C479 C475 1.393 . S
C479 C478 1.391 . S
H480 C488 0.950 . S
H481 C493 0.950 . S
H482 C490 0.950 . S
H483 C492 0.950 . S
H484 C494 0.950 . S
H485 C496 0.950 . S
H486 C498 0.950 . S
H487 C499 0.950 . S
C488 H480 0.950 . S
C488 C489 1.386 1_554 S
C488 C490 1.391 . S
C489 C488 1.386 1_556 S
C489 C493 1.393 . S
C490 H482 0.950 . S
C490 C488 1.391 . S
C490 C491 1.400 1_554 S
C491 C490 1.400 1_556 S
C491 C492 1.398 . S
C491 C497 1.491 . S
C492 H483 0.950 . S
C492 C491 1.398 . S
C492 C493 1.391 . S
C493 H481 0.950 . S
C493 C489 1.393 . S
C493 C492 1.391 . S
C494 H484 0.950 . S
C494 C495 1.386 . S
C494 C496 1.391 . S
C495 C494 1.386 . S
C495 C499 1.393 1_556 S
C496 H485 0.950 . S
C496 C494 1.391 . S
C496 C497 1.400 . S
C497 C491 1.491 . S
C497 C496 1.400 . S
C497 C498 1.398 1_556 S
C498 H486 0.950 . S
C498 C497 1.398 1_554 S
C498 C499 1.391 . S
C499 H487 0.950 . S
C499 C495 1.393 1_554 S
C499 C498 1.391 . S
H500 C508 0.950 . S
H501 C513 0.950 . S
H502 C510 0.950 . S
H503 C512 0.950 . S
H504 C514 0.950 . S
H505 C516 0.950 . S
H506 C518 0.950 . S
H507 C519 0.950 . S
C508 H500 0.950 . S
C508 C509 1.386 . S
C508 C510 1.391 . S
C509 C508 1.386 . S
C509 C513 1.393 . S
C510 H502 0.950 . S
C510 C508 1.391 . S
C510 C511 1.400 . S
C511 C510 1.400 . S
C511 C512 1.398 . S
C511 C517 1.491 1_565 S
C512 H503 0.950 . S
C512 C511 1.398 . S
C512 C513 1.391 . S
C513 H501 0.950 . S
C513 C509 1.393 . S
C513 C512 1.391 . S
C514 H504 0.950 . S
C514 C515 1.386 1_554 S
C514 C516 1.391 . S
C515 C514 1.386 1_556 S
C515 C519 1.393 . S
C516 H505 0.950 . S
C516 C514 1.391 . S
C516 C517 1.400 1_554 S
C517 C511 1.491 1_545 S
C517 C516 1.400 1_556 S
C517 C518 1.398 . S
C518 H506 0.950 . S
C518 C517 1.398 . S
C518 C519 1.391 . S
C519 H507 0.950 . S
C519 C515 1.393 . S
C519 C518 1.391 . S
H520 C528 0.950 . S
H521 C533 0.950 . S
H522 C530 0.950 . S
H523 C532 0.950 . S
H524 C534 0.950 . S
H525 C536 0.950 . S
H526 C538 0.950 . S
H527 C539 0.950 . S
C528 H520 0.950 . S
C528 C529 1.386 1_556 S
C528 C530 1.391 . S
C529 C528 1.386 1_554 S
C529 C533 1.393 . S
C530 H522 0.950 . S
C530 C528 1.391 . S
C530 C531 1.400 1_556 S
C531 C530 1.400 1_554 S
C531 C532 1.398 . S
C531 C537 1.491 . S
C532 H523 0.950 . S
C532 C531 1.398 . S
C532 C533 1.391 . S
C533 H521 0.950 . S
C533 C529 1.393 . S
C533 C532 1.391 . S
C534 H524 0.950 . S
C534 C535 1.386 . S
C534 C536 1.391 . S
C535 C534 1.386 . S
C535 C539 1.393 1_554 S
C536 H525 0.950 . S
C536 C534 1.391 . S
C536 C537 1.400 . S
C537 C531 1.491 . S
C537 C536 1.400 . S
C537 C538 1.398 1_554 S
C538 H526 0.950 . S
C538 C537 1.398 1_556 S
C538 C539 1.391 . S
C539 H527 0.950 . S
C539 C535 1.393 1_556 S
C539 C538 1.391 . S
H540 C548 0.950 . S
H541 C553 0.950 . S
H542 C550 0.950 . S
H543 C552 0.950 . S
H544 C554 0.950 . S
H545 C556 0.950 . S
H546 C558 0.950 . S
H547 C559 0.950 . S
C548 H540 0.950 . S
C548 C549 1.386 . S
C548 C550 1.391 . S
C549 C548 1.386 . S
C549 C553 1.393 1_554 S
C550 H542 0.950 . S
C550 C548 1.391 . S
C550 C551 1.400 . S
C551 C550 1.400 . S
C551 C552 1.398 1_554 S
C551 C557 1.491 1_545 S
C552 H543 0.950 . S
C552 C551 1.398 1_556 S
C552 C553 1.391 . S
C553 H541 0.950 . S
C553 C549 1.393 1_556 S
C553 C552 1.391 . S
C554 H544 0.950 . S
C554 C555 1.386 1_556 S
C554 C556 1.391 . S
C555 C554 1.386 1_554 S
C555 C559 1.393 . S
C556 H545 0.950 . S
C556 C554 1.391 . S
C556 C557 1.400 1_556 S
C557 C551 1.491 1_565 S
C557 C556 1.400 1_554 S
C557 C558 1.398 . S
C558 H546 0.950 . S
C558 C557 1.398 . S
C558 C559 1.391 . S
C559 H547 0.950 . S
C559 C555 1.393 . S
C559 C558 1.391 . S
H560 C568 0.950 . S
H561 C573 0.950 . S
H562 C570 0.950 . S
H563 C572 0.950 1_556 S
H564 C574 0.950 . S
H565 C576 0.950 . S
H566 C578 0.950 . S
H567 C579 0.950 . S
C568 H560 0.950 . S
C568 C569 1.386 . S
C568 C570 1.391 . S
C569 C568 1.386 . S
C569 C573 1.393 . S
C570 H562 0.950 . S
C570 C568 1.391 . S
C570 C571 1.400 1_554 S
C571 C570 1.400 1_556 S
C571 C572 1.398 1_556 S
C571 C577 1.491 . S
C572 H563 0.950 1_554 S
C572 C571 1.398 1_554 S
C572 C573 1.391 . S
C573 H561 0.950 . S
C573 C569 1.393 . S
C573 C572 1.391 . S
C574 H564 0.950 . S
C574 C575 1.386 . S
C574 C576 1.391 . S
C575 C574 1.386 . S
C575 C579 1.393 . S
C576 H565 0.950 . S
C576 C574 1.391 . S
C576 C577 1.400 . S
C577 C571 1.491 . S
C577 C576 1.400 . S
C577 C578 1.398 . S
C578 H566 0.950 . S
C578 C577 1.398 . S
C578 C579 1.391 . S
C579 H567 0.950 . S
C579 C575 1.393 . S
C579 C578 1.391 . S
H580 C588 0.950 . S
H581 C593 0.950 . S
H582 C590 0.950 . S
H583 C592 0.950 1_556 S
H584 C594 0.950 . S
H585 C596 0.950 . S
H586 C598 0.950 . S
H587 C599 0.950 . S
C588 H580 0.950 . S
C588 C589 1.386 . S
C588 C590 1.391 . S
C589 C588 1.386 . S
C589 C593 1.393 . S
C590 H582 0.950 . S
C590 C588 1.391 . S
C590 C591 1.400 1_554 S
C591 C590 1.400 1_556 S
C591 C592 1.398 1_556 S
C591 C597 1.491 . S
C592 H583 0.950 1_554 S
C592 C591 1.398 1_554 S
C592 C593 1.391 . S
C593 H581 0.950 . S
C593 C589 1.393 . S
C593 C592 1.391 . S
C594 H584 0.950 . S
C594 C595 1.386 . S
C594 C596 1.391 . S
C595 C594 1.386 . S
C595 C599 1.393 . S
C596 H585 0.950 . S
C596 C594 1.391 . S
C596 C597 1.400 . S
C597 C591 1.491 . S
C597 C596 1.400 . S
C597 C598 1.398 . S
C598 H586 0.950 . S
C598 C597 1.398 . S
C598 C599 1.391 . S
C599 H587 0.950 . S
C599 C595 1.393 . S
C599 C598 1.391 . S
H600 C608 0.950 . S
H601 C613 0.950 . S
H602 C610 0.950 . S
H603 C612 0.950 . S
H604 C614 0.950 . S
H605 C616 0.950 1_554 S
H606 C618 0.950 . S
H607 C619 0.950 . S
C608 H600 0.950 . S
C608 C609 1.386 . S
C608 C610 1.391 . S
C609 C608 1.386 . S
C609 C613 1.393 . S
C610 H602 0.950 . S
C610 C608 1.391 . S
C610 C611 1.400 . S
C611 C610 1.400 . S
C611 C612 1.398 . S
C611 C617 1.491 . S
C612 H603 0.950 . S
C612 C611 1.398 . S
C612 C613 1.391 . S
C613 H601 0.950 . S
C613 C609 1.393 . S
C613 C612 1.391 . S
C614 H604 0.950 . S
C614 C615 1.386 . S
C614 C616 1.391 . S
C615 C614 1.386 . S
C615 C619 1.393 . S
C616 H605 0.950 1_556 S
C616 C614 1.391 . S
C616 C617 1.400 1_556 S
C617 C611 1.491 . S
C617 C616 1.400 1_554 S
C617 C618 1.398 1_554 S
C618 H606 0.950 . S
C618 C617 1.398 1_556 S
C618 C619 1.391 . S
C619 H607 0.950 . S
C619 C615 1.393 . S
C619 C618 1.391 . S
H620 C628 0.950 . S
H621 C633 0.950 . S
H622 C630 0.950 1_554 S
H623 C632 0.950 . S
H624 C634 0.950 . S
H625 C636 0.950 . S
H626 C638 0.950 . S
H627 C639 0.950 . S
C628 H620 0.950 . S
C628 C629 1.386 . S
C628 C630 1.391 . S
C629 C628 1.386 . S
C629 C633 1.393 . S
C630 H622 0.950 1_556 S
C630 C628 1.391 . S
C630 C631 1.400 1_556 S
C631 C630 1.400 1_554 S
C631 C632 1.398 1_554 S
C631 C637 1.491 . S
C632 H623 0.950 . S
C632 C631 1.398 1_556 S
C632 C633 1.391 . S
C633 H621 0.950 . S
C633 C629 1.393 . S
C633 C632 1.391 . S
C634 H624 0.950 . S
C634 C635 1.386 . S
C634 C636 1.391 . S
C635 C634 1.386 . S
C635 C639 1.393 . S
C636 H625 0.950 . S
C636 C634 1.391 . S
C636 C637 1.400 . S
C637 C631 1.491 . S
C637 C636 1.400 . S
C637 C638 1.398 . S
C638 H626 0.950 . S
C638 C637 1.398 . S
C638 C639 1.391 . S
C639 H627 0.950 . S
C639 C635 1.393 . S
C639 C638 1.391 . S
H640 C648 0.950 . S
H641 C653 0.950 . S
H642 C650 0.950 . S
H643 C652 0.950 . S
H644 C654 0.950 . S
H645 C656 0.950 . S
H646 C658 0.950 . S
H647 C659 0.950 . S
C648 H640 0.950 . S
C648 C649 1.386 . S
C648 C650 1.391 . S
C649 C648 1.386 . S
C649 C653 1.393 . S
C650 H642 0.950 . S
C650 C648 1.391 . S
C650 C651 1.400 . S
C651 C650 1.400 . S
C651 C652 1.398 . S
C651 C657 1.491 . S
C652 H643 0.950 . S
C652 C651 1.398 . S
C652 C653 1.391 . S
C653 H641 0.950 . S
C653 C649 1.393 . S
C653 C652 1.391 . S
C654 H644 0.950 . S
C654 C655 1.386 . S
C654 C656 1.391 . S
C655 C654 1.386 . S
C655 C659 1.393 . S
C656 H645 0.950 . S
C656 C654 1.391 . S
C656 C657 1.400 . S
C657 C651 1.491 . S
C657 C656 1.400 . S
C657 C658 1.398 . S
C658 H646 0.950 . S
C658 C657 1.398 . S
C658 C659 1.391 . S
C659 H647 0.950 . S
C659 C655 1.393 . S
C659 C658 1.391 . S
H660 C668 0.950 . S
H661 C673 0.950 . S
H662 C670 0.950 . S
H663 C672 0.950 . S
H664 C674 0.950 . S
H665 C676 0.950 . S
H666 C678 0.950 . S
H667 C679 0.950 . S
C668 H660 0.950 . S
C668 C669 1.386 . S
C668 C670 1.391 . S
C669 C668 1.386 . S
C669 C673 1.393 . S
C670 H662 0.950 . S
C670 C668 1.391 . S
C670 C671 1.400 . S
C671 C670 1.400 . S
C671 C672 1.398 . S
C671 C677 1.491 . S
C672 H663 0.950 . S
C672 C671 1.398 . S
C672 C673 1.391 . S
C673 H661 0.950 . S
C673 C669 1.393 . S
C673 C672 1.391 . S
C674 H664 0.950 . S
C674 C675 1.386 . S
C674 C676 1.391 . S
C675 C674 1.386 . S
C675 C679 1.393 . S
C676 H665 0.950 . S
C676 C674 1.391 . S
C676 C677 1.400 . S
C677 C671 1.491 . S
C677 C676 1.400 . S
C677 C678 1.398 . S
C678 H666 0.950 . S
C678 C677 1.398 . S
C678 C679 1.391 . S
C679 H667 0.950 . S
C679 C675 1.393 . S
C679 C678 1.391 . S
H680 C688 0.950 . S
H681 C693 0.950 . S
H682 C690 0.950 . S
H683 C692 0.950 . S
H684 C694 0.950 . S
H685 C696 0.950 . S
H686 C698 0.950 . S
H687 C699 0.950 . S
C688 H680 0.950 . S
C688 C689 1.386 . S
C688 C690 1.391 . S
C689 C688 1.386 . S
C689 C693 1.393 . S
C690 H682 0.950 . S
C690 C688 1.391 . S
C690 C691 1.400 . S
C691 C690 1.400 . S
C691 C692 1.398 . S
C691 C697 1.491 . S
C692 H683 0.950 . S
C692 C691 1.398 . S
C692 C693 1.391 . S
C693 H681 0.950 . S
C693 C689 1.393 . S
C693 C692 1.391 . S
C694 H684 0.950 . S
C694 C695 1.386 . S
C694 C696 1.391 . S
C695 C694 1.386 . S
C695 C699 1.393 . S
C696 H685 0.950 . S
C696 C694 1.391 . S
C696 C697 1.400 . S
C697 C691 1.491 . S
C697 C696 1.400 . S
C697 C698 1.398 . S
C698 H686 0.950 . S
C698 C697 1.398 . S
C698 C699 1.391 . S
C699 H687 0.950 . S
C699 C695 1.393 . S
C699 C698 1.391 . S
H700 C708 0.950 . S
H701 C713 0.950 . S
H702 C710 0.950 . S
H703 C712 0.950 . S
H704 C714 0.950 . S
H705 C716 0.950 . S
H706 C718 0.950 . S
H707 C719 0.950 . S
C708 H700 0.950 . S
C708 C709 1.386 . S
C708 C710 1.391 . S
C709 C708 1.386 . S
C709 C713 1.393 . S
C710 H702 0.950 . S
C710 C708 1.391 . S
C710 C711 1.400 . S
C711 C710 1.400 . S
C711 C712 1.398 . S
C711 C717 1.491 . S
C712 H703 0.950 . S
C712 C711 1.398 . S
C712 C713 1.391 . S
C713 H701 0.950 . S
C713 C709 1.393 . S
C713 C712 1.391 . S
C714 H704 0.950 . S
C714 C715 1.386 . S
C714 C716 1.391 . S
C715 C714 1.386 . S
C715 C719 1.393 . S
C716 H705 0.950 . S
C716 C714 1.391 . S
C716 C717 1.400 . S
C717 C711 1.491 . S
C717 C716 1.400 . S
C717 C718 1.398 . S
C718 H706 0.950 . S
C718 C717 1.398 . S
C718 C719 1.391 . S
C719 H707 0.950 . S
C719 C715 1.393 . S
C719 C718 1.391 . S
H720 C728 0.950 . S
H721 C733 0.950 . S
H722 C730 0.950 . S
H723 C732 0.950 . S
H724 C734 0.950 . S
H725 C736 0.950 . S
H726 C738 0.950 . S
H727 C739 0.950 . S
C728 H720 0.950 . S
C728 C729 1.386 . S
C728 C730 1.391 . S
C729 C728 1.386 . S
C729 C733 1.393 . S
C730 H722 0.950 . S
C730 C728 1.391 . S
C730 C731 1.400 . S
C731 C730 1.400 . S
C731 C732 1.398 . S
C731 C737 1.491 1_455 S
C732 H723 0.950 . S
C732 C731 1.398 . S
C732 C733 1.391 . S
C733 H721 0.950 . S
C733 C729 1.393 . S
C733 C732 1.391 . S
C734 H724 0.950 . S
C734 C735 1.386 . S
C734 C736 1.391 . S
C735 C734 1.386 . S
C735 C739 1.393 . S
C736 H725 0.950 . S
C736 C734 1.391 . S
C736 C737 1.400 . S
C737 C731 1.491 1_655 S
C737 C736 1.400 . S
C737 C738 1.398 . S
C738 H726 0.950 . S
C738 C737 1.398 . S
C738 C739 1.391 . S
C739 H727 0.950 . S
C739 C735 1.393 . S
C739 C738 1.391 . S
H740 C748 0.950 . S
H741 C753 0.950 . S
H742 C750 0.950 . S
H743 C752 0.950 . S
H744 C754 0.950 . S
H745 C756 0.950 . S
H746 C758 0.950 . S
H747 C759 0.950 . S
C748 H740 0.950 . S
C748 C749 1.386 . S
C748 C750 1.391 . S
C749 C748 1.386 . S
C749 C753 1.393 . S
C750 H742 0.950 . S
C750 C748 1.391 . S
C750 C751 1.400 . S
C751 C750 1.400 . S
C751 C752 1.398 . S
C751 C757 1.491 1_655 S
C752 H743 0.950 . S
C752 C751 1.398 . S
C752 C753 1.391 . S
C753 H741 0.950 . S
C753 C749 1.393 . S
C753 C752 1.391 . S
C754 H744 0.950 . S
C754 C755 1.386 . S
C754 C756 1.391 . S
C755 C754 1.386 . S
C755 C759 1.393 . S
C756 H745 0.950 . S
C756 C754 1.391 . S
C756 C757 1.400 . S
C757 C751 1.491 1_455 S
C757 C756 1.400 . S
C757 C758 1.398 . S
C758 H746 0.950 . S
C758 C757 1.398 . S
C758 C759 1.391 . S
C759 H747 0.950 . S
C759 C755 1.393 . S
C759 C758 1.391 . S
H760 C768 0.950 . S
H761 C773 0.950 . S
H762 C770 0.950 . S
H763 C772 0.950 . S
H764 C774 0.950 . S
H765 C776 0.950 . S
H766 C778 0.950 . S
H767 C779 0.950 . S
C768 H760 0.950 . S
C768 C769 1.386 . S
C768 C770 1.391 . S
C769 C768 1.386 . S
C769 C773 1.393 . S
C770 H762 0.950 . S
C770 C768 1.391 . S
C770 C771 1.400 . S
C771 C770 1.400 . S
C771 C772 1.398 . S
C771 C777 1.491 . S
C772 H763 0.950 . S
C772 C771 1.398 . S
C772 C773 1.391 . S
C773 H761 0.950 . S
C773 C769 1.393 . S
C773 C772 1.391 . S
C774 H764 0.950 . S
C774 C775 1.386 . S
C774 C776 1.391 . S
C775 C774 1.386 . S
C775 C779 1.393 . S
C776 H765 0.950 . S
C776 C774 1.391 . S
C776 C777 1.400 . S
C777 C771 1.491 . S
C777 C776 1.400 . S
C777 C778 1.398 . S
C778 H766 0.950 . S
C778 C777 1.398 . S
C778 C779 1.391 . S
C779 H767 0.950 . S
C779 C775 1.393 . S
C779 C778 1.391 . S
H780 C788 0.950 . S
H781 C793 0.950 . S
H782 C790 0.950 . S
H783 C792 0.950 . S
H784 C794 0.950 . S
H785 C796 0.950 . S
H786 C798 0.950 . S
H787 C799 0.950 . S
C788 H780 0.950 . S
C788 C789 1.386 . S
C788 C790 1.391 . S
C789 C788 1.386 . S
C789 C793 1.393 . S
C790 H782 0.950 . S
C790 C788 1.391 . S
C790 C791 1.400 . S
C791 C790 1.400 . S
C791 C792 1.398 . S
C791 C797 1.491 . S
C792 H783 0.950 . S
C792 C791 1.398 . S
C792 C793 1.391 . S
C793 H781 0.950 . S
C793 C789 1.393 . S
C793 C792 1.391 . S
C794 H784 0.950 . S
C794 C795 1.386 . S
C794 C796 1.391 . S
C795 C794 1.386 . S
C795 C799 1.393 . S
C796 H785 0.950 . S
C796 C794 1.391 . S
C796 C797 1.400 . S
C797 C791 1.491 . S
C797 C796 1.400 . S
C797 C798 1.398 . S
C798 H786 0.950 . S
C798 C797 1.398 . S
C798 C799 1.391 . S
C799 H787 0.950 . S
C799 C795 1.393 . S
C799 C798 1.391 . S
C329 C6 1.682 . S
C335 C295 1.681 . S
C349 C255 1.677 . S
C355 C46 1.677 . S
C369 C206 1.673 . S
C375 C95 1.672 . S
C389 C166 1.673 . S
C395 C135 1.672 . S
C409 C89 1.545 . S
C415 C9 1.564 . S
C429 C49 1.560 . S
C435 C129 1.544 . S
C449 C138 1.577 . S
C455 C58 1.559 . S
C469 C98 1.560 . S
C475 C18 1.542 . S
C489 C169 1.448 . S
C495 C249 1.445 . S
C509 C209 1.436 . S
C515 C289 1.441 . S
C529 C298 1.438 . S
C535 C218 1.434 . S
C549 C258 1.450 . S
C555 C178 1.448 . S
C569 C19 2.065 . S
C575 C10 2.065 . S
C589 C59 2.074 . S
C595 C50 2.074 . S
C609 C99 2.061 . S
C615 C90 2.061 . S
C629 C130 2.064 . S
C635 C139 2.064 . S
C649 C170 2.062 . S
C655 C179 2.062 . S
C669 C219 2.069 . S
C675 C210 2.069 . S
C689 C250 2.065 . S
C695 C259 2.065 . S
C709 C290 2.066 . S
C715 C299 2.066 . S
C729 C15 2.310 . S
C735 C55 2.321 . S
C749 C126 2.321 . S
C755 C86 2.311 . S
C769 C175 2.315 . S
C775 C215 2.319 . S
C789 C286 2.315 . S
C795 C246 2.321 . S
