# Generated by pormake.
# Topology ske, (6)-cn, num edge types: 1
# Building blocks:
#     Node 0, Type 0, BuildingBlock: KUMBOL_clean_sbu_1, # of connection points: 6
#     Node 1, Type 0, BuildingBlock: KUMBOL_clean_sbu_1, # of connection points: 6
#     Node 2, Type 0, BuildingBlock: KUMBOL_clean_sbu_1, # of connection points: 6
#     Node 3, Type 0, BuildingBlock: KUMBOL_clean_sbu_1, # of connection points: 6
#     Node 4, Type 0, BuildingBlock: KUMBOL_clean_sbu_1, # of connection points: 6
#     Node 5, Type 0, BuildingBlock: KUMBOL_clean_sbu_1, # of connection points: 6
#     Node 6, Type 0, BuildingBlock: KUMBOL_clean_sbu_1, # of connection points: 6
#     Node 7, Type 0, BuildingBlock: KUMBOL_clean_sbu_1, # of connection points: 6
#     Edge 8, Type (0, 0), BuildingBlock: UVAHIK_clean_linker_0, # of connection points: 2
#     Edge 9, Type (0, 0), BuildingBlock: UVAHIK_clean_linker_0, # of connection points: 2
#     Edge 10, Type (0, 0), BuildingBlock: UVAHIK_clean_linker_0, # of connection points: 2
#     Edge 11, Type (0, 0), BuildingBlock: UVAHIK_clean_linker_0, # of connection points: 2
#     Edge 12, Type (0, 0), BuildingBlock: UVAHIK_clean_linker_0, # of connection points: 2
#     Edge 13, Type (0, 0), BuildingBlock: UVAHIK_clean_linker_0, # of connection points: 2
#     Edge 14, Type (0, 0), BuildingBlock: UVAHIK_clean_linker_0, # of connection points: 2
#     Edge 15, Type (0, 0), BuildingBlock: UVAHIK_clean_linker_0, # of connection points: 2
#     Edge 16, Type (0, 0), BuildingBlock: UVAHIK_clean_linker_0, # of connection points: 2
#     Edge 17, Type (0, 0), BuildingBlock: UVAHIK_clean_linker_0, # of connection points: 2
#     Edge 18, Type (0, 0), BuildingBlock: UVAHIK_clean_linker_0, # of connection points: 2
#     Edge 19, Type (0, 0), BuildingBlock: UVAHIK_clean_linker_0, # of connection points: 2
#     Edge 20, Type (0, 0), BuildingBlock: UVAHIK_clean_linker_0, # of connection points: 2
#     Edge 21, Type (0, 0), BuildingBlock: UVAHIK_clean_linker_0, # of connection points: 2
#     Edge 22, Type (0, 0), BuildingBlock: UVAHIK_clean_linker_0, # of connection points: 2
#     Edge 23, Type (0, 0), BuildingBlock: UVAHIK_clean_linker_0, # of connection points: 2
#     Edge 24, Type (0, 0), BuildingBlock: UVAHIK_clean_linker_0, # of connection points: 2
#     Edge 25, Type (0, 0), BuildingBlock: UVAHIK_clean_linker_0, # of connection points: 2
#     Edge 26, Type (0, 0), BuildingBlock: UVAHIK_clean_linker_0, # of connection points: 2
#     Edge 27, Type (0, 0), BuildingBlock: UVAHIK_clean_linker_0, # of connection points: 2
#     Edge 28, Type (0, 0), BuildingBlock: UVAHIK_clean_linker_0, # of connection points: 2
#     Edge 29, Type (0, 0), BuildingBlock: UVAHIK_clean_linker_0, # of connection points: 2
#     Edge 30, Type (0, 0), BuildingBlock: UVAHIK_clean_linker_0, # of connection points: 2
#     Edge 31, Type (0, 0), BuildingBlock: UVAHIK_clean_linker_0, # of connection points: 2
# Relax obj value: 0.217
# Max RMSD: 0.228
# Mean RMSD: 0.227
data_MOF--net-ske--node1-KUMBOL_clean_sbu_1--edge1-UVAHIK_clean_linker_0
_symmetry_space_group_name_H-M    P1
_symmetry_Int_Tables_number       1
_symmetry_cell_setting            triclinic
loop_
_symmetry_equiv_pos_as_xyz
'x, y, z'
_cell_length_a     115.60315
_cell_length_b     38.798939
_cell_length_c     19.561572
_cell_angle_alpha  97.707145
_cell_angle_beta   89.950034
_cell_angle_gamma 90.027371
loop_
_atom_site_label
_atom_site_type_symbol
_atom_site_fract_x
_atom_site_fract_y
_atom_site_fract_z
_atom_type_partial_charge
C0 C 0.10295 0.22317 0.66643 0.0
C1 C 0.101 0.27279 0.75561 0.0
C2 C 0.10426 0.25868 0.68811 0.0
C3 C 0.09651 0.2509 0.80083 0.0
C4 C 0.09848 0.20115 0.71185 0.0
C5 C 0.09525 0.21522 0.77903 0.0
N6 N 0.10652 0.20997 0.6019 0.0
C7 C 0.10543 0.17537 0.5786 0.0
C8 C 0.09755 0.1655 0.68872 0.0
C9 C 0.101 0.1526 0.62172 0.0
Gd10 Gd 0.14867 0.25713 0.52043 0.0
Gd11 Gd 0.11395 0.25017 0.53406 0.0
N12 N 0.10903 0.27914 0.64397 0.0
C13 C 0.10238 0.30851 0.77586 0.0
C14 C 0.10979 0.31427 0.66244 0.0
C15 C 0.10666 0.32936 0.7288 0.0
H16 H 0.11254 0.33111 0.62625 0.0
H17 H 0.10744 0.35717 0.74338 0.0
H18 H 0.15267 0.17115 0.45914 0.0
H19 H 0.10777 0.16543 0.52624 0.0
H20 H 0.15604 0.1354 0.34792 0.0
H21 H 0.09998 0.32032 0.82727 0.0
H22 H 0.09402 0.26132 0.85293 0.0
H23 H 0.15538 0.33822 0.49798 0.0
H24 H 0.09416 0.14775 0.72212 0.0
H25 H 0.1002 0.12514 0.60316 0.0
H26 H 0.16463 0.21812 0.19404 0.0
H27 H 0.09184 0.19868 0.8147 0.0
H28 H 0.16644 0.33847 0.28899 0.0
H29 H 0.16222 0.37033 0.40457 0.0
N30 N 0.15556 0.28917 0.43546 0.0
C31 C 0.15808 0.271 0.37284 0.0
C32 C 0.15712 0.32429 0.44754 0.0
C33 C 0.16346 0.32432 0.32979 0.0
C34 C 0.16105 0.34242 0.3949 0.0
C35 C 0.162 0.28818 0.31808 0.0
H36 H 0.1671 0.28165 0.2105 0.0
N37 N 0.15287 0.21933 0.41797 0.0
C38 C 0.15641 0.23518 0.36335 0.0
C39 C 0.15837 0.17937 0.29291 0.0
C40 C 0.15905 0.21563 0.2991 0.0
C41 C 0.15352 0.18395 0.41389 0.0
C42 C 0.15587 0.16346 0.35104 0.0
O43 O 0.12496 0.23696 0.62305 0.0
O44 O 0.1409 0.2725 0.62691 0.0
O45 O 0.16277 0.22853 0.56035 0.0
O46 O 0.16482 0.28307 0.55423 0.0
O47 O 0.1215 0.30313 0.52076 0.0
O48 O 0.1399 0.3066 0.56898 0.0
O49 O 0.13731 0.27357 0.43521 0.0
O50 O 0.12182 0.23639 0.42778 0.0
O51 O 0.10026 0.28287 0.50194 0.0
O52 O 0.0974 0.22775 0.49948 0.0
O53 O 0.14053 0.20592 0.54081 0.0
O54 O 0.12337 0.20334 0.4803 0.0
C55 C 0.13316 0.25505 0.65766 0.0
C56 C 0.13063 0.32118 0.54578 0.0
C57 C 0.18158 0.24804 0.53829 0.0
C58 C 0.20252 0.24332 0.55343 0.0
C59 C 0.19396 0.23105 0.4392 0.0
C60 C 0.183 0.23802 0.46727 0.0
C61 C 0.20366 0.23365 0.4818 0.0
C62 C 0.19139 0.25085 0.58142 0.0
C63 C 0.16987 0.2548 0.56736 0.0
C64 C 0.1627 0.23272 0.24391 0.0
C65 C 0.16418 0.26888 0.2534 0.0
H66 H 0.16033 0.16342 0.24449 0.0
C67 C 0.1293 0.25544 0.39881 0.0
C68 C 0.13187 0.18813 0.50933 0.0
C69 C 0.08671 0.25595 0.4212 0.0
C70 C 0.06814 0.253 0.36099 0.0
C71 C 0.08621 0.25275 0.29668 0.0
C72 C 0.09252 0.25478 0.358 0.0
C73 C 0.07412 0.25179 0.29798 0.0
C74 C 0.07457 0.25513 0.42253 0.0
C75 C 0.09311 0.25705 0.48628 0.0
H76 H 0.19494 0.2235 0.38419 0.0
H77 H 0.17567 0.23537 0.43342 0.0
H78 H 0.21208 0.22834 0.4585 0.0
H79 H 0.19033 0.25818 0.63651 0.0
H80 H 0.09072 0.25189 0.24794 0.0
H81 H 0.10187 0.25533 0.35613 0.0
H82 H 0.06944 0.2505 0.24975 0.0
H83 H 0.07015 0.25551 0.47153 0.0
C84 C 0.85323 0.2561 0.37311 0.0
C85 C 0.84899 0.19719 0.32138 0.0
C86 C 0.85294 0.22077 0.37774 0.0
C87 C 0.84581 0.20957 0.25977 0.0
C88 C 0.84957 0.26883 0.31249 0.0
C89 C 0.84606 0.24532 0.25542 0.0
N90 N 0.85699 0.27814 0.42848 0.0
C91 C 0.85657 0.31335 0.42858 0.0
C92 C 0.84949 0.30486 0.31131 0.0
C93 C 0.85288 0.32722 0.36989 0.0
Gd94 Gd 0.8975 0.24686 0.53798 0.0
Gd95 Gd 0.86234 0.25302 0.5264 0.0
N96 N 0.85592 0.20969 0.43844 0.0
C97 C 0.84799 0.16202 0.3294 0.0
C98 C 0.85394 0.17599 0.4482 0.0
C99 C 0.85028 0.15149 0.3935 0.0
H100 H 0.85491 0.16793 0.49853 0.0
H101 H 0.849 0.12465 0.40125 0.0
H102 H 0.90534 0.32257 0.62419 0.0
H103 H 0.85901 0.33058 0.47418 0.0
H104 H 0.91348 0.34547 0.73871 0.0
H105 H 0.845 0.14307 0.28735 0.0
H106 H 0.84285 0.19179 0.21579 0.0
H107 H 0.90257 0.16004 0.51974 0.0
H108 H 0.8467 0.31566 0.26576 0.0
H109 H 0.85267 0.3551 0.36987 0.0
H110 H 0.91808 0.24374 0.85198 0.0
H111 H 0.84335 0.25455 0.20806 0.0
H112 H 0.91157 0.13286 0.7175 0.0
H113 H 0.90695 0.11536 0.59425 0.0
N114 N 0.90287 0.20197 0.60185 0.0
C115 C 0.90635 0.21233 0.66778 0.0
C116 C 0.90379 0.16784 0.57426 0.0
C117 C 0.90922 0.15249 0.6855 0.0
C118 C 0.90659 0.1425 0.61603 0.0
C119 C 0.90953 0.18787 0.71162 0.0
H120 H 0.91573 0.18108 0.81354 0.0
N121 N 0.9048 0.2704 0.64563 0.0
C122 C 0.90765 0.24759 0.68974 0.0
C123 C 0.91416 0.29507 0.77352 0.0
C124 C 0.91219 0.25937 0.75557 0.0
C125 C 0.90719 0.30501 0.66129 0.0
C126 C 0.9118 0.31793 0.72577 0.0
O127 O 0.87415 0.26641 0.43998 0.0
O128 O 0.88929 0.2282 0.43432 0.0
O129 O 0.9091 0.27871 0.48551 0.0
O130 O 0.91527 0.23056 0.51592 0.0
O131 O 0.87044 0.20359 0.55369 0.0
O132 O 0.8875 0.19911 0.49217 0.0
O133 O 0.88681 0.26817 0.63216 0.0
O134 O 0.87007 0.2364 0.6236 0.0
O135 O 0.84502 0.2365 0.55028 0.0
O136 O 0.85017 0.28937 0.58315 0.0
O137 O 0.88997 0.29876 0.5207 0.0
O138 O 0.87146 0.30308 0.56885 0.0
C139 C 0.88171 0.2462 0.40373 0.0
C140 C 0.87864 0.18491 0.52011 0.0
C141 C 0.92423 0.24973 0.41956 0.0
C142 C 0.94294 0.24343 0.36052 0.0
C143 C 0.92496 0.23621 0.29506 0.0
C144 C 0.91855 0.24272 0.35596 0.0
C145 C 0.93705 0.23661 0.29712 0.0
C146 C 0.93638 0.24991 0.42167 0.0
C147 C 0.91772 0.25707 0.48444 0.0
C148 C 0.91477 0.23518 0.8007 0.0
C149 C 0.91339 0.1995 0.77888 0.0
H150 H 0.91766 0.30516 0.82358 0.0
C151 C 0.87856 0.25168 0.6608 0.0
C152 C 0.88093 0.31705 0.54623 0.0
C153 C 0.83022 0.27829 0.55827 0.0
C154 C 0.80932 0.28254 0.5776 0.0
C155 C 0.81767 0.29816 0.47198 0.0
C156 C 0.82866 0.28993 0.49407 0.0
C157 C 0.80804 0.29436 0.5132 0.0
C158 C 0.82049 0.27489 0.60034 0.0
C159 C 0.84173 0.26694 0.57933 0.0
H160 H 0.92054 0.231 0.246 0.0
H161 H 0.9092 0.24244 0.35343 0.0
H162 H 0.94178 0.23207 0.24894 0.0
H163 H 0.9407 0.25477 0.47121 0.0
H164 H 0.81659 0.30712 0.42228 0.0
H165 H 0.83584 0.29217 0.46029 0.0
H166 H 0.79957 0.30075 0.49481 0.0
H167 H 0.82157 0.26528 0.64949 0.0
C168 C 0.10719 0.82588 0.4698 0.0
C169 C 0.10423 0.83297 0.34998 0.0
C170 C 0.10781 0.81257 0.4006 0.0
C171 C 0.10096 0.86776 0.36982 0.0
C172 C 0.10316 0.85997 0.49033 0.0
C173 C 0.10042 0.88124 0.43992 0.0
N174 N 0.11002 0.80481 0.51723 0.0
C175 C 0.1079 0.8148 0.58579 0.0
C176 C 0.1017 0.87129 0.56086 0.0
C177 C 0.10388 0.84837 0.60871 0.0
Gd178 Gd 0.15329 0.75511 0.46971 0.0
Gd179 Gd 0.11777 0.75018 0.47438 0.0
N180 N 0.11083 0.77868 0.38333 0.0
C181 C 0.10346 0.81726 0.28143 0.0
C182 C 0.10871 0.76237 0.31825 0.0
C183 C 0.1054 0.78154 0.26584 0.0
H184 H 0.10955 0.7345 0.30659 0.0
H185 H 0.10417 0.76867 0.21375 0.0
H186 H 0.15886 0.82893 0.4027 0.0
H187 H 0.10983 0.7973 0.62281 0.0
H188 H 0.16751 0.88657 0.44059 0.0
H189 H 0.10075 0.832 0.24096 0.0
H190 H 0.09838 0.88401 0.33155 0.0
H191 H 0.16372 0.70181 0.57423 0.0
H192 H 0.09863 0.89732 0.57874 0.0
H193 H 0.10256 0.85663 0.66321 0.0
H194 H 0.18377 0.87553 0.66261 0.0
H195 H 0.09751 0.90773 0.45463 0.0
H196 H 0.18294 0.76219 0.73539 0.0
H197 H 0.17512 0.70542 0.68222 0.0
N198 N 0.16482 0.75597 0.56848 0.0
C199 C 0.16954 0.78688 0.59467 0.0
C200 C 0.16713 0.72658 0.59739 0.0
C201 C 0.17794 0.7607 0.68829 0.0
C202 C 0.17355 0.72859 0.65837 0.0
C203 C 0.17613 0.79027 0.65573 0.0
H204 H 0.18597 0.826 0.72826 0.0
N205 N 0.16263 0.80922 0.49666 0.0
C206 C 0.16832 0.81456 0.55774 0.0
C207 C 0.17303 0.8732 0.5389 0.0
C208 C 0.17364 0.84671 0.58082 0.0
C209 C 0.16275 0.83405 0.45331 0.0
C210 C 0.16772 0.86664 0.47434 0.0
O211 O 0.12701 0.73 0.37353 0.0
O212 O 0.14216 0.76793 0.38218 0.0
O213 O 0.17033 0.75346 0.4226 0.0
O214 O 0.15839 0.71086 0.39566 0.0
O215 O 0.1281 0.7019 0.4358 0.0
O216 O 0.14512 0.7057 0.49727 0.0
O217 O 0.14579 0.75445 0.57705 0.0
O218 O 0.12563 0.74632 0.57841 0.0
O219 O 0.1091 0.71143 0.52621 0.0
O220 O 0.09918 0.74077 0.4614 0.0
O221 O 0.142 0.79865 0.44394 0.0
O222 O 0.12818 0.79674 0.52492 0.0
C223 C 0.13558 0.74527 0.34467 0.0
C224 C 0.13607 0.68787 0.47146 0.0
C225 C 0.17854 0.69757 0.39738 0.0
C226 C 0.19919 0.68327 0.38522 0.0
C227 C 0.18569 0.64304 0.42874 0.0
C228 C 0.17656 0.66592 0.42282 0.0
C229 C 0.19689 0.65148 0.40992 0.0
C230 C 0.18987 0.70612 0.3788 0.0
C231 C 0.16896 0.72214 0.39054 0.0
C232 C 0.17972 0.85092 0.6436 0.0
C233 C 0.18098 0.82271 0.68097 0.0
H234 H 0.17698 0.89834 0.55481 0.0
C235 C 0.13587 0.74967 0.60844 0.0
C236 C 0.135 0.81484 0.48981 0.0
C237 C 0.09017 0.72751 0.56351 0.0
C238 C 0.07008 0.73159 0.60346 0.0
C239 C 0.08585 0.74401 0.68518 0.0
C240 C 0.09387 0.73722 0.63189 0.0
C241 C 0.07405 0.74108 0.67127 0.0
C242 C 0.07821 0.72512 0.54937 0.0
C243 C 0.09879 0.71969 0.50753 0.0
H244 H 0.18408 0.61857 0.44792 0.0
H245 H 0.16797 0.65878 0.43815 0.0
H246 H 0.20373 0.63283 0.41415 0.0
H247 H 0.19142 0.73087 0.36049 0.0
H248 H 0.08881 0.75148 0.73757 0.0
H249 H 0.10297 0.73951 0.6444 0.0
H250 H 0.068 0.74656 0.71363 0.0
H251 H 0.07525 0.71763 0.4969 0.0
C252 C 0.85654 0.70783 0.62002 0.0
C253 C 0.85266 0.75539 0.71081 0.0
C254 C 0.85578 0.74312 0.64224 0.0
C255 C 0.85092 0.7315 0.75782 0.0
C256 C 0.85417 0.68367 0.666 0.0
C257 C 0.85171 0.69569 0.73549 0.0
N258 N 0.85882 0.69718 0.55236 0.0
C259 C 0.85738 0.66312 0.52579 0.0
C260 C 0.85392 0.64825 0.64011 0.0
C261 C 0.85526 0.638 0.56934 0.0
Gd262 Gd 0.89834 0.74916 0.46267 0.0
Gd263 Gd 0.8634 0.74102 0.48419 0.0
N264 N 0.85782 0.76552 0.59586 0.0
C265 C 0.85125 0.79126 0.72966 0.0
C266 C 0.85586 0.80036 0.61278 0.0
C267 C 0.85269 0.81378 0.68015 0.0
H268 H 0.85698 0.81772 0.57444 0.0
H269 H 0.85139 0.84146 0.6939 0.0
H270 H 0.90569 0.66321 0.43423 0.0
H271 H 0.85777 0.65533 0.47078 0.0
H272 H 0.91009 0.61932 0.33514 0.0
H273 H 0.84885 0.80174 0.78188 0.0
H274 H 0.84873 0.74041 0.81112 0.0
H275 H 0.90188 0.82596 0.40848 0.0
H276 H 0.85216 0.62882 0.67369 0.0
H277 H 0.85452 0.61085 0.54816 0.0
H278 H 0.91334 0.68478 0.14479 0.0
H279 H 0.85004 0.67752 0.77184 0.0
H280 H 0.91065 0.80898 0.19348 0.0
H281 H 0.90663 0.8494 0.29992 0.0
N282 N 0.90303 0.77328 0.3628 0.0
C283 C 0.90585 0.75065 0.30614 0.0
C284 C 0.90368 0.80835 0.36207 0.0
C285 C 0.90866 0.79867 0.24093 0.0
C286 C 0.90637 0.82159 0.30089 0.0
C287 C 0.90851 0.76273 0.24316 0.0
H288 H 0.91285 0.74739 0.13559 0.0
N289 N 0.90384 0.70477 0.37387 0.0
C290 C 0.90602 0.71534 0.31147 0.0
C291 C 0.91003 0.65612 0.26195 0.0
C292 C 0.909 0.69123 0.25361 0.0
C293 C 0.90594 0.67108 0.38342 0.0
C294 C 0.90874 0.64613 0.32746 0.0
O295 O 0.87512 0.76225 0.57443 0.0
O296 O 0.89211 0.73188 0.56345 0.0
O297 O 0.91675 0.73836 0.46793 0.0
O298 O 0.90983 0.78576 0.52296 0.0
O299 O 0.87001 0.79373 0.4636 0.0
O300 O 0.88895 0.79857 0.50567 0.0
O301 O 0.88574 0.76361 0.38175 0.0
O302 O 0.8711 0.72399 0.37752 0.0
O303 O 0.84998 0.77228 0.44325 0.0
O304 O 0.84656 0.71903 0.45538 0.0
O305 O 0.89123 0.69954 0.49404 0.0
O306 O 0.87366 0.69361 0.43816 0.0
C307 C 0.88344 0.74548 0.60169 0.0
C308 C 0.87909 0.81229 0.48799 0.0
C309 C 0.92629 0.76118 0.57023 0.0
C310 C 0.9456 0.7523 0.61639 0.0
C311 C 0.92863 0.75488 0.69107 0.0
C312 C 0.92149 0.75966 0.63564 0.0
C313 C 0.94057 0.75131 0.68175 0.0
C314 C 0.93832 0.7574 0.5608 0.0
C315 C 0.91892 0.76609 0.5109 0.0
C316 C 0.91119 0.70299 0.18995 0.0
C317 C 0.91096 0.73866 0.18475 0.0
H318 H 0.9123 0.63677 0.21881 0.0
C319 C 0.87848 0.74233 0.34597 0.0
C320 C 0.88256 0.68033 0.46734 0.0
C321 C 0.83069 0.75713 0.46913 0.0
C322 C 0.81 0.76785 0.45358 0.0
C323 C 0.81796 0.76696 0.56858 0.0
C324 C 0.82892 0.75994 0.54057 0.0
C325 C 0.80857 0.77076 0.52565 0.0
C326 C 0.82119 0.76108 0.42564 0.0
C327 C 0.84222 0.74779 0.4397 0.0
H328 H 0.92489 0.75397 0.74155 0.0
H329 H 0.91224 0.7622 0.64388 0.0
H330 H 0.94588 0.74812 0.72604 0.0
H331 H 0.94195 0.75787 0.50983 0.0
H332 H 0.8167 0.76882 0.6238 0.0
H333 H 0.83592 0.75595 0.5748 0.0
H334 H 0.80011 0.7751 0.54904 0.0
H335 H 0.82252 0.75867 0.37037 0.0
C336 C 0.60724 0.73653 0.21159 0.0
C337 C 0.60097 0.79185 0.27416 0.0
C338 C 0.60531 0.77212 0.21379 0.0
C339 C 0.59857 0.77541 0.33229 0.0
C340 C 0.60468 0.71998 0.26981 0.0
C341 C 0.60045 0.73963 0.3302 0.0
N342 N 0.61151 0.71812 0.15264 0.0
C343 C 0.61196 0.68267 0.14623 0.0
C344 C 0.60623 0.684 0.26528 0.0
C345 C 0.60968 0.6652 0.2028 0.0
Gd346 Gd 0.64977 0.75167 0.04099 0.0
Gd347 Gd 0.6149 0.75097 0.06155 0.0
N348 N 0.60816 0.78771 0.15779 0.0
C349 C 0.59942 0.82769 0.27477 0.0
C350 C 0.60656 0.82253 0.15769 0.0
C351 C 0.6022 0.84306 0.21623 0.0
H352 H 0.60856 0.83437 0.1122 0.0
H353 H 0.60098 0.87071 0.21617 0.0
H354 H 0.65922 0.67001 0.03771 0.0
H355 H 0.61358 0.66741 0.09718 0.0
H356 H 0.66876 0.62478 0.95588 0.0
H357 H 0.59612 0.84372 0.32021 0.0
H358 H 0.59531 0.79019 0.37929 0.0
H359 H 0.64865 0.82359 0.9608 0.0
H360 H 0.60437 0.67035 0.30885 0.0
H361 H 0.61031 0.63714 0.19764 0.0
H362 H 0.67555 0.68064 0.75488 0.0
H363 H 0.59852 0.72733 0.37545 0.0
H364 H 0.66304 0.79863 0.75942 0.0
H365 H 0.65359 0.84077 0.8481 0.0
N366 N 0.65429 0.7714 0.93535 0.0
C367 C 0.66003 0.74838 0.88858 0.0
C368 C 0.6523 0.80452 0.92216 0.0
C369 C 0.66073 0.79077 0.80874 0.0
C370 C 0.65532 0.81455 0.85848 0.0
C371 C 0.66326 0.75733 0.82368 0.0
H372 H 0.67136 0.73905 0.72554 0.0
N373 N 0.65909 0.70742 0.96787 0.0
C374 C 0.66244 0.71541 0.90523 0.0
C375 C 0.67026 0.65758 0.87569 0.0
C376 C 0.66806 0.69059 0.85724 0.0
C377 C 0.66142 0.67556 0.98671 0.0
C378 C 0.66697 0.65009 0.94082 0.0
O379 O 0.62638 0.77418 0.15103 0.0
O380 O 0.64244 0.73962 0.14248 0.0
O381 O 0.66661 0.73806 0.0792 0.0
O382 O 0.66183 0.79204 0.08343 0.0
O383 O 0.62206 0.79818 0.02176 0.0
O384 O 0.64058 0.80366 0.06826 0.0
O385 O 0.63916 0.73294 0.94493 0.0
O386 O 0.62142 0.76071 0.9563 0.0
O387 O 0.59817 0.77305 0.04094 0.0
O388 O 0.60063 0.71755 0.02227 0.0
O389 O 0.64139 0.7055 0.07886 0.0
O390 O 0.62405 0.70059 0.02055 0.0
C391 C 0.63459 0.75781 0.18009 0.0
C392 C 0.63115 0.81694 0.04383 0.0
C393 C 0.68166 0.77741 0.06552 0.0
C394 C 0.70275 0.77736 0.0777 0.0
C395 C 0.69389 0.79317 0.97355 0.0
C396 C 0.68292 0.78825 1.00031 0.0
C397 C 0.70374 0.78761 0.01169 0.0
C398 C 0.69162 0.77231 0.10445 0.0
C399 C 0.67008 0.77011 0.09216 0.0
C400 C 0.67124 0.69939 0.79246 0.0
C401 C 0.66886 0.73266 0.77575 0.0
H402 H 0.67455 0.63778 0.84023 0.0
C403 C 0.63001 0.74632 0.9183 0.0
C404 C 0.63335 0.68658 0.04446 0.0
C405 C 0.58673 0.74182 0.95427 0.0
C406 C 0.56783 0.74242 0.89793 0.0
C407 C 0.58557 0.73743 0.82974 0.0
C408 C 0.59218 0.73876 0.88972 0.0
C409 C 0.57351 0.73917 0.83362 0.0
C410 C 0.57459 0.74371 0.95823 0.0
C411 C 0.59355 0.74324 0.01803 0.0
H412 H 0.69475 0.80141 0.92307 0.0
H413 H 0.67545 0.79297 0.96994 0.0
H414 H 0.71216 0.79198 0.99007 0.0
H415 H 0.69072 0.76395 0.1549 0.0
H416 H 0.58982 0.7349 0.77997 0.0
H417 H 0.60152 0.73729 0.88575 0.0
H418 H 0.56862 0.73749 0.78607 0.0
H419 H 0.57045 0.74663 1.00842 0.0
C420 C 0.35173 0.75105 0.88979 0.0
C421 C 0.34804 0.69069 0.84631 0.0
C422 C 0.35153 0.71648 0.90005 0.0
C423 C 0.34548 0.70008 0.78102 0.0
C424 C 0.34858 0.76092 0.82562 0.0
C425 C 0.34576 0.73516 0.7707 0.0
N426 N 0.35472 0.7752 0.94355 0.0
C427 C 0.35372 0.80988 0.93896 0.0
C428 C 0.34818 0.79643 0.81914 0.0
C429 C 0.35058 0.82102 0.87641 0.0
Gd430 Gd 0.39572 0.75007 0.06104 0.0
Gd431 Gd 0.36074 0.75449 0.04512 0.0
N432 N 0.35395 0.70844 0.96399 0.0
C433 C 0.34677 0.6565 0.86062 0.0
C434 C 0.35162 0.67591 0.97972 0.0
C435 C 0.34833 0.64924 0.92804 0.0
H436 H 0.35226 0.67043 0.03225 0.0
H437 H 0.34685 0.62324 0.94045 0.0
H438 H 0.40217 0.82655 0.15093 0.0
H439 H 0.35566 0.82879 0.98316 0.0
H440 H 0.40803 0.85005 0.27014 0.0
H441 H 0.34411 0.63589 0.8208 0.0
H442 H 0.34294 0.68056 0.73881 0.0
H443 H 0.40093 0.66331 0.0467 0.0
H444 H 0.34581 0.8051 0.77066 0.0
H445 H 0.35007 0.84852 0.87231 0.0
H446 H 0.41105 0.74866 0.38592 0.0
H447 H 0.34349 0.74214 0.72061 0.0
H448 H 0.40693 0.63723 0.24916 0.0
H449 H 0.40414 0.61912 0.12409 0.0
N450 N 0.40023 0.70562 0.12799 0.0
C451 C 0.4028 0.71632 0.19533 0.0
C452 C 0.40144 0.67141 0.10156 0.0
C453 C 0.40517 0.65667 0.21561 0.0
C454 C 0.40356 0.64633 0.14511 0.0
C455 C 0.40517 0.69211 0.24124 0.0
H456 H 0.4095 0.68585 0.3467 0.0
N457 N 0.40156 0.77427 0.17183 0.0
C458 C 0.40376 0.75167 0.21754 0.0
C459 C 0.40838 0.79967 0.30514 0.0
C460 C 0.40699 0.7638 0.28599 0.0
C461 C 0.40348 0.80909 0.18891 0.0
C462 C 0.40678 0.82236 0.25611 0.0
O463 O 0.37241 0.7692 0.95936 0.0
O464 O 0.38809 0.7328 0.95431 0.0
O465 O 0.40824 0.78187 0.01504 0.0
O466 O 0.41352 0.73271 0.04448 0.0
O467 O 0.36924 0.70538 0.07129 0.0
O468 O 0.38635 0.70204 0.01069 0.0
O469 O 0.38401 0.77129 0.15133 0.0
O470 O 0.36822 0.73603 0.14116 0.0
O471 O 0.34259 0.74362 0.06418 0.0
O472 O 0.35018 0.79209 0.10935 0.0
O473 O 0.38863 0.80164 0.0393 0.0
O474 O 0.36969 0.80591 0.0812 0.0
C475 C 0.38015 0.74961 0.92346 0.0
C476 C 0.37732 0.68722 0.03538 0.0
C477 C 0.42352 0.75214 0.95193 0.0
C478 C 0.44252 0.74654 0.89614 0.0
C479 C 0.42489 0.73789 0.8277 0.0
C480 C 0.41818 0.74441 0.88738 0.0
C481 C 0.43696 0.739 0.83186 0.0
C482 C 0.43567 0.753 0.95617 0.0
C483 C 0.4166 0.75944 0.01536 0.0
C484 C 0.40876 0.73984 0.33275 0.0
C485 C 0.40783 0.70407 0.31046 0.0
H486 H 0.41085 0.81004 0.35728 0.0
C487 C 0.37624 0.75291 0.17959 0.0
C488 C 0.37935 0.81982 0.06079 0.0
C489 C 0.33594 0.76724 0.17476 0.0
C490 C 0.31898 0.75499 0.24297 0.0
C491 C 0.33777 0.76617 0.29807 0.0
C492 C 0.34274 0.77032 0.23476 0.0
C493 C 0.326 0.75872 0.30235 0.0
C494 C 0.32407 0.75951 0.17907 0.0
C495 C 0.34121 0.77171 0.10763 0.0
H496 H 0.42072 0.73191 0.77798 0.0
H497 H 0.40883 0.7435 0.88318 0.0
H498 H 0.44195 0.73348 0.78478 0.0
H499 H 0.43977 0.75923 1.00614 0.0
H500 H 0.34306 0.76884 0.34411 0.0
H501 H 0.35188 0.77608 0.23285 0.0
H502 H 0.32239 0.75623 0.35254 0.0
H503 H 0.31888 0.75652 0.13254 0.0
C504 C 0.60671 0.25357 0.81278 0.0
C505 C 0.60303 0.19452 0.7598 0.0
C506 C 0.60628 0.21825 0.81766 0.0
C507 C 0.60085 0.20666 0.6965 0.0
C508 C 0.60406 0.26606 0.75024 0.0
C509 C 0.60135 0.24235 0.69175 0.0
N510 N 0.60979 0.27579 0.86946 0.0
C511 C 0.60941 0.31094 0.86929 0.0
C512 C 0.60419 0.30205 0.74854 0.0
C513 C 0.60673 0.3246 0.80858 0.0
Gd514 Gd 0.64944 0.24158 0.98712 0.0
Gd515 Gd 0.6146 0.25093 0.96829 0.0
N516 N 0.60847 0.20733 0.87967 0.0
C517 C 0.60174 0.15943 0.76781 0.0
C518 C 0.60616 0.17372 0.889 0.0
C519 C 0.60308 0.14914 0.83303 0.0
H520 H 0.60649 0.16568 0.93964 0.0
H521 H 0.60156 0.12237 0.84048 0.0
H522 H 0.65625 0.31778 0.07771 0.0
H523 H 0.61143 0.32827 0.91574 0.0
H524 H 0.66213 0.341 0.19691 0.0
H525 H 0.59926 0.14037 0.72466 0.0
H526 H 0.59851 0.18873 0.6513 0.0
H527 H 0.65463 0.15555 0.97265 0.0
H528 H 0.60221 0.31268 0.70144 0.0
H529 H 0.60668 0.35245 0.80802 0.0
H530 H 0.66452 0.23949 0.31285 0.0
H531 H 0.59946 0.25138 0.6429 0.0
H532 H 0.66037 0.12834 0.17475 0.0
H533 H 0.65775 0.11076 0.04933 0.0
N534 N 0.65384 0.19731 0.0546 0.0
C535 C 0.65625 0.2077 0.12218 0.0
C536 C 0.65509 0.16322 0.02766 0.0
C537 C 0.65864 0.14793 0.14151 0.0
C538 C 0.65715 0.1379 0.0708 0.0
C539 C 0.65858 0.18331 0.16773 0.0
H540 H 0.66288 0.17672 0.27308 0.0
N541 N 0.6552 0.26555 0.09871 0.0
C542 C 0.65719 0.24292 0.1447 0.0
C543 C 0.66209 0.29068 0.23216 0.0
C544 C 0.66048 0.2549 0.2131 0.0
C545 C 0.65735 0.30027 0.11579 0.0
C546 C 0.66068 0.3134 0.18301 0.0
O547 O 0.62706 0.26501 0.88614 0.0
O548 O 0.64159 0.22503 0.8808 0.0
O549 O 0.66299 0.27262 0.94665 0.0
O550 O 0.66617 0.21906 0.95739 0.0
O551 O 0.62159 0.20053 0.99705 0.0
O552 O 0.6391 0.19446 0.94032 0.0
O553 O 0.6379 0.26268 0.07834 0.0
O554 O 0.62097 0.23209 0.06706 0.0
O555 O 0.59614 0.24145 0.97667 0.0
O556 O 0.60366 0.28805 0.03137 0.0
O557 O 0.64303 0.29454 0.96671 0.0
O558 O 0.62427 0.29981 0.01131 0.0
C559 C 0.63418 0.24347 0.84982 0.0
C560 C 0.63009 0.18114 0.96858 0.0
C561 C 0.68216 0.25664 0.9727 0.0
C562 C 0.70281 0.26824 0.95816 0.0
C563 C 0.6949 0.26406 0.07217 0.0
C564 C 0.68396 0.2575 0.04378 0.0
C565 C 0.70427 0.26926 0.02988 0.0
C566 C 0.69162 0.26202 0.9299 0.0
C567 C 0.67064 0.24785 0.94266 0.0
C568 C 0.6622 0.2308 0.25969 0.0
C569 C 0.66122 0.19506 0.23708 0.0
H570 H 0.66462 0.30093 0.28425 0.0
C571 C 0.62957 0.24586 0.10553 0.0
C572 C 0.6341 0.31333 0.9925 0.0
C573 C 0.5875 0.26389 0.08211 0.0
C574 C 0.56854 0.25809 0.13513 0.0
C575 C 0.58619 0.25304 0.2011 0.0
C576 C 0.59287 0.25843 0.14404 0.0
C577 C 0.57412 0.25286 0.19686 0.0
C578 C 0.57536 0.26369 0.07787 0.0
C579 C 0.59439 0.26901 0.02098 0.0
H580 H 0.69618 0.26442 0.12708 0.0
H581 H 0.67698 0.2523 0.07734 0.0
H582 H 0.71273 0.27312 0.05338 0.0
H583 H 0.69028 0.2611 0.87487 0.0
H584 H 0.59038 0.24898 0.24885 0.0
H585 H 0.60221 0.2583 0.14828 0.0
H586 H 0.56916 0.24899 0.2422 0.0
H587 H 0.57125 0.2673 0.02953 0.0
C588 C 0.35338 0.21169 0.1176 0.0
C589 C 0.34805 0.26006 0.20372 0.0
C590 C 0.35257 0.24718 0.13832 0.0
C591 C 0.34505 0.23669 0.24976 0.0
C592 C 0.34985 0.18809 0.16247 0.0
C593 C 0.34602 0.20077 0.22932 0.0
N594 N 0.35679 0.20033 0.05195 0.0
C595 C 0.35561 0.16611 0.0258 0.0
C596 C 0.34981 0.15252 0.13777 0.0
C597 C 0.35248 0.14155 0.06866 0.0
Gd598 Gd 0.39749 0.25114 0.97254 0.0
Gd599 Gd 0.36247 0.2435 0.98489 0.0
N600 N 0.3558 0.26917 0.0932 0.0
C601 C 0.34652 0.29603 0.22035 0.0
C602 C 0.35391 0.30415 0.10789 0.0
C603 C 0.34933 0.31812 0.17188 0.0
H604 H 0.35594 0.32114 0.07008 0.0
H605 H 0.34797 0.34587 0.18377 0.0
H606 H 0.40416 0.16451 0.94227 0.0
H607 H 0.35688 0.15777 0.97148 0.0
H608 H 0.40961 0.12178 0.84363 0.0
H609 H 0.34303 0.30694 0.26997 0.0
H610 H 0.34176 0.24609 0.30073 0.0
H611 H 0.40222 0.32855 0.92491 0.0
H612 H 0.3472 0.13352 0.17063 0.0
H613 H 0.35191 0.11429 0.04801 0.0
H614 H 0.41689 0.19022 0.66169 0.0
H615 H 0.34339 0.18302 0.26474 0.0
H616 H 0.4149 0.31426 0.71692 0.0
H617 H 0.40931 0.35344 0.82226 0.0
N618 N 0.40362 0.27634 0.87692 0.0
C619 C 0.4072 0.2543 0.82112 0.0
C620 C 0.40463 0.31149 0.87886 0.0
C621 C 0.41186 0.30332 0.76179 0.0
C622 C 0.40868 0.32554 0.8211 0.0
C623 C 0.41121 0.26722 0.76137 0.0
H624 H 0.41738 0.25322 0.65672 0.0
N625 N 0.40366 0.20734 0.8843 0.0
C626 C 0.40692 0.21876 0.82427 0.0
C627 C 0.41116 0.15985 0.77358 0.0
C628 C 0.41065 0.19528 0.76711 0.0
C629 C 0.40523 0.17322 0.89261 0.0
C630 C 0.40866 0.14889 0.83704 0.0
O631 O 0.37328 0.26354 0.08052 0.0
O632 O 0.39043 0.23354 0.07059 0.0
O633 O 0.41574 0.23991 0.98422 0.0
O634 O 0.4085 0.28742 0.03714 0.0
O635 O 0.36948 0.29572 0.96502 0.0
O636 O 0.38787 0.30027 0.01418 0.0
O637 O 0.38589 0.26538 0.88639 0.0
O638 O 0.37112 0.22604 0.88141 0.0
O639 O 0.34978 0.27448 0.93717 0.0
O640 O 0.34567 0.22207 0.95254 0.0
O641 O 0.39001 0.20146 1.00185 0.0
O642 O 0.37281 0.19573 0.94201 0.0
C643 C 0.38183 0.2478 0.10851 0.0
C644 C 0.37833 0.31417 0.99265 0.0
C645 C 0.42447 0.2628 0.089 0.0
C646 C 0.44344 0.25761 0.142 0.0
C647 C 0.4258 0.25205 0.20799 0.0
C648 C 0.4191 0.25724 0.1509 0.0
C649 C 0.43787 0.25221 0.20374 0.0
C650 C 0.4366 0.26295 0.08476 0.0
C651 C 0.41762 0.26769 0.02769 0.0
C652 C 0.41413 0.20794 0.70628 0.0
C653 C 0.41445 0.24382 0.7035 0.0
H654 H 0.41396 0.14098 0.73089 0.0
C655 C 0.37838 0.24499 0.85037 0.0
C656 C 0.38142 0.18239 0.97372 0.0
C657 C 0.33008 0.26139 0.95735 0.0
C658 C 0.30967 0.27211 0.93377 0.0
C659 C 0.31676 0.27876 0.05179 0.0
C660 C 0.32779 0.269 0.02816 0.0
C661 C 0.30776 0.28038 1.00511 0.0
C662 C 0.32094 0.26268 0.91009 0.0
C663 C 0.34181 0.25056 0.9329 0.0
H664 H 0.42162 0.24788 0.25574 0.0
H665 H 0.40976 0.25687 0.15503 0.0
H666 H 0.44285 0.24848 0.24904 0.0
H667 H 0.44069 0.26663 0.03637 0.0
H668 H 0.31513 0.28452 0.10664 0.0
H669 H 0.33443 0.26685 0.06553 0.0
H670 H 0.29919 0.28713 0.0251 0.0
H671 H 0.32258 0.25624 0.8553 0.0
C672 C 0.21499 0.27396 0.64849 0.0
C673 C 0.21304 0.24537 0.59761 0.0
C674 C 0.22545 0.27718 0.68504 0.0
C675 C 0.25112 0.227 0.72962 0.0
H676 H 0.26608 0.31725 0.75661 0.0
C677 C 0.2978 0.24364 0.83405 0.0
C678 C 0.29968 0.2719 0.88574 0.0
C679 C 0.28752 0.24119 0.79572 0.0
C680 C 0.26198 0.29191 0.75 0.0
H681 H 0.22032 0.19691 0.54772 0.0
H682 H 0.23852 0.20265 0.61063 0.0
H683 H 0.24717 0.31095 0.70103 0.0
H684 H 0.29258 0.32075 0.9348 0.0
H685 H 0.27468 0.31636 0.86871 0.0
H686 H 0.26589 0.20796 0.77873 0.0
C687 C 0.23201 0.22263 0.62255 0.0
C688 C 0.25111 0.28833 0.71834 0.0
C689 C 0.2216 0.21949 0.58597 0.0
C690 C 0.29133 0.29845 0.89583 0.0
C691 C 0.2811 0.29606 0.85751 0.0
C692 C 0.26198 0.23058 0.76129 0.0
C693 C 0.23415 0.25174 0.67186 0.0
C694 C 0.24554 0.25582 0.70768 0.0
C695 C 0.27894 0.26703 0.80801 0.0
C696 C 0.26756 0.26308 0.77189 0.0
H697 H 0.20858 0.29439 0.65847 0.0
H698 H 0.22675 0.2997 0.72336 0.0
H699 H 0.24702 0.20167 0.72312 0.0
H700 H 0.30403 0.22267 0.82527 0.0
H701 H 0.28623 0.21874 0.7572 0.0
C702 C 0.71451 0.25127 0.84983 0.0
C703 C 0.71311 0.2722 0.91378 0.0
C704 C 0.72475 0.25264 0.8119 0.0
C705 C 0.75158 0.3056 0.79963 0.0
H706 H 0.76369 0.21907 0.7042 0.0
C707 C 0.7981 0.29334 0.68853 0.0
C708 C 0.79887 0.27787 0.61954 0.0
C709 C 0.78774 0.2918 0.72534 0.0
C710 C 0.76039 0.24345 0.73043 0.0
H711 H 0.72121 0.31239 0.9859 0.0
H712 H 0.73912 0.31375 0.92173 0.0
H713 H 0.74516 0.21925 0.76395 0.0
H714 H 0.78965 0.24735 0.53595 0.0
H715 H 0.77166 0.24415 0.6005 0.0
H716 H 0.767 0.32953 0.76716 0.0
C717 C 0.7323 0.29652 0.90004 0.0
C718 C 0.74971 0.24365 0.7643 0.0
C719 C 0.72204 0.29539 0.9375 0.0
C720 C 0.78926 0.25968 0.58898 0.0
C721 C 0.77899 0.2577 0.62601 0.0
C722 C 0.76232 0.30528 0.76652 0.0
C723 C 0.73389 0.27484 0.83712 0.0
C724 C 0.74514 0.27475 0.79935 0.0
C725 C 0.77805 0.27426 0.69417 0.0
C726 C 0.76683 0.27423 0.73145 0.0
H727 H 0.70786 0.23294 0.83003 0.0
H728 H 0.72554 0.23601 0.76305 0.0
H729 H 0.74829 0.33019 0.82481 0.0
H730 H 0.80536 0.30763 0.71316 0.0
H731 H 0.78729 0.30454 0.77805 0.0
C732 C 0.29797 0.76157 0.21065 0.0
C733 C 0.30644 0.74628 0.24857 0.0
C734 C 0.28618 0.75447 0.21909 0.0
C735 C 0.26632 0.69196 0.29043 0.0
H736 H 0.24393 0.76661 0.29436 0.0
C737 C 0.22073 0.68235 0.40496 0.0
C738 C 0.21128 0.6923 0.36664 0.0
C739 C 0.23209 0.68917 0.38615 0.0
C740 C 0.25007 0.74543 0.29274 0.0
H741 H 0.30906 0.71043 0.32329 0.0
H742 H 0.2887 0.69915 0.33977 0.0
H743 H 0.2642 0.77741 0.26833 0.0
H744 H 0.20655 0.718 0.27873 0.0
H745 H 0.22642 0.73069 0.2471 0.0
H746 H 0.25224 0.66032 0.31683 0.0
C747 C 0.29108 0.71628 0.3027 0.0
C748 C 0.26169 0.75154 0.27755 0.0
C749 C 0.30282 0.7232 0.29401 0.0
C750 C 0.21355 0.71023 0.31001 0.0
C751 C 0.22495 0.71741 0.29163 0.0
C752 C 0.25475 0.68599 0.30628 0.0
C753 C 0.28257 0.73189 0.26566 0.0
C754 C 0.27002 0.72499 0.27707 0.0
C755 C 0.23435 0.70653 0.32898 0.0
C756 C 0.24651 0.71273 0.30845 0.0
H757 H 0.30041 0.77965 0.17553 0.0
H758 H 0.27991 0.76668 0.18899 0.0
H759 H 0.27236 0.67057 0.28885 0.0
H760 H 0.21938 0.66935 0.44995 0.0
H761 H 0.23913 0.68106 0.41682 0.0
C762 C 0.71449 0.78927 0.18639 0.0
C763 C 0.71338 0.77276 0.11827 0.0
C764 C 0.72497 0.78798 0.22184 0.0
C765 C 0.75226 0.73931 0.22682 0.0
H766 H 0.76463 0.82699 0.31511 0.0
C767 C 0.79823 0.74847 0.34639 0.0
C768 C 0.79967 0.77072 0.40876 0.0
C769 C 0.78798 0.74909 0.30822 0.0
C770 C 0.76127 0.80214 0.29169 0.0
H771 H 0.72218 0.74062 0.03504 0.0
H772 H 0.74042 0.73784 0.09736 0.0
H773 H 0.74588 0.82569 0.25824 0.0
H774 H 0.79161 0.81235 0.47769 0.0
H775 H 0.77372 0.81246 0.41332 0.0
H776 H 0.76747 0.7155 0.26156 0.0
C777 C 0.73323 0.75204 0.12314 0.0
C778 C 0.7505 0.80146 0.25894 0.0
C779 C 0.72281 0.75377 0.08737 0.0
C780 C 0.79076 0.79436 0.43061 0.0
C781 C 0.78051 0.79476 0.39295 0.0
C782 C 0.76297 0.73988 0.26041 0.0
C783 C 0.7345 0.76967 0.1903 0.0
C784 C 0.74586 0.77006 0.2262 0.0
C785 C 0.77888 0.77188 0.33156 0.0
C786 C 0.76764 0.77132 0.29349 0.0
H787 H 0.70739 0.80424 0.21135 0.0
H788 H 0.72567 0.80155 0.27381 0.0
H789 H 0.74887 0.71466 0.20237 0.0
H790 H 0.80485 0.72976 0.32806 0.0
H791 H 0.78717 0.73149 0.26061 0.0
C792 C 0.13219 0.87413 0.55653 0.0
C793 C 0.13358 0.85289 0.49323 0.0
C794 C 0.13151 0.91039 0.55909 0.0
C795 C 0.13758 0.98132 0.4503 0.0
H796 H 0.12076 0.0382 0.59545 0.0
C797 C 0.12751 0.12822 0.44984 0.0
C798 C 0.13162 0.14988 0.50806 0.0
C799 C 0.12745 0.09202 0.44843 0.0
C800 C 0.1255 0.02256 0.55472 0.0
H801 H 0.13483 0.8524 0.38275 0.0
H802 H 0.13298 0.91499 0.38629 0.0
H803 H 0.12073 0.97498 0.59133 0.0
H804 H 0.13859 0.15092 0.61104 0.0
H805 H 0.1381 0.08756 0.60945 0.0
H806 H 0.14192 0.02914 0.41248 0.0
C807 C 0.13297 0.90436 0.43467 0.0
C808 C 0.12558 0.98627 0.5525 0.0
C809 C 0.13393 0.86832 0.4324 0.0
C810 C 0.13546 0.13475 0.56532 0.0
C811 C 0.13511 0.0986 0.56462 0.0
C812 C 0.13727 0.01747 0.45168 0.0
C813 C 0.13197 0.92616 0.49812 0.0
C814 C 0.13167 0.965 0.50036 0.0
C815 C 0.1312 0.07687 0.50593 0.0
C816 C 0.13129 0.03846 0.50405 0.0
H817 H 0.13195 0.86276 0.60416 0.0
H818 H 0.1309 0.92598 0.60913 0.0
H819 H 0.14265 0.96633 0.41032 0.0
H820 H 0.12454 0.13926 0.40497 0.0
H821 H 0.12438 0.07582 0.40262 0.0
C822 C 0.89076 0.37019 0.51496 0.0
C823 C 0.8813 0.35514 0.5452 0.0
C824 C 0.89088 0.40562 0.50929 0.0
C825 C 0.89182 0.48406 0.53616 0.0
H826 H 0.86397 0.52718 0.47681 0.0
C827 C 0.8885 0.6315 0.52999 0.0
C828 C 0.88276 0.64289 0.47393 0.0
C829 C 0.88826 0.59653 0.5394 0.0
C830 C 0.87184 0.51541 0.49289 0.0
H831 H 0.86467 0.36596 0.59509 0.0
H832 H 0.86493 0.42809 0.58549 0.0
H833 H 0.86363 0.46599 0.49422 0.0
H834 H 0.87269 0.62655 0.38196 0.0
H835 H 0.87236 0.565 0.39794 0.0
H836 H 0.90011 0.5331 0.53334 0.0
C837 C 0.87218 0.41218 0.56529 0.0
C838 C 0.8716 0.48052 0.50377 0.0
C839 C 0.87207 0.37664 0.57117 0.0
C840 C 0.87705 0.61845 0.42615 0.0
C841 C 0.87681 0.58334 0.43554 0.0
C842 C 0.89206 0.51887 0.52532 0.0
C843 C 0.88156 0.42699 0.53382 0.0
C844 C 0.88161 0.46443 0.5252 0.0
C845 C 0.88237 0.57206 0.49255 0.0
C846 C 0.88208 0.53493 0.50341 0.0
H847 H 0.89803 0.35455 0.49425 0.0
H848 H 0.89817 0.4161 0.48402 0.0
H849 H 0.89965 0.47253 0.55331 0.0
H850 H 0.89299 0.64975 0.56758 0.0
H851 H 0.89252 0.58879 0.58422 0.0
C852 C 0.88774 0.87139 0.52042 0.0
C853 C 0.87841 0.85067 0.49338 0.0
C854 C 0.88735 0.90748 0.52313 0.0
C855 C 0.88731 0.97977 0.48154 0.0
H856 H 0.85939 0.0316 0.53648 0.0
C857 C 0.8831 0.12571 0.45879 0.0
C858 C 0.87799 0.14668 0.51475 0.0
C859 C 0.88274 0.08952 0.45471 0.0
C860 C 0.86728 0.0175 0.5214 0.0
H861 H 0.86122 0.85187 0.4491 0.0
H862 H 0.86059 0.91493 0.45337 0.0
H863 H 0.85961 0.96856 0.53459 0.0
H864 H 0.86838 0.14648 0.60987 0.0
H865 H 0.86782 0.08321 0.60311 0.0
H866 H 0.89507 0.02869 0.46987 0.0
C867 C 0.86818 0.90318 0.47297 0.0
C868 C 0.86736 0.98136 0.5196 0.0
C869 C 0.86857 0.867 0.47023 0.0
C870 C 0.87234 0.13086 0.56599 0.0
C871 C 0.87199 0.09466 0.56196 0.0
C872 C 0.88723 0.01585 0.4833 0.0
C873 C 0.87761 0.92379 0.4989 0.0
C874 C 0.8774 0.96212 0.49995 0.0
C875 C 0.87725 0.07359 0.50649 0.0
C876 C 0.87722 0.03515 0.50341 0.0
H877 H 0.89543 0.85979 0.53922 0.0
H878 H 0.89467 0.92266 0.54456 0.0
H879 H 0.89515 0.96567 0.46532 0.0
H880 H 0.88738 0.1373 0.41817 0.0
H881 H 0.88671 0.074 0.41076 0.0
C882 C 0.1261 0.62952 0.45031 0.0
C883 C 0.13531 0.65024 0.47933 0.0
C884 C 0.12538 0.59423 0.45872 0.0
C885 C 0.13588 0.52998 0.56947 0.0
H886 H 0.12655 0.4621 0.41579 0.0
C887 C 0.13929 0.38102 0.57705 0.0
C888 C 0.13062 0.35949 0.54386 0.0
C889 C 0.13964 0.41663 0.571 0.0
C890 C 0.12902 0.48069 0.45965 0.0
H891 H 0.15099 0.6497 0.54021 0.0
H892 H 0.14975 0.58845 0.55436 0.0
H893 H 0.12752 0.52343 0.40124 0.0
H894 H 0.11527 0.35914 0.47997 0.0
H895 H 0.11573 0.42101 0.47074 0.0
H896 H 0.13735 0.48728 0.62796 0.0
C897 C 0.14301 0.5995 0.52563 0.0
C898 C 0.12959 0.51597 0.45121 0.0
C899 C 0.14376 0.6347 0.51705 0.0
C900 C 0.12212 0.37476 0.50611 0.0
C901 C 0.12245 0.41032 0.50019 0.0
C902 C 0.13528 0.49471 0.57798 0.0
C903 C 0.13381 0.57874 0.49667 0.0
C904 C 0.13305 0.54113 0.50594 0.0
C905 C 0.13128 0.43175 0.53186 0.0
C906 C 0.13185 0.46951 0.52316 0.0
H907 H 0.1194 0.64056 0.42125 0.0
H908 H 0.11809 0.5792 0.43632 0.0
H909 H 0.13841 0.54862 0.61314 0.0
H910 H 0.14595 0.37028 0.60692 0.0
H911 H 0.14664 0.43214 0.59573 0.0
C912 C 0.64064 0.63236 0.08581 0.0
C913 C 0.63427 0.6483 0.03756 0.0
C914 C 0.64129 0.59616 0.08045 0.0
C915 C 0.63799 0.51585 0.95867 0.0
H916 H 0.63311 0.4726 0.12402 0.0
C917 C 0.64388 0.36797 0.9667 0.0
C918 C 0.63493 0.35172 0.99919 0.0
C919 C 0.64435 0.40425 0.97138 0.0
C920 C 0.63448 0.48431 0.07741 0.0
H921 H 0.62364 0.63899 0.94577 0.0
H922 H 0.62479 0.57556 0.93628 0.0
H923 H 0.63279 0.53588 0.13109 0.0
H924 H 0.61957 0.36095 0.06302 0.0
H925 H 0.62047 0.42403 0.0714 0.0
H926 H 0.63954 0.46415 0.9049 0.0
C927 C 0.62934 0.59111 0.97794 0.0
C928 C 0.63439 0.52053 0.08155 0.0
C929 C 0.62861 0.62735 0.98363 0.0
C930 C 0.62658 0.37255 0.03722 0.0
C931 C 0.62712 0.40874 0.04241 0.0
C932 C 0.63818 0.47959 0.95463 0.0
C933 C 0.63563 0.57514 0.02656 0.0
C934 C 0.63606 0.53668 0.02216 0.0
C935 C 0.63597 0.42499 1.00929 0.0
C936 C 0.63632 0.46345 0.01389 0.0
H937 H 0.645 0.64787 0.12829 0.0
H938 H 0.64627 0.58461 0.11837 0.0
H939 H 0.6394 0.52761 0.91216 0.0
H940 H 0.65044 0.3527 0.93691 0.0
H941 H 0.65133 0.4161 0.94576 0.0
C942 C 0.38945 0.87304 0.03169 0.0
C943 C 0.37961 0.85775 0.05744 0.0
C944 C 0.38956 0.9083 0.02432 0.0
C945 C 0.3899 0.98689 0.0489 0.0
H946 H 0.36286 0.02809 0.97506 0.0
C947 C 0.38627 0.13407 0.04029 0.0
C948 C 0.38137 0.14507 0.98129 0.0
C949 C 0.38595 0.09912 0.04984 0.0
C950 C 0.3705 0.01687 0.99522 0.0
H951 H 0.36223 0.86798 0.09717 0.0
H952 H 0.36248 0.92974 0.08478 0.0
H953 H 0.36248 0.96694 0.99265 0.0
H954 H 0.37256 0.12821 0.88496 0.0
H955 H 0.37208 0.06667 0.90118 0.0
H956 H 0.39802 0.03647 0.05009 0.0
C957 C 0.37005 0.91417 0.06936 0.0
C958 C 0.37023 0.98198 1.00616 0.0
C959 C 0.36995 0.87881 0.07687 0.0
C960 C 0.3763 0.12036 0.93123 0.0
C961 C 0.37598 0.08526 0.94074 0.0
C962 C 0.39016 0.0217 0.038 0.0
C963 C 0.37984 0.92925 0.04262 0.0
C964 C 0.37995 0.96658 0.03293 0.0
C965 C 0.38078 0.07428 1.00029 0.0
C966 C 0.38048 0.03711 0.01099 0.0
H967 H 0.39707 0.85771 0.01601 0.0
H968 H 0.39719 0.91897 1.00276 0.0
H969 H 0.39748 0.97593 0.07023 0.0
H970 H 0.39016 0.15264 0.07995 0.0
H971 H 0.38958 0.09165 0.09672 0.0
C972 C 0.38689 0.37329 0.02706 0.0
C973 C 0.37773 0.35255 0.99765 0.0
C974 C 0.38652 0.4094 0.02983 0.0
C975 C 0.38668 0.48214 0.98954 0.0
H976 H 0.35841 0.53289 0.04079 0.0
C977 C 0.38218 0.62876 0.97198 0.0
C978 C 0.37679 0.64891 0.02801 0.0
C979 C 0.38195 0.59249 0.96615 0.0
C980 C 0.36638 0.51909 0.02669 0.0
H981 H 0.36088 0.35374 0.94894 0.0
H982 H 0.36029 0.41679 0.95358 0.0
H983 H 0.35874 0.46975 0.03673 0.0
H984 H 0.36697 0.64715 0.12192 0.0
H985 H 0.3666 0.5838 0.1119 0.0
H986 H 0.39441 0.5315 0.98095 0.0
C987 C 0.36773 0.40504 0.97489 0.0
C988 C 0.36654 0.4829 0.02369 0.0
C989 C 0.3681 0.36887 0.97197 0.0
C990 C 0.37109 0.63219 0.07778 0.0
C991 C 0.37085 0.59595 0.07194 0.0
C992 C 0.38652 0.51829 0.99242 0.0
C993 C 0.37697 0.42568 1.00345 0.0
C994 C 0.37671 0.46405 1.00544 0.0
C995 C 0.37633 0.57569 0.01625 0.0
C996 C 0.37639 0.53719 0.01133 0.0
H997 H 0.39442 0.36169 0.04775 0.0
H998 H 0.3937 0.42462 0.05318 0.0
H999 H 0.39462 0.46833 0.9745 0.0
H1000 H 0.38656 0.64106 0.93265 0.0
H1001 H 0.38613 0.57759 0.92218 0.0
C1002 C 0.63542 0.11952 0.92372 0.0
C1003 C 0.62967 0.14339 0.97246 0.0
C1004 C 0.63549 0.08408 0.93058 0.0
C1005 C 0.61983 0.01777 0.01335 0.0
H1006 H 0.64852 0.96593 0.9867 0.0
C1007 C 0.63985 0.87683 0.06525 0.0
C1008 C 0.63084 0.8547 0.03846 0.0
C1009 C 0.63971 0.91214 0.05736 0.0
C1010 C 0.64046 0.98013 0.99479 0.0
H1011 H 0.61921 0.14889 0.06537 0.0
H1012 H 0.61929 0.08724 0.07717 0.0
H1013 H 0.64817 0.02739 0.97124 0.0
H1014 H 0.61456 0.85255 0.98261 0.0
H1015 H 0.61434 0.91388 0.96909 0.0
H1016 H 0.61215 0.97078 0.03793 0.0
C1017 C 0.62373 0.09575 0.03361 0.0
C1018 C 0.64023 0.01519 0.9851 0.0
C1019 C 0.6237 0.13109 0.02689 0.0
C1020 C 0.62162 0.8688 1.00435 0.0
C1021 C 0.62147 0.90404 0.99672 0.0
C1022 C 0.62005 0.98273 0.02279 0.0
C1023 C 0.62969 0.07186 0.98587 0.0
C1024 C 0.62991 0.03441 0.99441 0.0
C1025 C 0.63052 0.92611 0.02285 0.0
C1026 C 0.63037 0.9635 0.01366 0.0
H1027 H 0.63996 0.12831 0.88078 0.0
H1028 H 0.64002 0.06622 0.89242 0.0
H1029 H 0.61172 0.03179 0.02039 0.0
H1030 H 0.64708 0.86688 0.0919 0.0
H1031 H 0.64675 0.92857 0.07879 0.0
C1032 C 0.12448 0.22835 0.27792 0.0
C1033 C 0.12888 0.25648 0.32312 0.0
C1034 C 0.1249 0.22853 0.20624 0.0
C1035 C 0.12876 0.28741 0.07137 0.0
H1036 H 0.13612 0.20165 0.95398 0.0
C1037 C 0.13839 0.28286 0.77783 0.0
C1038 C 0.13353 0.25506 0.73372 0.0
C1039 C 0.13798 0.28338 0.84978 0.0
C1040 C 0.13395 0.2258 0.98585 0.0
H1041 H 0.13666 0.30756 0.32858 0.0
H1042 H 0.13768 0.3076 0.20421 0.0
H1043 H 0.13477 0.20199 0.07839 0.0
H1044 H 0.12476 0.20547 0.73076 0.0
H1045 H 0.1239 0.20657 0.85528 0.0
H1046 H 0.12802 0.31122 0.97863 0.0
C1047 C 0.13382 0.2854 0.22361 0.0
C1048 C 0.13314 0.22597 0.05743 0.0
C1049 C 0.13335 0.28523 0.29511 0.0
C1050 C 0.12848 0.2275 0.76317 0.0
C1051 C 0.12809 0.22796 0.83477 0.0
C1052 C 0.12961 0.28726 0.99976 0.0
C1053 C 0.12969 0.25692 0.17794 0.0
C1054 C 0.1305 0.25675 0.10135 0.0
C1055 C 0.13279 0.25595 0.87927 0.0
C1056 C 0.13218 0.25642 0.9559 0.0
H1057 H 0.12093 0.20584 0.29787 0.0
H1058 H 0.12143 0.20637 0.173 0.0
H1059 H 0.12655 0.31154 0.10313 0.0
H1060 H 0.14231 0.30453 0.75682 0.0
H1061 H 0.1418 0.30521 0.88233 0.0
C1062 C 0.88682 0.21828 0.28316 0.0
C1063 C 0.88235 0.24659 0.3277 0.0
C1064 C 0.8868 0.21846 0.21125 0.0
C1065 C 0.88245 0.27862 0.07652 0.0
H1066 H 0.87944 0.19213 0.95377 0.0
C1067 C 0.8845 0.27722 0.78053 0.0
C1068 C 0.87863 0.25129 0.73694 0.0
C1069 C 0.88527 0.27593 0.8516 0.0
C1070 C 0.88011 0.2167 0.98699 0.0
H1071 H 0.87507 0.2981 0.33149 0.0
H1072 H 0.8741 0.29753 0.20786 0.0
H1073 H 0.87999 0.19124 0.07758 0.0
H1074 H 0.86838 0.20446 0.73482 0.0
H1075 H 0.86902 0.20322 0.85917 0.0
H1076 H 0.8818 0.30434 0.98688 0.0
C1077 C 0.8779 0.27528 0.22721 0.0
C1078 C 0.88066 0.21612 0.05863 0.0
C1079 C 0.87819 0.27536 0.29873 0.0
C1080 C 0.87306 0.22476 0.76683 0.0
C1081 C 0.8736 0.22381 0.83837 0.0
C1082 C 0.88165 0.27925 1.00523 0.0
C1083 C 0.8822 0.24685 0.18187 0.0
C1084 C 0.88183 0.24711 0.10483 0.0
C1085 C 0.87981 0.24924 0.88212 0.0
C1086 C 0.88052 0.24832 0.95889 0.0
H1087 H 0.89022 0.1958 0.30381 0.0
H1088 H 0.89045 0.19632 0.17892 0.0
H1089 H 0.8836 0.30315 0.10927 0.0
H1090 H 0.88857 0.29861 0.75962 0.0
H1091 H 0.89031 0.29581 0.8822 0.0
C1092 C 0.12985 0.7179 0.22536 0.0
C1093 C 0.1364 0.74245 0.26838 0.0
C1094 C 0.13004 0.7174 0.15362 0.0
C1095 C 0.13795 0.77336 0.01978 0.0
H1096 H 0.1349 0.68742 0.89485 0.0
C1097 C 0.14484 0.76546 0.72509 0.0
C1098 C 0.13626 0.74769 0.68342 0.0
C1099 C 0.14505 0.76399 0.79615 0.0
C1100 C 0.1357 0.71163 0.92921 0.0
H1101 H 0.14891 0.78427 0.26914 0.0
H1102 H 0.14963 0.78242 0.14482 0.0
H1103 H 0.13515 0.6858 0.0192 0.0
H1104 H 0.12134 0.7138 0.68324 0.0
H1105 H 0.12174 0.71113 0.80733 0.0
H1106 H 0.13873 0.79902 0.92946 0.0
C1107 C 0.14392 0.76449 0.16623 0.0
C1108 C 0.13579 0.71076 1.00054 0.0
C1109 C 0.1436 0.76529 0.23779 0.0
C1110 C 0.12798 0.72807 0.71413 0.0
C1111 C 0.12828 0.72625 0.78503 0.0
C1112 C 0.138 0.77415 0.94855 0.0
C1113 C 0.13699 0.74101 0.12309 0.0
C1114 C 0.13691 0.74165 0.04689 0.0
C1115 C 0.13677 0.74438 0.82687 0.0
C1116 C 0.13686 0.74332 0.9025 0.0
H1117 H 0.12441 0.69939 0.24708 0.0
H1118 H 0.12454 0.69901 0.12234 0.0
H1119 H 0.13855 0.7978 0.05356 0.0
H1120 H 0.15126 0.78103 0.70304 0.0
H1121 H 0.15174 0.77805 0.82707 0.0
C1122 C 0.8856 0.71358 0.70522 0.0
C1123 C 0.88357 0.74473 0.6778 0.0
C1124 C 0.88489 0.71245 0.77676 0.0
C1125 C 0.8874 0.76701 0.94602 0.0
H1126 H 0.86934 0.69554 0.01718 0.0
C1127 C 0.87941 0.77268 0.24042 0.0
C1128 C 0.87804 0.74171 0.26947 0.0
C1129 C 0.87992 0.77239 0.16861 0.0
C1130 C 0.87461 0.71542 0.99871 0.0
H1131 H 0.87941 0.79923 0.70421 0.0
H1132 H 0.87858 0.79764 0.82905 0.0
H1133 H 0.87086 0.696 0.89274 0.0
H1134 H 0.8762 0.68597 0.2455 0.0
H1135 H 0.87746 0.68502 0.12032 0.0
H1136 H 0.89154 0.78592 0.0509 0.0
C1137 C 0.88061 0.77394 0.79532 0.0
C1138 C 0.87542 0.71572 0.9269 0.0
C1139 C 0.88106 0.77487 0.72375 0.0
C1140 C 0.87708 0.71035 0.22469 0.0
C1141 C 0.8778 0.70992 0.15261 0.0
C1142 C 0.88677 0.76638 0.01765 0.0
C1143 C 0.88242 0.74266 0.82295 0.0
C1144 C 0.88176 0.7417 0.8995 0.0
C1145 C 0.87929 0.74097 0.12305 0.0
C1146 C 0.88025 0.74081 0.04567 0.0
H1147 H 0.88742 0.68985 0.67115 0.0
H1148 H 0.88638 0.68794 0.79606 0.0
H1149 H 0.89249 0.78713 0.92691 0.0
H1150 H 0.88014 0.79732 0.27347 0.0
H1151 H 0.88078 0.79707 0.14912 0.0
C1152 C 0.63912 0.72948 0.2852 0.0
C1153 C 0.6345 0.75771 0.25618 0.0
C1154 C 0.63847 0.72835 0.35647 0.0
C1155 C 0.6331 0.78425 0.5253 0.0
H1156 H 0.62871 0.69529 0.59125 0.0
C1157 C 0.62344 0.77189 0.81314 0.0
C1158 C 0.62966 0.74631 0.84218 0.0
C1159 C 0.6238 0.77331 0.74183 0.0
C1160 C 0.63002 0.72033 0.57377 0.0
H1161 H 0.62603 0.80761 0.27979 0.0
H1162 H 0.6245 0.80525 0.40345 0.0
H1163 H 0.62975 0.69798 0.46763 0.0
H1164 H 0.64085 0.70149 0.81849 0.0
H1165 H 0.64147 0.70391 0.69446 0.0
H1166 H 0.63316 0.80655 0.63182 0.0
C1167 C 0.62876 0.784 0.37163 0.0
C1168 C 0.63067 0.72191 0.50263 0.0
C1169 C 0.62949 0.78521 0.3004 0.0
C1170 C 0.63602 0.72169 0.79796 0.0
C1171 C 0.63631 0.72293 0.72668 0.0
C1172 C 0.63233 0.78269 0.59644 0.0
C1173 C 0.63318 0.75544 0.4009 0.0
C1174 C 0.6323 0.75388 0.47713 0.0
C1175 C 0.63028 0.74892 0.69763 0.0
C1176 C 0.63084 0.75069 0.6217 0.0
H1177 H 0.64306 0.70787 0.25262 0.0
H1178 H 0.64221 0.70623 0.37668 0.0
H1179 H 0.63455 0.80932 0.50829 0.0
H1180 H 0.61849 0.79133 0.84571 0.0
H1181 H 0.61896 0.79347 0.72122 0.0
C1182 C 0.38273 0.71864 0.80221 0.0
C1183 C 0.3805 0.74932 0.84708 0.0
C1184 C 0.38219 0.71824 0.73012 0.0
C1185 C 0.37174 0.77225 0.59425 0.0
H1186 H 0.39002 0.70685 0.47164 0.0
C1187 C 0.37847 0.78248 0.30156 0.0
C1188 C 0.37631 0.7521 0.25561 0.0
C1189 C 0.37883 0.78162 0.37314 0.0
C1190 C 0.38481 0.72516 0.50522 0.0
H1191 H 0.37642 0.80395 0.85135 0.0
H1192 H 0.37604 0.80394 0.72713 0.0
H1193 H 0.39127 0.70664 0.59621 0.0
H1194 H 0.37295 0.69688 0.24871 0.0
H1195 H 0.37394 0.6951 0.37376 0.0
H1196 H 0.36569 0.79154 0.50267 0.0
C1197 C 0.37772 0.77957 0.74641 0.0
C1198 C 0.38545 0.72498 0.57708 0.0
C1199 C 0.37805 0.77976 0.8182 0.0
C1200 C 0.37455 0.72076 0.28289 0.0
C1201 C 0.3752 0.71971 0.35442 0.0
C1202 C 0.3713 0.77288 0.52261 0.0
C1203 C 0.37963 0.74872 0.70066 0.0
C1204 C 0.37893 0.74855 0.6232 0.0
C1205 C 0.37729 0.75018 0.4006 0.0
C1206 C 0.3778 0.74932 0.47704 0.0
H1207 H 0.38453 0.69466 0.82288 0.0
H1208 H 0.38355 0.69371 0.69775 0.0
H1209 H 0.36628 0.79027 0.6267 0.0
H1210 H 0.37986 0.807 0.28208 0.0
H1211 H 0.38053 0.8055 0.40707 0.0
C1212 C 0.62677 0.21448 0.20933 0.0
C1213 C 0.62936 0.24517 0.18165 0.0
C1214 C 0.62745 0.21332 0.28089 0.0
C1215 C 0.63915 0.26395 0.44558 0.0
H1216 H 0.61976 0.20102 0.5331 0.0
C1217 C 0.6334 0.27357 0.74378 0.0
C1218 C 0.63447 0.24259 0.77328 0.0
C1219 C 0.63301 0.27302 0.67186 0.0
C1220 C 0.6253 0.21858 0.50938 0.0
H1221 H 0.6343 0.29906 0.20765 0.0
H1222 H 0.63496 0.29782 0.33174 0.0
H1223 H 0.6183 0.2022 0.40888 0.0
H1224 H 0.63577 0.18664 0.75013 0.0
H1225 H 0.63482 0.18552 0.62413 0.0
H1226 H 0.6458 0.28113 0.54699 0.0
C1227 C 0.63283 0.274 0.29884 0.0
C1228 C 0.62452 0.2192 0.43768 0.0
C1229 C 0.63234 0.27492 0.22733 0.0
C1230 C 0.6351 0.21096 0.72895 0.0
C1231 C 0.63444 0.21033 0.65684 0.0
C1232 C 0.63976 0.26375 0.51732 0.0
C1233 C 0.63054 0.24306 0.3272 0.0
C1234 C 0.63142 0.24197 0.40422 0.0
C1235 C 0.63344 0.2414 0.62724 0.0
C1236 C 0.63286 0.24107 0.55035 0.0
H1237 H 0.62458 0.191 0.17538 0.0
H1238 H 0.6258 0.18875 0.29946 0.0
H1239 H 0.64489 0.28124 0.42267 0.0
H1240 H 0.63282 0.29835 0.77652 0.0
H1241 H 0.63213 0.29741 0.65113 0.0
C1242 C 0.38835 0.2219 0.21424 0.0
C1243 C 0.38206 0.24735 0.18495 0.0
C1244 C 0.38806 0.22062 0.28582 0.0
C1245 C 0.3699 0.24036 0.43855 0.0
H1246 H 0.39798 0.24532 0.54781 0.0
C1247 C 0.37285 0.21678 0.73011 0.0
C1248 C 0.37794 0.24451 0.77368 0.0
C1249 C 0.3731 0.21595 0.65784 0.0
C1250 C 0.39007 0.2437 0.51787 0.0
H1251 H 0.37142 0.29313 0.20956 0.0
H1252 H 0.3702 0.28942 0.33325 0.0
H1253 H 0.39916 0.24564 0.42238 0.0
H1254 H 0.3865 0.29421 0.77464 0.0
H1255 H 0.38761 0.29163 0.6494 0.0
H1256 H 0.36083 0.23774 0.53389 0.0
C1257 C 0.37527 0.27026 0.30071 0.0
C1258 C 0.39075 0.24378 0.4461 0.0
C1259 C 0.37584 0.27213 0.2296 0.0
C1260 C 0.38293 0.27176 0.74296 0.0
C1261 C 0.38348 0.27047 0.67104 0.0
C1262 C 0.36924 0.23932 0.51007 0.0
C1263 C 0.38133 0.24439 0.32976 0.0
C1264 C 0.38066 0.24256 0.40565 0.0
C1265 C 0.37862 0.2425 0.62746 0.0
C1266 C 0.37931 0.24142 0.55075 0.0
H1267 H 0.39337 0.20264 0.18174 0.0
H1268 H 0.3929 0.20053 0.30667 0.0
H1269 H 0.36198 0.23929 0.40876 0.0
H1270 H 0.36884 0.19544 0.75175 0.0
H1271 H 0.36922 0.19412 0.62561 0.0
C1272 C 0.049 0.27365 0.41273 0.0
C1273 C 0.05526 0.25183 0.36257 0.0
C1274 C 0.0369 0.27259 0.41412 0.0
C1275 C 0.01194 0.2165 0.35675 0.0
H1276 H 0.9946 0.30274 0.38452 0.0
C1277 C 0.96238 0.22009 0.3179 0.0
C1278 C 0.95586 0.24398 0.36279 0.0
C1279 C 0.97448 0.22084 0.31945 0.0
C1280 C 0.99928 0.27837 0.37768 0.0
H1281 H 0.05365 0.2114 0.27514 0.0
H1282 H 0.03255 0.20972 0.27724 0.0
H1283 H 0.01568 0.3044 0.38479 0.0
H1284 H 0.95709 0.28759 0.44444 0.0
H1285 H 0.97814 0.2882 0.44859 0.0
H1286 H 0.99559 0.19041 0.35013 0.0
C1287 C 0.03701 0.22757 0.31571 0.0
C1288 C 0.01139 0.27934 0.37772 0.0
C1289 C 0.04911 0.2288 0.31404 0.0
C1290 C 0.96179 0.2685 0.4096 0.0
C1291 C 0.9739 0.26917 0.41134 0.0
C1292 C 0.99984 0.2155 0.35708 0.0
C1293 C 0.03076 0.2495 0.36567 0.0
C1294 C 0.01787 0.24843 0.36692 0.0
C1295 C 0.98042 0.24541 0.36614 0.0
C1296 C 0.99333 0.24643 0.3672 0.0
H1297 H 0.05346 0.2919 0.45051 0.0
H1298 H 0.03236 0.28962 0.45365 0.0
H1299 H 0.01667 0.19218 0.34937 0.0
H1300 H 0.95814 0.20054 0.28173 0.0
H1301 H 0.97918 0.20239 0.28327 0.0
C1302 C 0.96449 0.72436 0.6418 0.0
C1303 C 0.95836 0.74791 0.60666 0.0
C1304 C 0.9765 0.72116 0.63535 0.0
C1305 C 1.00153 0.73776 0.52654 0.0
H1306 H 0.01875 0.73511 0.69566 0.0
C1307 C 0.05192 0.74704 0.54329 0.0
C1308 C 0.05742 0.7285 0.59098 0.0
C1309 C 0.03979 0.74787 0.53943 0.0
C1310 C 0.0141 0.73522 0.64764 0.0
H1311 H 0.96018 0.7862 0.53602 0.0
H1312 H 0.98117 0.78025 0.52419 0.0
H1313 H 0.9978 0.73951 0.69983 0.0
H1314 H 0.05465 0.69439 0.66843 0.0
H1315 H 0.03364 0.69484 0.66037 0.0
H1316 H 0.0179 0.73325 0.47433 0.0
C1317 C 0.97661 0.76417 0.55658 0.0
C1318 C 1.00206 0.73786 0.65015 0.0
C1319 C 0.96457 0.76754 0.56335 0.0
C1320 C 0.05062 0.7093 0.63189 0.0
C1321 C 0.03857 0.70982 0.62759 0.0
C1322 C 0.01363 0.73488 0.52393 0.0
C1323 C 0.98273 0.74127 0.59325 0.0
C1324 C 0.9956 0.73896 0.58968 0.0
C1325 C 0.03296 0.72993 0.58286 0.0
C1326 C 0.02007 0.73331 0.58449 0.0
H1327 H 0.96001 0.70819 0.6743 0.0
H1328 H 0.98092 0.70279 0.66329 0.0
H1329 H 0.99679 0.73835 0.47895 0.0
H1330 H 0.05697 0.76222 0.51142 0.0
H1331 H 0.0358 0.76374 0.50453 0.0
C1332 C 0.54873 0.72733 0.9495 0.0
C1333 C 0.55492 0.7443 0.90171 0.0
C1334 C 0.53661 0.72835 0.95146 0.0
C1335 C 0.51128 0.74226 0.84328 0.0
H1336 H 0.49457 0.75539 0.01674 0.0
C1337 C 0.46188 0.7635 0.85208 0.0
C1338 C 0.4554 0.74765 0.90018 0.0
C1339 C 0.47397 0.76373 0.85434 0.0
C1340 C 0.49908 0.75127 0.9678 0.0
H1341 H 0.5531 0.77666 0.82009 0.0
H1342 H 0.53205 0.7781 0.82308 0.0
H1343 H 0.51569 0.75442 0.01705 0.0
H1344 H 0.45664 0.71963 0.98859 0.0
H1345 H 0.47775 0.71966 0.99216 0.0
H1346 H 0.49475 0.73868 0.79386 0.0
C1347 C 0.53656 0.76355 0.85837 0.0
C1348 C 0.51121 0.75077 0.96802 0.0
C1349 C 0.54866 0.76267 0.85661 0.0
C1350 C 0.46135 0.7324 0.95121 0.0
C1351 C 0.47347 0.73247 0.95327 0.0
C1352 C 0.49918 0.74259 0.84304 0.0
C1353 C 0.53037 0.74623 0.90549 0.0
C1354 C 0.51746 0.74642 0.90572 0.0
C1355 C 0.47996 0.74795 0.90455 0.0
C1356 C 0.49289 0.74727 0.90526 0.0
H1357 H 0.55323 0.71254 0.98443 0.0
H1358 H 0.53212 0.71441 0.98791 0.0
H1359 H 0.5158 0.73822 0.79435 0.0
H1360 H 0.45758 0.77603 0.81285 0.0
H1361 H 0.47863 0.77658 0.81689 0.0
C1362 C 0.46286 0.23309 0.1679 0.0
C1363 C 0.45632 0.25742 0.13721 0.0
C1364 C 0.47495 0.23293 0.16374 0.0
C1365 C 0.49993 0.28861 0.13344 0.0
H1366 H 0.51648 0.20095 0.10545 0.0
C1367 C 0.54968 0.28156 0.09605 0.0
C1368 C 0.55566 0.25749 0.13066 0.0
C1369 C 0.53757 0.28135 0.09323 0.0
C1370 C 0.51201 0.22567 0.11394 0.0
H1371 H 0.45743 0.30087 0.07834 0.0
H1372 H 0.47849 0.30025 0.07014 0.0
H1373 H 0.4954 0.20101 0.10729 0.0
H1374 H 0.55354 0.2138 0.18807 0.0
H1375 H 0.53249 0.21385 0.18428 0.0
H1376 H 0.51655 0.31326 0.14056 0.0
C1377 C 0.47427 0.28144 0.09799 0.0
C1378 C 0.49991 0.2257 0.11502 0.0
C1379 C 0.46218 0.28155 0.10204 0.0
C1380 C 0.54923 0.233 0.1617 0.0
C1381 C 0.53714 0.23275 0.15879 0.0
C1382 C 0.51204 0.28858 0.13238 0.0
C1383 C 0.48082 0.25713 0.12882 0.0
C1384 C 0.49371 0.25716 0.12531 0.0
C1385 C 0.53114 0.25699 0.12474 0.0
C1386 C 0.51824 0.2571 0.12315 0.0
H1387 H 0.45865 0.21387 0.19472 0.0
H1388 H 0.4797 0.21409 0.18876 0.0
H1389 H 0.49546 0.31332 0.14237 0.0
H1390 H 0.55434 0.30097 0.07204 0.0
H1391 H 0.53325 0.30018 0.06597 0.0
loop_
_geom_bond_atom_site_label_1
_geom_bond_atom_site_label_2
_geom_bond_distance
_geom_bond_site_symmetry_2
_ccdc_geom_bond_type
C0 C2 1.422 . S
C0 C4 1.415 . S
C0 N6 1.369 . S
C1 C2 1.421 . S
C1 C3 1.417 . S
C1 C13 1.422 . S
C2 C0 1.422 . S
C2 C1 1.421 . S
C2 N12 1.359 . S
C3 C1 1.417 . S
C3 C5 1.329 . S
C3 H22 0.930 . S
C4 C0 1.415 . S
C4 C5 1.437 . S
C4 C8 1.413 . S
C5 C3 1.329 . S
C5 C4 1.437 . S
C5 H27 0.929 . S
N6 C0 1.369 . S
N6 C7 1.338 . S
N6 Gd11 2.622 . S
C7 N6 1.338 . S
C7 C9 1.378 . S
C7 H19 0.929 . S
C8 C4 1.413 . S
C8 C9 1.348 . S
C8 H24 0.931 . S
C9 C7 1.378 . S
C9 C8 1.348 . S
C9 H25 0.930 . S
Gd10 N30 2.622 . S
Gd10 N37 2.570 . S
Gd10 O44 2.353 . S
Gd10 O45 2.468 . S
Gd10 O46 2.427 . S
Gd10 O48 2.388 . S
Gd10 O49 2.386 . S
Gd10 O53 2.307 . S
Gd10 C63 2.805 . S
Gd11 N6 2.622 . S
Gd11 N12 2.570 . S
Gd11 O43 2.386 . S
Gd11 O47 2.307 . S
Gd11 O50 2.353 . S
Gd11 O51 2.468 . S
Gd11 O52 2.427 . S
Gd11 O54 2.388 . S
Gd11 C75 2.805 . S
N12 C2 1.359 . S
N12 Gd11 2.570 . S
N12 C14 1.343 . S
C13 C1 1.422 . S
C13 C15 1.321 . S
C13 H21 0.931 . S
C14 N12 1.343 . S
C14 C15 1.390 . S
C14 H16 0.931 . S
C15 C13 1.321 . S
C15 C14 1.390 . S
C15 H17 0.930 . S
H16 C14 0.931 . S
H17 C15 0.930 . S
H18 C41 0.931 . S
H19 C7 0.929 . S
H20 C42 0.930 . S
H21 C13 0.931 . S
H22 C3 0.930 . S
H23 C32 0.929 . S
H24 C8 0.931 . S
H25 C9 0.930 . S
H26 C64 0.930 . S
H27 C5 0.929 . S
H28 C33 0.931 . S
H29 C34 0.930 . S
N30 Gd10 2.622 . S
N30 C31 1.369 . S
N30 C32 1.338 . S
C31 N30 1.369 . S
C31 C35 1.415 . S
C31 C38 1.422 . S
C32 H23 0.929 . S
C32 N30 1.338 . S
C32 C34 1.378 . S
C33 H28 0.931 . S
C33 C34 1.348 . S
C33 C35 1.413 . S
C34 H29 0.930 . S
C34 C32 1.378 . S
C34 C33 1.348 . S
C35 C31 1.415 . S
C35 C33 1.413 . S
C35 C65 1.437 . S
H36 C65 0.929 . S
N37 Gd10 2.570 . S
N37 C38 1.359 . S
N37 C41 1.343 . S
C38 C31 1.422 . S
C38 N37 1.359 . S
C38 C40 1.421 . S
C39 C40 1.422 . S
C39 C42 1.321 . S
C39 H66 0.931 . S
C40 C38 1.421 . S
C40 C39 1.422 . S
C40 C64 1.417 . S
C41 H18 0.931 . S
C41 N37 1.343 . S
C41 C42 1.390 . S
C42 H20 0.930 . S
C42 C39 1.321 . S
C42 C41 1.390 . S
O43 Gd11 2.386 . S
O43 C55 1.265 . S
O44 Gd10 2.353 . S
O44 C55 1.242 . S
O45 Gd10 2.468 . S
O45 C63 1.263 . S
O46 Gd10 2.427 . S
O46 C63 1.252 . S
O47 Gd11 2.307 . S
O47 C56 1.261 . S
O48 Gd10 2.388 . S
O48 C56 1.252 . S
O49 Gd10 2.386 . S
O49 C67 1.265 . S
O50 Gd11 2.353 . S
O50 C67 1.242 . S
O51 Gd11 2.468 . S
O51 C75 1.263 . S
O52 Gd11 2.427 . S
O52 C75 1.252 . S
O53 Gd10 2.307 . S
O53 C68 1.261 . S
O54 Gd11 2.388 . S
O54 C68 1.252 . S
C55 O43 1.265 . S
C55 O44 1.242 . S
C56 O47 1.261 . S
C56 O48 1.252 . S
C57 C60 1.394 . S
C57 C62 1.370 . S
C57 C63 1.500 . S
C58 C61 1.383 . S
C58 C62 1.395 . S
C59 C60 1.396 . S
C59 C61 1.365 . S
C59 H76 0.929 . S
C60 C57 1.394 . S
C60 C59 1.396 . S
C60 H77 0.930 . S
C61 C58 1.383 . S
C61 C59 1.365 . S
C61 H78 0.931 . S
C62 C57 1.370 . S
C62 C58 1.395 . S
C62 H79 0.930 . S
C63 Gd10 2.805 . S
C63 O45 1.263 . S
C63 O46 1.252 . S
C63 C57 1.500 . S
C64 H26 0.930 . S
C64 C40 1.417 . S
C64 C65 1.329 . S
C65 C35 1.437 . S
C65 H36 0.929 . S
C65 C64 1.329 . S
H66 C39 0.931 . S
C67 O49 1.265 . S
C67 O50 1.242 . S
C68 O53 1.261 . S
C68 O54 1.252 . S
C69 C72 1.394 . S
C69 C74 1.370 . S
C69 C75 1.500 . S
C70 C73 1.383 . S
C70 C74 1.395 . S
C71 C72 1.396 . S
C71 C73 1.365 . S
C71 H80 0.929 . S
C72 C69 1.394 . S
C72 C71 1.396 . S
C72 H81 0.930 . S
C73 C70 1.383 . S
C73 C71 1.365 . S
C73 H82 0.931 . S
C74 C69 1.370 . S
C74 C70 1.395 . S
C74 H83 0.930 . S
C75 Gd11 2.805 . S
C75 O51 1.263 . S
C75 O52 1.252 . S
C75 C69 1.500 . S
H76 C59 0.929 . S
H77 C60 0.930 . S
H78 C61 0.931 . S
H79 C62 0.930 . S
H80 C71 0.929 . S
H81 C72 0.930 . S
H82 C73 0.931 . S
H83 C74 0.930 . S
C84 C86 1.422 . S
C84 C88 1.415 . S
C84 N90 1.369 . S
C85 C86 1.421 . S
C85 C87 1.417 . S
C85 C97 1.422 . S
C86 C84 1.422 . S
C86 C85 1.421 . S
C86 N96 1.359 . S
C87 C85 1.417 . S
C87 C89 1.329 . S
C87 H106 0.930 . S
C88 C84 1.415 . S
C88 C89 1.437 . S
C88 C92 1.413 . S
C89 C87 1.329 . S
C89 C88 1.437 . S
C89 H111 0.929 . S
N90 C84 1.369 . S
N90 C91 1.338 . S
N90 Gd95 2.622 . S
C91 N90 1.338 . S
C91 C93 1.378 . S
C91 H103 0.929 . S
C92 C88 1.413 . S
C92 C93 1.348 . S
C92 H108 0.931 . S
C93 C91 1.378 . S
C93 C92 1.348 . S
C93 H109 0.930 . S
Gd94 N114 2.622 . S
Gd94 N121 2.570 . S
Gd94 O128 2.353 . S
Gd94 O129 2.468 . S
Gd94 O130 2.427 . S
Gd94 O132 2.388 . S
Gd94 O133 2.386 . S
Gd94 O137 2.307 . S
Gd94 C147 2.805 . S
Gd95 N90 2.622 . S
Gd95 N96 2.570 . S
Gd95 O127 2.386 . S
Gd95 O131 2.307 . S
Gd95 O134 2.353 . S
Gd95 O135 2.468 . S
Gd95 O136 2.427 . S
Gd95 O138 2.388 . S
Gd95 C159 2.805 . S
N96 C86 1.359 . S
N96 Gd95 2.570 . S
N96 C98 1.343 . S
C97 C85 1.422 . S
C97 C99 1.321 . S
C97 H105 0.931 . S
C98 N96 1.343 . S
C98 C99 1.390 . S
C98 H100 0.931 . S
C99 C97 1.321 . S
C99 C98 1.390 . S
C99 H101 0.930 . S
H100 C98 0.931 . S
H101 C99 0.930 . S
H102 C125 0.931 . S
H103 C91 0.929 . S
H104 C126 0.930 . S
H105 C97 0.931 . S
H106 C87 0.930 . S
H107 C116 0.929 . S
H108 C92 0.931 . S
H109 C93 0.930 . S
H110 C148 0.930 . S
H111 C89 0.929 . S
H112 C117 0.931 . S
H113 C118 0.930 . S
N114 Gd94 2.622 . S
N114 C115 1.369 . S
N114 C116 1.338 . S
C115 N114 1.369 . S
C115 C119 1.415 . S
C115 C122 1.422 . S
C116 H107 0.929 . S
C116 N114 1.338 . S
C116 C118 1.378 . S
C117 H112 0.931 . S
C117 C118 1.348 . S
C117 C119 1.413 . S
C118 H113 0.930 . S
C118 C116 1.378 . S
C118 C117 1.348 . S
C119 C115 1.415 . S
C119 C117 1.413 . S
C119 C149 1.437 . S
H120 C149 0.929 . S
N121 Gd94 2.570 . S
N121 C122 1.359 . S
N121 C125 1.343 . S
C122 C115 1.422 . S
C122 N121 1.359 . S
C122 C124 1.421 . S
C123 C124 1.422 . S
C123 C126 1.321 . S
C123 H150 0.931 . S
C124 C122 1.421 . S
C124 C123 1.422 . S
C124 C148 1.417 . S
C125 H102 0.931 . S
C125 N121 1.343 . S
C125 C126 1.390 . S
C126 H104 0.930 . S
C126 C123 1.321 . S
C126 C125 1.390 . S
O127 Gd95 2.386 . S
O127 C139 1.265 . S
O128 Gd94 2.353 . S
O128 C139 1.242 . S
O129 Gd94 2.468 . S
O129 C147 1.263 . S
O130 Gd94 2.427 . S
O130 C147 1.252 . S
O131 Gd95 2.307 . S
O131 C140 1.261 . S
O132 Gd94 2.388 . S
O132 C140 1.252 . S
O133 Gd94 2.386 . S
O133 C151 1.265 . S
O134 Gd95 2.353 . S
O134 C151 1.242 . S
O135 Gd95 2.468 . S
O135 C159 1.263 . S
O136 Gd95 2.427 . S
O136 C159 1.252 . S
O137 Gd94 2.307 . S
O137 C152 1.261 . S
O138 Gd95 2.388 . S
O138 C152 1.252 . S
C139 O127 1.265 . S
C139 O128 1.242 . S
C140 O131 1.261 . S
C140 O132 1.252 . S
C141 C144 1.394 . S
C141 C146 1.370 . S
C141 C147 1.500 . S
C142 C145 1.383 . S
C142 C146 1.395 . S
C143 C144 1.396 . S
C143 C145 1.365 . S
C143 H160 0.929 . S
C144 C141 1.394 . S
C144 C143 1.396 . S
C144 H161 0.930 . S
C145 C142 1.383 . S
C145 C143 1.365 . S
C145 H162 0.931 . S
C146 C141 1.370 . S
C146 C142 1.395 . S
C146 H163 0.930 . S
C147 Gd94 2.805 . S
C147 O129 1.263 . S
C147 O130 1.252 . S
C147 C141 1.500 . S
C148 H110 0.930 . S
C148 C124 1.417 . S
C148 C149 1.329 . S
C149 C119 1.437 . S
C149 H120 0.929 . S
C149 C148 1.329 . S
H150 C123 0.931 . S
C151 O133 1.265 . S
C151 O134 1.242 . S
C152 O137 1.261 . S
C152 O138 1.252 . S
C153 C156 1.394 . S
C153 C158 1.370 . S
C153 C159 1.500 . S
C154 C157 1.383 . S
C154 C158 1.395 . S
C155 C156 1.396 . S
C155 C157 1.365 . S
C155 H164 0.929 . S
C156 C153 1.394 . S
C156 C155 1.396 . S
C156 H165 0.930 . S
C157 C154 1.383 . S
C157 C155 1.365 . S
C157 H166 0.931 . S
C158 C153 1.370 . S
C158 C154 1.395 . S
C158 H167 0.930 . S
C159 Gd95 2.805 . S
C159 O135 1.263 . S
C159 O136 1.252 . S
C159 C153 1.500 . S
H160 C143 0.929 . S
H161 C144 0.930 . S
H162 C145 0.931 . S
H163 C146 0.930 . S
H164 C155 0.929 . S
H165 C156 0.930 . S
H166 C157 0.931 . S
H167 C158 0.930 . S
C168 C170 1.422 . S
C168 C172 1.415 . S
C168 N174 1.369 . S
C169 C170 1.421 . S
C169 C171 1.417 . S
C169 C181 1.422 . S
C170 C168 1.422 . S
C170 C169 1.421 . S
C170 N180 1.359 . S
C171 C169 1.417 . S
C171 C173 1.329 . S
C171 H190 0.930 . S
C172 C168 1.415 . S
C172 C173 1.437 . S
C172 C176 1.413 . S
C173 C171 1.329 . S
C173 C172 1.437 . S
C173 H195 0.929 . S
N174 C168 1.369 . S
N174 C175 1.338 . S
N174 Gd179 2.622 . S
C175 N174 1.338 . S
C175 C177 1.378 . S
C175 H187 0.929 . S
C176 C172 1.413 . S
C176 C177 1.348 . S
C176 H192 0.931 . S
C177 C175 1.378 . S
C177 C176 1.348 . S
C177 H193 0.930 . S
Gd178 N198 2.622 . S
Gd178 N205 2.570 . S
Gd178 O212 2.353 . S
Gd178 O213 2.468 . S
Gd178 O214 2.427 . S
Gd178 O216 2.388 . S
Gd178 O217 2.386 . S
Gd178 O221 2.307 . S
Gd178 C231 2.805 . S
Gd179 N174 2.622 . S
Gd179 N180 2.570 . S
Gd179 O211 2.386 . S
Gd179 O215 2.307 . S
Gd179 O218 2.353 . S
Gd179 O219 2.468 . S
Gd179 O220 2.427 . S
Gd179 O222 2.388 . S
Gd179 C243 2.805 . S
N180 C170 1.359 . S
N180 Gd179 2.570 . S
N180 C182 1.343 . S
C181 C169 1.422 . S
C181 C183 1.321 . S
C181 H189 0.931 . S
C182 N180 1.343 . S
C182 C183 1.390 . S
C182 H184 0.931 . S
C183 C181 1.321 . S
C183 C182 1.390 . S
C183 H185 0.930 . S
H184 C182 0.931 . S
H185 C183 0.930 . S
H186 C209 0.931 . S
H187 C175 0.929 . S
H188 C210 0.930 . S
H189 C181 0.931 . S
H190 C171 0.930 . S
H191 C200 0.929 . S
H192 C176 0.931 . S
H193 C177 0.930 . S
H194 C232 0.930 . S
H195 C173 0.929 . S
H196 C201 0.931 . S
H197 C202 0.930 . S
N198 Gd178 2.622 . S
N198 C199 1.369 . S
N198 C200 1.338 . S
C199 N198 1.369 . S
C199 C203 1.415 . S
C199 C206 1.422 . S
C200 H191 0.929 . S
C200 N198 1.338 . S
C200 C202 1.378 . S
C201 H196 0.931 . S
C201 C202 1.348 . S
C201 C203 1.413 . S
C202 H197 0.930 . S
C202 C200 1.378 . S
C202 C201 1.348 . S
C203 C199 1.415 . S
C203 C201 1.413 . S
C203 C233 1.437 . S
H204 C233 0.929 . S
N205 Gd178 2.570 . S
N205 C206 1.359 . S
N205 C209 1.343 . S
C206 C199 1.422 . S
C206 N205 1.359 . S
C206 C208 1.421 . S
C207 C208 1.422 . S
C207 C210 1.321 . S
C207 H234 0.931 . S
C208 C206 1.421 . S
C208 C207 1.422 . S
C208 C232 1.417 . S
C209 H186 0.931 . S
C209 N205 1.343 . S
C209 C210 1.390 . S
C210 H188 0.930 . S
C210 C207 1.321 . S
C210 C209 1.390 . S
O211 Gd179 2.386 . S
O211 C223 1.265 . S
O212 Gd178 2.353 . S
O212 C223 1.242 . S
O213 Gd178 2.468 . S
O213 C231 1.263 . S
O214 Gd178 2.427 . S
O214 C231 1.252 . S
O215 Gd179 2.307 . S
O215 C224 1.261 . S
O216 Gd178 2.388 . S
O216 C224 1.252 . S
O217 Gd178 2.386 . S
O217 C235 1.265 . S
O218 Gd179 2.353 . S
O218 C235 1.242 . S
O219 Gd179 2.468 . S
O219 C243 1.263 . S
O220 Gd179 2.427 . S
O220 C243 1.252 . S
O221 Gd178 2.307 . S
O221 C236 1.261 . S
O222 Gd179 2.388 . S
O222 C236 1.252 . S
C223 O211 1.265 . S
C223 O212 1.242 . S
C224 O215 1.261 . S
C224 O216 1.252 . S
C225 C228 1.394 . S
C225 C230 1.370 . S
C225 C231 1.500 . S
C226 C229 1.383 . S
C226 C230 1.395 . S
C227 C228 1.396 . S
C227 C229 1.365 . S
C227 H244 0.929 . S
C228 C225 1.394 . S
C228 C227 1.396 . S
C228 H245 0.930 . S
C229 C226 1.383 . S
C229 C227 1.365 . S
C229 H246 0.931 . S
C230 C225 1.370 . S
C230 C226 1.395 . S
C230 H247 0.930 . S
C231 Gd178 2.805 . S
C231 O213 1.263 . S
C231 O214 1.252 . S
C231 C225 1.500 . S
C232 H194 0.930 . S
C232 C208 1.417 . S
C232 C233 1.329 . S
C233 C203 1.437 . S
C233 H204 0.929 . S
C233 C232 1.329 . S
H234 C207 0.931 . S
C235 O217 1.265 . S
C235 O218 1.242 . S
C236 O221 1.261 . S
C236 O222 1.252 . S
C237 C240 1.394 . S
C237 C242 1.370 . S
C237 C243 1.500 . S
C238 C241 1.383 . S
C238 C242 1.395 . S
C239 C240 1.396 . S
C239 C241 1.365 . S
C239 H248 0.929 . S
C240 C237 1.394 . S
C240 C239 1.396 . S
C240 H249 0.930 . S
C241 C238 1.383 . S
C241 C239 1.365 . S
C241 H250 0.931 . S
C242 C237 1.370 . S
C242 C238 1.395 . S
C242 H251 0.930 . S
C243 Gd179 2.805 . S
C243 O219 1.263 . S
C243 O220 1.252 . S
C243 C237 1.500 . S
H244 C227 0.929 . S
H245 C228 0.930 . S
H246 C229 0.931 . S
H247 C230 0.930 . S
H248 C239 0.929 . S
H249 C240 0.930 . S
H250 C241 0.931 . S
H251 C242 0.930 . S
C252 C254 1.422 . S
C252 C256 1.415 . S
C252 N258 1.369 . S
C253 C254 1.421 . S
C253 C255 1.417 . S
C253 C265 1.422 . S
C254 C252 1.422 . S
C254 C253 1.421 . S
C254 N264 1.359 . S
C255 C253 1.417 . S
C255 C257 1.329 . S
C255 H274 0.930 . S
C256 C252 1.415 . S
C256 C257 1.437 . S
C256 C260 1.413 . S
C257 C255 1.329 . S
C257 C256 1.437 . S
C257 H279 0.929 . S
N258 C252 1.369 . S
N258 C259 1.338 . S
N258 Gd263 2.622 . S
C259 N258 1.338 . S
C259 C261 1.378 . S
C259 H271 0.929 . S
C260 C256 1.413 . S
C260 C261 1.348 . S
C260 H276 0.931 . S
C261 C259 1.378 . S
C261 C260 1.348 . S
C261 H277 0.930 . S
Gd262 N282 2.622 . S
Gd262 N289 2.570 . S
Gd262 O296 2.353 . S
Gd262 O297 2.468 . S
Gd262 O298 2.427 . S
Gd262 O300 2.388 . S
Gd262 O301 2.386 . S
Gd262 O305 2.307 . S
Gd262 C315 2.805 . S
Gd263 N258 2.622 . S
Gd263 N264 2.570 . S
Gd263 O295 2.386 . S
Gd263 O299 2.307 . S
Gd263 O302 2.353 . S
Gd263 O303 2.468 . S
Gd263 O304 2.427 . S
Gd263 O306 2.388 . S
Gd263 C327 2.805 . S
N264 C254 1.359 . S
N264 Gd263 2.570 . S
N264 C266 1.343 . S
C265 C253 1.422 . S
C265 C267 1.321 . S
C265 H273 0.931 . S
C266 N264 1.343 . S
C266 C267 1.390 . S
C266 H268 0.931 . S
C267 C265 1.321 . S
C267 C266 1.390 . S
C267 H269 0.930 . S
H268 C266 0.931 . S
H269 C267 0.930 . S
H270 C293 0.931 . S
H271 C259 0.929 . S
H272 C294 0.930 . S
H273 C265 0.931 . S
H274 C255 0.930 . S
H275 C284 0.929 . S
H276 C260 0.931 . S
H277 C261 0.930 . S
H278 C316 0.930 . S
H279 C257 0.929 . S
H280 C285 0.931 . S
H281 C286 0.930 . S
N282 Gd262 2.622 . S
N282 C283 1.369 . S
N282 C284 1.338 . S
C283 N282 1.369 . S
C283 C287 1.415 . S
C283 C290 1.422 . S
C284 H275 0.929 . S
C284 N282 1.338 . S
C284 C286 1.378 . S
C285 H280 0.931 . S
C285 C286 1.348 . S
C285 C287 1.413 . S
C286 H281 0.930 . S
C286 C284 1.378 . S
C286 C285 1.348 . S
C287 C283 1.415 . S
C287 C285 1.413 . S
C287 C317 1.437 . S
H288 C317 0.929 . S
N289 Gd262 2.570 . S
N289 C290 1.359 . S
N289 C293 1.343 . S
C290 C283 1.422 . S
C290 N289 1.359 . S
C290 C292 1.421 . S
C291 C292 1.422 . S
C291 C294 1.321 . S
C291 H318 0.931 . S
C292 C290 1.421 . S
C292 C291 1.422 . S
C292 C316 1.417 . S
C293 H270 0.931 . S
C293 N289 1.343 . S
C293 C294 1.390 . S
C294 H272 0.930 . S
C294 C291 1.321 . S
C294 C293 1.390 . S
O295 Gd263 2.386 . S
O295 C307 1.265 . S
O296 Gd262 2.353 . S
O296 C307 1.242 . S
O297 Gd262 2.468 . S
O297 C315 1.263 . S
O298 Gd262 2.427 . S
O298 C315 1.252 . S
O299 Gd263 2.307 . S
O299 C308 1.261 . S
O300 Gd262 2.388 . S
O300 C308 1.252 . S
O301 Gd262 2.386 . S
O301 C319 1.265 . S
O302 Gd263 2.353 . S
O302 C319 1.242 . S
O303 Gd263 2.468 . S
O303 C327 1.263 . S
O304 Gd263 2.427 . S
O304 C327 1.252 . S
O305 Gd262 2.307 . S
O305 C320 1.261 . S
O306 Gd263 2.388 . S
O306 C320 1.252 . S
C307 O295 1.265 . S
C307 O296 1.242 . S
C308 O299 1.261 . S
C308 O300 1.252 . S
C309 C312 1.394 . S
C309 C314 1.370 . S
C309 C315 1.500 . S
C310 C313 1.383 . S
C310 C314 1.395 . S
C311 C312 1.396 . S
C311 C313 1.365 . S
C311 H328 0.929 . S
C312 C309 1.394 . S
C312 C311 1.396 . S
C312 H329 0.930 . S
C313 C310 1.383 . S
C313 C311 1.365 . S
C313 H330 0.931 . S
C314 C309 1.370 . S
C314 C310 1.395 . S
C314 H331 0.930 . S
C315 Gd262 2.805 . S
C315 O297 1.263 . S
C315 O298 1.252 . S
C315 C309 1.500 . S
C316 H278 0.930 . S
C316 C292 1.417 . S
C316 C317 1.329 . S
C317 C287 1.437 . S
C317 H288 0.929 . S
C317 C316 1.329 . S
H318 C291 0.931 . S
C319 O301 1.265 . S
C319 O302 1.242 . S
C320 O305 1.261 . S
C320 O306 1.252 . S
C321 C324 1.394 . S
C321 C326 1.370 . S
C321 C327 1.500 . S
C322 C325 1.383 . S
C322 C326 1.395 . S
C323 C324 1.396 . S
C323 C325 1.365 . S
C323 H332 0.929 . S
C324 C321 1.394 . S
C324 C323 1.396 . S
C324 H333 0.930 . S
C325 C322 1.383 . S
C325 C323 1.365 . S
C325 H334 0.931 . S
C326 C321 1.370 . S
C326 C322 1.395 . S
C326 H335 0.930 . S
C327 Gd263 2.805 . S
C327 O303 1.263 . S
C327 O304 1.252 . S
C327 C321 1.500 . S
H328 C311 0.929 . S
H329 C312 0.930 . S
H330 C313 0.931 . S
H331 C314 0.930 . S
H332 C323 0.929 . S
H333 C324 0.930 . S
H334 C325 0.931 . S
H335 C326 0.930 . S
C336 C338 1.422 . S
C336 C340 1.415 . S
C336 N342 1.369 . S
C337 C338 1.421 . S
C337 C339 1.417 . S
C337 C349 1.422 . S
C338 C336 1.422 . S
C338 C337 1.421 . S
C338 N348 1.359 . S
C339 C337 1.417 . S
C339 C341 1.329 . S
C339 H358 0.930 . S
C340 C336 1.415 . S
C340 C341 1.437 . S
C340 C344 1.413 . S
C341 C339 1.329 . S
C341 C340 1.437 . S
C341 H363 0.929 . S
N342 C336 1.369 . S
N342 C343 1.338 . S
N342 Gd347 2.622 . S
C343 N342 1.338 . S
C343 C345 1.378 . S
C343 H355 0.929 . S
C344 C340 1.413 . S
C344 C345 1.348 . S
C344 H360 0.931 . S
C345 C343 1.378 . S
C345 C344 1.348 . S
C345 H361 0.930 . S
Gd346 N366 2.622 . S
Gd346 N373 2.570 . S
Gd346 O380 2.353 1_556 S
Gd346 O381 2.468 1_556 S
Gd346 O382 2.427 1_556 S
Gd346 O384 2.388 1_556 S
Gd346 O385 2.386 . S
Gd346 O389 2.307 . S
Gd346 C399 2.805 1_556 S
Gd347 N342 2.622 . S
Gd347 N348 2.570 . S
Gd347 O379 2.386 . S
Gd347 O383 2.307 . S
Gd347 O386 2.353 1_554 S
Gd347 O387 2.468 1_554 S
Gd347 O388 2.427 1_554 S
Gd347 O390 2.388 1_554 S
Gd347 C411 2.805 1_554 S
N348 C338 1.359 . S
N348 Gd347 2.570 . S
N348 C350 1.343 . S
C349 C337 1.422 . S
C349 C351 1.321 . S
C349 H357 0.931 . S
C350 N348 1.343 . S
C350 C351 1.390 . S
C350 H352 0.931 . S
C351 C349 1.321 . S
C351 C350 1.390 . S
C351 H353 0.930 . S
H352 C350 0.931 . S
H353 C351 0.930 . S
H354 C377 0.931 . S
H355 C343 0.929 . S
H356 C378 0.930 . S
H357 C349 0.931 . S
H358 C339 0.930 . S
H359 C368 0.929 . S
H360 C344 0.931 . S
H361 C345 0.930 . S
H362 C400 0.930 . S
H363 C341 0.929 . S
H364 C369 0.931 . S
H365 C370 0.930 . S
N366 Gd346 2.622 . S
N366 C367 1.369 . S
N366 C368 1.338 . S
C367 N366 1.369 . S
C367 C371 1.415 . S
C367 C374 1.422 . S
C368 H359 0.929 . S
C368 N366 1.338 . S
C368 C370 1.378 . S
C369 H364 0.931 . S
C369 C370 1.348 . S
C369 C371 1.413 . S
C370 H365 0.930 . S
C370 C368 1.378 . S
C370 C369 1.348 . S
C371 C367 1.415 . S
C371 C369 1.413 . S
C371 C401 1.437 . S
H372 C401 0.929 . S
N373 Gd346 2.570 . S
N373 C374 1.359 . S
N373 C377 1.343 . S
C374 C367 1.422 . S
C374 N373 1.359 . S
C374 C376 1.421 . S
C375 C376 1.422 . S
C375 C378 1.321 . S
C375 H402 0.931 . S
C376 C374 1.421 . S
C376 C375 1.422 . S
C376 C400 1.417 . S
C377 H354 0.931 . S
C377 N373 1.343 . S
C377 C378 1.390 . S
C378 H356 0.930 . S
C378 C375 1.321 . S
C378 C377 1.390 . S
O379 Gd347 2.386 . S
O379 C391 1.265 . S
O380 Gd346 2.353 1_554 S
O380 C391 1.242 . S
O381 Gd346 2.468 1_554 S
O381 C399 1.263 . S
O382 Gd346 2.427 1_554 S
O382 C399 1.252 . S
O383 Gd347 2.307 . S
O383 C392 1.261 . S
O384 Gd346 2.388 1_554 S
O384 C392 1.252 . S
O385 Gd346 2.386 . S
O385 C403 1.265 . S
O386 Gd347 2.353 1_556 S
O386 C403 1.242 . S
O387 Gd347 2.468 1_556 S
O387 C411 1.263 . S
O388 Gd347 2.427 1_556 S
O388 C411 1.252 . S
O389 Gd346 2.307 . S
O389 C404 1.261 . S
O390 Gd347 2.388 1_556 S
O390 C404 1.252 . S
C391 O379 1.265 . S
C391 O380 1.242 . S
C392 O383 1.261 . S
C392 O384 1.252 . S
C393 C396 1.394 . S
C393 C398 1.370 . S
C393 C399 1.500 . S
C394 C397 1.383 . S
C394 C398 1.395 . S
C395 C396 1.396 . S
C395 C397 1.365 . S
C395 H412 0.929 . S
C396 C393 1.394 . S
C396 C395 1.396 . S
C396 H413 0.930 . S
C397 C394 1.383 . S
C397 C395 1.365 . S
C397 H414 0.931 . S
C398 C393 1.370 . S
C398 C394 1.395 . S
C398 H415 0.930 . S
C399 Gd346 2.805 1_554 S
C399 O381 1.263 . S
C399 O382 1.252 . S
C399 C393 1.500 . S
C400 H362 0.930 . S
C400 C376 1.417 . S
C400 C401 1.329 . S
C401 C371 1.437 . S
C401 H372 0.929 . S
C401 C400 1.329 . S
H402 C375 0.931 . S
C403 O385 1.265 . S
C403 O386 1.242 . S
C404 O389 1.261 . S
C404 O390 1.252 . S
C405 C408 1.394 . S
C405 C410 1.370 . S
C405 C411 1.500 . S
C406 C409 1.383 . S
C406 C410 1.395 . S
C407 C408 1.396 . S
C407 C409 1.365 . S
C407 H416 0.929 . S
C408 C405 1.394 . S
C408 C407 1.396 . S
C408 H417 0.930 . S
C409 C406 1.383 . S
C409 C407 1.365 . S
C409 H418 0.931 . S
C410 C405 1.370 . S
C410 C406 1.395 . S
C410 H419 0.930 . S
C411 Gd347 2.805 1_556 S
C411 O387 1.263 . S
C411 O388 1.252 . S
C411 C405 1.500 . S
H412 C395 0.929 . S
H413 C396 0.930 . S
H414 C397 0.931 . S
H415 C398 0.930 . S
H416 C407 0.929 . S
H417 C408 0.930 . S
H418 C409 0.931 . S
H419 C410 0.930 . S
C420 C422 1.422 . S
C420 C424 1.415 . S
C420 N426 1.369 . S
C421 C422 1.421 . S
C421 C423 1.417 . S
C421 C433 1.422 . S
C422 C420 1.422 . S
C422 C421 1.421 . S
C422 N432 1.359 . S
C423 C421 1.417 . S
C423 C425 1.329 . S
C423 H442 0.930 . S
C424 C420 1.415 . S
C424 C425 1.437 . S
C424 C428 1.413 . S
C425 C423 1.329 . S
C425 C424 1.437 . S
C425 H447 0.929 . S
N426 C420 1.369 . S
N426 C427 1.338 . S
N426 Gd431 2.622 . S
C427 N426 1.338 . S
C427 C429 1.378 . S
C427 H439 0.929 . S
C428 C424 1.413 . S
C428 C429 1.348 . S
C428 H444 0.931 . S
C429 C427 1.378 . S
C429 C428 1.348 . S
C429 H445 0.930 . S
Gd430 N450 2.622 . S
Gd430 N457 2.570 . S
Gd430 O464 2.353 1_554 S
Gd430 O465 2.468 1_554 S
Gd430 O466 2.427 1_554 S
Gd430 O468 2.388 1_554 S
Gd430 O469 2.386 . S
Gd430 O473 2.307 . S
Gd430 C483 2.805 1_554 S
Gd431 N426 2.622 . S
Gd431 N432 2.570 . S
Gd431 O463 2.386 . S
Gd431 O467 2.307 . S
Gd431 O470 2.353 1_556 S
Gd431 O471 2.468 1_556 S
Gd431 O472 2.427 1_556 S
Gd431 O474 2.388 1_556 S
Gd431 C495 2.805 1_556 S
N432 C422 1.359 . S
N432 Gd431 2.570 . S
N432 C434 1.343 . S
C433 C421 1.422 . S
C433 C435 1.321 . S
C433 H441 0.931 . S
C434 N432 1.343 . S
C434 C435 1.390 . S
C434 H436 0.931 . S
C435 C433 1.321 . S
C435 C434 1.390 . S
C435 H437 0.930 . S
H436 C434 0.931 . S
H437 C435 0.930 . S
H438 C461 0.931 . S
H439 C427 0.929 . S
H440 C462 0.930 . S
H441 C433 0.931 . S
H442 C423 0.930 . S
H443 C452 0.929 . S
H444 C428 0.931 . S
H445 C429 0.930 . S
H446 C484 0.930 . S
H447 C425 0.929 . S
H448 C453 0.931 . S
H449 C454 0.930 . S
N450 Gd430 2.622 . S
N450 C451 1.369 . S
N450 C452 1.338 . S
C451 N450 1.369 . S
C451 C455 1.415 . S
C451 C458 1.422 . S
C452 H443 0.929 . S
C452 N450 1.338 . S
C452 C454 1.378 . S
C453 H448 0.931 . S
C453 C454 1.348 . S
C453 C455 1.413 . S
C454 H449 0.930 . S
C454 C452 1.378 . S
C454 C453 1.348 . S
C455 C451 1.415 . S
C455 C453 1.413 . S
C455 C485 1.437 . S
H456 C485 0.929 . S
N457 Gd430 2.570 . S
N457 C458 1.359 . S
N457 C461 1.343 . S
C458 C451 1.422 . S
C458 N457 1.359 . S
C458 C460 1.421 . S
C459 C460 1.422 . S
C459 C462 1.321 . S
C459 H486 0.931 . S
C460 C458 1.421 . S
C460 C459 1.422 . S
C460 C484 1.417 . S
C461 H438 0.931 . S
C461 N457 1.343 . S
C461 C462 1.390 . S
C462 H440 0.930 . S
C462 C459 1.321 . S
C462 C461 1.390 . S
O463 Gd431 2.386 . S
O463 C475 1.265 . S
O464 Gd430 2.353 1_556 S
O464 C475 1.242 . S
O465 Gd430 2.468 1_556 S
O465 C483 1.263 . S
O466 Gd430 2.427 1_556 S
O466 C483 1.252 . S
O467 Gd431 2.307 . S
O467 C476 1.261 . S
O468 Gd430 2.388 1_556 S
O468 C476 1.252 . S
O469 Gd430 2.386 . S
O469 C487 1.265 . S
O470 Gd431 2.353 1_554 S
O470 C487 1.242 . S
O471 Gd431 2.468 1_554 S
O471 C495 1.263 . S
O472 Gd431 2.427 1_554 S
O472 C495 1.252 . S
O473 Gd430 2.307 . S
O473 C488 1.261 . S
O474 Gd431 2.388 1_554 S
O474 C488 1.252 . S
C475 O463 1.265 . S
C475 O464 1.242 . S
C476 O467 1.261 . S
C476 O468 1.252 . S
C477 C480 1.394 . S
C477 C482 1.370 . S
C477 C483 1.500 . S
C478 C481 1.383 . S
C478 C482 1.395 . S
C479 C480 1.396 . S
C479 C481 1.365 . S
C479 H496 0.929 . S
C480 C477 1.394 . S
C480 C479 1.396 . S
C480 H497 0.930 . S
C481 C478 1.383 . S
C481 C479 1.365 . S
C481 H498 0.931 . S
C482 C477 1.370 . S
C482 C478 1.395 . S
C482 H499 0.930 . S
C483 Gd430 2.805 1_556 S
C483 O465 1.263 . S
C483 O466 1.252 . S
C483 C477 1.500 . S
C484 H446 0.930 . S
C484 C460 1.417 . S
C484 C485 1.329 . S
C485 C455 1.437 . S
C485 H456 0.929 . S
C485 C484 1.329 . S
H486 C459 0.931 . S
C487 O469 1.265 . S
C487 O470 1.242 . S
C488 O473 1.261 . S
C488 O474 1.252 . S
C489 C492 1.394 . S
C489 C494 1.370 . S
C489 C495 1.500 . S
C490 C493 1.383 . S
C490 C494 1.395 . S
C491 C492 1.396 . S
C491 C493 1.365 . S
C491 H500 0.929 . S
C492 C489 1.394 . S
C492 C491 1.396 . S
C492 H501 0.930 . S
C493 C490 1.383 . S
C493 C491 1.365 . S
C493 H502 0.931 . S
C494 C489 1.370 . S
C494 C490 1.395 . S
C494 H503 0.930 . S
C495 Gd431 2.805 1_554 S
C495 O471 1.263 . S
C495 O472 1.252 . S
C495 C489 1.500 . S
H496 C479 0.929 . S
H497 C480 0.930 . S
H498 C481 0.931 . S
H499 C482 0.930 . S
H500 C491 0.929 . S
H501 C492 0.930 . S
H502 C493 0.931 . S
H503 C494 0.930 . S
C504 C506 1.422 . S
C504 C508 1.415 . S
C504 N510 1.369 . S
C505 C506 1.421 . S
C505 C507 1.417 . S
C505 C517 1.422 . S
C506 C504 1.422 . S
C506 C505 1.421 . S
C506 N516 1.359 . S
C507 C505 1.417 . S
C507 C509 1.329 . S
C507 H526 0.930 . S
C508 C504 1.415 . S
C508 C509 1.437 . S
C508 C512 1.413 . S
C509 C507 1.329 . S
C509 C508 1.437 . S
C509 H531 0.929 . S
N510 C504 1.369 . S
N510 C511 1.338 . S
N510 Gd515 2.622 . S
C511 N510 1.338 . S
C511 C513 1.378 . S
C511 H523 0.929 . S
C512 C508 1.413 . S
C512 C513 1.348 . S
C512 H528 0.931 . S
C513 C511 1.378 . S
C513 C512 1.348 . S
C513 H529 0.930 . S
Gd514 N534 2.622 . S
Gd514 N541 2.570 . S
Gd514 O548 2.353 1_554 S
Gd514 O549 2.468 1_554 S
Gd514 O550 2.427 1_554 S
Gd514 O552 2.388 1_554 S
Gd514 O553 2.386 . S
Gd514 O557 2.307 . S
Gd514 C567 2.805 1_554 S
Gd515 N510 2.622 . S
Gd515 N516 2.570 . S
Gd515 O547 2.386 . S
Gd515 O551 2.307 . S
Gd515 O554 2.353 1_556 S
Gd515 O555 2.468 1_556 S
Gd515 O556 2.427 1_556 S
Gd515 O558 2.388 1_556 S
Gd515 C579 2.805 1_556 S
N516 C506 1.359 . S
N516 Gd515 2.570 . S
N516 C518 1.343 . S
C517 C505 1.422 . S
C517 C519 1.321 . S
C517 H525 0.931 . S
C518 N516 1.343 . S
C518 C519 1.390 . S
C518 H520 0.931 . S
C519 C517 1.321 . S
C519 C518 1.390 . S
C519 H521 0.930 . S
H520 C518 0.931 . S
H521 C519 0.930 . S
H522 C545 0.931 . S
H523 C511 0.929 . S
H524 C546 0.930 . S
H525 C517 0.931 . S
H526 C507 0.930 . S
H527 C536 0.929 . S
H528 C512 0.931 . S
H529 C513 0.930 . S
H530 C568 0.930 . S
H531 C509 0.929 . S
H532 C537 0.931 . S
H533 C538 0.930 . S
N534 Gd514 2.622 . S
N534 C535 1.369 . S
N534 C536 1.338 . S
C535 N534 1.369 . S
C535 C539 1.415 . S
C535 C542 1.422 . S
C536 H527 0.929 . S
C536 N534 1.338 . S
C536 C538 1.378 . S
C537 H532 0.931 . S
C537 C538 1.348 . S
C537 C539 1.413 . S
C538 H533 0.930 . S
C538 C536 1.378 . S
C538 C537 1.348 . S
C539 C535 1.415 . S
C539 C537 1.413 . S
C539 C569 1.437 . S
H540 C569 0.929 . S
N541 Gd514 2.570 . S
N541 C542 1.359 . S
N541 C545 1.343 . S
C542 C535 1.422 . S
C542 N541 1.359 . S
C542 C544 1.421 . S
C543 C544 1.422 . S
C543 C546 1.321 . S
C543 H570 0.931 . S
C544 C542 1.421 . S
C544 C543 1.422 . S
C544 C568 1.417 . S
C545 H522 0.931 . S
C545 N541 1.343 . S
C545 C546 1.390 . S
C546 H524 0.930 . S
C546 C543 1.321 . S
C546 C545 1.390 . S
O547 Gd515 2.386 . S
O547 C559 1.265 . S
O548 Gd514 2.353 1_556 S
O548 C559 1.242 . S
O549 Gd514 2.468 1_556 S
O549 C567 1.263 . S
O550 Gd514 2.427 1_556 S
O550 C567 1.252 . S
O551 Gd515 2.307 . S
O551 C560 1.261 . S
O552 Gd514 2.388 1_556 S
O552 C560 1.252 . S
O553 Gd514 2.386 . S
O553 C571 1.265 . S
O554 Gd515 2.353 1_554 S
O554 C571 1.242 . S
O555 Gd515 2.468 1_554 S
O555 C579 1.263 . S
O556 Gd515 2.427 1_554 S
O556 C579 1.252 . S
O557 Gd514 2.307 . S
O557 C572 1.261 . S
O558 Gd515 2.388 1_554 S
O558 C572 1.252 . S
C559 O547 1.265 . S
C559 O548 1.242 . S
C560 O551 1.261 . S
C560 O552 1.252 . S
C561 C564 1.394 . S
C561 C566 1.370 . S
C561 C567 1.500 . S
C562 C565 1.383 . S
C562 C566 1.395 . S
C563 C564 1.396 . S
C563 C565 1.365 . S
C563 H580 0.929 . S
C564 C561 1.394 . S
C564 C563 1.396 . S
C564 H581 0.930 . S
C565 C562 1.383 . S
C565 C563 1.365 . S
C565 H582 0.931 . S
C566 C561 1.370 . S
C566 C562 1.395 . S
C566 H583 0.930 . S
C567 Gd514 2.805 1_556 S
C567 O549 1.263 . S
C567 O550 1.252 . S
C567 C561 1.500 . S
C568 H530 0.930 . S
C568 C544 1.417 . S
C568 C569 1.329 . S
C569 C539 1.437 . S
C569 H540 0.929 . S
C569 C568 1.329 . S
H570 C543 0.931 . S
C571 O553 1.265 . S
C571 O554 1.242 . S
C572 O557 1.261 . S
C572 O558 1.252 . S
C573 C576 1.394 . S
C573 C578 1.370 . S
C573 C579 1.500 . S
C574 C577 1.383 . S
C574 C578 1.395 . S
C575 C576 1.396 . S
C575 C577 1.365 . S
C575 H584 0.929 . S
C576 C573 1.394 . S
C576 C575 1.396 . S
C576 H585 0.930 . S
C577 C574 1.383 . S
C577 C575 1.365 . S
C577 H586 0.931 . S
C578 C573 1.370 . S
C578 C574 1.395 . S
C578 H587 0.930 . S
C579 Gd515 2.805 1_554 S
C579 O555 1.263 . S
C579 O556 1.252 . S
C579 C573 1.500 . S
H580 C563 0.929 . S
H581 C564 0.930 . S
H582 C565 0.931 . S
H583 C566 0.930 . S
H584 C575 0.929 . S
H585 C576 0.930 . S
H586 C577 0.931 . S
H587 C578 0.930 . S
C588 C590 1.422 . S
C588 C592 1.415 . S
C588 N594 1.369 . S
C589 C590 1.421 . S
C589 C591 1.417 . S
C589 C601 1.422 . S
C590 C588 1.422 . S
C590 C589 1.421 . S
C590 N600 1.359 . S
C591 C589 1.417 . S
C591 C593 1.329 . S
C591 H610 0.930 . S
C592 C588 1.415 . S
C592 C593 1.437 . S
C592 C596 1.413 . S
C593 C591 1.329 . S
C593 C592 1.437 . S
C593 H615 0.929 . S
N594 C588 1.369 . S
N594 C595 1.338 . S
N594 Gd599 2.622 . S
C595 N594 1.338 . S
C595 C597 1.378 . S
C595 H607 0.929 . S
C596 C592 1.413 . S
C596 C597 1.348 . S
C596 H612 0.931 . S
C597 C595 1.378 . S
C597 C596 1.348 . S
C597 H613 0.930 . S
Gd598 N618 2.622 . S
Gd598 N625 2.570 . S
Gd598 O632 2.353 1_556 S
Gd598 O633 2.468 1_556 S
Gd598 O634 2.427 1_556 S
Gd598 O636 2.388 1_556 S
Gd598 O637 2.386 . S
Gd598 O641 2.307 . S
Gd598 C651 2.805 1_556 S
Gd599 N594 2.622 . S
Gd599 N600 2.570 . S
Gd599 O631 2.386 . S
Gd599 O635 2.307 . S
Gd599 O638 2.353 1_554 S
Gd599 O639 2.468 1_554 S
Gd599 O640 2.427 1_554 S
Gd599 O642 2.388 1_554 S
Gd599 C663 2.805 1_554 S
N600 C590 1.359 . S
N600 Gd599 2.570 . S
N600 C602 1.343 . S
C601 C589 1.422 . S
C601 C603 1.321 . S
C601 H609 0.931 . S
C602 N600 1.343 . S
C602 C603 1.390 . S
C602 H604 0.931 . S
C603 C601 1.321 . S
C603 C602 1.390 . S
C603 H605 0.930 . S
H604 C602 0.931 . S
H605 C603 0.930 . S
H606 C629 0.931 . S
H607 C595 0.929 . S
H608 C630 0.930 . S
H609 C601 0.931 . S
H610 C591 0.930 . S
H611 C620 0.929 . S
H612 C596 0.931 . S
H613 C597 0.930 . S
H614 C652 0.930 . S
H615 C593 0.929 . S
H616 C621 0.931 . S
H617 C622 0.930 . S
N618 Gd598 2.622 . S
N618 C619 1.369 . S
N618 C620 1.338 . S
C619 N618 1.369 . S
C619 C623 1.415 . S
C619 C626 1.422 . S
C620 H611 0.929 . S
C620 N618 1.338 . S
C620 C622 1.378 . S
C621 H616 0.931 . S
C621 C622 1.348 . S
C621 C623 1.413 . S
C622 H617 0.930 . S
C622 C620 1.378 . S
C622 C621 1.348 . S
C623 C619 1.415 . S
C623 C621 1.413 . S
C623 C653 1.437 . S
H624 C653 0.929 . S
N625 Gd598 2.570 . S
N625 C626 1.359 . S
N625 C629 1.343 . S
C626 C619 1.422 . S
C626 N625 1.359 . S
C626 C628 1.421 . S
C627 C628 1.422 . S
C627 C630 1.321 . S
C627 H654 0.931 . S
C628 C626 1.421 . S
C628 C627 1.422 . S
C628 C652 1.417 . S
C629 H606 0.931 . S
C629 N625 1.343 . S
C629 C630 1.390 . S
C630 H608 0.930 . S
C630 C627 1.321 . S
C630 C629 1.390 . S
O631 Gd599 2.386 . S
O631 C643 1.265 . S
O632 Gd598 2.353 1_554 S
O632 C643 1.242 . S
O633 Gd598 2.468 1_554 S
O633 C651 1.263 . S
O634 Gd598 2.427 1_554 S
O634 C651 1.252 . S
O635 Gd599 2.307 . S
O635 C644 1.261 . S
O636 Gd598 2.388 1_554 S
O636 C644 1.252 . S
O637 Gd598 2.386 . S
O637 C655 1.265 . S
O638 Gd599 2.353 1_556 S
O638 C655 1.242 . S
O639 Gd599 2.468 1_556 S
O639 C663 1.263 . S
O640 Gd599 2.427 1_556 S
O640 C663 1.252 . S
O641 Gd598 2.307 . S
O641 C656 1.261 . S
O642 Gd599 2.388 1_556 S
O642 C656 1.252 . S
C643 O631 1.265 . S
C643 O632 1.242 . S
C644 O635 1.261 . S
C644 O636 1.252 . S
C645 C648 1.394 . S
C645 C650 1.370 . S
C645 C651 1.500 . S
C646 C649 1.383 . S
C646 C650 1.395 . S
C647 C648 1.396 . S
C647 C649 1.365 . S
C647 H664 0.929 . S
C648 C645 1.394 . S
C648 C647 1.396 . S
C648 H665 0.930 . S
C649 C646 1.383 . S
C649 C647 1.365 . S
C649 H666 0.931 . S
C650 C645 1.370 . S
C650 C646 1.395 . S
C650 H667 0.930 . S
C651 Gd598 2.805 1_554 S
C651 O633 1.263 . S
C651 O634 1.252 . S
C651 C645 1.500 . S
C652 H614 0.930 . S
C652 C628 1.417 . S
C652 C653 1.329 . S
C653 C623 1.437 . S
C653 H624 0.929 . S
C653 C652 1.329 . S
H654 C627 0.931 . S
C655 O637 1.265 . S
C655 O638 1.242 . S
C656 O641 1.261 . S
C656 O642 1.252 . S
C657 C660 1.394 . S
C657 C662 1.370 . S
C657 C663 1.500 . S
C658 C661 1.383 . S
C658 C662 1.395 . S
C659 C660 1.396 . S
C659 C661 1.365 . S
C659 H668 0.929 . S
C660 C657 1.394 . S
C660 C659 1.396 . S
C660 H669 0.930 . S
C661 C658 1.383 . S
C661 C659 1.365 . S
C661 H670 0.931 . S
C662 C657 1.370 . S
C662 C658 1.395 . S
C662 H671 0.930 . S
C663 Gd599 2.805 1_556 S
C663 O639 1.263 . S
C663 O640 1.252 . S
C663 C657 1.500 . S
H664 C647 0.929 . S
H665 C648 0.930 . S
H666 C649 0.931 . S
H667 C650 0.930 . S
H668 C659 0.929 . S
H669 C660 0.930 . S
H670 C661 0.931 . S
H671 C662 0.930 . S
C672 C673 1.349 . S
C672 C674 1.327 . S
C672 H697 0.950 . S
C673 C672 1.349 . S
C673 C689 1.349 . S
C674 C672 1.327 . S
C674 C693 1.429 . S
C674 H698 0.950 . S
C675 C692 1.574 . S
C675 C694 1.368 . S
C675 H699 0.949 . S
H676 C680 0.949 . S
C677 C678 1.349 . S
C677 C679 1.327 . S
C677 H700 0.950 . S
C678 C677 1.349 . S
C678 C690 1.349 . S
C679 C677 1.327 . S
C679 C695 1.429 . S
C679 H701 0.950 . S
C680 H676 0.949 . S
C680 C688 1.574 . S
C680 C696 1.368 . S
H681 C689 0.950 . S
H682 C687 0.950 . S
H683 C688 0.949 . S
H684 C690 0.950 . S
H685 C691 0.950 . S
H686 C692 0.949 . S
C687 H682 0.950 . S
C687 C689 1.327 . S
C687 C693 1.429 . S
C688 C680 1.574 . S
C688 H683 0.949 . S
C688 C694 1.368 . S
C689 C673 1.349 . S
C689 H681 0.950 . S
C689 C687 1.327 . S
C690 C678 1.349 . S
C690 H684 0.950 . S
C690 C691 1.327 . S
C691 H685 0.950 . S
C691 C690 1.327 . S
C691 C695 1.429 . S
C692 C675 1.574 . S
C692 H686 0.949 . S
C692 C696 1.368 . S
C693 C674 1.429 . S
C693 C687 1.429 . S
C693 C694 1.523 . S
C694 C675 1.368 . S
C694 C688 1.368 . S
C694 C693 1.523 . S
C695 C679 1.429 . S
C695 C691 1.429 . S
C695 C696 1.523 . S
C696 C680 1.368 . S
C696 C692 1.368 . S
C696 C695 1.523 . S
H697 C672 0.950 . S
H698 C674 0.950 . S
H699 C675 0.949 . S
H700 C677 0.950 . S
H701 C679 0.950 . S
C702 C703 1.349 . S
C702 C704 1.327 . S
C702 H727 0.950 . S
C703 C702 1.349 . S
C703 C719 1.349 . S
C704 C702 1.327 . S
C704 C723 1.429 . S
C704 H728 0.950 . S
C705 C722 1.574 . S
C705 C724 1.368 . S
C705 H729 0.949 . S
H706 C710 0.949 . S
C707 C708 1.349 . S
C707 C709 1.327 . S
C707 H730 0.950 . S
C708 C707 1.349 . S
C708 C720 1.349 . S
C709 C707 1.327 . S
C709 C725 1.429 . S
C709 H731 0.950 . S
C710 H706 0.949 . S
C710 C718 1.574 . S
C710 C726 1.368 . S
H711 C719 0.950 . S
H712 C717 0.950 . S
H713 C718 0.949 . S
H714 C720 0.950 . S
H715 C721 0.950 . S
H716 C722 0.949 . S
C717 H712 0.950 . S
C717 C719 1.327 . S
C717 C723 1.429 . S
C718 C710 1.574 . S
C718 H713 0.949 . S
C718 C724 1.368 . S
C719 C703 1.349 . S
C719 H711 0.950 . S
C719 C717 1.327 . S
C720 C708 1.349 . S
C720 H714 0.950 . S
C720 C721 1.327 . S
C721 H715 0.950 . S
C721 C720 1.327 . S
C721 C725 1.429 . S
C722 C705 1.574 . S
C722 H716 0.949 . S
C722 C726 1.368 . S
C723 C704 1.429 . S
C723 C717 1.429 . S
C723 C724 1.523 . S
C724 C705 1.368 . S
C724 C718 1.368 . S
C724 C723 1.523 . S
C725 C709 1.429 . S
C725 C721 1.429 . S
C725 C726 1.523 . S
C726 C710 1.368 . S
C726 C722 1.368 . S
C726 C725 1.523 . S
H727 C702 0.950 . S
H728 C704 0.950 . S
H729 C705 0.949 . S
H730 C707 0.950 . S
H731 C709 0.950 . S
C732 C733 1.349 . S
C732 C734 1.327 . S
C732 H757 0.950 . S
C733 C732 1.349 . S
C733 C749 1.349 . S
C734 C732 1.327 . S
C734 C753 1.429 . S
C734 H758 0.950 . S
C735 C752 1.574 . S
C735 C754 1.368 . S
C735 H759 0.949 . S
H736 C740 0.949 . S
C737 C738 1.349 . S
C737 C739 1.327 . S
C737 H760 0.950 . S
C738 C737 1.349 . S
C738 C750 1.349 . S
C739 C737 1.327 . S
C739 C755 1.429 . S
C739 H761 0.950 . S
C740 H736 0.949 . S
C740 C748 1.574 . S
C740 C756 1.368 . S
H741 C749 0.950 . S
H742 C747 0.950 . S
H743 C748 0.949 . S
H744 C750 0.950 . S
H745 C751 0.950 . S
H746 C752 0.949 . S
C747 H742 0.950 . S
C747 C749 1.327 . S
C747 C753 1.429 . S
C748 C740 1.574 . S
C748 H743 0.949 . S
C748 C754 1.368 . S
C749 C733 1.349 . S
C749 H741 0.950 . S
C749 C747 1.327 . S
C750 C738 1.349 . S
C750 H744 0.950 . S
C750 C751 1.327 . S
C751 H745 0.950 . S
C751 C750 1.327 . S
C751 C755 1.429 . S
C752 C735 1.574 . S
C752 H746 0.949 . S
C752 C756 1.368 . S
C753 C734 1.429 . S
C753 C747 1.429 . S
C753 C754 1.523 . S
C754 C735 1.368 . S
C754 C748 1.368 . S
C754 C753 1.523 . S
C755 C739 1.429 . S
C755 C751 1.429 . S
C755 C756 1.523 . S
C756 C740 1.368 . S
C756 C752 1.368 . S
C756 C755 1.523 . S
H757 C732 0.950 . S
H758 C734 0.950 . S
H759 C735 0.949 . S
H760 C737 0.950 . S
H761 C739 0.950 . S
C762 C763 1.349 . S
C762 C764 1.327 . S
C762 H787 0.950 . S
C763 C762 1.349 . S
C763 C779 1.349 . S
C764 C762 1.327 . S
C764 C783 1.429 . S
C764 H788 0.950 . S
C765 C782 1.574 . S
C765 C784 1.368 . S
C765 H789 0.949 . S
H766 C770 0.949 . S
C767 C768 1.349 . S
C767 C769 1.327 . S
C767 H790 0.950 . S
C768 C767 1.349 . S
C768 C780 1.349 . S
C769 C767 1.327 . S
C769 C785 1.429 . S
C769 H791 0.950 . S
C770 H766 0.949 . S
C770 C778 1.574 . S
C770 C786 1.368 . S
H771 C779 0.950 . S
H772 C777 0.950 . S
H773 C778 0.949 . S
H774 C780 0.950 . S
H775 C781 0.950 . S
H776 C782 0.949 . S
C777 H772 0.950 . S
C777 C779 1.327 . S
C777 C783 1.429 . S
C778 C770 1.574 . S
C778 H773 0.949 . S
C778 C784 1.368 . S
C779 C763 1.349 . S
C779 H771 0.950 . S
C779 C777 1.327 . S
C780 C768 1.349 . S
C780 H774 0.950 . S
C780 C781 1.327 . S
C781 H775 0.950 . S
C781 C780 1.327 . S
C781 C785 1.429 . S
C782 C765 1.574 . S
C782 H776 0.949 . S
C782 C786 1.368 . S
C783 C764 1.429 . S
C783 C777 1.429 . S
C783 C784 1.523 . S
C784 C765 1.368 . S
C784 C778 1.368 . S
C784 C783 1.523 . S
C785 C769 1.429 . S
C785 C781 1.429 . S
C785 C786 1.523 . S
C786 C770 1.368 . S
C786 C782 1.368 . S
C786 C785 1.523 . S
H787 C762 0.950 . S
H788 C764 0.950 . S
H789 C765 0.949 . S
H790 C767 0.950 . S
H791 C769 0.950 . S
C792 C793 1.349 . S
C792 C794 1.327 . S
C792 H817 0.950 . S
C793 C792 1.349 . S
C793 C809 1.349 . S
C794 C792 1.327 . S
C794 C813 1.429 . S
C794 H818 0.950 . S
C795 C812 1.574 1_565 S
C795 C814 1.368 . S
C795 H819 0.949 . S
H796 C800 0.949 . S
C797 C798 1.349 . S
C797 C799 1.327 . S
C797 H820 0.950 . S
C798 C797 1.349 . S
C798 C810 1.349 . S
C799 C797 1.327 . S
C799 C815 1.429 . S
C799 H821 0.950 . S
C800 H796 0.949 . S
C800 C808 1.574 1_545 S
C800 C816 1.368 . S
H801 C809 0.950 . S
H802 C807 0.950 . S
H803 C808 0.949 . S
H804 C810 0.950 . S
H805 C811 0.950 . S
H806 C812 0.949 . S
C807 H802 0.950 . S
C807 C809 1.327 . S
C807 C813 1.429 . S
C808 C800 1.574 1_565 S
C808 H803 0.949 . S
C808 C814 1.368 . S
C809 C793 1.349 . S
C809 H801 0.950 . S
C809 C807 1.327 . S
C810 C798 1.349 . S
C810 H804 0.950 . S
C810 C811 1.327 . S
C811 H805 0.950 . S
C811 C810 1.327 . S
C811 C815 1.429 . S
C812 C795 1.574 1_545 S
C812 H806 0.949 . S
C812 C816 1.368 . S
C813 C794 1.429 . S
C813 C807 1.429 . S
C813 C814 1.523 . S
C814 C795 1.368 . S
C814 C808 1.368 . S
C814 C813 1.523 . S
C815 C799 1.429 . S
C815 C811 1.429 . S
C815 C816 1.523 . S
C816 C800 1.368 . S
C816 C812 1.368 . S
C816 C815 1.523 . S
H817 C792 0.950 . S
H818 C794 0.950 . S
H819 C795 0.949 . S
H820 C797 0.950 . S
H821 C799 0.950 . S
C822 C823 1.349 . S
C822 C824 1.327 . S
C822 H847 0.950 . S
C823 C822 1.349 . S
C823 C839 1.349 . S
C824 C822 1.327 . S
C824 C843 1.429 . S
C824 H848 0.950 . S
C825 C842 1.574 . S
C825 C844 1.368 . S
C825 H849 0.949 . S
H826 C830 0.949 . S
C827 C828 1.349 . S
C827 C829 1.327 . S
C827 H850 0.950 . S
C828 C827 1.349 . S
C828 C840 1.349 . S
C829 C827 1.327 . S
C829 C845 1.429 . S
C829 H851 0.950 . S
C830 H826 0.949 . S
C830 C838 1.574 . S
C830 C846 1.368 . S
H831 C839 0.950 . S
H832 C837 0.950 . S
H833 C838 0.949 . S
H834 C840 0.950 . S
H835 C841 0.950 . S
H836 C842 0.949 . S
C837 H832 0.950 . S
C837 C839 1.327 . S
C837 C843 1.429 . S
C838 C830 1.574 . S
C838 H833 0.949 . S
C838 C844 1.368 . S
C839 C823 1.349 . S
C839 H831 0.950 . S
C839 C837 1.327 . S
C840 C828 1.349 . S
C840 H834 0.950 . S
C840 C841 1.327 . S
C841 H835 0.950 . S
C841 C840 1.327 . S
C841 C845 1.429 . S
C842 C825 1.574 . S
C842 H836 0.949 . S
C842 C846 1.368 . S
C843 C824 1.429 . S
C843 C837 1.429 . S
C843 C844 1.523 . S
C844 C825 1.368 . S
C844 C838 1.368 . S
C844 C843 1.523 . S
C845 C829 1.429 . S
C845 C841 1.429 . S
C845 C846 1.523 . S
C846 C830 1.368 . S
C846 C842 1.368 . S
C846 C845 1.523 . S
H847 C822 0.950 . S
H848 C824 0.950 . S
H849 C825 0.949 . S
H850 C827 0.950 . S
H851 C829 0.950 . S
C852 C853 1.349 . S
C852 C854 1.327 . S
C852 H877 0.950 . S
C853 C852 1.349 . S
C853 C869 1.349 . S
C854 C852 1.327 . S
C854 C873 1.429 . S
C854 H878 0.950 . S
C855 C872 1.574 1_565 S
C855 C874 1.368 . S
C855 H879 0.949 . S
H856 C860 0.949 . S
C857 C858 1.349 . S
C857 C859 1.327 . S
C857 H880 0.950 . S
C858 C857 1.349 . S
C858 C870 1.349 . S
C859 C857 1.327 . S
C859 C875 1.429 . S
C859 H881 0.950 . S
C860 H856 0.949 . S
C860 C868 1.574 1_545 S
C860 C876 1.368 . S
H861 C869 0.950 . S
H862 C867 0.950 . S
H863 C868 0.949 . S
H864 C870 0.950 . S
H865 C871 0.950 . S
H866 C872 0.949 . S
C867 H862 0.950 . S
C867 C869 1.327 . S
C867 C873 1.429 . S
C868 C860 1.574 1_565 S
C868 H863 0.949 . S
C868 C874 1.368 . S
C869 C853 1.349 . S
C869 H861 0.950 . S
C869 C867 1.327 . S
C870 C858 1.349 . S
C870 H864 0.950 . S
C870 C871 1.327 . S
C871 H865 0.950 . S
C871 C870 1.327 . S
C871 C875 1.429 . S
C872 C855 1.574 1_545 S
C872 H866 0.949 . S
C872 C876 1.368 . S
C873 C854 1.429 . S
C873 C867 1.429 . S
C873 C874 1.523 . S
C874 C855 1.368 . S
C874 C868 1.368 . S
C874 C873 1.523 . S
C875 C859 1.429 . S
C875 C871 1.429 . S
C875 C876 1.523 . S
C876 C860 1.368 . S
C876 C872 1.368 . S
C876 C875 1.523 . S
H877 C852 0.950 . S
H878 C854 0.950 . S
H879 C855 0.949 . S
H880 C857 0.950 . S
H881 C859 0.950 . S
C882 C883 1.349 . S
C882 C884 1.327 . S
C882 H907 0.950 . S
C883 C882 1.349 . S
C883 C899 1.349 . S
C884 C882 1.327 . S
C884 C903 1.429 . S
C884 H908 0.950 . S
C885 C902 1.574 . S
C885 C904 1.368 . S
C885 H909 0.949 . S
H886 C890 0.949 . S
C887 C888 1.349 . S
C887 C889 1.327 . S
C887 H910 0.950 . S
C888 C887 1.349 . S
C888 C900 1.349 . S
C889 C887 1.327 . S
C889 C905 1.429 . S
C889 H911 0.950 . S
C890 H886 0.949 . S
C890 C898 1.574 . S
C890 C906 1.368 . S
H891 C899 0.950 . S
H892 C897 0.950 . S
H893 C898 0.949 . S
H894 C900 0.950 . S
H895 C901 0.950 . S
H896 C902 0.949 . S
C897 H892 0.950 . S
C897 C899 1.327 . S
C897 C903 1.429 . S
C898 C890 1.574 . S
C898 H893 0.949 . S
C898 C904 1.368 . S
C899 C883 1.349 . S
C899 H891 0.950 . S
C899 C897 1.327 . S
C900 C888 1.349 . S
C900 H894 0.950 . S
C900 C901 1.327 . S
C901 H895 0.950 . S
C901 C900 1.327 . S
C901 C905 1.429 . S
C902 C885 1.574 . S
C902 H896 0.949 . S
C902 C906 1.368 . S
C903 C884 1.429 . S
C903 C897 1.429 . S
C903 C904 1.523 . S
C904 C885 1.368 . S
C904 C898 1.368 . S
C904 C903 1.523 . S
C905 C889 1.429 . S
C905 C901 1.429 . S
C905 C906 1.523 . S
C906 C890 1.368 . S
C906 C902 1.368 . S
C906 C905 1.523 . S
H907 C882 0.950 . S
H908 C884 0.950 . S
H909 C885 0.949 . S
H910 C887 0.950 . S
H911 C889 0.950 . S
C912 C913 1.349 1_554 S
C912 C914 1.327 . S
C912 H937 0.950 . S
C913 C912 1.349 1_556 S
C913 C929 1.349 . S
C914 C912 1.327 . S
C914 C933 1.429 1_554 S
C914 H938 0.950 . S
C915 C932 1.574 . S
C915 C934 1.368 . S
C915 H939 0.949 . S
H916 C920 0.949 . S
C917 C918 1.349 1_556 S
C917 C919 1.327 . S
C917 H940 0.950 . S
C918 C917 1.349 1_554 S
C918 C930 1.349 . S
C919 C917 1.327 . S
C919 C935 1.429 1_556 S
C919 H941 0.950 . S
C920 H916 0.949 . S
C920 C928 1.574 . S
C920 C936 1.368 . S
H921 C929 0.950 . S
H922 C927 0.950 . S
H923 C928 0.949 . S
H924 C930 0.950 . S
H925 C931 0.950 . S
H926 C932 0.949 . S
C927 H922 0.950 . S
C927 C929 1.327 . S
C927 C933 1.429 . S
C928 C920 1.574 . S
C928 H923 0.949 . S
C928 C934 1.368 1_554 S
C929 C913 1.349 . S
C929 H921 0.950 . S
C929 C927 1.327 . S
C930 C918 1.349 . S
C930 H924 0.950 . S
C930 C931 1.327 . S
C931 H925 0.950 . S
C931 C930 1.327 . S
C931 C935 1.429 . S
C932 C915 1.574 . S
C932 H926 0.949 . S
C932 C936 1.368 1_556 S
C933 C914 1.429 1_556 S
C933 C927 1.429 . S
C933 C934 1.523 . S
C934 C915 1.368 . S
C934 C928 1.368 1_556 S
C934 C933 1.523 . S
C935 C919 1.429 1_554 S
C935 C931 1.429 . S
C935 C936 1.523 . S
C936 C920 1.368 . S
C936 C932 1.368 1_554 S
C936 C935 1.523 . S
H937 C912 0.950 . S
H938 C914 0.950 . S
H939 C915 0.949 . S
H940 C917 0.950 . S
H941 C919 0.950 . S
C942 C943 1.349 1_556 S
C942 C944 1.327 . S
C942 H967 0.950 . S
C943 C942 1.349 1_554 S
C943 C959 1.349 . S
C944 C942 1.327 . S
C944 C963 1.429 1_556 S
C944 H968 0.950 . S
C945 C962 1.574 1_565 S
C945 C964 1.368 . S
C945 H969 0.949 . S
H946 C950 0.949 . S
C947 C948 1.349 1_554 S
C947 C949 1.327 . S
C947 H970 0.950 . S
C948 C947 1.349 1_556 S
C948 C960 1.349 . S
C949 C947 1.327 . S
C949 C965 1.429 1_554 S
C949 H971 0.950 . S
C950 H946 0.949 . S
C950 C958 1.574 1_545 S
C950 C966 1.368 . S
H951 C959 0.950 . S
H952 C957 0.950 . S
H953 C958 0.949 . S
H954 C960 0.950 . S
H955 C961 0.950 . S
H956 C962 0.949 . S
C957 H952 0.950 . S
C957 C959 1.327 . S
C957 C963 1.429 . S
C958 C950 1.574 1_565 S
C958 H953 0.949 . S
C958 C964 1.368 1_556 S
C959 C943 1.349 . S
C959 H951 0.950 . S
C959 C957 1.327 . S
C960 C948 1.349 . S
C960 H954 0.950 . S
C960 C961 1.327 . S
C961 H955 0.950 . S
C961 C960 1.327 . S
C961 C965 1.429 . S
C962 C945 1.574 1_545 S
C962 H956 0.949 . S
C962 C966 1.368 1_554 S
C963 C944 1.429 1_554 S
C963 C957 1.429 . S
C963 C964 1.523 . S
C964 C945 1.368 . S
C964 C958 1.368 1_554 S
C964 C963 1.523 . S
C965 C949 1.429 1_556 S
C965 C961 1.429 . S
C965 C966 1.523 . S
C966 C950 1.368 . S
C966 C962 1.368 1_556 S
C966 C965 1.523 . S
H967 C942 0.950 . S
H968 C944 0.950 . S
H969 C945 0.949 . S
H970 C947 0.950 . S
H971 C949 0.950 . S
C972 C973 1.349 . S
C972 C974 1.327 . S
C972 H997 0.950 . S
C973 C972 1.349 . S
C973 C989 1.349 1_554 S
C974 C972 1.327 . S
C974 C993 1.429 . S
C974 H998 0.950 . S
C975 C992 1.574 . S
C975 C994 1.368 1_556 S
C975 H999 0.949 . S
H976 C980 0.949 . S
C977 C978 1.349 . S
C977 C979 1.327 . S
C977 H1000 0.950 . S
C978 C977 1.349 . S
C978 C990 1.349 1_556 S
C979 C977 1.327 . S
C979 C995 1.429 . S
C979 H1001 0.950 . S
C980 H976 0.949 . S
C980 C988 1.574 . S
C980 C996 1.368 1_554 S
H981 C989 0.950 . S
H982 C987 0.950 . S
H983 C988 0.949 . S
H984 C990 0.950 . S
H985 C991 0.950 . S
H986 C992 0.949 . S
C987 H982 0.950 . S
C987 C989 1.327 . S
C987 C993 1.429 1_556 S
C988 C980 1.574 . S
C988 H983 0.949 . S
C988 C994 1.368 . S
C989 C973 1.349 1_556 S
C989 H981 0.950 . S
C989 C987 1.327 . S
C990 C978 1.349 1_554 S
C990 H984 0.950 . S
C990 C991 1.327 . S
C991 H985 0.950 . S
C991 C990 1.327 . S
C991 C995 1.429 1_554 S
C992 C975 1.574 . S
C992 H986 0.949 . S
C992 C996 1.368 . S
C993 C974 1.429 . S
C993 C987 1.429 1_554 S
C993 C994 1.523 . S
C994 C975 1.368 1_554 S
C994 C988 1.368 . S
C994 C993 1.523 . S
C995 C979 1.429 . S
C995 C991 1.429 1_556 S
C995 C996 1.523 . S
C996 C980 1.368 1_556 S
C996 C992 1.368 . S
C996 C995 1.523 . S
H997 C972 0.950 . S
H998 C974 0.950 . S
H999 C975 0.949 . S
H1000 C977 0.950 . S
H1001 C979 0.950 . S
C1002 C1003 1.349 . S
C1002 C1004 1.327 . S
C1002 H1027 0.950 . S
C1003 C1002 1.349 . S
C1003 C1019 1.349 1_556 S
C1004 C1002 1.327 . S
C1004 C1023 1.429 . S
C1004 H1028 0.950 . S
C1005 C1022 1.574 1_545 S
C1005 C1024 1.368 1_554 S
C1005 H1029 0.949 . S
H1006 C1010 0.949 . S
C1007 C1008 1.349 . S
C1007 C1009 1.327 . S
C1007 H1030 0.950 . S
C1008 C1007 1.349 . S
C1008 C1020 1.349 1_554 S
C1009 C1007 1.327 . S
C1009 C1025 1.429 . S
C1009 H1031 0.950 . S
C1010 H1006 0.949 . S
C1010 C1018 1.574 1_565 S
C1010 C1026 1.368 1_556 S
H1011 C1019 0.950 . S
H1012 C1017 0.950 . S
H1013 C1018 0.949 . S
H1014 C1020 0.950 . S
H1015 C1021 0.950 . S
H1016 C1022 0.949 . S
C1017 H1012 0.950 . S
C1017 C1019 1.327 . S
C1017 C1023 1.429 1_554 S
C1018 C1010 1.574 1_545 S
C1018 H1013 0.949 . S
C1018 C1024 1.368 . S
C1019 C1003 1.349 1_554 S
C1019 H1011 0.950 . S
C1019 C1017 1.327 . S
C1020 C1008 1.349 1_556 S
C1020 H1014 0.950 . S
C1020 C1021 1.327 . S
C1021 H1015 0.950 . S
C1021 C1020 1.327 . S
C1021 C1025 1.429 1_556 S
C1022 C1005 1.574 1_565 S
C1022 H1016 0.949 . S
C1022 C1026 1.368 . S
C1023 C1004 1.429 . S
C1023 C1017 1.429 1_556 S
C1023 C1024 1.523 . S
C1024 C1005 1.368 1_556 S
C1024 C1018 1.368 . S
C1024 C1023 1.523 . S
C1025 C1009 1.429 . S
C1025 C1021 1.429 1_554 S
C1025 C1026 1.523 . S
C1026 C1010 1.368 1_554 S
C1026 C1022 1.368 . S
C1026 C1025 1.523 . S
H1027 C1002 0.950 . S
H1028 C1004 0.950 . S
H1029 C1005 0.949 . S
H1030 C1007 0.950 . S
H1031 C1009 0.950 . S
C1032 C1033 1.349 . S
C1032 C1034 1.327 . S
C1032 H1057 0.950 . S
C1033 C1032 1.349 . S
C1033 C1049 1.349 . S
C1034 C1032 1.327 . S
C1034 C1053 1.429 . S
C1034 H1058 0.950 . S
C1035 C1052 1.574 1_554 S
C1035 C1054 1.368 . S
C1035 H1059 0.949 . S
H1036 C1040 0.949 . S
C1037 C1038 1.349 . S
C1037 C1039 1.327 . S
C1037 H1060 0.950 . S
C1038 C1037 1.349 . S
C1038 C1050 1.349 . S
C1039 C1037 1.327 . S
C1039 C1055 1.429 . S
C1039 H1061 0.950 . S
C1040 H1036 0.949 . S
C1040 C1048 1.574 1_556 S
C1040 C1056 1.368 . S
H1041 C1049 0.950 . S
H1042 C1047 0.950 . S
H1043 C1048 0.949 . S
H1044 C1050 0.950 . S
H1045 C1051 0.950 . S
H1046 C1052 0.949 . S
C1047 H1042 0.950 . S
C1047 C1049 1.327 . S
C1047 C1053 1.429 . S
C1048 C1040 1.574 1_554 S
C1048 H1043 0.949 . S
C1048 C1054 1.368 . S
C1049 C1033 1.349 . S
C1049 H1041 0.950 . S
C1049 C1047 1.327 . S
C1050 C1038 1.349 . S
C1050 H1044 0.950 . S
C1050 C1051 1.327 . S
C1051 H1045 0.950 . S
C1051 C1050 1.327 . S
C1051 C1055 1.429 . S
C1052 C1035 1.574 1_556 S
C1052 H1046 0.949 . S
C1052 C1056 1.368 . S
C1053 C1034 1.429 . S
C1053 C1047 1.429 . S
C1053 C1054 1.523 . S
C1054 C1035 1.368 . S
C1054 C1048 1.368 . S
C1054 C1053 1.523 . S
C1055 C1039 1.429 . S
C1055 C1051 1.429 . S
C1055 C1056 1.523 . S
C1056 C1040 1.368 . S
C1056 C1052 1.368 . S
C1056 C1055 1.523 . S
H1057 C1032 0.950 . S
H1058 C1034 0.950 . S
H1059 C1035 0.949 . S
H1060 C1037 0.950 . S
H1061 C1039 0.950 . S
C1062 C1063 1.349 . S
C1062 C1064 1.327 . S
C1062 H1087 0.950 . S
C1063 C1062 1.349 . S
C1063 C1079 1.349 . S
C1064 C1062 1.327 . S
C1064 C1083 1.429 . S
C1064 H1088 0.950 . S
C1065 C1082 1.574 1_554 S
C1065 C1084 1.368 . S
C1065 H1089 0.949 . S
H1066 C1070 0.949 . S
C1067 C1068 1.349 . S
C1067 C1069 1.327 . S
C1067 H1090 0.950 . S
C1068 C1067 1.349 . S
C1068 C1080 1.349 . S
C1069 C1067 1.327 . S
C1069 C1085 1.429 . S
C1069 H1091 0.950 . S
C1070 H1066 0.949 . S
C1070 C1078 1.574 1_556 S
C1070 C1086 1.368 . S
H1071 C1079 0.950 . S
H1072 C1077 0.950 . S
H1073 C1078 0.949 . S
H1074 C1080 0.950 . S
H1075 C1081 0.950 . S
H1076 C1082 0.949 . S
C1077 H1072 0.950 . S
C1077 C1079 1.327 . S
C1077 C1083 1.429 . S
C1078 C1070 1.574 1_554 S
C1078 H1073 0.949 . S
C1078 C1084 1.368 . S
C1079 C1063 1.349 . S
C1079 H1071 0.950 . S
C1079 C1077 1.327 . S
C1080 C1068 1.349 . S
C1080 H1074 0.950 . S
C1080 C1081 1.327 . S
C1081 H1075 0.950 . S
C1081 C1080 1.327 . S
C1081 C1085 1.429 . S
C1082 C1065 1.574 1_556 S
C1082 H1076 0.949 . S
C1082 C1086 1.368 . S
C1083 C1064 1.429 . S
C1083 C1077 1.429 . S
C1083 C1084 1.523 . S
C1084 C1065 1.368 . S
C1084 C1078 1.368 . S
C1084 C1083 1.523 . S
C1085 C1069 1.429 . S
C1085 C1081 1.429 . S
C1085 C1086 1.523 . S
C1086 C1070 1.368 . S
C1086 C1082 1.368 . S
C1086 C1085 1.523 . S
H1087 C1062 0.950 . S
H1088 C1064 0.950 . S
H1089 C1065 0.949 . S
H1090 C1067 0.950 . S
H1091 C1069 0.950 . S
C1092 C1093 1.349 . S
C1092 C1094 1.327 . S
C1092 H1117 0.950 . S
C1093 C1092 1.349 . S
C1093 C1109 1.349 . S
C1094 C1092 1.327 . S
C1094 C1113 1.429 . S
C1094 H1118 0.950 . S
C1095 C1112 1.574 1_554 S
C1095 C1114 1.368 . S
C1095 H1119 0.949 . S
H1096 C1100 0.949 . S
C1097 C1098 1.349 . S
C1097 C1099 1.327 . S
C1097 H1120 0.950 . S
C1098 C1097 1.349 . S
C1098 C1110 1.349 . S
C1099 C1097 1.327 . S
C1099 C1115 1.429 . S
C1099 H1121 0.950 . S
C1100 H1096 0.949 . S
C1100 C1108 1.574 1_556 S
C1100 C1116 1.368 . S
H1101 C1109 0.950 . S
H1102 C1107 0.950 . S
H1103 C1108 0.949 . S
H1104 C1110 0.950 . S
H1105 C1111 0.950 . S
H1106 C1112 0.949 . S
C1107 H1102 0.950 . S
C1107 C1109 1.327 . S
C1107 C1113 1.429 . S
C1108 C1100 1.574 1_554 S
C1108 H1103 0.949 . S
C1108 C1114 1.368 . S
C1109 C1093 1.349 . S
C1109 H1101 0.950 . S
C1109 C1107 1.327 . S
C1110 C1098 1.349 . S
C1110 H1104 0.950 . S
C1110 C1111 1.327 . S
C1111 H1105 0.950 . S
C1111 C1110 1.327 . S
C1111 C1115 1.429 . S
C1112 C1095 1.574 1_556 S
C1112 H1106 0.949 . S
C1112 C1116 1.368 . S
C1113 C1094 1.429 . S
C1113 C1107 1.429 . S
C1113 C1114 1.523 . S
C1114 C1095 1.368 . S
C1114 C1108 1.368 . S
C1114 C1113 1.523 . S
C1115 C1099 1.429 . S
C1115 C1111 1.429 . S
C1115 C1116 1.523 . S
C1116 C1100 1.368 . S
C1116 C1112 1.368 . S
C1116 C1115 1.523 . S
H1117 C1092 0.950 . S
H1118 C1094 0.950 . S
H1119 C1095 0.949 . S
H1120 C1097 0.950 . S
H1121 C1099 0.950 . S
C1122 C1123 1.349 . S
C1122 C1124 1.327 . S
C1122 H1147 0.950 . S
C1123 C1122 1.349 . S
C1123 C1139 1.349 . S
C1124 C1122 1.327 . S
C1124 C1143 1.429 . S
C1124 H1148 0.950 . S
C1125 C1142 1.574 1_556 S
C1125 C1144 1.368 . S
C1125 H1149 0.949 . S
H1126 C1130 0.949 . S
C1127 C1128 1.349 . S
C1127 C1129 1.327 . S
C1127 H1150 0.950 . S
C1128 C1127 1.349 . S
C1128 C1140 1.349 . S
C1129 C1127 1.327 . S
C1129 C1145 1.429 . S
C1129 H1151 0.950 . S
C1130 H1126 0.949 . S
C1130 C1138 1.574 1_554 S
C1130 C1146 1.368 . S
H1131 C1139 0.950 . S
H1132 C1137 0.950 . S
H1133 C1138 0.949 . S
H1134 C1140 0.950 . S
H1135 C1141 0.950 . S
H1136 C1142 0.949 . S
C1137 H1132 0.950 . S
C1137 C1139 1.327 . S
C1137 C1143 1.429 . S
C1138 C1130 1.574 1_556 S
C1138 H1133 0.949 . S
C1138 C1144 1.368 . S
C1139 C1123 1.349 . S
C1139 H1131 0.950 . S
C1139 C1137 1.327 . S
C1140 C1128 1.349 . S
C1140 H1134 0.950 . S
C1140 C1141 1.327 . S
C1141 H1135 0.950 . S
C1141 C1140 1.327 . S
C1141 C1145 1.429 . S
C1142 C1125 1.574 1_554 S
C1142 H1136 0.949 . S
C1142 C1146 1.368 . S
C1143 C1124 1.429 . S
C1143 C1137 1.429 . S
C1143 C1144 1.523 . S
C1144 C1125 1.368 . S
C1144 C1138 1.368 . S
C1144 C1143 1.523 . S
C1145 C1129 1.429 . S
C1145 C1141 1.429 . S
C1145 C1146 1.523 . S
C1146 C1130 1.368 . S
C1146 C1142 1.368 . S
C1146 C1145 1.523 . S
H1147 C1122 0.950 . S
H1148 C1124 0.950 . S
H1149 C1125 0.949 . S
H1150 C1127 0.950 . S
H1151 C1129 0.950 . S
C1152 C1153 1.349 . S
C1152 C1154 1.327 . S
C1152 H1177 0.950 . S
C1153 C1152 1.349 . S
C1153 C1169 1.349 . S
C1154 C1152 1.327 . S
C1154 C1173 1.429 . S
C1154 H1178 0.950 . S
C1155 C1172 1.574 . S
C1155 C1174 1.368 . S
C1155 H1179 0.949 . S
H1156 C1160 0.949 . S
C1157 C1158 1.349 . S
C1157 C1159 1.327 . S
C1157 H1180 0.950 . S
C1158 C1157 1.349 . S
C1158 C1170 1.349 . S
C1159 C1157 1.327 . S
C1159 C1175 1.429 . S
C1159 H1181 0.950 . S
C1160 H1156 0.949 . S
C1160 C1168 1.574 . S
C1160 C1176 1.368 . S
H1161 C1169 0.950 . S
H1162 C1167 0.950 . S
H1163 C1168 0.949 . S
H1164 C1170 0.950 . S
H1165 C1171 0.950 . S
H1166 C1172 0.949 . S
C1167 H1162 0.950 . S
C1167 C1169 1.327 . S
C1167 C1173 1.429 . S
C1168 C1160 1.574 . S
C1168 H1163 0.949 . S
C1168 C1174 1.368 . S
C1169 C1153 1.349 . S
C1169 H1161 0.950 . S
C1169 C1167 1.327 . S
C1170 C1158 1.349 . S
C1170 H1164 0.950 . S
C1170 C1171 1.327 . S
C1171 H1165 0.950 . S
C1171 C1170 1.327 . S
C1171 C1175 1.429 . S
C1172 C1155 1.574 . S
C1172 H1166 0.949 . S
C1172 C1176 1.368 . S
C1173 C1154 1.429 . S
C1173 C1167 1.429 . S
C1173 C1174 1.523 . S
C1174 C1155 1.368 . S
C1174 C1168 1.368 . S
C1174 C1173 1.523 . S
C1175 C1159 1.429 . S
C1175 C1171 1.429 . S
C1175 C1176 1.523 . S
C1176 C1160 1.368 . S
C1176 C1172 1.368 . S
C1176 C1175 1.523 . S
H1177 C1152 0.950 . S
H1178 C1154 0.950 . S
H1179 C1155 0.949 . S
H1180 C1157 0.950 . S
H1181 C1159 0.950 . S
C1182 C1183 1.349 . S
C1182 C1184 1.327 . S
C1182 H1207 0.950 . S
C1183 C1182 1.349 . S
C1183 C1199 1.349 . S
C1184 C1182 1.327 . S
C1184 C1203 1.429 . S
C1184 H1208 0.950 . S
C1185 C1202 1.574 . S
C1185 C1204 1.368 . S
C1185 H1209 0.949 . S
H1186 C1190 0.949 . S
C1187 C1188 1.349 . S
C1187 C1189 1.327 . S
C1187 H1210 0.950 . S
C1188 C1187 1.349 . S
C1188 C1200 1.349 . S
C1189 C1187 1.327 . S
C1189 C1205 1.429 . S
C1189 H1211 0.950 . S
C1190 H1186 0.949 . S
C1190 C1198 1.574 . S
C1190 C1206 1.368 . S
H1191 C1199 0.950 . S
H1192 C1197 0.950 . S
H1193 C1198 0.949 . S
H1194 C1200 0.950 . S
H1195 C1201 0.950 . S
H1196 C1202 0.949 . S
C1197 H1192 0.950 . S
C1197 C1199 1.327 . S
C1197 C1203 1.429 . S
C1198 C1190 1.574 . S
C1198 H1193 0.949 . S
C1198 C1204 1.368 . S
C1199 C1183 1.349 . S
C1199 H1191 0.950 . S
C1199 C1197 1.327 . S
C1200 C1188 1.349 . S
C1200 H1194 0.950 . S
C1200 C1201 1.327 . S
C1201 H1195 0.950 . S
C1201 C1200 1.327 . S
C1201 C1205 1.429 . S
C1202 C1185 1.574 . S
C1202 H1196 0.949 . S
C1202 C1206 1.368 . S
C1203 C1184 1.429 . S
C1203 C1197 1.429 . S
C1203 C1204 1.523 . S
C1204 C1185 1.368 . S
C1204 C1198 1.368 . S
C1204 C1203 1.523 . S
C1205 C1189 1.429 . S
C1205 C1201 1.429 . S
C1205 C1206 1.523 . S
C1206 C1190 1.368 . S
C1206 C1202 1.368 . S
C1206 C1205 1.523 . S
H1207 C1182 0.950 . S
H1208 C1184 0.950 . S
H1209 C1185 0.949 . S
H1210 C1187 0.950 . S
H1211 C1189 0.950 . S
C1212 C1213 1.349 . S
C1212 C1214 1.327 . S
C1212 H1237 0.950 . S
C1213 C1212 1.349 . S
C1213 C1229 1.349 . S
C1214 C1212 1.327 . S
C1214 C1233 1.429 . S
C1214 H1238 0.950 . S
C1215 C1232 1.574 . S
C1215 C1234 1.368 . S
C1215 H1239 0.949 . S
H1216 C1220 0.949 . S
C1217 C1218 1.349 . S
C1217 C1219 1.327 . S
C1217 H1240 0.950 . S
C1218 C1217 1.349 . S
C1218 C1230 1.349 . S
C1219 C1217 1.327 . S
C1219 C1235 1.429 . S
C1219 H1241 0.950 . S
C1220 H1216 0.949 . S
C1220 C1228 1.574 . S
C1220 C1236 1.368 . S
H1221 C1229 0.950 . S
H1222 C1227 0.950 . S
H1223 C1228 0.949 . S
H1224 C1230 0.950 . S
H1225 C1231 0.950 . S
H1226 C1232 0.949 . S
C1227 H1222 0.950 . S
C1227 C1229 1.327 . S
C1227 C1233 1.429 . S
C1228 C1220 1.574 . S
C1228 H1223 0.949 . S
C1228 C1234 1.368 . S
C1229 C1213 1.349 . S
C1229 H1221 0.950 . S
C1229 C1227 1.327 . S
C1230 C1218 1.349 . S
C1230 H1224 0.950 . S
C1230 C1231 1.327 . S
C1231 H1225 0.950 . S
C1231 C1230 1.327 . S
C1231 C1235 1.429 . S
C1232 C1215 1.574 . S
C1232 H1226 0.949 . S
C1232 C1236 1.368 . S
C1233 C1214 1.429 . S
C1233 C1227 1.429 . S
C1233 C1234 1.523 . S
C1234 C1215 1.368 . S
C1234 C1228 1.368 . S
C1234 C1233 1.523 . S
C1235 C1219 1.429 . S
C1235 C1231 1.429 . S
C1235 C1236 1.523 . S
C1236 C1220 1.368 . S
C1236 C1232 1.368 . S
C1236 C1235 1.523 . S
H1237 C1212 0.950 . S
H1238 C1214 0.950 . S
H1239 C1215 0.949 . S
H1240 C1217 0.950 . S
H1241 C1219 0.950 . S
C1242 C1243 1.349 . S
C1242 C1244 1.327 . S
C1242 H1267 0.950 . S
C1243 C1242 1.349 . S
C1243 C1259 1.349 . S
C1244 C1242 1.327 . S
C1244 C1263 1.429 . S
C1244 H1268 0.950 . S
C1245 C1262 1.574 . S
C1245 C1264 1.368 . S
C1245 H1269 0.949 . S
H1246 C1250 0.949 . S
C1247 C1248 1.349 . S
C1247 C1249 1.327 . S
C1247 H1270 0.950 . S
C1248 C1247 1.349 . S
C1248 C1260 1.349 . S
C1249 C1247 1.327 . S
C1249 C1265 1.429 . S
C1249 H1271 0.950 . S
C1250 H1246 0.949 . S
C1250 C1258 1.574 . S
C1250 C1266 1.368 . S
H1251 C1259 0.950 . S
H1252 C1257 0.950 . S
H1253 C1258 0.949 . S
H1254 C1260 0.950 . S
H1255 C1261 0.950 . S
H1256 C1262 0.949 . S
C1257 H1252 0.950 . S
C1257 C1259 1.327 . S
C1257 C1263 1.429 . S
C1258 C1250 1.574 . S
C1258 H1253 0.949 . S
C1258 C1264 1.368 . S
C1259 C1243 1.349 . S
C1259 H1251 0.950 . S
C1259 C1257 1.327 . S
C1260 C1248 1.349 . S
C1260 H1254 0.950 . S
C1260 C1261 1.327 . S
C1261 H1255 0.950 . S
C1261 C1260 1.327 . S
C1261 C1265 1.429 . S
C1262 C1245 1.574 . S
C1262 H1256 0.949 . S
C1262 C1266 1.368 . S
C1263 C1244 1.429 . S
C1263 C1257 1.429 . S
C1263 C1264 1.523 . S
C1264 C1245 1.368 . S
C1264 C1258 1.368 . S
C1264 C1263 1.523 . S
C1265 C1249 1.429 . S
C1265 C1261 1.429 . S
C1265 C1266 1.523 . S
C1266 C1250 1.368 . S
C1266 C1262 1.368 . S
C1266 C1265 1.523 . S
H1267 C1242 0.950 . S
H1268 C1244 0.950 . S
H1269 C1245 0.949 . S
H1270 C1247 0.950 . S
H1271 C1249 0.950 . S
C1272 C1273 1.349 . S
C1272 C1274 1.327 . S
C1272 H1297 0.950 . S
C1273 C1272 1.349 . S
C1273 C1289 1.349 . S
C1274 C1272 1.327 . S
C1274 C1293 1.429 . S
C1274 H1298 0.950 . S
C1275 C1292 1.574 1_455 S
C1275 C1294 1.368 . S
C1275 H1299 0.949 . S
H1276 C1280 0.949 . S
C1277 C1278 1.349 . S
C1277 C1279 1.327 . S
C1277 H1300 0.950 . S
C1278 C1277 1.349 . S
C1278 C1290 1.349 . S
C1279 C1277 1.327 . S
C1279 C1295 1.429 . S
C1279 H1301 0.950 . S
C1280 H1276 0.949 . S
C1280 C1288 1.574 1_655 S
C1280 C1296 1.368 . S
H1281 C1289 0.950 . S
H1282 C1287 0.950 . S
H1283 C1288 0.949 . S
H1284 C1290 0.950 . S
H1285 C1291 0.950 . S
H1286 C1292 0.949 . S
C1287 H1282 0.950 . S
C1287 C1289 1.327 . S
C1287 C1293 1.429 . S
C1288 C1280 1.574 1_455 S
C1288 H1283 0.949 . S
C1288 C1294 1.368 . S
C1289 C1273 1.349 . S
C1289 H1281 0.950 . S
C1289 C1287 1.327 . S
C1290 C1278 1.349 . S
C1290 H1284 0.950 . S
C1290 C1291 1.327 . S
C1291 H1285 0.950 . S
C1291 C1290 1.327 . S
C1291 C1295 1.429 . S
C1292 C1275 1.574 1_655 S
C1292 H1286 0.949 . S
C1292 C1296 1.368 . S
C1293 C1274 1.429 . S
C1293 C1287 1.429 . S
C1293 C1294 1.523 . S
C1294 C1275 1.368 . S
C1294 C1288 1.368 . S
C1294 C1293 1.523 . S
C1295 C1279 1.429 . S
C1295 C1291 1.429 . S
C1295 C1296 1.523 . S
C1296 C1280 1.368 . S
C1296 C1292 1.368 . S
C1296 C1295 1.523 . S
H1297 C1272 0.950 . S
H1298 C1274 0.950 . S
H1299 C1275 0.949 . S
H1300 C1277 0.950 . S
H1301 C1279 0.950 . S
C1302 C1303 1.349 . S
C1302 C1304 1.327 . S
C1302 H1327 0.950 . S
C1303 C1302 1.349 . S
C1303 C1319 1.349 . S
C1304 C1302 1.327 . S
C1304 C1323 1.429 . S
C1304 H1328 0.950 . S
C1305 C1322 1.574 1_655 S
C1305 C1324 1.368 . S
C1305 H1329 0.949 . S
H1306 C1310 0.949 . S
C1307 C1308 1.349 . S
C1307 C1309 1.327 . S
C1307 H1330 0.950 . S
C1308 C1307 1.349 . S
C1308 C1320 1.349 . S
C1309 C1307 1.327 . S
C1309 C1325 1.429 . S
C1309 H1331 0.950 . S
C1310 H1306 0.949 . S
C1310 C1318 1.574 1_455 S
C1310 C1326 1.368 . S
H1311 C1319 0.950 . S
H1312 C1317 0.950 . S
H1313 C1318 0.949 . S
H1314 C1320 0.950 . S
H1315 C1321 0.950 . S
H1316 C1322 0.949 . S
C1317 H1312 0.950 . S
C1317 C1319 1.327 . S
C1317 C1323 1.429 . S
C1318 C1310 1.574 1_655 S
C1318 H1313 0.949 . S
C1318 C1324 1.368 . S
C1319 C1303 1.349 . S
C1319 H1311 0.950 . S
C1319 C1317 1.327 . S
C1320 C1308 1.349 . S
C1320 H1314 0.950 . S
C1320 C1321 1.327 . S
C1321 H1315 0.950 . S
C1321 C1320 1.327 . S
C1321 C1325 1.429 . S
C1322 C1305 1.574 1_455 S
C1322 H1316 0.949 . S
C1322 C1326 1.368 . S
C1323 C1304 1.429 . S
C1323 C1317 1.429 . S
C1323 C1324 1.523 . S
C1324 C1305 1.368 . S
C1324 C1318 1.368 . S
C1324 C1323 1.523 . S
C1325 C1309 1.429 . S
C1325 C1321 1.429 . S
C1325 C1326 1.523 . S
C1326 C1310 1.368 . S
C1326 C1322 1.368 . S
C1326 C1325 1.523 . S
H1327 C1302 0.950 . S
H1328 C1304 0.950 . S
H1329 C1305 0.949 . S
H1330 C1307 0.950 . S
H1331 C1309 0.950 . S
C1332 C1333 1.349 . S
C1332 C1334 1.327 . S
C1332 H1357 0.950 . S
C1333 C1332 1.349 . S
C1333 C1349 1.349 . S
C1334 C1332 1.327 . S
C1334 C1353 1.429 . S
C1334 H1358 0.950 . S
C1335 C1352 1.574 . S
C1335 C1354 1.368 . S
C1335 H1359 0.949 . S
H1336 C1340 0.949 . S
C1337 C1338 1.349 . S
C1337 C1339 1.327 . S
C1337 H1360 0.950 . S
C1338 C1337 1.349 . S
C1338 C1350 1.349 . S
C1339 C1337 1.327 . S
C1339 C1355 1.429 . S
C1339 H1361 0.950 . S
C1340 H1336 0.949 . S
C1340 C1348 1.574 . S
C1340 C1356 1.368 . S
H1341 C1349 0.950 . S
H1342 C1347 0.950 . S
H1343 C1348 0.949 . S
H1344 C1350 0.950 . S
H1345 C1351 0.950 . S
H1346 C1352 0.949 . S
C1347 H1342 0.950 . S
C1347 C1349 1.327 . S
C1347 C1353 1.429 . S
C1348 C1340 1.574 . S
C1348 H1343 0.949 . S
C1348 C1354 1.368 . S
C1349 C1333 1.349 . S
C1349 H1341 0.950 . S
C1349 C1347 1.327 . S
C1350 C1338 1.349 . S
C1350 H1344 0.950 . S
C1350 C1351 1.327 . S
C1351 H1345 0.950 . S
C1351 C1350 1.327 . S
C1351 C1355 1.429 . S
C1352 C1335 1.574 . S
C1352 H1346 0.949 . S
C1352 C1356 1.368 . S
C1353 C1334 1.429 . S
C1353 C1347 1.429 . S
C1353 C1354 1.523 . S
C1354 C1335 1.368 . S
C1354 C1348 1.368 . S
C1354 C1353 1.523 . S
C1355 C1339 1.429 . S
C1355 C1351 1.429 . S
C1355 C1356 1.523 . S
C1356 C1340 1.368 . S
C1356 C1352 1.368 . S
C1356 C1355 1.523 . S
H1357 C1332 0.950 . S
H1358 C1334 0.950 . S
H1359 C1335 0.949 . S
H1360 C1337 0.950 . S
H1361 C1339 0.950 . S
C1362 C1363 1.349 . S
C1362 C1364 1.327 . S
C1362 H1387 0.950 . S
C1363 C1362 1.349 . S
C1363 C1379 1.349 . S
C1364 C1362 1.327 . S
C1364 C1383 1.429 . S
C1364 H1388 0.950 . S
C1365 C1382 1.574 . S
C1365 C1384 1.368 . S
C1365 H1389 0.949 . S
H1366 C1370 0.949 . S
C1367 C1368 1.349 . S
C1367 C1369 1.327 . S
C1367 H1390 0.950 . S
C1368 C1367 1.349 . S
C1368 C1380 1.349 . S
C1369 C1367 1.327 . S
C1369 C1385 1.429 . S
C1369 H1391 0.950 . S
C1370 H1366 0.949 . S
C1370 C1378 1.574 . S
C1370 C1386 1.368 . S
H1371 C1379 0.950 . S
H1372 C1377 0.950 . S
H1373 C1378 0.949 . S
H1374 C1380 0.950 . S
H1375 C1381 0.950 . S
H1376 C1382 0.949 . S
C1377 H1372 0.950 . S
C1377 C1379 1.327 . S
C1377 C1383 1.429 . S
C1378 C1370 1.574 . S
C1378 H1373 0.949 . S
C1378 C1384 1.368 . S
C1379 C1363 1.349 . S
C1379 H1371 0.950 . S
C1379 C1377 1.327 . S
C1380 C1368 1.349 . S
C1380 H1374 0.950 . S
C1380 C1381 1.327 . S
C1381 H1375 0.950 . S
C1381 C1380 1.327 . S
C1381 C1385 1.429 . S
C1382 C1365 1.574 . S
C1382 H1376 0.949 . S
C1382 C1386 1.368 . S
C1383 C1364 1.429 . S
C1383 C1377 1.429 . S
C1383 C1384 1.523 . S
C1384 C1365 1.368 . S
C1384 C1378 1.368 . S
C1384 C1383 1.523 . S
C1385 C1369 1.429 . S
C1385 C1381 1.429 . S
C1385 C1386 1.523 . S
C1386 C1370 1.368 . S
C1386 C1382 1.368 . S
C1386 C1385 1.523 . S
H1387 C1362 0.950 . S
H1388 C1364 0.950 . S
H1389 C1365 0.949 . S
H1390 C1367 0.950 . S
H1391 C1369 0.950 . S
C673 C58 1.577 . S
C678 C658 1.576 . S
C703 C562 1.577 . S
C708 C154 1.577 . S
C733 C490 1.578 . S
C738 C226 1.577 . S
C763 C394 1.577 . S
C768 C322 1.577 . S
C793 C236 2.581 . S
C798 C68 2.581 . S
C823 C152 0.514 . S
C828 C320 0.514 . S
C853 C308 2.581 . S
C858 C140 2.581 . S
C883 C224 0.514 . S
C888 C56 0.514 . S
C913 C404 2.593 . S
C918 C572 2.593 . S
C943 C488 0.492 . S
C948 C656 0.494 . S
C973 C644 2.593 . S
C978 C476 2.593 . S
C1003 C560 0.492 . S
C1008 C392 0.494 . S
C1033 C67 1.746 . S
C1038 C55 1.746 . S
C1063 C139 1.746 . S
C1068 C151 1.746 . S
C1093 C223 1.746 . S
C1098 C235 1.746 . S
C1123 C307 1.746 . S
C1128 C319 1.746 . S
C1153 C391 1.746 . S
C1158 C403 1.746 . S
C1183 C475 1.746 . S
C1188 C487 1.746 . S
C1213 C571 1.746 . S
C1218 C559 1.746 . S
C1243 C643 1.746 . S
C1248 C655 1.746 . S
C1273 C70 2.046 . S
C1278 C142 2.046 . S
C1303 C310 2.046 . S
C1308 C238 2.046 . S
C1333 C406 2.046 . S
C1338 C478 2.046 . S
C1363 C646 2.046 . S
C1368 C574 2.046 . S
