# Generated by pormake.
# Topology lcy-a, (4)-cn, num edge types: 1
# Building blocks:
#     Node 0, Type 0, BuildingBlock: KUFVIS_clean_sbu_0, # of connection points: 4
#     Node 1, Type 0, BuildingBlock: KUFVIS_clean_sbu_0, # of connection points: 4
#     Node 2, Type 0, BuildingBlock: KUFVIS_clean_sbu_0, # of connection points: 4
#     Node 3, Type 0, BuildingBlock: KUFVIS_clean_sbu_0, # of connection points: 4
#     Node 4, Type 0, BuildingBlock: KUFVIS_clean_sbu_0, # of connection points: 4
#     Node 5, Type 0, BuildingBlock: KUFVIS_clean_sbu_0, # of connection points: 4
#     Node 6, Type 0, BuildingBlock: KUFVIS_clean_sbu_0, # of connection points: 4
#     Node 7, Type 0, BuildingBlock: KUFVIS_clean_sbu_0, # of connection points: 4
#     Node 8, Type 0, BuildingBlock: KUFVIS_clean_sbu_0, # of connection points: 4
#     Node 9, Type 0, BuildingBlock: KUFVIS_clean_sbu_0, # of connection points: 4
#     Node 10, Type 0, BuildingBlock: KUFVIS_clean_sbu_0, # of connection points: 4
#     Node 11, Type 0, BuildingBlock: KUFVIS_clean_sbu_0, # of connection points: 4
#     Node 12, Type 0, BuildingBlock: KUFVIS_clean_sbu_0, # of connection points: 4
#     Node 13, Type 0, BuildingBlock: KUFVIS_clean_sbu_0, # of connection points: 4
#     Node 14, Type 0, BuildingBlock: KUFVIS_clean_sbu_0, # of connection points: 4
#     Node 15, Type 0, BuildingBlock: KUFVIS_clean_sbu_0, # of connection points: 4
#     Node 16, Type 0, BuildingBlock: KUFVIS_clean_sbu_0, # of connection points: 4
#     Node 17, Type 0, BuildingBlock: KUFVIS_clean_sbu_0, # of connection points: 4
#     Node 18, Type 0, BuildingBlock: KUFVIS_clean_sbu_0, # of connection points: 4
#     Node 19, Type 0, BuildingBlock: KUFVIS_clean_sbu_0, # of connection points: 4
#     Node 20, Type 0, BuildingBlock: KUFVIS_clean_sbu_0, # of connection points: 4
#     Node 21, Type 0, BuildingBlock: KUFVIS_clean_sbu_0, # of connection points: 4
#     Node 22, Type 0, BuildingBlock: KUFVIS_clean_sbu_0, # of connection points: 4
#     Node 23, Type 0, BuildingBlock: KUFVIS_clean_sbu_0, # of connection points: 4
#     Edge 24, Type (0, 0), BuildingBlock: CIFDUS_clean_linker_0, # of connection points: 2
#     Edge 25, Type (0, 0), BuildingBlock: CIFDUS_clean_linker_0, # of connection points: 2
#     Edge 26, Type (0, 0), BuildingBlock: CIFDUS_clean_linker_0, # of connection points: 2
#     Edge 27, Type (0, 0), BuildingBlock: CIFDUS_clean_linker_0, # of connection points: 2
#     Edge 28, Type (0, 0), BuildingBlock: CIFDUS_clean_linker_0, # of connection points: 2
#     Edge 29, Type (0, 0), BuildingBlock: CIFDUS_clean_linker_0, # of connection points: 2
#     Edge 30, Type (0, 0), BuildingBlock: CIFDUS_clean_linker_0, # of connection points: 2
#     Edge 31, Type (0, 0), BuildingBlock: CIFDUS_clean_linker_0, # of connection points: 2
#     Edge 32, Type (0, 0), BuildingBlock: CIFDUS_clean_linker_0, # of connection points: 2
#     Edge 33, Type (0, 0), BuildingBlock: CIFDUS_clean_linker_0, # of connection points: 2
#     Edge 34, Type (0, 0), BuildingBlock: CIFDUS_clean_linker_0, # of connection points: 2
#     Edge 35, Type (0, 0), BuildingBlock: CIFDUS_clean_linker_0, # of connection points: 2
#     Edge 36, Type (0, 0), BuildingBlock: CIFDUS_clean_linker_0, # of connection points: 2
#     Edge 37, Type (0, 0), BuildingBlock: CIFDUS_clean_linker_0, # of connection points: 2
#     Edge 38, Type (0, 0), BuildingBlock: CIFDUS_clean_linker_0, # of connection points: 2
#     Edge 39, Type (0, 0), BuildingBlock: CIFDUS_clean_linker_0, # of connection points: 2
#     Edge 40, Type (0, 0), BuildingBlock: CIFDUS_clean_linker_0, # of connection points: 2
#     Edge 41, Type (0, 0), BuildingBlock: CIFDUS_clean_linker_0, # of connection points: 2
#     Edge 42, Type (0, 0), BuildingBlock: CIFDUS_clean_linker_0, # of connection points: 2
#     Edge 43, Type (0, 0), BuildingBlock: CIFDUS_clean_linker_0, # of connection points: 2
#     Edge 44, Type (0, 0), BuildingBlock: CIFDUS_clean_linker_0, # of connection points: 2
#     Edge 45, Type (0, 0), BuildingBlock: CIFDUS_clean_linker_0, # of connection points: 2
#     Edge 46, Type (0, 0), BuildingBlock: CIFDUS_clean_linker_0, # of connection points: 2
#     Edge 47, Type (0, 0), BuildingBlock: CIFDUS_clean_linker_0, # of connection points: 2
#     Edge 48, Type (0, 0), BuildingBlock: CIFDUS_clean_linker_0, # of connection points: 2
#     Edge 49, Type (0, 0), BuildingBlock: CIFDUS_clean_linker_0, # of connection points: 2
#     Edge 50, Type (0, 0), BuildingBlock: CIFDUS_clean_linker_0, # of connection points: 2
#     Edge 51, Type (0, 0), BuildingBlock: CIFDUS_clean_linker_0, # of connection points: 2
#     Edge 52, Type (0, 0), BuildingBlock: CIFDUS_clean_linker_0, # of connection points: 2
#     Edge 53, Type (0, 0), BuildingBlock: CIFDUS_clean_linker_0, # of connection points: 2
#     Edge 54, Type (0, 0), BuildingBlock: CIFDUS_clean_linker_0, # of connection points: 2
#     Edge 55, Type (0, 0), BuildingBlock: CIFDUS_clean_linker_0, # of connection points: 2
#     Edge 56, Type (0, 0), BuildingBlock: CIFDUS_clean_linker_0, # of connection points: 2
#     Edge 57, Type (0, 0), BuildingBlock: CIFDUS_clean_linker_0, # of connection points: 2
#     Edge 58, Type (0, 0), BuildingBlock: CIFDUS_clean_linker_0, # of connection points: 2
#     Edge 59, Type (0, 0), BuildingBlock: CIFDUS_clean_linker_0, # of connection points: 2
#     Edge 60, Type (0, 0), BuildingBlock: CIFDUS_clean_linker_0, # of connection points: 2
#     Edge 61, Type (0, 0), BuildingBlock: CIFDUS_clean_linker_0, # of connection points: 2
#     Edge 62, Type (0, 0), BuildingBlock: CIFDUS_clean_linker_0, # of connection points: 2
#     Edge 63, Type (0, 0), BuildingBlock: CIFDUS_clean_linker_0, # of connection points: 2
#     Edge 64, Type (0, 0), BuildingBlock: CIFDUS_clean_linker_0, # of connection points: 2
#     Edge 65, Type (0, 0), BuildingBlock: CIFDUS_clean_linker_0, # of connection points: 2
#     Edge 66, Type (0, 0), BuildingBlock: CIFDUS_clean_linker_0, # of connection points: 2
#     Edge 67, Type (0, 0), BuildingBlock: CIFDUS_clean_linker_0, # of connection points: 2
#     Edge 68, Type (0, 0), BuildingBlock: CIFDUS_clean_linker_0, # of connection points: 2
#     Edge 69, Type (0, 0), BuildingBlock: CIFDUS_clean_linker_0, # of connection points: 2
#     Edge 70, Type (0, 0), BuildingBlock: CIFDUS_clean_linker_0, # of connection points: 2
#     Edge 71, Type (0, 0), BuildingBlock: CIFDUS_clean_linker_0, # of connection points: 2
# Relax obj value: 0.404
# Max RMSD: 0.183
# Mean RMSD: 0.183
data_MOF--net-lcy-a--node1-KUFVIS_clean_sbu_0--edge1-CIFDUS_clean_linker_0
_symmetry_space_group_name_H-M    P1
_symmetry_Int_Tables_number       1
_symmetry_cell_setting            triclinic
loop_
_symmetry_equiv_pos_as_xyz
'x, y, z'
_cell_length_a     49.25284
_cell_length_b     49.18359
_cell_length_c     49.267403
_cell_angle_alpha  90.131133
_cell_angle_beta   90.055484
_cell_angle_gamma 89.947052
loop_
_atom_site_label
_atom_site_type_symbol
_atom_site_fract_x
_atom_site_fract_y
_atom_site_fract_z
_atom_type_partial_charge
Mn0 Mn 0.21102 0.25797 0.41319 0.0
Mn1 Mn 0.25238 0.22853 0.45895 0.0
C2 C 0.24632 0.23105 0.39875 0.0
C3 C 0.19958 0.295 0.38659 0.0
C4 C 0.19524 0.20915 0.44683 0.0
O5 O 0.20313 0.27862 0.44804 0.0
O6 O 0.23542 0.26131 0.47552 0.0
C7 C 0.29391 0.27174 0.4635 0.0
N8 N 0.2873 0.24544 0.45787 0.0
C9 C 0.33343 0.23499 0.44559 0.0
C10 C 0.34071 0.26197 0.45129 0.0
C11 C 0.32089 0.28038 0.46038 0.0
C12 C 0.30627 0.22746 0.44936 0.0
H13 H 0.27866 0.28612 0.47002 0.0
C14 C 0.21637 0.27836 0.47034 0.0
O15 O 0.18145 0.27711 0.39339 0.0
O16 O 0.22404 0.2917 0.39582 0.0
N17 N 0.27036 0.19704 0.44473 0.0
C18 C 0.25953 0.17252 0.43772 0.0
C19 C 0.27657 0.15198 0.42755 0.0
C20 C 0.3045 0.15689 0.42459 0.0
C21 C 0.31518 0.18226 0.432 0.0
C22 C 0.29731 0.20178 0.44251 0.0
H23 H 0.23805 0.16871 0.43969 0.0
O24 O 0.22602 0.23593 0.38268 0.0
O25 O 0.24538 0.24247 0.42251 0.0
O26 O 0.19082 0.22526 0.42718 0.0
O27 O 0.21697 0.20947 0.46105 0.0
C28 C 0.34272 0.1892 0.42862 0.0
C29 C 0.35181 0.21556 0.43531 0.0
H30 H 0.36133 0.26894 0.44828 0.0
H31 H 0.32633 0.30128 0.46465 0.0
H32 H 0.26815 0.1325 0.42176 0.0
H33 H 0.31749 0.14115 0.41633 0.0
H34 H 0.35697 0.17459 0.42034 0.0
H35 H 0.37287 0.22084 0.43191 0.0
Mn36 Mn 0.92034 0.95618 0.65933 0.0
Mn37 Mn 0.94622 0.98394 0.7163 0.0
C38 C 0.95732 0.98479 0.65716 0.0
C39 C 0.89017 0.95974 0.62324 0.0
C40 C 0.95651 0.92562 0.699 0.0
O41 O 0.89004 0.95052 0.68653 0.0
O42 O 0.90853 0.97127 0.72291 0.0
C43 C 0.9097 0.03169 0.71917 0.0
N44 N 0.93531 0.02122 0.71816 0.0
C45 C 0.95489 0.066 0.71709 0.0
C46 C 0.92871 0.07722 0.71809 0.0
C47 C 0.90605 0.05999 0.71926 0.0
C48 C 0.95729 0.03762 0.71725 0.0
H49 H 0.89215 0.01858 0.71953 0.0
C50 C 0.88886 0.95901 0.71099 0.0
O51 O 0.90022 0.93624 0.62999 0.0
O52 O 0.89696 0.98046 0.63795 0.0
N53 N 0.98234 -0.00226 0.71223 0.0
C54 C 0.0059 0.98376 0.70823 0.0
C55 C 0.03043 -0.00194 0.70583 0.0
C56 C 0.03048 0.02658 0.70741 0.0
C57 C 0.00599 0.04054 0.71151 0.0
C58 C 0.98223 0.02517 0.71428 0.0
H59 H 0.00592 0.96189 0.7065 0.0
O60 O 0.95244 0.96787 0.63756 0.0
O61 O 0.94037 0.9844 0.67728 0.0
O62 O 0.94265 0.92612 0.6771 0.0
O63 O 0.95887 0.94591 0.71513 0.0
C64 C 0.00413 0.06912 0.71211 0.0
C65 C 0.97859 0.08184 0.71482 0.0
H66 H 0.92569 0.099 0.71734 0.0
H67 H 0.88578 0.06851 0.71984 0.0
H68 H 0.04922 0.98715 0.70245 0.0
H69 H 0.04939 0.03756 0.7051 0.0
H70 H 0.02215 0.08153 0.70988 0.0
H71 H 0.97738 0.10381 0.71453 0.0
Mn72 Mn 0.28247 0.69916 0.92312 0.0
Mn73 Mn 0.24668 0.73335 0.9702 0.0
C74 C 0.24925 0.72952 0.91011 0.0
C75 C 0.28688 0.66124 0.89544 0.0
C76 C 0.30431 0.74777 0.95448 0.0
O77 O 0.28973 0.67758 0.95753 0.0
O78 O 0.2624 0.69993 0.98671 0.0
C79 C 0.2033 0.69235 0.9764 0.0
N80 N 0.21088 0.71836 0.97077 0.0
C81 C 0.16551 0.73 0.95687 0.0
C82 C 0.1573 0.70327 0.96238 0.0
C83 C 0.17622 0.68446 0.97245 0.0
C84 C 0.19273 0.73678 0.96148 0.0
H85 H 0.21791 0.67751 0.98327 0.0
C86 C 0.2785 0.68027 0.98076 0.0
O87 O 0.30786 0.67629 0.90103 0.0
O88 O 0.26408 0.66762 0.90686 0.0
N89 N 0.22985 0.76556 0.95628 0.0
C90 C 0.24163 0.78958 0.9492 0.0
C91 C 0.22539 0.81072 0.93901 0.0
C92 C 0.19731 0.80686 0.93597 0.0
C93 C 0.18565 0.78198 0.94341 0.0
C94 C 0.20271 0.76195 0.95427 0.0
H95 H 0.26326 0.79255 0.95113 0.0
O96 O 0.26827 0.72273 0.89324 0.0
O97 O 0.25064 0.71837 0.93388 0.0
O98 O 0.30684 0.72963 0.93613 0.0
O99 O 0.2832 0.75031 0.96944 0.0
C100 C 0.158 0.77589 0.93945 0.0
C101 C 0.14802 0.74982 0.94581 0.0
H102 H 0.1366 0.69685 0.95866 0.0
H103 H 0.17008 0.66377 0.9766 0.0
H104 H 0.23457 0.82981 0.93316 0.0
H105 H 0.18496 0.82298 0.92747 0.0
H106 H 0.1444 0.79084 0.93073 0.0
H107 H 0.12692 0.7451 0.94174 0.0
Mn108 Mn 0.54876 0.02094 0.15613 0.0
Mn109 Mn 0.50304 0.99478 0.19927 0.0
C110 C 0.51457 0.9935 0.13981 0.0
C111 C 0.5906 0.01876 0.13499 0.0
C112 C 0.50386 0.05384 0.18144 0.0
O113 O 0.56585 0.02632 0.19311 0.0
O114 O 0.53747 0.00198 0.2195 0.0
C115 C 0.52928 0.94217 0.21193 0.0
N116 N 0.50758 0.95631 0.20223 0.0
C117 C 0.48357 0.91495 0.19201 0.0
C118 C 0.50536 0.89998 0.20255 0.0
C119 C 0.52842 0.91366 0.21234 0.0
C120 C 0.48543 0.94335 0.19245 0.0
H121 H 0.54719 0.95256 0.21912 0.0
C122 C 0.55952 0.01538 0.2157 0.0
O123 O 0.57803 0.04176 0.13814 0.0
O124 O 0.57921 -0.00288 0.14482 0.0
N125 N 0.46938 0.98648 0.18157 0.0
C126 C 0.45081 0.00383 0.17059 0.0
C127 C 0.42713 0.99331 0.15865 0.0
C128 C 0.42279 0.9651 0.15812 0.0
C129 C 0.44213 0.94765 0.16963 0.0
C130 C 0.4652 0.95932 0.18151 0.0
H131 H 0.45407 0.02552 0.17077 0.0
O132 O 0.52743 0.00974 0.12356 0.0
O133 O 0.52266 0.99349 0.16489 0.0
O134 O 0.52229 0.05126 0.16366 0.0
O135 O 0.49618 0.03448 0.19692 0.0
C136 C 0.43967 0.91911 0.16929 0.0
C137 C 0.46036 0.90277 0.18051 0.0
H138 H 0.50468 0.878 0.20293 0.0
H139 H 0.54558 0.90233 0.22002 0.0
H140 H 0.41234 0.00691 0.14975 0.0
H141 H 0.40464 0.95705 0.14864 0.0
H142 H 0.42209 0.90951 0.16018 0.0
H143 H 0.45841 0.88084 0.17983 0.0
Mn144 Mn 0.7214 0.23296 0.57612 0.0
Mn145 Mn 0.75419 0.27281 0.53165 0.0
C146 C 0.75344 0.26333 0.5915 0.0
C147 C 0.71673 0.19236 0.59923 0.0
C148 C 0.69573 0.2816 0.54887 0.0
O149 O 0.7141 0.21497 0.5397 0.0
O150 O 0.74143 0.2395 0.51243 0.0
C151 C 0.80139 0.23741 0.52032 0.0
N152 N 0.79125 0.26166 0.52908 0.0
C153 C 0.83595 0.27795 0.54013 0.0
C154 C 0.84684 0.25324 0.53095 0.0
C155 C 0.82951 0.2329 0.52099 0.0
C156 C 0.80776 0.28141 0.53867 0.0
H157 H 0.78812 0.22148 0.51319 0.0
C158 C 0.72552 0.21934 0.51686 0.0
O159 O 0.69605 0.20814 0.59495 0.0
O160 O 0.74001 0.19978 0.58935 0.0
N161 N 0.76801 0.30517 0.54832 0.0
C162 C 0.75406 0.32683 0.55853 0.0
C163 C 0.7684 0.34862 0.57012 0.0
C164 C 0.7969 0.34789 0.57117 0.0
C165 C 0.81082 0.32542 0.56048 0.0
C166 C 0.79547 0.30451 0.54876 0.0
H167 H 0.73216 0.32738 0.55801 0.0
O168 O 0.73521 0.25386 0.60796 0.0
O169 O 0.75244 0.25432 0.56671 0.0
O170 O 0.69565 0.26335 0.567 0.0
O171 O 0.71606 0.28615 0.53339 0.0
C172 C 0.83928 0.32263 0.56164 0.0
C173 C 0.85183 0.29889 0.55151 0.0
H174 H 0.8684 0.24942 0.53189 0.0
H175 H 0.83779 0.21368 0.51415 0.0
H176 H 0.75751 0.36585 0.57843 0.0
H177 H 0.80786 0.36457 0.58049 0.0
H178 H 0.85167 0.33841 0.5707 0.0
H179 H 0.87367 0.29678 0.55297 0.0
Mn180 Mn 0.04051 0.46915 0.83874 0.0
Mn181 Mn 0.01135 0.50703 0.79035 0.0
C182 C 0.00881 0.50171 0.85049 0.0
C183 C 0.07573 0.4621 0.8689 0.0
C184 C -0.00152 0.44754 0.79982 0.0
O185 O 0.06551 0.46446 0.80622 0.0
O186 O 0.04838 0.49619 0.77789 0.0
C187 C 0.04692 0.5555 0.79153 0.0
N188 N 0.02178 0.54428 0.79412 0.0
C189 C 0.00246 0.58736 0.80703 0.0
C190 C 0.02809 0.59932 0.80447 0.0
C191 C 0.05043 0.58337 0.79667 0.0
C192 C 0.00012 0.55954 0.80149 0.0
H193 H 0.06424 0.5432 0.78601 0.0
C194 C 0.06695 0.47919 0.7849 0.0
O195 O 0.06098 0.4419 0.86047 0.0
O196 O 0.07034 0.48608 0.85938 0.0
N197 N 0.97595 0.51893 0.80138 0.0
C198 C 0.9531 0.50387 0.80545 0.0
C199 C 0.92918 0.51674 0.81414 0.0
C200 C 0.92899 0.54492 0.81869 0.0
C201 C 0.95272 0.56001 0.81439 0.0
C202 C 0.97586 0.54614 0.80527 0.0
H203 H 0.95309 0.48217 0.80224 0.0
O204 O 0.01389 0.48164 0.86681 0.0
O205 O 0.02228 0.50153 0.82792 0.0
O206 O 0.01212 0.4452 0.82156 0.0
O207 O -0.00152 0.46907 0.78533 0.0
C208 C 0.9545 0.58813 0.81949 0.0
C209 C 0.97937 0.60179 0.81588 0.0
H210 H 0.03079 0.62062 0.80906 0.0
H211 H 0.07036 0.59244 0.795 0.0
H212 H 0.91097 0.50492 0.81752 0.0
H213 H 0.91059 0.55472 0.82575 0.0
H214 H 0.93698 0.59936 0.82667 0.0
H215 H 0.98064 0.62332 0.8204 0.0
Mn216 Mn 0.78904 0.78479 0.07457 0.0
Mn217 Mn 0.761 0.76033 0.01716 0.0
C218 C 0.75387 0.75393 0.07663 0.0
C219 C 0.79071 0.81669 0.10929 0.0
C220 C 0.81568 0.74224 0.03847 0.0
O221 O 0.80126 0.812 0.04614 0.0
O222 O 0.7794 0.79546 0.0094 0.0
C223 C 0.71938 0.80304 0.0096 0.0
N224 N 0.7259 0.77629 0.01265 0.0
C225 C 0.67878 0.76356 0.01374 0.0
C226 C 0.6716 0.79101 0.01083 0.0
C227 C 0.69198 0.81079 0.00853 0.0
C228 C 0.70645 0.75702 0.0145 0.0
H229 H 0.73493 0.81844 0.00852 0.0
C230 C 0.79416 0.81344 0.02123 0.0
O231 O 0.81182 0.80202 0.1033 0.0
O232 O 0.7692 0.8135 0.0944 0.0
N233 N 0.742 0.72687 0.02268 0.0
C234 C 0.75226 0.70191 0.02887 0.0
C235 C 0.73446 0.67995 0.03259 0.0
C236 C 0.70633 0.68391 0.03008 0.0
C237 C 0.69625 0.7098 0.02372 0.0
C238 C 0.71498 0.73081 0.01969 0.0
H239 H 0.77384 0.69882 0.03119 0.0
O240 O 0.77041 0.75659 0.09698 0.0
O241 O 0.75889 0.7691 0.05574 0.0
O242 O 0.81511 0.75674 0.05986 0.0
O243 O 0.79682 0.74232 0.02063 0.0
C244 C 0.66832 0.71575 0.0221 0.0
C245 C 0.6596 0.74262 0.01721 0.0
H246 H 0.65056 0.79729 0.01111 0.0
H247 H 0.68657 0.83202 0.00646 0.0
H248 H 0.74239 0.66007 0.03767 0.0
H249 H 0.69265 0.66703 0.03343 0.0
H250 H 0.65336 0.69994 0.02522 0.0
H251 H 0.6381 0.74701 0.01674 0.0
Mn252 Mn 0.42715 0.53408 0.32952 0.0
Mn253 Mn 0.45507 0.50342 0.27528 0.0
C254 C 0.46328 0.50481 0.33497 0.0
C255 C 0.39466 0.53195 0.3635 0.0
C256 C 0.46517 0.56242 0.29042 0.0
O257 O 0.3987 0.53952 0.30037 0.0
O258 O 0.41761 0.51573 0.26612 0.0
C259 C 0.41888 0.45547 0.27323 0.0
N260 N 0.44437 0.46606 0.27503 0.0
C261 C 0.46384 0.42161 0.2811 0.0
C262 C 0.43777 0.41025 0.27936 0.0
C263 C 0.41523 0.42724 0.27524 0.0
C264 C 0.46627 0.44987 0.27865 0.0
H265 H 0.4014 0.46847 0.2707 0.0
C266 C 0.39806 0.52957 0.27645 0.0
O267 O 0.40546 0.55517 0.35693 0.0
O268 O 0.40224 0.5108 0.34987 0.0
N269 N 0.49097 0.49008 0.28205 0.0
C270 C 0.51423 0.50441 0.28644 0.0
C271 C 0.53859 0.49044 0.29146 0.0
C272 C 0.53873 0.4619 0.29218 0.0
C273 C 0.51453 0.44758 0.28773 0.0
C274 C 0.49099 0.46258 0.28217 0.0
H275 H 0.51416 0.52633 0.2865 0.0
O276 O 0.45766 0.52256 0.35362 0.0
O277 O 0.44751 0.50493 0.31388 0.0
O278 O 0.45095 0.56298 0.31206 0.0
O279 O 0.46749 0.54153 0.27506 0.0
C280 C 0.51267 0.41908 0.28953 0.0
C281 C 0.48734 0.40613 0.28636 0.0
H282 H 0.43472 0.38859 0.28172 0.0
H283 H 0.39505 0.41863 0.27404 0.0
H284 H 0.55713 0.50164 0.29513 0.0
H285 H 0.55746 0.4512 0.29658 0.0
H286 H 0.53049 0.40696 0.29401 0.0
H287 H 0.48611 0.38433 0.28864 0.0
Mn288 Mn 0.40624 0.22115 0.27594 0.0
Mn289 Mn 0.45382 0.24918 0.23635 0.0
C290 C 0.39376 0.25125 0.24243 0.0
C291 C 0.38103 0.2217 0.31548 0.0
C292 C 0.43556 0.19037 0.23198 0.0
O293 O 0.44132 0.2142 0.29632 0.0
O294 O 0.47074 0.2393 0.27181 0.0
C295 C 0.46548 0.29968 0.26685 0.0
N296 N 0.45691 0.28719 0.24369 0.0
C297 C 0.44882 0.33019 0.22197 0.0
C298 C 0.45813 0.3435 0.24536 0.0
C299 C 0.46629 0.32817 0.26798 0.0
C300 C 0.44877 0.30174 0.22191 0.0
H301 H 0.47158 0.288 0.28435 0.0
C302 C 0.46468 0.22481 0.29262 0.0
O303 O 0.38497 0.19925 0.30212 0.0
O304 O 0.39238 0.2436 0.30624 0.0
N305 N 0.4391 0.25991 0.202 0.0
C306 C 0.42952 0.24398 0.18146 0.0
C307 C 0.41945 0.25621 0.15777 0.0
C308 C 0.41932 0.28466 0.15544 0.0
C309 C 0.42934 0.30065 0.1768 0.0
C310 C 0.43934 0.28731 0.19983 0.0
H311 H 0.42943 0.2221 0.18319 0.0
O312 O 0.37617 0.23425 0.25221 0.0
O313 O 0.41793 0.24999 0.25282 0.0
O314 O 0.41599 0.19214 0.24862 0.0
O315 O 0.45168 0.21006 0.22688 0.0
C316 C 0.4294 0.32929 0.17634 0.0
C317 C 0.43918 0.34406 0.19889 0.0
H318 H 0.45894 0.36545 0.24614 0.0
H319 H 0.4731 0.3382 0.28631 0.0
H320 H 0.41169 0.24373 0.1414 0.0
H321 H 0.41133 0.29403 0.13722 0.0
H322 H 0.42175 0.34017 0.15883 0.0
H323 H 0.43891 0.36607 0.1984 0.0
Mn324 Mn 0.02451 0.15283 0.56773 0.0
Mn325 Mn 0.01619 0.21163 0.53391 0.0
C326 C 0.99563 0.15516 0.53089 0.0
C327 C 0.01199 0.12339 0.60205 0.0
C328 C 0.0656 0.17535 0.5281 0.0
O329 O 0.03917 0.18057 0.59419 0.0
O330 O 0.03102 0.21912 0.57089 0.0
C331 C 0.97305 0.23623 0.56788 0.0
N332 N 0.9819 0.22737 0.54321 0.0
C333 C 0.93993 0.2406 0.52198 0.0
C334 C 0.93072 0.25057 0.54704 0.0
C335 C 0.94726 0.24817 0.57012 0.0
C336 C 0.96599 0.22924 0.52093 0.0
H337 H 0.98548 0.23414 0.58576 0.0
C338 C 0.03915 0.20642 0.59216 0.0
O339 O 0.03599 0.12215 0.5912 0.0
O340 O 0.99574 0.14232 0.59357 0.0
N341 N 0.00108 0.20701 0.49834 0.0
C342 C 0.01229 0.19489 0.47613 0.0
C343 C -0.00236 0.19403 0.45168 0.0
C344 C 0.97164 0.20568 0.45029 0.0
C345 C 0.96051 0.21807 0.4734 0.0
C346 C 0.9761 0.21839 0.49718 0.0
H347 H 0.03207 0.18562 0.47719 0.0
O348 O 0.0058 0.13201 0.53841 0.0
O349 O 0.00277 0.17617 0.54516 0.0
O350 O 0.05817 0.15702 0.54457 0.0
O351 O 0.05164 0.19653 0.52255 0.0
C352 C 0.93438 0.22973 0.47388 0.0
C353 C 0.92415 0.24112 0.49811 0.0
H354 H 0.91094 0.25991 0.54892 0.0
H355 H 0.94014 0.25548 0.58959 0.0
H356 H 0.00632 0.18427 0.43399 0.0
H357 H 0.96033 0.20482 0.43144 0.0
H358 H 0.92189 0.22987 0.45577 0.0
H359 H 0.90401 0.24993 0.49818 0.0
Mn360 Mn 0.09319 0.78 0.78906 0.0
Mn361 Mn 0.04527 0.74411 0.75654 0.0
C362 C 0.10434 0.75468 0.75097 0.0
C363 C 0.1258 0.78067 0.82295 0.0
C364 C 0.04953 0.80563 0.75431 0.0
O365 O 0.06275 0.77759 0.81679 0.0
O366 O 0.03405 0.74914 0.79509 0.0
C367 C 0.05311 0.6922 0.7855 0.0
N368 N 0.05197 0.70623 0.76173 0.0
C369 C 0.06605 0.66685 0.7363 0.0
C370 C 0.06691 0.65187 0.76046 0.0
C371 C 0.06085 0.66475 0.7852 0.0
C372 C 0.05846 0.69426 0.73787 0.0
H373 H 0.04896 0.7021 0.80464 0.0
C374 C 0.04144 0.76281 0.81608 0.0
O375 O 0.11584 0.80331 0.81363 0.0
O376 O 0.11663 0.75821 0.81278 0.0
N377 N 0.05469 0.73761 0.71939 0.0
C378 C 0.05667 0.75579 0.69866 0.0
C379 C 0.06448 0.74669 0.67279 0.0
C380 C 0.07035 0.71906 0.66854 0.0
C381 C 0.06826 0.70074 0.6902 0.0
C382 C 0.05985 0.71089 0.71541 0.0
H383 H 0.05251 0.77711 0.70189 0.0
O384 O 0.11963 0.77483 0.75842 0.0
O385 O 0.08286 0.75112 0.76564 0.0
O386 O 0.07164 0.80784 0.76761 0.0
O387 O 0.03762 0.78296 0.74974 0.0
C388 C 0.07503 0.67298 0.68796 0.0
C389 C 0.07401 0.65607 0.71101 0.0
H390 H 0.07323 0.63078 0.76036 0.0
H391 H 0.06284 0.65381 0.80409 0.0
H392 H 0.06621 0.76098 0.65622 0.0
H393 H 0.07678 0.71219 0.64865 0.0
H394 H 0.08169 0.66459 0.66874 0.0
H395 H 0.08008 0.63496 0.70922 0.0
Mn396 Mn 0.4798 0.84241 0.01183 0.0
Mn397 Mn 0.50639 0.79488 0.97065 0.0
C398 C 0.51093 0.85457 0.979 0.0
C399 C 0.48146 0.8661 0.0526 0.0
C400 C 0.44812 0.81481 0.96748 0.0
O401 O 0.4716 0.80682 0.03082 0.0
O402 O 0.49649 0.77739 0.00576 0.0
C403 C 0.55697 0.78026 -0.00048 0.0
N404 N 0.54433 0.79014 0.97702 0.0
C405 C 0.58699 0.7962 0.95409 0.0
C406 C 0.6004 0.78549 0.97676 0.0
C407 C 0.58535 0.77775 -0.00031 0.0
C408 C 0.55864 0.79786 0.95494 0.0
H409 H 0.54548 0.77437 0.0172 0.0
C410 C 0.48188 0.78331 0.02657 0.0
O411 O 0.45893 0.86397 0.03903 0.0
O412 O 0.50276 0.85416 0.04273 0.0
N413 N 0.51694 0.81037 0.93662 0.0
C414 C 0.50104 0.82176 0.91705 0.0
C415 C 0.51313 0.83207 0.89342 0.0
C416 C 0.54141 0.83058 0.89015 0.0
C417 C 0.55737 0.8188 0.91057 0.0
C418 C 0.54417 0.80872 0.93361 0.0
H419 H 0.47932 0.82314 0.91951 0.0
O420 O 0.4946 0.87269 0.98911 0.0
O421 O 0.50817 0.83017 0.9884 0.0
O422 O 0.45027 0.83439 0.98423 0.0
O423 O 0.46744 0.79839 0.96199 0.0
C424 C 0.58589 0.81715 0.90921 0.0
C425 C 0.60069 0.80575 0.93091 0.0
H426 H 0.62223 0.78328 0.97671 0.0
H427 H 0.59554 0.76991 0.01748 0.0
H428 H 0.50068 0.84125 0.87781 0.0
H429 H 0.55068 0.83875 0.87199 0.0
H430 H 0.59667 0.82481 0.89166 0.0
H431 H 0.62263 0.80481 0.92975 0.0
Mn432 Mn 0.90636 0.2766 0.71979 0.0
Mn433 Mn 0.94685 0.24344 0.76375 0.0
C434 C 0.88789 0.24773 0.75162 0.0
C435 C 0.88458 0.27843 0.67798 0.0
C436 C 0.93422 0.30372 0.7674 0.0
O437 O 0.94372 0.27996 0.70293 0.0
O438 O 0.96827 0.25304 0.73084 0.0
C439 C 0.95786 0.19298 0.7328 0.0
N440 N 0.94773 0.20551 0.7553 0.0
C441 C 0.9347 0.16265 0.77477 0.0
C442 C 0.94543 0.14928 0.75205 0.0
C443 C 0.95693 0.1645 0.73089 0.0
C444 C 0.93657 0.19103 0.77573 0.0
H445 H 0.96659 0.20463 0.71644 0.0
C446 C 0.96577 0.268 0.70964 0.0
O447 O 0.88943 0.30043 0.69179 0.0
O448 O 0.89309 0.25563 0.68806 0.0
N449 N 0.92784 0.23294 0.79594 0.0
C450 C 0.91736 0.24902 0.81591 0.0
C451 C 0.90412 0.23696 0.83805 0.0
C452 C 0.90181 0.20853 0.83944 0.0
C453 C 0.91283 0.1924 0.81869 0.0
C454 C 0.926 0.20555 0.79724 0.0
H455 H 0.9189 0.27088 0.81485 0.0
O456 O 0.87305 0.2665 0.74054 0.0
O457 O 0.91294 0.24659 0.74362 0.0
O458 O 0.91691 0.30452 0.74825 0.0
O459 O 0.94689 0.28217 0.77441 0.0
C460 C 0.91084 0.16383 0.81821 0.0
C461 C 0.92184 0.14896 0.7963 0.0
H462 H 0.94486 0.12735 0.75068 0.0
H463 H 0.96503 0.15434 0.71316 0.0
H464 H 0.89559 0.24955 0.85394 0.0
H465 H 0.89137 0.19932 0.85643 0.0
H466 H 0.90071 0.1531 0.83448 0.0
H467 H 0.92 0.12701 0.79605 0.0
Mn468 Mn -0.00096 0.65822 0.98028 0.0
Mn469 Mn 0.02489 0.70525 0.02261 0.0
C470 C 0.02678 0.64515 0.01568 0.0
C471 C 0.00125 0.63282 0.94054 0.0
C472 C 0.96562 0.68885 0.02108 0.0
O473 O 0.99517 0.69371 0.95973 0.0
O474 O 0.01982 0.72233 0.98607 0.0
C475 C 0.07872 0.72022 0.00106 0.0
N476 N 0.0635 0.70798 0.02054 0.0
C477 C 0.10311 0.69953 0.04796 0.0
C478 C 0.11922 0.71169 0.02798 0.0
C479 C 0.10681 0.72267 0.00481 0.0
C480 C 0.075 0.69884 0.04374 0.0
H481 H 0.06941 0.72866 0.98313 0.0
C482 C 0.00707 0.71646 0.96396 0.0
O483 O 0.97827 0.6376 0.95248 0.0
O484 O 0.02291 0.64333 0.95135 0.0
N485 N 0.03092 0.68941 0.05766 0.0
C486 C 0.01243 0.67909 0.07543 0.0
C487 C 0.02139 0.66766 0.09995 0.0
C488 C 0.04925 0.66693 0.10598 0.0
C489 C 0.06791 0.67763 0.0874 0.0
C490 C 0.05778 0.68875 0.06327 0.0
H491 H 0.99102 0.67931 0.07088 0.0
O492 O 0.00993 0.62788 0.00493 0.0
O493 O 0.02641 0.66943 0.0055 0.0
O494 O 0.96814 0.66873 0.00515 0.0
O495 O 0.98518 0.70453 0.02749 0.0
C496 C 0.09619 0.67743 0.09174 0.0
C497 C 0.11377 0.68855 0.07211 0.0
H498 H 0.14101 0.7133 0.03051 0.0
H499 H 0.11875 0.73349 0.99012 0.0
H500 H 0.00685 0.65934 0.11413 0.0
H501 H 0.05609 0.65801 0.12487 0.0
H502 H 0.10461 0.66891 0.11017 0.0
H503 H 0.13545 0.68862 0.07582 0.0
Mn504 Mn 0.5892 0.70585 0.18221 0.0
Mn505 Mn 0.53653 0.73997 0.20937 0.0
C506 C 0.5964 0.73764 0.21608 0.0
C507 C 0.62247 0.70335 0.14899 0.0
C508 C 0.54899 0.68076 0.22116 0.0
O509 O 0.55909 0.7002 0.1546 0.0
O510 O 0.5267 0.72752 0.17222 0.0
C511 C 0.53527 0.78765 0.17285 0.0
N512 N 0.53753 0.77719 0.19834 0.0
C513 C 0.54462 0.82168 0.21746 0.0
C514 C 0.54255 0.83289 0.19139 0.0
C515 C 0.53768 0.81582 0.16902 0.0
C516 C 0.54177 0.79348 0.22008 0.0
H517 H 0.53203 0.77457 0.15552 0.0
C518 C 0.53604 0.71208 0.15335 0.0
O519 O 0.61471 0.68162 0.1618 0.0
O520 O 0.61054 0.726 0.15517 0.0
N521 N 0.54454 0.7534 0.24499 0.0
C522 C 0.54913 0.73912 0.26822 0.0
C523 C 0.55522 0.75314 0.29232 0.0
C524 C 0.55667 0.78165 0.29227 0.0
C525 C 0.55192 0.7959 0.26811 0.0
C526 C 0.54549 0.78087 0.2448 0.0
H527 H 0.54841 0.71719 0.26831 0.0
O528 O 0.61433 0.71882 0.21158 0.0
O529 O 0.57493 0.7367 0.20092 0.0
O530 O 0.5711 0.67921 0.20786 0.0
O531 O 0.53427 0.70214 0.22228 0.0
C532 C 0.55418 0.82437 0.26607 0.0
C533 C 0.55059 0.83723 0.24077 0.0
H534 H 0.54523 0.85449 0.1882 0.0
H535 H 0.53617 0.82433 0.14883 0.0
H536 H 0.55904 0.74198 0.31084 0.0
H537 H 0.56179 0.79237 0.3108 0.0
H538 H 0.55928 0.83651 0.28372 0.0
H539 H 0.5531 0.85901 0.23939 0.0
Mn540 Mn 0.51594 0.34123 0.44208 0.0
Mn541 Mn 0.50482 0.2843 0.478 0.0
C542 C 0.48581 0.34164 0.478 0.0
C543 C 0.50583 0.36911 0.40562 0.0
C544 C 0.55635 0.31804 0.48175 0.0
O545 O 0.53024 0.31141 0.41759 0.0
O546 O 0.51713 0.27405 0.44069 0.0
C547 C 0.45846 0.26017 0.44811 0.0
N548 N 0.46914 0.27036 0.47153 0.0
C549 C 0.42754 0.26189 0.49566 0.0
C550 C 0.41636 0.25074 0.47198 0.0
C551 C 0.43181 0.25002 0.44805 0.0
C552 C 0.45438 0.27121 0.49465 0.0
H553 H 0.47014 0.25981 0.42961 0.0
C554 C 0.52714 0.28571 0.41961 0.0
O555 O 0.52939 0.37001 0.41743 0.0
O556 O 0.48842 0.35151 0.41461 0.0
N557 N 0.49203 0.29237 0.51385 0.0
C558 C 0.505 0.30574 0.53435 0.0
C559 C 0.49167 0.3097 0.55922 0.0
C560 C 0.4651 0.30001 0.56274 0.0
C561 C 0.45205 0.28654 0.54129 0.0
C562 C 0.46643 0.28302 0.51701 0.0
H563 H 0.52519 0.31369 0.53162 0.0
O564 O 0.49691 0.36409 0.46977 0.0
O565 O 0.49303 0.31982 0.46506 0.0
O566 O 0.54878 0.33723 0.46637 0.0
O567 O 0.54193 0.29709 0.48682 0.0
C568 C 0.42513 0.27704 0.54284 0.0
C569 C 0.41292 0.26462 0.52008 0.0
H570 H 0.39587 0.24286 0.47196 0.0
H571 H 0.42319 0.24173 0.42959 0.0
H572 H 0.50177 0.32039 0.57558 0.0
H573 H 0.45479 0.30333 0.58188 0.0
H574 H 0.41352 0.27947 0.56135 0.0
H575 H 0.3921 0.25765 0.52142 0.0
Mn576 Mn 0.26059 0.39943 0.23093 0.0
Mn577 Mn 0.21776 0.44653 0.25564 0.0
C578 C 0.2315 0.38833 0.26565 0.0
C579 C 0.30297 0.3786 0.22954 0.0
C580 C 0.21225 0.41998 0.20036 0.0
O581 O 0.27568 0.43532 0.21746 0.0
O582 O 0.25086 0.46539 0.24185 0.0
C583 C 0.24607 0.47202 0.30199 0.0
N584 N 0.22542 0.45635 0.29236 0.0
C585 C 0.20479 0.45417 0.33656 0.0
C586 C 0.22578 0.47037 0.3469 0.0
C587 C 0.24632 0.47961 0.32943 0.0
C588 C 0.20502 0.44819 0.30877 0.0
H589 H 0.26193 0.47913 0.28873 0.0
C590 C 0.27086 0.45938 0.22612 0.0
O591 O 0.28672 0.37826 0.20882 0.0
O592 O 0.29488 0.39169 0.25102 0.0
N593 N 0.18585 0.42943 0.26985 0.0
C594 C 0.16657 0.41473 0.25648 0.0
C595 C 0.14473 0.40369 0.27106 0.0
C596 C 0.14286 0.40798 0.2992 0.0
C597 C 0.16287 0.42328 0.3125 0.0
C598 C 0.18423 0.43368 0.29692 0.0
H599 H 0.16791 0.41127 0.23489 0.0
O600 O 0.24195 0.36938 0.25047 0.0
O601 O 0.23876 0.41306 0.26017 0.0
O602 O 0.2299 0.40159 0.2039 0.0
O603 O 0.20727 0.43845 0.21782 0.0
C604 C 0.16258 0.42847 0.34064 0.0
C605 C 0.18341 0.4441 0.35262 0.0
H606 H 0.22606 0.47617 0.36811 0.0
H607 H 0.26221 0.4928 0.33696 0.0
H608 H 0.12939 0.39186 0.26065 0.0
H609 H 0.12602 0.39938 0.31038 0.0
H610 H 0.14635 0.42067 0.35322 0.0
H611 H 0.18281 0.44824 0.37422 0.0
Mn612 Mn 0.75424 0.09791 0.76567 0.0
Mn613 Mn 0.71155 0.0536 0.7361 0.0
C614 C 0.72285 0.11294 0.7345 0.0
C615 C 0.79582 0.11996 0.76698 0.0
C616 C 0.70769 0.07149 0.79492 0.0
O617 O 0.77135 0.06102 0.77295 0.0
O618 O 0.74521 0.03387 0.74665 0.0
C619 C 0.74223 0.04021 0.68633 0.0
N620 N 0.71939 0.05015 0.69831 0.0
C621 C 0.69926 0.06014 0.65496 0.0
C622 C 0.72237 0.04954 0.64214 0.0
C623 C 0.74402 0.03971 0.65792 0.0
C624 C 0.6985 0.05984 0.68336 0.0
H625 H 0.75904 0.03291 0.69836 0.0
C626 C 0.76593 0.03807 0.76195 0.0
O627 O 0.78127 0.11707 0.78874 0.0
O628 O 0.78657 0.10941 0.74464 0.0
N629 N 0.67874 0.07115 0.72476 0.0
C630 C 0.65886 0.08252 0.7403 0.0
C631 C 0.6363 0.09454 0.72766 0.0
C632 C 0.63443 0.0948 0.69921 0.0
C633 C 0.65513 0.08295 0.68364 0.0
C634 C 0.67697 0.07098 0.69737 0.0
H635 H 0.66029 0.08255 0.76217 0.0
O636 O 0.73346 0.12987 0.75176 0.0
O637 O 0.73112 0.088 0.73622 0.0
O638 O 0.72527 0.09029 0.79351 0.0
O639 O 0.70166 0.05598 0.77497 0.0
C640 C 0.65526 0.08311 0.65503 0.0
C641 C 0.6773 0.07169 0.6407 0.0
H642 H 0.72379 0.04916 0.62023 0.0
H643 H 0.76217 0.03195 0.64831 0.0
H644 H 0.62045 0.10374 0.73981 0.0
H645 H 0.61714 0.10436 0.68953 0.0
H646 H 0.63869 0.09229 0.64386 0.0
H647 H 0.67737 0.0723 0.61873 0.0
Mn648 Mn 0.18312 0.52426 0.02748 0.0
Mn649 Mn 0.22691 0.48305 0.99521 0.0
C650 C 0.16799 0.49594 0.99336 0.0
C651 C 0.16128 0.56576 0.03214 0.0
C652 C 0.20709 0.47376 0.05243 0.0
O653 O 0.22018 0.54026 0.0364 0.0
O654 O 0.24673 0.5161 0.00777 0.0
C655 C 0.23986 0.51704 0.9476 0.0
N656 N 0.23033 0.49329 0.95803 0.0
C657 C 0.21899 0.47654 0.91354 0.0
C658 C 0.22891 0.50068 0.90235 0.0
C659 C 0.23931 0.52108 0.91945 0.0
C660 C 0.22015 0.47359 0.94175 0.0
H661 H 0.24737 0.53298 0.96068 0.0
C662 C 0.24264 0.53624 0.02396 0.0
O663 O 0.16402 0.54941 0.0526 0.0
O664 O 0.17225 0.5585 0.00928 0.0
N665 N 0.20899 0.45115 0.98169 0.0
C666 C 0.19752 0.43032 0.99583 0.0
C667 C 0.18508 0.40885 0.98172 0.0
C668 C 0.18445 0.40901 0.95324 0.0
C669 C 0.19641 0.4306 0.93912 0.0
C670 C 0.20892 0.45124 0.95426 0.0
H671 H 0.1977 0.43006 0.01772 0.0
O672 O 0.15099 0.50537 0.01117 0.0
O673 O 0.19298 0.50339 -0.00361 0.0
O674 O 0.18947 0.49258 0.05242 0.0
O675 O 0.22399 0.47005 0.03314 0.0
C676 C 0.19567 0.43284 0.91064 0.0
C677 C 0.20691 0.45583 0.89785 0.0
H678 H 0.22797 0.50386 0.88071 0.0
H679 H 0.24652 0.54006 0.9111 0.0
H680 H 0.1758 0.39231 0.99279 0.0
H681 H 0.17448 0.39261 0.94244 0.0
H682 H 0.18601 0.41728 0.89841 0.0
H683 H 0.20567 0.45764 0.87597 0.0
Mn684 Mn 0.71084 0.89272 0.27874 0.0
Mn685 Mn 0.73829 0.94719 0.24833 0.0
C686 C 0.74305 0.88722 0.24498 0.0
C687 C 0.67671 0.86026 0.27861 0.0
C688 C 0.75104 0.93013 0.3062 0.0
O689 O 0.68424 0.92304 0.28774 0.0
O690 O 0.70175 0.95704 0.26245 0.0
C691 C 0.70062 0.95303 0.20189 0.0
N692 N 0.72627 0.94902 0.21147 0.0
C693 C 0.74367 0.94296 0.16624 0.0
C694 C 0.7174 0.94689 0.15592 0.0
C695 C 0.69584 0.95215 0.1738 0.0
C696 C 0.74729 0.94449 0.19441 0.0
H697 H 0.68387 0.95651 0.21558 0.0
C698 C 0.68321 0.94701 0.2778 0.0
O699 O 0.69015 0.86545 0.30077 0.0
O700 O 0.68283 0.87425 0.25728 0.0
N701 N 0.77329 0.93901 0.23351 0.0
C702 C 0.79677 0.933 0.24687 0.0
C703 C 0.82019 0.92665 0.23191 0.0
C704 C 0.81918 0.92632 0.20342 0.0
C705 C 0.79477 0.93251 0.19013 0.0
C706 C 0.77221 0.93924 0.20609 0.0
H707 H 0.79756 0.93281 0.26876 0.0
O708 O 0.73903 0.86798 0.2625 0.0
O709 O 0.72885 0.90901 0.24882 0.0
O710 O 0.73765 0.90796 0.30624 0.0
O711 O 0.75201 0.94632 0.28594 0.0
C712 C 0.7917 0.9313 0.16173 0.0
C713 C 0.76616 0.93638 0.14982 0.0
H714 H 0.71342 0.94544 0.13435 0.0
H715 H 0.67551 0.9551 0.16597 0.0
H716 H 0.83891 0.92171 0.24232 0.0
H717 H 0.83717 0.92092 0.19197 0.0
H718 H 0.80871 0.92586 0.14889 0.0
H719 H 0.76394 0.93455 0.12805 0.0
Mn720 Mn 0.32072 0.43839 0.52822 0.0
Mn721 Mn 0.26635 0.46213 0.494 0.0
C722 C 0.32653 0.46792 0.49253 0.0
C723 C 0.35431 0.40578 0.53403 0.0
C724 C 0.28345 0.48322 0.54911 0.0
O725 O 0.29084 0.41236 0.53926 0.0
O726 O 0.25652 0.42809 0.51338 0.0
C727 C 0.26138 0.41729 0.45409 0.0
N728 N 0.26485 0.44425 0.45953 0.0
C729 C 0.27163 0.45411 0.41225 0.0
C730 C 0.26792 0.42652 0.40612 0.0
C731 C 0.26259 0.40805 0.42713 0.0
C732 C 0.26936 0.46229 0.43939 0.0
H733 H 0.258 0.40285 0.47019 0.0
C734 C 0.26668 0.41076 0.52998 0.0
O735 O 0.34724 0.42165 0.55393 0.0
O736 O 0.34121 0.40827 0.51134 0.0
N737 N 0.27379 0.4945 0.47382 0.0
C738 C 0.27836 0.52019 0.4832 0.0
C739 C 0.28391 0.54111 0.46467 0.0
C740 C 0.28495 0.53538 0.43675 0.0
C741 C 0.28008 0.50882 0.42758 0.0
C742 C 0.27384 0.48895 0.44693 0.0
H743 H 0.27804 0.52464 0.50466 0.0
O744 O 0.34543 0.46523 0.51067 0.0
O745 O 0.30497 0.45313 0.49589 0.0
O746 O 0.30437 0.46816 0.5514 0.0
O747 O 0.26713 0.48213 0.52894 0.0
C748 C 0.28239 0.50102 0.40015 0.0
C749 C 0.27866 0.47359 0.39263 0.0
H750 H 0.26944 0.41926 0.3854 0.0
H751 H 0.25986 0.38668 0.4226 0.0
H752 H 0.2878 0.56152 0.47192 0.0
H753 H 0.28993 0.55142 0.42258 0.0
H754 H 0.28789 0.51576 0.38482 0.0
H755 H 0.28196 0.46745 0.37183 0.0
Mn756 Mn 0.22932 0.59354 0.7225 0.0
Mn757 Mn 0.26151 0.53951 0.74893 0.0
C758 C 0.26591 0.59987 0.7514 0.0
C759 C 0.1939 0.62442 0.72662 0.0
C760 C 0.26564 0.55664 0.6899 0.0
O761 O 0.20273 0.56252 0.71713 0.0
O762 O 0.22293 0.52916 0.74128 0.0
C763 C 0.23263 0.53329 0.80109 0.0
N764 N 0.25619 0.53725 0.78721 0.0
C765 C 0.28171 0.54102 0.82869 0.0
C766 C 0.25775 0.53705 0.84336 0.0
C767 C 0.23308 0.53317 0.82955 0.0
C768 C 0.28007 0.54078 0.80035 0.0
H769 H 0.21358 0.53075 0.79053 0.0
C770 C 0.20261 0.539 0.7281 0.0
O771 O 0.20488 0.61965 0.70309 0.0
O772 O 0.20361 0.61144 0.74731 0.0
N773 N 0.29848 0.54815 0.75757 0.0
C774 C 0.3189 0.55587 0.74062 0.0
C775 C 0.3446 0.56194 0.75138 0.0
C776 C 0.34895 0.56042 0.77949 0.0
C777 C 0.32751 0.55298 0.7966 0.0
C778 C 0.30245 0.54666 0.78466 0.0
H779 H 0.31552 0.55787 0.71912 0.0
O780 O 0.25879 0.61901 0.73472 0.0
O781 O 0.25171 0.57776 0.74983 0.0
O782 O 0.25253 0.5789 0.69157 0.0
O783 O 0.26895 0.54026 0.70969 0.0
C784 C 0.32976 0.55254 0.8251 0.0
C785 C 0.30686 0.54658 0.84114 0.0
H786 H 0.25806 0.53786 0.86524 0.0
H787 H 0.21441 0.53055 0.84078 0.0
H788 H 0.36091 0.56812 0.73806 0.0
H789 H 0.36869 0.56554 0.78776 0.0
H790 H 0.34886 0.55738 0.8349 0.0
H791 H 0.30865 0.54701 0.86306 0.0
Mn792 Mn 0.67901 0.96204 0.96859 0.0
Mn793 Mn 0.7283 -0.00047 -0.00215 0.0
C794 C 0.66832 0.99322 0.00169 0.0
C795 C 0.65262 0.92311 0.96573 0.0
C796 C 0.70581 0.01034 0.9417 0.0
O797 O 0.71354 0.94212 0.95826 0.0
O798 O 0.74444 0.96539 0.98293 0.0
C799 C 0.74301 0.96342 0.0436 0.0
N800 N 0.73402 0.98793 0.03443 0.0
C801 C 0.73013 0.00518 0.08001 0.0
C802 C 0.74005 0.9804 0.08985 0.0
C803 C 0.74632 0.95934 0.0716 0.0
C804 C 0.72765 0.00822 0.05187 0.0
H805 H 0.74754 0.94708 0.02969 0.0
C806 C 0.73755 0.94543 0.96754 0.0
O807 O 0.65643 0.9386 0.94481 0.0
O808 O 0.66515 0.92957 0.98805 0.0
N809 N 0.71484 0.03259 0.01352 0.0
C810 C 0.70471 0.05501 0.00082 0.0
C811 C 0.69637 0.07748 0.01635 0.0
C812 C 0.69858 0.07672 0.04476 0.0
C813 C 0.70929 0.05355 0.05737 0.0
C814 C 0.71751 0.03186 0.04082 0.0
H815 H 0.70283 0.05574 0.97901 0.0
O816 O 0.64979 0.98468 0.98499 0.0
O817 O 0.69234 0.98272 -0.00108 0.0
O818 O 0.68759 0.99215 0.94238 0.0
O819 O 0.72327 0.0138 0.96059 0.0
C820 C 0.71176 0.05097 0.08574 0.0
C821 C 0.72223 0.02682 0.09705 0.0
H822 H 0.74278 0.97738 0.1114 0.0
H823 H 0.75364 0.94 0.07905 0.0
H824 H 0.68811 0.09529 0.00646 0.0
H825 H 0.69189 0.094 0.05668 0.0
H826 H 0.70549 0.06737 0.09905 0.0
H827 H 0.72384 0.02498 0.1189 0.0
Mn828 Mn 0.83559 0.06357 0.45753 0.0
Mn829 Mn 0.77747 0.03724 0.48216 0.0
C830 C 0.83669 0.0312 0.4915 0.0
C831 C 0.86953 0.09623 0.45868 0.0
C832 C 0.80159 0.0215 0.42778 0.0
O833 O 0.80715 0.09079 0.44509 0.0
O834 O 0.77004 0.07315 0.46522 0.0
C835 C 0.76652 0.07764 0.52547 0.0
N836 N 0.77077 0.05136 0.51772 0.0
C837 C 0.76735 0.03586 0.56387 0.0
C838 C 0.76289 0.06275 0.57232 0.0
C839 C 0.76241 0.08371 0.55302 0.0
C840 C 0.77109 0.031 0.53611 0.0
H841 H 0.76654 0.0939 0.5108 0.0
C842 C 0.78207 0.09185 0.45165 0.0
O843 O 0.86494 0.08207 0.43687 0.0
O844 O 0.85381 0.09204 0.47935 0.0
N845 N 0.78247 0.00291 0.49976 0.0
C846 C 0.78979 0.97856 0.4887 0.0
C847 C 0.79212 0.95562 0.50546 0.0
C848 C 0.78703 0.95797 0.53341 0.0
C849 C 0.77961 0.98324 0.54434 0.0
C850 C 0.77721 0.00532 0.52658 0.0
H851 H 0.79418 0.9767 0.46734 0.0
O852 O 0.85778 0.03501 0.47622 0.0
O853 O 0.81578 0.04635 0.4863 0.0
O854 O 0.82274 0.03622 0.42946 0.0
O855 O 0.78308 0.0209 0.44592 0.0
C856 C 0.77524 0.98754 0.57226 0.0
C857 C 0.76915 0.01382 0.582 0.0
H858 H 0.76031 0.06765 0.59359 0.0
H859 H 0.75915 0.10453 0.55941 0.0
H860 H 0.7981 0.93624 0.49691 0.0
H861 H 0.78925 0.94032 0.54634 0.0
H862 H 0.77703 0.97088 0.58649 0.0
H863 H 0.76638 0.01691 0.60353 0.0
H864 H 0.07785 0.17626 0.47493 0.0
H865 H 0.11326 0.16858 0.5545 0.0
H866 H 0.15886 0.17275 0.53509 0.0
H867 H 0.18721 0.18678 0.49658 0.0
H868 H 0.15101 0.19457 0.41708 0.0
H869 H 0.10713 0.18111 0.43522 0.0
C870 C 0.09559 0.17508 0.48787 0.0
C871 C 0.09252 0.17284 0.51598 0.0
C872 C 0.12149 0.17745 0.4766 0.0
C873 C 0.11546 0.17059 0.53271 0.0
C874 C 0.14142 0.17302 0.52165 0.0
C875 C 0.16994 0.18467 0.48307 0.0
C876 C 0.1721 0.19252 0.45577 0.0
C877 C 0.14457 0.1776 0.49375 0.0
C878 C 0.14965 0.18929 0.43838 0.0
C879 C 0.12451 0.18174 0.44872 0.0
H880 H -0.00125 0.92084 0.73376 0.0
H881 H 0.94813 0.87423 0.67925 0.0
H882 H 0.97321 0.83294 0.69088 0.0
H883 H 0.00883 0.81016 0.71727 0.0
H884 H 0.06008 0.85758 0.77059 0.0
H885 H 0.03556 0.89871 0.75817 0.0
C886 C 0.99315 0.9017 0.72435 0.0
C887 C 0.9715 0.90059 0.7058 0.0
C888 C 0.00784 0.87826 0.73077 0.0
C889 C 0.96471 0.87561 0.69364 0.0
C890 C 0.97903 0.85202 0.70026 0.0
C891 C 0.01471 0.8295 0.72611 0.0
C892 C 0.03614 0.83074 0.74496 0.0
C893 C 0.00055 0.85312 0.71889 0.0
C894 C 0.0437 0.85602 0.75598 0.0
C895 C 0.02961 0.87956 0.74902 0.0
H896 H 0.34746 0.75438 0.92128 0.0
H897 H 0.31256 0.78402 -0.00385 0.0
H898 H 0.35292 0.81182 0.00419 0.0
H899 H 0.40018 0.8228 0.9928 0.0
H900 H 0.43574 0.79024 0.91957 0.0
H901 H 0.3926 0.76886 0.90768 0.0
C902 C 0.34852 0.76699 0.93935 0.0
C903 C 0.32729 0.76662 0.95842 0.0
C904 C 0.37183 0.78247 0.94403 0.0
C905 C 0.32879 0.78363 0.98133 0.0
C906 C 0.35184 0.79954 0.98593 0.0
C907 C 0.39823 0.81169 0.97385 0.0
C908 C 0.42102 0.80793 0.9571 0.0
C909 C 0.37377 0.79849 0.96778 0.0
C910 C 0.41841 0.79324 0.93278 0.0
C911 C 0.39385 0.7809 0.92609 0.0
H912 H 0.4575 0.06698 0.20835 0.0
H913 H 0.52322 0.1019 0.16207 0.0
H914 H 0.50596 0.14736 0.17108 0.0
H915 H 0.47488 0.17729 0.19556 0.0
H916 H 0.40931 0.14252 0.24221 0.0
H917 H 0.42363 0.09702 0.22908 0.0
C918 C 0.46794 0.08453 0.20011 0.0
C919 C 0.4918 0.08104 0.18496 0.0
C920 C 0.45799 0.11069 0.20539 0.0
C921 C 0.50485 0.10397 0.17398 0.0
C922 C 0.49505 0.13003 0.17912 0.0
C923 C 0.46349 0.15981 0.2026 0.0
C924 C 0.44141 0.16336 0.22024 0.0
C925 C 0.472 0.13364 0.19532 0.0
C926 C 0.42662 0.14044 0.22881 0.0
C927 C 0.43483 0.11434 0.22143 0.0
H928 H 0.68112 0.31192 0.50478 0.0
H929 H 0.65109 0.28167 0.58137 0.0
H930 H 0.60488 0.29237 0.56798 0.0
H931 H 0.57264 0.30331 0.53192 0.0
H932 H 0.6018 0.33539 0.45602 0.0
H933 H 0.64874 0.33098 0.47176 0.0
C934 C 0.66456 0.30834 0.51882 0.0
C935 C 0.66952 0.29521 0.54363 0.0
C936 C 0.63783 0.31434 0.51095 0.0
C937 C 0.64783 0.29113 0.5618 0.0
C938 C 0.62131 0.29715 0.55417 0.0
C939 C 0.58926 0.30977 0.51906 0.0
C940 C 0.58399 0.31919 0.4928 0.0
C941 C 0.61602 0.30752 0.52833 0.0
C942 C 0.60557 0.32793 0.47636 0.0
C943 C 0.63235 0.32535 0.4853 0.0
H944 H 0.93008 0.35398 0.74553 0.0
H945 H 0.95799 0.31131 0.81683 0.0
H946 H 0.97884 0.35299 0.8339 0.0
H947 H 0.99259 0.39984 0.82651 0.0
H948 H 0.96683 0.44227 0.75419 0.0
H949 H 0.94154 0.4021 0.73953 0.0
C950 C 0.94023 0.35393 0.76508 0.0
C951 C 0.94259 0.32961 0.77989 0.0
C952 C 0.95288 0.3777 0.77433 0.0
C953 C 0.95604 0.32977 0.80503 0.0
C954 C 0.96804 0.35353 0.81473 0.0
C955 C 0.9814 0.40048 0.80755 0.0
C956 C 0.98196 0.42396 0.79128 0.0
C957 C 0.96722 0.37735 0.79916 0.0
C958 C 0.96701 0.42439 0.76697 0.0
C959 C 0.9525 0.40145 0.75861 0.0
H960 H 0.86086 0.74106 0.0696 0.0
H961 H 0.82606 0.7066 -0.00331 0.0
H962 H 0.86912 0.68388 0.98676 0.0
H963 H 0.91775 0.67802 -0.0036 0.0
H964 H 0.95264 0.71574 0.06755 0.0
H965 H 0.90806 0.73284 0.08076 0.0
C966 C 0.86245 0.72838 0.05162 0.0
C967 C 0.84035 0.72587 0.0337 0.0
C968 C 0.88729 0.71607 0.04572 0.0
C969 C 0.84285 0.70914 0.01067 0.0
C970 C 0.86745 0.69616 0.00498 0.0
C971 C 0.91546 0.68955 0.01506 0.0
C972 C 0.93836 0.69576 0.03096 0.0
C973 C 0.88997 0.70009 0.02201 0.0
C974 C 0.93527 0.7109 0.05493 0.0
C975 C 0.90984 0.72069 0.06245 0.0
H976 H 0.51075 0.67782 0.26059 0.0
H977 H 0.56445 0.62833 0.21179 0.0
H978 H 0.54377 0.58725 0.22998 0.0
H979 H 0.50836 0.56567 0.25682 0.0
H980 H 0.45498 0.61473 0.30631 0.0
H981 H 0.47773 0.65591 0.29057 0.0
C982 C 0.51807 0.65804 0.25407 0.0
C983 C 0.53885 0.65611 0.23463 0.0
C984 C 0.50605 0.63453 0.2645 0.0
C985 C 0.54844 0.63037 0.22671 0.0
C986 C 0.53654 0.60687 0.23697 0.0
C987 C 0.50176 0.58533 0.26432 0.0
C988 C 0.47984 0.58719 0.28245 0.0
C989 C 0.51498 0.60876 0.2554 0.0
C990 C 0.47178 0.6128 0.29225 0.0
C991 C 0.48473 0.63633 0.28325 0.0
H992 H 0.23515 0.40281 0.15371 0.0
H993 H 0.16569 0.44609 0.18537 0.0
H994 H 0.15574 0.46366 0.14009 0.0
H995 H 0.17168 0.47311 0.09437 0.0
H996 H 0.24391 0.43351 0.06392 0.0
H997 H 0.24786 0.40792 0.10616 0.0
C998 C 0.21732 0.4154 0.15059 0.0
C999 C 0.20135 0.42352 0.17283 0.0
C1000 C 0.2127 0.42661 0.12496 0.0
C1001 C 0.17838 0.43984 0.16851 0.0
C1002 C 0.17285 0.45004 0.14273 0.0
C1003 C 0.18823 0.45874 0.09678 0.0
C1004 C 0.20795 0.4558 0.07633 0.0
C1005 C 0.19074 0.4447 0.12124 0.0
C1006 C 0.22878 0.43656 0.07957 0.0
C1007 C 0.23101 0.42189 0.10367 0.0
H1008 H 0.67257 0.00793 0.89791 0.0
H1009 H 0.74 0.05308 0.93155 0.0
H1010 H 0.74266 0.08004 0.8901 0.0
H1011 H 0.72956 0.08666 0.84292 0.0
H1012 H 0.66468 0.03886 0.80807 0.0
H1013 H 0.65669 0.01756 0.85209 0.0
C1014 C 0.6878 0.02377 0.89636 0.0
C1015 C 0.70646 0.02809 0.91762 0.0
C1016 C 0.68951 0.03879 0.87241 0.0
C1017 C 0.7257 0.04901 0.91533 0.0
C1018 C 0.72716 0.06449 0.89169 0.0
C1019 C 0.71319 0.07208 0.845 0.0
C1020 C 0.69794 0.06406 0.82216 0.0
C1021 C 0.70965 0.05901 0.86988 0.0
C1022 C 0.67684 0.04517 0.8253 0.0
C1023 C 0.67242 0.03285 0.85038 0.0
H1024 H 0.79031 0.96812 0.31254 0.0
H1025 H 0.73849 0.9137 0.35756 0.0
H1026 H 0.75086 0.93654 0.39979 0.0
H1027 H 0.77186 0.97536 0.42289 0.0
H1028 H 0.82402 0.0295 0.37794 0.0
H1029 H 0.81578 0.00343 0.33657 0.0
C1030 C 0.78206 0.96097 0.33165 0.0
C1031 C 0.76318 0.93959 0.33188 0.0
C1032 C 0.78889 0.97443 0.35575 0.0
C1033 C 0.75303 0.93019 0.35681 0.0
C1034 C 0.75988 0.9434 0.38095 0.0
C1035 C 0.7816 0.98133 0.4041 0.0
C1036 C 0.79817 0.00454 0.40337 0.0
C1037 C 0.777 0.96613 0.38048 0.0
C1038 C 0.81102 0.01178 0.37897 0.0
C1039 C 0.80633 -0.0031 0.35532 0.0
H1040 H 0.24004 0.56059 0.64153 0.0
H1041 H 0.31342 0.53147 0.67958 0.0
H1042 H 0.32673 0.50876 0.63776 0.0
H1043 H 0.31499 0.49264 0.59294 0.0
H1044 H 0.23981 0.5177 0.55524 0.0
H1045 H 0.22969 0.54663 0.59443 0.0
C1046 C 0.25925 0.54984 0.64031 0.0
C1047 C 0.27584 0.54777 0.66341 0.0
C1048 C 0.26614 0.53568 0.61655 0.0
C1049 C 0.30043 0.53342 0.66196 0.0
C1050 C 0.30795 0.52028 0.63813 0.0
C1051 C 0.2964 0.50449 0.59307 0.0
C1052 C 0.27794 0.50258 0.57139 0.0
C1053 C 0.2905 0.52049 0.6157 0.0
C1054 C 0.25422 0.51851 0.57184 0.0
C1055 C 0.24843 0.53507 0.59421 0.0
H1056 H 0.21696 0.3971 0.50995 0.0
H1057 H 0.28333 0.36537 0.55777 0.0
H1058 H 0.2684 0.31916 0.54824 0.0
H1059 H 0.2445 0.28893 0.51683 0.0
H1060 H 0.18098 0.32119 0.4656 0.0
H1061 H 0.18651 0.36577 0.48639 0.0
C1062 C 0.22773 0.38015 0.51903 0.0
C1063 C 0.25192 0.38475 0.53358 0.0
C1064 C 0.21989 0.35358 0.51233 0.0
C1065 C 0.26504 0.36251 0.54587 0.0
C1066 C 0.25664 0.33598 0.54025 0.0
C1067 C 0.23128 0.30547 0.5107 0.0
C1068 C 0.2131 0.3019 0.48891 0.0
C1069 C 0.23534 0.33137 0.52192 0.0
C1070 C 0.19566 0.32344 0.48183 0.0
C1071 C 0.19888 0.34905 0.49365 0.0
H1072 H 0.87702 0.97965 0.76079 0.0
H1073 H 0.83983 0.94122 0.69115 0.0
H1074 H 0.79552 0.95808 0.70534 0.0
H1075 H 0.77019 0.99265 0.73062 0.0
H1076 H 0.80893 0.03511 0.79701 0.0
H1077 H 0.8496 0.0075 0.79115 0.0
C1078 C 0.85916 0.97427 0.74905 0.0
C1079 C 0.86196 0.96006 0.72437 0.0
C1080 C 0.83403 0.98531 0.75644 0.0
C1081 C 0.83843 0.95265 0.70992 0.0
C1082 C 0.81306 0.96249 0.7179 0.0
C1083 C 0.78722 0.99542 0.74431 0.0
C1084 C 0.78683 0.01654 0.76364 0.0
C1085 C 0.811 0.98033 0.74005 0.0
C1086 C 0.80893 0.01945 0.78151 0.0
C1087 C 0.83224 0.00369 0.77815 0.0
H1088 H 0.30527 0.63194 0.97428 0.0
H1089 H 0.25429 0.67599 0.03059 0.0
H1090 H 0.24365 0.63394 0.05409 0.0
H1091 H 0.24006 0.58441 0.0515 0.0
H1092 H 0.28937 0.54017 0.9939 0.0
H1093 H 0.30998 0.58248 0.97889 0.0
C1094 C 0.29249 0.63254 0.99219 0.0
C1095 C 0.27984 0.65705 -5e-05 0.0
C1096 C 0.28578 0.6081 0.00526 0.0
C1097 C 0.26386 0.6574 0.02365 0.0
C1098 C 0.25762 0.63327 0.03711 0.0
C1099 C 0.25594 0.58382 0.03627 0.0
C1100 C 0.26225 0.55917 0.02309 0.0
C1101 C 0.26708 0.60836 0.027 0.0
C1102 C 0.2835 0.55886 0.00398 0.0
C1103 C 0.29521 0.58315 0.99517 0.0
H1104 H 0.56387 0.97954 0.25759 0.0
H1105 H 0.60427 0.04779 0.22036 0.0
H1106 H 0.64652 0.03549 0.24292 0.0
H1107 H 0.67376 -0.00059 0.26327 0.0
H1108 H 0.63419 0.92875 0.29682 0.0
H1109 H 0.58995 0.94823 0.28619 0.0
C1110 C 0.58168 0.99221 0.25502 0.0
C1111 C 0.58117 0.01393 0.23648 0.0
C1112 C 0.60628 0.98425 0.267 0.0
C1113 C 0.60429 0.03052 0.23396 0.0
C1114 C 0.62853 0.02342 0.24675 0.0
C1115 C 0.65547 0.98855 0.26894 0.0
C1116 C 0.65736 0.96225 0.27995 0.0
C1117 C 0.63013 -0.00069 0.26175 0.0
C1118 C 0.63342 0.94883 0.28786 0.0
C1119 C 0.60804 0.95988 0.28162 0.0
H1120 H 0.7579 0.2126 0.47253 0.0
H1121 H 0.69048 0.17618 0.51502 0.0
H1122 H 0.69822 0.13343 0.49119 0.0
H1123 H 0.7307 0.10419 0.46783 0.0
H1124 H 0.80136 0.13947 0.42987 0.0
H1125 H 0.78523 0.18484 0.44157 0.0
C1126 C 0.74438 0.19559 0.47606 0.0
C1127 C 0.72426 0.19734 0.49629 0.0
C1128 C 0.7498 0.17062 0.46332 0.0
C1129 C 0.70657 0.17523 0.50006 0.0
C1130 C 0.71105 0.15069 0.48651 0.0
C1131 C 0.74225 0.12178 0.46136 0.0
C1132 C 0.76777 0.11828 0.44894 0.0
C1133 C 0.73369 0.14772 0.46953 0.0
C1134 C 0.78197 0.14142 0.44003 0.0
C1135 C 0.77286 0.16745 0.44693 0.0
H1136 H 0.18979 0.4933 0.75689 0.0
H1137 H 0.15571 0.55196 0.70126 0.0
H1138 H 0.1103 0.53511 0.71074 0.0
H1139 H 0.07997 0.50925 0.74029 0.0
H1140 H 0.11384 0.45164 0.79711 0.0
H1141 H 0.15939 0.46219 0.78116 0.0
C1142 C 0.17254 0.50201 0.74632 0.0
C1143 C 0.17627 0.52432 0.72885 0.0
C1144 C 0.14626 0.4926 0.75227 0.0
C1145 C 0.15356 0.53507 0.71516 0.0
C1146 C 0.12747 0.52549 0.72061 0.0
C1147 C 0.09721 0.49848 0.7488 0.0
C1148 C 0.09335 0.48011 0.77032 0.0
C1149 C 0.1235 0.5051 0.74001 0.0
C1150 C 0.11605 0.46613 0.78074 0.0
C1151 C 0.14223 0.47226 0.77174 0.0
H1152 H 0.78327 0.93558 -0.00288 0.0
H1153 H 0.73454 0.90269 0.93198 0.0
H1154 H 0.7549 0.85808 0.93882 0.0
H1155 H 0.77667 0.82704 0.97064 0.0
H1156 H 0.82057 0.85915 0.03955 0.0
H1157 H 0.81254 0.90529 0.02351 0.0
C1158 C 0.7776 0.91888 0.9839 0.0
C1159 C 0.75657 0.92224 0.96481 0.0
C1160 C 0.7882 0.89289 0.989 0.0
C1161 C 0.75014 0.90052 0.94734 0.0
C1162 C 0.76168 0.87492 0.95134 0.0
C1163 C 0.7852 0.84404 0.98182 0.0
C1164 C 0.79828 0.83959 0.00686 0.0
C1165 C 0.77921 0.87055 0.97334 0.0
C1166 C 0.80984 0.86191 0.02056 0.0
C1167 C 0.80509 0.88839 0.01149 0.0
H1168 H 0.27718 0.5079 0.25231 0.0
H1169 H 0.31387 0.45682 0.19106 0.0
H1170 H 0.35698 0.4802 0.19711 0.0
H1171 H 0.3862 0.50595 0.22787 0.0
H1172 H 0.35031 0.55357 0.29233 0.0
H1173 H 0.30511 0.54107 0.27666 0.0
C1174 C 0.29437 0.5023 0.23976 0.0
C1175 C 0.29261 0.47977 0.22221 0.0
C1176 C 0.31953 0.51486 0.24435 0.0
C1177 C 0.31486 0.47355 0.20538 0.0
C1178 C 0.33963 0.48681 0.20893 0.0
C1179 C 0.36853 0.51427 0.23808 0.0
C1180 C 0.37173 0.52981 0.26188 0.0
C1181 C 0.3426 0.50606 0.22971 0.0
C1182 C 0.34854 0.54098 0.27435 0.0
C1183 C 0.3226 0.53374 0.26547 0.0
H1184 H 0.5084 0.23455 0.40961 0.0
H1185 H 0.55197 0.30076 0.37226 0.0
H1186 H 0.54129 0.28275 0.32743 0.0
H1187 H 0.51 0.25567 0.29988 0.0
H1188 H 0.46249 0.19252 0.33775 0.0
H1189 H 0.48455 0.20161 0.38108 0.0
C1190 C 0.51624 0.24467 0.39173 0.0
C1191 C 0.52995 0.26962 0.39431 0.0
C1192 C 0.50875 0.23505 0.36597 0.0
C1193 C 0.54068 0.28192 0.37088 0.0
C1194 C 0.53442 0.27172 0.34517 0.0
C1195 C 0.505 0.24333 0.31738 0.0
C1196 C 0.4839 0.22413 0.31575 0.0
C1197 C 0.51688 0.24946 0.34255 0.0
C1198 C 0.47816 0.20794 0.33856 0.0
C1199 C 0.49072 0.21317 0.36342 0.0
H1200 H 0.02643 0.25959 0.60081 0.0
H1201 H 0.05855 0.18874 0.6413 0.0
H1202 H 0.04355 0.20668 0.68489 0.0
H1203 H 0.0099 0.23476 0.70831 0.0
H1204 H 0.97227 0.30185 0.66611 0.0
H1205 H 0.00072 0.29316 0.6266 0.0
C1206 C 0.03093 0.2484 0.61923 0.0
C1207 C 0.04224 0.22217 0.61763 0.0
C1208 C 0.02039 0.2578 0.64392 0.0
C1209 C 0.04899 0.20858 0.64183 0.0
C1210 C 0.04015 0.2187 0.66678 0.0
C1211 C 0.00843 0.24801 0.6908 0.0
C1212 C 0.98826 0.26825 0.68977 0.0
C1213 C 0.02388 0.24208 0.66766 0.0
C1214 C 0.9871 0.2856 0.66713 0.0
C1215 C 0.00337 0.28065 0.6445 0.0
H1216 H 0.98074 0.71305 0.91554 0.0
H1217 H 0.03995 0.76129 0.9588 0.0
H1218 H 0.05334 0.7831 0.91646 0.0
H1219 H 0.0535 0.78265 0.86657 0.0
H1220 H 0.99533 0.7328 0.82357 0.0
H1221 H 0.97619 0.71776 0.86648 0.0
C1222 C -0.00378 0.72872 0.9159 0.0
C1223 C 0.00984 0.73488 0.94029 0.0
C1224 C 0.00431 0.74068 0.89141 0.0
C1225 C 0.0294 0.75573 0.94032 0.0
C1226 C 0.03719 0.76814 0.91604 0.0
C1227 C 0.03627 0.76893 0.8665 0.0
C1228 C 0.02631 0.75847 0.84175 0.0
C1229 C 0.02564 0.75985 0.89133 0.0
C1230 C 0.00374 0.74094 0.8422 0.0
C1231 C 0.99277 0.73224 0.86679 0.0
H1232 H 0.48704 0.73484 0.14198 0.0
H1233 H 0.55295 0.69027 0.10489 0.0
H1234 H 0.53733 0.70409 0.06008 0.0
H1235 H 0.51196 0.73727 0.03306 0.0
H1236 H 0.44867 0.78485 0.071 0.0
H1237 H 0.45598 0.76099 0.11362 0.0
C1238 C 0.49762 0.72751 0.1241 0.0
C1239 C 0.52169 0.71234 0.12691 0.0
C1240 C 0.48927 0.7365 0.09847 0.0
C1241 C 0.53466 0.70242 0.10344 0.0
C1242 C 0.52585 0.71049 0.07774 0.0
C1243 C 0.49923 0.74194 0.05041 0.0
C1244 C 0.48045 0.76348 0.04907 0.0
C1245 C 0.50426 0.7289 0.0752 0.0
C1246 C 0.46376 0.76883 0.07163 0.0
C1247 C 0.46797 0.75524 0.09608 0.0
H1248 H 0.22307 0.34431 0.38267 0.0
H1249 H 0.16419 0.29199 0.34433 0.0
H1250 H 0.16531 0.32005 0.30343 0.0
H1251 H 0.19045 0.35349 0.27585 0.0
H1252 H 0.24947 0.40539 0.31443 0.0
H1253 H 0.24053 0.38397 0.35817 0.0
C1254 C 0.20991 0.33959 0.36562 0.0
C1255 C 0.19406 0.31593 0.36609 0.0
C1256 C 0.21093 0.35558 0.34216 0.0
C1257 C 0.17669 0.31011 0.34424 0.0
C1258 C 0.17751 0.32599 0.32078 0.0
C1259 C 0.20062 0.36057 0.29409 0.0
C1260 C 0.2205 0.38083 0.29218 0.0
C1261 C 0.19566 0.34786 0.31904 0.0
C1262 C 0.23382 0.38997 0.31567 0.0
C1263 C 0.22891 0.37758 0.34059 0.0
H1264 H 0.85574 0.98038 0.50263 0.0
H1265 H 0.82685 0.05441 0.53968 0.0
H1266 H 0.83615 0.03619 0.58468 0.0
H1267 H 0.85718 0.00176 0.61294 0.0
H1268 H 0.88912 0.92845 0.57698 0.0
H1269 H 0.87299 0.94318 0.5322 0.0
C1270 C 0.85118 0.99218 0.52069 0.0
C1271 C 0.84011 0.01837 0.51811 0.0
C1272 C 0.85699 0.98166 0.54658 0.0
C1273 C 0.83472 0.0339 0.54139 0.0
C1274 C 0.84016 0.02357 0.56707 0.0
C1275 C 0.86016 0.98873 0.59538 0.0
C1276 C 0.87461 0.96429 0.59809 0.0
C1277 C 0.85182 -0.00223 0.56984 0.0
C1278 C 0.87801 0.94739 0.57533 0.0
C1279 C 0.8691 0.95597 0.54971 0.0
H1280 H 0.24643 0.59056 0.80065 0.0
H1281 H 0.31307 0.62869 0.7592 0.0
H1282 H 0.32928 0.6478 0.80251 0.0
H1283 H 0.31995 0.65837 0.85103 0.0
H1284 H 0.2529 0.61863 0.89095 0.0
H1285 H 0.24205 0.59416 0.84947 0.0
C1286 C 0.26528 0.6019 0.80126 0.0
C1287 C 0.2791 0.6075 0.77708 0.0
C1288 C 0.27431 0.61246 0.82595 0.0
C1289 C 0.30248 0.62374 0.77779 0.0
C1290 C 0.31167 0.63461 0.8025 0.0
C1291 C 0.30371 0.64349 0.85087 0.0
C1292 C 0.28696 0.64055 0.87382 0.0
C1293 C 0.29724 0.62971 0.82663 0.0
C1294 C 0.26587 0.6214 0.87341 0.0
C1295 C 0.25954 0.60751 0.84966 0.0
H1296 H 0.60207 0.05056 0.0923 0.0
H1297 H 0.63126 0.98117 0.13704 0.0
H1298 H 0.66324 0.97052 0.10051 0.0
H1299 H 0.67533 0.97547 0.05244 0.0
H1300 H 0.64088 0.04079 0.0056 0.0
H1301 H 0.61839 0.05873 0.04621 0.0
C1302 C 0.61602 0.0336 0.09437 0.0
C1303 C 0.61426 0.01647 0.11703 0.0
C1304 C 0.63293 0.02664 0.07261 0.0
C1305 C 0.6322 0.99443 0.11953 0.0
C1306 C 0.6503 0.98826 0.09862 0.0
C1307 C 0.66359 0.99413 0.05148 0.0
C1308 C 0.65992 0.0072 0.02648 0.0
C1309 C 0.64972 0.00336 0.07451 0.0
C1310 C 0.64404 0.03076 0.02491 0.0
C1311 C 0.63119 0.04089 0.04803 0.0
H1312 H 0.68169 0.18686 0.64079 0.0
H1313 H 0.74823 0.14686 0.60012 0.0
H1314 H 0.75214 0.11447 0.63753 0.0
H1315 H 0.74269 0.10393 0.68507 0.0
H1316 H 0.67994 0.14725 0.72797 0.0
H1317 H 0.66835 0.17224 0.68647 0.0
C1318 C 0.69653 0.17057 0.63982 0.0
C1319 C 0.71488 0.1693 0.61803 0.0
C1320 C 0.69962 0.15309 0.66203 0.0
C1321 C 0.73414 0.1483 0.61694 0.0
C1322 C 0.73645 0.12993 0.63834 0.0
C1323 C 0.72586 0.11819 0.68498 0.0
C1324 C 0.71179 0.12361 0.70912 0.0
C1325 C 0.72023 0.13307 0.66151 0.0
C1326 C 0.69071 0.14272 0.70933 0.0
C1327 C 0.68421 0.15698 0.68571 0.0
H1328 H 0.13486 0.45358 0.98074 0.0
H1329 H 0.17746 0.52204 0.94686 0.0
H1330 H 0.15566 0.51463 0.90305 0.0
H1331 H 0.11995 0.49285 0.87664 0.0
H1332 H 0.0763 0.42466 0.90974 0.0
H1333 H 0.10355 0.4271 0.95134 0.0
C1334 C 0.13962 0.4664 0.9635 0.0
C1335 C 0.15779 0.48808 0.96663 0.0
C1336 C 0.12682 0.46211 0.93838 0.0
C1337 C 0.16379 0.50494 0.94453 0.0
C1338 C 0.15126 0.50082 0.91959 0.0
C1339 C 0.11682 0.47818 0.89277 0.0
C1340 C 0.09597 0.45897 0.89054 0.0
C1341 C 0.13213 0.48003 0.91657 0.0
C1342 C 0.09228 0.43972 0.9112 0.0
C1343 C 0.10764 0.44128 0.93504 0.0
H1344 H 0.79084 0.86451 0.22794 0.0
H1345 H 0.71209 0.8915 0.20075 0.0
H1346 H 0.72174 0.87569 0.15498 0.0
H1347 H 0.75041 0.85059 0.12387 0.0
H1348 H 0.82833 0.82051 0.15032 0.0
H1349 H 0.82167 0.84185 0.19483 0.0
C1350 C 0.77612 0.86718 0.21178 0.0
C1351 C 0.75111 0.87967 0.21734 0.0
C1352 C 0.78166 0.85758 0.18542 0.0
C1353 C 0.73178 0.88257 0.1966 0.0
C1354 C 0.7372 0.8734 0.17049 0.0
C1355 C 0.76616 0.84899 0.13921 0.0
C1356 C 0.78962 0.83371 0.13397 0.0
C1357 C 0.76183 0.86047 0.1648 0.0
C1358 C 0.80998 0.83211 0.15394 0.0
C1359 C 0.80609 0.84411 0.17945 0.0
H1360 H 0.3453 0.51844 0.4802 0.0
H1361 H 0.32603 0.44006 0.44597 0.0
H1362 H 0.34177 0.45492 0.40154 0.0
H1363 H 0.36366 0.4886 0.37349 0.0
H1364 H 0.38661 0.56633 0.40703 0.0
H1365 H 0.36535 0.55403 0.45041 0.0
C1366 C 0.34423 0.50495 0.46278 0.0
C1367 C 0.33386 0.47856 0.46585 0.0
C1368 C 0.35358 0.51362 0.43728 0.0
C1369 C 0.33322 0.46075 0.44364 0.0
C1370 C 0.34232 0.46917 0.41835 0.0
C1371 C 0.36377 0.50306 0.39016 0.0
C1372 C 0.37696 0.52816 0.38727 0.0
C1373 C 0.35273 0.49541 0.41504 0.0
C1374 C 0.37653 0.54685 0.40885 0.0
C1375 C 0.3647 0.53968 0.43369 0.0
H1376 H 0.29317 0.25794 0.39891 0.0
H1377 H 0.25538 0.18421 0.37072 0.0
H1378 H 0.29664 0.17224 0.3454 0.0
H1379 H 0.34105 0.18592 0.32727 0.0
H1380 H 0.37721 0.26137 0.35374 0.0
H1381 H 0.33938 0.26912 0.38479 0.0
C1382 C 0.29438 0.23887 0.38785 0.0
C1383 C 0.27186 0.22154 0.38704 0.0
C1384 C 0.31777 0.23258 0.37309 0.0
C1385 C 0.27289 0.19748 0.37182 0.0
C1386 C 0.29637 0.19073 0.35741 0.0
C1387 C 0.34094 0.20371 0.34033 0.0
C1388 C 0.36162 0.22323 0.33807 0.0
C1389 C 0.31866 0.20851 0.35735 0.0
C1390 C 0.36129 0.24624 0.35497 0.0
C1391 C 0.33964 0.25075 0.37259 0.0
H1392 H 0.94164 0.03648 0.6606 0.0
H1393 H 0.00965 0.98571 0.63936 0.0
H1394 H 0.03502 0.0258 0.62402 0.0
H1395 H 0.03519 0.07436 0.61204 0.0
H1396 H 0.96599 0.12433 0.6324 0.0
H1397 H 0.94405 0.08558 0.65396 0.0
C1398 C 0.96238 0.0344 0.65346 0.0
C1399 C 0.97424 0.00857 0.65172 0.0
C1400 C 0.97647 0.05732 0.64456 0.0
C1401 C 0.00051 0.00567 0.64124 0.0
C1402 C 0.0149 0.02851 0.63251 0.0
C1403 C 0.01562 0.0769 0.62179 0.0
C1404 C 0.00201 0.10199 0.62029 0.0
C1405 C 0.00278 0.05435 0.63347 0.0
C1406 C 0.97669 0.10508 0.63302 0.0
C1407 C 0.96406 0.08294 0.64519 0.0
H1408 H 0.23739 0.77713 0.88442 0.0
H1409 H 0.20359 0.70051 0.90989 0.0
H1410 H 0.16065 0.71146 0.88787 0.0
H1411 H 0.13422 0.74084 0.85853 0.0
H1412 H 0.1668 0.81749 0.83175 0.0
H1413 H 0.20837 0.80927 0.85819 0.0
C1414 C 0.22036 0.7632 0.88539 0.0
C1415 C 0.22316 0.73837 0.89907 0.0
C1416 C 0.19561 0.76973 0.87272 0.0
C1417 C 0.20145 0.72 0.89988 0.0
C1418 C 0.177 0.72619 0.88725 0.0
C1419 C 0.15028 0.75595 0.8588 0.0
C1420 C 0.1478 0.7795 0.84305 0.0
C1421 C 0.17403 0.75077 0.87333 0.0
C1422 C 0.1684 0.79919 0.84384 0.0
C1423 C 0.19222 0.79433 0.85865 0.0
H1424 H 0.52511 0.94048 0.14522 0.0
H1425 H 0.47062 -0.00301 0.1067 0.0
H1426 H 0.45108 0.96005 0.07946 0.0
H1427 H 0.45523 0.91351 0.06151 0.0
H1428 H 0.51395 0.85876 0.0965 0.0
H1429 H 0.52557 0.89272 0.13095 0.0
C1430 C 0.50832 0.94441 0.13149 0.0
C1431 C 0.49884 0.97108 0.12813 0.0
C1432 C 0.4982 0.92338 0.11517 0.0
C1433 C 0.47784 0.97639 0.10969 0.0
C1434 C 0.46682 0.95535 0.09411 0.0
C1435 C 0.47001 0.90883 0.07717 0.0
C1436 C 0.48389 0.88389 0.07651 0.0
C1437 C 0.47762 0.92899 0.0959 0.0
C1438 C 0.50323 0.87801 0.0966 0.0
C1439 C 0.50995 0.89743 0.11617 0.0
H1440 H 0.80404 0.24414 0.58686 0.0
H1441 H 0.75702 0.30816 0.62362 0.0
H1442 H 0.79658 0.32244 0.65035 0.0
H1443 H 0.84197 0.31166 0.66831 0.0
H1444 H 0.88689 0.24432 0.63464 0.0
H1445 H 0.85128 0.23694 0.60078 0.0
C1446 C 0.80284 0.2618 0.60006 0.0
C1447 C 0.77805 0.27553 0.60302 0.0
C1448 C 0.82528 0.2691 0.61596 0.0
C1449 C 0.77617 0.29766 0.62088 0.0
C1450 C 0.79871 0.3057 0.63616 0.0
C1451 C 0.84426 0.29592 0.65302 0.0
C1452 C 0.86681 0.27843 0.65395 0.0
C1453 C 0.82305 0.29091 0.63461 0.0
C1454 C 0.86953 0.25787 0.63433 0.0
C1455 C 0.84914 0.25355 0.61512 0.0
H1456 H 0.03634 0.54821 0.85251 0.0
H1457 H 0.96088 0.51138 0.87658 0.0
H1458 H 0.9497 0.55172 0.90389 0.0
H1459 H 0.96471 0.5944 0.9255 0.0
H1460 H 0.04227 0.6288 0.90383 0.0
H1461 H 0.04909 0.59284 0.87021 0.0
C1462 C 0.01704 0.54947 0.86304 0.0
C1463 C -0.00088 0.52733 0.86225 0.0
C1464 C 0.01136 0.57215 0.87925 0.0
C1465 C 0.97468 0.52851 0.87673 0.0
C1466 C 0.96842 0.55146 0.89236 0.0
C1467 C 0.98283 0.59431 0.91301 0.0
C1468 C 0.00312 0.61399 0.91729 0.0
C1469 C 0.98707 0.57299 0.89448 0.0
C1470 C 0.02655 0.61365 0.90108 0.0
C1471 C 0.03047 0.59309 0.88194 0.0
H1472 H 0.63326 0.74118 0.11149 0.0
H1473 H 0.66408 0.66639 0.14504 0.0
H1474 H 0.70759 0.67362 0.12195 0.0
H1475 H 0.73893 0.70537 0.09841 0.0
H1476 H 0.70776 0.78167 0.06883 0.0
H1477 H 0.66232 0.76976 0.08395 0.0
C1478 C 0.64932 0.72618 0.11334 0.0
C1479 C 0.64577 0.70359 0.13028 0.0
C1480 C 0.67432 0.73095 0.10087 0.0
C1481 C 0.66648 0.68403 0.13216 0.0
C1482 C 0.69141 0.68831 0.11918 0.0
C1483 C 0.72194 0.71894 0.09482 0.0
C1484 C 0.72634 0.74397 0.08192 0.0
C1485 C 0.69592 0.71231 0.10446 0.0
C1486 C 0.70454 0.76189 0.0779 0.0
C1487 C 0.67863 0.75523 0.0868 0.0
H1488 H 0.44481 0.45397 0.33422 0.0
H1489 H 0.51466 0.50222 0.35519 0.0
H1490 H 0.53643 0.46228 0.37567 0.0
H1491 H 0.53252 0.41541 0.39245 0.0
H1492 H 0.46115 0.36827 0.37311 0.0
H1493 H 0.44335 0.40577 0.34605 0.0
C1494 C 0.46521 0.45542 0.34245 0.0
C1495 C 0.47858 0.48054 0.3427 0.0
C1496 C 0.47712 0.43267 0.35454 0.0
C1497 C 0.50439 0.48276 0.35446 0.0
C1498 C 0.5167 0.46002 0.36617 0.0
C1499 C 0.51336 0.41315 0.38183 0.0
C1500 C 0.49794 0.38933 0.38509 0.0
C1501 C 0.50287 0.43508 0.36703 0.0
C1502 C 0.47319 0.38658 0.37118 0.0
C1503 C 0.46295 0.40802 0.35582 0.0
H1504 H 0.39874 0.30197 0.26145 0.0
H1505 H 0.3641 0.25508 0.19617 0.0
H1506 H 0.33617 0.29403 0.18267 0.0
H1507 H 0.31552 0.33751 0.19531 0.0
H1508 H 0.34598 0.38191 0.26455 0.0
H1509 H 0.38214 0.34825 0.27039 0.0
C1510 C 0.3858 0.30075 0.24365 0.0
C1511 C 0.38352 0.27603 0.22952 0.0
C1512 C 0.36874 0.32261 0.23715 0.0
C1513 C 0.36621 0.27414 0.20703 0.0
C1514 C 0.35016 0.29629 0.19952 0.0
C1515 C 0.33045 0.34017 0.2113 0.0
C1516 C 0.32786 0.36186 0.22977 0.0
C1517 C 0.35025 0.32009 0.21532 0.0
C1518 C 0.34735 0.36511 0.25035 0.0
C1519 C 0.36796 0.34586 0.25372 0.0
H1520 H 0.80513 0.16401 0.79836 0.0
H1521 H 0.84003 0.11548 0.73425 0.0
H1522 H 0.87544 0.14964 0.72739 0.0
H1523 H 0.89115 0.1964 0.7342 0.0
H1524 H 0.85307 0.2472 0.79444 0.0
H1525 H 0.82404 0.20919 0.80839 0.0
C1526 C 0.82092 0.16066 0.78338 0.0
C1527 C 0.82 0.13748 0.76669 0.0
C1528 C 0.84025 0.18102 0.77861 0.0
C1529 C 0.84031 0.13336 0.74714 0.0
C1530 C 0.86043 0.15291 0.74315 0.0
C1531 C 0.87705 0.19879 0.75096 0.0
C1532 C 0.8744 0.22417 0.76373 0.0
C1533 C 0.85983 0.17729 0.75794 0.0
C1534 C 0.85551 0.22758 0.7847 0.0
C1535 C 0.83893 0.20594 0.79254 0.0
H1536 H 0.07787 0.65459 0.00059 0.0
H1537 H 0.0299 0.61084 0.059 0.0
H1538 H 0.07041 0.58582 0.07387 0.0
H1539 H 0.11715 0.57115 0.06413 0.0
H1540 H 0.16312 0.61189 0.00184 0.0
H1541 H 0.126 0.64431 0.99527 0.0
C1542 C 0.07654 0.64028 0.01727 0.0
C1543 C 0.05124 0.63469 0.02906 0.0
C1544 C 0.09954 0.62543 0.02481 0.0
C1545 C 0.04937 0.6155 0.04994 0.0
C1546 C 0.07246 0.60122 0.05831 0.0
C1547 C 0.11934 0.58766 0.04973 0.0
C1548 C 0.14261 0.58909 0.03328 0.0
C1549 C 0.09738 0.60522 0.04504 0.0
C1550 C 0.14523 0.61035 0.01452 0.0
C1551 C 0.124 0.62874 0.01067 0.0
H1552 H 0.64002 0.85415 0.23922 0.0
H1553 H 0.67019 0.81564 0.31177 0.0
H1554 H 0.64505 0.77403 0.30023 0.0
H1555 H 0.61971 0.74682 0.26568 0.0
H1556 H 0.59497 0.78573 0.19131 0.0
H1557 H 0.61306 0.82887 0.2071 0.0
C1558 C 0.64083 0.83679 0.25277 0.0
C1559 C 0.65721 0.83771 0.27603 0.0
C1560 C 0.62757 0.81288 0.24539 0.0
C1561 C 0.6577 0.81531 0.29366 0.0
C1562 C 0.64359 0.79147 0.28691 0.0
C1563 C 0.61799 0.76496 0.25332 0.0
C1564 C 0.60529 0.76352 0.22782 0.0
C1565 C 0.62932 0.78968 0.26224 0.0
C1566 C 0.60381 0.78674 0.21143 0.0
C1567 C 0.61433 0.81133 0.22034 0.0
H1568 H 0.3644 0.36079 0.50453 0.0
H1569 H 0.39947 0.41324 0.56534 0.0
H1570 H 0.44444 0.39401 0.55635 0.0
H1571 H 0.47449 0.36924 0.52442 0.0
H1572 H 0.43869 0.31901 0.46221 0.0
H1573 H 0.3934 0.32978 0.4788 0.0
C1574 C 0.3818 0.3674 0.51636 0.0
C1575 C 0.37886 0.38871 0.53512 0.0
C1576 C 0.40754 0.35679 0.51058 0.0
C1577 C 0.40134 0.3969 0.55067 0.0
C1578 C 0.42709 0.38612 0.54533 0.0
C1579 C 0.45671 0.36011 0.51514 0.0
C1580 C 0.45978 0.34311 0.49244 0.0
C1581 C 0.4306 0.36714 0.52429 0.0
C1582 C 0.43676 0.3316 0.48018 0.0
C1583 C 0.41084 0.33802 0.48944 0.0
H1584 H 0.18053 0.66835 0.69508 0.0
H1585 H 0.15789 0.62473 0.76759 0.0
H1586 H 0.12606 0.66045 0.7797 0.0
H1587 H 0.10914 0.70604 0.77303 0.0
H1588 H 0.13103 0.75169 0.70196 0.0
H1589 H 0.15896 0.7133 0.68583 0.0
C1590 C 0.16816 0.66651 0.71318 0.0
C1591 C 0.17179 0.64418 0.73064 0.0
C1592 C 0.15005 0.68752 0.72036 0.0
C1593 C 0.15574 0.64195 0.75407 0.0
C1594 C 0.13753 0.66234 0.76103 0.0
C1595 C 0.11918 0.70721 0.75348 0.0
C1596 C 0.11747 0.73111 0.73821 0.0
C1597 C 0.13516 0.68549 0.74479 0.0
C1598 C 0.13174 0.7331 0.71368 0.0
C1599 C 0.14769 0.71124 0.70459 0.0
H1600 H 0.56038 0.84314 -0.00208 0.0
H1601 H 0.51859 0.88754 0.93528 0.0
H1602 H 0.56141 0.90918 0.92182 0.0
H1603 H 0.60875 0.92038 0.93291 0.0
H1604 H 0.64896 0.87888 -0.00126 0.0
H1605 H 0.60901 0.85014 0.00529 0.0
C1606 C 0.5609 0.85686 0.98072 0.0
C1607 C 0.53671 0.86352 0.9672 0.0
C1608 C 0.58526 0.86973 0.97386 0.0
C1609 C 0.5372 0.88203 0.94565 0.0
C1610 C 0.56159 0.89438 0.93807 0.0
C1611 C 0.60901 0.90455 0.94821 0.0
C1612 C 0.63157 0.90186 0.96553 0.0
C1613 C 0.58552 0.88912 0.95272 0.0
C1614 C 0.63167 0.88144 0.98538 0.0
C1615 C 0.60881 0.86514 0.98921 0.0
H1616 H 0.87687 0.13825 0.49326 0.0
H1617 H 0.91728 0.09131 0.43127 0.0
H1618 H 0.96115 0.10954 0.44569 0.0
H1619 H 0.98821 0.13135 0.48194 0.0
H1620 H 0.94744 0.17736 0.54429 0.0
H1621 H 0.90354 0.16757 0.52347 0.0
C1622 C 0.89523 0.13265 0.48244 0.0
C1623 C 0.89404 0.11307 0.46171 0.0
C1624 C 0.92033 0.14285 0.49112 0.0
C1625 C 0.91778 0.10625 0.44746 0.0
C1626 C 0.94289 0.11647 0.45585 0.0
C1627 C 0.96969 0.13984 0.49036 0.0
C1628 C 0.97085 0.15512 0.51438 0.0
C1629 C 0.94449 0.13363 0.47857 0.0
C1630 C 0.94692 0.16593 0.52546 0.0
C1631 C 0.92182 0.1601 0.51375 0.0
loop_
_geom_bond_atom_site_label_1
_geom_bond_atom_site_label_2
_geom_bond_distance
_geom_bond_site_symmetry_2
_ccdc_geom_bond_type
Mn0 O5 2.095 . S
Mn0 O15 2.162 . S
Mn0 O16 2.297 . S
Mn0 O24 2.385 . S
Mn0 O25 2.209 . S
Mn0 O26 2.094 . S
Mn1 O6 2.121 . S
Mn1 N8 2.257 . S
Mn1 N17 2.282 . S
Mn1 O25 2.215 . S
Mn1 O27 2.117 . S
C2 O24 1.234 . S
C2 O25 1.283 . S
C3 O15 1.281 . S
C3 O16 1.236 . S
C4 O26 1.240 . S
C4 O27 1.264 . S
O5 Mn0 2.095 . S
O5 C14 1.250 . S
O6 Mn1 2.121 . S
O6 C14 1.258 . S
C7 N8 1.326 . S
C7 C11 1.460 . S
C7 H13 0.929 . S
N8 Mn1 2.257 . S
N8 C7 1.326 . S
N8 C12 1.362 . S
C9 C10 1.258 . S
C9 C12 1.431 . S
C9 C29 1.449 . S
C10 C9 1.258 . S
C10 C11 1.477 . S
C10 H30 0.931 . S
C11 C7 1.460 . S
C11 C10 1.477 . S
C11 H31 0.930 . S
C12 N8 1.362 . S
C12 C9 1.431 . S
C12 C22 1.476 . S
H13 C7 0.929 . S
C14 O5 1.250 . S
C14 O6 1.258 . S
O15 Mn0 2.162 . S
O15 C3 1.281 . S
O16 Mn0 2.297 . S
O16 C3 1.236 . S
N17 Mn1 2.282 . S
N17 C18 1.328 . S
N17 C22 1.318 . S
C18 N17 1.328 . S
C18 C19 1.457 . S
C18 H23 0.929 . S
C19 C18 1.457 . S
C19 C20 1.291 . S
C19 H32 0.931 . S
C20 C19 1.291 . S
C20 C21 1.373 . S
C20 H33 0.929 . S
C21 C20 1.373 . S
C21 C22 1.396 . S
C21 C28 1.403 . S
C22 C12 1.476 . S
C22 N17 1.318 . S
C22 C21 1.396 . S
H23 C18 0.929 . S
O24 Mn0 2.385 . S
O24 C2 1.234 . S
O25 Mn0 2.209 . S
O25 Mn1 2.215 . S
O25 C2 1.283 . S
O26 Mn0 2.094 . S
O26 C4 1.240 . S
O27 Mn1 2.117 . S
O27 C4 1.264 . S
C28 C21 1.403 . S
C28 C29 1.399 . S
C28 H34 0.929 . S
C29 C9 1.449 . S
C29 C28 1.399 . S
C29 H35 0.930 . S
H30 C10 0.931 . S
H31 C11 0.930 . S
H32 C19 0.931 . S
H33 C20 0.929 . S
H34 C28 0.929 . S
H35 C29 0.930 . S
Mn36 O41 2.095 . S
Mn36 O51 2.162 . S
Mn36 O52 2.297 . S
Mn36 O60 2.385 . S
Mn36 O61 2.209 . S
Mn36 O62 2.094 . S
Mn37 O42 2.121 . S
Mn37 N44 2.257 1_565 S
Mn37 N53 2.282 1_655 S
Mn37 O61 2.215 . S
Mn37 O63 2.117 . S
C38 O60 1.234 . S
C38 O61 1.283 . S
C39 O51 1.281 . S
C39 O52 1.236 . S
C40 O62 1.240 . S
C40 O63 1.264 . S
O41 Mn36 2.095 . S
O41 C50 1.250 . S
O42 Mn37 2.121 . S
O42 C50 1.258 . S
C43 N44 1.326 . S
C43 C47 1.460 . S
C43 H49 0.929 . S
N44 Mn37 2.257 1_545 S
N44 C43 1.326 . S
N44 C48 1.362 1_655 S
C45 C46 1.258 . S
C45 C48 1.431 . S
C45 C65 1.449 . S
C46 C45 1.258 . S
C46 C47 1.477 1_455 S
C46 H66 0.931 . S
C47 C43 1.460 . S
C47 C46 1.477 1_655 S
C47 H67 0.930 . S
C48 N44 1.362 1_455 S
C48 C45 1.431 . S
C48 C58 1.478 1_545 S
H49 C43 0.929 . S
C50 O41 1.250 . S
C50 O42 1.258 . S
O51 Mn36 2.162 . S
O51 C39 1.281 . S
O52 Mn36 2.297 . S
O52 C39 1.236 . S
N53 Mn37 2.282 1_455 S
N53 C54 1.328 . S
N53 C58 1.314 . S
C54 N53 1.328 . S
C54 C55 1.457 . S
C54 H59 0.929 . S
C55 C54 1.457 . S
C55 C56 1.291 . S
C55 H68 0.931 . S
C56 C55 1.291 . S
C56 C57 1.373 1_565 S
C56 H69 0.929 . S
C57 C56 1.373 1_545 S
C57 C58 1.397 1_545 S
C57 C64 1.403 . S
C58 C48 1.478 1_565 S
C58 N53 1.314 . S
C58 C57 1.397 1_565 S
H59 C54 0.929 . S
O60 Mn36 2.385 . S
O60 C38 1.234 . S
O61 Mn36 2.209 . S
O61 Mn37 2.215 . S
O61 C38 1.283 . S
O62 Mn36 2.094 . S
O62 C40 1.240 . S
O63 Mn37 2.117 . S
O63 C40 1.264 . S
C64 C57 1.403 . S
C64 C65 1.399 . S
C64 H70 0.929 . S
C65 C45 1.449 . S
C65 C64 1.399 . S
C65 H71 0.930 . S
H66 C46 0.931 . S
H67 C47 0.930 . S
H68 C55 0.931 . S
H69 C56 0.929 . S
H70 C64 0.929 . S
H71 C65 0.930 . S
Mn72 O77 2.095 . S
Mn72 O87 2.162 . S
Mn72 O88 2.297 . S
Mn72 O96 2.385 . S
Mn72 O97 2.209 . S
Mn72 O98 2.094 . S
Mn73 O78 2.121 . S
Mn73 N80 2.257 . S
Mn73 N89 2.282 . S
Mn73 O97 2.215 . S
Mn73 O99 2.117 . S
C74 O96 1.234 . S
C74 O97 1.283 . S
C75 O87 1.281 . S
C75 O88 1.236 . S
C76 O98 1.240 . S
C76 O99 1.264 . S
O77 Mn72 2.095 . S
O77 C86 1.250 . S
O78 Mn73 2.121 . S
O78 C86 1.258 . S
C79 N80 1.326 . S
C79 C83 1.460 . S
C79 H85 0.929 . S
N80 Mn73 2.257 . S
N80 C79 1.326 . S
N80 C84 1.362 . S
C81 C82 1.258 . S
C81 C84 1.431 . S
C81 C101 1.449 . S
C82 C81 1.258 . S
C82 C83 1.477 . S
C82 H102 0.931 . S
C83 C79 1.460 . S
C83 C82 1.477 . S
C83 H103 0.930 . S
C84 N80 1.362 . S
C84 C81 1.431 . S
C84 C94 1.476 . S
H85 C79 0.929 . S
C86 O77 1.250 . S
C86 O78 1.258 . S
O87 Mn72 2.162 . S
O87 C75 1.281 . S
O88 Mn72 2.297 . S
O88 C75 1.236 . S
N89 Mn73 2.282 . S
N89 C90 1.328 . S
N89 C94 1.318 . S
C90 N89 1.328 . S
C90 C91 1.457 . S
C90 H95 0.929 . S
C91 C90 1.457 . S
C91 C92 1.291 . S
C91 H104 0.931 . S
C92 C91 1.291 . S
C92 C93 1.373 . S
C92 H105 0.929 . S
C93 C92 1.373 . S
C93 C94 1.396 . S
C93 C100 1.403 . S
C94 C84 1.476 . S
C94 N89 1.318 . S
C94 C93 1.396 . S
H95 C90 0.929 . S
O96 Mn72 2.385 . S
O96 C74 1.234 . S
O97 Mn72 2.209 . S
O97 Mn73 2.215 . S
O97 C74 1.283 . S
O98 Mn72 2.094 . S
O98 C76 1.240 . S
O99 Mn73 2.117 . S
O99 C76 1.264 . S
C100 C93 1.403 . S
C100 C101 1.399 . S
C100 H106 0.929 . S
C101 C81 1.449 . S
C101 C100 1.399 . S
C101 H107 0.930 . S
H102 C82 0.931 . S
H103 C83 0.930 . S
H104 C91 0.931 . S
H105 C92 0.929 . S
H106 C100 0.929 . S
H107 C101 0.930 . S
Mn108 O113 2.095 . S
Mn108 O123 2.162 . S
Mn108 O124 2.297 . S
Mn108 O132 2.385 . S
Mn108 O133 2.209 . S
Mn108 O134 2.094 . S
Mn109 O114 2.121 . S
Mn109 N116 2.257 1_545 S
Mn109 N125 2.282 . S
Mn109 O133 2.215 . S
Mn109 O135 2.117 . S
C110 O132 1.234 . S
C110 O133 1.283 . S
C111 O123 1.281 . S
C111 O124 1.236 . S
C112 O134 1.240 . S
C112 O135 1.264 . S
O113 Mn108 2.095 . S
O113 C122 1.250 . S
O114 Mn109 2.121 . S
O114 C122 1.258 . S
C115 N116 1.326 . S
C115 C119 1.460 . S
C115 H121 0.929 . S
N116 Mn109 2.257 1_565 S
N116 C115 1.326 . S
N116 C120 1.362 . S
C117 C118 1.258 . S
C117 C120 1.431 . S
C117 C137 1.449 . S
C118 C117 1.258 . S
C118 C119 1.477 . S
C118 H138 0.931 . S
C119 C115 1.460 . S
C119 C118 1.477 . S
C119 H139 0.930 . S
C120 N116 1.362 . S
C120 C117 1.431 . S
C120 C130 1.478 1_565 S
H121 C115 0.929 . S
C122 O113 1.250 . S
C122 O114 1.258 . S
O123 Mn108 2.162 . S
O123 C111 1.281 . S
O124 Mn108 2.297 . S
O124 C111 1.236 . S
N125 Mn109 2.282 . S
N125 C126 1.328 . S
N125 C130 1.314 . S
C126 N125 1.328 . S
C126 C127 1.457 . S
C126 H131 0.929 . S
C127 C126 1.457 . S
C127 C128 1.291 . S
C127 H140 0.931 . S
C128 C127 1.291 . S
C128 C129 1.373 1_545 S
C128 H141 0.929 . S
C129 C128 1.373 1_565 S
C129 C130 1.397 1_565 S
C129 C136 1.403 . S
C130 C120 1.478 1_545 S
C130 N125 1.314 . S
C130 C129 1.397 1_545 S
H131 C126 0.929 . S
O132 Mn108 2.385 . S
O132 C110 1.234 . S
O133 Mn108 2.209 . S
O133 Mn109 2.215 . S
O133 C110 1.283 . S
O134 Mn108 2.094 . S
O134 C112 1.240 . S
O135 Mn109 2.117 . S
O135 C112 1.264 . S
C136 C129 1.403 . S
C136 C137 1.399 . S
C136 H142 0.929 . S
C137 C117 1.449 . S
C137 C136 1.399 . S
C137 H143 0.930 . S
H138 C118 0.931 . S
H139 C119 0.930 . S
H140 C127 0.931 . S
H141 C128 0.929 . S
H142 C136 0.929 . S
H143 C137 0.930 . S
Mn144 O149 2.095 . S
Mn144 O159 2.162 . S
Mn144 O160 2.297 . S
Mn144 O168 2.385 . S
Mn144 O169 2.209 . S
Mn144 O170 2.094 . S
Mn145 O150 2.121 . S
Mn145 N152 2.257 . S
Mn145 N161 2.282 . S
Mn145 O169 2.215 . S
Mn145 O171 2.117 . S
C146 O168 1.234 . S
C146 O169 1.283 . S
C147 O159 1.281 . S
C147 O160 1.236 . S
C148 O170 1.240 . S
C148 O171 1.264 . S
O149 Mn144 2.095 . S
O149 C158 1.250 . S
O150 Mn145 2.121 . S
O150 C158 1.258 . S
C151 N152 1.326 . S
C151 C155 1.460 . S
C151 H157 0.929 . S
N152 Mn145 2.257 . S
N152 C151 1.326 . S
N152 C156 1.362 . S
C153 C154 1.258 . S
C153 C156 1.431 . S
C153 C173 1.449 . S
C154 C153 1.258 . S
C154 C155 1.477 . S
C154 H174 0.931 . S
C155 C151 1.460 . S
C155 C154 1.477 . S
C155 H175 0.930 . S
C156 N152 1.362 . S
C156 C153 1.431 . S
C156 C166 1.476 . S
H157 C151 0.929 . S
C158 O149 1.250 . S
C158 O150 1.258 . S
O159 Mn144 2.162 . S
O159 C147 1.281 . S
O160 Mn144 2.297 . S
O160 C147 1.236 . S
N161 Mn145 2.282 . S
N161 C162 1.328 . S
N161 C166 1.318 . S
C162 N161 1.328 . S
C162 C163 1.457 . S
C162 H167 0.929 . S
C163 C162 1.457 . S
C163 C164 1.291 . S
C163 H176 0.931 . S
C164 C163 1.291 . S
C164 C165 1.373 . S
C164 H177 0.929 . S
C165 C164 1.373 . S
C165 C166 1.396 . S
C165 C172 1.403 . S
C166 C156 1.476 . S
C166 N161 1.318 . S
C166 C165 1.396 . S
H167 C162 0.929 . S
O168 Mn144 2.385 . S
O168 C146 1.234 . S
O169 Mn144 2.209 . S
O169 Mn145 2.215 . S
O169 C146 1.283 . S
O170 Mn144 2.094 . S
O170 C148 1.240 . S
O171 Mn145 2.117 . S
O171 C148 1.264 . S
C172 C165 1.403 . S
C172 C173 1.399 . S
C172 H178 0.929 . S
C173 C153 1.449 . S
C173 C172 1.399 . S
C173 H179 0.930 . S
H174 C154 0.931 . S
H175 C155 0.930 . S
H176 C163 0.931 . S
H177 C164 0.929 . S
H178 C172 0.929 . S
H179 C173 0.930 . S
Mn180 O185 2.095 . S
Mn180 O195 2.162 . S
Mn180 O196 2.297 . S
Mn180 O204 2.385 . S
Mn180 O205 2.209 . S
Mn180 O206 2.094 . S
Mn181 O186 2.121 . S
Mn181 N188 2.257 . S
Mn181 N197 2.282 1_455 S
Mn181 O205 2.215 . S
Mn181 O207 2.117 . S
C182 O204 1.234 . S
C182 O205 1.283 . S
C183 O195 1.281 . S
C183 O196 1.236 . S
C184 O206 1.240 . S
C184 O207 1.264 . S
O185 Mn180 2.095 . S
O185 C194 1.250 . S
O186 Mn181 2.121 . S
O186 C194 1.258 . S
C187 N188 1.326 . S
C187 C191 1.460 . S
C187 H193 0.929 . S
N188 Mn181 2.257 . S
N188 C187 1.326 . S
N188 C192 1.362 1_455 S
C189 C190 1.258 . S
C189 C192 1.431 . S
C189 C209 1.449 . S
C190 C189 1.258 . S
C190 C191 1.477 1_655 S
C190 H210 0.931 . S
C191 C187 1.460 . S
C191 C190 1.477 1_455 S
C191 H211 0.930 . S
C192 N188 1.362 1_655 S
C192 C189 1.431 . S
C192 C202 1.476 . S
H193 C187 0.929 . S
C194 O185 1.250 . S
C194 O186 1.258 . S
O195 Mn180 2.162 . S
O195 C183 1.281 . S
O196 Mn180 2.297 . S
O196 C183 1.236 . S
N197 Mn181 2.282 1_655 S
N197 C198 1.328 . S
N197 C202 1.318 . S
C198 N197 1.328 . S
C198 C199 1.457 . S
C198 H203 0.929 . S
C199 C198 1.457 . S
C199 C200 1.291 . S
C199 H212 0.931 . S
C200 C199 1.291 . S
C200 C201 1.373 . S
C200 H213 0.929 . S
C201 C200 1.373 . S
C201 C202 1.396 . S
C201 C208 1.403 . S
C202 C192 1.476 . S
C202 N197 1.318 . S
C202 C201 1.396 . S
H203 C198 0.929 . S
O204 Mn180 2.385 . S
O204 C182 1.234 . S
O205 Mn180 2.209 . S
O205 Mn181 2.215 . S
O205 C182 1.283 . S
O206 Mn180 2.094 . S
O206 C184 1.240 . S
O207 Mn181 2.117 . S
O207 C184 1.264 . S
C208 C201 1.403 . S
C208 C209 1.399 . S
C208 H214 0.929 . S
C209 C189 1.449 . S
C209 C208 1.399 . S
C209 H215 0.930 . S
H210 C190 0.931 . S
H211 C191 0.930 . S
H212 C199 0.931 . S
H213 C200 0.929 . S
H214 C208 0.929 . S
H215 C209 0.930 . S
Mn216 O221 2.095 . S
Mn216 O231 2.162 . S
Mn216 O232 2.297 . S
Mn216 O240 2.385 . S
Mn216 O241 2.209 . S
Mn216 O242 2.094 . S
Mn217 O222 2.121 . S
Mn217 N224 2.257 . S
Mn217 N233 2.282 . S
Mn217 O241 2.215 . S
Mn217 O243 2.117 . S
C218 O240 1.234 . S
C218 O241 1.283 . S
C219 O231 1.281 . S
C219 O232 1.236 . S
C220 O242 1.240 . S
C220 O243 1.264 . S
O221 Mn216 2.095 . S
O221 C230 1.250 . S
O222 Mn217 2.121 . S
O222 C230 1.258 . S
C223 N224 1.326 . S
C223 C227 1.460 . S
C223 H229 0.929 . S
N224 Mn217 2.257 . S
N224 C223 1.326 . S
N224 C228 1.362 . S
C225 C226 1.258 . S
C225 C228 1.431 . S
C225 C245 1.449 . S
C226 C225 1.258 . S
C226 C227 1.477 . S
C226 H246 0.931 . S
C227 C223 1.460 . S
C227 C226 1.477 . S
C227 H247 0.930 . S
C228 N224 1.362 . S
C228 C225 1.431 . S
C228 C238 1.476 . S
H229 C223 0.929 . S
C230 O221 1.250 . S
C230 O222 1.258 . S
O231 Mn216 2.162 . S
O231 C219 1.281 . S
O232 Mn216 2.297 . S
O232 C219 1.236 . S
N233 Mn217 2.282 . S
N233 C234 1.328 . S
N233 C238 1.318 . S
C234 N233 1.328 . S
C234 C235 1.457 . S
C234 H239 0.929 . S
C235 C234 1.457 . S
C235 C236 1.291 . S
C235 H248 0.931 . S
C236 C235 1.291 . S
C236 C237 1.373 . S
C236 H249 0.929 . S
C237 C236 1.373 . S
C237 C238 1.396 . S
C237 C244 1.403 . S
C238 C228 1.476 . S
C238 N233 1.318 . S
C238 C237 1.396 . S
H239 C234 0.929 . S
O240 Mn216 2.385 . S
O240 C218 1.234 . S
O241 Mn216 2.209 . S
O241 Mn217 2.215 . S
O241 C218 1.283 . S
O242 Mn216 2.094 . S
O242 C220 1.240 . S
O243 Mn217 2.117 . S
O243 C220 1.264 . S
C244 C237 1.403 . S
C244 C245 1.399 . S
C244 H250 0.929 . S
C245 C225 1.449 . S
C245 C244 1.399 . S
C245 H251 0.930 . S
H246 C226 0.931 . S
H247 C227 0.930 . S
H248 C235 0.931 . S
H249 C236 0.929 . S
H250 C244 0.929 . S
H251 C245 0.930 . S
Mn252 O257 2.095 . S
Mn252 O267 2.162 . S
Mn252 O268 2.297 . S
Mn252 O276 2.385 . S
Mn252 O277 2.209 . S
Mn252 O278 2.094 . S
Mn253 O258 2.121 . S
Mn253 N260 2.257 . S
Mn253 N269 2.282 . S
Mn253 O277 2.215 . S
Mn253 O279 2.117 . S
C254 O276 1.234 . S
C254 O277 1.283 . S
C255 O267 1.281 . S
C255 O268 1.236 . S
C256 O278 1.240 . S
C256 O279 1.264 . S
O257 Mn252 2.095 . S
O257 C266 1.250 . S
O258 Mn253 2.121 . S
O258 C266 1.258 . S
C259 N260 1.326 . S
C259 C263 1.460 . S
C259 H265 0.929 . S
N260 Mn253 2.257 . S
N260 C259 1.326 . S
N260 C264 1.362 . S
C261 C262 1.258 . S
C261 C264 1.431 . S
C261 C281 1.449 . S
C262 C261 1.258 . S
C262 C263 1.477 . S
C262 H282 0.931 . S
C263 C259 1.460 . S
C263 C262 1.477 . S
C263 H283 0.930 . S
C264 N260 1.362 . S
C264 C261 1.431 . S
C264 C274 1.476 . S
H265 C259 0.929 . S
C266 O257 1.250 . S
C266 O258 1.258 . S
O267 Mn252 2.162 . S
O267 C255 1.281 . S
O268 Mn252 2.297 . S
O268 C255 1.236 . S
N269 Mn253 2.282 . S
N269 C270 1.328 . S
N269 C274 1.318 . S
C270 N269 1.328 . S
C270 C271 1.457 . S
C270 H275 0.929 . S
C271 C270 1.457 . S
C271 C272 1.291 . S
C271 H284 0.931 . S
C272 C271 1.291 . S
C272 C273 1.373 . S
C272 H285 0.929 . S
C273 C272 1.373 . S
C273 C274 1.396 . S
C273 C280 1.403 . S
C274 C264 1.476 . S
C274 N269 1.318 . S
C274 C273 1.396 . S
H275 C270 0.929 . S
O276 Mn252 2.385 . S
O276 C254 1.234 . S
O277 Mn252 2.209 . S
O277 Mn253 2.215 . S
O277 C254 1.283 . S
O278 Mn252 2.094 . S
O278 C256 1.240 . S
O279 Mn253 2.117 . S
O279 C256 1.264 . S
C280 C273 1.403 . S
C280 C281 1.399 . S
C280 H286 0.929 . S
C281 C261 1.449 . S
C281 C280 1.399 . S
C281 H287 0.930 . S
H282 C262 0.931 . S
H283 C263 0.930 . S
H284 C271 0.931 . S
H285 C272 0.929 . S
H286 C280 0.929 . S
H287 C281 0.930 . S
Mn288 O293 2.095 . S
Mn288 O303 2.162 . S
Mn288 O304 2.297 . S
Mn288 O312 2.385 . S
Mn288 O313 2.209 . S
Mn288 O314 2.094 . S
Mn289 O294 2.121 . S
Mn289 N296 2.257 . S
Mn289 N305 2.282 . S
Mn289 O313 2.215 . S
Mn289 O315 2.117 . S
C290 O312 1.234 . S
C290 O313 1.283 . S
C291 O303 1.281 . S
C291 O304 1.236 . S
C292 O314 1.240 . S
C292 O315 1.264 . S
O293 Mn288 2.095 . S
O293 C302 1.250 . S
O294 Mn289 2.121 . S
O294 C302 1.258 . S
C295 N296 1.326 . S
C295 C299 1.460 . S
C295 H301 0.929 . S
N296 Mn289 2.257 . S
N296 C295 1.326 . S
N296 C300 1.362 . S
C297 C298 1.258 . S
C297 C300 1.431 . S
C297 C317 1.449 . S
C298 C297 1.258 . S
C298 C299 1.477 . S
C298 H318 0.931 . S
C299 C295 1.460 . S
C299 C298 1.477 . S
C299 H319 0.930 . S
C300 N296 1.362 . S
C300 C297 1.431 . S
C300 C310 1.476 . S
H301 C295 0.929 . S
C302 O293 1.250 . S
C302 O294 1.258 . S
O303 Mn288 2.162 . S
O303 C291 1.281 . S
O304 Mn288 2.297 . S
O304 C291 1.236 . S
N305 Mn289 2.282 . S
N305 C306 1.328 . S
N305 C310 1.318 . S
C306 N305 1.328 . S
C306 C307 1.457 . S
C306 H311 0.929 . S
C307 C306 1.457 . S
C307 C308 1.291 . S
C307 H320 0.931 . S
C308 C307 1.291 . S
C308 C309 1.373 . S
C308 H321 0.929 . S
C309 C308 1.373 . S
C309 C310 1.396 . S
C309 C316 1.403 . S
C310 C300 1.476 . S
C310 N305 1.318 . S
C310 C309 1.396 . S
H311 C306 0.929 . S
O312 Mn288 2.385 . S
O312 C290 1.234 . S
O313 Mn288 2.209 . S
O313 Mn289 2.215 . S
O313 C290 1.283 . S
O314 Mn288 2.094 . S
O314 C292 1.240 . S
O315 Mn289 2.117 . S
O315 C292 1.264 . S
C316 C309 1.403 . S
C316 C317 1.399 . S
C316 H322 0.929 . S
C317 C297 1.449 . S
C317 C316 1.399 . S
C317 H323 0.930 . S
H318 C298 0.931 . S
H319 C299 0.930 . S
H320 C307 0.931 . S
H321 C308 0.929 . S
H322 C316 0.929 . S
H323 C317 0.930 . S
Mn324 O329 2.095 . S
Mn324 O339 2.162 . S
Mn324 O340 2.297 . S
Mn324 O348 2.385 . S
Mn324 O349 2.209 . S
Mn324 O350 2.094 . S
Mn325 O330 2.121 . S
Mn325 N332 2.257 1_455 S
Mn325 N341 2.282 . S
Mn325 O349 2.215 . S
Mn325 O351 2.117 . S
C326 O348 1.234 . S
C326 O349 1.283 . S
C327 O339 1.281 . S
C327 O340 1.236 . S
C328 O350 1.240 . S
C328 O351 1.264 . S
O329 Mn324 2.095 . S
O329 C338 1.250 . S
O330 Mn325 2.121 . S
O330 C338 1.258 . S
C331 N332 1.326 . S
C331 C335 1.460 . S
C331 H337 0.929 . S
N332 Mn325 2.257 1_655 S
N332 C331 1.326 . S
N332 C336 1.362 . S
C333 C334 1.258 . S
C333 C336 1.431 . S
C333 C353 1.449 . S
C334 C333 1.258 . S
C334 C335 1.477 . S
C334 H354 0.931 . S
C335 C331 1.460 . S
C335 C334 1.477 . S
C335 H355 0.930 . S
C336 N332 1.362 . S
C336 C333 1.431 . S
C336 C346 1.478 1_655 S
H337 C331 0.929 . S
C338 O329 1.250 . S
C338 O330 1.258 . S
O339 Mn324 2.162 . S
O339 C327 1.281 . S
O340 Mn324 2.297 . S
O340 C327 1.236 . S
N341 Mn325 2.282 . S
N341 C342 1.328 . S
N341 C346 1.314 . S
C342 N341 1.328 . S
C342 C343 1.457 . S
C342 H347 0.929 . S
C343 C342 1.457 . S
C343 C344 1.291 . S
C343 H356 0.931 . S
C344 C343 1.291 . S
C344 C345 1.373 1_455 S
C344 H357 0.929 . S
C345 C344 1.373 1_655 S
C345 C346 1.397 1_655 S
C345 C352 1.403 . S
C346 C336 1.478 1_455 S
C346 N341 1.314 . S
C346 C345 1.397 1_455 S
H347 C342 0.929 . S
O348 Mn324 2.385 . S
O348 C326 1.234 . S
O349 Mn324 2.209 . S
O349 Mn325 2.215 . S
O349 C326 1.283 . S
O350 Mn324 2.094 . S
O350 C328 1.240 . S
O351 Mn325 2.117 . S
O351 C328 1.264 . S
C352 C345 1.403 . S
C352 C353 1.399 . S
C352 H358 0.929 . S
C353 C333 1.449 . S
C353 C352 1.399 . S
C353 H359 0.930 . S
H354 C334 0.931 . S
H355 C335 0.930 . S
H356 C343 0.931 . S
H357 C344 0.929 . S
H358 C352 0.929 . S
H359 C353 0.930 . S
Mn360 O365 2.095 . S
Mn360 O375 2.162 . S
Mn360 O376 2.297 . S
Mn360 O384 2.385 . S
Mn360 O385 2.209 . S
Mn360 O386 2.094 . S
Mn361 O366 2.121 . S
Mn361 N368 2.257 . S
Mn361 N377 2.282 . S
Mn361 O385 2.215 . S
Mn361 O387 2.117 . S
C362 O384 1.234 . S
C362 O385 1.283 . S
C363 O375 1.281 . S
C363 O376 1.236 . S
C364 O386 1.240 . S
C364 O387 1.264 . S
O365 Mn360 2.095 . S
O365 C374 1.250 . S
O366 Mn361 2.121 . S
O366 C374 1.258 . S
C367 N368 1.326 . S
C367 C371 1.460 . S
C367 H373 0.929 . S
N368 Mn361 2.257 . S
N368 C367 1.326 . S
N368 C372 1.362 . S
C369 C370 1.258 . S
C369 C372 1.431 . S
C369 C389 1.449 . S
C370 C369 1.258 . S
C370 C371 1.477 . S
C370 H390 0.931 . S
C371 C367 1.460 . S
C371 C370 1.477 . S
C371 H391 0.930 . S
C372 N368 1.362 . S
C372 C369 1.431 . S
C372 C382 1.476 . S
H373 C367 0.929 . S
C374 O365 1.250 . S
C374 O366 1.258 . S
O375 Mn360 2.162 . S
O375 C363 1.281 . S
O376 Mn360 2.297 . S
O376 C363 1.236 . S
N377 Mn361 2.282 . S
N377 C378 1.328 . S
N377 C382 1.318 . S
C378 N377 1.328 . S
C378 C379 1.457 . S
C378 H383 0.929 . S
C379 C378 1.457 . S
C379 C380 1.291 . S
C379 H392 0.931 . S
C380 C379 1.291 . S
C380 C381 1.373 . S
C380 H393 0.929 . S
C381 C380 1.373 . S
C381 C382 1.396 . S
C381 C388 1.403 . S
C382 C372 1.476 . S
C382 N377 1.318 . S
C382 C381 1.396 . S
H383 C378 0.929 . S
O384 Mn360 2.385 . S
O384 C362 1.234 . S
O385 Mn360 2.209 . S
O385 Mn361 2.215 . S
O385 C362 1.283 . S
O386 Mn360 2.094 . S
O386 C364 1.240 . S
O387 Mn361 2.117 . S
O387 C364 1.264 . S
C388 C381 1.403 . S
C388 C389 1.399 . S
C388 H394 0.929 . S
C389 C369 1.449 . S
C389 C388 1.399 . S
C389 H395 0.930 . S
H390 C370 0.931 . S
H391 C371 0.930 . S
H392 C379 0.931 . S
H393 C380 0.929 . S
H394 C388 0.929 . S
H395 C389 0.930 . S
Mn396 O401 2.095 . S
Mn396 O411 2.162 . S
Mn396 O412 2.297 . S
Mn396 O420 2.385 . S
Mn396 O421 2.209 . S
Mn396 O422 2.094 . S
Mn397 O402 2.121 . S
Mn397 N404 2.257 . S
Mn397 N413 2.282 1_554 S
Mn397 O421 2.215 . S
Mn397 O423 2.117 . S
C398 O420 1.234 . S
C398 O421 1.283 . S
C399 O411 1.281 . S
C399 O412 1.236 . S
C400 O422 1.240 . S
C400 O423 1.264 . S
O401 Mn396 2.095 . S
O401 C410 1.250 . S
O402 Mn397 2.121 . S
O402 C410 1.258 . S
C403 N404 1.326 . S
C403 C407 1.460 . S
C403 H409 0.929 . S
N404 Mn397 2.257 . S
N404 C403 1.326 . S
N404 C408 1.362 1_554 S
C405 C406 1.258 . S
C405 C408 1.431 . S
C405 C425 1.449 . S
C406 C405 1.258 . S
C406 C407 1.477 1_556 S
C406 H426 0.931 . S
C407 C403 1.460 . S
C407 C406 1.477 1_554 S
C407 H427 0.930 . S
C408 N404 1.362 1_556 S
C408 C405 1.431 . S
C408 C418 1.476 . S
H409 C403 0.929 . S
C410 O401 1.250 . S
C410 O402 1.258 . S
O411 Mn396 2.162 . S
O411 C399 1.281 . S
O412 Mn396 2.297 . S
O412 C399 1.236 . S
N413 Mn397 2.282 1_556 S
N413 C414 1.328 . S
N413 C418 1.318 . S
C414 N413 1.328 . S
C414 C415 1.457 . S
C414 H419 0.929 . S
C415 C414 1.457 . S
C415 C416 1.291 . S
C415 H428 0.931 . S
C416 C415 1.291 . S
C416 C417 1.373 . S
C416 H429 0.929 . S
C417 C416 1.373 . S
C417 C418 1.396 . S
C417 C424 1.403 . S
C418 C408 1.476 . S
C418 N413 1.318 . S
C418 C417 1.396 . S
H419 C414 0.929 . S
O420 Mn396 2.385 . S
O420 C398 1.234 . S
O421 Mn396 2.209 . S
O421 Mn397 2.215 . S
O421 C398 1.283 . S
O422 Mn396 2.094 . S
O422 C400 1.240 . S
O423 Mn397 2.117 . S
O423 C400 1.264 . S
C424 C417 1.403 . S
C424 C425 1.399 . S
C424 H430 0.929 . S
C425 C405 1.449 . S
C425 C424 1.399 . S
C425 H431 0.930 . S
H426 C406 0.931 . S
H427 C407 0.930 . S
H428 C415 0.931 . S
H429 C416 0.929 . S
H430 C424 0.929 . S
H431 C425 0.930 . S
Mn432 O437 2.095 . S
Mn432 O447 2.162 . S
Mn432 O448 2.297 . S
Mn432 O456 2.385 . S
Mn432 O457 2.209 . S
Mn432 O458 2.094 . S
Mn433 O438 2.121 . S
Mn433 N440 2.257 . S
Mn433 N449 2.282 . S
Mn433 O457 2.215 . S
Mn433 O459 2.117 . S
C434 O456 1.234 . S
C434 O457 1.283 . S
C435 O447 1.281 . S
C435 O448 1.236 . S
C436 O458 1.240 . S
C436 O459 1.264 . S
O437 Mn432 2.095 . S
O437 C446 1.250 . S
O438 Mn433 2.121 . S
O438 C446 1.258 . S
C439 N440 1.326 . S
C439 C443 1.460 . S
C439 H445 0.929 . S
N440 Mn433 2.257 . S
N440 C439 1.326 . S
N440 C444 1.362 . S
C441 C442 1.258 . S
C441 C444 1.431 . S
C441 C461 1.449 . S
C442 C441 1.258 . S
C442 C443 1.477 . S
C442 H462 0.931 . S
C443 C439 1.460 . S
C443 C442 1.477 . S
C443 H463 0.930 . S
C444 N440 1.362 . S
C444 C441 1.431 . S
C444 C454 1.476 . S
H445 C439 0.929 . S
C446 O437 1.250 . S
C446 O438 1.258 . S
O447 Mn432 2.162 . S
O447 C435 1.281 . S
O448 Mn432 2.297 . S
O448 C435 1.236 . S
N449 Mn433 2.282 . S
N449 C450 1.328 . S
N449 C454 1.318 . S
C450 N449 1.328 . S
C450 C451 1.457 . S
C450 H455 0.929 . S
C451 C450 1.457 . S
C451 C452 1.291 . S
C451 H464 0.931 . S
C452 C451 1.291 . S
C452 C453 1.373 . S
C452 H465 0.929 . S
C453 C452 1.373 . S
C453 C454 1.396 . S
C453 C460 1.403 . S
C454 C444 1.476 . S
C454 N449 1.318 . S
C454 C453 1.396 . S
H455 C450 0.929 . S
O456 Mn432 2.385 . S
O456 C434 1.234 . S
O457 Mn432 2.209 . S
O457 Mn433 2.215 . S
O457 C434 1.283 . S
O458 Mn432 2.094 . S
O458 C436 1.240 . S
O459 Mn433 2.117 . S
O459 C436 1.264 . S
C460 C453 1.403 . S
C460 C461 1.399 . S
C460 H466 0.929 . S
C461 C441 1.449 . S
C461 C460 1.399 . S
C461 H467 0.930 . S
H462 C442 0.931 . S
H463 C443 0.930 . S
H464 C451 0.931 . S
H465 C452 0.929 . S
H466 C460 0.929 . S
H467 C461 0.930 . S
Mn468 O473 2.095 . S
Mn468 O483 2.162 . S
Mn468 O484 2.297 . S
Mn468 O492 2.385 . S
Mn468 O493 2.209 . S
Mn468 O494 2.094 . S
Mn469 O474 2.121 . S
Mn469 N476 2.257 1_655 S
Mn469 N485 2.282 1_556 S
Mn469 O493 2.215 . S
Mn469 O495 2.117 . S
C470 O492 1.234 . S
C470 O493 1.283 . S
C471 O483 1.281 . S
C471 O484 1.236 . S
C472 O494 1.240 . S
C472 O495 1.264 . S
O473 Mn468 2.095 . S
O473 C482 1.250 . S
O474 Mn469 2.121 . S
O474 C482 1.258 . S
C475 N476 1.326 . S
C475 C479 1.460 . S
C475 H481 0.929 . S
N476 Mn469 2.257 1_455 S
N476 C475 1.326 . S
N476 C480 1.362 1_556 S
C477 C478 1.258 . S
C477 C480 1.431 . S
C477 C497 1.449 . S
C478 C477 1.258 . S
C478 C479 1.477 1_554 S
C478 H498 0.931 . S
C479 C475 1.460 . S
C479 C478 1.477 1_556 S
C479 H499 0.930 . S
C480 N476 1.362 1_554 S
C480 C477 1.431 . S
C480 C490 1.478 1_455 S
H481 C475 0.929 . S
C482 O473 1.250 . S
C482 O474 1.258 . S
O483 Mn468 2.162 . S
O483 C471 1.281 . S
O484 Mn468 2.297 . S
O484 C471 1.236 . S
N485 Mn469 2.282 1_554 S
N485 C486 1.328 . S
N485 C490 1.314 . S
C486 N485 1.328 . S
C486 C487 1.457 . S
C486 H491 0.929 . S
C487 C486 1.457 . S
C487 C488 1.291 . S
C487 H500 0.931 . S
C488 C487 1.291 . S
C488 C489 1.373 1_655 S
C488 H501 0.929 . S
C489 C488 1.373 1_455 S
C489 C490 1.397 1_455 S
C489 C496 1.403 . S
C490 C480 1.478 1_655 S
C490 N485 1.314 . S
C490 C489 1.397 1_655 S
H491 C486 0.929 . S
O492 Mn468 2.385 . S
O492 C470 1.234 . S
O493 Mn468 2.209 . S
O493 Mn469 2.215 . S
O493 C470 1.283 . S
O494 Mn468 2.094 . S
O494 C472 1.240 . S
O495 Mn469 2.117 . S
O495 C472 1.264 . S
C496 C489 1.403 . S
C496 C497 1.399 . S
C496 H502 0.929 . S
C497 C477 1.449 . S
C497 C496 1.399 . S
C497 H503 0.930 . S
H498 C478 0.931 . S
H499 C479 0.930 . S
H500 C487 0.931 . S
H501 C488 0.929 . S
H502 C496 0.929 . S
H503 C497 0.930 . S
Mn504 O509 2.095 . S
Mn504 O519 2.162 . S
Mn504 O520 2.297 . S
Mn504 O528 2.385 . S
Mn504 O529 2.209 . S
Mn504 O530 2.094 . S
Mn505 O510 2.121 . S
Mn505 N512 2.257 . S
Mn505 N521 2.282 . S
Mn505 O529 2.215 . S
Mn505 O531 2.117 . S
C506 O528 1.234 . S
C506 O529 1.283 . S
C507 O519 1.281 . S
C507 O520 1.236 . S
C508 O530 1.240 . S
C508 O531 1.264 . S
O509 Mn504 2.095 . S
O509 C518 1.250 . S
O510 Mn505 2.121 . S
O510 C518 1.258 . S
C511 N512 1.326 . S
C511 C515 1.460 . S
C511 H517 0.929 . S
N512 Mn505 2.257 . S
N512 C511 1.326 . S
N512 C516 1.362 . S
C513 C514 1.258 . S
C513 C516 1.431 . S
C513 C533 1.449 . S
C514 C513 1.258 . S
C514 C515 1.477 . S
C514 H534 0.931 . S
C515 C511 1.460 . S
C515 C514 1.477 . S
C515 H535 0.930 . S
C516 N512 1.362 . S
C516 C513 1.431 . S
C516 C526 1.476 . S
H517 C511 0.929 . S
C518 O509 1.250 . S
C518 O510 1.258 . S
O519 Mn504 2.162 . S
O519 C507 1.281 . S
O520 Mn504 2.297 . S
O520 C507 1.236 . S
N521 Mn505 2.282 . S
N521 C522 1.328 . S
N521 C526 1.318 . S
C522 N521 1.328 . S
C522 C523 1.457 . S
C522 H527 0.929 . S
C523 C522 1.457 . S
C523 C524 1.291 . S
C523 H536 0.931 . S
C524 C523 1.291 . S
C524 C525 1.373 . S
C524 H537 0.929 . S
C525 C524 1.373 . S
C525 C526 1.396 . S
C525 C532 1.403 . S
C526 C516 1.476 . S
C526 N521 1.318 . S
C526 C525 1.396 . S
H527 C522 0.929 . S
O528 Mn504 2.385 . S
O528 C506 1.234 . S
O529 Mn504 2.209 . S
O529 Mn505 2.215 . S
O529 C506 1.283 . S
O530 Mn504 2.094 . S
O530 C508 1.240 . S
O531 Mn505 2.117 . S
O531 C508 1.264 . S
C532 C525 1.403 . S
C532 C533 1.399 . S
C532 H538 0.929 . S
C533 C513 1.449 . S
C533 C532 1.399 . S
C533 H539 0.930 . S
H534 C514 0.931 . S
H535 C515 0.930 . S
H536 C523 0.931 . S
H537 C524 0.929 . S
H538 C532 0.929 . S
H539 C533 0.930 . S
Mn540 O545 2.095 . S
Mn540 O555 2.162 . S
Mn540 O556 2.297 . S
Mn540 O564 2.385 . S
Mn540 O565 2.209 . S
Mn540 O566 2.094 . S
Mn541 O546 2.121 . S
Mn541 N548 2.257 . S
Mn541 N557 2.282 . S
Mn541 O565 2.215 . S
Mn541 O567 2.117 . S
C542 O564 1.234 . S
C542 O565 1.283 . S
C543 O555 1.281 . S
C543 O556 1.236 . S
C544 O566 1.240 . S
C544 O567 1.264 . S
O545 Mn540 2.095 . S
O545 C554 1.250 . S
O546 Mn541 2.121 . S
O546 C554 1.258 . S
C547 N548 1.326 . S
C547 C551 1.460 . S
C547 H553 0.929 . S
N548 Mn541 2.257 . S
N548 C547 1.326 . S
N548 C552 1.362 . S
C549 C550 1.258 . S
C549 C552 1.431 . S
C549 C569 1.449 . S
C550 C549 1.258 . S
C550 C551 1.477 . S
C550 H570 0.931 . S
C551 C547 1.460 . S
C551 C550 1.477 . S
C551 H571 0.930 . S
C552 N548 1.362 . S
C552 C549 1.431 . S
C552 C562 1.476 . S
H553 C547 0.929 . S
C554 O545 1.250 . S
C554 O546 1.258 . S
O555 Mn540 2.162 . S
O555 C543 1.281 . S
O556 Mn540 2.297 . S
O556 C543 1.236 . S
N557 Mn541 2.282 . S
N557 C558 1.328 . S
N557 C562 1.318 . S
C558 N557 1.328 . S
C558 C559 1.457 . S
C558 H563 0.929 . S
C559 C558 1.457 . S
C559 C560 1.291 . S
C559 H572 0.931 . S
C560 C559 1.291 . S
C560 C561 1.373 . S
C560 H573 0.929 . S
C561 C560 1.373 . S
C561 C562 1.396 . S
C561 C568 1.403 . S
C562 C552 1.476 . S
C562 N557 1.318 . S
C562 C561 1.396 . S
H563 C558 0.929 . S
O564 Mn540 2.385 . S
O564 C542 1.234 . S
O565 Mn540 2.209 . S
O565 Mn541 2.215 . S
O565 C542 1.283 . S
O566 Mn540 2.094 . S
O566 C544 1.240 . S
O567 Mn541 2.117 . S
O567 C544 1.264 . S
C568 C561 1.403 . S
C568 C569 1.399 . S
C568 H574 0.929 . S
C569 C549 1.449 . S
C569 C568 1.399 . S
C569 H575 0.930 . S
H570 C550 0.931 . S
H571 C551 0.930 . S
H572 C559 0.931 . S
H573 C560 0.929 . S
H574 C568 0.929 . S
H575 C569 0.930 . S
Mn576 O581 2.095 . S
Mn576 O591 2.162 . S
Mn576 O592 2.297 . S
Mn576 O600 2.385 . S
Mn576 O601 2.209 . S
Mn576 O602 2.094 . S
Mn577 O582 2.121 . S
Mn577 N584 2.257 . S
Mn577 N593 2.282 . S
Mn577 O601 2.215 . S
Mn577 O603 2.117 . S
C578 O600 1.234 . S
C578 O601 1.283 . S
C579 O591 1.281 . S
C579 O592 1.236 . S
C580 O602 1.240 . S
C580 O603 1.264 . S
O581 Mn576 2.095 . S
O581 C590 1.250 . S
O582 Mn577 2.121 . S
O582 C590 1.258 . S
C583 N584 1.326 . S
C583 C587 1.460 . S
C583 H589 0.929 . S
N584 Mn577 2.257 . S
N584 C583 1.326 . S
N584 C588 1.362 . S
C585 C586 1.258 . S
C585 C588 1.431 . S
C585 C605 1.449 . S
C586 C585 1.258 . S
C586 C587 1.477 . S
C586 H606 0.931 . S
C587 C583 1.460 . S
C587 C586 1.477 . S
C587 H607 0.930 . S
C588 N584 1.362 . S
C588 C585 1.431 . S
C588 C598 1.476 . S
H589 C583 0.929 . S
C590 O581 1.250 . S
C590 O582 1.258 . S
O591 Mn576 2.162 . S
O591 C579 1.281 . S
O592 Mn576 2.297 . S
O592 C579 1.236 . S
N593 Mn577 2.282 . S
N593 C594 1.328 . S
N593 C598 1.318 . S
C594 N593 1.328 . S
C594 C595 1.457 . S
C594 H599 0.929 . S
C595 C594 1.457 . S
C595 C596 1.291 . S
C595 H608 0.931 . S
C596 C595 1.291 . S
C596 C597 1.373 . S
C596 H609 0.929 . S
C597 C596 1.373 . S
C597 C598 1.396 . S
C597 C604 1.403 . S
C598 C588 1.476 . S
C598 N593 1.318 . S
C598 C597 1.396 . S
H599 C594 0.929 . S
O600 Mn576 2.385 . S
O600 C578 1.234 . S
O601 Mn576 2.209 . S
O601 Mn577 2.215 . S
O601 C578 1.283 . S
O602 Mn576 2.094 . S
O602 C580 1.240 . S
O603 Mn577 2.117 . S
O603 C580 1.264 . S
C604 C597 1.403 . S
C604 C605 1.399 . S
C604 H610 0.929 . S
C605 C585 1.449 . S
C605 C604 1.399 . S
C605 H611 0.930 . S
H606 C586 0.931 . S
H607 C587 0.930 . S
H608 C595 0.931 . S
H609 C596 0.929 . S
H610 C604 0.929 . S
H611 C605 0.930 . S
Mn612 O617 2.095 . S
Mn612 O627 2.162 . S
Mn612 O628 2.297 . S
Mn612 O636 2.385 . S
Mn612 O637 2.209 . S
Mn612 O638 2.094 . S
Mn613 O618 2.121 . S
Mn613 N620 2.257 . S
Mn613 N629 2.282 . S
Mn613 O637 2.215 . S
Mn613 O639 2.117 . S
C614 O636 1.234 . S
C614 O637 1.283 . S
C615 O627 1.281 . S
C615 O628 1.236 . S
C616 O638 1.240 . S
C616 O639 1.264 . S
O617 Mn612 2.095 . S
O617 C626 1.250 . S
O618 Mn613 2.121 . S
O618 C626 1.258 . S
C619 N620 1.326 . S
C619 C623 1.460 . S
C619 H625 0.929 . S
N620 Mn613 2.257 . S
N620 C619 1.326 . S
N620 C624 1.362 . S
C621 C622 1.258 . S
C621 C624 1.431 . S
C621 C641 1.449 . S
C622 C621 1.258 . S
C622 C623 1.477 . S
C622 H642 0.931 . S
C623 C619 1.460 . S
C623 C622 1.477 . S
C623 H643 0.930 . S
C624 N620 1.362 . S
C624 C621 1.431 . S
C624 C634 1.476 . S
H625 C619 0.929 . S
C626 O617 1.250 . S
C626 O618 1.258 . S
O627 Mn612 2.162 . S
O627 C615 1.281 . S
O628 Mn612 2.297 . S
O628 C615 1.236 . S
N629 Mn613 2.282 . S
N629 C630 1.328 . S
N629 C634 1.318 . S
C630 N629 1.328 . S
C630 C631 1.457 . S
C630 H635 0.929 . S
C631 C630 1.457 . S
C631 C632 1.291 . S
C631 H644 0.931 . S
C632 C631 1.291 . S
C632 C633 1.373 . S
C632 H645 0.929 . S
C633 C632 1.373 . S
C633 C634 1.396 . S
C633 C640 1.403 . S
C634 C624 1.476 . S
C634 N629 1.318 . S
C634 C633 1.396 . S
H635 C630 0.929 . S
O636 Mn612 2.385 . S
O636 C614 1.234 . S
O637 Mn612 2.209 . S
O637 Mn613 2.215 . S
O637 C614 1.283 . S
O638 Mn612 2.094 . S
O638 C616 1.240 . S
O639 Mn613 2.117 . S
O639 C616 1.264 . S
C640 C633 1.403 . S
C640 C641 1.399 . S
C640 H646 0.929 . S
C641 C621 1.449 . S
C641 C640 1.399 . S
C641 H647 0.930 . S
H642 C622 0.931 . S
H643 C623 0.930 . S
H644 C631 0.931 . S
H645 C632 0.929 . S
H646 C640 0.929 . S
H647 C641 0.930 . S
Mn648 O653 2.095 . S
Mn648 O663 2.162 . S
Mn648 O664 2.297 . S
Mn648 O672 2.385 . S
Mn648 O673 2.209 . S
Mn648 O674 2.094 . S
Mn649 O654 2.121 . S
Mn649 N656 2.257 1_554 S
Mn649 N665 2.282 . S
Mn649 O673 2.215 . S
Mn649 O675 2.117 . S
C650 O672 1.234 . S
C650 O673 1.283 . S
C651 O663 1.281 . S
C651 O664 1.236 . S
C652 O674 1.240 . S
C652 O675 1.264 . S
O653 Mn648 2.095 . S
O653 C662 1.250 . S
O654 Mn649 2.121 . S
O654 C662 1.258 . S
C655 N656 1.326 . S
C655 C659 1.460 . S
C655 H661 0.929 . S
N656 Mn649 2.257 1_556 S
N656 C655 1.326 . S
N656 C660 1.362 . S
C657 C658 1.258 . S
C657 C660 1.431 . S
C657 C677 1.449 . S
C658 C657 1.258 . S
C658 C659 1.477 . S
C658 H678 0.931 . S
C659 C655 1.460 . S
C659 C658 1.477 . S
C659 H679 0.930 . S
C660 N656 1.362 . S
C660 C657 1.431 . S
C660 C670 1.478 1_556 S
H661 C655 0.929 . S
C662 O653 1.250 . S
C662 O654 1.258 . S
O663 Mn648 2.162 . S
O663 C651 1.281 . S
O664 Mn648 2.297 . S
O664 C651 1.236 . S
N665 Mn649 2.282 . S
N665 C666 1.328 . S
N665 C670 1.314 . S
C666 N665 1.328 . S
C666 C667 1.457 . S
C666 H671 0.929 . S
C667 C666 1.457 . S
C667 C668 1.291 . S
C667 H680 0.931 . S
C668 C667 1.291 . S
C668 C669 1.373 1_554 S
C668 H681 0.929 . S
C669 C668 1.373 1_556 S
C669 C670 1.397 1_556 S
C669 C676 1.403 . S
C670 C660 1.478 1_554 S
C670 N665 1.314 . S
C670 C669 1.397 1_554 S
H671 C666 0.929 . S
O672 Mn648 2.385 . S
O672 C650 1.234 . S
O673 Mn648 2.209 . S
O673 Mn649 2.215 . S
O673 C650 1.283 . S
O674 Mn648 2.094 . S
O674 C652 1.240 . S
O675 Mn649 2.117 . S
O675 C652 1.264 . S
C676 C669 1.403 . S
C676 C677 1.399 . S
C676 H682 0.929 . S
C677 C657 1.449 . S
C677 C676 1.399 . S
C677 H683 0.930 . S
H678 C658 0.931 . S
H679 C659 0.930 . S
H680 C667 0.931 . S
H681 C668 0.929 . S
H682 C676 0.929 . S
H683 C677 0.930 . S
Mn684 O689 2.095 . S
Mn684 O699 2.162 . S
Mn684 O700 2.297 . S
Mn684 O708 2.385 . S
Mn684 O709 2.209 . S
Mn684 O710 2.094 . S
Mn685 O690 2.121 . S
Mn685 N692 2.257 . S
Mn685 N701 2.282 . S
Mn685 O709 2.215 . S
Mn685 O711 2.117 . S
C686 O708 1.234 . S
C686 O709 1.283 . S
C687 O699 1.281 . S
C687 O700 1.236 . S
C688 O710 1.240 . S
C688 O711 1.264 . S
O689 Mn684 2.095 . S
O689 C698 1.250 . S
O690 Mn685 2.121 . S
O690 C698 1.258 . S
C691 N692 1.326 . S
C691 C695 1.460 . S
C691 H697 0.929 . S
N692 Mn685 2.257 . S
N692 C691 1.326 . S
N692 C696 1.362 . S
C693 C694 1.258 . S
C693 C696 1.431 . S
C693 C713 1.449 . S
C694 C693 1.258 . S
C694 C695 1.477 . S
C694 H714 0.931 . S
C695 C691 1.460 . S
C695 C694 1.477 . S
C695 H715 0.930 . S
C696 N692 1.362 . S
C696 C693 1.431 . S
C696 C706 1.476 . S
H697 C691 0.929 . S
C698 O689 1.250 . S
C698 O690 1.258 . S
O699 Mn684 2.162 . S
O699 C687 1.281 . S
O700 Mn684 2.297 . S
O700 C687 1.236 . S
N701 Mn685 2.282 . S
N701 C702 1.328 . S
N701 C706 1.318 . S
C702 N701 1.328 . S
C702 C703 1.457 . S
C702 H707 0.929 . S
C703 C702 1.457 . S
C703 C704 1.291 . S
C703 H716 0.931 . S
C704 C703 1.291 . S
C704 C705 1.373 . S
C704 H717 0.929 . S
C705 C704 1.373 . S
C705 C706 1.396 . S
C705 C712 1.403 . S
C706 C696 1.476 . S
C706 N701 1.318 . S
C706 C705 1.396 . S
H707 C702 0.929 . S
O708 Mn684 2.385 . S
O708 C686 1.234 . S
O709 Mn684 2.209 . S
O709 Mn685 2.215 . S
O709 C686 1.283 . S
O710 Mn684 2.094 . S
O710 C688 1.240 . S
O711 Mn685 2.117 . S
O711 C688 1.264 . S
C712 C705 1.403 . S
C712 C713 1.399 . S
C712 H718 0.929 . S
C713 C693 1.449 . S
C713 C712 1.399 . S
C713 H719 0.930 . S
H714 C694 0.931 . S
H715 C695 0.930 . S
H716 C703 0.931 . S
H717 C704 0.929 . S
H718 C712 0.929 . S
H719 C713 0.930 . S
Mn720 O725 2.095 . S
Mn720 O735 2.162 . S
Mn720 O736 2.297 . S
Mn720 O744 2.385 . S
Mn720 O745 2.209 . S
Mn720 O746 2.094 . S
Mn721 O726 2.121 . S
Mn721 N728 2.257 . S
Mn721 N737 2.282 . S
Mn721 O745 2.215 . S
Mn721 O747 2.117 . S
C722 O744 1.234 . S
C722 O745 1.283 . S
C723 O735 1.281 . S
C723 O736 1.236 . S
C724 O746 1.240 . S
C724 O747 1.264 . S
O725 Mn720 2.095 . S
O725 C734 1.250 . S
O726 Mn721 2.121 . S
O726 C734 1.258 . S
C727 N728 1.326 . S
C727 C731 1.460 . S
C727 H733 0.929 . S
N728 Mn721 2.257 . S
N728 C727 1.326 . S
N728 C732 1.362 . S
C729 C730 1.258 . S
C729 C732 1.431 . S
C729 C749 1.449 . S
C730 C729 1.258 . S
C730 C731 1.477 . S
C730 H750 0.931 . S
C731 C727 1.460 . S
C731 C730 1.477 . S
C731 H751 0.930 . S
C732 N728 1.362 . S
C732 C729 1.431 . S
C732 C742 1.476 . S
H733 C727 0.929 . S
C734 O725 1.250 . S
C734 O726 1.258 . S
O735 Mn720 2.162 . S
O735 C723 1.281 . S
O736 Mn720 2.297 . S
O736 C723 1.236 . S
N737 Mn721 2.282 . S
N737 C738 1.328 . S
N737 C742 1.318 . S
C738 N737 1.328 . S
C738 C739 1.457 . S
C738 H743 0.929 . S
C739 C738 1.457 . S
C739 C740 1.291 . S
C739 H752 0.931 . S
C740 C739 1.291 . S
C740 C741 1.373 . S
C740 H753 0.929 . S
C741 C740 1.373 . S
C741 C742 1.396 . S
C741 C748 1.403 . S
C742 C732 1.476 . S
C742 N737 1.318 . S
C742 C741 1.396 . S
H743 C738 0.929 . S
O744 Mn720 2.385 . S
O744 C722 1.234 . S
O745 Mn720 2.209 . S
O745 Mn721 2.215 . S
O745 C722 1.283 . S
O746 Mn720 2.094 . S
O746 C724 1.240 . S
O747 Mn721 2.117 . S
O747 C724 1.264 . S
C748 C741 1.403 . S
C748 C749 1.399 . S
C748 H754 0.929 . S
C749 C729 1.449 . S
C749 C748 1.399 . S
C749 H755 0.930 . S
H750 C730 0.931 . S
H751 C731 0.930 . S
H752 C739 0.931 . S
H753 C740 0.929 . S
H754 C748 0.929 . S
H755 C749 0.930 . S
Mn756 O761 2.095 . S
Mn756 O771 2.162 . S
Mn756 O772 2.297 . S
Mn756 O780 2.385 . S
Mn756 O781 2.209 . S
Mn756 O782 2.094 . S
Mn757 O762 2.121 . S
Mn757 N764 2.257 . S
Mn757 N773 2.282 . S
Mn757 O781 2.215 . S
Mn757 O783 2.117 . S
C758 O780 1.234 . S
C758 O781 1.283 . S
C759 O771 1.281 . S
C759 O772 1.236 . S
C760 O782 1.240 . S
C760 O783 1.264 . S
O761 Mn756 2.095 . S
O761 C770 1.250 . S
O762 Mn757 2.121 . S
O762 C770 1.258 . S
C763 N764 1.326 . S
C763 C767 1.460 . S
C763 H769 0.929 . S
N764 Mn757 2.257 . S
N764 C763 1.326 . S
N764 C768 1.362 . S
C765 C766 1.258 . S
C765 C768 1.431 . S
C765 C785 1.449 . S
C766 C765 1.258 . S
C766 C767 1.477 . S
C766 H786 0.931 . S
C767 C763 1.460 . S
C767 C766 1.477 . S
C767 H787 0.930 . S
C768 N764 1.362 . S
C768 C765 1.431 . S
C768 C778 1.476 . S
H769 C763 0.929 . S
C770 O761 1.250 . S
C770 O762 1.258 . S
O771 Mn756 2.162 . S
O771 C759 1.281 . S
O772 Mn756 2.297 . S
O772 C759 1.236 . S
N773 Mn757 2.282 . S
N773 C774 1.328 . S
N773 C778 1.318 . S
C774 N773 1.328 . S
C774 C775 1.457 . S
C774 H779 0.929 . S
C775 C774 1.457 . S
C775 C776 1.291 . S
C775 H788 0.931 . S
C776 C775 1.291 . S
C776 C777 1.373 . S
C776 H789 0.929 . S
C777 C776 1.373 . S
C777 C778 1.396 . S
C777 C784 1.403 . S
C778 C768 1.476 . S
C778 N773 1.318 . S
C778 C777 1.396 . S
H779 C774 0.929 . S
O780 Mn756 2.385 . S
O780 C758 1.234 . S
O781 Mn756 2.209 . S
O781 Mn757 2.215 . S
O781 C758 1.283 . S
O782 Mn756 2.094 . S
O782 C760 1.240 . S
O783 Mn757 2.117 . S
O783 C760 1.264 . S
C784 C777 1.403 . S
C784 C785 1.399 . S
C784 H790 0.929 . S
C785 C765 1.449 . S
C785 C784 1.399 . S
C785 H791 0.930 . S
H786 C766 0.931 . S
H787 C767 0.930 . S
H788 C775 0.931 . S
H789 C776 0.929 . S
H790 C784 0.929 . S
H791 C785 0.930 . S
Mn792 O797 2.095 . S
Mn792 O807 2.162 . S
Mn792 O808 2.297 . S
Mn792 O816 2.385 . S
Mn792 O817 2.209 . S
Mn792 O818 2.094 . S
Mn793 O798 2.121 . S
Mn793 N800 2.257 1_556 S
Mn793 N809 2.282 1_565 S
Mn793 O817 2.215 . S
Mn793 O819 2.117 . S
C794 O816 1.234 . S
C794 O817 1.283 . S
C795 O807 1.281 . S
C795 O808 1.236 . S
C796 O818 1.240 . S
C796 O819 1.264 . S
O797 Mn792 2.095 . S
O797 C806 1.250 . S
O798 Mn793 2.121 . S
O798 C806 1.258 . S
C799 N800 1.326 . S
C799 C803 1.460 . S
C799 H805 0.929 . S
N800 Mn793 2.257 1_554 S
N800 C799 1.326 . S
N800 C804 1.362 1_565 S
C801 C802 1.258 . S
C801 C804 1.431 . S
C801 C821 1.449 . S
C802 C801 1.258 . S
C802 C803 1.477 1_545 S
C802 H822 0.931 . S
C803 C799 1.460 . S
C803 C802 1.477 1_565 S
C803 H823 0.930 . S
C804 N800 1.362 1_545 S
C804 C801 1.431 . S
C804 C814 1.478 1_554 S
H805 C799 0.929 . S
C806 O797 1.250 . S
C806 O798 1.258 . S
O807 Mn792 2.162 . S
O807 C795 1.281 . S
O808 Mn792 2.297 . S
O808 C795 1.236 . S
N809 Mn793 2.282 1_545 S
N809 C810 1.328 . S
N809 C814 1.314 . S
C810 N809 1.328 . S
C810 C811 1.457 . S
C810 H815 0.929 . S
C811 C810 1.457 . S
C811 C812 1.291 . S
C811 H824 0.931 . S
C812 C811 1.291 . S
C812 C813 1.373 1_556 S
C812 H825 0.929 . S
C813 C812 1.373 1_554 S
C813 C814 1.397 1_554 S
C813 C820 1.403 . S
C814 C804 1.478 1_556 S
C814 N809 1.314 . S
C814 C813 1.397 1_556 S
H815 C810 0.929 . S
O816 Mn792 2.385 . S
O816 C794 1.234 . S
O817 Mn792 2.209 . S
O817 Mn793 2.215 . S
O817 C794 1.283 . S
O818 Mn792 2.094 . S
O818 C796 1.240 . S
O819 Mn793 2.117 . S
O819 C796 1.264 . S
C820 C813 1.403 . S
C820 C821 1.399 . S
C820 H826 0.929 . S
C821 C801 1.449 . S
C821 C820 1.399 . S
C821 H827 0.930 . S
H822 C802 0.931 . S
H823 C803 0.930 . S
H824 C811 0.931 . S
H825 C812 0.929 . S
H826 C820 0.929 . S
H827 C821 0.930 . S
Mn828 O833 2.095 . S
Mn828 O843 2.162 . S
Mn828 O844 2.297 . S
Mn828 O852 2.385 . S
Mn828 O853 2.209 . S
Mn828 O854 2.094 . S
Mn829 O834 2.121 . S
Mn829 N836 2.257 . S
Mn829 N845 2.282 1_545 S
Mn829 O853 2.215 . S
Mn829 O855 2.117 . S
C830 O852 1.234 . S
C830 O853 1.283 . S
C831 O843 1.281 . S
C831 O844 1.236 . S
C832 O854 1.240 . S
C832 O855 1.264 . S
O833 Mn828 2.095 . S
O833 C842 1.250 . S
O834 Mn829 2.121 . S
O834 C842 1.258 . S
C835 N836 1.326 . S
C835 C839 1.460 . S
C835 H841 0.929 . S
N836 Mn829 2.257 . S
N836 C835 1.326 . S
N836 C840 1.362 1_545 S
C837 C838 1.258 . S
C837 C840 1.431 . S
C837 C857 1.449 . S
C838 C837 1.258 . S
C838 C839 1.477 1_565 S
C838 H858 0.931 . S
C839 C835 1.460 . S
C839 C838 1.477 1_545 S
C839 H859 0.930 . S
C840 N836 1.362 1_565 S
C840 C837 1.431 . S
C840 C850 1.476 . S
H841 C835 0.929 . S
C842 O833 1.250 . S
C842 O834 1.258 . S
O843 Mn828 2.162 . S
O843 C831 1.281 . S
O844 Mn828 2.297 . S
O844 C831 1.236 . S
N845 Mn829 2.282 1_565 S
N845 C846 1.328 . S
N845 C850 1.318 . S
C846 N845 1.328 . S
C846 C847 1.457 . S
C846 H851 0.929 . S
C847 C846 1.457 . S
C847 C848 1.291 . S
C847 H860 0.931 . S
C848 C847 1.291 . S
C848 C849 1.373 . S
C848 H861 0.929 . S
C849 C848 1.373 . S
C849 C850 1.396 . S
C849 C856 1.403 . S
C850 C840 1.476 . S
C850 N845 1.318 . S
C850 C849 1.396 . S
H851 C846 0.929 . S
O852 Mn828 2.385 . S
O852 C830 1.234 . S
O853 Mn828 2.209 . S
O853 Mn829 2.215 . S
O853 C830 1.283 . S
O854 Mn828 2.094 . S
O854 C832 1.240 . S
O855 Mn829 2.117 . S
O855 C832 1.264 . S
C856 C849 1.403 . S
C856 C857 1.399 . S
C856 H862 0.929 . S
C857 C837 1.449 . S
C857 C856 1.399 . S
C857 H863 0.930 . S
H858 C838 0.931 . S
H859 C839 0.930 . S
H860 C847 0.931 . S
H861 C848 0.929 . S
H862 C856 0.929 . S
H863 C857 0.930 . S
H864 C870 0.930 . S
H865 C873 0.930 . S
H866 C874 0.930 . S
H867 C875 0.930 . S
H868 C878 0.930 . S
H869 C879 0.930 . S
C870 H864 0.930 . S
C870 C871 1.355 . S
C870 C872 1.415 . S
C871 C870 1.355 . S
C871 C873 1.419 . S
C872 C870 1.415 . S
C872 C877 1.425 . S
C872 C879 1.409 . S
C873 H865 0.930 . S
C873 C871 1.419 . S
C873 C874 1.362 . S
C874 H866 0.930 . S
C874 C873 1.362 . S
C874 C877 1.409 . S
C875 H867 0.930 . S
C875 C876 1.355 . S
C875 C877 1.415 . S
C876 C875 1.355 . S
C876 C878 1.419 . S
C877 C872 1.425 . S
C877 C874 1.409 . S
C877 C875 1.415 . S
C878 H868 0.930 . S
C878 C876 1.419 . S
C878 C879 1.362 . S
C879 H869 0.930 . S
C879 C872 1.409 . S
C879 C878 1.362 . S
H880 C886 0.930 . S
H881 C889 0.930 . S
H882 C890 0.930 . S
H883 C891 0.930 . S
H884 C894 0.930 . S
H885 C895 0.944 . S
C886 H880 0.930 . S
C886 C887 1.355 . S
C886 C888 1.415 1_655 S
C887 C886 1.355 . S
C887 C889 1.419 1_655 S
C888 C886 1.415 1_455 S
C888 C893 1.425 . S
C888 C895 1.409 . S
C889 H881 0.930 . S
C889 C887 1.419 1_455 S
C889 C890 1.362 . S
C890 H882 0.930 . S
C890 C889 1.362 . S
C890 C893 1.409 . S
C891 H883 0.930 . S
C891 C892 1.355 . S
C891 C893 1.415 . S
C892 C891 1.355 . S
C892 C894 1.419 . S
C893 C888 1.425 . S
C893 C890 1.409 . S
C893 C891 1.415 . S
C894 H884 0.930 . S
C894 C892 1.419 . S
C894 C895 1.362 . S
C895 H885 0.944 . S
C895 C888 1.409 . S
C895 C894 1.362 . S
H896 C902 0.930 . S
H897 C905 0.930 . S
H898 C906 0.930 . S
H899 C907 0.930 . S
H900 C910 0.930 . S
H901 C911 0.930 . S
C902 H896 0.930 . S
C902 C903 1.355 . S
C902 C904 1.415 . S
C903 C902 1.355 . S
C903 C905 1.419 . S
C904 C902 1.415 . S
C904 C909 1.425 . S
C904 C911 1.409 . S
C905 H897 0.930 . S
C905 C903 1.419 . S
C905 C906 1.362 . S
C906 H898 0.930 . S
C906 C905 1.362 . S
C906 C909 1.409 . S
C907 H899 0.930 . S
C907 C908 1.355 1_556 S
C907 C909 1.415 . S
C908 C907 1.355 1_554 S
C908 C910 1.419 . S
C909 C904 1.425 . S
C909 C906 1.409 . S
C909 C907 1.415 . S
C910 H900 0.930 . S
C910 C908 1.419 . S
C910 C911 1.362 1_554 S
C911 H901 0.930 . S
C911 C904 1.409 . S
C911 C910 1.362 1_556 S
H912 C918 0.930 . S
H913 C921 0.930 . S
H914 C922 0.930 . S
H915 C923 0.930 . S
H916 C926 0.930 . S
H917 C927 0.930 . S
C918 H912 0.930 . S
C918 C919 1.355 . S
C918 C920 1.415 . S
C919 C918 1.355 . S
C919 C921 1.419 . S
C920 C918 1.415 . S
C920 C925 1.425 . S
C920 C927 1.409 . S
C921 H913 0.930 . S
C921 C919 1.419 . S
C921 C922 1.362 . S
C922 H914 0.930 . S
C922 C921 1.362 . S
C922 C925 1.409 . S
C923 H915 0.930 . S
C923 C924 1.355 . S
C923 C925 1.415 . S
C924 C923 1.355 . S
C924 C926 1.419 . S
C925 C920 1.425 . S
C925 C922 1.409 . S
C925 C923 1.415 . S
C926 H916 0.930 . S
C926 C924 1.419 . S
C926 C927 1.362 . S
C927 H917 0.930 . S
C927 C920 1.409 . S
C927 C926 1.362 . S
H928 C934 0.930 . S
H929 C937 0.930 . S
H930 C938 0.930 . S
H931 C939 0.930 . S
H932 C942 0.930 . S
H933 C943 0.930 . S
C934 H928 0.930 . S
C934 C935 1.355 . S
C934 C936 1.415 . S
C935 C934 1.355 . S
C935 C937 1.419 . S
C936 C934 1.415 . S
C936 C941 1.425 . S
C936 C943 1.409 . S
C937 H929 0.930 . S
C937 C935 1.419 . S
C937 C938 1.362 . S
C938 H930 0.930 . S
C938 C937 1.362 . S
C938 C941 1.409 . S
C939 H931 0.930 . S
C939 C940 1.355 . S
C939 C941 1.415 . S
C940 C939 1.355 . S
C940 C942 1.419 . S
C941 C936 1.425 . S
C941 C938 1.409 . S
C941 C939 1.415 . S
C942 H932 0.930 . S
C942 C940 1.419 . S
C942 C943 1.362 . S
C943 H933 0.930 . S
C943 C936 1.409 . S
C943 C942 1.362 . S
H944 C950 0.930 . S
H945 C953 0.930 . S
H946 C954 0.930 . S
H947 C955 0.930 . S
H948 C958 0.930 . S
H949 C959 0.930 . S
C950 H944 0.930 . S
C950 C951 1.355 . S
C950 C952 1.415 . S
C951 C950 1.355 . S
C951 C953 1.419 . S
C952 C950 1.415 . S
C952 C957 1.425 . S
C952 C959 1.409 1_655 S
C953 H945 0.930 . S
C953 C951 1.419 . S
C953 C954 1.362 . S
C954 H946 0.930 . S
C954 C953 1.362 . S
C954 C957 1.409 . S
C955 H947 0.930 . S
C955 C956 1.355 1_655 S
C955 C957 1.415 . S
C956 C955 1.355 1_455 S
C956 C958 1.419 . S
C957 C952 1.425 . S
C957 C954 1.409 . S
C957 C955 1.415 . S
C958 H948 0.930 . S
C958 C956 1.419 . S
C958 C959 1.362 . S
C959 H949 0.930 . S
C959 C952 1.409 1_455 S
C959 C958 1.362 . S
H960 C966 0.930 . S
H961 C969 0.930 . S
H962 C970 0.930 . S
H963 C971 0.930 . S
H964 C974 0.930 . S
H965 C975 0.930 . S
C966 H960 0.930 . S
C966 C967 1.355 . S
C966 C968 1.415 . S
C967 C966 1.355 . S
C967 C969 1.419 . S
C968 C966 1.415 . S
C968 C973 1.425 . S
C968 C975 1.409 . S
C969 H961 0.930 . S
C969 C967 1.419 . S
C969 C970 1.362 . S
C970 H962 0.930 . S
C970 C969 1.362 . S
C970 C973 1.409 . S
C971 H963 0.930 . S
C971 C972 1.355 . S
C971 C973 1.415 1_556 S
C972 C971 1.355 . S
C972 C974 1.419 1_556 S
C973 C968 1.425 . S
C973 C970 1.409 . S
C973 C971 1.415 1_554 S
C974 H964 0.930 . S
C974 C972 1.419 1_554 S
C974 C975 1.362 . S
C975 H965 0.930 . S
C975 C968 1.409 . S
C975 C974 1.362 . S
H976 C982 0.930 . S
H977 C985 0.930 . S
H978 C986 0.930 . S
H979 C987 0.930 . S
H980 C990 0.930 . S
H981 C991 0.930 . S
C982 H976 0.930 . S
C982 C983 1.355 . S
C982 C984 1.415 . S
C983 C982 1.355 . S
C983 C985 1.419 . S
C984 C982 1.415 . S
C984 C989 1.425 . S
C984 C991 1.409 . S
C985 H977 0.930 . S
C985 C983 1.419 . S
C985 C986 1.362 . S
C986 H978 0.930 . S
C986 C985 1.362 . S
C986 C989 1.409 . S
C987 H979 0.930 . S
C987 C988 1.355 . S
C987 C989 1.415 . S
C988 C987 1.355 . S
C988 C990 1.419 . S
C989 C984 1.425 . S
C989 C986 1.409 . S
C989 C987 1.415 . S
C990 H980 0.930 . S
C990 C988 1.419 . S
C990 C991 1.362 . S
C991 H981 0.930 . S
C991 C984 1.409 . S
C991 C990 1.362 . S
H992 C998 0.930 . S
H993 C1001 0.930 . S
H994 C1002 0.930 . S
H995 C1003 0.930 . S
H996 C1006 0.930 . S
H997 C1007 0.930 . S
C998 H992 0.930 . S
C998 C999 1.355 . S
C998 C1000 1.415 . S
C999 C998 1.355 . S
C999 C1001 1.419 . S
C1000 C998 1.415 . S
C1000 C1005 1.425 . S
C1000 C1007 1.409 . S
C1001 H993 0.930 . S
C1001 C999 1.419 . S
C1001 C1002 1.362 . S
C1002 H994 0.930 . S
C1002 C1001 1.362 . S
C1002 C1005 1.409 . S
C1003 H995 0.930 . S
C1003 C1004 1.355 . S
C1003 C1005 1.415 . S
C1004 C1003 1.355 . S
C1004 C1006 1.419 . S
C1005 C1000 1.425 . S
C1005 C1002 1.409 . S
C1005 C1003 1.415 . S
C1006 H996 0.930 . S
C1006 C1004 1.419 . S
C1006 C1007 1.362 . S
C1007 H997 0.930 . S
C1007 C1000 1.409 . S
C1007 C1006 1.362 . S
H1008 C1014 0.930 . S
H1009 C1017 0.930 . S
H1010 C1018 0.930 . S
H1011 C1019 0.930 . S
H1012 C1022 0.930 . S
H1013 C1023 0.930 . S
C1014 H1008 0.930 . S
C1014 C1015 1.355 1_545 S
C1014 C1016 1.415 . S
C1015 C1014 1.355 1_565 S
C1015 C1017 1.419 . S
C1016 C1014 1.415 . S
C1016 C1021 1.425 . S
C1016 C1023 1.409 . S
C1017 H1009 0.930 . S
C1017 C1015 1.419 . S
C1017 C1018 1.362 . S
C1018 H1010 0.930 . S
C1018 C1017 1.362 . S
C1018 C1021 1.409 1_565 S
C1019 H1011 0.930 . S
C1019 C1020 1.355 . S
C1019 C1021 1.415 . S
C1020 C1019 1.355 . S
C1020 C1022 1.419 . S
C1021 C1016 1.425 . S
C1021 C1018 1.409 1_545 S
C1021 C1019 1.415 . S
C1022 H1012 0.930 . S
C1022 C1020 1.419 . S
C1022 C1023 1.362 . S
C1023 H1013 0.930 . S
C1023 C1016 1.409 . S
C1023 C1022 1.362 . S
H1024 C1030 0.930 . S
H1025 C1033 0.930 . S
H1026 C1034 0.930 . S
H1027 C1035 0.930 . S
H1028 C1038 0.930 . S
H1029 C1039 0.930 . S
C1030 H1024 0.930 . S
C1030 C1031 1.355 . S
C1030 C1032 1.415 . S
C1031 C1030 1.355 . S
C1031 C1033 1.419 . S
C1032 C1030 1.415 . S
C1032 C1037 1.425 . S
C1032 C1039 1.409 . S
C1033 H1025 0.930 . S
C1033 C1031 1.419 . S
C1033 C1034 1.362 . S
C1034 H1026 0.930 . S
C1034 C1033 1.362 . S
C1034 C1037 1.409 . S
C1035 H1027 0.930 . S
C1035 C1036 1.355 . S
C1035 C1037 1.415 1_545 S
C1036 C1035 1.355 . S
C1036 C1038 1.419 1_545 S
C1037 C1032 1.425 . S
C1037 C1034 1.409 . S
C1037 C1035 1.415 1_565 S
C1038 H1028 0.930 . S
C1038 C1036 1.419 1_565 S
C1038 C1039 1.362 . S
C1039 H1029 0.930 . S
C1039 C1032 1.409 . S
C1039 C1038 1.362 . S
H1040 C1046 0.930 . S
H1041 C1049 0.930 . S
H1042 C1050 0.930 . S
H1043 C1051 0.930 . S
H1044 C1054 0.930 . S
H1045 C1055 0.930 . S
C1046 H1040 0.930 . S
C1046 C1047 1.355 . S
C1046 C1048 1.415 . S
C1047 C1046 1.355 . S
C1047 C1049 1.419 . S
C1048 C1046 1.415 . S
C1048 C1053 1.425 . S
C1048 C1055 1.409 . S
C1049 H1041 0.930 . S
C1049 C1047 1.419 . S
C1049 C1050 1.362 . S
C1050 H1042 0.930 . S
C1050 C1049 1.362 . S
C1050 C1053 1.409 . S
C1051 H1043 0.930 . S
C1051 C1052 1.355 . S
C1051 C1053 1.415 . S
C1052 C1051 1.355 . S
C1052 C1054 1.419 . S
C1053 C1048 1.425 . S
C1053 C1050 1.409 . S
C1053 C1051 1.415 . S
C1054 H1044 0.930 . S
C1054 C1052 1.419 . S
C1054 C1055 1.362 . S
C1055 H1045 0.930 . S
C1055 C1048 1.409 . S
C1055 C1054 1.362 . S
H1056 C1062 0.930 . S
H1057 C1065 0.930 . S
H1058 C1066 0.930 . S
H1059 C1067 0.930 . S
H1060 C1070 0.930 . S
H1061 C1071 0.930 . S
C1062 H1056 0.930 . S
C1062 C1063 1.355 . S
C1062 C1064 1.415 . S
C1063 C1062 1.355 . S
C1063 C1065 1.419 . S
C1064 C1062 1.415 . S
C1064 C1069 1.425 . S
C1064 C1071 1.409 . S
C1065 H1057 0.930 . S
C1065 C1063 1.419 . S
C1065 C1066 1.362 . S
C1066 H1058 0.930 . S
C1066 C1065 1.362 . S
C1066 C1069 1.409 . S
C1067 H1059 0.930 . S
C1067 C1068 1.355 . S
C1067 C1069 1.415 . S
C1068 C1067 1.355 . S
C1068 C1070 1.419 . S
C1069 C1064 1.425 . S
C1069 C1066 1.409 . S
C1069 C1067 1.415 . S
C1070 H1060 0.930 . S
C1070 C1068 1.419 . S
C1070 C1071 1.362 . S
C1071 H1061 0.930 . S
C1071 C1064 1.409 . S
C1071 C1070 1.362 . S
H1072 C1078 0.945 . S
H1073 C1081 0.930 . S
H1074 C1082 0.930 . S
H1075 C1083 0.930 . S
H1076 C1086 0.930 . S
H1077 C1087 0.930 . S
C1078 H1072 0.945 . S
C1078 C1079 1.317 1_545 S
C1078 C1080 1.438 . S
C1079 C1078 1.317 1_565 S
C1079 C1081 1.419 . S
C1080 C1078 1.438 . S
C1080 C1085 1.425 . S
C1080 C1087 1.409 . S
C1081 H1073 0.930 . S
C1081 C1079 1.419 . S
C1081 C1082 1.362 . S
C1082 H1074 0.930 . S
C1082 C1081 1.362 . S
C1082 C1085 1.409 1_565 S
C1083 H1075 0.930 . S
C1083 C1084 1.355 . S
C1083 C1085 1.415 . S
C1084 C1083 1.355 . S
C1084 C1086 1.419 . S
C1085 C1080 1.425 . S
C1085 C1082 1.409 1_545 S
C1085 C1083 1.415 . S
C1086 H1076 0.930 . S
C1086 C1084 1.419 . S
C1086 C1087 1.362 . S
C1087 H1077 0.930 . S
C1087 C1080 1.409 . S
C1087 C1086 1.362 . S
H1088 C1094 0.930 . S
H1089 C1097 0.930 . S
H1090 C1098 0.930 . S
H1091 C1099 0.930 . S
H1092 C1102 0.930 . S
H1093 C1103 0.930 . S
C1094 H1088 0.930 . S
C1094 C1095 1.355 . S
C1094 C1096 1.415 . S
C1095 C1094 1.355 . S
C1095 C1097 1.419 . S
C1096 C1094 1.415 . S
C1096 C1101 1.425 1_556 S
C1096 C1103 1.409 . S
C1097 H1089 0.930 . S
C1097 C1095 1.419 . S
C1097 C1098 1.362 1_556 S
C1098 H1090 0.930 . S
C1098 C1097 1.362 1_554 S
C1098 C1101 1.409 . S
C1099 H1091 0.930 . S
C1099 C1100 1.355 . S
C1099 C1101 1.415 . S
C1100 C1099 1.355 . S
C1100 C1102 1.419 1_554 S
C1101 C1096 1.425 1_554 S
C1101 C1098 1.409 . S
C1101 C1099 1.415 . S
C1102 H1092 0.930 . S
C1102 C1100 1.419 1_556 S
C1102 C1103 1.362 . S
C1103 H1093 0.930 . S
C1103 C1096 1.409 . S
C1103 C1102 1.362 . S
H1104 C1110 0.930 . S
H1105 C1113 0.930 . S
H1106 C1114 0.930 . S
H1107 C1115 0.930 . S
H1108 C1118 0.930 . S
H1109 C1119 0.930 . S
C1110 H1104 0.930 . S
C1110 C1111 1.355 1_565 S
C1110 C1112 1.415 . S
C1111 C1110 1.355 1_545 S
C1111 C1113 1.419 . S
C1112 C1110 1.415 . S
C1112 C1117 1.425 . S
C1112 C1119 1.409 . S
C1113 H1105 0.930 . S
C1113 C1111 1.419 . S
C1113 C1114 1.362 . S
C1114 H1106 0.930 . S
C1114 C1113 1.362 . S
C1114 C1117 1.409 1_545 S
C1115 H1107 0.930 . S
C1115 C1116 1.355 . S
C1115 C1117 1.415 . S
C1116 C1115 1.355 . S
C1116 C1118 1.419 . S
C1117 C1112 1.425 . S
C1117 C1114 1.409 1_565 S
C1117 C1115 1.415 . S
C1118 H1108 0.930 . S
C1118 C1116 1.419 . S
C1118 C1119 1.362 . S
C1119 H1109 0.930 . S
C1119 C1112 1.409 . S
C1119 C1118 1.362 . S
H1120 C1126 0.930 . S
H1121 C1129 0.930 . S
H1122 C1130 0.930 . S
H1123 C1131 0.930 . S
H1124 C1134 0.930 . S
H1125 C1135 0.930 . S
C1126 H1120 0.930 . S
C1126 C1127 1.355 . S
C1126 C1128 1.415 . S
C1127 C1126 1.355 . S
C1127 C1129 1.419 . S
C1128 C1126 1.415 . S
C1128 C1133 1.425 . S
C1128 C1135 1.409 . S
C1129 H1121 0.930 . S
C1129 C1127 1.419 . S
C1129 C1130 1.362 . S
C1130 H1122 0.930 . S
C1130 C1129 1.362 . S
C1130 C1133 1.409 . S
C1131 H1123 0.930 . S
C1131 C1132 1.355 . S
C1131 C1133 1.415 . S
C1132 C1131 1.355 . S
C1132 C1134 1.419 . S
C1133 C1128 1.425 . S
C1133 C1130 1.409 . S
C1133 C1131 1.415 . S
C1134 H1124 0.930 . S
C1134 C1132 1.419 . S
C1134 C1135 1.362 . S
C1135 H1125 0.930 . S
C1135 C1128 1.409 . S
C1135 C1134 1.362 . S
H1136 C1142 0.930 . S
H1137 C1145 0.930 . S
H1138 C1146 0.930 . S
H1139 C1147 0.930 . S
H1140 C1150 0.930 . S
H1141 C1151 0.930 . S
C1142 H1136 0.930 . S
C1142 C1143 1.355 . S
C1142 C1144 1.415 . S
C1143 C1142 1.355 . S
C1143 C1145 1.419 . S
C1144 C1142 1.415 . S
C1144 C1149 1.425 . S
C1144 C1151 1.409 . S
C1145 H1137 0.930 . S
C1145 C1143 1.419 . S
C1145 C1146 1.362 . S
C1146 H1138 0.930 . S
C1146 C1145 1.362 . S
C1146 C1149 1.409 . S
C1147 H1139 0.930 . S
C1147 C1148 1.355 . S
C1147 C1149 1.415 . S
C1148 C1147 1.355 . S
C1148 C1150 1.419 . S
C1149 C1144 1.425 . S
C1149 C1146 1.409 . S
C1149 C1147 1.415 . S
C1150 H1140 0.930 . S
C1150 C1148 1.419 . S
C1150 C1151 1.362 . S
C1151 H1141 0.930 . S
C1151 C1144 1.409 . S
C1151 C1150 1.362 . S
H1152 C1158 0.930 . S
H1153 C1161 0.930 . S
H1154 C1162 0.930 . S
H1155 C1163 0.930 . S
H1156 C1166 0.930 . S
H1157 C1167 0.930 . S
C1158 H1152 0.930 . S
C1158 C1159 1.355 . S
C1158 C1160 1.415 1_556 S
C1159 C1158 1.355 . S
C1159 C1161 1.419 . S
C1160 C1158 1.415 1_554 S
C1160 C1165 1.425 . S
C1160 C1167 1.409 . S
C1161 H1153 0.930 . S
C1161 C1159 1.419 . S
C1161 C1162 1.362 . S
C1162 H1154 0.930 . S
C1162 C1161 1.362 . S
C1162 C1165 1.409 1_556 S
C1163 H1155 0.930 . S
C1163 C1164 1.355 . S
C1163 C1165 1.415 . S
C1164 C1163 1.355 . S
C1164 C1166 1.419 . S
C1165 C1160 1.425 . S
C1165 C1162 1.409 1_554 S
C1165 C1163 1.415 . S
C1166 H1156 0.930 . S
C1166 C1164 1.419 . S
C1166 C1167 1.362 . S
C1167 H1157 0.930 . S
C1167 C1160 1.409 . S
C1167 C1166 1.362 . S
H1168 C1174 0.930 . S
H1169 C1177 0.930 . S
H1170 C1178 0.930 . S
H1171 C1179 0.930 . S
H1172 C1182 0.930 . S
H1173 C1183 0.930 . S
C1174 H1168 0.930 . S
C1174 C1175 1.355 . S
C1174 C1176 1.415 . S
C1175 C1174 1.355 . S
C1175 C1177 1.419 . S
C1176 C1174 1.415 . S
C1176 C1181 1.425 . S
C1176 C1183 1.409 . S
C1177 H1169 0.930 . S
C1177 C1175 1.419 . S
C1177 C1178 1.362 . S
C1178 H1170 0.930 . S
C1178 C1177 1.362 . S
C1178 C1181 1.409 . S
C1179 H1171 0.930 . S
C1179 C1180 1.355 . S
C1179 C1181 1.415 . S
C1180 C1179 1.355 . S
C1180 C1182 1.419 . S
C1181 C1176 1.425 . S
C1181 C1178 1.409 . S
C1181 C1179 1.415 . S
C1182 H1172 0.930 . S
C1182 C1180 1.419 . S
C1182 C1183 1.362 . S
C1183 H1173 0.930 . S
C1183 C1176 1.409 . S
C1183 C1182 1.362 . S
H1184 C1190 0.930 . S
H1185 C1193 0.930 . S
H1186 C1194 0.930 . S
H1187 C1195 0.930 . S
H1188 C1198 0.930 . S
H1189 C1199 0.930 . S
C1190 H1184 0.930 . S
C1190 C1191 1.355 . S
C1190 C1192 1.415 . S
C1191 C1190 1.355 . S
C1191 C1193 1.419 . S
C1192 C1190 1.415 . S
C1192 C1197 1.425 . S
C1192 C1199 1.409 . S
C1193 H1185 0.930 . S
C1193 C1191 1.419 . S
C1193 C1194 1.362 . S
C1194 H1186 0.930 . S
C1194 C1193 1.362 . S
C1194 C1197 1.409 . S
C1195 H1187 0.930 . S
C1195 C1196 1.355 . S
C1195 C1197 1.415 . S
C1196 C1195 1.355 . S
C1196 C1198 1.419 . S
C1197 C1192 1.425 . S
C1197 C1194 1.409 . S
C1197 C1195 1.415 . S
C1198 H1188 0.930 . S
C1198 C1196 1.419 . S
C1198 C1199 1.362 . S
C1199 H1189 0.930 . S
C1199 C1192 1.409 . S
C1199 C1198 1.362 . S
H1200 C1206 0.930 . S
H1201 C1209 0.930 . S
H1202 C1210 0.930 . S
H1203 C1211 0.930 . S
H1204 C1214 0.930 . S
H1205 C1215 0.930 . S
C1206 H1200 0.930 . S
C1206 C1207 1.355 . S
C1206 C1208 1.415 . S
C1207 C1206 1.355 . S
C1207 C1209 1.419 1_455 S
C1208 C1206 1.415 . S
C1208 C1213 1.425 1_455 S
C1208 C1215 1.409 . S
C1209 H1201 0.930 . S
C1209 C1207 1.419 1_655 S
C1209 C1210 1.362 . S
C1210 H1202 0.930 . S
C1210 C1209 1.362 . S
C1210 C1213 1.409 . S
C1211 H1203 0.930 . S
C1211 C1212 1.355 . S
C1211 C1213 1.415 . S
C1212 C1211 1.355 . S
C1212 C1214 1.419 . S
C1213 C1208 1.425 1_655 S
C1213 C1210 1.409 . S
C1213 C1211 1.415 . S
C1214 H1204 0.930 . S
C1214 C1212 1.419 . S
C1214 C1215 1.362 1_655 S
C1215 H1205 0.930 . S
C1215 C1208 1.409 . S
C1215 C1214 1.362 1_455 S
H1216 C1222 0.930 . S
H1217 C1225 0.930 . S
H1218 C1226 0.930 . S
H1219 C1227 0.930 . S
H1220 C1230 0.930 . S
H1221 C1231 0.930 1_655 S
C1222 H1216 0.930 . S
C1222 C1223 1.355 . S
C1222 C1224 1.415 1_655 S
C1223 C1222 1.355 . S
C1223 C1225 1.419 . S
C1224 C1222 1.415 1_455 S
C1224 C1229 1.425 . S
C1224 C1231 1.409 . S
C1225 H1217 0.930 . S
C1225 C1223 1.419 . S
C1225 C1226 1.362 1_655 S
C1226 H1218 0.930 . S
C1226 C1225 1.362 1_455 S
C1226 C1229 1.409 . S
C1227 H1219 0.930 . S
C1227 C1228 1.355 . S
C1227 C1229 1.415 . S
C1228 C1227 1.355 . S
C1228 C1230 1.419 . S
C1229 C1224 1.425 . S
C1229 C1226 1.409 . S
C1229 C1227 1.415 . S
C1230 H1220 0.930 . S
C1230 C1228 1.419 . S
C1230 C1231 1.362 . S
C1231 H1221 0.930 1_455 S
C1231 C1224 1.409 . S
C1231 C1230 1.362 . S
H1232 C1238 0.930 . S
H1233 C1241 0.930 . S
H1234 C1242 0.930 . S
H1235 C1243 0.930 . S
H1236 C1246 0.930 . S
H1237 C1247 0.930 . S
C1238 H1232 0.930 . S
C1238 C1239 1.355 . S
C1238 C1240 1.415 . S
C1239 C1238 1.355 . S
C1239 C1241 1.419 . S
C1240 C1238 1.415 . S
C1240 C1245 1.425 . S
C1240 C1247 1.409 . S
C1241 H1233 0.930 . S
C1241 C1239 1.419 . S
C1241 C1242 1.362 . S
C1242 H1234 0.930 . S
C1242 C1241 1.362 . S
C1242 C1245 1.409 . S
C1243 H1235 0.930 . S
C1243 C1244 1.355 . S
C1243 C1245 1.415 . S
C1244 C1243 1.355 . S
C1244 C1246 1.419 . S
C1245 C1240 1.425 . S
C1245 C1242 1.409 . S
C1245 C1243 1.415 . S
C1246 H1236 0.930 . S
C1246 C1244 1.419 . S
C1246 C1247 1.362 . S
C1247 H1237 0.930 . S
C1247 C1240 1.409 . S
C1247 C1246 1.362 . S
H1248 C1254 0.930 . S
H1249 C1257 0.930 . S
H1250 C1258 0.930 . S
H1251 C1259 0.930 . S
H1252 C1262 0.930 . S
H1253 C1263 0.930 . S
C1254 H1248 0.930 . S
C1254 C1255 1.355 . S
C1254 C1256 1.415 . S
C1255 C1254 1.355 . S
C1255 C1257 1.419 . S
C1256 C1254 1.415 . S
C1256 C1261 1.425 . S
C1256 C1263 1.409 . S
C1257 H1249 0.930 . S
C1257 C1255 1.419 . S
C1257 C1258 1.362 . S
C1258 H1250 0.930 . S
C1258 C1257 1.362 . S
C1258 C1261 1.409 . S
C1259 H1251 0.930 . S
C1259 C1260 1.355 . S
C1259 C1261 1.415 . S
C1260 C1259 1.355 . S
C1260 C1262 1.419 . S
C1261 C1256 1.425 . S
C1261 C1258 1.409 . S
C1261 C1259 1.415 . S
C1262 H1252 0.930 . S
C1262 C1260 1.419 . S
C1262 C1263 1.362 . S
C1263 H1253 0.930 . S
C1263 C1256 1.409 . S
C1263 C1262 1.362 . S
H1264 C1270 0.930 . S
H1265 C1273 0.930 . S
H1266 C1274 0.930 . S
H1267 C1275 0.930 . S
H1268 C1278 0.930 . S
H1269 C1279 0.930 . S
C1270 H1264 0.930 . S
C1270 C1271 1.355 1_565 S
C1270 C1272 1.415 . S
C1271 C1270 1.355 1_545 S
C1271 C1273 1.419 . S
C1272 C1270 1.415 . S
C1272 C1277 1.425 . S
C1272 C1279 1.409 . S
C1273 H1265 0.930 . S
C1273 C1271 1.419 . S
C1273 C1274 1.362 . S
C1274 H1266 0.930 . S
C1274 C1273 1.362 . S
C1274 C1277 1.409 1_545 S
C1275 H1267 0.930 . S
C1275 C1276 1.355 . S
C1275 C1277 1.415 . S
C1276 C1275 1.355 . S
C1276 C1278 1.419 . S
C1277 C1272 1.425 . S
C1277 C1274 1.409 1_565 S
C1277 C1275 1.415 . S
C1278 H1268 0.930 . S
C1278 C1276 1.419 . S
C1278 C1279 1.362 . S
C1279 H1269 0.930 . S
C1279 C1272 1.409 . S
C1279 C1278 1.362 . S
H1280 C1286 0.930 . S
H1281 C1289 0.930 . S
H1282 C1290 0.930 . S
H1283 C1291 0.930 . S
H1284 C1294 0.930 . S
H1285 C1295 0.930 . S
C1286 H1280 0.930 . S
C1286 C1287 1.355 . S
C1286 C1288 1.415 . S
C1287 C1286 1.355 . S
C1287 C1289 1.419 . S
C1288 C1286 1.415 . S
C1288 C1293 1.425 . S
C1288 C1295 1.409 . S
C1289 H1281 0.930 . S
C1289 C1287 1.419 . S
C1289 C1290 1.362 . S
C1290 H1282 0.930 . S
C1290 C1289 1.362 . S
C1290 C1293 1.409 . S
C1291 H1283 0.930 . S
C1291 C1292 1.355 . S
C1291 C1293 1.415 . S
C1292 C1291 1.355 . S
C1292 C1294 1.419 . S
C1293 C1288 1.425 . S
C1293 C1290 1.409 . S
C1293 C1291 1.415 . S
C1294 H1284 0.930 . S
C1294 C1292 1.419 . S
C1294 C1295 1.362 . S
C1295 H1285 0.930 . S
C1295 C1288 1.409 . S
C1295 C1294 1.362 . S
H1296 C1302 0.930 . S
H1297 C1305 0.930 . S
H1298 C1306 0.930 . S
H1299 C1307 0.948 . S
H1300 C1310 0.930 . S
H1301 C1311 0.930 . S
C1302 H1296 0.930 . S
C1302 C1303 1.355 . S
C1302 C1304 1.415 . S
C1303 C1302 1.355 . S
C1303 C1305 1.419 . S
C1304 C1302 1.415 . S
C1304 C1309 1.425 . S
C1304 C1311 1.409 . S
C1305 H1297 0.930 . S
C1305 C1303 1.419 . S
C1305 C1306 1.362 . S
C1306 H1298 0.930 . S
C1306 C1305 1.362 . S
C1306 C1309 1.409 . S
C1307 H1299 0.948 . S
C1307 C1308 1.355 1_554 S
C1307 C1309 1.397 1_565 S
C1308 C1307 1.355 1_556 S
C1308 C1310 1.412 1_565 S
C1309 C1304 1.425 . S
C1309 C1306 1.409 . S
C1309 C1307 1.397 1_545 S
C1310 H1300 0.930 . S
C1310 C1308 1.412 1_545 S
C1310 C1311 1.362 1_556 S
C1311 H1301 0.930 . S
C1311 C1304 1.409 . S
C1311 C1310 1.362 1_554 S
H1312 C1318 0.930 . S
H1313 C1321 0.930 . S
H1314 C1322 0.930 . S
H1315 C1323 0.930 . S
H1316 C1326 0.930 . S
H1317 C1327 0.930 . S
C1318 H1312 0.930 . S
C1318 C1319 1.355 . S
C1318 C1320 1.415 . S
C1319 C1318 1.355 . S
C1319 C1321 1.419 . S
C1320 C1318 1.415 . S
C1320 C1325 1.425 . S
C1320 C1327 1.409 . S
C1321 H1313 0.930 . S
C1321 C1319 1.419 . S
C1321 C1322 1.362 . S
C1322 H1314 0.930 . S
C1322 C1321 1.362 . S
C1322 C1325 1.409 . S
C1323 H1315 0.930 . S
C1323 C1324 1.355 . S
C1323 C1325 1.415 . S
C1324 C1323 1.355 . S
C1324 C1326 1.419 . S
C1325 C1320 1.425 . S
C1325 C1322 1.409 . S
C1325 C1323 1.415 . S
C1326 H1316 0.930 . S
C1326 C1324 1.419 . S
C1326 C1327 1.362 . S
C1327 H1317 0.930 . S
C1327 C1320 1.409 . S
C1327 C1326 1.362 . S
H1328 C1334 0.930 . S
H1329 C1337 0.930 . S
H1330 C1338 0.930 . S
H1331 C1339 0.930 . S
H1332 C1342 0.930 . S
H1333 C1343 0.930 . S
C1334 H1328 0.930 . S
C1334 C1335 1.355 . S
C1334 C1336 1.415 1_554 S
C1335 C1334 1.355 . S
C1335 C1337 1.419 1_554 S
C1336 C1334 1.415 1_556 S
C1336 C1341 1.425 . S
C1336 C1343 1.409 . S
C1337 H1329 0.930 . S
C1337 C1335 1.419 1_556 S
C1337 C1338 1.362 . S
C1338 H1330 0.930 . S
C1338 C1337 1.362 . S
C1338 C1341 1.409 . S
C1339 H1331 0.930 . S
C1339 C1340 1.355 . S
C1339 C1341 1.415 . S
C1340 C1339 1.355 . S
C1340 C1342 1.419 . S
C1341 C1336 1.425 . S
C1341 C1338 1.409 . S
C1341 C1339 1.415 . S
C1342 H1332 0.930 . S
C1342 C1340 1.419 . S
C1342 C1343 1.362 . S
C1343 H1333 0.930 . S
C1343 C1336 1.409 . S
C1343 C1342 1.362 . S
H1344 C1350 0.930 . S
H1345 C1353 0.930 . S
H1346 C1354 0.930 . S
H1347 C1355 0.930 . S
H1348 C1358 0.930 . S
H1349 C1359 0.930 . S
C1350 H1344 0.930 . S
C1350 C1351 1.355 . S
C1350 C1352 1.415 . S
C1351 C1350 1.355 . S
C1351 C1353 1.419 . S
C1352 C1350 1.415 . S
C1352 C1357 1.425 . S
C1352 C1359 1.409 . S
C1353 H1345 0.930 . S
C1353 C1351 1.419 . S
C1353 C1354 1.362 . S
C1354 H1346 0.930 . S
C1354 C1353 1.362 . S
C1354 C1357 1.409 . S
C1355 H1347 0.930 . S
C1355 C1356 1.355 . S
C1355 C1357 1.415 . S
C1356 C1355 1.355 . S
C1356 C1358 1.419 . S
C1357 C1352 1.425 . S
C1357 C1354 1.409 . S
C1357 C1355 1.415 . S
C1358 H1348 0.930 . S
C1358 C1356 1.419 . S
C1358 C1359 1.362 . S
C1359 H1349 0.930 . S
C1359 C1352 1.409 . S
C1359 C1358 1.362 . S
H1360 C1366 0.930 . S
H1361 C1369 0.930 . S
H1362 C1370 0.930 . S
H1363 C1371 0.930 . S
H1364 C1374 0.930 . S
H1365 C1375 0.930 . S
C1366 H1360 0.930 . S
C1366 C1367 1.355 . S
C1366 C1368 1.415 . S
C1367 C1366 1.355 . S
C1367 C1369 1.419 . S
C1368 C1366 1.415 . S
C1368 C1373 1.425 . S
C1368 C1375 1.409 . S
C1369 H1361 0.930 . S
C1369 C1367 1.419 . S
C1369 C1370 1.362 . S
C1370 H1362 0.930 . S
C1370 C1369 1.362 . S
C1370 C1373 1.409 . S
C1371 H1363 0.930 . S
C1371 C1372 1.355 . S
C1371 C1373 1.415 . S
C1372 C1371 1.355 . S
C1372 C1374 1.419 . S
C1373 C1368 1.425 . S
C1373 C1370 1.409 . S
C1373 C1371 1.415 . S
C1374 H1364 0.930 . S
C1374 C1372 1.419 . S
C1374 C1375 1.362 . S
C1375 H1365 0.930 . S
C1375 C1368 1.409 . S
C1375 C1374 1.362 . S
H1376 C1382 0.930 . S
H1377 C1385 0.930 . S
H1378 C1386 0.930 . S
H1379 C1387 0.930 . S
H1380 C1390 0.930 . S
H1381 C1391 0.930 . S
C1382 H1376 0.930 . S
C1382 C1383 1.355 . S
C1382 C1384 1.415 . S
C1383 C1382 1.355 . S
C1383 C1385 1.419 . S
C1384 C1382 1.415 . S
C1384 C1389 1.425 . S
C1384 C1391 1.409 . S
C1385 H1377 0.930 . S
C1385 C1383 1.419 . S
C1385 C1386 1.362 . S
C1386 H1378 0.930 . S
C1386 C1385 1.362 . S
C1386 C1389 1.409 . S
C1387 H1379 0.930 . S
C1387 C1388 1.355 . S
C1387 C1389 1.415 . S
C1388 C1387 1.355 . S
C1388 C1390 1.419 . S
C1389 C1384 1.425 . S
C1389 C1386 1.409 . S
C1389 C1387 1.415 . S
C1390 H1380 0.930 . S
C1390 C1388 1.419 . S
C1390 C1391 1.362 . S
C1391 H1381 0.930 . S
C1391 C1384 1.409 . S
C1391 C1390 1.362 . S
H1392 C1398 0.930 . S
H1393 C1401 0.930 . S
H1394 C1402 0.930 . S
H1395 C1403 0.930 . S
H1396 C1406 0.930 . S
H1397 C1407 0.930 1_655 S
C1398 H1392 0.930 . S
C1398 C1399 1.355 1_645 S
C1398 C1400 1.415 1_655 S
C1399 C1398 1.355 1_465 S
C1399 C1401 1.419 . S
C1400 C1398 1.415 1_455 S
C1400 C1405 1.425 . S
C1400 C1407 1.409 . S
C1401 H1393 0.930 . S
C1401 C1399 1.419 . S
C1401 C1402 1.362 1_565 S
C1402 H1394 0.930 . S
C1402 C1401 1.362 1_545 S
C1402 C1405 1.409 . S
C1403 H1395 0.930 . S
C1403 C1404 1.355 . S
C1403 C1405 1.415 . S
C1404 C1403 1.355 . S
C1404 C1406 1.419 . S
C1405 C1400 1.425 . S
C1405 C1402 1.409 . S
C1405 C1403 1.415 . S
C1406 H1396 0.930 . S
C1406 C1404 1.419 . S
C1406 C1407 1.362 . S
C1407 H1397 0.930 1_455 S
C1407 C1400 1.409 . S
C1407 C1406 1.362 . S
H1408 C1414 0.930 . S
H1409 C1417 0.930 . S
H1410 C1418 0.930 . S
H1411 C1419 0.930 . S
H1412 C1422 0.930 . S
H1413 C1423 0.930 . S
C1414 H1408 0.930 . S
C1414 C1415 1.355 . S
C1414 C1416 1.415 . S
C1415 C1414 1.355 . S
C1415 C1417 1.419 . S
C1416 C1414 1.415 . S
C1416 C1421 1.425 . S
C1416 C1423 1.409 . S
C1417 H1409 0.930 . S
C1417 C1415 1.419 . S
C1417 C1418 1.362 . S
C1418 H1410 0.930 . S
C1418 C1417 1.362 . S
C1418 C1421 1.409 . S
C1419 H1411 0.930 . S
C1419 C1420 1.355 . S
C1419 C1421 1.415 . S
C1420 C1419 1.355 . S
C1420 C1422 1.419 . S
C1421 C1416 1.425 . S
C1421 C1418 1.409 . S
C1421 C1419 1.415 . S
C1422 H1412 0.930 . S
C1422 C1420 1.419 . S
C1422 C1423 1.362 . S
C1423 H1413 0.930 . S
C1423 C1416 1.409 . S
C1423 C1422 1.362 . S
H1424 C1430 0.930 . S
H1425 C1433 0.930 . S
H1426 C1434 0.930 . S
H1427 C1435 0.930 . S
H1428 C1438 0.930 . S
H1429 C1439 0.930 . S
C1430 H1424 0.930 . S
C1430 C1431 1.355 1_565 S
C1430 C1432 1.415 . S
C1431 C1430 1.355 1_545 S
C1431 C1433 1.419 . S
C1432 C1430 1.415 . S
C1432 C1437 1.425 . S
C1432 C1439 1.409 . S
C1433 H1425 0.930 . S
C1433 C1431 1.419 . S
C1433 C1434 1.362 1_545 S
C1434 H1426 0.930 . S
C1434 C1433 1.362 1_565 S
C1434 C1437 1.409 . S
C1435 H1427 0.930 . S
C1435 C1436 1.355 . S
C1435 C1437 1.415 . S
C1436 C1435 1.355 . S
C1436 C1438 1.419 . S
C1437 C1432 1.425 . S
C1437 C1434 1.409 . S
C1437 C1435 1.415 . S
C1438 H1428 0.930 . S
C1438 C1436 1.419 . S
C1438 C1439 1.362 . S
C1439 H1429 0.930 . S
C1439 C1432 1.409 . S
C1439 C1438 1.362 . S
H1440 C1446 0.930 . S
H1441 C1449 0.930 . S
H1442 C1450 0.930 . S
H1443 C1451 0.930 . S
H1444 C1454 0.930 . S
H1445 C1455 0.930 . S
C1446 H1440 0.930 . S
C1446 C1447 1.355 . S
C1446 C1448 1.415 . S
C1447 C1446 1.355 . S
C1447 C1449 1.419 . S
C1448 C1446 1.415 . S
C1448 C1453 1.425 . S
C1448 C1455 1.409 . S
C1449 H1441 0.930 . S
C1449 C1447 1.419 . S
C1449 C1450 1.362 . S
C1450 H1442 0.930 . S
C1450 C1449 1.362 . S
C1450 C1453 1.409 . S
C1451 H1443 0.930 . S
C1451 C1452 1.355 . S
C1451 C1453 1.415 . S
C1452 C1451 1.355 . S
C1452 C1454 1.419 . S
C1453 C1448 1.425 . S
C1453 C1450 1.409 . S
C1453 C1451 1.415 . S
C1454 H1444 0.930 . S
C1454 C1452 1.419 . S
C1454 C1455 1.362 . S
C1455 H1445 0.930 . S
C1455 C1448 1.409 . S
C1455 C1454 1.362 . S
H1456 C1462 0.930 . S
H1457 C1465 0.930 . S
H1458 C1466 0.930 . S
H1459 C1467 0.930 . S
H1460 C1470 0.930 . S
H1461 C1471 0.930 1_455 S
C1462 H1456 0.930 . S
C1462 C1463 1.355 1_455 S
C1462 C1464 1.415 1_455 S
C1463 C1462 1.355 1_655 S
C1463 C1465 1.419 . S
C1464 C1462 1.415 1_655 S
C1464 C1469 1.425 . S
C1464 C1471 1.409 . S
C1465 H1457 0.930 . S
C1465 C1463 1.419 . S
C1465 C1466 1.362 . S
C1466 H1458 0.930 . S
C1466 C1465 1.362 . S
C1466 C1469 1.409 . S
C1467 H1459 0.930 . S
C1467 C1468 1.355 . S
C1467 C1469 1.415 . S
C1468 C1467 1.355 . S
C1468 C1470 1.419 . S
C1469 C1464 1.425 . S
C1469 C1466 1.409 . S
C1469 C1467 1.415 . S
C1470 H1460 0.930 . S
C1470 C1468 1.419 . S
C1470 C1471 1.362 . S
C1471 H1461 0.930 1_655 S
C1471 C1464 1.409 . S
C1471 C1470 1.362 . S
H1472 C1478 0.930 . S
H1473 C1481 0.930 . S
H1474 C1482 0.930 . S
H1475 C1483 0.930 . S
H1476 C1486 0.930 . S
H1477 C1487 0.930 . S
C1478 H1472 0.930 . S
C1478 C1479 1.355 . S
C1478 C1480 1.415 . S
C1479 C1478 1.355 . S
C1479 C1481 1.419 . S
C1480 C1478 1.415 . S
C1480 C1485 1.425 . S
C1480 C1487 1.409 . S
C1481 H1473 0.930 . S
C1481 C1479 1.419 . S
C1481 C1482 1.362 . S
C1482 H1474 0.930 . S
C1482 C1481 1.362 . S
C1482 C1485 1.409 . S
C1483 H1475 0.930 . S
C1483 C1484 1.355 . S
C1483 C1485 1.415 . S
C1484 C1483 1.355 . S
C1484 C1486 1.419 . S
C1485 C1480 1.425 . S
C1485 C1482 1.409 . S
C1485 C1483 1.415 . S
C1486 H1476 0.930 . S
C1486 C1484 1.419 . S
C1486 C1487 1.362 . S
C1487 H1477 0.930 . S
C1487 C1480 1.409 . S
C1487 C1486 1.362 . S
H1488 C1494 0.930 . S
H1489 C1497 0.930 . S
H1490 C1498 0.930 . S
H1491 C1499 0.930 . S
H1492 C1502 0.930 . S
H1493 C1503 0.930 . S
C1494 H1488 0.930 . S
C1494 C1495 1.355 . S
C1494 C1496 1.415 . S
C1495 C1494 1.355 . S
C1495 C1497 1.419 . S
C1496 C1494 1.415 . S
C1496 C1501 1.425 . S
C1496 C1503 1.409 . S
C1497 H1489 0.930 . S
C1497 C1495 1.419 . S
C1497 C1498 1.362 . S
C1498 H1490 0.930 . S
C1498 C1497 1.362 . S
C1498 C1501 1.409 . S
C1499 H1491 0.930 . S
C1499 C1500 1.355 . S
C1499 C1501 1.415 . S
C1500 C1499 1.355 . S
C1500 C1502 1.419 . S
C1501 C1496 1.425 . S
C1501 C1498 1.409 . S
C1501 C1499 1.415 . S
C1502 H1492 0.930 . S
C1502 C1500 1.419 . S
C1502 C1503 1.362 . S
C1503 H1493 0.930 . S
C1503 C1496 1.409 . S
C1503 C1502 1.362 . S
H1504 C1510 0.930 . S
H1505 C1513 0.930 . S
H1506 C1514 0.930 . S
H1507 C1515 0.930 . S
H1508 C1518 0.930 . S
H1509 C1519 0.930 . S
C1510 H1504 0.930 . S
C1510 C1511 1.355 . S
C1510 C1512 1.415 . S
C1511 C1510 1.355 . S
C1511 C1513 1.419 . S
C1512 C1510 1.415 . S
C1512 C1517 1.425 . S
C1512 C1519 1.409 . S
C1513 H1505 0.930 . S
C1513 C1511 1.419 . S
C1513 C1514 1.362 . S
C1514 H1506 0.930 . S
C1514 C1513 1.362 . S
C1514 C1517 1.409 . S
C1515 H1507 0.930 . S
C1515 C1516 1.355 . S
C1515 C1517 1.415 . S
C1516 C1515 1.355 . S
C1516 C1518 1.419 . S
C1517 C1512 1.425 . S
C1517 C1514 1.409 . S
C1517 C1515 1.415 . S
C1518 H1508 0.930 . S
C1518 C1516 1.419 . S
C1518 C1519 1.362 . S
C1519 H1509 0.930 . S
C1519 C1512 1.409 . S
C1519 C1518 1.362 . S
H1520 C1526 0.930 . S
H1521 C1529 0.930 . S
H1522 C1530 0.930 . S
H1523 C1531 0.930 . S
H1524 C1534 0.930 . S
H1525 C1535 0.930 . S
C1526 H1520 0.930 . S
C1526 C1527 1.355 . S
C1526 C1528 1.415 . S
C1527 C1526 1.355 . S
C1527 C1529 1.419 . S
C1528 C1526 1.415 . S
C1528 C1533 1.425 . S
C1528 C1535 1.409 . S
C1529 H1521 0.930 . S
C1529 C1527 1.419 . S
C1529 C1530 1.362 . S
C1530 H1522 0.930 . S
C1530 C1529 1.362 . S
C1530 C1533 1.409 . S
C1531 H1523 0.930 . S
C1531 C1532 1.355 . S
C1531 C1533 1.415 . S
C1532 C1531 1.355 . S
C1532 C1534 1.419 . S
C1533 C1528 1.425 . S
C1533 C1530 1.409 . S
C1533 C1531 1.415 . S
C1534 H1524 0.930 . S
C1534 C1532 1.419 . S
C1534 C1535 1.362 . S
C1535 H1525 0.930 . S
C1535 C1528 1.409 . S
C1535 C1534 1.362 . S
H1536 C1542 0.930 . S
H1537 C1545 0.930 . S
H1538 C1546 0.930 1_655 S
H1539 C1547 0.930 . S
H1540 C1550 0.930 . S
H1541 C1551 0.930 . S
C1542 H1536 0.930 . S
C1542 C1543 1.355 1_455 S
C1542 C1544 1.415 1_556 S
C1543 C1542 1.355 1_655 S
C1543 C1545 1.416 1_556 S
C1544 C1542 1.415 1_554 S
C1544 C1549 1.425 . S
C1544 C1551 1.409 . S
C1545 H1537 0.930 . S
C1545 C1543 1.416 1_554 S
C1545 C1546 1.362 1_655 S
C1546 H1538 0.930 1_455 S
C1546 C1545 1.362 1_455 S
C1546 C1549 1.409 . S
C1547 H1539 0.930 . S
C1547 C1548 1.355 . S
C1547 C1549 1.415 . S
C1548 C1547 1.355 . S
C1548 C1550 1.419 . S
C1549 C1544 1.425 . S
C1549 C1546 1.409 . S
C1549 C1547 1.415 . S
C1550 H1540 0.930 . S
C1550 C1548 1.419 . S
C1550 C1551 1.362 . S
C1551 H1541 0.930 . S
C1551 C1544 1.409 . S
C1551 C1550 1.362 . S
H1552 C1558 0.930 . S
H1553 C1561 0.930 . S
H1554 C1562 0.930 . S
H1555 C1563 0.930 . S
H1556 C1566 0.930 . S
H1557 C1567 0.930 . S
C1558 H1552 0.930 . S
C1558 C1559 1.355 . S
C1558 C1560 1.415 . S
C1559 C1558 1.355 . S
C1559 C1561 1.419 . S
C1560 C1558 1.415 . S
C1560 C1565 1.425 . S
C1560 C1567 1.409 . S
C1561 H1553 0.930 . S
C1561 C1559 1.419 . S
C1561 C1562 1.362 . S
C1562 H1554 0.930 . S
C1562 C1561 1.362 . S
C1562 C1565 1.409 . S
C1563 H1555 0.930 . S
C1563 C1564 1.355 . S
C1563 C1565 1.415 . S
C1564 C1563 1.355 . S
C1564 C1566 1.419 . S
C1565 C1560 1.425 . S
C1565 C1562 1.409 . S
C1565 C1563 1.415 . S
C1566 H1556 0.930 . S
C1566 C1564 1.419 . S
C1566 C1567 1.362 . S
C1567 H1557 0.930 . S
C1567 C1560 1.409 . S
C1567 C1566 1.362 . S
H1568 C1574 0.930 . S
H1569 C1577 0.930 . S
H1570 C1578 0.930 . S
H1571 C1579 0.930 . S
H1572 C1582 0.930 . S
H1573 C1583 0.930 . S
C1574 H1568 0.930 . S
C1574 C1575 1.355 . S
C1574 C1576 1.415 . S
C1575 C1574 1.355 . S
C1575 C1577 1.419 . S
C1576 C1574 1.415 . S
C1576 C1581 1.425 . S
C1576 C1583 1.409 . S
C1577 H1569 0.930 . S
C1577 C1575 1.419 . S
C1577 C1578 1.362 . S
C1578 H1570 0.930 . S
C1578 C1577 1.362 . S
C1578 C1581 1.409 . S
C1579 H1571 0.930 . S
C1579 C1580 1.355 . S
C1579 C1581 1.415 . S
C1580 C1579 1.355 . S
C1580 C1582 1.419 . S
C1581 C1576 1.425 . S
C1581 C1578 1.409 . S
C1581 C1579 1.415 . S
C1582 H1572 0.930 . S
C1582 C1580 1.419 . S
C1582 C1583 1.362 . S
C1583 H1573 0.930 . S
C1583 C1576 1.409 . S
C1583 C1582 1.362 . S
H1584 C1590 0.930 . S
H1585 C1593 0.930 . S
H1586 C1594 0.930 . S
H1587 C1595 0.930 . S
H1588 C1598 0.930 . S
H1589 C1599 0.930 . S
C1590 H1584 0.930 . S
C1590 C1591 1.355 . S
C1590 C1592 1.415 . S
C1591 C1590 1.355 . S
C1591 C1593 1.419 . S
C1592 C1590 1.415 . S
C1592 C1597 1.425 . S
C1592 C1599 1.409 . S
C1593 H1585 0.930 . S
C1593 C1591 1.419 . S
C1593 C1594 1.362 . S
C1594 H1586 0.930 . S
C1594 C1593 1.362 . S
C1594 C1597 1.409 . S
C1595 H1587 0.930 . S
C1595 C1596 1.355 . S
C1595 C1597 1.415 . S
C1596 C1595 1.355 . S
C1596 C1598 1.419 . S
C1597 C1592 1.425 . S
C1597 C1594 1.409 . S
C1597 C1595 1.415 . S
C1598 H1588 0.930 . S
C1598 C1596 1.419 . S
C1598 C1599 1.362 . S
C1599 H1589 0.930 . S
C1599 C1592 1.409 . S
C1599 C1598 1.362 . S
H1600 C1606 0.930 . S
H1601 C1609 0.930 . S
H1602 C1610 0.930 . S
H1603 C1611 0.930 . S
H1604 C1614 0.930 . S
H1605 C1615 0.930 1_554 S
C1606 H1600 0.930 . S
C1606 C1607 1.352 1_554 S
C1606 C1608 1.415 1_554 S
C1607 C1606 1.352 1_556 S
C1607 C1609 1.434 . S
C1608 C1606 1.415 1_556 S
C1608 C1613 1.425 . S
C1608 C1615 1.409 . S
C1609 H1601 0.930 . S
C1609 C1607 1.434 . S
C1609 C1610 1.362 . S
C1610 H1602 0.930 . S
C1610 C1609 1.362 . S
C1610 C1613 1.409 . S
C1611 H1603 0.930 . S
C1611 C1612 1.355 . S
C1611 C1613 1.415 . S
C1612 C1611 1.355 . S
C1612 C1614 1.419 . S
C1613 C1608 1.425 . S
C1613 C1610 1.409 . S
C1613 C1611 1.415 . S
C1614 H1604 0.930 . S
C1614 C1612 1.419 . S
C1614 C1615 1.362 . S
C1615 H1605 0.930 1_556 S
C1615 C1608 1.409 . S
C1615 C1614 1.362 . S
H1616 C1622 0.930 . S
H1617 C1625 0.930 . S
H1618 C1626 0.930 . S
H1619 C1627 0.930 . S
H1620 C1630 0.930 . S
H1621 C1631 0.930 . S
C1622 H1616 0.930 . S
C1622 C1623 1.355 . S
C1622 C1624 1.415 . S
C1623 C1622 1.355 . S
C1623 C1625 1.419 . S
C1624 C1622 1.415 . S
C1624 C1629 1.425 . S
C1624 C1631 1.409 . S
C1625 H1617 0.930 . S
C1625 C1623 1.419 . S
C1625 C1626 1.362 . S
C1626 H1618 0.930 . S
C1626 C1625 1.362 . S
C1626 C1629 1.409 . S
C1627 H1619 0.930 . S
C1627 C1628 1.355 . S
C1627 C1629 1.415 1_455 S
C1628 C1627 1.355 . S
C1628 C1630 1.419 1_455 S
C1629 C1624 1.425 . S
C1629 C1626 1.409 . S
C1629 C1627 1.415 1_655 S
C1630 H1620 0.930 . S
C1630 C1628 1.419 1_655 S
C1630 C1631 1.362 . S
C1631 H1621 0.930 . S
C1631 C1624 1.409 . S
C1631 C1630 1.362 . S
C871 C328 1.294 . S
C876 C4 1.295 . S
C887 C40 1.245 . S
C892 C364 1.245 . S
C903 C76 1.192 . S
C908 C400 1.192 . S
C919 C112 1.225 . S
C924 C292 1.224 . S
C935 C148 1.298 . S
C940 C544 1.298 . S
C951 C436 1.249 . S
C956 C184 1.248 . S
C967 C220 1.211 . S
C972 C472 1.212 . S
C983 C508 1.241 . S
C988 C256 1.240 . S
C999 C580 1.212 . S
C1004 C652 1.211 . S
C1015 C796 1.245 . S
C1020 C616 1.246 . S
C1031 C688 1.289 . S
C1036 C832 1.290 . S
C1047 C760 1.200 . S
C1052 C724 1.199 . S
C1063 C734 1.604 . S
C1068 C14 1.609 . S
C1079 C50 1.663 . S
C1084 C626 1.658 . S
C1095 C86 1.603 . S
C1100 C662 1.599 . S
C1111 C122 1.656 . S
C1116 C698 1.650 . S
C1127 C158 1.594 . S
C1132 C842 1.591 . S
C1143 C770 1.593 . S
C1148 C194 1.591 . S
C1159 C806 1.596 . S
C1164 C230 1.593 . S
C1175 C590 1.641 . S
C1180 C266 1.634 . S
C1191 C554 1.679 . S
C1196 C302 1.677 . S
C1207 C338 1.612 . S
C1212 C446 1.618 . S
C1223 C482 1.594 . S
C1228 C374 1.598 . S
C1239 C518 1.616 . S
C1244 C410 1.623 . S
C1255 C3 1.135 . S
C1260 C578 1.223 . S
C1271 C830 1.215 . S
C1276 C39 1.195 . S
C1287 C758 1.234 . S
C1292 C75 1.117 . S
C1303 C111 1.127 . S
C1308 C794 1.232 . S
C1319 C147 1.182 . S
C1324 C614 1.228 . S
C1335 C650 1.214 . S
C1340 C183 1.209 . S
C1351 C686 1.214 . S
C1356 C219 1.207 . S
C1367 C722 1.225 . S
C1372 C255 1.126 . S
C1383 C2 1.229 . S
C1388 C291 1.172 . S
C1399 C38 1.234 1_455 S
C1404 C327 1.119 . S
C1415 C74 1.218 . S
C1420 C363 1.165 . S
C1431 C110 1.231 . S
C1436 C399 1.111 . S
C1447 C146 1.234 . S
C1452 C435 1.131 . S
C1463 C182 1.233 1_655 S
C1468 C471 1.114 . S
C1479 C507 1.130 . S
C1484 C218 1.225 . S
C1495 C254 1.234 . S
C1500 C543 1.122 . S
C1511 C290 1.233 . S
C1516 C579 1.144 . S
C1527 C615 1.126 . S
C1532 C434 1.226 . S
C1543 C470 1.231 . S
C1548 C651 1.175 . S
C1559 C687 1.198 . S
C1564 C506 1.224 . S
C1575 C723 1.212 . S
C1580 C542 1.215 . S
C1591 C759 1.190 . S
C1596 C362 1.226 . S
C1607 C398 1.220 1_556 S
C1612 C795 1.158 . S
C1623 C831 1.196 . S
C1628 C326 1.215 . S
