# Generated by pormake.
# Topology umo, (4)-cn, num edge types: 1
# Building blocks:
#     Node 0, Type 0, BuildingBlock: QUQFOY_clean_sbu_1, # of connection points: 4
#     Node 1, Type 0, BuildingBlock: QUQFOY_clean_sbu_1, # of connection points: 4
#     Node 2, Type 0, BuildingBlock: QUQFOY_clean_sbu_1, # of connection points: 4
#     Node 3, Type 0, BuildingBlock: QUQFOY_clean_sbu_1, # of connection points: 4
#     Node 4, Type 0, BuildingBlock: QUQFOY_clean_sbu_1, # of connection points: 4
#     Node 5, Type 0, BuildingBlock: QUQFOY_clean_sbu_1, # of connection points: 4
#     Node 6, Type 0, BuildingBlock: QUQFOY_clean_sbu_1, # of connection points: 4
#     Node 7, Type 0, BuildingBlock: QUQFOY_clean_sbu_1, # of connection points: 4
#     Node 8, Type 0, BuildingBlock: QUQFOY_clean_sbu_1, # of connection points: 4
#     Node 9, Type 0, BuildingBlock: QUQFOY_clean_sbu_1, # of connection points: 4
#     Node 10, Type 0, BuildingBlock: QUQFOY_clean_sbu_1, # of connection points: 4
#     Node 11, Type 0, BuildingBlock: QUQFOY_clean_sbu_1, # of connection points: 4
#     Edge 12, Type (0, 0), BuildingBlock: XUDNAN_clean_linker_2, # of connection points: 2
#     Edge 13, Type (0, 0), BuildingBlock: XUDNAN_clean_linker_2, # of connection points: 2
#     Edge 14, Type (0, 0), BuildingBlock: XUDNAN_clean_linker_2, # of connection points: 2
#     Edge 15, Type (0, 0), BuildingBlock: XUDNAN_clean_linker_2, # of connection points: 2
#     Edge 16, Type (0, 0), BuildingBlock: XUDNAN_clean_linker_2, # of connection points: 2
#     Edge 17, Type (0, 0), BuildingBlock: XUDNAN_clean_linker_2, # of connection points: 2
#     Edge 18, Type (0, 0), BuildingBlock: XUDNAN_clean_linker_2, # of connection points: 2
#     Edge 19, Type (0, 0), BuildingBlock: XUDNAN_clean_linker_2, # of connection points: 2
#     Edge 20, Type (0, 0), BuildingBlock: XUDNAN_clean_linker_2, # of connection points: 2
#     Edge 21, Type (0, 0), BuildingBlock: XUDNAN_clean_linker_2, # of connection points: 2
#     Edge 22, Type (0, 0), BuildingBlock: XUDNAN_clean_linker_2, # of connection points: 2
#     Edge 23, Type (0, 0), BuildingBlock: XUDNAN_clean_linker_2, # of connection points: 2
#     Edge 24, Type (0, 0), BuildingBlock: XUDNAN_clean_linker_2, # of connection points: 2
#     Edge 25, Type (0, 0), BuildingBlock: XUDNAN_clean_linker_2, # of connection points: 2
#     Edge 26, Type (0, 0), BuildingBlock: XUDNAN_clean_linker_2, # of connection points: 2
#     Edge 27, Type (0, 0), BuildingBlock: XUDNAN_clean_linker_2, # of connection points: 2
#     Edge 28, Type (0, 0), BuildingBlock: XUDNAN_clean_linker_2, # of connection points: 2
#     Edge 29, Type (0, 0), BuildingBlock: XUDNAN_clean_linker_2, # of connection points: 2
#     Edge 30, Type (0, 0), BuildingBlock: XUDNAN_clean_linker_2, # of connection points: 2
#     Edge 31, Type (0, 0), BuildingBlock: XUDNAN_clean_linker_2, # of connection points: 2
#     Edge 32, Type (0, 0), BuildingBlock: XUDNAN_clean_linker_2, # of connection points: 2
#     Edge 33, Type (0, 0), BuildingBlock: XUDNAN_clean_linker_2, # of connection points: 2
#     Edge 34, Type (0, 0), BuildingBlock: XUDNAN_clean_linker_2, # of connection points: 2
#     Edge 35, Type (0, 0), BuildingBlock: XUDNAN_clean_linker_2, # of connection points: 2
# Relax obj value: 0.084
# Max RMSD: 0.128
# Mean RMSD: 0.128
data_MOF--net-umo--node1-QUQFOY_clean_sbu_1--edge1-XUDNAN_clean_linker_2
_symmetry_space_group_name_H-M    P1
_symmetry_Int_Tables_number       1
_symmetry_cell_setting            triclinic
loop_
_symmetry_equiv_pos_as_xyz
'x, y, z'
_cell_length_a     52.863951
_cell_length_b     52.790576
_cell_length_c     38.088305
_cell_angle_alpha  90.07809
_cell_angle_beta   89.990259
_cell_angle_gamma 120.06911
loop_
_atom_site_label
_atom_site_type_symbol
_atom_site_fract_x
_atom_site_fract_y
_atom_site_fract_z
_atom_type_partial_charge
O0 O 0.15484 0.58231 0.45859 0.0
Cd1 Cd 0.1481 0.58902 0.40735 0.0
Cd2 Cd 0.19863 0.58777 0.39723 0.0
O3 O 0.19498 0.57974 0.45101 0.0
O4 O 0.10642 0.57847 0.40391 0.0
O5 O 0.12463 0.55434 0.3759 0.0
C6 C 0.10237 0.55719 0.38363 0.0
C7 C 0.21548 0.56644 0.35586 0.0
C8 C 0.17575 0.57984 0.47114 0.0
C9 C 0.19922 0.64503 0.38605 0.0
O10 O 0.2126 0.63066 0.38604 0.0
O11 O 0.17205 0.63241 0.39267 0.0
O12 O 0.23229 0.58347 0.38026 0.0
O13 O 0.18836 0.55968 0.35649 0.0
O14 O 0.59788 0.15916 0.62115 0.0
Cd15 Cd 0.58595 0.15102 0.56922 0.0
Cd16 Cd 0.63493 0.20245 0.56247 0.0
O17 O 0.64137 0.19862 0.61537 0.0
O18 O 0.55457 0.10918 0.56809 0.0
O19 O 0.59632 0.12582 0.53947 0.0
C20 C 0.57114 0.10408 0.54809 0.0
C21 C 0.67068 0.21833 0.51833 0.0
C22 C 0.62095 0.17987 0.6348 0.0
C23 C 0.57689 0.20009 0.55492 0.0
O24 O 0.60453 0.21528 0.55737 0.0
O25 O 0.56419 0.17238 0.55404 0.0
O26 O 0.6718 0.23578 0.54279 0.0
O27 O 0.65004 0.19129 0.52001 0.0
O28 O 0.43963 0.59125 0.79634 0.0
Cd29 Cd 0.43036 0.57321 0.74702 0.0
Cd30 Cd 0.43234 0.62635 0.73159 0.0
O31 O 0.43999 0.63256 0.7853 0.0
O32 O 0.43048 0.53609 0.75471 0.0
O33 O 0.46014 0.56953 0.71704 0.0
C34 C 0.45062 0.54423 0.73139 0.0
C35 C 0.4551 0.66362 0.68936 0.0
C36 C 0.44117 0.6148 0.80698 0.0
C37 C 0.37484 0.56996 0.72329 0.0
O38 O 0.38943 0.5976 0.72003 0.0
O39 O 0.38718 0.55586 0.73316 0.0
O40 O 0.43766 0.66417 0.71256 0.0
O41 O 0.46124 0.64286 0.69152 0.0
O42 O 0.8498 0.42481 0.95267 0.0
Cd43 Cd 0.85082 0.41139 0.90211 0.0
Cd44 Cd 0.80486 0.41987 0.89666 0.0
O45 O 0.81744 0.4392 0.94541 0.0
O46 O 0.88808 0.41084 0.89972 0.0
O47 O 0.8792 0.43993 0.86662 0.0
C48 C 0.89671 0.43078 0.876 0.0
C49 C 0.79041 0.43807 0.8492 0.0
C50 C 0.83484 0.43553 0.96504 0.0
C51 C 0.79351 0.35796 0.89861 0.0
O52 O 0.7835 0.37527 0.90137 0.0
O53 O 0.82058 0.36781 0.89359 0.0
O54 O 0.77476 0.42857 0.87725 0.0
O55 O 0.81519 0.43872 0.84882 0.0
O56 O 0.41377 0.85183 0.12708 0.0
Cd57 Cd 0.42894 0.85891 0.07657 0.0
Cd58 Cd 0.38413 0.80429 0.0639 0.0
O59 O 0.38029 0.8057 0.11813 0.0
O60 O 0.45418 0.90206 0.07276 0.0
O61 O 0.41565 0.87605 0.03869 0.0
C62 C 0.43741 0.9012 0.04766 0.0
C63 C 0.34188 0.77981 0.02862 0.0
C64 C 0.39482 0.82704 0.13899 0.0
C65 C 0.44523 0.81475 0.05531 0.0
O66 O 0.41805 0.79782 0.04988 0.0
O67 O 0.45471 0.84069 0.06635 0.0
O68 O 0.3483 0.7662 0.05173 0.0
O69 O 0.35904 0.8077 0.02571 0.0
O70 O 0.56172 0.41175 0.29366 0.0
Cd71 Cd 0.57086 0.43104 0.2452 0.0
Cd72 Cd 0.57008 0.37835 0.22794 0.0
O73 O 0.56128 0.37066 0.28125 0.0
O74 O 0.56293 0.46355 0.25452 0.0
O75 O 0.54008 0.43037 0.21306 0.0
C76 C 0.54348 0.453 0.23017 0.0
C77 C 0.5504 0.33904 0.18762 0.0
C78 C 0.55989 0.38794 0.3035 0.0
C79 C 0.62732 0.43674 0.22277 0.0
O80 O 0.61294 0.40912 0.21853 0.0
O81 O 0.61462 0.45061 0.23255 0.0
O82 O 0.56789 0.34094 0.21223 0.0
O83 O 0.5431 0.35895 0.18613 0.0
O84 O 0.44056 0.84916 0.39962 0.0
Cd85 Cd 0.43422 0.85281 0.4522 0.0
Cd86 Cd 0.43795 0.80458 0.45491 0.0
O87 O 0.45321 0.81532 0.40403 0.0
O88 O 0.44345 0.89386 0.45944 0.0
O89 O 0.46901 0.87562 0.48369 0.0
C90 C 0.46525 0.8977 0.47849 0.0
C91 C 0.45641 0.784 0.49516 0.0
C92 C 0.44853 0.83253 0.38533 0.0
C93 C 0.37847 0.79957 0.46058 0.0
O94 O 0.39353 0.78726 0.45524 0.0
O95 O 0.39096 0.82693 0.46621 0.0
O96 O 0.44379 0.7708 0.46647 0.0
O97 O 0.45954 0.80953 0.50081 0.0
O98 O 0.58223 0.42388 0.56695 0.0
Cd99 Cd 0.56787 0.41394 0.61768 0.0
Cd100 Cd 0.61947 0.41178 0.62711 0.0
O101 O 0.6214 0.41945 0.57331 0.0
O102 O 0.53216 0.41735 0.61833 0.0
O103 O 0.57032 0.44426 0.65231 0.0
C104 C 0.54417 0.43688 0.64243 0.0
C105 C 0.66256 0.43167 0.66119 0.0
C106 C 0.60385 0.423 0.55377 0.0
C107 C 0.56204 0.35607 0.63667 0.0
O108 O 0.58969 0.3692 0.63962 0.0
O109 O 0.54918 0.37001 0.62829 0.0
O110 O 0.65782 0.41369 0.63588 0.0
O111 O 0.64336 0.43948 0.6667 0.0
O112 O 0.15464 0.58984 0.73264 0.0
Cd113 Cd 0.14953 0.57234 0.78221 0.0
Cd114 Cd 0.19719 0.6278 0.79187 0.0
O115 O 0.18769 0.63621 0.74223 0.0
O116 O 0.11361 0.5335 0.77623 0.0
O117 O 0.11607 0.56648 0.81381 0.0
C118 C 0.10113 0.54089 0.79978 0.0
C119 C 0.2124 0.66046 0.83961 0.0
C120 C 0.17088 0.61575 0.72139 0.0
C121 C 0.2064 0.57571 0.78987 0.0
O122 O 0.21706 0.60322 0.78841 0.0
O123 O 0.17906 0.55864 0.79278 0.0
O124 O 0.22838 0.66594 0.81197 0.0
O125 O 0.18688 0.63715 0.83936 0.0
O126 O 0.55812 0.15845 0.8877 0.0
Cd127 Cd 0.56305 0.14653 0.93723 0.0
Cd128 Cd 0.5706 0.20075 0.9526 0.0
O129 O 0.56674 0.20317 0.89848 0.0
O130 O 0.54836 0.10404 0.93026 0.0
O131 O 0.52982 0.12095 0.96986 0.0
C132 C 0.52952 0.09896 0.95457 0.0
C133 C 0.54988 0.2181 0.99416 0.0
C134 C 0.56231 0.18297 0.87678 0.0
C135 C 0.62172 0.19052 0.9631 0.0
O136 O 0.61074 0.20697 0.96684 0.0
O137 O 0.60627 0.16455 0.95162 0.0
O138 O 0.57035 0.23565 0.97327 0.0
O139 O 0.53989 0.19036 0.99016 0.0
O140 O 0.41797 0.57802 0.06938 0.0
Cd141 Cd 0.43318 0.58905 0.11986 0.0
Cd142 Cd 0.38418 0.59276 0.1281 0.0
O143 O 0.37747 0.57985 0.07597 0.0
O144 O 0.46221 0.57567 0.12356 0.0
O145 O 0.42415 0.56025 0.1591 0.0
C146 C 0.44716 0.55942 0.14945 0.0
C147 C 0.34436 0.57517 0.16743 0.0
C148 C 0.39531 0.57686 0.05637 0.0
C149 C 0.4429 0.64875 0.12974 0.0
O150 O 0.41519 0.63638 0.13156 0.0
O151 O 0.45551 0.63373 0.12712 0.0
O152 O 0.34638 0.59089 0.14065 0.0
O153 O 0.36477 0.56887 0.17204 0.0
O154 O 0.85172 0.42361 0.22932 0.0
Cd155 Cd 0.85292 0.43344 0.28174 0.0
Cd156 Cd 0.8082 0.37891 0.28419 0.0
O157 O 0.82099 0.37611 0.23375 0.0
O158 O 0.89261 0.46701 0.29123 0.0
O159 O 0.87602 0.42297 0.31447 0.0
C160 C 0.89718 0.44955 0.31035 0.0
C161 C 0.7894 0.33951 0.32408 0.0
C162 C 0.83729 0.39852 0.21519 0.0
C163 C 0.79622 0.42923 0.28881 0.0
O164 O 0.78672 0.40213 0.28384 0.0
O165 O 0.82324 0.44665 0.29432 0.0
O166 O 0.77662 0.33784 0.29471 0.0
O167 O 0.81372 0.36322 0.33053 0.0
H168 H 0.25017 0.67776 0.35222 0.0
H169 H 0.19036 0.68349 0.42491 0.0
H170 H 0.23015 0.73108 0.44623 0.0
H171 H 0.30137 0.69404 0.40759 0.0
H172 H 0.33284 0.71537 0.3802 0.0
H173 H 0.29898 0.68886 0.36063 0.0
H174 H 0.29853 0.72827 0.3207 0.0
H175 H 0.33325 0.75501 0.33907 0.0
H176 H 0.30284 0.76146 0.33985 0.0
H177 H 0.27904 0.77072 0.47043 0.0
H178 H 0.33071 0.79963 0.49082 0.0
H179 H 0.35725 0.76436 0.40483 0.0
C180 C 0.24511 0.69001 0.371 0.0
C181 C 0.21734 0.67717 0.3868 0.0
C182 C 0.21142 0.69326 0.41199 0.0
C183 C 0.23402 0.72025 0.42448 0.0
C184 C 0.26211 0.7309 0.41097 0.0
C185 C 0.26747 0.71657 0.38396 0.0
C186 C 0.29983 0.72902 0.37814 0.0
C187 C 0.30873 0.70542 0.38191 0.0
C188 C 0.30916 0.74436 0.34232 0.0
C189 C 0.31179 0.75086 0.40779 0.0
C190 C 0.29003 0.75255 0.42587 0.0
C191 C 0.29627 0.76996 0.45597 0.0
C192 C 0.32549 0.78603 0.46761 0.0
C193 C 0.3476 0.78354 0.44981 0.0
C194 C 0.34057 0.76615 0.41934 0.0
H195 H 0.5861 0.22692 0.61612 0.0
H196 H 0.53179 0.20438 0.52332 0.0
H197 H 0.51021 0.2337 0.54601 0.0
H198 H 0.53366 0.23318 0.67985 0.0
H199 H 0.56403 0.26364 0.70144 0.0
H200 H 0.56838 0.23459 0.68293 0.0
H201 H 0.61228 0.27236 0.646 0.0
H202 H 0.60831 0.30131 0.66455 0.0
H203 H 0.60759 0.29698 0.61752 0.0
H204 H 0.50302 0.27315 0.57273 0.0
H205 H 0.51516 0.32175 0.59508 0.0
H206 H 0.57523 0.31882 0.66994 0.0
C207 C 0.56907 0.2276 0.60103 0.0
C208 C 0.56064 0.2139 0.56799 0.0
C209 C 0.53838 0.21491 0.54874 0.0
C210 C 0.52592 0.23123 0.56166 0.0
C211 C 0.53562 0.24557 0.59404 0.0
C212 C 0.55663 0.2436 0.61352 0.0
C213 C 0.56733 0.26463 0.64414 0.0
C214 C 0.55776 0.24801 0.67916 0.0
C215 C 0.60082 0.28502 0.6429 0.0
C216 C 0.55114 0.28089 0.63715 0.0
C217 C 0.53187 0.26873 0.60921 0.0
C218 C 0.51743 0.28238 0.59511 0.0
C219 C 0.52436 0.30999 0.60814 0.0
C220 C 0.54618 0.32389 0.63423 0.0
C221 C 0.55819 0.30834 0.65036 0.0
H222 H 0.24618 0.59721 0.73868 0.0
H223 H 0.20813 0.52753 0.81554 0.0
H224 H 0.24203 0.51039 0.79602 0.0
H225 H 0.26011 0.55469 0.66993 0.0
H226 H 0.29335 0.58698 0.65666 0.0
H227 H 0.26303 0.59014 0.67298 0.0
H228 H 0.2965 0.62706 0.72051 0.0
H229 H 0.32679 0.62437 0.70393 0.0
H230 H 0.31682 0.61685 0.74958 0.0
H231 H 0.28575 0.50702 0.77454 0.0
H232 H 0.33565 0.51954 0.75712 0.0
H233 H 0.34213 0.58966 0.69176 0.0
C234 C 0.24481 0.57816 0.75125 0.0
C235 C 0.22517 0.56397 0.77904 0.0
C236 C 0.22338 0.53878 0.7944 0.0
C237 C 0.24229 0.5288 0.7832 0.0
C238 C 0.26186 0.54373 0.75589 0.0
C239 C 0.26285 0.5677 0.73992 0.0
C240 C 0.28733 0.58187 0.71357 0.0
C241 C 0.27522 0.57818 0.67606 0.0
C242 C 0.30808 0.61442 0.72247 0.0
C243 C 0.30167 0.56366 0.71908 0.0
C244 C 0.28627 0.54117 0.74277 0.0
C245 C 0.29755 0.52402 0.75532 0.0
C246 C 0.3259 0.5312 0.7451 0.0
C247 C 0.34268 0.55562 0.72309 0.0
C248 C 0.32962 0.5707 0.70828 0.0
H249 H 0.75765 0.34027 0.95388 0.0
H250 H 0.78739 0.30741 0.86862 0.0
H251 H 0.7522 0.25639 0.88717 0.0
H252 H 0.74246 0.2796 0.01818 0.0
H253 H 0.7113 0.2808 0.03534 0.0
H254 H 0.74257 0.31379 0.0194 0.0
H255 H 0.7093 0.3223 0.97668 0.0
H256 H 0.67816 0.28988 0.99297 0.0
H257 H 0.68606 0.29356 0.94659 0.0
H258 H 0.70725 0.21035 0.90805 0.0
H259 H 0.65645 0.17553 0.92543 0.0
H260 H 0.65895 0.23879 0.99987 0.0
C261 C 0.75705 0.32227 0.93945 0.0
C262 C 0.77464 0.32744 0.90957 0.0
C263 C 0.77379 0.30364 0.89151 0.0
C264 C 0.75413 0.27473 0.90211 0.0
C265 C 0.73647 0.27034 0.93147 0.0
C266 C 0.73819 0.29365 0.95011 0.0
C267 C 0.71496 0.28377 0.9781 0.0
C268 C 0.72865 0.28985 0.01494 0.0
C269 C 0.696 0.2982 0.97324 0.0
C270 C 0.6981 0.25135 0.97047 0.0
C271 C 0.71126 0.24374 0.94426 0.0
C272 C 0.69721 0.21585 0.92925 0.0
C273 C 0.66836 0.19606 0.93949 0.0
C274 C 0.65387 0.20459 0.96401 0.0
C275 C 0.66972 0.23166 0.98143 0.0
H276 H 0.43903 0.76789 0.01881 0.0
H277 H 0.49117 0.82986 0.09966 0.0
H278 H 0.50667 0.79574 0.12101 0.0
H279 H 0.40818 0.71148 0.06669 0.0
H280 H 0.40754 0.68427 0.03745 0.0
H281 H 0.40964 0.71664 0.01976 0.0
H282 H 0.45712 0.72915 0.9863 0.0
H283 H 0.45478 0.69613 1.00317 0.0
H284 H 0.4876 0.73091 1.00971 0.0
H285 H 0.50255 0.74974 0.14542 0.0
H286 H 0.48379 0.69842 0.16509 0.0
H287 H 0.43527 0.66694 0.06811 0.0
C288 C 0.45518 0.77494 0.03955 0.0
C289 C 0.46387 0.80136 0.05756 0.0
C290 C 0.48453 0.80984 0.08513 0.0
C291 C 0.49336 0.79046 0.09759 0.0
C292 C 0.482 0.76314 0.0815 0.0
C293 C 0.46415 0.75583 0.05213 0.0
C294 C 0.45078 0.72373 0.04315 0.0
C295 C 0.41708 0.70816 0.04174 0.0
C296 C 0.46334 0.71976 1.00853 0.0
C297 C 0.46131 0.71358 0.074 0.0
C298 C 0.48 0.73658 0.09544 0.0
C299 C 0.48888 0.73168 0.12817 0.0
C300 C 0.47807 0.70261 0.13931 0.0
C301 C 0.4584 0.67919 0.11783 0.0
C302 C 0.45072 0.68479 0.08458 0.0
H303 H 0.75571 0.4083 0.23806 0.0
H304 H 0.79361 0.4763 0.31731 0.0
H305 H 0.7592 0.49334 0.2997 0.0
H306 H 0.74218 0.4517 0.17188 0.0
H307 H 0.70891 0.41987 0.15761 0.0
H308 H 0.73884 0.41603 0.17386 0.0
H309 H 0.70471 0.37847 0.22032 0.0
H310 H 0.67477 0.38179 0.20374 0.0
H311 H 0.68428 0.38841 0.24961 0.0
H312 H 0.71525 0.49723 0.2786 0.0
H313 H 0.66596 0.4859 0.25959 0.0
H314 H 0.66059 0.41767 0.1913 0.0
C315 C 0.75691 0.42689 0.25172 0.0
C316 C 0.77677 0.44066 0.27952 0.0
C317 C 0.77823 0.46533 0.29616 0.0
C318 C 0.759 0.47524 0.28608 0.0
C319 C 0.73935 0.4608 0.2586 0.0
C320 C 0.73856 0.43732 0.24151 0.0
C321 C 0.71436 0.42389 0.21467 0.0
C322 C 0.72683 0.42814 0.17729 0.0
C323 C 0.6933 0.39124 0.2226 0.0
C324 C 0.70019 0.4422 0.22072 0.0
C325 C 0.71514 0.46384 0.24558 0.0
C326 C 0.70382 0.48088 0.25852 0.0
C327 C 0.67585 0.47444 0.24734 0.0
C328 C 0.65952 0.45092 0.22388 0.0
C329 C 0.67273 0.436 0.20889 0.0
H330 H 0.13098 0.58764 0.66888 0.0
H331 H 0.22244 0.65023 0.68804 0.0
H332 H 0.23399 0.64504 0.62659 0.0
H333 H 0.14028 0.54012 0.61479 0.0
H334 H 0.11128 0.53287 0.58438 0.0
H335 H 0.10929 0.543 0.62902 0.0
H336 H 0.10384 0.58664 0.60779 0.0
H337 H 0.10471 0.576 0.56305 0.0
H338 H 0.1302 0.61268 0.57745 0.0
H339 H 0.23648 0.62757 0.56573 0.0
H340 H 0.2282 0.6094 0.5046 0.0
H341 H 0.13471 0.56121 0.52344 0.0
C342 C 0.15324 0.60104 0.65973 0.0
C343 C 0.17577 0.61952 0.68312 0.0
C344 C 0.20474 0.63639 0.67041 0.0
C345 C 0.21159 0.63323 0.63569 0.0
C346 C 0.18911 0.61363 0.61383 0.0
C347 C 0.16036 0.59868 0.62492 0.0
C348 C 0.14026 0.57936 0.59596 0.0
C349 C 0.12435 0.54692 0.6067 0.0
C350 C 0.11847 0.58927 0.58543 0.0
C351 C 0.16227 0.58537 0.56709 0.0
C352 C 0.19039 0.60472 0.57819 0.0
C353 C 0.21452 0.61275 0.55656 0.0
C354 C 0.20964 0.60195 0.52205 0.0
C355 C 0.18084 0.58382 0.50938 0.0
C356 C 0.15696 0.57492 0.53252 0.0
H357 H 0.58746 0.1408 0.68551 0.0
H358 H 0.65066 0.2326 0.66899 0.0
H359 H 0.63912 0.24426 0.72764 0.0
H360 H 0.53431 0.15097 0.72797 0.0
H361 H 0.5236 0.1215 0.7589 0.0
H362 H 0.53813 0.11987 0.71672 0.0
H363 H 0.57873 0.11353 0.7465 0.0
H364 H 0.56367 0.11407 0.78869 0.0
H365 H 0.6016 0.13946 0.77948 0.0
H366 H 0.61754 0.2461 0.78681 0.0
H367 H 0.59509 0.23677 0.8458 0.0
H368 H 0.54625 0.14377 0.82277 0.0
C369 C 0.59949 0.16327 0.69459 0.0
C370 C 0.62016 0.18573 0.67273 0.0
C371 C 0.63514 0.21491 0.68547 0.0
C372 C 0.62839 0.22181 0.71856 0.0
C373 C 0.60682 0.19927 0.73868 0.0
C374 C 0.59316 0.17049 0.7275 0.0
C375 C 0.57094 0.15023 0.75404 0.0
C376 C 0.53991 0.13474 0.73846 0.0
C377 C 0.57924 0.12802 0.76802 0.0
C378 C 0.57422 0.17205 0.78202 0.0
C379 C 0.59469 0.2003 0.77253 0.0
C380 C 0.60157 0.22405 0.79454 0.0
C381 C 0.58838 0.21857 0.82786 0.0
C382 C 0.56882 0.18954 0.83894 0.0
C383 C 0.56095 0.16622 0.81506 0.0
H384 H 0.42189 0.56141 1.00546 0.0
H385 H 0.36821 0.60141 0.02059 0.0
H386 H 0.37767 0.61898 0.95941 0.0
H387 H 0.47595 0.61632 0.95339 0.0
H388 H 0.48059 0.59214 0.92403 0.0
H389 H 0.46825 0.58075 0.96833 0.0
H390 H 0.42195 0.5344 0.94562 0.0
H391 H 0.43468 0.54512 0.9013 0.0
H392 H 0.39887 0.5382 0.91373 0.0
H393 H 0.39753 0.63692 0.89866 0.0
H394 H 0.41641 0.64382 0.83805 0.0
H395 H 0.45514 0.59015 0.86149 0.0
C396 C 0.41141 0.57311 0.99559 0.0
C397 C 0.39419 0.5799 0.01784 0.0
C398 C 0.38111 0.59553 1.00399 0.0
C399 C 0.38671 0.606 0.96938 0.0
C400 C 0.40502 0.60023 0.94876 0.0
C401 C 0.41638 0.58333 0.96094 0.0
C402 C 0.43495 0.57983 0.93319 0.0
C403 C 0.46682 0.59305 0.94549 0.0
C404 C 0.42182 0.54747 0.92284 0.0
C405 C 0.43246 0.59761 0.9036 0.0
C406 C 0.41557 0.60966 0.91334 0.0
C407 C 0.41054 0.62734 0.8906 0.0
C408 C 0.42172 0.63148 0.85634 0.0
C409 C 0.43732 0.61759 0.84502 0.0
C410 C 0.44344 0.60118 0.86941 0.0
H411 H 0.87839 0.42497 0.16292 0.0
H412 H 0.78527 0.37154 0.18213 0.0
H413 H 0.77513 0.38017 0.12148 0.0
H414 H 0.87725 0.47776 0.10788 0.0
H415 H 0.90434 0.48022 0.07718 0.0
H416 H 0.90504 0.46974 0.12201 0.0
H417 H 0.90256 0.42173 0.10142 0.0
H418 H 0.90291 0.43258 0.05653 0.0
H419 H 0.87393 0.39769 0.07175 0.0
H420 H 0.77491 0.3996 0.06193 0.0
H421 H 0.78403 0.4157 1.00024 0.0
H422 H 0.87707 0.45124 0.016 0.0
C423 C 0.85595 0.41441 0.15389 0.0
C424 C 0.83259 0.39737 0.17699 0.0
C425 C 0.80346 0.38416 0.16458 0.0
C426 C 0.79747 0.38934 0.13038 0.0
C427 C 0.82089 0.40717 0.10867 0.0
C428 C 0.84956 0.41846 0.1193 0.0
C429 C 0.87056 0.43537 0.08977 0.0
C430 C 0.89047 0.46769 0.09983 0.0
C431 C 0.88854 0.42098 0.07924 0.0
C432 C 0.84916 0.43211 0.06115 0.0
C433 C 0.82069 0.41653 0.07309 0.0
C434 C 0.79707 0.41149 0.05207 0.0
C435 C 0.80252 0.42115 0.01721 0.0
C436 C 0.83126 0.43491 1.00347 0.0
C437 C 0.85494 0.44107 0.02599 0.0
H438 H 0.41475 0.86709 0.19298 0.0
H439 H 0.37788 0.77454 0.17049 0.0
H440 H 0.391 0.76689 0.23004 0.0
H441 H 0.47482 0.87729 0.24184 0.0
H442 H 0.47332 0.90139 0.27428 0.0
H443 H 0.45924 0.8998 0.23079 0.0
H444 H 0.40871 0.88697 0.25621 0.0
H445 H 0.42295 0.88954 0.29984 0.0
H446 H 0.39048 0.85662 0.28611 0.0
H447 H 0.41384 0.77045 0.28901 0.0
H448 H 0.43348 0.78231 0.34928 0.0
H449 H 0.45264 0.8718 0.33526 0.0
C450 C 0.40866 0.84506 0.20094 0.0
C451 C 0.39527 0.82142 0.177 0.0
C452 C 0.38783 0.79296 0.18839 0.0
C453 C 0.39555 0.78844 0.22205 0.0
C454 C 0.41017 0.81249 0.24428 0.0
C455 C 0.41572 0.84004 0.2347 0.0
C456 C 0.43119 0.86204 0.26389 0.0
C457 C 0.46143 0.88658 0.25196 0.0
C458 C 0.4122 0.87452 0.27732 0.0
C459 C 0.43393 0.84263 0.2911 0.0
C460 C 0.42214 0.81425 0.27898 0.0
C461 C 0.42281 0.79252 0.29899 0.0
C462 C 0.43443 0.79959 0.33303 0.0
C463 C 0.44472 0.82802 0.34693 0.0
C464 C 0.44511 0.84994 0.32526 0.0
H465 H 0.5454 0.41176 0.35839 0.0
H466 H 0.58358 0.35773 0.33406 0.0
H467 H 0.60141 0.36325 0.39508 0.0
H468 H 0.60109 0.46228 0.41177 0.0
H469 H 0.57789 0.46612 0.44346 0.0
H470 H 0.56553 0.45588 0.39891 0.0
H471 H 0.51919 0.40903 0.42033 0.0
H472 H 0.53089 0.41965 0.46501 0.0
H473 H 0.52301 0.38419 0.44934 0.0
H474 H 0.62057 0.38011 0.45645 0.0
H475 H 0.62991 0.39731 0.51787 0.0
H476 H 0.57737 0.43856 0.5029 0.0
C477 C 0.55672 0.40033 0.36618 0.0
C478 C 0.56302 0.38424 0.34146 0.0
C479 C 0.57813 0.36983 0.35261 0.0
C480 C 0.5887 0.37317 0.38712 0.0
C481 C 0.58352 0.39056 0.41025 0.0
C482 C 0.56706 0.4031 0.40059 0.0
C483 C 0.56455 0.42069 0.43048 0.0
C484 C 0.57807 0.45316 0.42054 0.0
C485 C 0.53251 0.4076 0.44198 0.0
C486 C 0.58256 0.41648 0.4583 0.0
C487 C 0.59368 0.3994 0.44594 0.0
C488 C 0.61165 0.39317 0.46657 0.0
C489 C 0.61716 0.40341 0.50132 0.0
C490 C 0.60439 0.41932 0.51527 0.0
C491 C 0.58751 0.42653 0.49304 0.0
H492 H 0.93814 0.50515 0.32891 0.0
H493 H 0.92261 0.41642 0.32352 0.0
H494 H 0.97407 0.4343 0.34062 0.0
H495 H 0.00979 0.54148 0.29499 0.0
H496 H 0.02321 0.57236 0.32436 0.0
H497 H 0.9851 0.55251 0.31257 0.0
H498 H 0.97061 0.54328 0.3783 0.0
H499 H 0.00867 0.56349 0.39032 0.0
H500 H 0.98591 0.52656 0.40583 0.0
H501 H 0.02869 0.46305 0.35299 0.0
H502 H 0.07991 0.49906 0.36884 0.0
H503 H 0.05799 0.56797 0.37053 0.0
C504 C 0.94551 0.48945 0.33174 0.0
C505 C 0.92655 0.45945 0.32485 0.0
C506 C 0.93683 0.43949 0.32896 0.0
C507 C 0.96603 0.44947 0.33839 0.0
C508 C 0.98438 0.47936 0.34424 0.0
C509 C 0.97431 0.49894 0.34186 0.0
C510 C 0.99816 0.52981 0.35028 0.0
C511 C 0.00443 0.55023 0.31866 0.0
C512 C 0.99037 0.54146 0.38314 0.0
C513 C 0.0234 0.52468 0.35724 0.0
C514 C 0.01519 0.49553 0.35317 0.0
C515 C 0.03525 0.48585 0.35672 0.0
C516 C 0.06428 0.50644 0.36544 0.0
C517 C 0.07272 0.53615 0.37107 0.0
C518 C 0.05201 0.54531 0.36669 0.0
H519 H 0.45348 0.94075 0.49585 0.0
H520 H 0.52376 0.92103 0.49109 0.0
H521 H 0.5593 0.97236 0.50735 0.0
H522 H 0.49159 0.01213 0.46076 0.0
H523 H 0.47534 0.02699 0.4898 0.0
H524 H 0.45557 0.98873 0.47846 0.0
H525 H 0.44981 0.97475 0.54439 0.0
H526 H 0.46921 0.01298 0.55595 0.0
H527 H 0.48182 0.98909 0.5719 0.0
H528 H 0.58746 0.02735 0.51911 0.0
H529 H 0.60489 0.07928 0.53423 0.0
H530 H 0.51529 0.06105 0.53562 0.0
C531 C 0.47632 0.94719 0.49858 0.0
C532 C 0.486 0.9271 0.49214 0.0
C533 C 0.51597 0.93615 0.49616 0.0
C534 C 0.53628 0.96526 0.50512 0.0
C535 C 0.52608 0.98474 0.5106 0.0
C536 C 0.49669 0.97586 0.50822 0.0
C537 C 0.49112 1.0007 0.51623 0.0
C538 C 0.47761 0.00753 0.48441 0.0
C539 C 0.47186 0.99398 0.54907 0.0
C540 C 0.522 0.02512 0.52301 0.0
C541 C 0.54197 0.01568 0.51918 0.0
C542 C 0.57197 0.03487 0.52265 0.0
C543 C 0.58169 0.06429 0.53097 0.0
C544 C 0.56138 0.07396 0.5363 0.0
C545 C 0.53125 0.05411 0.53206 0.0
H546 H 0.50453 0.55785 0.70446 0.0
H547 H 0.41984 0.48519 0.73431 0.0
H548 H 0.43548 0.45038 0.71625 0.0
H549 H 0.51624 0.52432 0.62904 0.0
H550 H 0.5547 0.53891 0.63703 0.0
H551 H 0.53704 0.55855 0.6521 0.0
H552 H 0.55487 0.5585 0.71543 0.0
H553 H 0.57255 0.5388 0.70056 0.0
H554 H 0.54623 0.52425 0.73571 0.0
H555 H 0.45822 0.42348 0.69163 0.0
H556 H 0.4889 0.40534 0.6656 0.0
H557 H 0.56094 0.49443 0.65621 0.0
C558 C 0.48938 0.53461 0.70711 0.0
C559 C 0.46094 0.52413 0.72062 0.0
C560 C 0.44175 0.49363 0.72413 0.0
C561 C 0.45039 0.47368 0.71389 0.0
C562 C 0.4785 0.48459 0.70078 0.0
C563 C 0.49792 0.51426 0.69772 0.0
C564 C 0.52709 0.51985 0.68342 0.0
C565 C 0.53417 0.53638 0.64831 0.0
C566 C 0.55163 0.53633 0.7104 0.0
C567 C 0.52071 0.48867 0.67837 0.0
C568 C 0.49241 0.46878 0.68835 0.0
C569 C 0.48057 0.43874 0.68424 0.0
C570 C 0.49808 0.42867 0.66941 0.0
C571 C 0.52723 0.44851 0.65951 0.0
C572 C 0.53886 0.47888 0.66435 0.0
H573 H 0.05924 0.55318 0.82378 0.0
H574 H 0.0745 0.48178 0.79834 0.0
H575 H 0.02344 0.4461 0.81351 0.0
H576 H 0.01021 0.51862 0.89659 0.0
H577 H 0.98654 0.53283 0.88548 0.0
H578 H 0.02462 0.55294 0.8736 0.0
H579 H 0.01023 0.55305 0.8086 0.0
H580 H 0.97209 0.53275 0.82026 0.0
H581 H 0.98622 0.5188 0.78704 0.0
H582 H 0.97213 0.41826 0.83395 0.0
H583 H 0.92182 0.39946 0.85572 0.0
H584 H 0.9375 0.48817 0.86302 0.0
C585 C 0.05179 0.53002 0.82171 0.0
C586 C 0.07077 0.52013 0.81019 0.0
C587 C 0.06025 0.48973 0.80716 0.0
C588 C 0.03132 0.46932 0.81571 0.0
C589 C 0.01304 0.47968 0.82666 0.0
C590 C 0.02266 0.50925 0.82941 0.0
C591 C 0.99806 0.51431 0.84093 0.0
C592 C 0.00529 0.53064 0.87625 0.0
C593 C 0.99125 0.5307 0.81251 0.0
C594 C 0.97331 0.48296 0.84463 0.0
C595 C 0.98261 0.4634 0.83651 0.0
C596 C 0.96441 0.43329 0.83991 0.0
C597 C 0.93595 0.42283 0.85226 0.0
C598 C 0.92586 0.44239 0.86037 0.0
C599 C 0.94461 0.47281 0.85611 0.0
H600 H 0.52085 0.07363 0.01906 0.0
H601 H 0.49241 0.05602 0.91071 0.0
H602 H 0.46067 0.00347 0.92459 0.0
H603 H 0.52884 0.01251 0.02792 0.0
H604 H 0.51726 0.0051 0.07309 0.0
H605 H 0.53337 0.04181 0.05639 0.0
H606 H 0.48774 0.04442 0.07584 0.0
H607 H 0.47152 0.00769 0.0928 0.0
H608 H 0.45202 0.01674 0.06105 0.0
H609 H 0.43483 0.95256 0.94931 0.0
H610 H 0.42027 0.9066 0.9816 0.0
H611 H 0.46906 0.9571 0.07245 0.0
C612 C 0.50716 0.05874 0.99867 0.0
C613 C 0.50832 0.06865 0.96408 0.0
C614 C 0.49126 0.04863 0.93749 0.0
C615 C 0.47318 0.01886 0.94516 0.0
C616 C 0.47286 0.00951 0.97943 0.0
C617 C 0.48959 0.02881 1.00572 0.0
C618 C 0.48821 0.01268 0.03915 0.0
C619 C 0.51873 0.01836 0.04973 0.0
C620 C 0.47402 0.02087 0.06897 0.0
C621 C 0.46863 0.98134 0.02734 0.0
C622 C 0.45944 0.97999 0.99309 0.0
C623 C 0.44174 0.95334 0.97622 0.0
C624 C 0.43356 0.92738 0.99473 0.0
C625 C 0.44365 0.92836 0.02938 0.0
C626 C 0.4611 0.95571 0.04592 0.0
H627 H 0.47699 0.53461 0.1211 0.0
H628 H 0.43821 0.54206 0.21811 0.0
H629 H 0.45694 0.51349 0.24894 0.0
H630 H 0.46076 0.45916 0.13638 0.0
H631 H 0.49424 0.4655 0.11608 0.0
H632 H 0.47701 0.48572 0.10166 0.0
H633 H 0.525 0.53443 0.11355 0.0
H634 H 0.54234 0.5144 0.12813 0.0
H635 H 0.54145 0.54128 0.15653 0.0
H636 H 0.48468 0.48926 0.27011 0.0
H637 H 0.51472 0.46592 0.27916 0.0
H638 H 0.53119 0.46973 0.16731 0.0
C639 C 0.47227 0.53001 0.14879 0.0
C640 C 0.45637 0.54065 0.16741 0.0
C641 C 0.45032 0.53401 0.20347 0.0
C642 C 0.46091 0.51788 0.22114 0.0
C643 C 0.47686 0.50802 0.2021 0.0
C644 C 0.48202 0.51334 0.16657 0.0
C645 C 0.49963 0.50018 0.15218 0.0
C646 C 0.48184 0.47621 0.12497 0.0
C647 C 0.52883 0.524 0.1367 0.0
C648 C 0.50431 0.4873 0.18536 0.0
C649 C 0.49118 0.4923 0.21391 0.0
C650 C 0.49449 0.48466 0.24787 0.0
C651 C 0.51164 0.47155 0.25278 0.0
C652 C 0.52472 0.46572 0.22384 0.0
C653 C 0.52077 0.47339 0.18968 0.0
H654 H 0.27056 0.5736 0.35002 0.0
H655 H 0.1889 0.54163 0.29339 0.0
H656 H 0.21203 0.53567 0.24011 0.0
H657 H 0.31664 0.61552 0.28337 0.0
H658 H 0.34532 0.60736 0.29213 0.0
H659 H 0.32156 0.60555 0.32704 0.0
H660 H 0.30763 0.55192 0.33982 0.0
H661 H 0.33159 0.55363 0.30507 0.0
H662 H 0.29367 0.52532 0.30484 0.0
H663 H 0.24601 0.54115 0.19089 0.0
H664 H 0.28717 0.5528 0.15067 0.0
H665 H 0.34615 0.57766 0.23943 0.0
C666 C 0.2573 0.56457 0.32669 0.0
C667 C 0.22782 0.55798 0.32598 0.0
C668 C 0.21138 0.54658 0.29475 0.0
C669 C 0.22439 0.54319 0.26428 0.0
C670 C 0.25373 0.55078 0.26557 0.0
C671 C 0.26985 0.56068 0.29616 0.0
C672 C 0.30141 0.56876 0.29002 0.0
C673 C 0.32246 0.60122 0.29864 0.0
C674 C 0.30901 0.5487 0.3112 0.0
C675 C 0.30079 0.56289 0.25093 0.0
C676 C 0.27304 0.55255 0.23735 0.0
C677 C 0.26761 0.54844 0.20137 0.0
C678 C 0.2911 0.55518 0.17871 0.0
C679 C 0.31958 0.56544 0.19207 0.0
C680 C 0.32437 0.56892 0.2287 0.0
H681 H 0.78887 0.34443 0.39568 0.0
H682 H 0.75618 0.28113 0.31087 0.0
H683 H 0.72683 0.24174 0.35327 0.0
H684 H 0.7892 0.2953 0.46601 0.0
H685 H 0.77635 0.3109 0.49871 0.0
H686 H 0.79866 0.33312 0.46284 0.0
H687 H 0.75875 0.34582 0.44639 0.0
H688 H 0.73633 0.32361 0.48203 0.0
H689 H 0.72201 0.31662 0.43793 0.0
H690 H 0.69761 0.21007 0.40385 0.0
H691 H 0.66843 0.18924 0.45769 0.0
H692 H 0.71786 0.27359 0.50929 0.0
C693 C 0.7763 0.3221 0.38631 0.0
C694 C 0.77523 0.31565 0.35014 0.0
C695 C 0.75757 0.28641 0.33856 0.0
C696 C 0.74089 0.2639 0.36246 0.0
C697 C 0.74182 0.27103 0.39788 0.0
C698 C 0.75899 0.29945 0.40979 0.0
C699 C 0.75339 0.30185 0.4484 0.0
C700 C 0.78105 0.31082 0.47028 0.0
C701 C 0.74193 0.32323 0.45399 0.0
C702 C 0.72995 0.27054 0.45611 0.0
C703 C 0.72401 0.25299 0.4268 0.0
C704 C 0.70229 0.22355 0.42706 0.0
C705 C 0.68583 0.21188 0.45782 0.0
C706 C 0.69085 0.2297 0.48782 0.0
C707 C 0.7136 0.25929 0.48695 0.0
H708 H 0.44878 0.7118 0.68049 0.0
H709 H 0.48248 0.66127 0.62934 0.0
H710 H 0.49153 0.6906 0.57548 0.0
H711 H 0.41064 0.71631 0.60959 0.0
H712 H 0.41863 0.75327 0.61759 0.0
H713 H 0.41838 0.73108 0.65352 0.0
H714 H 0.47127 0.77057 0.6699 0.0
H715 H 0.47164 0.79304 0.63408 0.0
H716 H 0.49962 0.78314 0.63713 0.0
H717 H 0.48933 0.71973 0.52463 0.0
H718 H 0.47995 0.74943 0.48206 0.0
H719 H 0.45085 0.78357 0.56671 0.0
C720 C 0.4588 0.7074 0.65828 0.0
C721 C 0.46502 0.68426 0.65924 0.0
C722 C 0.47776 0.67901 0.62942 0.0
C723 C 0.48294 0.69554 0.59864 0.0
C724 C 0.47573 0.7176 0.59823 0.0
C725 C 0.46441 0.72392 0.62748 0.0
C726 C 0.45697 0.74762 0.61955 0.0
C727 C 0.42422 0.73638 0.62541 0.0
C728 C 0.47602 0.77523 0.64147 0.0
C729 C 0.46489 0.75292 0.58094 0.0
C730 C 0.4757 0.73538 0.56916 0.0
C731 C 0.48166 0.73413 0.53374 0.0
C732 C 0.47621 0.75101 0.50974 0.0
C733 C 0.46534 0.76924 0.52125 0.0
C734 C 0.46009 0.77055 0.5574 0.0
H735 H 0.73989 0.44058 0.84308 0.0
H736 H 0.81435 0.45092 0.78325 0.0
H737 H 0.79192 0.45619 0.72893 0.0
H738 H 0.68654 0.39719 0.78303 0.0
H739 H 0.66359 0.413 0.78988 0.0
H740 H 0.68707 0.41387 0.82458 0.0
H741 H 0.71101 0.47026 0.82856 0.0
H742 H 0.68746 0.46956 0.79387 0.0
H743 H 0.72656 0.49215 0.78973 0.0
H744 H 0.75817 0.45264 0.68041 0.0
H745 H 0.71696 0.44371 0.64169 0.0
H746 H 0.66542 0.43863 0.73268 0.0
C747 C 0.75184 0.44469 0.81869 0.0
C748 C 0.77899 0.44543 0.81751 0.0
C749 C 0.79368 0.45047 0.78494 0.0
C750 C 0.78108 0.45348 0.7539 0.0
C751 C 0.75395 0.45185 0.75586 0.0
C752 C 0.73969 0.448 0.7875 0.0
C753 C 0.70993 0.44522 0.78214 0.0
C754 C 0.68535 0.41556 0.79571 0.0
C755 C 0.70868 0.47083 0.79961 0.0
C756 C 0.70923 0.44704 0.74244 0.0
C757 C 0.73491 0.45096 0.72781 0.0
C758 C 0.7383 0.45034 0.69158 0.0
C759 C 0.71479 0.44521 0.66979 0.0
C760 C 0.68833 0.44116 0.68419 0.0
C761 C 0.68578 0.44266 0.72096 0.0
H762 H 0.33898 0.7843 0.95726 0.0
H763 H 0.28781 0.73675 0.04793 0.0
H764 H 0.24633 0.70482 1.00914 0.0
H765 H 0.27814 0.77756 0.9012 0.0
H766 H 0.2935 0.77156 0.86196 0.0
H767 H 0.3172 0.79382 0.89697 0.0
H768 H 0.34048 0.76082 0.89966 0.0
H769 H 0.31687 0.73848 0.86478 0.0
H770 H 0.31732 0.72195 0.90598 0.0
H771 H 0.21189 0.67567 0.96042 0.0
H772 H 0.18877 0.64887 0.9057 0.0
H773 H 0.26355 0.71308 0.84625 0.0
C774 C 0.31866 0.76776 0.96888 0.0
C775 C 0.3162 0.76334 1.00557 0.0
C776 C 0.28984 0.74069 0.01988 0.0
C777 C 0.26619 0.72252 0.99806 0.0
C778 C 0.2694 0.72699 0.96188 0.0
C779 C 0.29506 0.74891 0.94733 0.0
C780 C 0.29417 0.74673 0.90757 0.0
C781 C 0.29584 0.77405 0.89095 0.0
C782 C 0.31865 0.74169 0.8937 0.0
C783 C 0.26427 0.71992 0.90209 0.0
C784 C 0.2501 0.70923 0.93372 0.0
C785 C 0.22268 0.68399 0.93548 0.0
C786 C 0.20967 0.66893 0.9042 0.0
C787 C 0.22425 0.67886 0.87161 0.0
C788 C 0.2517 0.70501 0.87066 0.0
H789 H 0.55933 0.34511 0.11685 0.0
H790 H 0.52207 0.28044 0.1995 0.0
H791 H 0.51173 0.24115 0.15649 0.0
H792 H 0.51233 0.29923 0.04286 0.0
H793 H 0.54253 0.31408 0.01249 0.0
H794 H 0.54201 0.33626 0.0482 0.0
H795 H 0.59262 0.34545 0.06888 0.0
H796 H 0.59326 0.32329 0.03338 0.0
H797 H 0.59746 0.31463 0.07798 0.0
H798 H 0.50905 0.20947 0.10541 0.0
H799 H 0.51836 0.18851 0.05224 0.0
H800 H 0.56104 0.27439 1.00376 0.0
C801 C 0.54804 0.32253 0.12547 0.0
C802 C 0.54061 0.31552 0.16115 0.0
C803 C 0.52726 0.28601 0.17207 0.0
C804 C 0.52131 0.26362 0.14782 0.0
C805 C 0.52936 0.2712 0.11283 0.0
C806 C 0.54267 0.3 0.10172 0.0
C807 C 0.5526 0.30275 0.06384 0.0
C808 C 0.53639 0.31373 0.04047 0.0
C809 C 0.58596 0.3227 0.06087 0.0
C810 C 0.54333 0.27114 0.05559 0.0
C811 C 0.52938 0.25319 0.08394 0.0
C812 C 0.51974 0.22329 0.08297 0.0
C813 C 0.52506 0.21155 0.05258 0.0
C814 C 0.54036 0.22974 0.02375 0.0
C815 C 0.54912 0.25984 0.02523 0.0
loop_
_geom_bond_atom_site_label_1
_geom_bond_atom_site_label_2
_geom_bond_distance
_geom_bond_site_symmetry_2
_ccdc_geom_bond_type
O0 Cd1 2.223 . S
O0 C8 1.315 . S
Cd1 O0 2.223 . S
Cd1 O4 2.297 . S
Cd1 O5 2.439 . S
Cd1 O11 2.240 . S
Cd2 O3 2.240 . S
Cd2 O10 2.223 . S
Cd2 O12 2.297 . S
Cd2 O13 2.439 . S
O3 Cd2 2.240 . S
O3 C8 1.279 . S
O4 Cd1 2.297 . S
O4 C6 1.247 . S
O5 Cd1 2.439 . S
O5 C6 1.208 . S
C6 O4 1.247 . S
C6 O5 1.208 . S
C7 O12 1.247 . S
C7 O13 1.208 . S
C8 O0 1.315 . S
C8 O3 1.279 . S
C9 O10 1.315 . S
C9 O11 1.279 . S
O10 Cd2 2.223 . S
O10 C9 1.315 . S
O11 Cd1 2.240 . S
O11 C9 1.279 . S
O12 Cd2 2.297 . S
O12 C7 1.247 . S
O13 Cd2 2.439 . S
O13 C7 1.208 . S
O14 Cd15 2.223 . S
O14 C22 1.315 . S
Cd15 O14 2.223 . S
Cd15 O18 2.297 . S
Cd15 O19 2.439 . S
Cd15 O25 2.240 . S
Cd16 O17 2.240 . S
Cd16 O24 2.223 . S
Cd16 O26 2.297 . S
Cd16 O27 2.439 . S
O17 Cd16 2.240 . S
O17 C22 1.279 . S
O18 Cd15 2.297 . S
O18 C20 1.247 . S
O19 Cd15 2.439 . S
O19 C20 1.208 . S
C20 O18 1.247 . S
C20 O19 1.208 . S
C21 O26 1.247 . S
C21 O27 1.208 . S
C22 O14 1.315 . S
C22 O17 1.279 . S
C23 O24 1.315 . S
C23 O25 1.279 . S
O24 Cd16 2.223 . S
O24 C23 1.315 . S
O25 Cd15 2.240 . S
O25 C23 1.279 . S
O26 Cd16 2.297 . S
O26 C21 1.247 . S
O27 Cd16 2.439 . S
O27 C21 1.208 . S
O28 Cd29 2.223 . S
O28 C36 1.315 . S
Cd29 O28 2.223 . S
Cd29 O32 2.297 . S
Cd29 O33 2.439 . S
Cd29 O39 2.240 . S
Cd30 O31 2.240 . S
Cd30 O38 2.223 . S
Cd30 O40 2.297 . S
Cd30 O41 2.439 . S
O31 Cd30 2.240 . S
O31 C36 1.279 . S
O32 Cd29 2.297 . S
O32 C34 1.247 . S
O33 Cd29 2.439 . S
O33 C34 1.208 . S
C34 O32 1.247 . S
C34 O33 1.208 . S
C35 O40 1.247 . S
C35 O41 1.208 . S
C36 O28 1.315 . S
C36 O31 1.279 . S
C37 O38 1.315 . S
C37 O39 1.279 . S
O38 Cd30 2.223 . S
O38 C37 1.315 . S
O39 Cd29 2.240 . S
O39 C37 1.279 . S
O40 Cd30 2.297 . S
O40 C35 1.247 . S
O41 Cd30 2.439 . S
O41 C35 1.208 . S
O42 Cd43 2.223 . S
O42 C50 1.315 . S
Cd43 O42 2.223 . S
Cd43 O46 2.297 . S
Cd43 O47 2.439 . S
Cd43 O53 2.240 . S
Cd44 O45 2.240 . S
Cd44 O52 2.223 . S
Cd44 O54 2.297 . S
Cd44 O55 2.439 . S
O45 Cd44 2.240 . S
O45 C50 1.279 . S
O46 Cd43 2.297 . S
O46 C48 1.247 . S
O47 Cd43 2.439 . S
O47 C48 1.208 . S
C48 O46 1.247 . S
C48 O47 1.208 . S
C49 O54 1.247 . S
C49 O55 1.208 . S
C50 O42 1.315 . S
C50 O45 1.279 . S
C51 O52 1.315 . S
C51 O53 1.279 . S
O52 Cd44 2.223 . S
O52 C51 1.315 . S
O53 Cd43 2.240 . S
O53 C51 1.279 . S
O54 Cd44 2.297 . S
O54 C49 1.247 . S
O55 Cd44 2.439 . S
O55 C49 1.208 . S
O56 Cd57 2.223 . S
O56 C64 1.315 . S
Cd57 O56 2.223 . S
Cd57 O60 2.297 . S
Cd57 O61 2.439 . S
Cd57 O67 2.240 . S
Cd58 O59 2.240 . S
Cd58 O66 2.223 . S
Cd58 O68 2.297 . S
Cd58 O69 2.439 . S
O59 Cd58 2.240 . S
O59 C64 1.279 . S
O60 Cd57 2.297 . S
O60 C62 1.247 . S
O61 Cd57 2.439 . S
O61 C62 1.208 . S
C62 O60 1.247 . S
C62 O61 1.208 . S
C63 O68 1.247 . S
C63 O69 1.208 . S
C64 O56 1.315 . S
C64 O59 1.279 . S
C65 O66 1.315 . S
C65 O67 1.279 . S
O66 Cd58 2.223 . S
O66 C65 1.315 . S
O67 Cd57 2.240 . S
O67 C65 1.279 . S
O68 Cd58 2.297 . S
O68 C63 1.247 . S
O69 Cd58 2.439 . S
O69 C63 1.208 . S
O70 Cd71 2.223 . S
O70 C78 1.315 . S
Cd71 O70 2.223 . S
Cd71 O74 2.297 . S
Cd71 O75 2.439 . S
Cd71 O81 2.240 . S
Cd72 O73 2.240 . S
Cd72 O80 2.223 . S
Cd72 O82 2.297 . S
Cd72 O83 2.439 . S
O73 Cd72 2.240 . S
O73 C78 1.279 . S
O74 Cd71 2.297 . S
O74 C76 1.247 . S
O75 Cd71 2.439 . S
O75 C76 1.208 . S
C76 O74 1.247 . S
C76 O75 1.208 . S
C77 O82 1.247 . S
C77 O83 1.208 . S
C78 O70 1.315 . S
C78 O73 1.279 . S
C79 O80 1.315 . S
C79 O81 1.279 . S
O80 Cd72 2.223 . S
O80 C79 1.315 . S
O81 Cd71 2.240 . S
O81 C79 1.279 . S
O82 Cd72 2.297 . S
O82 C77 1.247 . S
O83 Cd72 2.439 . S
O83 C77 1.208 . S
O84 Cd85 2.223 . S
O84 C92 1.315 . S
Cd85 O84 2.223 . S
Cd85 O88 2.297 . S
Cd85 O89 2.439 . S
Cd85 O95 2.240 . S
Cd86 O87 2.240 . S
Cd86 O94 2.223 . S
Cd86 O96 2.297 . S
Cd86 O97 2.439 . S
O87 Cd86 2.240 . S
O87 C92 1.279 . S
O88 Cd85 2.297 . S
O88 C90 1.247 . S
O89 Cd85 2.439 . S
O89 C90 1.208 . S
C90 O88 1.247 . S
C90 O89 1.208 . S
C91 O96 1.247 . S
C91 O97 1.208 . S
C92 O84 1.315 . S
C92 O87 1.279 . S
C93 O94 1.315 . S
C93 O95 1.279 . S
O94 Cd86 2.223 . S
O94 C93 1.315 . S
O95 Cd85 2.240 . S
O95 C93 1.279 . S
O96 Cd86 2.297 . S
O96 C91 1.247 . S
O97 Cd86 2.439 . S
O97 C91 1.208 . S
O98 Cd99 2.223 . S
O98 C106 1.315 . S
Cd99 O98 2.223 . S
Cd99 O102 2.297 . S
Cd99 O103 2.439 . S
Cd99 O109 2.240 . S
Cd100 O101 2.240 . S
Cd100 O108 2.223 . S
Cd100 O110 2.297 . S
Cd100 O111 2.439 . S
O101 Cd100 2.240 . S
O101 C106 1.279 . S
O102 Cd99 2.297 . S
O102 C104 1.247 . S
O103 Cd99 2.439 . S
O103 C104 1.208 . S
C104 O102 1.247 . S
C104 O103 1.208 . S
C105 O110 1.247 . S
C105 O111 1.208 . S
C106 O98 1.315 . S
C106 O101 1.279 . S
C107 O108 1.315 . S
C107 O109 1.279 . S
O108 Cd100 2.223 . S
O108 C107 1.315 . S
O109 Cd99 2.240 . S
O109 C107 1.279 . S
O110 Cd100 2.297 . S
O110 C105 1.247 . S
O111 Cd100 2.439 . S
O111 C105 1.208 . S
O112 Cd113 2.223 . S
O112 C120 1.315 . S
Cd113 O112 2.223 . S
Cd113 O116 2.297 . S
Cd113 O117 2.439 . S
Cd113 O123 2.240 . S
Cd114 O115 2.240 . S
Cd114 O122 2.223 . S
Cd114 O124 2.297 . S
Cd114 O125 2.439 . S
O115 Cd114 2.240 . S
O115 C120 1.279 . S
O116 Cd113 2.297 . S
O116 C118 1.247 . S
O117 Cd113 2.439 . S
O117 C118 1.208 . S
C118 O116 1.247 . S
C118 O117 1.208 . S
C119 O124 1.247 . S
C119 O125 1.208 . S
C120 O112 1.315 . S
C120 O115 1.279 . S
C121 O122 1.315 . S
C121 O123 1.279 . S
O122 Cd114 2.223 . S
O122 C121 1.315 . S
O123 Cd113 2.240 . S
O123 C121 1.279 . S
O124 Cd114 2.297 . S
O124 C119 1.247 . S
O125 Cd114 2.439 . S
O125 C119 1.208 . S
O126 Cd127 2.223 . S
O126 C134 1.315 . S
Cd127 O126 2.223 . S
Cd127 O130 2.297 . S
Cd127 O131 2.439 . S
Cd127 O137 2.240 . S
Cd128 O129 2.240 . S
Cd128 O136 2.223 . S
Cd128 O138 2.297 . S
Cd128 O139 2.439 . S
O129 Cd128 2.240 . S
O129 C134 1.279 . S
O130 Cd127 2.297 . S
O130 C132 1.247 . S
O131 Cd127 2.439 . S
O131 C132 1.208 . S
C132 O130 1.247 . S
C132 O131 1.208 . S
C133 O138 1.247 . S
C133 O139 1.208 . S
C134 O126 1.315 . S
C134 O129 1.279 . S
C135 O136 1.315 . S
C135 O137 1.279 . S
O136 Cd128 2.223 . S
O136 C135 1.315 . S
O137 Cd127 2.240 . S
O137 C135 1.279 . S
O138 Cd128 2.297 . S
O138 C133 1.247 . S
O139 Cd128 2.439 . S
O139 C133 1.208 . S
O140 Cd141 2.223 . S
O140 C148 1.315 . S
Cd141 O140 2.223 . S
Cd141 O144 2.297 . S
Cd141 O145 2.439 . S
Cd141 O151 2.240 . S
Cd142 O143 2.240 . S
Cd142 O150 2.223 . S
Cd142 O152 2.297 . S
Cd142 O153 2.439 . S
O143 Cd142 2.240 . S
O143 C148 1.279 . S
O144 Cd141 2.297 . S
O144 C146 1.247 . S
O145 Cd141 2.439 . S
O145 C146 1.208 . S
C146 O144 1.247 . S
C146 O145 1.208 . S
C147 O152 1.247 . S
C147 O153 1.208 . S
C148 O140 1.315 . S
C148 O143 1.279 . S
C149 O150 1.315 . S
C149 O151 1.279 . S
O150 Cd142 2.223 . S
O150 C149 1.315 . S
O151 Cd141 2.240 . S
O151 C149 1.279 . S
O152 Cd142 2.297 . S
O152 C147 1.247 . S
O153 Cd142 2.439 . S
O153 C147 1.208 . S
O154 Cd155 2.223 . S
O154 C162 1.315 . S
Cd155 O154 2.223 . S
Cd155 O158 2.297 . S
Cd155 O159 2.439 . S
Cd155 O165 2.240 . S
Cd156 O157 2.240 . S
Cd156 O164 2.223 . S
Cd156 O166 2.297 . S
Cd156 O167 2.439 . S
O157 Cd156 2.240 . S
O157 C162 1.279 . S
O158 Cd155 2.297 . S
O158 C160 1.247 . S
O159 Cd155 2.439 . S
O159 C160 1.208 . S
C160 O158 1.247 . S
C160 O159 1.208 . S
C161 O166 1.247 . S
C161 O167 1.208 . S
C162 O154 1.315 . S
C162 O157 1.279 . S
C163 O164 1.315 . S
C163 O165 1.279 . S
O164 Cd156 2.223 . S
O164 C163 1.315 . S
O165 Cd155 2.240 . S
O165 C163 1.279 . S
O166 Cd156 2.297 . S
O166 C161 1.247 . S
O167 Cd156 2.439 . S
O167 C161 1.208 . S
H168 C180 0.930 . S
H169 C182 0.930 . S
H170 C183 0.930 . S
H171 C187 0.959 . S
H172 C187 0.959 . S
H173 C187 0.961 . S
H174 C188 0.960 . S
H175 C188 0.961 . S
H176 C188 0.959 . S
H177 C191 0.929 . S
H178 C192 0.931 . S
H179 C194 0.930 . S
C180 H168 0.930 . S
C180 C181 1.399 . S
C180 C185 1.399 . S
C181 C180 1.399 . S
C181 C182 1.376 . S
C182 H169 0.930 . S
C182 C181 1.376 . S
C182 C183 1.388 . S
C183 H170 0.930 . S
C183 C182 1.388 . S
C183 C184 1.390 . S
C184 C183 1.390 . S
C184 C185 1.394 . S
C184 C190 1.465 . S
C185 C180 1.399 . S
C185 C184 1.394 . S
C185 C186 1.516 . S
C186 C185 1.516 . S
C186 C187 1.502 . S
C186 C188 1.561 . S
C186 C189 1.526 . S
C187 H171 0.959 . S
C187 H172 0.959 . S
C187 H173 0.961 . S
C187 C186 1.502 . S
C188 H174 0.960 . S
C188 H175 0.961 . S
C188 H176 0.959 . S
C188 C186 1.561 . S
C189 C186 1.526 . S
C189 C190 1.396 . S
C189 C194 1.390 . S
C190 C184 1.465 . S
C190 C189 1.396 . S
C190 C191 1.399 . S
C191 H177 0.929 . S
C191 C190 1.399 . S
C191 C192 1.385 . S
C192 H178 0.931 . S
C192 C191 1.385 . S
C192 C193 1.389 . S
C193 C192 1.389 . S
C193 C194 1.387 . S
C194 H179 0.930 . S
C194 C189 1.390 . S
C194 C193 1.387 . S
H195 C207 0.930 . S
H196 C209 0.930 . S
H197 C210 0.930 . S
H198 C214 0.959 . S
H199 C214 0.959 . S
H200 C214 0.961 . S
H201 C215 0.960 . S
H202 C215 0.961 . S
H203 C215 0.959 . S
H204 C218 0.929 . S
H205 C219 0.931 . S
H206 C221 0.930 . S
C207 H195 0.930 . S
C207 C208 1.399 . S
C207 C212 1.399 . S
C208 C207 1.399 . S
C208 C209 1.376 . S
C209 H196 0.930 . S
C209 C208 1.376 . S
C209 C210 1.388 . S
C210 H197 0.930 . S
C210 C209 1.388 . S
C210 C211 1.390 . S
C211 C210 1.390 . S
C211 C212 1.394 . S
C211 C217 1.465 . S
C212 C207 1.399 . S
C212 C211 1.394 . S
C212 C213 1.516 . S
C213 C212 1.516 . S
C213 C214 1.502 . S
C213 C215 1.561 . S
C213 C216 1.526 . S
C214 H198 0.959 . S
C214 H199 0.959 . S
C214 H200 0.961 . S
C214 C213 1.502 . S
C215 H201 0.960 . S
C215 H202 0.961 . S
C215 H203 0.959 . S
C215 C213 1.561 . S
C216 C213 1.526 . S
C216 C217 1.396 . S
C216 C221 1.390 . S
C217 C211 1.465 . S
C217 C216 1.396 . S
C217 C218 1.399 . S
C218 H204 0.929 . S
C218 C217 1.399 . S
C218 C219 1.385 . S
C219 H205 0.931 . S
C219 C218 1.385 . S
C219 C220 1.389 . S
C220 C219 1.389 . S
C220 C221 1.387 . S
C221 H206 0.930 . S
C221 C216 1.390 . S
C221 C220 1.387 . S
H222 C234 0.930 . S
H223 C236 0.930 . S
H224 C237 0.930 . S
H225 C241 0.959 . S
H226 C241 0.959 . S
H227 C241 0.961 . S
H228 C242 0.960 . S
H229 C242 0.961 . S
H230 C242 0.959 . S
H231 C245 0.929 . S
H232 C246 0.931 . S
H233 C248 0.930 . S
C234 H222 0.930 . S
C234 C235 1.399 . S
C234 C239 1.399 . S
C235 C234 1.399 . S
C235 C236 1.376 . S
C236 H223 0.930 . S
C236 C235 1.376 . S
C236 C237 1.388 . S
C237 H224 0.930 . S
C237 C236 1.388 . S
C237 C238 1.390 . S
C238 C237 1.390 . S
C238 C239 1.394 . S
C238 C244 1.465 . S
C239 C234 1.399 . S
C239 C238 1.394 . S
C239 C240 1.516 . S
C240 C239 1.516 . S
C240 C241 1.502 . S
C240 C242 1.561 . S
C240 C243 1.526 . S
C241 H225 0.959 . S
C241 H226 0.959 . S
C241 H227 0.961 . S
C241 C240 1.502 . S
C242 H228 0.960 . S
C242 H229 0.961 . S
C242 H230 0.959 . S
C242 C240 1.561 . S
C243 C240 1.526 . S
C243 C244 1.396 . S
C243 C248 1.390 . S
C244 C238 1.465 . S
C244 C243 1.396 . S
C244 C245 1.399 . S
C245 H231 0.929 . S
C245 C244 1.399 . S
C245 C246 1.385 . S
C246 H232 0.931 . S
C246 C245 1.385 . S
C246 C247 1.389 . S
C247 C246 1.389 . S
C247 C248 1.387 . S
C248 H233 0.930 . S
C248 C243 1.390 . S
C248 C247 1.387 . S
H249 C261 0.930 . S
H250 C263 0.930 . S
H251 C264 0.930 . S
H252 C268 0.959 . S
H253 C268 0.959 . S
H254 C268 0.961 . S
H255 C269 0.960 . S
H256 C269 0.961 1_554 S
H257 C269 0.959 . S
H258 C272 0.929 . S
H259 C273 0.931 . S
H260 C275 0.930 . S
C261 H249 0.930 . S
C261 C262 1.399 . S
C261 C266 1.399 . S
C262 C261 1.399 . S
C262 C263 1.376 . S
C263 H250 0.930 . S
C263 C262 1.376 . S
C263 C264 1.388 . S
C264 H251 0.930 . S
C264 C263 1.388 . S
C264 C265 1.390 . S
C265 C264 1.390 . S
C265 C266 1.394 . S
C265 C271 1.465 . S
C266 C261 1.399 . S
C266 C265 1.394 . S
C266 C267 1.516 . S
C267 C266 1.516 . S
C267 C268 1.502 . S
C267 C269 1.561 . S
C267 C270 1.526 . S
C268 H252 0.959 . S
C268 H253 0.959 . S
C268 H254 0.961 . S
C268 C267 1.502 . S
C269 H255 0.960 . S
C269 H256 0.961 1_556 S
C269 H257 0.959 . S
C269 C267 1.561 . S
C270 C267 1.526 . S
C270 C271 1.396 . S
C270 C275 1.390 . S
C271 C265 1.465 . S
C271 C270 1.396 . S
C271 C272 1.399 . S
C272 H258 0.929 . S
C272 C271 1.399 . S
C272 C273 1.385 . S
C273 H259 0.931 . S
C273 C272 1.385 . S
C273 C274 1.389 . S
C274 C273 1.389 . S
C274 C275 1.387 . S
C275 H260 0.930 . S
C275 C270 1.390 . S
C275 C274 1.387 . S
H276 C288 0.930 . S
H277 C290 0.930 . S
H278 C291 0.930 . S
H279 C295 0.959 . S
H280 C295 0.959 . S
H281 C295 0.961 . S
H282 C296 0.960 1_556 S
H283 C296 0.964 . S
H284 C296 0.959 . S
H285 C299 0.929 . S
H286 C300 0.931 . S
H287 C302 0.930 . S
C288 H276 0.930 . S
C288 C289 1.399 . S
C288 C293 1.399 . S
C289 C288 1.399 . S
C289 C290 1.376 . S
C290 H277 0.930 . S
C290 C289 1.376 . S
C290 C291 1.388 . S
C291 H278 0.930 . S
C291 C290 1.388 . S
C291 C292 1.390 . S
C292 C291 1.390 . S
C292 C293 1.394 . S
C292 C298 1.465 . S
C293 C288 1.399 . S
C293 C292 1.394 . S
C293 C294 1.516 . S
C294 C293 1.516 . S
C294 C295 1.502 . S
C294 C296 1.561 . S
C294 C297 1.526 . S
C295 H279 0.959 . S
C295 H280 0.959 . S
C295 H281 0.961 . S
C295 C294 1.502 . S
C296 H282 0.960 1_554 S
C296 H283 0.964 . S
C296 H284 0.959 . S
C296 C294 1.561 . S
C297 C294 1.526 . S
C297 C298 1.396 . S
C297 C302 1.390 . S
C298 C292 1.465 . S
C298 C297 1.396 . S
C298 C299 1.399 . S
C299 H285 0.929 . S
C299 C298 1.399 . S
C299 C300 1.385 . S
C300 H286 0.931 . S
C300 C299 1.385 . S
C300 C301 1.389 . S
C301 C300 1.389 . S
C301 C302 1.387 . S
C302 H287 0.930 . S
C302 C297 1.390 . S
C302 C301 1.387 . S
H303 C315 0.930 . S
H304 C317 0.930 . S
H305 C318 0.930 . S
H306 C322 0.959 . S
H307 C322 0.959 . S
H308 C322 0.961 . S
H309 C323 0.960 . S
H310 C323 0.961 . S
H311 C323 0.959 . S
H312 C326 0.929 . S
H313 C327 0.931 . S
H314 C329 0.930 . S
C315 H303 0.930 . S
C315 C316 1.399 . S
C315 C320 1.399 . S
C316 C315 1.399 . S
C316 C317 1.376 . S
C317 H304 0.930 . S
C317 C316 1.376 . S
C317 C318 1.388 . S
C318 H305 0.930 . S
C318 C317 1.388 . S
C318 C319 1.390 . S
C319 C318 1.390 . S
C319 C320 1.394 . S
C319 C325 1.465 . S
C320 C315 1.399 . S
C320 C319 1.394 . S
C320 C321 1.516 . S
C321 C320 1.516 . S
C321 C322 1.502 . S
C321 C323 1.561 . S
C321 C324 1.526 . S
C322 H306 0.959 . S
C322 H307 0.959 . S
C322 H308 0.961 . S
C322 C321 1.502 . S
C323 H309 0.960 . S
C323 H310 0.961 . S
C323 H311 0.959 . S
C323 C321 1.561 . S
C324 C321 1.526 . S
C324 C325 1.396 . S
C324 C329 1.390 . S
C325 C319 1.465 . S
C325 C324 1.396 . S
C325 C326 1.399 . S
C326 H312 0.929 . S
C326 C325 1.399 . S
C326 C327 1.385 . S
C327 H313 0.931 . S
C327 C326 1.385 . S
C327 C328 1.389 . S
C328 C327 1.389 . S
C328 C329 1.387 . S
C329 H314 0.930 . S
C329 C324 1.390 . S
C329 C328 1.387 . S
H330 C342 0.930 . S
H331 C344 0.930 . S
H332 C345 0.930 . S
H333 C349 0.959 . S
H334 C349 0.959 . S
H335 C349 0.961 . S
H336 C350 0.960 . S
H337 C350 0.961 . S
H338 C350 0.959 . S
H339 C353 0.929 . S
H340 C354 0.931 . S
H341 C356 0.930 . S
C342 H330 0.930 . S
C342 C343 1.399 . S
C342 C347 1.399 . S
C343 C342 1.399 . S
C343 C344 1.376 . S
C344 H331 0.930 . S
C344 C343 1.376 . S
C344 C345 1.388 . S
C345 H332 0.930 . S
C345 C344 1.388 . S
C345 C346 1.390 . S
C346 C345 1.390 . S
C346 C347 1.394 . S
C346 C352 1.465 . S
C347 C342 1.399 . S
C347 C346 1.394 . S
C347 C348 1.516 . S
C348 C347 1.516 . S
C348 C349 1.502 . S
C348 C350 1.561 . S
C348 C351 1.526 . S
C349 H333 0.959 . S
C349 H334 0.959 . S
C349 H335 0.961 . S
C349 C348 1.502 . S
C350 H336 0.960 . S
C350 H337 0.961 . S
C350 H338 0.959 . S
C350 C348 1.561 . S
C351 C348 1.526 . S
C351 C352 1.396 . S
C351 C356 1.390 . S
C352 C346 1.465 . S
C352 C351 1.396 . S
C352 C353 1.399 . S
C353 H339 0.929 . S
C353 C352 1.399 . S
C353 C354 1.385 . S
C354 H340 0.931 . S
C354 C353 1.385 . S
C354 C355 1.389 . S
C355 C354 1.389 . S
C355 C356 1.387 . S
C356 H341 0.930 . S
C356 C351 1.390 . S
C356 C355 1.387 . S
H357 C369 0.930 . S
H358 C371 0.930 . S
H359 C372 0.930 . S
H360 C376 0.959 . S
H361 C376 0.959 . S
H362 C376 0.961 . S
H363 C377 0.960 . S
H364 C377 0.961 . S
H365 C377 0.959 . S
H366 C380 0.929 . S
H367 C381 0.931 . S
H368 C383 0.930 . S
C369 H357 0.930 . S
C369 C370 1.399 . S
C369 C374 1.399 . S
C370 C369 1.399 . S
C370 C371 1.376 . S
C371 H358 0.930 . S
C371 C370 1.376 . S
C371 C372 1.388 . S
C372 H359 0.930 . S
C372 C371 1.388 . S
C372 C373 1.390 . S
C373 C372 1.390 . S
C373 C374 1.394 . S
C373 C379 1.465 . S
C374 C369 1.399 . S
C374 C373 1.394 . S
C374 C375 1.516 . S
C375 C374 1.516 . S
C375 C376 1.502 . S
C375 C377 1.561 . S
C375 C378 1.526 . S
C376 H360 0.959 . S
C376 H361 0.959 . S
C376 H362 0.961 . S
C376 C375 1.502 . S
C377 H363 0.960 . S
C377 H364 0.961 . S
C377 H365 0.959 . S
C377 C375 1.561 . S
C378 C375 1.526 . S
C378 C379 1.396 . S
C378 C383 1.390 . S
C379 C373 1.465 . S
C379 C378 1.396 . S
C379 C380 1.399 . S
C380 H366 0.929 . S
C380 C379 1.399 . S
C380 C381 1.385 . S
C381 H367 0.931 . S
C381 C380 1.385 . S
C381 C382 1.389 . S
C382 C381 1.389 . S
C382 C383 1.387 . S
C383 H368 0.930 . S
C383 C378 1.390 . S
C383 C382 1.387 . S
H384 C396 0.930 . S
H385 C398 0.930 1_554 S
H386 C399 0.930 . S
H387 C403 0.959 . S
H388 C403 0.959 . S
H389 C403 0.961 . S
H390 C404 0.960 . S
H391 C404 0.961 . S
H392 C404 0.959 . S
H393 C407 0.929 . S
H394 C408 0.931 . S
H395 C410 0.930 . S
C396 H384 0.930 . S
C396 C397 1.399 1_556 S
C396 C401 1.399 . S
C397 C396 1.399 1_554 S
C397 C398 1.376 1_554 S
C398 H385 0.930 1_556 S
C398 C397 1.376 1_556 S
C398 C399 1.388 . S
C399 H386 0.930 . S
C399 C398 1.388 . S
C399 C400 1.390 . S
C400 C399 1.390 . S
C400 C401 1.394 . S
C400 C406 1.465 . S
C401 C396 1.399 . S
C401 C400 1.394 . S
C401 C402 1.516 . S
C402 C401 1.516 . S
C402 C403 1.502 . S
C402 C404 1.561 . S
C402 C405 1.526 . S
C403 H387 0.959 . S
C403 H388 0.959 . S
C403 H389 0.961 . S
C403 C402 1.502 . S
C404 H390 0.960 . S
C404 H391 0.961 . S
C404 H392 0.959 . S
C404 C402 1.561 . S
C405 C402 1.526 . S
C405 C406 1.396 . S
C405 C410 1.390 . S
C406 C400 1.465 . S
C406 C405 1.396 . S
C406 C407 1.399 . S
C407 H393 0.929 . S
C407 C406 1.399 . S
C407 C408 1.385 . S
C408 H394 0.931 . S
C408 C407 1.385 . S
C408 C409 1.389 . S
C409 C408 1.389 . S
C409 C410 1.387 . S
C410 H395 0.930 . S
C410 C405 1.390 . S
C410 C409 1.387 . S
H411 C423 0.930 . S
H412 C425 0.930 . S
H413 C426 0.930 . S
H414 C430 0.959 . S
H415 C430 0.959 . S
H416 C430 0.961 . S
H417 C431 0.960 . S
H418 C431 0.961 . S
H419 C431 0.959 . S
H420 C434 0.929 . S
H421 C435 0.920 1_556 S
H422 C437 0.930 . S
C423 H411 0.930 . S
C423 C424 1.399 . S
C423 C428 1.399 . S
C424 C423 1.399 . S
C424 C425 1.376 . S
C425 H412 0.930 . S
C425 C424 1.376 . S
C425 C426 1.388 . S
C426 H413 0.930 . S
C426 C425 1.388 . S
C426 C427 1.390 . S
C427 C426 1.390 . S
C427 C428 1.394 . S
C427 C433 1.465 . S
C428 C423 1.399 . S
C428 C427 1.394 . S
C428 C429 1.516 . S
C429 C428 1.516 . S
C429 C430 1.502 . S
C429 C431 1.561 . S
C429 C432 1.526 . S
C430 H414 0.959 . S
C430 H415 0.959 . S
C430 H416 0.961 . S
C430 C429 1.502 . S
C431 H417 0.960 . S
C431 H418 0.961 . S
C431 H419 0.959 . S
C431 C429 1.561 . S
C432 C429 1.526 . S
C432 C433 1.396 . S
C432 C437 1.390 . S
C433 C427 1.465 . S
C433 C432 1.396 . S
C433 C434 1.399 . S
C434 H420 0.929 . S
C434 C433 1.399 . S
C434 C435 1.398 . S
C435 H421 0.920 1_554 S
C435 C434 1.398 . S
C435 C436 1.388 1_554 S
C436 C435 1.388 1_556 S
C436 C437 1.387 1_556 S
C437 H422 0.930 . S
C437 C432 1.390 . S
C437 C436 1.387 1_554 S
H438 C450 0.930 . S
H439 C452 0.930 . S
H440 C453 0.930 . S
H441 C457 0.959 . S
H442 C457 0.959 . S
H443 C457 0.961 . S
H444 C458 0.960 . S
H445 C458 0.961 . S
H446 C458 0.959 . S
H447 C461 0.929 . S
H448 C462 0.931 . S
H449 C464 0.930 . S
C450 H438 0.930 . S
C450 C451 1.399 . S
C450 C455 1.399 . S
C451 C450 1.399 . S
C451 C452 1.376 . S
C452 H439 0.930 . S
C452 C451 1.376 . S
C452 C453 1.388 . S
C453 H440 0.930 . S
C453 C452 1.388 . S
C453 C454 1.390 . S
C454 C453 1.390 . S
C454 C455 1.394 . S
C454 C460 1.465 . S
C455 C450 1.399 . S
C455 C454 1.394 . S
C455 C456 1.516 . S
C456 C455 1.516 . S
C456 C457 1.502 . S
C456 C458 1.561 . S
C456 C459 1.526 . S
C457 H441 0.959 . S
C457 H442 0.959 . S
C457 H443 0.961 . S
C457 C456 1.502 . S
C458 H444 0.960 . S
C458 H445 0.961 . S
C458 H446 0.959 . S
C458 C456 1.561 . S
C459 C456 1.526 . S
C459 C460 1.396 . S
C459 C464 1.390 . S
C460 C454 1.465 . S
C460 C459 1.396 . S
C460 C461 1.399 . S
C461 H447 0.929 . S
C461 C460 1.399 . S
C461 C462 1.385 . S
C462 H448 0.931 . S
C462 C461 1.385 . S
C462 C463 1.389 . S
C463 C462 1.389 . S
C463 C464 1.387 . S
C464 H449 0.930 . S
C464 C459 1.390 . S
C464 C463 1.387 . S
H465 C477 0.930 . S
H466 C479 0.930 . S
H467 C480 0.930 . S
H468 C484 0.959 . S
H469 C484 0.959 . S
H470 C484 0.961 . S
H471 C485 0.960 . S
H472 C485 0.961 . S
H473 C485 0.959 . S
H474 C488 0.929 . S
H475 C489 0.931 . S
H476 C491 0.930 . S
C477 H465 0.930 . S
C477 C478 1.399 . S
C477 C482 1.399 . S
C478 C477 1.399 . S
C478 C479 1.376 . S
C479 H466 0.930 . S
C479 C478 1.376 . S
C479 C480 1.388 . S
C480 H467 0.930 . S
C480 C479 1.388 . S
C480 C481 1.390 . S
C481 C480 1.390 . S
C481 C482 1.394 . S
C481 C487 1.465 . S
C482 C477 1.399 . S
C482 C481 1.394 . S
C482 C483 1.516 . S
C483 C482 1.516 . S
C483 C484 1.502 . S
C483 C485 1.561 . S
C483 C486 1.526 . S
C484 H468 0.959 . S
C484 H469 0.959 . S
C484 H470 0.961 . S
C484 C483 1.502 . S
C485 H471 0.960 . S
C485 H472 0.961 . S
C485 H473 0.959 . S
C485 C483 1.561 . S
C486 C483 1.526 . S
C486 C487 1.396 . S
C486 C491 1.390 . S
C487 C481 1.465 . S
C487 C486 1.396 . S
C487 C488 1.399 . S
C488 H474 0.929 . S
C488 C487 1.399 . S
C488 C489 1.385 . S
C489 H475 0.931 . S
C489 C488 1.385 . S
C489 C490 1.389 . S
C490 C489 1.389 . S
C490 C491 1.387 . S
C491 H476 0.930 . S
C491 C486 1.390 . S
C491 C490 1.387 . S
H492 C504 0.930 . S
H493 C506 0.930 . S
H494 C507 0.930 . S
H495 C511 0.959 . S
H496 C511 0.959 . S
H497 C511 0.961 . S
H498 C512 0.960 . S
H499 C512 0.961 . S
H500 C512 0.959 . S
H501 C515 0.929 . S
H502 C516 0.931 . S
H503 C518 0.930 . S
C504 H492 0.930 . S
C504 C505 1.399 . S
C504 C509 1.399 . S
C505 C504 1.399 . S
C505 C506 1.376 . S
C506 H493 0.930 . S
C506 C505 1.376 . S
C506 C507 1.388 . S
C507 H494 0.930 . S
C507 C506 1.388 . S
C507 C508 1.390 . S
C508 C507 1.390 . S
C508 C509 1.394 . S
C508 C514 1.465 1_655 S
C509 C504 1.399 . S
C509 C508 1.394 . S
C509 C510 1.516 1_655 S
C510 C509 1.516 1_455 S
C510 C511 1.502 . S
C510 C512 1.561 . S
C510 C513 1.526 . S
C511 H495 0.959 . S
C511 H496 0.959 . S
C511 H497 0.961 . S
C511 C510 1.502 . S
C512 H498 0.960 . S
C512 H499 0.961 . S
C512 H500 0.959 . S
C512 C510 1.561 . S
C513 C510 1.526 . S
C513 C514 1.396 . S
C513 C518 1.390 . S
C514 C508 1.465 1_455 S
C514 C513 1.396 . S
C514 C515 1.399 . S
C515 H501 0.929 . S
C515 C514 1.399 . S
C515 C516 1.385 . S
C516 H502 0.931 . S
C516 C515 1.385 . S
C516 C517 1.389 . S
C517 C516 1.389 . S
C517 C518 1.387 . S
C518 H503 0.930 . S
C518 C513 1.390 . S
C518 C517 1.387 . S
H519 C531 0.930 . S
H520 C533 0.930 . S
H521 C534 0.930 . S
H522 C538 0.959 . S
H523 C538 0.959 . S
H524 C538 0.961 . S
H525 C539 0.960 . S
H526 C539 0.961 . S
H527 C539 0.959 . S
H528 C542 0.929 . S
H529 C543 0.931 . S
H530 C545 0.930 . S
C531 H519 0.930 . S
C531 C532 1.399 . S
C531 C536 1.399 . S
C532 C531 1.399 . S
C532 C533 1.376 . S
C533 H520 0.930 . S
C533 C532 1.376 . S
C533 C534 1.388 . S
C534 H521 0.930 . S
C534 C533 1.388 . S
C534 C535 1.390 . S
C535 C534 1.390 . S
C535 C536 1.394 . S
C535 C541 1.465 1_565 S
C536 C531 1.399 . S
C536 C535 1.394 . S
C536 C537 1.516 . S
C537 C536 1.516 . S
C537 C538 1.502 . S
C537 C539 1.561 . S
C537 C540 1.526 1_565 S
C538 H522 0.959 . S
C538 H523 0.959 . S
C538 H524 0.961 . S
C538 C537 1.502 . S
C539 H525 0.960 . S
C539 H526 0.961 . S
C539 H527 0.959 . S
C539 C537 1.561 . S
C540 C537 1.526 1_545 S
C540 C541 1.396 . S
C540 C545 1.390 . S
C541 C535 1.465 1_545 S
C541 C540 1.396 . S
C541 C542 1.399 . S
C542 H528 0.929 . S
C542 C541 1.399 . S
C542 C543 1.385 . S
C543 H529 0.931 . S
C543 C542 1.385 . S
C543 C544 1.389 . S
C544 C543 1.389 . S
C544 C545 1.387 . S
C545 H530 0.930 . S
C545 C540 1.390 . S
C545 C544 1.387 . S
H546 C558 0.930 . S
H547 C560 0.930 . S
H548 C561 0.930 . S
H549 C565 0.959 . S
H550 C565 0.959 . S
H551 C565 0.961 . S
H552 C566 0.960 . S
H553 C566 0.961 . S
H554 C566 0.959 . S
H555 C569 0.929 . S
H556 C570 0.931 . S
H557 C572 0.930 . S
C558 H546 0.930 . S
C558 C559 1.399 . S
C558 C563 1.399 . S
C559 C558 1.399 . S
C559 C560 1.376 . S
C560 H547 0.930 . S
C560 C559 1.376 . S
C560 C561 1.388 . S
C561 H548 0.930 . S
C561 C560 1.388 . S
C561 C562 1.390 . S
C562 C561 1.390 . S
C562 C563 1.394 . S
C562 C568 1.465 . S
C563 C558 1.399 . S
C563 C562 1.394 . S
C563 C564 1.516 . S
C564 C563 1.516 . S
C564 C565 1.502 . S
C564 C566 1.561 . S
C564 C567 1.526 . S
C565 H549 0.959 . S
C565 H550 0.959 . S
C565 H551 0.961 . S
C565 C564 1.502 . S
C566 H552 0.960 . S
C566 H553 0.961 . S
C566 H554 0.959 . S
C566 C564 1.561 . S
C567 C564 1.526 . S
C567 C568 1.396 . S
C567 C572 1.390 . S
C568 C562 1.465 . S
C568 C567 1.396 . S
C568 C569 1.399 . S
C569 H555 0.929 . S
C569 C568 1.399 . S
C569 C570 1.385 . S
C570 H556 0.931 . S
C570 C569 1.385 . S
C570 C571 1.389 . S
C571 C570 1.389 . S
C571 C572 1.387 . S
C572 H557 0.930 . S
C572 C567 1.390 . S
C572 C571 1.387 . S
H573 C585 0.930 . S
H574 C587 0.930 . S
H575 C588 0.930 . S
H576 C592 0.959 1_455 S
H577 C592 0.959 . S
H578 C592 0.961 1_455 S
H579 C593 0.960 . S
H580 C593 0.961 . S
H581 C593 0.959 . S
H582 C596 0.929 . S
H583 C597 0.931 . S
H584 C599 0.930 . S
C585 H573 0.930 . S
C585 C586 1.399 . S
C585 C590 1.399 . S
C586 C585 1.399 . S
C586 C587 1.376 . S
C587 H574 0.930 . S
C587 C586 1.376 . S
C587 C588 1.388 . S
C588 H575 0.930 . S
C588 C587 1.388 . S
C588 C589 1.390 . S
C589 C588 1.390 . S
C589 C590 1.394 . S
C589 C595 1.465 1_455 S
C590 C585 1.399 . S
C590 C589 1.394 . S
C590 C591 1.516 1_455 S
C591 C590 1.516 1_655 S
C591 C592 1.502 . S
C591 C593 1.561 . S
C591 C594 1.526 . S
C592 H576 0.959 1_655 S
C592 H577 0.959 . S
C592 H578 0.961 1_655 S
C592 C591 1.502 . S
C593 H579 0.960 . S
C593 H580 0.961 . S
C593 H581 0.959 . S
C593 C591 1.561 . S
C594 C591 1.526 . S
C594 C595 1.396 . S
C594 C599 1.390 . S
C595 C589 1.465 1_655 S
C595 C594 1.396 . S
C595 C596 1.399 . S
C596 H582 0.929 . S
C596 C595 1.399 . S
C596 C597 1.385 . S
C597 H583 0.931 . S
C597 C596 1.385 . S
C597 C598 1.389 . S
C598 C597 1.389 . S
C598 C599 1.387 . S
C599 H584 0.930 . S
C599 C594 1.390 . S
C599 C598 1.387 . S
H600 C612 0.919 1_554 S
H601 C614 0.930 . S
H602 C615 0.930 . S
H603 C619 0.959 . S
H604 C619 0.959 . S
H605 C619 0.961 . S
H606 C620 0.960 . S
H607 C620 0.961 . S
H608 C620 0.959 . S
H609 C623 0.929 . S
H610 C624 0.931 . S
H611 C626 0.930 . S
C612 H600 0.919 1_556 S
C612 C613 1.412 . S
C612 C617 1.397 1_556 S
C613 C612 1.412 . S
C613 C614 1.376 . S
C614 H601 0.930 . S
C614 C613 1.376 . S
C614 C615 1.388 . S
C615 H602 0.930 . S
C615 C614 1.388 . S
C615 C616 1.390 . S
C616 C615 1.390 . S
C616 C617 1.394 1_556 S
C616 C622 1.465 1_545 S
C617 C612 1.397 1_554 S
C617 C616 1.394 1_554 S
C617 C618 1.516 . S
C618 C617 1.516 . S
C618 C619 1.502 . S
C618 C620 1.561 . S
C618 C621 1.526 1_545 S
C619 H603 0.959 . S
C619 H604 0.959 . S
C619 H605 0.961 . S
C619 C618 1.502 . S
C620 H606 0.960 . S
C620 H607 0.961 . S
C620 H608 0.959 . S
C620 C618 1.561 . S
C621 C618 1.526 1_565 S
C621 C622 1.396 1_554 S
C621 C626 1.390 . S
C622 C616 1.465 1_565 S
C622 C621 1.396 1_556 S
C622 C623 1.399 . S
C623 H609 0.929 . S
C623 C622 1.399 . S
C623 C624 1.385 . S
C624 H610 0.931 . S
C624 C623 1.385 . S
C624 C625 1.389 1_556 S
C625 C624 1.389 1_554 S
C625 C626 1.387 . S
C626 H611 0.930 . S
C626 C621 1.390 . S
C626 C625 1.387 . S
H627 C639 0.930 . S
H628 C641 0.930 . S
H629 C642 0.930 . S
H630 C646 0.959 . S
H631 C646 0.959 . S
H632 C646 0.961 . S
H633 C647 0.960 . S
H634 C647 0.961 . S
H635 C647 0.959 . S
H636 C650 0.929 . S
H637 C651 0.931 . S
H638 C653 0.930 . S
C639 H627 0.930 . S
C639 C640 1.399 . S
C639 C644 1.399 . S
C640 C639 1.399 . S
C640 C641 1.376 . S
C641 H628 0.930 . S
C641 C640 1.376 . S
C641 C642 1.388 . S
C642 H629 0.930 . S
C642 C641 1.388 . S
C642 C643 1.390 . S
C643 C642 1.390 . S
C643 C644 1.394 . S
C643 C649 1.465 . S
C644 C639 1.399 . S
C644 C643 1.394 . S
C644 C645 1.516 . S
C645 C644 1.516 . S
C645 C646 1.502 . S
C645 C647 1.561 . S
C645 C648 1.526 . S
C646 H630 0.959 . S
C646 H631 0.959 . S
C646 H632 0.961 . S
C646 C645 1.502 . S
C647 H633 0.960 . S
C647 H634 0.961 . S
C647 H635 0.959 . S
C647 C645 1.561 . S
C648 C645 1.526 . S
C648 C649 1.396 . S
C648 C653 1.390 . S
C649 C643 1.465 . S
C649 C648 1.396 . S
C649 C650 1.399 . S
C650 H636 0.929 . S
C650 C649 1.399 . S
C650 C651 1.385 . S
C651 H637 0.931 . S
C651 C650 1.385 . S
C651 C652 1.389 . S
C652 C651 1.389 . S
C652 C653 1.387 . S
C653 H638 0.930 . S
C653 C648 1.390 . S
C653 C652 1.387 . S
H654 C666 0.930 . S
H655 C668 0.930 . S
H656 C669 0.930 . S
H657 C673 0.959 . S
H658 C673 0.959 . S
H659 C673 0.961 . S
H660 C674 0.960 . S
H661 C674 0.961 . S
H662 C674 0.959 . S
H663 C677 0.929 . S
H664 C678 0.931 . S
H665 C680 0.930 . S
C666 H654 0.930 . S
C666 C667 1.399 . S
C666 C671 1.399 . S
C667 C666 1.399 . S
C667 C668 1.376 . S
C668 H655 0.930 . S
C668 C667 1.376 . S
C668 C669 1.388 . S
C669 H656 0.930 . S
C669 C668 1.388 . S
C669 C670 1.390 . S
C670 C669 1.390 . S
C670 C671 1.394 . S
C670 C676 1.465 . S
C671 C666 1.399 . S
C671 C670 1.394 . S
C671 C672 1.516 . S
C672 C671 1.516 . S
C672 C673 1.502 . S
C672 C674 1.561 . S
C672 C675 1.526 . S
C673 H657 0.959 . S
C673 H658 0.959 . S
C673 H659 0.961 . S
C673 C672 1.502 . S
C674 H660 0.960 . S
C674 H661 0.961 . S
C674 H662 0.959 . S
C674 C672 1.561 . S
C675 C672 1.526 . S
C675 C676 1.396 . S
C675 C680 1.390 . S
C676 C670 1.465 . S
C676 C675 1.396 . S
C676 C677 1.399 . S
C677 H663 0.929 . S
C677 C676 1.399 . S
C677 C678 1.385 . S
C678 H664 0.931 . S
C678 C677 1.385 . S
C678 C679 1.389 . S
C679 C678 1.389 . S
C679 C680 1.387 . S
C680 H665 0.930 . S
C680 C675 1.390 . S
C680 C679 1.387 . S
H681 C693 0.930 . S
H682 C695 0.930 . S
H683 C696 0.930 . S
H684 C700 0.959 . S
H685 C700 0.959 . S
H686 C700 0.961 . S
H687 C701 0.960 . S
H688 C701 0.961 . S
H689 C701 0.959 . S
H690 C704 0.929 . S
H691 C705 0.931 . S
H692 C707 0.930 . S
C693 H681 0.930 . S
C693 C694 1.399 . S
C693 C698 1.399 . S
C694 C693 1.399 . S
C694 C695 1.376 . S
C695 H682 0.930 . S
C695 C694 1.376 . S
C695 C696 1.388 . S
C696 H683 0.930 . S
C696 C695 1.388 . S
C696 C697 1.390 . S
C697 C696 1.390 . S
C697 C698 1.394 . S
C697 C703 1.465 . S
C698 C693 1.399 . S
C698 C697 1.394 . S
C698 C699 1.516 . S
C699 C698 1.516 . S
C699 C700 1.502 . S
C699 C701 1.561 . S
C699 C702 1.526 . S
C700 H684 0.959 . S
C700 H685 0.959 . S
C700 H686 0.961 . S
C700 C699 1.502 . S
C701 H687 0.960 . S
C701 H688 0.961 . S
C701 H689 0.959 . S
C701 C699 1.561 . S
C702 C699 1.526 . S
C702 C703 1.396 . S
C702 C707 1.390 . S
C703 C697 1.465 . S
C703 C702 1.396 . S
C703 C704 1.399 . S
C704 H690 0.929 . S
C704 C703 1.399 . S
C704 C705 1.385 . S
C705 H691 0.931 . S
C705 C704 1.385 . S
C705 C706 1.389 . S
C706 C705 1.389 . S
C706 C707 1.387 . S
C707 H692 0.930 . S
C707 C702 1.390 . S
C707 C706 1.387 . S
H708 C720 0.930 . S
H709 C722 0.930 . S
H710 C723 0.930 . S
H711 C727 0.959 . S
H712 C727 0.959 . S
H713 C727 0.961 . S
H714 C728 0.960 . S
H715 C728 0.961 . S
H716 C728 0.959 . S
H717 C731 0.929 . S
H718 C732 0.931 . S
H719 C734 0.930 . S
C720 H708 0.930 . S
C720 C721 1.399 . S
C720 C725 1.399 . S
C721 C720 1.399 . S
C721 C722 1.376 . S
C722 H709 0.930 . S
C722 C721 1.376 . S
C722 C723 1.388 . S
C723 H710 0.930 . S
C723 C722 1.388 . S
C723 C724 1.390 . S
C724 C723 1.390 . S
C724 C725 1.394 . S
C724 C730 1.465 . S
C725 C720 1.399 . S
C725 C724 1.394 . S
C725 C726 1.516 . S
C726 C725 1.516 . S
C726 C727 1.502 . S
C726 C728 1.561 . S
C726 C729 1.526 . S
C727 H711 0.959 . S
C727 H712 0.959 . S
C727 H713 0.961 . S
C727 C726 1.502 . S
C728 H714 0.960 . S
C728 H715 0.961 . S
C728 H716 0.959 . S
C728 C726 1.561 . S
C729 C726 1.526 . S
C729 C730 1.396 . S
C729 C734 1.390 . S
C730 C724 1.465 . S
C730 C729 1.396 . S
C730 C731 1.399 . S
C731 H717 0.929 . S
C731 C730 1.399 . S
C731 C732 1.385 . S
C732 H718 0.931 . S
C732 C731 1.385 . S
C732 C733 1.389 . S
C733 C732 1.389 . S
C733 C734 1.387 . S
C734 H719 0.930 . S
C734 C729 1.390 . S
C734 C733 1.387 . S
H735 C747 0.930 . S
H736 C749 0.930 . S
H737 C750 0.930 . S
H738 C754 0.959 . S
H739 C754 0.959 . S
H740 C754 0.961 . S
H741 C755 0.960 . S
H742 C755 0.961 . S
H743 C755 0.959 . S
H744 C758 0.929 . S
H745 C759 0.931 . S
H746 C761 0.930 . S
C747 H735 0.930 . S
C747 C748 1.399 . S
C747 C752 1.399 . S
C748 C747 1.399 . S
C748 C749 1.376 . S
C749 H736 0.930 . S
C749 C748 1.376 . S
C749 C750 1.388 . S
C750 H737 0.930 . S
C750 C749 1.388 . S
C750 C751 1.390 . S
C751 C750 1.390 . S
C751 C752 1.394 . S
C751 C757 1.465 . S
C752 C747 1.399 . S
C752 C751 1.394 . S
C752 C753 1.516 . S
C753 C752 1.516 . S
C753 C754 1.502 . S
C753 C755 1.561 . S
C753 C756 1.526 . S
C754 H738 0.959 . S
C754 H739 0.959 . S
C754 H740 0.961 . S
C754 C753 1.502 . S
C755 H741 0.960 . S
C755 H742 0.961 . S
C755 H743 0.959 . S
C755 C753 1.561 . S
C756 C753 1.526 . S
C756 C757 1.396 . S
C756 C761 1.390 . S
C757 C751 1.465 . S
C757 C756 1.396 . S
C757 C758 1.399 . S
C758 H744 0.929 . S
C758 C757 1.399 . S
C758 C759 1.385 . S
C759 H745 0.931 . S
C759 C758 1.385 . S
C759 C760 1.389 . S
C760 C759 1.389 . S
C760 C761 1.387 . S
C761 H746 0.930 . S
C761 C756 1.390 . S
C761 C760 1.387 . S
H762 C774 0.930 . S
H763 C776 0.930 1_554 S
H764 C777 0.930 . S
H765 C781 0.959 . S
H766 C781 0.959 . S
H767 C781 0.961 . S
H768 C782 0.960 . S
H769 C782 0.961 . S
H770 C782 0.959 . S
H771 C785 0.929 . S
H772 C786 0.931 . S
H773 C788 0.930 . S
C774 H762 0.930 . S
C774 C775 1.399 . S
C774 C779 1.399 . S
C775 C774 1.399 . S
C775 C776 1.376 . S
C776 H763 0.930 1_556 S
C776 C775 1.376 . S
C776 C777 1.388 . S
C777 H764 0.930 . S
C777 C776 1.388 . S
C777 C778 1.390 . S
C778 C777 1.390 . S
C778 C779 1.394 . S
C778 C784 1.465 . S
C779 C774 1.399 . S
C779 C778 1.394 . S
C779 C780 1.516 . S
C780 C779 1.516 . S
C780 C781 1.502 . S
C780 C782 1.561 . S
C780 C783 1.526 . S
C781 H765 0.959 . S
C781 H766 0.959 . S
C781 H767 0.961 . S
C781 C780 1.502 . S
C782 H768 0.960 . S
C782 H769 0.961 . S
C782 H770 0.959 . S
C782 C780 1.561 . S
C783 C780 1.526 . S
C783 C784 1.396 . S
C783 C788 1.390 . S
C784 C778 1.465 . S
C784 C783 1.396 . S
C784 C785 1.399 . S
C785 H771 0.929 . S
C785 C784 1.399 . S
C785 C786 1.385 . S
C786 H772 0.931 . S
C786 C785 1.385 . S
C786 C787 1.389 . S
C787 C786 1.389 . S
C787 C788 1.387 . S
C788 H773 0.930 . S
C788 C783 1.390 . S
C788 C787 1.387 . S
H789 C801 0.930 . S
H790 C803 0.930 . S
H791 C804 0.930 . S
H792 C808 0.959 . S
H793 C808 0.959 . S
H794 C808 0.961 . S
H795 C809 0.960 . S
H796 C809 0.961 . S
H797 C809 0.959 . S
H798 C812 0.929 . S
H799 C813 0.931 . S
H800 C815 0.930 . S
C801 H789 0.930 . S
C801 C802 1.399 . S
C801 C806 1.399 . S
C802 C801 1.399 . S
C802 C803 1.376 . S
C803 H790 0.930 . S
C803 C802 1.376 . S
C803 C804 1.388 . S
C804 H791 0.930 . S
C804 C803 1.388 . S
C804 C805 1.390 . S
C805 C804 1.390 . S
C805 C806 1.394 . S
C805 C811 1.465 . S
C806 C801 1.399 . S
C806 C805 1.394 . S
C806 C807 1.516 . S
C807 C806 1.516 . S
C807 C808 1.502 . S
C807 C809 1.561 . S
C807 C810 1.526 . S
C808 H792 0.959 . S
C808 H793 0.959 . S
C808 H794 0.961 . S
C808 C807 1.502 . S
C809 H795 0.960 . S
C809 H796 0.961 . S
C809 H797 0.959 . S
C809 C807 1.561 . S
C810 C807 1.526 . S
C810 C811 1.396 . S
C810 C815 1.390 . S
C811 C805 1.465 . S
C811 C810 1.396 . S
C811 C812 1.399 . S
C812 H798 0.929 . S
C812 C811 1.399 . S
C812 C813 1.385 . S
C813 H799 0.931 . S
C813 C812 1.385 . S
C813 C814 1.389 . S
C814 C813 1.389 . S
C814 C815 1.387 . S
C815 H800 0.930 . S
C815 C810 1.390 . S
C815 C814 1.387 . S
C181 C9 1.010 . S
C193 C93 0.985 . S
C208 C23 0.928 . S
C220 C107 0.951 . S
C235 C121 0.924 . S
C247 C37 0.914 . S
C262 C51 0.924 . S
C274 C135 0.947 . S
C289 C65 1.022 . S
C301 C149 1.003 . S
C316 C163 1.019 . S
C328 C79 1.029 . S
C343 C120 1.607 . S
C355 C8 1.663 . S
C370 C22 1.662 . S
C382 C134 1.618 . S
C397 C148 1.630 . S
C409 C36 1.656 . S
C424 C162 1.658 . S
C436 C50 1.601 . S
C451 C64 1.657 . S
C463 C92 1.629 . S
C478 C78 1.658 . S
C490 C106 1.601 . S
C505 C160 1.383 . S
C517 C6 1.391 . S
C532 C90 1.407 . S
C544 C20 1.400 . S
C559 C34 1.383 . S
C571 C104 1.376 . S
C586 C118 1.365 . S
C598 C48 1.367 . S
C613 C132 1.407 . S
C625 C62 1.400 . S
C640 C146 1.372 . S
C652 C76 1.379 . S
C667 C7 1.278 . S
C679 C147 1.240 . S
C694 C161 1.229 . S
C706 C21 1.299 . S
C721 C35 1.304 . S
C733 C91 1.231 . S
C748 C49 1.274 . S
C760 C105 1.243 . S
C775 C63 1.248 1_556 S
C787 C119 1.301 . S
C802 C77 1.241 . S
C814 C133 1.304 1_554 S
