# Generated by pormake.
# Topology uol, (4)-cn, num edge types: 1
# Building blocks:
#     Node 0, Type 0, BuildingBlock: NAWXER_clean_sbu_0, # of connection points: 4
#     Node 1, Type 0, BuildingBlock: NAWXER_clean_sbu_0, # of connection points: 4
#     Node 2, Type 0, BuildingBlock: NAWXER_clean_sbu_0, # of connection points: 4
#     Node 3, Type 0, BuildingBlock: NAWXER_clean_sbu_0, # of connection points: 4
#     Node 4, Type 0, BuildingBlock: NAWXER_clean_sbu_0, # of connection points: 4
#     Node 5, Type 0, BuildingBlock: NAWXER_clean_sbu_0, # of connection points: 4
#     Node 6, Type 0, BuildingBlock: NAWXER_clean_sbu_0, # of connection points: 4
#     Node 7, Type 0, BuildingBlock: NAWXER_clean_sbu_0, # of connection points: 4
#     Node 8, Type 0, BuildingBlock: NAWXER_clean_sbu_0, # of connection points: 4
#     Node 9, Type 0, BuildingBlock: NAWXER_clean_sbu_0, # of connection points: 4
#     Node 10, Type 0, BuildingBlock: NAWXER_clean_sbu_0, # of connection points: 4
#     Node 11, Type 0, BuildingBlock: NAWXER_clean_sbu_0, # of connection points: 4
#     Edge 12, Type (0, 0), BuildingBlock: EZIPEK_clean_linker_0, # of connection points: 2
#     Edge 13, Type (0, 0), BuildingBlock: EZIPEK_clean_linker_0, # of connection points: 2
#     Edge 14, Type (0, 0), BuildingBlock: EZIPEK_clean_linker_0, # of connection points: 2
#     Edge 15, Type (0, 0), BuildingBlock: EZIPEK_clean_linker_0, # of connection points: 2
#     Edge 16, Type (0, 0), BuildingBlock: EZIPEK_clean_linker_0, # of connection points: 2
#     Edge 17, Type (0, 0), BuildingBlock: EZIPEK_clean_linker_0, # of connection points: 2
#     Edge 18, Type (0, 0), BuildingBlock: EZIPEK_clean_linker_0, # of connection points: 2
#     Edge 19, Type (0, 0), BuildingBlock: EZIPEK_clean_linker_0, # of connection points: 2
#     Edge 20, Type (0, 0), BuildingBlock: EZIPEK_clean_linker_0, # of connection points: 2
#     Edge 21, Type (0, 0), BuildingBlock: EZIPEK_clean_linker_0, # of connection points: 2
#     Edge 22, Type (0, 0), BuildingBlock: EZIPEK_clean_linker_0, # of connection points: 2
#     Edge 23, Type (0, 0), BuildingBlock: EZIPEK_clean_linker_0, # of connection points: 2
#     Edge 24, Type (0, 0), BuildingBlock: EZIPEK_clean_linker_0, # of connection points: 2
#     Edge 25, Type (0, 0), BuildingBlock: EZIPEK_clean_linker_0, # of connection points: 2
#     Edge 26, Type (0, 0), BuildingBlock: EZIPEK_clean_linker_0, # of connection points: 2
#     Edge 27, Type (0, 0), BuildingBlock: EZIPEK_clean_linker_0, # of connection points: 2
#     Edge 28, Type (0, 0), BuildingBlock: EZIPEK_clean_linker_0, # of connection points: 2
#     Edge 29, Type (0, 0), BuildingBlock: EZIPEK_clean_linker_0, # of connection points: 2
#     Edge 30, Type (0, 0), BuildingBlock: EZIPEK_clean_linker_0, # of connection points: 2
#     Edge 31, Type (0, 0), BuildingBlock: EZIPEK_clean_linker_0, # of connection points: 2
#     Edge 32, Type (0, 0), BuildingBlock: EZIPEK_clean_linker_0, # of connection points: 2
#     Edge 33, Type (0, 0), BuildingBlock: EZIPEK_clean_linker_0, # of connection points: 2
#     Edge 34, Type (0, 0), BuildingBlock: EZIPEK_clean_linker_0, # of connection points: 2
#     Edge 35, Type (0, 0), BuildingBlock: EZIPEK_clean_linker_0, # of connection points: 2
# Relax obj value: 0.141
# Max RMSD: 0.284
# Mean RMSD: 0.284
data_MOF--net-uol--node1-NAWXER_clean_sbu_0--edge1-EZIPEK_clean_linker_0
_symmetry_space_group_name_H-M    P1
_symmetry_Int_Tables_number       1
_symmetry_cell_setting            triclinic
loop_
_symmetry_equiv_pos_as_xyz
'x, y, z'
_cell_length_a     24.563562
_cell_length_b     24.529526
_cell_length_c     48.028506
_cell_angle_alpha  90.003129
_cell_angle_beta   90.145989
_cell_angle_gamma 119.82685
loop_
_atom_site_label
_atom_site_type_symbol
_atom_site_fract_x
_atom_site_fract_y
_atom_site_fract_z
_atom_type_partial_charge
C0 C 0.17586 0.3374 0.06602 0.0
C1 C 0.01691 0.27707 0.13857 0.0
O2 O 0.19652 0.37266 0.08757 0.0
Zn3 Zn 0.16104 0.3808 0.12728 0.0
O4 O 0.11801 0.29615 0.06467 0.0
Zn5 Zn 0.09347 0.31084 0.10097 0.0
O6 O 0.10006 0.40132 0.097 0.0
O7 O 0.17235 0.46419 0.12698 0.0
O8 O 1.00846 0.25651 0.11373 0.0
O9 O 0.07051 0.32255 0.14605 0.0
O10 O 0.21346 0.36413 0.15158 0.0
O11 O 0.14503 0.28119 0.12763 0.0
C12 C 0.13257 0.45578 0.10816 0.0
C13 C 0.18969 0.30621 0.14551 0.0
C14 C 0.8853 0.19713 0.30845 0.0
C15 C 0.67972 0.12387 0.26787 0.0
O16 O 0.8687 0.14779 0.29347 0.0
Zn17 Zn 0.78648 0.08491 0.26813 0.0
O18 O 0.84916 0.22002 0.31058 0.0
Zn19 Zn 0.78411 0.15955 0.28716 0.0
O20 O 0.74871 0.07393 0.31208 0.0
O21 O 0.75987 0.006 0.28609 0.0
O22 O 0.71397 0.17202 0.28244 0.0
O23 O 0.6999 0.08643 0.26109 0.0
O24 O 0.82107 0.09255 0.23173 0.0
O25 O 0.8319 0.18204 0.24718 0.0
C26 C 0.74364 0.01948 0.30896 0.0
C27 C 0.84226 0.15095 0.22847 0.0
C28 C 0.7168 0.88281 0.48137 0.0
C29 C 0.55659 0.68704 0.43934 0.0
O30 O 0.74036 0.86084 0.46386 0.0
Zn31 Zn 0.70537 0.78198 0.43512 0.0
O32 O 0.65797 0.85299 0.48553 0.0
Zn33 Zn 0.63702 0.78555 0.45967 0.0
O34 O 0.6823 0.73708 0.4779 0.0
O35 O 0.75008 0.74059 0.44742 0.0
O36 O 0.55037 0.72108 0.45751 0.0
O37 O 0.61105 0.70403 0.42923 0.0
O38 O 0.72732 0.82261 0.39932 0.0
O39 O 0.65397 0.83407 0.42038 0.0
C40 C 0.72343 0.72184 0.47084 0.0
C41 C 0.6906 0.84501 0.39958 0.0
C42 C 0.85401 0.68244 0.56043 0.0
C43 C 0.99913 0.73253 0.63839 0.0
O44 O 0.82836 0.64556 0.58125 0.0
Zn45 Zn 0.8577 0.63221 0.62226 0.0
O46 O 0.91234 0.72234 0.56102 0.0
Zn47 Zn 0.92777 0.70362 0.59815 0.0
O48 O 0.92033 0.61205 0.59344 0.0
O49 O 0.84313 0.54823 0.62115 0.0
O50 O 0.00988 0.75756 0.61443 0.0
O51 O 0.94553 0.6845 0.64345 0.0
O52 O 0.8053 0.64811 0.64649 0.0
O53 O 0.86849 0.73009 0.62122 0.0
C54 C 0.88503 0.5569 0.60353 0.0
C55 C 0.82439 0.70457 0.63923 0.0
C56 C 0.13301 0.82101 0.80517 0.0
C57 C 0.34242 0.8939 0.76831 0.0
O58 O 0.15089 0.86839 0.78896 0.0
Zn59 Zn 0.23506 0.9321 0.76582 0.0
O60 O 0.17086 0.80116 0.81046 0.0
Zn61 Zn 0.23709 0.85841 0.78643 0.0
O62 O 0.27052 0.94334 0.81077 0.0
O63 O 0.25892 0.01037 0.78438 0.0
O64 O 0.30774 0.84611 0.78296 0.0
O65 O 0.32209 0.9308 0.76073 0.0
O66 O 0.20138 0.92243 0.72873 0.0
O67 O 0.19067 0.83404 0.74576 0.0
C68 C 0.27371 0.99679 0.80765 0.0
C69 C 0.18082 0.86389 0.72622 0.0
C70 C 0.2988 0.28146 0.97805 0.0
C71 C 0.32064 0.17115 0.89823 0.0
O72 O 0.34782 0.27581 0.98008 0.0
Zn73 Zn 0.39014 0.2309 0.95659 0.0
O74 O 0.26502 0.26043 0.95635 0.0
Zn75 Zn 0.31319 0.22951 0.93754 0.0
O76 O 0.29195 0.1484 0.96302 0.0
O77 O 0.3819 0.1655 0.98108 0.0
O78 O 0.28277 0.1916 0.90162 0.0
O79 O 0.36277 0.18229 0.91672 0.0
O80 O 0.47363 0.29685 0.95123 0.0
O81 O 0.40391 0.31254 0.92879 0.0
C82 C 0.32308 0.1307 0.97836 0.0
C83 C 0.46111 0.33089 0.9357 0.0
C84 C 0.70351 0.82805 0.69335 0.0
C85 C 0.56916 0.89632 0.73574 0.0
O86 O 0.73351 0.86999 0.7121 0.0
Zn87 Zn 0.71191 0.92681 0.74036 0.0
O88 O 0.64684 0.81171 0.68788 0.0
Zn89 Zn 0.63936 0.86464 0.71469 0.0
O90 O 0.69994 0.95625 0.69649 0.0
O91 O 0.76925 0.01107 0.72907 0.0
O92 O 0.5583 0.85687 0.71653 0.0
O93 O 0.62421 0.92631 0.74661 0.0
O94 O 0.7294 0.90323 0.77577 0.0
O95 O 0.64982 0.82497 0.75377 0.0
C96 C 0.74826 0.00731 0.70459 0.0
C97 C 0.6873 0.84578 0.77478 0.0
C98 C 0.85218 0.68849 0.93669 0.0
C99 C 0.73126 0.71359 0.86176 0.0
O100 O 0.84051 0.64851 0.91709 0.0
Zn101 Zn 0.7867 0.62308 0.87845 0.0
O102 O 0.82911 0.72467 0.93554 0.0
Zn103 Zn 0.78935 0.69839 0.89973 0.0
O104 O 0.70677 0.60868 0.9079 0.0
O105 O 0.71994 0.53908 0.88426 0.0
O106 O 0.75413 0.74614 0.88369 0.0
O107 O 0.74162 0.66802 0.85728 0.0
O108 O 0.84826 0.63293 0.85166 0.0
O109 O 0.86931 0.72115 0.87286 0.0
C110 C 0.68705 0.5516 0.90051 0.0
C111 C 0.8851 0.69117 0.85575 0.0
C112 C 0.2044 0.88682 0.03137 0.0
C113 C 0.1334 0.67962 0.07 0.0
O114 O 0.15273 0.86658 0.04467 0.0
Zn115 Zn 0.09143 0.78484 0.06902 0.0
O116 O 0.23001 0.85295 0.02987 0.0
Zn117 Zn 0.1672 0.78284 0.05052 0.0
O118 O 0.08424 0.74971 0.02422 0.0
O119 O 0.01294 0.75575 0.04991 0.0
O120 O 0.17948 0.71253 0.05417 0.0
O121 O 0.09627 0.69998 0.07716 0.0
O122 O 0.10061 0.82371 0.10483 0.0
O123 O 0.18546 0.822 0.09202 0.0
C124 C 0.02918 0.74304 0.02684 0.0
C125 C 0.15679 0.83742 0.10986 0.0
C126 C 0.27398 1.00417 0.20417 0.0
C127 C 0.31968 0.15161 0.27992 0.0
O128 O 0.31867 0.05939 0.19794 0.0
Zn129 Zn 0.37431 0.14826 0.21956 0.0
O130 O 0.254 0.99276 0.22901 0.0
Zn131 Zn 0.30492 0.0766 0.24331 0.0
O132 O 0.27594 0.13217 0.21751 0.0
O133 O 0.3615 0.20216 0.1953 0.0
O134 O 0.28477 0.0923 0.27992 0.0
O135 O 0.35616 0.17872 0.25921 0.0
O136 O 0.45874 0.16288 0.22119 0.0
O137 O 0.39537 0.08373 0.24784 0.0
C138 C 0.30344 0.17864 0.20056 0.0
C139 C 0.45033 0.11966 0.238 0.0
C140 C 0.33147 0.46258 0.40309 0.0
C141 C 0.12769 0.3205 0.36295 0.0
O142 O 0.31264 0.40633 0.41145 0.0
Zn143 Zn 0.22955 0.31633 0.40494 0.0
O144 O 0.29745 0.47272 0.38647 0.0
Zn145 Zn 0.22852 0.38857 0.38293 0.0
O146 O 0.17962 0.36654 0.4228 0.0
O147 O 0.19395 0.29216 0.44119 0.0
O148 O 0.16269 0.37896 0.35868 0.0
O149 O 0.14565 0.29115 0.37943 0.0
O150 O 0.26038 0.26504 0.38932 0.0
O151 O 0.26256 0.33503 0.35975 0.0
C152 C 0.17032 0.32775 0.44262 0.0
C153 C 0.27171 0.28893 0.36518 0.0
C154 C 0.88454 0.32965 0.57088 0.0
C155 C 0.82782 0.1199 0.53915 0.0
O156 O 0.92423 0.3139 0.57954 0.0
Zn157 Zn 0.9357 0.23252 0.57575 0.0
O158 O 0.83872 0.29189 0.55582 0.0
Zn159 Zn 0.85679 0.22413 0.55532 0.0
O160 O 0.84094 0.19076 0.598 0.0
O161 O 0.93123 0.20597 0.61343 0.0
O162 O 0.79911 0.15024 0.53509 0.0
O163 O 0.87839 0.14422 0.55375 0.0
O164 O 0.01558 0.26526 0.55776 0.0
O165 O 0.94072 0.2588 0.52995 0.0
C166 C 0.87404 0.1882 0.61815 0.0
C167 C 0.99777 0.27219 0.53387 0.0
C168 C 0.12175 0.60527 0.10894 0.0
C169 C 0.12368 0.61814 0.08 0.0
C170 C 0.13207 0.52486 0.06949 0.0
C171 C 0.12584 0.50952 0.09827 0.0
N172 N 0.09837 0.52643 0.1444 0.0
N173 N 0.11263 0.58061 0.03276 0.0
C174 C 0.11558 0.54706 0.11772 0.0
C175 C 0.12303 0.57478 0.06029 0.0
N176 N 0.12934 0.64971 0.12812 0.0
N177 N 0.15049 0.49466 0.0511 0.0
H178 H 0.10396 0.6156 0.02538 0.0
H179 H 0.10579 0.54686 0.01787 0.0
H180 H 0.16092 0.45999 0.05699 0.0
H181 H 0.16187 0.50865 0.03044 0.0
H182 H 0.13531 0.64524 0.14932 0.0
H183 H 0.13537 0.69354 0.12278 0.0
H184 H 0.08438 0.54898 0.15869 0.0
H185 H 0.09173 0.48326 0.15138 0.0
C186 C 0.57411 0.10655 0.28117 0.0
C187 C 0.61593 0.11082 0.25988 0.0
C188 C 0.54041 0.10406 0.22462 0.0
C189 C 0.50409 0.11095 0.24587 0.0
N190 N 0.48964 0.12467 0.29463 0.0
N191 N 0.64105 0.11698 0.21102 0.0
C192 C 0.52129 0.11296 0.27428 0.0
C193 C 0.59938 0.10966 0.23147 0.0
N194 N 0.58434 0.09506 0.30798 0.0
N195 N 0.51771 0.09046 0.19799 0.0
H196 H 0.68385 0.11936 0.21504 0.0
H197 H 0.63502 0.12477 0.19021 0.0
H198 H 0.47434 0.0851 0.19227 0.0
H199 H 0.53884 0.07845 0.18221 0.0
H200 H 0.55224 0.08522 0.32399 0.0
H201 H 0.62192 0.08877 0.31361 0.0
H202 H 0.50494 0.13424 0.31523 0.0
H203 H 0.45091 0.13006 0.29069 0.0
C204 C 0.4848 0.61751 0.4014 0.0
C205 C 0.5011 0.62751 0.43004 0.0
C206 C 0.40627 0.52816 0.44149 0.0
C207 C 0.3924 0.51611 0.41262 0.0
N208 N 0.42808 0.54147 0.36513 0.0
N209 N 0.48545 0.5854 0.4766 0.0
C210 C 0.43466 0.55845 0.39257 0.0
C211 C 0.46424 0.58073 0.44988 0.0
N212 N 0.51493 0.66539 0.38276 0.0
N213 N 0.36306 0.4916 0.461 0.0
H214 H 0.52801 0.6227 0.4835 0.0
H215 H 0.46391 0.54937 0.49114 0.0
H216 H 0.31997 0.45268 0.45604 0.0
H217 H 0.36775 0.50302 0.4821 0.0
H218 H 0.50065 0.66255 0.36211 0.0
H219 H 0.55007 0.7102 0.38857 0.0
H220 H 0.46105 0.56806 0.35002 0.0
H221 H 0.39341 0.49756 0.358 0.0
C222 C 0.90066 0.46606 0.61515 0.0
C223 C 0.89212 0.5028 0.59465 0.0
C224 C 0.89212 0.43258 0.55828 0.0
C225 C 0.89085 0.39089 0.57909 0.0
N226 N 0.88371 0.36337 0.62783 0.0
N227 N 0.87012 0.51578 0.54678 0.0
C228 C 0.89282 0.40651 0.6077 0.0
C229 C 0.88573 0.485 0.56616 0.0
N230 N 0.91782 0.48875 0.64163 0.0
N231 N 0.90111 0.42306 0.53103 0.0
H232 H 0.86324 0.5533 0.55168 0.0
H233 H 0.85826 0.50038 0.52629 0.0
H234 H 0.90744 0.38599 0.52456 0.0
H235 H 0.90869 0.45539 0.51534 0.0
H236 H 0.93073 0.46674 0.6567 0.0
H237 H 0.92556 0.53292 0.64767 0.0
H238 H 0.87783 0.36998 0.6488 0.0
H239 H 0.8759 0.31843 0.62344 0.0
C240 C 0.49783 0.89687 0.77333 0.0
C241 C 0.51772 0.90701 0.74516 0.0
C242 C 0.42505 0.91441 0.73203 0.0
C243 C 0.40611 0.90625 0.76037 0.0
N244 N 0.43475 0.90946 0.80867 0.0
N245 N 0.51021 0.94337 0.69944 0.0
C246 C 0.44589 0.90382 0.78125 0.0
C247 C 0.48449 0.92164 0.72508 0.0
N248 N 0.52575 0.87684 0.79224 0.0
N249 N 0.38508 0.91135 0.71148 0.0
H250 H 0.5541 0.95009 0.69378 0.0
H251 H 0.49111 0.96079 0.68494 0.0
H252 H 0.34086 0.90542 0.7154 0.0
H253 H 0.39365 0.90935 0.69038 0.0
H254 H 0.5084 0.86208 0.81225 0.0
H255 H 0.56286 0.86949 0.78727 0.0
H256 H 0.46552 0.91383 0.82462 0.0
H257 H 0.39838 0.91681 0.81515 0.0
C258 C 0.52921 0.40225 0.8976 0.0
C259 C 0.51321 0.39203 0.92619 0.0
C260 C 0.60973 0.48911 0.93836 0.0
C261 C 0.62476 0.50037 0.90962 0.0
N262 N 0.58956 0.47774 0.86186 0.0
N263 N 0.5291 0.43289 0.97293 0.0
C264 C 0.58153 0.46003 0.88921 0.0
C265 C 0.55063 0.43787 0.94631 0.0
N266 N 0.49676 0.35554 0.87864 0.0
N267 N 0.65293 0.52494 0.95813 0.0
H268 H 0.48559 0.39629 0.97931 0.0
H269 H 0.55133 0.46804 0.98786 0.0
H270 H 0.69673 0.56297 0.95338 0.0
H271 H 0.64729 0.51398 0.97926 0.0
H272 H 0.51071 0.35789 0.858 0.0
H273 H 0.45903 0.31205 0.88414 0.0
H274 H 0.55632 0.45291 0.84648 0.0
H275 H 0.62617 0.52082 0.85505 0.0
C276 C 0.2536 0.19441 0.15833 0.0
C277 C 0.26779 0.20521 0.18707 0.0
C278 C 0.21656 0.26888 0.18924 0.0
C279 C 0.212 0.26709 0.15974 0.0
N280 N 0.22851 0.22935 0.11566 0.0
N281 N 0.26829 0.257 0.22985 0.0
C282 C 0.23042 0.22955 0.1441 0.0
C283 C 0.25043 0.24329 0.2026 0.0
N284 N 0.26103 0.14947 0.14479 0.0
N285 N 0.18613 0.2925 0.20456 0.0
H286 H 0.29306 0.23903 0.2404 0.0
H287 H 0.26291 0.29003 0.24133 0.0
H288 H 0.15829 0.30889 0.19555 0.0
H289 H 0.18266 0.28935 0.22618 0.0
H290 H 0.24502 0.13428 0.12462 0.0
H291 H 0.27808 0.12301 0.15463 0.0
H292 H 0.24909 0.20977 0.10326 0.0
H293 H 0.21013 0.25228 0.10411 0.0
C294 C 0.95087 0.2367 0.35202 0.0
C295 C 0.94727 0.22834 0.32263 0.0
C296 C 0.06159 0.27398 0.32042 0.0
C297 C 0.0655 0.28666 0.34936 0.0
N298 N 0.01599 0.2883 0.39238 0.0
N299 N 0.99986 0.25087 0.27821 0.0
C300 C 0.01069 0.27004 0.36512 0.0
C301 C 1.00281 0.24987 0.30663 0.0
N302 N 0.89721 0.21141 0.36755 0.0
N303 N 0.11392 0.28396 0.3062 0.0
H304 H 0.95811 0.23645 0.26733 0.0
H305 H 0.0393 0.27177 0.26548 0.0
H306 H 0.15805 0.30271 0.31553 0.0
H307 H 0.11271 0.26883 0.28583 0.0
H308 H 0.89679 0.20868 0.38918 0.0
H309 H 0.85237 0.18891 0.35887 0.0
H310 H 0.97864 0.28421 0.40417 0.0
H311 H 0.05887 0.31208 0.4028 0.0
C312 C 0.77115 1.00197 0.54042 0.0
C313 C 0.80575 0.05859 0.52524 0.0
C314 C 0.7988 0.99887 0.4831 0.0
C315 C 0.75687 0.9422 0.49715 0.0
N316 N 0.71947 0.8877 0.54068 0.0
N317 N 0.84796 0.11231 0.48181 0.0
C318 C 0.74769 0.94322 0.52634 0.0
C319 C 0.81877 0.0574 0.49657 0.0
N320 N 0.75843 1.0047 0.56795 0.0
N321 N 0.82203 0.9974 0.45746 0.0
H322 H 0.86543 0.1565 0.49094 0.0
H323 H 0.8509 0.1141 0.46016 0.0
H324 H 0.81079 0.95647 0.44666 0.0
H325 H 0.85813 0.03693 0.44789 0.0
H326 H 0.72826 0.96591 0.57982 0.0
H327 H 0.77598 0.04692 0.57888 0.0
H328 H 0.71467 0.88414 0.5622 0.0
H329 H 0.70564 0.84451 0.53113 0.0
C330 C 0.72858 0.70478 0.65711 0.0
C331 C 0.79363 0.73917 0.65073 0.0
C332 C 0.79513 0.83499 0.66695 0.0
C333 C 0.73442 0.79787 0.67842 0.0
N334 N 0.64909 0.694 0.68947 0.0
N335 N 0.89151 0.83929 0.6535 0.0
C336 C 0.70267 0.73174 0.67497 0.0
C337 C 0.82786 0.80504 0.6566 0.0
N338 N 0.69046 0.64769 0.64503 0.0
N339 N 0.82069 0.89865 0.66474 0.0
H340 H 0.91907 0.82146 0.64599 0.0
H341 H 0.91814 0.8852 0.66086 0.0
H342 H 0.79693 0.92208 0.67069 0.0
H343 H 0.86221 0.92707 0.65402 0.0
H344 H 0.64189 0.62351 0.64764 0.0
H345 H 0.70586 0.62887 0.6295 0.0
H346 H 0.62782 0.64511 0.68919 0.0
H347 H 0.63015 0.71112 0.70416 0.0
C348 C 0.97111 0.78591 0.83137 0.0
C349 C 0.94718 0.72397 0.84169 0.0
C350 C 0.03761 0.72218 0.82172 0.0
C351 C 0.06787 0.78798 0.81672 0.0
N352 N 0.06441 0.88492 0.82281 0.0
N353 N 0.9687 0.64008 0.8529 0.0
C354 C 0.03502 0.82078 0.82316 0.0
C355 C 0.98352 0.69394 0.8387 0.0
N356 N 0.93265 0.81094 0.82832 0.0
N357 N 0.05794 0.68555 0.8092 0.0
H358 H 0.93278 0.62019 0.86754 0.0
H359 H 0.99741 0.61994 0.85266 0.0
H360 H 0.09268 0.70244 0.79398 0.0
H361 H 0.03398 0.63671 0.81104 0.0
H362 H 0.94708 0.85392 0.81852 0.0
H363 H 0.88462 0.78568 0.83234 0.0
H364 H 0.04298 0.9097 0.83005 0.0
H365 H 0.11169 0.9139 0.81845 0.0
C366 C 0.23769 1.00216 0.03173 0.0
C367 C 0.23338 0.94918 0.01753 0.0
C368 C 0.29239 0.01703 0.97847 0.0
C369 C 0.29096 0.06811 0.9915 0.0
N370 N 0.24911 0.10562 0.02727 0.0
N371 N 0.24118 0.90412 0.97392 0.0
C372 C 0.25932 0.05949 0.01709 0.0
C373 C 0.25654 0.95593 0.98991 0.0
N374 N 0.22436 0.99915 0.05949 0.0
N375 N 0.32804 0.02668 0.95523 0.0
H376 H 0.21138 0.85835 0.98071 0.0
H377 H 0.25189 0.90675 0.9528 0.0
H378 H 0.35355 0.07047 0.94568 0.0
H379 H 0.33583 0.99212 0.94667 0.0
H380 H 0.23322 0.03844 0.07125 0.0
H381 H 0.21073 0.95922 0.07157 0.0
H382 H 0.22106 0.09946 0.04455 0.0
H383 H 0.26325 0.14765 0.01671 0.0
C384 C 0.20647 0.34581 0.0154 0.0
C385 C 0.21968 0.3409 0.04373 0.0
C386 C 0.29252 0.30523 0.0297 0.0
C387 C 0.27956 0.30991 1.00103 0.0
N388 N 0.2457 0.36195 0.96822 0.0
N389 N 0.29836 0.34592 0.07593 0.0
C390 C 0.24303 0.33861 0.99432 0.0
C391 C 0.27044 0.33095 0.0503 0.0
N392 N 0.1597 0.35815 0.00855 0.0
N393 N 0.32185 0.27306 0.03813 0.0
H394 H 0.2857 0.36618 0.09179 0.0
H395 H 0.33933 0.3447 0.08036 0.0
H396 H 0.33866 0.25121 0.02508 0.0
H397 H 0.32418 0.26259 0.059 0.0
H398 H 0.14331 0.35491 0.98824 0.0
H399 H 0.1356 0.36902 0.02339 0.0
H400 H 0.2236 0.38738 0.96287 0.0
H401 H 0.27675 0.36333 0.95309 0.0
C402 C 0.94004 0.17745 0.20211 0.0
C403 C 0.88608 0.18404 0.20516 0.0
C404 C 0.919 0.25458 0.16463 0.0
C405 C 0.96913 0.24259 0.16019 0.0
N406 N 0.02011 0.18286 0.17125 0.0
N407 N 0.81976 0.22302 0.18761 0.0
C408 C 0.9774 0.20105 0.1779 0.0
C409 C 0.87436 0.22122 0.18598 0.0
N410 N 0.95773 0.1516 0.22304 0.0
N411 N 0.91502 0.29889 0.14889 0.0
H412 H 0.78651 0.19985 0.2031 0.0
H413 H 0.80524 0.24359 0.17254 0.0
H414 H 0.94598 0.32271 0.13264 0.0
H415 H 0.88387 0.31501 0.15304 0.0
H416 H 1.00053 0.1524 0.22326 0.0
H417 H 0.93321 0.13551 0.24168 0.0
H418 H 0.0237 0.14773 0.18186 0.0
H419 H 0.04759 0.19812 0.15337 0.0
C420 C 0.74827 0.9958 0.35972 0.0
C421 C 0.72376 0.97424 0.33261 0.0
C422 C 0.67457 0.86551 0.34958 0.0
C423 C 0.69437 0.88813 0.37704 0.0
N424 N 0.73221 0.97576 0.40897 0.0
N425 N 0.64942 0.88846 0.30379 0.0
C426 C 0.72479 0.95353 0.38238 0.0
C427 C 0.6826 0.90892 0.32808 0.0
N428 N 0.79794 0.05484 0.3637 0.0
N429 N 0.64854 0.80288 0.34394 0.0
H430 H 0.65139 0.91908 0.28824 0.0
H431 H 0.61484 0.84193 0.30042 0.0
H432 H 0.64012 0.76964 0.35933 0.0
H433 H 0.63937 0.78472 0.32377 0.0
H434 H 0.82052 0.07042 0.38287 0.0
H435 H 0.8221 0.08482 0.34728 0.0
H436 H 0.74975 0.02321 0.41347 0.0
H437 H 0.71457 0.94643 0.42622 0.0
C438 C 0.83059 0.67402 0.5089 0.0
C439 C 0.81466 0.6811 0.53659 0.0
C440 C 0.72061 0.67971 0.51891 0.0
C441 C 0.74526 0.69055 0.49159 0.0
N442 N 0.81279 0.67694 0.45928 0.0
N443 N 0.74641 0.69773 0.56757 0.0
C444 C 0.79708 0.6812 0.4861 0.0
C445 C 0.75979 0.68512 0.54156 0.0
N446 N 0.87565 0.65768 0.50457 0.0
N447 N 0.65888 0.66105 0.52317 0.0
H448 H 0.77539 0.70595 0.58474 0.0
H449 H 0.70989 0.70683 0.57135 0.0
H450 H 0.62714 0.64872 0.5067 0.0
H451 H 0.63783 0.64854 0.54272 0.0
H452 H 0.88649 0.64676 0.48519 0.0
H453 H 0.89948 0.6503 0.52081 0.0
H454 H 0.85534 0.68076 0.45347 0.0
H455 H 0.78156 0.66684 0.44277 0.0
C456 C 0.07092 0.81059 0.70799 0.0
C457 C 0.13481 0.82842 0.70384 0.0
C458 C 0.10804 0.77524 0.65836 0.0
C459 C 0.04534 0.76276 0.66141 0.0
N460 N 0.96887 0.77602 0.68792 0.0
N461 N 0.21628 0.83408 0.67423 0.0
C462 C 0.0271 0.78187 0.686 0.0
C463 C 0.15398 0.81242 0.67877 0.0
N464 N 0.05158 0.82041 0.73322 0.0
N465 N 0.12298 0.74933 0.63656 0.0
H466 H 0.25057 0.86041 0.68898 0.0
H467 H 0.2344 0.83004 0.65526 0.0
H468 H 0.0902 0.72077 0.62164 0.0
H469 H 0.1661 0.75129 0.63456 0.0
H470 H 1.00465 0.79972 0.73907 0.0
H471 H 0.08241 0.84615 0.74914 0.0
H472 H 0.95642 0.79769 0.7033 0.0
H473 H 0.93381 0.75365 0.6731 0.0
C474 C 0.33854 0.14916 0.84895 0.0
C475 C 0.31016 0.12672 0.87522 0.0
C476 C 0.25687 0.01863 0.85741 0.0
C477 C 0.28957 0.04055 0.8317 0.0
N478 N 0.3722 0.12509 0.80555 0.0
N479 N 0.2486 0.03977 0.90595 0.0
C480 C 0.33351 0.10546 0.8282 0.0
C481 C 0.27159 0.06133 0.87991 0.0
N482 N 0.36864 0.21212 0.8435 0.0
N483 N 0.20885 0.95806 0.85999 0.0
H484 H 0.25424 0.06941 0.92256 0.0
H485 H 0.22769 0.99263 0.91162 0.0
H486 H 0.19567 0.9242 0.84454 0.0
H487 H 0.17801 0.94227 0.87677 0.0
H488 H 0.38509 0.23098 0.82385 0.0
H489 H 0.3716 0.24502 0.85806 0.0
H490 H 0.40915 0.17089 0.80321 0.0
H491 H 0.37169 0.09414 0.79052 0.0
C492 C 0.6761 0.81499 0.82533 0.0
C493 C 0.68422 0.80257 0.79718 0.0
C494 C 0.69274 0.71167 0.81235 0.0
C495 C 0.69904 0.73264 0.84032 0.0
N496 N 0.66377 0.78133 0.87365 0.0
N497 N 0.70568 0.74144 0.76393 0.0
C498 C 0.68113 0.77792 0.84699 0.0
C499 C 0.69296 0.75093 0.79062 0.0
N500 N 0.66486 0.86301 0.83132 0.0
N501 N 0.68161 0.65249 0.80654 0.0
H502 H 0.70804 0.76962 0.74725 0.0
H503 H 0.71978 0.70905 0.75879 0.0
H504 H 0.67077 0.61879 0.82195 0.0
H505 H 0.67234 0.63355 0.78652 0.0
H506 H 0.6664 0.88003 0.85131 0.0
H507 H 0.65609 0.88779 0.81599 0.0
H508 H 0.64632 0.81023 0.87997 0.0
H509 H 0.65932 0.74905 0.88889 0.0
C510 C 0.95807 0.75596 0.95818 0.0
C511 C 0.89959 0.69895 0.95845 0.0
C512 C 0.9282 0.66836 1.00248 0.0
C513 C 0.98634 0.72571 1.00241 0.0
N514 N 0.06082 0.82095 0.97892 0.0
N515 N 0.83301 0.5959 0.97749 0.0
C516 C 1.00264 0.76839 0.97977 0.0
C517 C 0.88596 0.65351 0.97958 0.0
N518 N 0.9705 0.79874 0.93737 0.0
N519 N 0.91319 0.62852 0.02468 0.0
H520 H 0.8008 0.584 0.96127 0.0
H521 H 0.82279 0.55821 0.99056 0.0
H522 H 0.94461 0.63568 0.0408 0.0
H523 H 0.86896 0.58975 0.02791 0.0
H524 H 1.00785 0.84462 0.93762 0.0
H525 H 0.94195 0.78928 0.91987 0.0
H526 H 0.0791 0.84984 0.9616 0.0
H527 H 0.09303 0.83477 0.99518 0.0
C528 C 0.2548 0.91985 0.13559 0.0
C529 C 0.18955 0.87391 0.13551 0.0
C530 C 0.17883 0.91394 0.18069 0.0
C531 C 0.24483 0.95519 0.182 0.0
N532 N 0.3463 0.97832 0.16467 0.0
N533 N 0.09726 0.81352 0.16381 0.0
C534 C 0.28309 0.95199 0.16075 0.0
C535 C 0.154 0.86645 0.15993 0.0
N536 N 0.28969 0.93657 0.11176 0.0
N537 N 0.13891 0.92185 0.19777 0.0
H538 H 0.07971 0.77527 0.15022 0.0
H539 H 0.07207 0.80457 0.1823 0.0
H540 H 0.1535 0.95918 0.21165 0.0
H541 H 0.09026 0.89547 0.19559 0.0
H542 H 0.3356 0.9741 0.11111 0.0
H543 H 0.27192 0.91911 0.0921 0.0
H544 H 0.37528 0.97278 0.15048 0.0
H545 H 0.36809 0.99838 0.18356 0.0
C546 C 0.35912 0.23187 0.31882 0.0
C547 C 0.30956 0.18976 0.30108 0.0
C548 C 0.23594 0.21275 0.32563 0.0
C549 C 0.28588 0.25718 0.34246 0.0
N550 N 0.39628 0.31658 0.35283 0.0
N551 N 0.2052 0.15314 0.28281 0.0
C552 C 0.348 0.26908 0.33836 0.0
C553 C 0.24921 0.18393 0.30311 0.0
N554 N 0.416 0.2346 0.31766 0.0
N555 N 0.17531 0.19621 0.33174 0.0
H556 H 0.21306 0.13235 0.26551 0.0
H557 H 0.16326 0.15393 0.28151 0.0
H558 H 0.16329 0.2163 0.34798 0.0
H559 H 0.13657 0.15881 0.32224 0.0
H560 H 0.452 0.25904 0.33197 0.0
H561 H 0.42587 0.20883 0.30333 0.0
H562 H 0.4434 0.33206 0.34892 0.0
H563 H 0.38928 0.34389 0.36749 0.0
C564 C 0.07105 0.25556 0.46738 0.0
C565 C 0.12402 0.31663 0.4648 0.0
C566 C 0.0884 0.35143 0.50535 0.0
C567 C 0.04066 0.28837 0.50988 0.0
N568 N 0.99294 0.17841 0.49803 0.0
N569 N 0.18583 0.42269 0.48193 0.0
C570 C 0.03361 0.23988 0.49164 0.0
C571 C 0.13326 0.36487 0.48382 0.0
N572 N 0.05489 0.21315 0.4461 0.0
N573 N 0.09001 0.3984 0.52127 0.0
H574 H 0.21849 0.43461 0.466 0.0
H575 H 0.19909 0.4576 0.49699 0.0
H576 H 0.0583 0.3898 0.53738 0.0
H577 H 0.11949 0.44598 0.51727 0.0
H578 H 0.01294 0.17045 0.44564 0.0
H579 H 0.07984 0.22333 0.42749 0.0
H580 H 0.99091 0.14084 0.48702 0.0
H581 H 0.96505 0.16469 0.51581 0.0
C582 C 0.74824 0.08728 0.6716 0.0
C583 C 0.78126 0.06081 0.68508 0.0
C584 C 0.87884 0.14203 0.66441 0.0
C585 C 0.84427 0.15728 0.64538 0.0
N586 N 0.7482 0.15892 0.63669 0.0
N587 N 0.87843 0.05946 0.6916 0.0
C588 C 0.77932 0.13419 0.65069 0.0
C589 C 0.84677 0.08746 0.68093 0.0
N590 N 0.68848 0.06985 0.67982 0.0
N591 N 0.94165 0.18158 0.66811 0.0
H592 H 0.85683 0.01771 0.7029 0.0
H593 H 0.92508 0.07443 0.68663 0.0
H594 H 0.96489 0.22653 0.6595 0.0
H595 H 0.96784 0.17401 0.68316 0.0
H596 H 0.66286 0.09019 0.67246 0.0
H597 H 0.66576 0.03788 0.69586 0.0
H598 H 0.69956 0.13806 0.6359 0.0
H599 H 0.7717 0.2022 0.6266 0.0
loop_
_geom_bond_atom_site_label_1
_geom_bond_atom_site_label_2
_geom_bond_distance
_geom_bond_site_symmetry_2
_ccdc_geom_bond_type
C0 O2 1.247 . S
C0 O4 1.258 . S
C1 O8 1.247 . S
C1 O9 1.258 . S
O2 C0 1.247 . S
O2 Zn3 2.028 . S
Zn3 O2 2.028 . S
Zn3 O7 2.035 . S
Zn3 O9 2.035 . S
Zn3 O10 2.028 . S
O4 C0 1.258 . S
O4 Zn5 2.035 . S
Zn5 O4 2.035 . S
Zn5 O6 2.028 . S
Zn5 O8 2.028 . S
Zn5 O11 2.035 . S
O6 Zn5 2.028 . S
O6 C12 1.247 . S
O7 Zn3 2.035 . S
O7 C12 1.258 . S
O8 C1 1.247 . S
O8 Zn5 2.028 . S
O9 C1 1.258 . S
O9 Zn3 2.035 . S
O10 Zn3 2.028 . S
O10 C13 1.247 . S
O11 Zn5 2.035 . S
O11 C13 1.258 . S
C12 O6 1.247 . S
C12 O7 1.258 . S
C13 O10 1.247 . S
C13 O11 1.258 . S
C14 O16 1.247 . S
C14 O18 1.258 . S
C15 O22 1.247 . S
C15 O23 1.258 . S
O16 C14 1.247 . S
O16 Zn17 2.028 . S
Zn17 O16 2.028 . S
Zn17 O21 2.035 . S
Zn17 O23 2.035 . S
Zn17 O24 2.028 . S
O18 C14 1.258 . S
O18 Zn19 2.035 . S
Zn19 O18 2.035 . S
Zn19 O20 2.028 . S
Zn19 O22 2.028 . S
Zn19 O25 2.035 . S
O20 Zn19 2.028 . S
O20 C26 1.247 . S
O21 Zn17 2.035 . S
O21 C26 1.258 . S
O22 C15 1.247 . S
O22 Zn19 2.028 . S
O23 C15 1.258 . S
O23 Zn17 2.035 . S
O24 Zn17 2.028 . S
O24 C27 1.247 . S
O25 Zn19 2.035 . S
O25 C27 1.258 . S
C26 O20 1.247 . S
C26 O21 1.258 . S
C27 O24 1.247 . S
C27 O25 1.258 . S
C28 O30 1.247 . S
C28 O32 1.258 . S
C29 O36 1.247 . S
C29 O37 1.258 . S
O30 C28 1.247 . S
O30 Zn31 2.028 . S
Zn31 O30 2.028 . S
Zn31 O35 2.035 . S
Zn31 O37 2.035 . S
Zn31 O38 2.028 . S
O32 C28 1.258 . S
O32 Zn33 2.035 . S
Zn33 O32 2.035 . S
Zn33 O34 2.028 . S
Zn33 O36 2.028 . S
Zn33 O39 2.035 . S
O34 Zn33 2.028 . S
O34 C40 1.247 . S
O35 Zn31 2.035 . S
O35 C40 1.258 . S
O36 C29 1.247 . S
O36 Zn33 2.028 . S
O37 C29 1.258 . S
O37 Zn31 2.035 . S
O38 Zn31 2.028 . S
O38 C41 1.247 . S
O39 Zn33 2.035 . S
O39 C41 1.258 . S
C40 O34 1.247 . S
C40 O35 1.258 . S
C41 O38 1.247 . S
C41 O39 1.258 . S
C42 O44 1.247 . S
C42 O46 1.258 . S
C43 O50 1.247 . S
C43 O51 1.258 . S
O44 C42 1.247 . S
O44 Zn45 2.028 . S
Zn45 O44 2.028 . S
Zn45 O49 2.035 . S
Zn45 O51 2.035 . S
Zn45 O52 2.028 . S
O46 C42 1.258 . S
O46 Zn47 2.035 . S
Zn47 O46 2.035 . S
Zn47 O48 2.028 . S
Zn47 O50 2.028 . S
Zn47 O53 2.035 . S
O48 Zn47 2.028 . S
O48 C54 1.247 . S
O49 Zn45 2.035 . S
O49 C54 1.258 . S
O50 C43 1.247 . S
O50 Zn47 2.028 . S
O51 C43 1.258 . S
O51 Zn45 2.035 . S
O52 Zn45 2.028 . S
O52 C55 1.247 . S
O53 Zn47 2.035 . S
O53 C55 1.258 . S
C54 O48 1.247 . S
C54 O49 1.258 . S
C55 O52 1.247 . S
C55 O53 1.258 . S
C56 O58 1.247 . S
C56 O60 1.258 . S
C57 O64 1.247 . S
C57 O65 1.258 . S
O58 C56 1.247 . S
O58 Zn59 2.028 . S
Zn59 O58 2.028 . S
Zn59 O63 2.035 . S
Zn59 O65 2.035 . S
Zn59 O66 2.028 . S
O60 C56 1.258 . S
O60 Zn61 2.035 . S
Zn61 O60 2.035 . S
Zn61 O62 2.028 . S
Zn61 O64 2.028 . S
Zn61 O67 2.035 . S
O62 Zn61 2.028 . S
O62 C68 1.247 . S
O63 Zn59 2.035 . S
O63 C68 1.258 . S
O64 C57 1.247 . S
O64 Zn61 2.028 . S
O65 C57 1.258 . S
O65 Zn59 2.035 . S
O66 Zn59 2.028 . S
O66 C69 1.247 . S
O67 Zn61 2.035 . S
O67 C69 1.258 . S
C68 O62 1.247 . S
C68 O63 1.258 . S
C69 O66 1.247 . S
C69 O67 1.258 . S
C70 O72 1.247 . S
C70 O74 1.258 . S
C71 O78 1.247 . S
C71 O79 1.258 . S
O72 C70 1.247 . S
O72 Zn73 2.028 . S
Zn73 O72 2.028 . S
Zn73 O77 2.035 . S
Zn73 O79 2.035 . S
Zn73 O80 2.028 . S
O74 C70 1.258 . S
O74 Zn75 2.035 . S
Zn75 O74 2.035 . S
Zn75 O76 2.028 . S
Zn75 O78 2.028 . S
Zn75 O81 2.035 . S
O76 Zn75 2.028 . S
O76 C82 1.247 . S
O77 Zn73 2.035 . S
O77 C82 1.258 . S
O78 C71 1.247 . S
O78 Zn75 2.028 . S
O79 C71 1.258 . S
O79 Zn73 2.035 . S
O80 Zn73 2.028 . S
O80 C83 1.247 . S
O81 Zn75 2.035 . S
O81 C83 1.258 . S
C82 O76 1.247 . S
C82 O77 1.258 . S
C83 O80 1.247 . S
C83 O81 1.258 . S
C84 O86 1.247 . S
C84 O88 1.258 . S
C85 O92 1.247 . S
C85 O93 1.258 . S
O86 C84 1.247 . S
O86 Zn87 2.028 . S
Zn87 O86 2.028 . S
Zn87 O91 2.035 . S
Zn87 O93 2.035 . S
Zn87 O94 2.028 . S
O88 C84 1.258 . S
O88 Zn89 2.035 . S
Zn89 O88 2.035 . S
Zn89 O90 2.028 . S
Zn89 O92 2.028 . S
Zn89 O95 2.035 . S
O90 Zn89 2.028 . S
O90 C96 1.247 . S
O91 Zn87 2.035 . S
O91 C96 1.258 . S
O92 C85 1.247 . S
O92 Zn89 2.028 . S
O93 C85 1.258 . S
O93 Zn87 2.035 . S
O94 Zn87 2.028 . S
O94 C97 1.247 . S
O95 Zn89 2.035 . S
O95 C97 1.258 . S
C96 O90 1.247 . S
C96 O91 1.258 . S
C97 O94 1.247 . S
C97 O95 1.258 . S
C98 O100 1.247 . S
C98 O102 1.258 . S
C99 O106 1.247 . S
C99 O107 1.258 . S
O100 C98 1.247 . S
O100 Zn101 2.028 . S
Zn101 O100 2.028 . S
Zn101 O105 2.035 . S
Zn101 O107 2.035 . S
Zn101 O108 2.028 . S
O102 C98 1.258 . S
O102 Zn103 2.035 . S
Zn103 O102 2.035 . S
Zn103 O104 2.028 . S
Zn103 O106 2.028 . S
Zn103 O109 2.035 . S
O104 Zn103 2.028 . S
O104 C110 1.247 . S
O105 Zn101 2.035 . S
O105 C110 1.258 . S
O106 C99 1.247 . S
O106 Zn103 2.028 . S
O107 C99 1.258 . S
O107 Zn101 2.035 . S
O108 Zn101 2.028 . S
O108 C111 1.247 . S
O109 Zn103 2.035 . S
O109 C111 1.258 . S
C110 O104 1.247 . S
C110 O105 1.258 . S
C111 O108 1.247 . S
C111 O109 1.258 . S
C112 O114 1.247 . S
C112 O116 1.258 . S
C113 O120 1.247 . S
C113 O121 1.258 . S
O114 C112 1.247 . S
O114 Zn115 2.028 . S
Zn115 O114 2.028 . S
Zn115 O119 2.035 . S
Zn115 O121 2.035 . S
Zn115 O122 2.028 . S
O116 C112 1.258 . S
O116 Zn117 2.035 . S
Zn117 O116 2.035 . S
Zn117 O118 2.028 . S
Zn117 O120 2.028 . S
Zn117 O123 2.035 . S
O118 Zn117 2.028 . S
O118 C124 1.247 . S
O119 Zn115 2.035 . S
O119 C124 1.258 . S
O120 C113 1.247 . S
O120 Zn117 2.028 . S
O121 C113 1.258 . S
O121 Zn115 2.035 . S
O122 Zn115 2.028 . S
O122 C125 1.247 . S
O123 Zn117 2.035 . S
O123 C125 1.258 . S
C124 O118 1.247 . S
C124 O119 1.258 . S
C125 O122 1.247 . S
C125 O123 1.258 . S
C126 O128 1.247 . S
C126 O130 1.258 . S
C127 O134 1.247 . S
C127 O135 1.258 . S
O128 C126 1.247 . S
O128 Zn129 2.028 . S
Zn129 O128 2.028 . S
Zn129 O133 2.035 . S
Zn129 O135 2.035 . S
Zn129 O136 2.028 . S
O130 C126 1.258 . S
O130 Zn131 2.035 . S
Zn131 O130 2.035 . S
Zn131 O132 2.028 . S
Zn131 O134 2.028 . S
Zn131 O137 2.035 . S
O132 Zn131 2.028 . S
O132 C138 1.247 . S
O133 Zn129 2.035 . S
O133 C138 1.258 . S
O134 C127 1.247 . S
O134 Zn131 2.028 . S
O135 C127 1.258 . S
O135 Zn129 2.035 . S
O136 Zn129 2.028 . S
O136 C139 1.247 . S
O137 Zn131 2.035 . S
O137 C139 1.258 . S
C138 O132 1.247 . S
C138 O133 1.258 . S
C139 O136 1.247 . S
C139 O137 1.258 . S
C140 O142 1.247 . S
C140 O144 1.258 . S
C141 O148 1.247 . S
C141 O149 1.258 . S
O142 C140 1.247 . S
O142 Zn143 2.028 . S
Zn143 O142 2.028 . S
Zn143 O147 2.035 . S
Zn143 O149 2.035 . S
Zn143 O150 2.028 . S
O144 C140 1.258 . S
O144 Zn145 2.035 . S
Zn145 O144 2.035 . S
Zn145 O146 2.028 . S
Zn145 O148 2.028 . S
Zn145 O151 2.035 . S
O146 Zn145 2.028 . S
O146 C152 1.247 . S
O147 Zn143 2.035 . S
O147 C152 1.258 . S
O148 C141 1.247 . S
O148 Zn145 2.028 . S
O149 C141 1.258 . S
O149 Zn143 2.035 . S
O150 Zn143 2.028 . S
O150 C153 1.247 . S
O151 Zn145 2.035 . S
O151 C153 1.258 . S
C152 O146 1.247 . S
C152 O147 1.258 . S
C153 O150 1.247 . S
C153 O151 1.258 . S
C154 O156 1.247 . S
C154 O158 1.258 . S
C155 O162 1.247 . S
C155 O163 1.258 . S
O156 C154 1.247 . S
O156 Zn157 2.028 . S
Zn157 O156 2.028 . S
Zn157 O161 2.035 . S
Zn157 O163 2.035 . S
Zn157 O164 2.028 . S
O158 C154 1.258 . S
O158 Zn159 2.035 . S
Zn159 O158 2.035 . S
Zn159 O160 2.028 . S
Zn159 O162 2.028 . S
Zn159 O165 2.035 . S
O160 Zn159 2.028 . S
O160 C166 1.247 . S
O161 Zn157 2.035 . S
O161 C166 1.258 . S
O162 C155 1.247 . S
O162 Zn159 2.028 . S
O163 C155 1.258 . S
O163 Zn157 2.035 . S
O164 Zn157 2.028 . S
O164 C167 1.247 . S
O165 Zn159 2.035 . S
O165 C167 1.258 . S
C166 O160 1.247 . S
C166 O161 1.258 . S
C167 O164 1.247 . S
C167 O165 1.258 . S
C168 C169 1.363 . S
C168 C174 1.379 . S
C168 N176 1.356 . S
C169 C168 1.363 . S
C169 C175 1.363 . S
C170 C171 1.363 . S
C170 C175 1.379 . S
C170 N177 1.356 . S
C171 C170 1.363 . S
C171 C174 1.363 . S
N172 C174 1.356 . S
N172 H184 0.984 . S
N172 H185 0.985 . S
N173 C175 1.356 . S
N173 H178 0.984 . S
N173 H179 0.985 . S
C174 C168 1.379 . S
C174 C171 1.363 . S
C174 N172 1.356 . S
C175 C169 1.363 . S
C175 C170 1.379 . S
C175 N173 1.356 . S
N176 C168 1.356 . S
N176 H182 0.984 . S
N176 H183 0.984 . S
N177 C170 1.356 . S
N177 H180 0.984 . S
N177 H181 0.985 . S
H178 N173 0.984 . S
H179 N173 0.985 . S
H180 N177 0.984 . S
H181 N177 0.985 . S
H182 N176 0.984 . S
H183 N176 0.984 . S
H184 N172 0.984 . S
H185 N172 0.985 . S
C186 C187 1.363 . S
C186 C192 1.379 . S
C186 N194 1.356 . S
C187 C186 1.363 . S
C187 C193 1.363 . S
C188 C189 1.363 . S
C188 C193 1.379 . S
C188 N195 1.356 . S
C189 C188 1.363 . S
C189 C192 1.363 . S
N190 C192 1.356 . S
N190 H202 0.984 . S
N190 H203 0.985 . S
N191 C193 1.356 . S
N191 H196 0.984 . S
N191 H197 0.985 1_545 S
C192 C186 1.379 . S
C192 C189 1.363 . S
C192 N190 1.356 . S
C193 C187 1.363 . S
C193 C188 1.379 . S
C193 N191 1.356 . S
N194 C186 1.356 . S
N194 H200 0.984 . S
N194 H201 0.984 . S
N195 C188 1.356 . S
N195 H198 0.984 . S
N195 H199 0.985 1_545 S
H196 N191 0.984 . S
H197 N191 0.985 1_565 S
H198 N195 0.984 . S
H199 N195 0.985 1_565 S
H200 N194 0.984 . S
H201 N194 0.984 . S
H202 N190 0.984 . S
H203 N190 0.985 . S
C204 C205 1.363 . S
C204 C210 1.379 . S
C204 N212 1.356 . S
C205 C204 1.363 . S
C205 C211 1.363 . S
C206 C207 1.363 . S
C206 C211 1.379 . S
C206 N213 1.356 . S
C207 C206 1.363 . S
C207 C210 1.363 . S
N208 C210 1.356 . S
N208 H220 0.984 . S
N208 H221 0.985 . S
N209 C211 1.356 . S
N209 H214 0.984 . S
N209 H215 0.985 . S
C210 C204 1.379 . S
C210 C207 1.363 . S
C210 N208 1.356 . S
C211 C205 1.363 . S
C211 C206 1.379 . S
C211 N209 1.356 . S
N212 C204 1.356 . S
N212 H218 0.984 . S
N212 H219 0.984 . S
N213 C206 1.356 . S
N213 H216 0.984 . S
N213 H217 0.985 . S
H214 N209 0.984 . S
H215 N209 0.985 . S
H216 N213 0.984 . S
H217 N213 0.985 . S
H218 N212 0.984 . S
H219 N212 0.984 . S
H220 N208 0.984 . S
H221 N208 0.985 . S
C222 C223 1.363 . S
C222 C228 1.379 . S
C222 N230 1.356 . S
C223 C222 1.363 . S
C223 C229 1.363 . S
C224 C225 1.363 . S
C224 C229 1.379 . S
C224 N231 1.356 . S
C225 C224 1.363 . S
C225 C228 1.363 . S
N226 C228 1.356 . S
N226 H238 0.984 . S
N226 H239 0.985 . S
N227 C229 1.356 . S
N227 H232 0.984 . S
N227 H233 0.985 . S
C228 C222 1.379 . S
C228 C225 1.363 . S
C228 N226 1.356 . S
C229 C223 1.363 . S
C229 C224 1.379 . S
C229 N227 1.356 . S
N230 C222 1.356 . S
N230 H236 0.984 . S
N230 H237 0.984 . S
N231 C224 1.356 . S
N231 H234 0.984 . S
N231 H235 0.985 . S
H232 N227 0.984 . S
H233 N227 0.985 . S
H234 N231 0.984 . S
H235 N231 0.985 . S
H236 N230 0.984 . S
H237 N230 0.984 . S
H238 N226 0.984 . S
H239 N226 0.985 . S
C240 C241 1.363 . S
C240 C246 1.379 . S
C240 N248 1.356 . S
C241 C240 1.363 . S
C241 C247 1.363 . S
C242 C243 1.363 . S
C242 C247 1.379 . S
C242 N249 1.356 . S
C243 C242 1.363 . S
C243 C246 1.363 . S
N244 C246 1.356 . S
N244 H256 0.984 1_565 S
N244 H257 0.985 . S
N245 C247 1.356 . S
N245 H250 0.984 . S
N245 H251 0.985 . S
C246 C240 1.379 . S
C246 C243 1.363 . S
C246 N244 1.356 . S
C247 C241 1.363 . S
C247 C242 1.379 . S
C247 N245 1.356 . S
N248 C240 1.356 . S
N248 H254 0.984 1_565 S
N248 H255 0.984 . S
N249 C242 1.356 . S
N249 H252 0.984 . S
N249 H253 0.985 . S
H250 N245 0.984 . S
H251 N245 0.985 . S
H252 N249 0.984 . S
H253 N249 0.985 . S
H254 N248 0.984 1_545 S
H255 N248 0.984 . S
H256 N244 0.984 1_545 S
H257 N244 0.985 . S
C258 C259 1.363 . S
C258 C264 1.379 . S
C258 N266 1.356 . S
C259 C258 1.363 . S
C259 C265 1.363 . S
C260 C261 1.363 . S
C260 C265 1.379 . S
C260 N267 1.356 . S
C261 C260 1.363 . S
C261 C264 1.363 . S
N262 C264 1.356 . S
N262 H274 0.984 . S
N262 H275 0.985 . S
N263 C265 1.356 . S
N263 H268 0.984 . S
N263 H269 0.985 . S
C264 C258 1.379 . S
C264 C261 1.363 . S
C264 N262 1.356 . S
C265 C259 1.363 . S
C265 C260 1.379 . S
C265 N263 1.356 . S
N266 C258 1.356 . S
N266 H272 0.984 . S
N266 H273 0.984 . S
N267 C260 1.356 . S
N267 H270 0.984 . S
N267 H271 0.985 . S
H268 N263 0.984 . S
H269 N263 0.985 . S
H270 N267 0.984 . S
H271 N267 0.985 . S
H272 N266 0.984 . S
H273 N266 0.984 . S
H274 N262 0.984 . S
H275 N262 0.985 . S
C276 C277 1.363 . S
C276 C282 1.379 . S
C276 N284 1.356 . S
C277 C276 1.363 . S
C277 C283 1.363 . S
C278 C279 1.363 . S
C278 C283 1.379 . S
C278 N285 1.356 . S
C279 C278 1.363 . S
C279 C282 1.363 . S
N280 C282 1.356 . S
N280 H292 0.984 . S
N280 H293 0.985 . S
N281 C283 1.356 . S
N281 H286 0.984 . S
N281 H287 0.985 . S
C282 C276 1.379 . S
C282 C279 1.363 . S
C282 N280 1.356 . S
C283 C277 1.363 . S
C283 C278 1.379 . S
C283 N281 1.356 . S
N284 C276 1.356 . S
N284 H290 0.984 . S
N284 H291 0.984 . S
N285 C278 1.356 . S
N285 H288 0.984 . S
N285 H289 0.985 . S
H286 N281 0.984 . S
H287 N281 0.985 . S
H288 N285 0.984 . S
H289 N285 0.985 . S
H290 N284 0.984 . S
H291 N284 0.984 . S
H292 N280 0.984 . S
H293 N280 0.985 . S
C294 C295 1.363 . S
C294 C300 1.379 . S
C294 N302 1.356 . S
C295 C294 1.363 . S
C295 C301 1.363 1_655 S
C296 C297 1.363 . S
C296 C301 1.379 . S
C296 N303 1.356 . S
C297 C296 1.363 . S
C297 C300 1.363 1_455 S
N298 C300 1.356 . S
N298 H310 0.984 . S
N298 H311 0.985 1_655 S
N299 C301 1.356 . S
N299 H304 0.984 1_455 S
N299 H305 0.985 . S
C300 C294 1.379 . S
C300 C297 1.363 1_655 S
C300 N298 1.356 . S
C301 C295 1.363 1_455 S
C301 C296 1.379 . S
C301 N299 1.356 . S
N302 C294 1.356 . S
N302 H308 0.984 . S
N302 H309 0.984 . S
N303 C296 1.356 . S
N303 H306 0.984 . S
N303 H307 0.985 . S
H304 N299 0.984 1_655 S
H305 N299 0.985 . S
H306 N303 0.984 . S
H307 N303 0.985 . S
H308 N302 0.984 . S
H309 N302 0.984 . S
H310 N298 0.984 . S
H311 N298 0.985 1_455 S
C312 C313 1.363 1_565 S
C312 C318 1.379 . S
C312 N320 1.356 . S
C313 C312 1.363 1_545 S
C313 C319 1.363 . S
C314 C315 1.363 1_545 S
C314 C319 1.379 . S
C314 N321 1.356 . S
C315 C314 1.363 1_565 S
C315 C318 1.363 . S
N316 C318 1.356 . S
N316 H328 0.984 . S
N316 H329 0.985 . S
N317 C319 1.356 . S
N317 H322 0.984 . S
N317 H323 0.985 . S
C318 C312 1.379 . S
C318 C315 1.363 . S
C318 N316 1.356 . S
C319 C313 1.363 . S
C319 C314 1.379 . S
C319 N317 1.356 . S
N320 C312 1.356 . S
N320 H326 0.984 . S
N320 H327 0.984 1_565 S
N321 C314 1.356 . S
N321 H324 0.984 1_545 S
N321 H325 0.985 . S
H322 N317 0.984 . S
H323 N317 0.985 . S
H324 N321 0.984 1_565 S
H325 N321 0.985 . S
H326 N320 0.984 . S
H327 N320 0.984 1_545 S
H328 N316 0.984 . S
H329 N316 0.985 . S
C330 C331 1.363 . S
C330 C336 1.379 . S
C330 N338 1.356 . S
C331 C330 1.363 . S
C331 C337 1.363 . S
C332 C333 1.363 . S
C332 C337 1.379 . S
C332 N339 1.356 . S
C333 C332 1.363 . S
C333 C336 1.363 . S
N334 C336 1.356 . S
N334 H346 0.984 . S
N334 H347 0.985 . S
N335 C337 1.356 . S
N335 H340 0.984 . S
N335 H341 0.985 . S
C336 C330 1.379 . S
C336 C333 1.363 . S
C336 N334 1.356 . S
C337 C331 1.363 . S
C337 C332 1.379 . S
C337 N335 1.356 . S
N338 C330 1.356 . S
N338 H344 0.984 . S
N338 H345 0.984 . S
N339 C332 1.356 . S
N339 H342 0.984 . S
N339 H343 0.985 . S
H340 N335 0.984 . S
H341 N335 0.985 . S
H342 N339 0.984 . S
H343 N339 0.985 . S
H344 N338 0.984 . S
H345 N338 0.984 . S
H346 N334 0.984 . S
H347 N334 0.985 . S
C348 C349 1.363 . S
C348 C354 1.379 1_655 S
C348 N356 1.356 . S
C349 C348 1.363 . S
C349 C355 1.363 . S
C350 C351 1.363 . S
C350 C355 1.379 1_455 S
C350 N357 1.356 . S
C351 C350 1.363 . S
C351 C354 1.363 . S
N352 C354 1.356 . S
N352 H364 0.984 . S
N352 H365 0.985 . S
N353 C355 1.356 . S
N353 H358 0.984 . S
N353 H359 0.985 . S
C354 C348 1.379 1_455 S
C354 C351 1.363 . S
C354 N352 1.356 . S
C355 C349 1.363 . S
C355 C350 1.379 1_655 S
C355 N353 1.356 . S
N356 C348 1.356 . S
N356 H362 0.984 . S
N356 H363 0.984 . S
N357 C350 1.356 . S
N357 H360 0.984 . S
N357 H361 0.985 . S
H358 N353 0.984 . S
H359 N353 0.985 . S
H360 N357 0.984 . S
H361 N357 0.985 . S
H362 N356 0.984 . S
H363 N356 0.984 . S
H364 N352 0.984 . S
H365 N352 0.985 . S
C366 C367 1.363 1_545 S
C366 C372 1.379 . S
C366 N374 1.356 1_545 S
C367 C366 1.363 1_565 S
C367 C373 1.363 1_554 S
C368 C369 1.363 1_565 S
C368 C373 1.379 . S
C368 N375 1.356 1_565 S
C369 C368 1.363 1_545 S
C369 C372 1.363 1_556 S
N370 C372 1.356 . S
N370 H382 0.984 . S
N370 H383 0.985 1_554 S
N371 C373 1.356 . S
N371 H376 0.984 1_556 S
N371 H377 0.985 . S
C372 C366 1.379 . S
C372 C369 1.363 1_554 S
C372 N370 1.356 . S
C373 C367 1.363 1_556 S
C373 C368 1.379 . S
C373 N371 1.356 . S
N374 C366 1.356 1_565 S
N374 H380 0.984 1_565 S
N374 H381 0.984 . S
N375 C368 1.356 1_545 S
N375 H378 0.984 . S
N375 H379 0.985 1_545 S
H376 N371 0.984 1_554 S
H377 N371 0.985 . S
H378 N375 0.984 . S
H379 N375 0.985 1_565 S
H380 N374 0.984 1_545 S
H381 N374 0.984 . S
H382 N370 0.984 . S
H383 N370 0.985 1_556 S
C384 C385 1.363 . S
C384 C390 1.379 . S
C384 N392 1.356 . S
C385 C384 1.363 . S
C385 C391 1.363 . S
C386 C387 1.363 . S
C386 C391 1.379 . S
C386 N393 1.356 . S
C387 C386 1.363 . S
C387 C390 1.363 . S
N388 C390 1.356 1_556 S
N388 H400 0.984 . S
N388 H401 0.985 . S
N389 C391 1.356 . S
N389 H394 0.984 . S
N389 H395 0.985 . S
C390 C384 1.379 . S
C390 C387 1.363 . S
C390 N388 1.356 1_554 S
C391 C385 1.363 . S
C391 C386 1.379 . S
C391 N389 1.356 . S
N392 C384 1.356 . S
N392 H398 0.984 . S
N392 H399 0.984 . S
N393 C386 1.356 . S
N393 H396 0.984 . S
N393 H397 0.985 . S
H394 N389 0.984 . S
H395 N389 0.985 . S
H396 N393 0.984 . S
H397 N393 0.985 . S
H398 N392 0.984 . S
H399 N392 0.984 . S
H400 N388 0.984 . S
H401 N388 0.985 . S
C402 C403 1.363 . S
C402 C408 1.379 . S
C402 N410 1.356 . S
C403 C402 1.363 . S
C403 C409 1.363 . S
C404 C405 1.363 1_655 S
C404 C409 1.379 . S
C404 N411 1.356 1_655 S
C405 C404 1.363 1_455 S
C405 C408 1.363 1_455 S
N406 C408 1.356 1_455 S
N406 H418 0.984 . S
N406 H419 0.985 . S
N407 C409 1.356 . S
N407 H412 0.984 . S
N407 H413 0.985 . S
C408 C402 1.379 . S
C408 C405 1.363 1_655 S
C408 N406 1.356 1_655 S
C409 C403 1.363 . S
C409 C404 1.379 . S
C409 N407 1.356 . S
N410 C402 1.356 . S
N410 H416 0.984 . S
N410 H417 0.984 . S
N411 C404 1.356 1_455 S
N411 H414 0.984 . S
N411 H415 0.985 . S
H412 N407 0.984 . S
H413 N407 0.985 . S
H414 N411 0.984 . S
H415 N411 0.985 . S
H416 N410 0.984 . S
H417 N410 0.984 . S
H418 N406 0.984 . S
H419 N406 0.985 . S
C420 C421 1.363 . S
C420 C426 1.379 1_545 S
C420 N428 1.356 . S
C421 C420 1.363 . S
C421 C427 1.363 1_545 S
C422 C423 1.363 . S
C422 C427 1.379 . S
C422 N429 1.356 . S
C423 C422 1.363 . S
C423 C426 1.363 . S
N424 C426 1.356 . S
N424 H436 0.984 . S
N424 H437 0.985 . S
N425 C427 1.356 . S
N425 H430 0.984 1_565 S
N425 H431 0.985 . S
C426 C420 1.379 1_565 S
C426 C423 1.363 . S
C426 N424 1.356 . S
C427 C421 1.363 1_565 S
C427 C422 1.379 . S
C427 N425 1.356 . S
N428 C420 1.356 . S
N428 H434 0.984 . S
N428 H435 0.984 . S
N429 C422 1.356 . S
N429 H432 0.984 . S
N429 H433 0.985 . S
H430 N425 0.984 1_545 S
H431 N425 0.985 . S
H432 N429 0.984 . S
H433 N429 0.985 . S
H434 N428 0.984 . S
H435 N428 0.984 . S
H436 N424 0.984 . S
H437 N424 0.985 . S
C438 C439 1.363 . S
C438 C444 1.379 . S
C438 N446 1.356 . S
C439 C438 1.363 . S
C439 C445 1.363 . S
C440 C441 1.363 . S
C440 C445 1.379 . S
C440 N447 1.356 . S
C441 C440 1.363 . S
C441 C444 1.363 . S
N442 C444 1.356 . S
N442 H454 0.984 . S
N442 H455 0.985 . S
N443 C445 1.356 . S
N443 H448 0.984 . S
N443 H449 0.985 . S
C444 C438 1.379 . S
C444 C441 1.363 . S
C444 N442 1.356 . S
C445 C439 1.363 . S
C445 C440 1.379 . S
C445 N443 1.356 . S
N446 C438 1.356 . S
N446 H452 0.984 . S
N446 H453 0.984 . S
N447 C440 1.356 . S
N447 H450 0.984 . S
N447 H451 0.985 . S
H448 N443 0.984 . S
H449 N443 0.985 . S
H450 N447 0.984 . S
H451 N447 0.985 . S
H452 N446 0.984 . S
H453 N446 0.984 . S
H454 N442 0.984 . S
H455 N442 0.985 . S
C456 C457 1.363 . S
C456 C462 1.379 . S
C456 N464 1.356 . S
C457 C456 1.363 . S
C457 C463 1.363 . S
C458 C459 1.363 1_455 S
C458 C463 1.379 . S
C458 N465 1.356 1_455 S
C459 C458 1.363 1_655 S
C459 C462 1.363 1_655 S
N460 C462 1.356 1_655 S
N460 H472 0.984 . S
N460 H473 0.985 . S
N461 C463 1.356 . S
N461 H466 0.984 . S
N461 H467 0.985 . S
C462 C456 1.379 . S
C462 C459 1.363 1_455 S
C462 N460 1.356 1_455 S
C463 C457 1.363 . S
C463 C458 1.379 . S
C463 N461 1.356 . S
N464 C456 1.356 . S
N464 H470 0.984 . S
N464 H471 0.984 . S
N465 C458 1.356 1_655 S
N465 H468 0.984 . S
N465 H469 0.985 . S
H466 N461 0.984 . S
H467 N461 0.985 . S
H468 N465 0.984 . S
H469 N465 0.985 . S
H470 N464 0.984 . S
H471 N464 0.984 . S
H472 N460 0.984 . S
H473 N460 0.985 . S
C474 C475 1.363 . S
C474 C480 1.379 . S
C474 N482 1.356 . S
C475 C474 1.363 . S
C475 C481 1.363 . S
C476 C477 1.363 . S
C476 C481 1.379 1_565 S
C476 N483 1.356 . S
C477 C476 1.363 . S
C477 C480 1.363 1_565 S
N478 C480 1.356 . S
N478 H490 0.984 . S
N478 H491 0.985 1_545 S
N479 C481 1.356 . S
N479 H484 0.984 . S
N479 H485 0.985 . S
C480 C474 1.379 . S
C480 C477 1.363 1_545 S
C480 N478 1.356 . S
C481 C475 1.363 . S
C481 C476 1.379 1_545 S
C481 N479 1.356 . S
N482 C474 1.356 . S
N482 H488 0.984 . S
N482 H489 0.984 . S
N483 C476 1.356 . S
N483 H486 0.984 . S
N483 H487 0.985 . S
H484 N479 0.984 . S
H485 N479 0.985 . S
H486 N483 0.984 . S
H487 N483 0.985 . S
H488 N482 0.984 . S
H489 N482 0.984 . S
H490 N478 0.984 . S
H491 N478 0.985 1_565 S
C492 C493 1.363 . S
C492 C498 1.379 . S
C492 N500 1.356 . S
C493 C492 1.363 . S
C493 C499 1.363 . S
C494 C495 1.363 . S
C494 C499 1.379 . S
C494 N501 1.356 . S
C495 C494 1.363 . S
C495 C498 1.363 . S
N496 C498 1.356 . S
N496 H508 0.984 . S
N496 H509 0.985 . S
N497 C499 1.356 . S
N497 H502 0.984 . S
N497 H503 0.985 . S
C498 C492 1.379 . S
C498 C495 1.363 . S
C498 N496 1.356 . S
C499 C493 1.363 . S
C499 C494 1.379 . S
C499 N497 1.356 . S
N500 C492 1.356 . S
N500 H506 0.984 . S
N500 H507 0.984 . S
N501 C494 1.356 . S
N501 H504 0.984 . S
N501 H505 0.985 . S
H502 N497 0.984 . S
H503 N497 0.985 . S
H504 N501 0.984 . S
H505 N501 0.985 . S
H506 N500 0.984 . S
H507 N500 0.984 . S
H508 N496 0.984 . S
H509 N496 0.985 . S
C510 C511 1.363 . S
C510 C516 1.379 1_655 S
C510 N518 1.356 . S
C511 C510 1.363 . S
C511 C517 1.363 . S
C512 C513 1.363 1_655 S
C512 C517 1.379 . S
C512 N519 1.356 1_556 S
C513 C512 1.363 1_455 S
C513 C516 1.363 . S
N514 C516 1.356 . S
N514 H526 0.984 . S
N514 H527 0.985 . S
N515 C517 1.356 . S
N515 H520 0.984 . S
N515 H521 0.985 . S
C516 C510 1.379 1_455 S
C516 C513 1.363 . S
C516 N514 1.356 . S
C517 C511 1.363 . S
C517 C512 1.379 . S
C517 N515 1.356 . S
N518 C510 1.356 . S
N518 H524 0.984 . S
N518 H525 0.984 . S
N519 C512 1.356 1_554 S
N519 H522 0.984 1_655 S
N519 H523 0.985 . S
H520 N515 0.984 . S
H521 N515 0.985 . S
H522 N519 0.984 1_455 S
H523 N519 0.985 . S
H524 N518 0.984 . S
H525 N518 0.984 . S
H526 N514 0.984 . S
H527 N514 0.985 . S
C528 C529 1.363 . S
C528 C534 1.379 1_565 S
C528 N536 1.356 . S
C529 C528 1.363 . S
C529 C535 1.363 . S
C530 C531 1.363 1_565 S
C530 C535 1.379 . S
C530 N537 1.356 1_565 S
C531 C530 1.363 1_545 S
C531 C534 1.363 . S
N532 C534 1.356 . S
N532 H544 0.984 . S
N532 H545 0.985 . S
N533 C535 1.356 . S
N533 H538 0.984 . S
N533 H539 0.985 . S
C534 C528 1.379 1_545 S
C534 C531 1.363 . S
C534 N532 1.356 . S
C535 C529 1.363 . S
C535 C530 1.379 . S
C535 N533 1.356 . S
N536 C528 1.356 . S
N536 H542 0.984 . S
N536 H543 0.984 . S
N537 C530 1.356 1_545 S
N537 H540 0.984 . S
N537 H541 0.985 1_545 S
H538 N533 0.984 . S
H539 N533 0.985 . S
H540 N537 0.984 . S
H541 N537 0.985 1_565 S
H542 N536 0.984 . S
H543 N536 0.984 . S
H544 N532 0.984 . S
H545 N532 0.985 . S
C546 C547 1.363 . S
C546 C552 1.379 . S
C546 N554 1.356 . S
C547 C546 1.363 . S
C547 C553 1.363 . S
C548 C549 1.363 . S
C548 C553 1.379 . S
C548 N555 1.356 . S
C549 C548 1.363 . S
C549 C552 1.363 . S
N550 C552 1.356 . S
N550 H562 0.984 . S
N550 H563 0.985 . S
N551 C553 1.356 . S
N551 H556 0.984 . S
N551 H557 0.985 . S
C552 C546 1.379 . S
C552 C549 1.363 . S
C552 N550 1.356 . S
C553 C547 1.363 . S
C553 C548 1.379 . S
C553 N551 1.356 . S
N554 C546 1.356 . S
N554 H560 0.984 . S
N554 H561 0.984 . S
N555 C548 1.356 . S
N555 H558 0.984 . S
N555 H559 0.985 . S
H556 N551 0.984 . S
H557 N551 0.985 . S
H558 N555 0.984 . S
H559 N555 0.985 . S
H560 N554 0.984 . S
H561 N554 0.984 . S
H562 N550 0.984 . S
H563 N550 0.985 . S
C564 C565 1.363 . S
C564 C570 1.379 . S
C564 N572 1.356 . S
C565 C564 1.363 . S
C565 C571 1.363 . S
C566 C567 1.363 1_455 S
C566 C571 1.379 . S
C566 N573 1.356 1_455 S
C567 C566 1.363 1_655 S
C567 C570 1.363 1_655 S
N568 C570 1.356 1_655 S
N568 H580 0.984 . S
N568 H581 0.985 . S
N569 C571 1.356 . S
N569 H574 0.984 . S
N569 H575 0.985 . S
C570 C564 1.379 . S
C570 C567 1.363 1_455 S
C570 N568 1.356 1_455 S
C571 C565 1.363 . S
C571 C566 1.379 . S
C571 N569 1.356 . S
N572 C564 1.356 . S
N572 H578 0.984 . S
N572 H579 0.984 . S
N573 C566 1.356 1_655 S
N573 H576 0.984 . S
N573 H577 0.985 . S
H574 N569 0.984 . S
H575 N569 0.985 . S
H576 N573 0.984 . S
H577 N573 0.985 . S
H578 N572 0.984 . S
H579 N572 0.984 . S
H580 N568 0.984 . S
H581 N568 0.985 . S
C582 C583 1.363 1_545 S
C582 C588 1.379 . S
C582 N590 1.356 1_545 S
C583 C582 1.363 1_565 S
C583 C589 1.363 1_565 S
C584 C585 1.363 . S
C584 C589 1.379 . S
C584 N591 1.356 . S
C585 C584 1.363 . S
C585 C588 1.363 . S
N586 C588 1.356 . S
N586 H598 0.984 . S
N586 H599 0.985 . S
N587 C589 1.356 1_565 S
N587 H592 0.984 . S
N587 H593 0.985 . S
C588 C582 1.379 . S
C588 C585 1.363 . S
C588 N586 1.356 . S
C589 C583 1.363 1_545 S
C589 C584 1.379 . S
C589 N587 1.356 1_545 S
N590 C582 1.356 1_565 S
N590 H596 0.984 . S
N590 H597 0.984 . S
N591 C584 1.356 . S
N591 H594 0.984 . S
N591 H595 0.985 . S
H592 N587 0.984 . S
H593 N587 0.985 . S
H594 N591 0.984 . S
H595 N591 0.985 . S
H596 N590 0.984 . S
H597 N590 0.984 . S
H598 N586 0.984 . S
H599 N586 0.985 . S
C169 C113 1.619 . S
C171 C12 1.621 . S
C187 C15 1.619 . S
C189 C139 1.619 . S
C205 C29 1.619 . S
C207 C140 1.621 . S
C223 C54 1.621 . S
C225 C154 1.621 . S
C241 C85 1.619 . S
C243 C57 1.619 . S
C259 C83 1.619 . S
C261 C110 1.621 . S
C277 C138 1.442 . S
C279 C13 1.440 . S
C295 C14 1.442 . S
C297 C141 1.440 . S
C313 C155 1.440 . S
C315 C28 1.442 . S
C331 C55 1.440 . S
C333 C84 1.442 . S
C349 C111 1.440 . S
C351 C56 1.442 . S
C367 C112 1.442 . S
C369 C82 1.442 . S
C385 C0 1.895 . S
C387 C70 1.857 1_554 S
C403 C27 1.894 . S
C405 C1 1.855 . S
C421 C26 1.857 . S
C423 C41 1.894 . S
C439 C42 1.895 . S
C441 C40 1.857 . S
C457 C69 1.894 . S
C459 C43 1.855 . S
C475 C71 1.894 . S
C477 C68 1.857 . S
C493 C97 1.894 . S
C495 C99 1.855 . S
C511 C98 1.895 . S
C513 C124 1.857 1_556 S
C529 C125 1.894 . S
C531 C126 1.857 . S
C547 C127 1.894 . S
C549 C153 1.855 . S
C565 C152 1.895 . S
C567 C167 1.855 . S
C583 C96 1.857 . S
C585 C166 1.895 . S
