# Generated by pormake.
# Topology cbo, (4)-cn, num edge types: 1
# Building blocks:
#     Node 0, Type 0, BuildingBlock: ICAMEG_clean_sbu_1, # of connection points: 4
#     Node 1, Type 0, BuildingBlock: ICAMEG_clean_sbu_1, # of connection points: 4
#     Node 2, Type 0, BuildingBlock: ICAMEG_clean_sbu_1, # of connection points: 4
#     Node 3, Type 0, BuildingBlock: ICAMEG_clean_sbu_1, # of connection points: 4
#     Node 4, Type 0, BuildingBlock: ICAMEG_clean_sbu_1, # of connection points: 4
#     Node 5, Type 0, BuildingBlock: ICAMEG_clean_sbu_1, # of connection points: 4
#     Node 6, Type 0, BuildingBlock: ICAMEG_clean_sbu_1, # of connection points: 4
#     Node 7, Type 0, BuildingBlock: ICAMEG_clean_sbu_1, # of connection points: 4
#     Node 8, Type 0, BuildingBlock: ICAMEG_clean_sbu_1, # of connection points: 4
#     Node 9, Type 0, BuildingBlock: ICAMEG_clean_sbu_1, # of connection points: 4
#     Node 10, Type 0, BuildingBlock: ICAMEG_clean_sbu_1, # of connection points: 4
#     Node 11, Type 0, BuildingBlock: ICAMEG_clean_sbu_1, # of connection points: 4
#     Node 12, Type 0, BuildingBlock: ICAMEG_clean_sbu_1, # of connection points: 4
#     Node 13, Type 0, BuildingBlock: ICAMEG_clean_sbu_1, # of connection points: 4
#     Node 14, Type 0, BuildingBlock: ICAMEG_clean_sbu_1, # of connection points: 4
#     Node 15, Type 0, BuildingBlock: ICAMEG_clean_sbu_1, # of connection points: 4
#     Node 16, Type 0, BuildingBlock: ICAMEG_clean_sbu_1, # of connection points: 4
#     Node 17, Type 0, BuildingBlock: ICAMEG_clean_sbu_1, # of connection points: 4
#     Node 18, Type 0, BuildingBlock: ICAMEG_clean_sbu_1, # of connection points: 4
#     Node 19, Type 0, BuildingBlock: ICAMEG_clean_sbu_1, # of connection points: 4
#     Node 20, Type 0, BuildingBlock: ICAMEG_clean_sbu_1, # of connection points: 4
#     Node 21, Type 0, BuildingBlock: ICAMEG_clean_sbu_1, # of connection points: 4
#     Node 22, Type 0, BuildingBlock: ICAMEG_clean_sbu_1, # of connection points: 4
#     Node 23, Type 0, BuildingBlock: ICAMEG_clean_sbu_1, # of connection points: 4
#     Edge 24, Type (0, 0), BuildingBlock: UVAHIK_clean_linker_0, # of connection points: 2
#     Edge 25, Type (0, 0), BuildingBlock: UVAHIK_clean_linker_0, # of connection points: 2
#     Edge 26, Type (0, 0), BuildingBlock: UVAHIK_clean_linker_0, # of connection points: 2
#     Edge 27, Type (0, 0), BuildingBlock: UVAHIK_clean_linker_0, # of connection points: 2
#     Edge 28, Type (0, 0), BuildingBlock: UVAHIK_clean_linker_0, # of connection points: 2
#     Edge 29, Type (0, 0), BuildingBlock: UVAHIK_clean_linker_0, # of connection points: 2
#     Edge 30, Type (0, 0), BuildingBlock: UVAHIK_clean_linker_0, # of connection points: 2
#     Edge 31, Type (0, 0), BuildingBlock: UVAHIK_clean_linker_0, # of connection points: 2
#     Edge 32, Type (0, 0), BuildingBlock: UVAHIK_clean_linker_0, # of connection points: 2
#     Edge 33, Type (0, 0), BuildingBlock: UVAHIK_clean_linker_0, # of connection points: 2
#     Edge 34, Type (0, 0), BuildingBlock: UVAHIK_clean_linker_0, # of connection points: 2
#     Edge 35, Type (0, 0), BuildingBlock: UVAHIK_clean_linker_0, # of connection points: 2
#     Edge 36, Type (0, 0), BuildingBlock: UVAHIK_clean_linker_0, # of connection points: 2
#     Edge 37, Type (0, 0), BuildingBlock: UVAHIK_clean_linker_0, # of connection points: 2
#     Edge 38, Type (0, 0), BuildingBlock: UVAHIK_clean_linker_0, # of connection points: 2
#     Edge 39, Type (0, 0), BuildingBlock: UVAHIK_clean_linker_0, # of connection points: 2
#     Edge 40, Type (0, 0), BuildingBlock: UVAHIK_clean_linker_0, # of connection points: 2
#     Edge 41, Type (0, 0), BuildingBlock: UVAHIK_clean_linker_0, # of connection points: 2
#     Edge 42, Type (0, 0), BuildingBlock: UVAHIK_clean_linker_0, # of connection points: 2
#     Edge 43, Type (0, 0), BuildingBlock: UVAHIK_clean_linker_0, # of connection points: 2
#     Edge 44, Type (0, 0), BuildingBlock: UVAHIK_clean_linker_0, # of connection points: 2
#     Edge 45, Type (0, 0), BuildingBlock: UVAHIK_clean_linker_0, # of connection points: 2
#     Edge 46, Type (0, 0), BuildingBlock: UVAHIK_clean_linker_0, # of connection points: 2
#     Edge 47, Type (0, 0), BuildingBlock: UVAHIK_clean_linker_0, # of connection points: 2
#     Edge 48, Type (0, 0), BuildingBlock: UVAHIK_clean_linker_0, # of connection points: 2
#     Edge 49, Type (0, 0), BuildingBlock: UVAHIK_clean_linker_0, # of connection points: 2
#     Edge 50, Type (0, 0), BuildingBlock: UVAHIK_clean_linker_0, # of connection points: 2
#     Edge 51, Type (0, 0), BuildingBlock: UVAHIK_clean_linker_0, # of connection points: 2
#     Edge 52, Type (0, 0), BuildingBlock: UVAHIK_clean_linker_0, # of connection points: 2
#     Edge 53, Type (0, 0), BuildingBlock: UVAHIK_clean_linker_0, # of connection points: 2
#     Edge 54, Type (0, 0), BuildingBlock: UVAHIK_clean_linker_0, # of connection points: 2
#     Edge 55, Type (0, 0), BuildingBlock: UVAHIK_clean_linker_0, # of connection points: 2
#     Edge 56, Type (0, 0), BuildingBlock: UVAHIK_clean_linker_0, # of connection points: 2
#     Edge 57, Type (0, 0), BuildingBlock: UVAHIK_clean_linker_0, # of connection points: 2
#     Edge 58, Type (0, 0), BuildingBlock: UVAHIK_clean_linker_0, # of connection points: 2
#     Edge 59, Type (0, 0), BuildingBlock: UVAHIK_clean_linker_0, # of connection points: 2
#     Edge 60, Type (0, 0), BuildingBlock: UVAHIK_clean_linker_0, # of connection points: 2
#     Edge 61, Type (0, 0), BuildingBlock: UVAHIK_clean_linker_0, # of connection points: 2
#     Edge 62, Type (0, 0), BuildingBlock: UVAHIK_clean_linker_0, # of connection points: 2
#     Edge 63, Type (0, 0), BuildingBlock: UVAHIK_clean_linker_0, # of connection points: 2
#     Edge 64, Type (0, 0), BuildingBlock: UVAHIK_clean_linker_0, # of connection points: 2
#     Edge 65, Type (0, 0), BuildingBlock: UVAHIK_clean_linker_0, # of connection points: 2
#     Edge 66, Type (0, 0), BuildingBlock: UVAHIK_clean_linker_0, # of connection points: 2
#     Edge 67, Type (0, 0), BuildingBlock: UVAHIK_clean_linker_0, # of connection points: 2
#     Edge 68, Type (0, 0), BuildingBlock: UVAHIK_clean_linker_0, # of connection points: 2
#     Edge 69, Type (0, 0), BuildingBlock: UVAHIK_clean_linker_0, # of connection points: 2
#     Edge 70, Type (0, 0), BuildingBlock: UVAHIK_clean_linker_0, # of connection points: 2
#     Edge 71, Type (0, 0), BuildingBlock: UVAHIK_clean_linker_0, # of connection points: 2
# Relax obj value: 0.092
# Max RMSD: 0.118
# Mean RMSD: 0.118
data_MOF--net-cbo--node1-ICAMEG_clean_sbu_1--edge1-UVAHIK_clean_linker_0
_symmetry_space_group_name_H-M    P1
_symmetry_Int_Tables_number       1
_symmetry_cell_setting            triclinic
loop_
_symmetry_equiv_pos_as_xyz
'x, y, z'
_cell_length_a     70.870237
_cell_length_b     70.868149
_cell_length_c     70.865076
_cell_angle_alpha  89.999934
_cell_angle_beta   90.002319
_cell_angle_gamma 90.005884
loop_
_atom_site_label
_atom_site_type_symbol
_atom_site_fract_x
_atom_site_fract_y
_atom_site_fract_z
_atom_type_partial_charge
Co0 Co 0.15508 0.20235 0.3619 0.0
Co1 Co 0.12686 0.17438 0.33341 0.0
O2 O 0.13344 0.18555 0.35784 0.0
C3 C 0.16066 0.17147 0.38953 0.0
O4 O 0.15503 0.15948 0.37659 0.0
C5 C 0.09138 0.19346 0.34546 0.0
O6 O 0.10132 0.20736 0.3526 0.0
O7 O 0.12907 0.19928 0.3205 0.0
O8 O 0.14947 0.21606 0.33802 0.0
H9 H 0.13473 0.16286 0.2639 0.0
H10 H 0.12685 0.19739 0.39236 0.0
O11 O 0.16136 0.18906 0.38599 0.0
H12 H 0.12554 0.26522 0.37691 0.0
H13 H 0.19797 0.24325 0.40111 0.0
H14 H 0.18515 0.21815 0.33747 0.0
H15 H 0.14729 0.24372 0.36032 0.0
H16 H 0.17082 0.22219 0.39553 0.0
O17 O 0.09948 0.17935 0.33787 0.0
H18 H 0.14285 0.17661 0.29482 0.0
H19 H 0.09642 0.14843 0.32017 0.0
H20 H 0.21237 0.23928 0.34239 0.0
H21 H 0.10501 0.21842 0.40945 0.0
H22 H 0.21892 0.25198 0.3744 0.0
H23 H 0.10421 0.25259 0.4017 0.0
O24 O 0.17244 0.18506 0.34802 0.0
H25 H 0.10493 0.13061 0.38468 0.0
H26 H 0.14148 0.13561 0.32568 0.0
H27 H 0.13935 0.10492 0.34196 0.0
H28 H 0.12094 0.10228 0.37167 0.0
H29 H 0.10758 0.16107 0.36802 0.0
H30 H 0.0877 0.13451 0.28949 0.0
H31 H 0.10696 0.14165 0.26109 0.0
O32 O 0.15385 0.16901 0.32803 0.0
C33 C 0.13908 0.21395 0.32349 0.0
C34 C 0.12626 0.1596 0.27618 0.0
C35 C 0.09985 0.1437 0.29054 0.0
N36 N 0.12021 0.16322 0.30931 0.0
C37 C 0.13082 0.1673 0.29374 0.0
C38 C 0.10483 0.15166 0.30787 0.0
C39 C 0.11067 0.14771 0.27461 0.0
C40 C 0.12672 0.21227 0.38905 0.0
N41 N 0.13838 0.21932 0.37541 0.0
C42 C 0.11426 0.2241 0.39871 0.0
C43 C 0.1138 0.24327 0.39434 0.0
C44 C 0.12575 0.25036 0.38042 0.0
C45 C 0.138 0.2381 0.37103 0.0
C46 C 0.19525 0.23783 0.38709 0.0
C47 C 0.18785 0.22371 0.35142 0.0
C48 C 0.17992 0.22587 0.38386 0.0
N49 N 0.17634 0.21905 0.36617 0.0
C50 C 0.20331 0.23563 0.35413 0.0
C51 C 0.20699 0.24273 0.37209 0.0
C52 C 0.17001 0.17337 0.33455 0.0
C53 C 0.11295 0.13157 0.37172 0.0
C54 C 0.13352 0.13459 0.33864 0.0
C55 C 0.13231 0.11717 0.34777 0.0
C56 C 0.12197 0.11569 0.36443 0.0
N57 N 0.12463 0.15011 0.34588 0.0
C58 C 0.11444 0.14876 0.36219 0.0
Co59 Co 0.34796 0.79468 0.86234 0.0
Co60 Co 0.37696 0.82478 0.83726 0.0
O61 O 0.36927 0.81209 0.86047 0.0
C62 C 0.33987 0.82389 0.89088 0.0
O63 O 0.34488 0.8365 0.87828 0.0
C64 C 0.41312 0.80553 0.84691 0.0
O65 O 0.40463 0.78913 0.84545 0.0
O66 O 0.37656 0.80052 0.82292 0.0
O67 O 0.355 0.7827 0.83791 0.0
H68 H 0.37419 0.83976 0.768 0.0
H69 H 0.3749 0.79825 0.89412 0.0
O70 O 0.34034 0.80638 0.88689 0.0
H71 H 0.37796 0.73148 0.87475 0.0
H72 H 0.30409 0.75068 0.89678 0.0
H73 H 0.31943 0.77991 0.83552 0.0
H74 H 0.35651 0.75362 0.85861 0.0
H75 H 0.33104 0.77251 0.89385 0.0
O76 O 0.40408 0.82082 0.84428 0.0
H77 H 0.36416 0.82408 0.79741 0.0
H78 H 0.40732 0.8524 0.82789 0.0
H79 H 0.29245 0.75804 0.83777 0.0
H80 H 0.39646 0.77656 0.91076 0.0
H81 H 0.28463 0.74326 0.86858 0.0
H82 H 0.39811 0.74292 0.90106 0.0
O83 O 0.33099 0.81249 0.84872 0.0
H84 H 0.39266 0.86691 0.89211 0.0
H85 H 0.36111 0.86316 0.8302 0.0
H86 H 0.36046 0.89307 0.84796 0.0
H87 H 0.37634 0.89509 0.87915 0.0
H88 H 0.39282 0.83722 0.87395 0.0
H89 H 0.4179 0.86828 0.79877 0.0
H90 H 0.40124 0.86204 0.76857 0.0
O91 O 0.35018 0.82927 0.8299 0.0
C92 C 0.36638 0.78569 0.82429 0.0
C93 C 0.38152 0.84264 0.78109 0.0
C94 C 0.40607 0.85862 0.79835 0.0
N95 N 0.38505 0.83743 0.81437 0.0
C96 C 0.37588 0.83384 0.79779 0.0
C97 C 0.40004 0.84956 0.81478 0.0
C98 C 0.39671 0.85512 0.78141 0.0
C99 C 0.37544 0.7836 0.88992 0.0
N100 N 0.36439 0.77719 0.87549 0.0
C101 C 0.38772 0.7714 0.89935 0.0
C102 C 0.38865 0.75253 0.89388 0.0
C103 C 0.37736 0.7461 0.87912 0.0
C104 C 0.36527 0.75872 0.87 0.0
C105 C 0.30737 0.757 0.88327 0.0
C106 C 0.31618 0.77344 0.84895 0.0
C107 C 0.32259 0.76941 0.88154 0.0
N108 N 0.32688 0.77737 0.8645 0.0
C109 C 0.30086 0.76111 0.85015 0.0
C110 C 0.29647 0.75284 0.86744 0.0
C111 C 0.3338 0.82446 0.83557 0.0
C112 C 0.38574 0.86623 0.87851 0.0
C113 C 0.368 0.8639 0.84378 0.0
C114 C 0.36763 0.88089 0.85375 0.0
C115 C 0.37656 0.88202 0.87124 0.0
N116 N 0.37705 0.84847 0.851 0.0
C117 C 0.38586 0.84948 0.86812 0.0
Co118 Co 0.64893 0.29511 0.63982 0.0
Co119 Co 0.6225 0.32615 0.66629 0.0
O120 O 0.62875 0.31371 0.64251 0.0
C121 C 0.659 0.32299 0.6101 0.0
O122 O 0.65866 0.33641 0.62288 0.0
C123 C 0.58564 0.31055 0.65373 0.0
O124 O 0.59409 0.29454 0.64983 0.0
O125 O 0.62121 0.30145 0.67976 0.0
O126 O 0.64271 0.28369 0.66473 0.0
H127 H 0.6282 0.33834 0.7359 0.0
H128 H 0.62059 0.29968 0.60937 0.0
O129 O 0.65549 0.30597 0.61467 0.0
H130 H 0.61505 0.23342 0.62988 0.0
H131 H 0.68844 0.24845 0.60363 0.0
H132 H 0.67816 0.27921 0.6652 0.0
H133 H 0.63846 0.25457 0.64454 0.0
H134 H 0.66287 0.2717 0.60773 0.0
O135 O 0.59503 0.32442 0.66022 0.0
H136 H 0.63618 0.323 0.7057 0.0
H137 H 0.59479 0.35584 0.67742 0.0
H138 H 0.7038 0.25593 0.66176 0.0
H139 H 0.59711 0.27896 0.59418 0.0
H140 H 0.70907 0.24037 0.63079 0.0
H141 H 0.59418 0.24559 0.60448 0.0
O142 O 0.6675 0.3122 0.6524 0.0
H143 H 0.60915 0.37082 0.61289 0.0
H144 H 0.641 0.36317 0.67426 0.0
H145 H 0.64353 0.39347 0.65734 0.0
H146 H 0.62749 0.39745 0.62642 0.0
H147 H 0.60714 0.34071 0.63023 0.0
H148 H 0.58624 0.37143 0.70735 0.0
H149 H 0.60305 0.36274 0.73685 0.0
O150 O 0.64968 0.32841 0.67297 0.0
C151 C 0.63128 0.28658 0.6783 0.0
C152 C 0.6208 0.34228 0.72314 0.0
C153 C 0.59724 0.36083 0.70711 0.0
N154 N 0.61604 0.33859 0.6898 0.0
C155 C 0.62529 0.33368 0.70598 0.0
C156 C 0.6021 0.35192 0.69022 0.0
C157 C 0.60668 0.35596 0.72366 0.0
C158 C 0.61952 0.28513 0.61381 0.0
N159 N 0.63092 0.27834 0.6278 0.0
C160 C 0.60615 0.27348 0.60521 0.0
C161 C 0.60449 0.25477 0.61101 0.0
C162 C 0.61619 0.24794 0.62527 0.0
C163 C 0.62938 0.26 0.63357 0.0
C164 C 0.68626 0.25511 0.6172 0.0
C165 C 0.6803 0.27242 0.65171 0.0
C166 C 0.67184 0.26832 0.6196 0.0
N167 N 0.66895 0.27671 0.63673 0.0
C168 C 0.69487 0.25929 0.64983 0.0
C169 C 0.69783 0.25058 0.63245 0.0
C170 C 0.66564 0.32352 0.66629 0.0
C171 C 0.61617 0.36927 0.62636 0.0
C172 C 0.63407 0.36476 0.66079 0.0
C173 C 0.6355 0.38197 0.65129 0.0
C174 C 0.62648 0.3842 0.63395 0.0
N175 N 0.6239 0.3502 0.65327 0.0
C176 C 0.61503 0.35228 0.63628 0.0
Co177 Co 0.84881 0.70293 0.1394 0.0
Co178 Co 0.87516 0.67288 0.16716 0.0
O179 O 0.86923 0.68468 0.14292 0.0
C180 C 0.84074 0.67388 0.11042 0.0
O181 O 0.84361 0.66091 0.12334 0.0
C182 C 0.91211 0.68859 0.15492 0.0
O183 O 0.90358 0.70433 0.15018 0.0
O184 O 0.87586 0.69791 0.18002 0.0
O185 O 0.85457 0.71511 0.16407 0.0
H186 H 0.86825 0.66239 0.23695 0.0
H187 H 0.87749 0.69791 0.10939 0.0
O188 O 0.84246 0.69128 0.11451 0.0
H189 H 0.88215 0.76471 0.12831 0.0
H190 H 0.80924 0.74824 0.10159 0.0
H191 H 0.81897 0.71896 0.16396 0.0
H192 H 0.85878 0.74369 0.14323 0.0
H193 H 0.83508 0.72547 0.1066 0.0
O194 O 0.90273 0.67484 0.16166 0.0
H195 H 0.8607 0.67689 0.20622 0.0
H196 H 0.90295 0.64377 0.17958 0.0
H197 H 0.79305 0.74177 0.15961 0.0
H198 H 0.90096 0.71849 0.09396 0.0
H199 H 0.78806 0.75659 0.12824 0.0
H200 H 0.90343 0.75214 0.10346 0.0
O201 O 0.83032 0.6859 0.15208 0.0
H202 H 0.89054 0.62697 0.11539 0.0
H203 H 0.85671 0.63591 0.17552 0.0
H204 H 0.85498 0.60517 0.15932 0.0
H205 H 0.872 0.60054 0.12903 0.0
H206 H 0.89176 0.65754 0.13199 0.0
H207 H 0.91106 0.62902 0.21004 0.0
H208 H 0.8936 0.63828 0.23899 0.0
O209 O 0.84789 0.67038 0.17337 0.0
C210 C 0.86573 0.71266 0.17796 0.0
C211 C 0.87592 0.65821 0.22442 0.0
C212 C 0.89997 0.6395 0.20933 0.0
N213 N 0.8813 0.66111 0.1911 0.0
C214 C 0.87169 0.66634 0.20698 0.0
C215 C 0.89535 0.64793 0.19213 0.0
C216 C 0.89016 0.64469 0.22557 0.0
C217 C 0.87837 0.71258 0.11347 0.0
N218 N 0.86674 0.7196 0.12715 0.0
C219 C 0.89173 0.72415 0.10474 0.0
C220 C 0.89313 0.74302 0.11009 0.0
C221 C 0.88121 0.75008 0.12405 0.0
C222 C 0.86804 0.73809 0.13249 0.0
C223 C 0.81129 0.7419 0.11533 0.0
C224 C 0.81694 0.72542 0.15029 0.0
C225 C 0.82587 0.72897 0.11824 0.0
N226 N 0.8286 0.72098 0.13559 0.0
C227 C 0.80222 0.73829 0.1479 0.0
C228 C 0.79941 0.74658 0.13029 0.0
C229 C 0.83202 0.6749 0.16624 0.0
C230 C 0.8831 0.6288 0.1286 0.0
C231 C 0.8641 0.63404 0.16232 0.0
C232 C 0.86311 0.61658 0.15323 0.0
C233 C 0.87267 0.61399 0.13625 0.0
N234 N 0.87437 0.6485 0.15474 0.0
C235 C 0.8838 0.64605 0.1381 0.0
Co236 Co 0.36142 0.14974 0.19912 0.0
Co237 Co 0.33294 0.12365 0.16966 0.0
O238 O 0.35729 0.12944 0.18104 0.0
C239 C 0.38979 0.15883 0.16964 0.0
O240 O 0.37609 0.15995 0.15722 0.0
C241 C 0.34465 0.08735 0.18652 0.0
O242 O 0.34793 0.09655 0.20226 0.0
O243 O 0.32035 0.12346 0.19482 0.0
O244 O 0.33683 0.14456 0.21179 0.0
H245 H 0.26314 0.131 0.15965 0.0
H246 H 0.39059 0.12018 0.19375 0.0
O247 O 0.38627 0.1551 0.18686 0.0
H248 H 0.37291 0.11668 0.26097 0.0
H249 H 0.4011 0.18886 0.24318 0.0
H250 H 0.33781 0.18011 0.2156 0.0
H251 H 0.35817 0.14022 0.24001 0.0
H252 H 0.39503 0.16301 0.22066 0.0
O253 O 0.33852 0.09609 0.17206 0.0
H254 H 0.29406 0.1386 0.17369 0.0
H255 H 0.32 0.09527 0.14142 0.0
H256 H 0.34322 0.20605 0.23817 0.0
H257 H 0.40581 0.09654 0.21425 0.0
H258 H 0.37506 0.21055 0.25213 0.0
H259 H 0.39694 0.09464 0.24811 0.0
O260 O 0.34864 0.16832 0.1823 0.0
H261 H 0.38409 0.10754 0.12329 0.0
H262 H 0.32415 0.14162 0.1326 0.0
H263 H 0.33991 0.14286 0.1016 0.0
H264 H 0.37009 0.12571 0.09679 0.0
H265 H 0.36792 0.10679 0.15411 0.0
H266 H 0.28933 0.08711 0.12712 0.0
H267 H 0.26063 0.10509 0.13618 0.0
O268 O 0.32695 0.15101 0.16694 0.0
C269 C 0.32274 0.1336 0.20952 0.0
C270 C 0.27555 0.12311 0.15554 0.0
C271 C 0.29024 0.09845 0.1373 0.0
N272 N 0.30883 0.11749 0.15827 0.0
C273 C 0.2931 0.12738 0.16341 0.0
C274 C 0.30756 0.10311 0.14547 0.0
C275 C 0.27415 0.10855 0.14239 0.0
C276 C 0.38679 0.11957 0.20851 0.0
N277 N 0.37358 0.13164 0.21569 0.0
C278 C 0.3954 0.1061 0.22003 0.0
C279 C 0.3904 0.10503 0.23902 0.0
C280 C 0.37691 0.11738 0.24624 0.0
C281 C 0.36857 0.13065 0.23429 0.0
C282 C 0.38716 0.18702 0.23722 0.0
C283 C 0.35168 0.18191 0.2217 0.0
C284 C 0.38365 0.17244 0.22444 0.0
N285 N 0.36605 0.16997 0.21695 0.0
C286 C 0.35467 0.19666 0.23443 0.0
C287 C 0.37254 0.19918 0.24224 0.0
C288 C 0.33434 0.1668 0.17144 0.0
C289 C 0.37092 0.11503 0.1252 0.0
C290 C 0.3373 0.13416 0.13064 0.0
C291 C 0.34614 0.13488 0.11304 0.0
C292 C 0.36307 0.12525 0.11034 0.0
N293 N 0.34506 0.12406 0.14512 0.0
C294 C 0.36167 0.1146 0.1426 0.0
Co295 Co 0.13943 0.84905 0.70439 0.0
Co296 Co 0.16677 0.87608 0.67426 0.0
O297 O 0.1428 0.86998 0.68661 0.0
C298 C 0.11043 0.84244 0.67504 0.0
O299 O 0.12301 0.84722 0.66232 0.0
C300 C 0.15543 0.9122 0.6923 0.0
O301 O 0.14942 0.90271 0.70702 0.0
O302 O 0.18052 0.87516 0.69877 0.0
O303 O 0.16405 0.85488 0.71671 0.0
H304 H 0.23592 0.86809 0.66081 0.0
H305 H 0.10896 0.87735 0.69997 0.0
O306 O 0.11464 0.84255 0.69251 0.0
H307 H 0.12791 0.88096 0.76683 0.0
H308 H 0.10197 0.80801 0.74867 0.0
H309 H 0.16434 0.81925 0.71994 0.0
H310 H 0.14321 0.8583 0.74531 0.0
H311 H 0.10671 0.83437 0.72644 0.0
O312 O 0.16225 0.90364 0.67807 0.0
H313 H 0.20555 0.86046 0.67599 0.0
H314 H 0.17887 0.90523 0.64638 0.0
H315 H 0.16026 0.79282 0.74222 0.0
H316 H 0.09315 0.9001 0.72105 0.0
H317 H 0.12889 0.78707 0.75675 0.0
H318 H 0.10267 0.90205 0.75473 0.0
O319 O 0.15228 0.83102 0.68705 0.0
H320 H 0.11401 0.8956 0.63114 0.0
H321 H 0.17321 0.85937 0.63612 0.0
H322 H 0.15592 0.85985 0.60592 0.0
H323 H 0.1261 0.87808 0.60329 0.0
H324 H 0.13168 0.89459 0.66112 0.0
H325 H 0.209 0.91344 0.631 0.0
H326 H 0.23778 0.89476 0.63814 0.0
O327 O 0.17219 0.84885 0.67008 0.0
C328 C 0.17833 0.86542 0.71375 0.0
C329 C 0.22347 0.8763 0.65754 0.0
C330 C 0.20836 0.90177 0.64083 0.0
N331 N 0.19043 0.88229 0.66197 0.0
C332 C 0.20622 0.87202 0.66605 0.0
C333 C 0.19135 0.89707 0.64961 0.0
C334 C 0.2245 0.89128 0.64483 0.0
C335 C 0.11304 0.87799 0.71466 0.0
N336 N 0.12693 0.86646 0.72141 0.0
C337 C 0.1041 0.89095 0.72651 0.0
C338 C 0.10946 0.89206 0.74539 0.0
C339 C 0.12364 0.88024 0.75219 0.0
C340 C 0.13229 0.86747 0.73992 0.0
C341 C 0.11572 0.8104 0.74246 0.0
C342 C 0.15068 0.8169 0.72629 0.0
C343 C 0.11848 0.82527 0.72984 0.0
N344 N 0.13582 0.82843 0.72201 0.0
C345 C 0.14844 0.80189 0.73886 0.0
C346 C 0.13083 0.79865 0.74699 0.0
C347 C 0.16558 0.8329 0.67507 0.0
C348 C 0.12702 0.88765 0.6321 0.0
C349 C 0.16022 0.86728 0.63511 0.0
C350 C 0.15051 0.86754 0.61796 0.0
C351 C 0.13379 0.87779 0.61649 0.0
N352 N 0.15349 0.87699 0.65035 0.0
C353 C 0.13712 0.88709 0.64901 0.0
Co354 Co 0.85925 0.34966 0.79982 0.0
Co355 Co 0.82987 0.37476 0.82926 0.0
O356 O 0.85453 0.36968 0.81813 0.0
C357 C 0.88781 0.34058 0.82921 0.0
O358 O 0.87415 0.3387 0.84158 0.0
C359 C 0.84158 0.41194 0.81396 0.0
O360 O 0.84655 0.40341 0.79828 0.0
O361 O 0.81773 0.37527 0.80389 0.0
O362 O 0.8346 0.35437 0.78708 0.0
H363 H 0.76008 0.36568 0.83781 0.0
H364 H 0.8878 0.37973 0.80566 0.0
O365 O 0.88418 0.34474 0.81211 0.0
H366 H 0.87024 0.38376 0.73845 0.0
H367 H 0.90006 0.31208 0.75545 0.0
H368 H 0.83646 0.31893 0.78284 0.0
H369 H 0.8559 0.35967 0.75905 0.0
H370 H 0.89327 0.33748 0.77827 0.0
O371 O 0.83472 0.40251 0.82763 0.0
H372 H 0.79141 0.35911 0.82415 0.0
H373 H 0.81583 0.40208 0.85806 0.0
H374 H 0.8426 0.29342 0.75997 0.0
H375 H 0.90263 0.40392 0.78551 0.0
H376 H 0.87459 0.28988 0.7461 0.0
H377 H 0.89382 0.40609 0.75166 0.0
O378 O 0.8468 0.33053 0.81634 0.0
H379 H 0.88008 0.39086 0.87665 0.0
H380 H 0.82085 0.35597 0.86588 0.0
H381 H 0.83621 0.35439 0.89706 0.0
H382 H 0.86603 0.37195 0.90261 0.0
H383 H 0.8643 0.39192 0.84564 0.0
H384 H 0.78474 0.40922 0.87197 0.0
H385 H 0.7566 0.39091 0.8619 0.0
O386 O 0.82443 0.34724 0.83134 0.0
C387 C 0.82036 0.36516 0.78922 0.0
C388 C 0.77224 0.37373 0.84235 0.0
C389 C 0.78608 0.39818 0.86151 0.0
N390 N 0.80545 0.38011 0.84039 0.0
C391 C 0.79003 0.37004 0.83471 0.0
C392 C 0.80364 0.3941 0.85354 0.0
C393 C 0.7703 0.38789 0.85586 0.0
C394 C 0.88404 0.38045 0.7909 0.0
N395 N 0.87106 0.36824 0.78353 0.0
C396 C 0.89242 0.39423 0.77958 0.0
C397 C 0.88745 0.39546 0.76059 0.0
C398 C 0.87421 0.38295 0.75317 0.0
C399 C 0.86609 0.36937 0.76492 0.0
C400 C 0.88605 0.3135 0.76137 0.0
C401 C 0.85039 0.31754 0.77679 0.0
C402 C 0.88213 0.32782 0.77433 0.0
N403 N 0.86445 0.32976 0.78177 0.0
C404 C 0.85379 0.30304 0.76389 0.0
C405 C 0.87176 0.30105 0.75613 0.0
C406 C 0.83224 0.33165 0.8269 0.0
C407 C 0.86706 0.38318 0.87442 0.0
C408 C 0.83385 0.36359 0.86816 0.0
C409 C 0.84246 0.36269 0.88586 0.0
C410 C 0.85919 0.37255 0.88897 0.0
N411 N 0.84163 0.37409 0.85397 0.0
C412 C 0.85804 0.38378 0.85691 0.0
Co413 Co 0.6392 0.64891 0.29922 0.0
Co414 Co 0.6677 0.62227 0.32819 0.0
O415 O 0.64318 0.62838 0.31717 0.0
C416 C 0.61031 0.65836 0.32837 0.0
O417 O 0.62353 0.65898 0.34135 0.0
C418 C 0.65485 0.58558 0.31246 0.0
O419 O 0.65025 0.59427 0.29675 0.0
O420 O 0.6799 0.62176 0.30279 0.0
O421 O 0.66365 0.64353 0.28651 0.0
H422 H 0.73774 0.62894 0.33693 0.0
H423 H 0.60974 0.61966 0.30452 0.0
O424 O 0.61441 0.65458 0.3113 0.0
H425 H 0.62693 0.61644 0.23717 0.0
H426 H 0.60009 0.68875 0.25526 0.0
H427 H 0.6632 0.67908 0.28293 0.0
H428 H 0.64205 0.63968 0.25819 0.0
H429 H 0.60578 0.66271 0.27764 0.0
O430 O 0.66192 0.59477 0.32617 0.0
H431 H 0.70665 0.63675 0.32337 0.0
H432 H 0.68082 0.59406 0.35656 0.0
H433 H 0.65816 0.7052 0.26049 0.0
H434 H 0.59412 0.59634 0.28396 0.0
H435 H 0.62642 0.71016 0.24649 0.0
H436 H 0.60274 0.59457 0.25004 0.0
O437 O 0.65218 0.6673 0.3162 0.0
H438 H 0.61689 0.60712 0.37525 0.0
H439 H 0.67737 0.63999 0.36519 0.0
H440 H 0.66204 0.64155 0.39638 0.0
H441 H 0.63159 0.62499 0.40158 0.0
H442 H 0.63264 0.60608 0.34423 0.0
H443 H 0.71165 0.58567 0.37036 0.0
H444 H 0.74038 0.60322 0.3606 0.0
O445 O 0.67403 0.64952 0.33072 0.0
C446 C 0.67752 0.63225 0.28833 0.0
C447 C 0.72532 0.62122 0.34133 0.0
C448 C 0.71068 0.59691 0.36007 0.0
N449 N 0.69193 0.61594 0.33924 0.0
C450 C 0.70767 0.62561 0.33374 0.0
C451 C 0.69327 0.60169 0.35217 0.0
C452 C 0.72679 0.60678 0.3546 0.0
C453 C 0.61346 0.6191 0.28974 0.0
N454 N 0.62679 0.63104 0.28257 0.0
C455 C 0.60461 0.60581 0.27818 0.0
C456 C 0.60948 0.60481 0.25915 0.0
C457 C 0.62306 0.61706 0.25193 0.0
C458 C 0.63163 0.63015 0.26392 0.0
C459 C 0.61399 0.68671 0.26125 0.0
C460 C 0.64937 0.68108 0.27682 0.0
C461 C 0.61729 0.67202 0.27396 0.0
N462 N 0.63484 0.6693 0.28149 0.0
C463 C 0.64659 0.69593 0.26416 0.0
C464 C 0.62877 0.69872 0.25633 0.0
C465 C 0.66673 0.66545 0.32669 0.0
C466 C 0.63017 0.61437 0.37318 0.0
C467 C 0.66408 0.63284 0.36731 0.0
C468 C 0.6555 0.63372 0.38502 0.0
C469 C 0.63842 0.62441 0.38793 0.0
N470 N 0.65593 0.62293 0.35291 0.0
C471 C 0.63918 0.61378 0.35566 0.0
Co472 Co 0.20434 0.36244 0.14895 0.0
Co473 Co 0.17407 0.33362 0.12376 0.0
O474 O 0.18562 0.35813 0.1291 0.0
C475 C 0.17428 0.39007 0.15788 0.0
O476 O 0.16181 0.37667 0.15504 0.0
C477 C 0.18995 0.34542 0.08683 0.0
O478 O 0.20503 0.35151 0.09568 0.0
O479 O 0.19916 0.32085 0.12353 0.0
O480 O 0.21734 0.33834 0.14269 0.0
H481 H 0.16386 0.26403 0.13275 0.0
H482 H 0.19706 0.39232 0.12062 0.0
O483 O 0.19181 0.38674 0.15579 0.0
H484 H 0.26441 0.37632 0.1136 0.0
H485 H 0.24921 0.40214 0.18715 0.0
H486 H 0.22246 0.33853 0.17812 0.0
H487 H 0.24485 0.3604 0.13757 0.0
H488 H 0.22583 0.39618 0.16206 0.0
O489 O 0.17629 0.33823 0.09602 0.0
H490 H 0.17812 0.29505 0.13949 0.0
H491 H 0.14535 0.32019 0.09605 0.0
H492 H 0.24592 0.34383 0.20327 0.0
H493 H 0.21615 0.40874 0.09658 0.0
H494 H 0.25946 0.37582 0.20792 0.0
H495 H 0.25006 0.40071 0.09291 0.0
O496 O 0.18854 0.34901 0.168 0.0
H497 H 0.1279 0.38458 0.10658 0.0
H498 H 0.1371 0.32558 0.1423 0.0
H499 H 0.10625 0.34163 0.14341 0.0
H500 H 0.10149 0.37134 0.12543 0.0
H501 H 0.15858 0.36815 0.106 0.0
H502 H 0.13084 0.28941 0.08874 0.0
H503 H 0.14004 0.26107 0.1072 0.0
O504 O 0.17151 0.32823 0.15121 0.0
C505 C 0.21449 0.32382 0.13249 0.0
C506 C 0.15969 0.27628 0.12464 0.0
C507 C 0.14118 0.29052 0.09992 0.0
N508 N 0.16248 0.30943 0.11827 0.0
C509 C 0.16769 0.2939 0.12842 0.0
C510 C 0.14948 0.30791 0.1041 0.0
C511 C 0.14634 0.27463 0.11029 0.0
C512 C 0.21185 0.38889 0.11923 0.0
N513 N 0.21984 0.37546 0.13052 0.0
C514 C 0.22257 0.39817 0.10554 0.0
C515 C 0.24159 0.39364 0.10347 0.0
C516 C 0.24965 0.37994 0.11506 0.0
C517 C 0.23849 0.37093 0.12857 0.0
C518 C 0.24343 0.38813 0.18525 0.0
C519 C 0.22837 0.35247 0.17998 0.0
C520 C 0.23016 0.38468 0.1711 0.0
N521 N 0.22288 0.367 0.16856 0.0
C522 C 0.24161 0.35539 0.19428 0.0
C523 C 0.24919 0.37335 0.19689 0.0
C524 C 0.17703 0.33521 0.16683 0.0
C525 C 0.12979 0.37162 0.11443 0.0
C526 C 0.13517 0.33853 0.13449 0.0
C527 C 0.11765 0.34753 0.13513 0.0
C528 C 0.11498 0.36419 0.12503 0.0
N529 N 0.14961 0.34589 0.12404 0.0
C530 C 0.1471 0.36221 0.11409 0.0
Co531 Co 0.69807 0.13835 0.85161 0.0
Co532 Co 0.67068 0.1679 0.87877 0.0
O533 O 0.68077 0.14307 0.87251 0.0
C534 C 0.6676 0.11084 0.84224 0.0
O535 O 0.65563 0.12485 0.84037 0.0
C536 C 0.68699 0.15471 0.91508 0.0
O537 O 0.70235 0.14973 0.90599 0.0
O538 O 0.69645 0.17924 0.87856 0.0
O539 O 0.71183 0.1624 0.85654 0.0
H540 H 0.66403 0.23816 0.87202 0.0
H541 H 0.6924 0.10927 0.88119 0.0
O542 O 0.68478 0.11395 0.8465 0.0
H543 H 0.76036 0.1241 0.88271 0.0
H544 H 0.73942 0.09728 0.81099 0.0
H545 H 0.71463 0.16153 0.82094 0.0
H546 H 0.73934 0.13983 0.85989 0.0
H547 H 0.71789 0.10402 0.8375 0.0
O548 O 0.67323 0.16213 0.90624 0.0
H549 H 0.67638 0.20663 0.864 0.0
H550 H 0.64351 0.18202 0.90766 0.0
H551 H 0.73623 0.15544 0.79434 0.0
H552 H 0.71295 0.09306 0.90412 0.0
H553 H 0.74878 0.12311 0.78924 0.0
H554 H 0.74719 0.1005 0.90502 0.0
O555 O 0.68123 0.15196 0.83353 0.0
H556 H 0.62242 0.11866 0.89528 0.0
H557 H 0.63358 0.17871 0.86197 0.0
H558 H 0.60188 0.16439 0.86126 0.0
H559 H 0.59613 0.13415 0.87804 0.0
H560 H 0.65395 0.13341 0.89548 0.0
H561 H 0.63092 0.21331 0.91627 0.0
H562 H 0.64113 0.24165 0.89833 0.0
O563 O 0.66766 0.17421 0.85157 0.0
C564 C 0.71062 0.1764 0.86779 0.0
C565 C 0.65943 0.22592 0.87991 0.0
C566 C 0.64087 0.21197 0.90476 0.0
N567 N 0.66059 0.19249 0.88529 0.0
C568 C 0.66634 0.20802 0.87541 0.0
C569 C 0.64809 0.1943 0.89986 0.0
C570 C 0.6466 0.22786 0.89469 0.0
C571 C 0.70731 0.11245 0.88137 0.0
N572 N 0.71467 0.12544 0.86916 0.0
C573 C 0.71887 0.10328 0.89444 0.0
C574 C 0.73807 0.10748 0.89496 0.0
C575 C 0.74547 0.12074 0.88245 0.0
C576 C 0.73348 0.12964 0.86959 0.0
C577 C 0.73407 0.11142 0.81309 0.0
C578 C 0.72011 0.14745 0.81887 0.0
C579 C 0.72184 0.11532 0.82805 0.0
N580 N 0.71512 0.13318 0.83084 0.0
C581 C 0.7323 0.14408 0.80376 0.0
C582 C 0.73932 0.12593 0.80089 0.0
C583 C 0.67119 0.16679 0.83557 0.0
C584 C 0.62474 0.13185 0.88794 0.0
C585 C 0.63122 0.16552 0.86922 0.0
C586 C 0.61322 0.1575 0.86882 0.0
C587 C 0.61 0.14054 0.87825 0.0
N588 N 0.64559 0.15693 0.87879 0.0
C589 C 0.64255 0.1403 0.88805 0.0
Co590 Co 0.79609 0.86115 0.34956 0.0
Co591 Co 0.8263 0.83428 0.37657 0.0
O592 O 0.81414 0.85821 0.37024 0.0
C593 C 0.82449 0.89086 0.34147 0.0
O594 O 0.83777 0.87809 0.34342 0.0
C595 C 0.81024 0.84662 0.41339 0.0
O596 O 0.79438 0.8509 0.40483 0.0
O597 O 0.80146 0.82105 0.37729 0.0
O598 O 0.78442 0.83622 0.35529 0.0
H599 H 0.8379 0.76459 0.37065 0.0
H600 H 0.79999 0.89136 0.37825 0.0
O601 O 0.80721 0.88632 0.34341 0.0
H602 H 0.73356 0.87099 0.38188 0.0
H603 H 0.75051 0.89773 0.30915 0.0
H604 H 0.78095 0.83605 0.31969 0.0
H605 H 0.75528 0.85645 0.35892 0.0
H606 H 0.77307 0.89338 0.3353 0.0
O607 O 0.82413 0.84012 0.40406 0.0
H608 H 0.82299 0.79499 0.3626 0.0
H609 H 0.85547 0.8227 0.40467 0.0
H610 H 0.75836 0.83974 0.29347 0.0
H611 H 0.77871 0.90641 0.4013 0.0
H612 H 0.74297 0.87076 0.28807 0.0
H613 H 0.74524 0.89619 0.40326 0.0
O614 O 0.81364 0.84871 0.33134 0.0
H615 H 0.87113 0.8872 0.39125 0.0
H616 H 0.8636 0.82619 0.35866 0.0
H617 H 0.89404 0.84293 0.35682 0.0
H618 H 0.89796 0.87366 0.37323 0.0
H619 H 0.84086 0.87004 0.39257 0.0
H620 H 0.87061 0.79258 0.41329 0.0
H621 H 0.8619 0.76326 0.39617 0.0
O622 O 0.82904 0.82775 0.34939 0.0
C623 C 0.78689 0.82261 0.36679 0.0
C624 C 0.84185 0.77728 0.37818 0.0
C625 C 0.86019 0.79298 0.40213 0.0
N626 N 0.83842 0.81062 0.38309 0.0
C627 C 0.83349 0.79454 0.37366 0.0
C628 C 0.85153 0.80999 0.39722 0.0
C629 C 0.8553 0.77654 0.39251 0.0
C630 C 0.78541 0.88695 0.3789 0.0
N631 N 0.77888 0.87308 0.36721 0.0
C632 C 0.77344 0.89548 0.39203 0.0
C633 C 0.75467 0.88971 0.39314 0.0
C634 C 0.74811 0.87556 0.38116 0.0
C635 C 0.76049 0.86734 0.36822 0.0
C636 C 0.7571 0.88414 0.31137 0.0
C637 C 0.77424 0.84957 0.31749 0.0
C638 C 0.76993 0.8816 0.32613 0.0
N639 N 0.77823 0.86445 0.32908 0.0
C640 C 0.76149 0.85158 0.30259 0.0
C641 C 0.75287 0.869 0.29956 0.0
C642 C 0.8247 0.83464 0.33337 0.0
C643 C 0.86961 0.8738 0.38408 0.0
C644 C 0.86516 0.83959 0.36576 0.0
C645 C 0.88245 0.84898 0.36472 0.0
C646 C 0.88465 0.86621 0.37394 0.0
N647 N 0.85048 0.84711 0.37574 0.0
C648 C 0.85253 0.86399 0.38483 0.0
Co649 Co 0.30012 0.64039 0.64946 0.0
Co650 Co 0.3289 0.66912 0.62265 0.0
O651 O 0.31762 0.64463 0.62856 0.0
C652 C 0.3295 0.61141 0.65785 0.0
O653 O 0.34253 0.62459 0.65793 0.0
C654 C 0.31117 0.65736 0.58659 0.0
O655 O 0.29652 0.65135 0.59618 0.0
O656 O 0.30382 0.68191 0.62364 0.0
O657 O 0.28729 0.66489 0.64462 0.0
H658 H 0.33961 0.73869 0.63119 0.0
H659 H 0.30472 0.611 0.62003 0.0
O660 O 0.31232 0.61556 0.65467 0.0
H661 H 0.23743 0.62858 0.61808 0.0
H662 H 0.257 0.60085 0.68979 0.0
H663 H 0.28449 0.66406 0.68023 0.0
H664 H 0.25896 0.64355 0.64094 0.0
H665 H 0.27881 0.60683 0.66333 0.0
O666 O 0.32531 0.66451 0.59506 0.0
H667 H 0.32571 0.70766 0.63863 0.0
H668 H 0.35613 0.68258 0.59349 0.0
H669 H 0.26263 0.65873 0.70678 0.0
H670 H 0.28363 0.59551 0.59708 0.0
H671 H 0.24872 0.62693 0.71169 0.0
H672 H 0.24974 0.60434 0.59596 0.0
O673 O 0.31746 0.65314 0.66765 0.0
H674 H 0.37402 0.61797 0.6034 0.0
H675 H 0.36685 0.6773 0.63902 0.0
H676 H 0.39772 0.66126 0.63853 0.0
H677 H 0.40146 0.63139 0.62058 0.0
H678 H 0.34335 0.6344 0.60441 0.0
H679 H 0.37024 0.71337 0.58545 0.0
H680 H 0.36205 0.74168 0.60442 0.0
O681 O 0.33283 0.67447 0.64994 0.0
C682 C 0.28931 0.67922 0.63396 0.0
C683 C 0.34334 0.72644 0.62285 0.0
C684 C 0.36051 0.71224 0.59717 0.0
N685 N 0.3402 0.69331 0.61659 0.0
C686 C 0.33555 0.70883 0.62703 0.0
C687 C 0.35244 0.69485 0.60176 0.0
C688 C 0.35591 0.72812 0.60782 0.0
C689 C 0.28995 0.61479 0.61975 0.0
N690 N 0.28308 0.62815 0.63184 0.0
C691 C 0.27809 0.60602 0.60667 0.0
C692 C 0.25909 0.61101 0.60603 0.0
C693 C 0.25218 0.62462 0.61842 0.0
C694 C 0.26445 0.63311 0.6313 0.0
C695 C 0.26294 0.61477 0.68778 0.0
C696 C 0.27842 0.6502 0.68222 0.0
C697 C 0.27534 0.61823 0.67285 0.0
N698 N 0.28282 0.63581 0.67017 0.0
C699 C 0.26609 0.64726 0.6973 0.0
C700 C 0.2583 0.62941 0.70006 0.0
C701 C 0.32861 0.66719 0.66583 0.0
C702 C 0.37257 0.63099 0.61124 0.0
C703 C 0.36834 0.66427 0.63126 0.0
C704 C 0.38587 0.65528 0.63098 0.0
C705 C 0.38796 0.63852 0.6209 0.0
N706 N 0.35333 0.65682 0.62171 0.0
C707 C 0.35526 0.64039 0.61182 0.0
Co708 Co 0.84866 0.8014 0.6396 0.0
Co709 Co 0.87603 0.83015 0.66764 0.0
O710 O 0.86954 0.81884 0.64345 0.0
C711 C 0.83931 0.83117 0.61148 0.0
O712 O 0.83829 0.84353 0.62524 0.0
C713 C 0.91247 0.81188 0.65769 0.0
O714 O 0.90384 0.79549 0.65736 0.0
O715 O 0.8754 0.80505 0.68051 0.0
O716 O 0.85402 0.78846 0.66396 0.0
H717 H 0.87001 0.84103 0.73745 0.0
H718 H 0.878 0.80631 0.61014 0.0
O719 O 0.84314 0.81394 0.61489 0.0
H720 H 0.87962 0.73875 0.62672 0.0
H721 H 0.80755 0.75873 0.6004 0.0
H722 H 0.81843 0.78542 0.66374 0.0
H723 H 0.85694 0.76019 0.64209 0.0
H724 H 0.83409 0.78053 0.60609 0.0
O725 O 0.90344 0.82693 0.66151 0.0
H726 H 0.86147 0.82701 0.70676 0.0
H727 H 0.90561 0.85743 0.67994 0.0
H728 H 0.79182 0.76356 0.65871 0.0
H729 H 0.90081 0.78533 0.5943 0.0
H730 H 0.78624 0.75006 0.62685 0.0
H731 H 0.90174 0.75129 0.6026 0.0
O732 O 0.83072 0.81858 0.65293 0.0
H733 H 0.89276 0.87552 0.61577 0.0
H734 H 0.85965 0.86791 0.67649 0.0
H735 H 0.8592 0.89881 0.6605 0.0
H736 H 0.87588 0.90278 0.62993 0.0
H737 H 0.89273 0.84483 0.63217 0.0
H738 H 0.91471 0.87167 0.71038 0.0
H739 H 0.89681 0.86354 0.73939 0.0
O740 O 0.84889 0.8338 0.674 0.0
C741 C 0.86499 0.79053 0.67808 0.0
C742 C 0.87788 0.84473 0.7249 0.0
C743 C 0.90299 0.86191 0.70971 0.0
N744 N 0.88294 0.8415 0.69156 0.0
C745 C 0.87308 0.83688 0.70747 0.0
C746 C 0.8978 0.85377 0.69252 0.0
C747 C 0.89293 0.85734 0.72598 0.0
C748 C 0.87823 0.79148 0.61373 0.0
N749 N 0.86609 0.78447 0.62697 0.0
C750 C 0.89121 0.77969 0.60476 0.0
C751 C 0.89174 0.7606 0.60944 0.0
C752 C 0.87935 0.75355 0.62298 0.0
C753 C 0.86656 0.76577 0.63167 0.0
C754 C 0.80985 0.7645 0.61435 0.0
C755 C 0.81616 0.77952 0.64986 0.0
C756 C 0.82482 0.77689 0.61765 0.0
N757 N 0.82787 0.78414 0.63526 0.0
C758 C 0.80104 0.76719 0.64709 0.0
C759 C 0.7979 0.75963 0.6292 0.0
C760 C 0.83283 0.82955 0.66709 0.0
C761 C 0.88548 0.87398 0.62911 0.0
C762 C 0.86688 0.8695 0.66316 0.0
C763 C 0.86661 0.88705 0.6542 0.0
C764 C 0.87598 0.88926 0.63705 0.0
N765 N 0.87627 0.8546 0.65532 0.0
C766 C 0.88546 0.85665 0.63849 0.0
Co767 Co 0.65111 0.19784 0.14018 0.0
Co768 Co 0.62453 0.17035 0.17015 0.0
O769 O 0.63057 0.18018 0.14516 0.0
C770 C 0.661 0.16719 0.11305 0.0
O771 O 0.66323 0.15543 0.12718 0.0
C772 C 0.58795 0.18575 0.15674 0.0
O773 O 0.5968 0.20112 0.15138 0.0
O774 O 0.6242 0.19628 0.18107 0.0
O775 O 0.64591 0.21185 0.16402 0.0
H776 H 0.6314 0.16496 0.24051 0.0
H777 H 0.62158 0.19116 0.11125 0.0
O778 O 0.65642 0.18432 0.11598 0.0
H779 H 0.6188 0.2593 0.12502 0.0
H780 H 0.69084 0.23941 0.09846 0.0
H781 H 0.68146 0.21534 0.16308 0.0
H782 H 0.64204 0.23896 0.14104 0.0
H783 H 0.66478 0.21744 0.10554 0.0
O784 O 0.59701 0.17226 0.16439 0.0
H785 H 0.63917 0.17697 0.20878 0.0
H786 H 0.59622 0.14279 0.18471 0.0
H787 H 0.7076 0.23739 0.15665 0.0
H788 H 0.59825 0.21101 0.09475 0.0
H789 H 0.71242 0.24958 0.12414 0.0
H790 H 0.59671 0.24534 0.10166 0.0
O791 O 0.66953 0.18155 0.154 0.0
H792 H 0.60897 0.12099 0.1217 0.0
H793 H 0.64214 0.13379 0.1815 0.0
H794 H 0.6435 0.10189 0.16766 0.0
H795 H 0.62679 0.09532 0.13756 0.0
H796 H 0.60811 0.15273 0.13596 0.0
H797 H 0.58788 0.13053 0.2162 0.0
H798 H 0.60558 0.14157 0.24437 0.0
O799 O 0.65178 0.16799 0.17649 0.0
C800 C 0.63465 0.21063 0.178 0.0
C801 C 0.62362 0.16 0.22834 0.0
C802 C 0.59917 0.1407 0.2147 0.0
N803 N 0.61823 0.16051 0.1949 0.0
C804 C 0.62798 0.16671 0.21033 0.0
C805 C 0.60392 0.14773 0.19691 0.0
C806 C 0.60912 0.14689 0.2305 0.0
C807 C 0.62113 0.20611 0.11419 0.0
N808 N 0.63322 0.2139 0.12705 0.0
C809 C 0.60783 0.21727 0.10487 0.0
C810 C 0.60695 0.23652 0.10877 0.0
C811 C 0.61933 0.24436 0.12189 0.0
C812 C 0.63243 0.23277 0.13096 0.0
C813 C 0.68887 0.23421 0.11269 0.0
C814 C 0.6834 0.22066 0.14892 0.0
C815 C 0.67417 0.22174 0.11677 0.0
N816 N 0.67153 0.21522 0.13473 0.0
C817 C 0.69826 0.23311 0.14535 0.0
C818 C 0.70097 0.23993 0.1271 0.0
C819 C 0.6677 0.17171 0.16899 0.0
C820 C 0.61627 0.12367 0.13484 0.0
C821 C 0.63491 0.13107 0.16836 0.0
C822 C 0.63568 0.11296 0.16062 0.0
C823 C 0.62629 0.10928 0.14374 0.0
N824 N 0.62502 0.1451 0.15958 0.0
C825 C 0.6158 0.1416 0.14301 0.0
Co826 Co 0.34875 0.70155 0.35824 0.0
Co827 Co 0.37569 0.67073 0.3319 0.0
O828 O 0.36927 0.68331 0.35559 0.0
C829 C 0.33917 0.67355 0.38803 0.0
O830 O 0.33984 0.66007 0.37533 0.0
C831 C 0.41193 0.68782 0.34408 0.0
O832 O 0.40267 0.70312 0.34888 0.0
O833 O 0.37605 0.69523 0.31803 0.0
O834 O 0.35483 0.71307 0.33335 0.0
H835 H 0.36952 0.65723 0.26257 0.0
H836 H 0.37697 0.69757 0.38889 0.0
O837 O 0.34231 0.69061 0.38338 0.0
H838 H 0.38155 0.76383 0.36816 0.0
H839 H 0.30836 0.74757 0.39427 0.0
H840 H 0.3193 0.7169 0.33277 0.0
H841 H 0.3586 0.74224 0.35341 0.0
H842 H 0.33434 0.72476 0.39026 0.0
O843 O 0.40319 0.67359 0.33745 0.0
H844 H 0.36139 0.67276 0.29263 0.0
H845 H 0.40431 0.64189 0.32086 0.0
H846 H 0.29324 0.73973 0.33613 0.0
H847 H 0.39997 0.71874 0.40418 0.0
H848 H 0.28764 0.75524 0.36706 0.0
H849 H 0.40241 0.75212 0.39377 0.0
O850 O 0.33051 0.68415 0.34566 0.0
H851 H 0.39136 0.62736 0.38573 0.0
H852 H 0.35826 0.63302 0.32479 0.0
H853 H 0.35702 0.60292 0.34221 0.0
H854 H 0.37369 0.59995 0.3729 0.0
H855 H 0.3921 0.65726 0.3679 0.0
H856 H 0.41302 0.62614 0.29106 0.0
H857 H 0.39552 0.63373 0.26166 0.0
O858 O 0.34851 0.66746 0.32562 0.0
C859 C 0.36604 0.71011 0.3196 0.0
C860 C 0.37722 0.65376 0.2753 0.0
C861 C 0.40165 0.63633 0.29128 0.0
N862 N 0.38228 0.65814 0.3085 0.0
C863 C 0.37264 0.66247 0.29237 0.0
C864 C 0.39668 0.64532 0.3081 0.0
C865 C 0.39182 0.64059 0.27479 0.0
C866 C 0.37781 0.71212 0.38441 0.0
N867 N 0.36642 0.71866 0.3703 0.0
C868 C 0.39092 0.72403 0.39307 0.0
C869 C 0.39231 0.74274 0.3872 0.0
C870 C 0.38062 0.74932 0.37281 0.0
C871 C 0.36769 0.737 0.36447 0.0
C872 C 0.31067 0.74093 0.38072 0.0
C873 C 0.31701 0.72367 0.34625 0.0
C874 C 0.32534 0.72797 0.37837 0.0
N875 N 0.32841 0.71961 0.36126 0.0
C876 C 0.30221 0.73655 0.34808 0.0
C877 C 0.29906 0.74523 0.36544 0.0
C878 C 0.33249 0.67241 0.33213 0.0
C879 C 0.38408 0.62847 0.37235 0.0
C880 C 0.36548 0.63186 0.33817 0.0
C881 C 0.36478 0.61477 0.34795 0.0
C882 C 0.37414 0.6131 0.36516 0.0
N883 N 0.37529 0.64686 0.3453 0.0
C884 C 0.3845 0.64534 0.36217 0.0
Co885 Co 0.1491 0.29949 0.85901 0.0
Co886 Co 0.12348 0.32955 0.83062 0.0
O887 O 0.12898 0.31789 0.85498 0.0
C888 C 0.15862 0.32821 0.88826 0.0
O889 O 0.15939 0.34127 0.87513 0.0
C890 C 0.08649 0.31374 0.84235 0.0
O891 O 0.09511 0.29804 0.84706 0.0
O892 O 0.12303 0.30448 0.81775 0.0
O893 O 0.14376 0.28719 0.83434 0.0
H894 H 0.13184 0.34004 0.76099 0.0
H895 H 0.11969 0.30504 0.88825 0.0
O896 O 0.15475 0.31119 0.88401 0.0
H897 H 0.11509 0.23805 0.87003 0.0
H898 H 0.1875 0.25427 0.89811 0.0
H899 H 0.17919 0.2828 0.83519 0.0
H900 H 0.13896 0.25874 0.85546 0.0
H901 H 0.16203 0.27727 0.89235 0.0
O902 O 0.09582 0.32757 0.83568 0.0
H903 H 0.13883 0.32562 0.79189 0.0
H904 H 0.09576 0.35844 0.81758 0.0
H905 H 0.20476 0.25975 0.84029 0.0
H906 H 0.09574 0.2848 0.90334 0.0
H907 H 0.20904 0.24531 0.87195 0.0
H908 H 0.09328 0.25106 0.89419 0.0
O909 O 0.16804 0.31619 0.84644 0.0
H910 H 0.10751 0.37542 0.88225 0.0
H911 H 0.14166 0.36665 0.82229 0.0
H912 H 0.1431 0.39743 0.83844 0.0
H913 H 0.1259 0.40198 0.86864 0.0
H914 H 0.1066 0.34482 0.86569 0.0
H915 H 0.08819 0.37309 0.78693 0.0
H916 H 0.10635 0.36396 0.75837 0.0
O917 O 0.15089 0.332 0.82498 0.0
C918 C 0.13298 0.28965 0.82016 0.0
C919 C 0.12386 0.34417 0.77334 0.0
C920 C 0.09934 0.3627 0.78789 0.0
N921 N 0.11778 0.34126 0.80654 0.0
C922 C 0.12778 0.33609 0.79088 0.0
C923 C 0.10365 0.35432 0.8052 0.0
C924 C 0.10954 0.35758 0.77188 0.0
C925 C 0.11882 0.29033 0.88432 0.0
N926 N 0.13074 0.28308 0.871 0.0
C927 C 0.10518 0.27896 0.89286 0.0
C928 C 0.10379 0.26003 0.8877 0.0
C929 C 0.11602 0.25273 0.87413 0.0
C930 C 0.12946 0.26453 0.86587 0.0
C931 C 0.18576 0.26044 0.88425 0.0
C932 C 0.1809 0.2765 0.84898 0.0
C933 C 0.17139 0.27351 0.88092 0.0
N934 N 0.16905 0.28128 0.86342 0.0
C935 C 0.19543 0.2635 0.8518 0.0
C936 C 0.19784 0.25542 0.86956 0.0
C937 C 0.16662 0.32725 0.83228 0.0
C938 C 0.11504 0.37363 0.86909 0.0
C939 C 0.13424 0.36848 0.83546 0.0
C940 C 0.13505 0.38597 0.84452 0.0
C941 C 0.12538 0.38851 0.86145 0.0
N942 N 0.12404 0.35396 0.84301 0.0
C943 C 0.11453 0.35635 0.85962 0.0
Co944 Co 0.63832 0.84942 0.79839 0.0
Co945 Co 0.66571 0.87602 0.82867 0.0
O946 O 0.64155 0.86973 0.81687 0.0
C947 C 0.60987 0.84104 0.8278 0.0
O948 O 0.62264 0.84526 0.84053 0.0
C949 C 0.65279 0.91287 0.8132 0.0
O950 O 0.64827 0.90434 0.79739 0.0
O951 O 0.67849 0.87713 0.80363 0.0
O952 O 0.6627 0.85606 0.78599 0.0
H953 H 0.73563 0.87034 0.83894 0.0
H954 H 0.60762 0.8772 0.80419 0.0
O955 O 0.61377 0.84212 0.8103 0.0
H956 H 0.62556 0.8833 0.73723 0.0
H957 H 0.60101 0.80936 0.75309 0.0
H958 H 0.66351 0.82057 0.78155 0.0
H959 H 0.64137 0.86006 0.75774 0.0
H960 H 0.60559 0.83501 0.77618 0.0
O961 O 0.6597 0.90352 0.8269 0.0
H962 H 0.70502 0.86232 0.82447 0.0
H963 H 0.67768 0.90384 0.85794 0.0
H964 H 0.65959 0.79487 0.75841 0.0
H965 H 0.59131 0.90053 0.78414 0.0
H966 H 0.62815 0.78913 0.74401 0.0
H967 H 0.60031 0.90373 0.75042 0.0
O968 O 0.65168 0.83105 0.81497 0.0
H969 H 0.61401 0.89051 0.87496 0.0
H970 H 0.67441 0.85732 0.86543 0.0
H971 H 0.65839 0.85519 0.89624 0.0
H972 H 0.62797 0.87189 0.90116 0.0
H973 H 0.63042 0.8921 0.84431 0.0
H974 H 0.70803 0.91242 0.87267 0.0
H975 H 0.73727 0.89556 0.86323 0.0
O976 O 0.67245 0.84882 0.83096 0.0
C977 C 0.67648 0.86733 0.78866 0.0
C978 C 0.72298 0.87775 0.84321 0.0
C979 C 0.70749 0.90139 0.86212 0.0
N980 N 0.68956 0.88252 0.84043 0.0
C981 C 0.7056 0.87324 0.8351 0.0
C982 C 0.69036 0.8965 0.8537 0.0
C983 C 0.7239 0.89192 0.85682 0.0
C984 C 0.61148 0.87839 0.78948 0.0
N985 N 0.62537 0.86723 0.78213 0.0
C986 C 0.60226 0.89168 0.77822 0.0
C987 C 0.60733 0.89348 0.75931 0.0
C988 C 0.62151 0.88204 0.7519 0.0
C989 C 0.63045 0.86893 0.76359 0.0
C990 C 0.61478 0.81174 0.75924 0.0
C991 C 0.64982 0.81823 0.77526 0.0
C992 C 0.61746 0.82622 0.77235 0.0
N993 N 0.63484 0.82936 0.78009 0.0
C994 C 0.64767 0.80362 0.76221 0.0
C995 C 0.63002 0.8004 0.75415 0.0
C996 C 0.66574 0.83287 0.82606 0.0
C997 C 0.62728 0.88321 0.873 0.0
C998 C 0.66114 0.86456 0.86743 0.0
C999 C 0.65216 0.86335 0.88493 0.0
C1000 C 0.6351 0.87274 0.88769 0.0
N1001 N 0.65338 0.87487 0.85309 0.0
C1002 C 0.63668 0.88413 0.8557 0.0
Co1003 Co 0.86488 0.15214 0.29627 0.0
Co1004 Co 0.83819 0.12725 0.32842 0.0
O1005 O 0.86194 0.13273 0.31561 0.0
C1006 C 0.8942 0.16291 0.32414 0.0
O1007 O 0.88121 0.16241 0.33735 0.0
C1008 C 0.84895 0.0897 0.31327 0.0
O1009 O 0.85121 0.09753 0.29662 0.0
O1010 O 0.8244 0.12556 0.3039 0.0
O1011 O 0.84 0.14562 0.28497 0.0
H1012 H 0.76883 0.13437 0.34128 0.0
H1013 H 0.89504 0.12375 0.30218 0.0
O1014 O 0.88998 0.15906 0.3071 0.0
H1015 H 0.8749 0.11574 0.23606 0.0
H1016 H 0.90162 0.18952 0.24831 0.0
H1017 H 0.8398 0.18088 0.27906 0.0
H1018 H 0.86032 0.14011 0.25616 0.0
H1019 H 0.8972 0.16492 0.27254 0.0
O1020 O 0.84395 0.09966 0.32736 0.0
H1021 H 0.79896 0.14151 0.3254 0.0
H1022 H 0.82696 0.10037 0.3588 0.0
H1023 H 0.84356 0.20555 0.2548 0.0
H1024 H 0.91012 0.09931 0.28253 0.0
H1025 H 0.87465 0.20999 0.23924 0.0
H1026 H 0.90002 0.09515 0.24922 0.0
O1027 O 0.85235 0.17143 0.3125 0.0
H1028 H 0.89164 0.11416 0.37311 0.0
H1029 H 0.83093 0.14712 0.36485 0.0
H1030 H 0.84813 0.15021 0.39494 0.0
H1031 H 0.87871 0.13362 0.39923 0.0
H1032 H 0.87404 0.11158 0.34319 0.0
H1033 H 0.79709 0.09268 0.37494 0.0
H1034 H 0.76777 0.10979 0.36625 0.0
O1035 O 0.83193 0.15461 0.32995 0.0
C1036 C 0.82609 0.13478 0.28851 0.0
C1037 C 0.78152 0.12686 0.34524 0.0
C1038 C 0.79738 0.10344 0.36411 0.0
N1039 N 0.81472 0.12147 0.34126 0.0
C1040 C 0.79864 0.13088 0.33633 0.0
C1041 C 0.81424 0.10783 0.35489 0.0
C1042 C 0.78093 0.11305 0.35923 0.0
C1043 C 0.89068 0.12213 0.28766 0.0
N1044 N 0.87687 0.1334 0.28031 0.0
C1045 C 0.89922 0.10822 0.27662 0.0
C1046 C 0.89353 0.10588 0.25794 0.0
C1047 C 0.87943 0.11742 0.25055 0.0
C1048 C 0.87119 0.13117 0.26201 0.0
C1049 C 0.88799 0.1877 0.25496 0.0
C1050 C 0.85334 0.18266 0.27228 0.0
C1051 C 0.88542 0.17383 0.26872 0.0
N1052 N 0.86822 0.17139 0.2771 0.0
C1053 C 0.8554 0.19668 0.25859 0.0
C1054 C 0.87285 0.19918 0.24988 0.0
C1055 C 0.83866 0.17025 0.32416 0.0
C1056 C 0.87831 0.12141 0.37143 0.0
C1057 C 0.84426 0.13991 0.36658 0.0
C1058 C 0.85391 0.14168 0.38367 0.0
C1059 C 0.87106 0.13236 0.38607 0.0
N1060 N 0.85144 0.12912 0.3523 0.0
C1061 C 0.86825 0.11996 0.35454 0.0
Co1062 Co 0.13848 0.64942 0.19994 0.0
Co1063 Co 0.16627 0.62276 0.17034 0.0
O1064 O 0.14211 0.62902 0.18187 0.0
C1065 C 0.11013 0.65911 0.17063 0.0
O1066 O 0.12379 0.65997 0.15815 0.0
C1067 C 0.15404 0.58664 0.18729 0.0
O1068 O 0.15115 0.59583 0.20312 0.0
O1069 O 0.17905 0.62238 0.19542 0.0
O1070 O 0.16305 0.64379 0.21246 0.0
H1071 H 0.23613 0.62876 0.1598 0.0
H1072 H 0.10871 0.62043 0.19479 0.0
O1073 O 0.11366 0.65525 0.18783 0.0
H1074 H 0.12674 0.61665 0.26189 0.0
H1075 H 0.09985 0.68933 0.24422 0.0
H1076 H 0.16279 0.67934 0.21626 0.0
H1077 H 0.14181 0.63988 0.24082 0.0
H1078 H 0.10527 0.66336 0.22168 0.0
O1079 O 0.16017 0.59532 0.1728 0.0
H1080 H 0.20546 0.63697 0.17406 0.0
H1081 H 0.17845 0.5941 0.14205 0.0
H1082 H 0.15802 0.70539 0.23884 0.0
H1083 H 0.09315 0.59711 0.21541 0.0
H1084 H 0.12637 0.71051 0.25299 0.0
H1085 H 0.1022 0.59507 0.24921 0.0
O1086 O 0.15155 0.66774 0.18303 0.0
H1087 H 0.11447 0.60758 0.12436 0.0
H1088 H 0.17514 0.64049 0.13319 0.0
H1089 H 0.15918 0.64201 0.1023 0.0
H1090 H 0.12863 0.62544 0.09773 0.0
H1091 H 0.13085 0.60655 0.15506 0.0
H1092 H 0.20886 0.58533 0.12754 0.0
H1093 H 0.23796 0.60277 0.13636 0.0
O1094 O 0.17278 0.64999 0.16754 0.0
C1095 C 0.17695 0.63262 0.2101 0.0
C1096 C 0.22354 0.6211 0.1558 0.0
C1097 C 0.20824 0.5967 0.13771 0.0
N1098 N 0.19017 0.61612 0.15878 0.0
C1099 C 0.20612 0.62572 0.16379 0.0
C1100 C 0.19107 0.60171 0.146 0.0
C1101 C 0.22456 0.6065 0.14266 0.0
C1102 C 0.11259 0.61976 0.20952 0.0
N1103 N 0.12608 0.63158 0.21661 0.0
C1104 C 0.10379 0.60647 0.22111 0.0
C1105 C 0.10889 0.60532 0.24007 0.0
C1106 C 0.12267 0.61741 0.24719 0.0
C1107 C 0.13118 0.63051 0.23518 0.0
C1108 C 0.11372 0.68722 0.23817 0.0
C1109 C 0.14899 0.68142 0.22243 0.0
C1110 C 0.11686 0.67257 0.22537 0.0
N1111 N 0.13436 0.66976 0.21777 0.0
C1112 C 0.14637 0.69622 0.23517 0.0
C1113 C 0.1286 0.6991 0.2431 0.0
C1114 C 0.16576 0.66592 0.1721 0.0
C1115 C 0.1278 0.61482 0.12616 0.0
C1116 C 0.16183 0.63329 0.13133 0.0
C1117 C 0.15288 0.63417 0.11379 0.0
C1118 C 0.13574 0.62486 0.11123 0.0
N1119 N 0.15398 0.62337 0.14588 0.0
C1120 C 0.13717 0.61424 0.14349 0.0
Co1121 Co 0.36036 0.3497 0.69774 0.0
Co1122 Co 0.33174 0.37741 0.66979 0.0
O1123 O 0.35624 0.37085 0.68052 0.0
C1124 C 0.38804 0.34057 0.66748 0.0
O1125 O 0.37413 0.33953 0.65529 0.0
C1126 C 0.34481 0.41324 0.68718 0.0
O1127 O 0.35086 0.4036 0.70179 0.0
O1128 O 0.31962 0.37667 0.69515 0.0
O1129 O 0.33616 0.35488 0.71115 0.0
H1130 H 0.26172 0.37088 0.66085 0.0
H1131 H 0.39024 0.37865 0.69287 0.0
O1132 O 0.38485 0.34432 0.68476 0.0
H1133 H 0.37393 0.38017 0.7605 0.0
H1134 H 0.40019 0.3082 0.73942 0.0
H1135 H 0.33649 0.31924 0.71369 0.0
H1136 H 0.35808 0.35788 0.73899 0.0
H1137 H 0.39416 0.33496 0.718 0.0
O1138 O 0.33719 0.40485 0.67325 0.0
H1139 H 0.29286 0.36256 0.67397 0.0
H1140 H 0.31847 0.4069 0.64281 0.0
H1141 H 0.34186 0.29239 0.73518 0.0
H1142 H 0.4066 0.40101 0.71393 0.0
H1143 H 0.37391 0.28674 0.7482 0.0
H1144 H 0.39841 0.40191 0.748 0.0
O1145 O 0.34679 0.33192 0.68058 0.0
H1146 H 0.38243 0.39517 0.62354 0.0
H1147 H 0.32222 0.36136 0.632 0.0
H1148 H 0.33757 0.36141 0.60077 0.0
H1149 H 0.36789 0.37845 0.59638 0.0
H1150 H 0.36665 0.39462 0.65457 0.0
H1151 H 0.28757 0.4158 0.62948 0.0
H1152 H 0.25894 0.39769 0.63843 0.0
O1153 O 0.32554 0.3503 0.66594 0.0
C1154 C 0.32215 0.36605 0.70947 0.0
C1155 C 0.2741 0.37884 0.65679 0.0
C1156 C 0.28861 0.40407 0.6392 0.0
N1157 N 0.30748 0.38414 0.65906 0.0
C1158 C 0.29178 0.37417 0.66413 0.0
C1159 C 0.30606 0.39899 0.64683 0.0
C1160 C 0.27255 0.3939 0.64423 0.0
C1161 C 0.38675 0.37881 0.70772 0.0
N1162 N 0.37328 0.3669 0.7147 0.0
C1163 C 0.39599 0.39157 0.71956 0.0
C1164 C 0.39137 0.39209 0.73866 0.0
C1165 C 0.37762 0.3799 0.74568 0.0
C1166 C 0.36866 0.36735 0.73342 0.0
C1167 C 0.38616 0.31053 0.73386 0.0
C1168 C 0.35045 0.31693 0.71938 0.0
C1169 C 0.38267 0.32564 0.72169 0.0
N1170 N 0.36496 0.32873 0.71471 0.0
C1171 C 0.35342 0.30168 0.7315 0.0
C1172 C 0.3714 0.2985 0.73879 0.0
C1173 C 0.33249 0.33419 0.66985 0.0
C1174 C 0.36921 0.38773 0.62526 0.0
C1175 C 0.33544 0.36873 0.63022 0.0
C1176 C 0.34404 0.36876 0.61249 0.0
C1177 C 0.36105 0.37833 0.61004 0.0
N1178 N 0.3435 0.37803 0.64507 0.0
C1179 C 0.36018 0.38742 0.64278 0.0
Co1180 Co 0.80032 0.63946 0.85002 0.0
Co1181 Co 0.82924 0.66845 0.87614 0.0
O1182 O 0.81816 0.64392 0.87045 0.0
C1183 C 0.82977 0.61083 0.84104 0.0
O1184 O 0.84224 0.6244 0.83923 0.0
C1185 C 0.81234 0.65692 0.91255 0.0
O1186 O 0.79655 0.65363 0.90343 0.0
O1187 O 0.80394 0.68083 0.87604 0.0
O1188 O 0.78748 0.66402 0.85479 0.0
H1189 H 0.8387 0.73828 0.86827 0.0
H1190 H 0.8056 0.61079 0.88006 0.0
O1191 O 0.81267 0.61456 0.84508 0.0
H1192 H 0.73818 0.62782 0.88249 0.0
H1193 H 0.75684 0.59916 0.81087 0.0
H1194 H 0.78399 0.66268 0.81926 0.0
H1195 H 0.75927 0.64241 0.85898 0.0
H1196 H 0.77907 0.6056 0.83687 0.0
O1197 O 0.82676 0.66302 0.90374 0.0
H1198 H 0.82499 0.70716 0.86083 0.0
H1199 H 0.85713 0.68188 0.90465 0.0
H1200 H 0.7617 0.65689 0.79316 0.0
H1201 H 0.78497 0.59571 0.90368 0.0
H1202 H 0.74796 0.62494 0.78884 0.0
H1203 H 0.75101 0.60425 0.90504 0.0
O1204 O 0.81726 0.65219 0.83144 0.0
H1205 H 0.87598 0.61784 0.8929 0.0
H1206 H 0.86636 0.67751 0.85844 0.0
H1207 H 0.89751 0.66205 0.85753 0.0
H1208 H 0.90249 0.63201 0.87488 0.0
H1209 H 0.84501 0.6337 0.89332 0.0
H1210 H 0.87108 0.71275 0.91267 0.0
H1211 H 0.86192 0.74121 0.89436 0.0
O1212 O 0.83207 0.67426 0.84877 0.0
C1213 C 0.78944 0.67823 0.86566 0.0
C1214 C 0.84285 0.72597 0.87631 0.0
C1215 C 0.861 0.71165 0.90125 0.0
N1216 N 0.84036 0.69271 0.8822 0.0
C1217 C 0.83517 0.70831 0.87213 0.0
C1218 C 0.85302 0.69422 0.89667 0.0
C1219 C 0.85586 0.72761 0.89097 0.0
C1220 C 0.7908 0.61445 0.88044 0.0
N1221 N 0.78364 0.62741 0.86809 0.0
C1222 C 0.7792 0.60592 0.8939 0.0
C1223 C 0.76016 0.61074 0.89467 0.0
C1224 C 0.75295 0.62397 0.88203 0.0
C1225 C 0.76498 0.63223 0.86878 0.0
C1226 C 0.76271 0.61315 0.81262 0.0
C1227 C 0.77799 0.64876 0.81753 0.0
C1228 C 0.77533 0.61687 0.82729 0.0
N1229 N 0.78271 0.63453 0.82965 0.0
C1230 C 0.76542 0.64556 0.8027 0.0
C1231 C 0.75773 0.62762 0.80027 0.0
C1232 C 0.82785 0.66671 0.83298 0.0
C1233 C 0.874 0.63095 0.88532 0.0
C1234 C 0.86839 0.66441 0.86597 0.0
C1235 C 0.88608 0.65575 0.86544 0.0
C1236 C 0.88886 0.6389 0.87519 0.0
N1237 N 0.8539 0.65656 0.87599 0.0
C1238 C 0.85651 0.64002 0.88555 0.0
Co1239 Co 0.29676 0.86098 0.15245 0.0
Co1240 Co 0.32592 0.8354 0.123 0.0
O1241 O 0.3137 0.8588 0.13084 0.0
C1242 C 0.32615 0.88961 0.1602 0.0
O1243 O 0.33888 0.87684 0.15594 0.0
C1244 C 0.30593 0.84525 0.08737 0.0
O1245 O 0.28974 0.84407 0.09629 0.0
O1246 O 0.30152 0.82126 0.12401 0.0
O1247 O 0.28448 0.83661 0.14593 0.0
H1248 H 0.34034 0.76603 0.1259 0.0
H1249 H 0.30003 0.89229 0.12491 0.0
O1250 O 0.30866 0.88557 0.15945 0.0
H1251 H 0.23297 0.87374 0.12383 0.0
H1252 H 0.25385 0.8961 0.19687 0.0
H1253 H 0.2825 0.83455 0.18158 0.0
H1254 H 0.25543 0.85771 0.14503 0.0
H1255 H 0.27507 0.89278 0.16947 0.0
O1256 O 0.32142 0.84234 0.09599 0.0
H1257 H 0.32517 0.79564 0.13609 0.0
H1258 H 0.3527 0.82558 0.09206 0.0
H1259 H 0.26124 0.83721 0.20902 0.0
H1260 H 0.27802 0.90882 0.1036 0.0
H1261 H 0.24676 0.86816 0.21681 0.0
H1262 H 0.24423 0.89953 0.10295 0.0
O1263 O 0.31488 0.84738 0.16917 0.0
H1264 H 0.36819 0.88987 0.10639 0.0
H1265 H 0.36459 0.82795 0.13793 0.0
H1266 H 0.39467 0.84544 0.13793 0.0
H1267 H 0.39661 0.87663 0.12205 0.0
H1268 H 0.33834 0.87198 0.10687 0.0
H1269 H 0.36806 0.79626 0.0813 0.0
H1270 H 0.36196 0.76622 0.09831 0.0
O1271 O 0.3309 0.82818 0.1497 0.0
C1272 C 0.28699 0.82289 0.13457 0.0
C1273 C 0.34316 0.77904 0.1184 0.0
C1274 C 0.35869 0.796 0.09336 0.0
N1275 N 0.33815 0.81234 0.11477 0.0
C1276 C 0.33464 0.79586 0.12414 0.0
C1277 C 0.34992 0.81255 0.09949 0.0
C1278 C 0.35527 0.77915 0.10291 0.0
C1279 C 0.28532 0.88825 0.12479 0.0
N1280 N 0.27901 0.87408 0.13624 0.0
C1281 C 0.27294 0.89763 0.11266 0.0
C1282 C 0.25398 0.89239 0.11228 0.0
C1283 C 0.24766 0.87791 0.12399 0.0
C1284 C 0.26045 0.86884 0.13592 0.0
C1285 C 0.26006 0.88253 0.19361 0.0
C1286 C 0.27617 0.84805 0.18483 0.0
C1287 C 0.27212 0.88058 0.17814 0.0
N1288 N 0.27992 0.86347 0.17388 0.0
C1289 C 0.26418 0.84947 0.20041 0.0
C1290 C 0.25608 0.86685 0.20478 0.0
C1291 C 0.32661 0.83405 0.16615 0.0
C1292 C 0.36754 0.87627 0.11331 0.0
C1293 C 0.3653 0.84153 0.13104 0.0
C1294 C 0.38239 0.85135 0.13105 0.0
C1295 C 0.38347 0.86885 0.12212 0.0
N1296 N 0.34974 0.8489 0.12235 0.0
C1297 C 0.3507 0.86604 0.11356 0.0
Co1298 Co 0.20315 0.13937 0.65061 0.0
Co1299 Co 0.17205 0.16459 0.62309 0.0
O1300 O 0.18495 0.14133 0.63009 0.0
C1301 C 0.17535 0.10972 0.66079 0.0
O1302 O 0.16191 0.12242 0.65962 0.0
C1303 C 0.18994 0.15378 0.58685 0.0
O1304 O 0.20635 0.15397 0.59543 0.0
O1305 O 0.19634 0.1789 0.6224 0.0
O1306 O 0.21434 0.16426 0.644 0.0
H1307 H 0.15733 0.23386 0.62682 0.0
H1308 H 0.19946 0.10841 0.62271 0.0
O1309 O 0.19244 0.11424 0.65758 0.0
H1310 H 0.26564 0.12944 0.61826 0.0
H1311 H 0.24947 0.10476 0.69189 0.0
H1312 H 0.21812 0.16565 0.67953 0.0
H1313 H 0.24385 0.1443 0.64095 0.0
H1314 H 0.22668 0.10794 0.66577 0.0
O1315 O 0.17487 0.15766 0.59584 0.0
H1316 H 0.17339 0.20439 0.63602 0.0
H1317 H 0.14318 0.17414 0.59401 0.0
H1318 H 0.24092 0.16313 0.70571 0.0
H1319 H 0.22081 0.09305 0.59992 0.0
H1320 H 0.25678 0.13251 0.71202 0.0
H1321 H 0.25416 0.10359 0.59756 0.0
O1322 O 0.18555 0.15214 0.66848 0.0
H1323 H 0.12916 0.10978 0.60948 0.0
H1324 H 0.13445 0.17179 0.64061 0.0
H1325 H 0.10455 0.15411 0.64263 0.0
H1326 H 0.10176 0.12288 0.62696 0.0
H1327 H 0.15886 0.12787 0.60794 0.0
H1328 H 0.12689 0.20332 0.58426 0.0
H1329 H 0.13389 0.23344 0.60076 0.0
O1330 O 0.16883 0.17182 0.65009 0.0
C1331 C 0.21121 0.17775 0.63253 0.0
C1332 C 0.15411 0.22081 0.61956 0.0
C1333 C 0.13705 0.20367 0.59566 0.0
N1334 N 0.15911 0.18754 0.61566 0.0
C1335 C 0.16313 0.20407 0.62474 0.0
C1336 C 0.14634 0.18721 0.60121 0.0
C1337 C 0.14098 0.22057 0.60493 0.0
C1338 C 0.21399 0.11298 0.62186 0.0
N1339 N 0.22042 0.12718 0.63321 0.0
C1340 C 0.226 0.10427 0.60889 0.0
C1341 C 0.2447 0.11021 0.60756 0.0
C1342 C 0.25114 0.12472 0.61916 0.0
C1343 C 0.23873 0.13311 0.63195 0.0
C1344 C 0.24268 0.11819 0.68926 0.0
C1345 C 0.22504 0.1523 0.68213 0.0
C1346 C 0.22973 0.12006 0.67452 0.0
N1347 N 0.22119 0.137 0.67105 0.0
C1348 C 0.2379 0.15095 0.697 0.0
C1349 C 0.24678 0.13376 0.70055 0.0
C1350 C 0.17381 0.16563 0.66623 0.0
C1351 C 0.13019 0.1234 0.61632 0.0
C1352 C 0.13337 0.15819 0.63379 0.0
C1353 C 0.11638 0.14826 0.63496 0.0
C1354 C 0.11482 0.13074 0.62615 0.0
N1355 N 0.14836 0.15091 0.62408 0.0
C1356 C 0.14694 0.13373 0.61544 0.0
Co1357 Co 0.69998 0.3614 0.34989 0.0
Co1358 Co 0.67278 0.32979 0.37503 0.0
O1359 O 0.68257 0.35512 0.37032 0.0
C1360 C 0.66874 0.38826 0.34152 0.0
O1361 O 0.65721 0.37396 0.33919 0.0
C1362 C 0.68945 0.34108 0.41172 0.0
O1363 O 0.70384 0.34821 0.40251 0.0
O1364 O 0.69859 0.3187 0.37376 0.0
O1365 O 0.71441 0.33757 0.35382 0.0
H1366 H 0.66651 0.26013 0.36345 0.0
H1367 H 0.69312 0.38909 0.38054 0.0
O1368 O 0.686 0.38557 0.34574 0.0
H1369 H 0.76139 0.37582 0.38264 0.0
H1370 H 0.74058 0.40568 0.31197 0.0
H1371 H 0.71761 0.3403 0.31833 0.0
H1372 H 0.74112 0.3605 0.35886 0.0
H1373 H 0.71895 0.39697 0.33781 0.0
O1374 O 0.67582 0.33346 0.40283 0.0
H1375 H 0.67852 0.29225 0.3575 0.0
H1376 H 0.64617 0.31345 0.40328 0.0
H1377 H 0.73934 0.34837 0.29237 0.0
H1378 H 0.7129 0.40488 0.40442 0.0
H1379 H 0.75098 0.38127 0.28907 0.0
H1380 H 0.74729 0.39821 0.40562 0.0
O1381 O 0.68383 0.34825 0.33091 0.0
H1382 H 0.62438 0.3772 0.39586 0.0
H1383 H 0.63557 0.32 0.35786 0.0
H1384 H 0.60375 0.33406 0.35866 0.0
H1385 H 0.59799 0.36285 0.3778 0.0
H1386 H 0.65602 0.36275 0.39453 0.0
H1387 H 0.63393 0.28153 0.40983 0.0
H1388 H 0.64405 0.25461 0.38979 0.0
O1389 O 0.66942 0.3254 0.3475 0.0
C1390 C 0.71306 0.32266 0.3638 0.0
C1391 C 0.66195 0.27175 0.37225 0.0
C1392 C 0.64368 0.28376 0.39829 0.0
N1393 N 0.66295 0.30472 0.37994 0.0
C1394 C 0.66866 0.28998 0.36891 0.0
C1395 C 0.65069 0.30179 0.39454 0.0
C1396 C 0.64936 0.26866 0.38704 0.0
C1397 C 0.7081 0.38627 0.38084 0.0
N1398 N 0.71596 0.37394 0.36826 0.0
C1399 C 0.71922 0.39519 0.39445 0.0
C1400 C 0.73851 0.39142 0.39514 0.0
C1401 C 0.74642 0.37884 0.38226 0.0
C1402 C 0.73487 0.37017 0.36886 0.0
C1403 C 0.73563 0.39129 0.31328 0.0
C1404 C 0.72269 0.35463 0.31705 0.0
C1405 C 0.72335 0.38628 0.32785 0.0
N1406 N 0.71713 0.36811 0.32965 0.0
C1407 C 0.73496 0.35912 0.30229 0.0
C1408 C 0.74147 0.37759 0.30044 0.0
C1409 C 0.67346 0.33355 0.33198 0.0
C1410 C 0.6267 0.36463 0.3875 0.0
C1411 C 0.63319 0.33257 0.36616 0.0
C1412 C 0.61513 0.34044 0.36659 0.0
C1413 C 0.61191 0.35659 0.37735 0.0
N1414 N 0.64762 0.34051 0.3762 0.0
C1415 C 0.64457 0.35636 0.38674 0.0
C1416 C 0.15724 0.3111 0.18344 0.0
C1417 C 0.17022 0.3261 0.18441 0.0
C1418 C 0.1519 0.30134 0.19969 0.0
C1419 C 0.16923 0.28984 0.2471 0.0
H1420 H 0.11865 0.27011 0.25411 0.0
C1421 C 0.14992 0.24569 0.3123 0.0
C1422 C 0.13958 0.22905 0.30899 0.0
C1423 C 0.15192 0.25926 0.29817 0.0
C1424 C 0.13286 0.27543 0.25228 0.0
H1425 H 0.18729 0.34296 0.20345 0.0
H1426 H 0.17779 0.32597 0.23189 0.0
H1427 H 0.12522 0.29128 0.22771 0.0
H1428 H 0.12273 0.214 0.28831 0.0
H1429 H 0.12639 0.23768 0.26357 0.0
H1430 H 0.17698 0.27378 0.27143 0.0
C1431 C 0.17194 0.32165 0.21845 0.0
C1432 C 0.13663 0.28758 0.23718 0.0
C1433 C 0.17729 0.33147 0.20216 0.0
C1434 C 0.13076 0.22664 0.29138 0.0
C1435 C 0.13279 0.24026 0.27721 0.0
C1436 C 0.16547 0.27774 0.26219 0.0
C1437 C 0.15939 0.3063 0.21735 0.0
C1438 C 0.15492 0.29474 0.23429 0.0
C1439 C 0.14368 0.25656 0.28035 0.0
C1440 C 0.14729 0.27023 0.26486 0.0
H1441 H 0.15147 0.30651 0.17005 0.0
H1442 H 0.14241 0.28945 0.19827 0.0
H1443 H 0.18355 0.29482 0.24511 0.0
H1444 H 0.15683 0.24814 0.3257 0.0
H1445 H 0.16012 0.27181 0.30116 0.0
C1446 C 0.37715 0.77476 0.79225 0.0
C1447 C 0.367 0.77143 0.80898 0.0
C1448 C 0.37612 0.76198 0.77722 0.0
C1449 C 0.36127 0.71323 0.76438 0.0
H1450 H 0.35271 0.73536 0.7151 0.0
C1451 C 0.32965 0.67197 0.70105 0.0
C1452 C 0.33646 0.67636 0.68293 0.0
C1453 C 0.33578 0.68223 0.7168 0.0
C1454 C 0.35538 0.7289 0.72869 0.0
H1455 H 0.34836 0.75162 0.82317 0.0
H1456 H 0.34649 0.72964 0.79703 0.0
H1457 H 0.35973 0.75571 0.7418 0.0
H1458 H 0.35581 0.69441 0.66741 0.0
H1459 H 0.36663 0.71186 0.69474 0.0
H1460 H 0.3565 0.6864 0.75123 0.0
C1461 C 0.35539 0.74198 0.79555 0.0
C1462 C 0.35945 0.74059 0.74401 0.0
C1463 C 0.35638 0.75471 0.81053 0.0
C1464 C 0.35011 0.69067 0.68108 0.0
C1465 C 0.35626 0.70082 0.69677 0.0
C1466 C 0.35719 0.70151 0.74902 0.0
C1467 C 0.36497 0.7456 0.77859 0.0
C1468 C 0.36226 0.73294 0.76208 0.0
C1469 C 0.34887 0.69703 0.71475 0.0
C1470 C 0.35405 0.70923 0.73103 0.0
H1471 H 0.3855 0.78745 0.79056 0.0
H1472 H 0.38387 0.76506 0.76441 0.0
H1473 H 0.36359 0.70687 0.77808 0.0
H1474 H 0.31911 0.66108 0.703 0.0
H1475 H 0.32972 0.67904 0.73046 0.0
C1476 C 0.64078 0.25524 0.69155 0.0
C1477 C 0.63072 0.27226 0.69356 0.0
C1478 C 0.64209 0.24249 0.70648 0.0
C1479 C 0.6408 0.24146 0.75807 0.0
H1480 H 0.64149 0.18714 0.75119 0.0
C1481 C 0.65094 0.1917 0.82094 0.0
C1482 C 0.6636 0.17656 0.81868 0.0
C1483 C 0.64478 0.20208 0.80542 0.0
C1484 C 0.64147 0.20228 0.7533 0.0
H1485 H 0.61351 0.28878 0.71275 0.0
H1486 H 0.61575 0.26638 0.73887 0.0
H1487 H 0.63365 0.20766 0.72459 0.0
H1488 H 0.67929 0.1602 0.79811 0.0
H1489 H 0.6687 0.17863 0.77091 0.0
H1490 H 0.64898 0.23622 0.7866 0.0
C1491 C 0.62278 0.26307 0.7257 0.0
C1492 C 0.63693 0.21403 0.73809 0.0
C1493 C 0.62139 0.27585 0.7107 0.0
C1494 C 0.6695 0.17173 0.80036 0.0
C1495 C 0.66338 0.18225 0.78477 0.0
C1496 C 0.64535 0.22974 0.77323 0.0
C1497 C 0.63343 0.24641 0.72385 0.0
C1498 C 0.63669 0.23377 0.74027 0.0
C1499 C 0.6512 0.19776 0.7872 0.0
C1500 C 0.64584 0.21002 0.77103 0.0
H1501 H 0.64816 0.25194 0.67859 0.0
H1502 H 0.65058 0.22992 0.70462 0.0
H1503 H 0.64113 0.2566 0.76016 0.0
H1504 H 0.64596 0.19584 0.83477 0.0
H1505 H 0.6351 0.21367 0.80777 0.0
C1506 C 0.85522 0.74396 0.19057 0.0
C1507 C 0.86586 0.72734 0.19289 0.0
C1508 C 0.85361 0.75702 0.20521 0.0
C1509 C 0.85584 0.75948 0.25685 0.0
H1510 H 0.85287 0.81352 0.24853 0.0
C1511 C 0.8459 0.8106 0.31863 0.0
C1512 C 0.83237 0.82498 0.31645 0.0
C1513 C 0.85201 0.8001 0.30318 0.0
C1514 C 0.85353 0.79846 0.25104 0.0
H1515 H 0.88379 0.71189 0.21231 0.0
H1516 H 0.8811 0.73485 0.23786 0.0
H1517 H 0.86075 0.79258 0.22227 0.0
H1518 H 0.81515 0.83994 0.29604 0.0
H1519 H 0.82574 0.82134 0.26895 0.0
H1520 H 0.84835 0.76524 0.28547 0.0
C1521 C 0.8738 0.73759 0.22472 0.0
C1522 C 0.85808 0.78646 0.23602 0.0
C1523 C 0.87545 0.72449 0.21002 0.0
C1524 C 0.8256 0.82902 0.29824 0.0
C1525 C 0.83172 0.81839 0.2827 0.0
C1526 C 0.85132 0.77145 0.27182 0.0
C1527 C 0.86257 0.75384 0.22259 0.0
C1528 C 0.85916 0.76681 0.23873 0.0
C1529 C 0.84472 0.80356 0.2851 0.0
C1530 C 0.85002 0.79107 0.2691 0.0
H1531 H 0.84763 0.74671 0.17759 0.0
H1532 H 0.84468 0.76925 0.20313 0.0
H1533 H 0.85615 0.74441 0.25937 0.0
H1534 H 0.85155 0.80709 0.33238 0.0
H1535 H 0.86232 0.78905 0.30546 0.0
C1536 C 0.31048 0.1444 0.24088 0.0
C1537 C 0.3081 0.13344 0.22448 0.0
C1538 C 0.29614 0.14565 0.25431 0.0
C1539 C 0.24471 0.14128 0.25843 0.0
H1540 H 0.25468 0.14535 0.31211 0.0
C1541 C 0.18431 0.15102 0.31126 0.0
C1542 C 0.18672 0.16516 0.32499 0.0
C1543 C 0.19955 0.14469 0.30056 0.0
C1544 C 0.25171 0.14434 0.29716 0.0
H1545 H 0.28891 0.11463 0.20978 0.0
H1546 H 0.26393 0.11669 0.23339 0.0
H1547 H 0.28052 0.13818 0.29042 0.0
H1548 H 0.20735 0.18313 0.33875 0.0
H1549 H 0.234 0.17217 0.31985 0.0
H1550 H 0.21603 0.14775 0.26504 0.0
C1551 C 0.27686 0.12452 0.23567 0.0
C1552 C 0.26649 0.14022 0.28473 0.0
C1553 C 0.29123 0.12325 0.22218 0.0
C1554 C 0.20497 0.17221 0.32832 0.0
C1555 C 0.22027 0.16589 0.31752 0.0
C1556 C 0.22997 0.14537 0.27083 0.0
C1557 C 0.27904 0.13598 0.25174 0.0
C1558 C 0.26319 0.13883 0.26519 0.0
C1559 C 0.21762 0.15236 0.30322 0.0
C1560 C 0.2333 0.14709 0.29032 0.0
H1561 H 0.32326 0.15246 0.24318 0.0
H1562 H 0.29823 0.15479 0.26639 0.0
H1563 H 0.24172 0.14069 0.24346 0.0
H1564 H 0.17052 0.14512 0.30836 0.0
H1565 H 0.1971 0.13398 0.28993 0.0
C1566 C 0.2989 0.82604 0.82929 0.0
C1567 C 0.31727 0.83256 0.82558 0.0
C1568 C 0.28362 0.83248 0.81857 0.0
C1569 C 0.27316 0.85248 0.7718 0.0
H1570 H 0.22352 0.86136 0.79299 0.0
C1571 C 0.21057 0.87516 0.725 0.0
C1572 C 0.19354 0.86547 0.72815 0.0
C1573 C 0.22544 0.87375 0.73791 0.0
C1574 C 0.23728 0.85884 0.78685 0.0
H1575 H 0.33378 0.85165 0.80815 0.0
H1576 H 0.30717 0.86296 0.78973 0.0
H1577 H 0.24991 0.85399 0.8139 0.0
H1578 H 0.17867 0.84717 0.74777 0.0
H1579 H 0.20456 0.8446 0.77001 0.0
H1580 H 0.26055 0.8569 0.74476 0.0
C1581 C 0.30462 0.85261 0.80069 0.0
C1582 C 0.25239 0.85461 0.79883 0.0
C1583 C 0.31988 0.84618 0.81136 0.0
C1584 C 0.19155 0.85485 0.74482 0.0
C1585 C 0.20639 0.85346 0.75769 0.0
C1586 C 0.25808 0.85668 0.75984 0.0
C1587 C 0.28637 0.8456 0.80392 0.0
C1588 C 0.27047 0.85119 0.79142 0.0
C1589 C 0.22362 0.86265 0.75427 0.0
C1590 C 0.23991 0.8597 0.76719 0.0
H1591 H 0.29636 0.81552 0.84009 0.0
H1592 H 0.26976 0.82666 0.82132 0.0
H1593 H 0.28683 0.84962 0.76559 0.0
H1594 H 0.2126 0.88351 0.71236 0.0
H1595 H 0.23846 0.88121 0.73498 0.0
C1596 C 0.78847 0.37444 0.77669 0.0
C1597 C 0.80568 0.36486 0.7743 0.0
C1598 C 0.77398 0.37245 0.76343 0.0
C1599 C 0.76329 0.35564 0.7148 0.0
H1600 H 0.71352 0.34684 0.73569 0.0
C1601 C 0.70074 0.32364 0.67218 0.0
C1602 C 0.68267 0.33092 0.67597 0.0
C1603 C 0.71634 0.32954 0.68283 0.0
C1604 C 0.72726 0.34953 0.72957 0.0
H1605 H 0.82133 0.34628 0.75557 0.0
H1606 H 0.79609 0.3427 0.73273 0.0
H1607 H 0.7395 0.35467 0.75664 0.0
H1608 H 0.66709 0.35078 0.69341 0.0
H1609 H 0.69412 0.36116 0.71151 0.0
H1610 H 0.75096 0.35013 0.68771 0.0
C1611 C 0.79382 0.35189 0.74473 0.0
C1612 C 0.74217 0.35407 0.7416 0.0
C1613 C 0.80828 0.35386 0.75795 0.0
C1614 C 0.68072 0.34472 0.69011 0.0
C1615 C 0.69623 0.35062 0.70064 0.0
C1616 C 0.74833 0.35106 0.70273 0.0
C1617 C 0.77636 0.36085 0.74748 0.0
C1618 C 0.76038 0.35712 0.7344 0.0
C1619 C 0.71415 0.34283 0.69744 0.0
C1620 C 0.73015 0.34793 0.71 0.0
H1621 H 0.78598 0.38308 0.78905 0.0
H1622 H 0.76079 0.37979 0.76581 0.0
H1623 H 0.77712 0.35807 0.70878 0.0
H1624 H 0.70276 0.31296 0.66143 0.0
H1625 H 0.72997 0.32319 0.68009 0.0
C1626 C 0.81655 0.65472 0.19075 0.0
C1627 C 0.81484 0.6674 0.17555 0.0
C1628 C 0.80066 0.64864 0.20064 0.0
C1629 C 0.75257 0.66364 0.21219 0.0
H1630 H 0.74809 0.613 0.23254 0.0
C1631 C 0.6884 0.64226 0.2563 0.0
C1632 C 0.69196 0.6324 0.27318 0.0
C1633 C 0.70246 0.6444 0.24273 0.0
C1634 C 0.74921 0.62722 0.22704 0.0
H1635 H 0.79487 0.68314 0.1585 0.0
H1636 H 0.76703 0.67238 0.17576 0.0
H1637 H 0.77407 0.62061 0.21117 0.0
H1638 H 0.71302 0.61642 0.28861 0.0
H1639 H 0.73777 0.62041 0.26489 0.0
H1640 H 0.728 0.6704 0.22827 0.0
C1641 C 0.78078 0.66733 0.1801 0.0
C1642 C 0.76407 0.63158 0.21478 0.0
C1643 C 0.79673 0.67341 0.17014 0.0
C1644 C 0.70977 0.62406 0.27577 0.0
C1645 C 0.72394 0.6263 0.26215 0.0
C1646 C 0.73775 0.65928 0.22441 0.0
C1647 C 0.78261 0.65508 0.19563 0.0
C1648 C 0.76601 0.6499 0.20736 0.0
C1649 C 0.72053 0.63687 0.24568 0.0
C1650 C 0.73596 0.64107 0.2321 0.0
H1651 H 0.83024 0.64976 0.1954 0.0
H1652 H 0.80263 0.63942 0.21267 0.0
H1653 H 0.75384 0.67797 0.20704 0.0
H1654 H 0.67484 0.64879 0.25369 0.0
H1655 H 0.69924 0.65227 0.23003 0.0
C1656 C 0.3095 0.18282 0.15206 0.0
C1657 C 0.3252 0.18416 0.16414 0.0
C1658 C 0.29985 0.19896 0.14626 0.0
C1659 C 0.29056 0.24765 0.16125 0.0
H1660 H 0.26802 0.25215 0.11156 0.0
C1661 C 0.24693 0.3127 0.14097 0.0
C1662 C 0.22947 0.30921 0.13217 0.0
C1663 C 0.26036 0.29843 0.14268 0.0
C1664 C 0.27415 0.25104 0.12551 0.0
H1665 H 0.34343 0.20374 0.17906 0.0
H1666 H 0.32665 0.23199 0.16874 0.0
H1667 H 0.28886 0.22558 0.11852 0.0
H1668 H 0.21285 0.28805 0.11755 0.0
H1669 H 0.23631 0.26303 0.12071 0.0
H1670 H 0.27565 0.27286 0.16838 0.0
C1671 C 0.32168 0.21834 0.16399 0.0
C1672 C 0.2861 0.23584 0.12951 0.0
C1673 C 0.33137 0.20215 0.16981 0.0
C1674 C 0.22613 0.29126 0.12439 0.0
C1675 C 0.23961 0.27692 0.12614 0.0
C1676 C 0.27867 0.26284 0.15725 0.0
C1677 C 0.30564 0.21691 0.15236 0.0
C1678 C 0.29426 0.23385 0.14751 0.0
C1679 C 0.25671 0.28026 0.13569 0.0
C1680 C 0.27018 0.26462 0.1394 0.0
H1681 H 0.30429 0.16923 0.14738 0.0
H1682 H 0.28742 0.1973 0.13753 0.0
H1683 H 0.29631 0.24639 0.17535 0.0
H1684 H 0.25011 0.32637 0.14702 0.0
H1685 H 0.27353 0.30156 0.14978 0.0
C1686 C 0.80808 0.31518 0.84671 0.0
C1687 C 0.82328 0.31409 0.83397 0.0
C1688 C 0.79855 0.29894 0.85243 0.0
C1689 C 0.78761 0.25108 0.83645 0.0
H1690 H 0.76806 0.24521 0.88725 0.0
C1691 C 0.74254 0.18685 0.85679 0.0
C1692 C 0.72609 0.1905 0.86731 0.0
C1693 C 0.75637 0.20069 0.85461 0.0
C1694 C 0.77332 0.2467 0.87298 0.0
H1695 H 0.84066 0.29487 0.81766 0.0
H1696 H 0.82395 0.2664 0.82775 0.0
H1697 H 0.78922 0.27143 0.88002 0.0
H1698 H 0.71168 0.21148 0.88433 0.0
H1699 H 0.73576 0.23576 0.88028 0.0
H1700 H 0.77141 0.22669 0.82925 0.0
C1701 C 0.81939 0.27994 0.83317 0.0
C1702 C 0.78548 0.2617 0.86884 0.0
C1703 C 0.82903 0.29624 0.82748 0.0
C1704 C 0.72417 0.20815 0.87617 0.0
C1705 C 0.73802 0.22206 0.87391 0.0
C1706 C 0.77546 0.23612 0.84058 0.0
C1707 C 0.8039 0.28116 0.84555 0.0
C1708 C 0.79255 0.26421 0.85046 0.0
C1709 C 0.75412 0.2186 0.86279 0.0
C1710 C 0.76798 0.23387 0.85884 0.0
H1711 H 0.80317 0.32864 0.852 0.0
H1712 H 0.78653 0.30044 0.86175 0.0
H1713 H 0.79254 0.25277 0.82208 0.0
H1714 H 0.74461 0.1734 0.84984 0.0
H1715 H 0.76875 0.19742 0.84626 0.0
C1716 C 0.75583 0.80946 0.35627 0.0
C1717 C 0.77245 0.80745 0.36696 0.0
C1718 C 0.74297 0.79463 0.35474 0.0
C1719 C 0.74125 0.74306 0.35702 0.0
H1720 H 0.68707 0.75051 0.35459 0.0
C1721 C 0.69111 0.68046 0.34729 0.0
C1722 C 0.67637 0.68248 0.33414 0.0
C1723 C 0.70147 0.69606 0.3533 0.0
C1724 C 0.70217 0.74824 0.35509 0.0
H1725 H 0.78817 0.78837 0.38503 0.0
H1726 H 0.76559 0.76245 0.38242 0.0
H1727 H 0.70766 0.77708 0.36234 0.0
H1728 H 0.66066 0.70273 0.3174 0.0
H1729 H 0.67904 0.73007 0.32773 0.0
H1730 H 0.73591 0.71439 0.34943 0.0
C1731 C 0.76267 0.77552 0.37506 0.0
C1732 C 0.71397 0.76344 0.35957 0.0
C1733 C 0.77555 0.79042 0.37666 0.0
C1734 C 0.67187 0.70066 0.32758 0.0
C1735 C 0.68237 0.71634 0.33355 0.0
C1736 C 0.72949 0.72791 0.35252 0.0
C1737 C 0.7464 0.77736 0.36381 0.0
C1738 C 0.73366 0.76103 0.36047 0.0
C1739 C 0.69752 0.71412 0.34622 0.0
C1740 C 0.70982 0.73032 0.35143 0.0
H1741 H 0.75291 0.82234 0.34859 0.0
H1742 H 0.73072 0.79648 0.3458 0.0
H1743 H 0.75636 0.74079 0.35719 0.0
H1744 H 0.69499 0.66675 0.35278 0.0
H1745 H 0.71277 0.69389 0.36336 0.0
C1746 C 0.16995 0.7977 0.67388 0.0
C1747 C 0.17477 0.81578 0.6673 0.0
C1748 C 0.18014 0.78186 0.66796 0.0
C1749 C 0.21482 0.76493 0.63229 0.0
H1750 H 0.22949 0.7305 0.67217 0.0
C1751 C 0.2766 0.71141 0.62579 0.0
C1752 C 0.27422 0.69371 0.63445 0.0
C1753 C 0.26291 0.72551 0.62791 0.0
C1754 C 0.22531 0.7398 0.66078 0.0
H1755 H 0.19363 0.8312 0.64864 0.0
H1756 H 0.21138 0.80373 0.6386 0.0
H1757 H 0.20781 0.75614 0.67909 0.0
H1758 H 0.25508 0.67678 0.65144 0.0
H1759 H 0.23132 0.70111 0.6548 0.0
H1760 H 0.23274 0.7487 0.61408 0.0
C1761 C 0.19964 0.80172 0.64818 0.0
C1762 C 0.21283 0.75449 0.66475 0.0
C1763 C 0.18949 0.81752 0.65407 0.0
C1764 C 0.25753 0.69024 0.64465 0.0
C1765 C 0.2439 0.70426 0.6467 0.0
C1766 C 0.22737 0.75021 0.62831 0.0
C1767 C 0.19535 0.78374 0.65533 0.0
C1768 C 0.20752 0.76733 0.6506 0.0
C1769 C 0.24658 0.72218 0.63871 0.0
C1770 C 0.23282 0.73753 0.64255 0.0
H1771 H 0.15867 0.79581 0.68402 0.0
H1772 H 0.17629 0.76815 0.67353 0.0
H1773 H 0.21086 0.77446 0.62102 0.0
H1774 H 0.28928 0.71458 0.61787 0.0
H1775 H 0.26545 0.73923 0.62167 0.0
C1776 C 0.82862 0.67066 0.79767 0.0
C1777 C 0.835 0.67607 0.81567 0.0
C1778 C 0.83405 0.68087 0.78164 0.0
C1779 C 0.86849 0.7165 0.76417 0.0
H1780 H 0.82825 0.72956 0.72952 0.0
C1781 C 0.87356 0.77798 0.71024 0.0
C1782 C 0.86483 0.77543 0.69259 0.0
C1783 C 0.87173 0.76429 0.72439 0.0
C1784 C 0.83975 0.72583 0.73887 0.0
H1785 H 0.85271 0.69609 0.83073 0.0
H1786 H 0.86196 0.71377 0.80297 0.0
H1787 H 0.82197 0.70788 0.75536 0.0
H1788 H 0.84804 0.756 0.67581 0.0
H1789 H 0.84523 0.73221 0.7002 0.0
H1790 H 0.88618 0.73478 0.7478 0.0
C1791 C 0.85292 0.70159 0.80116 0.0
C1792 C 0.83614 0.71335 0.75368 0.0
C1793 C 0.84747 0.69146 0.81714 0.0
C1794 C 0.85487 0.75858 0.68923 0.0
C1795 C 0.85312 0.74493 0.70329 0.0
C1796 C 0.87211 0.729 0.74932 0.0
C1797 C 0.84603 0.69664 0.78326 0.0
C1798 C 0.85041 0.70866 0.76662 0.0
C1799 C 0.86118 0.74776 0.72116 0.0
C1800 C 0.85774 0.73392 0.73657 0.0
H1801 H 0.81902 0.65888 0.79599 0.0
H1802 H 0.82867 0.67656 0.768 0.0
H1803 H 0.87985 0.713 0.77377 0.0
H1804 H 0.8813 0.79079 0.71334 0.0
H1805 H 0.87801 0.76697 0.73806 0.0
C1806 C 0.62576 0.22459 0.20942 0.0
C1807 C 0.63469 0.22638 0.19179 0.0
C1808 C 0.62759 0.23878 0.22305 0.0
C1809 C 0.66003 0.27712 0.23655 0.0
H1810 H 0.62026 0.29048 0.27163 0.0
C1811 C 0.67243 0.33083 0.29656 0.0
C1812 C 0.66616 0.32484 0.31441 0.0
C1813 C 0.66669 0.32129 0.28022 0.0
C1814 C 0.63151 0.28687 0.26194 0.0
H1815 H 0.65178 0.24499 0.1744 0.0
H1816 H 0.6546 0.26969 0.19793 0.0
H1817 H 0.61347 0.26895 0.24558 0.0
H1818 H 0.64839 0.30447 0.32892 0.0
H1819 H 0.63857 0.28799 0.30065 0.0
H1820 H 0.67817 0.29466 0.2531 0.0
C1821 C 0.64655 0.25718 0.2014 0.0
C1822 C 0.62763 0.2745 0.24706 0.0
C1823 C 0.6448 0.24301 0.18785 0.0
C1824 C 0.65353 0.30955 0.31546 0.0
C1825 C 0.64775 0.30012 0.29919 0.0
C1826 C 0.66389 0.28948 0.2514 0.0
C1827 C 0.63833 0.25507 0.21931 0.0
C1828 C 0.64192 0.26927 0.23434 0.0
C1829 C 0.65449 0.30566 0.28141 0.0
C1830 C 0.64977 0.29426 0.26445 0.0
H1831 H 0.61791 0.21197 0.21296 0.0
H1832 H 0.62121 0.23662 0.23677 0.0
H1833 H 0.67146 0.27317 0.2272 0.0
H1834 H 0.68215 0.34255 0.29521 0.0
H1835 H 0.67199 0.32599 0.26668 0.0
C1836 C 0.37665 0.72135 0.28758 0.0
C1837 C 0.36666 0.72453 0.30444 0.0
C1838 C 0.37582 0.73446 0.27282 0.0
C1839 C 0.36208 0.7839 0.26148 0.0
H1840 H 0.35243 0.76362 0.21161 0.0
C1841 C 0.32878 0.82747 0.20097 0.0
C1842 C 0.33505 0.82401 0.18246 0.0
C1843 C 0.33547 0.81654 0.21601 0.0
C1844 C 0.35542 0.76956 0.22537 0.0
H1845 H 0.34841 0.74437 0.31909 0.0
H1846 H 0.34689 0.76691 0.29348 0.0
H1847 H 0.35957 0.74224 0.2375 0.0
H1848 H 0.35397 0.80686 0.16546 0.0
H1849 H 0.36568 0.78811 0.19163 0.0
H1850 H 0.35744 0.81121 0.24937 0.0
C1851 C 0.35554 0.75445 0.29169 0.0
C1852 C 0.35956 0.75728 0.24022 0.0
C1853 C 0.35633 0.74138 0.30637 0.0
C1854 C 0.34869 0.80988 0.17948 0.0
C1855 C 0.35536 0.79902 0.19448 0.0
C1856 C 0.35792 0.79619 0.24662 0.0
C1857 C 0.36504 0.75105 0.27464 0.0
C1858 C 0.36264 0.76427 0.25852 0.0
C1859 C 0.34856 0.80195 0.21286 0.0
C1860 C 0.35429 0.78914 0.22844 0.0
H1861 H 0.38476 0.70855 0.28561 0.0
H1862 H 0.38345 0.73153 0.25992 0.0
H1863 H 0.36467 0.78976 0.27535 0.0
H1864 H 0.31826 0.83819 0.20379 0.0
H1865 H 0.32982 0.81906 0.22998 0.0
C1866 C 0.17239 0.17063 0.70135 0.0
C1867 C 0.16622 0.17542 0.68311 0.0
C1868 C 0.16649 0.18114 0.71698 0.0
C1869 C 0.13128 0.21675 0.73299 0.0
H1870 H 0.17051 0.23002 0.76871 0.0
C1871 C 0.1249 0.27777 0.7876 0.0
C1872 C 0.13305 0.27475 0.80545 0.0
C1873 C 0.12697 0.26432 0.77325 0.0
C1874 C 0.1593 0.22625 0.75903 0.0
H1875 H 0.14838 0.19464 0.66719 0.0
H1876 H 0.1384 0.21297 0.69431 0.0
H1877 H 0.17764 0.2085 0.743 0.0
H1878 H 0.14895 0.2547 0.82238 0.0
H1879 H 0.1522 0.23138 0.79763 0.0
H1880 H 0.11306 0.2349 0.74895 0.0
C1881 C 0.14762 0.201 0.6966 0.0
C1882 C 0.16339 0.21385 0.74429 0.0
C1883 C 0.15348 0.19052 0.68099 0.0
C1884 C 0.14258 0.25765 0.80882 0.0
C1885 C 0.14458 0.24427 0.79456 0.0
C1886 C 0.1272 0.22921 0.74776 0.0
C1887 C 0.1543 0.19666 0.71475 0.0
C1888 C 0.14947 0.209 0.73103 0.0
C1889 C 0.13721 0.24761 0.77648 0.0
C1890 C 0.14119 0.23412 0.76092 0.0
H1891 H 0.18214 0.15906 0.70353 0.0
H1892 H 0.17167 0.17723 0.73082 0.0
H1893 H 0.12018 0.21315 0.72312 0.0
H1894 H 0.11751 0.29079 0.7845 0.0
H1895 H 0.1212 0.26735 0.75942 0.0
C1896 C 0.70834 0.87788 0.77705 0.0
C1897 C 0.69141 0.86799 0.77398 0.0
C1898 C 0.72312 0.87671 0.76401 0.0
C1899 C 0.73505 0.86189 0.71502 0.0
H1900 H 0.78453 0.85276 0.73646 0.0
C1901 C 0.79771 0.83047 0.67255 0.0
C1902 C 0.81591 0.8372 0.67675 0.0
C1903 C 0.78213 0.83647 0.68313 0.0
C1904 C 0.77088 0.85559 0.73019 0.0
H1905 H 0.67655 0.84975 0.7543 0.0
H1906 H 0.70227 0.84763 0.73183 0.0
H1907 H 0.75815 0.85985 0.75719 0.0
H1908 H 0.83175 0.85625 0.69485 0.0
H1909 H 0.80469 0.86683 0.71289 0.0
H1910 H 0.74783 0.85723 0.68799 0.0
C1911 C 0.70411 0.85642 0.74419 0.0
C1912 C 0.75574 0.85969 0.7421 0.0
C1913 C 0.68936 0.85756 0.7572 0.0
C1914 C 0.81801 0.85061 0.69125 0.0
C1915 C 0.80248 0.85662 0.70173 0.0
C1916 C 0.75023 0.85777 0.70307 0.0
C1917 C 0.7213 0.86567 0.7476 0.0
C1918 C 0.7376 0.86274 0.7347 0.0
C1919 C 0.78441 0.84934 0.69809 0.0
C1920 C 0.7683 0.85445 0.71054 0.0
H1921 H 0.71041 0.88609 0.78978 0.0
H1922 H 0.7361 0.88423 0.76693 0.0
H1923 H 0.7213 0.86438 0.70884 0.0
H1924 H 0.79557 0.82011 0.66152 0.0
H1925 H 0.76841 0.83049 0.68005 0.0
C1926 C 0.6827 0.15236 0.19439 0.0
C1927 C 0.68473 0.16459 0.17886 0.0
C1928 C 0.69835 0.14664 0.20482 0.0
C1929 C 0.7504 0.14339 0.2046 0.0
H1930 H 0.74414 0.14486 0.25897 0.0
C1931 C 0.81278 0.14333 0.25692 0.0
C1932 C 0.81073 0.13396 0.27432 0.0
C1933 C 0.79775 0.1445 0.24427 0.0
C1934 C 0.74606 0.14403 0.24383 0.0
H1935 H 0.70505 0.17994 0.16187 0.0
H1936 H 0.73249 0.17007 0.18036 0.0
H1937 H 0.71753 0.15222 0.23863 0.0
H1938 H 0.79136 0.11775 0.29163 0.0
H1939 H 0.76509 0.11968 0.2694 0.0
H1940 H 0.7791 0.13549 0.20991 0.0
C1941 C 0.7187 0.16478 0.18426 0.0
C1942 C 0.7308 0.1483 0.23214 0.0
C1943 C 0.70297 0.1705 0.17371 0.0
C1944 C 0.79344 0.12512 0.2784 0.0
C1945 C 0.77835 0.12633 0.26572 0.0
C1946 C 0.76571 0.1391 0.21633 0.0
C1947 C 0.71649 0.15305 0.20014 0.0
C1948 C 0.73279 0.14812 0.21239 0.0
C1949 C 0.78023 0.13636 0.24867 0.0
C1950 C 0.76373 0.13949 0.23609 0.0
H1951 H 0.66895 0.1474 0.1988 0.0
H1952 H 0.69618 0.1373 0.21672 0.0
H1953 H 0.75233 0.1429 0.18945 0.0
H1954 H 0.82586 0.15032 0.25323 0.0
H1955 H 0.79965 0.1525 0.23139 0.0
C1956 C 0.29742 0.67199 0.32628 0.0
C1957 C 0.31551 0.66468 0.32264 0.0
C1958 C 0.28185 0.66588 0.31573 0.0
C1959 C 0.2709 0.64528 0.2693 0.0
H1960 H 0.22088 0.638 0.29017 0.0
C1961 C 0.20869 0.62235 0.22227 0.0
C1962 C 0.19182 0.63246 0.22485 0.0
C1963 C 0.22334 0.62381 0.23544 0.0
C1964 C 0.23475 0.64007 0.28412 0.0
H1965 H 0.33114 0.64451 0.30561 0.0
H1966 H 0.30411 0.63379 0.28762 0.0
H1967 H 0.2472 0.64546 0.31117 0.0
H1968 H 0.17692 0.65145 0.24377 0.0
H1969 H 0.20242 0.65411 0.26642 0.0
H1970 H 0.25852 0.64031 0.24226 0.0
C1971 C 0.30199 0.6445 0.29832 0.0
C1972 C 0.24982 0.64436 0.29615 0.0
C1973 C 0.31749 0.6506 0.30877 0.0
C1974 C 0.1897 0.64347 0.24125 0.0
C1975 C 0.20431 0.64491 0.25437 0.0
C1976 C 0.25588 0.64102 0.25729 0.0
C1977 C 0.28406 0.65235 0.30136 0.0
C1978 C 0.26805 0.64712 0.28885 0.0
C1979 C 0.22144 0.63538 0.25147 0.0
C1980 C 0.23759 0.6385 0.26452 0.0
H1981 H 0.29538 0.68287 0.33681 0.0
H1982 H 0.26823 0.6723 0.31834 0.0
H1983 H 0.28469 0.64765 0.26316 0.0
H1984 H 0.21081 0.61369 0.20985 0.0
H1985 H 0.23627 0.61606 0.23292 0.0
C1986 C 0.30998 0.35412 0.74049 0.0
C1987 C 0.30761 0.36572 0.72453 0.0
C1988 C 0.29559 0.35227 0.75383 0.0
C1989 C 0.2441 0.35625 0.75757 0.0
H1990 H 0.25309 0.35108 0.81133 0.0
C1991 C 0.18251 0.34843 0.80899 0.0
C1992 C 0.18396 0.3344 0.82296 0.0
C1993 C 0.19826 0.35396 0.79861 0.0
C1994 C 0.25039 0.35236 0.79634 0.0
H1995 H 0.28844 0.38511 0.71059 0.0
H1996 H 0.26341 0.38203 0.73399 0.0
H1997 H 0.27942 0.35828 0.79018 0.0
H1998 H 0.2034 0.31567 0.8374 0.0
H1999 H 0.231 0.3252 0.81895 0.0
H2000 H 0.21524 0.35007 0.76355 0.0
C2001 C 0.27634 0.37413 0.736 0.0
C2002 C 0.26545 0.35651 0.78423 0.0
C2003 C 0.29075 0.37599 0.72264 0.0
C2004 C 0.20178 0.32655 0.82678 0.0
C2005 C 0.21761 0.33204 0.81624 0.0
C2006 C 0.22911 0.35211 0.76963 0.0
C2007 C 0.27845 0.36197 0.75155 0.0
C2008 C 0.26247 0.35848 0.76469 0.0
C2009 C 0.21589 0.34552 0.80174 0.0
C2010 C 0.23204 0.35012 0.78916 0.0
H2011 H 0.32277 0.34599 0.74248 0.0
H2012 H 0.29763 0.34266 0.76553 0.0
H2013 H 0.24136 0.35723 0.74257 0.0
H2014 H 0.1691 0.35493 0.80568 0.0
H2015 H 0.19652 0.36468 0.78785 0.0
C2016 C 0.75761 0.68936 0.85516 0.0
C2017 C 0.77437 0.69276 0.86526 0.0
C2018 C 0.74407 0.70348 0.85308 0.0
C2019 C 0.72822 0.74984 0.87126 0.0
H2020 H 0.70796 0.75548 0.82072 0.0
C2021 C 0.69077 0.81741 0.84568 0.0
C2022 C 0.67549 0.81573 0.83309 0.0
C2023 C 0.70103 0.80156 0.85124 0.0
C2024 C 0.7132 0.75393 0.83499 0.0
H2025 H 0.78967 0.71362 0.88163 0.0
H2026 H 0.76604 0.73842 0.87778 0.0
H2027 H 0.72937 0.72958 0.82762 0.0
H2028 H 0.6587 0.79581 0.81697 0.0
H2029 H 0.67659 0.76807 0.82684 0.0
H2030 H 0.71223 0.77445 0.8785 0.0
C2031 C 0.76334 0.72469 0.87165 0.0
C2032 C 0.72551 0.73907 0.83896 0.0
C2033 C 0.77692 0.71049 0.8738 0.0
C2034 C 0.6704 0.79766 0.82664 0.0
C2035 C 0.68072 0.78177 0.83221 0.0
C2036 C 0.71587 0.76472 0.86729 0.0
C2037 C 0.74693 0.72144 0.86094 0.0
C2038 C 0.73328 0.73691 0.8571 0.0
C2039 C 0.69632 0.78358 0.84436 0.0
C2040 C 0.70834 0.76703 0.84906 0.0
H2041 H 0.75504 0.67587 0.84846 0.0
H2042 H 0.73143 0.70038 0.84506 0.0
H2043 H 0.73376 0.74842 0.88544 0.0
H2044 H 0.69516 0.83106 0.85095 0.0
H2045 H 0.71309 0.80351 0.86041 0.0
C2046 C 0.16994 0.70115 0.17107 0.0
C2047 C 0.17533 0.68308 0.1649 0.0
C2048 C 0.18019 0.71708 0.16552 0.0
C2049 C 0.21589 0.73432 0.13112 0.0
H2050 H 0.22821 0.76955 0.17109 0.0
C2051 C 0.27571 0.79031 0.1258 0.0
C2052 C 0.27242 0.80787 0.13445 0.0
C2053 C 0.26255 0.77565 0.12759 0.0
C2054 C 0.22469 0.76003 0.15966 0.0
H2055 H 0.19537 0.66777 0.14743 0.0
H2056 H 0.2132 0.69542 0.138 0.0
H2057 H 0.20709 0.74334 0.17757 0.0
H2058 H 0.25219 0.82398 0.15096 0.0
H2059 H 0.22935 0.79875 0.15367 0.0
H2060 H 0.23382 0.75096 0.1133 0.0
C2061 C 0.20098 0.69733 0.14697 0.0
C2062 C 0.21254 0.745 0.16339 0.0
C2063 C 0.19078 0.68143 0.15251 0.0
C2064 C 0.25535 0.81065 0.14421 0.0
C2065 C 0.24224 0.7961 0.1459 0.0
C2066 C 0.22808 0.7494 0.12737 0.0
C2067 C 0.19602 0.71531 0.15366 0.0
C2068 C 0.20805 0.73191 0.1492 0.0
C2069 C 0.24585 0.7783 0.13802 0.0
C2070 C 0.23265 0.7624 0.14163 0.0
H2071 H 0.1581 0.70297 0.18056 0.0
H2072 H 0.17586 0.73079 0.17072 0.0
H2073 H 0.21257 0.72456 0.11983 0.0
H2074 H 0.28872 0.78767 0.11822 0.0
H2075 H 0.2658 0.76205 0.12143 0.0
C2076 C 0.30801 0.31982 0.64886 0.0
C2077 C 0.32271 0.31743 0.66202 0.0
C2078 C 0.29743 0.30445 0.64267 0.0
C2079 C 0.29604 0.25228 0.64042 0.0
H2080 H 0.24187 0.26013 0.63954 0.0
C2081 C 0.24241 0.19137 0.64191 0.0
C2082 C 0.22542 0.1931 0.63174 0.0
C2083 C 0.25523 0.20626 0.64271 0.0
C2084 C 0.25697 0.25776 0.63935 0.0
H2085 H 0.33814 0.29674 0.67847 0.0
H2086 H 0.31942 0.26981 0.66778 0.0
H2087 H 0.26272 0.28644 0.64664 0.0
H2088 H 0.20898 0.21178 0.61391 0.0
H2089 H 0.23154 0.23786 0.61526 0.0
H2090 H 0.29018 0.22345 0.6335 0.0
C2091 C 0.31628 0.28366 0.66213 0.0
C2092 C 0.26895 0.27285 0.64346 0.0
C2093 C 0.32697 0.2991 0.66831 0.0
C2094 C 0.22189 0.20995 0.62188 0.0
C2095 C 0.23476 0.22493 0.62275 0.0
C2096 C 0.28404 0.23716 0.63629 0.0
C2097 C 0.30115 0.28624 0.64951 0.0
C2098 C 0.28862 0.27026 0.64423 0.0
C2099 C 0.25145 0.22333 0.63341 0.0
C2100 C 0.26434 0.23968 0.63594 0.0
H2101 H 0.30434 0.33368 0.64357 0.0
H2102 H 0.28613 0.30688 0.63267 0.0
H2103 H 0.31114 0.24989 0.64064 0.0
H2104 H 0.24567 0.17865 0.64971 0.0
H2105 H 0.26779 0.20461 0.65126 0.0
C2106 C 0.74506 0.31305 0.35221 0.0
C2107 C 0.72883 0.30893 0.3629 0.0
C2108 C 0.75927 0.29961 0.34991 0.0
C2109 C 0.77811 0.25473 0.36886 0.0
H2110 H 0.79638 0.24772 0.31774 0.0
C2111 C 0.81478 0.1867 0.34432 0.0
C2112 C 0.82939 0.18777 0.3309 0.0
C2113 C 0.80486 0.20281 0.3497 0.0
C2114 C 0.79174 0.24969 0.33216 0.0
H2115 H 0.71518 0.28752 0.38004 0.0
H2116 H 0.73998 0.26402 0.37591 0.0
H2117 H 0.77456 0.27333 0.32462 0.0
H2118 H 0.84534 0.20687 0.31306 0.0
H2119 H 0.82802 0.23512 0.32261 0.0
H2120 H 0.79506 0.23086 0.37632 0.0
C2121 C 0.74174 0.27775 0.36944 0.0
C2122 C 0.77918 0.26437 0.33611 0.0
C2123 C 0.72748 0.29121 0.37175 0.0
C2124 C 0.83417 0.20551 0.3234 0.0
C2125 C 0.82417 0.22168 0.32879 0.0
C2126 C 0.79071 0.24007 0.36492 0.0
C2127 C 0.75765 0.2817 0.35824 0.0
C2128 C 0.77201 0.26689 0.35444 0.0
C2129 C 0.80923 0.22046 0.34183 0.0
C2130 C 0.79743 0.23719 0.34645 0.0
H2131 H 0.74669 0.32656 0.34526 0.0
H2132 H 0.77148 0.30319 0.34144 0.0
H2133 H 0.77308 0.25648 0.38318 0.0
H2134 H 0.81063 0.17332 0.35041 0.0
H2135 H 0.79327 0.20127 0.35955 0.0
C2136 C 0.17233 0.1424 0.55859 0.0
C2137 C 0.18876 0.15026 0.56637 0.0
C2138 C 0.17039 0.14056 0.53907 0.0
C2139 C 0.19685 0.14537 0.49329 0.0
H2140 H 0.14659 0.15432 0.47355 0.0
C2141 C 0.17879 0.17514 0.41941 0.0
C2142 C 0.16569 0.16489 0.40862 0.0
C2143 C 0.18273 0.16988 0.43798 0.0
C2144 C 0.16064 0.15154 0.47889 0.0
H2145 H 0.2162 0.16203 0.55996 0.0
H2146 H 0.21248 0.15989 0.52588 0.0
H2147 H 0.15127 0.15199 0.50745 0.0
H2148 H 0.14658 0.14102 0.40861 0.0
H2149 H 0.15296 0.13226 0.44157 0.0
H2150 H 0.20619 0.14641 0.46448 0.0
C2151 C 0.2013 0.15444 0.53472 0.0
C2152 C 0.16339 0.15008 0.49836 0.0
C2153 C 0.20343 0.1558 0.5543 0.0
C2154 C 0.15681 0.14908 0.41662 0.0
C2155 C 0.1604 0.14411 0.43541 0.0
C2156 C 0.19413 0.14728 0.47383 0.0
C2157 C 0.1846 0.14705 0.52678 0.0
C2158 C 0.18157 0.14717 0.5059 0.0
C2159 C 0.17332 0.15456 0.44624 0.0
C2160 C 0.17603 0.15054 0.46652 0.0
H2161 H 0.16089 0.13779 0.56763 0.0
H2162 H 0.15757 0.13427 0.53365 0.0
H2163 H 0.21099 0.1427 0.49841 0.0
H2164 H 0.18588 0.18736 0.41355 0.0
H2165 H 0.19261 0.17823 0.44613 0.0
C2166 C 0.32184 0.85789 0.05873 0.0
C2167 C 0.30649 0.84836 0.06682 0.0
C2168 C 0.32375 0.85895 0.03915 0.0
C2169 C 0.29904 0.84795 0.99347 0.0
H2170 H 0.35048 0.84447 0.97507 0.0
C2171 C 0.32214 0.81825 0.92078 0.0
C2172 C 0.33411 0.82982 0.90998 0.0
C2173 C 0.3173 0.82333 0.93919 0.0
C2174 C 0.33606 0.84567 0.98002 0.0
H2175 H 0.28086 0.83286 0.06096 0.0
H2176 H 0.28464 0.8337 0.0268 0.0
H2177 H 0.34476 0.84802 0.00869 0.0
H2178 H 0.3503 0.85577 0.90987 0.0
H2179 H 0.34235 0.86427 0.9425 0.0
H2180 H 0.29057 0.84419 0.9646 0.0
C2181 C 0.29491 0.84102 0.0354 0.0
C2182 C 0.33271 0.84784 0.99931 0.0
C2183 C 0.29274 0.84043 0.05502 0.0
C2184 C 0.34098 0.84666 0.91787 0.0
C2185 C 0.33649 0.85149 0.93648 0.0
C2186 C 0.30243 0.84532 0.97419 0.0
C2187 C 0.31067 0.84997 0.02717 0.0
C2188 C 0.31413 0.84889 0.00639 0.0
C2189 C 0.32467 0.83982 0.94729 0.0
C2190 C 0.32096 0.84407 0.96736 0.0
H2191 H 0.33254 0.86431 0.06757 0.0
H2192 H 0.33574 0.86652 0.03347 0.0
H2193 H 0.28457 0.84908 0.9982 0.0
H2194 H 0.31659 0.80523 0.91501 0.0
H2195 H 0.30829 0.81404 0.94734 0.0
C2196 C 0.69961 0.35422 0.44309 0.0
C2197 C 0.68908 0.3411 0.43256 0.0
C2198 C 0.69878 0.35412 0.46287 0.0
C2199 C 0.69051 0.32282 0.50247 0.0
H2200 H 0.67169 0.36582 0.53062 0.0
C2201 C 0.66044 0.31341 0.57632 0.0
C2202 C 0.66373 0.32718 0.5902 0.0
C2203 C 0.66553 0.31661 0.55762 0.0
C2204 C 0.67732 0.3538 0.52305 0.0
H2205 H 0.66966 0.31748 0.43442 0.0
H2206 H 0.66867 0.31703 0.46875 0.0
H2207 H 0.67784 0.36884 0.4967 0.0
H2208 H 0.67462 0.35531 0.59523 0.0
H2209 H 0.68389 0.36083 0.56235 0.0
H2210 H 0.69007 0.30768 0.5285 0.0
C2211 C 0.67738 0.32748 0.46177 0.0
C2212 C 0.68081 0.35555 0.50365 0.0
C2213 C 0.67789 0.32782 0.44212 0.0
C2214 C 0.67192 0.34443 0.58484 0.0
C2215 C 0.67718 0.3476 0.56602 0.0
C2216 C 0.68728 0.32113 0.5218 0.0
C2217 C 0.68777 0.34061 0.47232 0.0
C2218 C 0.68689 0.33989 0.49315 0.0
C2219 C 0.67425 0.33359 0.55223 0.0
C2220 C 0.68003 0.33639 0.53223 0.0
H2221 H 0.70827 0.36467 0.43606 0.0
H2222 H 0.7069 0.36437 0.47077 0.0
H2223 H 0.69543 0.31062 0.49469 0.0
H2224 H 0.65391 0.30005 0.57988 0.0
H2225 H 0.66251 0.30571 0.54733 0.0
C2226 C 0.82909 0.68251 0.07832 0.0
C2227 C 0.83544 0.66857 0.09092 0.0
C2228 C 0.82443 0.6779 0.05978 0.0
C2229 C 0.83476 0.6439 0.02257 0.0
H2230 H 0.79218 0.66791 0.99792 0.0
C2231 C 0.83098 0.65579 0.94248 0.0
C2232 C 0.81352 0.65407 0.93322 0.0
C2233 C 0.83216 0.6541 0.96206 0.0
C2234 C 0.80395 0.66084 0.00462 0.0
H2235 H 0.84174 0.63878 0.09394 0.0
H2236 H 0.8337 0.63072 0.06126 0.0
H2237 H 0.79633 0.6713 0.03192 0.0
H2238 H 0.78367 0.64865 0.93725 0.0
H2239 H 0.78575 0.64582 0.97161 0.0
H2240 H 0.8426 0.63379 0.99518 0.0
C2241 C 0.83234 0.64523 0.06587 0.0
C2242 C 0.80644 0.66294 0.02407 0.0
C2243 C 0.83687 0.64983 0.08457 0.0
C2244 C 0.79731 0.65014 0.94396 0.0
C2245 C 0.79849 0.64857 0.96363 0.0
C2246 C 0.83233 0.64188 0.00309 0.0
C2247 C 0.82609 0.65926 0.05328 0.0
C2248 C 0.82211 0.65488 0.03318 0.0
C2249 C 0.81592 0.65072 0.9729 0.0
C2250 C 0.81714 0.6507 0.99383 0.0
H2251 H 0.82778 0.69708 0.08273 0.0
H2252 H 0.81995 0.68909 0.05037 0.0
H2253 H 0.84701 0.63759 0.02917 0.0
H2254 H 0.84377 0.65873 0.93464 0.0
H2255 H 0.84576 0.65608 0.96876 0.0
C2256 C 0.41431 0.17263 0.14806 0.0
C2257 C 0.4096 0.16157 0.16385 0.0
C2258 C 0.43327 0.17577 0.14338 0.0
C2259 C 0.48007 0.1554 0.14765 0.0
H2260 H 0.50019 0.20625 0.14975 0.0
C2261 C 0.55785 0.16855 0.16263 0.0
C2262 C 0.56732 0.18377 0.15416 0.0
C2263 C 0.53846 0.1663 0.16041 0.0
C2264 C 0.49479 0.192 0.14868 0.0
H2265 H 0.42093 0.1447 0.18675 0.0
H2266 H 0.45385 0.14971 0.17822 0.0
H2267 H 0.46603 0.20123 0.15134 0.0
H2268 H 0.56379 0.20858 0.13661 0.0
H2269 H 0.52969 0.20447 0.13247 0.0
H2270 H 0.50856 0.14599 0.14511 0.0
C2271 C 0.44295 0.15613 0.16964 0.0
C2272 C 0.47525 0.18916 0.14963 0.0
C2273 C 0.42412 0.15335 0.17456 0.0
C2274 C 0.55688 0.19673 0.14336 0.0
C2275 C 0.53736 0.1944 0.14104 0.0
C2276 C 0.4995 0.15822 0.14644 0.0
C2277 C 0.44771 0.16747 0.15412 0.0
C2278 C 0.46782 0.17079 0.14975 0.0
C2279 C 0.52794 0.17909 0.1495 0.0
C2280 C 0.50717 0.1765 0.14767 0.0
H2281 H 0.40338 0.17918 0.13963 0.0
H2282 H 0.43667 0.18458 0.13136 0.0
H2283 H 0.47461 0.14111 0.1475 0.0
H2284 H 0.56537 0.15837 0.1712 0.0
H2285 H 0.53168 0.15463 0.16759 0.0
C2286 C 0.94501 0.79856 0.66089 0.0
C2287 C 0.93304 0.81306 0.65472 0.0
C2288 C 0.96462 0.80077 0.66003 0.0
C2289 C 0.001 0.83877 0.65554 0.0
H2290 H 0.03514 0.79609 0.65341 0.0
C2291 C 0.08281 0.84523 0.65315 0.0
C2292 C 0.09106 0.83736 0.66937 0.0
C2293 C 0.06391 0.84147 0.64877 0.0
C2294 C 0.02571 0.80811 0.65388 0.0
H2295 H 0.932 0.84069 0.64172 0.0
H2296 H 0.96603 0.8441 0.63903 0.0
H2297 H 0.00128 0.79097 0.64958 0.0
H2298 H 0.08639 0.8188 0.69325 0.0
H2299 H 0.05358 0.81171 0.68516 0.0
H2300 H 0.02569 0.85585 0.65939 0.0
C2301 C 0.96052 0.83139 0.64545 0.0
C2302 C 0.00628 0.80521 0.65189 0.0
C2303 C 0.94096 0.82938 0.64679 0.0
C2304 C 0.08034 0.82511 0.6807 0.0
C2305 C 0.06165 0.82098 0.67605 0.0
C2306 C 0.02043 0.84168 0.65706 0.0
C2307 C 0.97269 0.81736 0.65254 0.0
C2308 C 0.99357 0.82048 0.65305 0.0
C2309 C 0.0532 0.82935 0.66024 0.0
C2310 C 0.0329 0.82635 0.65656 0.0
H2311 H 0.93923 0.78589 0.66719 0.0
H2312 H 0.97336 0.78973 0.66593 0.0
H2313 H 0.99183 0.8509 0.65699 0.0
H2314 H 0.09075 0.85479 0.64425 0.0
H2315 H 0.0576 0.84811 0.63653 0.0
C2316 C 0.05512 0.30253 0.8548 0.0
C2317 C 0.0658 0.3157 0.8445 0.0
C2318 C 0.03557 0.30487 0.85681 0.0
C2319 C 0.99788 0.34128 0.85145 0.0
H2320 H 0.96435 0.29835 0.84617 0.0
C2321 C 0.92205 0.34676 0.82434 0.0
C2322 C 0.9077 0.338 0.83485 0.0
C2323 C 0.94095 0.34399 0.82899 0.0
C2324 C 0.97358 0.31041 0.84797 0.0
H2325 H 0.06426 0.34143 0.82794 0.0
H2326 H 0.03049 0.34517 0.83095 0.0
H2327 H 0.99849 0.29328 0.84766 0.0
H2328 H 0.90187 0.31948 0.85848 0.0
H2329 H 0.93527 0.31415 0.86629 0.0
H2330 H 0.97301 0.35842 0.85064 0.0
C2331 C 0.0371 0.33335 0.83802 0.0
C2332 C 0.99312 0.30753 0.84886 0.0
C2333 C 0.05653 0.33111 0.83615 0.0
C2334 C 0.91266 0.32645 0.8502 0.0
C2335 C 0.93169 0.32334 0.85462 0.0
C2336 C 0.97845 0.34414 0.85029 0.0
C2337 C 0.02634 0.32037 0.84848 0.0
C2338 C 0.00554 0.323 0.85007 0.0
C2339 C 0.94597 0.33214 0.84404 0.0
C2340 C 0.96616 0.32878 0.84809 0.0
H2341 H 0.06188 0.29054 0.86146 0.0
H2342 H 0.02774 0.29466 0.86505 0.0
H2343 H 0.00695 0.35348 0.85293 0.0
H2344 H 0.91867 0.35578 0.81246 0.0
H2345 H 0.95172 0.35081 0.82054 0.0
C2346 C 0.44296 0.69962 0.35678 0.0
C2347 C 0.43275 0.68718 0.34515 0.0
C2348 C 0.46274 0.69887 0.35729 0.0
C2349 C 0.50252 0.68791 0.32792 0.0
H2350 H 0.53106 0.67262 0.37205 0.0
C2351 C 0.57623 0.65769 0.32001 0.0
C2352 C 0.59039 0.66254 0.33301 0.0
C2353 C 0.55752 0.66264 0.32326 0.0
C2354 C 0.52336 0.67726 0.3597 0.0
H2355 H 0.43525 0.66428 0.32494 0.0
H2356 H 0.46956 0.66339 0.3255 0.0
H2357 H 0.49704 0.67865 0.37478 0.0
H2358 H 0.5959 0.67593 0.35995 0.0
H2359 H 0.56292 0.68491 0.36557 0.0
H2360 H 0.52846 0.68654 0.31271 0.0
C2361 C 0.46229 0.67353 0.33435 0.0
C2362 C 0.50393 0.68069 0.36128 0.0
C2363 C 0.44265 0.67402 0.33411 0.0
C2364 C 0.58529 0.67201 0.34968 0.0
C2365 C 0.56642 0.67713 0.35289 0.0
C2366 C 0.52186 0.68475 0.32638 0.0
C2367 C 0.4725 0.68596 0.34587 0.0
C2368 C 0.49332 0.68546 0.34525 0.0
C2369 C 0.55239 0.67278 0.33951 0.0
C2370 C 0.53241 0.67871 0.34208 0.0
H2371 H 0.43567 0.70985 0.36549 0.0
H2372 H 0.4704 0.70859 0.36626 0.0
H2373 H 0.49461 0.69178 0.31542 0.0
H2374 H 0.5796 0.65012 0.30716 0.0
H2375 H 0.54703 0.6585 0.31294 0.0
C2376 C 0.18179 0.42223 0.17005 0.0
C2377 C 0.16828 0.40923 0.16358 0.0
C2378 C 0.17653 0.44051 0.17505 0.0
C2379 C 0.14126 0.47658 0.16529 0.0
H2380 H 0.16501 0.50168 0.20776 0.0
C2381 C 0.15233 0.5567 0.16875 0.0
C2382 C 0.15089 0.56603 0.1862 0.0
C2383 C 0.15057 0.53712 0.16767 0.0
C2384 C 0.15799 0.49484 0.19603 0.0
H2385 H 0.13857 0.40518 0.15746 0.0
H2386 H 0.12937 0.43741 0.16607 0.0
H2387 H 0.16912 0.46778 0.20352 0.0
H2388 H 0.14579 0.56214 0.21613 0.0
H2389 H 0.14283 0.52779 0.21423 0.0
H2390 H 0.13051 0.50375 0.15755 0.0
C2391 C 0.14404 0.43332 0.16728 0.0
C2392 C 0.1605 0.47546 0.1935 0.0
C2393 C 0.1493 0.41488 0.16241 0.0
C2394 C 0.14708 0.55537 0.20249 0.0
C2395 C 0.14543 0.5357 0.20141 0.0
C2396 C 0.13881 0.496 0.16778 0.0
C2397 C 0.15764 0.44632 0.17361 0.0
C2398 C 0.1526 0.46621 0.17782 0.0
C2399 C 0.14739 0.52636 0.18401 0.0
C2400 C 0.14757 0.50543 0.1829 0.0
H2401 H 0.19653 0.41835 0.17118 0.0
H2402 H 0.18739 0.45026 0.17958 0.0
H2403 H 0.13505 0.46987 0.15304 0.0
H2404 H 0.15517 0.56447 0.1559 0.0
H2405 H 0.15242 0.53036 0.15408 0.0
C2406 C 0.64055 0.94435 0.80197 0.0
C2407 C 0.65034 0.93352 0.8154 0.0
C2408 C 0.63847 0.9639 0.80443 0.0
C2409 C 0.6427 0.00131 0.84134 0.0
H2410 H 0.65024 0.03508 0.79895 0.0
C2411 C 0.67133 0.07646 0.84836 0.0
C2412 C 0.66145 0.09113 0.83942 0.0
C2413 C 0.66629 0.05769 0.84531 0.0
C2414 C 0.6478 0.02579 0.81084 0.0
H2415 H 0.66583 0.9348 0.84181 0.0
H2416 H 0.6627 0.96851 0.84579 0.0
H2417 H 0.64839 0.001 0.79353 0.0
H2418 H 0.63854 0.0977 0.82026 0.0
H2419 H 0.63006 0.06453 0.81441 0.0
H2420 H 0.64329 0.02603 0.85872 0.0
C2421 C 0.65609 0.96203 0.83363 0.0
C2422 C 0.6467 0.00628 0.80777 0.0
C2423 C 0.65804 0.94262 0.83125 0.0
C2424 C 0.64632 0.08665 0.8274 0.0
C2425 C 0.64153 0.06775 0.82399 0.0
C2426 C 0.64408 0.0207 0.84441 0.0
C2427 C 0.64621 0.97296 0.82035 0.0
C2428 C 0.64469 0.99376 0.82307 0.0
C2429 C 0.65149 0.05314 0.83297 0.0
C2430 C 0.6471 0.03307 0.82926 0.0
H2431 H 0.63441 0.93774 0.78963 0.0
H2432 H 0.63069 0.97186 0.79397 0.0
H2433 H 0.64061 0.99216 0.8534 0.0
H2434 H 0.68303 0.07947 0.85775 0.0
H2435 H 0.67428 0.04667 0.85228 0.0
C2436 C 0.85203 0.05683 0.30016 0.0
C2437 C 0.85088 0.06904 0.31576 0.0
C2438 C 0.85182 0.03722 0.30278 0.0
C2439 C 0.83467 0.00235 0.3371 0.0
H2440 H 0.8633 0.96626 0.30757 0.0
C2441 C 0.81474 0.92422 0.33568 0.0
C2442 C 0.82927 0.91083 0.33751 0.0
C2443 C 0.81889 0.94319 0.33262 0.0
C2444 C 0.85533 0.97619 0.31601 0.0
H2445 H 0.84987 0.07025 0.34636 0.0
H2446 H 0.84975 0.03628 0.35085 0.0
H2447 H 0.86875 0.00016 0.30322 0.0
H2448 H 0.85962 0.9069 0.33717 0.0
H2449 H 0.8669 0.9403 0.33183 0.0
H2450 H 0.82127 0.9786 0.34994 0.0
C2451 C 0.85034 0.04177 0.3366 0.0
C2452 C 0.85832 0.99558 0.3134 0.0
C2453 C 0.85048 0.06127 0.334 0.0
C2454 C 0.8481 0.91686 0.33584 0.0
C2455 C 0.85227 0.93595 0.3327 0.0
C2456 C 0.83164 0.98308 0.33964 0.0
C2457 C 0.8505 0.0295 0.32103 0.0
C2458 C 0.84797 0.00887 0.32391 0.0
C2459 C 0.83769 0.94934 0.33131 0.0
C2460 C 0.84179 0.96977 0.32903 0.0
H2461 H 0.8524 0.06239 0.28593 0.0
H2462 H 0.85188 0.02815 0.29048 0.0
H2463 H 0.82626 0.01217 0.34525 0.0
H2464 H 0.80006 0.92011 0.33677 0.0
H2465 H 0.80733 0.95309 0.33128 0.0
C2466 C 0.35876 0.44399 0.69826 0.0
C2467 C 0.34579 0.43407 0.68697 0.0
C2468 C 0.3594 0.46378 0.69769 0.0
C2469 C 0.32963 0.50422 0.68938 0.0
H2470 H 0.373 0.5318 0.67054 0.0
C2471 C 0.32079 0.57741 0.65829 0.0
C2472 C 0.33418 0.59151 0.66211 0.0
C2473 C 0.32413 0.55876 0.66341 0.0
C2474 C 0.3609 0.52437 0.67618 0.0
H2475 H 0.32327 0.43703 0.66642 0.0
H2476 H 0.32409 0.47134 0.66588 0.0
H2477 H 0.37556 0.49779 0.67669 0.0
H2478 H 0.36192 0.59696 0.6738 0.0
H2479 H 0.36773 0.56406 0.68302 0.0
H2480 H 0.31482 0.53042 0.6888 0.0
C2481 C 0.33387 0.46387 0.67496 0.0
C2482 C 0.36238 0.50494 0.67968 0.0
C2483 C 0.33347 0.44424 0.67524 0.0
C2484 C 0.35133 0.58639 0.67069 0.0
C2485 C 0.35465 0.56758 0.67595 0.0
C2486 C 0.32821 0.52355 0.68612 0.0
C2487 C 0.34678 0.47382 0.68617 0.0
C2488 C 0.34655 0.49466 0.68572 0.0
C2489 C 0.34089 0.55363 0.67267 0.0
C2490 C 0.34359 0.53374 0.67879 0.0
H2491 H 0.36848 0.43649 0.70737 0.0
H2492 H 0.36947 0.47124 0.70645 0.0
H2493 H 0.3173 0.49658 0.69423 0.0
H2494 H 0.30755 0.58078 0.65142 0.0
H2495 H 0.31347 0.54831 0.66011 0.0
C2496 C 0.79886 0.85862 0.44493 0.0
C2497 C 0.81228 0.84881 0.43409 0.0
C2498 C 0.80126 0.86051 0.46451 0.0
C2499 C 0.83805 0.85567 0.50198 0.0
H2500 H 0.79553 0.84852 0.53567 0.0
C2501 C 0.84438 0.82651 0.57702 0.0
C2502 C 0.8362 0.83701 0.59172 0.0
C2503 C 0.84122 0.83146 0.55825 0.0
C2504 C 0.80746 0.85083 0.52639 0.0
H2505 H 0.83852 0.83304 0.43538 0.0
H2506 H 0.84235 0.83585 0.46911 0.0
H2507 H 0.79017 0.85059 0.50159 0.0
H2508 H 0.81823 0.86086 0.59831 0.0
H2509 H 0.81217 0.86917 0.56514 0.0
H2510 H 0.85539 0.8547 0.52672 0.0
C2511 C 0.83029 0.84263 0.46264 0.0
C2512 C 0.80442 0.85207 0.50689 0.0
C2513 C 0.82799 0.84088 0.44321 0.0
C2514 C 0.82477 0.8526 0.58724 0.0
C2515 C 0.82124 0.85729 0.56835 0.0
C2516 C 0.84108 0.85413 0.52136 0.0
C2517 C 0.81706 0.85257 0.47358 0.0
C2518 C 0.81976 0.85395 0.4944 0.0
C2519 C 0.82952 0.84678 0.55373 0.0
C2520 C 0.82588 0.85126 0.53368 0.0
H2521 H 0.78663 0.86493 0.43831 0.0
H2522 H 0.79083 0.86833 0.47248 0.0
H2523 H 0.85015 0.85767 0.49286 0.0
H2524 H 0.8533 0.81446 0.58003 0.0
H2525 H 0.84765 0.82307 0.5472 0.0
C2526 C 0.69897 0.14182 0.94602 0.0
C2527 C 0.6853 0.15187 0.93572 0.0
C2528 C 0.69692 0.13925 0.96555 0.0
C2529 C 0.66075 0.14205 0.00366 0.0
H2530 H 0.70346 0.15013 0.03689 0.0
C2531 C 0.65417 0.17037 0.07877 0.0
C2532 C 0.66361 0.16086 0.09337 0.0
C2533 C 0.65704 0.16523 0.06001 0.0
C2534 C 0.69149 0.1475 0.02775 0.0
H2535 H 0.65889 0.16725 0.93794 0.0
H2536 H 0.6556 0.16319 0.97163 0.0
H2537 H 0.7084 0.14879 0.00271 0.0
H2538 H 0.68343 0.13849 0.09984 0.0
H2539 H 0.68894 0.12985 0.06664 0.0
H2540 H 0.64373 0.14193 0.02863 0.0
C2541 C 0.66765 0.15682 0.96473 0.0
C2542 C 0.6943 0.14671 0.00819 0.0
C2543 C 0.66964 0.1593 0.94534 0.0
C2544 C 0.67592 0.14597 0.08884 0.0
C2545 C 0.67913 0.1411 0.06993 0.0
C2546 C 0.65794 0.14308 0.02311 0.0
C2547 C 0.68117 0.14668 0.97511 0.0
C2548 C 0.67884 0.14459 0.99589 0.0
C2549 C 0.66967 0.1507 0.05539 0.0
C2550 C 0.6732 0.14634 0.03528 0.0
H2551 H 0.71117 0.13586 0.939 0.0
H2552 H 0.70756 0.1313 0.97311 0.0
H2553 H 0.64859 0.13987 0.99465 0.0
H2554 H 0.64456 0.18186 0.08183 0.0
H2555 H 0.64971 0.17296 0.04904 0.0
C2556 C 0.32666 0.652 0.41342 0.0
C2557 C 0.33451 0.66938 0.40795 0.0
C2558 C 0.32147 0.64885 0.43227 0.0
C2559 C 0.31096 0.67541 0.47635 0.0
H2560 H 0.32173 0.62818 0.50182 0.0
C2561 C 0.32276 0.66943 0.55572 0.0
C2562 C 0.3112 0.65683 0.56575 0.0
C2563 C 0.32288 0.66938 0.53607 0.0
C2564 C 0.31839 0.64132 0.49475 0.0
H2565 H 0.34378 0.69676 0.4181 0.0
H2566 H 0.33531 0.69114 0.45067 0.0
H2567 H 0.32745 0.63099 0.46779 0.0
H2568 H 0.29095 0.63404 0.5631 0.0
H2569 H 0.29165 0.63363 0.52834 0.0
H2570 H 0.30296 0.68603 0.50348 0.0
C2571 C 0.3325 0.68012 0.44046 0.0
C2572 C 0.32162 0.64295 0.4753 0.0
C2573 C 0.33751 0.6833 0.42174 0.0
C2574 C 0.29992 0.64396 0.55569 0.0
C2575 C 0.30036 0.64366 0.5359 0.0
C2576 C 0.308 0.67385 0.49573 0.0
C2577 C 0.32413 0.663 0.44596 0.0
C2578 C 0.31846 0.66021 0.46599 0.0
C2579 C 0.31173 0.65652 0.52599 0.0
C2580 C 0.31211 0.65696 0.50516 0.0
H2581 H 0.32419 0.641 0.4031 0.0
H2582 H 0.31505 0.6355 0.43603 0.0
H2583 H 0.30783 0.68874 0.46956 0.0
H2584 H 0.33156 0.67956 0.56305 0.0
H2585 H 0.33183 0.67935 0.52869 0.0
C2586 C 0.17619 0.33387 0.05662 0.0
C2587 C 0.18888 0.34588 0.066 0.0
C2588 C 0.17523 0.33369 0.03699 0.0
C2589 C 0.18111 0.3609 0.99472 0.0
H2590 H 0.18572 0.31205 0.9705 0.0
C2591 C 0.17232 0.34927 0.91345 0.0
C2592 C 0.16272 0.33271 0.90823 0.0
C2593 C 0.17732 0.3524 0.93236 0.0
C2594 C 0.18423 0.3258 0.97702 0.0
H2595 H 0.21023 0.36746 0.06215 0.0
H2596 H 0.20814 0.36744 0.02747 0.0
H2597 H 0.19131 0.31488 0.00427 0.0
H2598 H 0.14994 0.30697 0.91886 0.0
H2599 H 0.1581 0.31263 0.95153 0.0
H2600 H 0.17313 0.37167 0.96757 0.0
C2601 C 0.19915 0.35806 0.03551 0.0
C2602 C 0.18758 0.3274 0.99632 0.0
C2603 C 0.20039 0.358 0.05528 0.0
C2604 C 0.15761 0.31974 0.92232 0.0
C2605 C 0.16243 0.32292 0.9411 0.0
C2606 C 0.17751 0.35926 0.97533 0.0
C2607 C 0.18671 0.34572 0.02625 0.0
C2608 C 0.18563 0.34485 0.00543 0.0
C2609 C 0.1727 0.33906 0.94634 0.0
C2610 C 0.17853 0.34156 0.96637 0.0
H2611 H 0.16716 0.32432 0.06444 0.0
H2612 H 0.16542 0.32415 0.03016 0.0
H2613 H 0.17948 0.37451 0.00151 0.0
H2614 H 0.17643 0.35952 0.90288 0.0
H2615 H 0.18522 0.36498 0.93592 0.0
C2616 C 0.58272 0.84187 0.85045 0.0
C2617 C 0.5907 0.83528 0.83355 0.0
C2618 C 0.56403 0.8374 0.85506 0.0
C2619 C 0.52641 0.80347 0.84832 0.0
H2620 H 0.4916 0.84557 0.85031 0.0
C2621 C 0.44577 0.79294 0.84233 0.0
C2622 C 0.43367 0.80656 0.85004 0.0
C2623 C 0.46535 0.7954 0.8431 0.0
C2624 C 0.50105 0.83358 0.85033 0.0
H2625 H 0.58575 0.81826 0.80859 0.0
H2626 H 0.55334 0.80993 0.81702 0.0
H2627 H 0.52525 0.8515 0.84733 0.0
H2628 H 0.43241 0.83277 0.8657 0.0
H2629 H 0.46643 0.83649 0.8682 0.0
H2630 H 0.50247 0.78546 0.85172 0.0
C2631 C 0.56145 0.81874 0.82653 0.0
C2632 C 0.52037 0.83706 0.84849 0.0
C2633 C 0.57992 0.8236 0.82168 0.0
C2634 C 0.44147 0.82214 0.85945 0.0
C2635 C 0.46101 0.82436 0.86068 0.0
C2636 C 0.50712 0.79996 0.85062 0.0
C2637 C 0.55326 0.82583 0.84309 0.0
C2638 C 0.53315 0.82204 0.84713 0.0
C2639 C 0.47328 0.81134 0.85201 0.0
C2640 C 0.49407 0.81497 0.85129 0.0
H2641 H 0.59071 0.85097 0.85979 0.0
H2642 H 0.55794 0.84304 0.86789 0.0
H2643 H 0.53609 0.79167 0.84737 0.0
H2644 H 0.44009 0.78087 0.83485 0.0
H2645 H 0.47416 0.78516 0.83598 0.0
C2646 C 0.92791 0.16662 0.31478 0.0
C2647 C 0.91385 0.16842 0.32863 0.0
C2648 C 0.94636 0.17236 0.31843 0.0
C2649 C 0.98017 0.18265 0.35664 0.0
H2650 H 0.00842 0.20434 0.31507 0.0
C2651 C 0.0603 0.20433 0.35883 0.0
C2652 C 0.07056 0.1942 0.34519 0.0
C2653 C 0.0405 0.20415 0.35855 0.0
C2654 C 0.00064 0.19847 0.32685 0.0
H2655 H 0.90821 0.17742 0.35733 0.0
H2656 H 0.9406 0.18773 0.36366 0.0
H2657 H 0.97471 0.19861 0.31153 0.0
H2658 H 0.06824 0.1764 0.32038 0.0
H2659 H 0.03393 0.17658 0.31964 0.0
H2660 H 0.00644 0.18243 0.3718 0.0
C2661 C 0.93729 0.18172 0.35 0.0
C2662 C 0.98138 0.19503 0.3248 0.0
C2663 C 0.91874 0.17586 0.34637 0.0
C2664 C 0.06074 0.18426 0.33114 0.0
C2665 C 0.04111 0.18443 0.33063 0.0
C2666 C 0.99949 0.18633 0.35876 0.0
C2667 C 0.95127 0.1802 0.33597 0.0
C2668 C 0.97104 0.18642 0.3394 0.0
C2669 C 0.0308 0.19427 0.34435 0.0
C2670 C 0.00996 0.19369 0.34364 0.0
H2671 H 0.92472 0.16075 0.30103 0.0
H2672 H 0.95683 0.17046 0.30746 0.0
H2673 H 0.97265 0.17597 0.36814 0.0
H2674 H 0.06756 0.21204 0.36985 0.0
H2675 H 0.03277 0.21182 0.36928 0.0
C2676 C 0.07568 0.65446 0.17569 0.0
C2677 C 0.09035 0.66231 0.16492 0.0
C2678 C 0.0569 0.65761 0.17078 0.0
C2679 C 0.02509 0.691 0.15063 0.0
H2680 H 0.9914 0.64824 0.14515 0.0
C2681 C 0.94367 0.69956 0.14266 0.0
C2682 C 0.9328 0.68649 0.15289 0.0
C2683 C 0.96324 0.69708 0.14085 0.0
C2684 C 0.00056 0.66037 0.14677 0.0
H2685 H 0.0969 0.67971 0.14064 0.0
H2686 H 0.06372 0.68577 0.13238 0.0
H2687 H 0.02524 0.64298 0.14815 0.0
H2688 H 0.93404 0.66081 0.16956 0.0
H2689 H 0.96777 0.65683 0.16689 0.0
H2690 H 0.00035 0.70838 0.15044 0.0
C2691 C 0.06695 0.67695 0.14445 0.0
C2692 C 0.01994 0.65732 0.14833 0.0
C2693 C 0.08585 0.67343 0.14912 0.0
C2694 C 0.94189 0.67105 0.16137 0.0
C2695 C 0.96131 0.66867 0.15971 0.0
C2696 C 0.0056 0.69407 0.14937 0.0
C2697 C 0.05236 0.66897 0.15522 0.0
C2698 C 0.03231 0.67256 0.15072 0.0
C2699 C 0.97227 0.68153 0.14932 0.0
C2700 C 0.99306 0.67872 0.14798 0.0
H2701 H 0.0787 0.64577 0.18791 0.0
H2702 H 0.04586 0.65142 0.17937 0.0
H2703 H 0.03442 0.70296 0.15257 0.0
H2704 H 0.93706 0.71158 0.13592 0.0
H2705 H 0.97123 0.70721 0.13268 0.0
C2706 C 0.42249 0.34599 0.67158 0.0
C2707 C 0.40773 0.33755 0.6614 0.0
C2708 C 0.44122 0.34279 0.66652 0.0
C2709 C 0.47283 0.30851 0.64793 0.0
H2710 H 0.50661 0.35086 0.64022 0.0
C2711 C 0.55424 0.29923 0.6414 0.0
C2712 C 0.56503 0.31279 0.65106 0.0
C2713 C 0.53473 0.30174 0.63909 0.0
C2714 C 0.49743 0.33885 0.64246 0.0
H2715 H 0.40095 0.31911 0.63795 0.0
H2716 H 0.43407 0.31296 0.62946 0.0
H2717 H 0.47276 0.35632 0.64281 0.0
H2718 H 0.56374 0.33948 0.66606 0.0
H2719 H 0.53009 0.34354 0.66254 0.0
H2720 H 0.49754 0.29113 0.64884 0.0
C2721 C 0.43094 0.32228 0.64117 0.0
C2722 C 0.47804 0.34201 0.64377 0.0
C2723 C 0.41208 0.32586 0.64597 0.0
C2724 C 0.55594 0.32882 0.65837 0.0
C2725 C 0.53657 0.33124 0.6562 0.0
C2726 C 0.49232 0.30535 0.64692 0.0
C2727 C 0.44563 0.33078 0.65141 0.0
C2728 C 0.46564 0.32694 0.64698 0.0
C2729 C 0.52567 0.31783 0.64646 0.0
C2730 C 0.5049 0.32059 0.64475 0.0
H2731 H 0.41957 0.3551 0.6835 0.0
H2732 H 0.45233 0.34938 0.6747 0.0
H2733 H 0.46349 0.29669 0.65053 0.0
H2734 H 0.56085 0.28676 0.63554 0.0
H2735 H 0.5268 0.29118 0.63142 0.0
C2736 C 0.82459 0.57665 0.84731 0.0
C2737 C 0.83528 0.59088 0.83856 0.0
C2738 C 0.82907 0.5577 0.84461 0.0
C2739 C 0.84801 0.52485 0.81112 0.0
H2740 H 0.85186 0.49134 0.85419 0.0
C2741 C 0.8543 0.44331 0.80309 0.0
C2742 C 0.84376 0.43262 0.81606 0.0
C2743 C 0.85636 0.46284 0.80554 0.0
C2744 C 0.85068 0.50045 0.84198 0.0
H2745 H 0.85905 0.59644 0.82014 0.0
H2746 H 0.86656 0.56294 0.81493 0.0
H2747 H 0.84991 0.5253 0.85917 0.0
H2748 H 0.82685 0.43412 0.84156 0.0
H2749 H 0.82996 0.46788 0.84548 0.0
H2750 H 0.84768 0.49999 0.79393 0.0
C2751 C 0.85488 0.56665 0.82407 0.0
C2752 C 0.84972 0.5199 0.84487 0.0
C2753 C 0.85064 0.58574 0.82711 0.0
C2754 C 0.83523 0.44186 0.83139 0.0
C2755 C 0.83716 0.46128 0.83373 0.0
C2756 C 0.84871 0.50531 0.80822 0.0
C2757 C 0.84412 0.5525 0.83284 0.0
C2758 C 0.84794 0.53224 0.8295 0.0
C2759 C 0.84785 0.47205 0.82095 0.0
C2760 C 0.84953 0.49284 0.82367 0.0
H2761 H 0.81271 0.58017 0.85626 0.0
H2762 H 0.82046 0.54704 0.8514 0.0
H2763 H 0.84653 0.53412 0.79905 0.0
H2764 H 0.86111 0.43657 0.79118 0.0
H2765 H 0.86479 0.47067 0.79548 0.0
C2766 C 0.31831 0.92152 0.17287 0.0
C2767 C 0.33183 0.90897 0.16558 0.0
C2768 C 0.32322 0.94004 0.17736 0.0
C2769 C 0.35673 0.97711 0.16494 0.0
H2770 H 0.3347 0.00225 0.20829 0.0
C2771 C 0.34516 0.05721 0.16821 0.0
C2772 C 0.34748 0.06669 0.18548 0.0
C2773 C 0.3468 0.03762 0.16722 0.0
C2774 C 0.34122 0.99541 0.19628 0.0
H2775 H 0.36119 0.90595 0.15752 0.0
H2776 H 0.36977 0.93853 0.16531 0.0
H2777 H 0.33115 0.96821 0.20471 0.0
H2778 H 0.35394 0.06303 0.21518 0.0
H2779 H 0.35674 0.02867 0.21343 0.0
H2780 H 0.3665 0.00439 0.15633 0.0
C2781 C 0.35536 0.93394 0.16751 0.0
C2782 C 0.33902 0.97594 0.19413 0.0
C2783 C 0.35047 0.91529 0.16313 0.0
C2784 C 0.35197 0.05614 0.20168 0.0
C2785 C 0.35352 0.03647 0.20069 0.0
C2786 C 0.35887 0.99661 0.16706 0.0
C2787 C 0.34174 0.94653 0.17459 0.0
C2788 C 0.34634 0.96665 0.17819 0.0
C2789 C 0.35076 0.02699 0.18347 0.0
C2790 C 0.35074 0.00604 0.18251 0.0
H2791 H 0.30383 0.91713 0.17498 0.0
H2792 H 0.31232 0.94944 0.1825 0.0
H2793 H 0.36245 0.97039 0.15246 0.0
H2794 H 0.34175 0.06489 0.15543 0.0
H2795 H 0.34432 0.03075 0.15379 0.0
C2796 C 0.16842 0.94272 0.68087 0.0
C2797 C 0.15543 0.93304 0.6923 0.0
C2798 C 0.16883 0.96236 0.68065 0.0
C2799 C 0.14151 0.00411 0.68403 0.0
H2800 H 0.18914 0.02874 0.69494 0.0
C2801 C 0.15344 0.08491 0.67373 0.0
C2802 C 0.17104 0.09 0.66612 0.0
C2803 C 0.15001 0.06627 0.67945 0.0
C2804 C 0.17576 0.02211 0.69171 0.0
H2805 H 0.13249 0.9363 0.71226 0.0
H2806 H 0.13285 0.97107 0.71136 0.0
H2807 H 0.18575 0.99499 0.70053 0.0
H2808 H 0.19859 0.0794 0.65794 0.0
H2809 H 0.1925 0.04714 0.66732 0.0
H2810 H 0.13183 0.03099 0.67411 0.0
C2811 C 0.14283 0.96324 0.70284 0.0
C2812 C 0.1738 0.00283 0.69509 0.0
C2813 C 0.14269 0.94344 0.7034 0.0
C2814 C 0.18495 0.07604 0.66398 0.0
C2815 C 0.1815 0.05751 0.66952 0.0
C2816 C 0.14354 0.02344 0.68037 0.0
C2817 C 0.15605 0.97279 0.69156 0.0
C2818 C 0.15683 0.9936 0.69087 0.0
C2819 C 0.1641 0.05239 0.67758 0.0
C2820 C 0.1609 0.03254 0.68366 0.0
H2821 H 0.17848 0.93512 0.67223 0.0
H2822 H 0.17906 0.96946 0.67176 0.0
H2823 H 0.12832 0.99718 0.68057 0.0
H2824 H 0.14244 0.09536 0.67556 0.0
H2825 H 0.13648 0.06283 0.68564 0.0
C2826 C 0.67132 0.42258 0.34842 0.0
C2827 C 0.66206 0.40782 0.33899 0.0
C2828 C 0.66599 0.44127 0.34539 0.0
C2829 C 0.64828 0.47285 0.31026 0.0
H2830 H 0.64019 0.50669 0.35248 0.0
C2831 C 0.64221 0.55433 0.30105 0.0
C2832 C 0.65205 0.56497 0.31459 0.0
C2833 C 0.6397 0.53484 0.30351 0.0
C2834 C 0.64251 0.49747 0.34051 0.0
H2835 H 0.6399 0.40097 0.31905 0.0
H2836 H 0.63093 0.43401 0.31326 0.0
H2837 H 0.6425 0.47282 0.358 0.0
H2838 H 0.66714 0.56343 0.34123 0.0
H2839 H 0.66322 0.52981 0.34523 0.0
H2840 H 0.64948 0.49756 0.29288 0.0
C2841 C 0.64212 0.43093 0.3232 0.0
C2842 C 0.64368 0.47809 0.3437 0.0
C2843 C 0.64719 0.4121 0.32657 0.0
C2844 C 0.65934 0.55575 0.33056 0.0
C2845 C 0.65694 0.5364 0.33295 0.0
C2846 C 0.64736 0.49234 0.30708 0.0
C2847 C 0.65153 0.44564 0.33259 0.0
C2848 C 0.64709 0.46566 0.32868 0.0
C2849 C 0.64701 0.52567 0.31955 0.0
C2850 C 0.64507 0.50492 0.32228 0.0
H2851 H 0.68281 0.4197 0.3581 0.0
H2852 H 0.67357 0.45238 0.35267 0.0
H2853 H 0.65103 0.46351 0.29847 0.0
H2854 H 0.63636 0.56104 0.28862 0.0
H2855 H 0.63192 0.527 0.29295 0.0
loop_
_geom_bond_atom_site_label_1
_geom_bond_atom_site_label_2
_geom_bond_distance
_geom_bond_site_symmetry_2
_ccdc_geom_bond_type
Co0 O2 2.143 . S
Co0 O8 2.074 . S
Co0 O11 2.093 . S
Co0 O24 2.097 . S
Co0 N41 2.151 . S
Co0 N49 2.214 . S
Co1 O2 2.160 . S
Co1 O7 2.058 . S
Co1 O17 2.057 . S
Co1 O32 2.037 . S
Co1 N36 2.145 . S
Co1 N57 2.257 . S
O2 Co0 2.143 . S
O2 Co1 2.160 . S
C3 O4 1.278 . S
C3 O11 1.224 . S
O4 C3 1.278 . S
C5 O6 1.245 . S
C5 O17 1.232 . S
O6 C5 1.245 . S
O7 Co1 2.058 . S
O7 C33 1.269 . S
O8 Co0 2.074 . S
O8 C33 1.257 . S
H9 C34 0.930 . S
H10 C40 0.930 . S
O11 Co0 2.093 . S
O11 C3 1.224 . S
H12 C44 0.929 . S
H13 C46 0.930 . S
H14 C47 0.930 . S
H15 C45 0.929 . S
H16 C48 0.928 . S
O17 Co1 2.057 . S
O17 C5 1.232 . S
H18 C37 0.929 . S
H19 C38 0.929 . S
H20 C50 0.931 . S
H21 C42 0.929 . S
H22 C51 0.930 . S
H23 C43 0.931 . S
O24 Co0 2.097 . S
O24 C52 1.214 . S
H25 C53 0.929 . S
H26 C54 0.929 . S
H27 C55 0.930 . S
H28 C56 0.929 . S
H29 C58 0.930 . S
H30 C35 0.930 . S
H31 C39 0.930 . S
O32 Co1 2.037 . S
O32 C52 1.234 . S
C33 O7 1.269 . S
C33 O8 1.257 . S
C34 H9 0.930 . S
C34 C37 1.388 . S
C34 C39 1.418 . S
C35 H30 0.930 . S
C35 C38 1.404 . S
C35 C39 1.353 . S
N36 Co1 2.145 . S
N36 C37 1.397 . S
N36 C38 1.334 . S
C37 H18 0.929 . S
C37 C34 1.388 . S
C37 N36 1.397 . S
C38 H19 0.929 . S
C38 C35 1.404 . S
C38 N36 1.334 . S
C39 H31 0.930 . S
C39 C34 1.418 . S
C39 C35 1.353 . S
C40 H10 0.930 . S
C40 N41 1.330 . S
C40 C42 1.446 . S
N41 Co0 2.151 . S
N41 C40 1.330 . S
N41 C45 1.418 . S
C42 H21 0.929 . S
C42 C40 1.446 . S
C42 C43 1.332 . S
C43 H23 0.931 . S
C43 C42 1.332 . S
C43 C44 1.267 . S
C44 H12 0.929 . S
C44 C43 1.267 . S
C44 C45 1.251 . S
C45 H15 0.929 . S
C45 N41 1.418 . S
C45 C44 1.251 . S
C46 H13 0.930 . S
C46 C48 1.406 . S
C46 C51 1.261 . S
C47 H14 0.930 . S
C47 N49 1.325 . S
C47 C50 1.357 . S
C48 H16 0.928 . S
C48 C46 1.406 . S
C48 N49 1.261 . S
N49 Co0 2.214 . S
N49 C47 1.325 . S
N49 C48 1.261 . S
C50 H20 0.931 . S
C50 C47 1.357 . S
C50 C51 1.312 . S
C51 H22 0.930 . S
C51 C46 1.261 . S
C51 C50 1.312 . S
C52 O24 1.214 . S
C52 O32 1.234 . S
C53 H25 0.929 . S
C53 C56 1.391 . S
C53 C58 1.391 . S
C54 H26 0.929 . S
C54 C55 1.390 . S
C54 N57 1.391 . S
C55 H27 0.930 . S
C55 C54 1.390 . S
C55 C56 1.392 . S
C56 H28 0.929 . S
C56 C53 1.391 . S
C56 C55 1.392 . S
N57 Co1 2.257 . S
N57 C54 1.391 . S
N57 C58 1.388 . S
C58 H29 0.930 . S
C58 C53 1.391 . S
C58 N57 1.388 . S
Co59 O61 2.143 . S
Co59 O67 2.074 . S
Co59 O70 2.093 . S
Co59 O83 2.097 . S
Co59 N100 2.151 . S
Co59 N108 2.214 . S
Co60 O61 2.160 . S
Co60 O66 2.058 . S
Co60 O76 2.057 . S
Co60 O91 2.037 . S
Co60 N95 2.145 . S
Co60 N116 2.257 . S
O61 Co59 2.143 . S
O61 Co60 2.160 . S
C62 O63 1.278 . S
C62 O70 1.224 . S
O63 C62 1.278 . S
C64 O65 1.245 . S
C64 O76 1.232 . S
O65 C64 1.245 . S
O66 Co60 2.058 . S
O66 C92 1.269 . S
O67 Co59 2.074 . S
O67 C92 1.257 . S
H68 C93 0.930 . S
H69 C99 0.930 . S
O70 Co59 2.093 . S
O70 C62 1.224 . S
H71 C103 0.929 . S
H72 C105 0.930 . S
H73 C106 0.930 . S
H74 C104 0.929 . S
H75 C107 0.928 . S
O76 Co60 2.057 . S
O76 C64 1.232 . S
H77 C96 0.929 . S
H78 C97 0.929 . S
H79 C109 0.931 . S
H80 C101 0.929 . S
H81 C110 0.930 . S
H82 C102 0.931 . S
O83 Co59 2.097 . S
O83 C111 1.214 . S
H84 C112 0.929 . S
H85 C113 0.929 . S
H86 C114 0.930 . S
H87 C115 0.929 . S
H88 C117 0.930 . S
H89 C94 0.930 . S
H90 C98 0.930 . S
O91 Co60 2.037 . S
O91 C111 1.234 . S
C92 O66 1.269 . S
C92 O67 1.257 . S
C93 H68 0.930 . S
C93 C96 1.388 . S
C93 C98 1.418 . S
C94 H89 0.930 . S
C94 C97 1.404 . S
C94 C98 1.353 . S
N95 Co60 2.145 . S
N95 C96 1.397 . S
N95 C97 1.334 . S
C96 H77 0.929 . S
C96 C93 1.388 . S
C96 N95 1.397 . S
C97 H78 0.929 . S
C97 C94 1.404 . S
C97 N95 1.334 . S
C98 H90 0.930 . S
C98 C93 1.418 . S
C98 C94 1.353 . S
C99 H69 0.930 . S
C99 N100 1.330 . S
C99 C101 1.446 . S
N100 Co59 2.151 . S
N100 C99 1.330 . S
N100 C104 1.418 . S
C101 H80 0.929 . S
C101 C99 1.446 . S
C101 C102 1.332 . S
C102 H82 0.931 . S
C102 C101 1.332 . S
C102 C103 1.267 . S
C103 H71 0.929 . S
C103 C102 1.267 . S
C103 C104 1.251 . S
C104 H74 0.929 . S
C104 N100 1.418 . S
C104 C103 1.251 . S
C105 H72 0.930 . S
C105 C107 1.406 . S
C105 C110 1.261 . S
C106 H73 0.930 . S
C106 N108 1.325 . S
C106 C109 1.357 . S
C107 H75 0.928 . S
C107 C105 1.406 . S
C107 N108 1.261 . S
N108 Co59 2.214 . S
N108 C106 1.325 . S
N108 C107 1.261 . S
C109 H79 0.931 . S
C109 C106 1.357 . S
C109 C110 1.312 . S
C110 H81 0.930 . S
C110 C105 1.261 . S
C110 C109 1.312 . S
C111 O83 1.214 . S
C111 O91 1.234 . S
C112 H84 0.929 . S
C112 C115 1.391 . S
C112 C117 1.391 . S
C113 H85 0.929 . S
C113 C114 1.390 . S
C113 N116 1.391 . S
C114 H86 0.930 . S
C114 C113 1.390 . S
C114 C115 1.392 . S
C115 H87 0.929 . S
C115 C112 1.391 . S
C115 C114 1.392 . S
N116 Co60 2.257 . S
N116 C113 1.391 . S
N116 C117 1.388 . S
C117 H88 0.930 . S
C117 C112 1.391 . S
C117 N116 1.388 . S
Co118 O120 2.143 . S
Co118 O126 2.074 . S
Co118 O129 2.093 . S
Co118 O142 2.097 . S
Co118 N159 2.151 . S
Co118 N167 2.214 . S
Co119 O120 2.160 . S
Co119 O125 2.058 . S
Co119 O135 2.057 . S
Co119 O150 2.037 . S
Co119 N154 2.145 . S
Co119 N175 2.257 . S
O120 Co118 2.143 . S
O120 Co119 2.160 . S
C121 O122 1.278 . S
C121 O129 1.224 . S
O122 C121 1.278 . S
C123 O124 1.245 . S
C123 O135 1.232 . S
O124 C123 1.245 . S
O125 Co119 2.058 . S
O125 C151 1.269 . S
O126 Co118 2.074 . S
O126 C151 1.257 . S
H127 C152 0.930 . S
H128 C158 0.930 . S
O129 Co118 2.093 . S
O129 C121 1.224 . S
H130 C162 0.929 . S
H131 C164 0.930 . S
H132 C165 0.930 . S
H133 C163 0.929 . S
H134 C166 0.928 . S
O135 Co119 2.057 . S
O135 C123 1.232 . S
H136 C155 0.929 . S
H137 C156 0.929 . S
H138 C168 0.931 . S
H139 C160 0.929 . S
H140 C169 0.930 . S
H141 C161 0.931 . S
O142 Co118 2.097 . S
O142 C170 1.214 . S
H143 C171 0.929 . S
H144 C172 0.929 . S
H145 C173 0.930 . S
H146 C174 0.929 . S
H147 C176 0.930 . S
H148 C153 0.930 . S
H149 C157 0.930 . S
O150 Co119 2.037 . S
O150 C170 1.234 . S
C151 O125 1.269 . S
C151 O126 1.257 . S
C152 H127 0.930 . S
C152 C155 1.388 . S
C152 C157 1.418 . S
C153 H148 0.930 . S
C153 C156 1.404 . S
C153 C157 1.353 . S
N154 Co119 2.145 . S
N154 C155 1.397 . S
N154 C156 1.334 . S
C155 H136 0.929 . S
C155 C152 1.388 . S
C155 N154 1.397 . S
C156 H137 0.929 . S
C156 C153 1.404 . S
C156 N154 1.334 . S
C157 H149 0.930 . S
C157 C152 1.418 . S
C157 C153 1.353 . S
C158 H128 0.930 . S
C158 N159 1.330 . S
C158 C160 1.446 . S
N159 Co118 2.151 . S
N159 C158 1.330 . S
N159 C163 1.418 . S
C160 H139 0.929 . S
C160 C158 1.446 . S
C160 C161 1.332 . S
C161 H141 0.931 . S
C161 C160 1.332 . S
C161 C162 1.267 . S
C162 H130 0.929 . S
C162 C161 1.267 . S
C162 C163 1.251 . S
C163 H133 0.929 . S
C163 N159 1.418 . S
C163 C162 1.251 . S
C164 H131 0.930 . S
C164 C166 1.406 . S
C164 C169 1.261 . S
C165 H132 0.930 . S
C165 N167 1.325 . S
C165 C168 1.357 . S
C166 H134 0.928 . S
C166 C164 1.406 . S
C166 N167 1.261 . S
N167 Co118 2.214 . S
N167 C165 1.325 . S
N167 C166 1.261 . S
C168 H138 0.931 . S
C168 C165 1.357 . S
C168 C169 1.312 . S
C169 H140 0.930 . S
C169 C164 1.261 . S
C169 C168 1.312 . S
C170 O142 1.214 . S
C170 O150 1.234 . S
C171 H143 0.929 . S
C171 C174 1.391 . S
C171 C176 1.391 . S
C172 H144 0.929 . S
C172 C173 1.390 . S
C172 N175 1.391 . S
C173 H145 0.930 . S
C173 C172 1.390 . S
C173 C174 1.392 . S
C174 H146 0.929 . S
C174 C171 1.391 . S
C174 C173 1.392 . S
N175 Co119 2.257 . S
N175 C172 1.391 . S
N175 C176 1.388 . S
C176 H147 0.930 . S
C176 C171 1.391 . S
C176 N175 1.388 . S
Co177 O179 2.143 . S
Co177 O185 2.074 . S
Co177 O188 2.093 . S
Co177 O201 2.097 . S
Co177 N218 2.151 . S
Co177 N226 2.214 . S
Co178 O179 2.160 . S
Co178 O184 2.058 . S
Co178 O194 2.057 . S
Co178 O209 2.037 . S
Co178 N213 2.145 . S
Co178 N234 2.257 . S
O179 Co177 2.143 . S
O179 Co178 2.160 . S
C180 O181 1.278 . S
C180 O188 1.224 . S
O181 C180 1.278 . S
C182 O183 1.245 . S
C182 O194 1.232 . S
O183 C182 1.245 . S
O184 Co178 2.058 . S
O184 C210 1.269 . S
O185 Co177 2.074 . S
O185 C210 1.257 . S
H186 C211 0.930 . S
H187 C217 0.930 . S
O188 Co177 2.093 . S
O188 C180 1.224 . S
H189 C221 0.929 . S
H190 C223 0.930 . S
H191 C224 0.930 . S
H192 C222 0.929 . S
H193 C225 0.928 . S
O194 Co178 2.057 . S
O194 C182 1.232 . S
H195 C214 0.929 . S
H196 C215 0.929 . S
H197 C227 0.931 . S
H198 C219 0.929 . S
H199 C228 0.930 . S
H200 C220 0.931 . S
O201 Co177 2.097 . S
O201 C229 1.214 . S
H202 C230 0.929 . S
H203 C231 0.929 . S
H204 C232 0.930 . S
H205 C233 0.929 . S
H206 C235 0.930 . S
H207 C212 0.930 . S
H208 C216 0.930 . S
O209 Co178 2.037 . S
O209 C229 1.234 . S
C210 O184 1.269 . S
C210 O185 1.257 . S
C211 H186 0.930 . S
C211 C214 1.388 . S
C211 C216 1.418 . S
C212 H207 0.930 . S
C212 C215 1.404 . S
C212 C216 1.353 . S
N213 Co178 2.145 . S
N213 C214 1.397 . S
N213 C215 1.334 . S
C214 H195 0.929 . S
C214 C211 1.388 . S
C214 N213 1.397 . S
C215 H196 0.929 . S
C215 C212 1.404 . S
C215 N213 1.334 . S
C216 H208 0.930 . S
C216 C211 1.418 . S
C216 C212 1.353 . S
C217 H187 0.930 . S
C217 N218 1.330 . S
C217 C219 1.446 . S
N218 Co177 2.151 . S
N218 C217 1.330 . S
N218 C222 1.418 . S
C219 H198 0.929 . S
C219 C217 1.446 . S
C219 C220 1.332 . S
C220 H200 0.931 . S
C220 C219 1.332 . S
C220 C221 1.267 . S
C221 H189 0.929 . S
C221 C220 1.267 . S
C221 C222 1.251 . S
C222 H192 0.929 . S
C222 N218 1.418 . S
C222 C221 1.251 . S
C223 H190 0.930 . S
C223 C225 1.406 . S
C223 C228 1.261 . S
C224 H191 0.930 . S
C224 N226 1.325 . S
C224 C227 1.357 . S
C225 H193 0.928 . S
C225 C223 1.406 . S
C225 N226 1.261 . S
N226 Co177 2.214 . S
N226 C224 1.325 . S
N226 C225 1.261 . S
C227 H197 0.931 . S
C227 C224 1.357 . S
C227 C228 1.312 . S
C228 H199 0.930 . S
C228 C223 1.261 . S
C228 C227 1.312 . S
C229 O201 1.214 . S
C229 O209 1.234 . S
C230 H202 0.929 . S
C230 C233 1.391 . S
C230 C235 1.391 . S
C231 H203 0.929 . S
C231 C232 1.390 . S
C231 N234 1.391 . S
C232 H204 0.930 . S
C232 C231 1.390 . S
C232 C233 1.392 . S
C233 H205 0.929 . S
C233 C230 1.391 . S
C233 C232 1.392 . S
N234 Co178 2.257 . S
N234 C231 1.391 . S
N234 C235 1.388 . S
C235 H206 0.930 . S
C235 C230 1.391 . S
C235 N234 1.388 . S
Co236 O238 2.143 . S
Co236 O244 2.074 . S
Co236 O247 2.093 . S
Co236 O260 2.097 . S
Co236 N277 2.151 . S
Co236 N285 2.214 . S
Co237 O238 2.160 . S
Co237 O243 2.058 . S
Co237 O253 2.057 . S
Co237 O268 2.037 . S
Co237 N272 2.145 . S
Co237 N293 2.257 . S
O238 Co236 2.143 . S
O238 Co237 2.160 . S
C239 O240 1.278 . S
C239 O247 1.224 . S
O240 C239 1.278 . S
C241 O242 1.245 . S
C241 O253 1.232 . S
O242 C241 1.245 . S
O243 Co237 2.058 . S
O243 C269 1.269 . S
O244 Co236 2.074 . S
O244 C269 1.257 . S
H245 C270 0.930 . S
H246 C276 0.930 . S
O247 Co236 2.093 . S
O247 C239 1.224 . S
H248 C280 0.929 . S
H249 C282 0.930 . S
H250 C283 0.930 . S
H251 C281 0.929 . S
H252 C284 0.928 . S
O253 Co237 2.057 . S
O253 C241 1.232 . S
H254 C273 0.929 . S
H255 C274 0.929 . S
H256 C286 0.931 . S
H257 C278 0.929 . S
H258 C287 0.930 . S
H259 C279 0.931 . S
O260 Co236 2.097 . S
O260 C288 1.214 . S
H261 C289 0.929 . S
H262 C290 0.929 . S
H263 C291 0.930 . S
H264 C292 0.929 . S
H265 C294 0.930 . S
H266 C271 0.930 . S
H267 C275 0.930 . S
O268 Co237 2.037 . S
O268 C288 1.234 . S
C269 O243 1.269 . S
C269 O244 1.257 . S
C270 H245 0.930 . S
C270 C273 1.388 . S
C270 C275 1.418 . S
C271 H266 0.930 . S
C271 C274 1.404 . S
C271 C275 1.353 . S
N272 Co237 2.145 . S
N272 C273 1.397 . S
N272 C274 1.334 . S
C273 H254 0.929 . S
C273 C270 1.388 . S
C273 N272 1.397 . S
C274 H255 0.929 . S
C274 C271 1.404 . S
C274 N272 1.334 . S
C275 H267 0.930 . S
C275 C270 1.418 . S
C275 C271 1.353 . S
C276 H246 0.930 . S
C276 N277 1.330 . S
C276 C278 1.446 . S
N277 Co236 2.151 . S
N277 C276 1.330 . S
N277 C281 1.418 . S
C278 H257 0.929 . S
C278 C276 1.446 . S
C278 C279 1.332 . S
C279 H259 0.931 . S
C279 C278 1.332 . S
C279 C280 1.267 . S
C280 H248 0.929 . S
C280 C279 1.267 . S
C280 C281 1.251 . S
C281 H251 0.929 . S
C281 N277 1.418 . S
C281 C280 1.251 . S
C282 H249 0.930 . S
C282 C284 1.406 . S
C282 C287 1.261 . S
C283 H250 0.930 . S
C283 N285 1.325 . S
C283 C286 1.357 . S
C284 H252 0.928 . S
C284 C282 1.406 . S
C284 N285 1.261 . S
N285 Co236 2.214 . S
N285 C283 1.325 . S
N285 C284 1.261 . S
C286 H256 0.931 . S
C286 C283 1.357 . S
C286 C287 1.312 . S
C287 H258 0.930 . S
C287 C282 1.261 . S
C287 C286 1.312 . S
C288 O260 1.214 . S
C288 O268 1.234 . S
C289 H261 0.929 . S
C289 C292 1.391 . S
C289 C294 1.391 . S
C290 H262 0.929 . S
C290 C291 1.390 . S
C290 N293 1.391 . S
C291 H263 0.930 . S
C291 C290 1.390 . S
C291 C292 1.392 . S
C292 H264 0.929 . S
C292 C289 1.391 . S
C292 C291 1.392 . S
N293 Co237 2.257 . S
N293 C290 1.391 . S
N293 C294 1.388 . S
C294 H265 0.930 . S
C294 C289 1.391 . S
C294 N293 1.388 . S
Co295 O297 2.143 . S
Co295 O303 2.074 . S
Co295 O306 2.093 . S
Co295 O319 2.097 . S
Co295 N336 2.151 . S
Co295 N344 2.214 . S
Co296 O297 2.160 . S
Co296 O302 2.058 . S
Co296 O312 2.057 . S
Co296 O327 2.037 . S
Co296 N331 2.145 . S
Co296 N352 2.257 . S
O297 Co295 2.143 . S
O297 Co296 2.160 . S
C298 O299 1.278 . S
C298 O306 1.224 . S
O299 C298 1.278 . S
C300 O301 1.245 . S
C300 O312 1.232 . S
O301 C300 1.245 . S
O302 Co296 2.058 . S
O302 C328 1.269 . S
O303 Co295 2.074 . S
O303 C328 1.257 . S
H304 C329 0.930 . S
H305 C335 0.930 . S
O306 Co295 2.093 . S
O306 C298 1.224 . S
H307 C339 0.929 . S
H308 C341 0.930 . S
H309 C342 0.930 . S
H310 C340 0.929 . S
H311 C343 0.928 . S
O312 Co296 2.057 . S
O312 C300 1.232 . S
H313 C332 0.929 . S
H314 C333 0.929 . S
H315 C345 0.931 . S
H316 C337 0.929 . S
H317 C346 0.930 . S
H318 C338 0.931 . S
O319 Co295 2.097 . S
O319 C347 1.214 . S
H320 C348 0.929 . S
H321 C349 0.929 . S
H322 C350 0.930 . S
H323 C351 0.929 . S
H324 C353 0.930 . S
H325 C330 0.930 . S
H326 C334 0.930 . S
O327 Co296 2.037 . S
O327 C347 1.234 . S
C328 O302 1.269 . S
C328 O303 1.257 . S
C329 H304 0.930 . S
C329 C332 1.388 . S
C329 C334 1.418 . S
C330 H325 0.930 . S
C330 C333 1.404 . S
C330 C334 1.353 . S
N331 Co296 2.145 . S
N331 C332 1.397 . S
N331 C333 1.334 . S
C332 H313 0.929 . S
C332 C329 1.388 . S
C332 N331 1.397 . S
C333 H314 0.929 . S
C333 C330 1.404 . S
C333 N331 1.334 . S
C334 H326 0.930 . S
C334 C329 1.418 . S
C334 C330 1.353 . S
C335 H305 0.930 . S
C335 N336 1.330 . S
C335 C337 1.446 . S
N336 Co295 2.151 . S
N336 C335 1.330 . S
N336 C340 1.418 . S
C337 H316 0.929 . S
C337 C335 1.446 . S
C337 C338 1.332 . S
C338 H318 0.931 . S
C338 C337 1.332 . S
C338 C339 1.267 . S
C339 H307 0.929 . S
C339 C338 1.267 . S
C339 C340 1.251 . S
C340 H310 0.929 . S
C340 N336 1.418 . S
C340 C339 1.251 . S
C341 H308 0.930 . S
C341 C343 1.406 . S
C341 C346 1.261 . S
C342 H309 0.930 . S
C342 N344 1.325 . S
C342 C345 1.357 . S
C343 H311 0.928 . S
C343 C341 1.406 . S
C343 N344 1.261 . S
N344 Co295 2.214 . S
N344 C342 1.325 . S
N344 C343 1.261 . S
C345 H315 0.931 . S
C345 C342 1.357 . S
C345 C346 1.312 . S
C346 H317 0.930 . S
C346 C341 1.261 . S
C346 C345 1.312 . S
C347 O319 1.214 . S
C347 O327 1.234 . S
C348 H320 0.929 . S
C348 C351 1.391 . S
C348 C353 1.391 . S
C349 H321 0.929 . S
C349 C350 1.390 . S
C349 N352 1.391 . S
C350 H322 0.930 . S
C350 C349 1.390 . S
C350 C351 1.392 . S
C351 H323 0.929 . S
C351 C348 1.391 . S
C351 C350 1.392 . S
N352 Co296 2.257 . S
N352 C349 1.391 . S
N352 C353 1.388 . S
C353 H324 0.930 . S
C353 C348 1.391 . S
C353 N352 1.388 . S
Co354 O356 2.143 . S
Co354 O362 2.074 . S
Co354 O365 2.093 . S
Co354 O378 2.097 . S
Co354 N395 2.151 . S
Co354 N403 2.214 . S
Co355 O356 2.160 . S
Co355 O361 2.058 . S
Co355 O371 2.057 . S
Co355 O386 2.037 . S
Co355 N390 2.145 . S
Co355 N411 2.257 . S
O356 Co354 2.143 . S
O356 Co355 2.160 . S
C357 O358 1.278 . S
C357 O365 1.224 . S
O358 C357 1.278 . S
C359 O360 1.245 . S
C359 O371 1.232 . S
O360 C359 1.245 . S
O361 Co355 2.058 . S
O361 C387 1.269 . S
O362 Co354 2.074 . S
O362 C387 1.257 . S
H363 C388 0.930 . S
H364 C394 0.930 . S
O365 Co354 2.093 . S
O365 C357 1.224 . S
H366 C398 0.929 . S
H367 C400 0.930 . S
H368 C401 0.930 . S
H369 C399 0.929 . S
H370 C402 0.928 . S
O371 Co355 2.057 . S
O371 C359 1.232 . S
H372 C391 0.929 . S
H373 C392 0.929 . S
H374 C404 0.931 . S
H375 C396 0.929 . S
H376 C405 0.930 . S
H377 C397 0.931 . S
O378 Co354 2.097 . S
O378 C406 1.214 . S
H379 C407 0.929 . S
H380 C408 0.929 . S
H381 C409 0.930 . S
H382 C410 0.929 . S
H383 C412 0.930 . S
H384 C389 0.930 . S
H385 C393 0.930 . S
O386 Co355 2.037 . S
O386 C406 1.234 . S
C387 O361 1.269 . S
C387 O362 1.257 . S
C388 H363 0.930 . S
C388 C391 1.388 . S
C388 C393 1.418 . S
C389 H384 0.930 . S
C389 C392 1.404 . S
C389 C393 1.353 . S
N390 Co355 2.145 . S
N390 C391 1.397 . S
N390 C392 1.334 . S
C391 H372 0.929 . S
C391 C388 1.388 . S
C391 N390 1.397 . S
C392 H373 0.929 . S
C392 C389 1.404 . S
C392 N390 1.334 . S
C393 H385 0.930 . S
C393 C388 1.418 . S
C393 C389 1.353 . S
C394 H364 0.930 . S
C394 N395 1.330 . S
C394 C396 1.446 . S
N395 Co354 2.151 . S
N395 C394 1.330 . S
N395 C399 1.418 . S
C396 H375 0.929 . S
C396 C394 1.446 . S
C396 C397 1.332 . S
C397 H377 0.931 . S
C397 C396 1.332 . S
C397 C398 1.267 . S
C398 H366 0.929 . S
C398 C397 1.267 . S
C398 C399 1.251 . S
C399 H369 0.929 . S
C399 N395 1.418 . S
C399 C398 1.251 . S
C400 H367 0.930 . S
C400 C402 1.406 . S
C400 C405 1.261 . S
C401 H368 0.930 . S
C401 N403 1.325 . S
C401 C404 1.357 . S
C402 H370 0.928 . S
C402 C400 1.406 . S
C402 N403 1.261 . S
N403 Co354 2.214 . S
N403 C401 1.325 . S
N403 C402 1.261 . S
C404 H374 0.931 . S
C404 C401 1.357 . S
C404 C405 1.312 . S
C405 H376 0.930 . S
C405 C400 1.261 . S
C405 C404 1.312 . S
C406 O378 1.214 . S
C406 O386 1.234 . S
C407 H379 0.929 . S
C407 C410 1.391 . S
C407 C412 1.391 . S
C408 H380 0.929 . S
C408 C409 1.390 . S
C408 N411 1.391 . S
C409 H381 0.930 . S
C409 C408 1.390 . S
C409 C410 1.392 . S
C410 H382 0.929 . S
C410 C407 1.391 . S
C410 C409 1.392 . S
N411 Co355 2.257 . S
N411 C408 1.391 . S
N411 C412 1.388 . S
C412 H383 0.930 . S
C412 C407 1.391 . S
C412 N411 1.388 . S
Co413 O415 2.143 . S
Co413 O421 2.074 . S
Co413 O424 2.093 . S
Co413 O437 2.097 . S
Co413 N454 2.151 . S
Co413 N462 2.214 . S
Co414 O415 2.160 . S
Co414 O420 2.058 . S
Co414 O430 2.057 . S
Co414 O445 2.037 . S
Co414 N449 2.145 . S
Co414 N470 2.257 . S
O415 Co413 2.143 . S
O415 Co414 2.160 . S
C416 O417 1.278 . S
C416 O424 1.224 . S
O417 C416 1.278 . S
C418 O419 1.245 . S
C418 O430 1.232 . S
O419 C418 1.245 . S
O420 Co414 2.058 . S
O420 C446 1.269 . S
O421 Co413 2.074 . S
O421 C446 1.257 . S
H422 C447 0.930 . S
H423 C453 0.930 . S
O424 Co413 2.093 . S
O424 C416 1.224 . S
H425 C457 0.929 . S
H426 C459 0.930 . S
H427 C460 0.930 . S
H428 C458 0.929 . S
H429 C461 0.928 . S
O430 Co414 2.057 . S
O430 C418 1.232 . S
H431 C450 0.929 . S
H432 C451 0.929 . S
H433 C463 0.931 . S
H434 C455 0.929 . S
H435 C464 0.930 . S
H436 C456 0.931 . S
O437 Co413 2.097 . S
O437 C465 1.214 . S
H438 C466 0.929 . S
H439 C467 0.929 . S
H440 C468 0.930 . S
H441 C469 0.929 . S
H442 C471 0.930 . S
H443 C448 0.930 . S
H444 C452 0.930 . S
O445 Co414 2.037 . S
O445 C465 1.234 . S
C446 O420 1.269 . S
C446 O421 1.257 . S
C447 H422 0.930 . S
C447 C450 1.388 . S
C447 C452 1.418 . S
C448 H443 0.930 . S
C448 C451 1.404 . S
C448 C452 1.353 . S
N449 Co414 2.145 . S
N449 C450 1.397 . S
N449 C451 1.334 . S
C450 H431 0.929 . S
C450 C447 1.388 . S
C450 N449 1.397 . S
C451 H432 0.929 . S
C451 C448 1.404 . S
C451 N449 1.334 . S
C452 H444 0.930 . S
C452 C447 1.418 . S
C452 C448 1.353 . S
C453 H423 0.930 . S
C453 N454 1.330 . S
C453 C455 1.446 . S
N454 Co413 2.151 . S
N454 C453 1.330 . S
N454 C458 1.418 . S
C455 H434 0.929 . S
C455 C453 1.446 . S
C455 C456 1.332 . S
C456 H436 0.931 . S
C456 C455 1.332 . S
C456 C457 1.267 . S
C457 H425 0.929 . S
C457 C456 1.267 . S
C457 C458 1.251 . S
C458 H428 0.929 . S
C458 N454 1.418 . S
C458 C457 1.251 . S
C459 H426 0.930 . S
C459 C461 1.406 . S
C459 C464 1.261 . S
C460 H427 0.930 . S
C460 N462 1.325 . S
C460 C463 1.357 . S
C461 H429 0.928 . S
C461 C459 1.406 . S
C461 N462 1.261 . S
N462 Co413 2.214 . S
N462 C460 1.325 . S
N462 C461 1.261 . S
C463 H433 0.931 . S
C463 C460 1.357 . S
C463 C464 1.312 . S
C464 H435 0.930 . S
C464 C459 1.261 . S
C464 C463 1.312 . S
C465 O437 1.214 . S
C465 O445 1.234 . S
C466 H438 0.929 . S
C466 C469 1.391 . S
C466 C471 1.391 . S
C467 H439 0.929 . S
C467 C468 1.390 . S
C467 N470 1.391 . S
C468 H440 0.930 . S
C468 C467 1.390 . S
C468 C469 1.392 . S
C469 H441 0.929 . S
C469 C466 1.391 . S
C469 C468 1.392 . S
N470 Co414 2.257 . S
N470 C467 1.391 . S
N470 C471 1.388 . S
C471 H442 0.930 . S
C471 C466 1.391 . S
C471 N470 1.388 . S
Co472 O474 2.143 . S
Co472 O480 2.074 . S
Co472 O483 2.093 . S
Co472 O496 2.097 . S
Co472 N513 2.151 . S
Co472 N521 2.214 . S
Co473 O474 2.160 . S
Co473 O479 2.058 . S
Co473 O489 2.057 . S
Co473 O504 2.037 . S
Co473 N508 2.145 . S
Co473 N529 2.257 . S
O474 Co472 2.143 . S
O474 Co473 2.160 . S
C475 O476 1.278 . S
C475 O483 1.224 . S
O476 C475 1.278 . S
C477 O478 1.245 . S
C477 O489 1.232 . S
O478 C477 1.245 . S
O479 Co473 2.058 . S
O479 C505 1.269 . S
O480 Co472 2.074 . S
O480 C505 1.257 . S
H481 C506 0.930 . S
H482 C512 0.930 . S
O483 Co472 2.093 . S
O483 C475 1.224 . S
H484 C516 0.929 . S
H485 C518 0.930 . S
H486 C519 0.930 . S
H487 C517 0.929 . S
H488 C520 0.928 . S
O489 Co473 2.057 . S
O489 C477 1.232 . S
H490 C509 0.929 . S
H491 C510 0.929 . S
H492 C522 0.931 . S
H493 C514 0.929 . S
H494 C523 0.930 . S
H495 C515 0.931 . S
O496 Co472 2.097 . S
O496 C524 1.214 . S
H497 C525 0.929 . S
H498 C526 0.929 . S
H499 C527 0.930 . S
H500 C528 0.929 . S
H501 C530 0.930 . S
H502 C507 0.930 . S
H503 C511 0.930 . S
O504 Co473 2.037 . S
O504 C524 1.234 . S
C505 O479 1.269 . S
C505 O480 1.257 . S
C506 H481 0.930 . S
C506 C509 1.388 . S
C506 C511 1.418 . S
C507 H502 0.930 . S
C507 C510 1.404 . S
C507 C511 1.353 . S
N508 Co473 2.145 . S
N508 C509 1.397 . S
N508 C510 1.334 . S
C509 H490 0.929 . S
C509 C506 1.388 . S
C509 N508 1.397 . S
C510 H491 0.929 . S
C510 C507 1.404 . S
C510 N508 1.334 . S
C511 H503 0.930 . S
C511 C506 1.418 . S
C511 C507 1.353 . S
C512 H482 0.930 . S
C512 N513 1.330 . S
C512 C514 1.446 . S
N513 Co472 2.151 . S
N513 C512 1.330 . S
N513 C517 1.418 . S
C514 H493 0.929 . S
C514 C512 1.446 . S
C514 C515 1.332 . S
C515 H495 0.931 . S
C515 C514 1.332 . S
C515 C516 1.267 . S
C516 H484 0.929 . S
C516 C515 1.267 . S
C516 C517 1.251 . S
C517 H487 0.929 . S
C517 N513 1.418 . S
C517 C516 1.251 . S
C518 H485 0.930 . S
C518 C520 1.406 . S
C518 C523 1.261 . S
C519 H486 0.930 . S
C519 N521 1.325 . S
C519 C522 1.357 . S
C520 H488 0.928 . S
C520 C518 1.406 . S
C520 N521 1.261 . S
N521 Co472 2.214 . S
N521 C519 1.325 . S
N521 C520 1.261 . S
C522 H492 0.931 . S
C522 C519 1.357 . S
C522 C523 1.312 . S
C523 H494 0.930 . S
C523 C518 1.261 . S
C523 C522 1.312 . S
C524 O496 1.214 . S
C524 O504 1.234 . S
C525 H497 0.929 . S
C525 C528 1.391 . S
C525 C530 1.391 . S
C526 H498 0.929 . S
C526 C527 1.390 . S
C526 N529 1.391 . S
C527 H499 0.930 . S
C527 C526 1.390 . S
C527 C528 1.392 . S
C528 H500 0.929 . S
C528 C525 1.391 . S
C528 C527 1.392 . S
N529 Co473 2.257 . S
N529 C526 1.391 . S
N529 C530 1.388 . S
C530 H501 0.930 . S
C530 C525 1.391 . S
C530 N529 1.388 . S
Co531 O533 2.143 . S
Co531 O539 2.074 . S
Co531 O542 2.093 . S
Co531 O555 2.097 . S
Co531 N572 2.151 . S
Co531 N580 2.214 . S
Co532 O533 2.160 . S
Co532 O538 2.058 . S
Co532 O548 2.057 . S
Co532 O563 2.037 . S
Co532 N567 2.145 . S
Co532 N588 2.257 . S
O533 Co531 2.143 . S
O533 Co532 2.160 . S
C534 O535 1.278 . S
C534 O542 1.224 . S
O535 C534 1.278 . S
C536 O537 1.245 . S
C536 O548 1.232 . S
O537 C536 1.245 . S
O538 Co532 2.058 . S
O538 C564 1.269 . S
O539 Co531 2.074 . S
O539 C564 1.257 . S
H540 C565 0.930 . S
H541 C571 0.930 . S
O542 Co531 2.093 . S
O542 C534 1.224 . S
H543 C575 0.929 . S
H544 C577 0.930 . S
H545 C578 0.930 . S
H546 C576 0.929 . S
H547 C579 0.928 . S
O548 Co532 2.057 . S
O548 C536 1.232 . S
H549 C568 0.929 . S
H550 C569 0.929 . S
H551 C581 0.931 . S
H552 C573 0.929 . S
H553 C582 0.930 . S
H554 C574 0.931 . S
O555 Co531 2.097 . S
O555 C583 1.214 . S
H556 C584 0.929 . S
H557 C585 0.929 . S
H558 C586 0.930 . S
H559 C587 0.929 . S
H560 C589 0.930 . S
H561 C566 0.930 . S
H562 C570 0.930 . S
O563 Co532 2.037 . S
O563 C583 1.234 . S
C564 O538 1.269 . S
C564 O539 1.257 . S
C565 H540 0.930 . S
C565 C568 1.388 . S
C565 C570 1.418 . S
C566 H561 0.930 . S
C566 C569 1.404 . S
C566 C570 1.353 . S
N567 Co532 2.145 . S
N567 C568 1.397 . S
N567 C569 1.334 . S
C568 H549 0.929 . S
C568 C565 1.388 . S
C568 N567 1.397 . S
C569 H550 0.929 . S
C569 C566 1.404 . S
C569 N567 1.334 . S
C570 H562 0.930 . S
C570 C565 1.418 . S
C570 C566 1.353 . S
C571 H541 0.930 . S
C571 N572 1.330 . S
C571 C573 1.446 . S
N572 Co531 2.151 . S
N572 C571 1.330 . S
N572 C576 1.418 . S
C573 H552 0.929 . S
C573 C571 1.446 . S
C573 C574 1.332 . S
C574 H554 0.931 . S
C574 C573 1.332 . S
C574 C575 1.267 . S
C575 H543 0.929 . S
C575 C574 1.267 . S
C575 C576 1.251 . S
C576 H546 0.929 . S
C576 N572 1.418 . S
C576 C575 1.251 . S
C577 H544 0.930 . S
C577 C579 1.406 . S
C577 C582 1.261 . S
C578 H545 0.930 . S
C578 N580 1.325 . S
C578 C581 1.357 . S
C579 H547 0.928 . S
C579 C577 1.406 . S
C579 N580 1.261 . S
N580 Co531 2.214 . S
N580 C578 1.325 . S
N580 C579 1.261 . S
C581 H551 0.931 . S
C581 C578 1.357 . S
C581 C582 1.312 . S
C582 H553 0.930 . S
C582 C577 1.261 . S
C582 C581 1.312 . S
C583 O555 1.214 . S
C583 O563 1.234 . S
C584 H556 0.929 . S
C584 C587 1.391 . S
C584 C589 1.391 . S
C585 H557 0.929 . S
C585 C586 1.390 . S
C585 N588 1.391 . S
C586 H558 0.930 . S
C586 C585 1.390 . S
C586 C587 1.392 . S
C587 H559 0.929 . S
C587 C584 1.391 . S
C587 C586 1.392 . S
N588 Co532 2.257 . S
N588 C585 1.391 . S
N588 C589 1.388 . S
C589 H560 0.930 . S
C589 C584 1.391 . S
C589 N588 1.388 . S
Co590 O592 2.143 . S
Co590 O598 2.074 . S
Co590 O601 2.093 . S
Co590 O614 2.097 . S
Co590 N631 2.151 . S
Co590 N639 2.214 . S
Co591 O592 2.160 . S
Co591 O597 2.058 . S
Co591 O607 2.057 . S
Co591 O622 2.037 . S
Co591 N626 2.145 . S
Co591 N647 2.257 . S
O592 Co590 2.143 . S
O592 Co591 2.160 . S
C593 O594 1.278 . S
C593 O601 1.224 . S
O594 C593 1.278 . S
C595 O596 1.245 . S
C595 O607 1.232 . S
O596 C595 1.245 . S
O597 Co591 2.058 . S
O597 C623 1.269 . S
O598 Co590 2.074 . S
O598 C623 1.257 . S
H599 C624 0.930 . S
H600 C630 0.930 . S
O601 Co590 2.093 . S
O601 C593 1.224 . S
H602 C634 0.929 . S
H603 C636 0.930 . S
H604 C637 0.930 . S
H605 C635 0.929 . S
H606 C638 0.928 . S
O607 Co591 2.057 . S
O607 C595 1.232 . S
H608 C627 0.929 . S
H609 C628 0.929 . S
H610 C640 0.931 . S
H611 C632 0.929 . S
H612 C641 0.930 . S
H613 C633 0.931 . S
O614 Co590 2.097 . S
O614 C642 1.214 . S
H615 C643 0.929 . S
H616 C644 0.929 . S
H617 C645 0.930 . S
H618 C646 0.929 . S
H619 C648 0.930 . S
H620 C625 0.930 . S
H621 C629 0.930 . S
O622 Co591 2.037 . S
O622 C642 1.234 . S
C623 O597 1.269 . S
C623 O598 1.257 . S
C624 H599 0.930 . S
C624 C627 1.388 . S
C624 C629 1.418 . S
C625 H620 0.930 . S
C625 C628 1.404 . S
C625 C629 1.353 . S
N626 Co591 2.145 . S
N626 C627 1.397 . S
N626 C628 1.334 . S
C627 H608 0.929 . S
C627 C624 1.388 . S
C627 N626 1.397 . S
C628 H609 0.929 . S
C628 C625 1.404 . S
C628 N626 1.334 . S
C629 H621 0.930 . S
C629 C624 1.418 . S
C629 C625 1.353 . S
C630 H600 0.930 . S
C630 N631 1.330 . S
C630 C632 1.446 . S
N631 Co590 2.151 . S
N631 C630 1.330 . S
N631 C635 1.418 . S
C632 H611 0.929 . S
C632 C630 1.446 . S
C632 C633 1.332 . S
C633 H613 0.931 . S
C633 C632 1.332 . S
C633 C634 1.267 . S
C634 H602 0.929 . S
C634 C633 1.267 . S
C634 C635 1.251 . S
C635 H605 0.929 . S
C635 N631 1.418 . S
C635 C634 1.251 . S
C636 H603 0.930 . S
C636 C638 1.406 . S
C636 C641 1.261 . S
C637 H604 0.930 . S
C637 N639 1.325 . S
C637 C640 1.357 . S
C638 H606 0.928 . S
C638 C636 1.406 . S
C638 N639 1.261 . S
N639 Co590 2.214 . S
N639 C637 1.325 . S
N639 C638 1.261 . S
C640 H610 0.931 . S
C640 C637 1.357 . S
C640 C641 1.312 . S
C641 H612 0.930 . S
C641 C636 1.261 . S
C641 C640 1.312 . S
C642 O614 1.214 . S
C642 O622 1.234 . S
C643 H615 0.929 . S
C643 C646 1.391 . S
C643 C648 1.391 . S
C644 H616 0.929 . S
C644 C645 1.390 . S
C644 N647 1.391 . S
C645 H617 0.930 . S
C645 C644 1.390 . S
C645 C646 1.392 . S
C646 H618 0.929 . S
C646 C643 1.391 . S
C646 C645 1.392 . S
N647 Co591 2.257 . S
N647 C644 1.391 . S
N647 C648 1.388 . S
C648 H619 0.930 . S
C648 C643 1.391 . S
C648 N647 1.388 . S
Co649 O651 2.143 . S
Co649 O657 2.074 . S
Co649 O660 2.093 . S
Co649 O673 2.097 . S
Co649 N690 2.151 . S
Co649 N698 2.214 . S
Co650 O651 2.160 . S
Co650 O656 2.058 . S
Co650 O666 2.057 . S
Co650 O681 2.037 . S
Co650 N685 2.145 . S
Co650 N706 2.257 . S
O651 Co649 2.143 . S
O651 Co650 2.160 . S
C652 O653 1.278 . S
C652 O660 1.224 . S
O653 C652 1.278 . S
C654 O655 1.245 . S
C654 O666 1.232 . S
O655 C654 1.245 . S
O656 Co650 2.058 . S
O656 C682 1.269 . S
O657 Co649 2.074 . S
O657 C682 1.257 . S
H658 C683 0.930 . S
H659 C689 0.930 . S
O660 Co649 2.093 . S
O660 C652 1.224 . S
H661 C693 0.929 . S
H662 C695 0.930 . S
H663 C696 0.930 . S
H664 C694 0.929 . S
H665 C697 0.928 . S
O666 Co650 2.057 . S
O666 C654 1.232 . S
H667 C686 0.929 . S
H668 C687 0.929 . S
H669 C699 0.931 . S
H670 C691 0.929 . S
H671 C700 0.930 . S
H672 C692 0.931 . S
O673 Co649 2.097 . S
O673 C701 1.214 . S
H674 C702 0.929 . S
H675 C703 0.929 . S
H676 C704 0.930 . S
H677 C705 0.929 . S
H678 C707 0.930 . S
H679 C684 0.930 . S
H680 C688 0.930 . S
O681 Co650 2.037 . S
O681 C701 1.234 . S
C682 O656 1.269 . S
C682 O657 1.257 . S
C683 H658 0.930 . S
C683 C686 1.388 . S
C683 C688 1.418 . S
C684 H679 0.930 . S
C684 C687 1.404 . S
C684 C688 1.353 . S
N685 Co650 2.145 . S
N685 C686 1.397 . S
N685 C687 1.334 . S
C686 H667 0.929 . S
C686 C683 1.388 . S
C686 N685 1.397 . S
C687 H668 0.929 . S
C687 C684 1.404 . S
C687 N685 1.334 . S
C688 H680 0.930 . S
C688 C683 1.418 . S
C688 C684 1.353 . S
C689 H659 0.930 . S
C689 N690 1.330 . S
C689 C691 1.446 . S
N690 Co649 2.151 . S
N690 C689 1.330 . S
N690 C694 1.418 . S
C691 H670 0.929 . S
C691 C689 1.446 . S
C691 C692 1.332 . S
C692 H672 0.931 . S
C692 C691 1.332 . S
C692 C693 1.267 . S
C693 H661 0.929 . S
C693 C692 1.267 . S
C693 C694 1.251 . S
C694 H664 0.929 . S
C694 N690 1.418 . S
C694 C693 1.251 . S
C695 H662 0.930 . S
C695 C697 1.406 . S
C695 C700 1.261 . S
C696 H663 0.930 . S
C696 N698 1.325 . S
C696 C699 1.357 . S
C697 H665 0.928 . S
C697 C695 1.406 . S
C697 N698 1.261 . S
N698 Co649 2.214 . S
N698 C696 1.325 . S
N698 C697 1.261 . S
C699 H669 0.931 . S
C699 C696 1.357 . S
C699 C700 1.312 . S
C700 H671 0.930 . S
C700 C695 1.261 . S
C700 C699 1.312 . S
C701 O673 1.214 . S
C701 O681 1.234 . S
C702 H674 0.929 . S
C702 C705 1.391 . S
C702 C707 1.391 . S
C703 H675 0.929 . S
C703 C704 1.390 . S
C703 N706 1.391 . S
C704 H676 0.930 . S
C704 C703 1.390 . S
C704 C705 1.392 . S
C705 H677 0.929 . S
C705 C702 1.391 . S
C705 C704 1.392 . S
N706 Co650 2.257 . S
N706 C703 1.391 . S
N706 C707 1.388 . S
C707 H678 0.930 . S
C707 C702 1.391 . S
C707 N706 1.388 . S
Co708 O710 2.143 . S
Co708 O716 2.074 . S
Co708 O719 2.093 . S
Co708 O732 2.097 . S
Co708 N749 2.151 . S
Co708 N757 2.214 . S
Co709 O710 2.160 . S
Co709 O715 2.058 . S
Co709 O725 2.057 . S
Co709 O740 2.037 . S
Co709 N744 2.145 . S
Co709 N765 2.257 . S
O710 Co708 2.143 . S
O710 Co709 2.160 . S
C711 O712 1.278 . S
C711 O719 1.224 . S
O712 C711 1.278 . S
C713 O714 1.245 . S
C713 O725 1.232 . S
O714 C713 1.245 . S
O715 Co709 2.058 . S
O715 C741 1.269 . S
O716 Co708 2.074 . S
O716 C741 1.257 . S
H717 C742 0.930 . S
H718 C748 0.930 . S
O719 Co708 2.093 . S
O719 C711 1.224 . S
H720 C752 0.929 . S
H721 C754 0.930 . S
H722 C755 0.930 . S
H723 C753 0.929 . S
H724 C756 0.928 . S
O725 Co709 2.057 . S
O725 C713 1.232 . S
H726 C745 0.929 . S
H727 C746 0.929 . S
H728 C758 0.931 . S
H729 C750 0.929 . S
H730 C759 0.930 . S
H731 C751 0.931 . S
O732 Co708 2.097 . S
O732 C760 1.214 . S
H733 C761 0.929 . S
H734 C762 0.929 . S
H735 C763 0.930 . S
H736 C764 0.929 . S
H737 C766 0.930 . S
H738 C743 0.930 . S
H739 C747 0.930 . S
O740 Co709 2.037 . S
O740 C760 1.234 . S
C741 O715 1.269 . S
C741 O716 1.257 . S
C742 H717 0.930 . S
C742 C745 1.388 . S
C742 C747 1.418 . S
C743 H738 0.930 . S
C743 C746 1.404 . S
C743 C747 1.353 . S
N744 Co709 2.145 . S
N744 C745 1.397 . S
N744 C746 1.334 . S
C745 H726 0.929 . S
C745 C742 1.388 . S
C745 N744 1.397 . S
C746 H727 0.929 . S
C746 C743 1.404 . S
C746 N744 1.334 . S
C747 H739 0.930 . S
C747 C742 1.418 . S
C747 C743 1.353 . S
C748 H718 0.930 . S
C748 N749 1.330 . S
C748 C750 1.446 . S
N749 Co708 2.151 . S
N749 C748 1.330 . S
N749 C753 1.418 . S
C750 H729 0.929 . S
C750 C748 1.446 . S
C750 C751 1.332 . S
C751 H731 0.931 . S
C751 C750 1.332 . S
C751 C752 1.267 . S
C752 H720 0.929 . S
C752 C751 1.267 . S
C752 C753 1.251 . S
C753 H723 0.929 . S
C753 N749 1.418 . S
C753 C752 1.251 . S
C754 H721 0.930 . S
C754 C756 1.406 . S
C754 C759 1.261 . S
C755 H722 0.930 . S
C755 N757 1.325 . S
C755 C758 1.357 . S
C756 H724 0.928 . S
C756 C754 1.406 . S
C756 N757 1.261 . S
N757 Co708 2.214 . S
N757 C755 1.325 . S
N757 C756 1.261 . S
C758 H728 0.931 . S
C758 C755 1.357 . S
C758 C759 1.312 . S
C759 H730 0.930 . S
C759 C754 1.261 . S
C759 C758 1.312 . S
C760 O732 1.214 . S
C760 O740 1.234 . S
C761 H733 0.929 . S
C761 C764 1.391 . S
C761 C766 1.391 . S
C762 H734 0.929 . S
C762 C763 1.390 . S
C762 N765 1.391 . S
C763 H735 0.930 . S
C763 C762 1.390 . S
C763 C764 1.392 . S
C764 H736 0.929 . S
C764 C761 1.391 . S
C764 C763 1.392 . S
N765 Co709 2.257 . S
N765 C762 1.391 . S
N765 C766 1.388 . S
C766 H737 0.930 . S
C766 C761 1.391 . S
C766 N765 1.388 . S
Co767 O769 2.143 . S
Co767 O775 2.074 . S
Co767 O778 2.093 . S
Co767 O791 2.097 . S
Co767 N808 2.151 . S
Co767 N816 2.214 . S
Co768 O769 2.160 . S
Co768 O774 2.058 . S
Co768 O784 2.057 . S
Co768 O799 2.037 . S
Co768 N803 2.145 . S
Co768 N824 2.257 . S
O769 Co767 2.143 . S
O769 Co768 2.160 . S
C770 O771 1.278 . S
C770 O778 1.224 . S
O771 C770 1.278 . S
C772 O773 1.245 . S
C772 O784 1.232 . S
O773 C772 1.245 . S
O774 Co768 2.058 . S
O774 C800 1.269 . S
O775 Co767 2.074 . S
O775 C800 1.257 . S
H776 C801 0.930 . S
H777 C807 0.930 . S
O778 Co767 2.093 . S
O778 C770 1.224 . S
H779 C811 0.929 . S
H780 C813 0.930 . S
H781 C814 0.930 . S
H782 C812 0.929 . S
H783 C815 0.928 . S
O784 Co768 2.057 . S
O784 C772 1.232 . S
H785 C804 0.929 . S
H786 C805 0.929 . S
H787 C817 0.931 . S
H788 C809 0.929 . S
H789 C818 0.930 . S
H790 C810 0.931 . S
O791 Co767 2.097 . S
O791 C819 1.214 . S
H792 C820 0.929 . S
H793 C821 0.929 . S
H794 C822 0.930 . S
H795 C823 0.929 . S
H796 C825 0.930 . S
H797 C802 0.930 . S
H798 C806 0.930 . S
O799 Co768 2.037 . S
O799 C819 1.234 . S
C800 O774 1.269 . S
C800 O775 1.257 . S
C801 H776 0.930 . S
C801 C804 1.388 . S
C801 C806 1.418 . S
C802 H797 0.930 . S
C802 C805 1.404 . S
C802 C806 1.353 . S
N803 Co768 2.145 . S
N803 C804 1.397 . S
N803 C805 1.334 . S
C804 H785 0.929 . S
C804 C801 1.388 . S
C804 N803 1.397 . S
C805 H786 0.929 . S
C805 C802 1.404 . S
C805 N803 1.334 . S
C806 H798 0.930 . S
C806 C801 1.418 . S
C806 C802 1.353 . S
C807 H777 0.930 . S
C807 N808 1.330 . S
C807 C809 1.446 . S
N808 Co767 2.151 . S
N808 C807 1.330 . S
N808 C812 1.418 . S
C809 H788 0.929 . S
C809 C807 1.446 . S
C809 C810 1.332 . S
C810 H790 0.931 . S
C810 C809 1.332 . S
C810 C811 1.267 . S
C811 H779 0.929 . S
C811 C810 1.267 . S
C811 C812 1.251 . S
C812 H782 0.929 . S
C812 N808 1.418 . S
C812 C811 1.251 . S
C813 H780 0.930 . S
C813 C815 1.406 . S
C813 C818 1.261 . S
C814 H781 0.930 . S
C814 N816 1.325 . S
C814 C817 1.357 . S
C815 H783 0.928 . S
C815 C813 1.406 . S
C815 N816 1.261 . S
N816 Co767 2.214 . S
N816 C814 1.325 . S
N816 C815 1.261 . S
C817 H787 0.931 . S
C817 C814 1.357 . S
C817 C818 1.312 . S
C818 H789 0.930 . S
C818 C813 1.261 . S
C818 C817 1.312 . S
C819 O791 1.214 . S
C819 O799 1.234 . S
C820 H792 0.929 . S
C820 C823 1.391 . S
C820 C825 1.391 . S
C821 H793 0.929 . S
C821 C822 1.390 . S
C821 N824 1.391 . S
C822 H794 0.930 . S
C822 C821 1.390 . S
C822 C823 1.392 . S
C823 H795 0.929 . S
C823 C820 1.391 . S
C823 C822 1.392 . S
N824 Co768 2.257 . S
N824 C821 1.391 . S
N824 C825 1.388 . S
C825 H796 0.930 . S
C825 C820 1.391 . S
C825 N824 1.388 . S
Co826 O828 2.143 . S
Co826 O834 2.074 . S
Co826 O837 2.093 . S
Co826 O850 2.097 . S
Co826 N867 2.151 . S
Co826 N875 2.214 . S
Co827 O828 2.160 . S
Co827 O833 2.058 . S
Co827 O843 2.057 . S
Co827 O858 2.037 . S
Co827 N862 2.145 . S
Co827 N883 2.257 . S
O828 Co826 2.143 . S
O828 Co827 2.160 . S
C829 O830 1.278 . S
C829 O837 1.224 . S
O830 C829 1.278 . S
C831 O832 1.245 . S
C831 O843 1.232 . S
O832 C831 1.245 . S
O833 Co827 2.058 . S
O833 C859 1.269 . S
O834 Co826 2.074 . S
O834 C859 1.257 . S
H835 C860 0.930 . S
H836 C866 0.930 . S
O837 Co826 2.093 . S
O837 C829 1.224 . S
H838 C870 0.929 . S
H839 C872 0.930 . S
H840 C873 0.930 . S
H841 C871 0.929 . S
H842 C874 0.928 . S
O843 Co827 2.057 . S
O843 C831 1.232 . S
H844 C863 0.929 . S
H845 C864 0.929 . S
H846 C876 0.931 . S
H847 C868 0.929 . S
H848 C877 0.930 . S
H849 C869 0.931 . S
O850 Co826 2.097 . S
O850 C878 1.214 . S
H851 C879 0.929 . S
H852 C880 0.929 . S
H853 C881 0.930 . S
H854 C882 0.929 . S
H855 C884 0.930 . S
H856 C861 0.930 . S
H857 C865 0.930 . S
O858 Co827 2.037 . S
O858 C878 1.234 . S
C859 O833 1.269 . S
C859 O834 1.257 . S
C860 H835 0.930 . S
C860 C863 1.388 . S
C860 C865 1.418 . S
C861 H856 0.930 . S
C861 C864 1.404 . S
C861 C865 1.353 . S
N862 Co827 2.145 . S
N862 C863 1.397 . S
N862 C864 1.334 . S
C863 H844 0.929 . S
C863 C860 1.388 . S
C863 N862 1.397 . S
C864 H845 0.929 . S
C864 C861 1.404 . S
C864 N862 1.334 . S
C865 H857 0.930 . S
C865 C860 1.418 . S
C865 C861 1.353 . S
C866 H836 0.930 . S
C866 N867 1.330 . S
C866 C868 1.446 . S
N867 Co826 2.151 . S
N867 C866 1.330 . S
N867 C871 1.418 . S
C868 H847 0.929 . S
C868 C866 1.446 . S
C868 C869 1.332 . S
C869 H849 0.931 . S
C869 C868 1.332 . S
C869 C870 1.267 . S
C870 H838 0.929 . S
C870 C869 1.267 . S
C870 C871 1.251 . S
C871 H841 0.929 . S
C871 N867 1.418 . S
C871 C870 1.251 . S
C872 H839 0.930 . S
C872 C874 1.406 . S
C872 C877 1.261 . S
C873 H840 0.930 . S
C873 N875 1.325 . S
C873 C876 1.357 . S
C874 H842 0.928 . S
C874 C872 1.406 . S
C874 N875 1.261 . S
N875 Co826 2.214 . S
N875 C873 1.325 . S
N875 C874 1.261 . S
C876 H846 0.931 . S
C876 C873 1.357 . S
C876 C877 1.312 . S
C877 H848 0.930 . S
C877 C872 1.261 . S
C877 C876 1.312 . S
C878 O850 1.214 . S
C878 O858 1.234 . S
C879 H851 0.929 . S
C879 C882 1.391 . S
C879 C884 1.391 . S
C880 H852 0.929 . S
C880 C881 1.390 . S
C880 N883 1.391 . S
C881 H853 0.930 . S
C881 C880 1.390 . S
C881 C882 1.392 . S
C882 H854 0.929 . S
C882 C879 1.391 . S
C882 C881 1.392 . S
N883 Co827 2.257 . S
N883 C880 1.391 . S
N883 C884 1.388 . S
C884 H855 0.930 . S
C884 C879 1.391 . S
C884 N883 1.388 . S
Co885 O887 2.143 . S
Co885 O893 2.074 . S
Co885 O896 2.093 . S
Co885 O909 2.097 . S
Co885 N926 2.151 . S
Co885 N934 2.214 . S
Co886 O887 2.160 . S
Co886 O892 2.058 . S
Co886 O902 2.057 . S
Co886 O917 2.037 . S
Co886 N921 2.145 . S
Co886 N942 2.257 . S
O887 Co885 2.143 . S
O887 Co886 2.160 . S
C888 O889 1.278 . S
C888 O896 1.224 . S
O889 C888 1.278 . S
C890 O891 1.245 . S
C890 O902 1.232 . S
O891 C890 1.245 . S
O892 Co886 2.058 . S
O892 C918 1.269 . S
O893 Co885 2.074 . S
O893 C918 1.257 . S
H894 C919 0.930 . S
H895 C925 0.930 . S
O896 Co885 2.093 . S
O896 C888 1.224 . S
H897 C929 0.929 . S
H898 C931 0.930 . S
H899 C932 0.930 . S
H900 C930 0.929 . S
H901 C933 0.928 . S
O902 Co886 2.057 . S
O902 C890 1.232 . S
H903 C922 0.929 . S
H904 C923 0.929 . S
H905 C935 0.931 . S
H906 C927 0.929 . S
H907 C936 0.930 . S
H908 C928 0.931 . S
O909 Co885 2.097 . S
O909 C937 1.214 . S
H910 C938 0.929 . S
H911 C939 0.929 . S
H912 C940 0.930 . S
H913 C941 0.929 . S
H914 C943 0.930 . S
H915 C920 0.930 . S
H916 C924 0.930 . S
O917 Co886 2.037 . S
O917 C937 1.234 . S
C918 O892 1.269 . S
C918 O893 1.257 . S
C919 H894 0.930 . S
C919 C922 1.388 . S
C919 C924 1.418 . S
C920 H915 0.930 . S
C920 C923 1.404 . S
C920 C924 1.353 . S
N921 Co886 2.145 . S
N921 C922 1.397 . S
N921 C923 1.334 . S
C922 H903 0.929 . S
C922 C919 1.388 . S
C922 N921 1.397 . S
C923 H904 0.929 . S
C923 C920 1.404 . S
C923 N921 1.334 . S
C924 H916 0.930 . S
C924 C919 1.418 . S
C924 C920 1.353 . S
C925 H895 0.930 . S
C925 N926 1.330 . S
C925 C927 1.446 . S
N926 Co885 2.151 . S
N926 C925 1.330 . S
N926 C930 1.418 . S
C927 H906 0.929 . S
C927 C925 1.446 . S
C927 C928 1.332 . S
C928 H908 0.931 . S
C928 C927 1.332 . S
C928 C929 1.267 . S
C929 H897 0.929 . S
C929 C928 1.267 . S
C929 C930 1.251 . S
C930 H900 0.929 . S
C930 N926 1.418 . S
C930 C929 1.251 . S
C931 H898 0.930 . S
C931 C933 1.406 . S
C931 C936 1.261 . S
C932 H899 0.930 . S
C932 N934 1.325 . S
C932 C935 1.357 . S
C933 H901 0.928 . S
C933 C931 1.406 . S
C933 N934 1.261 . S
N934 Co885 2.214 . S
N934 C932 1.325 . S
N934 C933 1.261 . S
C935 H905 0.931 . S
C935 C932 1.357 . S
C935 C936 1.312 . S
C936 H907 0.930 . S
C936 C931 1.261 . S
C936 C935 1.312 . S
C937 O909 1.214 . S
C937 O917 1.234 . S
C938 H910 0.929 . S
C938 C941 1.391 . S
C938 C943 1.391 . S
C939 H911 0.929 . S
C939 C940 1.390 . S
C939 N942 1.391 . S
C940 H912 0.930 . S
C940 C939 1.390 . S
C940 C941 1.392 . S
C941 H913 0.929 . S
C941 C938 1.391 . S
C941 C940 1.392 . S
N942 Co886 2.257 . S
N942 C939 1.391 . S
N942 C943 1.388 . S
C943 H914 0.930 . S
C943 C938 1.391 . S
C943 N942 1.388 . S
Co944 O946 2.143 . S
Co944 O952 2.074 . S
Co944 O955 2.093 . S
Co944 O968 2.097 . S
Co944 N985 2.151 . S
Co944 N993 2.214 . S
Co945 O946 2.160 . S
Co945 O951 2.058 . S
Co945 O961 2.057 . S
Co945 O976 2.037 . S
Co945 N980 2.145 . S
Co945 N1001 2.257 . S
O946 Co944 2.143 . S
O946 Co945 2.160 . S
C947 O948 1.278 . S
C947 O955 1.224 . S
O948 C947 1.278 . S
C949 O950 1.245 . S
C949 O961 1.232 . S
O950 C949 1.245 . S
O951 Co945 2.058 . S
O951 C977 1.269 . S
O952 Co944 2.074 . S
O952 C977 1.257 . S
H953 C978 0.930 . S
H954 C984 0.930 . S
O955 Co944 2.093 . S
O955 C947 1.224 . S
H956 C988 0.929 . S
H957 C990 0.930 . S
H958 C991 0.930 . S
H959 C989 0.929 . S
H960 C992 0.928 . S
O961 Co945 2.057 . S
O961 C949 1.232 . S
H962 C981 0.929 . S
H963 C982 0.929 . S
H964 C994 0.931 . S
H965 C986 0.929 . S
H966 C995 0.930 . S
H967 C987 0.931 . S
O968 Co944 2.097 . S
O968 C996 1.214 . S
H969 C997 0.929 . S
H970 C998 0.929 . S
H971 C999 0.930 . S
H972 C1000 0.929 . S
H973 C1002 0.930 . S
H974 C979 0.930 . S
H975 C983 0.930 . S
O976 Co945 2.037 . S
O976 C996 1.234 . S
C977 O951 1.269 . S
C977 O952 1.257 . S
C978 H953 0.930 . S
C978 C981 1.388 . S
C978 C983 1.418 . S
C979 H974 0.930 . S
C979 C982 1.404 . S
C979 C983 1.353 . S
N980 Co945 2.145 . S
N980 C981 1.397 . S
N980 C982 1.334 . S
C981 H962 0.929 . S
C981 C978 1.388 . S
C981 N980 1.397 . S
C982 H963 0.929 . S
C982 C979 1.404 . S
C982 N980 1.334 . S
C983 H975 0.930 . S
C983 C978 1.418 . S
C983 C979 1.353 . S
C984 H954 0.930 . S
C984 N985 1.330 . S
C984 C986 1.446 . S
N985 Co944 2.151 . S
N985 C984 1.330 . S
N985 C989 1.418 . S
C986 H965 0.929 . S
C986 C984 1.446 . S
C986 C987 1.332 . S
C987 H967 0.931 . S
C987 C986 1.332 . S
C987 C988 1.267 . S
C988 H956 0.929 . S
C988 C987 1.267 . S
C988 C989 1.251 . S
C989 H959 0.929 . S
C989 N985 1.418 . S
C989 C988 1.251 . S
C990 H957 0.930 . S
C990 C992 1.406 . S
C990 C995 1.261 . S
C991 H958 0.930 . S
C991 N993 1.325 . S
C991 C994 1.357 . S
C992 H960 0.928 . S
C992 C990 1.406 . S
C992 N993 1.261 . S
N993 Co944 2.214 . S
N993 C991 1.325 . S
N993 C992 1.261 . S
C994 H964 0.931 . S
C994 C991 1.357 . S
C994 C995 1.312 . S
C995 H966 0.930 . S
C995 C990 1.261 . S
C995 C994 1.312 . S
C996 O968 1.214 . S
C996 O976 1.234 . S
C997 H969 0.929 . S
C997 C1000 1.391 . S
C997 C1002 1.391 . S
C998 H970 0.929 . S
C998 C999 1.390 . S
C998 N1001 1.391 . S
C999 H971 0.930 . S
C999 C998 1.390 . S
C999 C1000 1.392 . S
C1000 H972 0.929 . S
C1000 C997 1.391 . S
C1000 C999 1.392 . S
N1001 Co945 2.257 . S
N1001 C998 1.391 . S
N1001 C1002 1.388 . S
C1002 H973 0.930 . S
C1002 C997 1.391 . S
C1002 N1001 1.388 . S
Co1003 O1005 2.143 . S
Co1003 O1011 2.074 . S
Co1003 O1014 2.093 . S
Co1003 O1027 2.097 . S
Co1003 N1044 2.151 . S
Co1003 N1052 2.214 . S
Co1004 O1005 2.160 . S
Co1004 O1010 2.058 . S
Co1004 O1020 2.057 . S
Co1004 O1035 2.037 . S
Co1004 N1039 2.145 . S
Co1004 N1060 2.257 . S
O1005 Co1003 2.143 . S
O1005 Co1004 2.160 . S
C1006 O1007 1.278 . S
C1006 O1014 1.224 . S
O1007 C1006 1.278 . S
C1008 O1009 1.245 . S
C1008 O1020 1.232 . S
O1009 C1008 1.245 . S
O1010 Co1004 2.058 . S
O1010 C1036 1.269 . S
O1011 Co1003 2.074 . S
O1011 C1036 1.257 . S
H1012 C1037 0.930 . S
H1013 C1043 0.930 . S
O1014 Co1003 2.093 . S
O1014 C1006 1.224 . S
H1015 C1047 0.929 . S
H1016 C1049 0.930 . S
H1017 C1050 0.930 . S
H1018 C1048 0.929 . S
H1019 C1051 0.928 . S
O1020 Co1004 2.057 . S
O1020 C1008 1.232 . S
H1021 C1040 0.929 . S
H1022 C1041 0.929 . S
H1023 C1053 0.931 . S
H1024 C1045 0.929 . S
H1025 C1054 0.930 . S
H1026 C1046 0.931 . S
O1027 Co1003 2.097 . S
O1027 C1055 1.214 . S
H1028 C1056 0.929 . S
H1029 C1057 0.929 . S
H1030 C1058 0.930 . S
H1031 C1059 0.929 . S
H1032 C1061 0.930 . S
H1033 C1038 0.930 . S
H1034 C1042 0.930 . S
O1035 Co1004 2.037 . S
O1035 C1055 1.234 . S
C1036 O1010 1.269 . S
C1036 O1011 1.257 . S
C1037 H1012 0.930 . S
C1037 C1040 1.388 . S
C1037 C1042 1.418 . S
C1038 H1033 0.930 . S
C1038 C1041 1.404 . S
C1038 C1042 1.353 . S
N1039 Co1004 2.145 . S
N1039 C1040 1.397 . S
N1039 C1041 1.334 . S
C1040 H1021 0.929 . S
C1040 C1037 1.388 . S
C1040 N1039 1.397 . S
C1041 H1022 0.929 . S
C1041 C1038 1.404 . S
C1041 N1039 1.334 . S
C1042 H1034 0.930 . S
C1042 C1037 1.418 . S
C1042 C1038 1.353 . S
C1043 H1013 0.930 . S
C1043 N1044 1.330 . S
C1043 C1045 1.446 . S
N1044 Co1003 2.151 . S
N1044 C1043 1.330 . S
N1044 C1048 1.418 . S
C1045 H1024 0.929 . S
C1045 C1043 1.446 . S
C1045 C1046 1.332 . S
C1046 H1026 0.931 . S
C1046 C1045 1.332 . S
C1046 C1047 1.267 . S
C1047 H1015 0.929 . S
C1047 C1046 1.267 . S
C1047 C1048 1.251 . S
C1048 H1018 0.929 . S
C1048 N1044 1.418 . S
C1048 C1047 1.251 . S
C1049 H1016 0.930 . S
C1049 C1051 1.406 . S
C1049 C1054 1.261 . S
C1050 H1017 0.930 . S
C1050 N1052 1.325 . S
C1050 C1053 1.357 . S
C1051 H1019 0.928 . S
C1051 C1049 1.406 . S
C1051 N1052 1.261 . S
N1052 Co1003 2.214 . S
N1052 C1050 1.325 . S
N1052 C1051 1.261 . S
C1053 H1023 0.931 . S
C1053 C1050 1.357 . S
C1053 C1054 1.312 . S
C1054 H1025 0.930 . S
C1054 C1049 1.261 . S
C1054 C1053 1.312 . S
C1055 O1027 1.214 . S
C1055 O1035 1.234 . S
C1056 H1028 0.929 . S
C1056 C1059 1.391 . S
C1056 C1061 1.391 . S
C1057 H1029 0.929 . S
C1057 C1058 1.390 . S
C1057 N1060 1.391 . S
C1058 H1030 0.930 . S
C1058 C1057 1.390 . S
C1058 C1059 1.392 . S
C1059 H1031 0.929 . S
C1059 C1056 1.391 . S
C1059 C1058 1.392 . S
N1060 Co1004 2.257 . S
N1060 C1057 1.391 . S
N1060 C1061 1.388 . S
C1061 H1032 0.930 . S
C1061 C1056 1.391 . S
C1061 N1060 1.388 . S
Co1062 O1064 2.143 . S
Co1062 O1070 2.074 . S
Co1062 O1073 2.093 . S
Co1062 O1086 2.097 . S
Co1062 N1103 2.151 . S
Co1062 N1111 2.214 . S
Co1063 O1064 2.160 . S
Co1063 O1069 2.058 . S
Co1063 O1079 2.057 . S
Co1063 O1094 2.037 . S
Co1063 N1098 2.145 . S
Co1063 N1119 2.257 . S
O1064 Co1062 2.143 . S
O1064 Co1063 2.160 . S
C1065 O1066 1.278 . S
C1065 O1073 1.224 . S
O1066 C1065 1.278 . S
C1067 O1068 1.245 . S
C1067 O1079 1.232 . S
O1068 C1067 1.245 . S
O1069 Co1063 2.058 . S
O1069 C1095 1.269 . S
O1070 Co1062 2.074 . S
O1070 C1095 1.257 . S
H1071 C1096 0.930 . S
H1072 C1102 0.930 . S
O1073 Co1062 2.093 . S
O1073 C1065 1.224 . S
H1074 C1106 0.929 . S
H1075 C1108 0.930 . S
H1076 C1109 0.930 . S
H1077 C1107 0.929 . S
H1078 C1110 0.928 . S
O1079 Co1063 2.057 . S
O1079 C1067 1.232 . S
H1080 C1099 0.929 . S
H1081 C1100 0.929 . S
H1082 C1112 0.931 . S
H1083 C1104 0.929 . S
H1084 C1113 0.930 . S
H1085 C1105 0.931 . S
O1086 Co1062 2.097 . S
O1086 C1114 1.214 . S
H1087 C1115 0.929 . S
H1088 C1116 0.929 . S
H1089 C1117 0.930 . S
H1090 C1118 0.929 . S
H1091 C1120 0.930 . S
H1092 C1097 0.930 . S
H1093 C1101 0.930 . S
O1094 Co1063 2.037 . S
O1094 C1114 1.234 . S
C1095 O1069 1.269 . S
C1095 O1070 1.257 . S
C1096 H1071 0.930 . S
C1096 C1099 1.388 . S
C1096 C1101 1.418 . S
C1097 H1092 0.930 . S
C1097 C1100 1.404 . S
C1097 C1101 1.353 . S
N1098 Co1063 2.145 . S
N1098 C1099 1.397 . S
N1098 C1100 1.334 . S
C1099 H1080 0.929 . S
C1099 C1096 1.388 . S
C1099 N1098 1.397 . S
C1100 H1081 0.929 . S
C1100 C1097 1.404 . S
C1100 N1098 1.334 . S
C1101 H1093 0.930 . S
C1101 C1096 1.418 . S
C1101 C1097 1.353 . S
C1102 H1072 0.930 . S
C1102 N1103 1.330 . S
C1102 C1104 1.446 . S
N1103 Co1062 2.151 . S
N1103 C1102 1.330 . S
N1103 C1107 1.418 . S
C1104 H1083 0.929 . S
C1104 C1102 1.446 . S
C1104 C1105 1.332 . S
C1105 H1085 0.931 . S
C1105 C1104 1.332 . S
C1105 C1106 1.267 . S
C1106 H1074 0.929 . S
C1106 C1105 1.267 . S
C1106 C1107 1.251 . S
C1107 H1077 0.929 . S
C1107 N1103 1.418 . S
C1107 C1106 1.251 . S
C1108 H1075 0.930 . S
C1108 C1110 1.406 . S
C1108 C1113 1.261 . S
C1109 H1076 0.930 . S
C1109 N1111 1.325 . S
C1109 C1112 1.357 . S
C1110 H1078 0.928 . S
C1110 C1108 1.406 . S
C1110 N1111 1.261 . S
N1111 Co1062 2.214 . S
N1111 C1109 1.325 . S
N1111 C1110 1.261 . S
C1112 H1082 0.931 . S
C1112 C1109 1.357 . S
C1112 C1113 1.312 . S
C1113 H1084 0.930 . S
C1113 C1108 1.261 . S
C1113 C1112 1.312 . S
C1114 O1086 1.214 . S
C1114 O1094 1.234 . S
C1115 H1087 0.929 . S
C1115 C1118 1.391 . S
C1115 C1120 1.391 . S
C1116 H1088 0.929 . S
C1116 C1117 1.390 . S
C1116 N1119 1.391 . S
C1117 H1089 0.930 . S
C1117 C1116 1.390 . S
C1117 C1118 1.392 . S
C1118 H1090 0.929 . S
C1118 C1115 1.391 . S
C1118 C1117 1.392 . S
N1119 Co1063 2.257 . S
N1119 C1116 1.391 . S
N1119 C1120 1.388 . S
C1120 H1091 0.930 . S
C1120 C1115 1.391 . S
C1120 N1119 1.388 . S
Co1121 O1123 2.143 . S
Co1121 O1129 2.074 . S
Co1121 O1132 2.093 . S
Co1121 O1145 2.097 . S
Co1121 N1162 2.151 . S
Co1121 N1170 2.214 . S
Co1122 O1123 2.160 . S
Co1122 O1128 2.058 . S
Co1122 O1138 2.057 . S
Co1122 O1153 2.037 . S
Co1122 N1157 2.145 . S
Co1122 N1178 2.257 . S
O1123 Co1121 2.143 . S
O1123 Co1122 2.160 . S
C1124 O1125 1.278 . S
C1124 O1132 1.224 . S
O1125 C1124 1.278 . S
C1126 O1127 1.245 . S
C1126 O1138 1.232 . S
O1127 C1126 1.245 . S
O1128 Co1122 2.058 . S
O1128 C1154 1.269 . S
O1129 Co1121 2.074 . S
O1129 C1154 1.257 . S
H1130 C1155 0.930 . S
H1131 C1161 0.930 . S
O1132 Co1121 2.093 . S
O1132 C1124 1.224 . S
H1133 C1165 0.929 . S
H1134 C1167 0.930 . S
H1135 C1168 0.930 . S
H1136 C1166 0.929 . S
H1137 C1169 0.928 . S
O1138 Co1122 2.057 . S
O1138 C1126 1.232 . S
H1139 C1158 0.929 . S
H1140 C1159 0.929 . S
H1141 C1171 0.931 . S
H1142 C1163 0.929 . S
H1143 C1172 0.930 . S
H1144 C1164 0.931 . S
O1145 Co1121 2.097 . S
O1145 C1173 1.214 . S
H1146 C1174 0.929 . S
H1147 C1175 0.929 . S
H1148 C1176 0.930 . S
H1149 C1177 0.929 . S
H1150 C1179 0.930 . S
H1151 C1156 0.930 . S
H1152 C1160 0.930 . S
O1153 Co1122 2.037 . S
O1153 C1173 1.234 . S
C1154 O1128 1.269 . S
C1154 O1129 1.257 . S
C1155 H1130 0.930 . S
C1155 C1158 1.388 . S
C1155 C1160 1.418 . S
C1156 H1151 0.930 . S
C1156 C1159 1.404 . S
C1156 C1160 1.353 . S
N1157 Co1122 2.145 . S
N1157 C1158 1.397 . S
N1157 C1159 1.334 . S
C1158 H1139 0.929 . S
C1158 C1155 1.388 . S
C1158 N1157 1.397 . S
C1159 H1140 0.929 . S
C1159 C1156 1.404 . S
C1159 N1157 1.334 . S
C1160 H1152 0.930 . S
C1160 C1155 1.418 . S
C1160 C1156 1.353 . S
C1161 H1131 0.930 . S
C1161 N1162 1.330 . S
C1161 C1163 1.446 . S
N1162 Co1121 2.151 . S
N1162 C1161 1.330 . S
N1162 C1166 1.418 . S
C1163 H1142 0.929 . S
C1163 C1161 1.446 . S
C1163 C1164 1.332 . S
C1164 H1144 0.931 . S
C1164 C1163 1.332 . S
C1164 C1165 1.267 . S
C1165 H1133 0.929 . S
C1165 C1164 1.267 . S
C1165 C1166 1.251 . S
C1166 H1136 0.929 . S
C1166 N1162 1.418 . S
C1166 C1165 1.251 . S
C1167 H1134 0.930 . S
C1167 C1169 1.406 . S
C1167 C1172 1.261 . S
C1168 H1135 0.930 . S
C1168 N1170 1.325 . S
C1168 C1171 1.357 . S
C1169 H1137 0.928 . S
C1169 C1167 1.406 . S
C1169 N1170 1.261 . S
N1170 Co1121 2.214 . S
N1170 C1168 1.325 . S
N1170 C1169 1.261 . S
C1171 H1141 0.931 . S
C1171 C1168 1.357 . S
C1171 C1172 1.312 . S
C1172 H1143 0.930 . S
C1172 C1167 1.261 . S
C1172 C1171 1.312 . S
C1173 O1145 1.214 . S
C1173 O1153 1.234 . S
C1174 H1146 0.929 . S
C1174 C1177 1.391 . S
C1174 C1179 1.391 . S
C1175 H1147 0.929 . S
C1175 C1176 1.390 . S
C1175 N1178 1.391 . S
C1176 H1148 0.930 . S
C1176 C1175 1.390 . S
C1176 C1177 1.392 . S
C1177 H1149 0.929 . S
C1177 C1174 1.391 . S
C1177 C1176 1.392 . S
N1178 Co1122 2.257 . S
N1178 C1175 1.391 . S
N1178 C1179 1.388 . S
C1179 H1150 0.930 . S
C1179 C1174 1.391 . S
C1179 N1178 1.388 . S
Co1180 O1182 2.143 . S
Co1180 O1188 2.074 . S
Co1180 O1191 2.093 . S
Co1180 O1204 2.097 . S
Co1180 N1221 2.151 . S
Co1180 N1229 2.214 . S
Co1181 O1182 2.160 . S
Co1181 O1187 2.058 . S
Co1181 O1197 2.057 . S
Co1181 O1212 2.037 . S
Co1181 N1216 2.145 . S
Co1181 N1237 2.257 . S
O1182 Co1180 2.143 . S
O1182 Co1181 2.160 . S
C1183 O1184 1.278 . S
C1183 O1191 1.224 . S
O1184 C1183 1.278 . S
C1185 O1186 1.245 . S
C1185 O1197 1.232 . S
O1186 C1185 1.245 . S
O1187 Co1181 2.058 . S
O1187 C1213 1.269 . S
O1188 Co1180 2.074 . S
O1188 C1213 1.257 . S
H1189 C1214 0.930 . S
H1190 C1220 0.930 . S
O1191 Co1180 2.093 . S
O1191 C1183 1.224 . S
H1192 C1224 0.929 . S
H1193 C1226 0.930 . S
H1194 C1227 0.930 . S
H1195 C1225 0.929 . S
H1196 C1228 0.928 . S
O1197 Co1181 2.057 . S
O1197 C1185 1.232 . S
H1198 C1217 0.929 . S
H1199 C1218 0.929 . S
H1200 C1230 0.931 . S
H1201 C1222 0.929 . S
H1202 C1231 0.930 . S
H1203 C1223 0.931 . S
O1204 Co1180 2.097 . S
O1204 C1232 1.214 . S
H1205 C1233 0.929 . S
H1206 C1234 0.929 . S
H1207 C1235 0.930 . S
H1208 C1236 0.929 . S
H1209 C1238 0.930 . S
H1210 C1215 0.930 . S
H1211 C1219 0.930 . S
O1212 Co1181 2.037 . S
O1212 C1232 1.234 . S
C1213 O1187 1.269 . S
C1213 O1188 1.257 . S
C1214 H1189 0.930 . S
C1214 C1217 1.388 . S
C1214 C1219 1.418 . S
C1215 H1210 0.930 . S
C1215 C1218 1.404 . S
C1215 C1219 1.353 . S
N1216 Co1181 2.145 . S
N1216 C1217 1.397 . S
N1216 C1218 1.334 . S
C1217 H1198 0.929 . S
C1217 C1214 1.388 . S
C1217 N1216 1.397 . S
C1218 H1199 0.929 . S
C1218 C1215 1.404 . S
C1218 N1216 1.334 . S
C1219 H1211 0.930 . S
C1219 C1214 1.418 . S
C1219 C1215 1.353 . S
C1220 H1190 0.930 . S
C1220 N1221 1.330 . S
C1220 C1222 1.446 . S
N1221 Co1180 2.151 . S
N1221 C1220 1.330 . S
N1221 C1225 1.418 . S
C1222 H1201 0.929 . S
C1222 C1220 1.446 . S
C1222 C1223 1.332 . S
C1223 H1203 0.931 . S
C1223 C1222 1.332 . S
C1223 C1224 1.267 . S
C1224 H1192 0.929 . S
C1224 C1223 1.267 . S
C1224 C1225 1.251 . S
C1225 H1195 0.929 . S
C1225 N1221 1.418 . S
C1225 C1224 1.251 . S
C1226 H1193 0.930 . S
C1226 C1228 1.406 . S
C1226 C1231 1.261 . S
C1227 H1194 0.930 . S
C1227 N1229 1.325 . S
C1227 C1230 1.357 . S
C1228 H1196 0.928 . S
C1228 C1226 1.406 . S
C1228 N1229 1.261 . S
N1229 Co1180 2.214 . S
N1229 C1227 1.325 . S
N1229 C1228 1.261 . S
C1230 H1200 0.931 . S
C1230 C1227 1.357 . S
C1230 C1231 1.312 . S
C1231 H1202 0.930 . S
C1231 C1226 1.261 . S
C1231 C1230 1.312 . S
C1232 O1204 1.214 . S
C1232 O1212 1.234 . S
C1233 H1205 0.929 . S
C1233 C1236 1.391 . S
C1233 C1238 1.391 . S
C1234 H1206 0.929 . S
C1234 C1235 1.390 . S
C1234 N1237 1.391 . S
C1235 H1207 0.930 . S
C1235 C1234 1.390 . S
C1235 C1236 1.392 . S
C1236 H1208 0.929 . S
C1236 C1233 1.391 . S
C1236 C1235 1.392 . S
N1237 Co1181 2.257 . S
N1237 C1234 1.391 . S
N1237 C1238 1.388 . S
C1238 H1209 0.930 . S
C1238 C1233 1.391 . S
C1238 N1237 1.388 . S
Co1239 O1241 2.143 . S
Co1239 O1247 2.074 . S
Co1239 O1250 2.093 . S
Co1239 O1263 2.097 . S
Co1239 N1280 2.151 . S
Co1239 N1288 2.214 . S
Co1240 O1241 2.160 . S
Co1240 O1246 2.058 . S
Co1240 O1256 2.057 . S
Co1240 O1271 2.037 . S
Co1240 N1275 2.145 . S
Co1240 N1296 2.257 . S
O1241 Co1239 2.143 . S
O1241 Co1240 2.160 . S
C1242 O1243 1.278 . S
C1242 O1250 1.224 . S
O1243 C1242 1.278 . S
C1244 O1245 1.245 . S
C1244 O1256 1.232 . S
O1245 C1244 1.245 . S
O1246 Co1240 2.058 . S
O1246 C1272 1.269 . S
O1247 Co1239 2.074 . S
O1247 C1272 1.257 . S
H1248 C1273 0.930 . S
H1249 C1279 0.930 . S
O1250 Co1239 2.093 . S
O1250 C1242 1.224 . S
H1251 C1283 0.929 . S
H1252 C1285 0.930 . S
H1253 C1286 0.930 . S
H1254 C1284 0.929 . S
H1255 C1287 0.928 . S
O1256 Co1240 2.057 . S
O1256 C1244 1.232 . S
H1257 C1276 0.929 . S
H1258 C1277 0.929 . S
H1259 C1289 0.931 . S
H1260 C1281 0.929 . S
H1261 C1290 0.930 . S
H1262 C1282 0.931 . S
O1263 Co1239 2.097 . S
O1263 C1291 1.214 . S
H1264 C1292 0.929 . S
H1265 C1293 0.929 . S
H1266 C1294 0.930 . S
H1267 C1295 0.929 . S
H1268 C1297 0.930 . S
H1269 C1274 0.930 . S
H1270 C1278 0.930 . S
O1271 Co1240 2.037 . S
O1271 C1291 1.234 . S
C1272 O1246 1.269 . S
C1272 O1247 1.257 . S
C1273 H1248 0.930 . S
C1273 C1276 1.388 . S
C1273 C1278 1.418 . S
C1274 H1269 0.930 . S
C1274 C1277 1.404 . S
C1274 C1278 1.353 . S
N1275 Co1240 2.145 . S
N1275 C1276 1.397 . S
N1275 C1277 1.334 . S
C1276 H1257 0.929 . S
C1276 C1273 1.388 . S
C1276 N1275 1.397 . S
C1277 H1258 0.929 . S
C1277 C1274 1.404 . S
C1277 N1275 1.334 . S
C1278 H1270 0.930 . S
C1278 C1273 1.418 . S
C1278 C1274 1.353 . S
C1279 H1249 0.930 . S
C1279 N1280 1.330 . S
C1279 C1281 1.446 . S
N1280 Co1239 2.151 . S
N1280 C1279 1.330 . S
N1280 C1284 1.418 . S
C1281 H1260 0.929 . S
C1281 C1279 1.446 . S
C1281 C1282 1.332 . S
C1282 H1262 0.931 . S
C1282 C1281 1.332 . S
C1282 C1283 1.267 . S
C1283 H1251 0.929 . S
C1283 C1282 1.267 . S
C1283 C1284 1.251 . S
C1284 H1254 0.929 . S
C1284 N1280 1.418 . S
C1284 C1283 1.251 . S
C1285 H1252 0.930 . S
C1285 C1287 1.406 . S
C1285 C1290 1.261 . S
C1286 H1253 0.930 . S
C1286 N1288 1.325 . S
C1286 C1289 1.357 . S
C1287 H1255 0.928 . S
C1287 C1285 1.406 . S
C1287 N1288 1.261 . S
N1288 Co1239 2.214 . S
N1288 C1286 1.325 . S
N1288 C1287 1.261 . S
C1289 H1259 0.931 . S
C1289 C1286 1.357 . S
C1289 C1290 1.312 . S
C1290 H1261 0.930 . S
C1290 C1285 1.261 . S
C1290 C1289 1.312 . S
C1291 O1263 1.214 . S
C1291 O1271 1.234 . S
C1292 H1264 0.929 . S
C1292 C1295 1.391 . S
C1292 C1297 1.391 . S
C1293 H1265 0.929 . S
C1293 C1294 1.390 . S
C1293 N1296 1.391 . S
C1294 H1266 0.930 . S
C1294 C1293 1.390 . S
C1294 C1295 1.392 . S
C1295 H1267 0.929 . S
C1295 C1292 1.391 . S
C1295 C1294 1.392 . S
N1296 Co1240 2.257 . S
N1296 C1293 1.391 . S
N1296 C1297 1.388 . S
C1297 H1268 0.930 . S
C1297 C1292 1.391 . S
C1297 N1296 1.388 . S
Co1298 O1300 2.143 . S
Co1298 O1306 2.074 . S
Co1298 O1309 2.093 . S
Co1298 O1322 2.097 . S
Co1298 N1339 2.151 . S
Co1298 N1347 2.214 . S
Co1299 O1300 2.160 . S
Co1299 O1305 2.058 . S
Co1299 O1315 2.057 . S
Co1299 O1330 2.037 . S
Co1299 N1334 2.145 . S
Co1299 N1355 2.257 . S
O1300 Co1298 2.143 . S
O1300 Co1299 2.160 . S
C1301 O1302 1.278 . S
C1301 O1309 1.224 . S
O1302 C1301 1.278 . S
C1303 O1304 1.245 . S
C1303 O1315 1.232 . S
O1304 C1303 1.245 . S
O1305 Co1299 2.058 . S
O1305 C1331 1.269 . S
O1306 Co1298 2.074 . S
O1306 C1331 1.257 . S
H1307 C1332 0.930 . S
H1308 C1338 0.930 . S
O1309 Co1298 2.093 . S
O1309 C1301 1.224 . S
H1310 C1342 0.929 . S
H1311 C1344 0.930 . S
H1312 C1345 0.930 . S
H1313 C1343 0.929 . S
H1314 C1346 0.928 . S
O1315 Co1299 2.057 . S
O1315 C1303 1.232 . S
H1316 C1335 0.929 . S
H1317 C1336 0.929 . S
H1318 C1348 0.931 . S
H1319 C1340 0.929 . S
H1320 C1349 0.930 . S
H1321 C1341 0.931 . S
O1322 Co1298 2.097 . S
O1322 C1350 1.214 . S
H1323 C1351 0.929 . S
H1324 C1352 0.929 . S
H1325 C1353 0.930 . S
H1326 C1354 0.929 . S
H1327 C1356 0.930 . S
H1328 C1333 0.930 . S
H1329 C1337 0.930 . S
O1330 Co1299 2.037 . S
O1330 C1350 1.234 . S
C1331 O1305 1.269 . S
C1331 O1306 1.257 . S
C1332 H1307 0.930 . S
C1332 C1335 1.388 . S
C1332 C1337 1.418 . S
C1333 H1328 0.930 . S
C1333 C1336 1.404 . S
C1333 C1337 1.353 . S
N1334 Co1299 2.145 . S
N1334 C1335 1.397 . S
N1334 C1336 1.334 . S
C1335 H1316 0.929 . S
C1335 C1332 1.388 . S
C1335 N1334 1.397 . S
C1336 H1317 0.929 . S
C1336 C1333 1.404 . S
C1336 N1334 1.334 . S
C1337 H1329 0.930 . S
C1337 C1332 1.418 . S
C1337 C1333 1.353 . S
C1338 H1308 0.930 . S
C1338 N1339 1.330 . S
C1338 C1340 1.446 . S
N1339 Co1298 2.151 . S
N1339 C1338 1.330 . S
N1339 C1343 1.418 . S
C1340 H1319 0.929 . S
C1340 C1338 1.446 . S
C1340 C1341 1.332 . S
C1341 H1321 0.931 . S
C1341 C1340 1.332 . S
C1341 C1342 1.267 . S
C1342 H1310 0.929 . S
C1342 C1341 1.267 . S
C1342 C1343 1.251 . S
C1343 H1313 0.929 . S
C1343 N1339 1.418 . S
C1343 C1342 1.251 . S
C1344 H1311 0.930 . S
C1344 C1346 1.406 . S
C1344 C1349 1.261 . S
C1345 H1312 0.930 . S
C1345 N1347 1.325 . S
C1345 C1348 1.357 . S
C1346 H1314 0.928 . S
C1346 C1344 1.406 . S
C1346 N1347 1.261 . S
N1347 Co1298 2.214 . S
N1347 C1345 1.325 . S
N1347 C1346 1.261 . S
C1348 H1318 0.931 . S
C1348 C1345 1.357 . S
C1348 C1349 1.312 . S
C1349 H1320 0.930 . S
C1349 C1344 1.261 . S
C1349 C1348 1.312 . S
C1350 O1322 1.214 . S
C1350 O1330 1.234 . S
C1351 H1323 0.929 . S
C1351 C1354 1.391 . S
C1351 C1356 1.391 . S
C1352 H1324 0.929 . S
C1352 C1353 1.390 . S
C1352 N1355 1.391 . S
C1353 H1325 0.930 . S
C1353 C1352 1.390 . S
C1353 C1354 1.392 . S
C1354 H1326 0.929 . S
C1354 C1351 1.391 . S
C1354 C1353 1.392 . S
N1355 Co1299 2.257 . S
N1355 C1352 1.391 . S
N1355 C1356 1.388 . S
C1356 H1327 0.930 . S
C1356 C1351 1.391 . S
C1356 N1355 1.388 . S
Co1357 O1359 2.143 . S
Co1357 O1365 2.074 . S
Co1357 O1368 2.093 . S
Co1357 O1381 2.097 . S
Co1357 N1398 2.151 . S
Co1357 N1406 2.214 . S
Co1358 O1359 2.160 . S
Co1358 O1364 2.058 . S
Co1358 O1374 2.057 . S
Co1358 O1389 2.037 . S
Co1358 N1393 2.145 . S
Co1358 N1414 2.257 . S
O1359 Co1357 2.143 . S
O1359 Co1358 2.160 . S
C1360 O1361 1.278 . S
C1360 O1368 1.224 . S
O1361 C1360 1.278 . S
C1362 O1363 1.245 . S
C1362 O1374 1.232 . S
O1363 C1362 1.245 . S
O1364 Co1358 2.058 . S
O1364 C1390 1.269 . S
O1365 Co1357 2.074 . S
O1365 C1390 1.257 . S
H1366 C1391 0.930 . S
H1367 C1397 0.930 . S
O1368 Co1357 2.093 . S
O1368 C1360 1.224 . S
H1369 C1401 0.929 . S
H1370 C1403 0.930 . S
H1371 C1404 0.930 . S
H1372 C1402 0.929 . S
H1373 C1405 0.928 . S
O1374 Co1358 2.057 . S
O1374 C1362 1.232 . S
H1375 C1394 0.929 . S
H1376 C1395 0.929 . S
H1377 C1407 0.931 . S
H1378 C1399 0.929 . S
H1379 C1408 0.930 . S
H1380 C1400 0.931 . S
O1381 Co1357 2.097 . S
O1381 C1409 1.214 . S
H1382 C1410 0.929 . S
H1383 C1411 0.929 . S
H1384 C1412 0.930 . S
H1385 C1413 0.929 . S
H1386 C1415 0.930 . S
H1387 C1392 0.930 . S
H1388 C1396 0.930 . S
O1389 Co1358 2.037 . S
O1389 C1409 1.234 . S
C1390 O1364 1.269 . S
C1390 O1365 1.257 . S
C1391 H1366 0.930 . S
C1391 C1394 1.388 . S
C1391 C1396 1.418 . S
C1392 H1387 0.930 . S
C1392 C1395 1.404 . S
C1392 C1396 1.353 . S
N1393 Co1358 2.145 . S
N1393 C1394 1.397 . S
N1393 C1395 1.334 . S
C1394 H1375 0.929 . S
C1394 C1391 1.388 . S
C1394 N1393 1.397 . S
C1395 H1376 0.929 . S
C1395 C1392 1.404 . S
C1395 N1393 1.334 . S
C1396 H1388 0.930 . S
C1396 C1391 1.418 . S
C1396 C1392 1.353 . S
C1397 H1367 0.930 . S
C1397 N1398 1.330 . S
C1397 C1399 1.446 . S
N1398 Co1357 2.151 . S
N1398 C1397 1.330 . S
N1398 C1402 1.418 . S
C1399 H1378 0.929 . S
C1399 C1397 1.446 . S
C1399 C1400 1.332 . S
C1400 H1380 0.931 . S
C1400 C1399 1.332 . S
C1400 C1401 1.267 . S
C1401 H1369 0.929 . S
C1401 C1400 1.267 . S
C1401 C1402 1.251 . S
C1402 H1372 0.929 . S
C1402 N1398 1.418 . S
C1402 C1401 1.251 . S
C1403 H1370 0.930 . S
C1403 C1405 1.406 . S
C1403 C1408 1.261 . S
C1404 H1371 0.930 . S
C1404 N1406 1.325 . S
C1404 C1407 1.357 . S
C1405 H1373 0.928 . S
C1405 C1403 1.406 . S
C1405 N1406 1.261 . S
N1406 Co1357 2.214 . S
N1406 C1404 1.325 . S
N1406 C1405 1.261 . S
C1407 H1377 0.931 . S
C1407 C1404 1.357 . S
C1407 C1408 1.312 . S
C1408 H1379 0.930 . S
C1408 C1403 1.261 . S
C1408 C1407 1.312 . S
C1409 O1381 1.214 . S
C1409 O1389 1.234 . S
C1410 H1382 0.929 . S
C1410 C1413 1.391 . S
C1410 C1415 1.391 . S
C1411 H1383 0.929 . S
C1411 C1412 1.390 . S
C1411 N1414 1.391 . S
C1412 H1384 0.930 . S
C1412 C1411 1.390 . S
C1412 C1413 1.392 . S
C1413 H1385 0.929 . S
C1413 C1410 1.391 . S
C1413 C1412 1.392 . S
N1414 Co1358 2.257 . S
N1414 C1411 1.391 . S
N1414 C1415 1.388 . S
C1415 H1386 0.930 . S
C1415 C1410 1.391 . S
C1415 N1414 1.388 . S
C1416 C1417 1.349 . S
C1416 C1418 1.327 . S
C1416 H1441 0.950 . S
C1417 C1416 1.349 . S
C1417 C1433 1.349 . S
C1418 C1416 1.327 . S
C1418 C1437 1.429 . S
C1418 H1442 0.950 . S
C1419 C1436 1.574 . S
C1419 C1438 1.368 . S
C1419 H1443 0.949 . S
H1420 C1424 0.949 . S
C1421 C1422 1.349 . S
C1421 C1423 1.327 . S
C1421 H1444 0.950 . S
C1422 C1421 1.349 . S
C1422 C1434 1.349 . S
C1423 C1421 1.327 . S
C1423 C1439 1.429 . S
C1423 H1445 0.950 . S
C1424 H1420 0.949 . S
C1424 C1432 1.574 . S
C1424 C1440 1.368 . S
H1425 C1433 0.950 . S
H1426 C1431 0.950 . S
H1427 C1432 0.949 . S
H1428 C1434 0.950 . S
H1429 C1435 0.950 . S
H1430 C1436 0.949 . S
C1431 H1426 0.950 . S
C1431 C1433 1.327 . S
C1431 C1437 1.429 . S
C1432 C1424 1.574 . S
C1432 H1427 0.949 . S
C1432 C1438 1.368 . S
C1433 C1417 1.349 . S
C1433 H1425 0.950 . S
C1433 C1431 1.327 . S
C1434 C1422 1.349 . S
C1434 H1428 0.950 . S
C1434 C1435 1.327 . S
C1435 H1429 0.950 . S
C1435 C1434 1.327 . S
C1435 C1439 1.429 . S
C1436 C1419 1.574 . S
C1436 H1430 0.949 . S
C1436 C1440 1.368 . S
C1437 C1418 1.429 . S
C1437 C1431 1.429 . S
C1437 C1438 1.523 . S
C1438 C1419 1.368 . S
C1438 C1432 1.368 . S
C1438 C1437 1.523 . S
C1439 C1423 1.429 . S
C1439 C1435 1.429 . S
C1439 C1440 1.523 . S
C1440 C1424 1.368 . S
C1440 C1436 1.368 . S
C1440 C1439 1.523 . S
H1441 C1416 0.950 . S
H1442 C1418 0.950 . S
H1443 C1419 0.949 . S
H1444 C1421 0.950 . S
H1445 C1423 0.950 . S
C1446 C1447 1.349 . S
C1446 C1448 1.327 . S
C1446 H1471 0.950 . S
C1447 C1446 1.349 . S
C1447 C1463 1.349 . S
C1448 C1446 1.327 . S
C1448 C1467 1.429 . S
C1448 H1472 0.950 . S
C1449 C1466 1.574 . S
C1449 C1468 1.368 . S
C1449 H1473 0.949 . S
H1450 C1454 0.949 . S
C1451 C1452 1.349 . S
C1451 C1453 1.327 . S
C1451 H1474 0.950 . S
C1452 C1451 1.349 . S
C1452 C1464 1.349 . S
C1453 C1451 1.327 . S
C1453 C1469 1.429 . S
C1453 H1475 0.950 . S
C1454 H1450 0.949 . S
C1454 C1462 1.574 . S
C1454 C1470 1.368 . S
H1455 C1463 0.950 . S
H1456 C1461 0.950 . S
H1457 C1462 0.949 . S
H1458 C1464 0.950 . S
H1459 C1465 0.950 . S
H1460 C1466 0.949 . S
C1461 H1456 0.950 . S
C1461 C1463 1.327 . S
C1461 C1467 1.429 . S
C1462 C1454 1.574 . S
C1462 H1457 0.949 . S
C1462 C1468 1.368 . S
C1463 C1447 1.349 . S
C1463 H1455 0.950 . S
C1463 C1461 1.327 . S
C1464 C1452 1.349 . S
C1464 H1458 0.950 . S
C1464 C1465 1.327 . S
C1465 H1459 0.950 . S
C1465 C1464 1.327 . S
C1465 C1469 1.429 . S
C1466 C1449 1.574 . S
C1466 H1460 0.949 . S
C1466 C1470 1.368 . S
C1467 C1448 1.429 . S
C1467 C1461 1.429 . S
C1467 C1468 1.523 . S
C1468 C1449 1.368 . S
C1468 C1462 1.368 . S
C1468 C1467 1.523 . S
C1469 C1453 1.429 . S
C1469 C1465 1.429 . S
C1469 C1470 1.523 . S
C1470 C1454 1.368 . S
C1470 C1466 1.368 . S
C1470 C1469 1.523 . S
H1471 C1446 0.950 . S
H1472 C1448 0.950 . S
H1473 C1449 0.949 . S
H1474 C1451 0.950 . S
H1475 C1453 0.950 . S
C1476 C1477 1.349 . S
C1476 C1478 1.327 . S
C1476 H1501 0.950 . S
C1477 C1476 1.349 . S
C1477 C1493 1.349 . S
C1478 C1476 1.327 . S
C1478 C1497 1.429 . S
C1478 H1502 0.950 . S
C1479 C1496 1.574 . S
C1479 C1498 1.368 . S
C1479 H1503 0.949 . S
H1480 C1484 0.949 . S
C1481 C1482 1.349 . S
C1481 C1483 1.327 . S
C1481 H1504 0.950 . S
C1482 C1481 1.349 . S
C1482 C1494 1.349 . S
C1483 C1481 1.327 . S
C1483 C1499 1.429 . S
C1483 H1505 0.950 . S
C1484 H1480 0.949 . S
C1484 C1492 1.574 . S
C1484 C1500 1.368 . S
H1485 C1493 0.950 . S
H1486 C1491 0.950 . S
H1487 C1492 0.949 . S
H1488 C1494 0.950 . S
H1489 C1495 0.950 . S
H1490 C1496 0.949 . S
C1491 H1486 0.950 . S
C1491 C1493 1.327 . S
C1491 C1497 1.429 . S
C1492 C1484 1.574 . S
C1492 H1487 0.949 . S
C1492 C1498 1.368 . S
C1493 C1477 1.349 . S
C1493 H1485 0.950 . S
C1493 C1491 1.327 . S
C1494 C1482 1.349 . S
C1494 H1488 0.950 . S
C1494 C1495 1.327 . S
C1495 H1489 0.950 . S
C1495 C1494 1.327 . S
C1495 C1499 1.429 . S
C1496 C1479 1.574 . S
C1496 H1490 0.949 . S
C1496 C1500 1.368 . S
C1497 C1478 1.429 . S
C1497 C1491 1.429 . S
C1497 C1498 1.523 . S
C1498 C1479 1.368 . S
C1498 C1492 1.368 . S
C1498 C1497 1.523 . S
C1499 C1483 1.429 . S
C1499 C1495 1.429 . S
C1499 C1500 1.523 . S
C1500 C1484 1.368 . S
C1500 C1496 1.368 . S
C1500 C1499 1.523 . S
H1501 C1476 0.950 . S
H1502 C1478 0.950 . S
H1503 C1479 0.949 . S
H1504 C1481 0.950 . S
H1505 C1483 0.950 . S
C1506 C1507 1.349 . S
C1506 C1508 1.327 . S
C1506 H1531 0.950 . S
C1507 C1506 1.349 . S
C1507 C1523 1.349 . S
C1508 C1506 1.327 . S
C1508 C1527 1.429 . S
C1508 H1532 0.950 . S
C1509 C1526 1.574 . S
C1509 C1528 1.368 . S
C1509 H1533 0.949 . S
H1510 C1514 0.949 . S
C1511 C1512 1.349 . S
C1511 C1513 1.327 . S
C1511 H1534 0.950 . S
C1512 C1511 1.349 . S
C1512 C1524 1.349 . S
C1513 C1511 1.327 . S
C1513 C1529 1.429 . S
C1513 H1535 0.950 . S
C1514 H1510 0.949 . S
C1514 C1522 1.574 . S
C1514 C1530 1.368 . S
H1515 C1523 0.950 . S
H1516 C1521 0.950 . S
H1517 C1522 0.949 . S
H1518 C1524 0.950 . S
H1519 C1525 0.950 . S
H1520 C1526 0.949 . S
C1521 H1516 0.950 . S
C1521 C1523 1.327 . S
C1521 C1527 1.429 . S
C1522 C1514 1.574 . S
C1522 H1517 0.949 . S
C1522 C1528 1.368 . S
C1523 C1507 1.349 . S
C1523 H1515 0.950 . S
C1523 C1521 1.327 . S
C1524 C1512 1.349 . S
C1524 H1518 0.950 . S
C1524 C1525 1.327 . S
C1525 H1519 0.950 . S
C1525 C1524 1.327 . S
C1525 C1529 1.429 . S
C1526 C1509 1.574 . S
C1526 H1520 0.949 . S
C1526 C1530 1.368 . S
C1527 C1508 1.429 . S
C1527 C1521 1.429 . S
C1527 C1528 1.523 . S
C1528 C1509 1.368 . S
C1528 C1522 1.368 . S
C1528 C1527 1.523 . S
C1529 C1513 1.429 . S
C1529 C1525 1.429 . S
C1529 C1530 1.523 . S
C1530 C1514 1.368 . S
C1530 C1526 1.368 . S
C1530 C1529 1.523 . S
H1531 C1506 0.950 . S
H1532 C1508 0.950 . S
H1533 C1509 0.949 . S
H1534 C1511 0.950 . S
H1535 C1513 0.950 . S
C1536 C1537 1.349 . S
C1536 C1538 1.327 . S
C1536 H1561 0.950 . S
C1537 C1536 1.349 . S
C1537 C1553 1.349 . S
C1538 C1536 1.327 . S
C1538 C1557 1.429 . S
C1538 H1562 0.950 . S
C1539 C1556 1.574 . S
C1539 C1558 1.368 . S
C1539 H1563 0.949 . S
H1540 C1544 0.949 . S
C1541 C1542 1.349 . S
C1541 C1543 1.327 . S
C1541 H1564 0.950 . S
C1542 C1541 1.349 . S
C1542 C1554 1.349 . S
C1543 C1541 1.327 . S
C1543 C1559 1.429 . S
C1543 H1565 0.950 . S
C1544 H1540 0.949 . S
C1544 C1552 1.574 . S
C1544 C1560 1.368 . S
H1545 C1553 0.950 . S
H1546 C1551 0.950 . S
H1547 C1552 0.949 . S
H1548 C1554 0.950 . S
H1549 C1555 0.950 . S
H1550 C1556 0.949 . S
C1551 H1546 0.950 . S
C1551 C1553 1.327 . S
C1551 C1557 1.429 . S
C1552 C1544 1.574 . S
C1552 H1547 0.949 . S
C1552 C1558 1.368 . S
C1553 C1537 1.349 . S
C1553 H1545 0.950 . S
C1553 C1551 1.327 . S
C1554 C1542 1.349 . S
C1554 H1548 0.950 . S
C1554 C1555 1.327 . S
C1555 H1549 0.950 . S
C1555 C1554 1.327 . S
C1555 C1559 1.429 . S
C1556 C1539 1.574 . S
C1556 H1550 0.949 . S
C1556 C1560 1.368 . S
C1557 C1538 1.429 . S
C1557 C1551 1.429 . S
C1557 C1558 1.523 . S
C1558 C1539 1.368 . S
C1558 C1552 1.368 . S
C1558 C1557 1.523 . S
C1559 C1543 1.429 . S
C1559 C1555 1.429 . S
C1559 C1560 1.523 . S
C1560 C1544 1.368 . S
C1560 C1556 1.368 . S
C1560 C1559 1.523 . S
H1561 C1536 0.950 . S
H1562 C1538 0.950 . S
H1563 C1539 0.949 . S
H1564 C1541 0.950 . S
H1565 C1543 0.950 . S
C1566 C1567 1.349 . S
C1566 C1568 1.327 . S
C1566 H1591 0.950 . S
C1567 C1566 1.349 . S
C1567 C1583 1.349 . S
C1568 C1566 1.327 . S
C1568 C1587 1.429 . S
C1568 H1592 0.950 . S
C1569 C1586 1.574 . S
C1569 C1588 1.368 . S
C1569 H1593 0.949 . S
H1570 C1574 0.949 . S
C1571 C1572 1.349 . S
C1571 C1573 1.327 . S
C1571 H1594 0.950 . S
C1572 C1571 1.349 . S
C1572 C1584 1.349 . S
C1573 C1571 1.327 . S
C1573 C1589 1.429 . S
C1573 H1595 0.950 . S
C1574 H1570 0.949 . S
C1574 C1582 1.574 . S
C1574 C1590 1.368 . S
H1575 C1583 0.950 . S
H1576 C1581 0.950 . S
H1577 C1582 0.949 . S
H1578 C1584 0.950 . S
H1579 C1585 0.950 . S
H1580 C1586 0.949 . S
C1581 H1576 0.950 . S
C1581 C1583 1.327 . S
C1581 C1587 1.429 . S
C1582 C1574 1.574 . S
C1582 H1577 0.949 . S
C1582 C1588 1.368 . S
C1583 C1567 1.349 . S
C1583 H1575 0.950 . S
C1583 C1581 1.327 . S
C1584 C1572 1.349 . S
C1584 H1578 0.950 . S
C1584 C1585 1.327 . S
C1585 H1579 0.950 . S
C1585 C1584 1.327 . S
C1585 C1589 1.429 . S
C1586 C1569 1.574 . S
C1586 H1580 0.949 . S
C1586 C1590 1.368 . S
C1587 C1568 1.429 . S
C1587 C1581 1.429 . S
C1587 C1588 1.523 . S
C1588 C1569 1.368 . S
C1588 C1582 1.368 . S
C1588 C1587 1.523 . S
C1589 C1573 1.429 . S
C1589 C1585 1.429 . S
C1589 C1590 1.523 . S
C1590 C1574 1.368 . S
C1590 C1586 1.368 . S
C1590 C1589 1.523 . S
H1591 C1566 0.950 . S
H1592 C1568 0.950 . S
H1593 C1569 0.949 . S
H1594 C1571 0.950 . S
H1595 C1573 0.950 . S
C1596 C1597 1.349 . S
C1596 C1598 1.327 . S
C1596 H1621 0.950 . S
C1597 C1596 1.349 . S
C1597 C1613 1.349 . S
C1598 C1596 1.327 . S
C1598 C1617 1.429 . S
C1598 H1622 0.950 . S
C1599 C1616 1.574 . S
C1599 C1618 1.368 . S
C1599 H1623 0.949 . S
H1600 C1604 0.949 . S
C1601 C1602 1.349 . S
C1601 C1603 1.327 . S
C1601 H1624 0.950 . S
C1602 C1601 1.349 . S
C1602 C1614 1.349 . S
C1603 C1601 1.327 . S
C1603 C1619 1.429 . S
C1603 H1625 0.950 . S
C1604 H1600 0.949 . S
C1604 C1612 1.574 . S
C1604 C1620 1.368 . S
H1605 C1613 0.950 . S
H1606 C1611 0.950 . S
H1607 C1612 0.949 . S
H1608 C1614 0.950 . S
H1609 C1615 0.950 . S
H1610 C1616 0.949 . S
C1611 H1606 0.950 . S
C1611 C1613 1.327 . S
C1611 C1617 1.429 . S
C1612 C1604 1.574 . S
C1612 H1607 0.949 . S
C1612 C1618 1.368 . S
C1613 C1597 1.349 . S
C1613 H1605 0.950 . S
C1613 C1611 1.327 . S
C1614 C1602 1.349 . S
C1614 H1608 0.950 . S
C1614 C1615 1.327 . S
C1615 H1609 0.950 . S
C1615 C1614 1.327 . S
C1615 C1619 1.429 . S
C1616 C1599 1.574 . S
C1616 H1610 0.949 . S
C1616 C1620 1.368 . S
C1617 C1598 1.429 . S
C1617 C1611 1.429 . S
C1617 C1618 1.523 . S
C1618 C1599 1.368 . S
C1618 C1612 1.368 . S
C1618 C1617 1.523 . S
C1619 C1603 1.429 . S
C1619 C1615 1.429 . S
C1619 C1620 1.523 . S
C1620 C1604 1.368 . S
C1620 C1616 1.368 . S
C1620 C1619 1.523 . S
H1621 C1596 0.950 . S
H1622 C1598 0.950 . S
H1623 C1599 0.949 . S
H1624 C1601 0.950 . S
H1625 C1603 0.950 . S
C1626 C1627 1.349 . S
C1626 C1628 1.327 . S
C1626 H1651 0.950 . S
C1627 C1626 1.349 . S
C1627 C1643 1.349 . S
C1628 C1626 1.327 . S
C1628 C1647 1.429 . S
C1628 H1652 0.950 . S
C1629 C1646 1.574 . S
C1629 C1648 1.368 . S
C1629 H1653 0.949 . S
H1630 C1634 0.949 . S
C1631 C1632 1.349 . S
C1631 C1633 1.327 . S
C1631 H1654 0.950 . S
C1632 C1631 1.349 . S
C1632 C1644 1.349 . S
C1633 C1631 1.327 . S
C1633 C1649 1.429 . S
C1633 H1655 0.950 . S
C1634 H1630 0.949 . S
C1634 C1642 1.574 . S
C1634 C1650 1.368 . S
H1635 C1643 0.950 . S
H1636 C1641 0.950 . S
H1637 C1642 0.949 . S
H1638 C1644 0.950 . S
H1639 C1645 0.950 . S
H1640 C1646 0.949 . S
C1641 H1636 0.950 . S
C1641 C1643 1.327 . S
C1641 C1647 1.429 . S
C1642 C1634 1.574 . S
C1642 H1637 0.949 . S
C1642 C1648 1.368 . S
C1643 C1627 1.349 . S
C1643 H1635 0.950 . S
C1643 C1641 1.327 . S
C1644 C1632 1.349 . S
C1644 H1638 0.950 . S
C1644 C1645 1.327 . S
C1645 H1639 0.950 . S
C1645 C1644 1.327 . S
C1645 C1649 1.429 . S
C1646 C1629 1.574 . S
C1646 H1640 0.949 . S
C1646 C1650 1.368 . S
C1647 C1628 1.429 . S
C1647 C1641 1.429 . S
C1647 C1648 1.523 . S
C1648 C1629 1.368 . S
C1648 C1642 1.368 . S
C1648 C1647 1.523 . S
C1649 C1633 1.429 . S
C1649 C1645 1.429 . S
C1649 C1650 1.523 . S
C1650 C1634 1.368 . S
C1650 C1646 1.368 . S
C1650 C1649 1.523 . S
H1651 C1626 0.950 . S
H1652 C1628 0.950 . S
H1653 C1629 0.949 . S
H1654 C1631 0.950 . S
H1655 C1633 0.950 . S
C1656 C1657 1.349 . S
C1656 C1658 1.327 . S
C1656 H1681 0.950 . S
C1657 C1656 1.349 . S
C1657 C1673 1.349 . S
C1658 C1656 1.327 . S
C1658 C1677 1.429 . S
C1658 H1682 0.950 . S
C1659 C1676 1.574 . S
C1659 C1678 1.368 . S
C1659 H1683 0.949 . S
H1660 C1664 0.949 . S
C1661 C1662 1.349 . S
C1661 C1663 1.327 . S
C1661 H1684 0.950 . S
C1662 C1661 1.349 . S
C1662 C1674 1.349 . S
C1663 C1661 1.327 . S
C1663 C1679 1.429 . S
C1663 H1685 0.950 . S
C1664 H1660 0.949 . S
C1664 C1672 1.574 . S
C1664 C1680 1.368 . S
H1665 C1673 0.950 . S
H1666 C1671 0.950 . S
H1667 C1672 0.949 . S
H1668 C1674 0.950 . S
H1669 C1675 0.950 . S
H1670 C1676 0.949 . S
C1671 H1666 0.950 . S
C1671 C1673 1.327 . S
C1671 C1677 1.429 . S
C1672 C1664 1.574 . S
C1672 H1667 0.949 . S
C1672 C1678 1.368 . S
C1673 C1657 1.349 . S
C1673 H1665 0.950 . S
C1673 C1671 1.327 . S
C1674 C1662 1.349 . S
C1674 H1668 0.950 . S
C1674 C1675 1.327 . S
C1675 H1669 0.950 . S
C1675 C1674 1.327 . S
C1675 C1679 1.429 . S
C1676 C1659 1.574 . S
C1676 H1670 0.949 . S
C1676 C1680 1.368 . S
C1677 C1658 1.429 . S
C1677 C1671 1.429 . S
C1677 C1678 1.523 . S
C1678 C1659 1.368 . S
C1678 C1672 1.368 . S
C1678 C1677 1.523 . S
C1679 C1663 1.429 . S
C1679 C1675 1.429 . S
C1679 C1680 1.523 . S
C1680 C1664 1.368 . S
C1680 C1676 1.368 . S
C1680 C1679 1.523 . S
H1681 C1656 0.950 . S
H1682 C1658 0.950 . S
H1683 C1659 0.949 . S
H1684 C1661 0.950 . S
H1685 C1663 0.950 . S
C1686 C1687 1.349 . S
C1686 C1688 1.327 . S
C1686 H1711 0.950 . S
C1687 C1686 1.349 . S
C1687 C1703 1.349 . S
C1688 C1686 1.327 . S
C1688 C1707 1.429 . S
C1688 H1712 0.950 . S
C1689 C1706 1.574 . S
C1689 C1708 1.368 . S
C1689 H1713 0.949 . S
H1690 C1694 0.949 . S
C1691 C1692 1.349 . S
C1691 C1693 1.327 . S
C1691 H1714 0.950 . S
C1692 C1691 1.349 . S
C1692 C1704 1.349 . S
C1693 C1691 1.327 . S
C1693 C1709 1.429 . S
C1693 H1715 0.950 . S
C1694 H1690 0.949 . S
C1694 C1702 1.574 . S
C1694 C1710 1.368 . S
H1695 C1703 0.950 . S
H1696 C1701 0.950 . S
H1697 C1702 0.949 . S
H1698 C1704 0.950 . S
H1699 C1705 0.950 . S
H1700 C1706 0.949 . S
C1701 H1696 0.950 . S
C1701 C1703 1.327 . S
C1701 C1707 1.429 . S
C1702 C1694 1.574 . S
C1702 H1697 0.949 . S
C1702 C1708 1.368 . S
C1703 C1687 1.349 . S
C1703 H1695 0.950 . S
C1703 C1701 1.327 . S
C1704 C1692 1.349 . S
C1704 H1698 0.950 . S
C1704 C1705 1.327 . S
C1705 H1699 0.950 . S
C1705 C1704 1.327 . S
C1705 C1709 1.429 . S
C1706 C1689 1.574 . S
C1706 H1700 0.949 . S
C1706 C1710 1.368 . S
C1707 C1688 1.429 . S
C1707 C1701 1.429 . S
C1707 C1708 1.523 . S
C1708 C1689 1.368 . S
C1708 C1702 1.368 . S
C1708 C1707 1.523 . S
C1709 C1693 1.429 . S
C1709 C1705 1.429 . S
C1709 C1710 1.523 . S
C1710 C1694 1.368 . S
C1710 C1706 1.368 . S
C1710 C1709 1.523 . S
H1711 C1686 0.950 . S
H1712 C1688 0.950 . S
H1713 C1689 0.949 . S
H1714 C1691 0.950 . S
H1715 C1693 0.950 . S
C1716 C1717 1.349 . S
C1716 C1718 1.327 . S
C1716 H1741 0.950 . S
C1717 C1716 1.349 . S
C1717 C1733 1.349 . S
C1718 C1716 1.327 . S
C1718 C1737 1.429 . S
C1718 H1742 0.950 . S
C1719 C1736 1.574 . S
C1719 C1738 1.368 . S
C1719 H1743 0.949 . S
H1720 C1724 0.949 . S
C1721 C1722 1.349 . S
C1721 C1723 1.327 . S
C1721 H1744 0.950 . S
C1722 C1721 1.349 . S
C1722 C1734 1.349 . S
C1723 C1721 1.327 . S
C1723 C1739 1.429 . S
C1723 H1745 0.950 . S
C1724 H1720 0.949 . S
C1724 C1732 1.574 . S
C1724 C1740 1.368 . S
H1725 C1733 0.950 . S
H1726 C1731 0.950 . S
H1727 C1732 0.949 . S
H1728 C1734 0.950 . S
H1729 C1735 0.950 . S
H1730 C1736 0.949 . S
C1731 H1726 0.950 . S
C1731 C1733 1.327 . S
C1731 C1737 1.429 . S
C1732 C1724 1.574 . S
C1732 H1727 0.949 . S
C1732 C1738 1.368 . S
C1733 C1717 1.349 . S
C1733 H1725 0.950 . S
C1733 C1731 1.327 . S
C1734 C1722 1.349 . S
C1734 H1728 0.950 . S
C1734 C1735 1.327 . S
C1735 H1729 0.950 . S
C1735 C1734 1.327 . S
C1735 C1739 1.429 . S
C1736 C1719 1.574 . S
C1736 H1730 0.949 . S
C1736 C1740 1.368 . S
C1737 C1718 1.429 . S
C1737 C1731 1.429 . S
C1737 C1738 1.523 . S
C1738 C1719 1.368 . S
C1738 C1732 1.368 . S
C1738 C1737 1.523 . S
C1739 C1723 1.429 . S
C1739 C1735 1.429 . S
C1739 C1740 1.523 . S
C1740 C1724 1.368 . S
C1740 C1736 1.368 . S
C1740 C1739 1.523 . S
H1741 C1716 0.950 . S
H1742 C1718 0.950 . S
H1743 C1719 0.949 . S
H1744 C1721 0.950 . S
H1745 C1723 0.950 . S
C1746 C1747 1.349 . S
C1746 C1748 1.327 . S
C1746 H1771 0.950 . S
C1747 C1746 1.349 . S
C1747 C1763 1.349 . S
C1748 C1746 1.327 . S
C1748 C1767 1.429 . S
C1748 H1772 0.950 . S
C1749 C1766 1.574 . S
C1749 C1768 1.368 . S
C1749 H1773 0.949 . S
H1750 C1754 0.949 . S
C1751 C1752 1.349 . S
C1751 C1753 1.327 . S
C1751 H1774 0.950 . S
C1752 C1751 1.349 . S
C1752 C1764 1.349 . S
C1753 C1751 1.327 . S
C1753 C1769 1.429 . S
C1753 H1775 0.950 . S
C1754 H1750 0.949 . S
C1754 C1762 1.574 . S
C1754 C1770 1.368 . S
H1755 C1763 0.950 . S
H1756 C1761 0.950 . S
H1757 C1762 0.949 . S
H1758 C1764 0.950 . S
H1759 C1765 0.950 . S
H1760 C1766 0.949 . S
C1761 H1756 0.950 . S
C1761 C1763 1.327 . S
C1761 C1767 1.429 . S
C1762 C1754 1.574 . S
C1762 H1757 0.949 . S
C1762 C1768 1.368 . S
C1763 C1747 1.349 . S
C1763 H1755 0.950 . S
C1763 C1761 1.327 . S
C1764 C1752 1.349 . S
C1764 H1758 0.950 . S
C1764 C1765 1.327 . S
C1765 H1759 0.950 . S
C1765 C1764 1.327 . S
C1765 C1769 1.429 . S
C1766 C1749 1.574 . S
C1766 H1760 0.949 . S
C1766 C1770 1.368 . S
C1767 C1748 1.429 . S
C1767 C1761 1.429 . S
C1767 C1768 1.523 . S
C1768 C1749 1.368 . S
C1768 C1762 1.368 . S
C1768 C1767 1.523 . S
C1769 C1753 1.429 . S
C1769 C1765 1.429 . S
C1769 C1770 1.523 . S
C1770 C1754 1.368 . S
C1770 C1766 1.368 . S
C1770 C1769 1.523 . S
H1771 C1746 0.950 . S
H1772 C1748 0.950 . S
H1773 C1749 0.949 . S
H1774 C1751 0.950 . S
H1775 C1753 0.950 . S
C1776 C1777 1.349 . S
C1776 C1778 1.327 . S
C1776 H1801 0.950 . S
C1777 C1776 1.349 . S
C1777 C1793 1.349 . S
C1778 C1776 1.327 . S
C1778 C1797 1.429 . S
C1778 H1802 0.950 . S
C1779 C1796 1.574 . S
C1779 C1798 1.368 . S
C1779 H1803 0.949 . S
H1780 C1784 0.949 . S
C1781 C1782 1.349 . S
C1781 C1783 1.327 . S
C1781 H1804 0.950 . S
C1782 C1781 1.349 . S
C1782 C1794 1.349 . S
C1783 C1781 1.327 . S
C1783 C1799 1.429 . S
C1783 H1805 0.950 . S
C1784 H1780 0.949 . S
C1784 C1792 1.574 . S
C1784 C1800 1.368 . S
H1785 C1793 0.950 . S
H1786 C1791 0.950 . S
H1787 C1792 0.949 . S
H1788 C1794 0.950 . S
H1789 C1795 0.950 . S
H1790 C1796 0.949 . S
C1791 H1786 0.950 . S
C1791 C1793 1.327 . S
C1791 C1797 1.429 . S
C1792 C1784 1.574 . S
C1792 H1787 0.949 . S
C1792 C1798 1.368 . S
C1793 C1777 1.349 . S
C1793 H1785 0.950 . S
C1793 C1791 1.327 . S
C1794 C1782 1.349 . S
C1794 H1788 0.950 . S
C1794 C1795 1.327 . S
C1795 H1789 0.950 . S
C1795 C1794 1.327 . S
C1795 C1799 1.429 . S
C1796 C1779 1.574 . S
C1796 H1790 0.949 . S
C1796 C1800 1.368 . S
C1797 C1778 1.429 . S
C1797 C1791 1.429 . S
C1797 C1798 1.523 . S
C1798 C1779 1.368 . S
C1798 C1792 1.368 . S
C1798 C1797 1.523 . S
C1799 C1783 1.429 . S
C1799 C1795 1.429 . S
C1799 C1800 1.523 . S
C1800 C1784 1.368 . S
C1800 C1796 1.368 . S
C1800 C1799 1.523 . S
H1801 C1776 0.950 . S
H1802 C1778 0.950 . S
H1803 C1779 0.949 . S
H1804 C1781 0.950 . S
H1805 C1783 0.950 . S
C1806 C1807 1.349 . S
C1806 C1808 1.327 . S
C1806 H1831 0.950 . S
C1807 C1806 1.349 . S
C1807 C1823 1.349 . S
C1808 C1806 1.327 . S
C1808 C1827 1.429 . S
C1808 H1832 0.950 . S
C1809 C1826 1.574 . S
C1809 C1828 1.368 . S
C1809 H1833 0.949 . S
H1810 C1814 0.949 . S
C1811 C1812 1.349 . S
C1811 C1813 1.327 . S
C1811 H1834 0.950 . S
C1812 C1811 1.349 . S
C1812 C1824 1.349 . S
C1813 C1811 1.327 . S
C1813 C1829 1.429 . S
C1813 H1835 0.950 . S
C1814 H1810 0.949 . S
C1814 C1822 1.574 . S
C1814 C1830 1.368 . S
H1815 C1823 0.950 . S
H1816 C1821 0.950 . S
H1817 C1822 0.949 . S
H1818 C1824 0.950 . S
H1819 C1825 0.950 . S
H1820 C1826 0.949 . S
C1821 H1816 0.950 . S
C1821 C1823 1.327 . S
C1821 C1827 1.429 . S
C1822 C1814 1.574 . S
C1822 H1817 0.949 . S
C1822 C1828 1.368 . S
C1823 C1807 1.349 . S
C1823 H1815 0.950 . S
C1823 C1821 1.327 . S
C1824 C1812 1.349 . S
C1824 H1818 0.950 . S
C1824 C1825 1.327 . S
C1825 H1819 0.950 . S
C1825 C1824 1.327 . S
C1825 C1829 1.429 . S
C1826 C1809 1.574 . S
C1826 H1820 0.949 . S
C1826 C1830 1.368 . S
C1827 C1808 1.429 . S
C1827 C1821 1.429 . S
C1827 C1828 1.523 . S
C1828 C1809 1.368 . S
C1828 C1822 1.368 . S
C1828 C1827 1.523 . S
C1829 C1813 1.429 . S
C1829 C1825 1.429 . S
C1829 C1830 1.523 . S
C1830 C1814 1.368 . S
C1830 C1826 1.368 . S
C1830 C1829 1.523 . S
H1831 C1806 0.950 . S
H1832 C1808 0.950 . S
H1833 C1809 0.949 . S
H1834 C1811 0.950 . S
H1835 C1813 0.950 . S
C1836 C1837 1.349 . S
C1836 C1838 1.327 . S
C1836 H1861 0.950 . S
C1837 C1836 1.349 . S
C1837 C1853 1.349 . S
C1838 C1836 1.327 . S
C1838 C1857 1.429 . S
C1838 H1862 0.950 . S
C1839 C1856 1.574 . S
C1839 C1858 1.368 . S
C1839 H1863 0.949 . S
H1840 C1844 0.949 . S
C1841 C1842 1.349 . S
C1841 C1843 1.327 . S
C1841 H1864 0.950 . S
C1842 C1841 1.349 . S
C1842 C1854 1.349 . S
C1843 C1841 1.327 . S
C1843 C1859 1.429 . S
C1843 H1865 0.950 . S
C1844 H1840 0.949 . S
C1844 C1852 1.574 . S
C1844 C1860 1.368 . S
H1845 C1853 0.950 . S
H1846 C1851 0.950 . S
H1847 C1852 0.949 . S
H1848 C1854 0.950 . S
H1849 C1855 0.950 . S
H1850 C1856 0.949 . S
C1851 H1846 0.950 . S
C1851 C1853 1.327 . S
C1851 C1857 1.429 . S
C1852 C1844 1.574 . S
C1852 H1847 0.949 . S
C1852 C1858 1.368 . S
C1853 C1837 1.349 . S
C1853 H1845 0.950 . S
C1853 C1851 1.327 . S
C1854 C1842 1.349 . S
C1854 H1848 0.950 . S
C1854 C1855 1.327 . S
C1855 H1849 0.950 . S
C1855 C1854 1.327 . S
C1855 C1859 1.429 . S
C1856 C1839 1.574 . S
C1856 H1850 0.949 . S
C1856 C1860 1.368 . S
C1857 C1838 1.429 . S
C1857 C1851 1.429 . S
C1857 C1858 1.523 . S
C1858 C1839 1.368 . S
C1858 C1852 1.368 . S
C1858 C1857 1.523 . S
C1859 C1843 1.429 . S
C1859 C1855 1.429 . S
C1859 C1860 1.523 . S
C1860 C1844 1.368 . S
C1860 C1856 1.368 . S
C1860 C1859 1.523 . S
H1861 C1836 0.950 . S
H1862 C1838 0.950 . S
H1863 C1839 0.949 . S
H1864 C1841 0.950 . S
H1865 C1843 0.950 . S
C1866 C1867 1.349 . S
C1866 C1868 1.327 . S
C1866 H1891 0.950 . S
C1867 C1866 1.349 . S
C1867 C1883 1.349 . S
C1868 C1866 1.327 . S
C1868 C1887 1.429 . S
C1868 H1892 0.950 . S
C1869 C1886 1.574 . S
C1869 C1888 1.368 . S
C1869 H1893 0.949 . S
H1870 C1874 0.949 . S
C1871 C1872 1.349 . S
C1871 C1873 1.327 . S
C1871 H1894 0.950 . S
C1872 C1871 1.349 . S
C1872 C1884 1.349 . S
C1873 C1871 1.327 . S
C1873 C1889 1.429 . S
C1873 H1895 0.950 . S
C1874 H1870 0.949 . S
C1874 C1882 1.574 . S
C1874 C1890 1.368 . S
H1875 C1883 0.950 . S
H1876 C1881 0.950 . S
H1877 C1882 0.949 . S
H1878 C1884 0.950 . S
H1879 C1885 0.950 . S
H1880 C1886 0.949 . S
C1881 H1876 0.950 . S
C1881 C1883 1.327 . S
C1881 C1887 1.429 . S
C1882 C1874 1.574 . S
C1882 H1877 0.949 . S
C1882 C1888 1.368 . S
C1883 C1867 1.349 . S
C1883 H1875 0.950 . S
C1883 C1881 1.327 . S
C1884 C1872 1.349 . S
C1884 H1878 0.950 . S
C1884 C1885 1.327 . S
C1885 H1879 0.950 . S
C1885 C1884 1.327 . S
C1885 C1889 1.429 . S
C1886 C1869 1.574 . S
C1886 H1880 0.949 . S
C1886 C1890 1.368 . S
C1887 C1868 1.429 . S
C1887 C1881 1.429 . S
C1887 C1888 1.523 . S
C1888 C1869 1.368 . S
C1888 C1882 1.368 . S
C1888 C1887 1.523 . S
C1889 C1873 1.429 . S
C1889 C1885 1.429 . S
C1889 C1890 1.523 . S
C1890 C1874 1.368 . S
C1890 C1886 1.368 . S
C1890 C1889 1.523 . S
H1891 C1866 0.950 . S
H1892 C1868 0.950 . S
H1893 C1869 0.949 . S
H1894 C1871 0.950 . S
H1895 C1873 0.950 . S
C1896 C1897 1.349 . S
C1896 C1898 1.327 . S
C1896 H1921 0.950 . S
C1897 C1896 1.349 . S
C1897 C1913 1.349 . S
C1898 C1896 1.327 . S
C1898 C1917 1.429 . S
C1898 H1922 0.950 . S
C1899 C1916 1.574 . S
C1899 C1918 1.368 . S
C1899 H1923 0.949 . S
H1900 C1904 0.949 . S
C1901 C1902 1.349 . S
C1901 C1903 1.327 . S
C1901 H1924 0.950 . S
C1902 C1901 1.349 . S
C1902 C1914 1.349 . S
C1903 C1901 1.327 . S
C1903 C1919 1.429 . S
C1903 H1925 0.950 . S
C1904 H1900 0.949 . S
C1904 C1912 1.574 . S
C1904 C1920 1.368 . S
H1905 C1913 0.950 . S
H1906 C1911 0.950 . S
H1907 C1912 0.949 . S
H1908 C1914 0.950 . S
H1909 C1915 0.950 . S
H1910 C1916 0.949 . S
C1911 H1906 0.950 . S
C1911 C1913 1.327 . S
C1911 C1917 1.429 . S
C1912 C1904 1.574 . S
C1912 H1907 0.949 . S
C1912 C1918 1.368 . S
C1913 C1897 1.349 . S
C1913 H1905 0.950 . S
C1913 C1911 1.327 . S
C1914 C1902 1.349 . S
C1914 H1908 0.950 . S
C1914 C1915 1.327 . S
C1915 H1909 0.950 . S
C1915 C1914 1.327 . S
C1915 C1919 1.429 . S
C1916 C1899 1.574 . S
C1916 H1910 0.949 . S
C1916 C1920 1.368 . S
C1917 C1898 1.429 . S
C1917 C1911 1.429 . S
C1917 C1918 1.523 . S
C1918 C1899 1.368 . S
C1918 C1912 1.368 . S
C1918 C1917 1.523 . S
C1919 C1903 1.429 . S
C1919 C1915 1.429 . S
C1919 C1920 1.523 . S
C1920 C1904 1.368 . S
C1920 C1916 1.368 . S
C1920 C1919 1.523 . S
H1921 C1896 0.950 . S
H1922 C1898 0.950 . S
H1923 C1899 0.949 . S
H1924 C1901 0.950 . S
H1925 C1903 0.950 . S
C1926 C1927 1.349 . S
C1926 C1928 1.327 . S
C1926 H1951 0.950 . S
C1927 C1926 1.349 . S
C1927 C1943 1.349 . S
C1928 C1926 1.327 . S
C1928 C1947 1.429 . S
C1928 H1952 0.950 . S
C1929 C1946 1.574 . S
C1929 C1948 1.368 . S
C1929 H1953 0.949 . S
H1930 C1934 0.949 . S
C1931 C1932 1.349 . S
C1931 C1933 1.327 . S
C1931 H1954 0.950 . S
C1932 C1931 1.349 . S
C1932 C1944 1.349 . S
C1933 C1931 1.327 . S
C1933 C1949 1.429 . S
C1933 H1955 0.950 . S
C1934 H1930 0.949 . S
C1934 C1942 1.574 . S
C1934 C1950 1.368 . S
H1935 C1943 0.950 . S
H1936 C1941 0.950 . S
H1937 C1942 0.949 . S
H1938 C1944 0.950 . S
H1939 C1945 0.950 . S
H1940 C1946 0.949 . S
C1941 H1936 0.950 . S
C1941 C1943 1.327 . S
C1941 C1947 1.429 . S
C1942 C1934 1.574 . S
C1942 H1937 0.949 . S
C1942 C1948 1.368 . S
C1943 C1927 1.349 . S
C1943 H1935 0.950 . S
C1943 C1941 1.327 . S
C1944 C1932 1.349 . S
C1944 H1938 0.950 . S
C1944 C1945 1.327 . S
C1945 H1939 0.950 . S
C1945 C1944 1.327 . S
C1945 C1949 1.429 . S
C1946 C1929 1.574 . S
C1946 H1940 0.949 . S
C1946 C1950 1.368 . S
C1947 C1928 1.429 . S
C1947 C1941 1.429 . S
C1947 C1948 1.523 . S
C1948 C1929 1.368 . S
C1948 C1942 1.368 . S
C1948 C1947 1.523 . S
C1949 C1933 1.429 . S
C1949 C1945 1.429 . S
C1949 C1950 1.523 . S
C1950 C1934 1.368 . S
C1950 C1946 1.368 . S
C1950 C1949 1.523 . S
H1951 C1926 0.950 . S
H1952 C1928 0.950 . S
H1953 C1929 0.949 . S
H1954 C1931 0.950 . S
H1955 C1933 0.950 . S
C1956 C1957 1.349 . S
C1956 C1958 1.327 . S
C1956 H1981 0.950 . S
C1957 C1956 1.349 . S
C1957 C1973 1.349 . S
C1958 C1956 1.327 . S
C1958 C1977 1.429 . S
C1958 H1982 0.950 . S
C1959 C1976 1.574 . S
C1959 C1978 1.368 . S
C1959 H1983 0.949 . S
H1960 C1964 0.949 . S
C1961 C1962 1.349 . S
C1961 C1963 1.327 . S
C1961 H1984 0.950 . S
C1962 C1961 1.349 . S
C1962 C1974 1.349 . S
C1963 C1961 1.327 . S
C1963 C1979 1.429 . S
C1963 H1985 0.950 . S
C1964 H1960 0.949 . S
C1964 C1972 1.574 . S
C1964 C1980 1.368 . S
H1965 C1973 0.950 . S
H1966 C1971 0.950 . S
H1967 C1972 0.949 . S
H1968 C1974 0.950 . S
H1969 C1975 0.950 . S
H1970 C1976 0.949 . S
C1971 H1966 0.950 . S
C1971 C1973 1.327 . S
C1971 C1977 1.429 . S
C1972 C1964 1.574 . S
C1972 H1967 0.949 . S
C1972 C1978 1.368 . S
C1973 C1957 1.349 . S
C1973 H1965 0.950 . S
C1973 C1971 1.327 . S
C1974 C1962 1.349 . S
C1974 H1968 0.950 . S
C1974 C1975 1.327 . S
C1975 H1969 0.950 . S
C1975 C1974 1.327 . S
C1975 C1979 1.429 . S
C1976 C1959 1.574 . S
C1976 H1970 0.949 . S
C1976 C1980 1.368 . S
C1977 C1958 1.429 . S
C1977 C1971 1.429 . S
C1977 C1978 1.523 . S
C1978 C1959 1.368 . S
C1978 C1972 1.368 . S
C1978 C1977 1.523 . S
C1979 C1963 1.429 . S
C1979 C1975 1.429 . S
C1979 C1980 1.523 . S
C1980 C1964 1.368 . S
C1980 C1976 1.368 . S
C1980 C1979 1.523 . S
H1981 C1956 0.950 . S
H1982 C1958 0.950 . S
H1983 C1959 0.949 . S
H1984 C1961 0.950 . S
H1985 C1963 0.950 . S
C1986 C1987 1.349 . S
C1986 C1988 1.327 . S
C1986 H2011 0.950 . S
C1987 C1986 1.349 . S
C1987 C2003 1.349 . S
C1988 C1986 1.327 . S
C1988 C2007 1.429 . S
C1988 H2012 0.950 . S
C1989 C2006 1.574 . S
C1989 C2008 1.368 . S
C1989 H2013 0.949 . S
H1990 C1994 0.949 . S
C1991 C1992 1.349 . S
C1991 C1993 1.327 . S
C1991 H2014 0.950 . S
C1992 C1991 1.349 . S
C1992 C2004 1.349 . S
C1993 C1991 1.327 . S
C1993 C2009 1.429 . S
C1993 H2015 0.950 . S
C1994 H1990 0.949 . S
C1994 C2002 1.574 . S
C1994 C2010 1.368 . S
H1995 C2003 0.950 . S
H1996 C2001 0.950 . S
H1997 C2002 0.949 . S
H1998 C2004 0.950 . S
H1999 C2005 0.950 . S
H2000 C2006 0.949 . S
C2001 H1996 0.950 . S
C2001 C2003 1.327 . S
C2001 C2007 1.429 . S
C2002 C1994 1.574 . S
C2002 H1997 0.949 . S
C2002 C2008 1.368 . S
C2003 C1987 1.349 . S
C2003 H1995 0.950 . S
C2003 C2001 1.327 . S
C2004 C1992 1.349 . S
C2004 H1998 0.950 . S
C2004 C2005 1.327 . S
C2005 H1999 0.950 . S
C2005 C2004 1.327 . S
C2005 C2009 1.429 . S
C2006 C1989 1.574 . S
C2006 H2000 0.949 . S
C2006 C2010 1.368 . S
C2007 C1988 1.429 . S
C2007 C2001 1.429 . S
C2007 C2008 1.523 . S
C2008 C1989 1.368 . S
C2008 C2002 1.368 . S
C2008 C2007 1.523 . S
C2009 C1993 1.429 . S
C2009 C2005 1.429 . S
C2009 C2010 1.523 . S
C2010 C1994 1.368 . S
C2010 C2006 1.368 . S
C2010 C2009 1.523 . S
H2011 C1986 0.950 . S
H2012 C1988 0.950 . S
H2013 C1989 0.949 . S
H2014 C1991 0.950 . S
H2015 C1993 0.950 . S
C2016 C2017 1.349 . S
C2016 C2018 1.327 . S
C2016 H2041 0.950 . S
C2017 C2016 1.349 . S
C2017 C2033 1.349 . S
C2018 C2016 1.327 . S
C2018 C2037 1.429 . S
C2018 H2042 0.950 . S
C2019 C2036 1.574 . S
C2019 C2038 1.368 . S
C2019 H2043 0.949 . S
H2020 C2024 0.949 . S
C2021 C2022 1.349 . S
C2021 C2023 1.327 . S
C2021 H2044 0.950 . S
C2022 C2021 1.349 . S
C2022 C2034 1.349 . S
C2023 C2021 1.327 . S
C2023 C2039 1.429 . S
C2023 H2045 0.950 . S
C2024 H2020 0.949 . S
C2024 C2032 1.574 . S
C2024 C2040 1.368 . S
H2025 C2033 0.950 . S
H2026 C2031 0.950 . S
H2027 C2032 0.949 . S
H2028 C2034 0.950 . S
H2029 C2035 0.950 . S
H2030 C2036 0.949 . S
C2031 H2026 0.950 . S
C2031 C2033 1.327 . S
C2031 C2037 1.429 . S
C2032 C2024 1.574 . S
C2032 H2027 0.949 . S
C2032 C2038 1.368 . S
C2033 C2017 1.349 . S
C2033 H2025 0.950 . S
C2033 C2031 1.327 . S
C2034 C2022 1.349 . S
C2034 H2028 0.950 . S
C2034 C2035 1.327 . S
C2035 H2029 0.950 . S
C2035 C2034 1.327 . S
C2035 C2039 1.429 . S
C2036 C2019 1.574 . S
C2036 H2030 0.949 . S
C2036 C2040 1.368 . S
C2037 C2018 1.429 . S
C2037 C2031 1.429 . S
C2037 C2038 1.523 . S
C2038 C2019 1.368 . S
C2038 C2032 1.368 . S
C2038 C2037 1.523 . S
C2039 C2023 1.429 . S
C2039 C2035 1.429 . S
C2039 C2040 1.523 . S
C2040 C2024 1.368 . S
C2040 C2036 1.368 . S
C2040 C2039 1.523 . S
H2041 C2016 0.950 . S
H2042 C2018 0.950 . S
H2043 C2019 0.949 . S
H2044 C2021 0.950 . S
H2045 C2023 0.950 . S
C2046 C2047 1.349 . S
C2046 C2048 1.327 . S
C2046 H2071 0.950 . S
C2047 C2046 1.349 . S
C2047 C2063 1.349 . S
C2048 C2046 1.327 . S
C2048 C2067 1.429 . S
C2048 H2072 0.950 . S
C2049 C2066 1.574 . S
C2049 C2068 1.368 . S
C2049 H2073 0.949 . S
H2050 C2054 0.949 . S
C2051 C2052 1.349 . S
C2051 C2053 1.327 . S
C2051 H2074 0.950 . S
C2052 C2051 1.349 . S
C2052 C2064 1.349 . S
C2053 C2051 1.327 . S
C2053 C2069 1.429 . S
C2053 H2075 0.950 . S
C2054 H2050 0.949 . S
C2054 C2062 1.574 . S
C2054 C2070 1.368 . S
H2055 C2063 0.950 . S
H2056 C2061 0.950 . S
H2057 C2062 0.949 . S
H2058 C2064 0.950 . S
H2059 C2065 0.950 . S
H2060 C2066 0.949 . S
C2061 H2056 0.950 . S
C2061 C2063 1.327 . S
C2061 C2067 1.429 . S
C2062 C2054 1.574 . S
C2062 H2057 0.949 . S
C2062 C2068 1.368 . S
C2063 C2047 1.349 . S
C2063 H2055 0.950 . S
C2063 C2061 1.327 . S
C2064 C2052 1.349 . S
C2064 H2058 0.950 . S
C2064 C2065 1.327 . S
C2065 H2059 0.950 . S
C2065 C2064 1.327 . S
C2065 C2069 1.429 . S
C2066 C2049 1.574 . S
C2066 H2060 0.949 . S
C2066 C2070 1.368 . S
C2067 C2048 1.429 . S
C2067 C2061 1.429 . S
C2067 C2068 1.523 . S
C2068 C2049 1.368 . S
C2068 C2062 1.368 . S
C2068 C2067 1.523 . S
C2069 C2053 1.429 . S
C2069 C2065 1.429 . S
C2069 C2070 1.523 . S
C2070 C2054 1.368 . S
C2070 C2066 1.368 . S
C2070 C2069 1.523 . S
H2071 C2046 0.950 . S
H2072 C2048 0.950 . S
H2073 C2049 0.949 . S
H2074 C2051 0.950 . S
H2075 C2053 0.950 . S
C2076 C2077 1.349 . S
C2076 C2078 1.327 . S
C2076 H2101 0.950 . S
C2077 C2076 1.349 . S
C2077 C2093 1.349 . S
C2078 C2076 1.327 . S
C2078 C2097 1.429 . S
C2078 H2102 0.950 . S
C2079 C2096 1.574 . S
C2079 C2098 1.368 . S
C2079 H2103 0.949 . S
H2080 C2084 0.949 . S
C2081 C2082 1.349 . S
C2081 C2083 1.327 . S
C2081 H2104 0.950 . S
C2082 C2081 1.349 . S
C2082 C2094 1.349 . S
C2083 C2081 1.327 . S
C2083 C2099 1.429 . S
C2083 H2105 0.950 . S
C2084 H2080 0.949 . S
C2084 C2092 1.574 . S
C2084 C2100 1.368 . S
H2085 C2093 0.950 . S
H2086 C2091 0.950 . S
H2087 C2092 0.949 . S
H2088 C2094 0.950 . S
H2089 C2095 0.950 . S
H2090 C2096 0.949 . S
C2091 H2086 0.950 . S
C2091 C2093 1.327 . S
C2091 C2097 1.429 . S
C2092 C2084 1.574 . S
C2092 H2087 0.949 . S
C2092 C2098 1.368 . S
C2093 C2077 1.349 . S
C2093 H2085 0.950 . S
C2093 C2091 1.327 . S
C2094 C2082 1.349 . S
C2094 H2088 0.950 . S
C2094 C2095 1.327 . S
C2095 H2089 0.950 . S
C2095 C2094 1.327 . S
C2095 C2099 1.429 . S
C2096 C2079 1.574 . S
C2096 H2090 0.949 . S
C2096 C2100 1.368 . S
C2097 C2078 1.429 . S
C2097 C2091 1.429 . S
C2097 C2098 1.523 . S
C2098 C2079 1.368 . S
C2098 C2092 1.368 . S
C2098 C2097 1.523 . S
C2099 C2083 1.429 . S
C2099 C2095 1.429 . S
C2099 C2100 1.523 . S
C2100 C2084 1.368 . S
C2100 C2096 1.368 . S
C2100 C2099 1.523 . S
H2101 C2076 0.950 . S
H2102 C2078 0.950 . S
H2103 C2079 0.949 . S
H2104 C2081 0.950 . S
H2105 C2083 0.950 . S
C2106 C2107 1.349 . S
C2106 C2108 1.327 . S
C2106 H2131 0.950 . S
C2107 C2106 1.349 . S
C2107 C2123 1.349 . S
C2108 C2106 1.327 . S
C2108 C2127 1.429 . S
C2108 H2132 0.950 . S
C2109 C2126 1.574 . S
C2109 C2128 1.368 . S
C2109 H2133 0.949 . S
H2110 C2114 0.949 . S
C2111 C2112 1.349 . S
C2111 C2113 1.327 . S
C2111 H2134 0.950 . S
C2112 C2111 1.349 . S
C2112 C2124 1.349 . S
C2113 C2111 1.327 . S
C2113 C2129 1.429 . S
C2113 H2135 0.950 . S
C2114 H2110 0.949 . S
C2114 C2122 1.574 . S
C2114 C2130 1.368 . S
H2115 C2123 0.950 . S
H2116 C2121 0.950 . S
H2117 C2122 0.949 . S
H2118 C2124 0.950 . S
H2119 C2125 0.950 . S
H2120 C2126 0.949 . S
C2121 H2116 0.950 . S
C2121 C2123 1.327 . S
C2121 C2127 1.429 . S
C2122 C2114 1.574 . S
C2122 H2117 0.949 . S
C2122 C2128 1.368 . S
C2123 C2107 1.349 . S
C2123 H2115 0.950 . S
C2123 C2121 1.327 . S
C2124 C2112 1.349 . S
C2124 H2118 0.950 . S
C2124 C2125 1.327 . S
C2125 H2119 0.950 . S
C2125 C2124 1.327 . S
C2125 C2129 1.429 . S
C2126 C2109 1.574 . S
C2126 H2120 0.949 . S
C2126 C2130 1.368 . S
C2127 C2108 1.429 . S
C2127 C2121 1.429 . S
C2127 C2128 1.523 . S
C2128 C2109 1.368 . S
C2128 C2122 1.368 . S
C2128 C2127 1.523 . S
C2129 C2113 1.429 . S
C2129 C2125 1.429 . S
C2129 C2130 1.523 . S
C2130 C2114 1.368 . S
C2130 C2126 1.368 . S
C2130 C2129 1.523 . S
H2131 C2106 0.950 . S
H2132 C2108 0.950 . S
H2133 C2109 0.949 . S
H2134 C2111 0.950 . S
H2135 C2113 0.950 . S
C2136 C2137 1.349 . S
C2136 C2138 1.327 . S
C2136 H2161 0.950 . S
C2137 C2136 1.349 . S
C2137 C2153 1.349 . S
C2138 C2136 1.327 . S
C2138 C2157 1.429 . S
C2138 H2162 0.950 . S
C2139 C2156 1.574 . S
C2139 C2158 1.368 . S
C2139 H2163 0.949 . S
H2140 C2144 0.949 . S
C2141 C2142 1.349 . S
C2141 C2143 1.327 . S
C2141 H2164 0.950 . S
C2142 C2141 1.349 . S
C2142 C2154 1.349 . S
C2143 C2141 1.327 . S
C2143 C2159 1.429 . S
C2143 H2165 0.950 . S
C2144 H2140 0.949 . S
C2144 C2152 1.574 . S
C2144 C2160 1.368 . S
H2145 C2153 0.950 . S
H2146 C2151 0.950 . S
H2147 C2152 0.949 . S
H2148 C2154 0.950 . S
H2149 C2155 0.950 . S
H2150 C2156 0.949 . S
C2151 H2146 0.950 . S
C2151 C2153 1.327 . S
C2151 C2157 1.429 . S
C2152 C2144 1.574 . S
C2152 H2147 0.949 . S
C2152 C2158 1.368 . S
C2153 C2137 1.349 . S
C2153 H2145 0.950 . S
C2153 C2151 1.327 . S
C2154 C2142 1.349 . S
C2154 H2148 0.950 . S
C2154 C2155 1.327 . S
C2155 H2149 0.950 . S
C2155 C2154 1.327 . S
C2155 C2159 1.429 . S
C2156 C2139 1.574 . S
C2156 H2150 0.949 . S
C2156 C2160 1.368 . S
C2157 C2138 1.429 . S
C2157 C2151 1.429 . S
C2157 C2158 1.523 . S
C2158 C2139 1.368 . S
C2158 C2152 1.368 . S
C2158 C2157 1.523 . S
C2159 C2143 1.429 . S
C2159 C2155 1.429 . S
C2159 C2160 1.523 . S
C2160 C2144 1.368 . S
C2160 C2156 1.368 . S
C2160 C2159 1.523 . S
H2161 C2136 0.950 . S
H2162 C2138 0.950 . S
H2163 C2139 0.949 . S
H2164 C2141 0.950 . S
H2165 C2143 0.950 . S
C2166 C2167 1.349 . S
C2166 C2168 1.327 . S
C2166 H2191 0.950 . S
C2167 C2166 1.349 . S
C2167 C2183 1.349 . S
C2168 C2166 1.327 . S
C2168 C2187 1.429 . S
C2168 H2192 0.950 . S
C2169 C2186 1.574 . S
C2169 C2188 1.346 1_556 S
C2169 H2193 0.974 . S
H2170 C2174 0.949 . S
C2171 C2172 1.349 . S
C2171 C2173 1.327 . S
C2171 H2194 0.950 . S
C2172 C2171 1.349 . S
C2172 C2184 1.349 . S
C2173 C2171 1.327 . S
C2173 C2189 1.429 . S
C2173 H2195 0.950 . S
C2174 H2170 0.949 . S
C2174 C2182 1.574 . S
C2174 C2190 1.368 . S
H2175 C2183 0.950 . S
H2176 C2181 0.950 . S
H2177 C2182 0.949 1_554 S
H2178 C2184 0.950 . S
H2179 C2185 0.950 . S
H2180 C2186 0.949 . S
C2181 H2176 0.950 . S
C2181 C2183 1.327 . S
C2181 C2187 1.429 . S
C2182 C2174 1.574 . S
C2182 H2177 0.949 1_556 S
C2182 C2188 1.352 1_556 S
C2183 C2167 1.349 . S
C2183 H2175 0.950 . S
C2183 C2181 1.327 . S
C2184 C2172 1.349 . S
C2184 H2178 0.950 . S
C2184 C2185 1.327 . S
C2185 H2179 0.950 . S
C2185 C2184 1.327 . S
C2185 C2189 1.429 . S
C2186 C2169 1.574 . S
C2186 H2180 0.949 . S
C2186 C2190 1.368 . S
C2187 C2168 1.429 . S
C2187 C2181 1.429 . S
C2187 C2188 1.577 . S
C2188 C2169 1.346 1_554 S
C2188 C2182 1.352 1_554 S
C2188 C2187 1.577 . S
C2189 C2173 1.429 . S
C2189 C2185 1.429 . S
C2189 C2190 1.523 . S
C2190 C2174 1.368 . S
C2190 C2186 1.368 . S
C2190 C2189 1.523 . S
H2191 C2166 0.950 . S
H2192 C2168 0.950 . S
H2193 C2169 0.974 . S
H2194 C2171 0.950 . S
H2195 C2173 0.950 . S
C2196 C2197 1.349 . S
C2196 C2198 1.327 . S
C2196 H2221 0.950 . S
C2197 C2196 1.349 . S
C2197 C2213 1.349 . S
C2198 C2196 1.327 . S
C2198 C2217 1.429 . S
C2198 H2222 0.950 . S
C2199 C2216 1.574 . S
C2199 C2218 1.368 . S
C2199 H2223 0.949 . S
H2200 C2204 0.949 . S
C2201 C2202 1.349 . S
C2201 C2203 1.327 . S
C2201 H2224 0.950 . S
C2202 C2201 1.349 . S
C2202 C2214 1.349 . S
C2203 C2201 1.327 . S
C2203 C2219 1.429 . S
C2203 H2225 0.950 . S
C2204 H2200 0.949 . S
C2204 C2212 1.574 . S
C2204 C2220 1.368 . S
H2205 C2213 0.950 . S
H2206 C2211 0.950 . S
H2207 C2212 0.949 . S
H2208 C2214 0.950 . S
H2209 C2215 0.950 . S
H2210 C2216 0.949 . S
C2211 H2206 0.950 . S
C2211 C2213 1.327 . S
C2211 C2217 1.429 . S
C2212 C2204 1.574 . S
C2212 H2207 0.949 . S
C2212 C2218 1.368 . S
C2213 C2197 1.349 . S
C2213 H2205 0.950 . S
C2213 C2211 1.327 . S
C2214 C2202 1.349 . S
C2214 H2208 0.950 . S
C2214 C2215 1.327 . S
C2215 H2209 0.950 . S
C2215 C2214 1.327 . S
C2215 C2219 1.429 . S
C2216 C2199 1.574 . S
C2216 H2210 0.949 . S
C2216 C2220 1.368 . S
C2217 C2198 1.429 . S
C2217 C2211 1.429 . S
C2217 C2218 1.523 . S
C2218 C2199 1.368 . S
C2218 C2212 1.368 . S
C2218 C2217 1.523 . S
C2219 C2203 1.429 . S
C2219 C2215 1.429 . S
C2219 C2220 1.523 . S
C2220 C2204 1.368 . S
C2220 C2216 1.368 . S
C2220 C2219 1.523 . S
H2221 C2196 0.950 . S
H2222 C2198 0.950 . S
H2223 C2199 0.949 . S
H2224 C2201 0.950 . S
H2225 C2203 0.950 . S
C2226 C2227 1.349 . S
C2226 C2228 1.327 . S
C2226 H2251 0.950 . S
C2227 C2226 1.349 . S
C2227 C2243 1.349 . S
C2228 C2226 1.327 . S
C2228 C2247 1.429 . S
C2228 H2252 0.950 . S
C2229 C2246 1.574 . S
C2229 C2248 1.368 . S
C2229 H2253 0.949 . S
H2230 C2234 0.949 . S
C2231 C2232 1.349 . S
C2231 C2233 1.327 . S
C2231 H2254 0.950 . S
C2232 C2231 1.349 . S
C2232 C2244 1.349 . S
C2233 C2231 1.327 . S
C2233 C2249 1.429 . S
C2233 H2255 0.950 . S
C2234 H2230 0.949 . S
C2234 C2242 1.574 . S
C2234 C2250 1.340 1_554 S
H2235 C2243 0.950 . S
H2236 C2241 0.950 . S
H2237 C2242 0.949 . S
H2238 C2244 0.950 . S
H2239 C2245 0.950 . S
H2240 C2246 0.949 1_556 S
C2241 H2236 0.950 . S
C2241 C2243 1.327 . S
C2241 C2247 1.429 . S
C2242 C2234 1.574 . S
C2242 H2237 0.949 . S
C2242 C2248 1.368 . S
C2243 C2227 1.349 . S
C2243 H2235 0.950 . S
C2243 C2241 1.327 . S
C2244 C2232 1.349 . S
C2244 H2238 0.950 . S
C2244 C2245 1.327 . S
C2245 H2239 0.950 . S
C2245 C2244 1.327 . S
C2245 C2249 1.429 . S
C2246 C2229 1.574 . S
C2246 H2240 0.949 1_554 S
C2246 C2250 1.357 1_554 S
C2247 C2228 1.429 . S
C2247 C2241 1.429 . S
C2247 C2248 1.523 . S
C2248 C2229 1.368 . S
C2248 C2242 1.368 . S
C2248 C2247 1.523 . S
C2249 C2233 1.429 . S
C2249 C2245 1.429 . S
C2249 C2250 1.577 . S
C2250 C2234 1.340 1_556 S
C2250 C2246 1.357 1_556 S
C2250 C2249 1.577 . S
H2251 C2226 0.950 . S
H2252 C2228 0.950 . S
H2253 C2229 0.949 . S
H2254 C2231 0.950 . S
H2255 C2233 0.950 . S
C2256 C2257 1.349 . S
C2256 C2258 1.327 . S
C2256 H2281 0.950 . S
C2257 C2256 1.349 . S
C2257 C2273 1.349 . S
C2258 C2256 1.327 . S
C2258 C2277 1.429 . S
C2258 H2282 0.950 . S
C2259 C2276 1.574 . S
C2259 C2278 1.368 . S
C2259 H2283 0.949 . S
H2260 C2264 0.949 . S
C2261 C2262 1.349 . S
C2261 C2263 1.327 . S
C2261 H2284 0.950 . S
C2262 C2261 1.349 . S
C2262 C2274 1.349 . S
C2263 C2261 1.327 . S
C2263 C2279 1.429 . S
C2263 H2285 0.950 . S
C2264 H2260 0.949 . S
C2264 C2272 1.574 . S
C2264 C2280 1.368 . S
H2265 C2273 0.950 . S
H2266 C2271 0.950 . S
H2267 C2272 0.949 . S
H2268 C2274 0.950 . S
H2269 C2275 0.950 . S
H2270 C2276 0.949 . S
C2271 H2266 0.950 . S
C2271 C2273 1.327 . S
C2271 C2277 1.429 . S
C2272 C2264 1.574 . S
C2272 H2267 0.949 . S
C2272 C2278 1.368 . S
C2273 C2257 1.349 . S
C2273 H2265 0.950 . S
C2273 C2271 1.327 . S
C2274 C2262 1.349 . S
C2274 H2268 0.950 . S
C2274 C2275 1.327 . S
C2275 H2269 0.950 . S
C2275 C2274 1.327 . S
C2275 C2279 1.429 . S
C2276 C2259 1.574 . S
C2276 H2270 0.949 . S
C2276 C2280 1.368 . S
C2277 C2258 1.429 . S
C2277 C2271 1.429 . S
C2277 C2278 1.523 . S
C2278 C2259 1.368 . S
C2278 C2272 1.368 . S
C2278 C2277 1.523 . S
C2279 C2263 1.429 . S
C2279 C2275 1.429 . S
C2279 C2280 1.523 . S
C2280 C2264 1.368 . S
C2280 C2276 1.368 . S
C2280 C2279 1.523 . S
H2281 C2256 0.950 . S
H2282 C2258 0.950 . S
H2283 C2259 0.949 . S
H2284 C2261 0.950 . S
H2285 C2263 0.950 . S
C2286 C2287 1.349 . S
C2286 C2288 1.327 . S
C2286 H2311 0.950 . S
C2287 C2286 1.349 . S
C2287 C2303 1.349 . S
C2288 C2286 1.327 . S
C2288 C2307 1.429 . S
C2288 H2312 0.950 . S
C2289 C2306 1.574 . S
C2289 C2308 1.350 1_455 S
C2289 H2313 0.949 1_455 S
H2290 C2294 0.949 . S
C2291 C2292 1.349 . S
C2291 C2293 1.327 . S
C2291 H2314 0.950 . S
C2292 C2291 1.349 . S
C2292 C2304 1.349 . S
C2293 C2291 1.327 . S
C2293 C2309 1.429 . S
C2293 H2315 0.950 . S
C2294 H2290 0.949 . S
C2294 C2302 1.574 . S
C2294 C2310 1.368 . S
H2295 C2303 0.950 . S
H2296 C2301 0.950 . S
H2297 C2302 0.948 . S
H2298 C2304 0.950 . S
H2299 C2305 0.950 . S
H2300 C2306 0.949 . S
C2301 H2296 0.950 . S
C2301 C2303 1.327 . S
C2301 C2307 1.429 . S
C2302 C2294 1.574 . S
C2302 H2297 0.948 . S
C2302 C2308 1.347 1_455 S
C2303 C2287 1.349 . S
C2303 H2295 0.950 . S
C2303 C2301 1.327 . S
C2304 C2292 1.349 . S
C2304 H2298 0.950 . S
C2304 C2305 1.327 . S
C2305 H2299 0.950 . S
C2305 C2304 1.327 . S
C2305 C2309 1.429 . S
C2306 C2289 1.574 . S
C2306 H2300 0.949 . S
C2306 C2310 1.368 . S
C2307 C2288 1.429 . S
C2307 C2301 1.429 . S
C2307 C2308 1.577 . S
C2308 C2289 1.350 1_655 S
C2308 C2302 1.347 1_655 S
C2308 C2307 1.577 . S
C2309 C2293 1.429 . S
C2309 C2305 1.429 . S
C2309 C2310 1.523 . S
C2310 C2294 1.368 . S
C2310 C2306 1.368 . S
C2310 C2309 1.523 . S
H2311 C2286 0.950 . S
H2312 C2288 0.950 . S
H2313 C2289 0.949 1_655 S
H2314 C2291 0.950 . S
H2315 C2293 0.950 . S
C2316 C2317 1.349 . S
C2316 C2318 1.327 . S
C2316 H2341 0.950 . S
C2317 C2316 1.349 . S
C2317 C2333 1.349 . S
C2318 C2316 1.327 . S
C2318 C2337 1.429 . S
C2318 H2342 0.950 . S
C2319 C2336 1.574 . S
C2319 C2338 1.361 1_655 S
C2319 H2343 0.949 1_655 S
H2320 C2324 0.949 . S
C2321 C2322 1.349 . S
C2321 C2323 1.327 . S
C2321 H2344 0.950 . S
C2322 C2321 1.349 . S
C2322 C2334 1.349 . S
C2323 C2321 1.327 . S
C2323 C2339 1.429 . S
C2323 H2345 0.950 . S
C2324 H2320 0.949 . S
C2324 C2332 1.574 . S
C2324 C2340 1.368 . S
H2325 C2333 0.950 . S
H2326 C2331 0.950 . S
H2327 C2332 0.949 . S
H2328 C2334 0.950 . S
H2329 C2335 0.950 . S
H2330 C2336 0.949 . S
C2331 H2326 0.950 . S
C2331 C2333 1.327 . S
C2331 C2337 1.429 . S
C2332 C2324 1.574 . S
C2332 H2327 0.949 . S
C2332 C2338 1.336 1_655 S
C2333 C2317 1.349 . S
C2333 H2325 0.950 . S
C2333 C2331 1.327 . S
C2334 C2322 1.349 . S
C2334 H2328 0.950 . S
C2334 C2335 1.327 . S
C2335 H2329 0.950 . S
C2335 C2334 1.327 . S
C2335 C2339 1.429 . S
C2336 C2319 1.574 . S
C2336 H2330 0.949 . S
C2336 C2340 1.368 . S
C2337 C2318 1.429 . S
C2337 C2331 1.429 . S
C2337 C2338 1.577 . S
C2338 C2319 1.361 1_455 S
C2338 C2332 1.336 1_455 S
C2338 C2337 1.577 . S
C2339 C2323 1.429 . S
C2339 C2335 1.429 . S
C2339 C2340 1.523 . S
C2340 C2324 1.368 . S
C2340 C2336 1.368 . S
C2340 C2339 1.523 . S
H2341 C2316 0.950 . S
H2342 C2318 0.950 . S
H2343 C2319 0.949 1_455 S
H2344 C2321 0.950 . S
H2345 C2323 0.950 . S
C2346 C2347 1.349 . S
C2346 C2348 1.327 . S
C2346 H2371 0.950 . S
C2347 C2346 1.349 . S
C2347 C2363 1.349 . S
C2348 C2346 1.327 . S
C2348 C2367 1.429 . S
C2348 H2372 0.950 . S
C2349 C2366 1.574 . S
C2349 C2368 1.368 . S
C2349 H2373 0.949 . S
H2350 C2354 0.949 . S
C2351 C2352 1.349 . S
C2351 C2353 1.327 . S
C2351 H2374 0.950 . S
C2352 C2351 1.349 . S
C2352 C2364 1.349 . S
C2353 C2351 1.327 . S
C2353 C2369 1.429 . S
C2353 H2375 0.950 . S
C2354 H2350 0.949 . S
C2354 C2362 1.574 . S
C2354 C2370 1.368 . S
H2355 C2363 0.950 . S
H2356 C2361 0.950 . S
H2357 C2362 0.949 . S
H2358 C2364 0.950 . S
H2359 C2365 0.950 . S
H2360 C2366 0.949 . S
C2361 H2356 0.950 . S
C2361 C2363 1.327 . S
C2361 C2367 1.429 . S
C2362 C2354 1.574 . S
C2362 H2357 0.949 . S
C2362 C2368 1.368 . S
C2363 C2347 1.349 . S
C2363 H2355 0.950 . S
C2363 C2361 1.327 . S
C2364 C2352 1.349 . S
C2364 H2358 0.950 . S
C2364 C2365 1.327 . S
C2365 H2359 0.950 . S
C2365 C2364 1.327 . S
C2365 C2369 1.429 . S
C2366 C2349 1.574 . S
C2366 H2360 0.949 . S
C2366 C2370 1.368 . S
C2367 C2348 1.429 . S
C2367 C2361 1.429 . S
C2367 C2368 1.523 . S
C2368 C2349 1.368 . S
C2368 C2362 1.368 . S
C2368 C2367 1.523 . S
C2369 C2353 1.429 . S
C2369 C2365 1.429 . S
C2369 C2370 1.523 . S
C2370 C2354 1.368 . S
C2370 C2366 1.368 . S
C2370 C2369 1.523 . S
H2371 C2346 0.950 . S
H2372 C2348 0.950 . S
H2373 C2349 0.949 . S
H2374 C2351 0.950 . S
H2375 C2353 0.950 . S
C2376 C2377 1.349 . S
C2376 C2378 1.327 . S
C2376 H2401 0.950 . S
C2377 C2376 1.349 . S
C2377 C2393 1.349 . S
C2378 C2376 1.327 . S
C2378 C2397 1.429 . S
C2378 H2402 0.950 . S
C2379 C2396 1.574 . S
C2379 C2398 1.368 . S
C2379 H2403 0.949 . S
H2380 C2384 0.949 . S
C2381 C2382 1.349 . S
C2381 C2383 1.327 . S
C2381 H2404 0.950 . S
C2382 C2381 1.349 . S
C2382 C2394 1.349 . S
C2383 C2381 1.327 . S
C2383 C2399 1.429 . S
C2383 H2405 0.950 . S
C2384 H2380 0.949 . S
C2384 C2392 1.574 . S
C2384 C2400 1.368 . S
H2385 C2393 0.950 . S
H2386 C2391 0.950 . S
H2387 C2392 0.949 . S
H2388 C2394 0.950 . S
H2389 C2395 0.950 . S
H2390 C2396 0.949 . S
C2391 H2386 0.950 . S
C2391 C2393 1.327 . S
C2391 C2397 1.429 . S
C2392 C2384 1.574 . S
C2392 H2387 0.949 . S
C2392 C2398 1.368 . S
C2393 C2377 1.349 . S
C2393 H2385 0.950 . S
C2393 C2391 1.327 . S
C2394 C2382 1.349 . S
C2394 H2388 0.950 . S
C2394 C2395 1.327 . S
C2395 H2389 0.950 . S
C2395 C2394 1.327 . S
C2395 C2399 1.429 . S
C2396 C2379 1.574 . S
C2396 H2390 0.949 . S
C2396 C2400 1.368 . S
C2397 C2378 1.429 . S
C2397 C2391 1.429 . S
C2397 C2398 1.523 . S
C2398 C2379 1.368 . S
C2398 C2392 1.368 . S
C2398 C2397 1.523 . S
C2399 C2383 1.429 . S
C2399 C2395 1.429 . S
C2399 C2400 1.523 . S
C2400 C2384 1.368 . S
C2400 C2396 1.368 . S
C2400 C2399 1.523 . S
H2401 C2376 0.950 . S
H2402 C2378 0.950 . S
H2403 C2379 0.949 . S
H2404 C2381 0.950 . S
H2405 C2383 0.950 . S
C2406 C2407 1.349 . S
C2406 C2408 1.327 . S
C2406 H2431 0.950 . S
C2407 C2406 1.349 . S
C2407 C2423 1.349 . S
C2408 C2406 1.327 . S
C2408 C2427 1.429 . S
C2408 H2432 0.950 . S
C2409 C2426 1.574 . S
C2409 C2428 1.364 1_545 S
C2409 H2433 0.949 1_545 S
H2410 C2414 0.949 . S
C2411 C2412 1.349 . S
C2411 C2413 1.327 . S
C2411 H2434 0.950 . S
C2412 C2411 1.349 . S
C2412 C2424 1.349 . S
C2413 C2411 1.327 . S
C2413 C2429 1.429 . S
C2413 H2435 0.950 . S
C2414 H2410 0.949 . S
C2414 C2422 1.574 . S
C2414 C2430 1.368 . S
H2415 C2423 0.950 . S
H2416 C2421 0.950 . S
H2417 C2422 0.949 . S
H2418 C2424 0.950 . S
H2419 C2425 0.950 . S
H2420 C2426 0.949 . S
C2421 H2416 0.950 . S
C2421 C2423 1.327 . S
C2421 C2427 1.429 . S
C2422 C2414 1.574 . S
C2422 H2417 0.949 . S
C2422 C2428 1.333 1_545 S
C2423 C2407 1.349 . S
C2423 H2415 0.950 . S
C2423 C2421 1.327 . S
C2424 C2412 1.349 . S
C2424 H2418 0.950 . S
C2424 C2425 1.327 . S
C2425 H2419 0.950 . S
C2425 C2424 1.327 . S
C2425 C2429 1.429 . S
C2426 C2409 1.574 . S
C2426 H2420 0.949 . S
C2426 C2430 1.368 . S
C2427 C2408 1.429 . S
C2427 C2421 1.429 . S
C2427 C2428 1.577 . S
C2428 C2409 1.364 1_565 S
C2428 C2422 1.333 1_565 S
C2428 C2427 1.577 . S
C2429 C2413 1.429 . S
C2429 C2425 1.429 . S
C2429 C2430 1.523 . S
C2430 C2414 1.368 . S
C2430 C2426 1.368 . S
C2430 C2429 1.523 . S
H2431 C2406 0.950 . S
H2432 C2408 0.950 . S
H2433 C2409 0.949 1_565 S
H2434 C2411 0.950 . S
H2435 C2413 0.950 . S
C2436 C2437 1.349 . S
C2436 C2438 1.327 . S
C2436 H2461 0.950 . S
C2437 C2436 1.349 . S
C2437 C2453 1.349 . S
C2438 C2436 1.327 . S
C2438 C2457 1.429 . S
C2438 H2462 0.950 . S
C2439 C2456 1.574 . S
C2439 C2458 1.364 1_565 S
C2439 H2463 0.949 1_565 S
H2440 C2444 0.949 . S
C2441 C2442 1.349 . S
C2441 C2443 1.327 . S
C2441 H2464 0.950 . S
C2442 C2441 1.349 . S
C2442 C2454 1.349 . S
C2443 C2441 1.327 . S
C2443 C2459 1.429 . S
C2443 H2465 0.950 . S
C2444 H2440 0.949 . S
C2444 C2452 1.574 . S
C2444 C2460 1.368 . S
H2445 C2453 0.950 . S
H2446 C2451 0.950 . S
H2447 C2452 0.949 . S
H2448 C2454 0.950 . S
H2449 C2455 0.950 . S
H2450 C2456 0.949 . S
C2451 H2446 0.950 . S
C2451 C2453 1.327 . S
C2451 C2457 1.429 . S
C2452 C2444 1.574 . S
C2452 H2447 0.949 . S
C2452 C2458 1.333 1_565 S
C2453 C2437 1.349 . S
C2453 H2445 0.950 . S
C2453 C2451 1.327 . S
C2454 C2442 1.349 . S
C2454 H2448 0.950 . S
C2454 C2455 1.327 . S
C2455 H2449 0.950 . S
C2455 C2454 1.327 . S
C2455 C2459 1.429 . S
C2456 C2439 1.574 . S
C2456 H2450 0.949 . S
C2456 C2460 1.368 . S
C2457 C2438 1.429 . S
C2457 C2451 1.429 . S
C2457 C2458 1.577 . S
C2458 C2439 1.364 1_545 S
C2458 C2452 1.333 1_545 S
C2458 C2457 1.577 . S
C2459 C2443 1.429 . S
C2459 C2455 1.429 . S
C2459 C2460 1.523 . S
C2460 C2444 1.368 . S
C2460 C2456 1.368 . S
C2460 C2459 1.523 . S
H2461 C2436 0.950 . S
H2462 C2438 0.950 . S
H2463 C2439 0.949 1_545 S
H2464 C2441 0.950 . S
H2465 C2443 0.950 . S
C2466 C2467 1.349 . S
C2466 C2468 1.327 . S
C2466 H2491 0.950 . S
C2467 C2466 1.349 . S
C2467 C2483 1.349 . S
C2468 C2466 1.327 . S
C2468 C2487 1.429 . S
C2468 H2492 0.950 . S
C2469 C2486 1.574 . S
C2469 C2488 1.368 . S
C2469 H2493 0.949 . S
H2470 C2474 0.949 . S
C2471 C2472 1.349 . S
C2471 C2473 1.327 . S
C2471 H2494 0.950 . S
C2472 C2471 1.349 . S
C2472 C2484 1.349 . S
C2473 C2471 1.327 . S
C2473 C2489 1.429 . S
C2473 H2495 0.950 . S
C2474 H2470 0.949 . S
C2474 C2482 1.574 . S
C2474 C2490 1.368 . S
H2475 C2483 0.950 . S
H2476 C2481 0.950 . S
H2477 C2482 0.949 . S
H2478 C2484 0.950 . S
H2479 C2485 0.950 . S
H2480 C2486 0.949 . S
C2481 H2476 0.950 . S
C2481 C2483 1.327 . S
C2481 C2487 1.429 . S
C2482 C2474 1.574 . S
C2482 H2477 0.949 . S
C2482 C2488 1.368 . S
C2483 C2467 1.349 . S
C2483 H2475 0.950 . S
C2483 C2481 1.327 . S
C2484 C2472 1.349 . S
C2484 H2478 0.950 . S
C2484 C2485 1.327 . S
C2485 H2479 0.950 . S
C2485 C2484 1.327 . S
C2485 C2489 1.429 . S
C2486 C2469 1.574 . S
C2486 H2480 0.949 . S
C2486 C2490 1.368 . S
C2487 C2468 1.429 . S
C2487 C2481 1.429 . S
C2487 C2488 1.523 . S
C2488 C2469 1.368 . S
C2488 C2482 1.368 . S
C2488 C2487 1.523 . S
C2489 C2473 1.429 . S
C2489 C2485 1.429 . S
C2489 C2490 1.523 . S
C2490 C2474 1.368 . S
C2490 C2486 1.368 . S
C2490 C2489 1.523 . S
H2491 C2466 0.950 . S
H2492 C2468 0.950 . S
H2493 C2469 0.949 . S
H2494 C2471 0.950 . S
H2495 C2473 0.950 . S
C2496 C2497 1.349 . S
C2496 C2498 1.327 . S
C2496 H2521 0.950 . S
C2497 C2496 1.349 . S
C2497 C2513 1.349 . S
C2498 C2496 1.327 . S
C2498 C2517 1.429 . S
C2498 H2522 0.950 . S
C2499 C2516 1.574 . S
C2499 C2518 1.368 . S
C2499 H2523 0.949 . S
H2500 C2504 0.949 . S
C2501 C2502 1.349 . S
C2501 C2503 1.327 . S
C2501 H2524 0.950 . S
C2502 C2501 1.349 . S
C2502 C2514 1.349 . S
C2503 C2501 1.327 . S
C2503 C2519 1.429 . S
C2503 H2525 0.950 . S
C2504 H2500 0.949 . S
C2504 C2512 1.574 . S
C2504 C2520 1.368 . S
H2505 C2513 0.950 . S
H2506 C2511 0.950 . S
H2507 C2512 0.949 . S
H2508 C2514 0.950 . S
H2509 C2515 0.950 . S
H2510 C2516 0.949 . S
C2511 H2506 0.950 . S
C2511 C2513 1.327 . S
C2511 C2517 1.429 . S
C2512 C2504 1.574 . S
C2512 H2507 0.949 . S
C2512 C2518 1.368 . S
C2513 C2497 1.349 . S
C2513 H2505 0.950 . S
C2513 C2511 1.327 . S
C2514 C2502 1.349 . S
C2514 H2508 0.950 . S
C2514 C2515 1.327 . S
C2515 H2509 0.950 . S
C2515 C2514 1.327 . S
C2515 C2519 1.429 . S
C2516 C2499 1.574 . S
C2516 H2510 0.949 . S
C2516 C2520 1.368 . S
C2517 C2498 1.429 . S
C2517 C2511 1.429 . S
C2517 C2518 1.523 . S
C2518 C2499 1.368 . S
C2518 C2512 1.368 . S
C2518 C2517 1.523 . S
C2519 C2503 1.429 . S
C2519 C2515 1.429 . S
C2519 C2520 1.523 . S
C2520 C2504 1.368 . S
C2520 C2516 1.368 . S
C2520 C2519 1.523 . S
H2521 C2496 0.950 . S
H2522 C2498 0.950 . S
H2523 C2499 0.949 . S
H2524 C2501 0.950 . S
H2525 C2503 0.950 . S
C2526 C2527 1.349 . S
C2526 C2528 1.327 . S
C2526 H2551 0.950 . S
C2527 C2526 1.349 . S
C2527 C2543 1.349 . S
C2528 C2526 1.327 . S
C2528 C2547 1.429 . S
C2528 H2552 0.950 . S
C2529 C2546 1.574 . S
C2529 C2548 1.363 1_554 S
C2529 H2553 0.949 1_554 S
H2530 C2534 0.949 . S
C2531 C2532 1.349 . S
C2531 C2533 1.327 . S
C2531 H2554 0.950 . S
C2532 C2531 1.349 . S
C2532 C2544 1.349 . S
C2533 C2531 1.327 . S
C2533 C2549 1.429 . S
C2533 H2555 0.950 . S
C2534 H2530 0.949 . S
C2534 C2542 1.574 . S
C2534 C2550 1.368 . S
H2535 C2543 0.950 . S
H2536 C2541 0.950 . S
H2537 C2542 0.949 . S
H2538 C2544 0.950 . S
H2539 C2545 0.950 . S
H2540 C2546 0.949 . S
C2541 H2536 0.950 . S
C2541 C2543 1.327 . S
C2541 C2547 1.429 . S
C2542 C2534 1.574 . S
C2542 H2537 0.949 . S
C2542 C2548 1.334 1_554 S
C2543 C2527 1.349 . S
C2543 H2535 0.950 . S
C2543 C2541 1.327 . S
C2544 C2532 1.349 . S
C2544 H2538 0.950 . S
C2544 C2545 1.327 . S
C2545 H2539 0.950 . S
C2545 C2544 1.327 . S
C2545 C2549 1.429 . S
C2546 C2529 1.574 . S
C2546 H2540 0.949 . S
C2546 C2550 1.368 . S
C2547 C2528 1.429 . S
C2547 C2541 1.429 . S
C2547 C2548 1.577 . S
C2548 C2529 1.363 1_556 S
C2548 C2542 1.334 1_556 S
C2548 C2547 1.577 . S
C2549 C2533 1.429 . S
C2549 C2545 1.429 . S
C2549 C2550 1.523 . S
C2550 C2534 1.368 . S
C2550 C2546 1.368 . S
C2550 C2549 1.523 . S
H2551 C2526 0.950 . S
H2552 C2528 0.950 . S
H2553 C2529 0.949 1_556 S
H2554 C2531 0.950 . S
H2555 C2533 0.950 . S
C2556 C2557 1.349 . S
C2556 C2558 1.327 . S
C2556 H2581 0.950 . S
C2557 C2556 1.349 . S
C2557 C2573 1.349 . S
C2558 C2556 1.327 . S
C2558 C2577 1.429 . S
C2558 H2582 0.950 . S
C2559 C2576 1.574 . S
C2559 C2578 1.368 . S
C2559 H2583 0.949 . S
H2560 C2564 0.949 . S
C2561 C2562 1.349 . S
C2561 C2563 1.327 . S
C2561 H2584 0.950 . S
C2562 C2561 1.349 . S
C2562 C2574 1.349 . S
C2563 C2561 1.327 . S
C2563 C2579 1.429 . S
C2563 H2585 0.950 . S
C2564 H2560 0.949 . S
C2564 C2572 1.574 . S
C2564 C2580 1.368 . S
H2565 C2573 0.950 . S
H2566 C2571 0.950 . S
H2567 C2572 0.949 . S
H2568 C2574 0.950 . S
H2569 C2575 0.950 . S
H2570 C2576 0.949 . S
C2571 H2566 0.950 . S
C2571 C2573 1.327 . S
C2571 C2577 1.429 . S
C2572 C2564 1.574 . S
C2572 H2567 0.949 . S
C2572 C2578 1.368 . S
C2573 C2557 1.349 . S
C2573 H2565 0.950 . S
C2573 C2571 1.327 . S
C2574 C2562 1.349 . S
C2574 H2568 0.950 . S
C2574 C2575 1.327 . S
C2575 H2569 0.950 . S
C2575 C2574 1.327 . S
C2575 C2579 1.429 . S
C2576 C2559 1.574 . S
C2576 H2570 0.949 . S
C2576 C2580 1.368 . S
C2577 C2558 1.429 . S
C2577 C2571 1.429 . S
C2577 C2578 1.523 . S
C2578 C2559 1.368 . S
C2578 C2572 1.368 . S
C2578 C2577 1.523 . S
C2579 C2563 1.429 . S
C2579 C2575 1.429 . S
C2579 C2580 1.523 . S
C2580 C2564 1.368 . S
C2580 C2576 1.368 . S
C2580 C2579 1.523 . S
H2581 C2556 0.950 . S
H2582 C2558 0.950 . S
H2583 C2559 0.949 . S
H2584 C2561 0.950 . S
H2585 C2563 0.950 . S
C2586 C2587 1.349 . S
C2586 C2588 1.327 . S
C2586 H2611 0.950 . S
C2587 C2586 1.349 . S
C2587 C2603 1.349 . S
C2588 C2586 1.327 . S
C2588 C2607 1.429 . S
C2588 H2612 0.950 . S
C2589 C2606 1.574 . S
C2589 C2608 1.333 1_556 S
C2589 H2613 0.949 . S
H2590 C2594 0.949 . S
C2591 C2592 1.349 . S
C2591 C2593 1.327 . S
C2591 H2614 0.950 . S
C2592 C2591 1.349 . S
C2592 C2604 1.349 . S
C2593 C2591 1.327 . S
C2593 C2609 1.429 . S
C2593 H2615 0.950 . S
C2594 H2590 0.949 . S
C2594 C2602 1.627 . S
C2594 C2610 1.368 . S
H2595 C2603 0.950 . S
H2596 C2601 0.950 . S
H2597 C2602 0.907 1_554 S
H2598 C2604 0.950 . S
H2599 C2605 0.950 . S
H2600 C2606 0.949 . S
C2601 H2596 0.950 . S
C2601 C2603 1.327 . S
C2601 C2607 1.429 . S
C2602 C2594 1.627 . S
C2602 H2597 0.907 1_556 S
C2602 C2608 1.363 1_556 S
C2603 C2587 1.349 . S
C2603 H2595 0.950 . S
C2603 C2601 1.327 . S
C2604 C2592 1.349 . S
C2604 H2598 0.950 . S
C2604 C2605 1.327 . S
C2605 H2599 0.950 . S
C2605 C2604 1.327 . S
C2605 C2609 1.429 . S
C2606 C2589 1.574 . S
C2606 H2600 0.949 . S
C2606 C2610 1.368 . S
C2607 C2588 1.429 . S
C2607 C2601 1.429 . S
C2607 C2608 1.577 . S
C2608 C2589 1.333 1_554 S
C2608 C2602 1.363 1_554 S
C2608 C2607 1.577 . S
C2609 C2593 1.429 . S
C2609 C2605 1.429 . S
C2609 C2610 1.523 . S
C2610 C2594 1.368 . S
C2610 C2606 1.368 . S
C2610 C2609 1.523 . S
H2611 C2586 0.950 . S
H2612 C2588 0.950 . S
H2613 C2589 0.949 . S
H2614 C2591 0.950 . S
H2615 C2593 0.950 . S
C2616 C2617 1.349 . S
C2616 C2618 1.327 . S
C2616 H2641 0.950 . S
C2617 C2616 1.349 . S
C2617 C2633 1.349 . S
C2618 C2616 1.327 . S
C2618 C2637 1.429 . S
C2618 H2642 0.950 . S
C2619 C2636 1.574 . S
C2619 C2638 1.368 . S
C2619 H2643 0.949 . S
H2620 C2624 0.949 . S
C2621 C2622 1.349 . S
C2621 C2623 1.327 . S
C2621 H2644 0.950 . S
C2622 C2621 1.349 . S
C2622 C2634 1.349 . S
C2623 C2621 1.327 . S
C2623 C2639 1.429 . S
C2623 H2645 0.950 . S
C2624 H2620 0.949 . S
C2624 C2632 1.574 . S
C2624 C2640 1.368 . S
H2625 C2633 0.950 . S
H2626 C2631 0.950 . S
H2627 C2632 0.949 . S
H2628 C2634 0.950 . S
H2629 C2635 0.950 . S
H2630 C2636 0.949 . S
C2631 H2626 0.950 . S
C2631 C2633 1.327 . S
C2631 C2637 1.429 . S
C2632 C2624 1.574 . S
C2632 H2627 0.949 . S
C2632 C2638 1.368 . S
C2633 C2617 1.349 . S
C2633 H2625 0.950 . S
C2633 C2631 1.327 . S
C2634 C2622 1.349 . S
C2634 H2628 0.950 . S
C2634 C2635 1.327 . S
C2635 H2629 0.950 . S
C2635 C2634 1.327 . S
C2635 C2639 1.429 . S
C2636 C2619 1.574 . S
C2636 H2630 0.949 . S
C2636 C2640 1.368 . S
C2637 C2618 1.429 . S
C2637 C2631 1.429 . S
C2637 C2638 1.523 . S
C2638 C2619 1.368 . S
C2638 C2632 1.368 . S
C2638 C2637 1.523 . S
C2639 C2623 1.429 . S
C2639 C2635 1.429 . S
C2639 C2640 1.523 . S
C2640 C2624 1.368 . S
C2640 C2636 1.368 . S
C2640 C2639 1.523 . S
H2641 C2616 0.950 . S
H2642 C2618 0.950 . S
H2643 C2619 0.949 . S
H2644 C2621 0.950 . S
H2645 C2623 0.950 . S
C2646 C2647 1.349 . S
C2646 C2648 1.327 . S
C2646 H2671 0.950 . S
C2647 C2646 1.349 . S
C2647 C2663 1.349 . S
C2648 C2646 1.327 . S
C2648 C2667 1.429 . S
C2648 H2672 0.950 . S
C2649 C2666 1.574 . S
C2649 C2668 1.368 . S
C2649 H2673 0.949 . S
H2650 C2654 0.902 1_455 S
C2651 C2652 1.349 . S
C2651 C2653 1.327 . S
C2651 H2674 0.950 . S
C2652 C2651 1.349 . S
C2652 C2664 1.349 . S
C2653 C2651 1.327 . S
C2653 C2669 1.429 . S
C2653 H2675 0.950 . S
C2654 H2650 0.902 1_655 S
C2654 C2662 1.632 . S
C2654 C2670 1.362 1_655 S
H2655 C2663 0.950 . S
H2656 C2661 0.950 . S
H2657 C2662 0.949 . S
H2658 C2664 0.950 . S
H2659 C2665 0.950 . S
H2660 C2666 0.949 . S
C2661 H2656 0.950 . S
C2661 C2663 1.327 . S
C2661 C2667 1.429 . S
C2662 C2654 1.632 . S
C2662 H2657 0.949 . S
C2662 C2668 1.368 . S
C2663 C2647 1.349 . S
C2663 H2655 0.950 . S
C2663 C2661 1.327 . S
C2664 C2652 1.349 . S
C2664 H2658 0.950 . S
C2664 C2665 1.327 . S
C2665 H2659 0.950 . S
C2665 C2664 1.327 . S
C2665 C2669 1.429 . S
C2666 C2649 1.574 . S
C2666 H2660 0.949 . S
C2666 C2670 1.333 1_655 S
C2667 C2648 1.429 . S
C2667 C2661 1.429 . S
C2667 C2668 1.523 . S
C2668 C2649 1.368 . S
C2668 C2662 1.368 . S
C2668 C2667 1.523 . S
C2669 C2653 1.429 . S
C2669 C2665 1.429 . S
C2669 C2670 1.577 . S
C2670 C2654 1.362 1_455 S
C2670 C2666 1.333 1_455 S
C2670 C2669 1.577 . S
H2671 C2646 0.950 . S
H2672 C2648 0.950 . S
H2673 C2649 0.949 . S
H2674 C2651 0.950 . S
H2675 C2653 0.950 . S
C2676 C2677 1.349 . S
C2676 C2678 1.327 . S
C2676 H2701 0.950 . S
C2677 C2676 1.349 . S
C2677 C2693 1.349 . S
C2678 C2676 1.327 . S
C2678 C2697 1.429 . S
C2678 H2702 0.950 . S
C2679 C2696 1.574 . S
C2679 C2698 1.368 . S
C2679 H2703 0.949 . S
H2680 C2684 0.949 1_655 S
C2681 C2682 1.349 . S
C2681 C2683 1.327 . S
C2681 H2704 0.950 . S
C2682 C2681 1.349 . S
C2682 C2694 1.349 . S
C2683 C2681 1.327 . S
C2683 C2699 1.429 . S
C2683 H2705 0.950 . S
C2684 H2680 0.949 1_455 S
C2684 C2692 1.574 . S
C2684 C2700 1.360 1_455 S
H2685 C2693 0.950 . S
H2686 C2691 0.950 . S
H2687 C2692 0.949 . S
H2688 C2694 0.950 . S
H2689 C2695 0.950 . S
H2690 C2696 0.949 . S
C2691 H2686 0.950 . S
C2691 C2693 1.327 . S
C2691 C2697 1.429 . S
C2692 C2684 1.574 . S
C2692 H2687 0.949 . S
C2692 C2698 1.368 . S
C2693 C2677 1.349 . S
C2693 H2685 0.950 . S
C2693 C2691 1.327 . S
C2694 C2682 1.349 . S
C2694 H2688 0.950 . S
C2694 C2695 1.327 . S
C2695 H2689 0.950 . S
C2695 C2694 1.327 . S
C2695 C2699 1.429 . S
C2696 C2679 1.574 . S
C2696 H2690 0.949 . S
C2696 C2700 1.337 1_455 S
C2697 C2678 1.429 . S
C2697 C2691 1.429 . S
C2697 C2698 1.523 . S
C2698 C2679 1.368 . S
C2698 C2692 1.368 . S
C2698 C2697 1.523 . S
C2699 C2683 1.429 . S
C2699 C2695 1.429 . S
C2699 C2700 1.577 . S
C2700 C2684 1.360 1_655 S
C2700 C2696 1.337 1_655 S
C2700 C2699 1.577 . S
H2701 C2676 0.950 . S
H2702 C2678 0.950 . S
H2703 C2679 0.949 . S
H2704 C2681 0.950 . S
H2705 C2683 0.950 . S
C2706 C2707 1.349 . S
C2706 C2708 1.327 . S
C2706 H2731 0.950 . S
C2707 C2706 1.349 . S
C2707 C2723 1.349 . S
C2708 C2706 1.327 . S
C2708 C2727 1.429 . S
C2708 H2732 0.950 . S
C2709 C2726 1.574 . S
C2709 C2728 1.368 . S
C2709 H2733 0.949 . S
H2710 C2714 0.949 . S
C2711 C2712 1.349 . S
C2711 C2713 1.327 . S
C2711 H2734 0.950 . S
C2712 C2711 1.349 . S
C2712 C2724 1.349 . S
C2713 C2711 1.327 . S
C2713 C2729 1.429 . S
C2713 H2735 0.950 . S
C2714 H2710 0.949 . S
C2714 C2722 1.574 . S
C2714 C2730 1.368 . S
H2715 C2723 0.950 . S
H2716 C2721 0.950 . S
H2717 C2722 0.949 . S
H2718 C2724 0.950 . S
H2719 C2725 0.950 . S
H2720 C2726 0.949 . S
C2721 H2716 0.950 . S
C2721 C2723 1.327 . S
C2721 C2727 1.429 . S
C2722 C2714 1.574 . S
C2722 H2717 0.949 . S
C2722 C2728 1.368 . S
C2723 C2707 1.349 . S
C2723 H2715 0.950 . S
C2723 C2721 1.327 . S
C2724 C2712 1.349 . S
C2724 H2718 0.950 . S
C2724 C2725 1.327 . S
C2725 H2719 0.950 . S
C2725 C2724 1.327 . S
C2725 C2729 1.429 . S
C2726 C2709 1.574 . S
C2726 H2720 0.949 . S
C2726 C2730 1.368 . S
C2727 C2708 1.429 . S
C2727 C2721 1.429 . S
C2727 C2728 1.523 . S
C2728 C2709 1.368 . S
C2728 C2722 1.368 . S
C2728 C2727 1.523 . S
C2729 C2713 1.429 . S
C2729 C2725 1.429 . S
C2729 C2730 1.523 . S
C2730 C2714 1.368 . S
C2730 C2726 1.368 . S
C2730 C2729 1.523 . S
H2731 C2706 0.950 . S
H2732 C2708 0.950 . S
H2733 C2709 0.949 . S
H2734 C2711 0.950 . S
H2735 C2713 0.950 . S
C2736 C2737 1.349 . S
C2736 C2738 1.327 . S
C2736 H2761 0.950 . S
C2737 C2736 1.349 . S
C2737 C2753 1.349 . S
C2738 C2736 1.327 . S
C2738 C2757 1.429 . S
C2738 H2762 0.950 . S
C2739 C2756 1.574 . S
C2739 C2758 1.368 . S
C2739 H2763 0.949 . S
H2740 C2744 0.949 . S
C2741 C2742 1.349 . S
C2741 C2743 1.327 . S
C2741 H2764 0.950 . S
C2742 C2741 1.349 . S
C2742 C2754 1.349 . S
C2743 C2741 1.327 . S
C2743 C2759 1.429 . S
C2743 H2765 0.950 . S
C2744 H2740 0.949 . S
C2744 C2752 1.574 . S
C2744 C2760 1.368 . S
H2745 C2753 0.950 . S
H2746 C2751 0.950 . S
H2747 C2752 0.949 . S
H2748 C2754 0.950 . S
H2749 C2755 0.950 . S
H2750 C2756 0.949 . S
C2751 H2746 0.950 . S
C2751 C2753 1.327 . S
C2751 C2757 1.429 . S
C2752 C2744 1.574 . S
C2752 H2747 0.949 . S
C2752 C2758 1.368 . S
C2753 C2737 1.349 . S
C2753 H2745 0.950 . S
C2753 C2751 1.327 . S
C2754 C2742 1.349 . S
C2754 H2748 0.950 . S
C2754 C2755 1.327 . S
C2755 H2749 0.950 . S
C2755 C2754 1.327 . S
C2755 C2759 1.429 . S
C2756 C2739 1.574 . S
C2756 H2750 0.949 . S
C2756 C2760 1.368 . S
C2757 C2738 1.429 . S
C2757 C2751 1.429 . S
C2757 C2758 1.523 . S
C2758 C2739 1.368 . S
C2758 C2752 1.368 . S
C2758 C2757 1.523 . S
C2759 C2743 1.429 . S
C2759 C2755 1.429 . S
C2759 C2760 1.523 . S
C2760 C2744 1.368 . S
C2760 C2756 1.368 . S
C2760 C2759 1.523 . S
H2761 C2736 0.950 . S
H2762 C2738 0.950 . S
H2763 C2739 0.949 . S
H2764 C2741 0.950 . S
H2765 C2743 0.950 . S
C2766 C2767 1.349 . S
C2766 C2768 1.327 . S
C2766 H2791 0.950 . S
C2767 C2766 1.349 . S
C2767 C2783 1.349 . S
C2768 C2766 1.327 . S
C2768 C2787 1.429 . S
C2768 H2792 0.950 . S
C2769 C2786 1.574 . S
C2769 C2788 1.368 . S
C2769 H2793 0.949 . S
H2770 C2774 0.949 . S
C2771 C2772 1.349 . S
C2771 C2773 1.327 . S
C2771 H2794 0.950 . S
C2772 C2771 1.349 . S
C2772 C2784 1.349 . S
C2773 C2771 1.327 . S
C2773 C2789 1.429 . S
C2773 H2795 0.950 . S
C2774 H2770 0.949 . S
C2774 C2782 1.574 . S
C2774 C2790 1.339 1_565 S
H2775 C2783 0.950 . S
H2776 C2781 0.950 . S
H2777 C2782 0.949 . S
H2778 C2784 0.950 . S
H2779 C2785 0.950 . S
H2780 C2786 0.949 1_545 S
C2781 H2776 0.950 . S
C2781 C2783 1.327 . S
C2781 C2787 1.429 . S
C2782 C2774 1.574 . S
C2782 H2777 0.949 . S
C2782 C2788 1.368 . S
C2783 C2767 1.349 . S
C2783 H2775 0.950 . S
C2783 C2781 1.327 . S
C2784 C2772 1.349 . S
C2784 H2778 0.950 . S
C2784 C2785 1.327 . S
C2785 H2779 0.950 . S
C2785 C2784 1.327 . S
C2785 C2789 1.429 . S
C2786 C2769 1.574 . S
C2786 H2780 0.949 1_565 S
C2786 C2790 1.358 1_565 S
C2787 C2768 1.429 . S
C2787 C2781 1.429 . S
C2787 C2788 1.523 . S
C2788 C2769 1.368 . S
C2788 C2782 1.368 . S
C2788 C2787 1.523 . S
C2789 C2773 1.429 . S
C2789 C2785 1.429 . S
C2789 C2790 1.577 . S
C2790 C2774 1.339 1_545 S
C2790 C2786 1.358 1_545 S
C2790 C2789 1.577 . S
H2791 C2766 0.950 . S
H2792 C2768 0.950 . S
H2793 C2769 0.949 . S
H2794 C2771 0.950 . S
H2795 C2773 0.950 . S
C2796 C2797 1.349 . S
C2796 C2798 1.327 . S
C2796 H2821 0.950 . S
C2797 C2796 1.349 . S
C2797 C2813 1.349 . S
C2798 C2796 1.327 . S
C2798 C2817 1.429 . S
C2798 H2822 0.950 . S
C2799 C2816 1.574 . S
C2799 C2818 1.333 1_545 S
C2799 H2823 0.949 . S
H2800 C2804 0.949 . S
C2801 C2802 1.349 . S
C2801 C2803 1.327 . S
C2801 H2824 0.950 . S
C2802 C2801 1.349 . S
C2802 C2814 1.349 . S
C2803 C2801 1.327 . S
C2803 C2819 1.429 . S
C2803 H2825 0.950 . S
C2804 H2800 0.949 . S
C2804 C2812 1.627 . S
C2804 C2820 1.368 . S
H2805 C2813 0.950 . S
H2806 C2811 0.950 . S
H2807 C2812 0.906 1_565 S
H2808 C2814 0.950 . S
H2809 C2815 0.950 . S
H2810 C2816 0.949 . S
C2811 H2806 0.950 . S
C2811 C2813 1.327 . S
C2811 C2817 1.429 . S
C2812 C2804 1.627 . S
C2812 H2807 0.906 1_545 S
C2812 C2818 1.363 1_545 S
C2813 C2797 1.349 . S
C2813 H2805 0.950 . S
C2813 C2811 1.327 . S
C2814 C2802 1.349 . S
C2814 H2808 0.950 . S
C2814 C2815 1.327 . S
C2815 H2809 0.950 . S
C2815 C2814 1.327 . S
C2815 C2819 1.429 . S
C2816 C2799 1.574 . S
C2816 H2810 0.949 . S
C2816 C2820 1.368 . S
C2817 C2798 1.429 . S
C2817 C2811 1.429 . S
C2817 C2818 1.577 . S
C2818 C2799 1.333 1_565 S
C2818 C2812 1.363 1_565 S
C2818 C2817 1.577 . S
C2819 C2803 1.429 . S
C2819 C2815 1.429 . S
C2819 C2820 1.523 . S
C2820 C2804 1.368 . S
C2820 C2816 1.368 . S
C2820 C2819 1.523 . S
H2821 C2796 0.950 . S
H2822 C2798 0.950 . S
H2823 C2799 0.949 . S
H2824 C2801 0.950 . S
H2825 C2803 0.950 . S
C2826 C2827 1.349 . S
C2826 C2828 1.327 . S
C2826 H2851 0.950 . S
C2827 C2826 1.349 . S
C2827 C2843 1.349 . S
C2828 C2826 1.327 . S
C2828 C2847 1.429 . S
C2828 H2852 0.950 . S
C2829 C2846 1.574 . S
C2829 C2848 1.368 . S
C2829 H2853 0.949 . S
H2830 C2834 0.949 . S
C2831 C2832 1.349 . S
C2831 C2833 1.327 . S
C2831 H2854 0.950 . S
C2832 C2831 1.349 . S
C2832 C2844 1.349 . S
C2833 C2831 1.327 . S
C2833 C2849 1.429 . S
C2833 H2855 0.950 . S
C2834 H2830 0.949 . S
C2834 C2842 1.574 . S
C2834 C2850 1.368 . S
H2835 C2843 0.950 . S
H2836 C2841 0.950 . S
H2837 C2842 0.949 . S
H2838 C2844 0.950 . S
H2839 C2845 0.950 . S
H2840 C2846 0.949 . S
C2841 H2836 0.950 . S
C2841 C2843 1.327 . S
C2841 C2847 1.429 . S
C2842 C2834 1.574 . S
C2842 H2837 0.949 . S
C2842 C2848 1.368 . S
C2843 C2827 1.349 . S
C2843 H2835 0.950 . S
C2843 C2841 1.327 . S
C2844 C2832 1.349 . S
C2844 H2838 0.950 . S
C2844 C2845 1.327 . S
C2845 H2839 0.950 . S
C2845 C2844 1.327 . S
C2845 C2849 1.429 . S
C2846 C2829 1.574 . S
C2846 H2840 0.949 . S
C2846 C2850 1.368 . S
C2847 C2828 1.429 . S
C2847 C2841 1.429 . S
C2847 C2848 1.523 . S
C2848 C2829 1.368 . S
C2848 C2842 1.368 . S
C2848 C2847 1.523 . S
C2849 C2833 1.429 . S
C2849 C2845 1.429 . S
C2849 C2850 1.523 . S
C2850 C2834 1.368 . S
C2850 C2846 1.368 . S
C2850 C2849 1.523 . S
H2851 C2826 0.950 . S
H2852 C2828 0.950 . S
H2853 C2829 0.949 . S
H2854 C2831 0.950 . S
H2855 C2833 0.950 . S
C1417 C524 1.155 . S
C1422 C33 1.145 . S
C1447 C92 1.145 . S
C1452 C701 1.155 . S
C1477 C151 1.145 . S
C1482 C583 1.155 . S
C1507 C210 1.145 . S
C1512 C642 1.155 . S
C1537 C269 1.145 . S
C1542 C52 1.155 . S
C1567 C111 1.155 . S
C1572 C328 1.145 . S
C1597 C387 1.145 . S
C1602 C170 1.155 . S
C1627 C229 1.155 . S
C1632 C446 1.145 . S
C1657 C288 1.155 . S
C1662 C505 1.145 . S
C1687 C406 1.155 . S
C1692 C564 1.145 . S
C1717 C623 1.145 . S
C1722 C465 1.155 . S
C1747 C347 1.155 . S
C1752 C682 1.145 . S
C1777 C1232 1.155 . S
C1782 C741 1.145 . S
C1807 C800 1.145 . S
C1812 C1409 1.155 . S
C1837 C859 1.145 . S
C1842 C1291 1.155 . S
C1867 C1350 1.155 . S
C1872 C918 1.145 . S
C1897 C977 1.145 . S
C1902 C760 1.155 . S
C1927 C819 1.155 . S
C1932 C1036 1.145 . S
C1957 C878 1.155 . S
C1962 C1095 1.145 . S
C1987 C1154 1.145 . S
C1992 C937 1.155 . S
C2017 C1213 1.145 . S
C2022 C996 1.155 . S
C2047 C1114 1.155 . S
C2052 C1272 1.145 . S
C2077 C1173 1.155 . S
C2082 C1331 1.145 . S
C2107 C1390 1.145 . S
C2112 C1055 1.155 . S
C2137 C1303 1.506 . S
C2142 C3 1.493 . S
C2167 C1244 1.506 . S
C2172 C62 1.493 . S
C2197 C1362 1.506 . S
C2202 C121 1.493 . S
C2227 C180 1.493 . S
C2232 C1185 1.506 . S
C2257 C239 1.493 . S
C2262 C772 1.506 . S
C2287 C713 1.506 . S
C2292 C298 1.493 . S
C2317 C890 1.506 . S
C2322 C357 1.493 . S
C2347 C831 1.506 . S
C2352 C416 1.493 . S
C2377 C475 1.493 . S
C2382 C1067 1.506 . S
C2407 C949 1.506 . S
C2412 C534 1.493 . S
C2437 C1008 1.506 . S
C2442 C593 1.493 . S
C2467 C1126 1.506 . S
C2472 C652 1.493 . S
C2497 C595 1.506 . S
C2502 C711 1.493 . S
C2527 C536 1.506 . S
C2532 C770 1.493 . S
C2557 C829 1.493 . S
C2562 C654 1.506 . S
C2587 C477 1.506 . S
C2592 C888 1.493 . S
C2617 C947 1.493 . S
C2622 C64 1.506 . S
C2647 C1006 1.493 . S
C2652 C5 1.506 . S
C2677 C1065 1.493 . S
C2682 C182 1.506 . S
C2707 C1124 1.493 . S
C2712 C123 1.506 . S
C2737 C1183 1.493 . S
C2742 C359 1.506 . S
C2767 C1242 1.493 . S
C2772 C241 1.506 . S
C2797 C300 1.506 . S
C2802 C1301 1.493 . S
C2827 C1360 1.493 . S
C2832 C418 1.506 . S
