# Generated by pormake.
# Topology atn, (4)-cn, num edge types: 1
# Building blocks:
#     Node 0, Type 0, BuildingBlock: UXUYUI_clean_sbu_0, # of connection points: 4
#     Node 1, Type 0, BuildingBlock: UXUYUI_clean_sbu_0, # of connection points: 4
#     Node 2, Type 0, BuildingBlock: UXUYUI_clean_sbu_0, # of connection points: 4
#     Node 3, Type 0, BuildingBlock: UXUYUI_clean_sbu_0, # of connection points: 4
#     Node 4, Type 0, BuildingBlock: UXUYUI_clean_sbu_0, # of connection points: 4
#     Node 5, Type 0, BuildingBlock: UXUYUI_clean_sbu_0, # of connection points: 4
#     Node 6, Type 0, BuildingBlock: UXUYUI_clean_sbu_0, # of connection points: 4
#     Node 7, Type 0, BuildingBlock: UXUYUI_clean_sbu_0, # of connection points: 4
#     Node 8, Type 0, BuildingBlock: UXUYUI_clean_sbu_0, # of connection points: 4
#     Node 9, Type 0, BuildingBlock: UXUYUI_clean_sbu_0, # of connection points: 4
#     Node 10, Type 0, BuildingBlock: UXUYUI_clean_sbu_0, # of connection points: 4
#     Node 11, Type 0, BuildingBlock: UXUYUI_clean_sbu_0, # of connection points: 4
#     Node 12, Type 0, BuildingBlock: UXUYUI_clean_sbu_0, # of connection points: 4
#     Node 13, Type 0, BuildingBlock: UXUYUI_clean_sbu_0, # of connection points: 4
#     Node 14, Type 0, BuildingBlock: UXUYUI_clean_sbu_0, # of connection points: 4
#     Node 15, Type 0, BuildingBlock: UXUYUI_clean_sbu_0, # of connection points: 4
#     Edge 16, Type (0, 0), BuildingBlock: KIFKEQ_clean_linker_1, # of connection points: 2
#     Edge 17, Type (0, 0), BuildingBlock: KIFKEQ_clean_linker_1, # of connection points: 2
#     Edge 18, Type (0, 0), BuildingBlock: KIFKEQ_clean_linker_1, # of connection points: 2
#     Edge 19, Type (0, 0), BuildingBlock: KIFKEQ_clean_linker_1, # of connection points: 2
#     Edge 20, Type (0, 0), BuildingBlock: KIFKEQ_clean_linker_1, # of connection points: 2
#     Edge 21, Type (0, 0), BuildingBlock: KIFKEQ_clean_linker_1, # of connection points: 2
#     Edge 22, Type (0, 0), BuildingBlock: KIFKEQ_clean_linker_1, # of connection points: 2
#     Edge 23, Type (0, 0), BuildingBlock: KIFKEQ_clean_linker_1, # of connection points: 2
#     Edge 24, Type (0, 0), BuildingBlock: KIFKEQ_clean_linker_1, # of connection points: 2
#     Edge 25, Type (0, 0), BuildingBlock: KIFKEQ_clean_linker_1, # of connection points: 2
#     Edge 26, Type (0, 0), BuildingBlock: KIFKEQ_clean_linker_1, # of connection points: 2
#     Edge 27, Type (0, 0), BuildingBlock: KIFKEQ_clean_linker_1, # of connection points: 2
#     Edge 28, Type (0, 0), BuildingBlock: KIFKEQ_clean_linker_1, # of connection points: 2
#     Edge 29, Type (0, 0), BuildingBlock: KIFKEQ_clean_linker_1, # of connection points: 2
#     Edge 30, Type (0, 0), BuildingBlock: KIFKEQ_clean_linker_1, # of connection points: 2
#     Edge 31, Type (0, 0), BuildingBlock: KIFKEQ_clean_linker_1, # of connection points: 2
#     Edge 32, Type (0, 0), BuildingBlock: KIFKEQ_clean_linker_1, # of connection points: 2
#     Edge 33, Type (0, 0), BuildingBlock: KIFKEQ_clean_linker_1, # of connection points: 2
#     Edge 34, Type (0, 0), BuildingBlock: KIFKEQ_clean_linker_1, # of connection points: 2
#     Edge 35, Type (0, 0), BuildingBlock: KIFKEQ_clean_linker_1, # of connection points: 2
#     Edge 36, Type (0, 0), BuildingBlock: KIFKEQ_clean_linker_1, # of connection points: 2
#     Edge 37, Type (0, 0), BuildingBlock: KIFKEQ_clean_linker_1, # of connection points: 2
#     Edge 38, Type (0, 0), BuildingBlock: KIFKEQ_clean_linker_1, # of connection points: 2
#     Edge 39, Type (0, 0), BuildingBlock: KIFKEQ_clean_linker_1, # of connection points: 2
#     Edge 40, Type (0, 0), BuildingBlock: KIFKEQ_clean_linker_1, # of connection points: 2
#     Edge 41, Type (0, 0), BuildingBlock: KIFKEQ_clean_linker_1, # of connection points: 2
#     Edge 42, Type (0, 0), BuildingBlock: KIFKEQ_clean_linker_1, # of connection points: 2
#     Edge 43, Type (0, 0), BuildingBlock: KIFKEQ_clean_linker_1, # of connection points: 2
#     Edge 44, Type (0, 0), BuildingBlock: KIFKEQ_clean_linker_1, # of connection points: 2
#     Edge 45, Type (0, 0), BuildingBlock: KIFKEQ_clean_linker_1, # of connection points: 2
#     Edge 46, Type (0, 0), BuildingBlock: KIFKEQ_clean_linker_1, # of connection points: 2
#     Edge 47, Type (0, 0), BuildingBlock: KIFKEQ_clean_linker_1, # of connection points: 2
# Relax obj value: 0.164
# Max RMSD: 0.140
# Mean RMSD: 0.140
data_MOF--net-atn--node1-UXUYUI_clean_sbu_0--edge1-KIFKEQ_clean_linker_1
_symmetry_space_group_name_H-M    P1
_symmetry_Int_Tables_number       1
_symmetry_cell_setting            triclinic
loop_
_symmetry_equiv_pos_as_xyz
'x, y, z'
_cell_length_a     92.316439
_cell_length_b     92.301016
_cell_length_c     37.880671
_cell_angle_alpha  89.990919
_cell_angle_beta   89.994044
_cell_angle_gamma 90.001498
loop_
_atom_site_label
_atom_site_type_symbol
_atom_site_fract_x
_atom_site_fract_y
_atom_site_fract_z
_atom_type_partial_charge
Li0 Li 0.21182 0.39466 0.99472 0.0
Li1 Li 0.202 0.3752 0.03025 0.0
Li2 Li 0.22442 0.37191 0.99276 0.0
Li3 Li 0.20032 0.37369 0.96492 0.0
C4 C 0.22688 0.39582 0.05296 0.0
N5 N 0.2376 0.41961 0.08857 0.0
C6 C 0.21911 0.40178 0.08107 0.0
C7 C 0.24017 0.40184 0.04317 0.0
C8 C 0.2247 0.41384 0.0987 0.0
C9 C 0.24539 0.41391 0.06143 0.0
C10 C 0.17652 0.38718 0.00085 0.0
C11 C 0.15459 0.373 -0.00044 0.0
N12 N 0.1468 0.38505 0.0077 0.0
C13 C 0.16829 0.39945 0.00892 0.0
C14 C 0.16962 0.37387 0.9959 0.0
C15 C 0.15328 0.39814 0.01239 0.0
C16 C 0.22317 0.42177 0.97168 0.0
N17 N 0.21378 0.41512 0.99404 0.0
C18 C 0.20626 0.4379 0.01761 0.0
C19 C 0.20537 0.42283 0.0167 0.0
C20 C 0.21586 0.44512 0.99483 0.0
C21 C 0.22441 0.43685 0.97167 0.0
H22 H 0.22968 0.41539 0.95381 0.0
H23 H 0.19798 0.41722 0.03413 0.0
C24 C 0.20025 0.35883 0.09154 0.0
N25 N 0.19369 0.36992 0.07419 0.0
C26 C 0.19509 0.35429 0.12431 0.0
C27 C 0.17664 0.37284 0.12111 0.0
C28 C 0.18219 0.37704 0.08836 0.0
C29 C 0.18312 0.36132 0.13952 0.0
H30 H 0.20949 0.35349 0.07973 0.0
H31 H 0.17741 0.38608 0.07453 0.0
C32 C 0.22896 0.38259 0.92726 0.0
N33 N 0.25052 0.37901 0.87743 0.0
C34 C 0.22607 0.37518 0.89586 0.0
C35 C 0.24279 0.38827 0.93321 0.0
C36 C 0.23712 0.37347 0.87102 0.0
C37 C 0.25355 0.38631 0.90773 0.0
C38 C 0.20361 0.34466 0.99895 0.0
C39 C 0.21228 0.33439 0.98196 0.0
C40 C 0.19113 0.34013 0.01675 0.0
C41 C 0.20825 0.3198 0.98271 0.0
C42 C 0.18747 0.32544 0.01693 0.0
N43 N 0.19603 0.31567 3e-05 0.0
C44 C 0.25074 0.36184 0.0209 0.0
C45 C 0.24642 0.3543 0.96203 0.0
C46 C 0.26333 0.35347 0.0224 0.0
N47 N 0.2425 0.36197 0.99116 0.0
C48 C 0.25898 0.34592 0.96222 0.0
C49 C 0.26747 0.34523 0.99291 0.0
H50 H 0.24729 0.3679 0.04384 0.0
H51 H 0.2395 0.35422 0.93905 0.0
C52 C 0.18263 0.37833 0.9059 0.0
N53 N 0.18899 0.36776 0.92549 0.0
C54 C 0.17497 0.3748 0.87528 0.0
C55 C 0.1803 0.34954 0.88606 0.0
C56 C 0.18792 0.35357 0.91629 0.0
C57 C 0.17383 0.36023 0.86491 0.0
H58 H 0.18374 0.38954 0.91381 0.0
H59 H 0.19321 0.34537 0.93185 0.0
O60 O 0.22141 0.38425 0.03481 0.0
O61 O 0.19124 0.38831 0.99752 0.0
O62 O 0.21828 0.38436 0.95189 0.0
O63 O 0.20749 0.359 0.99871 0.0
H64 H 0.20879 0.39724 0.08892 0.0
H65 H 0.24634 0.3973 0.02155 0.0
H66 H 0.21876 0.41864 0.12036 0.0
H67 H 0.25562 0.41875 0.05401 0.0
H68 H 0.14912 0.36275 0.99582 0.0
H69 H 0.17345 0.40987 0.01259 0.0
H70 H 0.17576 0.36435 0.989 0.0
H71 H 0.14679 0.40754 0.01879 0.0
H72 H 0.19931 0.44384 0.03553 0.0
H73 H 0.23206 0.44196 0.95391 0.0
H74 H 0.20032 0.34527 0.1374 0.0
H75 H 0.16754 0.37869 0.13216 0.0
H76 H 0.21543 0.37075 0.89076 0.0
H77 H 0.24523 0.39397 0.95743 0.0
H78 H 0.23505 0.36772 0.84665 0.0
H79 H 0.26432 0.39056 0.91209 0.0
H80 H 0.22194 0.33763 0.96798 0.0
H81 H 0.18434 0.34781 0.0305 0.0
H82 H 0.21484 0.31177 0.9695 0.0
H83 H 0.17784 0.32182 0.03058 0.0
H84 H 0.26961 0.35323 0.04654 0.0
H85 H 0.26165 0.33951 0.93916 0.0
H86 H 0.17007 0.38336 0.85981 0.0
H87 H 0.17989 0.33821 0.87871 0.0
Li88 Li 0.6035 0.21207 0.99893 0.0
Li89 Li 0.62363 0.20125 0.03177 0.0
Li90 Li 0.62589 0.22409 0.00113 0.0
Li91 Li 0.62365 0.20156 0.96712 0.0
C92 C 0.61448 0.23194 0.06121 0.0
N93 N 0.61794 0.2573 0.09912 0.0
C94 C 0.62194 0.23184 0.09331 0.0
C95 C 0.60853 0.2449 0.04879 0.0
C96 C 0.62364 0.24478 0.112 0.0
C97 C 0.61047 0.25761 0.0682 0.0
C98 C 0.6002 0.18268 0.01552 0.0
C99 C 0.58702 0.16021 0.02049 0.0
N100 N 0.58021 0.16536 0.04974 0.0
C101 C 0.59305 0.18777 0.04564 0.0
C102 C 0.59714 0.16881 0.00279 0.0
C103 C 0.58298 0.17885 0.06255 0.0
C104 C 0.57555 0.20643 0.97303 0.0
N105 N 0.58301 0.21406 0.99772 0.0
C106 C 0.56101 0.22329 0.02204 0.0
C107 C 0.5761 0.22237 0.02205 0.0
C108 C 0.55297 0.21561 0.99667 0.0
C109 C 0.56048 0.20717 0.97176 0.0
H110 H 0.58134 0.19967 0.95445 0.0
H111 H 0.58228 0.22803 0.04195 0.0
C112 C 0.64211 0.19736 0.08859 0.0
N113 N 0.63071 0.19094 0.07209 0.0
C114 C 0.64815 0.19116 0.11877 0.0
C115 C 0.63096 0.17153 0.11393 0.0
C116 C 0.6253 0.17807 0.08366 0.0
C117 C 0.64245 0.17816 0.13205 0.0
H118 H 0.64641 0.20743 0.0784 0.0
H119 H 0.61667 0.17277 0.06956 0.0
C120 C 0.6033 0.22451 0.93622 0.0
N121 N 0.58064 0.23215 0.89227 0.0
C122 C 0.59974 0.21582 0.90728 0.0
C123 C 0.59545 0.23721 0.94247 0.0
C124 C 0.58823 0.21984 0.88544 0.0
C125 C 0.584 0.24085 0.92007 0.0
C126 C 0.65016 0.19723 -8e-05 0.0
C127 C 0.66466 0.20151 0.00181 0.0
C128 C 0.64671 0.1825 0.99817 0.0
C129 C 0.6755 0.19095 0.00184 0.0
C130 C 0.65787 0.17227 0.99826 0.0
N131 N 0.67191 0.17667 7e-05 0.0
C132 C 0.64659 0.24384 0.02619 0.0
C133 C 0.63287 0.2523 0.97744 0.0
C134 C 0.65487 0.25648 0.02617 0.0
N135 N 0.6359 0.24199 0.00195 0.0
C136 C 0.64092 0.26509 0.97636 0.0
C137 C 0.65221 0.26722 0.00069 0.0
H138 H 0.64885 0.23534 0.04507 0.0
H139 H 0.6244 0.25046 0.95828 0.0
C140 C 0.62219 0.1807 0.91203 0.0
N141 N 0.62997 0.19182 0.92596 0.0
C142 C 0.62656 0.17426 0.88038 0.0
C143 C 0.64708 0.19054 0.87886 0.0
C144 C 0.64224 0.19674 0.91027 0.0
C145 C 0.6391 0.17928 0.86315 0.0
H146 H 0.61239 0.17713 0.92499 0.0
H147 H 0.64818 0.20561 0.92205 0.0
O148 O 0.61292 0.21942 0.04218 0.0
O149 O 0.60985 0.19131 0.99792 0.0
O150 O 0.61442 0.22063 0.95822 0.0
O151 O 0.63946 0.20748 0.00016 0.0
H152 H 0.62632 0.22189 0.10383 0.0
H153 H 0.6026 0.24516 0.02423 0.0
H154 H 0.62946 0.24486 0.13678 0.0
H155 H 0.60605 0.26774 0.05866 0.0
H156 H 0.58457 0.14944 0.01094 0.0
H157 H 0.59526 0.19844 0.05601 0.0
H158 H 0.60254 0.16472 0.97946 0.0
H159 H 0.57739 0.18264 0.08587 0.0
H160 H 0.55571 0.22968 0.04223 0.0
H161 H 0.5548 0.20118 0.95147 0.0
H162 H 0.65699 0.19666 0.13197 0.0
H163 H 0.62647 0.16133 0.12289 0.0
H164 H 0.60571 0.20601 0.90184 0.0
H165 H 0.5981 0.24416 0.96447 0.0
H166 H 0.58531 0.21315 0.8631 0.0
H167 H 0.57777 0.25059 0.92479 0.0
H168 H 0.66749 0.21287 0.0033 0.0
H169 H 0.63556 0.17896 0.99684 0.0
H170 H 0.68677 0.1941 0.00329 0.0
H171 H 0.65536 0.16084 0.99693 0.0
H172 H 0.66361 0.25759 0.04506 0.0
H173 H 0.63845 0.27314 0.95646 0.0
H174 H 0.61997 0.16574 0.86909 0.0
H175 H 0.65695 0.19458 0.86698 0.0
Li176 Li 0.79657 0.62544 0.03314 0.0
Li177 Li 0.78666 0.60465 0.00552 0.0
Li178 Li 0.79939 0.62381 0.96929 0.0
Li179 Li 0.775 0.62751 0.99731 0.0
C180 C 0.82083 0.60942 0.02071 0.0
N181 N 0.84799 0.60694 0.05083 0.0
C182 C 0.82241 0.60328 0.05424 0.0
C183 C 0.83307 0.61428 0.0025 0.0
C184 C 0.83623 0.60214 0.06902 0.0
C185 C 0.84671 0.61293 0.01817 0.0
C186 C 0.77132 0.60627 0.06218 0.0
C187 C 0.75241 0.58877 0.07269 0.0
N188 N 0.75957 0.58408 0.10191 0.0
C189 C 0.77848 0.60131 0.09238 0.0
C190 C 0.75815 0.6 0.05231 0.0
C191 C 0.77236 0.59008 0.11211 0.0
C192 C 0.79603 0.63607 0.10228 0.0
N193 N 0.80522 0.63335 0.07506 0.0
C194 C 0.82524 0.64231 0.10862 0.0
C195 C 0.81952 0.63676 0.07732 0.0
C196 C 0.81607 0.64487 0.13762 0.0
C197 C 0.80121 0.64188 0.13382 0.0
H198 H 0.7846 0.63382 0.09938 0.0
H199 H 0.82654 0.63522 0.05486 0.0
C200 C 0.77557 0.57738 0.98377 0.0
N201 N 0.78385 0.58421 0.00837 0.0
C202 C 0.77399 0.56233 0.98461 0.0
C203 C 0.78934 0.56166 0.03626 0.0
C204 C 0.79063 0.57668 0.03437 0.0
C205 C 0.78108 0.55427 0.0109 0.0
H206 H 0.77045 0.58357 0.96307 0.0
H207 H 0.79713 0.58231 0.05358 0.0
C208 C 0.79571 0.65278 0.01393 0.0
N209 N 0.80323 0.67723 0.05174 0.0
C210 C 0.78546 0.65968 0.03524 0.0
C211 C 0.80977 0.65833 0.01172 0.0
C212 C 0.78948 0.67203 0.05418 0.0
C213 C 0.81336 0.67071 0.03107 0.0
C214 C 0.77012 0.6152 0.93505 0.0
C215 C 0.77319 0.62236 0.90339 0.0
C216 C 0.75609 0.61012 0.94142 0.0
C217 C 0.76211 0.62445 0.87878 0.0
C218 C 0.74532 0.61245 0.91617 0.0
N219 N 0.74852 0.61951 0.88564 0.0
C220 C 0.81638 0.61698 0.90946 0.0
C221 C 0.81222 0.64202 0.9191 0.0
C222 C 0.82394 0.62 0.87835 0.0
N223 N 0.8107 0.62796 0.92895 0.0
C224 C 0.81975 0.64554 0.88836 0.0
C225 C 0.82563 0.63445 0.86739 0.0
H226 H 0.81485 0.60588 0.91788 0.0
H227 H 0.80729 0.6505 0.9347 0.0
C228 C 0.74693 0.63702 0.01661 0.0
N229 N 0.75738 0.63781 0.99144 0.0
C230 C 0.73435 0.64533 0.01358 0.0
C231 C 0.74348 0.65494 0.95853 0.0
C232 C 0.75595 0.6466 0.96289 0.0
C233 C 0.73252 0.65454 0.98431 0.0
H234 H 0.74853 0.63025 0.03956 0.0
H235 H 0.76459 0.64727 0.94372 0.0
O236 O 0.80743 0.61049 0.00549 0.0
O237 O 0.77725 0.6171 0.04217 0.0
O238 O 0.7921 0.64044 0.99604 0.0
O239 O 0.78078 0.6132 0.95967 0.0
H240 H 0.81307 0.59978 0.06912 0.0
H241 H 0.83208 0.61908 0.97658 0.0
H242 H 0.83759 0.59752 0.09505 0.0
H243 H 0.85627 0.61667 0.00438 0.0
H244 H 0.74226 0.58376 0.06524 0.0
H245 H 0.78875 0.60593 0.10025 0.0
H246 H 0.75248 0.60367 0.02901 0.0
H247 H 0.77782 0.58608 0.13541 0.0
H248 H 0.83676 0.64439 0.11007 0.0
H249 H 0.79359 0.64411 0.15483 0.0
H250 H 0.76767 0.55704 0.96427 0.0
H251 H 0.79483 0.5559 0.05727 0.0
H252 H 0.77456 0.65545 0.03745 0.0
H253 H 0.81788 0.653 0.9957 0.0
H254 H 0.78168 0.67745 0.07092 0.0
H255 H 0.82422 0.67507 0.02981 0.0
H256 H 0.78397 0.62634 0.89793 0.0
H257 H 0.75352 0.60457 0.96576 0.0
H258 H 0.76432 0.63003 0.85424 0.0
H259 H 0.73439 0.60866 0.92088 0.0
H260 H 0.82836 0.61114 0.863 0.0
H261 H 0.82055 0.65679 0.88051 0.0
H262 H 0.72639 0.64489 0.03454 0.0
H263 H 0.74252 0.66172 0.93533 0.0
Li264 Li 0.37429 0.79736 0.0292 0.0
Li265 Li 0.39389 0.78712 0.99715 0.0
Li266 Li 0.37347 0.79891 0.96566 0.0
Li267 Li 0.37034 0.77521 0.99763 0.0
C268 C 0.38983 0.82216 0.00231 0.0
N269 N 0.39399 0.85159 0.01143 0.0
C270 C 0.40224 0.82728 0.01944 0.0
C271 C 0.37964 0.83205 0.9894 0.0
C272 C 0.40411 0.84218 0.02393 0.0
C273 C 0.38192 0.84687 0.99438 0.0
C274 C 0.39258 0.77824 0.06644 0.0
C275 C 0.40387 0.76582 0.11522 0.0
N276 N 0.41093 0.77824 0.12406 0.0
C277 C 0.39995 0.79087 0.07598 0.0
C278 C 0.39455 0.7656 0.08617 0.0
C279 C 0.40917 0.79065 0.1052 0.0
C280 C 0.36409 0.79732 0.09836 0.0
N281 N 0.36868 0.80654 0.07269 0.0
C282 C 0.36388 0.82694 0.10982 0.0
C283 C 0.36865 0.82113 0.07785 0.0
C284 C 0.35899 0.81765 0.13664 0.0
C285 C 0.35918 0.80265 0.13064 0.0
H286 H 0.36406 0.78577 0.09354 0.0
H287 H 0.37203 0.82834 0.05716 0.0
C288 C 0.42214 0.79539 0.98151 0.0
N289 N 0.41418 0.78441 0.9954 0.0
C290 C 0.43722 0.79464 0.98159 0.0
C291 C 0.4356 0.77103 0.00907 0.0
C292 C 0.42053 0.7723 0.00877 0.0
C293 C 0.44412 0.7824 0.9958 0.0
H294 H 0.41676 0.80482 0.97082 0.0
H295 H 0.41391 0.76375 0.01974 0.0
C296 C 0.34635 0.79697 0.01786 0.0
N297 N 0.32418 0.80616 0.06142 0.0
C298 C 0.33912 0.78705 0.03945 0.0
C299 C 0.34221 0.81154 0.01814 0.0
C300 C 0.32795 0.79191 0.06134 0.0
C301 C 0.331 0.81598 0.04043 0.0
C302 C 0.38991 0.7682 0.94133 0.0
C303 C 0.39412 0.7686 0.90593 0.0
C304 C 0.39313 0.75604 0.96187 0.0
C305 C 0.40149 0.75676 0.89157 0.0
C306 C 0.40052 0.74443 0.94655 0.0
N307 N 0.40451 0.74503 0.91201 0.0
C308 C 0.37861 0.81298 0.90108 0.0
C309 C 0.354 0.81245 0.91906 0.0
C310 C 0.37489 0.82018 0.86995 0.0
N311 N 0.36817 0.80924 0.92466 0.0
C312 C 0.34981 0.81973 0.88845 0.0
C313 C 0.36031 0.82359 0.8633 0.0
H314 H 0.38979 0.81023 0.90636 0.0
H315 H 0.34593 0.80919 0.93818 0.0
C316 C 0.35934 0.74915 0.02573 0.0
N317 N 0.36033 0.75737 0.99609 0.0
C318 C 0.35136 0.73631 0.02539 0.0
C319 C 0.34578 0.74059 0.96387 0.0
C320 C 0.35387 0.75334 0.96542 0.0
C321 C 0.34432 0.73195 0.99424 0.0
H322 H 0.36456 0.75271 0.04976 0.0
H323 H 0.35481 0.76019 0.94235 0.0
O324 O 0.38799 0.8076 0.99709 0.0
O325 O 0.38361 0.77811 0.03768 0.0
O326 O 0.3576 0.79248 0.99707 0.0
O327 O 0.38278 0.77975 0.95579 0.0
H328 H 0.41038 0.81983 0.02909 0.0
H329 H 0.37 0.82835 0.97607 0.0
H330 H 0.41363 0.84628 0.03725 0.0
H331 H 0.37407 0.85462 0.98473 0.0
H332 H 0.40551 0.75611 0.13071 0.0
H333 H 0.39855 0.80072 0.06108 0.0
H334 H 0.38899 0.75571 0.07901 0.0
H335 H 0.41494 0.80036 0.11288 0.0
H336 H 0.3637 0.83859 0.11319 0.0
H337 H 0.35562 0.7951 0.15072 0.0
H338 H 0.44342 0.80354 0.97067 0.0
H339 H 0.44055 0.76146 0.02043 0.0
H340 H 0.34221 0.77575 0.03963 0.0
H341 H 0.34771 0.81937 0.00167 0.0
H342 H 0.32233 0.78438 0.07838 0.0
H343 H 0.32777 0.82724 0.04114 0.0
H344 H 0.39173 0.77797 0.88974 0.0
H345 H 0.39007 0.75561 0.98941 0.0
H346 H 0.40482 0.75691 0.86419 0.0
H347 H 0.40311 0.73496 0.96215 0.0
H348 H 0.38331 0.82305 0.8513 0.0
H349 H 0.33843 0.82194 0.88407 0.0
H350 H 0.35064 0.72991 0.0493 0.0
H351 H 0.34037 0.73776 0.93946 0.0
Li352 Li 0.20298 0.62652 0.0321 0.0
Li353 Li 0.22506 0.62843 0.99758 0.0
Li354 Li 0.20141 0.62623 0.9691 0.0
Li355 Li 0.21213 0.60508 0.99741 0.0
C356 C 0.20466 0.65447 0.01687 0.0
N357 N 0.19661 0.67889 0.05437 0.0
C358 C 0.21521 0.66353 0.03153 0.0
C359 C 0.19001 0.65789 0.02125 0.0
C360 C 0.21093 0.67582 0.05037 0.0
C361 C 0.18617 0.67025 0.04033 0.0
C362 C 0.23233 0.61582 0.06197 0.0
C363 C 0.25112 0.60403 0.09565 0.0
N364 N 0.25496 0.61704 0.10964 0.0
C365 C 0.23653 0.62908 0.07652 0.0
C366 C 0.23973 0.60319 0.07143 0.0
C367 C 0.24798 0.62947 0.10062 0.0
C368 C 0.18026 0.62608 0.08272 0.0
N369 N 0.19343 0.63192 0.0751 0.0
C370 C 0.19245 0.64663 0.12692 0.0
C371 C 0.19969 0.64179 0.09692 0.0
C372 C 0.1787 0.64109 0.13498 0.0
C373 C 0.17267 0.6305 0.11282 0.0
H374 H 0.17556 0.61812 0.0652 0.0
H375 H 0.21015 0.64624 0.09073 0.0
C376 C 0.24331 0.65028 0.97473 0.0
N377 N 0.24353 0.63753 0.99263 0.0
C378 C 0.25586 0.65857 0.97159 0.0
C379 C 0.26892 0.64004 0.00353 0.0
C380 C 0.25609 0.63206 0.00591 0.0
C381 C 0.26883 0.65362 0.98673 0.0
H382 H 0.23323 0.65422 0.96379 0.0
H383 H 0.25616 0.62165 0.01889 0.0
C384 C 0.1794 0.6102 0.98423 0.0
N385 N 0.15442 0.6061 0.94533 0.0
C386 C 0.17823 0.59839 0.96134 0.0
C387 C 0.16782 0.61986 0.98757 0.0
C388 C 0.16552 0.59651 0.94186 0.0
C389 C 0.1553 0.61762 0.9676 0.0
C390 C 0.23184 0.61006 0.94208 0.0
C391 C 0.23456 0.61149 0.90597 0.0
C392 C 0.24167 0.60258 0.9634 0.0
C393 C 0.2471 0.60536 0.89172 0.0
C394 C 0.2541 0.59662 0.94817 0.0
N395 N 0.25653 0.59812 0.91294 0.0
C396 C 0.18424 0.64496 0.92658 0.0
C397 C 0.19086 0.62263 0.90025 0.0
C398 C 0.17724 0.64931 0.89571 0.0
N399 N 0.19086 0.63183 0.92825 0.0
C400 C 0.18404 0.62655 0.86879 0.0
C401 C 0.17721 0.64011 0.86616 0.0
H402 H 0.18466 0.65221 0.94888 0.0
H403 H 0.19634 0.6123 0.90228 0.0
C404 C 0.21302 0.57721 0.02729 0.0
N405 N 0.21372 0.5846 0.99632 0.0
C406 C 0.21392 0.56212 0.02752 0.0
C407 C 0.21602 0.56253 0.96389 0.0
C408 C 0.21511 0.57761 0.96491 0.0
C409 C 0.21542 0.55458 0.9955 0.0
H410 H 0.21163 0.58307 0.05179 0.0
H411 H 0.2154 0.58375 0.94061 0.0
O412 O 0.20864 0.64231 0.99852 0.0
O413 O 0.22122 0.61519 0.03809 0.0
O414 O 0.19192 0.61244 0.00277 0.0
O415 O 0.21963 0.61608 0.95637 0.0
H416 H 0.22659 0.66103 0.0289 0.0
H417 H 0.18168 0.65094 0.01058 0.0
H418 H 0.21898 0.68287 0.06197 0.0
H419 H 0.17487 0.67295 0.0441 0.0
H420 H 0.25692 0.59434 0.10323 0.0
H421 H 0.23138 0.63902 0.06834 0.0
H422 H 0.23678 0.59286 0.06009 0.0
H423 H 0.2514 0.63969 0.11188 0.0
H424 H 0.19757 0.65464 0.14367 0.0
H425 H 0.16208 0.62596 0.11824 0.0
H426 H 0.25526 0.669 0.95859 0.0
H427 H 0.27876 0.6357 0.01495 0.0
H428 H 0.18709 0.59083 0.95836 0.0
H429 H 0.16852 0.62903 0.00522 0.0
H430 H 0.1645 0.58746 0.92389 0.0
H431 H 0.14629 0.62506 0.96978 0.0
H432 H 0.22704 0.61727 0.88915 0.0
H433 H 0.23975 0.60138 0.99139 0.0
H434 H 0.24935 0.60638 0.8638 0.0
H435 H 0.2618 0.5908 0.96435 0.0
H436 H 0.17233 0.65995 0.89461 0.0
H437 H 0.18418 0.6191 0.84671 0.0
H438 H 0.21317 0.5564 0.05242 0.0
H439 H 0.21726 0.55716 0.93866 0.0
Li440 Li 0.36992 0.22356 0.99607 0.0
Li441 Li 0.37308 0.20184 0.03251 0.0
Li442 Li 0.39286 0.2127 -0.00028 0.0
Li443 Li 0.37322 0.20046 0.9678 0.0
C444 C 0.39217 0.22612 0.06173 0.0
N445 N 0.41397 0.23536 0.10646 0.0
C446 C 0.39515 0.21851 0.09281 0.0
C447 C 0.40016 0.23857 0.05373 0.0
C448 C 0.40624 0.22332 0.11501 0.0
C449 C 0.41117 0.24302 0.07656 0.0
C450 C 0.34699 0.19551 0.00038 0.0
C451 C 0.3408 0.17017 0.00409 0.0
N452 N 0.3265 0.17372 0.00335 0.0
C453 C 0.33225 0.19891 -0.00034 0.0
C454 C 0.35132 0.18102 0.00261 0.0
C455 C 0.32205 0.18774 0.00119 0.0
C456 C 0.34625 0.24017 0.97499 0.0
N457 N 0.35898 0.2409 0.99286 0.0
C458 C 0.35459 0.26563 0.00806 0.0
C459 C 0.36334 0.25329 0.00908 0.0
C460 C 0.34117 0.26505 0.99069 0.0
C461 C 0.33709 0.25217 0.97366 0.0
H462 H 0.34311 0.23016 0.96227 0.0
H463 H 0.37348 0.25352 0.0233 0.0
C464 C 0.37552 0.18186 0.08922 0.0
N465 N 0.36717 0.19234 0.07442 0.0
C466 C 0.37136 0.17542 0.12103 0.0
C467 C 0.34992 0.19048 0.12112 0.0
C468 C 0.35456 0.19669 0.08953 0.0
C469 C 0.35843 0.1798 0.13757 0.0
H470 H 0.38559 0.17875 0.07673 0.0
H471 H 0.34816 0.20507 0.07709 0.0
C472 C 0.38115 0.23142 0.93683 0.0
N473 N 0.37653 0.25684 0.89989 0.0
C474 C 0.37201 0.23155 0.90743 0.0
C475 C 0.38812 0.24419 0.94708 0.0
C476 C 0.36977 0.24451 0.88919 0.0
C477 C 0.3856 0.25694 0.92817 0.0
C478 C 0.39745 0.1832 0.98644 0.0
C479 C 0.40451 0.18796 0.95588 0.0
C480 C 0.4011 0.16978 0.00104 0.0
C481 C 0.41509 0.17919 0.94045 0.0
C482 C 0.41172 0.16131 0.98476 0.0
N483 N 0.41844 0.16616 0.95507 0.0
C484 C 0.4207 0.20886 0.02788 0.0
C485 C 0.42033 0.22222 0.97446 0.0
C486 C 0.43577 0.2096 0.02913 0.0
N487 N 0.41332 0.21522 0.001 0.0
C488 C 0.43542 0.22308 0.97441 0.0
C489 C 0.44337 0.21665 0.00195 0.0
H490 H 0.41486 0.20302 0.04811 0.0
H491 H 0.41423 0.22675 0.95277 0.0
C492 C 0.35491 0.19464 0.91164 0.0
N493 N 0.36675 0.18918 0.92834 0.0
C494 C 0.34932 0.18782 0.88176 0.0
C495 C 0.36782 0.16946 0.88744 0.0
C496 C 0.37301 0.17661 0.91737 0.0
C497 C 0.35591 0.17515 0.86901 0.0
H498 H 0.34988 0.20442 0.92146 0.0
H499 H 0.38199 0.17203 0.93167 0.0
O500 O 0.38144 0.22147 0.03948 0.0
O501 O 0.35706 0.20638 0.99877 0.0
O502 O 0.38321 0.2189 0.95563 0.0
O503 O 0.38735 0.19175 0.0027 0.0
H504 H 0.38904 0.20896 0.09974 0.0
H505 H 0.39799 0.24467 0.03001 0.0
H506 H 0.40871 0.21748 0.13902 0.0
H507 H 0.41751 0.25256 0.07048 0.0
H508 H 0.344 0.15892 0.00581 0.0
H509 H 0.32872 0.21008 0.99794 0.0
H510 H 0.36267 0.17815 0.00317 0.0
H511 H 0.3106 0.19022 0.00065 0.0
H512 H 0.35804 0.27535 0.02172 0.0
H513 H 0.32688 0.25136 0.95972 0.0
H514 H 0.37836 0.16738 0.13293 0.0
H515 H 0.33976 0.19401 0.13249 0.0
H516 H 0.36671 0.22177 0.89868 0.0
H517 H 0.39529 0.24429 0.96957 0.0
H518 H 0.36266 0.24477 0.8665 0.0
H519 H 0.39083 0.26691 0.93604 0.0
H520 H 0.40182 0.19827 0.94405 0.0
H521 H 0.39577 0.16594 0.0247 0.0
H522 H 0.42063 0.18275 0.91681 0.0
H523 H 0.41463 0.1509 0.99576 0.0
H524 H 0.44138 0.20461 0.05109 0.0
H525 H 0.4408 0.22833 0.95247 0.0
H526 H 0.34013 0.19261 0.86835 0.0
H527 H 0.373 0.15952 0.87897 0.0
Li528 Li 0.79431 0.37376 0.02852 0.0
Li529 Li 0.77103 0.37193 0.99392 0.0
Li530 Li 0.7955 0.37561 0.96514 0.0
Li531 Li 0.78459 0.3944 0.99762 0.0
C532 C 0.79156 0.34583 0.00857 0.0
N533 N 0.79798 0.31982 0.04123 0.0
C534 C 0.78042 0.3365 0.01898 0.0
C535 C 0.80597 0.34184 0.01444 0.0
C536 C 0.78388 0.32342 0.03551 0.0
C537 C 0.80899 0.32868 0.0311 0.0
C538 C 0.77052 0.39371 0.05857 0.0
C539 C 0.75145 0.40928 0.07982 0.0
N540 N 0.76109 0.41593 0.10163 0.0
C541 C 0.78022 0.40063 0.08131 0.0
C542 C 0.75601 0.39801 0.05786 0.0
C543 C 0.77525 0.41187 0.10283 0.0
C544 C 0.81554 0.3734 0.08283 0.0
N545 N 0.80296 0.36738 0.07134 0.0
C546 C 0.80161 0.35244 0.12269 0.0
C547 C 0.79583 0.35731 0.09084 0.0
C548 C 0.81466 0.35836 0.13535 0.0
C549 C 0.8216 0.36905 0.11494 0.0
H550 H 0.82074 0.38176 0.06737 0.0
H551 H 0.7856 0.35304 0.08163 0.0
C552 C 0.74867 0.35662 0.96032 0.0
N553 N 0.75308 0.36221 0.99167 0.0
C554 C 0.73621 0.34807 0.95865 0.0
C555 C 0.73307 0.35136 0.02154 0.0
C556 C 0.74553 0.35992 0.02193 0.0
C557 C 0.72837 0.34511 0.98967 0.0
H558 H 0.75501 0.35855 0.93677 0.0
H559 H 0.7495 0.36429 0.04659 0.0
C560 C 0.81811 0.3896 0.98416 0.0
N561 N 0.84423 0.39183 0.94891 0.0
C562 C 0.82043 0.40086 0.96012 0.0
C563 C 0.82912 0.37954 0.99043 0.0
C564 C 0.8337 0.4018 0.94255 0.0
C565 C 0.84224 0.38083 0.97229 0.0
C566 C 0.76912 0.39596 0.93816 0.0
C567 C 0.77661 0.40729 0.92179 0.0
C568 C 0.75398 0.39585 0.93765 0.0
C569 C 0.76881 0.41836 0.90533 0.0
C570 C 0.74658 0.40711 0.92084 0.0
N571 N 0.75408 0.41804 0.90518 0.0
C572 C 0.81161 0.35661 0.92145 0.0
C573 C 0.80783 0.37993 0.89711 0.0
C574 C 0.81884 0.35215 0.89096 0.0
N575 N 0.80625 0.37028 0.92395 0.0
C576 C 0.81503 0.37597 0.8662 0.0
C577 C 0.82053 0.36185 0.86266 0.0
H578 H 0.81001 0.34904 0.94279 0.0
H579 H 0.80343 0.3907 0.89954 0.0
C580 C 0.79441 0.42268 0.00967 0.0
N581 N 0.78228 0.41496 0.00214 0.0
C582 C 0.79387 0.43774 0.0118 0.0
C583 C 0.76815 0.43667 0.0003 0.0
C584 C 0.7692 0.42159 0.99845 0.0
C585 C 0.78066 0.44495 0.00644 0.0
H586 H 0.80457 0.41715 0.01396 0.0
H587 H 0.7596 0.41522 0.9936 0.0
O588 O 0.78837 0.35877 0.99265 0.0
O589 O 0.77526 0.38294 0.03672 0.0
O590 O 0.80507 0.38833 0.00111 0.0
O591 O 0.77654 0.38494 0.95426 0.0
H592 H 0.76922 0.33931 0.01444 0.0
H593 H 0.81474 0.34888 0.00654 0.0
H594 H 0.77536 0.31613 0.04382 0.0
H595 H 0.82009 0.32552 0.03602 0.0
H596 H 0.74027 0.41279 0.07942 0.0
H597 H 0.79151 0.39746 0.082 0.0
H598 H 0.74839 0.39281 0.0402 0.0
H599 H 0.78265 0.41739 0.12041 0.0
H600 H 0.79591 0.34406 0.13705 0.0
H601 H 0.83146 0.37421 0.12388 0.0
H602 H 0.7329 0.34366 0.93344 0.0
H603 H 0.72754 0.34918 0.04618 0.0
H604 H 0.812 0.40869 0.95467 0.0
H605 H 0.82756 0.37079 0.00901 0.0
H606 H 0.8356 0.4104 0.92371 0.0
H607 H 0.85082 0.37307 0.97679 0.0
H608 H 0.78829 0.40775 0.92252 0.0
H609 H 0.74798 0.38725 0.95032 0.0
H610 H 0.77447 0.42726 0.89284 0.0
H611 H 0.73486 0.40718 0.92034 0.0
H612 H 0.82266 0.34108 0.88921 0.0
H613 H 0.81623 0.38386 0.84526 0.0
H614 H 0.8037 0.44367 0.01763 0.0
H615 H 0.75773 0.44178 0.99612 0.0
Li616 Li 0.62537 0.79438 0.03006 0.0
Li617 Li 0.62669 0.77159 0.99612 0.0
Li618 Li 0.62379 0.79536 0.96478 0.0
Li619 Li 0.60399 0.78426 0.99726 0.0
C620 C 0.65369 0.79382 0.99185 0.0
N621 N 0.68146 0.80475 0.98568 0.0
C622 C 0.66566 0.78481 0.99727 0.0
C623 C 0.65587 0.80836 0.98297 0.0
C624 C 0.67961 0.79055 0.99415 0.0
C625 C 0.66998 0.81368 0.98003 0.0
C626 C 0.61624 0.76417 0.05937 0.0
C627 C 0.61177 0.73897 0.07215 0.0
N628 N 0.62028 0.74003 0.10136 0.0
C629 C 0.62484 0.76506 0.08965 0.0
C630 C 0.60955 0.75107 0.05066 0.0
C631 C 0.62678 0.75272 0.11049 0.0
C632 C 0.62165 0.80914 0.09434 0.0
N633 N 0.63177 0.80377 0.07182 0.0
C634 C 0.65083 0.81073 0.11085 0.0
C635 C 0.64613 0.80445 0.07943 0.0
C636 C 0.64065 0.81616 0.13508 0.0
C637 C 0.62586 0.81541 0.12632 0.0
H638 H 0.61028 0.80832 0.08769 0.0
H639 H 0.65397 0.79993 0.06144 0.0
C640 C 0.63471 0.74474 0.96576 0.0
N641 N 0.63639 0.75349 0.99432 0.0
C642 C 0.64281 0.73201 0.9628 0.0
C643 C 0.65389 0.7374 0.01913 0.0
C644 C 0.64571 0.75007 0.0208 0.0
C645 C 0.65265 0.7283 0.9896 0.0
H646 H 0.62736 0.74783 0.94486 0.0
H647 H 0.64715 0.75744 0.04268 0.0
C648 C 0.60946 0.81938 0.99913 0.0
N649 N 0.60651 0.84918 0.99747 0.0
C650 C 0.59646 0.82565 0.98797 0.0
C651 C 0.62087 0.82828 0.01003 0.0
C652 C 0.59521 0.84073 0.98714 0.0
C653 C 0.61919 0.84331 0.00885 0.0
C654 C 0.60347 0.77159 0.93402 0.0
C655 C 0.5993 0.77958 0.90437 0.0
C656 C 0.59634 0.75864 0.94199 0.0
C657 C 0.58789 0.77458 0.88344 0.0
C658 C 0.58497 0.75401 0.92043 0.0
N659 N 0.58101 0.76201 0.89187 0.0
C660 C 0.64042 0.79994 0.90473 0.0
C661 C 0.62178 0.81737 0.91158 0.0
C662 C 0.64478 0.80631 0.87308 0.0
N663 N 0.62916 0.80557 0.92329 0.0
C664 C 0.62578 0.82411 0.88004 0.0
C665 C 0.63738 0.81852 0.86027 0.0
H666 H 0.64597 0.79042 0.91448 0.0
H667 H 0.61261 0.8214 0.92622 0.0
C668 C 0.57668 0.77489 0.02327 0.0
N669 N 0.58355 0.78251 0.99754 0.0
C670 C 0.56156 0.77407 0.02365 0.0
C671 C 0.561 0.78876 0.97081 0.0
C672 C 0.57607 0.78941 0.97167 0.0
C673 C 0.55351 0.78114 0.99725 0.0
H674 H 0.58291 0.76965 0.04377 0.0
H675 H 0.58183 0.79548 0.95173 0.0
O676 O 0.63997 0.78834 0.99489 0.0
O677 O 0.61432 0.77609 0.03847 0.0
O678 O 0.61081 0.80462 0.00026 0.0
O679 O 0.61449 0.77641 0.95506 0.0
H680 H 0.66422 0.77352 0.00393 0.0
H681 H 0.64679 0.81543 0.97785 0.0
H682 H 0.68896 0.78371 0.99842 0.0
H683 H 0.6718 0.82491 0.97312 0.0
H684 H 0.60674 0.72873 0.06561 0.0
H685 H 0.63006 0.77512 0.09684 0.0
H686 H 0.60279 0.75023 0.02744 0.0
H687 H 0.63348 0.75322 0.13389 0.0
H688 H 0.66235 0.81128 0.1161 0.0
H689 H 0.61761 0.81926 0.14432 0.0
H690 H 0.64156 0.72526 0.93961 0.0
H691 H 0.66157 0.73507 0.04001 0.0
H692 H 0.58745 0.81896 0.97987 0.0
H693 H 0.63086 0.82367 0.01965 0.0
H694 H 0.58524 0.84572 0.97833 0.0
H695 H 0.62795 0.85031 0.01712 0.0
H696 H 0.60474 0.78961 0.89776 0.0
H697 H 0.59951 0.75228 0.96468 0.0
H698 H 0.58449 0.7807 0.86054 0.0
H699 H 0.57929 0.74405 0.92641 0.0
H700 H 0.65386 0.80173 0.85885 0.0
H701 H 0.61964 0.83336 0.87081 0.0
H702 H 0.55626 0.76825 0.04484 0.0
H703 H 0.5553 0.79419 0.94963 0.0
Li704 Li 0.71057 0.89513 0.50137 0.0
Li705 Li 0.69929 0.87447 0.53031 0.0
Li706 Li 0.72364 0.87181 0.50167 0.0
Li707 Li 0.70126 0.87376 0.46694 0.0
C708 C 0.72733 0.89131 0.56389 0.0
N709 N 0.74652 0.90588 0.6072 0.0
C710 C 0.72303 0.89578 0.59757 0.0
C711 C 0.74148 0.89401 0.55256 0.0
C712 C 0.73286 0.90321 0.61897 0.0
C713 C 0.751 0.90145 0.57475 0.0
C714 C 0.67709 0.89051 0.51081 0.0
C715 C 0.65291 0.88258 0.52513 0.0
N716 N 0.6506 0.89521 0.54274 0.0
C717 C 0.67444 0.90347 0.52876 0.0
C718 C 0.66621 0.88003 0.50868 0.0
C719 C 0.66099 0.90562 0.54482 0.0
C720 C 0.71432 0.92273 0.47101 0.0
N721 N 0.71253 0.91558 0.50206 0.0
C722 C 0.71263 0.93787 0.53403 0.0
C723 C 0.71156 0.92281 0.53321 0.0
C724 C 0.7146 0.94558 0.50241 0.0
C725 C 0.71548 0.93781 0.47058 0.0
H726 H 0.71479 0.91672 0.44654 0.0
H727 H 0.7096 0.91691 0.55735 0.0
C728 C 0.68528 0.85452 0.57496 0.0
N729 N 0.68823 0.8688 0.57025 0.0
C730 C 0.67793 0.84986 0.60507 0.0
C731 C 0.67673 0.87473 0.62488 0.0
C732 C 0.6841 0.8789 0.59434 0.0
C733 C 0.67368 0.86001 0.63069 0.0
H734 H 0.68893 0.84668 0.55576 0.0
H735 H 0.68672 0.89018 0.59008 0.0
C736 C 0.73125 0.88856 0.4405 0.0
N737 N 0.75469 0.89635 0.39921 0.0
C738 C 0.73301 0.88257 0.40688 0.0
C739 C 0.74129 0.89871 0.45283 0.0
C740 C 0.74497 0.88658 0.38649 0.0
C741 C 0.75309 0.90246 0.43164 0.0
C742 C 0.70364 0.84557 0.48489 0.0
C743 C 0.71476 0.83674 0.47203 0.0
C744 C 0.68922 0.84123 0.48084 0.0
C745 C 0.71125 0.82383 0.45481 0.0
C746 C 0.68616 0.82825 0.4634 0.0
N747 N 0.69715 0.8199 0.45083 0.0
C748 C 0.74497 0.85685 0.53831 0.0
C749 C 0.75051 0.85976 0.47762 0.0
C750 C 0.75733 0.8484 0.54327 0.0
N751 N 0.74175 0.86222 0.50584 0.0
C752 C 0.76303 0.85143 0.48141 0.0
C753 C 0.76643 0.84543 0.51446 0.0
H754 H 0.7377 0.85885 0.56018 0.0
H755 H 0.74754 0.86376 0.45188 0.0
C756 C 0.67913 0.87277 0.41489 0.0
N757 N 0.69236 0.86757 0.42429 0.0
C758 C 0.67233 0.86773 0.38429 0.0
C759 C 0.69295 0.85217 0.37369 0.0
C760 C 0.69942 0.85767 0.40409 0.0
C761 C 0.6792 0.85715 0.3636 0.0
H762 H 0.67381 0.88075 0.43128 0.0
H763 H 0.71004 0.85391 0.41182 0.0
O764 O 0.71782 0.88398 0.54267 0.0
O765 O 0.69027 0.88812 0.49537 0.0
O766 O 0.71957 0.88474 0.46075 0.0
O767 O 0.70686 0.85834 0.50149 0.0
H768 H 0.71219 0.89362 0.60701 0.0
H769 H 0.74516 0.89024 0.52713 0.0
H770 H 0.72964 0.90683 0.64497 0.0
H771 H 0.76197 0.90364 0.56623 0.0
H772 H 0.64442 0.87451 0.5239 0.0
H773 H 0.6827 0.91174 0.53047 0.0
H774 H 0.66803 0.87001 0.49463 0.0
H775 H 0.65881 0.91557 0.55899 0.0
H776 H 0.71155 0.94344 0.55905 0.0
H777 H 0.71707 0.9433 0.44562 0.0
H778 H 0.67605 0.83838 0.60877 0.0
H779 H 0.67355 0.88293 0.64382 0.0
H780 H 0.72528 0.87485 0.39667 0.0
H781 H 0.73989 0.90382 0.47825 0.0
H782 H 0.74651 0.88194 0.36053 0.0
H783 H 0.76094 0.91028 0.44091 0.0
H784 H 0.72597 0.83986 0.47509 0.0
H785 H 0.68049 0.84786 0.49082 0.0
H786 H 0.71975 0.81694 0.44455 0.0
H787 H 0.67505 0.82482 0.45985 0.0
H788 H 0.75962 0.84404 0.56923 0.0
H789 H 0.76962 0.84917 0.4584 0.0
H790 H 0.66172 0.87182 0.37727 0.0
H791 H 0.69868 0.84418 0.35808 0.0
Li792 Li 0.10261 0.71322 0.5012 0.0
Li793 Li 0.12273 0.70222 0.53183 0.0
Li794 Li 0.12564 0.72509 0.49961 0.0
Li795 Li 0.12297 0.70191 0.46733 0.0
C796 C 0.10301 0.72622 0.56299 0.0
N797 N 0.08062 0.73587 0.60528 0.0
C798 C 0.09876 0.71818 0.5925 0.0
C799 C 0.09595 0.73922 0.55514 0.0
C800 C 0.08741 0.72324 0.61354 0.0
C801 C 0.08462 0.74389 0.57678 0.0
C802 C 0.10752 0.6779 0.49982 0.0
C803 C 0.11764 0.65418 0.48951 0.0
N804 N 0.10487 0.64808 0.49943 0.0
C805 C 0.09446 0.6714 0.50971 0.0
C806 C 0.11919 0.66923 0.48947 0.0
C807 C 0.09335 0.6563 0.50944 0.0
C808 C 0.07565 0.72395 0.47706 0.0
N809 N 0.08224 0.71569 0.50205 0.0
C810 C 0.05953 0.71048 0.52936 0.0
C811 C 0.07453 0.70889 0.52772 0.0
C812 C 0.05241 0.71894 0.50392 0.0
C813 C 0.06063 0.7257 0.47746 0.0
H814 H 0.08204 0.72909 0.4567 0.0
H815 H 0.08005 0.70219 0.54687 0.0
C816 C 0.13517 0.70103 0.59858 0.0
N817 N 0.12861 0.69248 0.57412 0.0
C818 C 0.14008 0.69516 0.63034 0.0
C819 C 0.13106 0.67182 0.61173 0.0
C820 C 0.1264 0.67813 0.58022 0.0
C821 C 0.13805 0.68035 0.63729 0.0
H822 H 0.13662 0.71245 0.59332 0.0
H823 H 0.12096 0.67152 0.56098 0.0
C824 C 0.11478 0.73211 0.43689 0.0
N825 N 0.11974 0.75565 0.39349 0.0
C826 C 0.12316 0.73055 0.4064 0.0
C827 C 0.10881 0.74561 0.44514 0.0
C828 C 0.12556 0.74259 0.38483 0.0
C829 C 0.11149 0.75739 0.42293 0.0
C830 C 0.15091 0.70508 0.51831 0.0
C831 C 0.15767 0.71604 0.53774 0.0
C832 C 0.15645 0.691 0.51944 0.0
C833 C 0.1698 0.71269 0.55823 0.0
C834 C 0.16858 0.68808 0.54032 0.0
N835 N 0.17495 0.69889 0.55913 0.0
C836 C 0.13316 0.75329 0.52356 0.0
C837 C 0.14515 0.74535 0.47168 0.0
C838 C 0.14078 0.76636 0.52285 0.0
N839 N 0.13545 0.74316 0.49814 0.0
C840 C 0.15281 0.75834 0.46959 0.0
C841 C 0.15072 0.76898 0.49553 0.0
H842 H 0.12558 0.75114 0.54466 0.0
H843 H 0.14702 0.73693 0.45238 0.0
C844 C 0.11845 0.68787 0.40173 0.0
N845 N 0.12853 0.69191 0.42595 0.0
C846 C 0.12278 0.68149 0.36996 0.0
C847 C 0.14768 0.68327 0.38933 0.0
C848 C 0.14289 0.68966 0.42053 0.0
C849 C 0.1376 0.6793 0.36324 0.0
H850 H 0.1071 0.68992 0.40677 0.0
H851 H 0.15064 0.69307 0.44023 0.0
O852 O 0.11397 0.72135 0.54179 0.0
O853 O 0.1087 0.69267 0.49959 0.0
O854 O 0.11247 0.7205 0.45862 0.0
O855 O 0.13886 0.70809 0.49858 0.0
H856 H 0.10405 0.70805 0.59889 0.0
H857 H 0.09908 0.74556 0.53237 0.0
H858 H 0.08395 0.71709 0.63636 0.0
H859 H 0.079 0.75389 0.57088 0.0
H860 H 0.12661 0.64735 0.48169 0.0
H861 H 0.08528 0.67794 0.51753 0.0
H862 H 0.12936 0.67406 0.48176 0.0
H863 H 0.08332 0.65113 0.51713 0.0
H864 H 0.05353 0.7049 0.54985 0.0
H865 H 0.05552 0.73234 0.45743 0.0
H866 H 0.14555 0.70215 0.64903 0.0
H867 H 0.12902 0.66041 0.6162 0.0
H868 H 0.12787 0.72019 0.39961 0.0
H869 H 0.10231 0.74701 0.46864 0.0
H870 H 0.13209 0.74156 0.36124 0.0
H871 H 0.10702 0.76793 0.42912 0.0
H872 H 0.15352 0.72699 0.53741 0.0
H873 H 0.15141 0.68238 0.50457 0.0
H874 H 0.17508 0.72105 0.57354 0.0
H875 H 0.17293 0.6772 0.54158 0.0
H876 H 0.13896 0.77432 0.54339 0.0
H877 H 0.16059 0.75986 0.44851 0.0
H878 H 0.11465 0.67874 0.35047 0.0
H879 H 0.15918 0.68157 0.38558 0.0
Li880 Li 0.29562 0.12205 0.53265 0.0
Li881 Li 0.28573 0.1031 0.49853 0.0
Li882 Li 0.29707 0.12321 0.46844 0.0
Li883 Li 0.27277 0.12589 0.50072 0.0
C884 C 0.3151 0.09981 0.51838 0.0
N885 N 0.33262 0.08093 0.55549 0.0
C886 C 0.30965 0.09237 0.54761 0.0
C887 C 0.32946 0.09764 0.50796 0.0
C888 C 0.31867 0.08287 0.56604 0.0
C889 C 0.33815 0.08806 0.52709 0.0
C890 C 0.26701 0.10574 0.56073 0.0
C891 C 0.2426 0.09772 0.57238 0.0
N892 N 0.24708 0.0919 0.6035 0.0
C893 C 0.27134 0.09982 0.59304 0.0
C894 C 0.25249 0.10481 0.55047 0.0
C895 C 0.26111 0.09281 0.61419 0.0
C896 C 0.29611 0.13094 0.60284 0.0
N897 N 0.30492 0.12726 0.57556 0.0
C898 C 0.32595 0.13176 0.61063 0.0
C899 C 0.31958 0.12761 0.57872 0.0
C900 C 0.31711 0.13558 0.6394 0.0
C901 C 0.302 0.13515 0.63513 0.0
H902 H 0.28449 0.13078 0.59931 0.0
H903 H 0.32632 0.12479 0.55642 0.0
C904 C 0.29398 0.07561 0.4749 0.0
N905 N 0.28371 0.08247 0.49444 0.0
C906 C 0.29364 0.06059 0.47085 0.0
C907 C 0.27203 0.05993 0.50678 0.0
C908 C 0.27275 0.07497 0.50993 0.0
C909 C 0.28262 0.05251 0.4872 0.0
H910 H 0.30246 0.08184 0.46236 0.0
H911 H 0.26455 0.08054 0.52481 0.0
C912 C 0.2975 0.14956 0.51812 0.0
N913 N 0.3124 0.17077 0.55453 0.0
C914 C 0.29027 0.15831 0.54252 0.0
C915 C 0.3123 0.15163 0.51209 0.0
C916 C 0.298 0.16896 0.56071 0.0
C917 C 0.31964 0.16242 0.53078 0.0
C918 C 0.27226 0.10336 0.43805 0.0
C919 C 0.28064 0.097 0.41153 0.0
C920 C 0.25834 0.09808 0.44484 0.0
C921 C 0.27503 0.08532 0.39251 0.0
C922 C 0.25312 0.08637 0.42526 0.0
N923 N 0.2615 0.08027 0.39975 0.0
C924 C 0.31635 0.12044 0.41067 0.0
C925 C 0.30582 0.14366 0.41842 0.0
C926 C 0.3235 0.12513 0.38022 0.0
N927 N 0.30763 0.12969 0.42877 0.0
C928 C 0.31288 0.14885 0.38844 0.0
C929 C 0.32175 0.1395 0.36874 0.0
H930 H 0.31758 0.10938 0.41965 0.0
H931 H 0.29872 0.15072 0.43328 0.0
C932 C 0.25035 0.14228 0.53079 0.0
N933 N 0.25496 0.13588 0.50052 0.0
C934 C 0.23769 0.15054 0.53089 0.0
C935 C 0.23457 0.14506 0.46891 0.0
C936 C 0.24733 0.13698 0.46998 0.0
C937 C 0.22969 0.15216 0.49953 0.0
H938 H 0.25667 0.14117 0.55467 0.0
H939 H 0.2513 0.13174 0.44634 0.0
O940 O 0.30651 0.10921 0.4999 0.0
O941 O 0.27684 0.11289 0.53999 0.0
O942 O 0.29026 0.13874 0.50095 0.0
O943 O 0.27774 0.11452 0.45766 0.0
H944 H 0.29856 0.09385 0.55582 0.0
H945 H 0.33383 0.10333 0.48535 0.0
H946 H 0.31458 0.07703 0.5887 0.0
H947 H 0.34929 0.08628 0.51935 0.0
H948 H 0.23135 0.09684 0.56464 0.0
H949 H 0.28245 0.10069 0.60183 0.0
H950 H 0.24889 0.10939 0.52576 0.0
H951 H 0.26433 0.08813 0.63918 0.0
H952 H 0.33764 0.13187 0.61281 0.0
H953 H 0.29477 0.13828 0.65633 0.0
H954 H 0.30187 0.0554 0.45493 0.0
H955 H 0.26341 0.05417 0.52015 0.0
H956 H 0.27884 0.15679 0.5476 0.0
H957 H 0.31808 0.14484 0.49355 0.0
H958 H 0.29256 0.17576 0.57981 0.0
H959 H 0.33111 0.16409 0.52655 0.0
H960 H 0.29143 0.10095 0.40597 0.0
H961 H 0.2517 0.1029 0.46518 0.0
H962 H 0.28144 0.08022 0.37208 0.0
H963 H 0.24241 0.08211 0.4304 0.0
H964 H 0.33033 0.11763 0.36584 0.0
H965 H 0.31111 0.15995 0.38021 0.0
H966 H 0.23447 0.15596 0.555 0.0
H967 H 0.22865 0.14584 0.4443 0.0
Li968 Li 0.8754 0.29789 0.53215 0.0
Li969 Li 0.89465 0.28738 0.49653 0.0
Li970 Li 0.87456 0.29767 0.46565 0.0
Li971 Li 0.87274 0.27481 0.5016 0.0
C972 C 0.90083 0.31484 0.5053 0.0
N973 N 0.92743 0.32703 0.52078 0.0
C974 C 0.90724 0.31254 0.53829 0.0
C975 C 0.90791 0.32343 0.4803 0.0
C976 C 0.9207 0.31877 0.54557 0.0
C977 C 0.92136 0.32949 0.48861 0.0
C978 C 0.88587 0.2674 0.56055 0.0
C979 C 0.89178 0.24213 0.56838 0.0
N980 N 0.88448 0.2421 0.59956 0.0
C981 C 0.87865 0.26717 0.59299 0.0
C982 C 0.89268 0.25483 0.54845 0.0
C983 C 0.87799 0.25427 0.6122 0.0
C984 C 0.8584 0.30177 0.59211 0.0
N985 N 0.869 0.30818 0.57277 0.0
C986 C 0.86988 0.32815 0.61289 0.0
C987 C 0.87456 0.32128 0.58204 0.0
C988 C 0.85936 0.32146 0.63416 0.0
C989 C 0.85345 0.30819 0.62314 0.0
H990 H 0.85387 0.29155 0.58354 0.0
H991 H 0.88268 0.32637 0.56568 0.0
C992 C 0.92267 0.29018 0.46555 0.0
N993 N 0.91523 0.28526 0.49413 0.0
C994 C 0.93776 0.28938 0.46473 0.0
C995 C 0.93728 0.27889 0.52321 0.0
C996 C 0.9222 0.27968 0.52266 0.0
C997 C 0.94521 0.2838 0.49397 0.0
H998 H 0.91692 0.29508 0.44377 0.0
H999 H 0.91608 0.27619 0.54542 0.0
C1000 C 0.84778 0.30037 0.50632 0.0
N1001 N 0.82437 0.31828 0.5187 0.0
C1002 C 0.83458 0.29451 0.51732 0.0
C1003 C 0.84911 0.31534 0.50169 0.0
C1004 C 0.82286 0.30375 0.52342 0.0
C1005 C 0.83713 0.32421 0.50806 0.0
C1006 C 0.89368 0.27344 0.43411 0.0
C1007 C 0.89642 0.28093 0.40273 0.0
C1008 C 0.90131 0.26069 0.44128 0.0
C1009 C 0.90701 0.27578 0.37958 0.0
C1010 C 0.91183 0.25589 0.4175 0.0
N1011 N 0.91446 0.26348 0.38742 0.0
C1012 C 0.87557 0.31602 0.40515 0.0
C1013 C 0.85308 0.3045 0.4159 0.0
C1014 C 0.87016 0.32229 0.37428 0.0
N1015 N 0.86705 0.30722 0.42504 0.0
C1016 C 0.84713 0.31077 0.38571 0.0
C1017 C 0.85575 0.31967 0.36403 0.0
H1018 H 0.88672 0.31777 0.41259 0.0
H1019 H 0.84656 0.29733 0.43193 0.0
C1020 C 0.85304 0.25526 0.53125 0.0
N1021 N 0.86283 0.25692 0.5048 0.0
C1022 C 0.8449 0.24257 0.53377 0.0
C1023 C 0.85717 0.23351 0.48185 0.0
C1024 C 0.86509 0.24637 0.4804 0.0
C1025 C 0.8468 0.23155 0.50861 0.0
H1026 H 0.85138 0.26393 0.55004 0.0
H1027 H 0.87286 0.24805 0.45945 0.0
O1028 O 0.88785 0.30842 0.4974 0.0
O1029 O 0.88639 0.27987 0.54092 0.0
O1030 O 0.85945 0.29152 0.50087 0.0
O1031 O 0.88335 0.27838 0.45714 0.0
H1032 H 0.90198 0.30581 0.55785 0.0
H1033 H 0.90315 0.32536 0.45469 0.0
H1034 H 0.92583 0.31698 0.57087 0.0
H1035 H 0.92699 0.3361 0.46945 0.0
H1036 H 0.89691 0.23231 0.55911 0.0
H1037 H 0.87366 0.27684 0.60337 0.0
H1038 H 0.89863 0.25488 0.52396 0.0
H1039 H 0.87234 0.25394 0.63722 0.0
H1040 H 0.87468 0.3384 0.6204 0.0
H1041 H 0.84507 0.30284 0.63831 0.0
H1042 H 0.94355 0.2935 0.44197 0.0
H1043 H 0.9427 0.27455 0.54626 0.0
H1044 H 0.83342 0.28294 0.52117 0.0
H1045 H 0.8593 0.32005 0.49348 0.0
H1046 H 0.81257 0.29937 0.53195 0.0
H1047 H 0.838 0.33581 0.50462 0.0
H1048 H 0.89049 0.29065 0.39634 0.0
H1049 H 0.89913 0.25452 0.46487 0.0
H1050 H 0.9093 0.28156 0.35536 0.0
H1051 H 0.91788 0.2461 0.42292 0.0
H1052 H 0.87735 0.3288 0.35822 0.0
H1053 H 0.8359 0.30861 0.37949 0.0
H1054 H 0.83688 0.24162 0.55449 0.0
H1055 H 0.85904 0.22524 0.46209 0.0
Li1056 Li 0.72687 0.12841 0.50131 0.0
Li1057 Li 0.70214 0.12552 0.53181 0.0
Li1058 Li 0.71362 0.10574 0.50079 0.0
Li1059 Li 0.70431 0.12524 0.46766 0.0
C1060 C 0.72696 0.10504 0.56132 0.0
N1061 N 0.73814 0.08138 0.59671 0.0
C1062 C 0.71833 0.09735 0.58514 0.0
C1063 C 0.74131 0.10082 0.55578 0.0
C1064 C 0.72417 0.08538 0.60269 0.0
C1065 C 0.74676 0.0888 0.57386 0.0
C1066 C 0.70324 0.15266 0.48327 0.0
C1067 C 0.68217 0.16685 0.4684 0.0
N1068 N 0.69032 0.17476 0.44552 0.0
C1069 C 0.71142 0.16096 0.45974 0.0
C1070 C 0.68851 0.15563 0.48777 0.0
C1071 C 0.70469 0.17208 0.44085 0.0
C1072 C 0.75057 0.14372 0.47351 0.0
N1073 N 0.74472 0.13829 0.50363 0.0
C1074 C 0.76378 0.14847 0.53821 0.0
C1075 C 0.75106 0.14038 0.53558 0.0
C1076 C 0.76997 0.15448 0.50763 0.0
C1077 C 0.7633 0.15187 0.47489 0.0
H1078 H 0.7452 0.14193 0.44851 0.0
H1079 H 0.74608 0.13594 0.55907 0.0
C1080 C 0.68289 0.12183 0.58925 0.0
N1081 N 0.69122 0.1315 0.57133 0.0
C1082 C 0.67552 0.12613 0.61973 0.0
C1083 C 0.68507 0.15032 0.61184 0.0
C1084 C 0.6924 0.14552 0.58185 0.0
C1085 C 0.67661 0.14054 0.63137 0.0
H1086 H 0.68216 0.11075 0.58012 0.0
H1087 H 0.6992 0.15292 0.56717 0.0
C1088 C 0.73284 0.10857 0.44028 0.0
N1089 N 0.75267 0.09427 0.39813 0.0
C1090 C 0.72855 0.10275 0.40784 0.0
C1091 C 0.74729 0.10734 0.45093 0.0
C1092 C 0.73872 0.09549 0.38702 0.0
C1093 C 0.75713 0.10001 0.42935 0.0
C1094 C 0.68416 0.10334 0.47889 0.0
C1095 C 0.68965 0.09591 0.4497 0.0
C1096 C 0.66957 0.10184 0.48794 0.0
C1097 C 0.68043 0.08709 0.42992 0.0
C1098 C 0.66068 0.09292 0.46748 0.0
N1099 N 0.66625 0.08579 0.43914 0.0
C1100 C 0.70422 0.07783 0.51866 0.0
C1101 C 0.72718 0.0778 0.4908 0.0
C1102 C 0.70429 0.06274 0.52052 0.0
N1103 N 0.71543 0.08504 0.50333 0.0
C1104 C 0.72771 0.06271 0.4921 0.0
C1105 C 0.71606 0.05497 0.50669 0.0
H1106 H 0.69519 0.08382 0.52946 0.0
H1107 H 0.73618 0.08365 0.47978 0.0
C1108 C 0.70424 0.13468 0.39758 0.0
N1109 N 0.69535 0.13108 0.42477 0.0
C1110 C 0.69844 0.13925 0.36546 0.0
C1111 C 0.67443 0.13633 0.38995 0.0
C1112 C 0.6807 0.13187 0.42168 0.0
C1113 C 0.68334 0.14009 0.36125 0.0
H1114 H 0.71585 0.13416 0.40104 0.0
H1115 H 0.67389 0.12912 0.44391 0.0
O1116 O 0.7213 0.11649 0.54304 0.0
O1117 O 0.7095 0.14142 0.5011 0.0
O1118 O 0.7231 0.116 0.46064 0.0
O1119 O 0.69295 0.11212 0.4986 0.0
H1120 H 0.70719 0.10046 0.58966 0.0
H1121 H 0.74815 0.1067 0.53756 0.0
H1122 H 0.71758 0.07925 0.62099 0.0
H1123 H 0.75782 0.08535 0.56967 0.0
H1124 H 0.67077 0.16922 0.47143 0.0
H1125 H 0.72282 0.15874 0.45584 0.0
H1126 H 0.682 0.1492 0.50564 0.0
H1127 H 0.71086 0.17854 0.42239 0.0
H1128 H 0.76865 0.15011 0.56391 0.0
H1129 H 0.76758 0.15646 0.45074 0.0
H1130 H 0.66903 0.1183 0.634 0.0
H1131 H 0.68633 0.16147 0.62022 0.0
H1132 H 0.71752 0.10391 0.39863 0.0
H1133 H 0.75086 0.11184 0.47576 0.0
H1134 H 0.73553 0.09089 0.36194 0.0
H1135 H 0.76831 0.09889 0.43744 0.0
H1136 H 0.70092 0.09688 0.44258 0.0
H1137 H 0.66517 0.10754 0.51049 0.0
H1138 H 0.68455 0.08126 0.40728 0.0
H1139 H 0.64935 0.09167 0.47414 0.0
H1140 H 0.69523 0.05723 0.53276 0.0
H1141 H 0.73701 0.05716 0.4811 0.0
H1142 H 0.70574 0.14232 0.34435 0.0
H1143 H 0.66274 0.13671 0.38785 0.0
Li1144 Li 0.86945 0.72483 0.50837 0.0
Li1145 Li 0.87408 0.70006 0.53682 0.0
Li1146 Li 0.89265 0.71272 0.50462 0.0
Li1147 Li 0.87289 0.70274 0.47295 0.0
C1148 C 0.89405 0.72466 0.56664 0.0
N1149 N 0.91823 0.73482 0.60172 0.0
C1150 C 0.90181 0.7155 0.58913 0.0
C1151 C 0.89851 0.73902 0.56222 0.0
C1152 C 0.91403 0.72084 0.60657 0.0
C1153 C 0.91078 0.74394 0.58014 0.0
C1154 C 0.84608 0.69922 0.4941 0.0
C1155 C 0.83442 0.67642 0.48162 0.0
N1156 N 0.82403 0.68355 0.46298 0.0
C1157 C 0.83527 0.70634 0.47498 0.0
C1158 C 0.84565 0.68416 0.4976 0.0
C1159 C 0.82422 0.69821 0.45939 0.0
C1160 C 0.85119 0.74651 0.483 0.0
N1161 N 0.85896 0.74228 0.51164 0.0
C1162 C 0.85087 0.76284 0.5444 0.0
C1163 C 0.85903 0.75014 0.54196 0.0
C1164 C 0.84248 0.76738 0.51543 0.0
C1165 C 0.84281 0.75906 0.48434 0.0
H1166 H 0.8514 0.74 0.45926 0.0
H1167 H 0.86533 0.74647 0.56431 0.0
C1168 C 0.87889 0.67881 0.58955 0.0
N1169 N 0.86925 0.68847 0.57607 0.0
C1170 C 0.87533 0.67074 0.61955 0.0
C1171 C 0.85194 0.68254 0.62053 0.0
C1172 C 0.85597 0.69043 0.59074 0.0
C1173 C 0.86171 0.6726 0.63548 0.0
H1174 H 0.88938 0.67751 0.57721 0.0
H1175 H 0.84859 0.69826 0.57946 0.0
C1176 C 0.88694 0.73238 0.44491 0.0
N1177 N 0.89764 0.75366 0.40067 0.0
C1178 C 0.89105 0.72895 0.41038 0.0
C1179 C 0.88804 0.74669 0.45672 0.0
C1180 C 0.8965 0.73984 0.38849 0.0
C1181 C 0.89355 0.75727 0.43402 0.0
C1182 C 0.89638 0.68408 0.47992 0.0
C1183 C 0.90236 0.69056 0.44995 0.0
C1184 C 0.89972 0.66969 0.48788 0.0
C1185 C 0.91159 0.68251 0.42832 0.0
C1186 C 0.909 0.66198 0.46558 0.0
N1187 N 0.91469 0.6685 0.4365 0.0
C1188 C 0.9214 0.70483 0.51856 0.0
C1189 C 0.91941 0.72818 0.49313 0.0
C1190 C 0.93644 0.70604 0.51978 0.0
N1191 N 0.91322 0.71572 0.50491 0.0
C1192 C 0.93443 0.72991 0.49409 0.0
C1193 C 0.94317 0.71869 0.50732 0.0
H1194 H 0.91622 0.69518 0.52864 0.0
H1195 H 0.91276 0.7369 0.4835 0.0
C1196 C 0.85929 0.70329 0.4075 0.0
N1197 N 0.86624 0.69426 0.43022 0.0
C1198 C 0.85366 0.69798 0.37589 0.0
C1199 C 0.86277 0.67422 0.39123 0.0
C1200 C 0.86795 0.67993 0.42294 0.0
C1201 C 0.85547 0.6833 0.36744 0.0
H1202 H 0.858 0.71461 0.4142 0.0
H1203 H 0.8732 0.67291 0.44181 0.0
O1204 O 0.88235 0.7195 0.54848 0.0
O1205 O 0.85727 0.7069 0.5085 0.0
O1206 O 0.88123 0.72191 0.46637 0.0
O1207 O 0.88728 0.69171 0.50156 0.0
H1208 H 0.89853 0.70435 0.59271 0.0
H1209 H 0.89265 0.74623 0.54483 0.0
H1210 H 0.9202 0.71384 0.62386 0.0
H1211 H 0.91442 0.755 0.57678 0.0
H1212 H 0.83399 0.66475 0.48391 0.0
H1213 H 0.83548 0.71799 0.47194 0.0
H1214 H 0.85403 0.67849 0.51206 0.0
H1215 H 0.81581 0.70356 0.44434 0.0
H1216 H 0.8511 0.76899 0.56872 0.0
H1217 H 0.83636 0.76198 0.46155 0.0
H1218 H 0.88313 0.66312 0.63013 0.0
H1219 H 0.84141 0.68447 0.63227 0.0
H1220 H 0.88995 0.71801 0.40048 0.0
H1221 H 0.88485 0.74958 0.48324 0.0
H1222 H 0.89977 0.73732 0.36177 0.0
H1223 H 0.89456 0.76836 0.44292 0.0
H1224 H 0.89999 0.7017 0.44358 0.0
H1225 H 0.89518 0.66452 0.51103 0.0
H1226 H 0.91631 0.6874 0.40505 0.0
H1227 H 0.91167 0.65082 0.47138 0.0
H1228 H 0.94271 0.69705 0.52996 0.0
H1229 H 0.93911 0.73999 0.48494 0.0
H1230 H 0.8481 0.70527 0.35804 0.0
H1231 H 0.8642 0.6628 0.38562 0.0
Li1232 Li 0.27152 0.86991 0.49686 0.0
Li1233 Li 0.29345 0.87237 0.53143 0.0
Li1234 Li 0.28499 0.8929 0.49513 0.0
Li1235 Li 0.29543 0.87161 0.46868 0.0
C1236 C 0.26818 0.88023 0.56735 0.0
N1237 N 0.25445 0.87329 0.62998 0.0
C1238 C 0.26397 0.86596 0.57417 0.0
C1239 C 0.26534 0.89099 0.59238 0.0
C1240 C 0.25706 0.86266 0.60596 0.0
C1241 C 0.25841 0.88726 0.62389 0.0
C1242 C 0.29265 0.84368 0.51522 0.0
C1243 C 0.31203 0.82889 0.53827 0.0
N1244 N 0.30221 0.81866 0.54799 0.0
C1245 C 0.28275 0.83299 0.52546 0.0
C1246 C 0.30741 0.84159 0.52167 0.0
C1247 C 0.2878 0.82044 0.54197 0.0
C1248 C 0.25258 0.84861 0.4738 0.0
N1249 N 0.253 0.86114 0.49249 0.0
C1250 C 0.22773 0.85933 0.50544 0.0
C1251 C 0.24089 0.86676 0.50766 0.0
C1252 C 0.22708 0.846 0.48747 0.0
C1253 C 0.23973 0.84077 0.47117 0.0
H1254 H 0.26238 0.8445 0.46175 0.0
H1255 H 0.2415 0.87687 0.522 0.0
C1256 C 0.3142 0.8756 0.58561 0.0
N1257 N 0.3026 0.86756 0.5753 0.0
C1258 C 0.32171 0.87211 0.61652 0.0
C1259 C 0.30499 0.85234 0.62599 0.0
C1260 C 0.29776 0.85628 0.59519 0.0
C1261 C 0.31722 0.86019 0.6368 0.0
H1262 H 0.31775 0.88462 0.56958 0.0
H1263 H 0.28847 0.85009 0.58688 0.0
C1264 C 0.26507 0.88802 0.44122 0.0
N1265 N 0.24037 0.90061 0.41368 0.0
C1266 C 0.26197 0.88679 0.40523 0.0
C1267 C 0.25558 0.89563 0.46322 0.0
C1268 C 0.24944 0.89324 0.39181 0.0
C1269 C 0.24316 0.90192 0.44879 0.0
C1270 C 0.31779 0.88708 0.48377 0.0
C1271 C 0.31889 0.89676 0.45553 0.0
C1272 C 0.32978 0.8787 0.4933 0.0
C1273 C 0.33192 0.89776 0.43694 0.0
C1274 C 0.34263 0.88002 0.47407 0.0
N1275 N 0.34342 0.88942 0.4465 0.0
C1276 C 0.28272 0.92121 0.52186 0.0
C1277 C 0.28372 0.91976 0.4594 0.0
C1278 C 0.28189 0.9363 0.52029 0.0
N1279 N 0.28358 0.91332 0.49168 0.0
C1280 C 0.28304 0.93481 0.4566 0.0
C1281 C 0.28211 0.94327 0.48733 0.0
H1282 H 0.28286 0.91579 0.54712 0.0
H1283 H 0.28447 0.91319 0.43583 0.0
C1284 C 0.31504 0.85372 0.42964 0.0
N1285 N 0.30614 0.86544 0.42843 0.0
C1286 C 0.32208 0.84897 0.39919 0.0
C1287 C 0.31087 0.86856 0.36687 0.0
C1288 C 0.30407 0.87295 0.39799 0.0
C1289 C 0.31987 0.85629 0.36712 0.0
H1290 H 0.31655 0.84793 0.45402 0.0
H1291 H 0.29696 0.88226 0.39781 0.0
O1292 O 0.27493 0.88373 0.53631 0.0
O1293 O 0.28788 0.8561 0.4992 0.0
O1294 O 0.27728 0.88167 0.45466 0.0
O1295 O 0.30498 0.88565 0.50158 0.0
H1296 H 0.2661 0.85748 0.55522 0.0
H1297 H 0.26845 0.90211 0.58756 0.0
H1298 H 0.25379 0.85164 0.61156 0.0
H1299 H 0.25617 0.89548 0.6435 0.0
H1300 H 0.32342 0.82722 0.54363 0.0
H1301 H 0.27128 0.8344 0.52099 0.0
H1302 H 0.31519 0.84984 0.5147 0.0
H1303 H 0.28025 0.81211 0.55009 0.0
H1304 H 0.21822 0.86391 0.5179 0.0
H1305 H 0.23987 0.83047 0.45749 0.0
H1306 H 0.3311 0.87842 0.62401 0.0
H1307 H 0.30103 0.84323 0.64122 0.0
H1308 H 0.26917 0.88088 0.38786 0.0
H1309 H 0.25774 0.89668 0.49115 0.0
H1310 H 0.24692 0.89238 0.364 0.0
H1311 H 0.23573 0.90784 0.46552 0.0
H1312 H 0.30971 0.90328 0.4477 0.0
H1313 H 0.32918 0.87124 0.51526 0.0
H1314 H 0.33288 0.90512 0.41484 0.0
H1315 H 0.35197 0.87355 0.48106 0.0
H1316 H 0.2814 0.94245 0.54461 0.0
H1317 H 0.28314 0.93979 0.4307 0.0
H1318 H 0.3291 0.83959 0.40072 0.0
H1319 H 0.30873 0.87445 0.3427 0.0
Li1320 Li 0.12409 0.29703 0.53085 0.0
Li1321 Li 0.12789 0.27334 0.4968 0.0
Li1322 Li 0.12555 0.29676 0.46673 0.0
Li1323 Li 0.10522 0.28638 0.4949 0.0
C1324 C 0.15237 0.29808 0.48822 0.0
N1325 N 0.17516 0.31341 0.45931 0.0
C1326 C 0.16209 0.29122 0.46542 0.0
C1327 C 0.15427 0.31271 0.4965 0.0
C1328 C 0.17353 0.29917 0.45101 0.0
C1329 C 0.16586 0.32028 0.48158 0.0
C1330 C 0.10319 0.27249 0.55576 0.0
C1331 C 0.08469 0.25442 0.56482 0.0
N1332 N 0.07919 0.26243 0.5918 0.0
C1333 C 0.09744 0.28048 0.5838 0.0
C1334 C 0.09686 0.25929 0.54639 0.0
C1335 C 0.08527 0.27523 0.60162 0.0
C1336 C 0.11967 0.31667 0.58722 0.0
N1337 N 0.12905 0.30707 0.5725 0.0
C1338 C 0.14643 0.31143 0.6179 0.0
C1339 C 0.14221 0.30433 0.58707 0.0
C1340 C 0.13695 0.32135 0.63395 0.0
C1341 C 0.1234 0.32393 0.6183 0.0
H1342 H 0.10928 0.31861 0.5749 0.0
H1343 H 0.14941 0.2966 0.57472 0.0
C1344 C 0.1451 0.25144 0.46771 0.0
N1345 N 0.13766 0.25541 0.49708 0.0
C1346 C 0.1531 0.23862 0.46746 0.0
C1347 C 0.14528 0.23406 0.5274 0.0
C1348 C 0.13747 0.24701 0.52651 0.0
C1349 C 0.15339 0.22981 0.49773 0.0
H1350 H 0.14498 0.25837 0.44468 0.0
H1351 H 0.13138 0.25047 0.54942 0.0
C1352 C 0.10251 0.31573 0.47737 0.0
N1353 N 0.08453 0.33326 0.4377 0.0
C1354 C 0.0971 0.31085 0.44505 0.0
C1355 C 0.09877 0.32952 0.48955 0.0
C1356 C 0.08802 0.31987 0.42537 0.0
C1357 C 0.08967 0.33822 0.4691 0.0
C1358 C 0.11059 0.26844 0.43224 0.0
C1359 C 0.10683 0.27268 0.39801 0.0
C1360 C 0.1085 0.25406 0.44267 0.0
C1361 C 0.10084 0.26251 0.37495 0.0
C1362 C 0.1025 0.24421 0.41882 0.0
N1363 N 0.09881 0.2486 0.38575 0.0
C1364 C 0.13767 0.2986 0.39967 0.0
C1365 C 0.133 0.32157 0.42528 0.0
C1366 C 0.14338 0.30512 0.36955 0.0
N1367 N 0.13262 0.30686 0.42666 0.0
C1368 C 0.13861 0.32857 0.39555 0.0
C1369 C 0.14393 0.3203 0.36722 0.0
H1370 H 0.13735 0.28692 0.40173 0.0
H1371 H 0.1291 0.32787 0.44741 0.0
C1372 C 0.07729 0.29318 0.51702 0.0
N1373 N 0.08454 0.28465 0.4937 0.0
C1374 C 0.0622 0.29293 0.51845 0.0
C1375 C 0.0622 0.27544 0.47105 0.0
C1376 C 0.0773 0.27587 0.47091 0.0
C1377 C 0.05441 0.28402 0.4951 0.0
H1378 H 0.08329 0.30018 0.53465 0.0
H1379 H 0.08312 0.26928 0.45231 0.0
O1380 O 0.14081 0.29064 0.50162 0.0
O1381 O 0.11491 0.27762 0.53752 0.0
O1382 O 0.11139 0.3071 0.49724 0.0
O1383 O 0.11661 0.27826 0.45499 0.0
H1384 H 0.16072 0.27992 0.45864 0.0
H1385 H 0.14675 0.31821 0.51384 0.0
H1386 H 0.18109 0.29402 0.43316 0.0
H1387 H 0.16742 0.33163 0.48757 0.0
H1388 H 0.07962 0.24427 0.55767 0.0
H1389 H 0.10223 0.29069 0.59149 0.0
H1390 H 0.10124 0.25291 0.525 0.0
H1391 H 0.08064 0.28136 0.6232 0.0
H1392 H 0.1569 0.30899 0.62937 0.0
H1393 H 0.11583 0.33157 0.62975 0.0
H1394 H 0.15933 0.2359 0.44417 0.0
H1395 H 0.14505 0.22751 0.55111 0.0
H1396 H 0.09982 0.30021 0.4353 0.0
H1397 H 0.10288 0.33344 0.51456 0.0
H1398 H 0.08375 0.31622 0.40032 0.0
H1399 H 0.08669 0.34893 0.47819 0.0
H1400 H 0.1085 0.28373 0.38931 0.0
H1401 H 0.11142 0.25053 0.46888 0.0
H1402 H 0.09783 0.26566 0.34844 0.0
H1403 H 0.10077 0.23306 0.42661 0.0
H1404 H 0.14721 0.29833 0.34818 0.0
H1405 H 0.139 0.34029 0.395 0.0
H1406 H 0.05673 0.29959 0.53783 0.0
H1407 H 0.05672 0.26861 0.45204 0.0
H1408 H 0.23046 0.53676 0.04012 0.0
H1409 H 0.20187 0.53609 0.94985 0.0
H1410 H 0.23129 0.51034 0.0397 0.0
H1411 H 0.20263 0.50971 0.94953 0.0
H1412 H 0.21808 0.46324 0.93789 0.0
H1413 H 0.21887 0.48963 0.93782 0.0
H1414 H 0.21567 0.48977 0.05163 0.0
H1415 H 0.21551 0.46337 0.05179 0.0
C1416 C 0.22428 0.53096 0.02033 0.0
C1417 C 0.2161 0.53851 0.99501 0.0
C1418 C 0.22476 0.51583 0.02009 0.0
C1419 C 0.21704 0.50791 0.99457 0.0
C1420 C 0.20891 0.51548 0.96918 0.0
C1421 C 0.20845 0.5306 0.96938 0.0
C1422 C 0.21776 0.46889 0.96293 0.0
C1423 C 0.21671 0.46119 0.99485 0.0
C1424 C 0.21803 0.48403 0.96286 0.0
C1425 C 0.21726 0.49181 0.99471 0.0
C1426 C 0.21642 0.48411 0.02665 0.0
C1427 C 0.21615 0.46897 0.02672 0.0
H1428 H 0.46144 0.2386 0.98052 0.0
H1429 H 0.46187 0.19504 0.02248 0.0
H1430 H 0.48779 0.2384 0.97792 0.0
H1431 H 0.48814 0.19523 0.02221 0.0
H1432 H 0.53413 0.19342 0.98262 0.0
H1433 H 0.50785 0.19407 0.98267 0.0
H1434 H 0.50893 0.23912 0.01369 0.0
H1435 H 0.53527 0.23875 0.01122 0.0
C1436 C 0.46713 0.22899 0.98929 0.0
C1437 C 0.45948 0.21683 0.00166 0.0
C1438 C 0.48227 0.22896 0.98826 0.0
C1439 C 0.49013 0.21679 -0.00018 0.0
C1440 C 0.48247 0.20471 0.01257 0.0
C1441 C 0.46736 0.20469 0.01328 0.0
C1442 C 0.52879 0.20355 0.98884 0.0
C1443 C 0.53687 0.21605 0.99681 0.0
C1444 C 0.51368 0.20386 0.98944 0.0
C1445 C 0.50623 0.21662 0.99843 0.0
C1446 C 0.51429 0.22914 0.0063 0.0
C1447 C 0.52942 0.22887 0.00537 0.0
H1448 H 0.79999 0.46366 0.97682 0.0
H1449 H 0.75999 0.46254 0.03601 0.0
H1450 H 0.79959 0.49001 0.97806 0.0
H1451 H 0.75957 0.48902 0.03711 0.0
H1452 H 0.75754 0.53679 0.99903 0.0
H1453 H 0.75696 0.5103 0.9974 0.0
H1454 H 0.80262 0.50911 0.02218 0.0
H1455 H 0.80331 0.53545 0.02266 0.0
C1456 C 0.79116 0.46905 0.99036 0.0
C1457 C 0.78009 0.46101 0.00662 0.0
C1458 C 0.79093 0.48415 0.99103 0.0
C1459 C 0.77961 0.49159 0.00793 0.0
C1460 C 0.76837 0.48358 0.02364 0.0
C1461 C 0.76861 0.46843 0.02301 0.0
C1462 C 0.76745 0.53085 0.00393 0.0
C1463 C 0.78047 0.53821 0.01099 0.0
C1464 C 0.76709 0.5157 0.00333 0.0
C1465 C 0.77976 0.50764 0.00954 0.0
C1466 C 0.79272 0.51502 0.01687 0.0
C1467 C 0.79307 0.53012 0.01756 0.0
H1468 H 0.53545 0.75861 0.0148 0.0
H1469 H 0.53509 0.80333 0.98091 0.0
H1470 H 0.50904 0.75865 0.01639 0.0
H1471 H 0.50882 0.80309 0.98041 0.0
H1472 H 0.46254 0.80348 0.01817 0.0
H1473 H 0.48888 0.80279 0.01998 0.0
H1474 H 0.4882 0.75917 0.97837 0.0
H1475 H 0.46174 0.7598 0.9775 0.0
C1476 C 0.52976 0.76844 0.00767 0.0
C1477 C 0.53742 0.78096 0.9977 0.0
C1478 C 0.51461 0.7684 0.00814 0.0
C1479 C 0.50679 0.78087 0.99856 0.0
C1480 C 0.51447 0.79335 0.98846 0.0
C1481 C 0.52957 0.79342 0.98822 0.0
C1482 C 0.46804 0.79377 0.00932 0.0
C1483 C 0.46012 0.78173 0.99745 0.0
C1484 C 0.48313 0.79337 0.01026 0.0
C1485 C 0.49069 0.78097 0.99902 0.0
C1486 C 0.48274 0.76883 0.9876 0.0
C1487 C 0.46759 0.76919 0.98698 0.0
H1488 H 0.6934 0.03692 0.49219 0.0
H1489 H 0.73867 0.03668 0.52114 0.0
H1490 H 0.6933 0.01054 0.49171 0.0
H1491 H 0.73872 0.01025 0.51922 0.0
H1492 H 0.7287 0.96307 0.54957 0.0
H1493 H 0.72903 0.98948 0.55122 0.0
H1494 H 0.70293 0.99078 0.4566 0.0
H1495 H 0.70209 0.96441 0.45579 0.0
C1496 C 0.70332 0.03123 0.49859 0.0
C1497 C 0.71604 0.03889 0.50678 0.0
C1498 C 0.70331 0.01611 0.49785 0.0
C1499 C 0.71602 0.0083 0.50524 0.0
C1500 C 0.72872 0.01595 0.51367 0.0
C1501 C 0.72874 0.03109 0.51441 0.0
C1502 C 0.72295 0.969 0.52927 0.0
C1503 C 0.71534 0.96164 0.5026 0.0
C1504 C 0.72327 0.98413 0.53 0.0
C1505 C 0.71598 0.99223 0.50408 0.0
C1506 C 0.7085 0.98486 0.47721 0.0
C1507 C 0.70818 0.96974 0.47648 0.0
H1508 H 0.96066 0.73106 0.45725 0.0
H1509 H 0.96201 0.70945 0.55844 0.0
H1510 H 0.98697 0.73269 0.45724 0.0
H1511 H 0.98832 0.71027 0.5574 0.0
H1512 H 0.0351 0.72468 0.56061 0.0
H1513 H 0.0087 0.72599 0.562 0.0
H1514 H 0.00737 0.71714 0.44995 0.0
H1515 H 0.03374 0.71622 0.44858 0.0
C1516 C 0.96655 0.72671 0.47959 0.0
C1517 C 0.9592 0.72007 0.50779 0.0
C1518 C 0.98166 0.72747 0.47936 0.0
C1519 C 0.98979 0.72153 0.50721 0.0
C1520 C 0.98242 0.7151 0.53567 0.0
C1521 C 0.96732 0.71444 0.53603 0.0
C1522 C 0.02912 0.72305 0.53632 0.0
C1523 C 0.03643 0.72033 0.50451 0.0
C1524 C 0.01401 0.72375 0.5371 0.0
C1525 C 0.00589 0.72161 0.50612 0.0
C1526 C 0.01327 0.71908 0.47421 0.0
C1527 C 0.02837 0.71851 0.47339 0.0
H1528 H 0.25895 0.03478 0.48013 0.0
H1529 H 0.30565 0.03383 0.4885 0.0
H1530 H 0.25851 0.00835 0.47868 0.0
H1531 H 0.30516 0.00746 0.48618 0.0
H1532 H 0.29898 0.96089 0.4466 0.0
H1533 H 0.29877 0.98735 0.44425 0.0
H1534 H 0.26427 0.98822 0.52124 0.0
H1535 H 0.26434 0.96175 0.52323 0.0
C1536 C 0.26912 0.02896 0.48175 0.0
C1537 C 0.28234 0.03645 0.48456 0.0
C1538 C 0.26885 0.01383 0.48081 0.0
C1539 C 0.2818 0.00587 0.48234 0.0
C1540 C 0.29503 0.01333 0.4845 0.0
C1541 C 0.2953 0.02844 0.48573 0.0
C1542 C 0.29125 0.96674 0.46273 0.0
C1543 C 0.28168 0.95928 0.48513 0.0
C1544 C 0.29122 0.98187 0.4616 0.0
C1545 C 0.28152 0.98982 0.4826 0.0
C1546 C 0.27178 0.98236 0.50456 0.0
C1547 C 0.27191 0.96724 0.50594 0.0
H1548 H 0.03632 0.26085 0.48377 0.0
H1549 H 0.03587 0.30673 0.5072 0.0
H1550 H 0.0099 0.26074 0.48296 0.0
H1551 H 0.00947 0.30635 0.50788 0.0
H1552 H 0.96304 0.29403 0.54542 0.0
H1553 H 0.98956 0.29396 0.54601 0.0
H1554 H 0.98988 0.27289 0.44425 0.0
H1555 H 0.96333 0.27306 0.44356 0.0
C1556 C 0.03064 0.27093 0.48858 0.0
C1557 C 0.03829 0.28382 0.49549 0.0
C1558 C 0.01552 0.27082 0.48826 0.0
C1559 C 0.00771 0.28352 0.4954 0.0
C1560 C 0.01527 0.29637 0.50268 0.0
C1561 C 0.0304 0.29654 0.50247 0.0
C1562 C 0.9688 0.28933 0.52331 0.0
C1563 C 0.96121 0.28353 0.49447 0.0
C1564 C 0.98393 0.28937 0.52354 0.0
C1565 C 0.9917 0.28341 0.49518 0.0
C1566 C 0.98411 0.27746 0.46651 0.0
C1567 C 0.96898 0.27764 0.46601 0.0
H1568 H 0.28891 0.3409 0.94411 0.0
H1569 H 0.2737 0.32629 0.0459 0.0
H1570 H 0.30766 0.32213 0.94483 0.0
H1571 H 0.29246 0.30765 0.04669 0.0
H1572 H 0.31251 0.26464 0.007 0.0
H1573 H 0.29575 0.28506 0.00922 0.0
H1574 H 0.33033 0.31411 0.9795 0.0
H1575 H 0.34719 0.29357 0.97722 0.0
C1576 C 0.28969 0.33378 0.96676 0.0
C1577 C 0.27983 0.33502 0.9949 0.0
C1578 C 0.30045 0.32312 0.96727 0.0
C1579 C 0.30142 0.3134 0.99571 0.0
C1580 C 0.29186 0.31493 0.02431 0.0
C1581 C 0.28122 0.32568 0.02399 0.0
C1582 C 0.31652 0.27538 0.00079 0.0
C1583 C 0.33112 0.27754 0.99179 0.0
C1584 C 0.30697 0.28707 0.0024 0.0
C1585 C 0.31178 0.30116 0.9947 0.0
C1586 C 0.32636 0.30334 0.98548 0.0
C1587 C 0.33599 0.29164 0.98434 0.0
H1588 H 0.72588 0.31997 0.95207 0.0
H1589 H 0.70284 0.34689 0.02669 0.0
H1590 H 0.70626 0.30244 0.95357 0.0
H1591 H 0.68323 0.32911 0.02855 0.0
H1592 H 0.66262 0.28402 0.0546 0.0
H1593 H 0.68006 0.30387 0.05054 0.0
H1594 H 0.68057 0.2995 0.93702 0.0
H1595 H 0.66347 0.27945 0.94111 0.0
C1596 C 0.71652 0.32229 0.96833 0.0
C1597 C 0.71594 0.33488 0.9892 0.0
C1598 C 0.70527 0.3122 0.96924 0.0
C1599 C 0.6932 0.3144 0.99116 0.0
C1600 C 0.69249 0.32706 0.01169 0.0
C1601 C 0.70372 0.33721 0.01065 0.0
C1602 C 0.66644 0.28734 0.02879 0.0
C1603 C 0.66173 0.28013 0.9982 0.0
C1604 C 0.67631 0.29879 0.02644 0.0
C1605 C 0.68173 0.30319 0.99346 0.0
C1606 C 0.6767 0.29625 0.96282 0.0
C1607 C 0.66679 0.28486 0.96515 0.0
H1608 H 0.70438 0.64877 0.00364 0.0
H1609 H 0.73153 0.68238 0.95942 0.0
H1610 H 0.68375 0.66535 0.00264 0.0
H1611 H 0.71084 0.69864 0.95742 0.0
H1612 H 0.6683 0.72046 0.93166 0.0
H1613 H 0.68652 0.70134 0.92743 0.0
H1614 H 0.67755 0.68875 0.03503 0.0
H1615 H 0.65922 0.70781 0.03917 0.0
C1616 C 0.70597 0.65964 0.99364 0.0
C1617 C 0.71967 0.66421 0.98165 0.0
C1618 C 0.69413 0.66909 0.99293 0.0
C1619 C 0.6957 0.68324 0.97983 0.0
C1620 C 0.70926 0.6877 0.96712 0.0
C1621 C 0.72112 0.67834 0.96819 0.0
C1622 C 0.67001 0.71342 0.95414 0.0
C1623 C 0.6624 0.71564 0.9858 0.0
C1624 C 0.68051 0.70256 0.95181 0.0
C1625 C 0.68349 0.69364 0.98097 0.0
C1626 C 0.67541 0.69543 0.01209 0.0
C1627 C 0.66501 0.70638 0.01455 0.0
H1628 H 0.27938 0.67004 0.93235 0.0
H1629 H 0.28766 0.65857 0.04106 0.0
H1630 H 0.29897 0.68774 0.93455 0.0
H1631 H 0.30757 0.67594 0.04292 0.0
H1632 H 0.32544 0.72288 0.04523 0.0
H1633 H 0.30889 0.70239 0.04307 0.0
H1634 H 0.32521 0.69096 0.93989 0.0
H1635 H 0.34187 0.71149 0.94209 0.0
C1636 C 0.2855 0.67119 0.95658 0.0
C1637 C 0.28189 0.663 0.98661 0.0
C1638 C 0.29682 0.68122 0.95774 0.0
C1639 C 0.30477 0.6833 0.98899 0.0
C1640 C 0.30153 0.6747 0.01859 0.0
C1641 C 0.29023 0.66464 0.0174 0.0
C1642 C 0.32571 0.71585 0.02236 0.0
C1643 C 0.33496 0.71885 0.99379 0.0
C1644 C 0.31622 0.70409 0.02113 0.0
C1645 C 0.31572 0.69505 0.99129 0.0
C1646 C 0.3252 0.69784 0.96305 0.0
C1647 C 0.33473 0.7096 0.9643 0.0
H1648 H 0.83692 0.78772 0.46442 0.0
H1649 H 0.82642 0.77639 0.57215 0.0
H1650 H 0.81942 0.80741 0.46662 0.0
H1651 H 0.80959 0.79662 0.57504 0.0
H1652 H 0.76675 0.81956 0.54902 0.0
H1653 H 0.78625 0.80191 0.55152 0.0
H1654 H 0.8136 0.83065 0.49085 0.0
H1655 H 0.79387 0.84825 0.48782 0.0
C1656 C 0.83098 0.7895 0.48869 0.0
C1657 C 0.83298 0.78035 0.51796 0.0
C1658 C 0.82109 0.80094 0.49012 0.0
C1659 C 0.81302 0.80356 0.52096 0.0
C1660 C 0.81545 0.79477 0.55068 0.0
C1661 C 0.82526 0.78327 0.54917 0.0
C1662 C 0.77701 0.82222 0.53672 0.0
C1663 C 0.77879 0.83529 0.51822 0.0
C1664 C 0.78822 0.8121 0.5382 0.0
C1665 C 0.80153 0.81484 0.52138 0.0
C1666 C 0.80343 0.8281 0.50363 0.0
C1667 C 0.79215 0.83819 0.50195 0.0
H1668 H 0.20722 0.84257 0.54073 0.0
H1669 H 0.21639 0.8293 0.4336 0.0
H1670 H 0.18656 0.82624 0.54222 0.0
H1671 H 0.19646 0.81222 0.436 0.0
H1672 H 0.15516 0.78727 0.44002 0.0
H1673 H 0.1714 0.80811 0.43756 0.0
H1674 H 0.1829 0.8011 0.54696 0.0
H1675 H 0.1662 0.78071 0.54953 0.0
C1676 C 0.20476 0.8363 0.51733 0.0
C1677 C 0.2136 0.83717 0.48716 0.0
C1678 C 0.19301 0.82676 0.51838 0.0
C1679 C 0.18991 0.81773 0.48943 0.0
C1680 C 0.19839 0.81906 0.45875 0.0
C1681 C 0.21001 0.82872 0.45755 0.0
C1682 C 0.16106 0.79035 0.46357 0.0
C1683 C 0.1595 0.78239 0.49491 0.0
C1684 C 0.17042 0.80223 0.46218 0.0
C1685 C 0.1786 0.80626 0.49196 0.0
C1686 C 0.17663 0.79851 0.52363 0.0
C1687 C 0.16711 0.78677 0.52513 0.0
H1688 H 0.2218 0.1708 0.44681 0.0
H1689 H 0.20855 0.15559 0.54982 0.0
H1690 H 0.20179 0.18793 0.44652 0.0
H1691 H 0.18861 0.17298 0.54967 0.0
H1692 H 0.17003 0.22009 0.5526 0.0
H1693 H 0.18688 0.19981 0.55279 0.0
H1694 H 0.175 0.18967 0.44534 0.0
H1695 H 0.15794 0.20987 0.44521 0.0
C1696 C 0.21447 0.17091 0.46913 0.0
C1697 C 0.21682 0.16183 0.49839 0.0
C1698 C 0.203 0.18076 0.46896 0.0
C1699 C 0.19365 0.18182 0.49811 0.0
C1700 C 0.19576 0.17252 0.52702 0.0
C1701 C 0.2072 0.1626 0.52712 0.0
C1702 C 0.17076 0.21336 0.52925 0.0
C1703 C 0.16269 0.21667 0.49881 0.0
C1704 C 0.18043 0.20174 0.52937 0.0
C1705 C 0.18231 0.1932 0.49902 0.0
C1706 C 0.17392 0.1962 0.46895 0.0
C1707 C 0.16419 0.20779 0.46887 0.0
H1708 H 0.83841 0.21551 0.56591 0.0
H1709 H 0.83383 0.21821 0.45261 0.0
H1710 H 0.82127 0.19537 0.56714 0.0
H1711 H 0.81671 0.19817 0.45382 0.0
H1712 H 0.79356 0.15528 0.46379 0.0
H1713 H 0.8137 0.17243 0.46513 0.0
H1714 H 0.79537 0.19263 0.55783 0.0
H1715 H 0.77534 0.17552 0.55655 0.0
C1716 C 0.83377 0.21177 0.54128 0.0
C1717 C 0.83742 0.2185 0.50919 0.0
C1718 C 0.82396 0.20025 0.54197 0.0
C1719 C 0.81758 0.19521 0.5106 0.0
C1720 C 0.82159 0.20164 0.47841 0.0
C1721 C 0.8314 0.21314 0.47771 0.0
C1722 C 0.79388 0.16336 0.48449 0.0
C1723 C 0.78283 0.16407 0.50998 0.0
C1724 C 0.8054 0.17318 0.48527 0.0
C1725 C 0.80611 0.18393 0.51151 0.0
C1726 C 0.79528 0.18435 0.53757 0.0
C1727 C 0.78378 0.17454 0.53683 0.0
H1728 H 0.16816 0.31253 0.33045 0.0
H1729 H 0.13355 0.34403 0.33194 0.0
H1730 H 0.17755 0.32323 0.27635 0.0
H1731 H 0.14328 0.35511 0.27838 0.0
H1732 H 0.15481 0.35809 0.15948 0.0
H1733 H 0.14556 0.34915 0.21574 0.0
H1734 H 0.18938 0.34493 0.25449 0.0
H1735 H 0.19861 0.35382 0.19824 0.0
C1736 C 0.16258 0.32177 0.31925 0.0
C1737 C 0.15006 0.32737 0.33535 0.0
C1738 C 0.16806 0.32802 0.28847 0.0
C1739 C 0.16116 0.34003 0.27305 0.0
C1740 C 0.14876 0.34578 0.28942 0.0
C1741 C 0.14328 0.33953 0.32029 0.0
C1742 C 0.16245 0.35543 0.18018 0.0
C1743 C 0.17744 0.35657 0.17432 0.0
C1744 C 0.15715 0.35032 0.21243 0.0
C1745 C 0.16674 0.34626 0.23954 0.0
C1746 C 0.18172 0.34772 0.23393 0.0
C1747 C 0.18701 0.3528 0.20169 0.0
H1748 H 0.69242 0.13353 0.29429 0.0
H1749 H 0.65985 0.15778 0.35115 0.0
H1750 H 0.68243 0.14217 0.23854 0.0
H1751 H 0.64976 0.16621 0.29533 0.0
H1752 H 0.62732 0.1667 0.18738 0.0
H1753 H 0.63696 0.15678 0.24236 0.0
H1754 H 0.68048 0.1655 0.20631 0.0
H1755 H 0.67086 0.17513 0.15105 0.0
C1756 C 0.68318 0.14076 0.29494 0.0
C1757 C 0.67697 0.145 0.32724 0.0
C1758 C 0.67745 0.14567 0.26298 0.0
C1759 C 0.66533 0.15487 0.26257 0.0
C1760 C 0.65899 0.15897 0.29479 0.0
C1761 C 0.66477 0.15412 0.32678 0.0
C1762 C 0.63895 0.16634 0.19105 0.0
C1763 C 0.64834 0.1717 0.16493 0.0
C1764 C 0.64445 0.1608 0.22265 0.0
C1765 C 0.65947 0.1604 0.22867 0.0
C1766 C 0.66887 0.16556 0.20231 0.0
C1767 C 0.66336 0.17119 0.17083 0.0
H1768 H 0.82779 0.6849 0.34334 0.0
H1769 H 0.87024 0.66874 0.31642 0.0
H1770 H 0.81821 0.67541 0.28754 0.0
H1771 H 0.86073 0.65953 0.26021 0.0
H1772 H 0.8386 0.664 0.14766 0.0
H1773 H 0.8484 0.6728 0.20348 0.0
H1774 H 0.81623 0.64828 0.26042 0.0
H1775 H 0.80689 0.63869 0.20499 0.0
C1776 C 0.83504 0.67936 0.32536 0.0
C1777 C 0.84971 0.6775 0.33397 0.0
C1778 C 0.82957 0.67391 0.29365 0.0
C1779 C 0.83877 0.6668 0.26975 0.0
C1780 C 0.85347 0.66505 0.27823 0.0
C1781 C 0.85887 0.67022 0.31031 0.0
C1782 C 0.83374 0.66023 0.17198 0.0
C1783 C 0.82192 0.65058 0.17158 0.0
C1784 C 0.83932 0.66537 0.2039 0.0
C1785 C 0.83302 0.66121 0.23604 0.0
C1786 C 0.82116 0.65172 0.23585 0.0
C1787 C 0.81576 0.64634 0.20402 0.0
H1788 H 0.33189 0.87195 0.313 0.0
H1789 H 0.32242 0.82813 0.34589 0.0
H1790 H 0.34136 0.8628 0.25712 0.0
H1791 H 0.33244 0.81898 0.29085 0.0
H1792 H 0.33499 0.80913 0.17318 0.0
H1793 H 0.32596 0.81863 0.22898 0.0
H1794 H 0.36151 0.84905 0.23244 0.0
H1795 H 0.3705 0.83958 0.17637 0.0
C1796 C 0.33188 0.86037 0.30837 0.0
C1797 C 0.32638 0.85078 0.33389 0.0
C1798 C 0.33745 0.85512 0.27652 0.0
C1799 C 0.33761 0.84017 0.26949 0.0
C1800 C 0.33229 0.83058 0.29524 0.0
C1801 C 0.32673 0.83581 0.32701 0.0
C1802 C 0.34094 0.81776 0.18601 0.0
C1803 C 0.35349 0.82356 0.17048 0.0
C1804 C 0.33578 0.8232 0.21799 0.0
C1805 C 0.34306 0.83455 0.23525 0.0
C1806 C 0.35556 0.84043 0.2196 0.0
C1807 C 0.36071 0.835 0.18752 0.0
H1808 H 0.15069 0.65381 0.64738 0.0
H1809 H 0.137 0.6922 0.70353 0.0
H1810 H 0.15912 0.64323 0.70259 0.0
H1811 H 0.14611 0.68194 0.75837 0.0
H1812 H 0.15143 0.65416 0.85632 0.0
H1813 H 0.14135 0.66324 0.80105 0.0
H1814 H 0.17838 0.64637 0.74461 0.0
H1815 H 0.18833 0.63716 0.79976 0.0
C1816 C 0.14943 0.65998 0.6715 0.0
C1817 C 0.14317 0.67386 0.67098 0.0
C1818 C 0.15443 0.65398 0.7031 0.0
C1819 C 0.15333 0.66174 0.73493 0.0
C1820 C 0.14698 0.67558 0.73443 0.0
C1821 C 0.14194 0.68156 0.70287 0.0
C1822 C 0.1574 0.6524 0.83207 0.0
C1823 C 0.17067 0.64496 0.83239 0.0
C1824 C 0.15164 0.65762 0.80042 0.0
C1825 C 0.15908 0.65559 0.76839 0.0
C1826 C 0.17225 0.64794 0.76869 0.0
C1827 C 0.17797 0.64266 0.80031 0.0
H1828 H 0.30809 0.12853 0.70603 0.0
H1829 H 0.3406 0.15316 0.65004 0.0
H1830 H 0.3178 0.13715 0.76206 0.0
H1831 H 0.35036 0.1617 0.70614 0.0
H1832 H 0.37187 0.16401 0.81458 0.0
H1833 H 0.36299 0.15334 0.75971 0.0
H1834 H 0.31892 0.1602 0.79421 0.0
H1835 H 0.32778 0.17048 0.84944 0.0
C1836 C 0.31729 0.13582 0.70567 0.0
C1837 C 0.32352 0.14022 0.67354 0.0
C1838 C 0.32285 0.14074 0.73778 0.0
C1839 C 0.33481 0.15015 0.73853 0.0
C1840 C 0.34125 0.15431 0.70646 0.0
C1841 C 0.33566 0.14941 0.67431 0.0
C1842 C 0.36029 0.16305 0.81064 0.0
C1843 C 0.35052 0.16811 0.83632 0.0
C1844 C 0.35521 0.15708 0.77906 0.0
C1845 C 0.34026 0.15597 0.77258 0.0
C1846 C 0.3305 0.16079 0.79854 0.0
C1847 C 0.33558 0.16681 0.83002 0.0
H1848 H 0.81231 0.36841 0.79509 0.0
H1849 H 0.84429 0.34437 0.85438 0.0
H1850 H 0.82272 0.35946 0.74018 0.0
H1851 H 0.85459 0.33529 0.79933 0.0
H1852 H 0.85521 0.30793 0.69733 0.0
H1853 H 0.84669 0.31849 0.7525 0.0
H1854 H 0.84477 0.36061 0.70295 0.0
H1855 H 0.85298 0.34994 0.64734 0.0
C1856 C 0.8217 0.3614 0.79643 0.0
C1857 C 0.82743 0.35707 0.82918 0.0
C1858 C 0.82765 0.35626 0.76493 0.0
C1859 C 0.83943 0.34663 0.76545 0.0
C1860 C 0.84537 0.34254 0.79812 0.0
C1861 C 0.83945 0.34771 0.82964 0.0
C1862 C 0.8529 0.31943 0.69816 0.0
C1863 C 0.85467 0.32809 0.66794 0.0
C1864 C 0.84819 0.32551 0.72987 0.0
C1865 C 0.84508 0.34038 0.73208 0.0
C1866 C 0.84699 0.34909 0.70197 0.0
C1867 C 0.85179 0.34301 0.67024 0.0
H1868 H 0.63969 0.84737 0.8444 0.0
H1869 H 0.64452 0.80471 0.79898 0.0
H1870 H 0.64699 0.85823 0.78831 0.0
H1871 H 0.65225 0.81552 0.74344 0.0
H1872 H 0.65276 0.83928 0.639 0.0
H1873 H 0.64289 0.82986 0.69416 0.0
H1874 H 0.66918 0.86018 0.75282 0.0
H1875 H 0.67907 0.86957 0.69773 0.0
C1876 C 0.64225 0.84033 0.8224 0.0
C1877 C 0.64159 0.82519 0.82614 0.0
C1878 C 0.64654 0.84654 0.79041 0.0
C1879 C 0.6502 0.83774 0.76146 0.0
C1880 C 0.64935 0.82261 0.76511 0.0
C1881 C 0.6451 0.81641 0.79708 0.0
C1882 C 0.65642 0.84394 0.66368 0.0
C1883 C 0.66676 0.85512 0.66399 0.0
C1884 C 0.65077 0.83854 0.69526 0.0
C1885 C 0.65533 0.84421 0.72785 0.0
C1886 C 0.66533 0.8557 0.72813 0.0
C1887 C 0.67099 0.86108 0.69655 0.0
H1888 H 0.87856 0.66792 0.69376 0.0
H1889 H 0.83596 0.65954 0.65124 0.0
H1890 H 0.87138 0.6567 0.74951 0.0
H1891 H 0.82866 0.64872 0.70718 0.0
H1892 H 0.8225 0.62084 0.80373 0.0
H1893 H 0.83272 0.62807 0.74693 0.0
H1894 H 0.85486 0.66368 0.79756 0.0
H1895 H 0.84498 0.65621 0.85443 0.0
C1896 C 0.86773 0.66351 0.69616 0.0
C1897 C 0.85779 0.66468 0.6682 0.0
C1898 C 0.86358 0.65722 0.72818 0.0
C1899 C 0.84943 0.65189 0.73281 0.0
C1900 C 0.83968 0.6526 0.70438 0.0
C1901 C 0.8438 0.65894 0.67246 0.0
C1902 C 0.82978 0.63003 0.80282 0.0
C1903 C 0.83287 0.63801 0.83351 0.0
C1904 C 0.83552 0.63425 0.77025 0.0
C1905 C 0.84452 0.64649 0.76773 0.0
C1906 C 0.84805 0.65413 0.79865 0.0
C1907 C 0.84227 0.64995 0.83116 0.0
H1908 H 0.32715 0.87742 0.6904 0.0
H1909 H 0.32542 0.83293 0.65539 0.0
H1910 H 0.33934 0.86971 0.74468 0.0
H1911 H 0.33734 0.82522 0.70963 0.0
H1912 H 0.36961 0.81703 0.79678 0.0
H1913 H 0.36088 0.82702 0.74102 0.0
H1914 H 0.33201 0.85545 0.79803 0.0
H1915 H 0.34096 0.84568 0.85385 0.0
C1916 C 0.3295 0.86603 0.69419 0.0
C1917 C 0.32527 0.85575 0.66884 0.0
C1918 C 0.33637 0.86161 0.7253 0.0
C1919 C 0.33928 0.84687 0.73138 0.0
C1920 C 0.33538 0.83667 0.70555 0.0
C1921 C 0.32842 0.84106 0.67468 0.0
C1922 C 0.3616 0.8256 0.79741 0.0
C1923 C 0.35591 0.83053 0.82966 0.0
C1924 C 0.35651 0.83122 0.7655 0.0
C1925 C 0.3457 0.84194 0.76518 0.0
C1926 C 0.34042 0.84726 0.79745 0.0
C1927 C 0.34543 0.84158 0.82937 0.0
H1928 H 0.16294 0.33389 0.64954 0.0
H1929 H 0.12057 0.32542 0.69328 0.0
H1930 H 0.17055 0.34456 0.70543 0.0
H1931 H 0.1281 0.33638 0.74913 0.0
H1932 H 0.15522 0.33769 0.85327 0.0
H1933 H 0.14527 0.32961 0.79691 0.0
H1934 H 0.16605 0.3656 0.74447 0.0
H1935 H 0.17627 0.37349 0.80071 0.0
C1936 C 0.15523 0.33439 0.67107 0.0
C1937 C 0.14119 0.32875 0.66713 0.0
C1938 C 0.15954 0.34063 0.70295 0.0
C1939 C 0.14992 0.3413 0.73167 0.0
C1940 C 0.13578 0.33592 0.72752 0.0
C1941 C 0.13143 0.32976 0.6955 0.0
C1942 C 0.1576 0.3439 0.82971 0.0
C1943 C 0.16659 0.35617 0.83138 0.0
C1944 C 0.1518 0.33936 0.79751 0.0
C1945 C 0.15493 0.34694 0.76625 0.0
C1946 C 0.16356 0.35946 0.76808 0.0
C1947 C 0.1693 0.36406 0.80032 0.0
H1948 H 0.63794 0.15092 0.84115 0.0
H1949 H 0.65048 0.19375 0.80657 0.0
H1950 H 0.64534 0.14106 0.78422 0.0
H1951 H 0.65869 0.18381 0.75079 0.0
H1952 H 0.66059 0.16498 0.64181 0.0
H1953 H 0.65029 0.17378 0.69704 0.0
H1954 H 0.6667 0.13588 0.75093 0.0
H1955 H 0.6766 0.12693 0.69535 0.0
C1956 C 0.64225 0.15824 0.82144 0.0
C1957 C 0.64365 0.17313 0.82857 0.0
C1958 C 0.64667 0.15256 0.78893 0.0
C1959 C 0.65263 0.16162 0.76284 0.0
C1960 C 0.65395 0.17651 0.76998 0.0
C1961 C 0.64946 0.18219 0.8023 0.0
C1962 C 0.6619 0.15852 0.66548 0.0
C1963 C 0.66944 0.14532 0.66437 0.0
C1964 C 0.65607 0.16357 0.69717 0.0
C1965 C 0.65779 0.15563 0.7286 0.0
C1966 C 0.665 0.14221 0.72722 0.0
C1967 C 0.67072 0.13708 0.6954 0.0
H1968 H 0.86201 0.34595 0.33299 0.0
H1969 H 0.83609 0.30731 0.31866 0.0
H1970 H 0.85251 0.35563 0.27764 0.0
H1971 H 0.8261 0.31747 0.26462 0.0
H1972 H 0.80007 0.35014 0.19534 0.0
H1973 H 0.81019 0.34093 0.25029 0.0
H1974 H 0.85339 0.347 0.20958 0.0
H1975 H 0.84339 0.35549 0.15362 0.0
C1976 C 0.85436 0.33947 0.31816 0.0
C1977 C 0.84982 0.32582 0.3306 0.0
C1978 C 0.84888 0.34509 0.28657 0.0
C1979 C 0.83855 0.33731 0.26713 0.0
C1980 C 0.83394 0.32375 0.27945 0.0
C1981 C 0.8396 0.318 0.31061 0.0
C1982 C 0.81172 0.34933 0.19768 0.0
C1983 C 0.82087 0.35345 0.16967 0.0
C1984 C 0.81749 0.34415 0.22932 0.0
C1985 C 0.83253 0.34325 0.23401 0.0
C1986 C 0.84174 0.34771 0.20661 0.0
C1987 C 0.83597 0.35264 0.17465 0.0
H1988 H 0.62947 0.83939 0.17148 0.0
H1989 H 0.66274 0.80651 0.17705 0.0
H1990 H 0.63744 0.849 0.22819 0.0
H1991 H 0.67129 0.81668 0.23219 0.0
H1992 H 0.67582 0.82881 0.34609 0.0
H1993 H 0.66535 0.81884 0.29231 0.0
H1994 H 0.65671 0.86224 0.25471 0.0
H1995 H 0.66672 0.87211 0.30935 0.0
C1996 C 0.63847 0.8342 0.18475 0.0
C1997 C 0.64548 0.82219 0.16955 0.0
C1998 C 0.64317 0.83984 0.21707 0.0
C1999 C 0.65502 0.83364 0.23486 0.0
C2000 C 0.66199 0.82162 0.21962 0.0
C2001 C 0.65723 0.81593 0.18757 0.0
C2002 C 0.67162 0.83618 0.32632 0.0
C2003 C 0.67215 0.85121 0.33167 0.0
C2004 C 0.66568 0.83049 0.29542 0.0
C2005 C 0.66032 0.83972 0.26888 0.0
C2006 C 0.66057 0.85479 0.27469 0.0
C2007 C 0.66635 0.86047 0.30589 0.0
H2008 H 0.12564 0.65747 0.32338 0.0
H2009 H 0.16096 0.68819 0.32482 0.0
H2010 H 0.13404 0.64835 0.26635 0.0
H2011 H 0.16971 0.67866 0.26912 0.0
H2012 H 0.17474 0.66917 0.15422 0.0
H2013 H 0.16354 0.67837 0.20791 0.0
H2014 H 0.15383 0.63454 0.2405 0.0
H2015 H 0.1648 0.62538 0.18609 0.0
C2016 C 0.13518 0.66228 0.31156 0.0
C2017 C 0.14265 0.67353 0.32875 0.0
C2018 C 0.14007 0.65695 0.27907 0.0
C2019 C 0.15252 0.6628 0.26308 0.0
C2020 C 0.15995 0.67405 0.28035 0.0
C2021 C 0.15506 0.67937 0.31264 0.0
C2022 C 0.17016 0.66151 0.17283 0.0
C2023 C 0.17078 0.64656 0.16626 0.0
C2024 C 0.16378 0.66677 0.20364 0.0
C2025 C 0.15798 0.65718 0.22879 0.0
C2026 C 0.15811 0.64223 0.22157 0.0
C2027 C 0.16441 0.63697 0.1905 0.0
H2028 H 0.33642 0.16481 0.3584 0.0
H2029 H 0.32267 0.12592 0.30475 0.0
H2030 H 0.34642 0.17412 0.30333 0.0
H2031 H 0.33232 0.13533 0.24936 0.0
H2032 H 0.36099 0.15163 0.16023 0.0
H2033 H 0.35369 0.14154 0.21699 0.0
H2034 H 0.33778 0.18358 0.249 0.0
H2035 H 0.34584 0.1938 0.19333 0.0
C2036 C 0.33552 0.15827 0.33476 0.0
C2037 C 0.32871 0.14468 0.3358 0.0
C2038 C 0.3412 0.16361 0.30316 0.0
C2039 C 0.34006 0.15555 0.27177 0.0
C2040 C 0.33356 0.14177 0.27307 0.0
C2041 C 0.32799 0.13637 0.30478 0.0
C2042 C 0.35612 0.15876 0.17959 0.0
C2043 C 0.35397 0.17353 0.1721 0.0
C2044 C 0.35178 0.15293 0.212 0.0
C2045 C 0.34513 0.16173 0.23763 0.0
C2046 C 0.34305 0.17651 0.23015 0.0
C2047 C 0.34746 0.18234 0.19791 0.0
loop_
_geom_bond_atom_site_label_1
_geom_bond_atom_site_label_2
_geom_bond_distance
_geom_bond_site_symmetry_2
_ccdc_geom_bond_type
Li0 N17 1.990 . S
Li0 O60 1.956 . S
Li0 O61 1.969 1_554 S
Li0 O62 1.961 1_554 S
Li1 N25 1.990 . S
Li1 O60 1.970 . S
Li1 O61 1.935 1_554 S
Li1 O63 1.961 . S
Li2 N47 1.991 . S
Li2 O60 1.938 1_556 S
Li2 O62 1.978 . S
Li2 O63 1.969 1_556 S
Li3 N53 1.990 . S
Li3 O61 1.981 . S
Li3 O62 1.970 . S
Li3 O63 1.956 1_556 S
C4 C6 1.348 . S
C4 C7 1.356 . S
C4 O60 1.325 . S
N5 C8 1.314 . S
N5 C9 1.279 . S
C6 C4 1.348 . S
C6 C8 1.353 . S
C6 H64 0.929 . S
C7 C4 1.356 . S
C7 C9 1.358 . S
C7 H65 0.930 . S
C8 N5 1.314 . S
C8 C6 1.353 . S
C8 H66 0.930 . S
C9 N5 1.279 . S
C9 C7 1.358 . S
C9 H67 0.930 . S
C10 C13 1.349 1_556 S
C10 C14 1.355 . S
C10 O61 1.324 . S
C11 N12 1.279 1_556 S
C11 C14 1.358 . S
C11 H68 0.930 . S
N12 C11 1.279 1_554 S
N12 C15 1.314 . S
C13 C10 1.349 1_554 S
C13 C15 1.353 . S
C13 H69 0.929 . S
C14 C10 1.355 . S
C14 C11 1.358 . S
C14 H70 0.930 . S
C15 N12 1.314 . S
C15 C13 1.353 . S
C15 H71 0.930 . S
C16 N17 1.314 1_556 S
C16 C21 1.353 . S
C16 H22 0.930 . S
N17 Li0 1.990 . S
N17 C16 1.314 1_554 S
N17 C19 1.279 . S
C18 C19 1.358 . S
C18 C20 1.359 . S
C18 H72 0.930 . S
C19 N17 1.279 . S
C19 C18 1.358 . S
C19 H23 0.930 . S
C20 C18 1.359 . S
C20 C21 1.345 1_554 S
C21 C16 1.353 . S
C21 C20 1.345 1_556 S
C21 H73 0.929 . S
H22 C16 0.930 . S
H23 C19 0.930 . S
C24 N25 1.314 . S
C24 C26 1.353 . S
C24 H30 0.930 . S
N25 Li1 1.990 . S
N25 C24 1.314 . S
N25 C28 1.279 . S
C26 C24 1.353 . S
C26 C29 1.348 . S
C26 H74 0.929 . S
C27 C28 1.358 . S
C27 C29 1.356 . S
C27 H75 0.930 . S
C28 N25 1.279 . S
C28 C27 1.358 . S
C28 H31 0.930 . S
C29 C26 1.348 . S
C29 C27 1.356 . S
H30 C24 0.930 . S
H31 C28 0.930 . S
C32 C34 1.348 . S
C32 C35 1.356 . S
C32 O62 1.325 . S
N33 C36 1.314 . S
N33 C37 1.279 . S
C34 C32 1.348 . S
C34 C36 1.353 . S
C34 H76 0.929 . S
C35 C32 1.356 . S
C35 C37 1.358 . S
C35 H77 0.930 . S
C36 N33 1.314 . S
C36 C34 1.353 . S
C36 H78 0.930 . S
C37 N33 1.279 . S
C37 C35 1.358 . S
C37 H79 0.930 . S
C38 C39 1.347 1_554 S
C38 C40 1.357 . S
C38 O63 1.325 . S
C39 C38 1.347 1_556 S
C39 C41 1.353 . S
C39 H80 0.929 . S
C40 C38 1.357 . S
C40 C42 1.358 . S
C40 H81 0.930 . S
C41 C39 1.353 . S
C41 N43 1.314 . S
C41 H82 0.930 . S
C42 C40 1.358 . S
C42 N43 1.279 1_554 S
C42 H83 0.930 . S
N43 C41 1.314 . S
N43 C42 1.279 1_556 S
C44 C46 1.353 . S
C44 N47 1.314 1_554 S
C44 H50 0.930 . S
C45 N47 1.279 . S
C45 C48 1.358 . S
C45 H51 0.930 . S
C46 C44 1.353 . S
C46 C49 1.345 . S
C46 H84 0.929 . S
N47 Li2 1.991 . S
N47 C44 1.314 1_556 S
N47 C45 1.279 . S
C48 C45 1.358 . S
C48 C49 1.359 1_556 S
C48 H85 0.930 . S
C49 C46 1.345 . S
C49 C48 1.359 1_554 S
H50 C44 0.930 . S
H51 C45 0.930 . S
C52 N53 1.314 . S
C52 C54 1.353 . S
C52 H58 0.930 . S
N53 Li3 1.990 . S
N53 C52 1.314 . S
N53 C56 1.279 . S
C54 C52 1.353 . S
C54 C57 1.348 . S
C54 H86 0.929 . S
C55 C56 1.358 . S
C55 C57 1.356 . S
C55 H87 0.930 . S
C56 N53 1.279 . S
C56 C55 1.358 . S
C56 H59 0.930 . S
C57 C54 1.348 . S
C57 C55 1.356 . S
H58 C52 0.930 . S
H59 C56 0.930 . S
O60 Li0 1.956 . S
O60 Li1 1.970 . S
O60 Li2 1.938 1_554 S
O60 C4 1.325 . S
O61 Li0 1.969 1_556 S
O61 Li1 1.935 1_556 S
O61 Li3 1.981 . S
O61 C10 1.324 . S
O62 Li0 1.961 1_556 S
O62 Li2 1.978 . S
O62 Li3 1.970 . S
O62 C32 1.325 . S
O63 Li1 1.961 . S
O63 Li2 1.969 1_554 S
O63 Li3 1.956 1_554 S
O63 C38 1.325 . S
H64 C6 0.929 . S
H65 C7 0.930 . S
H66 C8 0.930 . S
H67 C9 0.930 . S
H68 C11 0.930 . S
H69 C13 0.929 . S
H70 C14 0.930 . S
H71 C15 0.930 . S
H72 C18 0.930 . S
H73 C21 0.929 . S
H74 C26 0.929 . S
H75 C27 0.930 . S
H76 C34 0.929 . S
H77 C35 0.930 . S
H78 C36 0.930 . S
H79 C37 0.930 . S
H80 C39 0.929 . S
H81 C40 0.930 . S
H82 C41 0.930 . S
H83 C42 0.930 . S
H84 C46 0.929 . S
H85 C48 0.930 . S
H86 C54 0.929 . S
H87 C55 0.930 . S
Li88 N105 1.990 . S
Li88 O148 1.956 . S
Li88 O149 1.969 1_554 S
Li88 O150 1.961 1_554 S
Li89 N113 1.990 . S
Li89 O148 1.970 . S
Li89 O149 1.935 1_554 S
Li89 O151 1.961 . S
Li90 N135 1.991 . S
Li90 O148 1.938 1_556 S
Li90 O150 1.978 . S
Li90 O151 1.969 1_556 S
Li91 N141 1.990 . S
Li91 O149 1.981 . S
Li91 O150 1.970 . S
Li91 O151 1.956 1_556 S
C92 C94 1.348 . S
C92 C95 1.356 . S
C92 O148 1.325 . S
N93 C96 1.314 . S
N93 C97 1.279 . S
C94 C92 1.348 . S
C94 C96 1.353 . S
C94 H152 0.929 . S
C95 C92 1.356 . S
C95 C97 1.358 . S
C95 H153 0.930 . S
C96 N93 1.314 . S
C96 C94 1.353 . S
C96 H154 0.930 . S
C97 N93 1.279 . S
C97 C95 1.358 . S
C97 H155 0.930 . S
C98 C101 1.349 1_556 S
C98 C102 1.355 . S
C98 O149 1.324 . S
C99 N100 1.279 1_556 S
C99 C102 1.358 . S
C99 H156 0.930 . S
N100 C99 1.279 1_554 S
N100 C103 1.314 . S
C101 C98 1.349 1_554 S
C101 C103 1.353 . S
C101 H157 0.929 . S
C102 C98 1.355 . S
C102 C99 1.358 . S
C102 H158 0.930 . S
C103 N100 1.314 . S
C103 C101 1.353 . S
C103 H159 0.930 . S
C104 N105 1.314 1_556 S
C104 C109 1.353 . S
C104 H110 0.930 . S
N105 Li88 1.990 . S
N105 C104 1.314 1_554 S
N105 C107 1.279 . S
C106 C107 1.358 . S
C106 C108 1.359 . S
C106 H160 0.930 . S
C107 N105 1.279 . S
C107 C106 1.358 . S
C107 H111 0.930 . S
C108 C106 1.359 . S
C108 C109 1.345 1_554 S
C109 C104 1.353 . S
C109 C108 1.345 1_556 S
C109 H161 0.929 . S
H110 C104 0.930 . S
H111 C107 0.930 . S
C112 N113 1.314 . S
C112 C114 1.353 . S
C112 H118 0.930 . S
N113 Li89 1.990 . S
N113 C112 1.314 . S
N113 C116 1.279 . S
C114 C112 1.353 . S
C114 C117 1.348 . S
C114 H162 0.929 . S
C115 C116 1.358 . S
C115 C117 1.356 . S
C115 H163 0.930 . S
C116 N113 1.279 . S
C116 C115 1.358 . S
C116 H119 0.930 . S
C117 C114 1.348 . S
C117 C115 1.356 . S
H118 C112 0.930 . S
H119 C116 0.930 . S
C120 C122 1.348 . S
C120 C123 1.356 . S
C120 O150 1.325 . S
N121 C124 1.314 . S
N121 C125 1.279 . S
C122 C120 1.348 . S
C122 C124 1.353 . S
C122 H164 0.929 . S
C123 C120 1.356 . S
C123 C125 1.358 . S
C123 H165 0.930 . S
C124 N121 1.314 . S
C124 C122 1.353 . S
C124 H166 0.930 . S
C125 N121 1.279 . S
C125 C123 1.358 . S
C125 H167 0.930 . S
C126 C127 1.347 1_554 S
C126 C128 1.357 . S
C126 O151 1.325 . S
C127 C126 1.347 1_556 S
C127 C129 1.353 . S
C127 H168 0.929 . S
C128 C126 1.357 . S
C128 C130 1.358 . S
C128 H169 0.930 . S
C129 C127 1.353 . S
C129 N131 1.314 . S
C129 H170 0.930 . S
C130 C128 1.358 . S
C130 N131 1.279 1_554 S
C130 H171 0.930 . S
N131 C129 1.314 . S
N131 C130 1.279 1_556 S
C132 C134 1.353 . S
C132 N135 1.314 1_554 S
C132 H138 0.930 . S
C133 N135 1.279 . S
C133 C136 1.358 . S
C133 H139 0.930 . S
C134 C132 1.353 . S
C134 C137 1.345 . S
C134 H172 0.929 . S
N135 Li90 1.991 . S
N135 C132 1.314 1_556 S
N135 C133 1.279 . S
C136 C133 1.358 . S
C136 C137 1.359 1_556 S
C136 H173 0.930 . S
C137 C134 1.345 . S
C137 C136 1.359 1_554 S
H138 C132 0.930 . S
H139 C133 0.930 . S
C140 N141 1.314 . S
C140 C142 1.353 . S
C140 H146 0.930 . S
N141 Li91 1.990 . S
N141 C140 1.314 . S
N141 C144 1.279 . S
C142 C140 1.353 . S
C142 C145 1.348 . S
C142 H174 0.929 . S
C143 C144 1.358 . S
C143 C145 1.356 . S
C143 H175 0.930 . S
C144 N141 1.279 . S
C144 C143 1.358 . S
C144 H147 0.930 . S
C145 C142 1.348 . S
C145 C143 1.356 . S
H146 C140 0.930 . S
H147 C144 0.930 . S
O148 Li88 1.956 . S
O148 Li89 1.970 . S
O148 Li90 1.938 1_554 S
O148 C92 1.325 . S
O149 Li88 1.969 1_556 S
O149 Li89 1.935 1_556 S
O149 Li91 1.981 . S
O149 C98 1.324 . S
O150 Li88 1.961 1_556 S
O150 Li90 1.978 . S
O150 Li91 1.970 . S
O150 C120 1.325 . S
O151 Li89 1.961 . S
O151 Li90 1.969 1_554 S
O151 Li91 1.956 1_554 S
O151 C126 1.325 . S
H152 C94 0.929 . S
H153 C95 0.930 . S
H154 C96 0.930 . S
H155 C97 0.930 . S
H156 C99 0.930 . S
H157 C101 0.929 . S
H158 C102 0.930 . S
H159 C103 0.930 . S
H160 C106 0.930 . S
H161 C109 0.929 . S
H162 C114 0.929 . S
H163 C115 0.930 . S
H164 C122 0.929 . S
H165 C123 0.930 . S
H166 C124 0.930 . S
H167 C125 0.930 . S
H168 C127 0.929 . S
H169 C128 0.930 . S
H170 C129 0.930 . S
H171 C130 0.930 . S
H172 C134 0.929 . S
H173 C136 0.930 . S
H174 C142 0.929 . S
H175 C143 0.930 . S
Li176 N193 1.990 . S
Li176 O236 1.935 1_554 S
Li176 O237 1.970 . S
Li176 O238 1.961 . S
Li177 N201 1.990 . S
Li177 O236 1.969 1_554 S
Li177 O237 1.956 . S
Li177 O239 1.961 1_554 S
Li178 N223 1.990 . S
Li178 O236 1.981 . S
Li178 O238 1.956 1_556 S
Li178 O239 1.970 . S
Li179 N229 1.991 . S
Li179 O237 1.938 1_556 S
Li179 O238 1.969 1_556 S
Li179 O239 1.978 . S
C180 C182 1.349 1_556 S
C180 C183 1.355 . S
C180 O236 1.324 . S
N181 C184 1.314 . S
N181 C185 1.279 1_554 S
C182 C180 1.349 1_554 S
C182 C184 1.353 . S
C182 H240 0.929 . S
C183 C180 1.355 . S
C183 C185 1.358 . S
C183 H241 0.930 . S
C184 N181 1.314 . S
C184 C182 1.353 . S
C184 H242 0.930 . S
C185 N181 1.279 1_556 S
C185 C183 1.358 . S
C185 H243 0.930 . S
C186 C189 1.348 . S
C186 C190 1.356 . S
C186 O237 1.325 . S
C187 N188 1.279 . S
C187 C190 1.358 . S
C187 H244 0.930 . S
N188 C187 1.279 . S
N188 C191 1.314 . S
C189 C186 1.348 . S
C189 C191 1.353 . S
C189 H245 0.929 . S
C190 C186 1.356 . S
C190 C187 1.358 . S
C190 H246 0.930 . S
C191 N188 1.314 . S
C191 C189 1.353 . S
C191 H247 0.930 . S
C192 N193 1.314 . S
C192 C197 1.353 . S
C192 H198 0.930 . S
N193 Li176 1.990 . S
N193 C192 1.314 . S
N193 C195 1.279 . S
C194 C195 1.358 . S
C194 C196 1.356 . S
C194 H248 0.930 . S
C195 N193 1.279 . S
C195 C194 1.358 . S
C195 H199 0.930 . S
C196 C194 1.356 . S
C196 C197 1.348 . S
C197 C192 1.353 . S
C197 C196 1.348 . S
C197 H249 0.929 . S
H198 C192 0.930 . S
H199 C195 0.930 . S
C200 N201 1.314 1_556 S
C200 C202 1.353 . S
C200 H206 0.930 . S
N201 Li177 1.990 . S
N201 C200 1.314 1_554 S
N201 C204 1.279 . S
C202 C200 1.353 . S
C202 C205 1.345 1_556 S
C202 H250 0.929 . S
C203 C204 1.358 . S
C203 C205 1.359 . S
C203 H251 0.930 . S
C204 N201 1.279 . S
C204 C203 1.358 . S
C204 H207 0.930 . S
C205 C202 1.345 1_554 S
C205 C203 1.359 . S
H206 C200 0.930 . S
H207 C204 0.930 . S
C208 C210 1.347 1_554 S
C208 C211 1.357 . S
C208 O238 1.325 . S
N209 C212 1.314 . S
N209 C213 1.279 1_556 S
C210 C208 1.347 1_556 S
C210 C212 1.353 . S
C210 H252 0.929 . S
C211 C208 1.357 . S
C211 C213 1.358 . S
C211 H253 0.930 . S
C212 N209 1.314 . S
C212 C210 1.353 . S
C212 H254 0.930 . S
C213 N209 1.279 1_554 S
C213 C211 1.358 . S
C213 H255 0.930 . S
C214 C215 1.348 . S
C214 C216 1.356 . S
C214 O239 1.325 . S
C215 C214 1.348 . S
C215 C217 1.353 . S
C215 H256 0.929 . S
C216 C214 1.356 . S
C216 C218 1.358 . S
C216 H257 0.930 . S
C217 C215 1.353 . S
C217 N219 1.314 . S
C217 H258 0.930 . S
C218 C216 1.358 . S
C218 N219 1.279 . S
C218 H259 0.930 . S
N219 C217 1.314 . S
N219 C218 1.279 . S
C220 C222 1.353 . S
C220 N223 1.314 . S
C220 H226 0.930 . S
C221 N223 1.279 . S
C221 C224 1.358 . S
C221 H227 0.930 . S
C222 C220 1.353 . S
C222 C225 1.348 . S
C222 H260 0.929 . S
N223 Li178 1.990 . S
N223 C220 1.314 . S
N223 C221 1.279 . S
C224 C221 1.358 . S
C224 C225 1.356 . S
C224 H261 0.930 . S
C225 C222 1.348 . S
C225 C224 1.356 . S
H226 C220 0.930 . S
H227 C221 0.930 . S
C228 N229 1.314 1_554 S
C228 C230 1.353 . S
C228 H234 0.930 . S
N229 Li179 1.991 . S
N229 C228 1.314 1_556 S
N229 C232 1.279 . S
C230 C228 1.353 . S
C230 C233 1.345 . S
C230 H262 0.929 . S
C231 C232 1.358 . S
C231 C233 1.359 1_556 S
C231 H263 0.930 . S
C232 N229 1.279 . S
C232 C231 1.358 . S
C232 H235 0.930 . S
C233 C230 1.345 . S
C233 C231 1.359 1_554 S
H234 C228 0.930 . S
H235 C232 0.930 . S
O236 Li176 1.935 1_556 S
O236 Li177 1.969 1_556 S
O236 Li178 1.981 . S
O236 C180 1.324 . S
O237 Li176 1.970 . S
O237 Li177 1.956 . S
O237 Li179 1.938 1_554 S
O237 C186 1.325 . S
O238 Li176 1.961 . S
O238 Li178 1.956 1_554 S
O238 Li179 1.969 1_554 S
O238 C208 1.325 . S
O239 Li177 1.961 1_556 S
O239 Li178 1.970 . S
O239 Li179 1.978 . S
O239 C214 1.325 . S
H240 C182 0.929 . S
H241 C183 0.930 . S
H242 C184 0.930 . S
H243 C185 0.930 . S
H244 C187 0.930 . S
H245 C189 0.929 . S
H246 C190 0.930 . S
H247 C191 0.930 . S
H248 C194 0.930 . S
H249 C197 0.929 . S
H250 C202 0.929 . S
H251 C203 0.930 . S
H252 C210 0.929 . S
H253 C211 0.930 . S
H254 C212 0.930 . S
H255 C213 0.930 . S
H256 C215 0.929 . S
H257 C216 0.930 . S
H258 C217 0.930 . S
H259 C218 0.930 . S
H260 C222 0.929 . S
H261 C224 0.930 . S
H262 C230 0.929 . S
H263 C231 0.930 . S
Li264 N281 1.990 . S
Li264 O324 1.935 1_554 S
Li264 O325 1.970 . S
Li264 O326 1.961 . S
Li265 N289 1.990 . S
Li265 O324 1.969 1_554 S
Li265 O325 1.956 . S
Li265 O327 1.961 1_554 S
Li266 N311 1.990 . S
Li266 O324 1.981 . S
Li266 O326 1.956 1_556 S
Li266 O327 1.970 . S
Li267 N317 1.991 . S
Li267 O325 1.938 1_556 S
Li267 O326 1.969 1_556 S
Li267 O327 1.978 . S
C268 C270 1.349 1_556 S
C268 C271 1.355 . S
C268 O324 1.324 . S
N269 C272 1.314 . S
N269 C273 1.279 1_554 S
C270 C268 1.349 1_554 S
C270 C272 1.353 . S
C270 H328 0.929 . S
C271 C268 1.355 . S
C271 C273 1.358 . S
C271 H329 0.930 . S
C272 N269 1.314 . S
C272 C270 1.353 . S
C272 H330 0.930 . S
C273 N269 1.279 1_556 S
C273 C271 1.358 . S
C273 H331 0.930 . S
C274 C277 1.348 . S
C274 C278 1.356 . S
C274 O325 1.325 . S
C275 N276 1.279 . S
C275 C278 1.358 . S
C275 H332 0.930 . S
N276 C275 1.279 . S
N276 C279 1.314 . S
C277 C274 1.348 . S
C277 C279 1.353 . S
C277 H333 0.929 . S
C278 C274 1.356 . S
C278 C275 1.358 . S
C278 H334 0.930 . S
C279 N276 1.314 . S
C279 C277 1.353 . S
C279 H335 0.930 . S
C280 N281 1.314 . S
C280 C285 1.353 . S
C280 H286 0.930 . S
N281 Li264 1.990 . S
N281 C280 1.314 . S
N281 C283 1.279 . S
C282 C283 1.358 . S
C282 C284 1.356 . S
C282 H336 0.930 . S
C283 N281 1.279 . S
C283 C282 1.358 . S
C283 H287 0.930 . S
C284 C282 1.356 . S
C284 C285 1.348 . S
C285 C280 1.353 . S
C285 C284 1.348 . S
C285 H337 0.929 . S
H286 C280 0.930 . S
H287 C283 0.930 . S
C288 N289 1.314 1_556 S
C288 C290 1.353 . S
C288 H294 0.930 . S
N289 Li265 1.990 . S
N289 C288 1.314 1_554 S
N289 C292 1.279 . S
C290 C288 1.353 . S
C290 C293 1.345 1_556 S
C290 H338 0.929 . S
C291 C292 1.358 . S
C291 C293 1.359 . S
C291 H339 0.930 . S
C292 N289 1.279 . S
C292 C291 1.358 . S
C292 H295 0.930 . S
C293 C290 1.345 1_554 S
C293 C291 1.359 . S
H294 C288 0.930 . S
H295 C292 0.930 . S
C296 C298 1.347 1_554 S
C296 C299 1.357 . S
C296 O326 1.325 . S
N297 C300 1.314 . S
N297 C301 1.279 1_556 S
C298 C296 1.347 1_556 S
C298 C300 1.353 . S
C298 H340 0.929 . S
C299 C296 1.357 . S
C299 C301 1.358 . S
C299 H341 0.930 . S
C300 N297 1.314 . S
C300 C298 1.353 . S
C300 H342 0.930 . S
C301 N297 1.279 1_554 S
C301 C299 1.358 . S
C301 H343 0.930 . S
C302 C303 1.348 . S
C302 C304 1.356 . S
C302 O327 1.325 . S
C303 C302 1.348 . S
C303 C305 1.353 . S
C303 H344 0.929 . S
C304 C302 1.356 . S
C304 C306 1.358 . S
C304 H345 0.930 . S
C305 C303 1.353 . S
C305 N307 1.314 . S
C305 H346 0.930 . S
C306 C304 1.358 . S
C306 N307 1.279 . S
C306 H347 0.930 . S
N307 C305 1.314 . S
N307 C306 1.279 . S
C308 C310 1.353 . S
C308 N311 1.314 . S
C308 H314 0.930 . S
C309 N311 1.279 . S
C309 C312 1.358 . S
C309 H315 0.930 . S
C310 C308 1.353 . S
C310 C313 1.348 . S
C310 H348 0.929 . S
N311 Li266 1.990 . S
N311 C308 1.314 . S
N311 C309 1.279 . S
C312 C309 1.358 . S
C312 C313 1.356 . S
C312 H349 0.930 . S
C313 C310 1.348 . S
C313 C312 1.356 . S
H314 C308 0.930 . S
H315 C309 0.930 . S
C316 N317 1.314 1_554 S
C316 C318 1.353 . S
C316 H322 0.930 . S
N317 Li267 1.991 . S
N317 C316 1.314 1_556 S
N317 C320 1.279 . S
C318 C316 1.353 . S
C318 C321 1.345 . S
C318 H350 0.929 . S
C319 C320 1.358 . S
C319 C321 1.359 1_556 S
C319 H351 0.930 . S
C320 N317 1.279 . S
C320 C319 1.358 . S
C320 H323 0.930 . S
C321 C318 1.345 . S
C321 C319 1.359 1_554 S
H322 C316 0.930 . S
H323 C320 0.930 . S
O324 Li264 1.935 1_556 S
O324 Li265 1.969 1_556 S
O324 Li266 1.981 . S
O324 C268 1.324 . S
O325 Li264 1.970 . S
O325 Li265 1.956 . S
O325 Li267 1.938 1_554 S
O325 C274 1.325 . S
O326 Li264 1.961 . S
O326 Li266 1.956 1_554 S
O326 Li267 1.969 1_554 S
O326 C296 1.325 . S
O327 Li265 1.961 1_556 S
O327 Li266 1.970 . S
O327 Li267 1.978 . S
O327 C302 1.325 . S
H328 C270 0.929 . S
H329 C271 0.930 . S
H330 C272 0.930 . S
H331 C273 0.930 . S
H332 C275 0.930 . S
H333 C277 0.929 . S
H334 C278 0.930 . S
H335 C279 0.930 . S
H336 C282 0.930 . S
H337 C285 0.929 . S
H338 C290 0.929 . S
H339 C291 0.930 . S
H340 C298 0.929 . S
H341 C299 0.930 . S
H342 C300 0.930 . S
H343 C301 0.930 . S
H344 C303 0.929 . S
H345 C304 0.930 . S
H346 C305 0.930 . S
H347 C306 0.930 . S
H348 C310 0.929 . S
H349 C312 0.930 . S
H350 C318 0.929 . S
H351 C319 0.930 . S
Li352 N369 1.990 . S
Li352 O412 1.935 1_554 S
Li352 O413 1.970 . S
Li352 O414 1.961 . S
Li353 N377 1.990 . S
Li353 O412 1.969 1_554 S
Li353 O413 1.956 . S
Li353 O415 1.961 1_554 S
Li354 N399 1.990 . S
Li354 O412 1.981 . S
Li354 O414 1.956 1_556 S
Li354 O415 1.970 . S
Li355 N405 1.991 . S
Li355 O413 1.938 1_556 S
Li355 O414 1.969 1_556 S
Li355 O415 1.978 . S
C356 C358 1.349 1_556 S
C356 C359 1.355 . S
C356 O412 1.324 . S
N357 C360 1.314 . S
N357 C361 1.279 1_554 S
C358 C356 1.349 1_554 S
C358 C360 1.353 . S
C358 H416 0.929 . S
C359 C356 1.355 . S
C359 C361 1.358 . S
C359 H417 0.930 . S
C360 N357 1.314 . S
C360 C358 1.353 . S
C360 H418 0.930 . S
C361 N357 1.279 1_556 S
C361 C359 1.358 . S
C361 H419 0.930 . S
C362 C365 1.348 . S
C362 C366 1.356 . S
C362 O413 1.325 . S
C363 N364 1.279 . S
C363 C366 1.358 . S
C363 H420 0.930 . S
N364 C363 1.279 . S
N364 C367 1.314 . S
C365 C362 1.348 . S
C365 C367 1.353 . S
C365 H421 0.929 . S
C366 C362 1.356 . S
C366 C363 1.358 . S
C366 H422 0.930 . S
C367 N364 1.314 . S
C367 C365 1.353 . S
C367 H423 0.930 . S
C368 N369 1.314 . S
C368 C373 1.353 . S
C368 H374 0.930 . S
N369 Li352 1.990 . S
N369 C368 1.314 . S
N369 C371 1.279 . S
C370 C371 1.358 . S
C370 C372 1.356 . S
C370 H424 0.930 . S
C371 N369 1.279 . S
C371 C370 1.358 . S
C371 H375 0.930 . S
C372 C370 1.356 . S
C372 C373 1.348 . S
C373 C368 1.353 . S
C373 C372 1.348 . S
C373 H425 0.929 . S
H374 C368 0.930 . S
H375 C371 0.930 . S
C376 N377 1.314 1_556 S
C376 C378 1.353 . S
C376 H382 0.930 . S
N377 Li353 1.990 . S
N377 C376 1.314 1_554 S
N377 C380 1.279 . S
C378 C376 1.353 . S
C378 C381 1.345 1_556 S
C378 H426 0.929 . S
C379 C380 1.358 . S
C379 C381 1.359 . S
C379 H427 0.930 . S
C380 N377 1.279 . S
C380 C379 1.358 . S
C380 H383 0.930 . S
C381 C378 1.345 1_554 S
C381 C379 1.359 . S
H382 C376 0.930 . S
H383 C380 0.930 . S
C384 C386 1.346 1_554 S
C384 C387 1.357 . S
C384 O414 1.325 . S
N385 C388 1.314 . S
N385 C389 1.279 1_556 S
C386 C384 1.346 1_556 S
C386 C388 1.353 . S
C386 H428 0.929 . S
C387 C384 1.357 . S
C387 C389 1.358 . S
C387 H429 0.930 . S
C388 N385 1.314 . S
C388 C386 1.353 . S
C388 H430 0.930 . S
C389 N385 1.279 1_554 S
C389 C387 1.358 . S
C389 H431 0.930 . S
C390 C391 1.348 . S
C390 C392 1.356 . S
C390 O415 1.325 . S
C391 C390 1.348 . S
C391 C393 1.353 . S
C391 H432 0.929 . S
C392 C390 1.356 . S
C392 C394 1.358 . S
C392 H433 0.930 . S
C393 C391 1.353 . S
C393 N395 1.314 . S
C393 H434 0.930 . S
C394 C392 1.358 . S
C394 N395 1.279 . S
C394 H435 0.930 . S
N395 C393 1.314 . S
N395 C394 1.279 . S
C396 C398 1.353 . S
C396 N399 1.314 . S
C396 H402 0.930 . S
C397 N399 1.279 . S
C397 C400 1.358 . S
C397 H403 0.930 . S
C398 C396 1.353 . S
C398 C401 1.348 . S
C398 H436 0.929 . S
N399 Li354 1.990 . S
N399 C396 1.314 . S
N399 C397 1.279 . S
C400 C397 1.358 . S
C400 C401 1.356 . S
C400 H437 0.930 . S
C401 C398 1.348 . S
C401 C400 1.356 . S
H402 C396 0.930 . S
H403 C397 0.930 . S
C404 N405 1.314 1_554 S
C404 C406 1.353 . S
C404 H410 0.930 . S
N405 Li355 1.991 . S
N405 C404 1.314 1_556 S
N405 C408 1.279 . S
C406 C404 1.353 . S
C406 C409 1.345 . S
C406 H438 0.929 . S
C407 C408 1.358 . S
C407 C409 1.359 1_556 S
C407 H439 0.930 . S
C408 N405 1.279 . S
C408 C407 1.358 . S
C408 H411 0.930 . S
C409 C406 1.345 . S
C409 C407 1.359 1_554 S
H410 C404 0.930 . S
H411 C408 0.930 . S
O412 Li352 1.935 1_556 S
O412 Li353 1.969 1_556 S
O412 Li354 1.981 . S
O412 C356 1.324 . S
O413 Li352 1.970 . S
O413 Li353 1.956 . S
O413 Li355 1.938 1_554 S
O413 C362 1.325 . S
O414 Li352 1.961 . S
O414 Li354 1.956 1_554 S
O414 Li355 1.969 1_554 S
O414 C384 1.325 . S
O415 Li353 1.961 1_556 S
O415 Li354 1.970 . S
O415 Li355 1.978 . S
O415 C390 1.325 . S
H416 C358 0.929 . S
H417 C359 0.930 . S
H418 C360 0.930 . S
H419 C361 0.930 . S
H420 C363 0.930 . S
H421 C365 0.929 . S
H422 C366 0.930 . S
H423 C367 0.930 . S
H424 C370 0.930 . S
H425 C373 0.929 . S
H426 C378 0.929 . S
H427 C379 0.930 . S
H428 C386 0.929 . S
H429 C387 0.930 . S
H430 C388 0.930 . S
H431 C389 0.930 . S
H432 C391 0.929 . S
H433 C392 0.930 . S
H434 C393 0.930 . S
H435 C394 0.930 . S
H436 C398 0.929 . S
H437 C400 0.930 . S
H438 C406 0.929 . S
H439 C407 0.930 . S
Li440 N457 1.990 . S
Li440 O500 1.956 . S
Li440 O501 1.969 1_554 S
Li440 O502 1.961 1_554 S
Li441 N465 1.990 . S
Li441 O500 1.970 . S
Li441 O501 1.935 1_554 S
Li441 O503 1.961 . S
Li442 N487 1.991 . S
Li442 O500 1.938 1_556 S
Li442 O502 1.978 . S
Li442 O503 1.969 1_556 S
Li443 N493 1.990 . S
Li443 O501 1.981 . S
Li443 O502 1.970 . S
Li443 O503 1.956 1_556 S
C444 C446 1.348 . S
C444 C447 1.356 . S
C444 O500 1.325 . S
N445 C448 1.314 . S
N445 C449 1.279 . S
C446 C444 1.348 . S
C446 C448 1.353 . S
C446 H504 0.929 . S
C447 C444 1.356 . S
C447 C449 1.358 . S
C447 H505 0.930 . S
C448 N445 1.314 . S
C448 C446 1.353 . S
C448 H506 0.930 . S
C449 N445 1.279 . S
C449 C447 1.358 . S
C449 H507 0.930 . S
C450 C453 1.349 1_556 S
C450 C454 1.355 . S
C450 O501 1.324 . S
C451 N452 1.279 1_556 S
C451 C454 1.358 . S
C451 H508 0.930 . S
N452 C451 1.279 1_554 S
N452 C455 1.314 . S
C453 C450 1.349 1_554 S
C453 C455 1.353 . S
C453 H509 0.929 . S
C454 C450 1.355 . S
C454 C451 1.358 . S
C454 H510 0.930 . S
C455 N452 1.314 . S
C455 C453 1.353 . S
C455 H511 0.930 . S
C456 N457 1.314 1_556 S
C456 C461 1.353 . S
C456 H462 0.930 . S
N457 Li440 1.990 . S
N457 C456 1.314 1_554 S
N457 C459 1.279 . S
C458 C459 1.358 . S
C458 C460 1.359 . S
C458 H512 0.930 . S
C459 N457 1.279 . S
C459 C458 1.358 . S
C459 H463 0.930 . S
C460 C458 1.359 . S
C460 C461 1.345 1_554 S
C461 C456 1.353 . S
C461 C460 1.345 1_556 S
C461 H513 0.929 . S
H462 C456 0.930 . S
H463 C459 0.930 . S
C464 N465 1.314 . S
C464 C466 1.353 . S
C464 H470 0.930 . S
N465 Li441 1.990 . S
N465 C464 1.314 . S
N465 C468 1.279 . S
C466 C464 1.353 . S
C466 C469 1.348 . S
C466 H514 0.929 . S
C467 C468 1.358 . S
C467 C469 1.356 . S
C467 H515 0.930 . S
C468 N465 1.279 . S
C468 C467 1.358 . S
C468 H471 0.930 . S
C469 C466 1.348 . S
C469 C467 1.356 . S
H470 C464 0.930 . S
H471 C468 0.930 . S
C472 C474 1.348 . S
C472 C475 1.356 . S
C472 O502 1.325 . S
N473 C476 1.314 . S
N473 C477 1.279 . S
C474 C472 1.348 . S
C474 C476 1.353 . S
C474 H516 0.929 . S
C475 C472 1.356 . S
C475 C477 1.358 . S
C475 H517 0.930 . S
C476 N473 1.314 . S
C476 C474 1.353 . S
C476 H518 0.930 . S
C477 N473 1.279 . S
C477 C475 1.358 . S
C477 H519 0.930 . S
C478 C479 1.346 1_554 S
C478 C480 1.357 . S
C478 O503 1.325 . S
C479 C478 1.346 1_556 S
C479 C481 1.353 . S
C479 H520 0.929 . S
C480 C478 1.357 . S
C480 C482 1.358 . S
C480 H521 0.930 . S
C481 C479 1.353 . S
C481 N483 1.314 . S
C481 H522 0.930 . S
C482 C480 1.358 . S
C482 N483 1.279 1_554 S
C482 H523 0.930 . S
N483 C481 1.314 . S
N483 C482 1.279 1_556 S
C484 C486 1.353 . S
C484 N487 1.314 1_554 S
C484 H490 0.930 . S
C485 N487 1.279 . S
C485 C488 1.358 . S
C485 H491 0.930 . S
C486 C484 1.353 . S
C486 C489 1.345 . S
C486 H524 0.929 . S
N487 Li442 1.991 . S
N487 C484 1.314 1_556 S
N487 C485 1.279 . S
C488 C485 1.358 . S
C488 C489 1.359 1_556 S
C488 H525 0.930 . S
C489 C486 1.345 . S
C489 C488 1.359 1_554 S
H490 C484 0.930 . S
H491 C485 0.930 . S
C492 N493 1.314 . S
C492 C494 1.353 . S
C492 H498 0.930 . S
N493 Li443 1.990 . S
N493 C492 1.314 . S
N493 C496 1.279 . S
C494 C492 1.353 . S
C494 C497 1.348 . S
C494 H526 0.929 . S
C495 C496 1.358 . S
C495 C497 1.356 . S
C495 H527 0.930 . S
C496 N493 1.279 . S
C496 C495 1.358 . S
C496 H499 0.930 . S
C497 C494 1.348 . S
C497 C495 1.356 . S
H498 C492 0.930 . S
H499 C496 0.930 . S
O500 Li440 1.956 . S
O500 Li441 1.970 . S
O500 Li442 1.938 1_554 S
O500 C444 1.325 . S
O501 Li440 1.969 1_556 S
O501 Li441 1.935 1_556 S
O501 Li443 1.981 . S
O501 C450 1.324 . S
O502 Li440 1.961 1_556 S
O502 Li442 1.978 . S
O502 Li443 1.970 . S
O502 C472 1.325 . S
O503 Li441 1.961 . S
O503 Li442 1.969 1_554 S
O503 Li443 1.956 1_554 S
O503 C478 1.325 . S
H504 C446 0.929 . S
H505 C447 0.930 . S
H506 C448 0.930 . S
H507 C449 0.930 . S
H508 C451 0.930 . S
H509 C453 0.929 . S
H510 C454 0.930 . S
H511 C455 0.930 . S
H512 C458 0.930 . S
H513 C461 0.929 . S
H514 C466 0.929 . S
H515 C467 0.930 . S
H516 C474 0.929 . S
H517 C475 0.930 . S
H518 C476 0.930 . S
H519 C477 0.930 . S
H520 C479 0.929 . S
H521 C480 0.930 . S
H522 C481 0.930 . S
H523 C482 0.930 . S
H524 C486 0.929 . S
H525 C488 0.930 . S
H526 C494 0.929 . S
H527 C495 0.930 . S
Li528 N545 1.990 . S
Li528 O588 1.935 1_554 S
Li528 O589 1.970 . S
Li528 O590 1.961 . S
Li529 N553 1.990 . S
Li529 O588 1.969 1_554 S
Li529 O589 1.956 . S
Li529 O591 1.961 1_554 S
Li530 N575 1.990 . S
Li530 O588 1.981 . S
Li530 O590 1.956 1_556 S
Li530 O591 1.970 . S
Li531 N581 1.991 . S
Li531 O589 1.938 1_556 S
Li531 O590 1.969 1_556 S
Li531 O591 1.978 . S
C532 C534 1.349 1_556 S
C532 C535 1.355 . S
C532 O588 1.324 . S
N533 C536 1.314 . S
N533 C537 1.279 1_554 S
C534 C532 1.349 1_554 S
C534 C536 1.353 . S
C534 H592 0.929 . S
C535 C532 1.355 . S
C535 C537 1.358 . S
C535 H593 0.930 . S
C536 N533 1.314 . S
C536 C534 1.353 . S
C536 H594 0.930 . S
C537 N533 1.279 1_556 S
C537 C535 1.358 . S
C537 H595 0.930 . S
C538 C541 1.348 . S
C538 C542 1.356 . S
C538 O589 1.325 . S
C539 N540 1.279 . S
C539 C542 1.358 . S
C539 H596 0.930 . S
N540 C539 1.279 . S
N540 C543 1.314 . S
C541 C538 1.348 . S
C541 C543 1.353 . S
C541 H597 0.929 . S
C542 C538 1.356 . S
C542 C539 1.358 . S
C542 H598 0.930 . S
C543 N540 1.314 . S
C543 C541 1.353 . S
C543 H599 0.930 . S
C544 N545 1.314 . S
C544 C549 1.353 . S
C544 H550 0.930 . S
N545 Li528 1.990 . S
N545 C544 1.314 . S
N545 C547 1.279 . S
C546 C547 1.358 . S
C546 C548 1.356 . S
C546 H600 0.930 . S
C547 N545 1.279 . S
C547 C546 1.358 . S
C547 H551 0.930 . S
C548 C546 1.356 . S
C548 C549 1.348 . S
C549 C544 1.353 . S
C549 C548 1.348 . S
C549 H601 0.929 . S
H550 C544 0.930 . S
H551 C547 0.930 . S
C552 N553 1.314 1_556 S
C552 C554 1.353 . S
C552 H558 0.930 . S
N553 Li529 1.990 . S
N553 C552 1.314 1_554 S
N553 C556 1.279 . S
C554 C552 1.353 . S
C554 C557 1.345 1_556 S
C554 H602 0.929 . S
C555 C556 1.358 . S
C555 C557 1.359 . S
C555 H603 0.930 . S
C556 N553 1.279 . S
C556 C555 1.358 . S
C556 H559 0.930 . S
C557 C554 1.345 1_554 S
C557 C555 1.359 . S
H558 C552 0.930 . S
H559 C556 0.930 . S
C560 C562 1.346 1_554 S
C560 C563 1.357 . S
C560 O590 1.325 . S
N561 C564 1.314 . S
N561 C565 1.279 1_556 S
C562 C560 1.346 1_556 S
C562 C564 1.353 . S
C562 H604 0.929 . S
C563 C560 1.357 . S
C563 C565 1.358 . S
C563 H605 0.930 . S
C564 N561 1.314 . S
C564 C562 1.353 . S
C564 H606 0.930 . S
C565 N561 1.279 1_554 S
C565 C563 1.358 . S
C565 H607 0.930 . S
C566 C567 1.348 . S
C566 C568 1.356 . S
C566 O591 1.325 . S
C567 C566 1.348 . S
C567 C569 1.353 . S
C567 H608 0.929 . S
C568 C566 1.356 . S
C568 C570 1.358 . S
C568 H609 0.930 . S
C569 C567 1.353 . S
C569 N571 1.314 . S
C569 H610 0.930 . S
C570 C568 1.358 . S
C570 N571 1.279 . S
C570 H611 0.930 . S
N571 C569 1.314 . S
N571 C570 1.279 . S
C572 C574 1.353 . S
C572 N575 1.314 . S
C572 H578 0.930 . S
C573 N575 1.279 . S
C573 C576 1.358 . S
C573 H579 0.930 . S
C574 C572 1.353 . S
C574 C577 1.348 . S
C574 H612 0.929 . S
N575 Li530 1.990 . S
N575 C572 1.314 . S
N575 C573 1.279 . S
C576 C573 1.358 . S
C576 C577 1.356 . S
C576 H613 0.930 . S
C577 C574 1.348 . S
C577 C576 1.356 . S
H578 C572 0.930 . S
H579 C573 0.930 . S
C580 N581 1.314 1_554 S
C580 C582 1.353 . S
C580 H586 0.930 . S
N581 Li531 1.991 . S
N581 C580 1.314 1_556 S
N581 C584 1.279 . S
C582 C580 1.353 . S
C582 C585 1.345 . S
C582 H614 0.929 . S
C583 C584 1.358 . S
C583 C585 1.359 1_556 S
C583 H615 0.930 . S
C584 N581 1.279 . S
C584 C583 1.358 . S
C584 H587 0.930 . S
C585 C582 1.345 . S
C585 C583 1.359 1_554 S
H586 C580 0.930 . S
H587 C584 0.930 . S
O588 Li528 1.935 1_556 S
O588 Li529 1.969 1_556 S
O588 Li530 1.981 . S
O588 C532 1.324 . S
O589 Li528 1.970 . S
O589 Li529 1.956 . S
O589 Li531 1.938 1_554 S
O589 C538 1.325 . S
O590 Li528 1.961 . S
O590 Li530 1.956 1_554 S
O590 Li531 1.969 1_554 S
O590 C560 1.325 . S
O591 Li529 1.961 1_556 S
O591 Li530 1.970 . S
O591 Li531 1.978 . S
O591 C566 1.325 . S
H592 C534 0.929 . S
H593 C535 0.930 . S
H594 C536 0.930 . S
H595 C537 0.930 . S
H596 C539 0.930 . S
H597 C541 0.929 . S
H598 C542 0.930 . S
H599 C543 0.930 . S
H600 C546 0.930 . S
H601 C549 0.929 . S
H602 C554 0.929 . S
H603 C555 0.930 . S
H604 C562 0.929 . S
H605 C563 0.930 . S
H606 C564 0.930 . S
H607 C565 0.930 . S
H608 C567 0.929 . S
H609 C568 0.930 . S
H610 C569 0.930 . S
H611 C570 0.930 . S
H612 C574 0.929 . S
H613 C576 0.930 . S
H614 C582 0.929 . S
H615 C583 0.930 . S
Li616 N633 1.990 . S
Li616 O676 1.935 1_554 S
Li616 O677 1.970 . S
Li616 O678 1.961 . S
Li617 N641 1.990 . S
Li617 O676 1.969 1_554 S
Li617 O677 1.956 . S
Li617 O679 1.961 1_554 S
Li618 N663 1.990 . S
Li618 O676 1.981 . S
Li618 O678 1.956 1_556 S
Li618 O679 1.970 . S
Li619 N669 1.991 . S
Li619 O677 1.938 1_556 S
Li619 O678 1.969 1_556 S
Li619 O679 1.978 . S
C620 C622 1.349 1_556 S
C620 C623 1.355 . S
C620 O676 1.324 . S
N621 C624 1.314 . S
N621 C625 1.279 1_554 S
C622 C620 1.349 1_554 S
C622 C624 1.353 . S
C622 H680 0.929 . S
C623 C620 1.355 . S
C623 C625 1.358 . S
C623 H681 0.930 . S
C624 N621 1.314 . S
C624 C622 1.353 . S
C624 H682 0.930 . S
C625 N621 1.279 1_556 S
C625 C623 1.358 . S
C625 H683 0.930 . S
C626 C629 1.348 . S
C626 C630 1.356 . S
C626 O677 1.325 . S
C627 N628 1.279 . S
C627 C630 1.358 . S
C627 H684 0.930 . S
N628 C627 1.279 . S
N628 C631 1.314 . S
C629 C626 1.348 . S
C629 C631 1.353 . S
C629 H685 0.929 . S
C630 C626 1.356 . S
C630 C627 1.358 . S
C630 H686 0.930 . S
C631 N628 1.314 . S
C631 C629 1.353 . S
C631 H687 0.930 . S
C632 N633 1.314 . S
C632 C637 1.353 . S
C632 H638 0.930 . S
N633 Li616 1.990 . S
N633 C632 1.314 . S
N633 C635 1.279 . S
C634 C635 1.358 . S
C634 C636 1.356 . S
C634 H688 0.930 . S
C635 N633 1.279 . S
C635 C634 1.358 . S
C635 H639 0.930 . S
C636 C634 1.356 . S
C636 C637 1.348 . S
C637 C632 1.353 . S
C637 C636 1.348 . S
C637 H689 0.929 . S
H638 C632 0.930 . S
H639 C635 0.930 . S
C640 N641 1.314 1_556 S
C640 C642 1.353 . S
C640 H646 0.930 . S
N641 Li617 1.990 . S
N641 C640 1.314 1_554 S
N641 C644 1.279 . S
C642 C640 1.353 . S
C642 C645 1.345 1_556 S
C642 H690 0.929 . S
C643 C644 1.358 . S
C643 C645 1.359 . S
C643 H691 0.930 . S
C644 N641 1.279 . S
C644 C643 1.358 . S
C644 H647 0.930 . S
C645 C642 1.345 1_554 S
C645 C643 1.359 . S
H646 C640 0.930 . S
H647 C644 0.930 . S
C648 C650 1.346 1_554 S
C648 C651 1.357 . S
C648 O678 1.325 . S
N649 C652 1.314 . S
N649 C653 1.279 1_556 S
C650 C648 1.346 1_556 S
C650 C652 1.353 . S
C650 H692 0.929 . S
C651 C648 1.357 . S
C651 C653 1.358 . S
C651 H693 0.930 . S
C652 N649 1.314 . S
C652 C650 1.353 . S
C652 H694 0.930 . S
C653 N649 1.279 1_554 S
C653 C651 1.358 . S
C653 H695 0.930 . S
C654 C655 1.348 . S
C654 C656 1.356 . S
C654 O679 1.325 . S
C655 C654 1.348 . S
C655 C657 1.353 . S
C655 H696 0.929 . S
C656 C654 1.356 . S
C656 C658 1.358 . S
C656 H697 0.930 . S
C657 C655 1.353 . S
C657 N659 1.314 . S
C657 H698 0.930 . S
C658 C656 1.358 . S
C658 N659 1.279 . S
C658 H699 0.930 . S
N659 C657 1.314 . S
N659 C658 1.279 . S
C660 C662 1.353 . S
C660 N663 1.314 . S
C660 H666 0.930 . S
C661 N663 1.279 . S
C661 C664 1.358 . S
C661 H667 0.930 . S
C662 C660 1.353 . S
C662 C665 1.348 . S
C662 H700 0.929 . S
N663 Li618 1.990 . S
N663 C660 1.314 . S
N663 C661 1.279 . S
C664 C661 1.358 . S
C664 C665 1.356 . S
C664 H701 0.930 . S
C665 C662 1.348 . S
C665 C664 1.356 . S
H666 C660 0.930 . S
H667 C661 0.930 . S
C668 N669 1.314 1_554 S
C668 C670 1.353 . S
C668 H674 0.930 . S
N669 Li619 1.991 . S
N669 C668 1.314 1_556 S
N669 C672 1.279 . S
C670 C668 1.353 . S
C670 C673 1.345 . S
C670 H702 0.929 . S
C671 C672 1.358 . S
C671 C673 1.359 1_556 S
C671 H703 0.930 . S
C672 N669 1.279 . S
C672 C671 1.358 . S
C672 H675 0.930 . S
C673 C670 1.345 . S
C673 C671 1.359 1_554 S
H674 C668 0.930 . S
H675 C672 0.930 . S
O676 Li616 1.935 1_556 S
O676 Li617 1.969 1_556 S
O676 Li618 1.981 . S
O676 C620 1.324 . S
O677 Li616 1.970 . S
O677 Li617 1.956 . S
O677 Li619 1.938 1_554 S
O677 C626 1.325 . S
O678 Li616 1.961 . S
O678 Li618 1.956 1_554 S
O678 Li619 1.969 1_554 S
O678 C648 1.325 . S
O679 Li617 1.961 1_556 S
O679 Li618 1.970 . S
O679 Li619 1.978 . S
O679 C654 1.325 . S
H680 C622 0.929 . S
H681 C623 0.930 . S
H682 C624 0.930 . S
H683 C625 0.930 . S
H684 C627 0.930 . S
H685 C629 0.929 . S
H686 C630 0.930 . S
H687 C631 0.930 . S
H688 C634 0.930 . S
H689 C637 0.929 . S
H690 C642 0.929 . S
H691 C643 0.930 . S
H692 C650 0.929 . S
H693 C651 0.930 . S
H694 C652 0.930 . S
H695 C653 0.930 . S
H696 C655 0.929 . S
H697 C656 0.930 . S
H698 C657 0.930 . S
H699 C658 0.930 . S
H700 C662 0.929 . S
H701 C664 0.930 . S
H702 C670 0.929 . S
H703 C671 0.930 . S
Li704 N721 1.990 . S
Li704 O764 1.956 . S
Li704 O765 1.970 . S
Li704 O766 1.961 . S
Li705 N729 1.990 . S
Li705 O764 1.970 . S
Li705 O765 1.956 . S
Li705 O767 1.961 . S
Li706 N751 1.990 . S
Li706 O764 1.961 . S
Li706 O766 1.956 . S
Li706 O767 1.970 . S
Li707 N757 1.990 . S
Li707 O765 1.961 . S
Li707 O766 1.970 . S
Li707 O767 1.956 . S
C708 C710 1.348 . S
C708 C711 1.356 . S
C708 O764 1.325 . S
N709 C712 1.314 . S
N709 C713 1.279 . S
C710 C708 1.348 . S
C710 C712 1.353 . S
C710 H768 0.929 . S
C711 C708 1.356 . S
C711 C713 1.358 . S
C711 H769 0.930 . S
C712 N709 1.314 . S
C712 C710 1.353 . S
C712 H770 0.930 . S
C713 N709 1.279 . S
C713 C711 1.358 . S
C713 H771 0.930 . S
C714 C717 1.348 . S
C714 C718 1.356 . S
C714 O765 1.325 . S
C715 N716 1.279 . S
C715 C718 1.358 . S
C715 H772 0.930 . S
N716 C715 1.279 . S
N716 C719 1.314 . S
C717 C714 1.348 . S
C717 C719 1.353 . S
C717 H773 0.929 . S
C718 C714 1.356 . S
C718 C715 1.358 . S
C718 H774 0.930 . S
C719 N716 1.314 . S
C719 C717 1.353 . S
C719 H775 0.930 . S
C720 N721 1.314 . S
C720 C725 1.353 . S
C720 H726 0.930 . S
N721 Li704 1.990 . S
N721 C720 1.314 . S
N721 C723 1.279 . S
C722 C723 1.358 . S
C722 C724 1.356 . S
C722 H776 0.930 . S
C723 N721 1.279 . S
C723 C722 1.358 . S
C723 H727 0.930 . S
C724 C722 1.356 . S
C724 C725 1.348 . S
C725 C720 1.353 . S
C725 C724 1.348 . S
C725 H777 0.929 . S
H726 C720 0.930 . S
H727 C723 0.930 . S
C728 N729 1.314 . S
C728 C730 1.353 . S
C728 H734 0.930 . S
N729 Li705 1.990 . S
N729 C728 1.314 . S
N729 C732 1.279 . S
C730 C728 1.353 . S
C730 C733 1.348 . S
C730 H778 0.929 . S
C731 C732 1.358 . S
C731 C733 1.356 . S
C731 H779 0.930 . S
C732 N729 1.279 . S
C732 C731 1.358 . S
C732 H735 0.930 . S
C733 C730 1.348 . S
C733 C731 1.356 . S
H734 C728 0.930 . S
H735 C732 0.930 . S
C736 C738 1.348 . S
C736 C739 1.356 . S
C736 O766 1.325 . S
N737 C740 1.314 . S
N737 C741 1.279 . S
C738 C736 1.348 . S
C738 C740 1.353 . S
C738 H780 0.929 . S
C739 C736 1.356 . S
C739 C741 1.358 . S
C739 H781 0.930 . S
C740 N737 1.314 . S
C740 C738 1.353 . S
C740 H782 0.930 . S
C741 N737 1.279 . S
C741 C739 1.358 . S
C741 H783 0.930 . S
C742 C743 1.348 . S
C742 C744 1.356 . S
C742 O767 1.325 . S
C743 C742 1.348 . S
C743 C745 1.353 . S
C743 H784 0.929 . S
C744 C742 1.356 . S
C744 C746 1.358 . S
C744 H785 0.930 . S
C745 C743 1.353 . S
C745 N747 1.314 . S
C745 H786 0.930 . S
C746 C744 1.358 . S
C746 N747 1.279 . S
C746 H787 0.930 . S
N747 C745 1.314 . S
N747 C746 1.279 . S
C748 C750 1.353 . S
C748 N751 1.314 . S
C748 H754 0.930 . S
C749 N751 1.279 . S
C749 C752 1.358 . S
C749 H755 0.930 . S
C750 C748 1.353 . S
C750 C753 1.348 . S
C750 H788 0.929 . S
N751 Li706 1.990 . S
N751 C748 1.314 . S
N751 C749 1.279 . S
C752 C749 1.358 . S
C752 C753 1.356 . S
C752 H789 0.930 . S
C753 C750 1.348 . S
C753 C752 1.356 . S
H754 C748 0.930 . S
H755 C749 0.930 . S
C756 N757 1.314 . S
C756 C758 1.353 . S
C756 H762 0.930 . S
N757 Li707 1.990 . S
N757 C756 1.314 . S
N757 C760 1.279 . S
C758 C756 1.353 . S
C758 C761 1.348 . S
C758 H790 0.929 . S
C759 C760 1.358 . S
C759 C761 1.356 . S
C759 H791 0.930 . S
C760 N757 1.279 . S
C760 C759 1.358 . S
C760 H763 0.930 . S
C761 C758 1.348 . S
C761 C759 1.356 . S
H762 C756 0.930 . S
H763 C760 0.930 . S
O764 Li704 1.956 . S
O764 Li705 1.970 . S
O764 Li706 1.961 . S
O764 C708 1.325 . S
O765 Li704 1.970 . S
O765 Li705 1.956 . S
O765 Li707 1.961 . S
O765 C714 1.325 . S
O766 Li704 1.961 . S
O766 Li706 1.956 . S
O766 Li707 1.970 . S
O766 C736 1.325 . S
O767 Li705 1.961 . S
O767 Li706 1.970 . S
O767 Li707 1.956 . S
O767 C742 1.325 . S
H768 C710 0.929 . S
H769 C711 0.930 . S
H770 C712 0.930 . S
H771 C713 0.930 . S
H772 C715 0.930 . S
H773 C717 0.929 . S
H774 C718 0.930 . S
H775 C719 0.930 . S
H776 C722 0.930 . S
H777 C725 0.929 . S
H778 C730 0.929 . S
H779 C731 0.930 . S
H780 C738 0.929 . S
H781 C739 0.930 . S
H782 C740 0.930 . S
H783 C741 0.930 . S
H784 C743 0.929 . S
H785 C744 0.930 . S
H786 C745 0.930 . S
H787 C746 0.930 . S
H788 C750 0.929 . S
H789 C752 0.930 . S
H790 C758 0.929 . S
H791 C759 0.930 . S
Li792 N809 1.990 . S
Li792 O852 1.956 . S
Li792 O853 1.970 . S
Li792 O854 1.961 . S
Li793 N817 1.990 . S
Li793 O852 1.970 . S
Li793 O853 1.956 . S
Li793 O855 1.961 . S
Li794 N839 1.990 . S
Li794 O852 1.961 . S
Li794 O854 1.956 . S
Li794 O855 1.970 . S
Li795 N845 1.990 . S
Li795 O853 1.961 . S
Li795 O854 1.970 . S
Li795 O855 1.956 . S
C796 C798 1.348 . S
C796 C799 1.356 . S
C796 O852 1.325 . S
N797 C800 1.314 . S
N797 C801 1.279 . S
C798 C796 1.348 . S
C798 C800 1.353 . S
C798 H856 0.929 . S
C799 C796 1.356 . S
C799 C801 1.358 . S
C799 H857 0.930 . S
C800 N797 1.314 . S
C800 C798 1.353 . S
C800 H858 0.930 . S
C801 N797 1.279 . S
C801 C799 1.358 . S
C801 H859 0.930 . S
C802 C805 1.348 . S
C802 C806 1.356 . S
C802 O853 1.325 . S
C803 N804 1.279 . S
C803 C806 1.358 . S
C803 H860 0.930 . S
N804 C803 1.279 . S
N804 C807 1.314 . S
C805 C802 1.348 . S
C805 C807 1.353 . S
C805 H861 0.929 . S
C806 C802 1.356 . S
C806 C803 1.358 . S
C806 H862 0.930 . S
C807 N804 1.314 . S
C807 C805 1.353 . S
C807 H863 0.930 . S
C808 N809 1.314 . S
C808 C813 1.353 . S
C808 H814 0.930 . S
N809 Li792 1.990 . S
N809 C808 1.314 . S
N809 C811 1.279 . S
C810 C811 1.358 . S
C810 C812 1.356 . S
C810 H864 0.930 . S
C811 N809 1.279 . S
C811 C810 1.358 . S
C811 H815 0.930 . S
C812 C810 1.356 . S
C812 C813 1.348 . S
C813 C808 1.353 . S
C813 C812 1.348 . S
C813 H865 0.929 . S
H814 C808 0.930 . S
H815 C811 0.930 . S
C816 N817 1.314 . S
C816 C818 1.353 . S
C816 H822 0.930 . S
N817 Li793 1.990 . S
N817 C816 1.314 . S
N817 C820 1.279 . S
C818 C816 1.353 . S
C818 C821 1.348 . S
C818 H866 0.929 . S
C819 C820 1.358 . S
C819 C821 1.356 . S
C819 H867 0.930 . S
C820 N817 1.279 . S
C820 C819 1.358 . S
C820 H823 0.930 . S
C821 C818 1.348 . S
C821 C819 1.356 . S
H822 C816 0.930 . S
H823 C820 0.930 . S
C824 C826 1.348 . S
C824 C827 1.356 . S
C824 O854 1.325 . S
N825 C828 1.314 . S
N825 C829 1.279 . S
C826 C824 1.348 . S
C826 C828 1.353 . S
C826 H868 0.929 . S
C827 C824 1.356 . S
C827 C829 1.358 . S
C827 H869 0.930 . S
C828 N825 1.314 . S
C828 C826 1.353 . S
C828 H870 0.930 . S
C829 N825 1.279 . S
C829 C827 1.358 . S
C829 H871 0.930 . S
C830 C831 1.348 . S
C830 C832 1.356 . S
C830 O855 1.325 . S
C831 C830 1.348 . S
C831 C833 1.353 . S
C831 H872 0.929 . S
C832 C830 1.356 . S
C832 C834 1.358 . S
C832 H873 0.930 . S
C833 C831 1.353 . S
C833 N835 1.314 . S
C833 H874 0.930 . S
C834 C832 1.358 . S
C834 N835 1.279 . S
C834 H875 0.930 . S
N835 C833 1.314 . S
N835 C834 1.279 . S
C836 C838 1.353 . S
C836 N839 1.314 . S
C836 H842 0.930 . S
C837 N839 1.279 . S
C837 C840 1.358 . S
C837 H843 0.930 . S
C838 C836 1.353 . S
C838 C841 1.348 . S
C838 H876 0.929 . S
N839 Li794 1.990 . S
N839 C836 1.314 . S
N839 C837 1.279 . S
C840 C837 1.358 . S
C840 C841 1.356 . S
C840 H877 0.930 . S
C841 C838 1.348 . S
C841 C840 1.356 . S
H842 C836 0.930 . S
H843 C837 0.930 . S
C844 N845 1.314 . S
C844 C846 1.353 . S
C844 H850 0.930 . S
N845 Li795 1.990 . S
N845 C844 1.314 . S
N845 C848 1.279 . S
C846 C844 1.353 . S
C846 C849 1.348 . S
C846 H878 0.929 . S
C847 C848 1.358 . S
C847 C849 1.356 . S
C847 H879 0.930 . S
C848 N845 1.279 . S
C848 C847 1.358 . S
C848 H851 0.930 . S
C849 C846 1.348 . S
C849 C847 1.356 . S
H850 C844 0.930 . S
H851 C848 0.930 . S
O852 Li792 1.956 . S
O852 Li793 1.970 . S
O852 Li794 1.961 . S
O852 C796 1.325 . S
O853 Li792 1.970 . S
O853 Li793 1.956 . S
O853 Li795 1.961 . S
O853 C802 1.325 . S
O854 Li792 1.961 . S
O854 Li794 1.956 . S
O854 Li795 1.970 . S
O854 C824 1.325 . S
O855 Li793 1.961 . S
O855 Li794 1.970 . S
O855 Li795 1.956 . S
O855 C830 1.325 . S
H856 C798 0.929 . S
H857 C799 0.930 . S
H858 C800 0.930 . S
H859 C801 0.930 . S
H860 C803 0.930 . S
H861 C805 0.929 . S
H862 C806 0.930 . S
H863 C807 0.930 . S
H864 C810 0.930 . S
H865 C813 0.929 . S
H866 C818 0.929 . S
H867 C819 0.930 . S
H868 C826 0.929 . S
H869 C827 0.930 . S
H870 C828 0.930 . S
H871 C829 0.930 . S
H872 C831 0.929 . S
H873 C832 0.930 . S
H874 C833 0.930 . S
H875 C834 0.930 . S
H876 C838 0.929 . S
H877 C840 0.930 . S
H878 C846 0.929 . S
H879 C847 0.930 . S
Li880 N897 1.990 . S
Li880 O940 1.956 . S
Li880 O941 1.970 . S
Li880 O942 1.961 . S
Li881 N905 1.990 . S
Li881 O940 1.970 . S
Li881 O941 1.956 . S
Li881 O943 1.961 . S
Li882 N927 1.990 . S
Li882 O940 1.961 . S
Li882 O942 1.956 . S
Li882 O943 1.970 . S
Li883 N933 1.990 . S
Li883 O941 1.961 . S
Li883 O942 1.970 . S
Li883 O943 1.956 . S
C884 C886 1.348 . S
C884 C887 1.356 . S
C884 O940 1.325 . S
N885 C888 1.314 . S
N885 C889 1.279 . S
C886 C884 1.348 . S
C886 C888 1.353 . S
C886 H944 0.929 . S
C887 C884 1.356 . S
C887 C889 1.358 . S
C887 H945 0.930 . S
C888 N885 1.314 . S
C888 C886 1.353 . S
C888 H946 0.930 . S
C889 N885 1.279 . S
C889 C887 1.358 . S
C889 H947 0.930 . S
C890 C893 1.348 . S
C890 C894 1.356 . S
C890 O941 1.325 . S
C891 N892 1.279 . S
C891 C894 1.358 . S
C891 H948 0.930 . S
N892 C891 1.279 . S
N892 C895 1.314 . S
C893 C890 1.348 . S
C893 C895 1.353 . S
C893 H949 0.929 . S
C894 C890 1.356 . S
C894 C891 1.358 . S
C894 H950 0.930 . S
C895 N892 1.314 . S
C895 C893 1.353 . S
C895 H951 0.930 . S
C896 N897 1.314 . S
C896 C901 1.353 . S
C896 H902 0.930 . S
N897 Li880 1.990 . S
N897 C896 1.314 . S
N897 C899 1.279 . S
C898 C899 1.358 . S
C898 C900 1.356 . S
C898 H952 0.930 . S
C899 N897 1.279 . S
C899 C898 1.358 . S
C899 H903 0.930 . S
C900 C898 1.356 . S
C900 C901 1.348 . S
C901 C896 1.353 . S
C901 C900 1.348 . S
C901 H953 0.929 . S
H902 C896 0.930 . S
H903 C899 0.930 . S
C904 N905 1.314 . S
C904 C906 1.353 . S
C904 H910 0.930 . S
N905 Li881 1.990 . S
N905 C904 1.314 . S
N905 C908 1.279 . S
C906 C904 1.353 . S
C906 C909 1.348 . S
C906 H954 0.929 . S
C907 C908 1.358 . S
C907 C909 1.356 . S
C907 H955 0.930 . S
C908 N905 1.279 . S
C908 C907 1.358 . S
C908 H911 0.930 . S
C909 C906 1.348 . S
C909 C907 1.356 . S
H910 C904 0.930 . S
H911 C908 0.930 . S
C912 C914 1.348 . S
C912 C915 1.356 . S
C912 O942 1.325 . S
N913 C916 1.314 . S
N913 C917 1.279 . S
C914 C912 1.348 . S
C914 C916 1.353 . S
C914 H956 0.929 . S
C915 C912 1.356 . S
C915 C917 1.358 . S
C915 H957 0.930 . S
C916 N913 1.314 . S
C916 C914 1.353 . S
C916 H958 0.930 . S
C917 N913 1.279 . S
C917 C915 1.358 . S
C917 H959 0.930 . S
C918 C919 1.348 . S
C918 C920 1.356 . S
C918 O943 1.325 . S
C919 C918 1.348 . S
C919 C921 1.353 . S
C919 H960 0.929 . S
C920 C918 1.356 . S
C920 C922 1.358 . S
C920 H961 0.930 . S
C921 C919 1.353 . S
C921 N923 1.314 . S
C921 H962 0.930 . S
C922 C920 1.358 . S
C922 N923 1.279 . S
C922 H963 0.930 . S
N923 C921 1.314 . S
N923 C922 1.279 . S
C924 C926 1.353 . S
C924 N927 1.314 . S
C924 H930 0.930 . S
C925 N927 1.279 . S
C925 C928 1.358 . S
C925 H931 0.930 . S
C926 C924 1.353 . S
C926 C929 1.348 . S
C926 H964 0.929 . S
N927 Li882 1.990 . S
N927 C924 1.314 . S
N927 C925 1.279 . S
C928 C925 1.358 . S
C928 C929 1.356 . S
C928 H965 0.930 . S
C929 C926 1.348 . S
C929 C928 1.356 . S
H930 C924 0.930 . S
H931 C925 0.930 . S
C932 N933 1.314 . S
C932 C934 1.353 . S
C932 H938 0.930 . S
N933 Li883 1.990 . S
N933 C932 1.314 . S
N933 C936 1.279 . S
C934 C932 1.353 . S
C934 C937 1.348 . S
C934 H966 0.929 . S
C935 C936 1.358 . S
C935 C937 1.356 . S
C935 H967 0.930 . S
C936 N933 1.279 . S
C936 C935 1.358 . S
C936 H939 0.930 . S
C937 C934 1.348 . S
C937 C935 1.356 . S
H938 C932 0.930 . S
H939 C936 0.930 . S
O940 Li880 1.956 . S
O940 Li881 1.970 . S
O940 Li882 1.961 . S
O940 C884 1.325 . S
O941 Li880 1.970 . S
O941 Li881 1.956 . S
O941 Li883 1.961 . S
O941 C890 1.325 . S
O942 Li880 1.961 . S
O942 Li882 1.956 . S
O942 Li883 1.970 . S
O942 C912 1.325 . S
O943 Li881 1.961 . S
O943 Li882 1.970 . S
O943 Li883 1.956 . S
O943 C918 1.325 . S
H944 C886 0.929 . S
H945 C887 0.930 . S
H946 C888 0.930 . S
H947 C889 0.930 . S
H948 C891 0.930 . S
H949 C893 0.929 . S
H950 C894 0.930 . S
H951 C895 0.930 . S
H952 C898 0.930 . S
H953 C901 0.929 . S
H954 C906 0.929 . S
H955 C907 0.930 . S
H956 C914 0.929 . S
H957 C915 0.930 . S
H958 C916 0.930 . S
H959 C917 0.930 . S
H960 C919 0.929 . S
H961 C920 0.930 . S
H962 C921 0.930 . S
H963 C922 0.930 . S
H964 C926 0.929 . S
H965 C928 0.930 . S
H966 C934 0.929 . S
H967 C935 0.930 . S
Li968 N985 1.990 . S
Li968 O1028 1.956 . S
Li968 O1029 1.970 . S
Li968 O1030 1.961 . S
Li969 N993 1.990 . S
Li969 O1028 1.970 . S
Li969 O1029 1.956 . S
Li969 O1031 1.961 . S
Li970 N1015 1.990 . S
Li970 O1028 1.961 . S
Li970 O1030 1.956 . S
Li970 O1031 1.970 . S
Li971 N1021 1.990 . S
Li971 O1029 1.961 . S
Li971 O1030 1.970 . S
Li971 O1031 1.956 . S
C972 C974 1.348 . S
C972 C975 1.356 . S
C972 O1028 1.325 . S
N973 C976 1.314 . S
N973 C977 1.279 . S
C974 C972 1.348 . S
C974 C976 1.353 . S
C974 H1032 0.929 . S
C975 C972 1.356 . S
C975 C977 1.358 . S
C975 H1033 0.930 . S
C976 N973 1.314 . S
C976 C974 1.353 . S
C976 H1034 0.930 . S
C977 N973 1.279 . S
C977 C975 1.358 . S
C977 H1035 0.930 . S
C978 C981 1.348 . S
C978 C982 1.356 . S
C978 O1029 1.325 . S
C979 N980 1.279 . S
C979 C982 1.358 . S
C979 H1036 0.930 . S
N980 C979 1.279 . S
N980 C983 1.314 . S
C981 C978 1.348 . S
C981 C983 1.353 . S
C981 H1037 0.929 . S
C982 C978 1.356 . S
C982 C979 1.358 . S
C982 H1038 0.930 . S
C983 N980 1.314 . S
C983 C981 1.353 . S
C983 H1039 0.930 . S
C984 N985 1.314 . S
C984 C989 1.353 . S
C984 H990 0.930 . S
N985 Li968 1.990 . S
N985 C984 1.314 . S
N985 C987 1.279 . S
C986 C987 1.358 . S
C986 C988 1.356 . S
C986 H1040 0.930 . S
C987 N985 1.279 . S
C987 C986 1.358 . S
C987 H991 0.930 . S
C988 C986 1.356 . S
C988 C989 1.348 . S
C989 C984 1.353 . S
C989 C988 1.348 . S
C989 H1041 0.929 . S
H990 C984 0.930 . S
H991 C987 0.930 . S
C992 N993 1.314 . S
C992 C994 1.353 . S
C992 H998 0.930 . S
N993 Li969 1.990 . S
N993 C992 1.314 . S
N993 C996 1.279 . S
C994 C992 1.353 . S
C994 C997 1.348 . S
C994 H1042 0.929 . S
C995 C996 1.358 . S
C995 C997 1.356 . S
C995 H1043 0.930 . S
C996 N993 1.279 . S
C996 C995 1.358 . S
C996 H999 0.930 . S
C997 C994 1.348 . S
C997 C995 1.356 . S
H998 C992 0.930 . S
H999 C996 0.930 . S
C1000 C1002 1.348 . S
C1000 C1003 1.356 . S
C1000 O1030 1.325 . S
N1001 C1004 1.314 . S
N1001 C1005 1.279 . S
C1002 C1000 1.348 . S
C1002 C1004 1.353 . S
C1002 H1044 0.929 . S
C1003 C1000 1.356 . S
C1003 C1005 1.358 . S
C1003 H1045 0.930 . S
C1004 N1001 1.314 . S
C1004 C1002 1.353 . S
C1004 H1046 0.930 . S
C1005 N1001 1.279 . S
C1005 C1003 1.358 . S
C1005 H1047 0.930 . S
C1006 C1007 1.348 . S
C1006 C1008 1.356 . S
C1006 O1031 1.325 . S
C1007 C1006 1.348 . S
C1007 C1009 1.353 . S
C1007 H1048 0.929 . S
C1008 C1006 1.356 . S
C1008 C1010 1.358 . S
C1008 H1049 0.930 . S
C1009 C1007 1.353 . S
C1009 N1011 1.314 . S
C1009 H1050 0.930 . S
C1010 C1008 1.358 . S
C1010 N1011 1.279 . S
C1010 H1051 0.930 . S
N1011 C1009 1.314 . S
N1011 C1010 1.279 . S
C1012 C1014 1.353 . S
C1012 N1015 1.314 . S
C1012 H1018 0.930 . S
C1013 N1015 1.279 . S
C1013 C1016 1.358 . S
C1013 H1019 0.930 . S
C1014 C1012 1.353 . S
C1014 C1017 1.348 . S
C1014 H1052 0.929 . S
N1015 Li970 1.990 . S
N1015 C1012 1.314 . S
N1015 C1013 1.279 . S
C1016 C1013 1.358 . S
C1016 C1017 1.356 . S
C1016 H1053 0.930 . S
C1017 C1014 1.348 . S
C1017 C1016 1.356 . S
H1018 C1012 0.930 . S
H1019 C1013 0.930 . S
C1020 N1021 1.314 . S
C1020 C1022 1.353 . S
C1020 H1026 0.930 . S
N1021 Li971 1.990 . S
N1021 C1020 1.314 . S
N1021 C1024 1.279 . S
C1022 C1020 1.353 . S
C1022 C1025 1.348 . S
C1022 H1054 0.929 . S
C1023 C1024 1.358 . S
C1023 C1025 1.356 . S
C1023 H1055 0.930 . S
C1024 N1021 1.279 . S
C1024 C1023 1.358 . S
C1024 H1027 0.930 . S
C1025 C1022 1.348 . S
C1025 C1023 1.356 . S
H1026 C1020 0.930 . S
H1027 C1024 0.930 . S
O1028 Li968 1.956 . S
O1028 Li969 1.970 . S
O1028 Li970 1.961 . S
O1028 C972 1.325 . S
O1029 Li968 1.970 . S
O1029 Li969 1.956 . S
O1029 Li971 1.961 . S
O1029 C978 1.325 . S
O1030 Li968 1.961 . S
O1030 Li970 1.956 . S
O1030 Li971 1.970 . S
O1030 C1000 1.325 . S
O1031 Li969 1.961 . S
O1031 Li970 1.970 . S
O1031 Li971 1.956 . S
O1031 C1006 1.325 . S
H1032 C974 0.929 . S
H1033 C975 0.930 . S
H1034 C976 0.930 . S
H1035 C977 0.930 . S
H1036 C979 0.930 . S
H1037 C981 0.929 . S
H1038 C982 0.930 . S
H1039 C983 0.930 . S
H1040 C986 0.930 . S
H1041 C989 0.929 . S
H1042 C994 0.929 . S
H1043 C995 0.930 . S
H1044 C1002 0.929 . S
H1045 C1003 0.930 . S
H1046 C1004 0.930 . S
H1047 C1005 0.930 . S
H1048 C1007 0.929 . S
H1049 C1008 0.930 . S
H1050 C1009 0.930 . S
H1051 C1010 0.930 . S
H1052 C1014 0.929 . S
H1053 C1016 0.930 . S
H1054 C1022 0.929 . S
H1055 C1023 0.930 . S
Li1056 N1073 1.990 . S
Li1056 O1116 1.956 . S
Li1056 O1117 1.970 . S
Li1056 O1118 1.961 . S
Li1057 N1081 1.990 . S
Li1057 O1116 1.970 . S
Li1057 O1117 1.956 . S
Li1057 O1119 1.961 . S
Li1058 N1103 1.990 . S
Li1058 O1116 1.961 . S
Li1058 O1118 1.956 . S
Li1058 O1119 1.970 . S
Li1059 N1109 1.990 . S
Li1059 O1117 1.961 . S
Li1059 O1118 1.970 . S
Li1059 O1119 1.956 . S
C1060 C1062 1.348 . S
C1060 C1063 1.356 . S
C1060 O1116 1.325 . S
N1061 C1064 1.314 . S
N1061 C1065 1.279 . S
C1062 C1060 1.348 . S
C1062 C1064 1.353 . S
C1062 H1120 0.929 . S
C1063 C1060 1.356 . S
C1063 C1065 1.358 . S
C1063 H1121 0.930 . S
C1064 N1061 1.314 . S
C1064 C1062 1.353 . S
C1064 H1122 0.930 . S
C1065 N1061 1.279 . S
C1065 C1063 1.358 . S
C1065 H1123 0.930 . S
C1066 C1069 1.348 . S
C1066 C1070 1.356 . S
C1066 O1117 1.325 . S
C1067 N1068 1.279 . S
C1067 C1070 1.358 . S
C1067 H1124 0.930 . S
N1068 C1067 1.279 . S
N1068 C1071 1.314 . S
C1069 C1066 1.348 . S
C1069 C1071 1.353 . S
C1069 H1125 0.929 . S
C1070 C1066 1.356 . S
C1070 C1067 1.358 . S
C1070 H1126 0.930 . S
C1071 N1068 1.314 . S
C1071 C1069 1.353 . S
C1071 H1127 0.930 . S
C1072 N1073 1.314 . S
C1072 C1077 1.353 . S
C1072 H1078 0.930 . S
N1073 Li1056 1.990 . S
N1073 C1072 1.314 . S
N1073 C1075 1.279 . S
C1074 C1075 1.358 . S
C1074 C1076 1.356 . S
C1074 H1128 0.930 . S
C1075 N1073 1.279 . S
C1075 C1074 1.358 . S
C1075 H1079 0.930 . S
C1076 C1074 1.356 . S
C1076 C1077 1.348 . S
C1077 C1072 1.353 . S
C1077 C1076 1.348 . S
C1077 H1129 0.929 . S
H1078 C1072 0.930 . S
H1079 C1075 0.930 . S
C1080 N1081 1.314 . S
C1080 C1082 1.353 . S
C1080 H1086 0.930 . S
N1081 Li1057 1.990 . S
N1081 C1080 1.314 . S
N1081 C1084 1.279 . S
C1082 C1080 1.353 . S
C1082 C1085 1.348 . S
C1082 H1130 0.929 . S
C1083 C1084 1.358 . S
C1083 C1085 1.356 . S
C1083 H1131 0.930 . S
C1084 N1081 1.279 . S
C1084 C1083 1.358 . S
C1084 H1087 0.930 . S
C1085 C1082 1.348 . S
C1085 C1083 1.356 . S
H1086 C1080 0.930 . S
H1087 C1084 0.930 . S
C1088 C1090 1.348 . S
C1088 C1091 1.356 . S
C1088 O1118 1.325 . S
N1089 C1092 1.314 . S
N1089 C1093 1.279 . S
C1090 C1088 1.348 . S
C1090 C1092 1.353 . S
C1090 H1132 0.929 . S
C1091 C1088 1.356 . S
C1091 C1093 1.358 . S
C1091 H1133 0.930 . S
C1092 N1089 1.314 . S
C1092 C1090 1.353 . S
C1092 H1134 0.930 . S
C1093 N1089 1.279 . S
C1093 C1091 1.358 . S
C1093 H1135 0.930 . S
C1094 C1095 1.348 . S
C1094 C1096 1.356 . S
C1094 O1119 1.325 . S
C1095 C1094 1.348 . S
C1095 C1097 1.353 . S
C1095 H1136 0.929 . S
C1096 C1094 1.356 . S
C1096 C1098 1.358 . S
C1096 H1137 0.930 . S
C1097 C1095 1.353 . S
C1097 N1099 1.314 . S
C1097 H1138 0.930 . S
C1098 C1096 1.358 . S
C1098 N1099 1.279 . S
C1098 H1139 0.930 . S
N1099 C1097 1.314 . S
N1099 C1098 1.279 . S
C1100 C1102 1.353 . S
C1100 N1103 1.314 . S
C1100 H1106 0.930 . S
C1101 N1103 1.279 . S
C1101 C1104 1.358 . S
C1101 H1107 0.930 . S
C1102 C1100 1.353 . S
C1102 C1105 1.348 . S
C1102 H1140 0.929 . S
N1103 Li1058 1.990 . S
N1103 C1100 1.314 . S
N1103 C1101 1.279 . S
C1104 C1101 1.358 . S
C1104 C1105 1.356 . S
C1104 H1141 0.930 . S
C1105 C1102 1.348 . S
C1105 C1104 1.356 . S
H1106 C1100 0.930 . S
H1107 C1101 0.930 . S
C1108 N1109 1.314 . S
C1108 C1110 1.353 . S
C1108 H1114 0.930 . S
N1109 Li1059 1.990 . S
N1109 C1108 1.314 . S
N1109 C1112 1.279 . S
C1110 C1108 1.353 . S
C1110 C1113 1.348 . S
C1110 H1142 0.929 . S
C1111 C1112 1.358 . S
C1111 C1113 1.356 . S
C1111 H1143 0.930 . S
C1112 N1109 1.279 . S
C1112 C1111 1.358 . S
C1112 H1115 0.930 . S
C1113 C1110 1.348 . S
C1113 C1111 1.356 . S
H1114 C1108 0.930 . S
H1115 C1112 0.930 . S
O1116 Li1056 1.956 . S
O1116 Li1057 1.970 . S
O1116 Li1058 1.961 . S
O1116 C1060 1.325 . S
O1117 Li1056 1.970 . S
O1117 Li1057 1.956 . S
O1117 Li1059 1.961 . S
O1117 C1066 1.325 . S
O1118 Li1056 1.961 . S
O1118 Li1058 1.956 . S
O1118 Li1059 1.970 . S
O1118 C1088 1.325 . S
O1119 Li1057 1.961 . S
O1119 Li1058 1.970 . S
O1119 Li1059 1.956 . S
O1119 C1094 1.325 . S
H1120 C1062 0.929 . S
H1121 C1063 0.930 . S
H1122 C1064 0.930 . S
H1123 C1065 0.930 . S
H1124 C1067 0.930 . S
H1125 C1069 0.929 . S
H1126 C1070 0.930 . S
H1127 C1071 0.930 . S
H1128 C1074 0.930 . S
H1129 C1077 0.929 . S
H1130 C1082 0.929 . S
H1131 C1083 0.930 . S
H1132 C1090 0.929 . S
H1133 C1091 0.930 . S
H1134 C1092 0.930 . S
H1135 C1093 0.930 . S
H1136 C1095 0.929 . S
H1137 C1096 0.930 . S
H1138 C1097 0.930 . S
H1139 C1098 0.930 . S
H1140 C1102 0.929 . S
H1141 C1104 0.930 . S
H1142 C1110 0.929 . S
H1143 C1111 0.930 . S
Li1144 N1161 1.990 . S
Li1144 O1204 1.956 . S
Li1144 O1205 1.970 . S
Li1144 O1206 1.961 . S
Li1145 N1169 1.990 . S
Li1145 O1204 1.970 . S
Li1145 O1205 1.956 . S
Li1145 O1207 1.961 . S
Li1146 N1191 1.990 . S
Li1146 O1204 1.961 . S
Li1146 O1206 1.956 . S
Li1146 O1207 1.970 . S
Li1147 N1197 1.990 . S
Li1147 O1205 1.961 . S
Li1147 O1206 1.970 . S
Li1147 O1207 1.956 . S
C1148 C1150 1.348 . S
C1148 C1151 1.356 . S
C1148 O1204 1.325 . S
N1149 C1152 1.314 . S
N1149 C1153 1.279 . S
C1150 C1148 1.348 . S
C1150 C1152 1.353 . S
C1150 H1208 0.929 . S
C1151 C1148 1.356 . S
C1151 C1153 1.358 . S
C1151 H1209 0.930 . S
C1152 N1149 1.314 . S
C1152 C1150 1.353 . S
C1152 H1210 0.930 . S
C1153 N1149 1.279 . S
C1153 C1151 1.358 . S
C1153 H1211 0.930 . S
C1154 C1157 1.348 . S
C1154 C1158 1.356 . S
C1154 O1205 1.325 . S
C1155 N1156 1.279 . S
C1155 C1158 1.358 . S
C1155 H1212 0.930 . S
N1156 C1155 1.279 . S
N1156 C1159 1.314 . S
C1157 C1154 1.348 . S
C1157 C1159 1.353 . S
C1157 H1213 0.929 . S
C1158 C1154 1.356 . S
C1158 C1155 1.358 . S
C1158 H1214 0.930 . S
C1159 N1156 1.314 . S
C1159 C1157 1.353 . S
C1159 H1215 0.930 . S
C1160 N1161 1.314 . S
C1160 C1165 1.353 . S
C1160 H1166 0.930 . S
N1161 Li1144 1.990 . S
N1161 C1160 1.314 . S
N1161 C1163 1.279 . S
C1162 C1163 1.358 . S
C1162 C1164 1.356 . S
C1162 H1216 0.930 . S
C1163 N1161 1.279 . S
C1163 C1162 1.358 . S
C1163 H1167 0.930 . S
C1164 C1162 1.356 . S
C1164 C1165 1.348 . S
C1165 C1160 1.353 . S
C1165 C1164 1.348 . S
C1165 H1217 0.929 . S
H1166 C1160 0.930 . S
H1167 C1163 0.930 . S
C1168 N1169 1.314 . S
C1168 C1170 1.353 . S
C1168 H1174 0.930 . S
N1169 Li1145 1.990 . S
N1169 C1168 1.314 . S
N1169 C1172 1.279 . S
C1170 C1168 1.353 . S
C1170 C1173 1.348 . S
C1170 H1218 0.929 . S
C1171 C1172 1.358 . S
C1171 C1173 1.356 . S
C1171 H1219 0.930 . S
C1172 N1169 1.279 . S
C1172 C1171 1.358 . S
C1172 H1175 0.930 . S
C1173 C1170 1.348 . S
C1173 C1171 1.356 . S
H1174 C1168 0.930 . S
H1175 C1172 0.930 . S
C1176 C1178 1.348 . S
C1176 C1179 1.356 . S
C1176 O1206 1.325 . S
N1177 C1180 1.314 . S
N1177 C1181 1.279 . S
C1178 C1176 1.348 . S
C1178 C1180 1.353 . S
C1178 H1220 0.929 . S
C1179 C1176 1.356 . S
C1179 C1181 1.358 . S
C1179 H1221 0.930 . S
C1180 N1177 1.314 . S
C1180 C1178 1.353 . S
C1180 H1222 0.930 . S
C1181 N1177 1.279 . S
C1181 C1179 1.358 . S
C1181 H1223 0.930 . S
C1182 C1183 1.348 . S
C1182 C1184 1.356 . S
C1182 O1207 1.325 . S
C1183 C1182 1.348 . S
C1183 C1185 1.353 . S
C1183 H1224 0.929 . S
C1184 C1182 1.356 . S
C1184 C1186 1.358 . S
C1184 H1225 0.930 . S
C1185 C1183 1.353 . S
C1185 N1187 1.314 . S
C1185 H1226 0.930 . S
C1186 C1184 1.358 . S
C1186 N1187 1.279 . S
C1186 H1227 0.930 . S
N1187 C1185 1.314 . S
N1187 C1186 1.279 . S
C1188 C1190 1.353 . S
C1188 N1191 1.314 . S
C1188 H1194 0.930 . S
C1189 N1191 1.279 . S
C1189 C1192 1.358 . S
C1189 H1195 0.930 . S
C1190 C1188 1.353 . S
C1190 C1193 1.348 . S
C1190 H1228 0.929 . S
N1191 Li1146 1.990 . S
N1191 C1188 1.314 . S
N1191 C1189 1.279 . S
C1192 C1189 1.358 . S
C1192 C1193 1.356 . S
C1192 H1229 0.930 . S
C1193 C1190 1.348 . S
C1193 C1192 1.356 . S
H1194 C1188 0.930 . S
H1195 C1189 0.930 . S
C1196 N1197 1.314 . S
C1196 C1198 1.353 . S
C1196 H1202 0.930 . S
N1197 Li1147 1.990 . S
N1197 C1196 1.314 . S
N1197 C1200 1.279 . S
C1198 C1196 1.353 . S
C1198 C1201 1.348 . S
C1198 H1230 0.929 . S
C1199 C1200 1.358 . S
C1199 C1201 1.356 . S
C1199 H1231 0.930 . S
C1200 N1197 1.279 . S
C1200 C1199 1.358 . S
C1200 H1203 0.930 . S
C1201 C1198 1.348 . S
C1201 C1199 1.356 . S
H1202 C1196 0.930 . S
H1203 C1200 0.930 . S
O1204 Li1144 1.956 . S
O1204 Li1145 1.970 . S
O1204 Li1146 1.961 . S
O1204 C1148 1.325 . S
O1205 Li1144 1.970 . S
O1205 Li1145 1.956 . S
O1205 Li1147 1.961 . S
O1205 C1154 1.325 . S
O1206 Li1144 1.961 . S
O1206 Li1146 1.956 . S
O1206 Li1147 1.970 . S
O1206 C1176 1.325 . S
O1207 Li1145 1.961 . S
O1207 Li1146 1.970 . S
O1207 Li1147 1.956 . S
O1207 C1182 1.325 . S
H1208 C1150 0.929 . S
H1209 C1151 0.930 . S
H1210 C1152 0.930 . S
H1211 C1153 0.930 . S
H1212 C1155 0.930 . S
H1213 C1157 0.929 . S
H1214 C1158 0.930 . S
H1215 C1159 0.930 . S
H1216 C1162 0.930 . S
H1217 C1165 0.929 . S
H1218 C1170 0.929 . S
H1219 C1171 0.930 . S
H1220 C1178 0.929 . S
H1221 C1179 0.930 . S
H1222 C1180 0.930 . S
H1223 C1181 0.930 . S
H1224 C1183 0.929 . S
H1225 C1184 0.930 . S
H1226 C1185 0.930 . S
H1227 C1186 0.930 . S
H1228 C1190 0.929 . S
H1229 C1192 0.930 . S
H1230 C1198 0.929 . S
H1231 C1199 0.930 . S
Li1232 N1249 1.990 . S
Li1232 O1292 1.956 . S
Li1232 O1293 1.970 . S
Li1232 O1294 1.961 . S
Li1233 N1257 1.990 . S
Li1233 O1292 1.970 . S
Li1233 O1293 1.956 . S
Li1233 O1295 1.961 . S
Li1234 N1279 1.990 . S
Li1234 O1292 1.961 . S
Li1234 O1294 1.956 . S
Li1234 O1295 1.970 . S
Li1235 N1285 1.990 . S
Li1235 O1293 1.961 . S
Li1235 O1294 1.970 . S
Li1235 O1295 1.956 . S
C1236 C1238 1.348 . S
C1236 C1239 1.356 . S
C1236 O1292 1.325 . S
N1237 C1240 1.314 . S
N1237 C1241 1.279 . S
C1238 C1236 1.348 . S
C1238 C1240 1.353 . S
C1238 H1296 0.929 . S
C1239 C1236 1.356 . S
C1239 C1241 1.358 . S
C1239 H1297 0.930 . S
C1240 N1237 1.314 . S
C1240 C1238 1.353 . S
C1240 H1298 0.930 . S
C1241 N1237 1.279 . S
C1241 C1239 1.358 . S
C1241 H1299 0.930 . S
C1242 C1245 1.348 . S
C1242 C1246 1.356 . S
C1242 O1293 1.325 . S
C1243 N1244 1.279 . S
C1243 C1246 1.358 . S
C1243 H1300 0.930 . S
N1244 C1243 1.279 . S
N1244 C1247 1.314 . S
C1245 C1242 1.348 . S
C1245 C1247 1.353 . S
C1245 H1301 0.929 . S
C1246 C1242 1.356 . S
C1246 C1243 1.358 . S
C1246 H1302 0.930 . S
C1247 N1244 1.314 . S
C1247 C1245 1.353 . S
C1247 H1303 0.930 . S
C1248 N1249 1.314 . S
C1248 C1253 1.353 . S
C1248 H1254 0.930 . S
N1249 Li1232 1.990 . S
N1249 C1248 1.314 . S
N1249 C1251 1.279 . S
C1250 C1251 1.358 . S
C1250 C1252 1.356 . S
C1250 H1304 0.930 . S
C1251 N1249 1.279 . S
C1251 C1250 1.358 . S
C1251 H1255 0.930 . S
C1252 C1250 1.356 . S
C1252 C1253 1.348 . S
C1253 C1248 1.353 . S
C1253 C1252 1.348 . S
C1253 H1305 0.929 . S
H1254 C1248 0.930 . S
H1255 C1251 0.930 . S
C1256 N1257 1.314 . S
C1256 C1258 1.353 . S
C1256 H1262 0.930 . S
N1257 Li1233 1.990 . S
N1257 C1256 1.314 . S
N1257 C1260 1.279 . S
C1258 C1256 1.353 . S
C1258 C1261 1.348 . S
C1258 H1306 0.929 . S
C1259 C1260 1.358 . S
C1259 C1261 1.356 . S
C1259 H1307 0.930 . S
C1260 N1257 1.279 . S
C1260 C1259 1.358 . S
C1260 H1263 0.930 . S
C1261 C1258 1.348 . S
C1261 C1259 1.356 . S
H1262 C1256 0.930 . S
H1263 C1260 0.930 . S
C1264 C1266 1.348 . S
C1264 C1267 1.356 . S
C1264 O1294 1.325 . S
N1265 C1268 1.314 . S
N1265 C1269 1.279 . S
C1266 C1264 1.348 . S
C1266 C1268 1.353 . S
C1266 H1308 0.929 . S
C1267 C1264 1.356 . S
C1267 C1269 1.358 . S
C1267 H1309 0.930 . S
C1268 N1265 1.314 . S
C1268 C1266 1.353 . S
C1268 H1310 0.930 . S
C1269 N1265 1.279 . S
C1269 C1267 1.358 . S
C1269 H1311 0.930 . S
C1270 C1271 1.348 . S
C1270 C1272 1.356 . S
C1270 O1295 1.325 . S
C1271 C1270 1.348 . S
C1271 C1273 1.353 . S
C1271 H1312 0.929 . S
C1272 C1270 1.356 . S
C1272 C1274 1.358 . S
C1272 H1313 0.930 . S
C1273 C1271 1.353 . S
C1273 N1275 1.314 . S
C1273 H1314 0.930 . S
C1274 C1272 1.358 . S
C1274 N1275 1.279 . S
C1274 H1315 0.930 . S
N1275 C1273 1.314 . S
N1275 C1274 1.279 . S
C1276 C1278 1.353 . S
C1276 N1279 1.314 . S
C1276 H1282 0.930 . S
C1277 N1279 1.279 . S
C1277 C1280 1.358 . S
C1277 H1283 0.930 . S
C1278 C1276 1.353 . S
C1278 C1281 1.348 . S
C1278 H1316 0.929 . S
N1279 Li1234 1.990 . S
N1279 C1276 1.314 . S
N1279 C1277 1.279 . S
C1280 C1277 1.358 . S
C1280 C1281 1.356 . S
C1280 H1317 0.930 . S
C1281 C1278 1.348 . S
C1281 C1280 1.356 . S
H1282 C1276 0.930 . S
H1283 C1277 0.930 . S
C1284 N1285 1.314 . S
C1284 C1286 1.353 . S
C1284 H1290 0.930 . S
N1285 Li1235 1.990 . S
N1285 C1284 1.314 . S
N1285 C1288 1.279 . S
C1286 C1284 1.353 . S
C1286 C1289 1.348 . S
C1286 H1318 0.929 . S
C1287 C1288 1.358 . S
C1287 C1289 1.356 . S
C1287 H1319 0.930 . S
C1288 N1285 1.279 . S
C1288 C1287 1.358 . S
C1288 H1291 0.930 . S
C1289 C1286 1.348 . S
C1289 C1287 1.356 . S
H1290 C1284 0.930 . S
H1291 C1288 0.930 . S
O1292 Li1232 1.956 . S
O1292 Li1233 1.970 . S
O1292 Li1234 1.961 . S
O1292 C1236 1.325 . S
O1293 Li1232 1.970 . S
O1293 Li1233 1.956 . S
O1293 Li1235 1.961 . S
O1293 C1242 1.325 . S
O1294 Li1232 1.961 . S
O1294 Li1234 1.956 . S
O1294 Li1235 1.970 . S
O1294 C1264 1.325 . S
O1295 Li1233 1.961 . S
O1295 Li1234 1.970 . S
O1295 Li1235 1.956 . S
O1295 C1270 1.325 . S
H1296 C1238 0.929 . S
H1297 C1239 0.930 . S
H1298 C1240 0.930 . S
H1299 C1241 0.930 . S
H1300 C1243 0.930 . S
H1301 C1245 0.929 . S
H1302 C1246 0.930 . S
H1303 C1247 0.930 . S
H1304 C1250 0.930 . S
H1305 C1253 0.929 . S
H1306 C1258 0.929 . S
H1307 C1259 0.930 . S
H1308 C1266 0.929 . S
H1309 C1267 0.930 . S
H1310 C1268 0.930 . S
H1311 C1269 0.930 . S
H1312 C1271 0.929 . S
H1313 C1272 0.930 . S
H1314 C1273 0.930 . S
H1315 C1274 0.930 . S
H1316 C1278 0.929 . S
H1317 C1280 0.930 . S
H1318 C1286 0.929 . S
H1319 C1287 0.930 . S
Li1320 N1337 1.990 . S
Li1320 O1380 1.956 . S
Li1320 O1381 1.970 . S
Li1320 O1382 1.961 . S
Li1321 N1345 1.990 . S
Li1321 O1380 1.970 . S
Li1321 O1381 1.956 . S
Li1321 O1383 1.961 . S
Li1322 N1367 1.990 . S
Li1322 O1380 1.961 . S
Li1322 O1382 1.956 . S
Li1322 O1383 1.970 . S
Li1323 N1373 1.990 . S
Li1323 O1381 1.961 . S
Li1323 O1382 1.970 . S
Li1323 O1383 1.956 . S
C1324 C1326 1.348 . S
C1324 C1327 1.356 . S
C1324 O1380 1.325 . S
N1325 C1328 1.314 . S
N1325 C1329 1.279 . S
C1326 C1324 1.348 . S
C1326 C1328 1.353 . S
C1326 H1384 0.929 . S
C1327 C1324 1.356 . S
C1327 C1329 1.358 . S
C1327 H1385 0.930 . S
C1328 N1325 1.314 . S
C1328 C1326 1.353 . S
C1328 H1386 0.930 . S
C1329 N1325 1.279 . S
C1329 C1327 1.358 . S
C1329 H1387 0.930 . S
C1330 C1333 1.348 . S
C1330 C1334 1.356 . S
C1330 O1381 1.325 . S
C1331 N1332 1.279 . S
C1331 C1334 1.358 . S
C1331 H1388 0.930 . S
N1332 C1331 1.279 . S
N1332 C1335 1.314 . S
C1333 C1330 1.348 . S
C1333 C1335 1.353 . S
C1333 H1389 0.929 . S
C1334 C1330 1.356 . S
C1334 C1331 1.358 . S
C1334 H1390 0.930 . S
C1335 N1332 1.314 . S
C1335 C1333 1.353 . S
C1335 H1391 0.930 . S
C1336 N1337 1.314 . S
C1336 C1341 1.353 . S
C1336 H1342 0.930 . S
N1337 Li1320 1.990 . S
N1337 C1336 1.314 . S
N1337 C1339 1.279 . S
C1338 C1339 1.358 . S
C1338 C1340 1.356 . S
C1338 H1392 0.930 . S
C1339 N1337 1.279 . S
C1339 C1338 1.358 . S
C1339 H1343 0.930 . S
C1340 C1338 1.356 . S
C1340 C1341 1.348 . S
C1341 C1336 1.353 . S
C1341 C1340 1.348 . S
C1341 H1393 0.929 . S
H1342 C1336 0.930 . S
H1343 C1339 0.930 . S
C1344 N1345 1.314 . S
C1344 C1346 1.353 . S
C1344 H1350 0.930 . S
N1345 Li1321 1.990 . S
N1345 C1344 1.314 . S
N1345 C1348 1.279 . S
C1346 C1344 1.353 . S
C1346 C1349 1.348 . S
C1346 H1394 0.929 . S
C1347 C1348 1.358 . S
C1347 C1349 1.356 . S
C1347 H1395 0.930 . S
C1348 N1345 1.279 . S
C1348 C1347 1.358 . S
C1348 H1351 0.930 . S
C1349 C1346 1.348 . S
C1349 C1347 1.356 . S
H1350 C1344 0.930 . S
H1351 C1348 0.930 . S
C1352 C1354 1.348 . S
C1352 C1355 1.356 . S
C1352 O1382 1.325 . S
N1353 C1356 1.314 . S
N1353 C1357 1.279 . S
C1354 C1352 1.348 . S
C1354 C1356 1.353 . S
C1354 H1396 0.929 . S
C1355 C1352 1.356 . S
C1355 C1357 1.358 . S
C1355 H1397 0.930 . S
C1356 N1353 1.314 . S
C1356 C1354 1.353 . S
C1356 H1398 0.930 . S
C1357 N1353 1.279 . S
C1357 C1355 1.358 . S
C1357 H1399 0.930 . S
C1358 C1359 1.348 . S
C1358 C1360 1.356 . S
C1358 O1383 1.325 . S
C1359 C1358 1.348 . S
C1359 C1361 1.353 . S
C1359 H1400 0.929 . S
C1360 C1358 1.356 . S
C1360 C1362 1.358 . S
C1360 H1401 0.930 . S
C1361 C1359 1.353 . S
C1361 N1363 1.314 . S
C1361 H1402 0.930 . S
C1362 C1360 1.358 . S
C1362 N1363 1.279 . S
C1362 H1403 0.930 . S
N1363 C1361 1.314 . S
N1363 C1362 1.279 . S
C1364 C1366 1.353 . S
C1364 N1367 1.314 . S
C1364 H1370 0.930 . S
C1365 N1367 1.279 . S
C1365 C1368 1.358 . S
C1365 H1371 0.930 . S
C1366 C1364 1.353 . S
C1366 C1369 1.348 . S
C1366 H1404 0.929 . S
N1367 Li1322 1.990 . S
N1367 C1364 1.314 . S
N1367 C1365 1.279 . S
C1368 C1365 1.358 . S
C1368 C1369 1.356 . S
C1368 H1405 0.930 . S
C1369 C1366 1.348 . S
C1369 C1368 1.356 . S
H1370 C1364 0.930 . S
H1371 C1365 0.930 . S
C1372 N1373 1.314 . S
C1372 C1374 1.353 . S
C1372 H1378 0.930 . S
N1373 Li1323 1.990 . S
N1373 C1372 1.314 . S
N1373 C1376 1.279 . S
C1374 C1372 1.353 . S
C1374 C1377 1.348 . S
C1374 H1406 0.929 . S
C1375 C1376 1.358 . S
C1375 C1377 1.356 . S
C1375 H1407 0.930 . S
C1376 N1373 1.279 . S
C1376 C1375 1.358 . S
C1376 H1379 0.930 . S
C1377 C1374 1.348 . S
C1377 C1375 1.356 . S
H1378 C1372 0.930 . S
H1379 C1376 0.930 . S
O1380 Li1320 1.956 . S
O1380 Li1321 1.970 . S
O1380 Li1322 1.961 . S
O1380 C1324 1.325 . S
O1381 Li1320 1.970 . S
O1381 Li1321 1.956 . S
O1381 Li1323 1.961 . S
O1381 C1330 1.325 . S
O1382 Li1320 1.961 . S
O1382 Li1322 1.956 . S
O1382 Li1323 1.970 . S
O1382 C1352 1.325 . S
O1383 Li1321 1.961 . S
O1383 Li1322 1.970 . S
O1383 Li1323 1.956 . S
O1383 C1358 1.325 . S
H1384 C1326 0.929 . S
H1385 C1327 0.930 . S
H1386 C1328 0.930 . S
H1387 C1329 0.930 . S
H1388 C1331 0.930 . S
H1389 C1333 0.929 . S
H1390 C1334 0.930 . S
H1391 C1335 0.930 . S
H1392 C1338 0.930 . S
H1393 C1341 0.929 . S
H1394 C1346 0.929 . S
H1395 C1347 0.930 . S
H1396 C1354 0.929 . S
H1397 C1355 0.930 . S
H1398 C1356 0.930 . S
H1399 C1357 0.930 . S
H1400 C1359 0.929 . S
H1401 C1360 0.930 . S
H1402 C1361 0.930 . S
H1403 C1362 0.930 . S
H1404 C1366 0.929 . S
H1405 C1368 0.930 . S
H1406 C1374 0.929 . S
H1407 C1375 0.930 . S
H1408 C1416 0.950 . S
H1409 C1421 0.950 . S
H1410 C1418 0.950 . S
H1411 C1420 0.950 . S
H1412 C1422 0.950 . S
H1413 C1424 0.950 . S
H1414 C1426 0.950 . S
H1415 C1427 0.950 . S
C1416 H1408 0.950 . S
C1416 C1417 1.398 . S
C1416 C1418 1.391 . S
C1417 C1416 1.398 . S
C1417 C1421 1.381 1_554 S
C1418 H1410 0.950 . S
C1418 C1416 1.391 . S
C1418 C1419 1.405 . S
C1419 C1418 1.405 . S
C1419 C1420 1.393 1_554 S
C1419 C1425 1.491 1_554 S
C1420 H1411 0.950 . S
C1420 C1419 1.393 1_556 S
C1420 C1421 1.391 . S
C1421 H1409 0.950 . S
C1421 C1417 1.381 1_556 S
C1421 C1420 1.391 . S
C1422 H1412 0.950 . S
C1422 C1423 1.391 . S
C1422 C1424 1.391 . S
C1423 C1422 1.391 . S
C1423 C1427 1.387 1_556 S
C1424 H1413 0.950 . S
C1424 C1422 1.391 . S
C1424 C1425 1.399 . S
C1425 C1419 1.491 1_556 S
C1425 C1424 1.399 . S
C1425 C1426 1.400 1_556 S
C1426 H1414 0.950 . S
C1426 C1425 1.400 1_554 S
C1426 C1427 1.391 . S
C1427 H1415 0.950 . S
C1427 C1423 1.387 1_554 S
C1427 C1426 1.391 . S
H1428 C1436 0.950 . S
H1429 C1441 0.950 . S
H1430 C1438 0.950 . S
H1431 C1440 0.950 . S
H1432 C1442 0.950 . S
H1433 C1444 0.950 . S
H1434 C1446 0.950 . S
H1435 C1447 0.950 . S
C1436 H1428 0.950 . S
C1436 C1437 1.386 1_556 S
C1436 C1438 1.391 . S
C1437 C1436 1.386 1_554 S
C1437 C1441 1.393 . S
C1438 H1430 0.950 . S
C1438 C1436 1.391 . S
C1438 C1439 1.396 1_556 S
C1439 C1438 1.396 1_554 S
C1439 C1440 1.405 . S
C1439 C1445 1.490 1_554 S
C1440 H1431 0.950 . S
C1440 C1439 1.405 . S
C1440 C1441 1.391 . S
C1441 H1429 0.950 . S
C1441 C1437 1.393 . S
C1441 C1440 1.391 . S
C1442 H1432 0.950 . S
C1442 C1443 1.386 1_554 S
C1442 C1444 1.391 . S
C1443 C1442 1.386 1_556 S
C1443 C1447 1.393 . S
C1444 H1433 0.950 . S
C1444 C1442 1.391 . S
C1444 C1445 1.397 1_554 S
C1445 C1439 1.490 1_556 S
C1445 C1444 1.397 1_556 S
C1445 C1446 1.403 . S
C1446 H1434 0.950 . S
C1446 C1445 1.403 . S
C1446 C1447 1.391 . S
C1447 H1435 0.950 . S
C1447 C1443 1.393 . S
C1447 C1446 1.391 . S
H1448 C1456 0.950 . S
H1449 C1461 0.950 . S
H1450 C1458 0.950 . S
H1451 C1460 0.950 . S
H1452 C1462 0.950 . S
H1453 C1464 0.950 . S
H1454 C1466 0.950 . S
H1455 C1467 0.950 . S
C1456 H1448 0.950 . S
C1456 C1457 1.374 1_554 S
C1456 C1458 1.391 . S
C1457 C1456 1.374 1_556 S
C1457 C1461 1.405 . S
C1458 H1450 0.950 . S
C1458 C1456 1.391 . S
C1458 C1459 1.395 1_554 S
C1459 C1458 1.395 1_556 S
C1459 C1460 1.404 . S
C1459 C1465 1.490 1_556 S
C1460 H1451 0.950 . S
C1460 C1459 1.404 . S
C1460 C1461 1.391 . S
C1461 H1449 0.950 . S
C1461 C1457 1.405 . S
C1461 C1460 1.391 . S
C1462 H1452 0.950 . S
C1462 C1463 1.386 1_556 S
C1462 C1464 1.391 . S
C1463 C1462 1.386 1_554 S
C1463 C1467 1.393 . S
C1464 H1453 0.950 . S
C1464 C1462 1.391 . S
C1464 C1465 1.392 1_556 S
C1465 C1459 1.490 1_554 S
C1465 C1464 1.392 1_554 S
C1465 C1466 1.407 . S
C1466 H1454 0.950 . S
C1466 C1465 1.407 . S
C1466 C1467 1.391 . S
C1467 H1455 0.950 . S
C1467 C1463 1.393 . S
C1467 C1466 1.391 . S
H1468 C1476 0.950 . S
H1469 C1481 0.950 . S
H1470 C1478 0.950 . S
H1471 C1480 0.950 . S
H1472 C1482 0.950 . S
H1473 C1484 0.950 . S
H1474 C1486 0.950 . S
H1475 C1487 0.950 . S
C1476 H1468 0.950 . S
C1476 C1477 1.386 . S
C1476 C1478 1.391 . S
C1477 C1476 1.386 . S
C1477 C1481 1.393 1_554 S
C1478 H1470 0.950 . S
C1478 C1476 1.391 . S
C1478 C1479 1.411 . S
C1479 C1478 1.411 . S
C1479 C1480 1.388 1_554 S
C1479 C1485 1.490 1_554 S
C1480 H1471 0.950 . S
C1480 C1479 1.388 1_556 S
C1480 C1481 1.391 . S
C1481 H1469 0.950 . S
C1481 C1477 1.393 1_556 S
C1481 C1480 1.391 . S
C1482 H1472 0.950 . S
C1482 C1483 1.404 . S
C1482 C1484 1.391 . S
C1483 C1482 1.404 . S
C1483 C1487 1.375 1_556 S
C1484 H1473 0.950 . S
C1484 C1482 1.391 . S
C1484 C1485 1.407 . S
C1485 C1479 1.490 1_556 S
C1485 C1484 1.407 . S
C1485 C1486 1.392 1_556 S
C1486 H1474 0.950 . S
C1486 C1485 1.392 1_554 S
C1486 C1487 1.391 . S
C1487 H1475 0.950 . S
C1487 C1483 1.375 1_554 S
C1487 C1486 1.391 . S
H1488 C1496 0.950 . S
H1489 C1501 0.950 . S
H1490 C1498 0.950 . S
H1491 C1500 0.950 . S
H1492 C1502 0.950 . S
H1493 C1504 0.950 . S
H1494 C1506 0.950 . S
H1495 C1507 0.950 . S
C1496 H1488 0.950 . S
C1496 C1497 1.386 . S
C1496 C1498 1.391 . S
C1497 C1496 1.386 . S
C1497 C1501 1.393 . S
C1498 H1490 0.950 . S
C1498 C1496 1.391 . S
C1498 C1499 1.400 . S
C1499 C1498 1.400 . S
C1499 C1500 1.398 . S
C1499 C1505 1.491 1_545 S
C1500 H1491 0.950 . S
C1500 C1499 1.398 . S
C1500 C1501 1.391 . S
C1501 H1489 0.950 . S
C1501 C1497 1.393 . S
C1501 C1500 1.391 . S
C1502 H1492 0.950 . S
C1502 C1503 1.386 . S
C1502 C1504 1.391 . S
C1503 C1502 1.386 . S
C1503 C1507 1.393 . S
C1504 H1493 0.950 . S
C1504 C1502 1.391 . S
C1504 C1505 1.400 . S
C1505 C1499 1.491 1_565 S
C1505 C1504 1.400 . S
C1505 C1506 1.398 . S
C1506 H1494 0.950 . S
C1506 C1505 1.398 . S
C1506 C1507 1.391 . S
C1507 H1495 0.950 . S
C1507 C1503 1.393 . S
C1507 C1506 1.391 . S
H1508 C1516 0.950 . S
H1509 C1521 0.950 . S
H1510 C1518 0.950 . S
H1511 C1520 0.950 . S
H1512 C1522 0.950 . S
H1513 C1524 0.950 . S
H1514 C1526 0.950 . S
H1515 C1527 0.950 . S
C1516 H1508 0.950 . S
C1516 C1517 1.386 . S
C1516 C1518 1.391 . S
C1517 C1516 1.386 . S
C1517 C1521 1.393 . S
C1518 H1510 0.950 . S
C1518 C1516 1.391 . S
C1518 C1519 1.400 . S
C1519 C1518 1.400 . S
C1519 C1520 1.398 . S
C1519 C1525 1.491 1_655 S
C1520 H1511 0.950 . S
C1520 C1519 1.398 . S
C1520 C1521 1.391 . S
C1521 H1509 0.950 . S
C1521 C1517 1.393 . S
C1521 C1520 1.391 . S
C1522 H1512 0.950 . S
C1522 C1523 1.386 . S
C1522 C1524 1.391 . S
C1523 C1522 1.386 . S
C1523 C1527 1.393 . S
C1524 H1513 0.950 . S
C1524 C1522 1.391 . S
C1524 C1525 1.400 . S
C1525 C1519 1.491 1_455 S
C1525 C1524 1.400 . S
C1525 C1526 1.398 . S
C1526 H1514 0.950 . S
C1526 C1525 1.398 . S
C1526 C1527 1.391 . S
C1527 H1515 0.950 . S
C1527 C1523 1.393 . S
C1527 C1526 1.391 . S
H1528 C1536 0.950 . S
H1529 C1541 0.950 . S
H1530 C1538 0.950 . S
H1531 C1540 0.950 . S
H1532 C1542 0.950 . S
H1533 C1544 0.950 . S
H1534 C1546 0.950 . S
H1535 C1547 0.950 . S
C1536 H1528 0.950 . S
C1536 C1537 1.386 . S
C1536 C1538 1.391 . S
C1537 C1536 1.386 . S
C1537 C1541 1.393 . S
C1538 H1530 0.950 . S
C1538 C1536 1.391 . S
C1538 C1539 1.400 . S
C1539 C1538 1.400 . S
C1539 C1540 1.398 . S
C1539 C1545 1.491 1_545 S
C1540 H1531 0.950 . S
C1540 C1539 1.398 . S
C1540 C1541 1.391 . S
C1541 H1529 0.950 . S
C1541 C1537 1.393 . S
C1541 C1540 1.391 . S
C1542 H1532 0.950 . S
C1542 C1543 1.386 . S
C1542 C1544 1.391 . S
C1543 C1542 1.386 . S
C1543 C1547 1.393 . S
C1544 H1533 0.950 . S
C1544 C1542 1.391 . S
C1544 C1545 1.400 . S
C1545 C1539 1.491 1_565 S
C1545 C1544 1.400 . S
C1545 C1546 1.398 . S
C1546 H1534 0.950 . S
C1546 C1545 1.398 . S
C1546 C1547 1.391 . S
C1547 H1535 0.950 . S
C1547 C1543 1.393 . S
C1547 C1546 1.391 . S
H1548 C1556 0.950 . S
H1549 C1561 0.950 . S
H1550 C1558 0.950 . S
H1551 C1560 0.950 . S
H1552 C1562 0.950 . S
H1553 C1564 0.950 . S
H1554 C1566 0.950 . S
H1555 C1567 0.950 . S
C1556 H1548 0.950 . S
C1556 C1557 1.386 . S
C1556 C1558 1.391 . S
C1557 C1556 1.386 . S
C1557 C1561 1.393 . S
C1558 H1550 0.950 . S
C1558 C1556 1.391 . S
C1558 C1559 1.400 . S
C1559 C1558 1.400 . S
C1559 C1560 1.398 . S
C1559 C1565 1.491 1_455 S
C1560 H1551 0.950 . S
C1560 C1559 1.398 . S
C1560 C1561 1.391 . S
C1561 H1549 0.950 . S
C1561 C1557 1.393 . S
C1561 C1560 1.391 . S
C1562 H1552 0.950 . S
C1562 C1563 1.386 . S
C1562 C1564 1.391 . S
C1563 C1562 1.386 . S
C1563 C1567 1.393 . S
C1564 H1553 0.950 . S
C1564 C1562 1.391 . S
C1564 C1565 1.400 . S
C1565 C1559 1.491 1_655 S
C1565 C1564 1.400 . S
C1565 C1566 1.398 . S
C1566 H1554 0.950 . S
C1566 C1565 1.398 . S
C1566 C1567 1.391 . S
C1567 H1555 0.950 . S
C1567 C1563 1.393 . S
C1567 C1566 1.391 . S
H1568 C1576 0.950 . S
H1569 C1581 0.950 . S
H1570 C1578 0.950 . S
H1571 C1580 0.950 . S
H1572 C1582 0.950 . S
H1573 C1584 0.950 . S
H1574 C1586 0.950 . S
H1575 C1587 0.950 . S
C1576 H1568 0.950 . S
C1576 C1577 1.386 1_556 S
C1576 C1578 1.391 . S
C1577 C1576 1.386 1_554 S
C1577 C1581 1.393 . S
C1578 H1570 0.950 . S
C1578 C1576 1.391 . S
C1578 C1579 1.397 1_556 S
C1579 C1578 1.397 1_554 S
C1579 C1580 1.403 . S
C1579 C1585 1.490 1_554 S
C1580 H1571 0.950 . S
C1580 C1579 1.403 . S
C1580 C1581 1.391 . S
C1581 H1569 0.950 . S
C1581 C1577 1.393 . S
C1581 C1580 1.391 . S
C1582 H1572 0.950 . S
C1582 C1583 1.386 1_554 S
C1582 C1584 1.391 . S
C1583 C1582 1.386 1_556 S
C1583 C1587 1.393 . S
C1584 H1573 0.950 . S
C1584 C1582 1.391 . S
C1584 C1585 1.398 1_554 S
C1585 C1579 1.490 1_556 S
C1585 C1584 1.398 1_556 S
C1585 C1586 1.402 . S
C1586 H1574 0.950 . S
C1586 C1585 1.402 . S
C1586 C1587 1.391 . S
C1587 H1575 0.950 . S
C1587 C1583 1.393 . S
C1587 C1586 1.391 . S
H1588 C1596 0.950 . S
H1589 C1601 0.950 . S
H1590 C1598 0.950 . S
H1591 C1600 0.950 . S
H1592 C1602 0.950 . S
H1593 C1604 0.950 . S
H1594 C1606 0.950 . S
H1595 C1607 0.950 . S
C1596 H1588 0.950 . S
C1596 C1597 1.386 1_556 S
C1596 C1598 1.391 . S
C1597 C1596 1.386 1_554 S
C1597 C1601 1.393 . S
C1598 H1590 0.950 . S
C1598 C1596 1.391 . S
C1598 C1599 1.391 1_556 S
C1599 C1598 1.391 1_554 S
C1599 C1600 1.409 . S
C1599 C1605 1.490 1_554 S
C1600 H1591 0.950 . S
C1600 C1599 1.409 . S
C1600 C1601 1.391 . S
C1601 H1589 0.950 . S
C1601 C1597 1.393 . S
C1601 C1600 1.391 . S
C1602 H1592 0.950 . S
C1602 C1603 1.372 1_554 S
C1602 C1604 1.391 . S
C1603 C1602 1.372 1_556 S
C1603 C1607 1.407 . S
C1604 H1593 0.950 . S
C1604 C1602 1.391 . S
C1604 C1605 1.394 1_554 S
C1605 C1599 1.490 1_556 S
C1605 C1604 1.394 1_556 S
C1605 C1606 1.405 . S
C1606 H1594 0.950 . S
C1606 C1605 1.405 . S
C1606 C1607 1.391 . S
C1607 H1595 0.950 . S
C1607 C1603 1.407 . S
C1607 C1606 1.391 . S
H1608 C1616 0.950 . S
H1609 C1621 0.950 . S
H1610 C1618 0.950 . S
H1611 C1620 0.950 . S
H1612 C1622 0.950 . S
H1613 C1624 0.950 . S
H1614 C1626 0.950 . S
H1615 C1627 0.950 . S
C1616 H1608 0.950 . S
C1616 C1617 1.386 . S
C1616 C1618 1.391 . S
C1617 C1616 1.386 . S
C1617 C1621 1.393 1_554 S
C1618 H1610 0.950 . S
C1618 C1616 1.391 . S
C1618 C1619 1.409 . S
C1619 C1618 1.409 . S
C1619 C1620 1.391 1_554 S
C1619 C1625 1.490 1_554 S
C1620 H1611 0.950 . S
C1620 C1619 1.391 1_556 S
C1620 C1621 1.391 . S
C1621 H1609 0.950 . S
C1621 C1617 1.393 1_556 S
C1621 C1620 1.391 . S
C1622 H1612 0.950 . S
C1622 C1623 1.386 . S
C1622 C1624 1.391 . S
C1623 C1622 1.386 . S
C1623 C1627 1.393 1_556 S
C1624 H1613 0.950 . S
C1624 C1622 1.391 . S
C1624 C1625 1.406 . S
C1625 C1619 1.490 1_556 S
C1625 C1624 1.406 . S
C1625 C1626 1.393 1_556 S
C1626 H1614 0.950 . S
C1626 C1625 1.393 1_554 S
C1626 C1627 1.391 . S
C1627 H1615 0.950 . S
C1627 C1623 1.393 1_554 S
C1627 C1626 1.391 . S
H1628 C1636 0.950 . S
H1629 C1641 0.950 . S
H1630 C1638 0.950 . S
H1631 C1640 0.950 . S
H1632 C1642 0.950 . S
H1633 C1644 0.950 . S
H1634 C1646 0.950 . S
H1635 C1647 0.950 . S
C1636 H1628 0.950 . S
C1636 C1637 1.386 . S
C1636 C1638 1.391 . S
C1637 C1636 1.386 . S
C1637 C1641 1.393 1_556 S
C1638 H1630 0.950 . S
C1638 C1636 1.391 . S
C1638 C1639 1.407 . S
C1639 C1638 1.407 . S
C1639 C1640 1.392 1_556 S
C1639 C1645 1.490 1_556 S
C1640 H1631 0.950 . S
C1640 C1639 1.392 1_554 S
C1640 C1641 1.391 . S
C1641 H1629 0.950 . S
C1641 C1637 1.393 1_554 S
C1641 C1640 1.391 . S
C1642 H1632 0.950 . S
C1642 C1643 1.386 . S
C1642 C1644 1.391 . S
C1643 C1642 1.386 . S
C1643 C1647 1.393 1_554 S
C1644 H1633 0.950 . S
C1644 C1642 1.391 . S
C1644 C1645 1.410 . S
C1645 C1639 1.490 1_554 S
C1645 C1644 1.410 . S
C1645 C1646 1.389 1_554 S
C1646 H1634 0.950 . S
C1646 C1645 1.389 1_556 S
C1646 C1647 1.391 . S
C1647 H1635 0.950 . S
C1647 C1643 1.393 1_556 S
C1647 C1646 1.391 . S
H1648 C1656 0.950 . S
H1649 C1661 0.950 . S
H1650 C1658 0.950 . S
H1651 C1660 0.950 . S
H1652 C1662 0.950 . S
H1653 C1664 0.950 . S
H1654 C1666 0.950 . S
H1655 C1667 0.950 . S
C1656 H1648 0.950 . S
C1656 C1657 1.386 . S
C1656 C1658 1.391 . S
C1657 C1656 1.386 . S
C1657 C1661 1.393 . S
C1658 H1650 0.950 . S
C1658 C1656 1.391 . S
C1658 C1659 1.400 . S
C1659 C1658 1.400 . S
C1659 C1660 1.398 . S
C1659 C1665 1.491 . S
C1660 H1651 0.950 . S
C1660 C1659 1.398 . S
C1660 C1661 1.391 . S
C1661 H1649 0.950 . S
C1661 C1657 1.393 . S
C1661 C1660 1.391 . S
C1662 H1652 0.950 . S
C1662 C1663 1.386 . S
C1662 C1664 1.391 . S
C1663 C1662 1.386 . S
C1663 C1667 1.393 . S
C1664 H1653 0.950 . S
C1664 C1662 1.391 . S
C1664 C1665 1.400 . S
C1665 C1659 1.491 . S
C1665 C1664 1.400 . S
C1665 C1666 1.398 . S
C1666 H1654 0.950 . S
C1666 C1665 1.398 . S
C1666 C1667 1.391 . S
C1667 H1655 0.950 . S
C1667 C1663 1.393 . S
C1667 C1666 1.391 . S
H1668 C1676 0.950 . S
H1669 C1681 0.950 . S
H1670 C1678 0.950 . S
H1671 C1680 0.950 . S
H1672 C1682 0.950 . S
H1673 C1684 0.950 . S
H1674 C1686 0.950 . S
H1675 C1687 0.950 . S
C1676 H1668 0.950 . S
C1676 C1677 1.386 . S
C1676 C1678 1.391 . S
C1677 C1676 1.386 . S
C1677 C1681 1.393 . S
C1678 H1670 0.950 . S
C1678 C1676 1.391 . S
C1678 C1679 1.400 . S
C1679 C1678 1.400 . S
C1679 C1680 1.398 . S
C1679 C1685 1.491 . S
C1680 H1671 0.950 . S
C1680 C1679 1.398 . S
C1680 C1681 1.391 . S
C1681 H1669 0.950 . S
C1681 C1677 1.393 . S
C1681 C1680 1.391 . S
C1682 H1672 0.950 . S
C1682 C1683 1.386 . S
C1682 C1684 1.391 . S
C1683 C1682 1.386 . S
C1683 C1687 1.393 . S
C1684 H1673 0.950 . S
C1684 C1682 1.391 . S
C1684 C1685 1.400 . S
C1685 C1679 1.491 . S
C1685 C1684 1.400 . S
C1685 C1686 1.398 . S
C1686 H1674 0.950 . S
C1686 C1685 1.398 . S
C1686 C1687 1.391 . S
C1687 H1675 0.950 . S
C1687 C1683 1.393 . S
C1687 C1686 1.391 . S
H1688 C1696 0.950 . S
H1689 C1701 0.950 . S
H1690 C1698 0.950 . S
H1691 C1700 0.950 . S
H1692 C1702 0.950 . S
H1693 C1704 0.950 . S
H1694 C1706 0.950 . S
H1695 C1707 0.950 . S
C1696 H1688 0.950 . S
C1696 C1697 1.386 . S
C1696 C1698 1.391 . S
C1697 C1696 1.386 . S
C1697 C1701 1.393 . S
C1698 H1690 0.950 . S
C1698 C1696 1.391 . S
C1698 C1699 1.400 . S
C1699 C1698 1.400 . S
C1699 C1700 1.398 . S
C1699 C1705 1.491 . S
C1700 H1691 0.950 . S
C1700 C1699 1.398 . S
C1700 C1701 1.391 . S
C1701 H1689 0.950 . S
C1701 C1697 1.393 . S
C1701 C1700 1.391 . S
C1702 H1692 0.950 . S
C1702 C1703 1.386 . S
C1702 C1704 1.391 . S
C1703 C1702 1.386 . S
C1703 C1707 1.393 . S
C1704 H1693 0.950 . S
C1704 C1702 1.391 . S
C1704 C1705 1.400 . S
C1705 C1699 1.491 . S
C1705 C1704 1.400 . S
C1705 C1706 1.398 . S
C1706 H1694 0.950 . S
C1706 C1705 1.398 . S
C1706 C1707 1.391 . S
C1707 H1695 0.950 . S
C1707 C1703 1.393 . S
C1707 C1706 1.391 . S
H1708 C1716 0.950 . S
H1709 C1721 0.950 . S
H1710 C1718 0.950 . S
H1711 C1720 0.950 . S
H1712 C1722 0.950 . S
H1713 C1724 0.950 . S
H1714 C1726 0.950 . S
H1715 C1727 0.950 . S
C1716 H1708 0.950 . S
C1716 C1717 1.386 . S
C1716 C1718 1.391 . S
C1717 C1716 1.386 . S
C1717 C1721 1.393 . S
C1718 H1710 0.950 . S
C1718 C1716 1.391 . S
C1718 C1719 1.400 . S
C1719 C1718 1.400 . S
C1719 C1720 1.398 . S
C1719 C1725 1.491 . S
C1720 H1711 0.950 . S
C1720 C1719 1.398 . S
C1720 C1721 1.391 . S
C1721 H1709 0.950 . S
C1721 C1717 1.393 . S
C1721 C1720 1.391 . S
C1722 H1712 0.950 . S
C1722 C1723 1.386 . S
C1722 C1724 1.391 . S
C1723 C1722 1.386 . S
C1723 C1727 1.393 . S
C1724 H1713 0.950 . S
C1724 C1722 1.391 . S
C1724 C1725 1.400 . S
C1725 C1719 1.491 . S
C1725 C1724 1.400 . S
C1725 C1726 1.398 . S
C1726 H1714 0.950 . S
C1726 C1725 1.398 . S
C1726 C1727 1.391 . S
C1727 H1715 0.950 . S
C1727 C1723 1.393 . S
C1727 C1726 1.391 . S
H1728 C1736 0.950 . S
H1729 C1741 0.950 . S
H1730 C1738 0.950 . S
H1731 C1740 0.950 . S
H1732 C1742 0.950 . S
H1733 C1744 0.950 . S
H1734 C1746 0.950 . S
H1735 C1747 0.950 . S
C1736 H1728 0.950 . S
C1736 C1737 1.386 . S
C1736 C1738 1.391 . S
C1737 C1736 1.386 . S
C1737 C1741 1.393 . S
C1738 H1730 0.950 . S
C1738 C1736 1.391 . S
C1738 C1739 1.400 . S
C1739 C1738 1.400 . S
C1739 C1740 1.398 . S
C1739 C1745 1.491 . S
C1740 H1731 0.950 . S
C1740 C1739 1.398 . S
C1740 C1741 1.391 . S
C1741 H1729 0.950 . S
C1741 C1737 1.393 . S
C1741 C1740 1.391 . S
C1742 H1732 0.950 . S
C1742 C1743 1.386 . S
C1742 C1744 1.391 . S
C1743 C1742 1.386 . S
C1743 C1747 1.393 . S
C1744 H1733 0.950 . S
C1744 C1742 1.391 . S
C1744 C1745 1.400 . S
C1745 C1739 1.491 . S
C1745 C1744 1.400 . S
C1745 C1746 1.398 . S
C1746 H1734 0.950 . S
C1746 C1745 1.398 . S
C1746 C1747 1.391 . S
C1747 H1735 0.950 . S
C1747 C1743 1.393 . S
C1747 C1746 1.391 . S
H1748 C1756 0.950 . S
H1749 C1761 0.950 . S
H1750 C1758 0.950 . S
H1751 C1760 0.950 . S
H1752 C1762 0.950 . S
H1753 C1764 0.950 . S
H1754 C1766 0.950 . S
H1755 C1767 0.950 . S
C1756 H1748 0.950 . S
C1756 C1757 1.386 . S
C1756 C1758 1.391 . S
C1757 C1756 1.386 . S
C1757 C1761 1.393 . S
C1758 H1750 0.950 . S
C1758 C1756 1.391 . S
C1758 C1759 1.400 . S
C1759 C1758 1.400 . S
C1759 C1760 1.398 . S
C1759 C1765 1.491 . S
C1760 H1751 0.950 . S
C1760 C1759 1.398 . S
C1760 C1761 1.391 . S
C1761 H1749 0.950 . S
C1761 C1757 1.393 . S
C1761 C1760 1.391 . S
C1762 H1752 0.950 . S
C1762 C1763 1.386 . S
C1762 C1764 1.391 . S
C1763 C1762 1.386 . S
C1763 C1767 1.393 . S
C1764 H1753 0.950 . S
C1764 C1762 1.391 . S
C1764 C1765 1.400 . S
C1765 C1759 1.491 . S
C1765 C1764 1.400 . S
C1765 C1766 1.398 . S
C1766 H1754 0.950 . S
C1766 C1765 1.398 . S
C1766 C1767 1.391 . S
C1767 H1755 0.950 . S
C1767 C1763 1.393 . S
C1767 C1766 1.391 . S
H1768 C1776 0.950 . S
H1769 C1781 0.950 . S
H1770 C1778 0.950 . S
H1771 C1780 0.950 . S
H1772 C1782 0.950 . S
H1773 C1784 0.950 . S
H1774 C1786 0.950 . S
H1775 C1787 0.950 . S
C1776 H1768 0.950 . S
C1776 C1777 1.386 . S
C1776 C1778 1.391 . S
C1777 C1776 1.386 . S
C1777 C1781 1.393 . S
C1778 H1770 0.950 . S
C1778 C1776 1.391 . S
C1778 C1779 1.400 . S
C1779 C1778 1.400 . S
C1779 C1780 1.398 . S
C1779 C1785 1.491 . S
C1780 H1771 0.950 . S
C1780 C1779 1.398 . S
C1780 C1781 1.391 . S
C1781 H1769 0.950 . S
C1781 C1777 1.393 . S
C1781 C1780 1.391 . S
C1782 H1772 0.950 . S
C1782 C1783 1.386 . S
C1782 C1784 1.391 . S
C1783 C1782 1.386 . S
C1783 C1787 1.393 . S
C1784 H1773 0.950 . S
C1784 C1782 1.391 . S
C1784 C1785 1.400 . S
C1785 C1779 1.491 . S
C1785 C1784 1.400 . S
C1785 C1786 1.398 . S
C1786 H1774 0.950 . S
C1786 C1785 1.398 . S
C1786 C1787 1.391 . S
C1787 H1775 0.950 . S
C1787 C1783 1.393 . S
C1787 C1786 1.391 . S
H1788 C1796 0.950 . S
H1789 C1801 0.950 . S
H1790 C1798 0.950 . S
H1791 C1800 0.950 . S
H1792 C1802 0.950 . S
H1793 C1804 0.950 . S
H1794 C1806 0.950 . S
H1795 C1807 0.950 . S
C1796 H1788 0.950 . S
C1796 C1797 1.386 . S
C1796 C1798 1.391 . S
C1797 C1796 1.386 . S
C1797 C1801 1.393 . S
C1798 H1790 0.950 . S
C1798 C1796 1.391 . S
C1798 C1799 1.400 . S
C1799 C1798 1.400 . S
C1799 C1800 1.398 . S
C1799 C1805 1.491 . S
C1800 H1791 0.950 . S
C1800 C1799 1.398 . S
C1800 C1801 1.391 . S
C1801 H1789 0.950 . S
C1801 C1797 1.393 . S
C1801 C1800 1.391 . S
C1802 H1792 0.950 . S
C1802 C1803 1.386 . S
C1802 C1804 1.391 . S
C1803 C1802 1.386 . S
C1803 C1807 1.393 . S
C1804 H1793 0.950 . S
C1804 C1802 1.391 . S
C1804 C1805 1.400 . S
C1805 C1799 1.491 . S
C1805 C1804 1.400 . S
C1805 C1806 1.398 . S
C1806 H1794 0.950 . S
C1806 C1805 1.398 . S
C1806 C1807 1.391 . S
C1807 H1795 0.950 . S
C1807 C1803 1.393 . S
C1807 C1806 1.391 . S
H1808 C1816 0.950 . S
H1809 C1821 0.950 . S
H1810 C1818 0.950 . S
H1811 C1820 0.950 . S
H1812 C1822 0.950 . S
H1813 C1824 0.950 . S
H1814 C1826 0.950 . S
H1815 C1827 0.950 . S
C1816 H1808 0.950 . S
C1816 C1817 1.386 . S
C1816 C1818 1.391 . S
C1817 C1816 1.386 . S
C1817 C1821 1.393 . S
C1818 H1810 0.950 . S
C1818 C1816 1.391 . S
C1818 C1819 1.400 . S
C1819 C1818 1.400 . S
C1819 C1820 1.398 . S
C1819 C1825 1.491 . S
C1820 H1811 0.950 . S
C1820 C1819 1.398 . S
C1820 C1821 1.391 . S
C1821 H1809 0.950 . S
C1821 C1817 1.393 . S
C1821 C1820 1.391 . S
C1822 H1812 0.950 . S
C1822 C1823 1.386 . S
C1822 C1824 1.391 . S
C1823 C1822 1.386 . S
C1823 C1827 1.393 . S
C1824 H1813 0.950 . S
C1824 C1822 1.391 . S
C1824 C1825 1.400 . S
C1825 C1819 1.491 . S
C1825 C1824 1.400 . S
C1825 C1826 1.398 . S
C1826 H1814 0.950 . S
C1826 C1825 1.398 . S
C1826 C1827 1.391 . S
C1827 H1815 0.950 . S
C1827 C1823 1.393 . S
C1827 C1826 1.391 . S
H1828 C1836 0.950 . S
H1829 C1841 0.950 . S
H1830 C1838 0.950 . S
H1831 C1840 0.950 . S
H1832 C1842 0.950 . S
H1833 C1844 0.950 . S
H1834 C1846 0.950 . S
H1835 C1847 0.950 . S
C1836 H1828 0.950 . S
C1836 C1837 1.386 . S
C1836 C1838 1.391 . S
C1837 C1836 1.386 . S
C1837 C1841 1.393 . S
C1838 H1830 0.950 . S
C1838 C1836 1.391 . S
C1838 C1839 1.400 . S
C1839 C1838 1.400 . S
C1839 C1840 1.398 . S
C1839 C1845 1.491 . S
C1840 H1831 0.950 . S
C1840 C1839 1.398 . S
C1840 C1841 1.391 . S
C1841 H1829 0.950 . S
C1841 C1837 1.393 . S
C1841 C1840 1.391 . S
C1842 H1832 0.950 . S
C1842 C1843 1.386 . S
C1842 C1844 1.391 . S
C1843 C1842 1.386 . S
C1843 C1847 1.393 . S
C1844 H1833 0.950 . S
C1844 C1842 1.391 . S
C1844 C1845 1.400 . S
C1845 C1839 1.491 . S
C1845 C1844 1.400 . S
C1845 C1846 1.398 . S
C1846 H1834 0.950 . S
C1846 C1845 1.398 . S
C1846 C1847 1.391 . S
C1847 H1835 0.950 . S
C1847 C1843 1.393 . S
C1847 C1846 1.391 . S
H1848 C1856 0.950 . S
H1849 C1861 0.950 . S
H1850 C1858 0.950 . S
H1851 C1860 0.950 . S
H1852 C1862 0.950 . S
H1853 C1864 0.950 . S
H1854 C1866 0.950 . S
H1855 C1867 0.950 . S
C1856 H1848 0.950 . S
C1856 C1857 1.386 . S
C1856 C1858 1.391 . S
C1857 C1856 1.386 . S
C1857 C1861 1.393 . S
C1858 H1850 0.950 . S
C1858 C1856 1.391 . S
C1858 C1859 1.400 . S
C1859 C1858 1.400 . S
C1859 C1860 1.398 . S
C1859 C1865 1.491 . S
C1860 H1851 0.950 . S
C1860 C1859 1.398 . S
C1860 C1861 1.391 . S
C1861 H1849 0.950 . S
C1861 C1857 1.393 . S
C1861 C1860 1.391 . S
C1862 H1852 0.950 . S
C1862 C1863 1.386 . S
C1862 C1864 1.391 . S
C1863 C1862 1.386 . S
C1863 C1867 1.393 . S
C1864 H1853 0.950 . S
C1864 C1862 1.391 . S
C1864 C1865 1.400 . S
C1865 C1859 1.491 . S
C1865 C1864 1.400 . S
C1865 C1866 1.398 . S
C1866 H1854 0.950 . S
C1866 C1865 1.398 . S
C1866 C1867 1.391 . S
C1867 H1855 0.950 . S
C1867 C1863 1.393 . S
C1867 C1866 1.391 . S
H1868 C1876 0.950 . S
H1869 C1881 0.950 . S
H1870 C1878 0.950 . S
H1871 C1880 0.950 . S
H1872 C1882 0.950 . S
H1873 C1884 0.950 . S
H1874 C1886 0.950 . S
H1875 C1887 0.950 . S
C1876 H1868 0.950 . S
C1876 C1877 1.386 . S
C1876 C1878 1.391 . S
C1877 C1876 1.386 . S
C1877 C1881 1.393 . S
C1878 H1870 0.950 . S
C1878 C1876 1.391 . S
C1878 C1879 1.400 . S
C1879 C1878 1.400 . S
C1879 C1880 1.398 . S
C1879 C1885 1.491 . S
C1880 H1871 0.950 . S
C1880 C1879 1.398 . S
C1880 C1881 1.391 . S
C1881 H1869 0.950 . S
C1881 C1877 1.393 . S
C1881 C1880 1.391 . S
C1882 H1872 0.950 . S
C1882 C1883 1.386 . S
C1882 C1884 1.391 . S
C1883 C1882 1.386 . S
C1883 C1887 1.393 . S
C1884 H1873 0.950 . S
C1884 C1882 1.391 . S
C1884 C1885 1.400 . S
C1885 C1879 1.491 . S
C1885 C1884 1.400 . S
C1885 C1886 1.398 . S
C1886 H1874 0.950 . S
C1886 C1885 1.398 . S
C1886 C1887 1.391 . S
C1887 H1875 0.950 . S
C1887 C1883 1.393 . S
C1887 C1886 1.391 . S
H1888 C1896 0.950 . S
H1889 C1901 0.950 . S
H1890 C1898 0.950 . S
H1891 C1900 0.950 . S
H1892 C1902 0.950 . S
H1893 C1904 0.950 . S
H1894 C1906 0.950 . S
H1895 C1907 0.950 . S
C1896 H1888 0.950 . S
C1896 C1897 1.386 . S
C1896 C1898 1.391 . S
C1897 C1896 1.386 . S
C1897 C1901 1.393 . S
C1898 H1890 0.950 . S
C1898 C1896 1.391 . S
C1898 C1899 1.400 . S
C1899 C1898 1.400 . S
C1899 C1900 1.398 . S
C1899 C1905 1.491 . S
C1900 H1891 0.950 . S
C1900 C1899 1.398 . S
C1900 C1901 1.391 . S
C1901 H1889 0.950 . S
C1901 C1897 1.393 . S
C1901 C1900 1.391 . S
C1902 H1892 0.950 . S
C1902 C1903 1.386 . S
C1902 C1904 1.391 . S
C1903 C1902 1.386 . S
C1903 C1907 1.393 . S
C1904 H1893 0.950 . S
C1904 C1902 1.391 . S
C1904 C1905 1.400 . S
C1905 C1899 1.491 . S
C1905 C1904 1.400 . S
C1905 C1906 1.398 . S
C1906 H1894 0.950 . S
C1906 C1905 1.398 . S
C1906 C1907 1.391 . S
C1907 H1895 0.950 . S
C1907 C1903 1.393 . S
C1907 C1906 1.391 . S
H1908 C1916 0.950 . S
H1909 C1921 0.950 . S
H1910 C1918 0.950 . S
H1911 C1920 0.950 . S
H1912 C1922 0.950 . S
H1913 C1924 0.950 . S
H1914 C1926 0.950 . S
H1915 C1927 0.950 . S
C1916 H1908 0.950 . S
C1916 C1917 1.386 . S
C1916 C1918 1.391 . S
C1917 C1916 1.386 . S
C1917 C1921 1.393 . S
C1918 H1910 0.950 . S
C1918 C1916 1.391 . S
C1918 C1919 1.400 . S
C1919 C1918 1.400 . S
C1919 C1920 1.398 . S
C1919 C1925 1.491 . S
C1920 H1911 0.950 . S
C1920 C1919 1.398 . S
C1920 C1921 1.391 . S
C1921 H1909 0.950 . S
C1921 C1917 1.393 . S
C1921 C1920 1.391 . S
C1922 H1912 0.950 . S
C1922 C1923 1.386 . S
C1922 C1924 1.391 . S
C1923 C1922 1.386 . S
C1923 C1927 1.393 . S
C1924 H1913 0.950 . S
C1924 C1922 1.391 . S
C1924 C1925 1.400 . S
C1925 C1919 1.491 . S
C1925 C1924 1.400 . S
C1925 C1926 1.398 . S
C1926 H1914 0.950 . S
C1926 C1925 1.398 . S
C1926 C1927 1.391 . S
C1927 H1915 0.950 . S
C1927 C1923 1.393 . S
C1927 C1926 1.391 . S
H1928 C1936 0.950 . S
H1929 C1941 0.950 . S
H1930 C1938 0.950 . S
H1931 C1940 0.950 . S
H1932 C1942 0.950 . S
H1933 C1944 0.950 . S
H1934 C1946 0.950 . S
H1935 C1947 0.950 . S
C1936 H1928 0.950 . S
C1936 C1937 1.386 . S
C1936 C1938 1.391 . S
C1937 C1936 1.386 . S
C1937 C1941 1.393 . S
C1938 H1930 0.950 . S
C1938 C1936 1.391 . S
C1938 C1939 1.400 . S
C1939 C1938 1.400 . S
C1939 C1940 1.398 . S
C1939 C1945 1.491 . S
C1940 H1931 0.950 . S
C1940 C1939 1.398 . S
C1940 C1941 1.391 . S
C1941 H1929 0.950 . S
C1941 C1937 1.393 . S
C1941 C1940 1.391 . S
C1942 H1932 0.950 . S
C1942 C1943 1.386 . S
C1942 C1944 1.391 . S
C1943 C1942 1.386 . S
C1943 C1947 1.393 . S
C1944 H1933 0.950 . S
C1944 C1942 1.391 . S
C1944 C1945 1.400 . S
C1945 C1939 1.491 . S
C1945 C1944 1.400 . S
C1945 C1946 1.398 . S
C1946 H1934 0.950 . S
C1946 C1945 1.398 . S
C1946 C1947 1.391 . S
C1947 H1935 0.950 . S
C1947 C1943 1.393 . S
C1947 C1946 1.391 . S
H1948 C1956 0.950 . S
H1949 C1961 0.950 . S
H1950 C1958 0.950 . S
H1951 C1960 0.950 . S
H1952 C1962 0.950 . S
H1953 C1964 0.950 . S
H1954 C1966 0.950 . S
H1955 C1967 0.950 . S
C1956 H1948 0.950 . S
C1956 C1957 1.386 . S
C1956 C1958 1.391 . S
C1957 C1956 1.386 . S
C1957 C1961 1.393 . S
C1958 H1950 0.950 . S
C1958 C1956 1.391 . S
C1958 C1959 1.400 . S
C1959 C1958 1.400 . S
C1959 C1960 1.398 . S
C1959 C1965 1.491 . S
C1960 H1951 0.950 . S
C1960 C1959 1.398 . S
C1960 C1961 1.391 . S
C1961 H1949 0.950 . S
C1961 C1957 1.393 . S
C1961 C1960 1.391 . S
C1962 H1952 0.950 . S
C1962 C1963 1.386 . S
C1962 C1964 1.391 . S
C1963 C1962 1.386 . S
C1963 C1967 1.393 . S
C1964 H1953 0.950 . S
C1964 C1962 1.391 . S
C1964 C1965 1.400 . S
C1965 C1959 1.491 . S
C1965 C1964 1.400 . S
C1965 C1966 1.398 . S
C1966 H1954 0.950 . S
C1966 C1965 1.398 . S
C1966 C1967 1.391 . S
C1967 H1955 0.950 . S
C1967 C1963 1.393 . S
C1967 C1966 1.391 . S
H1968 C1976 0.950 . S
H1969 C1981 0.950 . S
H1970 C1978 0.950 . S
H1971 C1980 0.950 . S
H1972 C1982 0.950 . S
H1973 C1984 0.950 . S
H1974 C1986 0.950 . S
H1975 C1987 0.950 . S
C1976 H1968 0.950 . S
C1976 C1977 1.386 . S
C1976 C1978 1.391 . S
C1977 C1976 1.386 . S
C1977 C1981 1.393 . S
C1978 H1970 0.950 . S
C1978 C1976 1.391 . S
C1978 C1979 1.400 . S
C1979 C1978 1.400 . S
C1979 C1980 1.398 . S
C1979 C1985 1.491 . S
C1980 H1971 0.950 . S
C1980 C1979 1.398 . S
C1980 C1981 1.391 . S
C1981 H1969 0.950 . S
C1981 C1977 1.393 . S
C1981 C1980 1.391 . S
C1982 H1972 0.950 . S
C1982 C1983 1.386 . S
C1982 C1984 1.391 . S
C1983 C1982 1.386 . S
C1983 C1987 1.393 . S
C1984 H1973 0.950 . S
C1984 C1982 1.391 . S
C1984 C1985 1.400 . S
C1985 C1979 1.491 . S
C1985 C1984 1.400 . S
C1985 C1986 1.398 . S
C1986 H1974 0.950 . S
C1986 C1985 1.398 . S
C1986 C1987 1.391 . S
C1987 H1975 0.950 . S
C1987 C1983 1.393 . S
C1987 C1986 1.391 . S
H1988 C1996 0.950 . S
H1989 C2001 0.950 . S
H1990 C1998 0.950 . S
H1991 C2000 0.950 . S
H1992 C2002 0.950 . S
H1993 C2004 0.950 . S
H1994 C2006 0.950 . S
H1995 C2007 0.950 . S
C1996 H1988 0.950 . S
C1996 C1997 1.386 . S
C1996 C1998 1.391 . S
C1997 C1996 1.386 . S
C1997 C2001 1.393 . S
C1998 H1990 0.950 . S
C1998 C1996 1.391 . S
C1998 C1999 1.400 . S
C1999 C1998 1.400 . S
C1999 C2000 1.398 . S
C1999 C2005 1.491 . S
C2000 H1991 0.950 . S
C2000 C1999 1.398 . S
C2000 C2001 1.391 . S
C2001 H1989 0.950 . S
C2001 C1997 1.393 . S
C2001 C2000 1.391 . S
C2002 H1992 0.950 . S
C2002 C2003 1.386 . S
C2002 C2004 1.391 . S
C2003 C2002 1.386 . S
C2003 C2007 1.393 . S
C2004 H1993 0.950 . S
C2004 C2002 1.391 . S
C2004 C2005 1.400 . S
C2005 C1999 1.491 . S
C2005 C2004 1.400 . S
C2005 C2006 1.398 . S
C2006 H1994 0.950 . S
C2006 C2005 1.398 . S
C2006 C2007 1.391 . S
C2007 H1995 0.950 . S
C2007 C2003 1.393 . S
C2007 C2006 1.391 . S
H2008 C2016 0.950 . S
H2009 C2021 0.950 . S
H2010 C2018 0.950 . S
H2011 C2020 0.950 . S
H2012 C2022 0.950 . S
H2013 C2024 0.950 . S
H2014 C2026 0.950 . S
H2015 C2027 0.950 . S
C2016 H2008 0.950 . S
C2016 C2017 1.386 . S
C2016 C2018 1.391 . S
C2017 C2016 1.386 . S
C2017 C2021 1.393 . S
C2018 H2010 0.950 . S
C2018 C2016 1.391 . S
C2018 C2019 1.400 . S
C2019 C2018 1.400 . S
C2019 C2020 1.398 . S
C2019 C2025 1.491 . S
C2020 H2011 0.950 . S
C2020 C2019 1.398 . S
C2020 C2021 1.391 . S
C2021 H2009 0.950 . S
C2021 C2017 1.393 . S
C2021 C2020 1.391 . S
C2022 H2012 0.950 . S
C2022 C2023 1.386 . S
C2022 C2024 1.391 . S
C2023 C2022 1.386 . S
C2023 C2027 1.393 . S
C2024 H2013 0.950 . S
C2024 C2022 1.391 . S
C2024 C2025 1.400 . S
C2025 C2019 1.491 . S
C2025 C2024 1.400 . S
C2025 C2026 1.398 . S
C2026 H2014 0.950 . S
C2026 C2025 1.398 . S
C2026 C2027 1.391 . S
C2027 H2015 0.950 . S
C2027 C2023 1.393 . S
C2027 C2026 1.391 . S
H2028 C2036 0.950 . S
H2029 C2041 0.950 . S
H2030 C2038 0.950 . S
H2031 C2040 0.950 . S
H2032 C2042 0.950 . S
H2033 C2044 0.950 . S
H2034 C2046 0.950 . S
H2035 C2047 0.950 . S
C2036 H2028 0.950 . S
C2036 C2037 1.386 . S
C2036 C2038 1.391 . S
C2037 C2036 1.386 . S
C2037 C2041 1.393 . S
C2038 H2030 0.950 . S
C2038 C2036 1.391 . S
C2038 C2039 1.400 . S
C2039 C2038 1.400 . S
C2039 C2040 1.398 . S
C2039 C2045 1.491 . S
C2040 H2031 0.950 . S
C2040 C2039 1.398 . S
C2040 C2041 1.391 . S
C2041 H2029 0.950 . S
C2041 C2037 1.393 . S
C2041 C2040 1.391 . S
C2042 H2032 0.950 . S
C2042 C2043 1.386 . S
C2042 C2044 1.391 . S
C2043 C2042 1.386 . S
C2043 C2047 1.393 . S
C2044 H2033 0.950 . S
C2044 C2042 1.391 . S
C2044 C2045 1.400 . S
C2045 C2039 1.491 . S
C2045 C2044 1.400 . S
C2045 C2046 1.398 . S
C2046 H2034 0.950 . S
C2046 C2045 1.398 . S
C2046 C2047 1.391 . S
C2047 H2035 0.950 . S
C2047 C2043 1.393 . S
C2047 C2046 1.391 . S
C1417 C409 0.843 . S
C1423 C20 0.851 1_556 S
C1437 C489 0.848 . S
C1443 C108 0.847 1_556 S
C1457 C585 0.844 1_556 S
C1463 C205 0.848 . S
C1477 C673 0.844 . S
C1483 C293 0.849 1_556 S
C1497 C1105 0.846 . S
C1503 C724 0.846 . S
C1517 C1193 0.850 . S
C1523 C812 0.843 . S
C1537 C909 0.849 . S
C1543 C1281 0.847 . S
C1557 C1377 0.850 . S
C1563 C997 0.845 . S
C1577 C49 1.234 . S
C1583 C460 1.234 1_556 S
C1597 C557 1.230 . S
C1603 C137 1.236 1_556 S
C1617 C233 1.230 . S
C1623 C645 1.238 1_556 S
C1637 C381 1.229 1_556 S
C1643 C321 1.239 . S
C1657 C1164 1.229 . S
C1663 C753 1.239 . S
C1677 C1252 1.240 . S
C1683 C841 1.227 . S
C1697 C937 1.242 . S
C1703 C1349 1.226 . S
C1717 C1025 1.226 . S
C1723 C1076 1.242 . S
C1737 C1369 1.528 . S
C1743 C29 1.529 . S
C1757 C1113 1.533 . S
C1763 C117 1.525 . S
C1777 C1201 1.529 . S
C1783 C196 1.529 . S
C1797 C1289 1.526 . S
C1803 C284 1.529 . S
C1817 C821 1.526 . S
C1823 C401 1.536 . S
C1837 C900 1.533 . S
C1843 C497 1.530 . S
C1857 C577 1.532 . S
C1863 C988 1.529 . S
C1877 C665 1.526 . S
C1883 C733 1.534 . S
C1897 C1173 1.526 . S
C1903 C225 1.538 . S
C1917 C1261 1.526 . S
C1923 C313 1.538 . S
C1937 C1340 1.535 . S
C1943 C57 1.530 . S
C1957 C145 1.534 . S
C1963 C1085 1.531 . S
C1977 C1017 1.530 . S
C1983 C548 1.529 . S
C1997 C636 1.533 . S
C2003 C761 1.526 . S
C2017 C849 1.534 . S
C2023 C372 1.525 . S
C2037 C929 1.532 . S
C2043 C469 1.523 . S
