# Generated by pormake.
# Topology yfk, (5)-cn, num edge types: 1
# Building blocks:
#     Node 0, Type 0, BuildingBlock: XOMCOT_clean_sbu_1, # of connection points: 5
#     Node 1, Type 0, BuildingBlock: XOMCOT_clean_sbu_1, # of connection points: 5
#     Node 2, Type 0, BuildingBlock: XOMCOT_clean_sbu_1, # of connection points: 5
#     Node 3, Type 0, BuildingBlock: XOMCOT_clean_sbu_1, # of connection points: 5
#     Node 4, Type 0, BuildingBlock: XOMCOT_clean_sbu_1, # of connection points: 5
#     Node 5, Type 0, BuildingBlock: XOMCOT_clean_sbu_1, # of connection points: 5
#     Node 6, Type 0, BuildingBlock: XOMCOT_clean_sbu_1, # of connection points: 5
#     Node 7, Type 0, BuildingBlock: XOMCOT_clean_sbu_1, # of connection points: 5
#     Node 8, Type 0, BuildingBlock: XOMCOT_clean_sbu_1, # of connection points: 5
#     Node 9, Type 0, BuildingBlock: XOMCOT_clean_sbu_1, # of connection points: 5
#     Node 10, Type 0, BuildingBlock: XOMCOT_clean_sbu_1, # of connection points: 5
#     Node 11, Type 0, BuildingBlock: XOMCOT_clean_sbu_1, # of connection points: 5
#     Node 12, Type 0, BuildingBlock: XOMCOT_clean_sbu_1, # of connection points: 5
#     Node 13, Type 0, BuildingBlock: XOMCOT_clean_sbu_1, # of connection points: 5
#     Node 14, Type 0, BuildingBlock: XOMCOT_clean_sbu_1, # of connection points: 5
#     Node 15, Type 0, BuildingBlock: XOMCOT_clean_sbu_1, # of connection points: 5
#     Edge 16, Type (0, 0), BuildingBlock: OJICUG_clean_linker_0, # of connection points: 2
#     Edge 17, Type (0, 0), BuildingBlock: OJICUG_clean_linker_0, # of connection points: 2
#     Edge 18, Type (0, 0), BuildingBlock: OJICUG_clean_linker_0, # of connection points: 2
#     Edge 19, Type (0, 0), BuildingBlock: OJICUG_clean_linker_0, # of connection points: 2
#     Edge 20, Type (0, 0), BuildingBlock: OJICUG_clean_linker_0, # of connection points: 2
#     Edge 21, Type (0, 0), BuildingBlock: OJICUG_clean_linker_0, # of connection points: 2
#     Edge 22, Type (0, 0), BuildingBlock: OJICUG_clean_linker_0, # of connection points: 2
#     Edge 23, Type (0, 0), BuildingBlock: OJICUG_clean_linker_0, # of connection points: 2
#     Edge 24, Type (0, 0), BuildingBlock: OJICUG_clean_linker_0, # of connection points: 2
#     Edge 25, Type (0, 0), BuildingBlock: OJICUG_clean_linker_0, # of connection points: 2
#     Edge 26, Type (0, 0), BuildingBlock: OJICUG_clean_linker_0, # of connection points: 2
#     Edge 27, Type (0, 0), BuildingBlock: OJICUG_clean_linker_0, # of connection points: 2
#     Edge 28, Type (0, 0), BuildingBlock: OJICUG_clean_linker_0, # of connection points: 2
#     Edge 29, Type (0, 0), BuildingBlock: OJICUG_clean_linker_0, # of connection points: 2
#     Edge 30, Type (0, 0), BuildingBlock: OJICUG_clean_linker_0, # of connection points: 2
#     Edge 31, Type (0, 0), BuildingBlock: OJICUG_clean_linker_0, # of connection points: 2
#     Edge 32, Type (0, 0), BuildingBlock: OJICUG_clean_linker_0, # of connection points: 2
#     Edge 33, Type (0, 0), BuildingBlock: OJICUG_clean_linker_0, # of connection points: 2
#     Edge 34, Type (0, 0), BuildingBlock: OJICUG_clean_linker_0, # of connection points: 2
#     Edge 35, Type (0, 0), BuildingBlock: OJICUG_clean_linker_0, # of connection points: 2
#     Edge 36, Type (0, 0), BuildingBlock: OJICUG_clean_linker_0, # of connection points: 2
#     Edge 37, Type (0, 0), BuildingBlock: OJICUG_clean_linker_0, # of connection points: 2
#     Edge 38, Type (0, 0), BuildingBlock: OJICUG_clean_linker_0, # of connection points: 2
#     Edge 39, Type (0, 0), BuildingBlock: OJICUG_clean_linker_0, # of connection points: 2
#     Edge 40, Type (0, 0), BuildingBlock: OJICUG_clean_linker_0, # of connection points: 2
#     Edge 41, Type (0, 0), BuildingBlock: OJICUG_clean_linker_0, # of connection points: 2
#     Edge 42, Type (0, 0), BuildingBlock: OJICUG_clean_linker_0, # of connection points: 2
#     Edge 43, Type (0, 0), BuildingBlock: OJICUG_clean_linker_0, # of connection points: 2
#     Edge 44, Type (0, 0), BuildingBlock: OJICUG_clean_linker_0, # of connection points: 2
#     Edge 45, Type (0, 0), BuildingBlock: OJICUG_clean_linker_0, # of connection points: 2
#     Edge 46, Type (0, 0), BuildingBlock: OJICUG_clean_linker_0, # of connection points: 2
#     Edge 47, Type (0, 0), BuildingBlock: OJICUG_clean_linker_0, # of connection points: 2
#     Edge 48, Type (0, 0), BuildingBlock: OJICUG_clean_linker_0, # of connection points: 2
#     Edge 49, Type (0, 0), BuildingBlock: OJICUG_clean_linker_0, # of connection points: 2
#     Edge 50, Type (0, 0), BuildingBlock: OJICUG_clean_linker_0, # of connection points: 2
#     Edge 51, Type (0, 0), BuildingBlock: OJICUG_clean_linker_0, # of connection points: 2
#     Edge 52, Type (0, 0), BuildingBlock: OJICUG_clean_linker_0, # of connection points: 2
#     Edge 53, Type (0, 0), BuildingBlock: OJICUG_clean_linker_0, # of connection points: 2
#     Edge 54, Type (0, 0), BuildingBlock: OJICUG_clean_linker_0, # of connection points: 2
#     Edge 55, Type (0, 0), BuildingBlock: OJICUG_clean_linker_0, # of connection points: 2
# Relax obj value: 0.592
# Max RMSD: 0.274
# Mean RMSD: 0.274
data_MOF--net-yfk--node1-XOMCOT_clean_sbu_1--edge1-OJICUG_clean_linker_0
_symmetry_space_group_name_H-M    P1
_symmetry_Int_Tables_number       1
_symmetry_cell_setting            triclinic
loop_
_symmetry_equiv_pos_as_xyz
'x, y, z'
_cell_length_a     35.508807
_cell_length_b     35.365356
_cell_length_c     22.651452
_cell_angle_alpha  90.617198
_cell_angle_beta   90.08221
_cell_angle_gamma 89.626759
loop_
_atom_site_label
_atom_site_type_symbol
_atom_site_fract_x
_atom_site_fract_y
_atom_site_fract_z
_atom_type_partial_charge
C0 C 0.21893 0.17063 0.33495 0.0
C1 C 0.22499 0.15196 0.38673 0.0
N2 N 0.20227 0.12164 0.38771 0.0
N3 N 0.19236 0.15249 0.30312 0.0
C4 C 0.18279 0.12263 0.33626 0.0
H5 H 0.23239 0.19656 0.32199 0.0
Co6 Co 0.17679 0.17046 0.23027 0.0
C7 C 0.13025 0.10495 0.17109 0.0
O8 O 0.12617 0.12268 0.12097 0.0
N9 N 0.16413 0.19164 0.1564 0.0
C10 C 0.17575 0.207 0.06312 0.0
C11 C 0.17712 0.17865 0.10395 0.0
C12 C 0.1559 0.22864 0.1463 0.0
N13 N 0.16305 0.23882 0.08979 0.0
O14 O 0.22598 0.15444 0.20017 0.0
H15 H 0.19027 0.15128 0.09705 0.0
H16 H 0.14909 0.24865 0.18124 0.0
O17 O 0.15088 0.11981 0.21227 0.0
C18 C 0.24795 0.183 0.19999 0.0
O19 O 0.2328 0.21665 0.20828 0.0
N20 N 0.13126 0.1882 0.26504 0.0
C21 C 0.07447 0.19127 0.35001 0.0
C22 C 0.06795 0.17456 0.29435 0.0
C23 C 0.09653 0.1741 0.2519 0.0
C24 C 0.13588 0.20994 0.31462 0.0
C25 C 0.10813 0.21124 0.35831 0.0
H26 H 0.0912 0.16038 0.21019 0.0
H27 H 0.16266 0.2233 0.32316 0.0
H28 H 0.16194 0.10226 0.323 0.0
H29 H 0.24377 0.16097 0.42171 0.0
H30 H 0.18579 0.20486 0.01811 0.0
H31 H 1.04195 0.15991 0.28467 0.0
H32 H 0.1137 0.22636 0.39919 0.0
C33 C 0.13836 0.90161 0.60258 0.0
C34 C 0.11454 0.8927 0.55705 0.0
N35 N 0.07962 0.90443 0.57172 0.0
N36 N 0.11873 0.91878 0.64615 0.0
C37 C 0.08283 0.92035 0.62609 0.0
H38 H 0.16835 0.89618 0.6038 0.0
Co39 Co 0.14314 0.93246 0.71552 0.0
C40 C 0.09494 0.99327 0.77031 0.0
O41 O 0.127 1.00937 0.78452 0.0
N42 N 0.17024 0.94364 0.78687 0.0
C43 C 0.18305 0.94122 0.8833 0.0
C44 C 0.15499 0.94182 0.84136 0.0
C45 C 0.20807 0.94317 0.79742 0.0
N46 N 0.21663 0.94175 0.85578 0.0
O47 O 0.13042 0.88272 0.74644 0.0
H48 H 0.12528 0.93847 0.85013 0.0
H49 H 0.22908 0.94009 0.76332 0.0
O50 O 0.0958 0.95961 0.74697 0.0
C51 C 0.15896 0.86169 0.73392 0.0
O52 O 0.18915 0.87817 0.7131 0.0
N53 N 0.15808 0.97755 0.67801 0.0
C54 C 0.17782 1.02792 0.58912 0.0
C55 C 0.14094 1.02654 0.61015 0.0
C56 C 0.13143 1.00029 0.65238 0.0
C57 C 0.19465 0.97974 0.6599 0.0
C58 C 0.20526 1.00503 0.6158 0.0
H59 H 0.10179 0.99599 0.6591 0.0
H60 H 0.21498 0.95915 0.67449 0.0
H61 H 0.05963 0.93282 0.65056 0.0
H62 H 0.12251 0.87965 0.51541 0.0
H63 H 0.17894 0.93894 0.93046 0.0
H64 H 0.11876 1.04361 0.5909 0.0
H65 H 0.23395 1.00447 0.59966 0.0
C66 C 0.87954 1.01774 0.21706 0.0
C67 C 0.86597 1.04329 0.25821 0.0
N68 N 0.89091 0.04503 0.30274 0.0
N69 N 0.91228 1.00254 0.23635 0.0
C70 C 0.91893 1.02085 0.28798 0.0
H71 H 0.86501 1.00868 0.17741 0.0
Co72 Co 0.93313 0.95993 0.19762 0.0
C73 C 1.00726 1.00135 0.2275 0.0
O74 O 1.0016 0.99592 0.28392 0.0
N75 N 0.95242 0.91731 0.15197 0.0
C76 C 0.99136 0.881 0.09778 0.0
C77 C 0.98739 0.91457 0.12832 0.0
C78 C 0.93505 0.88554 0.13096 0.0
N79 N 0.95842 0.86264 0.09938 0.0
O80 O 0.88252 0.93584 0.20531 0.0
H81 H 1.00934 0.93535 0.13333 0.0
H82 H 0.90572 0.87919 0.1374 0.0
O83 O 0.98331 0.9881 0.1896 0.0
C84 C 0.86978 0.90581 0.22914 0.0
O85 O 0.89356 0.88034 0.24922 0.0
N86 N 0.94911 0.93729 0.27121 0.0
C87 C 0.97771 0.91378 0.38034 0.0
C88 C 0.94137 0.92903 0.37624 0.0
C89 C 0.92724 0.93966 0.32105 0.0
C90 C 0.98347 0.9197 0.27453 0.0
C91 C 0.99817 0.90784 0.3283 0.0
H92 H 0.89913 0.95148 0.31906 0.0
H93 H 1.00165 0.91762 0.23689 0.0
H94 H 0.94125 1.01366 0.31814 0.0
H95 H 0.83904 0.05781 0.2571 0.0
H96 H 1.01646 0.8711 0.07517 0.0
H97 H 0.92436 0.93343 0.41539 0.0
H98 H 1.02657 0.89647 0.32945 0.0
C99 C 0.91689 0.19206 0.59199 0.0
C100 C 0.93506 0.19811 0.53995 0.0
N101 N 0.96814 0.17938 0.54101 0.0
N102 N 0.93805 0.16966 0.62668 0.0
C103 C 0.96956 0.16241 0.59455 0.0
H104 H 0.88927 0.20278 0.60349 0.0
Co105 Co 0.91597 0.15595 0.69792 0.0
C106 C 0.96284 0.0941 0.75229 0.0
O107 O 0.93033 0.07919 0.76652 0.0
N108 N 0.89081 0.14489 0.76989 0.0
C109 C 0.87919 0.14976 0.86632 0.0
C110 C 0.90666 0.14981 0.82362 0.0
C111 C 0.85331 0.14217 0.78143 0.0
N112 N 0.84549 0.14535 0.83989 0.0
O113 O 0.9328 0.2043 0.73137 0.0
H114 H 0.93615 0.1557 0.83103 0.0
H115 H 0.83183 0.14136 0.74764 0.0
O116 O 0.96288 0.12629 0.72526 0.0
C117 C 0.90499 0.22757 0.7287 0.0
O118 O 0.87178 0.21403 0.71447 0.0
N119 N 0.89664 0.11301 0.65826 0.0
C120 C 0.88049 0.08356 0.54672 0.0
C121 C 0.91136 0.07015 0.57864 0.0
C122 C 0.91964 0.08598 0.63337 0.0
C123 C 0.86309 0.1216 0.63175 0.0
C124 C 0.85455 0.10745 0.57525 0.0
H125 H 0.94765 0.08061 0.64882 0.0
H126 H 0.84611 0.14461 0.64904 0.0
H127 H 0.99232 0.14427 0.60916 0.0
H128 H 0.92469 0.21525 0.50404 0.0
H129 H 0.88359 0.15433 0.91315 0.0
H130 H 0.93183 0.05132 0.55812 0.0
H131 H 0.83039 0.11856 0.55174 0.0
C132 C 0.1176 0.36279 0.70172 0.0
C133 C 0.12558 0.36441 0.64238 0.0
N134 N 0.1324 0.40065 0.62891 0.0
N135 N 0.12016 0.39781 0.72559 0.0
C136 C 0.1282 0.42031 0.68004 0.0
H137 H 0.1152 0.33723 0.72721 0.0
Co138 Co 0.12926 0.40623 0.80537 0.0
C139 C 0.07591 0.4743 0.82564 0.0
O140 O 0.05687 0.45452 0.86397 0.0
N141 N 0.14129 0.41087 0.88629 0.0
C142 C 0.13765 0.41324 -0.01564 0.0
C143 C 0.12903 0.4319 0.93258 0.0
C144 C 0.1597 0.38148 0.91127 0.0
N145 N 0.15624 0.38092 0.97069 0.0
O146 O 0.17983 0.42592 0.78499 0.0
H147 H 0.11234 0.45736 0.92965 0.0
H148 H 0.16988 0.35763 0.8854 0.0
O149 O 0.10586 0.45982 0.80154 0.0
C150 C 0.20336 0.40039 0.76817 0.0
O151 O 0.19239 0.36501 0.77023 0.0
N152 N 0.08098 0.38476 0.8235 0.0
C153 C 1.00853 0.3703 0.86251 0.0
C154 C 1.01433 0.38565 0.80656 0.0
C155 C 0.0508 0.39319 0.78818 0.0
C156 C 0.07547 0.36226 0.87162 0.0
C157 C 1.03933 0.35641 0.8938 0.0
H158 H 0.05411 0.40988 0.74889 0.0
H159 H 0.09859 0.35054 0.89589 0.0
H160 H 0.13726 0.44924 0.68607 0.0
H161 H 0.13113 0.34041 0.61352 0.0
H162 H 0.12844 0.4215 0.02818 0.0
H163 H 0.99094 0.39663 0.78101 0.0
H164 H 1.03571 0.34353 0.93657 0.0
C165 C 0.36038 0.9714 0.24994 0.0
C166 C 0.3655 0.96201 0.30826 0.0
N167 N 0.40189 0.95252 0.31576 0.0
N168 N 0.39328 0.96692 0.2209 0.0
C169 C 0.41814 0.95629 0.2623 0.0
H170 H 0.33353 0.9761 0.22853 0.0
Co171 Co 0.39612 0.95833 0.14028 0.0
C172 C 0.46634 1.00467 0.11189 0.0
O173 O 0.44667 1.02273 0.07194 0.0
N174 N 0.39454 0.94671 0.05867 0.0
C175 C 0.39338 0.94637 0.9604 0.0
C176 C 0.4153 0.9532 0.01005 0.0
C177 C 0.36154 0.93326 0.03726 0.0
N178 N 0.35901 0.93464 -0.02233 0.0
O179 O 0.41276 0.90557 0.1564 0.0
H180 H 0.44355 0.96422 0.00996 0.0
H181 H 0.33788 0.92775 0.06587 0.0
O182 O 0.45114 0.97671 0.13927 0.0
C183 C 0.38777 0.88317 0.17659 0.0
O184 O 0.35302 0.89598 0.18038 0.0
N185 N 0.37879 1.00956 0.12641 0.0
C186 C 0.37583 0.08403 0.08888 0.0
C187 C 0.39108 0.07536 0.14413 0.0
C188 C 0.39277 1.03787 0.16178 0.0
C189 C 0.35649 1.01924 0.07932 0.0
C190 C 0.35627 0.05617 0.05787 0.0
H191 H 0.40977 1.03166 0.20005 0.0
H192 H 0.34087 0.99858 0.0548 0.0
H193 H 0.44584 0.94518 0.25156 0.0
H194 H 0.34345 0.95764 0.34038 0.0
H195 H 0.40166 0.95167 0.91531 0.0
H196 H 0.40636 0.09646 0.16947 0.0
H197 H 0.34325 0.06224 0.01572 0.0
C198 C 0.96764 0.73327 0.70059 0.0
C199 C 0.95799 0.72933 0.64199 0.0
N200 N 0.95102 0.69258 0.63119 0.0
N201 N 0.96596 0.6992 0.72665 0.0
C202 C 0.95676 0.67493 0.68308 0.0
H203 H 0.97057 0.75979 0.72435 0.0
Co204 Co 0.95882 0.69349 0.80716 0.0
C205 C 1.01284 0.62647 0.82853 0.0
O206 O 1.03136 0.64727 0.86696 0.0
N207 N 0.94866 0.69142 0.88898 0.0
C208 C 0.95427 0.68812 -0.0135 0.0
C209 C 0.95979 0.66902 0.93364 0.0
C210 C 0.93331 0.72215 0.91626 0.0
N211 N 0.93845 0.72211 -0.02461 0.0
O212 O 0.90838 0.67234 0.79059 0.0
H213 H 0.97368 0.64199 0.92874 0.0
H214 H 0.92444 0.74696 0.89216 0.0
O215 O 0.98273 0.64009 0.80414 0.0
C216 C 0.88371 0.69645 0.77367 0.0
O217 O 0.89345 0.73224 0.77346 0.0
N218 N 1.00741 0.71592 0.82159 0.0
C219 C 0.08064 0.7296 0.8583 0.0
C220 C 0.0738 0.71264 0.80317 0.0
C221 C 1.03692 0.70554 0.78595 0.0
C222 C 1.01409 0.74037 0.86778 0.0
C223 C 0.05061 0.74584 0.88905 0.0
H224 H 1.03269 0.68757 0.74769 0.0
H225 H 0.99166 0.75412 0.89127 0.0
H226 H 0.94789 0.64624 0.69145 0.0
H227 H 0.95149 0.75216 0.6121 0.0
H228 H 0.96423 0.67904 0.0293 0.0
H229 H 0.09656 0.69998 0.77784 0.0
H230 H 0.05503 0.76024 0.93091 0.0
C231 C 0.72948 0.10945 0.23739 0.0
C232 C 0.73028 0.11739 0.29689 0.0
N233 N 0.69502 0.12593 0.31419 0.0
N234 N 0.69392 0.11345 0.2171 0.0
C235 C 0.67349 0.12261 0.26505 0.0
H236 H 0.7539 0.10575 0.20937 0.0
Co237 Co 0.68396 0.12168 0.13754 0.0
C238 C 0.61714 0.06767 0.11848 0.0
O239 O 0.63719 0.04886 0.07922 0.0
N240 N 0.67838 0.13283 0.05678 0.0
C241 C 0.67419 0.12933 0.95887 0.0
C242 C 0.65628 0.12144 0.01156 0.0
C243 C 0.7077 0.15006 0.03042 0.0
N244 N 0.70724 0.14649 0.97088 0.0
O245 O 0.66316 0.17251 0.15852 0.0
H246 H 0.63041 0.10591 0.01576 0.0
H247 H 0.73197 0.15948 0.05534 0.0
O248 O 0.63107 0.09772 0.14326 0.0
C249 C 0.68754 0.19696 0.17523 0.0
O250 O 0.72321 0.18693 0.17291 0.0
N251 N 0.70609 0.07309 0.119 0.0
C252 C 0.7254 0.99962 0.08557 0.0
C253 C 0.70796 1.00679 0.13992 0.0
C254 C 0.69802 1.04355 0.15538 0.0
C255 C 0.72917 0.06674 0.07133 0.0
C256 C 0.7376 1.02996 0.0521 0.0
H257 H 0.68055 0.04752 0.19398 0.0
H258 H 0.74002 0.08946 0.04569 0.0
H259 H 0.64474 0.13264 0.26217 0.0
H260 H 0.75533 0.12172 0.32336 0.0
H261 H 0.66471 0.1206 0.91543 0.0
H262 H 0.69803 0.98384 0.16697 0.0
H263 H 0.75177 1.02531 0.01031 0.0
C264 C 0.68828 0.66259 0.85157 0.0
C265 C 0.70192 0.64309 0.89875 0.0
N266 N 0.69678 0.60593 0.88832 0.0
N267 N 0.67436 0.63811 0.81132 0.0
C268 C 0.67995 0.60359 0.83464 0.0
H269 H 0.68811 0.69298 0.84691 0.0
Co270 Co 0.65705 0.65774 0.74134 0.0
C271 C 0.59493 0.60767 0.69593 0.0
O272 O 0.57845 0.64009 0.68407 0.0
N273 N 0.64271 0.68095 0.66956 0.0
C274 C 0.64342 0.6907 0.57246 0.0
C275 C 0.64362 0.66382 0.61596 0.0
C276 C 0.64268 0.71844 0.65703 0.0
N277 N 0.64307 0.72511 0.5984 0.0
O278 O 0.70594 0.64406 0.70711 0.0
H279 H 0.64744 0.63376 0.6088 0.0
H280 H 0.6469 0.74051 0.68953 0.0
O281 O 0.62935 0.60821 0.7161 0.0
C282 C 0.72671 0.67312 0.71658 0.0
O283 O 0.71001 0.7044 0.73469 0.0
N284 N 0.61313 0.67376 0.78244 0.0
C285 C 0.56936 0.6945 0.87984 0.0
C286 C 0.57151 0.6569 0.86123 0.0
C287 C 0.59411 0.64704 0.81387 0.0
C288 C 0.60973 0.71104 0.79835 0.0
C289 C 0.58741 0.72218 0.84666 0.0
H290 H 0.59964 0.61727 0.80808 0.0
H291 H 0.62752 0.73188 0.77865 0.0
H292 H 0.6717 0.5775 0.81298 0.0
H293 H 0.71312 0.65554 0.93889 0.0
H294 H 0.64558 0.68533 0.52544 0.0
H295 H 0.55801 0.63469 0.88598 0.0
H296 H 0.58671 0.75156 0.86063 0.0
C297 C 0.6585 0.39619 0.11132 0.0
C298 C 0.64004 0.38103 0.06392 0.0
N299 N 0.60278 0.38355 0.07417 0.0
N300 N 0.63324 0.4086 0.15148 0.0
C301 C 0.59929 0.40053 0.12785 0.0
H302 H 0.68871 0.39789 0.11663 0.0
Co303 Co 0.65175 0.42519 0.22304 0.0
C304 C 0.60045 0.48777 0.26759 0.0
O305 O 0.63233 0.50403 0.28228 0.0
N306 N 0.67416 0.4388 0.29654 0.0
C307 C 0.68386 0.43987 0.39392 0.0
C308 C 0.65707 0.43878 0.34979 0.0
C309 C 0.71149 0.43892 0.30997 0.0
N310 N 0.7182 0.43979 0.36876 0.0
O311 O 0.63792 0.37562 0.25446 0.0
H312 H 0.62711 0.43557 0.35635 0.0
H313 H 0.73354 0.43433 0.27803 0.0
O314 O 0.60175 0.45328 0.24658 0.0
C315 C 0.66674 0.35434 0.24431 0.0
O316 O 0.69815 0.37098 0.22888 0.0
N317 N 0.66801 0.46959 0.18439 0.0
C318 C 0.68961 0.51303 0.08821 0.0
C319 C 0.65206 0.51181 0.10569 0.0
C320 C 0.64175 0.48923 0.15231 0.0
C321 C 0.70527 0.47243 0.16997 0.0
C322 C 0.71681 0.49449 0.12228 0.0
H323 H 0.61206 0.484 0.15646 0.0
H324 H 0.72577 0.45404 0.18978 0.0
H325 H 0.5728 0.40656 0.14967 0.0
H326 H 0.65313 0.37023 0.02399 0.0
H327 H 0.67843 0.43916 0.4409 0.0
H328 H 0.63019 0.52569 0.08026 0.0
H329 H 0.74613 0.49436 0.10919 0.0
C330 C 0.39938 0.41901 0.83915 0.0
C331 C 0.38329 0.43778 0.88567 0.0
N332 N 0.38624 0.47516 0.87629 0.0
N333 N 0.41292 0.44417 0.80049 0.0
C334 C 0.40449 0.47839 0.82405 0.0
H335 H 0.40075 0.38866 0.83324 0.0
Co336 Co 0.43056 0.42527 0.72972 0.0
C337 C 0.494 0.47498 0.68924 0.0
O338 O 0.51024 0.44261 0.6753 0.0
N339 N 0.44525 0.40258 0.65685 0.0
C340 C 0.44751 0.39278 0.55943 0.0
C341 C 0.44546 0.41971 0.60381 0.0
C342 C 0.44636 0.36511 0.64304 0.0
N343 N 0.44793 0.35836 0.58425 0.0
O344 O 0.38254 0.44116 0.69521 0.0
H345 H 0.44177 0.44977 0.5975 0.0
H346 H 0.44207 0.34293 0.67447 0.0
O347 O 0.45952 0.47445 0.70886 0.0
C348 C 0.36026 0.41314 0.70237 0.0
O349 O 0.37542 0.38056 0.71702 0.0
N350 N 0.47355 0.40737 0.77107 0.0
C351 C 0.51363 0.3846 0.87066 0.0
C352 C 0.51435 0.42211 0.85267 0.0
C353 C 0.49343 0.43307 0.80423 0.0
C354 C 0.47452 0.37002 0.78622 0.0
C355 C 0.49492 0.35786 0.83565 0.0
H356 H 0.48942 0.46306 0.79955 0.0
H357 H 0.45559 0.35026 0.76569 0.0
H358 H 0.41097 0.50487 0.80299 0.0
H359 H 0.37135 0.42478 0.92436 0.0
H360 H 0.44711 0.39812 0.51247 0.0
H361 H 0.52832 0.4436 0.87907 0.0
H362 H 0.49328 0.32865 0.84924 0.0
C363 C 0.41406 0.68023 0.10498 0.0
C364 C 0.43391 0.69485 0.05911 0.0
N365 N 0.4708 0.69293 0.07256 0.0
N366 N 0.43811 0.66867 0.14724 0.0
C367 C 0.47269 0.67678 0.1265 0.0
H368 H 0.38373 0.67858 0.10793 0.0
Co369 Co 0.418 0.65348 0.21793 0.0
C370 C 0.4678 0.59084 0.26496 0.0
O371 O 0.43557 0.57506 0.27836 0.0
N372 N 0.39418 0.64133 0.29033 0.0
C373 C 0.38331 0.64282 0.38734 0.0
C374 C 0.41062 0.64231 0.34415 0.0
C375 C 0.35668 0.64214 0.30243 0.0
N376 N 0.34929 0.64289 0.361 0.0
O377 O 0.4323 0.70308 0.25008 0.0
H378 H 0.44054 0.64528 0.35168 0.0
H379 H 0.33508 0.64628 0.26963 0.0
O380 O 0.46711 0.62498 0.24371 0.0
C381 C 0.40429 0.72503 0.23861 0.0
O382 O 0.37279 0.70922 0.22091 0.0
N383 N 0.4015 0.6089 0.17857 0.0
C384 C 0.38115 0.56656 0.07917 0.0
C385 C 0.41814 0.56618 0.09958 0.0
C386 C 0.42791 0.58821 0.14786 0.0
C387 C 0.36454 0.60721 0.16162 0.0
C388 C 0.35361 0.58579 0.11206 0.0
H389 H 0.45763 0.59249 0.15399 0.0
H390 H 0.34415 0.62627 0.18074 0.0
H391 H 0.49846 0.67166 0.15076 0.0
H392 H 0.42204 0.70513 0.01823 0.0
H393 H 0.38815 0.64476 0.43446 0.0
H394 H 0.4402 0.55175 0.07493 0.0
H395 H 0.32473 0.58704 0.09669 0.0
C396 C 0.62781 0.8493 0.19723 0.0
C397 C 0.6398 0.85167 0.13959 0.0
N398 N 0.64824 0.88796 0.12915 0.0
N399 N 0.62956 0.88386 0.22294 0.0
C400 C 0.64141 0.90687 0.18015 0.0
H401 H 0.62305 0.8234 0.221 0.0
Co402 Co 0.63445 0.89083 0.30359 0.0
C403 C 0.58451 0.96132 0.32145 0.0
O404 O 0.56368 0.94228 0.35841 0.0
N405 N 0.64233 0.89409 0.38553 0.0
C406 C 0.63833 0.89793 0.48336 0.0
C407 C 0.63214 0.91685 0.431 0.0
C408 C 0.65721 0.86321 0.41151 0.0
N409 N 0.65331 0.86357 0.47082 0.0
O410 O 0.68633 0.90797 0.29098 0.0
H411 H 0.61896 0.94427 0.42705 0.0
H412 H 0.66549 0.83848 0.3861 0.0
O413 O 0.61419 0.94548 0.29871 0.0
C414 C 0.71055 0.88177 0.28062 0.0
O415 O 0.699 0.84656 0.28146 0.0
N416 N 0.5844 0.87183 0.31453 0.0
C417 C 0.50981 0.86251 0.34646 0.0
C418 C 0.51878 0.87858 0.29206 0.0
C419 C 0.55641 0.8833 0.27704 0.0
C420 C 0.57541 0.84862 0.36045 0.0
C421 C 0.53816 0.84521 0.37914 0.0
H422 H 0.56265 0.90031 0.23899 0.0
H423 H 0.59662 0.83447 0.38577 0.0
H424 H 0.65072 0.93549 0.18879 0.0
H425 H 0.64621 0.82814 0.11026 0.0
H426 H 0.63017 0.90793 0.52682 0.0
H427 H 0.49725 0.89206 0.26543 0.0
H428 H 0.53195 0.83158 0.42057 0.0
C429 C 0.85772 0.47492 0.76666 0.0
C430 C 0.86299 0.46572 0.82501 0.0
N431 N 0.89955 0.457 0.83266 0.0
N432 N 0.89073 0.47111 0.73768 0.0
C433 C 0.91577 0.46105 0.77921 0.0
H434 H 0.8308 0.47903 0.74519 0.0
Co435 Co 0.89387 0.46266 0.65691 0.0
C436 C 0.96173 0.51257 0.6287 0.0
O437 O 0.94097 0.53099 0.59047 0.0
N438 N 0.89322 0.45127 0.57558 0.0
C439 C 0.89289 0.45101 0.47746 0.0
C440 C 0.91391 0.45918 0.52747 0.0
C441 C 0.86141 0.43567 0.55361 0.0
N442 N 0.85918 0.43714 0.49406 0.0
O443 O 0.91319 0.41116 0.67199 0.0
H444 H 0.94137 0.47204 0.52796 0.0
H445 H 0.83807 0.4285 0.5819 0.0
O446 O 0.94772 0.48373 0.6554 0.0
C447 C 0.88905 0.38777 0.69172 0.0
O448 O 0.85404 0.39952 0.69739 0.0
N449 N 0.87329 0.51239 0.64343 0.0
C450 C 0.86221 0.58593 0.6058 0.0
C451 C 0.88012 0.57904 0.65978 0.0
C452 C 0.88583 0.54194 0.67753 0.0
C453 C 0.84843 0.51972 0.59851 0.0
C454 C 0.84411 0.5563 0.57682 0.0
H455 H 0.90432 0.53725 0.71468 0.0
H456 H 0.83356 0.49757 0.5761 0.0
H457 H 0.94371 0.45057 0.76858 0.0
H458 H 0.841 0.46095 0.8571 0.0
H459 H 0.90117 0.45703 0.43262 0.0
H460 H 0.89413 0.60162 0.68373 0.0
H461 H 0.829 0.56093 0.53592 0.0
C462 C 0.49396 0.22331 0.18683 0.0
C463 C 0.48454 0.21936 0.12811 0.0
N464 N 0.47473 0.18317 0.11822 0.0
N465 N 0.48936 0.18986 0.2139 0.0
C466 C 0.47873 0.16583 0.17076 0.0
H467 H 0.49842 0.24986 0.20987 0.0
Co468 Co 0.47917 0.18554 0.29407 0.0
C469 C 0.52945 0.11667 0.32047 0.0
O470 O 0.54813 0.13708 0.35921 0.0
N471 N 0.46602 0.18455 0.37442 0.0
C472 C 0.46498 0.18375 0.47247 0.0
C473 C 0.4747 0.1636 0.42196 0.0
C474 C 0.44857 0.21554 0.39701 0.0
N475 N 0.44947 0.21716 0.45666 0.0
O476 O 0.42862 0.16696 0.27422 0.0
H477 H 0.4894 0.13682 0.42091 0.0
H478 H 0.44085 0.23916 0.36952 0.0
O479 O 0.5006 0.13133 0.29409 0.0
C480 C 0.4064 0.19312 0.25664 0.0
O481 O 0.41926 0.22788 0.25633 0.0
N482 N 0.52781 0.2063 0.31261 0.0
C483 C 0.59981 0.2197 0.35507 0.0
C484 C 0.59459 0.20316 0.29918 0.0
C485 C 0.55831 0.19578 0.27935 0.0
C486 C 0.53315 0.2305 0.35962 0.0
C487 C 0.56894 0.23573 0.38379 0.0
H488 H 0.55522 0.17795 0.24065 0.0
H489 H 0.51009 0.24414 0.3817 0.0
H490 H 0.46724 0.1382 0.17985 0.0
H491 H 0.47997 0.24224 0.09749 0.0
H492 H 0.47131 0.17532 0.51717 0.0
H493 H 0.61812 0.1912 0.27501 0.0
H494 H 0.57209 0.24983 0.42619 0.0
C495 C 0.22088 0.61635 0.75649 0.0
C496 C 0.21858 0.62677 0.81508 0.0
N497 N 0.1826 0.63611 0.82685 0.0
N498 N 0.18656 0.61979 0.73135 0.0
C499 C 0.16375 0.63097 0.77552 0.0
H500 H 0.24668 0.61177 0.73203 0.0
Co501 Co 0.18003 0.62734 0.65094 0.0
C502 C 0.11345 0.57377 0.62856 0.0
O503 O 0.134 0.55456 0.59047 0.0
N504 N 0.17716 0.63783 0.56972 0.0
C505 C 0.17568 0.63394 0.47178 0.0
C506 C 0.1562 0.62651 0.52321 0.0
C507 C 0.20733 0.65471 0.54527 0.0
N508 N 0.20869 0.65064 0.48583 0.0
O509 O 0.1588 0.67801 0.66841 0.0
H510 H 0.13003 0.61133 0.52581 0.0
H511 H 0.2308 0.66412 0.57196 0.0
O512 O 0.12715 0.60384 0.65332 0.0
C513 C 0.18286 0.70255 0.68567 0.0
O514 O 0.21847 0.69221 0.68696 0.0
N515 N 0.20278 0.57868 0.63508 0.0
C516 C 0.21869 0.50567 0.59659 0.0
C517 C 0.20187 0.51192 0.65178 0.0
C518 C 0.19344 0.54872 0.66977 0.0
C519 C 0.22714 0.57266 0.58892 0.0
C520 C 0.23367 0.53625 0.56671 0.0
H521 H 0.17565 0.55253 0.70805 0.0
H522 H 0.24004 0.59554 0.56616 0.0
H523 H 0.13558 0.64175 0.76782 0.0
H524 H 0.24218 0.63219 0.84423 0.0
H525 H 0.16721 0.62502 0.42794 0.0
H526 H 0.19054 0.48866 0.67668 0.0
H527 H 0.24797 0.53228 0.52487 0.0
C528 C 0.18851 0.32034 -0.00796 0.0
C529 C 0.16113 0.34764 0.00698 0.0
H530 H 0.21106 0.26512 0.00686 0.0
C531 C 0.1361 0.33959 0.05351 0.0
H532 H 0.20857 0.32571 0.95722 0.0
C533 C 0.1374 0.30443 0.08216 0.0
C534 C 0.16356 0.27644 0.06475 0.0
H535 H 0.11433 0.35967 0.06595 0.0
H536 H 0.11694 0.29855 0.11619 0.0
C537 C 0.18972 0.28538 0.02037 0.0
C538 C 0.25737 0.9173 0.9364 0.0
C539 C 0.25341 0.93736 0.88335 0.0
H540 H 0.29366 0.89938 0.0063 0.0
C541 C 0.28581 0.95384 0.85915 0.0
H542 H 0.2334 0.90336 0.95575 0.0
C543 C 0.32075 0.95182 0.88867 0.0
C544 C 0.32436 0.93292 0.94306 0.0
H545 H 0.28386 0.96951 0.81845 0.0
H546 H 0.3445 0.96631 0.86976 0.0
C547 C 0.29219 0.91495 0.96551 0.0
C548 C 0.97818 0.79697 0.07644 0.0
C549 C 0.95096 0.82592 0.07302 0.0
H550 H 0.99524 0.74126 0.04928 0.0
C551 C 0.91789 0.81897 0.04046 0.0
H552 H 1.00387 0.80144 0.10129 0.0
C553 C 0.9131 0.78444 0.00975 0.0
C554 C 0.94076 0.75574 0.01245 0.0
H555 H 0.89657 0.84084 0.03668 0.0
H556 H 0.88815 0.78034 -0.01702 0.0
C557 C 0.97303 0.76231 0.0471 0.0
C558 C 0.7782 0.12673 0.84939 0.0
C559 C 0.80902 0.14847 0.86845 0.0
H560 H 0.72179 0.10866 0.86686 0.0
C561 C 0.80414 0.17243 0.91789 0.0
H562 H 0.78102 0.10804 0.81146 0.0
C563 C 0.77011 0.17337 0.9491 0.0
C564 C 0.73986 0.15 0.93247 0.0
H565 H 0.8269 0.19033 0.93295 0.0
H566 H 0.76787 0.19187 -0.0127 0.0
C567 C 0.74411 0.1273 0.88116 0.0
C568 C 0.67147 0.76373 0.51987 0.0
C569 C 0.64821 0.76105 0.56973 0.0
H570 H 0.69305 0.79857 0.45154 0.0
C571 C 0.62973 0.79386 0.59039 0.0
H572 H 0.68691 0.73922 0.5038 0.0
C573 C 0.6327 0.82807 0.55975 0.0
C574 C 0.65472 0.83039 0.50812 0.0
H575 H 0.61176 0.79264 0.62889 0.0
H576 H 0.61645 0.85213 0.5753 0.0
C577 C 0.675 0.79793 0.48993 0.0
C578 C 0.82148 0.45191 0.40374 0.0
C579 C 0.82481 0.43423 0.4591 0.0
H580 H 0.78513 0.46768 0.33202 0.0
C581 C 0.79255 0.41659 0.4821 0.0
H582 H 0.84521 0.4661 0.38426 0.0
C583 C 0.75789 0.41821 0.45244 0.0
C584 C 0.75439 0.43693 0.39824 0.0
H585 H 0.79375 0.40187 0.52365 0.0
H586 H 0.73377 0.40465 0.47202 0.0
C587 C 0.78683 0.45304 0.37367 0.0
C588 C 0.4632 0.25503 0.54789 0.0
C589 C 0.44525 0.25135 0.4925 0.0
H590 H 0.47822 0.29187 0.62014 0.0
C591 C 0.42625 0.28329 0.47011 0.0
H592 H 0.47839 0.23154 0.56691 0.0
C593 C 0.42695 0.3181 0.50023 0.0
C594 C 0.44601 0.322 0.55434 0.0
H595 H 0.41126 0.28174 0.42858 0.0
H596 H 0.41247 0.34205 0.48108 0.0
C597 C 0.46335 0.28981 0.57848 0.0
C598 C 0.30924 0.66935 0.44123 0.0
C599 C 0.31295 0.64747 0.38937 0.0
H600 H 0.27326 0.68935 0.51042 0.0
C601 C 0.28071 0.62969 0.36644 0.0
H602 H 0.33325 0.68424 0.45928 0.0
C603 C 0.2461 0.63203 0.3964 0.0
C604 C 0.24262 0.6527 0.44985 0.0
H605 H 0.28264 0.61273 0.32647 0.0
H606 H 0.22258 0.61636 0.37856 0.0
C607 C 0.2746 0.67227 0.47059 0.0
C608 C 0.31066 0.21238 0.18935 0.0
C609 C 0.28983 0.18008 0.20317 0.0
H610 H 0.36264 0.24169 0.19559 0.0
C611 C 0.30881 0.1495 0.2298 0.0
H612 H 0.29719 0.23639 0.16855 0.0
C613 C 0.34732 0.15246 0.2454 0.0
C614 C 0.36716 0.18619 0.23518 0.0
H615 H 0.29347 0.12435 0.24173 0.0
H616 H 0.36096 0.12918 0.26778 0.0
C617 C 0.34839 0.21552 0.20546 0.0
C618 C 0.13039 0.79722 0.71073 0.0
C619 C 0.15946 0.81951 0.7351 0.0
H620 H 0.1146 0.74242 0.67561 0.0
C621 C 0.19395 0.80182 0.74801 0.0
H622 H 0.10371 0.81015 0.69908 0.0
C623 C 0.20044 0.76393 0.73344 0.0
C624 C 0.17256 0.74185 0.70579 0.0
H625 H 0.21699 0.81805 0.76654 0.0
H626 H 0.22809 0.75226 0.74255 0.0
C627 C 0.13686 0.75858 0.69643 0.0
C628 C 0.81502 0.86466 0.25427 0.0
C629 C 0.82847 0.90047 0.23877 0.0
H630 H 0.76816 0.831 0.27942 0.0
C631 C 0.80246 0.93081 0.23674 0.0
H632 H 0.83399 0.84059 0.25639 0.0
C633 C 0.76415 0.92536 0.2509 0.0
C634 C 0.75099 0.88937 0.26676 0.0
H635 H 0.81181 0.95888 0.22534 0.0
H636 H 0.74488 0.94918 0.24904 0.0
C637 C 0.77703 0.85918 0.26767 0.0
C638 C 0.87259 0.32826 0.74382 0.0
C639 C 0.89867 0.34814 0.70948 0.0
H640 H 0.85546 0.27534 0.77911 0.0
C641 C 0.9314 0.32875 0.6904 0.0
H642 H 0.84736 0.34208 0.76035 0.0
C643 C 0.93608 0.28963 0.70147 0.0
C644 C 0.90831 0.26954 0.73242 0.0
H645 H 0.95219 0.34317 0.6641 0.0
H646 H 0.95984 0.27467 0.68218 0.0
C647 C 0.87743 0.28984 0.7553 0.0
C648 C 0.29761 0.38329 0.69339 0.0
C649 C 0.31826 0.41609 0.70624 0.0
H650 H 0.24658 0.35279 0.703 0.0
C651 C 0.29936 0.4464 0.73485 0.0
H652 H 0.31106 0.35933 0.67165 0.0
C653 C 0.26128 0.44273 0.753 0.0
C654 C 0.24181 0.40846 0.74372 0.0
H655 H 0.3146 0.47181 0.74664 0.0
H656 H 0.24787 0.46581 0.77689 0.0
C657 C 0.26044 0.37942 0.71216 0.0
C658 C 0.36809 0.82498 0.23019 0.0
C659 C 0.39629 0.84401 0.19876 0.0
H660 H 0.34963 0.77381 0.2698 0.0
C661 C 0.43069 0.82466 0.1888 0.0
H662 H 0.34144 0.8387 0.24 0.0
C663 C 0.43544 0.7865 0.2065 0.0
C664 C 0.40606 0.76725 0.23521 0.0
H665 H 0.4532 0.83836 0.16518 0.0
H666 H 0.46099 0.77146 0.19443 0.0
C667 C 0.37297 0.78761 0.24823 0.0
C668 C 0.82832 0.6505 0.76097 0.0
C669 C 0.8452 0.68599 0.75156 0.0
H670 H 0.77706 0.61776 0.75647 0.0
C671 C 0.82404 0.71355 0.72156 0.0
H672 H 0.84379 0.62846 0.78352 0.0
C673 C 0.78684 0.70703 0.7046 0.0
C674 C 0.7688 0.67292 0.71765 0.0
H675 H 0.8359 0.74098 0.71224 0.0
H676 H 0.77129 0.72992 0.68417 0.0
C677 C 0.79027 0.64411 0.74456 0.0
C678 C 0.64253 0.25366 0.19229 0.0
C679 C 0.67777 0.23553 0.19993 0.0
H680 H 0.61053 0.3058 0.2012 0.0
C681 C 0.70598 0.25561 0.23039 0.0
H682 H 0.62003 0.23916 0.16924 0.0
C683 C 0.70024 0.29279 0.24987 0.0
C684 C 0.66621 0.31203 0.2392 0.0
H685 H 0.73334 0.2429 0.23822 0.0
H686 H 0.72357 0.30733 0.27081 0.0
C687 C 0.63686 0.29169 0.21146 0.0
C688 C 0.07823 0.05996 0.13926 0.0
C689 C 0.10246 0.07399 0.18409 0.0
H690 H 1.0296 1.02642 0.11685 0.0
C691 C 0.09628 0.06148 0.24188 0.0
H692 H 0.08177 0.06882 0.09401 0.0
C693 C 0.06629 1.03716 0.25481 0.0
C694 C 1.04109 1.02439 0.21054 0.0
H695 H 0.11363 0.07157 0.27781 0.0
H696 H 0.06233 1.02921 0.30041 0.0
C697 C 0.04806 1.03559 0.15224 0.0
C698 C 1.02403 1.00432 0.7618 0.0
C699 C 0.06067 1.01862 0.76659 0.0
H700 H 0.96503 1.01664 0.7544 0.0
C701 C 0.06497 0.05847 0.76542 0.0
H702 H 1.01943 0.97408 0.76184 0.0
C703 C 1.03379 0.08311 0.75967 0.0
C704 C 0.9971 0.06882 0.75632 0.0
H705 H 0.09273 0.07086 0.76802 0.0
H706 H 1.0384 0.11334 0.75875 0.0
C707 C 0.99279 1.029 0.75753 0.0
C708 C 0.0841 0.54518 0.8144 0.0
C709 C 0.06094 0.51318 0.81233 0.0
H710 H 0.08681 0.60571 0.82186 0.0
C711 C 1.02159 0.51911 0.80749 0.0
H712 H 0.11433 0.5419 0.8187 0.0
C713 C 1.00571 0.55585 0.80777 0.0
C714 C 1.0287 0.58775 0.81483 0.0
H715 H 1.00282 0.49509 0.8059 0.0
H716 H 0.97537 0.55907 0.80647 0.0
C717 C 0.06816 0.58183 0.81648 0.0
C718 C 0.53657 0.99711 0.13299 0.0
C719 C 0.50459 1.02032 0.12692 0.0
H720 H 0.59711 0.9941 0.13508 0.0
C721 C 0.51002 0.05994 0.12744 0.0
H722 H 0.53368 0.96664 0.13265 0.0
C723 C 0.54634 0.07588 0.13039 0.0
C724 C 0.57849 0.05258 0.13139 0.0
H725 H 0.48601 0.07874 0.12319 0.0
H726 H 0.54927 0.10628 0.12757 0.0
C727 C 0.57298 1.01301 0.13433 0.0
C728 C 0.50528 0.54652 0.6956 0.0
C729 C 0.5193 0.50939 0.69219 0.0
H730 H 0.51766 0.60574 0.69882 0.0
C731 C 0.55912 0.50476 0.69167 0.0
H732 H 0.47518 0.55158 0.69651 0.0
C733 C 0.58389 0.53593 0.694 0.0
C734 C 0.56983 0.57309 0.69574 0.0
H735 H 0.57146 0.4767 0.68979 0.0
H736 H 0.614 0.53089 0.69343 0.0
C737 C 0.53003 0.57769 0.69675 0.0
C738 C 0.53929 0.57859 0.26298 0.0
C739 C 0.50226 0.56501 0.26408 0.0
H740 H 0.59834 0.56542 0.26385 0.0
C741 C 0.49774 0.52507 0.26453 0.0
H742 H 0.54432 0.60875 0.26223 0.0
C743 C 0.52887 0.49979 0.26441 0.0
C744 C 0.5659 0.51341 0.26511 0.0
H745 H 0.4698 0.51301 0.26464 0.0
H746 H 0.52385 0.46962 0.26485 0.0
C747 C 0.5704 0.55334 0.2641 0.0
C748 C 0.53309 1.00894 0.30019 0.0
C749 C 0.5719 1.00095 0.30787 0.0
H750 H 0.48915 0.0513 0.2958 0.0
C751 C 0.59663 1.03165 0.31206 0.0
H752 H 0.51315 0.98594 0.29692 0.0
C753 C 0.58262 0.06907 0.31326 0.0
C754 C 0.54363 0.07708 0.30856 0.0
H755 H 0.62649 1.02676 0.31858 0.0
H756 H 0.60234 0.09189 0.3202 0.0
C757 C 0.51921 0.04646 0.29953 0.0
C758 C 1.00635 0.56726 0.64232 0.0
C759 C 1.00046 0.52771 0.64106 0.0
H760 H 0.04621 0.61306 0.6418 0.0
C761 C 1.03226 0.504 0.64387 0.0
H762 H 0.98247 0.58645 0.64043 0.0
C763 C 0.06884 0.51938 0.64306 0.0
C764 C 0.07475 0.55889 0.6413 0.0
H765 H 1.02897 0.47357 0.64278 0.0
H766 H 0.09271 0.50017 0.6416 0.0
C767 C 0.04293 0.58266 0.64337 0.0
C768 C 0.21921 0.07086 0.53038 0.0
C769 C 0.18592 0.05008 0.53553 0.0
H770 H 0.25105 0.1092 0.47866 0.0
C771 C 0.15954 0.05096 0.48914 0.0
H772 H 0.24019 0.07049 0.56513 0.0
C773 C 0.16522 0.07372 0.44028 0.0
C774 C 0.19778 0.09579 0.43595 0.0
H775 H 0.13409 1.03428 0.49076 0.0
H776 H 0.14347 0.07461 0.40689 0.0
C777 C 0.22515 0.09338 0.48098 0.0
C778 C 1.02301 0.93429 0.52824 0.0
C779 C 0.04745 0.90308 0.53309 0.0
H780 H 0.9812 0.96211 0.47535 0.0
C781 C 0.04348 0.87257 0.49341 0.0
H782 H 1.02563 0.95822 0.55817 0.0
C783 C 1.01823 0.87468 0.44637 0.0
C784 C 0.99636 0.90739 0.43803 0.0
H785 H 0.06152 0.84789 0.49692 0.0
H786 H 1.01742 0.85165 0.41447 0.0
C787 C 0.99761 0.93646 0.48092 0.0
C788 C 0.91384 0.08521 0.45045 0.0
C789 C 0.88042 0.0784 0.48179 0.0
H790 H 0.94304 0.08009 0.36818 0.0
C791 C 0.84854 0.06567 0.45095 0.0
H792 H 0.93851 0.09629 0.47275 0.0
C793 C 0.85109 0.05705 0.39049 0.0
C794 C 0.88552 0.06113 0.36054 0.0
H795 H 0.82238 0.06066 0.47404 0.0
H796 H 0.82695 0.04505 0.36806 0.0
C797 C 0.91642 0.07638 0.39064 0.0
C798 C 0.98263 0.18258 0.43467 0.0
C799 C 0.99511 0.17873 0.49335 0.0
H800 H 0.9973 0.1907 0.34432 0.0
C801 C 1.03398 0.17748 0.50441 0.0
H802 H 0.95286 0.1829 0.4244 0.0
C803 C 0.05974 0.18151 0.45797 0.0
C804 C 0.04713 0.18679 0.39947 0.0
H805 H 0.04443 0.17458 0.54906 0.0
H806 H 0.08955 0.18043 0.46794 0.0
C807 C 1.0082 0.18672 0.38849 0.0
C808 C 0.17338 0.47138 0.53726 0.0
C809 C 0.20875 0.47062 0.56523 0.0
H810 H 0.11806 0.44774 0.53916 0.0
C811 C 0.22204 0.43641 0.58807 0.0
H812 H 0.16293 0.49735 0.51801 0.0
C813 C 0.19677 0.40691 0.5965 0.0
C814 C 0.1583 0.41282 0.58502 0.0
H815 H 0.24949 0.43499 0.60889 0.0
H816 H 0.20552 0.38316 0.62299 0.0
C817 C 0.14755 0.44293 0.54907 0.0
C818 C 0.41064 0.88734 0.34348 0.0
C819 C 0.41596 0.92577 0.3571 0.0
H820 H 0.43906 0.8345 0.32857 0.0
C821 C 0.44652 0.9363 0.39241 0.0
H822 H 0.38665 0.87891 0.31714 0.0
C823 C 0.47544 0.91032 0.40252 0.0
C824 C 0.47448 0.87477 0.37422 0.0
H825 H 0.45095 0.9658 0.40355 0.0
H826 H 0.5014 0.92058 0.42194 0.0
C827 C 0.44048 0.8619 0.35029 0.0
C828 C 0.93406 0.64721 0.55502 0.0
C829 C 0.92402 0.67855 0.58983 0.0
H830 H 0.91802 0.59188 0.52705 0.0
C831 C 0.88583 0.68479 0.60315 0.0
H832 H 0.96332 0.64209 0.54393 0.0
C833 C 0.86035 0.65512 0.59698 0.0
C834 C 0.87301 0.62029 0.57457 0.0
H835 H 0.87765 0.70936 0.62904 0.0
H836 H 0.83324 0.6573 0.61862 0.0
C837 C 0.908 0.61842 0.54571 0.0
C838 C 0.65597 0.14397 0.39789 0.0
C839 C 0.68569 0.15246 0.3599 0.0
H840 H 0.60446 0.16418 0.43486 0.0
C841 C 0.69479 0.19055 0.35061 0.0
H842 H 0.64891 0.11479 0.40643 0.0
C843 C 0.6684 0.21868 0.36448 0.0
C844 C 0.6336 0.20815 0.38788 0.0
H845 H 0.71826 0.19761 0.32245 0.0
H846 H 0.67184 0.24653 0.34603 0.0
C847 C 0.63063 0.17249 0.4143 0.0
C848 C 0.6778 0.54561 0.93206 0.0
C849 C 0.70203 0.57672 0.93127 0.0
H850 H 0.65559 0.50036 -0.01724 0.0
C851 C 0.72764 0.58188 -0.02172 0.0
H852 H 0.65796 0.54063 0.89658 0.0
C853 C 0.72586 0.55915 0.02823 0.0
C854 C 0.69864 0.53084 0.03146 0.0
H855 H 0.74749 0.60497 -0.02195 0.0
H856 H 0.74378 0.56548 0.06576 0.0
C857 C 0.67621 0.52281 -0.0183 0.0
C858 C 0.51939 0.39802 -0.02201 0.0
C859 C 0.52953 0.37551 0.9289 0.0
H860 H 0.53508 0.41824 0.06365 0.0
C861 C 0.55911 0.34946 0.93397 0.0
H862 H 0.49609 0.41788 -0.02484 0.0
C863 C 0.58117 0.34932 -0.01495 0.0
C864 C 0.57405 0.37549 0.03119 0.0
H865 H 0.5671 0.33159 0.89684 0.0
H866 H 0.60545 0.3307 -0.01339 0.0
C867 C 0.54152 0.39806 0.0288 0.0
C868 C 0.39844 0.53718 0.92239 0.0
C869 C 0.37684 0.50422 0.91874 0.0
H870 H 0.41586 0.5836 -0.02318 0.0
C871 C 0.34999 0.49724 0.96312 0.0
H872 H 0.41907 0.54358 0.88889 0.0
C873 C 0.34852 0.5199 0.01395 0.0
C874 C 0.37358 0.54997 0.02049 0.0
H875 H 0.33199 0.47271 0.96049 0.0
H876 H 0.33016 0.51203 0.0499 0.0
C877 C 0.39674 0.55994 0.97288 0.0
C878 C 0.53434 0.68019 0.03376 0.0
C879 C 0.50095 0.7015 0.03269 0.0
H880 H 0.58304 0.66211 -0.01444 0.0
C881 C 0.49501 0.72717 -0.01369 0.0
H882 H 0.53991 0.66044 0.06892 0.0
C883 C 0.5195 0.72781 0.93816 0.0
C884 C 0.55031 0.70301 0.9362 0.0
H885 H 0.47006 0.74488 -0.01469 0.0
H886 H 0.51262 0.74526 0.90058 0.0
C887 C 0.55888 0.681 -0.01412 0.0
C888 C 0.68612 0.95673 0.02949 0.0
C889 C 0.72035 0.96178 0.05972 0.0
H890 H 0.63355 0.92745 0.03141 0.0
C891 C 0.73594 0.93119 0.09033 0.0
H892 H 0.67388 0.97985 0.00476 0.0
C893 C 0.71313 0.90054 0.10395 0.0
C894 C 0.675 0.90105 0.08732 0.0
H895 H 0.76255 0.9343 0.11329 0.0
H896 H 0.72297 0.88054 0.13651 0.0
C897 C 0.66283 0.92681 0.04486 0.0
C898 C 0.94419 0.44172 0.90992 0.0
C899 C 0.91404 0.43056 0.87418 0.0
H900 H 0.99916 0.42708 0.94022 0.0
C901 C 0.90939 0.392 0.86088 0.0
H902 H 0.94808 0.47133 0.92082 0.0
C903 C 0.93952 0.36703 0.8687 0.0
C904 C 0.97331 0.38066 0.89248 0.0
H905 H 0.88581 0.38306 0.83403 0.0
H906 H 0.9387 0.33961 0.84691 0.0
C907 C 0.97343 0.41622 0.92085 0.0
C908 C 0.40909 0.18039 0.0898 0.0
C909 C 0.44671 0.17093 0.07706 0.0
H910 H 0.35398 0.15779 0.10329 0.0
C911 C 0.45429 0.1389 0.04227 0.0
H912 H 0.40286 0.20552 0.1157 0.0
C913 C 0.42582 0.11267 0.03175 0.0
C914 C 0.39068 0.11757 0.05943 0.0
H915 H 0.48311 0.13129 0.03163 0.0
H916 H 0.43355 0.08553 0.01258 0.0
C917 C 0.38106 0.15324 0.08239 0.0
C918 C 0.17786 0.7022 0.85465 0.0
C919 C 0.17081 0.66429 0.8686 0.0
H920 H 0.15197 0.75632 0.84183 0.0
C921 C 0.14078 0.65598 0.90604 0.0
H922 H 0.20145 0.70904 0.82662 0.0
C923 C 0.11364 0.6837 0.918 0.0
C924 C 0.11546 0.71847 0.88865 0.0
H925 H 0.13511 0.62695 0.91768 0.0
H926 H 0.08768 0.67507 0.93887 0.0
C927 C 0.14972 0.72937 0.86373 0.0
loop_
_geom_bond_atom_site_label_1
_geom_bond_atom_site_label_2
_geom_bond_distance
_geom_bond_site_symmetry_2
_ccdc_geom_bond_type
C0 C1 1.351 . S
C0 N3 1.368 . S
C0 H5 0.931 . S
C1 C0 1.351 . S
C1 N2 1.373 1_545 S
C1 H29 0.930 . S
N2 C1 1.373 1_565 S
N2 C4 1.340 1_565 S
N3 C0 1.368 . S
N3 C4 1.321 . S
N3 Co6 2.135 . S
C4 N2 1.340 1_545 S
C4 N3 1.321 . S
C4 H28 0.930 1_545 S
H5 C0 0.931 . S
Co6 N3 2.135 . S
Co6 N9 2.121 . S
Co6 O14 2.055 . S
Co6 O17 2.039 . S
Co6 N20 2.140 . S
C7 O8 1.227 . S
C7 O17 1.265 . S
O8 C7 1.227 . S
N9 Co6 2.121 . S
N9 C11 1.375 . S
N9 C12 1.313 . S
C10 C11 1.338 . S
C10 N13 1.377 . S
C10 H30 0.930 . S
C11 N9 1.375 . S
C11 C10 1.338 . S
C11 H15 0.931 . S
C12 N9 1.313 . S
C12 N13 1.344 . S
C12 H16 0.930 . S
N13 C10 1.377 . S
N13 C12 1.344 . S
O14 Co6 2.055 . S
O14 C18 1.253 . S
H15 C11 0.931 . S
H16 C12 0.930 . S
O17 Co6 2.039 . S
O17 C7 1.265 . S
C18 O14 1.253 . S
C18 O19 1.227 . S
O19 C18 1.227 . S
N20 Co6 2.140 . S
N20 C23 1.346 . S
N20 C24 1.345 . S
C21 C22 1.387 . S
C21 C25 1.391 . S
C22 C21 1.387 . S
C22 C23 1.369 . S
C22 H31 0.929 . S
C23 N20 1.346 . S
C23 C22 1.369 . S
C23 H26 0.928 . S
C24 N20 1.345 . S
C24 C25 1.371 . S
C24 H27 0.931 . S
C25 C21 1.391 . S
C25 C24 1.371 . S
C25 H32 0.930 . S
H26 C23 0.928 . S
H27 C24 0.931 . S
H28 C4 0.930 1_565 S
H29 C1 0.930 . S
H30 C10 0.930 . S
H31 C22 0.929 . S
H32 C25 0.930 . S
C33 C34 1.351 . S
C33 N36 1.368 . S
C33 H38 0.931 . S
C34 C33 1.351 . S
C34 N35 1.373 1_455 S
C34 H62 0.930 . S
N35 C34 1.373 1_655 S
N35 C37 1.340 1_655 S
N36 C33 1.368 . S
N36 C37 1.321 . S
N36 Co39 2.135 . S
C37 N35 1.340 1_455 S
C37 N36 1.321 . S
C37 H61 0.930 1_455 S
H38 C33 0.931 . S
Co39 N36 2.135 . S
Co39 N42 2.121 . S
Co39 O47 2.055 . S
Co39 O50 2.039 . S
Co39 N53 2.140 . S
C40 O41 1.227 . S
C40 O50 1.265 . S
O41 C40 1.227 . S
N42 Co39 2.121 . S
N42 C44 1.375 . S
N42 C45 1.313 . S
C43 C44 1.338 . S
C43 N46 1.377 . S
C43 H63 0.930 . S
C44 N42 1.375 . S
C44 C43 1.338 . S
C44 H48 0.931 . S
C45 N42 1.313 . S
C45 N46 1.344 . S
C45 H49 0.930 . S
N46 C43 1.377 . S
N46 C45 1.344 . S
O47 Co39 2.055 . S
O47 C51 1.253 . S
H48 C44 0.931 . S
H49 C45 0.930 . S
O50 Co39 2.039 . S
O50 C40 1.265 . S
C51 O47 1.253 . S
C51 O52 1.227 . S
O52 C51 1.227 . S
N53 Co39 2.140 . S
N53 C56 1.346 . S
N53 C57 1.345 . S
C54 C55 1.387 . S
C54 C58 1.391 . S
C55 C54 1.387 . S
C55 C56 1.369 . S
C55 H64 0.929 . S
C56 N53 1.346 . S
C56 C55 1.369 . S
C56 H59 0.928 . S
C57 N53 1.345 . S
C57 C58 1.371 . S
C57 H60 0.931 . S
C58 C54 1.391 . S
C58 C57 1.371 . S
C58 H65 0.930 . S
H59 C56 0.928 . S
H60 C57 0.931 . S
H61 C37 0.930 1_655 S
H62 C34 0.930 . S
H63 C43 0.930 . S
H64 C55 0.929 . S
H65 C58 0.930 . S
C66 C67 1.351 . S
C66 N69 1.368 . S
C66 H71 0.931 . S
C67 C66 1.351 . S
C67 N68 1.373 1_565 S
C67 H95 0.930 . S
N68 C67 1.373 1_545 S
N68 C70 1.340 1_545 S
N69 C66 1.368 . S
N69 C70 1.321 . S
N69 Co72 2.135 . S
C70 N68 1.340 1_565 S
C70 N69 1.321 . S
C70 H94 0.930 1_565 S
H71 C66 0.931 . S
Co72 N69 2.135 . S
Co72 N75 2.121 . S
Co72 O80 2.055 . S
Co72 O83 2.039 . S
Co72 N86 2.140 . S
C73 O74 1.227 . S
C73 O83 1.265 . S
O74 C73 1.227 . S
N75 Co72 2.121 . S
N75 C77 1.375 . S
N75 C78 1.313 . S
C76 C77 1.338 . S
C76 N79 1.377 . S
C76 H96 0.930 . S
C77 N75 1.375 . S
C77 C76 1.338 . S
C77 H81 0.931 . S
C78 N75 1.313 . S
C78 N79 1.344 . S
C78 H82 0.930 . S
N79 C76 1.377 . S
N79 C78 1.344 . S
O80 Co72 2.055 . S
O80 C84 1.253 . S
H81 C77 0.931 . S
H82 C78 0.930 . S
O83 Co72 2.039 . S
O83 C73 1.265 . S
C84 O80 1.253 . S
C84 O85 1.227 . S
O85 C84 1.227 . S
N86 Co72 2.140 . S
N86 C89 1.346 . S
N86 C90 1.345 . S
C87 C88 1.387 . S
C87 C91 1.391 . S
C88 C87 1.387 . S
C88 C89 1.369 . S
C88 H97 0.929 . S
C89 N86 1.346 . S
C89 C88 1.369 . S
C89 H92 0.928 . S
C90 N86 1.345 . S
C90 C91 1.371 . S
C90 H93 0.931 . S
C91 C87 1.391 . S
C91 C90 1.371 . S
C91 H98 0.930 . S
H92 C89 0.928 . S
H93 C90 0.931 . S
H94 C70 0.930 1_545 S
H95 C67 0.930 . S
H96 C76 0.930 . S
H97 C88 0.929 . S
H98 C91 0.930 . S
C99 C100 1.351 . S
C99 N102 1.368 . S
C99 H104 0.931 . S
C100 C99 1.351 . S
C100 N101 1.373 1_655 S
C100 H128 0.930 . S
N101 C100 1.373 1_455 S
N101 C103 1.340 1_455 S
N102 C99 1.368 . S
N102 C103 1.321 . S
N102 Co105 2.135 . S
C103 N101 1.340 1_655 S
C103 N102 1.321 . S
C103 H127 0.930 1_655 S
H104 C99 0.931 . S
Co105 N102 2.135 . S
Co105 N108 2.121 . S
Co105 O113 2.055 . S
Co105 O116 2.039 . S
Co105 N119 2.140 . S
C106 O107 1.227 . S
C106 O116 1.265 . S
O107 C106 1.227 . S
N108 Co105 2.121 . S
N108 C110 1.375 . S
N108 C111 1.313 . S
C109 C110 1.338 . S
C109 N112 1.377 . S
C109 H129 0.930 . S
C110 N108 1.375 . S
C110 C109 1.338 . S
C110 H114 0.931 . S
C111 N108 1.313 . S
C111 N112 1.344 . S
C111 H115 0.930 . S
N112 C109 1.377 . S
N112 C111 1.344 . S
O113 Co105 2.055 . S
O113 C117 1.253 . S
H114 C110 0.931 . S
H115 C111 0.930 . S
O116 Co105 2.039 . S
O116 C106 1.265 . S
C117 O113 1.253 . S
C117 O118 1.227 . S
O118 C117 1.227 . S
N119 Co105 2.140 . S
N119 C122 1.346 . S
N119 C123 1.345 . S
C120 C121 1.387 . S
C120 C124 1.391 . S
C121 C120 1.387 . S
C121 C122 1.369 . S
C121 H130 0.929 . S
C122 N119 1.346 . S
C122 C121 1.369 . S
C122 H125 0.928 . S
C123 N119 1.345 . S
C123 C124 1.371 . S
C123 H126 0.931 . S
C124 C120 1.391 . S
C124 C123 1.371 . S
C124 H131 0.930 . S
H125 C122 0.928 . S
H126 C123 0.931 . S
H127 C103 0.930 1_455 S
H128 C100 0.930 . S
H129 C109 0.930 . S
H130 C121 0.929 . S
H131 C124 0.930 . S
C132 C133 1.351 . S
C132 N135 1.368 . S
C132 H137 0.931 . S
C133 C132 1.351 . S
C133 N134 1.373 . S
C133 H161 0.930 . S
N134 C133 1.373 . S
N134 C136 1.340 . S
N135 C132 1.368 . S
N135 C136 1.321 . S
N135 Co138 2.135 . S
C136 N134 1.340 . S
C136 N135 1.321 . S
C136 H160 0.930 . S
H137 C132 0.931 . S
Co138 N135 2.135 . S
Co138 N141 2.121 1_556 S
Co138 O146 2.056 . S
Co138 O149 2.039 1_556 S
Co138 N152 2.140 . S
C139 O140 1.227 1_554 S
C139 O149 1.265 . S
O140 C139 1.227 1_556 S
N141 Co138 2.121 1_554 S
N141 C143 1.375 . S
N141 C144 1.313 . S
C142 C143 1.338 . S
C142 N145 1.377 . S
C142 H162 0.930 . S
C143 N141 1.375 . S
C143 C142 1.338 . S
C143 H147 0.931 . S
C144 N141 1.313 . S
C144 N145 1.344 . S
C144 H148 0.930 . S
N145 C142 1.377 . S
N145 C144 1.344 . S
O146 Co138 2.056 . S
O146 C150 1.256 . S
H147 C143 0.931 . S
H148 C144 0.930 . S
O149 Co138 2.039 1_554 S
O149 C139 1.265 . S
C150 O146 1.256 . S
C150 O151 1.227 . S
O151 C150 1.227 . S
N152 Co138 2.140 . S
N152 C155 1.346 . S
N152 C156 1.345 . S
C153 C154 1.387 . S
C153 C157 1.391 . S
C154 C153 1.387 . S
C154 C155 1.369 . S
C154 H163 0.929 . S
C155 N152 1.346 . S
C155 C154 1.369 . S
C155 H158 0.928 . S
C156 N152 1.345 . S
C156 C157 1.371 . S
C156 H159 0.931 . S
C157 C153 1.391 . S
C157 C156 1.371 . S
C157 H164 0.930 . S
H158 C155 0.928 . S
H159 C156 0.931 . S
H160 C136 0.930 . S
H161 C133 0.930 . S
H162 C142 0.930 . S
H163 C154 0.929 . S
H164 C157 0.930 . S
C165 C166 1.351 . S
C165 N168 1.368 . S
C165 H170 0.931 . S
C166 C165 1.351 . S
C166 N167 1.373 . S
C166 H194 0.930 . S
N167 C166 1.373 . S
N167 C169 1.340 . S
N168 C165 1.368 . S
N168 C169 1.321 . S
N168 Co171 2.135 . S
C169 N167 1.340 . S
C169 N168 1.321 . S
C169 H193 0.930 . S
H170 C165 0.931 . S
Co171 N168 2.135 . S
Co171 N174 2.121 1_554 S
Co171 O179 2.056 . S
Co171 O182 2.039 1_554 S
Co171 N185 2.140 . S
C172 O173 1.227 1_556 S
C172 O182 1.265 . S
O173 C172 1.227 1_554 S
N174 Co171 2.121 1_556 S
N174 C176 1.375 . S
N174 C177 1.313 . S
C175 C176 1.338 . S
C175 N178 1.377 . S
C175 H195 0.930 . S
C176 N174 1.375 . S
C176 C175 1.338 . S
C176 H180 0.931 . S
C177 N174 1.313 . S
C177 N178 1.344 . S
C177 H181 0.930 . S
N178 C175 1.377 . S
N178 C177 1.344 . S
O179 Co171 2.056 . S
O179 C183 1.256 . S
H180 C176 0.931 . S
H181 C177 0.930 . S
O182 Co171 2.039 1_556 S
O182 C172 1.265 . S
C183 O179 1.256 . S
C183 O184 1.227 . S
O184 C183 1.227 . S
N185 Co171 2.140 . S
N185 C188 1.346 . S
N185 C189 1.345 . S
C186 C187 1.387 . S
C186 C190 1.391 . S
C187 C186 1.387 . S
C187 C188 1.369 . S
C187 H196 0.929 . S
C188 N185 1.346 . S
C188 C187 1.369 . S
C188 H191 0.928 . S
C189 N185 1.345 . S
C189 C190 1.371 . S
C189 H192 0.931 . S
C190 C186 1.391 . S
C190 C189 1.371 . S
C190 H197 0.930 . S
H191 C188 0.928 . S
H192 C189 0.931 . S
H193 C169 0.930 . S
H194 C166 0.930 . S
H195 C175 0.930 . S
H196 C187 0.929 . S
H197 C190 0.930 . S
C198 C199 1.351 . S
C198 N201 1.368 . S
C198 H203 0.931 . S
C199 C198 1.351 . S
C199 N200 1.373 . S
C199 H227 0.930 . S
N200 C199 1.373 . S
N200 C202 1.340 . S
N201 C198 1.368 . S
N201 C202 1.321 . S
N201 Co204 2.135 . S
C202 N200 1.340 . S
C202 N201 1.321 . S
C202 H226 0.930 . S
H203 C198 0.931 . S
Co204 N201 2.135 . S
Co204 N207 2.121 1_556 S
Co204 O212 2.056 . S
Co204 O215 2.039 1_556 S
Co204 N218 2.140 . S
C205 O206 1.227 1_554 S
C205 O215 1.265 . S
O206 C205 1.227 1_556 S
N207 Co204 2.121 1_554 S
N207 C209 1.375 . S
N207 C210 1.313 . S
C208 C209 1.338 . S
C208 N211 1.377 . S
C208 H228 0.930 . S
C209 N207 1.375 . S
C209 C208 1.338 . S
C209 H213 0.931 . S
C210 N207 1.313 . S
C210 N211 1.344 . S
C210 H214 0.930 . S
N211 C208 1.377 . S
N211 C210 1.344 . S
O212 Co204 2.056 . S
O212 C216 1.256 . S
H213 C209 0.931 . S
H214 C210 0.930 . S
O215 Co204 2.039 1_554 S
O215 C205 1.265 . S
C216 O212 1.256 . S
C216 O217 1.227 . S
O217 C216 1.227 . S
N218 Co204 2.140 . S
N218 C221 1.346 . S
N218 C222 1.345 . S
C219 C220 1.387 . S
C219 C223 1.391 . S
C220 C219 1.387 . S
C220 C221 1.369 . S
C220 H229 0.929 . S
C221 N218 1.346 . S
C221 C220 1.369 . S
C221 H224 0.928 . S
C222 N218 1.345 . S
C222 C223 1.371 . S
C222 H225 0.931 . S
C223 C219 1.391 . S
C223 C222 1.371 . S
C223 H230 0.930 . S
H224 C221 0.928 . S
H225 C222 0.931 . S
H226 C202 0.930 . S
H227 C199 0.930 . S
H228 C208 0.930 . S
H229 C220 0.929 . S
H230 C223 0.930 . S
C231 C232 1.351 . S
C231 N234 1.368 . S
C231 H236 0.931 . S
C232 C231 1.351 . S
C232 N233 1.373 . S
C232 H260 0.930 . S
N233 C232 1.373 . S
N233 C235 1.340 . S
N234 C231 1.368 . S
N234 C235 1.321 . S
N234 Co237 2.135 . S
C235 N233 1.340 . S
C235 N234 1.321 . S
C235 H259 0.930 . S
H236 C231 0.931 . S
Co237 N234 2.135 . S
Co237 N240 2.121 1_554 S
Co237 O245 2.056 . S
Co237 O248 2.039 1_554 S
Co237 N251 2.140 . S
C238 O239 1.227 1_556 S
C238 O248 1.265 . S
O239 C238 1.227 1_554 S
N240 Co237 2.121 1_556 S
N240 C242 1.375 . S
N240 C243 1.313 . S
C241 C242 1.338 . S
C241 N244 1.377 . S
C241 H261 0.930 . S
C242 N240 1.375 . S
C242 C241 1.338 . S
C242 H246 0.931 . S
C243 N240 1.313 . S
C243 N244 1.344 . S
C243 H247 0.930 . S
N244 C241 1.377 . S
N244 C243 1.344 . S
O245 Co237 2.056 . S
O245 C249 1.256 . S
H246 C242 0.931 . S
H247 C243 0.930 . S
O248 Co237 2.039 1_556 S
O248 C238 1.265 . S
C249 O245 1.256 . S
C249 O250 1.227 . S
O250 C249 1.227 . S
N251 Co237 2.140 . S
N251 C254 1.346 . S
N251 C255 1.345 . S
C252 C253 1.387 . S
C252 C256 1.391 . S
C253 C252 1.387 . S
C253 C254 1.369 . S
C253 H262 0.929 . S
C254 N251 1.346 . S
C254 C253 1.369 . S
C254 H257 0.928 . S
C255 N251 1.345 . S
C255 C256 1.371 . S
C255 H258 0.931 . S
C256 C252 1.391 . S
C256 C255 1.371 . S
C256 H263 0.930 . S
H257 C254 0.928 . S
H258 C255 0.931 . S
H259 C235 0.930 . S
H260 C232 0.930 . S
H261 C241 0.930 . S
H262 C253 0.929 . S
H263 C256 0.930 . S
C264 C265 1.351 . S
C264 N267 1.368 . S
C264 H269 0.931 . S
C265 C264 1.351 . S
C265 N266 1.373 . S
C265 H293 0.930 . S
N266 C265 1.373 . S
N266 C268 1.340 . S
N267 C264 1.368 . S
N267 C268 1.321 . S
N267 Co270 2.135 . S
C268 N266 1.340 . S
C268 N267 1.321 . S
C268 H292 0.930 . S
H269 C264 0.931 . S
Co270 N267 2.135 . S
Co270 N273 2.121 . S
Co270 O278 2.055 . S
Co270 O281 2.039 . S
Co270 N284 2.140 . S
C271 O272 1.227 . S
C271 O281 1.265 . S
O272 C271 1.227 . S
N273 Co270 2.121 . S
N273 C275 1.375 . S
N273 C276 1.313 . S
C274 C275 1.338 . S
C274 N277 1.377 . S
C274 H294 0.930 . S
C275 N273 1.375 . S
C275 C274 1.338 . S
C275 H279 0.931 . S
C276 N273 1.313 . S
C276 N277 1.344 . S
C276 H280 0.930 . S
N277 C274 1.377 . S
N277 C276 1.344 . S
O278 Co270 2.055 . S
O278 C282 1.253 . S
H279 C275 0.931 . S
H280 C276 0.930 . S
O281 Co270 2.039 . S
O281 C271 1.265 . S
C282 O278 1.253 . S
C282 O283 1.227 . S
O283 C282 1.227 . S
N284 Co270 2.140 . S
N284 C287 1.346 . S
N284 C288 1.345 . S
C285 C286 1.387 . S
C285 C289 1.391 . S
C286 C285 1.387 . S
C286 C287 1.369 . S
C286 H295 0.929 . S
C287 N284 1.346 . S
C287 C286 1.369 . S
C287 H290 0.928 . S
C288 N284 1.345 . S
C288 C289 1.371 . S
C288 H291 0.931 . S
C289 C285 1.391 . S
C289 C288 1.371 . S
C289 H296 0.930 . S
H290 C287 0.928 . S
H291 C288 0.931 . S
H292 C268 0.930 . S
H293 C265 0.930 . S
H294 C274 0.930 . S
H295 C286 0.929 . S
H296 C289 0.930 . S
C297 C298 1.351 . S
C297 N300 1.368 . S
C297 H302 0.931 . S
C298 C297 1.351 . S
C298 N299 1.373 . S
C298 H326 0.930 . S
N299 C298 1.373 . S
N299 C301 1.340 . S
N300 C297 1.368 . S
N300 C301 1.321 . S
N300 Co303 2.135 . S
C301 N299 1.340 . S
C301 N300 1.321 . S
C301 H325 0.930 . S
H302 C297 0.931 . S
Co303 N300 2.135 . S
Co303 N306 2.121 . S
Co303 O311 2.055 . S
Co303 O314 2.039 . S
Co303 N317 2.140 . S
C304 O305 1.227 . S
C304 O314 1.265 . S
O305 C304 1.227 . S
N306 Co303 2.121 . S
N306 C308 1.375 . S
N306 C309 1.313 . S
C307 C308 1.338 . S
C307 N310 1.377 . S
C307 H327 0.930 . S
C308 N306 1.375 . S
C308 C307 1.338 . S
C308 H312 0.931 . S
C309 N306 1.313 . S
C309 N310 1.344 . S
C309 H313 0.930 . S
N310 C307 1.377 . S
N310 C309 1.344 . S
O311 Co303 2.055 . S
O311 C315 1.253 . S
H312 C308 0.931 . S
H313 C309 0.930 . S
O314 Co303 2.039 . S
O314 C304 1.265 . S
C315 O311 1.253 . S
C315 O316 1.227 . S
O316 C315 1.227 . S
N317 Co303 2.140 . S
N317 C320 1.346 . S
N317 C321 1.345 . S
C318 C319 1.387 . S
C318 C322 1.391 . S
C319 C318 1.387 . S
C319 C320 1.369 . S
C319 H328 0.929 . S
C320 N317 1.346 . S
C320 C319 1.369 . S
C320 H323 0.928 . S
C321 N317 1.345 . S
C321 C322 1.371 . S
C321 H324 0.931 . S
C322 C318 1.391 . S
C322 C321 1.371 . S
C322 H329 0.930 . S
H323 C320 0.928 . S
H324 C321 0.931 . S
H325 C301 0.930 . S
H326 C298 0.930 . S
H327 C307 0.930 . S
H328 C319 0.929 . S
H329 C322 0.930 . S
C330 C331 1.351 . S
C330 N333 1.368 . S
C330 H335 0.931 . S
C331 C330 1.351 . S
C331 N332 1.373 . S
C331 H359 0.930 . S
N332 C331 1.373 . S
N332 C334 1.340 . S
N333 C330 1.368 . S
N333 C334 1.321 . S
N333 Co336 2.135 . S
C334 N332 1.340 . S
C334 N333 1.321 . S
C334 H358 0.930 . S
H335 C330 0.931 . S
Co336 N333 2.135 . S
Co336 N339 2.121 . S
Co336 O344 2.055 . S
Co336 O347 2.039 . S
Co336 N350 2.140 . S
C337 O338 1.227 . S
C337 O347 1.265 . S
O338 C337 1.227 . S
N339 Co336 2.121 . S
N339 C341 1.375 . S
N339 C342 1.313 . S
C340 C341 1.338 . S
C340 N343 1.377 . S
C340 H360 0.930 . S
C341 N339 1.375 . S
C341 C340 1.338 . S
C341 H345 0.931 . S
C342 N339 1.313 . S
C342 N343 1.344 . S
C342 H346 0.930 . S
N343 C340 1.377 . S
N343 C342 1.344 . S
O344 Co336 2.055 . S
O344 C348 1.253 . S
H345 C341 0.931 . S
H346 C342 0.930 . S
O347 Co336 2.039 . S
O347 C337 1.265 . S
C348 O344 1.253 . S
C348 O349 1.227 . S
O349 C348 1.227 . S
N350 Co336 2.140 . S
N350 C353 1.346 . S
N350 C354 1.345 . S
C351 C352 1.387 . S
C351 C355 1.391 . S
C352 C351 1.387 . S
C352 C353 1.369 . S
C352 H361 0.929 . S
C353 N350 1.346 . S
C353 C352 1.369 . S
C353 H356 0.928 . S
C354 N350 1.345 . S
C354 C355 1.371 . S
C354 H357 0.931 . S
C355 C351 1.391 . S
C355 C354 1.371 . S
C355 H362 0.930 . S
H356 C353 0.928 . S
H357 C354 0.931 . S
H358 C334 0.930 . S
H359 C331 0.930 . S
H360 C340 0.930 . S
H361 C352 0.929 . S
H362 C355 0.930 . S
C363 C364 1.351 . S
C363 N366 1.368 . S
C363 H368 0.931 . S
C364 C363 1.351 . S
C364 N365 1.373 . S
C364 H392 0.930 . S
N365 C364 1.373 . S
N365 C367 1.340 . S
N366 C363 1.368 . S
N366 C367 1.321 . S
N366 Co369 2.135 . S
C367 N365 1.340 . S
C367 N366 1.321 . S
C367 H391 0.930 . S
H368 C363 0.931 . S
Co369 N366 2.135 . S
Co369 N372 2.121 . S
Co369 O377 2.055 . S
Co369 O380 2.039 . S
Co369 N383 2.140 . S
C370 O371 1.227 . S
C370 O380 1.265 . S
O371 C370 1.227 . S
N372 Co369 2.121 . S
N372 C374 1.375 . S
N372 C375 1.313 . S
C373 C374 1.338 . S
C373 N376 1.377 . S
C373 H393 0.930 . S
C374 N372 1.375 . S
C374 C373 1.338 . S
C374 H378 0.931 . S
C375 N372 1.313 . S
C375 N376 1.344 . S
C375 H379 0.930 . S
N376 C373 1.377 . S
N376 C375 1.344 . S
O377 Co369 2.055 . S
O377 C381 1.253 . S
H378 C374 0.931 . S
H379 C375 0.930 . S
O380 Co369 2.039 . S
O380 C370 1.265 . S
C381 O377 1.253 . S
C381 O382 1.227 . S
O382 C381 1.227 . S
N383 Co369 2.140 . S
N383 C386 1.346 . S
N383 C387 1.345 . S
C384 C385 1.387 . S
C384 C388 1.391 . S
C385 C384 1.387 . S
C385 C386 1.369 . S
C385 H394 0.929 . S
C386 N383 1.346 . S
C386 C385 1.369 . S
C386 H389 0.928 . S
C387 N383 1.345 . S
C387 C388 1.371 . S
C387 H390 0.931 . S
C388 C384 1.391 . S
C388 C387 1.371 . S
C388 H395 0.930 . S
H389 C386 0.928 . S
H390 C387 0.931 . S
H391 C367 0.930 . S
H392 C364 0.930 . S
H393 C373 0.930 . S
H394 C385 0.929 . S
H395 C388 0.930 . S
C396 C397 1.351 . S
C396 N399 1.368 . S
C396 H401 0.931 . S
C397 C396 1.351 . S
C397 N398 1.373 1_565 S
C397 H425 0.930 . S
N398 C397 1.373 1_545 S
N398 C400 1.340 1_545 S
N399 C396 1.368 . S
N399 C400 1.321 . S
N399 Co402 2.135 . S
C400 N398 1.340 1_565 S
C400 N399 1.321 . S
C400 H424 0.930 1_565 S
H401 C396 0.931 . S
Co402 N399 2.135 . S
Co402 N405 2.121 . S
Co402 O410 2.055 . S
Co402 O413 2.039 . S
Co402 N416 2.140 . S
C403 O404 1.227 . S
C403 O413 1.265 . S
O404 C403 1.227 . S
N405 Co402 2.121 . S
N405 C407 1.375 . S
N405 C408 1.313 . S
C406 C407 1.338 . S
C406 N409 1.377 . S
C406 H426 0.930 . S
C407 N405 1.375 . S
C407 C406 1.338 . S
C407 H411 0.931 . S
C408 N405 1.313 . S
C408 N409 1.344 . S
C408 H412 0.930 . S
N409 C406 1.377 . S
N409 C408 1.344 . S
O410 Co402 2.055 . S
O410 C414 1.253 . S
H411 C407 0.931 . S
H412 C408 0.930 . S
O413 Co402 2.039 . S
O413 C403 1.265 . S
C414 O410 1.253 . S
C414 O415 1.227 . S
O415 C414 1.227 . S
N416 Co402 2.140 . S
N416 C419 1.346 . S
N416 C420 1.345 . S
C417 C418 1.387 . S
C417 C421 1.391 . S
C418 C417 1.387 . S
C418 C419 1.369 . S
C418 H427 0.929 . S
C419 N416 1.346 . S
C419 C418 1.369 . S
C419 H422 0.928 . S
C420 N416 1.345 . S
C420 C421 1.371 . S
C420 H423 0.931 . S
C421 C417 1.391 . S
C421 C420 1.371 . S
C421 H428 0.930 . S
H422 C419 0.928 . S
H423 C420 0.931 . S
H424 C400 0.930 1_545 S
H425 C397 0.930 . S
H426 C406 0.930 . S
H427 C418 0.929 . S
H428 C421 0.930 . S
C429 C430 1.351 . S
C429 N432 1.368 . S
C429 H434 0.931 . S
C430 C429 1.351 . S
C430 N431 1.373 1_655 S
C430 H458 0.930 . S
N431 C430 1.373 1_455 S
N431 C433 1.340 1_455 S
N432 C429 1.368 . S
N432 C433 1.321 . S
N432 Co435 2.135 . S
C433 N431 1.340 1_655 S
C433 N432 1.321 . S
C433 H457 0.930 1_655 S
H434 C429 0.931 . S
Co435 N432 2.135 . S
Co435 N438 2.121 . S
Co435 O443 2.055 . S
Co435 O446 2.039 . S
Co435 N449 2.140 . S
C436 O437 1.227 . S
C436 O446 1.265 . S
O437 C436 1.227 . S
N438 Co435 2.121 . S
N438 C440 1.375 . S
N438 C441 1.313 . S
C439 C440 1.338 . S
C439 N442 1.377 . S
C439 H459 0.930 . S
C440 N438 1.375 . S
C440 C439 1.338 . S
C440 H444 0.931 . S
C441 N438 1.313 . S
C441 N442 1.344 . S
C441 H445 0.930 . S
N442 C439 1.377 . S
N442 C441 1.344 . S
O443 Co435 2.055 . S
O443 C447 1.253 . S
H444 C440 0.931 . S
H445 C441 0.930 . S
O446 Co435 2.039 . S
O446 C436 1.265 . S
C447 O443 1.253 . S
C447 O448 1.227 . S
O448 C447 1.227 . S
N449 Co435 2.140 . S
N449 C452 1.346 . S
N449 C453 1.345 . S
C450 C451 1.387 . S
C450 C454 1.391 . S
C451 C450 1.387 . S
C451 C452 1.369 . S
C451 H460 0.929 . S
C452 N449 1.346 . S
C452 C451 1.369 . S
C452 H455 0.928 . S
C453 N449 1.345 . S
C453 C454 1.371 . S
C453 H456 0.931 . S
C454 C450 1.391 . S
C454 C453 1.371 . S
C454 H461 0.930 . S
H455 C452 0.928 . S
H456 C453 0.931 . S
H457 C433 0.930 1_455 S
H458 C430 0.930 . S
H459 C439 0.930 . S
H460 C451 0.929 . S
H461 C454 0.930 . S
C462 C463 1.351 . S
C462 N465 1.368 . S
C462 H467 0.931 . S
C463 C462 1.351 . S
C463 N464 1.373 1_545 S
C463 H491 0.930 . S
N464 C463 1.373 1_565 S
N464 C466 1.340 1_565 S
N465 C462 1.368 . S
N465 C466 1.321 . S
N465 Co468 2.135 . S
C466 N464 1.340 1_545 S
C466 N465 1.321 . S
C466 H490 0.930 1_545 S
H467 C462 0.931 . S
Co468 N465 2.135 . S
Co468 N471 2.121 . S
Co468 O476 2.055 . S
Co468 O479 2.039 . S
Co468 N482 2.140 . S
C469 O470 1.227 . S
C469 O479 1.265 . S
O470 C469 1.227 . S
N471 Co468 2.121 . S
N471 C473 1.375 . S
N471 C474 1.313 . S
C472 C473 1.338 . S
C472 N475 1.377 . S
C472 H492 0.930 . S
C473 N471 1.375 . S
C473 C472 1.338 . S
C473 H477 0.931 . S
C474 N471 1.313 . S
C474 N475 1.344 . S
C474 H478 0.930 . S
N475 C472 1.377 . S
N475 C474 1.344 . S
O476 Co468 2.055 . S
O476 C480 1.253 . S
H477 C473 0.931 . S
H478 C474 0.930 . S
O479 Co468 2.039 . S
O479 C469 1.265 . S
C480 O476 1.253 . S
C480 O481 1.227 . S
O481 C480 1.227 . S
N482 Co468 2.140 . S
N482 C485 1.346 . S
N482 C486 1.345 . S
C483 C484 1.387 . S
C483 C487 1.391 . S
C484 C483 1.387 . S
C484 C485 1.369 . S
C484 H493 0.929 . S
C485 N482 1.346 . S
C485 C484 1.369 . S
C485 H488 0.928 . S
C486 N482 1.345 . S
C486 C487 1.371 . S
C486 H489 0.931 . S
C487 C483 1.391 . S
C487 C486 1.371 . S
C487 H494 0.930 . S
H488 C485 0.928 . S
H489 C486 0.931 . S
H490 C466 0.930 1_565 S
H491 C463 0.930 . S
H492 C472 0.930 . S
H493 C484 0.929 . S
H494 C487 0.930 . S
C495 C496 1.351 . S
C495 N498 1.368 . S
C495 H500 0.931 . S
C496 C495 1.351 . S
C496 N497 1.373 1_455 S
C496 H524 0.930 . S
N497 C496 1.373 1_655 S
N497 C499 1.340 1_655 S
N498 C495 1.368 . S
N498 C499 1.321 . S
N498 Co501 2.135 . S
C499 N497 1.340 1_455 S
C499 N498 1.321 . S
C499 H523 0.930 1_455 S
H500 C495 0.931 . S
Co501 N498 2.135 . S
Co501 N504 2.121 . S
Co501 O509 2.055 . S
Co501 O512 2.039 . S
Co501 N515 2.140 . S
C502 O503 1.227 . S
C502 O512 1.265 . S
O503 C502 1.227 . S
N504 Co501 2.121 . S
N504 C506 1.375 . S
N504 C507 1.313 . S
C505 C506 1.338 . S
C505 N508 1.377 . S
C505 H525 0.930 . S
C506 N504 1.375 . S
C506 C505 1.338 . S
C506 H510 0.931 . S
C507 N504 1.313 . S
C507 N508 1.344 . S
C507 H511 0.930 . S
N508 C505 1.377 . S
N508 C507 1.344 . S
O509 Co501 2.055 . S
O509 C513 1.253 . S
H510 C506 0.931 . S
H511 C507 0.930 . S
O512 Co501 2.039 . S
O512 C502 1.265 . S
C513 O509 1.253 . S
C513 O514 1.227 . S
O514 C513 1.227 . S
N515 Co501 2.140 . S
N515 C518 1.346 . S
N515 C519 1.345 . S
C516 C517 1.387 . S
C516 C520 1.391 . S
C517 C516 1.387 . S
C517 C518 1.369 . S
C517 H526 0.929 . S
C518 N515 1.346 . S
C518 C517 1.369 . S
C518 H521 0.928 . S
C519 N515 1.345 . S
C519 C520 1.371 . S
C519 H522 0.931 . S
C520 C516 1.391 . S
C520 C519 1.371 . S
C520 H527 0.930 . S
H521 C518 0.928 . S
H522 C519 0.931 . S
H523 C499 0.930 1_655 S
H524 C496 0.930 . S
H525 C505 0.930 . S
H526 C517 0.929 . S
H527 C520 0.930 . S
C528 C529 1.387 . S
C528 H532 0.950 . S
C528 C537 1.390 . S
C529 C528 1.387 . S
C529 C531 1.387 . S
H530 C537 0.950 . S
C531 C529 1.387 . S
C531 C533 1.390 . S
C531 H535 0.950 . S
H532 C528 0.950 . S
C533 C531 1.390 . S
C533 C534 1.387 . S
C533 H536 0.950 . S
C534 C533 1.387 . S
C534 C537 1.387 . S
H535 C531 0.950 . S
H536 C533 0.950 . S
C537 C528 1.390 . S
C537 H530 0.950 . S
C537 C534 1.387 . S
C538 C539 1.387 . S
C538 H542 0.950 . S
C538 C547 1.390 . S
C539 C538 1.387 . S
C539 C541 1.387 . S
H540 C547 0.950 . S
C541 C539 1.387 . S
C541 C543 1.390 . S
C541 H545 0.950 . S
H542 C538 0.950 . S
C543 C541 1.390 . S
C543 C544 1.387 . S
C543 H546 0.950 . S
C544 C543 1.387 . S
C544 C547 1.387 . S
H545 C541 0.950 . S
H546 C543 0.950 . S
C547 C538 1.390 . S
C547 H540 0.950 . S
C547 C544 1.387 . S
C548 C549 1.387 . S
C548 H552 0.950 . S
C548 C557 1.390 . S
C549 C548 1.387 . S
C549 C551 1.387 . S
H550 C557 0.950 . S
C551 C549 1.387 . S
C551 C553 1.390 . S
C551 H555 0.950 . S
H552 C548 0.950 . S
C553 C551 1.390 . S
C553 C554 1.387 . S
C553 H556 0.950 . S
C554 C553 1.387 . S
C554 C557 1.387 . S
H555 C551 0.950 . S
H556 C553 0.950 . S
C557 C548 1.390 . S
C557 H550 0.950 . S
C557 C554 1.387 . S
C558 C559 1.387 . S
C558 H562 0.950 . S
C558 C567 1.390 . S
C559 C558 1.387 . S
C559 C561 1.387 . S
H560 C567 0.950 . S
C561 C559 1.387 . S
C561 C563 1.390 . S
C561 H565 0.950 . S
H562 C558 0.950 . S
C563 C561 1.390 . S
C563 C564 1.387 . S
C563 H566 0.950 . S
C564 C563 1.387 . S
C564 C567 1.387 . S
H565 C561 0.950 . S
H566 C563 0.950 . S
C567 C558 1.390 . S
C567 H560 0.950 . S
C567 C564 1.387 . S
C568 C569 1.387 . S
C568 H572 0.950 . S
C568 C577 1.390 . S
C569 C568 1.387 . S
C569 C571 1.387 . S
H570 C577 0.950 . S
C571 C569 1.387 . S
C571 C573 1.390 . S
C571 H575 0.950 . S
H572 C568 0.950 . S
C573 C571 1.390 . S
C573 C574 1.387 . S
C573 H576 0.950 . S
C574 C573 1.387 . S
C574 C577 1.387 . S
H575 C571 0.950 . S
H576 C573 0.950 . S
C577 C568 1.390 . S
C577 H570 0.950 . S
C577 C574 1.387 . S
C578 C579 1.387 . S
C578 H582 0.950 . S
C578 C587 1.390 . S
C579 C578 1.387 . S
C579 C581 1.387 . S
H580 C587 0.950 . S
C581 C579 1.387 . S
C581 C583 1.390 . S
C581 H585 0.950 . S
H582 C578 0.950 . S
C583 C581 1.390 . S
C583 C584 1.387 . S
C583 H586 0.950 . S
C584 C583 1.387 . S
C584 C587 1.387 . S
H585 C581 0.950 . S
H586 C583 0.950 . S
C587 C578 1.390 . S
C587 H580 0.950 . S
C587 C584 1.387 . S
C588 C589 1.387 . S
C588 H592 0.950 . S
C588 C597 1.390 . S
C589 C588 1.387 . S
C589 C591 1.387 . S
H590 C597 0.950 . S
C591 C589 1.387 . S
C591 C593 1.390 . S
C591 H595 0.950 . S
H592 C588 0.950 . S
C593 C591 1.390 . S
C593 C594 1.387 . S
C593 H596 0.950 . S
C594 C593 1.387 . S
C594 C597 1.387 . S
H595 C591 0.950 . S
H596 C593 0.950 . S
C597 C588 1.390 . S
C597 H590 0.950 . S
C597 C594 1.387 . S
C598 C599 1.387 . S
C598 H602 0.950 . S
C598 C607 1.390 . S
C599 C598 1.387 . S
C599 C601 1.387 . S
H600 C607 0.950 . S
C601 C599 1.387 . S
C601 C603 1.390 . S
C601 H605 0.950 . S
H602 C598 0.950 . S
C603 C601 1.390 . S
C603 C604 1.387 . S
C603 H606 0.950 . S
C604 C603 1.387 . S
C604 C607 1.387 . S
H605 C601 0.950 . S
H606 C603 0.950 . S
C607 C598 1.390 . S
C607 H600 0.950 . S
C607 C604 1.387 . S
C608 C609 1.387 . S
C608 H612 0.950 . S
C608 C617 1.390 . S
C609 C608 1.387 . S
C609 C611 1.387 . S
H610 C617 0.950 . S
C611 C609 1.387 . S
C611 C613 1.390 . S
C611 H615 0.950 . S
H612 C608 0.950 . S
C613 C611 1.390 . S
C613 C614 1.387 . S
C613 H616 0.950 . S
C614 C613 1.387 . S
C614 C617 1.387 . S
H615 C611 0.950 . S
H616 C613 0.950 . S
C617 C608 1.390 . S
C617 H610 0.950 . S
C617 C614 1.387 . S
C618 C619 1.387 . S
C618 H622 0.950 . S
C618 C627 1.390 . S
C619 C618 1.387 . S
C619 C621 1.387 . S
H620 C627 0.950 . S
C621 C619 1.387 . S
C621 C623 1.390 . S
C621 H625 0.950 . S
H622 C618 0.950 . S
C623 C621 1.390 . S
C623 C624 1.387 . S
C623 H626 0.950 . S
C624 C623 1.387 . S
C624 C627 1.387 . S
H625 C621 0.950 . S
H626 C623 0.950 . S
C627 C618 1.390 . S
C627 H620 0.950 . S
C627 C624 1.387 . S
C628 C629 1.387 . S
C628 H632 0.950 . S
C628 C637 1.390 . S
C629 C628 1.387 . S
C629 C631 1.387 . S
H630 C637 0.950 . S
C631 C629 1.387 . S
C631 C633 1.390 . S
C631 H635 0.950 . S
H632 C628 0.950 . S
C633 C631 1.390 . S
C633 C634 1.387 . S
C633 H636 0.950 . S
C634 C633 1.387 . S
C634 C637 1.387 . S
H635 C631 0.950 . S
H636 C633 0.950 . S
C637 C628 1.390 . S
C637 H630 0.950 . S
C637 C634 1.387 . S
C638 C639 1.387 . S
C638 H642 0.950 . S
C638 C647 1.390 . S
C639 C638 1.387 . S
C639 C641 1.387 . S
H640 C647 0.950 . S
C641 C639 1.387 . S
C641 C643 1.390 . S
C641 H645 0.950 . S
H642 C638 0.950 . S
C643 C641 1.390 . S
C643 C644 1.387 . S
C643 H646 0.950 . S
C644 C643 1.387 . S
C644 C647 1.387 . S
H645 C641 0.950 . S
H646 C643 0.950 . S
C647 C638 1.390 . S
C647 H640 0.950 . S
C647 C644 1.387 . S
C648 C649 1.387 . S
C648 H652 0.950 . S
C648 C657 1.390 . S
C649 C648 1.387 . S
C649 C651 1.387 . S
H650 C657 0.950 . S
C651 C649 1.387 . S
C651 C653 1.390 . S
C651 H655 0.950 . S
H652 C648 0.950 . S
C653 C651 1.390 . S
C653 C654 1.387 . S
C653 H656 0.950 . S
C654 C653 1.387 . S
C654 C657 1.387 . S
H655 C651 0.950 . S
H656 C653 0.950 . S
C657 C648 1.390 . S
C657 H650 0.950 . S
C657 C654 1.387 . S
C658 C659 1.387 . S
C658 H662 0.950 . S
C658 C667 1.390 . S
C659 C658 1.387 . S
C659 C661 1.387 . S
H660 C667 0.950 . S
C661 C659 1.387 . S
C661 C663 1.390 . S
C661 H665 0.950 . S
H662 C658 0.950 . S
C663 C661 1.390 . S
C663 C664 1.387 . S
C663 H666 0.950 . S
C664 C663 1.387 . S
C664 C667 1.387 . S
H665 C661 0.950 . S
H666 C663 0.950 . S
C667 C658 1.390 . S
C667 H660 0.950 . S
C667 C664 1.387 . S
C668 C669 1.387 . S
C668 H672 0.950 . S
C668 C677 1.390 . S
C669 C668 1.387 . S
C669 C671 1.387 . S
H670 C677 0.950 . S
C671 C669 1.387 . S
C671 C673 1.390 . S
C671 H675 0.950 . S
H672 C668 0.950 . S
C673 C671 1.390 . S
C673 C674 1.387 . S
C673 H676 0.950 . S
C674 C673 1.387 . S
C674 C677 1.387 . S
H675 C671 0.950 . S
H676 C673 0.950 . S
C677 C668 1.390 . S
C677 H670 0.950 . S
C677 C674 1.387 . S
C678 C679 1.387 . S
C678 H682 0.950 . S
C678 C687 1.390 . S
C679 C678 1.387 . S
C679 C681 1.387 . S
H680 C687 0.950 . S
C681 C679 1.387 . S
C681 C683 1.390 . S
C681 H685 0.950 . S
H682 C678 0.950 . S
C683 C681 1.390 . S
C683 C684 1.387 . S
C683 H686 0.950 . S
C684 C683 1.387 . S
C684 C687 1.387 . S
H685 C681 0.950 . S
H686 C683 0.950 . S
C687 C678 1.390 . S
C687 H680 0.950 . S
C687 C684 1.387 . S
C688 C689 1.387 . S
C688 H692 0.950 . S
C688 C697 1.390 1_445 S
C689 C688 1.387 . S
C689 C691 1.387 . S
H690 C697 0.950 . S
C691 C689 1.387 . S
C691 C693 1.390 1_445 S
C691 H695 0.950 . S
H692 C688 0.950 . S
C693 C691 1.390 1_665 S
C693 C694 1.387 . S
C693 H696 0.950 . S
C694 C693 1.387 . S
C694 C697 1.387 . S
H695 C691 0.950 . S
H696 C693 0.950 . S
C697 C688 1.390 1_665 S
C697 H690 0.950 . S
C697 C694 1.387 . S
C698 C699 1.387 . S
C698 H702 0.950 . S
C698 C707 1.390 1_465 S
C699 C698 1.387 . S
C699 C701 1.387 . S
H700 C707 0.950 . S
C701 C699 1.387 . S
C701 C703 1.390 1_465 S
C701 H705 0.950 . S
H702 C698 0.950 . S
C703 C701 1.390 1_645 S
C703 C704 1.387 . S
C703 H706 0.950 . S
C704 C703 1.387 . S
C704 C707 1.387 . S
H705 C701 0.950 . S
H706 C703 0.950 . S
C707 C698 1.390 1_645 S
C707 H700 0.950 . S
C707 C704 1.387 . S
C708 C709 1.387 1_556 S
C708 H712 0.950 . S
C708 C717 1.390 1_455 S
C709 C708 1.387 1_554 S
C709 C711 1.387 . S
H710 C717 0.950 . S
C711 C709 1.387 . S
C711 C713 1.390 1_455 S
C711 H715 0.950 . S
H712 C708 0.950 . S
C713 C711 1.390 1_655 S
C713 C714 1.387 . S
C713 H716 0.950 . S
C714 C713 1.387 . S
C714 C717 1.387 1_554 S
H715 C711 0.950 . S
H716 C713 0.950 . S
C717 C708 1.390 1_655 S
C717 H710 0.950 . S
C717 C714 1.387 1_556 S
C718 C719 1.387 . S
C718 H722 0.950 . S
C718 C727 1.390 1_565 S
C719 C718 1.387 . S
C719 C721 1.387 1_556 S
H720 C727 0.950 . S
C721 C719 1.387 1_554 S
C721 C723 1.390 1_565 S
C721 H725 0.950 . S
H722 C718 0.950 . S
C723 C721 1.390 1_545 S
C723 C724 1.387 1_554 S
C723 H726 0.950 . S
C724 C723 1.387 1_556 S
C724 C727 1.387 . S
H725 C721 0.950 . S
H726 C723 0.950 . S
C727 C718 1.390 1_545 S
C727 H720 0.950 . S
C727 C724 1.387 . S
C728 C729 1.387 . S
C728 H732 0.950 . S
C728 C737 1.390 . S
C729 C728 1.387 . S
C729 C731 1.387 . S
H730 C737 0.950 . S
C731 C729 1.387 . S
C731 C733 1.390 . S
C731 H735 0.950 . S
H732 C728 0.950 . S
C733 C731 1.390 . S
C733 C734 1.387 . S
C733 H736 0.950 . S
C734 C733 1.387 . S
C734 C737 1.387 . S
H735 C731 0.950 . S
H736 C733 0.950 . S
C737 C728 1.390 . S
C737 H730 0.950 . S
C737 C734 1.387 . S
C738 C739 1.387 . S
C738 H742 0.950 . S
C738 C747 1.390 . S
C739 C738 1.387 . S
C739 C741 1.387 . S
H740 C747 0.950 . S
C741 C739 1.387 . S
C741 C743 1.390 . S
C741 H745 0.950 . S
H742 C738 0.950 . S
C743 C741 1.390 . S
C743 C744 1.387 . S
C743 H746 0.950 . S
C744 C743 1.387 . S
C744 C747 1.387 . S
H745 C741 0.950 . S
H746 C743 0.950 . S
C747 C738 1.390 . S
C747 H740 0.950 . S
C747 C744 1.387 . S
C748 C749 1.387 . S
C748 H752 0.950 . S
C748 C757 1.390 1_565 S
C749 C748 1.387 . S
C749 C751 1.387 . S
H750 C757 0.950 . S
C751 C749 1.387 . S
C751 C753 1.390 1_565 S
C751 H755 0.950 . S
H752 C748 0.950 . S
C753 C751 1.390 1_545 S
C753 C754 1.387 . S
C753 H756 0.950 . S
C754 C753 1.387 . S
C754 C757 1.387 . S
H755 C751 0.950 . S
H756 C753 0.950 . S
C757 C748 1.390 1_545 S
C757 H750 0.950 . S
C757 C754 1.387 . S
C758 C759 1.387 . S
C758 H762 0.950 . S
C758 C767 1.390 1_655 S
C759 C758 1.387 . S
C759 C761 1.387 . S
H760 C767 0.950 . S
C761 C759 1.387 . S
C761 C763 1.390 1_655 S
C761 H765 0.950 . S
H762 C758 0.950 . S
C763 C761 1.390 1_455 S
C763 C764 1.387 . S
C763 H766 0.950 . S
C764 C763 1.387 . S
C764 C767 1.387 . S
H765 C761 0.950 . S
H766 C763 0.950 . S
C767 C758 1.390 1_455 S
C767 H760 0.950 . S
C767 C764 1.387 . S
C768 C769 1.387 . S
C768 H772 0.950 . S
C768 C777 1.390 . S
C769 C768 1.387 . S
C769 C771 1.387 . S
H770 C777 0.950 . S
C771 C769 1.387 . S
C771 C773 1.390 . S
C771 H775 0.950 1_565 S
H772 C768 0.950 . S
C773 C771 1.390 . S
C773 C774 1.387 . S
C773 H776 0.950 1_565 S
C774 C773 1.387 . S
C774 C777 1.387 . S
H775 C771 0.950 1_545 S
H776 C773 0.950 1_545 S
C777 C768 1.390 . S
C777 H770 0.950 . S
C777 C774 1.387 . S
C778 C779 1.387 . S
C778 H782 0.950 . S
C778 C787 1.390 . S
C779 C778 1.387 . S
C779 C781 1.387 . S
H780 C787 0.950 . S
C781 C779 1.387 . S
C781 C783 1.390 . S
C781 H785 0.950 . S
H782 C778 0.950 . S
C783 C781 1.390 . S
C783 C784 1.387 . S
C783 H786 0.950 . S
C784 C783 1.387 . S
C784 C787 1.387 . S
H785 C781 0.950 . S
H786 C783 0.950 . S
C787 C778 1.390 . S
C787 H780 0.950 . S
C787 C784 1.387 . S
C788 C789 1.387 . S
C788 H792 0.950 . S
C788 C797 1.390 . S
C789 C788 1.387 . S
C789 C791 1.387 . S
H790 C797 0.950 . S
C791 C789 1.387 . S
C791 C793 1.390 . S
C791 H795 0.950 1_545 S
H792 C788 0.950 . S
C793 C791 1.390 . S
C793 C794 1.387 . S
C793 H796 0.950 1_545 S
C794 C793 1.387 . S
C794 C797 1.387 . S
H795 C791 0.950 1_565 S
H796 C793 0.950 1_565 S
C797 C788 1.390 . S
C797 H790 0.950 . S
C797 C794 1.387 . S
C798 C799 1.387 . S
C798 H802 0.950 . S
C798 C807 1.390 . S
C799 C798 1.387 . S
C799 C801 1.387 . S
H800 C807 0.950 . S
C801 C799 1.387 . S
C801 C803 1.390 . S
C801 H805 0.950 . S
H802 C798 0.950 . S
C803 C801 1.390 . S
C803 C804 1.387 . S
C803 H806 0.950 . S
C804 C803 1.387 . S
C804 C807 1.387 . S
H805 C801 0.950 . S
H806 C803 0.950 . S
C807 C798 1.390 . S
C807 H800 0.950 . S
C807 C804 1.387 . S
C808 C809 1.387 . S
C808 H812 0.950 . S
C808 C817 1.390 . S
C809 C808 1.387 . S
C809 C811 1.387 . S
H810 C817 0.950 . S
C811 C809 1.387 . S
C811 C813 1.390 . S
C811 H815 0.950 . S
H812 C808 0.950 . S
C813 C811 1.390 . S
C813 C814 1.387 . S
C813 H816 0.950 . S
C814 C813 1.387 . S
C814 C817 1.387 . S
H815 C811 0.950 . S
H816 C813 0.950 . S
C817 C808 1.390 . S
C817 H810 0.950 . S
C817 C814 1.387 . S
C818 C819 1.387 . S
C818 H822 0.950 . S
C818 C827 1.390 . S
C819 C818 1.387 . S
C819 C821 1.387 . S
H820 C827 0.950 . S
C821 C819 1.387 . S
C821 C823 1.390 . S
C821 H825 0.950 . S
H822 C818 0.950 . S
C823 C821 1.390 . S
C823 C824 1.387 . S
C823 H826 0.950 . S
C824 C823 1.387 . S
C824 C827 1.387 . S
H825 C821 0.950 . S
H826 C823 0.950 . S
C827 C818 1.390 . S
C827 H820 0.950 . S
C827 C824 1.387 . S
C828 C829 1.387 . S
C828 H832 0.950 . S
C828 C837 1.390 . S
C829 C828 1.387 . S
C829 C831 1.387 . S
H830 C837 0.950 . S
C831 C829 1.387 . S
C831 C833 1.390 . S
C831 H835 0.950 . S
H832 C828 0.950 . S
C833 C831 1.390 . S
C833 C834 1.387 . S
C833 H836 0.950 . S
C834 C833 1.387 . S
C834 C837 1.387 . S
H835 C831 0.950 . S
H836 C833 0.950 . S
C837 C828 1.390 . S
C837 H830 0.950 . S
C837 C834 1.387 . S
C838 C839 1.387 . S
C838 H842 0.950 . S
C838 C847 1.390 . S
C839 C838 1.387 . S
C839 C841 1.387 . S
H840 C847 0.950 . S
C841 C839 1.387 . S
C841 C843 1.390 . S
C841 H845 0.950 . S
H842 C838 0.950 . S
C843 C841 1.390 . S
C843 C844 1.387 . S
C843 H846 0.950 . S
C844 C843 1.387 . S
C844 C847 1.387 . S
H845 C841 0.950 . S
H846 C843 0.950 . S
C847 C838 1.390 . S
C847 H840 0.950 . S
C847 C844 1.387 . S
C848 C849 1.387 . S
C848 H852 0.950 . S
C848 C857 1.390 1_556 S
C849 C848 1.387 . S
C849 C851 1.387 . S
H850 C857 0.950 . S
C851 C849 1.387 . S
C851 C853 1.390 1_556 S
C851 H855 0.950 . S
H852 C848 0.950 . S
C853 C851 1.390 1_554 S
C853 C854 1.387 . S
C853 H856 0.950 . S
C854 C853 1.387 . S
C854 C857 1.387 . S
H855 C851 0.950 . S
H856 C853 0.950 . S
C857 C848 1.390 1_554 S
C857 H850 0.950 . S
C857 C854 1.387 . S
C858 C859 1.387 . S
C858 H862 0.950 . S
C858 C867 1.390 1_556 S
C859 C858 1.387 . S
C859 C861 1.387 1_556 S
H860 C867 0.950 . S
C861 C859 1.387 1_554 S
C861 C863 1.390 . S
C861 H865 0.950 . S
H862 C858 0.950 . S
C863 C861 1.390 . S
C863 C864 1.387 . S
C863 H866 0.950 . S
C864 C863 1.387 . S
C864 C867 1.387 . S
H865 C861 0.950 . S
H866 C863 0.950 . S
C867 C858 1.390 1_554 S
C867 H860 0.950 . S
C867 C864 1.387 . S
C868 C869 1.387 . S
C868 H872 0.950 . S
C868 C877 1.390 1_556 S
C869 C868 1.387 . S
C869 C871 1.387 . S
H870 C877 0.950 . S
C871 C869 1.387 . S
C871 C873 1.390 . S
C871 H875 0.950 . S
H872 C868 0.950 . S
C873 C871 1.390 . S
C873 C874 1.387 1_556 S
C873 H876 0.950 1_556 S
C874 C873 1.387 1_554 S
C874 C877 1.387 . S
H875 C871 0.950 . S
H876 C873 0.950 1_554 S
C877 C868 1.390 1_554 S
C877 H870 0.950 . S
C877 C874 1.387 . S
C878 C879 1.387 . S
C878 H882 0.950 . S
C878 C887 1.390 1_554 S
C879 C878 1.387 . S
C879 C881 1.387 . S
H880 C887 0.950 . S
C881 C879 1.387 . S
C881 C883 1.390 1_554 S
C881 H885 0.950 . S
H882 C878 0.950 . S
C883 C881 1.390 1_556 S
C883 C884 1.387 . S
C883 H886 0.950 . S
C884 C883 1.387 . S
C884 C887 1.387 . S
H885 C881 0.950 . S
H886 C883 0.950 . S
C887 C878 1.390 1_556 S
C887 H880 0.950 . S
C887 C884 1.387 . S
C888 C889 1.387 . S
C888 H892 0.950 . S
C888 C897 1.390 . S
C889 C888 1.387 . S
C889 C891 1.387 . S
H890 C897 0.950 . S
C891 C889 1.387 . S
C891 C893 1.390 . S
C891 H895 0.950 1_545 S
H892 C888 0.950 . S
C893 C891 1.390 . S
C893 C894 1.387 . S
C893 H896 0.950 1_545 S
C894 C893 1.387 . S
C894 C897 1.387 . S
H895 C891 0.950 1_565 S
H896 C893 0.950 1_565 S
C897 C888 1.390 . S
C897 H890 0.950 . S
C897 C894 1.387 . S
C898 C899 1.387 . S
C898 H902 0.950 . S
C898 C907 1.390 . S
C899 C898 1.387 . S
C899 C901 1.387 . S
H900 C907 0.950 . S
C901 C899 1.387 . S
C901 C903 1.390 . S
C901 H905 0.950 . S
H902 C898 0.950 . S
C903 C901 1.390 . S
C903 C904 1.387 . S
C903 H906 0.950 . S
C904 C903 1.387 . S
C904 C907 1.387 . S
H905 C901 0.950 . S
H906 C903 0.950 . S
C907 C898 1.390 . S
C907 H900 0.950 . S
C907 C904 1.387 . S
C908 C909 1.387 . S
C908 H912 0.950 1_565 S
C908 C917 1.390 . S
C909 C908 1.387 . S
C909 C911 1.387 . S
H910 C917 0.950 1_545 S
C911 C909 1.387 . S
C911 C913 1.390 . S
C911 H915 0.950 . S
H912 C908 0.950 1_545 S
C913 C911 1.390 . S
C913 C914 1.387 . S
C913 H916 0.950 . S
C914 C913 1.387 . S
C914 C917 1.387 . S
H915 C911 0.950 . S
H916 C913 0.950 . S
C917 C908 1.390 . S
C917 H910 0.950 1_565 S
C917 C914 1.387 . S
C918 C919 1.387 . S
C918 H922 0.950 1_655 S
C918 C927 1.390 . S
C919 C918 1.387 . S
C919 C921 1.387 . S
H920 C927 0.950 . S
C921 C919 1.387 . S
C921 C923 1.390 . S
C921 H925 0.950 . S
H922 C918 0.950 1_455 S
C923 C921 1.390 . S
C923 C924 1.387 . S
C923 H926 0.950 . S
C924 C923 1.387 . S
C924 C927 1.387 . S
H925 C921 0.950 . S
H926 C923 0.950 . S
C927 C918 1.390 . S
C927 H920 0.950 . S
C927 C924 1.387 . S
C529 N145 2.134 . S
C534 N13 2.134 . S
C539 N46 2.136 . S
C544 N178 2.136 . S
C549 N79 2.136 . S
C554 N211 2.136 . S
C559 N112 2.136 . S
C564 N244 2.136 . S
C569 N277 2.134 . S
C574 N409 2.134 . S
C579 N442 2.136 . S
C584 N310 2.136 . S
C589 N475 2.134 . S
C594 N343 2.134 . S
C599 N376 2.136 . S
C604 N508 2.136 . S
C609 C18 1.619 . S
C614 C480 1.619 . S
C619 C51 1.619 . S
C624 C513 1.619 . S
C629 C84 1.624 . S
C634 C414 1.624 . S
C639 C447 1.619 . S
C644 C117 1.619 . S
C649 C348 1.624 . S
C654 C150 1.624 . S
C659 C183 1.624 . S
C664 C381 1.624 . S
C669 C216 1.619 . S
C674 C282 1.619 . S
C679 C249 1.624 . S
C684 C315 1.624 . S
C689 C7 1.802 . S
C694 C73 1.802 . S
C699 C40 1.802 . S
C704 C106 1.802 . S
C709 C139 1.804 . S
C714 C205 1.804 . S
C719 C172 1.804 . S
C724 C238 1.804 . S
C729 C337 1.802 . S
C734 C271 1.802 . S
C739 C370 1.802 . S
C744 C304 1.802 . S
C749 C403 1.804 . S
C754 C469 1.804 . S
C759 C436 1.804 . S
C764 C502 1.804 . S
C769 C54 0.787 . S
C774 N2 0.779 . S
C779 N35 0.780 . S
C784 C87 0.786 . S
C789 C120 0.785 . S
C794 N68 0.776 . S
C799 N101 0.770 . S
C804 C21 0.779 . S
C809 C516 0.786 . S
C814 N134 0.777 . S
C819 N167 0.780 . S
C824 C417 0.787 . S
C829 N200 0.779 . S
C834 C450 0.787 . S
C839 N233 0.771 . S
C844 C483 0.778 . S
C849 N266 0.773 . S
C854 C318 0.779 . S
C859 C351 0.786 . S
C864 N299 0.780 . S
C869 N332 0.772 . S
C874 C384 0.779 . S
C879 N365 0.777 . S
C884 C285 0.782 . S
C889 C252 0.786 . S
C894 N398 0.777 . S
C899 N431 0.771 . S
C904 C153 0.781 . S
C909 N464 0.772 . S
C914 C186 0.779 . S
C919 N497 0.780 . S
C924 C219 0.787 . S
