# Generated by pormake.
# Topology unh, (4)-cn, num edge types: 1
# Building blocks:
#     Node 0, Type 0, BuildingBlock: ICAMEG_clean_sbu_1, # of connection points: 4
#     Node 1, Type 0, BuildingBlock: ICAMEG_clean_sbu_1, # of connection points: 4
#     Node 2, Type 0, BuildingBlock: ICAMEG_clean_sbu_1, # of connection points: 4
#     Node 3, Type 0, BuildingBlock: ICAMEG_clean_sbu_1, # of connection points: 4
#     Node 4, Type 0, BuildingBlock: ICAMEG_clean_sbu_1, # of connection points: 4
#     Node 5, Type 0, BuildingBlock: ICAMEG_clean_sbu_1, # of connection points: 4
#     Edge 6, Type (0, 0), None
#     Edge 7, Type (0, 0), None
#     Edge 8, Type (0, 0), None
#     Edge 9, Type (0, 0), None
#     Edge 10, Type (0, 0), None
#     Edge 11, Type (0, 0), None
#     Edge 12, Type (0, 0), None
#     Edge 13, Type (0, 0), None
#     Edge 14, Type (0, 0), None
#     Edge 15, Type (0, 0), None
#     Edge 16, Type (0, 0), None
#     Edge 17, Type (0, 0), None
# Relax obj value: 0.037
# Max RMSD: 0.120
# Mean RMSD: 0.119
data_MOF--net-unh--node1-ICAMEG_clean_sbu_1--edge1-none
_symmetry_space_group_name_H-M    P1
_symmetry_Int_Tables_number       1
_symmetry_cell_setting            triclinic
loop_
_symmetry_equiv_pos_as_xyz
'x, y, z'
_cell_length_a     20.461309
_cell_length_b     20.750335
_cell_length_c     12.188594
_cell_angle_alpha  89.999986
_cell_angle_beta   90.000176
_cell_angle_gamma 120.21121
loop_
_atom_site_label
_atom_site_type_symbol
_atom_site_fract_x
_atom_site_fract_y
_atom_site_fract_z
_atom_type_partial_charge
Co0 Co 0.1728 0.51399 -0.00015 0.0
Co1 Co 0.17217 0.64951 0.15232 0.0
O2 O 0.12064 0.55504 0.07831 0.0
C3 C 0.05167 0.5031 0.8533 0.0
O4 O 0.08793 0.57597 0.86009 0.0
C5 C 0.05178 0.54335 0.30264 0.0
O6 O 0.08603 0.50452 0.29504 0.0
O7 O 0.2294 0.61193 0.243 0.0
O8 O 0.26069 0.55738 0.10943 0.0
H9 H 0.39943 0.8653 0.31761 0.0
H10 H 0.02038 0.43051 0.1038 0.0
O11 O 0.08207 0.46741 0.89432 0.0
H12 H 0.13323 0.27286 0.1535 0.0
H13 H 0.20474 0.31255 0.81967 0.0
H14 H 0.32947 0.57782 0.92195 0.0
H15 H 0.21356 0.40456 0.0991 0.0
H16 H 0.13054 0.36488 0.89975 0.0
O17 O 0.08327 0.60863 0.26034 0.0
H18 H 0.328 0.74357 0.23094 0.0
H19 H 0.12801 0.75774 0.24151 0.0
H20 H 0.40184 0.53099 0.82285 0.0
H21 H 0.94918 0.31221 0.20312 0.0
H22 H 0.33839 0.39761 0.76836 0.0
H23 H 1.00208 0.2279 0.21639 0.0
O24 O 0.22603 0.60757 0.90856 0.0
H25 H 0.94491 0.62231 0.95035 0.0
H26 H 0.21117 0.7949 0.0412 0.0
H27 H 0.13009 0.84516 0.98443 0.0
H28 H 0.99849 0.75864 0.92559 0.0
H29 H 0.01733 0.578 0.05539 0.0
H30 H 0.20203 0.88802 0.30513 0.0
H31 H 0.33592 0.93989 0.3545 0.0
O32 O 0.2579 0.69288 0.04162 0.0
C33 C 0.27044 0.58594 0.20597 0.0
C34 C 0.34056 0.84373 0.2983 0.0
C35 C 0.22968 0.85599 0.2906 0.0
N36 N 0.22382 0.74346 0.23006 0.0
C37 C 0.29908 0.7734 0.25153 0.0
C38 C 0.18823 0.78243 0.25434 0.0
C39 C 0.30549 0.88538 0.31739 0.0
C40 C 0.04782 0.39888 0.12168 0.0
N41 N 0.12091 0.42414 0.09015 0.0
C42 C 1.00603 0.33053 0.1753 0.0
C43 C 0.03592 0.28369 0.18391 0.0
C44 C 0.10996 0.30943 0.15058 0.0
C45 C 0.15426 0.3832 0.11577 0.0
C46 C 0.23217 0.3711 0.84092 0.0
C47 C 0.301 0.52019 0.89628 0.0
C48 C 0.1906 0.40091 0.88662 0.0
N49 N 0.22569 0.4741 0.91731 0.0
C50 C 0.34276 0.49381 0.84184 0.0
C51 C 0.30768 0.41885 0.8133 0.0
C52 C 0.26432 0.67465 0.94353 0.0
C53 C 1.00216 0.66115 0.97563 0.0
C54 C 0.15163 0.75699 0.02681 0.0
C55 C 0.10725 0.78575 0.98873 0.0
C56 C 0.03256 0.73722 0.95955 0.0
N57 N 0.11807 0.68433 0.06021 0.0
C58 C 0.04435 0.63616 0.03283 0.0
Co59 Co 0.67027 0.17744 0.16849 0.0
Co60 Co 0.53651 0.17938 0.33455 0.0
O61 O 0.57816 0.12883 0.25254 0.0
C62 C 0.57567 0.02245 0.05891 0.0
O63 O 0.55225 0.98781 0.15277 0.0
C64 C 0.47938 0.03097 0.45657 0.0
O65 O 0.47725 0.99655 0.3661 0.0
O66 O 0.63529 0.24158 0.41014 0.0
O67 O 0.72029 0.26344 0.27761 0.0
H68 H 0.47052 0.40018 0.38996 0.0
H69 H 0.60636 0.04105 0.32199 0.0
O70 O 0.62187 0.09331 0.05446 0.0
H71 H 0.87817 0.13424 0.30236 0.0
H72 H 0.89577 0.19475 0.97531 0.0
H73 H 0.77061 0.3305 0.09904 0.0
H74 H 0.82665 0.21261 0.24342 0.0
H75 H 0.76612 0.12696 0.05086 0.0
O76 O 0.5059 0.10162 0.45696 0.0
H77 H 0.50441 0.25641 0.39552 0.0
H78 H 0.43397 0.18997 0.57892 0.0
H79 H 0.89223 0.39917 0.00039 0.0
H80 H 0.65655 0.97014 0.40959 0.0
H81 H 0.95607 0.33008 0.93908 0.0
H82 H 0.79372 0.01391 0.39566 0.0
O83 O 0.62776 0.2314 0.08037 0.0
H84 H 0.34008 0.95986 0.10708 0.0
H85 H 0.41161 0.20325 0.25068 0.0
H86 H 0.27776 0.11945 0.2057 0.0
H87 H 0.24216 0.9965 0.12331 0.0
H88 H 0.46245 0.03567 0.19207 0.0
H89 H 0.34089 0.23677 0.69853 0.0
H90 H 0.36305 0.35191 0.5609 0.0
O91 O 0.5656 0.25758 0.20972 0.0
C92 C 0.70246 0.27688 0.37229 0.0
C93 C 0.45199 0.34746 0.42725 0.0
C94 C 0.37722 0.24792 0.62671 0.0
N95 N 0.49695 0.22983 0.42966 0.0
C96 C 0.49953 0.30324 0.37725 0.0
C97 C 0.45485 0.18505 0.54408 0.0
C98 C 0.39246 0.32274 0.54191 0.0
C99 C 0.66537 0.06166 0.31411 0.0
N100 N 0.71142 0.12576 0.25721 0.0
C101 C 0.69401 0.02114 0.36625 0.0
C102 C 0.77084 0.04607 0.35963 0.0
C103 C 0.81809 0.11352 0.30802 0.0
C104 C 0.78794 0.15621 0.26891 0.0
C105 C 0.86732 0.2248 -0.00175 0.0
C106 C 0.79597 0.3007 0.06545 0.0
C107 C 0.79407 0.18683 0.0408 0.0
N108 N 0.76131 0.2256 0.07982 0.0
C109 C 0.86541 0.33952 0.01193 0.0
C110 C 0.90137 0.30103 0.97854 0.0
C111 C 0.59126 0.26385 0.11046 0.0
C112 C 0.35245 0.01049 0.14989 0.0
C113 C 0.39144 0.14521 0.24211 0.0
C114 C 0.3175 0.0995 0.20526 0.0
C115 C 0.29784 0.03119 0.1582 0.0
N116 N 0.43936 0.11836 0.25634 0.0
C117 C 0.42251 0.05413 0.20099 0.0
Co118 Co 0.36651 0.52889 0.48225 0.0
Co119 Co 0.49852 0.65766 0.31437 0.0
O120 O 0.45845 0.5695 0.40167 0.0
C121 C 0.48092 0.50915 0.61793 0.0
O122 O 0.52461 0.58151 0.60838 0.0
C123 C 0.50804 0.544 0.15726 0.0
O124 O 0.43553 0.5149 0.1375 0.0
O125 O 0.39878 0.6134 0.23281 0.0
O126 O 0.3206 0.57304 0.37807 0.0
H127 H 0.72686 0.94104 0.20572 0.0
H128 H 0.42148 0.45589 0.32266 0.0
O129 O 0.41202 0.47938 0.58283 0.0
H130 H 0.14841 0.28741 0.35076 0.0
H131 H 0.12887 0.32683 0.65797 0.0
H132 H 0.28043 0.59315 0.56957 0.0
H133 H 0.20641 0.4199 0.4006 0.0
H134 H 0.25895 0.38029 0.5869 0.0
O135 O 0.54157 0.6038 0.21614 0.0
H136 H 0.6007 0.84905 0.31974 0.0
H137 H 0.54904 0.71672 0.04369 0.0
H138 H 0.15719 0.54607 0.66366 0.0
H139 H 0.365 0.3316 0.23702 0.0
H140 H 0.08019 0.41055 0.70545 0.0
H141 H 0.22787 0.24235 0.26356 0.0
O142 O 0.41506 0.62413 0.56986 0.0
H143 H 0.70537 0.63932 0.51089 0.0
H144 H 0.59309 0.79464 0.46188 0.0
H145 H 0.72373 0.85301 0.52703 0.0
H146 H 0.77884 0.77255 0.56307 0.0
H147 H 0.59161 0.595 0.39504 0.0
H148 H 0.66753 0.78689 0.88167 0.0
H149 H 0.76001 0.91838 -0.00479 0.0
O150 O 0.45894 0.70699 0.42847 0.0
C151 C 0.33338 0.59066 0.27597 0.0
C152 C 0.68749 0.8889 0.16779 0.0
C153 C 0.64717 0.79469 0.96012 0.0
N154 N 0.5406 0.74387 0.20785 0.0
C155 C 0.6074 0.82598 0.24505 0.0
C156 C 0.5285 0.70575 0.08824 0.0
C157 C 0.70831 0.87619 0.03333 0.0
C158 C 0.36207 0.41875 0.33017 0.0
N159 N 0.31903 0.43966 0.38815 0.0
C160 C 0.32998 0.34847 0.28063 0.0
C161 C 0.25317 0.29887 0.29404 0.0
C162 C 0.20864 0.32414 0.34227 0.0
C163 C 0.24228 0.3983 0.37559 0.0
C164 C 0.1627 0.38605 0.64187 0.0
C165 C 0.24862 0.53598 0.59449 0.0
C166 C 0.23624 0.4166 0.60181 0.0
N167 N 0.27616 0.48989 0.57194 0.0
C168 C 0.17856 0.50906 0.64525 0.0
C169 C 0.13522 0.43327 0.66808 0.0
C170 C 0.43857 0.69009 0.53163 0.0
C171 C 0.68566 0.67687 0.48738 0.0
C172 C 0.62294 0.76471 0.45401 0.0
C173 C 0.69414 0.79554 0.50226 0.0
C174 C 0.72556 0.75086 0.52025 0.0
N175 N 0.59194 0.69771 0.40085 0.0
C176 C 0.62081 0.65221 0.4226 0.0
Co177 Co 0.85366 0.49547 0.49984 0.0
Co178 Co 0.85429 0.35995 0.65232 0.0
O179 O 0.90582 0.45442 0.57831 0.0
C180 C 0.97479 0.50636 0.35331 0.0
O181 O 0.93854 0.43349 0.36008 0.0
C182 C 0.97468 0.46611 0.80263 0.0
O183 O 0.94043 0.50493 0.79504 0.0
O184 O 0.79706 0.39753 0.743 0.0
O185 O 0.76577 0.45208 0.60943 0.0
H186 H 0.62703 0.14415 0.81761 0.0
H187 H 1.00608 0.57895 0.6038 0.0
O188 O 0.94439 0.54204 0.39432 0.0
H189 H 0.89323 0.73659 0.65349 0.0
H190 H 0.82172 0.6969 0.31967 0.0
H191 H 0.69699 0.43163 0.42195 0.0
H192 H 0.81289 0.6049 0.5991 0.0
H193 H 0.89591 0.64458 0.39975 0.0
O194 O 0.94319 0.40083 0.76034 0.0
H195 H 0.69846 0.26588 0.73094 0.0
H196 H 0.89845 0.25171 0.74151 0.0
H197 H 0.62462 0.47846 0.32284 0.0
H198 H 0.07728 0.69725 0.70312 0.0
H199 H 0.68807 0.61184 0.26836 0.0
H200 H 0.02438 0.78156 0.71638 0.0
O201 O 0.80043 0.40189 0.40856 0.0
H202 H 0.08155 0.38715 0.45035 0.0
H203 H 0.81529 0.21456 0.5412 0.0
H204 H 0.89637 0.1643 0.48443 0.0
H205 H 0.02797 0.25081 0.4256 0.0
H206 H 1.00913 0.43146 0.55539 0.0
H207 H 0.82443 0.12144 0.80513 0.0
H208 H 0.69054 0.06957 0.8545 0.0
O209 O 0.76856 0.31657 0.54163 0.0
C210 C 0.75602 0.42352 0.70597 0.0
C211 C 0.6859 0.16573 0.7983 0.0
C212 C 0.79678 0.15347 0.7906 0.0
N213 N 0.80264 0.266 0.73007 0.0
C214 C 0.72738 0.23606 0.75154 0.0
C215 C 0.83823 0.22703 0.75434 0.0
C216 C 0.72098 0.12407 0.81739 0.0
C217 C 0.97864 0.61058 0.62168 0.0
N218 N 0.90555 0.58531 0.59015 0.0
C219 C 0.02043 0.67893 0.6753 0.0
C220 C 0.99053 0.72576 0.68391 0.0
C221 C 0.9165 0.70003 0.65058 0.0
C222 C 0.8722 0.62625 0.61577 0.0
C223 C 0.79428 0.63835 0.34092 0.0
C224 C 0.72546 0.48926 0.39628 0.0
C225 C 0.83586 0.60854 0.38661 0.0
N226 N 0.80077 0.53535 0.41731 0.0
C227 C 0.68369 0.51564 0.34183 0.0
C228 C 0.71877 0.5906 0.31329 0.0
C229 C 0.76215 0.3348 0.44352 0.0
C230 C 0.0243 0.34831 0.47563 0.0
C231 C 0.87483 0.25246 0.52681 0.0
C232 C 0.91921 0.22371 0.48873 0.0
C233 C 0.9939 0.27223 0.45955 0.0
N234 N 0.90839 0.32513 0.56021 0.0
C235 C 0.98211 0.3733 0.53283 0.0
Co236 Co 0.35619 0.83201 0.66849 0.0
Co237 Co 0.48995 0.83007 0.83455 0.0
O238 O 0.44831 0.88062 0.75254 0.0
C239 C 0.45079 0.987 0.55892 0.0
O240 O 0.47421 0.02164 0.65277 0.0
C241 C 0.54708 0.97849 0.95656 0.0
O242 O 0.54922 0.01291 0.86609 0.0
O243 O 0.39118 0.76787 0.91014 0.0
O244 O 0.30617 0.74602 0.77761 0.0
H245 H 0.55595 0.60928 0.88996 0.0
H246 H 0.4201 0.9684 0.822 0.0
O247 O 0.40459 0.91615 0.55446 0.0
H248 H 0.14829 0.87523 0.80235 0.0
H249 H 0.13069 0.81471 0.4753 0.0
H250 H 0.25584 0.67896 0.59904 0.0
H251 H 0.19981 0.79685 0.74342 0.0
H252 H 0.26034 0.8825 0.55086 0.0
O253 O 0.52056 0.90784 0.95695 0.0
H254 H 0.52206 0.75305 0.89551 0.0
H255 H 0.5925 0.81949 0.07892 0.0
H256 H 0.13423 0.61029 0.5004 0.0
H257 H 0.36991 0.03932 0.9096 0.0
H258 H 0.07039 0.67938 0.43908 0.0
H259 H 0.23274 0.99556 0.89566 0.0
O260 O 0.3987 0.77805 0.58037 0.0
H261 H 0.68637 0.0496 0.60707 0.0
H262 H 0.61487 0.80622 0.75068 0.0
H263 H 0.74871 0.89002 0.7057 0.0
H264 H 0.7843 0.01297 0.62331 0.0
H265 H 0.564 0.97378 0.69206 0.0
H266 H 0.68558 0.77269 0.19853 0.0
H267 H 0.66341 0.65755 0.06091 0.0
O268 O 0.46086 0.75188 0.70971 0.0
C269 C 0.32401 0.73257 0.87229 0.0
C270 C 0.57448 0.662 0.92725 0.0
C271 C 0.64924 0.76154 0.12671 0.0
N272 N 0.52951 0.77963 0.92966 0.0
C273 C 0.52694 0.70622 0.87725 0.0
C274 C 0.57162 0.82441 0.04407 0.0
C275 C 0.63401 0.68673 0.04191 0.0
C276 C 0.36109 0.94779 0.81411 0.0
N277 N 0.31504 0.8837 0.75722 0.0
C278 C 0.33245 0.98832 0.86625 0.0
C279 C 0.25562 0.96339 0.85964 0.0
C280 C 0.20838 0.89594 0.80802 0.0
C281 C 0.23853 0.85325 0.76891 0.0
C282 C 0.15914 0.78466 0.49825 0.0
C283 C 0.23048 0.70875 0.56546 0.0
C284 C 0.23239 0.82263 0.5408 0.0
N285 N 0.26514 0.78385 0.57983 0.0
C286 C 0.16105 0.66993 0.51193 0.0
C287 C 0.12509 0.70843 0.47854 0.0
C288 C 0.43521 0.74562 0.61046 0.0
C289 C 0.67401 0.99897 0.64988 0.0
C290 C 0.63503 0.86426 0.74211 0.0
C291 C 0.70897 0.90997 0.70526 0.0
C292 C 0.72862 0.97828 0.65819 0.0
N293 N 0.5871 0.8911 0.75634 0.0
C294 C 0.60395 0.95533 0.70098 0.0
Co295 Co 0.65996 0.48057 0.98225 0.0
Co296 Co 0.52794 0.3518 0.81437 0.0
O297 O 0.56802 0.43996 0.90167 0.0
C298 C 0.54554 0.50032 0.11791 0.0
O299 O 0.50185 0.42795 0.10839 0.0
C300 C 0.51843 0.46547 0.65727 0.0
O301 O 0.59093 0.49456 0.63749 0.0
O302 O 0.62769 0.39606 0.73281 0.0
O303 O 0.70586 0.43642 0.87807 0.0
H304 H 0.29961 0.06842 0.70572 0.0
H305 H 0.60498 0.55357 0.82265 0.0
O306 O 0.61444 0.53009 0.08283 0.0
H307 H 0.87805 0.72205 0.85076 0.0
H308 H 0.8976 0.68263 0.15797 0.0
H309 H 0.74603 0.41631 0.06958 0.0
H310 H 0.82005 0.58956 0.9006 0.0
H311 H 0.76752 0.62918 0.0869 0.0
O312 O 0.48489 0.40566 0.71614 0.0
H313 H 0.42576 0.16041 0.81974 0.0
H314 H 0.47743 0.29274 0.5437 0.0
H315 H 0.86927 0.46339 0.16366 0.0
H316 H 0.66147 0.67786 0.73701 0.0
H317 H 0.94628 0.59891 0.20545 0.0
H318 H 0.79859 0.76711 0.76356 0.0
O319 O 0.6114 0.38533 0.06986 0.0
H320 H 0.32109 0.37014 0.01089 0.0
H321 H 0.43338 0.21482 0.96188 0.0
H322 H 0.30273 0.15645 0.02703 0.0
H323 H 0.24762 0.23691 0.06307 0.0
H324 H 0.43485 0.41446 0.89505 0.0
H325 H 0.35894 0.22258 0.38166 0.0
H326 H 0.26646 0.09109 0.4952 0.0
O327 O 0.56752 0.30247 0.92847 0.0
C328 C 0.69309 0.4188 0.77597 0.0
C329 C 0.33897 0.12057 0.66779 0.0
C330 C 0.37929 0.21478 0.46011 0.0
N331 N 0.48587 0.26559 0.70785 0.0
C332 C 0.41906 0.18348 0.74505 0.0
C333 C 0.49797 0.30371 0.58824 0.0
C334 C 0.31815 0.13327 0.53332 0.0
C335 C 0.66439 0.59071 0.83017 0.0
N336 N 0.70744 0.5698 0.88815 0.0
C337 C 0.69649 0.66099 0.78063 0.0
C338 C 0.77329 0.71059 0.79403 0.0
C339 C 0.81783 0.68532 0.84227 0.0
C340 C 0.78419 0.61116 0.87559 0.0
C341 C 0.86377 0.62341 0.14187 0.0
C342 C 0.77785 0.47349 0.09449 0.0
C343 C 0.79023 0.59286 0.10181 0.0
N344 N 0.7503 0.51957 0.07194 0.0
C345 C 0.84791 0.5004 0.14526 0.0
C346 C 0.89125 0.57619 0.16808 0.0
C347 C 0.58789 0.31937 0.03163 0.0
C348 C 0.3408 0.33259 0.98738 0.0
C349 C 0.40353 0.24475 0.95401 0.0
C350 C 0.33233 0.21392 0.00226 0.0
C351 C 0.30091 0.2586 0.02025 0.0
N352 N 0.43452 0.31175 0.90086 0.0
C353 C 0.40565 0.35725 0.9226 0.0
loop_
_geom_bond_atom_site_label_1
_geom_bond_atom_site_label_2
_geom_bond_distance
_geom_bond_site_symmetry_2
_ccdc_geom_bond_type
Co0 O2 2.143 1_556 S
Co0 O8 2.074 1_556 S
Co0 O11 2.093 . S
Co0 O24 2.097 . S
Co0 N41 2.151 1_556 S
Co0 N49 2.214 . S
Co1 O2 2.160 . S
Co1 O7 2.058 . S
Co1 O17 2.057 . S
Co1 O32 2.037 . S
Co1 N36 2.145 . S
Co1 N57 2.257 . S
O2 Co0 2.143 1_554 S
O2 Co1 2.160 . S
C3 O4 1.278 . S
C3 O11 1.224 . S
O4 C3 1.278 . S
C5 O6 1.245 . S
C5 O17 1.232 . S
O6 C5 1.245 . S
O7 Co1 2.058 . S
O7 C33 1.269 . S
O8 Co0 2.074 1_554 S
O8 C33 1.257 . S
H9 C34 0.930 . S
H10 C40 0.932 . S
O11 Co0 2.093 . S
O11 C3 1.224 . S
H12 C44 0.929 . S
H13 C46 0.930 . S
H14 C47 0.930 . S
H15 C45 0.929 . S
H16 C48 0.928 . S
O17 Co1 2.057 . S
O17 C5 1.232 . S
H18 C37 0.929 . S
H19 C38 0.929 . S
H20 C50 0.931 . S
H21 C42 0.929 1_655 S
H22 C51 0.930 . S
H23 C43 0.931 . S
O24 Co0 2.097 . S
O24 C52 1.214 . S
H25 C53 0.929 . S
H26 C54 0.929 . S
H27 C55 0.930 . S
H28 C56 0.929 1_556 S
H29 C58 0.930 . S
H30 C35 0.930 . S
H31 C39 0.930 . S
O32 Co1 2.037 . S
O32 C52 1.234 1_554 S
C33 O7 1.269 . S
C33 O8 1.257 . S
C34 H9 0.930 . S
C34 C37 1.388 . S
C34 C39 1.418 . S
C35 H30 0.930 . S
C35 C38 1.404 . S
C35 C39 1.353 . S
N36 Co1 2.145 . S
N36 C37 1.397 . S
N36 C38 1.334 . S
C37 H18 0.929 . S
C37 C34 1.388 . S
C37 N36 1.397 . S
C38 H19 0.929 . S
C38 C35 1.404 . S
C38 N36 1.334 . S
C39 H31 0.930 . S
C39 C34 1.418 . S
C39 C35 1.353 . S
C40 H10 0.932 . S
C40 N41 1.329 1_556 S
C40 C42 1.444 1_556 S
N41 Co0 2.151 1_554 S
N41 C40 1.329 1_554 S
N41 C45 1.418 . S
C42 H21 0.929 1_455 S
C42 C40 1.444 1_554 S
C42 C43 1.332 . S
C43 H23 0.931 . S
C43 C42 1.332 . S
C43 C44 1.267 . S
C44 H12 0.929 . S
C44 C43 1.267 . S
C44 C45 1.251 . S
C45 H15 0.929 . S
C45 N41 1.418 . S
C45 C44 1.251 . S
C46 H13 0.930 . S
C46 C48 1.406 . S
C46 C51 1.261 . S
C47 H14 0.930 . S
C47 N49 1.325 . S
C47 C50 1.357 . S
C48 H16 0.928 . S
C48 C46 1.406 . S
C48 N49 1.261 . S
N49 Co0 2.214 . S
N49 C47 1.325 . S
N49 C48 1.261 . S
C50 H20 0.931 . S
C50 C47 1.357 . S
C50 C51 1.312 . S
C51 H22 0.930 . S
C51 C46 1.261 . S
C51 C50 1.312 . S
C52 O24 1.214 . S
C52 O32 1.234 1_556 S
C53 H25 0.929 . S
C53 C56 1.391 1_655 S
C53 C58 1.391 1_655 S
C54 H26 0.929 . S
C54 C55 1.390 . S
C54 N57 1.391 . S
C55 H27 0.930 . S
C55 C54 1.390 . S
C55 C56 1.392 . S
C56 H28 0.929 1_554 S
C56 C53 1.391 1_455 S
C56 C55 1.392 . S
N57 Co1 2.257 . S
N57 C54 1.391 . S
N57 C58 1.388 . S
C58 H29 0.930 . S
C58 C53 1.391 1_455 S
C58 N57 1.388 . S
Co59 O61 2.143 . S
Co59 O67 2.074 . S
Co59 O70 2.093 . S
Co59 O83 2.097 . S
Co59 N100 2.151 . S
Co59 N108 2.214 . S
Co60 O61 2.160 . S
Co60 O66 2.058 . S
Co60 O76 2.057 . S
Co60 O91 2.037 . S
Co60 N95 2.145 . S
Co60 N116 2.257 . S
O61 Co59 2.143 . S
O61 Co60 2.160 . S
C62 O63 1.278 . S
C62 O70 1.224 . S
O63 C62 1.278 . S
C64 O65 1.245 . S
C64 O76 1.232 . S
O65 C64 1.245 . S
O66 Co60 2.058 . S
O66 C92 1.269 . S
O67 Co59 2.074 . S
O67 C92 1.257 . S
H68 C93 0.930 . S
H69 C99 0.930 . S
O70 Co59 2.093 . S
O70 C62 1.224 . S
H71 C103 0.929 . S
H72 C105 0.930 . S
H73 C106 0.930 . S
H74 C104 0.929 . S
H75 C107 0.928 . S
O76 Co60 2.057 . S
O76 C64 1.232 . S
H77 C96 0.929 . S
H78 C97 0.929 . S
H79 C109 0.931 . S
H80 C101 0.929 1_565 S
H81 C110 0.930 . S
H82 C102 0.931 . S
O83 Co59 2.097 . S
O83 C111 1.214 . S
H84 C112 0.929 . S
H85 C113 0.929 . S
H86 C114 0.930 . S
H87 C115 0.929 . S
H88 C117 0.930 . S
H89 C94 0.930 . S
H90 C98 0.930 . S
O91 Co60 2.037 . S
O91 C111 1.234 . S
C92 O66 1.269 . S
C92 O67 1.257 . S
C93 H68 0.930 . S
C93 C96 1.388 . S
C93 C98 1.418 . S
C94 H89 0.930 . S
C94 C97 1.404 . S
C94 C98 1.353 . S
N95 Co60 2.145 . S
N95 C96 1.397 . S
N95 C97 1.334 . S
C96 H77 0.929 . S
C96 C93 1.388 . S
C96 N95 1.397 . S
C97 H78 0.929 . S
C97 C94 1.404 . S
C97 N95 1.334 . S
C98 H90 0.930 . S
C98 C93 1.418 . S
C98 C94 1.353 . S
C99 H69 0.930 . S
C99 N100 1.330 . S
C99 C101 1.446 . S
N100 Co59 2.151 . S
N100 C99 1.330 . S
N100 C104 1.418 . S
C101 H80 0.929 1_545 S
C101 C99 1.446 . S
C101 C102 1.332 . S
C102 H82 0.931 . S
C102 C101 1.332 . S
C102 C103 1.267 . S
C103 H71 0.929 . S
C103 C102 1.267 . S
C103 C104 1.251 . S
C104 H74 0.929 . S
C104 N100 1.418 . S
C104 C103 1.251 . S
C105 H72 0.930 . S
C105 C107 1.406 . S
C105 C110 1.261 . S
C106 H73 0.930 . S
C106 N108 1.325 . S
C106 C109 1.357 1_554 S
C107 H75 0.928 . S
C107 C105 1.406 . S
C107 N108 1.261 1_556 S
N108 Co59 2.214 . S
N108 C106 1.325 . S
N108 C107 1.261 1_554 S
C109 H79 0.931 . S
C109 C106 1.357 1_556 S
C109 C110 1.312 . S
C110 H81 0.930 . S
C110 C105 1.261 . S
C110 C109 1.312 . S
C111 O83 1.214 . S
C111 O91 1.234 . S
C112 H84 0.929 . S
C112 C115 1.391 1_565 S
C112 C117 1.391 1_565 S
C113 H85 0.929 . S
C113 C114 1.390 . S
C113 N116 1.391 . S
C114 H86 0.930 . S
C114 C113 1.390 . S
C114 C115 1.392 . S
C115 H87 0.929 . S
C115 C112 1.391 1_545 S
C115 C114 1.392 . S
N116 Co60 2.257 . S
N116 C113 1.391 . S
N116 C117 1.388 . S
C117 H88 0.930 . S
C117 C112 1.391 1_545 S
C117 N116 1.388 . S
Co118 O120 2.143 . S
Co118 O126 2.074 . S
Co118 O129 2.093 . S
Co118 O142 2.097 . S
Co118 N159 2.151 . S
Co118 N167 2.214 . S
Co119 O120 2.160 . S
Co119 O125 2.058 . S
Co119 O135 2.057 . S
Co119 O150 2.037 . S
Co119 N154 2.145 . S
Co119 N175 2.257 . S
O120 Co118 2.143 . S
O120 Co119 2.160 . S
C121 O122 1.278 . S
C121 O129 1.224 . S
O122 C121 1.278 . S
C123 O124 1.245 . S
C123 O135 1.232 . S
O124 C123 1.245 . S
O125 Co119 2.058 . S
O125 C151 1.269 . S
O126 Co118 2.074 . S
O126 C151 1.257 . S
H127 C152 0.930 . S
H128 C158 0.930 . S
O129 Co118 2.093 . S
O129 C121 1.224 . S
H130 C162 0.929 . S
H131 C164 0.930 . S
H132 C165 0.930 . S
H133 C163 0.929 . S
H134 C166 0.928 . S
O135 Co119 2.057 . S
O135 C123 1.232 . S
H136 C155 0.929 . S
H137 C156 0.929 . S
H138 C168 0.931 . S
H139 C160 0.929 . S
H140 C169 0.930 . S
H141 C161 0.931 . S
O142 Co118 2.097 . S
O142 C170 1.214 . S
H143 C171 0.929 . S
H144 C172 0.929 . S
H145 C173 0.930 . S
H146 C174 0.929 . S
H147 C176 0.930 . S
H148 C153 0.930 1_556 S
H149 C157 0.930 . S
O150 Co119 2.037 . S
O150 C170 1.234 . S
C151 O125 1.269 . S
C151 O126 1.257 . S
C152 H127 0.930 . S
C152 C155 1.388 . S
C152 C157 1.418 . S
C153 H148 0.930 1_554 S
C153 C156 1.404 . S
C153 C157 1.353 . S
N154 Co119 2.145 . S
N154 C155 1.397 . S
N154 C156 1.334 . S
C155 H136 0.929 . S
C155 C152 1.388 . S
C155 N154 1.397 . S
C156 H137 0.929 . S
C156 C153 1.404 . S
C156 N154 1.334 . S
C157 H149 0.930 . S
C157 C152 1.418 . S
C157 C153 1.353 . S
C158 H128 0.930 . S
C158 N159 1.330 . S
C158 C160 1.446 . S
N159 Co118 2.151 . S
N159 C158 1.330 . S
N159 C163 1.418 . S
C160 H139 0.929 . S
C160 C158 1.446 . S
C160 C161 1.332 . S
C161 H141 0.931 . S
C161 C160 1.332 . S
C161 C162 1.267 . S
C162 H130 0.929 . S
C162 C161 1.267 . S
C162 C163 1.251 . S
C163 H133 0.929 . S
C163 N159 1.418 . S
C163 C162 1.251 . S
C164 H131 0.930 . S
C164 C166 1.406 . S
C164 C169 1.261 . S
C165 H132 0.930 . S
C165 N167 1.325 . S
C165 C168 1.357 . S
C166 H134 0.928 . S
C166 C164 1.406 . S
C166 N167 1.261 . S
N167 Co118 2.214 . S
N167 C165 1.325 . S
N167 C166 1.261 . S
C168 H138 0.931 . S
C168 C165 1.357 . S
C168 C169 1.312 . S
C169 H140 0.930 . S
C169 C164 1.261 . S
C169 C168 1.312 . S
C170 O142 1.214 . S
C170 O150 1.234 . S
C171 H143 0.929 . S
C171 C174 1.391 . S
C171 C176 1.391 . S
C172 H144 0.929 . S
C172 C173 1.390 . S
C172 N175 1.391 . S
C173 H145 0.930 . S
C173 C172 1.390 . S
C173 C174 1.392 . S
C174 H146 0.929 . S
C174 C171 1.391 . S
C174 C173 1.392 . S
N175 Co119 2.257 . S
N175 C172 1.391 . S
N175 C176 1.388 . S
C176 H147 0.930 . S
C176 C171 1.391 . S
C176 N175 1.388 . S
Co177 O179 2.143 . S
Co177 O185 2.074 . S
Co177 O188 2.093 . S
Co177 O201 2.097 . S
Co177 N218 2.151 . S
Co177 N226 2.214 . S
Co178 O179 2.160 . S
Co178 O184 2.058 . S
Co178 O194 2.057 . S
Co178 O209 2.037 . S
Co178 N213 2.145 . S
Co178 N234 2.257 . S
O179 Co177 2.143 . S
O179 Co178 2.160 . S
C180 O181 1.278 . S
C180 O188 1.224 . S
O181 C180 1.278 . S
C182 O183 1.245 . S
C182 O194 1.232 . S
O183 C182 1.245 . S
O184 Co178 2.058 . S
O184 C210 1.269 . S
O185 Co177 2.074 . S
O185 C210 1.257 . S
H186 C211 0.930 . S
H187 C217 0.930 . S
O188 Co177 2.093 . S
O188 C180 1.224 . S
H189 C221 0.929 . S
H190 C223 0.930 . S
H191 C224 0.930 . S
H192 C222 0.929 . S
H193 C225 0.928 . S
O194 Co178 2.057 . S
O194 C182 1.232 . S
H195 C214 0.929 . S
H196 C215 0.929 . S
H197 C227 0.931 . S
H198 C219 0.929 1_455 S
H199 C228 0.930 . S
H200 C220 0.931 . S
O201 Co177 2.097 . S
O201 C229 1.214 . S
H202 C230 0.929 . S
H203 C231 0.929 . S
H204 C232 0.930 . S
H205 C233 0.929 . S
H206 C235 0.930 . S
H207 C212 0.930 1_554 S
H208 C216 0.930 . S
O209 Co178 2.037 . S
O209 C229 1.234 . S
C210 O184 1.269 . S
C210 O185 1.257 . S
C211 H186 0.930 . S
C211 C214 1.388 . S
C211 C216 1.418 . S
C212 H207 0.930 1_556 S
C212 C215 1.404 . S
C212 C216 1.353 . S
N213 Co178 2.145 . S
N213 C214 1.397 . S
N213 C215 1.334 . S
C214 H195 0.929 . S
C214 C211 1.388 . S
C214 N213 1.397 . S
C215 H196 0.929 . S
C215 C212 1.404 . S
C215 N213 1.334 . S
C216 H208 0.930 . S
C216 C211 1.418 . S
C216 C212 1.353 . S
C217 H187 0.930 . S
C217 N218 1.330 . S
C217 C219 1.446 . S
N218 Co177 2.151 . S
N218 C217 1.330 . S
N218 C222 1.418 . S
C219 H198 0.929 1_655 S
C219 C217 1.446 . S
C219 C220 1.332 . S
C220 H200 0.931 . S
C220 C219 1.332 . S
C220 C221 1.267 . S
C221 H189 0.929 . S
C221 C220 1.267 . S
C221 C222 1.251 . S
C222 H192 0.929 . S
C222 N218 1.418 . S
C222 C221 1.251 . S
C223 H190 0.930 . S
C223 C225 1.406 . S
C223 C228 1.261 . S
C224 H191 0.930 . S
C224 N226 1.325 . S
C224 C227 1.357 . S
C225 H193 0.928 . S
C225 C223 1.406 . S
C225 N226 1.261 . S
N226 Co177 2.214 . S
N226 C224 1.325 . S
N226 C225 1.261 . S
C227 H197 0.931 . S
C227 C224 1.357 . S
C227 C228 1.312 . S
C228 H199 0.930 . S
C228 C223 1.261 . S
C228 C227 1.312 . S
C229 O201 1.214 . S
C229 O209 1.234 . S
C230 H202 0.929 . S
C230 C233 1.391 1_455 S
C230 C235 1.391 1_455 S
C231 H203 0.929 . S
C231 C232 1.390 . S
C231 N234 1.391 . S
C232 H204 0.930 . S
C232 C231 1.390 . S
C232 C233 1.392 . S
C233 H205 0.929 . S
C233 C230 1.391 1_655 S
C233 C232 1.392 . S
N234 Co178 2.257 . S
N234 C231 1.391 . S
N234 C235 1.388 . S
C235 H206 0.930 . S
C235 C230 1.391 1_655 S
C235 N234 1.388 . S
Co236 O238 2.143 . S
Co236 O244 2.074 . S
Co236 O247 2.093 . S
Co236 O260 2.097 . S
Co236 N277 2.151 . S
Co236 N285 2.214 . S
Co237 O238 2.160 . S
Co237 O243 2.058 . S
Co237 O253 2.057 . S
Co237 O268 2.037 . S
Co237 N272 2.145 . S
Co237 N293 2.257 . S
O238 Co236 2.143 . S
O238 Co237 2.160 . S
C239 O240 1.278 . S
C239 O247 1.224 . S
O240 C239 1.278 . S
C241 O242 1.245 . S
C241 O253 1.232 . S
O242 C241 1.245 . S
O243 Co237 2.058 . S
O243 C269 1.269 . S
O244 Co236 2.074 . S
O244 C269 1.257 . S
H245 C270 0.930 . S
H246 C276 0.930 . S
O247 Co236 2.093 . S
O247 C239 1.224 . S
H248 C280 0.929 . S
H249 C282 0.930 . S
H250 C283 0.930 . S
H251 C281 0.929 . S
H252 C284 0.928 . S
O253 Co237 2.057 . S
O253 C241 1.232 . S
H254 C273 0.929 . S
H255 C274 0.929 . S
H256 C286 0.931 . S
H257 C278 0.929 1_545 S
H258 C287 0.930 . S
H259 C279 0.931 . S
O260 Co236 2.097 . S
O260 C288 1.214 . S
H261 C289 0.929 . S
H262 C290 0.929 . S
H263 C291 0.930 . S
H264 C292 0.929 . S
H265 C294 0.930 . S
H266 C271 0.930 . S
H267 C275 0.930 . S
O268 Co237 2.037 . S
O268 C288 1.234 . S
C269 O243 1.269 . S
C269 O244 1.257 . S
C270 H245 0.930 . S
C270 C273 1.388 1_554 S
C270 C275 1.418 . S
C271 H266 0.930 . S
C271 C274 1.404 . S
C271 C275 1.353 . S
N272 Co237 2.145 . S
N272 C273 1.397 . S
N272 C274 1.334 1_556 S
C273 H254 0.929 . S
C273 C270 1.388 1_556 S
C273 N272 1.397 . S
C274 H255 0.929 . S
C274 C271 1.404 . S
C274 N272 1.334 1_554 S
C275 H267 0.930 . S
C275 C270 1.418 . S
C275 C271 1.353 . S
C276 H246 0.930 . S
C276 N277 1.330 . S
C276 C278 1.446 . S
N277 Co236 2.151 . S
N277 C276 1.330 . S
N277 C281 1.418 . S
C278 H257 0.929 1_565 S
C278 C276 1.446 . S
C278 C279 1.332 . S
C279 H259 0.931 . S
C279 C278 1.332 . S
C279 C280 1.267 . S
C280 H248 0.929 . S
C280 C279 1.267 . S
C280 C281 1.251 . S
C281 H251 0.929 . S
C281 N277 1.418 . S
C281 C280 1.251 . S
C282 H249 0.930 . S
C282 C284 1.406 . S
C282 C287 1.261 . S
C283 H250 0.930 . S
C283 N285 1.325 . S
C283 C286 1.357 . S
C284 H252 0.928 . S
C284 C282 1.406 . S
C284 N285 1.261 . S
N285 Co236 2.214 . S
N285 C283 1.325 . S
N285 C284 1.261 . S
C286 H256 0.931 . S
C286 C283 1.357 . S
C286 C287 1.312 . S
C287 H258 0.930 . S
C287 C282 1.261 . S
C287 C286 1.312 . S
C288 O260 1.214 . S
C288 O268 1.234 . S
C289 H261 0.929 . S
C289 C292 1.391 1_545 S
C289 C294 1.391 1_545 S
C290 H262 0.929 . S
C290 C291 1.390 . S
C290 N293 1.391 . S
C291 H263 0.930 . S
C291 C290 1.390 . S
C291 C292 1.392 . S
C292 H264 0.929 . S
C292 C289 1.391 1_565 S
C292 C291 1.392 . S
N293 Co237 2.257 . S
N293 C290 1.391 . S
N293 C294 1.388 . S
C294 H265 0.930 . S
C294 C289 1.391 1_565 S
C294 N293 1.388 . S
Co295 O297 2.143 1_554 S
Co295 O303 2.074 1_554 S
Co295 O306 2.093 . S
Co295 O319 2.097 . S
Co295 N336 2.151 1_554 S
Co295 N344 2.214 . S
Co296 O297 2.160 . S
Co296 O302 2.058 . S
Co296 O312 2.057 . S
Co296 O327 2.037 . S
Co296 N331 2.145 . S
Co296 N352 2.257 . S
O297 Co295 2.143 1_556 S
O297 Co296 2.160 . S
C298 O299 1.278 . S
C298 O306 1.224 . S
O299 C298 1.278 . S
C300 O301 1.245 . S
C300 O312 1.232 . S
O301 C300 1.245 . S
O302 Co296 2.058 . S
O302 C328 1.269 . S
O303 Co295 2.074 1_556 S
O303 C328 1.257 . S
H304 C329 0.930 . S
H305 C335 0.931 . S
O306 Co295 2.093 . S
O306 C298 1.224 . S
H307 C339 0.929 . S
H308 C341 0.930 . S
H309 C342 0.930 . S
H310 C340 0.929 . S
H311 C343 0.928 . S
O312 Co296 2.057 . S
O312 C300 1.232 . S
H313 C332 0.929 . S
H314 C333 0.929 . S
H315 C345 0.931 . S
H316 C337 0.929 . S
H317 C346 0.930 . S
H318 C338 0.931 . S
O319 Co295 2.097 . S
O319 C347 1.214 . S
H320 C348 0.929 . S
H321 C349 0.929 . S
H322 C350 0.930 . S
H323 C351 0.929 1_554 S
H324 C353 0.930 . S
H325 C330 0.930 . S
H326 C334 0.930 . S
O327 Co296 2.037 . S
O327 C347 1.234 1_556 S
C328 O302 1.269 . S
C328 O303 1.257 . S
C329 H304 0.930 . S
C329 C332 1.388 . S
C329 C334 1.418 . S
C330 H325 0.930 . S
C330 C333 1.404 . S
C330 C334 1.353 . S
N331 Co296 2.145 . S
N331 C332 1.397 . S
N331 C333 1.334 . S
C332 H313 0.929 . S
C332 C329 1.388 . S
C332 N331 1.397 . S
C333 H314 0.929 . S
C333 C330 1.404 . S
C333 N331 1.334 . S
C334 H326 0.930 . S
C334 C329 1.418 . S
C334 C330 1.353 . S
C335 H305 0.931 . S
C335 N336 1.329 1_554 S
C335 C337 1.445 1_554 S
N336 Co295 2.151 1_556 S
N336 C335 1.329 1_556 S
N336 C340 1.418 . S
C337 H316 0.929 . S
C337 C335 1.445 1_556 S
C337 C338 1.332 . S
C338 H318 0.931 . S
C338 C337 1.332 . S
C338 C339 1.267 . S
C339 H307 0.929 . S
C339 C338 1.267 . S
C339 C340 1.251 . S
C340 H310 0.929 . S
C340 N336 1.418 . S
C340 C339 1.251 . S
C341 H308 0.930 . S
C341 C343 1.406 . S
C341 C346 1.261 . S
C342 H309 0.930 . S
C342 N344 1.325 . S
C342 C345 1.357 . S
C343 H311 0.928 . S
C343 C341 1.406 . S
C343 N344 1.261 . S
N344 Co295 2.214 . S
N344 C342 1.325 . S
N344 C343 1.261 . S
C345 H315 0.931 . S
C345 C342 1.357 . S
C345 C346 1.312 . S
C346 H317 0.930 . S
C346 C341 1.261 . S
C346 C345 1.312 . S
C347 O319 1.214 . S
C347 O327 1.234 1_554 S
C348 H320 0.929 . S
C348 C351 1.391 . S
C348 C353 1.391 . S
C349 H321 0.929 . S
C349 C350 1.390 . S
C349 N352 1.391 . S
C350 H322 0.930 . S
C350 C349 1.390 . S
C350 C351 1.392 . S
C351 H323 0.929 1_556 S
C351 C348 1.391 . S
C351 C350 1.392 . S
N352 Co296 2.257 . S
N352 C349 1.391 . S
N352 C353 1.388 . S
C353 H324 0.930 . S
C353 C348 1.391 . S
C353 N352 1.388 . S
C3 C182 1.383 1_455 S
C241 C62 1.384 1_566 S
C123 C298 1.384 . S
C180 C5 1.383 1_655 S
C64 C239 1.384 1_545 S
C300 C121 1.384 . S
C33 C151 1.710 . S
C92 C229 1.700 . S
C288 C170 1.689 . S
C328 C210 1.710 . S
C269 C52 1.700 . S
C347 C111 1.689 . S
