# Generated by pormake.
# Topology uku, (4)-cn, num edge types: 1
# Building blocks:
#     Node 0, Type 0, BuildingBlock: QUQFOY_clean_sbu_3, # of connection points: 4
#     Node 1, Type 0, BuildingBlock: QUQFOY_clean_sbu_3, # of connection points: 4
#     Node 2, Type 0, BuildingBlock: QUQFOY_clean_sbu_3, # of connection points: 4
#     Node 3, Type 0, BuildingBlock: QUQFOY_clean_sbu_3, # of connection points: 4
#     Node 4, Type 0, BuildingBlock: QUQFOY_clean_sbu_3, # of connection points: 4
#     Node 5, Type 0, BuildingBlock: QUQFOY_clean_sbu_3, # of connection points: 4
#     Node 6, Type 0, BuildingBlock: QUQFOY_clean_sbu_3, # of connection points: 4
#     Node 7, Type 0, BuildingBlock: QUQFOY_clean_sbu_3, # of connection points: 4
#     Node 8, Type 0, BuildingBlock: QUQFOY_clean_sbu_3, # of connection points: 4
#     Node 9, Type 0, BuildingBlock: QUQFOY_clean_sbu_3, # of connection points: 4
#     Node 10, Type 0, BuildingBlock: QUQFOY_clean_sbu_3, # of connection points: 4
#     Node 11, Type 0, BuildingBlock: QUQFOY_clean_sbu_3, # of connection points: 4
#     Edge 12, Type (0, 0), BuildingBlock: OJICUG_clean_linker_0, # of connection points: 2
#     Edge 13, Type (0, 0), BuildingBlock: OJICUG_clean_linker_0, # of connection points: 2
#     Edge 14, Type (0, 0), BuildingBlock: OJICUG_clean_linker_0, # of connection points: 2
#     Edge 15, Type (0, 0), BuildingBlock: OJICUG_clean_linker_0, # of connection points: 2
#     Edge 16, Type (0, 0), BuildingBlock: OJICUG_clean_linker_0, # of connection points: 2
#     Edge 17, Type (0, 0), BuildingBlock: OJICUG_clean_linker_0, # of connection points: 2
#     Edge 18, Type (0, 0), BuildingBlock: OJICUG_clean_linker_0, # of connection points: 2
#     Edge 19, Type (0, 0), BuildingBlock: OJICUG_clean_linker_0, # of connection points: 2
#     Edge 20, Type (0, 0), BuildingBlock: OJICUG_clean_linker_0, # of connection points: 2
#     Edge 21, Type (0, 0), BuildingBlock: OJICUG_clean_linker_0, # of connection points: 2
#     Edge 22, Type (0, 0), BuildingBlock: OJICUG_clean_linker_0, # of connection points: 2
#     Edge 23, Type (0, 0), BuildingBlock: OJICUG_clean_linker_0, # of connection points: 2
#     Edge 24, Type (0, 0), BuildingBlock: OJICUG_clean_linker_0, # of connection points: 2
#     Edge 25, Type (0, 0), BuildingBlock: OJICUG_clean_linker_0, # of connection points: 2
#     Edge 26, Type (0, 0), BuildingBlock: OJICUG_clean_linker_0, # of connection points: 2
#     Edge 27, Type (0, 0), BuildingBlock: OJICUG_clean_linker_0, # of connection points: 2
#     Edge 28, Type (0, 0), BuildingBlock: OJICUG_clean_linker_0, # of connection points: 2
#     Edge 29, Type (0, 0), BuildingBlock: OJICUG_clean_linker_0, # of connection points: 2
#     Edge 30, Type (0, 0), BuildingBlock: OJICUG_clean_linker_0, # of connection points: 2
#     Edge 31, Type (0, 0), BuildingBlock: OJICUG_clean_linker_0, # of connection points: 2
#     Edge 32, Type (0, 0), BuildingBlock: OJICUG_clean_linker_0, # of connection points: 2
#     Edge 33, Type (0, 0), BuildingBlock: OJICUG_clean_linker_0, # of connection points: 2
#     Edge 34, Type (0, 0), BuildingBlock: OJICUG_clean_linker_0, # of connection points: 2
#     Edge 35, Type (0, 0), BuildingBlock: OJICUG_clean_linker_0, # of connection points: 2
# Relax obj value: 0.368
# Max RMSD: 0.260
# Mean RMSD: 0.260
data_MOF--net-uku--node1-QUQFOY_clean_sbu_3--edge1-OJICUG_clean_linker_0
_symmetry_space_group_name_H-M    P1
_symmetry_Int_Tables_number       1
_symmetry_cell_setting            triclinic
loop_
_symmetry_equiv_pos_as_xyz
'x, y, z'
_cell_length_a     32.653359
_cell_length_b     32.664585
_cell_length_c     32.775793
_cell_angle_alpha  89.712788
_cell_angle_beta   89.391979
_cell_angle_gamma 90.193495
loop_
_atom_site_label
_atom_site_type_symbol
_atom_site_fract_x
_atom_site_fract_y
_atom_site_fract_z
_atom_type_partial_charge
C0 C 0.00585 0.17304 0.7024 0.0
O1 O -0.00936 0.1403 0.71734 0.0
Cd2 Cd -0.00766 0.07347 0.6866 0.0
O3 O 0.01819 0.17448 0.66549 0.0
Cd4 Cd 0.0155 0.12828 0.60625 0.0
C5 C 0.09284 0.07852 0.65151 0.0
O6 O -0.03408 0.07456 0.62077 0.0
O7 O 0.0124 0.06162 0.57497 0.0
O8 O -0.035 0.16899 0.57199 0.0
C9 C -0.01861 0.04952 0.59535 0.0
O10 O 0.06452 0.06266 0.67355 0.0
C11 C -0.01377 0.175 0.53983 0.0
O12 O 0.08536 0.10688 0.62559 0.0
O13 O 0.02324 0.16257 0.54011 0.0
C14 C 0.91471 0.75877 0.70901 0.0
O15 O 0.93424 0.78977 0.7219 0.0
Cd16 Cd 0.93703 0.85639 0.69012 0.0
O17 O 0.90007 0.75842 0.6732 0.0
Cd18 Cd 0.90363 0.80269 0.61206 0.0
C19 C 0.83407 0.85879 0.66284 0.0
O20 O 0.95734 0.85252 0.62201 0.0
O21 O 0.91081 0.86803 0.57793 0.0
O22 O 0.95049 0.75671 0.57967 0.0
C23 C 0.943 0.87823 0.59669 0.0
O24 O 0.86528 0.87146 0.68219 0.0
C25 C 0.92977 0.75194 0.54746 0.0
O26 O 0.83692 0.83017 0.63639 0.0
O27 O 0.89392 0.76747 0.54704 0.0
C28 C 0.03116 0.73284 0.2474 0.0
O29 O -0.0045 0.74503 0.25669 0.0
Cd30 Cd 0.02254 0.794 0.30545 0.0
O31 O 0.06072 0.74744 0.26745 0.0
Cd32 Cd 0.04018 0.79651 0.32556 0.0
C33 C 0.10632 0.83711 0.28 0.0
O34 O -0.0197 0.84783 0.3142 0.0
O35 O 0.03701 0.87035 0.33918 0.0
O36 O -0.00683 0.75052 0.36227 0.0
C37 C 0.00055 0.87771 0.32842 0.0
O38 O 0.07138 0.83335 0.26416 0.0
C39 C 0.01231 0.75162 0.39572 0.0
O40 O 0.1122 0.81969 0.3142 0.0
O41 O 0.04631 0.77093 0.39579 0.0
C42 C 0.91455 0.16749 0.22543 0.0
O43 O 0.9389 0.13945 0.21401 0.0
Cd44 Cd 0.93923 0.07163 0.2431 0.0
O45 O 0.89443 0.16391 0.25868 0.0
Cd46 Cd 0.8957 0.11652 0.31751 0.0
C47 C 0.83394 0.06084 0.25999 0.0
O48 O 0.95392 0.07012 0.31282 0.0
O49 O 0.89919 0.04779 0.34379 0.0
O50 O 0.93673 0.16393 0.35465 0.0
C51 C 0.93578 0.04132 0.33221 0.0
O52 O 0.86772 0.05108 0.24282 0.0
C53 C 0.91316 0.16632 0.38558 0.0
O54 O 0.83253 0.08814 0.28784 0.0
O55 O 0.87871 0.1478 0.3836 0.0
C56 C 0.70014 -9e-05 0.1676 0.0
O57 O 0.7105 -0.02439 0.13919 0.0
Cd58 Cd 0.67953 -0.02392 0.07275 0.0
O59 O 0.66687 0.01984 0.1654 0.0
Cd60 Cd 0.60741 0.0201 0.11995 0.0
C61 C 0.66771 0.08178 0.06503 0.0
O62 O 0.60865 -0.03567 0.07098 0.0
O63 O 0.58111 0.02183 0.05232 0.0
O64 O 0.5684 -0.0235 0.16439 0.0
C65 C 0.58991 -0.015 0.04392 0.0
O66 O 0.68327 0.04775 0.0541 0.0
C67 C 0.53767 4e-05 0.16752 0.0
O68 O 0.6398 0.0833 0.09271 0.0
O69 O 0.54124 0.0359 0.15207 0.0
C70 C 0.21875 0.91679 0.17048 0.0
O71 O 0.20354 0.94 0.14339 0.0
Cd72 Cd 0.23066 0.94699 0.07476 0.0
O73 O 0.25408 0.90144 0.16519 0.0
Cd74 Cd 0.30982 0.90834 0.11481 0.0
C75 C 0.25244 0.84382 0.06124 0.0
O76 O 0.30007 -0.03476 0.06739 0.0
O77 O 0.33278 0.91164 0.04557 0.0
O78 O 0.34831 0.95318 0.15755 0.0
C79 C 0.31902 0.94721 0.03839 0.0
O80 O 0.23317 0.8766 0.05271 0.0
C81 C 0.37961 0.93041 0.16024 0.0
O82 O 0.28145 0.84371 0.08723 0.0
O83 O 0.37747 0.89503 0.14391 0.0
C84 C 0.69629 0.91012 0.75502 0.0
O85 O 0.7068 0.93362 0.78388 0.0
Cd86 Cd 0.67586 0.93212 0.85086 0.0
O87 O 0.6628 0.89023 0.75714 0.0
Cd88 Cd 0.60215 0.89156 0.80254 0.0
C89 C 0.65745 0.82679 0.8573 0.0
O90 O 0.60596 0.94693 0.85147 0.0
O91 O 0.57359 0.89172 0.8703 0.0
O92 O 0.57037 0.93856 0.75729 0.0
C93 C 0.58538 0.92771 0.87873 0.0
O94 O 0.67458 0.85999 0.86844 0.0
C95 C 0.53736 0.91847 0.75307 0.0
O96 O 0.63038 0.8266 0.8293 0.0
O97 O 0.53587 0.88255 0.76874 0.0
C98 C 0.244 0.03572 0.72439 0.0
O99 O 0.25126 6e-05 0.73775 0.0
Cd100 Cd 0.29965 0.02638 0.78738 0.0
O101 O 0.26502 0.06484 0.73872 0.0
Cd102 Cd 0.32032 0.0427 0.78994 0.0
C103 C 0.27864 0.11279 0.82595 0.0
O104 O 0.30258 -0.01396 0.84351 0.0
O105 O 0.33076 0.04208 0.86414 0.0
O106 O 0.35494 -0.00897 0.74806 0.0
C107 C 0.31697 0.00672 0.87283 0.0
O108 O 0.26025 0.07884 0.82281 0.0
C109 C 0.38981 0.00819 0.74884 0.0
O110 O 0.31403 0.11607 0.80969 0.0
O111 O 0.39188 0.0431 0.76596 0.0
C112 C 0.16 0.70783 0.00519 0.0
O113 O 0.12757 0.71914 -0.01265 0.0
Cd114 Cd 0.06356 0.68286 -0.00686 0.0
O115 O 0.16245 0.67214 0.02057 0.0
Cd116 Cd 0.11987 0.60967 0.01991 0.0
C117 C 0.07115 0.65689 0.09569 0.0
O118 O 0.06613 0.61523 -0.03062 0.0
O119 O 0.05246 0.57916 0.0236 0.0
O120 O 0.16343 0.57792 -0.03005 0.0
C121 C 0.04138 0.59188 -0.01121 0.0
O122 O 0.05371 0.6757 0.06649 0.0
C123 C 0.17073 0.54592 -0.00928 0.0
O124 O 0.10044 0.63182 0.08902 0.0
O125 O 0.15711 0.54496 0.02737 0.0
C126 C 0.17431 0.23097 0.90161 0.0
O127 O 0.14545 0.21645 0.92373 0.0
Cd128 Cd 0.07825 0.24557 0.9337 0.0
O129 O 0.17203 0.26704 0.88705 0.0
Cd130 Cd 0.12523 0.32572 0.89296 0.0
C131 C 0.06471 0.27056 0.83129 0.0
O132 O 0.08046 0.31465 0.95117 0.0
O133 O 0.05926 0.3565 0.90447 0.0
O134 O 0.17328 0.36145 0.93449 0.0
C135 C 0.05258 0.33836 0.93818 0.0
O136 O 0.05586 0.2513 0.86414 0.0
C137 C 0.17497 0.39355 0.9125 0.0
O138 O 0.09248 0.29839 0.8303 0.0
O139 O 0.15663 0.39248 0.87828 0.0
C140 C 0.74926 0.69227 0.91846 0.0
O141 O 0.77689 0.70279 0.94337 0.0
Cd142 Cd 0.84418 0.67252 0.94477 0.0
O143 O 0.75235 0.65893 0.89886 0.0
Cd144 Cd 0.79793 0.59913 0.90066 0.0
C145 C 0.85403 0.65909 0.83956 0.0
O146 O 0.84639 0.60179 0.95653 0.0
O147 O 0.86583 0.5721 0.90048 0.0
O148 O 0.75168 0.56216 0.94421 0.0
C149 C 0.87417 0.58289 0.9366 0.0
O150 O 0.86403 0.67501 0.87349 0.0
C151 C 0.74845 0.53098 0.92146 0.0
O152 O 0.82648 0.63117 0.83778 0.0
O153 O 0.76522 0.53315 0.88608 0.0
C154 C 0.76638 0.2153 0.00806 0.0
O155 O 0.79802 0.20369 -0.0116 0.0
Cd156 Cd 0.86358 0.2378 -0.01265 0.0
O157 O 0.76478 0.25088 0.02357 0.0
Cd158 Cd 0.80679 0.31364 0.02221 0.0
C159 C 0.86276 0.2625 0.09086 0.0
O160 O 0.85813 0.30655 -0.03069 0.0
O161 O 0.87161 0.34946 0.01758 0.0
O162 O 0.76076 0.34542 -0.02473 0.0
C163 C 0.88318 0.33164 -0.01484 0.0
O164 O 0.87672 0.24434 0.05933 0.0
C165 C 0.75357 0.37677 -0.00308 0.0
O166 O 0.83338 0.28827 0.08846 0.0
O167 O 0.76823 0.37702 0.0329 0.0
C168 C -0.0289 0.19156 0.42764 0.0
C169 C 0.92906 0.18248 0.42443 0.0
H170 H 0.02257 0.19655 0.46728 0.0
C171 C 0.9049 0.18118 0.46006 0.0
H172 H -0.00944 0.19335 0.40071 0.0
C173 C 0.92329 0.18386 0.49829 0.0
C174 C -0.03383 0.18712 0.50142 0.0
H175 H 0.87239 0.17471 0.45858 0.0
H176 H 0.90428 0.17929 0.52523 0.0
C177 C -0.01043 0.19346 0.46583 0.0
C178 C 0.01402 0.73663 0.47051 0.0
C179 C -0.00798 0.7383 0.43406 0.0
H180 H 0.01119 0.73775 0.53556 0.0
C181 C 0.94905 0.7346 0.43568 0.0
H182 H 0.04713 0.73895 0.47016 0.0
C183 C 0.92827 0.73476 0.47319 0.0
C184 C 0.9502 0.73779 0.50963 0.0
H185 H 0.93119 0.73548 0.40802 0.0
H186 H 0.89511 0.73585 0.47346 0.0
C187 C -0.00671 0.73585 0.508 0.0
C188 C 0.42342 -0.00977 0.17837 0.0
C189 C 0.41872 0.94749 0.17498 0.0
H190 H 0.46533 0.04082 0.17896 0.0
C191 C 0.45327 0.9225 0.17891 0.0
H192 H 0.39729 0.01038 0.17588 0.0
C193 C 0.49223 0.94004 0.18166 0.0
C194 C 0.49732 -0.01713 0.17954 0.0
H195 H 0.45056 0.8895 0.17693 0.0
H196 H 0.51849 0.91987 0.18152 0.0
C197 C 0.46244 0.00779 0.18024 0.0
C198 C 0.4623 0.91956 0.738 0.0
C199 C 0.50022 0.93982 0.73882 0.0
H200 H 0.39714 0.92569 0.73934 0.0
C201 C 0.50117 -0.01727 0.73404 0.0
H202 H 0.46056 0.88659 0.74136 0.0
C203 C 0.4649 0.00523 0.73387 0.0
C204 C 0.42703 -0.01482 0.73739 0.0
H205 H 0.52992 -0.00063 0.73415 0.0
H206 H 0.46661 0.03836 0.73374 0.0
C207 C 0.42597 0.94207 0.73688 0.0
C208 C 0.19467 0.43501 -0.02709 0.0
C209 C 0.18885 0.43262 0.93045 0.0
H210 H 0.19348 0.47332 0.02575 0.0
C211 C 0.18744 0.46899 0.9076 0.0
H212 H 0.19637 0.40752 -0.00857 0.0
C213 C 0.18658 0.5068 0.92735 0.0
C214 C 0.18633 0.50874 -0.02972 0.0
H215 H 0.18343 0.46818 0.87484 0.0
H216 H 0.18201 0.53409 0.90907 0.0
C217 C 0.19298 0.47276 -0.00728 0.0
C218 C 0.73526 0.45575 0.91575 0.0
C219 C 0.73454 0.49152 0.93924 0.0
H220 H 0.74036 0.3906 0.91597 0.0
C221 C 0.72934 0.48802 -0.01815 0.0
H222 H 0.73874 0.45741 0.88288 0.0
C223 C 0.73112 0.44975 0.00099 0.0
C224 C 0.73727 0.41434 -0.02226 0.0
H225 H 0.72808 0.51501 0.00089 0.0
H226 H 0.73123 0.44832 0.03401 0.0
C227 C 0.73622 0.41741 0.93486 0.0
C228 C 0.142 0.02509 0.67313 0.0
C229 C 0.13504 0.06547 0.65995 0.0
H230 H 0.18248 -0.0163 0.70319 0.0
C231 C 0.16689 0.09424 0.66199 0.0
H232 H 0.1179 0.00227 0.67159 0.0
C233 C 0.20375 0.08374 0.68068 0.0
C234 C 0.20938 0.0442 0.69701 0.0
H235 H 0.16217 0.12558 0.6522 0.0
H236 H 0.22689 0.10723 0.68439 0.0
C237 C 0.17896 0.01445 0.69122 0.0
C238 C 0.75972 0.92775 0.71596 0.0
C239 C 0.72615 0.90147 0.72202 0.0
H240 H 0.81991 0.93501 0.69103 0.0
C241 C 0.72496 0.86408 0.70077 0.0
H242 H 0.76123 0.95702 0.73129 0.0
C243 C 0.75888 0.8513 0.67761 0.0
C244 C 0.79418 0.87586 0.67546 0.0
H245 H 0.69932 0.84325 0.70471 0.0
H246 H 0.75877 0.82092 0.6645 0.0
C247 C 0.79331 0.91512 0.69283 0.0
C248 C 0.15161 0.9146 0.20741 0.0
C249 C 0.19269 0.90231 0.20497 0.0
H250 H 0.09239 0.90344 0.23334 0.0
C251 C 0.20663 0.87191 0.23219 0.0
H252 H 0.13984 0.9381 0.18731 0.0
C253 C 0.1792 0.85206 0.25901 0.0
C254 C 0.13751 0.86212 0.25856 0.0
H255 H 0.2382 0.86186 0.23125 0.0
H256 H 0.19006 0.82726 0.27806 0.0
C257 C 0.12434 0.89456 0.23369 0.0
C258 C 0.76699 -0.01168 0.20175 0.0
C259 C 0.73024 0.01028 0.19942 0.0
H260 H 0.82834 -0.01303 0.22338 0.0
C261 C 0.72556 0.04582 0.22324 0.0
H262 H 0.77147 0.96057 0.18431 0.0
C263 C 0.75843 0.06113 0.24577 0.0
C264 C 0.79638 0.04111 0.24467 0.0
H265 H 0.6975 0.06338 0.22227 0.0
H266 H 0.75499 0.08997 0.26159 0.0
C267 C 0.79967 0.00359 0.22407 0.0
C268 C 0.70805 0.11595 0.00984 0.0
C269 C 0.68527 0.11929 0.04636 0.0
H270 H 0.75107 0.14392 -0.03121 0.0
C271 C 0.68402 0.15713 0.06642 0.0
H272 H 0.70896 0.08743 -0.00688 0.0
C273 C 0.70817 0.18987 0.05213 0.0
C274 C 0.73389 0.18505 0.01769 0.0
H275 H 0.66661 0.16064 0.09449 0.0
H276 H 0.70878 0.2179 0.06963 0.0
C277 C 0.73215 0.14838 -0.00424 0.0
C278 C 0.21792 0.73422 0.04753 0.0
C279 C 0.19203 0.73863 0.01366 0.0
H280 H 0.25791 0.7645 0.08953 0.0
C281 C 0.19257 0.7756 -0.00821 0.0
H282 H 0.21823 0.70596 0.06496 0.0
C283 C 0.21527 0.80875 0.00571 0.0
C284 C 0.23778 0.80579 0.04196 0.0
H285 H 0.1735 0.77976 -0.03476 0.0
H286 H 0.21318 0.83755 -0.01068 0.0
C287 C 0.24067 0.76768 0.06165 0.0
C288 C 0.6957 0.71847 0.87048 0.0
C289 C 0.71723 0.72218 0.90736 0.0
H290 H 0.65932 0.74901 0.82537 0.0
C291 C 0.71247 0.75791 0.93044 0.0
H292 H 0.69861 0.69119 0.85203 0.0
C293 C 0.6901 0.79071 0.9152 0.0
C294 C 0.67196 0.78859 0.87653 0.0
H295 H 0.72807 0.76156 0.95921 0.0
H296 H 0.68896 0.81868 0.93281 0.0
C297 C 0.67316 0.75151 0.85515 0.0
C298 C 0.23339 0.13414 0.88271 0.0
C299 C 0.25887 0.1455 0.84974 0.0
H300 H 0.18766 0.15237 0.92572 0.0
C301 C 0.26123 0.18678 0.83804 0.0
H302 H 0.2316 0.10253 0.89284 0.0
C303 C 0.23558 0.21563 0.85686 0.0
C304 C 0.20765 0.20348 0.88781 0.0
H305 H 0.28079 0.1962 0.81277 0.0
H306 H 0.23602 0.24686 0.8456 0.0
C307 C 0.20827 0.16278 0.90168 0.0
C308 C 0.00903 0.70097 0.18216 0.0
C309 C 0.039 0.70603 0.21207 0.0
H310 H -0.00409 0.68102 0.12164 0.0
C311 C 0.07809 0.689 0.20565 0.0
H312 H -0.02137 0.71359 0.18629 0.0
C313 C 0.08785 0.66979 0.16878 0.0
C314 C 0.05885 0.66796 0.13759 0.0
H315 H 0.10172 0.69217 0.22838 0.0
H316 H 0.11881 0.65899 0.1637 0.0
C317 C 0.01897 0.6824 0.14514 0.0
C318 C -0.00777 0.21097 0.76658 0.0
C319 C 0.0148 0.20725 0.73021 0.0
H320 H -0.01015 0.23554 0.82667 0.0
C321 C 0.04991 0.23183 0.72421 0.0
H322 H -0.03524 0.1929 0.77179 0.0
C323 C 0.0647 0.25615 0.75603 0.0
C324 C 0.04432 0.25622 0.79395 0.0
H325 H 0.06788 0.22956 0.69635 0.0
H326 H 0.09371 0.27194 0.75207 0.0
C327 C 0.00669 0.23541 0.798 0.0
C328 C 0.85377 0.67669 0.7647 0.0
C329 C 0.87372 0.67627 0.80243 0.0
H330 H 0.85154 0.70326 0.70479 0.0
C331 C 0.91102 0.69752 0.80624 0.0
H332 H 0.82508 0.6605 0.76088 0.0
C333 C 0.92599 0.72196 0.77452 0.0
C334 C 0.90418 0.72555 0.73809 0.0
H335 H 0.92762 0.6971 0.8347 0.0
H336 H 0.95353 0.73979 0.7794 0.0
C337 C 0.86897 0.70118 0.73265 0.0
C338 C 0.86709 0.22118 0.19824 0.0
C339 C 0.90529 0.20125 0.19682 0.0
H340 H 0.8233 0.25709 0.16524 0.0
C341 C 0.93207 0.20935 0.16403 0.0
H342 H 0.84586 0.21564 0.22329 0.0
C343 C 0.9193 0.2332 0.13126 0.0
C344 C 0.87942 0.24925 0.13044 0.0
H345 H 0.96193 0.19506 0.1624 0.0
H346 H 0.9397 0.23658 0.10515 0.0
C347 C 0.85417 0.24505 0.16512 0.0
C348 C -0.02632 -0.01694 0.55954 0.0
C349 C -0.02966 0.00593 0.59557 0.0
H350 H -0.033 0.92408 0.53175 0.0
C351 C 0.95953 -0.01384 0.63225 0.0
H352 H -0.01779 -0.00225 0.53096 0.0
C353 C 0.95261 0.94395 0.63295 0.0
C354 C 0.95539 0.92129 0.59681 0.0
H355 H 0.95725 0.00313 0.66049 0.0
H356 H 0.94393 0.92928 0.66146 0.0
C357 C -0.03456 0.9411 0.56002 0.0
C358 C 0.926 -0.03439 0.33469 0.0
C359 C 0.9526 -0.00043 0.33323 0.0
H360 H 0.92037 0.90021 0.33346 0.0
C361 C -0.00502 -0.00687 0.33085 0.0
H362 H 0.89311 -0.03026 0.33615 0.0
C363 C 0.01051 0.95335 0.33009 0.0
C364 C -0.01614 0.91944 0.33063 0.0
H365 H 0.01605 0.01881 0.32961 0.0
H366 H 0.04338 0.94916 0.32817 0.0
C367 C 0.94149 0.92587 0.33288 0.0
C368 C 0.58478 -0.01549 0.92908 0.0
C369 C 0.5833 0.94249 0.92094 0.0
H370 H 0.58715 0.03091 -0.02526 0.0
C371 C 0.58221 0.91438 0.95359 0.0
H372 H 0.58568 0.00669 0.90439 0.0
C373 C 0.58401 0.9281 -0.0062 0.0
C374 C 0.58584 -0.02986 0.00191 0.0
H375 H 0.58141 0.88172 0.94805 0.0
H376 H 0.5842 0.90591 0.01848 0.0
C377 C 0.5855 -0.00174 -0.03072 0.0
C378 C 0.31672 0.00498 -0.01187 0.0
C379 C 0.31847 -0.03714 -0.00379 0.0
H380 H 0.3156 0.05192 0.94227 0.0
C381 C 0.31912 0.93518 -0.03654 0.0
H382 H 0.3161 0.02684 0.01287 0.0
C383 C 0.31784 0.94936 0.92327 0.0
C384 C 0.31694 -0.00853 0.91514 0.0
H385 H 0.32005 0.90245 -0.03111 0.0
H386 H 0.31825 0.92742 0.89858 0.0
C387 C 0.31653 0.01921 0.94784 0.0
C388 C 0.92616 0.5815 -0.00801 0.0
C389 C 0.9169 0.58229 0.95034 0.0
H390 H -0.02662 0.58285 0.03685 0.0
C391 C 0.94894 0.58456 0.92139 0.0
H392 H 0.90195 0.57981 0.01479 0.0
C393 C -0.01046 0.58732 0.9339 0.0
C394 C -0.00117 0.5867 -0.02449 0.0
H395 H 0.94258 0.58559 0.88902 0.0
H396 H 0.01364 0.59011 0.91107 0.0
C397 C -0.03307 0.58308 0.00449 0.0
C398 C -0.00851 0.36995 -0.02957 0.0
C399 C 0.01045 0.33557 0.95338 0.0
H400 H 0.93583 0.3954 -0.00571 0.0
C401 C -0.01267 0.30026 0.94569 0.0
H402 H 0.00883 0.39774 -0.02435 0.0
C403 C 0.94547 0.29937 0.9548 0.0
C404 C 0.92646 0.33356 -0.02754 0.0
H405 H 0.00139 0.27381 0.93156 0.0
H406 H 0.92818 0.27178 0.94861 0.0
C407 C 0.94986 0.36871 -0.01941 0.0
loop_
_geom_bond_atom_site_label_1
_geom_bond_atom_site_label_2
_geom_bond_distance
_geom_bond_site_symmetry_2
_ccdc_geom_bond_type
C0 O1 1.306 . S
C0 O3 1.160 . S
O1 C0 1.306 . S
O1 Cd2 2.228 . S
Cd2 O1 2.228 . S
Cd2 O6 2.273 . S
Cd2 O10 2.277 . S
O3 C0 1.160 . S
O3 Cd4 2.203 . S
Cd4 O3 2.203 . S
Cd4 O6 2.411 . S
Cd4 O7 2.333 . S
Cd4 O8 2.352 . S
Cd4 O12 2.277 . S
Cd4 O13 2.356 . S
C5 O10 1.209 . S
C5 O12 1.226 . S
O6 Cd2 2.273 . S
O6 Cd4 2.411 . S
O6 C9 1.320 . S
O7 Cd4 2.333 . S
O7 C9 1.214 . S
O8 Cd4 2.352 . S
O8 C11 1.258 . S
C9 O6 1.320 . S
C9 O7 1.214 . S
O10 Cd2 2.277 . S
O10 C5 1.209 . S
C11 O8 1.258 . S
C11 O13 1.282 . S
O12 Cd4 2.277 . S
O12 C5 1.226 . S
O13 Cd4 2.356 . S
O13 C11 1.282 . S
C14 O15 1.306 . S
C14 O17 1.160 . S
O15 C14 1.306 . S
O15 Cd16 2.228 . S
Cd16 O15 2.228 . S
Cd16 O20 2.273 . S
Cd16 O24 2.277 . S
O17 C14 1.160 . S
O17 Cd18 2.203 . S
Cd18 O17 2.203 . S
Cd18 O20 2.411 . S
Cd18 O21 2.333 . S
Cd18 O22 2.352 . S
Cd18 O26 2.277 . S
Cd18 O27 2.356 . S
C19 O24 1.209 . S
C19 O26 1.226 . S
O20 Cd16 2.273 . S
O20 Cd18 2.411 . S
O20 C23 1.320 . S
O21 Cd18 2.333 . S
O21 C23 1.214 . S
O22 Cd18 2.352 . S
O22 C25 1.258 . S
C23 O20 1.320 . S
C23 O21 1.214 . S
O24 Cd16 2.277 . S
O24 C19 1.209 . S
C25 O22 1.258 . S
C25 O27 1.282 . S
O26 Cd18 2.277 . S
O26 C19 1.226 . S
O27 Cd18 2.356 . S
O27 C25 1.282 . S
C28 O29 1.306 . S
C28 O31 1.160 . S
O29 C28 1.306 . S
O29 Cd30 2.228 . S
Cd30 O29 2.228 . S
Cd30 O34 2.273 . S
Cd30 O38 2.277 . S
O31 C28 1.160 . S
O31 Cd32 2.203 . S
Cd32 O31 2.203 . S
Cd32 O34 2.411 . S
Cd32 O35 2.333 . S
Cd32 O36 2.352 . S
Cd32 O40 2.277 . S
Cd32 O41 2.356 . S
C33 O38 1.209 . S
C33 O40 1.226 . S
O34 Cd30 2.273 . S
O34 Cd32 2.411 . S
O34 C37 1.320 . S
O35 Cd32 2.333 . S
O35 C37 1.214 . S
O36 Cd32 2.352 . S
O36 C39 1.258 . S
C37 O34 1.320 . S
C37 O35 1.214 . S
O38 Cd30 2.277 . S
O38 C33 1.209 . S
C39 O36 1.258 . S
C39 O41 1.282 . S
O40 Cd32 2.277 . S
O40 C33 1.226 . S
O41 Cd32 2.356 . S
O41 C39 1.282 . S
C42 O43 1.306 . S
C42 O45 1.160 . S
O43 C42 1.306 . S
O43 Cd44 2.228 . S
Cd44 O43 2.228 . S
Cd44 O48 2.273 . S
Cd44 O52 2.277 . S
O45 C42 1.160 . S
O45 Cd46 2.203 . S
Cd46 O45 2.203 . S
Cd46 O48 2.411 . S
Cd46 O49 2.333 . S
Cd46 O50 2.352 . S
Cd46 O54 2.277 . S
Cd46 O55 2.356 . S
C47 O52 1.209 . S
C47 O54 1.226 . S
O48 Cd44 2.273 . S
O48 Cd46 2.411 . S
O48 C51 1.320 . S
O49 Cd46 2.333 . S
O49 C51 1.214 . S
O50 Cd46 2.352 . S
O50 C53 1.258 . S
C51 O48 1.320 . S
C51 O49 1.214 . S
O52 Cd44 2.277 . S
O52 C47 1.209 . S
C53 O50 1.258 . S
C53 O55 1.282 . S
O54 Cd46 2.277 . S
O54 C47 1.226 . S
O55 Cd46 2.356 . S
O55 C53 1.282 . S
C56 O57 1.306 . S
C56 O59 1.160 . S
O57 C56 1.306 . S
O57 Cd58 2.228 . S
Cd58 O57 2.228 . S
Cd58 O62 2.273 . S
Cd58 O66 2.277 . S
O59 C56 1.160 . S
O59 Cd60 2.203 . S
Cd60 O59 2.203 . S
Cd60 O62 2.411 . S
Cd60 O63 2.333 . S
Cd60 O64 2.352 . S
Cd60 O68 2.277 . S
Cd60 O69 2.356 . S
C61 O66 1.209 . S
C61 O68 1.226 . S
O62 Cd58 2.273 . S
O62 Cd60 2.411 . S
O62 C65 1.320 . S
O63 Cd60 2.333 . S
O63 C65 1.214 . S
O64 Cd60 2.352 . S
O64 C67 1.258 . S
C65 O62 1.320 . S
C65 O63 1.214 . S
O66 Cd58 2.277 . S
O66 C61 1.209 . S
C67 O64 1.258 . S
C67 O69 1.282 . S
O68 Cd60 2.277 . S
O68 C61 1.226 . S
O69 Cd60 2.356 . S
O69 C67 1.282 . S
C70 O71 1.306 . S
C70 O73 1.160 . S
O71 C70 1.306 . S
O71 Cd72 2.228 . S
Cd72 O71 2.228 . S
Cd72 O76 2.273 . S
Cd72 O80 2.277 . S
O73 C70 1.160 . S
O73 Cd74 2.203 . S
Cd74 O73 2.203 . S
Cd74 O76 2.411 . S
Cd74 O77 2.333 . S
Cd74 O78 2.352 . S
Cd74 O82 2.277 . S
Cd74 O83 2.356 . S
C75 O80 1.209 . S
C75 O82 1.226 . S
O76 Cd72 2.273 . S
O76 Cd74 2.411 . S
O76 C79 1.320 . S
O77 Cd74 2.333 . S
O77 C79 1.214 . S
O78 Cd74 2.352 . S
O78 C81 1.258 . S
C79 O76 1.320 . S
C79 O77 1.214 . S
O80 Cd72 2.277 . S
O80 C75 1.209 . S
C81 O78 1.258 . S
C81 O83 1.282 . S
O82 Cd74 2.277 . S
O82 C75 1.226 . S
O83 Cd74 2.356 . S
O83 C81 1.282 . S
C84 O85 1.306 . S
C84 O87 1.160 . S
O85 C84 1.306 . S
O85 Cd86 2.228 . S
Cd86 O85 2.228 . S
Cd86 O90 2.273 . S
Cd86 O94 2.277 . S
O87 C84 1.160 . S
O87 Cd88 2.203 . S
Cd88 O87 2.203 . S
Cd88 O90 2.411 . S
Cd88 O91 2.333 . S
Cd88 O92 2.352 . S
Cd88 O96 2.277 . S
Cd88 O97 2.356 . S
C89 O94 1.209 . S
C89 O96 1.226 . S
O90 Cd86 2.273 . S
O90 Cd88 2.411 . S
O90 C93 1.320 . S
O91 Cd88 2.333 . S
O91 C93 1.214 . S
O92 Cd88 2.352 . S
O92 C95 1.258 . S
C93 O90 1.320 . S
C93 O91 1.214 . S
O94 Cd86 2.277 . S
O94 C89 1.209 . S
C95 O92 1.258 . S
C95 O97 1.282 . S
O96 Cd88 2.277 . S
O96 C89 1.226 . S
O97 Cd88 2.356 . S
O97 C95 1.282 . S
C98 O99 1.306 . S
C98 O101 1.160 . S
O99 C98 1.306 . S
O99 Cd100 2.228 . S
Cd100 O99 2.228 . S
Cd100 O104 2.273 . S
Cd100 O108 2.277 . S
O101 C98 1.160 . S
O101 Cd102 2.203 . S
Cd102 O101 2.203 . S
Cd102 O104 2.411 . S
Cd102 O105 2.333 . S
Cd102 O106 2.352 . S
Cd102 O110 2.277 . S
Cd102 O111 2.356 . S
C103 O108 1.209 . S
C103 O110 1.226 . S
O104 Cd100 2.273 . S
O104 Cd102 2.411 . S
O104 C107 1.320 . S
O105 Cd102 2.333 . S
O105 C107 1.214 . S
O106 Cd102 2.352 . S
O106 C109 1.258 . S
C107 O104 1.320 . S
C107 O105 1.214 . S
O108 Cd100 2.277 . S
O108 C103 1.209 . S
C109 O106 1.258 . S
C109 O111 1.282 . S
O110 Cd102 2.277 . S
O110 C103 1.226 . S
O111 Cd102 2.356 . S
O111 C109 1.282 . S
C112 O113 1.306 . S
C112 O115 1.160 . S
O113 C112 1.306 . S
O113 Cd114 2.228 . S
Cd114 O113 2.228 . S
Cd114 O118 2.273 . S
Cd114 O122 2.277 . S
O115 C112 1.160 . S
O115 Cd116 2.203 . S
Cd116 O115 2.203 . S
Cd116 O118 2.411 . S
Cd116 O119 2.333 . S
Cd116 O120 2.352 . S
Cd116 O124 2.277 . S
Cd116 O125 2.356 . S
C117 O122 1.209 . S
C117 O124 1.226 . S
O118 Cd114 2.273 . S
O118 Cd116 2.411 . S
O118 C121 1.320 . S
O119 Cd116 2.333 . S
O119 C121 1.214 . S
O120 Cd116 2.352 . S
O120 C123 1.258 . S
C121 O118 1.320 . S
C121 O119 1.214 . S
O122 Cd114 2.277 . S
O122 C117 1.209 . S
C123 O120 1.258 . S
C123 O125 1.282 . S
O124 Cd116 2.277 . S
O124 C117 1.226 . S
O125 Cd116 2.356 . S
O125 C123 1.282 . S
C126 O127 1.306 . S
C126 O129 1.160 . S
O127 C126 1.306 . S
O127 Cd128 2.228 . S
Cd128 O127 2.228 . S
Cd128 O132 2.273 . S
Cd128 O136 2.277 . S
O129 C126 1.160 . S
O129 Cd130 2.203 . S
Cd130 O129 2.203 . S
Cd130 O132 2.411 . S
Cd130 O133 2.333 . S
Cd130 O134 2.352 . S
Cd130 O138 2.277 . S
Cd130 O139 2.356 . S
C131 O136 1.209 . S
C131 O138 1.226 . S
O132 Cd128 2.273 . S
O132 Cd130 2.411 . S
O132 C135 1.320 . S
O133 Cd130 2.333 . S
O133 C135 1.214 . S
O134 Cd130 2.352 . S
O134 C137 1.258 . S
C135 O132 1.320 . S
C135 O133 1.214 . S
O136 Cd128 2.277 . S
O136 C131 1.209 . S
C137 O134 1.258 . S
C137 O139 1.282 . S
O138 Cd130 2.277 . S
O138 C131 1.226 . S
O139 Cd130 2.356 . S
O139 C137 1.282 . S
C140 O141 1.306 . S
C140 O143 1.160 . S
O141 C140 1.306 . S
O141 Cd142 2.228 . S
Cd142 O141 2.228 . S
Cd142 O146 2.273 . S
Cd142 O150 2.277 . S
O143 C140 1.160 . S
O143 Cd144 2.203 . S
Cd144 O143 2.203 . S
Cd144 O146 2.411 . S
Cd144 O147 2.333 . S
Cd144 O148 2.352 . S
Cd144 O152 2.277 . S
Cd144 O153 2.356 . S
C145 O150 1.209 . S
C145 O152 1.226 . S
O146 Cd142 2.273 . S
O146 Cd144 2.411 . S
O146 C149 1.320 . S
O147 Cd144 2.333 . S
O147 C149 1.214 . S
O148 Cd144 2.352 . S
O148 C151 1.258 . S
C149 O146 1.320 . S
C149 O147 1.214 . S
O150 Cd142 2.277 . S
O150 C145 1.209 . S
C151 O148 1.258 . S
C151 O153 1.282 . S
O152 Cd144 2.277 . S
O152 C145 1.226 . S
O153 Cd144 2.356 . S
O153 C151 1.282 . S
C154 O155 1.306 . S
C154 O157 1.160 . S
O155 C154 1.306 . S
O155 Cd156 2.228 . S
Cd156 O155 2.228 . S
Cd156 O160 2.273 . S
Cd156 O164 2.277 . S
O157 C154 1.160 . S
O157 Cd158 2.203 . S
Cd158 O157 2.203 . S
Cd158 O160 2.411 . S
Cd158 O161 2.333 . S
Cd158 O162 2.352 . S
Cd158 O166 2.277 . S
Cd158 O167 2.356 . S
C159 O164 1.209 . S
C159 O166 1.226 . S
O160 Cd156 2.273 . S
O160 Cd158 2.411 . S
O160 C163 1.320 . S
O161 Cd158 2.333 . S
O161 C163 1.214 . S
O162 Cd158 2.352 . S
O162 C165 1.258 . S
C163 O160 1.320 . S
C163 O161 1.214 . S
O164 Cd156 2.277 . S
O164 C159 1.209 . S
C165 O162 1.258 . S
C165 O167 1.282 . S
O166 Cd158 2.277 . S
O166 C159 1.226 . S
O167 Cd158 2.356 . S
O167 C165 1.282 . S
C168 C169 1.387 . S
C168 H172 0.950 . S
C168 C177 1.390 1_655 S
C169 C168 1.387 . S
C169 C171 1.387 . S
H170 C177 0.950 . S
C171 C169 1.387 . S
C171 C173 1.390 1_655 S
C171 H175 0.950 . S
H172 C168 0.950 . S
C173 C171 1.390 1_455 S
C173 C174 1.387 . S
C173 H176 0.950 . S
C174 C173 1.387 . S
C174 C177 1.387 . S
H175 C171 0.950 . S
H176 C173 0.950 . S
C177 C168 1.390 1_455 S
C177 H170 0.950 . S
C177 C174 1.387 . S
C178 C179 1.387 . S
C178 H182 0.950 . S
C178 C187 1.390 1_455 S
C179 C178 1.387 . S
C179 C181 1.387 . S
H180 C187 0.950 . S
C181 C179 1.387 . S
C181 C183 1.390 1_455 S
C181 H185 0.950 . S
H182 C178 0.950 . S
C183 C181 1.390 1_655 S
C183 C184 1.387 . S
C183 H186 0.950 . S
C184 C183 1.387 . S
C184 C187 1.387 . S
H185 C181 0.950 . S
H186 C183 0.950 . S
C187 C178 1.390 1_655 S
C187 H180 0.950 . S
C187 C184 1.387 . S
C188 C189 1.387 . S
C188 H192 0.950 . S
C188 C197 1.390 1_565 S
C189 C188 1.387 . S
C189 C191 1.387 . S
H190 C197 0.950 . S
C191 C189 1.387 . S
C191 C193 1.390 1_565 S
C191 H195 0.950 . S
H192 C188 0.950 . S
C193 C191 1.390 1_545 S
C193 C194 1.387 . S
C193 H196 0.950 . S
C194 C193 1.387 . S
C194 C197 1.387 . S
H195 C191 0.950 . S
H196 C193 0.950 . S
C197 C188 1.390 1_545 S
C197 H190 0.950 . S
C197 C194 1.387 . S
C198 C199 1.387 . S
C198 H202 0.950 . S
C198 C207 1.390 1_565 S
C199 C198 1.387 . S
C199 C201 1.387 . S
H200 C207 0.950 . S
C201 C199 1.387 . S
C201 C203 1.390 1_565 S
C201 H205 0.950 . S
H202 C198 0.950 . S
C203 C201 1.390 1_545 S
C203 C204 1.387 . S
C203 H206 0.950 . S
C204 C203 1.387 . S
C204 C207 1.387 . S
H205 C201 0.950 . S
H206 C203 0.950 . S
C207 C198 1.390 1_545 S
C207 H200 0.950 . S
C207 C204 1.387 . S
C208 C209 1.387 . S
C208 H212 0.950 . S
C208 C217 1.390 1_556 S
C209 C208 1.387 . S
C209 C211 1.387 . S
H210 C217 0.950 . S
C211 C209 1.387 . S
C211 C213 1.390 1_556 S
C211 H215 0.950 . S
H212 C208 0.950 . S
C213 C211 1.390 1_554 S
C213 C214 1.387 . S
C213 H216 0.950 . S
C214 C213 1.387 . S
C214 C217 1.387 . S
H215 C211 0.950 . S
H216 C213 0.950 . S
C217 C208 1.390 1_554 S
C217 H210 0.950 . S
C217 C214 1.387 . S
C218 C219 1.387 . S
C218 H222 0.950 . S
C218 C227 1.390 1_556 S
C219 C218 1.387 . S
C219 C221 1.387 . S
H220 C227 0.950 . S
C221 C219 1.387 . S
C221 C223 1.390 1_556 S
C221 H225 0.950 . S
H222 C218 0.950 . S
C223 C221 1.390 1_554 S
C223 C224 1.387 . S
C223 H226 0.950 . S
C224 C223 1.387 . S
C224 C227 1.387 . S
H225 C221 0.950 . S
H226 C223 0.950 . S
C227 C218 1.390 1_554 S
C227 H220 0.950 . S
C227 C224 1.387 . S
C228 C229 1.387 . S
C228 H232 0.950 . S
C228 C237 1.390 . S
C229 C228 1.387 . S
C229 C231 1.387 . S
H230 C237 0.950 . S
C231 C229 1.387 . S
C231 C233 1.390 . S
C231 H235 0.950 . S
H232 C228 0.950 . S
C233 C231 1.390 . S
C233 C234 1.387 . S
C233 H236 0.950 . S
C234 C233 1.387 . S
C234 C237 1.387 . S
H235 C231 0.950 . S
H236 C233 0.950 . S
C237 C228 1.390 . S
C237 H230 0.950 . S
C237 C234 1.387 . S
C238 C239 1.387 . S
C238 H242 0.950 . S
C238 C247 1.390 . S
C239 C238 1.387 . S
C239 C241 1.387 . S
H240 C247 0.950 . S
C241 C239 1.387 . S
C241 C243 1.390 . S
C241 H245 0.950 . S
H242 C238 0.950 . S
C243 C241 1.390 . S
C243 C244 1.387 . S
C243 H246 0.950 . S
C244 C243 1.387 . S
C244 C247 1.387 . S
H245 C241 0.950 . S
H246 C243 0.950 . S
C247 C238 1.390 . S
C247 H240 0.950 . S
C247 C244 1.387 . S
C248 C249 1.387 . S
C248 H252 0.950 . S
C248 C257 1.390 . S
C249 C248 1.387 . S
C249 C251 1.387 . S
H250 C257 0.950 . S
C251 C249 1.387 . S
C251 C253 1.390 . S
C251 H255 0.950 . S
H252 C248 0.950 . S
C253 C251 1.390 . S
C253 C254 1.387 . S
C253 H256 0.950 . S
C254 C253 1.387 . S
C254 C257 1.387 . S
H255 C251 0.950 . S
H256 C253 0.950 . S
C257 C248 1.390 . S
C257 H250 0.950 . S
C257 C254 1.387 . S
C258 C259 1.387 . S
C258 H262 0.950 . S
C258 C267 1.390 . S
C259 C258 1.387 . S
C259 C261 1.387 . S
H260 C267 0.950 . S
C261 C259 1.387 . S
C261 C263 1.390 . S
C261 H265 0.950 . S
H262 C258 0.950 . S
C263 C261 1.390 . S
C263 C264 1.387 . S
C263 H266 0.950 . S
C264 C263 1.387 . S
C264 C267 1.387 . S
H265 C261 0.950 . S
H266 C263 0.950 . S
C267 C258 1.390 . S
C267 H260 0.950 . S
C267 C264 1.387 . S
C268 C269 1.387 . S
C268 H272 0.950 . S
C268 C277 1.390 . S
C269 C268 1.387 . S
C269 C271 1.387 . S
H270 C277 0.950 . S
C271 C269 1.387 . S
C271 C273 1.390 . S
C271 H275 0.950 . S
H272 C268 0.950 . S
C273 C271 1.390 . S
C273 C274 1.387 . S
C273 H276 0.950 . S
C274 C273 1.387 . S
C274 C277 1.387 . S
H275 C271 0.950 . S
H276 C273 0.950 . S
C277 C268 1.390 . S
C277 H270 0.950 . S
C277 C274 1.387 . S
C278 C279 1.387 . S
C278 H282 0.950 . S
C278 C287 1.390 . S
C279 C278 1.387 . S
C279 C281 1.387 . S
H280 C287 0.950 . S
C281 C279 1.387 . S
C281 C283 1.390 . S
C281 H285 0.950 . S
H282 C278 0.950 . S
C283 C281 1.390 . S
C283 C284 1.387 . S
C283 H286 0.950 . S
C284 C283 1.387 . S
C284 C287 1.387 . S
H285 C281 0.950 . S
H286 C283 0.950 . S
C287 C278 1.390 . S
C287 H280 0.950 . S
C287 C284 1.387 . S
C288 C289 1.387 . S
C288 H292 0.950 . S
C288 C297 1.390 . S
C289 C288 1.387 . S
C289 C291 1.387 . S
H290 C297 0.950 . S
C291 C289 1.387 . S
C291 C293 1.390 . S
C291 H295 0.950 . S
H292 C288 0.950 . S
C293 C291 1.390 . S
C293 C294 1.387 . S
C293 H296 0.950 . S
C294 C293 1.387 . S
C294 C297 1.387 . S
H295 C291 0.950 . S
H296 C293 0.950 . S
C297 C288 1.390 . S
C297 H290 0.950 . S
C297 C294 1.387 . S
C298 C299 1.387 . S
C298 H302 0.950 . S
C298 C307 1.390 . S
C299 C298 1.387 . S
C299 C301 1.387 . S
H300 C307 0.950 . S
C301 C299 1.387 . S
C301 C303 1.390 . S
C301 H305 0.950 . S
H302 C298 0.950 . S
C303 C301 1.390 . S
C303 C304 1.387 . S
C303 H306 0.950 . S
C304 C303 1.387 . S
C304 C307 1.387 . S
H305 C301 0.950 . S
H306 C303 0.950 . S
C307 C298 1.390 . S
C307 H300 0.950 . S
C307 C304 1.387 . S
C308 C309 1.387 . S
C308 H312 0.950 . S
C308 C317 1.390 . S
C309 C308 1.387 . S
C309 C311 1.387 . S
H310 C317 0.950 . S
C311 C309 1.387 . S
C311 C313 1.390 . S
C311 H315 0.950 . S
H312 C308 0.950 . S
C313 C311 1.390 . S
C313 C314 1.387 . S
C313 H316 0.950 . S
C314 C313 1.387 . S
C314 C317 1.387 . S
H315 C311 0.950 . S
H316 C313 0.950 . S
C317 C308 1.390 . S
C317 H310 0.950 . S
C317 C314 1.387 . S
C318 C319 1.387 . S
C318 H322 0.950 . S
C318 C327 1.390 . S
C319 C318 1.387 . S
C319 C321 1.387 . S
H320 C327 0.950 . S
C321 C319 1.387 . S
C321 C323 1.390 . S
C321 H325 0.950 . S
H322 C318 0.950 . S
C323 C321 1.390 . S
C323 C324 1.387 . S
C323 H326 0.950 . S
C324 C323 1.387 . S
C324 C327 1.387 . S
H325 C321 0.950 . S
H326 C323 0.950 . S
C327 C318 1.390 . S
C327 H320 0.950 . S
C327 C324 1.387 . S
C328 C329 1.387 . S
C328 H332 0.950 . S
C328 C337 1.390 . S
C329 C328 1.387 . S
C329 C331 1.387 . S
H330 C337 0.950 . S
C331 C329 1.387 . S
C331 C333 1.390 . S
C331 H335 0.950 . S
H332 C328 0.950 . S
C333 C331 1.390 . S
C333 C334 1.387 . S
C333 H336 0.950 . S
C334 C333 1.387 . S
C334 C337 1.387 . S
H335 C331 0.950 . S
H336 C333 0.950 . S
C337 C328 1.390 . S
C337 H330 0.950 . S
C337 C334 1.387 . S
C338 C339 1.387 . S
C338 H342 0.950 . S
C338 C347 1.390 . S
C339 C338 1.387 . S
C339 C341 1.387 . S
H340 C347 0.950 . S
C341 C339 1.387 . S
C341 C343 1.390 . S
C341 H345 0.950 . S
H342 C338 0.950 . S
C343 C341 1.390 . S
C343 C344 1.387 . S
C343 H346 0.950 . S
C344 C343 1.387 . S
C344 C347 1.387 . S
H345 C341 0.950 . S
H346 C343 0.950 . S
C347 C338 1.390 . S
C347 H340 0.950 . S
C347 C344 1.387 . S
C348 C349 1.387 . S
C348 H352 0.950 . S
C348 C357 1.390 1_445 S
C349 C348 1.387 . S
C349 C351 1.387 . S
H350 C357 0.950 . S
C351 C349 1.387 . S
C351 C353 1.390 1_445 S
C351 H355 0.950 . S
H352 C348 0.950 . S
C353 C351 1.390 1_665 S
C353 C354 1.387 . S
C353 H356 0.950 . S
C354 C353 1.387 . S
C354 C357 1.387 . S
H355 C351 0.950 . S
H356 C353 0.950 . S
C357 C348 1.390 1_665 S
C357 H350 0.950 . S
C357 C354 1.387 . S
C358 C359 1.387 . S
C358 H362 0.950 . S
C358 C367 1.390 1_645 S
C359 C358 1.387 . S
C359 C361 1.387 . S
H360 C367 0.950 . S
C361 C359 1.387 . S
C361 C363 1.390 1_645 S
C361 H365 0.950 . S
H362 C358 0.950 . S
C363 C361 1.390 1_465 S
C363 C364 1.387 . S
C363 H366 0.950 . S
C364 C363 1.387 . S
C364 C367 1.387 . S
H365 C361 0.950 . S
H366 C363 0.950 . S
C367 C358 1.390 1_465 S
C367 H360 0.950 . S
C367 C364 1.387 . S
C368 C369 1.387 . S
C368 H372 0.950 . S
C368 C377 1.390 1_566 S
C369 C368 1.387 . S
C369 C371 1.387 . S
H370 C377 0.950 . S
C371 C369 1.387 . S
C371 C373 1.390 1_566 S
C371 H375 0.950 . S
H372 C368 0.950 . S
C373 C371 1.390 1_544 S
C373 C374 1.387 . S
C373 H376 0.950 . S
C374 C373 1.387 . S
C374 C377 1.387 . S
H375 C371 0.950 . S
H376 C373 0.950 . S
C377 C368 1.390 1_544 S
C377 H370 0.950 . S
C377 C374 1.387 . S
C378 C379 1.387 . S
C378 H382 0.950 . S
C378 C387 1.390 1_564 S
C379 C378 1.387 . S
C379 C381 1.387 . S
H380 C387 0.950 . S
C381 C379 1.387 . S
C381 C383 1.390 1_564 S
C381 H385 0.950 . S
H382 C378 0.950 . S
C383 C381 1.390 1_546 S
C383 C384 1.387 . S
C383 H386 0.950 . S
C384 C383 1.387 . S
C384 C387 1.387 . S
H385 C381 0.950 . S
H386 C383 0.950 . S
C387 C378 1.390 1_546 S
C387 H380 0.950 . S
C387 C384 1.387 . S
C388 C389 1.387 . S
C388 H392 0.950 . S
C388 C397 1.390 1_656 S
C389 C388 1.387 . S
C389 C391 1.387 . S
H390 C397 0.950 . S
C391 C389 1.387 . S
C391 C393 1.390 1_656 S
C391 H395 0.950 . S
H392 C388 0.950 . S
C393 C391 1.390 1_454 S
C393 C394 1.387 . S
C393 H396 0.950 . S
C394 C393 1.387 . S
C394 C397 1.387 . S
H395 C391 0.950 . S
H396 C393 0.950 . S
C397 C388 1.390 1_454 S
C397 H390 0.950 . S
C397 C394 1.387 . S
C398 C399 1.387 . S
C398 H402 0.950 . S
C398 C407 1.390 1_456 S
C399 C398 1.387 . S
C399 C401 1.387 . S
H400 C407 0.950 . S
C401 C399 1.387 . S
C401 C403 1.390 1_456 S
C401 H405 0.950 . S
H402 C398 0.950 . S
C403 C401 1.390 1_654 S
C403 C404 1.387 . S
C403 H406 0.950 . S
C404 C403 1.387 . S
C404 C407 1.387 . S
H405 C401 0.950 . S
H406 C403 0.950 . S
C407 C398 1.390 1_654 S
C407 H400 0.950 . S
C407 C404 1.387 . S
C169 C53 1.192 . S
C174 C11 1.192 . S
C179 C39 1.192 . S
C184 C25 1.192 . S
C189 C81 1.191 . S
C194 C67 1.191 . S
C199 C95 1.192 . S
C204 C109 1.192 . S
C209 C137 1.192 . S
C214 C123 1.192 . S
C219 C151 1.191 . S
C224 C165 1.191 . S
C229 C5 1.185 . S
C234 C98 1.104 . S
C239 C84 1.108 . S
C244 C19 1.185 . S
C249 C70 1.108 . S
C254 C33 1.186 . S
C259 C56 1.107 . S
C264 C47 1.184 . S
C269 C61 1.185 . S
C274 C154 1.108 . S
C279 C112 1.103 . S
C284 C75 1.185 . S
C289 C140 1.104 . S
C294 C89 1.186 . S
C299 C103 1.185 . S
C304 C126 1.108 . S
C309 C28 1.104 . S
C314 C117 1.185 . S
C319 C0 1.108 . S
C324 C131 1.185 . S
C329 C145 1.186 . S
C334 C14 1.104 . S
C339 C42 1.104 . S
C344 C159 1.186 . S
C349 C9 1.311 . S
C354 C23 1.311 . S
C359 C51 1.311 . S
C364 C37 1.311 . S
C369 C93 1.310 . S
C374 C65 1.310 . S
C379 C79 1.311 . S
C384 C107 1.311 . S
C389 C149 1.310 . S
C394 C121 1.310 . S
C399 C135 1.311 . S
C404 C163 1.311 . S
