# Generated by pormake.
# Topology smm, (6)-cn, num edge types: 1
# Building blocks:
#     Node 0, Type 0, BuildingBlock: CUWYAW_clean_sbu_0, # of connection points: 6
#     Node 1, Type 0, BuildingBlock: CUWYAW_clean_sbu_0, # of connection points: 6
#     Node 2, Type 0, BuildingBlock: CUWYAW_clean_sbu_0, # of connection points: 6
#     Node 3, Type 0, BuildingBlock: CUWYAW_clean_sbu_0, # of connection points: 6
#     Node 4, Type 0, BuildingBlock: CUWYAW_clean_sbu_0, # of connection points: 6
#     Node 5, Type 0, BuildingBlock: CUWYAW_clean_sbu_0, # of connection points: 6
#     Node 6, Type 0, BuildingBlock: CUWYAW_clean_sbu_0, # of connection points: 6
#     Node 7, Type 0, BuildingBlock: CUWYAW_clean_sbu_0, # of connection points: 6
#     Node 8, Type 0, BuildingBlock: CUWYAW_clean_sbu_0, # of connection points: 6
#     Edge 9, Type (0, 0), BuildingBlock: XUDNAN_clean_linker_2, # of connection points: 2
#     Edge 10, Type (0, 0), BuildingBlock: XUDNAN_clean_linker_2, # of connection points: 2
#     Edge 11, Type (0, 0), BuildingBlock: XUDNAN_clean_linker_2, # of connection points: 2
#     Edge 12, Type (0, 0), BuildingBlock: XUDNAN_clean_linker_2, # of connection points: 2
#     Edge 13, Type (0, 0), BuildingBlock: XUDNAN_clean_linker_2, # of connection points: 2
#     Edge 14, Type (0, 0), BuildingBlock: XUDNAN_clean_linker_2, # of connection points: 2
#     Edge 15, Type (0, 0), BuildingBlock: XUDNAN_clean_linker_2, # of connection points: 2
#     Edge 16, Type (0, 0), BuildingBlock: XUDNAN_clean_linker_2, # of connection points: 2
#     Edge 17, Type (0, 0), BuildingBlock: XUDNAN_clean_linker_2, # of connection points: 2
#     Edge 18, Type (0, 0), BuildingBlock: XUDNAN_clean_linker_2, # of connection points: 2
#     Edge 19, Type (0, 0), BuildingBlock: XUDNAN_clean_linker_2, # of connection points: 2
#     Edge 20, Type (0, 0), BuildingBlock: XUDNAN_clean_linker_2, # of connection points: 2
#     Edge 21, Type (0, 0), BuildingBlock: XUDNAN_clean_linker_2, # of connection points: 2
#     Edge 22, Type (0, 0), BuildingBlock: XUDNAN_clean_linker_2, # of connection points: 2
#     Edge 23, Type (0, 0), BuildingBlock: XUDNAN_clean_linker_2, # of connection points: 2
#     Edge 24, Type (0, 0), BuildingBlock: XUDNAN_clean_linker_2, # of connection points: 2
#     Edge 25, Type (0, 0), BuildingBlock: XUDNAN_clean_linker_2, # of connection points: 2
#     Edge 26, Type (0, 0), BuildingBlock: XUDNAN_clean_linker_2, # of connection points: 2
#     Edge 27, Type (0, 0), BuildingBlock: XUDNAN_clean_linker_2, # of connection points: 2
#     Edge 28, Type (0, 0), BuildingBlock: XUDNAN_clean_linker_2, # of connection points: 2
#     Edge 29, Type (0, 0), BuildingBlock: XUDNAN_clean_linker_2, # of connection points: 2
#     Edge 30, Type (0, 0), BuildingBlock: XUDNAN_clean_linker_2, # of connection points: 2
#     Edge 31, Type (0, 0), BuildingBlock: XUDNAN_clean_linker_2, # of connection points: 2
#     Edge 32, Type (0, 0), BuildingBlock: XUDNAN_clean_linker_2, # of connection points: 2
#     Edge 33, Type (0, 0), BuildingBlock: XUDNAN_clean_linker_2, # of connection points: 2
#     Edge 34, Type (0, 0), BuildingBlock: XUDNAN_clean_linker_2, # of connection points: 2
#     Edge 35, Type (0, 0), BuildingBlock: XUDNAN_clean_linker_2, # of connection points: 2
# Relax obj value: 0.027
# Max RMSD: 0.101
# Mean RMSD: 0.101
data_MOF--net-smm--node1-CUWYAW_clean_sbu_0--edge1-XUDNAN_clean_linker_2
_symmetry_space_group_name_H-M    P1
_symmetry_Int_Tables_number       1
_symmetry_cell_setting            triclinic
loop_
_symmetry_equiv_pos_as_xyz
'x, y, z'
_cell_length_a     70.660373
_cell_length_b     70.811958
_cell_length_c     14.320667
_cell_angle_alpha  89.976562
_cell_angle_beta   89.960178
_cell_angle_gamma 119.79468
loop_
_atom_site_label
_atom_site_type_symbol
_atom_site_fract_x
_atom_site_fract_y
_atom_site_fract_z
_atom_type_partial_charge
C0 C 0.09696 0.1976 0.89754 0.0
Eu1 Eu 0.06483 0.20158 0.96578 0.0
C2 C 0.10708 0.18379 0.90986 0.0
C3 C 0.12988 0.1938 0.91281 0.0
C4 C 0.14011 0.18154 0.92871 0.0
C5 C 0.12781 0.15887 0.94222 0.0
C6 C 0.10491 0.14871 0.93683 0.0
C7 C 0.09463 0.16107 0.9211 0.0
C8 C 0.05778 0.20502 0.14839 0.0
C9 C 1.02175 0.15321 -0.00356 0.0
C10 C 0.98845 0.20046 0.08556 0.0
Eu11 Eu 1.02053 0.19768 0.00864 0.0
C12 C 0.97742 0.21342 0.09563 0.0
C13 C 0.95519 0.20241 0.11785 0.0
C14 C 0.94395 0.2138 0.13018 0.0
C15 C 0.95464 0.23657 0.12011 0.0
C16 C 0.9771 0.24771 0.09899 0.0
C17 C 0.98842 0.23621 0.08664 0.0
C18 C 1.02978 0.19745 0.82345 0.0
C19 C 0.06345 0.24603 0.97295 0.0
O20 O 0.07759 0.18882 0.85906 0.0
O21 O 0.09912 0.21044 0.96732 0.0
O22 O 0.0767 0.21528 0.10831 0.0
O23 O 0.0435 0.19178 0.09253 0.0
O24 O 0.04187 0.16501 0.96436 0.0
O25 O 1.01052 0.16225 0.0278 0.0
O26 O 1.00761 0.20786 0.12443 0.0
O27 O 0.98682 0.19098 0.00522 0.0
O28 O 1.01015 0.1866 0.85707 0.0
O29 O 0.04256 0.20871 0.88701 0.0
O30 O 0.04398 0.23455 0.01278 0.0
O31 O 0.0735 0.23631 0.9353 0.0
H32 H 0.13982 0.21125 0.90378 0.0
H33 H 0.15777 0.18988 0.93066 0.0
H34 H 0.09495 0.13132 0.94732 0.0
H35 H 0.077 0.15293 0.91897 0.0
H36 H 0.94645 0.18488 0.12621 0.0
H37 H 0.92682 0.20468 0.14838 0.0
H38 H 0.98581 0.26522 0.09035 0.0
H39 H 1.00565 0.24505 0.0699 0.0
C40 C 0.88945 0.92512 0.90646 0.0
Eu41 Eu 0.87656 0.88574 0.96735 0.0
C42 C 0.9059 0.94821 0.92567 0.0
C43 C 0.90007 0.96149 0.97705 0.0
C44 C 0.91506 0.98357 -0.00868 0.0
C45 C 0.93626 0.99302 0.95396 0.0
C46 C 0.94203 0.9797 0.90224 0.0
C47 C 0.92707 0.95762 0.88824 0.0
C48 C 0.86894 0.87395 0.14948 0.0
C49 C 0.91756 0.87777 0.00487 0.0
C50 C 0.85549 0.80134 0.08359 0.0
Eu51 Eu 0.86763 0.83925 0.00768 0.0
C52 C 0.8396 0.77766 0.08699 0.0
C53 C 0.83583 0.76419 0.00907 0.0
C54 C 0.82396 0.74149 0.0184 0.0
C55 C 0.8156 0.73171 0.10579 0.0
C56 C 0.8183 0.74525 0.1824 0.0
C57 C 0.83025 0.76796 0.17311 0.0
C58 C 0.87399 0.85154 0.82466 0.0
C59 C 0.82679 0.84689 0.95217 0.0
O60 O 0.89625 0.91244 0.87147 0.0
O61 O 0.87394 0.91513 0.96821 0.0
O62 O 0.86318 0.88652 0.1079 0.0
O63 O 0.87993 0.86917 0.09466 0.0
O64 O 0.91066 0.89014 0.96547 0.0
O65 O 0.90373 0.85839 0.03969 0.0
O66 O 0.84961 0.81496 0.11612 0.0
O67 O 0.86856 0.80902 0.01135 0.0
O68 O 0.87891 0.83744 0.85791 0.0
O69 O 0.86425 0.85599 0.8859 0.0
O70 O 0.83287 0.83416 -0.00437 0.0
O71 O 0.84146 0.86644 0.92168 0.0
H72 H 0.88381 0.95485 0.00585 0.0
H73 H 0.91006 0.99318 0.0323 0.0
H74 H 0.95804 0.98642 0.87082 0.0
H75 H 0.93204 0.948 0.84702 0.0
H76 H 0.84277 0.77112 0.94166 0.0
H77 H 0.82188 0.73156 0.95755 0.0
H78 H 0.81225 0.73832 0.25078 0.0
H79 H 0.83307 0.77795 0.23451 0.0
C80 C 0.14641 0.98828 0.88571 0.0
Eu81 Eu 0.18562 1.01557 0.94631 0.0
C82 C 0.12311 0.97645 0.91394 0.0
C83 C 0.1113 0.98719 0.93319 0.0
C84 C 0.08901 0.97524 0.95567 0.0
C85 C 0.07812 0.95233 0.95963 0.0
C86 C 0.09003 0.94173 0.93999 0.0
C87 C 0.11217 0.95362 0.91729 0.0
C88 C 0.19736 0.0196 0.12905 0.0
C89 C 0.19366 0.06439 0.98258 0.0
C90 C 0.26994 0.07963 0.05926 0.0
Eu91 Eu 0.23216 0.05286 0.98531 0.0
C92 C 0.29335 0.08679 0.07112 0.0
C93 C 0.30067 0.072 0.08909 0.0
C94 C 0.32242 0.07955 0.11488 0.0
C95 C 0.33724 0.10203 0.12364 0.0
C96 C 0.33003 0.11674 0.10096 0.0
C97 C 0.30833 0.10919 0.07516 0.0
C98 C 0.21903 0.04765 0.8033 0.0
C99 C 0.22541 1.00554 0.92492 0.0
O100 O 0.15599 1.00933 0.87198 0.0
O101 O 0.1592 0.98233 0.92616 0.0
O102 O 0.18449 1.00144 0.08767 0.0
O103 O 0.20228 0.03523 0.07369 0.0
O104 O 0.18143 0.04549 0.94049 0.0
O105 O 0.21278 0.06943 0.01909 0.0
O106 O 0.25561 0.06123 0.098 0.0
O107 O 0.26335 0.08341 0.97962 0.0
O108 O 0.23307 0.06649 0.83745 0.0
O109 O 0.215 0.03327 0.86283 0.0
O110 O 0.23777 0.02361 0.97294 0.0
O111 O 0.20599 1.00119 0.89364 0.0
H112 H 0.11922 1.00478 0.93062 0.0
H113 H 0.08037 0.98393 0.97089 0.0
H114 H 0.08215 0.92414 0.94049 0.0
H115 H 0.12075 0.94489 0.90134 0.0
H116 H 0.28947 0.05463 0.08625 0.0
H117 H 0.32748 0.06774 0.13013 0.0
H118 H 0.34084 0.13412 0.1077 0.0
H119 H 0.303 0.1209 0.0623 0.0
C120 C 0.75418 0.51302 0.22027 0.0
Eu121 Eu 0.7271 0.52507 0.28316 0.0
C122 C 0.76388 0.49921 0.24175 0.0
C123 C 0.77163 0.49865 0.33149 0.0
C124 C 0.78328 0.48771 0.3471 0.0
C125 C 0.78736 0.47704 0.27345 0.0
C126 C 0.77878 0.4769 0.18465 0.0
C127 C 0.76723 0.48792 0.16902 0.0
C128 C 0.71989 0.52941 0.46776 0.0
C129 C 0.67801 0.48435 0.31554 0.0
C130 C 0.66475 0.54659 0.40836 0.0
Eu131 Eu 0.68999 0.53457 0.32566 0.0
C132 C 0.65748 0.5629 0.41579 0.0
C133 C 0.64731 0.56707 0.3406 0.0
C134 C 0.63668 0.57908 0.35416 0.0
C135 C 0.63598 0.5872 0.44306 0.0
C136 C 0.64741 0.58426 0.51671 0.0
C137 C 0.65795 0.57214 0.50324 0.0
C138 C 0.69272 0.52617 0.14373 0.0
C139 C 0.73773 0.57487 0.26541 0.0
O140 O 0.73358 0.50338 0.19648 0.0
O141 O 0.75994 0.53007 0.2733 0.0
O142 O 0.73912 0.5352 0.43511 0.0
O143 O 0.70628 0.52046 0.40433 0.0
O144 O 0.6971 0.4911 0.27411 0.0
O145 O 0.67311 0.49834 0.35469 0.0
O146 O 0.68415 0.55168 0.43976 0.0
O147 O 0.65915 0.53425 0.3338 0.0
O148 O 0.67472 0.52186 0.18589 0.0
O149 O 0.70889 0.53692 0.19666 0.0
O150 O 0.71918 0.56907 0.30997 0.0
O151 O 0.74269 0.56011 0.23651 0.0
H152 H 0.76919 0.50715 0.38902 0.0
H153 H 0.78934 0.48784 0.41667 0.0
H154 H 0.78176 0.46903 0.12618 0.0
H155 H 0.76151 0.48824 0.09914 0.0
H156 H 0.64668 0.56025 0.27224 0.0
H157 H 0.62828 0.58133 0.29567 0.0
H158 H 0.64707 0.59018 0.58608 0.0
H159 H 0.66553 0.56902 0.56256 0.0
C160 C 0.54834 0.25473 0.2383 0.0
Eu161 Eu 0.53987 0.21717 0.30805 0.0
C162 C 0.56192 0.27853 0.25346 0.0
C163 C 0.55155 0.29104 0.25502 0.0
C164 C 0.56345 0.31347 0.27048 0.0
C165 C 0.58614 0.3241 0.28467 0.0
C166 C 0.59669 0.31166 0.28102 0.0
C167 C 0.58468 0.28905 0.26593 0.0
C168 C 0.53521 0.20722 0.4921 0.0
C169 C 0.58405 0.21403 0.34473 0.0
C170 C 0.52722 0.13615 0.42865 0.0
Eu171 Eu 0.53612 0.17329 0.35341 0.0
C172 C 0.51113 0.11258 0.43296 0.0
C173 C 0.50608 0.09914 0.35405 0.0
C174 C 0.49336 0.0765 0.3629 0.0
C175 C 0.48543 0.06679 0.45074 0.0
C176 C 0.48954 0.08034 0.52868 0.0
C177 C 0.50232 0.10298 0.51987 0.0
C178 C 0.5381 0.1831 0.16707 0.0
C179 C 0.49176 0.1755 0.31821 0.0
O180 O 0.55777 0.24387 0.20926 0.0
O181 O 0.53307 0.24396 0.30006 0.0
O182 O 0.52775 0.21853 0.4517 0.0
O183 O 0.54665 0.20339 0.436 0.0
O184 O 0.57546 0.22467 0.30239 0.0
O185 O 0.57162 0.19484 0.38346 0.0
O186 O 0.5218 0.1496 0.46669 0.0
O187 O 0.53874 0.1439 0.35219 0.0
O188 O 0.54655 0.17201 0.20185 0.0
O189 O 0.52815 0.18678 0.23019 0.0
O190 O 0.50096 0.16577 0.36274 0.0
O191 O 0.50388 0.19446 0.27579 0.0
H192 H 0.53408 0.28339 0.24466 0.0
H193 H 0.55482 0.32253 0.27107 0.0
H194 H 0.61413 0.31932 0.29204 0.0
H195 H 0.59313 0.27981 0.2649 0.0
H196 H 0.51252 0.10601 0.28599 0.0
H197 H 0.49022 0.06654 0.30119 0.0
H198 H 0.48385 0.07342 0.59738 0.0
H199 H 0.50608 0.11297 0.58192 0.0
C200 C 0.81195 0.31089 0.21708 0.0
Eu201 Eu 0.8504 0.34191 0.26685 0.0
C202 C 0.78851 0.30156 0.23874 0.0
C203 C 0.77851 0.31443 0.24644 0.0
C204 C 0.7562 0.30477 0.26774 0.0
C205 C 0.74363 0.28218 0.28258 0.0
C206 C 0.75372 0.26943 0.27337 0.0
C207 C 0.77585 0.27901 0.25159 0.0
C208 C 0.86062 0.35568 0.44645 0.0
C209 C 0.8632 0.39173 0.28084 0.0
C210 C 0.93815 0.40014 0.36433 0.0
Eu211 Eu 0.89886 0.37621 0.30136 0.0
C212 C 0.96072 0.41362 0.39922 0.0
C213 C 0.97768 0.41082 0.36323 0.0
C214 C 0.99909 0.42366 0.39538 0.0
C215 C 1.00403 0.43974 0.46348 0.0
C216 C 0.98699 0.44237 0.50009 0.0
C217 C 0.96554 0.42935 0.46872 0.0
C218 C 0.88496 0.37202 0.12178 0.0
C219 C 0.88686 0.32637 0.26423 0.0
O220 O 0.82207 0.32991 0.17538 0.0
O221 O 0.82385 0.30853 0.28113 0.0
O222 O 0.84216 0.35023 0.40704 0.0
O223 O 0.87232 0.35194 0.39157 0.0
O224 O 0.85075 0.37329 0.23604 0.0
O225 O 0.88129 0.39537 0.32425 0.0
O226 O 0.92097 0.39785 0.40961 0.0
O227 O 0.93393 0.38975 0.28463 0.0
O228 O 0.89978 0.39049 0.15611 0.0
O229 O 0.87983 0.35726 0.18083 0.0
O230 O 0.90135 0.34542 0.29947 0.0
O231 O 0.86706 0.32218 0.24018 0.0
H232 H 0.78792 0.33189 0.23684 0.0
H233 H 0.7489 0.31501 0.27487 0.0
H234 H 0.74445 0.25196 0.28294 0.0
H235 H 0.78315 0.26875 0.24521 0.0
H236 H 0.97442 0.39872 0.30999 0.0
H237 H 1.01186 0.42136 0.36524 0.0
H238 H 0.99026 0.4545 0.55321 0.0
H239 H 0.95278 0.4318 0.49806 0.0
C240 C 0.42025 0.84875 0.57293 0.0
Eu241 Eu 0.39302 0.86085 0.63384 0.0
C242 C 0.43129 0.83625 0.59732 0.0
C243 C 0.41982 0.81356 0.61085 0.0
C244 C 0.43111 0.8023 0.62942 0.0
C245 C 0.45405 0.81353 0.6351 0.0
C246 C 0.46536 0.83618 0.62095 0.0
C247 C 0.45413 0.84735 0.60218 0.0
C248 C 0.38602 0.8659 0.81799 0.0
C249 C 0.34425 0.82039 0.66601 0.0
C250 C 0.32973 0.8818 0.75567 0.0
Eu251 Eu 0.35577 0.8704 0.67528 0.0
C252 C 0.31983 0.89602 0.7577 0.0
C253 C 0.29715 0.88624 0.74733 0.0
C254 C 0.28666 0.89845 0.75523 0.0
C255 C 0.29851 0.92092 0.77373 0.0
C256 C 0.32128 0.9308 0.78525 0.0
C257 C 0.33186 0.91846 0.7773 0.0
C258 C 0.35844 0.86168 0.49342 0.0
C259 C 0.40347 0.9104 0.61255 0.0
O260 O 0.39932 0.83814 0.55465 0.0
O261 O 0.42622 0.86676 0.61931 0.0
O262 O 0.40516 0.87133 0.78545 0.0
O263 O 0.37233 0.85675 0.75506 0.0
O264 O 0.36304 0.82725 0.62223 0.0
O265 O 0.33956 0.83429 0.70762 0.0
O266 O 0.35017 0.88964 0.78024 0.0
O267 O 0.32373 0.86745 0.68839 0.0
O268 O 0.34056 0.85779 0.5353 0.0
O269 O 0.3746 0.87235 0.54642 0.0
O270 O 0.38509 0.90487 0.6583 0.0
O271 O 0.40815 0.89546 0.58372 0.0
H272 H 0.40218 0.80449 0.60683 0.0
H273 H 0.4219 0.78487 0.64039 0.0
H274 H 0.48301 0.84532 0.62287 0.0
H275 H 0.46341 0.86476 0.59045 0.0
H276 H 0.28737 0.86891 0.73446 0.0
H277 H 0.26908 0.89011 0.74812 0.0
H278 H 0.33092 0.94807 0.7993 0.0
H279 H 0.34936 0.92644 0.78697 0.0
C280 C 0.2222 0.59185 0.56714 0.0
Eu281 Eu 0.20965 0.55232 0.62475 0.0
C282 C 0.23632 0.61496 0.59289 0.0
C283 C 0.23724 0.62222 0.68495 0.0
C284 C 0.24863 0.64451 0.70543 0.0
C285 C 0.25939 0.66 0.63442 0.0
C286 C 0.25918 0.65257 0.5431 0.0
C287 C 0.24771 0.63029 0.52261 0.0
C288 C 0.2003 0.53771 0.80314 0.0
C289 C 0.25049 0.54367 0.66117 0.0
C290 C 0.18851 0.46489 0.68813 0.0
Eu291 Eu 0.20055 0.50556 0.65097 0.0
C292 C 0.17172 0.44375 0.72761 0.0
C293 C 0.16313 0.42518 0.67062 0.0
C294 C 0.14916 0.40452 0.70747 0.0
C295 C 0.14343 0.40184 0.8026 0.0
C296 C 0.15163 0.42054 0.85934 0.0
C297 C 0.16569 0.44127 0.82237 0.0
C298 C 0.2117 0.5216 0.47461 0.0
C299 C 0.16048 0.51426 0.61671 0.0
O300 O 0.23169 0.58084 0.54108 0.0
O301 O 0.20492 0.58036 0.61884 0.0
O302 O 0.19689 0.55281 0.77049 0.0
O303 O 0.21106 0.53351 0.74541 0.0
O304 O 0.24395 0.55713 0.63043 0.0
O305 O 0.2365 0.52326 0.68369 0.0
O306 O 0.20015 0.48102 0.74485 0.0
O307 O 0.18418 0.47132 0.60948 0.0
O308 O 0.21837 0.5097 0.51584 0.0
O309 O 0.19917 0.52439 0.52835 0.0
O310 O 0.16688 0.50228 0.66344 0.0
O311 O 0.17477 0.53294 0.57826 0.0
H312 H 0.22871 0.61073 0.74067 0.0
H313 H 0.24874 0.64964 0.77677 0.0
H314 H 0.26712 0.66401 0.4866 0.0
H315 H 0.24716 0.62506 0.45107 0.0
H316 H 0.16764 0.4266 0.59755 0.0
H317 H 0.14292 0.39059 0.66128 0.0
H318 H 0.14773 0.4191 0.93306 0.0
H319 H 0.17219 0.45523 0.86842 0.0
C320 C 0.47919 0.6484 0.55812 0.0
Eu321 Eu 0.51772 0.67551 0.62498 0.0
C322 C 0.45565 0.63753 0.58009 0.0
C323 C 0.44514 0.64897 0.60913 0.0
C324 C 0.42274 0.63771 0.62987 0.0
C325 C 0.41059 0.61486 0.62264 0.0
C326 C 0.42121 0.60364 0.5924 0.0
C327 C 0.44342 0.61483 0.5713 0.0
C328 C 0.52887 0.67993 0.80753 0.0
C329 C 0.52582 0.72436 0.65964 0.0
C330 C 0.60169 0.73825 0.74461 0.0
Eu331 Eu 0.56416 0.71253 0.66652 0.0
C332 C 0.62534 0.74583 0.75018 0.0
C333 C 0.63933 0.75607 0.67416 0.0
C334 C 0.66198 0.76679 0.68618 0.0
C335 C 0.67114 0.76754 0.77438 0.0
C336 C 0.65711 0.75611 0.84885 0.0
C337 C 0.63445 0.74545 0.83689 0.0
C338 C 0.553 0.70621 0.48126 0.0
C339 C 0.55676 0.66424 0.61757 0.0
O340 O 0.48956 0.66927 0.5392 0.0
O341 O 0.49078 0.64248 0.60836 0.0
O342 O 0.51544 0.66161 0.76863 0.0
O343 O 0.53399 0.6954 0.7514 0.0
O344 O 0.51361 0.70541 0.61805 0.0
O345 O 0.54488 0.72942 0.69695 0.0
O346 O 0.58792 0.7189 0.7773 0.0
O347 O 0.59435 0.74357 0.67092 0.0
O348 O 0.56665 0.72515 0.51591 0.0
O349 O 0.54793 0.69219 0.5438 0.0
O350 O 0.56944 0.68303 0.66018 0.0
O351 O 0.53738 0.65958 0.58504 0.0
H352 H 0.45421 0.66651 0.61643 0.0
H353 H 0.41503 0.64681 0.65327 0.0
H354 H 0.41229 0.58611 0.58432 0.0
H355 H 0.45112 0.60568 0.54822 0.0
H356 H 0.63285 0.75663 0.60636 0.0
H357 H 0.67236 0.77517 0.62703 0.0
H358 H 0.6636 0.75648 0.91775 0.0
H359 H 0.62402 0.73784 0.89684 0.0
H360 H 0.09835 0.27394 0.86379 0.0
H361 H 0.05043 0.27243 0.05807 0.0
H362 H 0.06596 0.31208 0.03808 0.0
H363 H 0.14332 0.32605 0.93444 0.0
H364 H 0.15355 0.33395 0.81722 0.0
H365 H 0.13904 0.30559 0.84908 0.0
H366 H 0.11182 0.29771 0.71362 0.0
H367 H 0.12622 0.32605 0.68146 0.0
H368 H 0.09743 0.31273 0.70651 0.0
H369 H 0.08667 0.35213 -0.00461 0.0
H370 H 0.11027 0.38898 0.93098 0.0
H371 H 0.14449 0.36421 0.76417 0.0
C372 C 0.0912 0.28193 0.90283 0.0
C373 C 0.07319 0.27 0.96295 0.0
C374 C 0.06421 0.28115 0.01168 0.0
C375 C 0.07295 0.3037 0.00086 0.0
C376 C 0.09063 0.31494 0.94071 0.0
C377 C 0.09962 0.30441 0.89238 0.0
C378 C 0.11822 0.32013 0.83028 0.0
C379 C 0.13981 0.32151 0.85955 0.0
C380 C 0.11311 0.31377 0.72685 0.0
C381 C 0.1183 0.34116 0.85118 0.0
C382 C 0.10232 0.33786 0.91531 0.0
C383 C 0.09927 0.3549 0.94529 0.0
C384 C 0.11285 0.37582 0.90865 0.0
C385 C 0.12927 0.37961 0.84228 0.0
C386 C 0.13194 0.36191 0.81375 0.0
H387 H 0.79068 0.80598 0.98438 0.0
H388 H 0.8105 0.86859 0.85438 0.0
H389 H 0.7734 0.85476 0.79515 0.0
H390 H 0.75445 0.77302 0.80293 0.0
H391 H 0.73412 0.75327 0.88036 0.0
H392 H 0.76228 0.76794 0.91589 0.0
H393 H 0.75162 0.78129 0.0646 0.0
H394 H 0.7234 0.76653 0.02988 0.0
H395 H 0.73629 0.79529 0.0535 0.0
H396 H 0.73507 0.8344 0.7434 0.0
H397 H 0.69628 0.80904 0.71174 0.0
H398 H 0.6997 0.75929 0.8762 0.0
C399 C 0.78715 0.81682 0.94424 0.0
C400 C 0.80369 0.83841 0.9241 0.0
C401 C 0.7983 0.85201 0.87101 0.0
C402 C 0.7772 0.8443 0.83666 0.0
C403 C 0.76144 0.82295 0.85627 0.0
C404 C 0.76596 0.8094 0.9096 0.0
C405 C 0.74572 0.78713 0.92012 0.0
C406 C 0.74937 0.76929 0.87725 0.0
C407 C 0.73885 0.78228 0.02316 0.0
C408 C 0.7293 0.79035 0.86377 0.0
C409 C 0.73886 0.81114 0.8273 0.0
C410 C 0.72734 0.81807 0.77164 0.0
C411 C 0.70533 0.80345 0.75334 0.0
C412 C 0.69492 0.7821 0.79073 0.0
C413 C 0.70716 0.77551 0.84681 0.0
H414 H 0.26143 1.00307 0.98949 0.0
H415 H 0.20976 0.97659 0.782 0.0
H416 H 0.22412 0.95408 0.71875 0.0
H417 H 0.30398 1.0043 0.84207 0.0
H418 H 0.31569 0.99569 0.93288 0.0
H419 H 0.30199 1.01062 0.96236 0.0
H420 H 0.27637 0.97977 0.07471 0.0
H421 H 0.29008 0.96482 0.04604 0.0
H422 H 0.26097 0.95229 0.0315 0.0
H423 H 0.24365 0.93477 0.67461 0.0
H424 H 0.26583 0.91703 0.66005 0.0
H425 H 0.30454 0.95362 0.89891 0.0
C426 C 0.2532 0.99254 0.93074 0.0
C427 C 0.23441 0.9917 0.89096 0.0
C428 C 0.22405 0.97756 0.81444 0.0
C429 C 0.23217 0.96472 0.77736 0.0
C430 C 0.25063 0.96593 0.81761 0.0
C431 C 0.26096 0.97924 0.89315 0.0
C432 C 0.28009 0.97655 0.92461 0.0
C433 C 0.30172 0.99807 0.91488 0.0
C434 C 0.27667 0.96783 0.02519 0.0
C435 C 0.27876 0.95969 0.85485 0.0
C436 C 0.26171 0.95405 0.79348 0.0
C437 C 0.25695 0.93889 0.72271 0.0
C438 C 0.26961 0.9288 0.71537 0.0
C439 C 0.28679 0.93361 0.779 0.0
C440 C 0.29162 0.94961 0.84884 0.0
H441 H 0.46632 0.1824 0.19036 0.0
H442 H 0.46266 0.14044 0.41923 0.0
H443 H 0.4232 0.11751 0.39371 0.0
H444 H 0.41343 0.17881 0.23444 0.0
H445 H 0.40724 0.17846 0.11216 0.0
H446 H 0.4352 0.19238 0.15081 0.0
H447 H 0.44391 0.16943 0.03624 0.0
H448 H 0.41595 0.15534 -0.00226 0.0
H449 H 0.42826 0.14015 0.04222 0.0
H450 H 0.38459 0.09812 0.34084 0.0
H451 H 0.34852 0.08439 0.26839 0.0
H452 H 0.37635 0.13819 0.07146 0.0
C453 C 0.45714 0.1686 0.23603 0.0
C454 C 0.46767 0.16329 0.30702 0.0
C455 C 0.45507 0.14488 0.36432 0.0
C456 C 0.43259 0.1317 0.35041 0.0
C457 C 0.42279 0.13707 0.27885 0.0
C458 C 0.43455 0.15514 0.22291 0.0
C459 C 0.4199 0.15684 0.1497 0.0
C460 C 0.41888 0.17787 0.16258 0.0
C461 C 0.42746 0.15535 0.05061 0.0
C462 C 0.39818 0.13686 0.17317 0.0
C463 C 0.4003 0.12573 0.24787 0.0
C464 C 0.3827 0.10668 0.28222 0.0
C465 C 0.36227 0.09888 0.23985 0.0
C466 C 0.35949 0.11004 0.16356 0.0
C467 C 0.37782 0.1293 0.12991 0.0
H468 H 0.9264 0.32791 0.29761 0.0
H469 H 0.86225 0.28756 0.1758 0.0
H470 H 0.87326 0.26142 0.12357 0.0
H471 H 0.95694 0.31917 0.1196 0.0
H472 H 0.97605 0.31777 0.19864 0.0
H473 H 0.96337 0.33359 0.22912 0.0
H474 H 0.94905 0.31194 0.38326 0.0
H475 H 0.96188 0.2962 0.35377 0.0
H476 H 0.93311 0.28265 0.37941 0.0
H477 H 0.89107 0.24035 0.07777 0.0
H478 H 0.91386 0.22354 0.05285 0.0
H479 H 0.96652 0.27595 0.20829 0.0
C480 C 0.91461 0.31348 0.26071 0.0
C481 C 0.8934 0.30991 0.24096 0.0
C482 C 0.87855 0.29079 0.19223 0.0
C483 C 0.88467 0.2758 0.16176 0.0
C484 C 0.90569 0.27996 0.18087 0.0
C485 C 0.92041 0.29814 0.23013 0.0
C486 C 0.94192 0.29834 0.2419 0.0
C487 C 0.96068 0.31841 0.19447 0.0
C488 C 0.94677 0.29721 0.34576 0.0
C489 C 0.93693 0.27751 0.19101 0.0
C490 C 0.91594 0.26733 0.15608 0.0
C491 C 0.90745 0.24802 0.10576 0.0
C492 C 0.92053 0.23853 0.09236 0.0
C493 C 0.94191 0.24816 0.12974 0.0
C494 C 0.9503 0.26817 0.17857 0.0
H495 H 0.77912 0.70296 0.20871 0.0
H496 H 0.83087 0.70618 0.0338 0.0
H497 H 0.81671 0.66701 0.05788 0.0
H498 H 0.77849 0.66451 0.37604 0.0
H499 H 0.74927 0.64993 0.39007 0.0
H500 H 0.76315 0.67835 0.35888 0.0
H501 H 0.73861 0.66956 0.21277 0.0
H502 H 0.7246 0.64114 0.24377 0.0
H503 H 0.73706 0.64962 0.13026 0.0
H504 H 0.79802 0.62806 0.10294 0.0
H505 H 0.77457 0.59076 0.1593 0.0
H506 H 0.7339 0.61137 0.30484 0.0
C507 C 0.78744 0.69539 0.17548 0.0
C508 C 0.80606 0.70773 0.11854 0.0
C509 C 0.81639 0.69712 0.07613 0.0
C510 C 0.80857 0.67486 0.09004 0.0
C511 C 0.7903 0.66325 0.14646 0.0
C512 C 0.77972 0.67302 0.18811 0.0
C513 C 0.76022 0.6565 0.2446 0.0
C514 C 0.76295 0.6627 0.34857 0.0
C515 C 0.73886 0.65406 0.20549 0.0
C516 C 0.76162 0.636 0.22836 0.0
C517 C 0.77921 0.64042 0.17186 0.0
C518 C 0.78415 0.62437 0.14701 0.0
C519 C 0.77068 0.60316 0.17979 0.0
C520 C 0.75227 0.59794 0.23674 0.0
C521 C 0.74781 0.61473 0.2616 0.0
H522 H 0.12637 0.47202 0.6063 0.0
H523 H 0.14174 0.5394 0.59406 0.0
H524 H 0.10314 0.52749 0.56151 0.0
H525 H 0.0892 0.45422 0.41575 0.0
H526 H 0.07069 0.42795 0.46503 0.0
H527 H 0.09914 0.44151 0.49595 0.0
H528 H 0.08898 0.43882 0.67112 0.0
H529 H 0.06047 0.42516 0.64082 0.0
H530 H 0.07195 0.44953 0.71071 0.0
H531 H 0.0633 0.50862 0.52611 0.0
H532 H 1.02492 0.48392 0.48262 0.0
H533 H 0.03513 0.42859 0.5102 0.0
C534 C 0.12148 0.4842 0.59839 0.0
C535 C 0.13699 0.50664 0.60359 0.0
C536 C 0.13011 0.52214 0.59057 0.0
C537 C 0.10821 0.51554 0.57229 0.0
C538 C 0.09336 0.49335 0.56623 0.0
C539 C 0.09966 0.47788 0.57836 0.0
C540 C 0.0806 0.45514 0.56223 0.0
C541 C 0.08519 0.44406 0.47983 0.0
C542 C 0.07518 0.44135 0.65156 0.0
C543 C 0.0627 0.4603 0.5387 0.0
C544 C 0.0704 0.48243 0.54253 0.0
C545 C 0.05704 0.49124 0.52326 0.0
C546 C 0.03524 0.47708 0.49902 0.0
C547 C 1.02699 0.45434 0.49327 0.0
C548 C 0.04099 0.44591 0.51359 0.0
H549 H 0.59782 0.66896 0.64989 0.0
H550 H 0.53472 0.62579 0.52478 0.0
H551 H 0.54841 0.60218 0.46803 0.0
H552 H 0.63027 0.66461 0.46873 0.0
H553 H 0.65033 0.66436 0.54562 0.0
H554 H 0.63571 0.67802 0.58051 0.0
H555 H 0.62284 0.65484 0.73142 0.0
H556 H 0.63755 0.64121 0.69737 0.0
H557 H 0.60882 0.62558 0.72304 0.0
H558 H 0.56869 0.58403 0.41692 0.0
H559 H 0.59414 0.5706 0.38423 0.0
H560 H 0.64443 0.62409 0.544 0.0
C561 C 0.58683 0.65441 0.61152 0.0
C562 C 0.56515 0.64937 0.59187 0.0
C563 C 0.55138 0.63017 0.54096 0.0
C564 C 0.559 0.61658 0.50806 0.0
C565 C 0.58044 0.62216 0.52698 0.0
C566 C 0.59416 0.64042 0.57835 0.0
C567 C 0.61654 0.64244 0.58808 0.0
C568 C 0.63426 0.66362 0.54304 0.0
C569 C 0.62174 0.64092 0.69111 0.0
C570 C 0.61318 0.62259 0.53338 0.0
C571 C 0.59222 0.61127 0.49852 0.0
C572 C 0.58515 0.59269 0.44404 0.0
C573 C 0.5998 0.58529 0.42516 0.0
C574 C 0.62134 0.59635 0.46084 0.0
C575 C 0.62806 0.61526 0.51597 0.0
H576 H 0.44911 0.03928 0.55687 0.0
H577 H 0.49827 0.0399 0.37274 0.0
H578 H 0.48253 1.00047 0.39553 0.0
H579 H 0.44771 1.00003 0.72044 0.0
H580 H 0.41864 0.98652 0.73873 0.0
H581 H 0.43329 1.0149 0.70715 0.0
H582 H 0.40781 1.00702 0.56494 0.0
H583 H 0.39302 0.97863 0.5964 0.0
H584 H 0.40468 0.98664 0.48132 0.0
H585 H 0.46291 0.96178 0.44105 0.0
H586 H 0.43901 0.9249 0.49972 0.0
H587 H 0.40128 0.94775 0.65436 0.0
C588 C 0.4565 0.03107 0.52126 0.0
C589 C 0.47486 0.04273 0.46225 0.0
C590 C 0.484 0.03134 0.41674 0.0
C591 C 0.47527 1.00894 0.42984 0.0
C592 C 0.45731 0.998 0.48848 0.0
C593 C 0.44784 1.00854 0.53302 0.0
C594 C 0.42848 0.99263 0.59185 0.0
C595 C 0.43226 0.9989 0.69571 0.0
C596 C 0.40724 0.99114 0.55649 0.0
C597 C 0.42873 0.97159 0.57379 0.0
C598 C 0.44561 0.97525 0.51418 0.0
C599 C 0.44957 0.95867 0.48745 0.0
C600 C 0.43584 0.9377 0.52165 0.0
C601 C 0.41813 0.93324 0.58192 0.0
C602 C 0.41462 0.95054 0.60848 0.0
H603 H 0.15798 0.06352 0.89746 0.0
H604 H 0.21131 0.10122 0.08902 0.0
H605 H 0.1991 0.12811 0.10396 0.0
H606 H 0.16049 0.10906 0.77795 0.0
H607 H 0.1314 0.09699 0.76436 0.0
H608 H 0.14353 0.07989 0.77169 0.0
H609 H 0.11821 0.05908 0.91064 0.0
H610 H 0.106 0.07614 0.90381 0.0
H611 H 0.11783 0.074 0.01196 0.0
H612 H 0.18213 0.15153 0.09598 0.0
H613 H 0.16175 0.17062 0.06277 0.0
H614 H 0.11939 0.1187 0.87419 0.0
C615 C 0.16699 0.07734 0.9431 0.0
C616 C 0.18565 0.08017 -0.00788 0.0
C617 C 0.19704 0.09862 0.05047 0.0
C618 C 0.19018 0.11401 0.05974 0.0
C619 C 0.17188 0.11084 0.0102 0.0
C620 C 0.16041 0.09301 0.95291 0.0
C621 C 0.1417 0.09401 0.90522 0.0
C622 C 0.14446 0.09506 0.79848 0.0
C623 C 0.11963 0.07466 0.93469 0.0
C624 C 0.14465 0.1153 0.944 0.0
C625 C 0.16211 0.1246 0.00485 0.0
C626 C 0.16844 0.14443 0.04837 0.0
C627 C 0.15682 0.15523 0.02853 0.0
C628 C 0.13906 0.14632 0.96521 0.0
C629 C 0.13277 0.12589 0.92339 0.0
H630 H 0.92873 0.02788 0.95568 0.0
H631 H 0.98024 1.01176 0.98594 0.0
H632 H 1.00713 0.05066 0.00401 0.0
H633 H 0.95923 0.07668 0.82563 0.0
H634 H 0.94754 0.09125 0.88219 0.0
H635 H 0.93206 0.06204 0.87345 0.0
H636 H 0.92681 0.0591 0.0529 0.0
H637 H 0.94225 0.08833 0.0622 0.0
H638 H 0.95038 0.07182 0.1279 0.0
H639 H 1.02875 0.0912 0.01167 0.0
H640 H 0.04368 0.1309 0.01342 0.0
H641 H 0.97833 0.12134 0.98605 0.0
C642 C 0.9456 0.03246 0.96747 0.0
C643 C 0.9523 1.0166 0.96861 0.0
C644 C 0.97466 0.02348 0.98286 0.0
C645 C 0.99008 0.04558 -0.006 0.0
C646 C 0.98295 0.06071 -0.00837 0.0
C647 C 0.96124 0.0545 0.97937 0.0
C648 C 0.95803 0.07419 0.97844 0.0
C649 C 0.94866 0.07615 0.88432 0.0
C650 C 0.94351 0.0733 0.06024 0.0
C651 C 0.98137 0.09244 -0.00881 0.0
C652 C 0.99544 0.08423 -0.00158 0.0
C653 C 1.01788 0.09781 0.00676 0.0
C654 C 1.02622 0.12036 0.00721 0.0
C655 C 1.0122 0.12924 -1e-05 0.0
C656 C 0.98943 0.11502 -0.00711 0.0
H657 H 0.95094 0.91495 0.92596 0.0
H658 H 0.93833 0.85976 0.10086 0.0
H659 H 0.97794 0.87367 0.1131 0.0
H660 H 0.99538 0.91677 0.79838 0.0
H661 H 1.01066 0.94606 0.79175 0.0
H662 H 0.98135 0.9322 0.79946 0.0
H663 H 0.98399 0.95492 0.94553 0.0
H664 H 1.01333 0.96882 0.93857 0.0
H665 H 0.99976 0.95499 0.04463 0.0
H666 H 1.01887 0.89324 0.10469 0.0
H667 H 0.05815 0.91641 0.07264 0.0
H668 H 0.04438 0.95862 0.90048 0.0
C669 C 0.95647 0.90581 0.96732 0.0
C670 C 0.94142 0.88623 0.0127 0.0
C671 C 0.94945 0.87476 0.06541 0.0
C672 C 0.97195 0.88257 0.07299 0.0
C673 C 0.98629 0.90188 0.02735 0.0
C674 C 0.97889 0.91332 0.9753 0.0
C675 C 0.99774 0.93331 0.93096 0.0
C676 C 0.99618 0.93199 0.82379 0.0
C677 C 0.99876 0.95425 0.96711 0.0
C678 C 1.01691 0.93128 0.96594 0.0
C679 C 1.00992 0.91306 0.02173 0.0
C680 C 1.02452 0.90751 0.06098 0.0
C681 C 0.04683 0.92073 0.04189 0.0
C682 C 0.05445 0.93932 0.9836 0.0
C683 C 0.03918 0.9447 0.94612 0.0
H684 H 0.78156 0.4381 0.20472 0.0
H685 H 0.82538 0.49373 0.3734 0.0
H686 H 0.8497 0.47828 0.39248 0.0
H687 H 0.788 0.39794 0.33532 0.0
H688 H 0.78688 0.38255 0.23321 0.0
H689 H 0.77277 0.39785 0.23423 0.0
H690 H 0.79348 0.41825 0.08453 0.0
H691 H 0.80773 0.40307 0.08331 0.0
H692 H 0.82288 0.4324 0.0835 0.0
H693 H 0.86978 0.45706 0.39037 0.0
H694 H 0.88316 0.43098 0.3727 0.0
H695 H 0.82633 0.38933 0.20461 0.0
C696 C 0.79629 0.44706 0.24552 0.0
C697 C 0.80149 0.46713 0.28781 0.0
C698 C 0.82084 0.47819 0.34147 0.0
C699 C 0.83487 0.46962 0.35215 0.0
C700 C 0.82934 0.44991 0.30898 0.0
C701 C 0.81045 0.4387 0.25719 0.0
C702 C 0.80822 0.41777 0.21847 0.0
C703 C 0.78775 0.39785 0.25767 0.0
C704 C 0.80807 0.41789 0.11108 0.0
C705 C 0.82887 0.41903 0.256 0.0
C706 C 0.84085 0.43771 0.30794 0.0
C707 C 0.86052 0.44238 0.34986 0.0
C708 C 0.86802 0.42747 0.3392 0.0
C709 C 0.85588 0.40808 0.28707 0.0
C710 C 0.83611 0.404 0.24463 0.0
H711 H 0.67941 0.4498 0.23091 0.0
H712 H 0.64075 0.46499 0.42015 0.0
H713 H 0.61436 0.42594 0.43663 0.0
H714 H 0.63396 0.40575 0.11327 0.0
H715 H 0.64678 0.38933 0.10129 0.0
H716 H 0.66324 0.41854 0.10613 0.0
H717 H 0.68478 0.41529 0.2455 0.0
H718 H 0.66833 0.38606 0.24131 0.0
H719 H 0.67025 0.40036 0.34814 0.0
H720 H 0.59181 0.38556 0.43228 0.0
H721 H 0.57369 0.34612 0.4031 0.0
H722 H 0.62602 0.35607 0.2146 0.0
C723 C 0.66545 0.44491 0.27613 0.0
C724 C 0.66226 0.46061 0.32432 0.0
C725 C 0.64364 0.45343 0.38225 0.0
C726 C 0.62853 0.43121 0.39238 0.0
C727 C 0.63213 0.41622 0.34407 0.0
C728 C 0.65005 0.42269 0.2868 0.0
C729 C 0.64959 0.40308 0.24095 0.0
C730 C 0.64831 0.40425 0.13407 0.0
C731 C 0.66942 0.40108 0.27078 0.0
C732 C 0.62857 0.38466 0.28117 0.0
C733 C 0.61887 0.3927 0.34079 0.0
C734 C 0.59921 0.37908 0.38555 0.0
C735 C 0.58898 0.35667 0.36808 0.0
C736 C 0.59827 0.34791 0.30596 0.0
C737 C 0.61854 0.36218 0.26296 0.0
H738 H 0.61696 0.24814 0.24394 0.0
H739 H 0.60555 0.20171 0.46554 0.0
H740 H 0.64492 0.21571 0.4783 0.0
H741 H 0.6598 0.24381 0.13325 0.0
H742 H 0.67585 0.27223 0.10336 0.0
H743 H 0.6467 0.2598 0.1149 0.0
H744 H 0.65165 0.28884 0.23724 0.0
H745 H 0.68085 0.30138 0.22599 0.0
H746 H 0.66819 0.29277 0.33907 0.0
H747 H 0.68485 0.2329 0.46392 0.0
H748 H 0.72376 0.25247 0.42132 0.0
H749 H 0.71073 0.28806 0.20782 0.0
C750 C 0.62281 0.24115 0.29589 0.0
C751 C 0.60806 0.22379 0.35372 0.0
C752 C 0.61639 0.21492 0.42005 0.0
C753 C 0.6388 0.22282 0.42824 0.0
C754 C 0.65286 0.23966 0.36969 0.0
C755 C 0.64532 0.2488 0.30477 0.0
C756 C 0.66414 0.26614 0.24792 0.0
C757 C 0.66146 0.26013 0.14368 0.0
C758 C 0.66633 0.28861 0.26351 0.0
C759 C 0.68327 0.26499 0.29035 0.0
C760 C 0.67628 0.24966 0.36089 0.0
C761 C 0.69058 0.24501 0.40904 0.0
C762 C 0.71264 0.25613 0.38395 0.0
C763 C 0.7203 0.27172 0.31102 0.0
C764 C 0.7054 0.27639 0.26448 0.0
H765 H 0.48933 0.72231 0.57835 0.0
H766 H 0.54362 0.76176 0.76287 0.0
H767 H 0.53023 0.7877 0.7808 0.0
H768 H 0.4891 0.76705 0.46089 0.0
H769 H 0.45983 0.75376 0.45136 0.0
H770 H 0.47323 0.73779 0.45493 0.0
H771 H 0.44935 0.71621 0.59628 0.0
H772 H 0.43592 0.73219 0.59336 0.0
H773 H 0.44896 0.73071 0.69907 0.0
H774 H 0.51141 0.80959 0.7786 0.0
H775 H 0.48906 0.82689 0.75152 0.0
H776 H 0.44714 0.77409 0.56563 0.0
C777 C 0.49837 0.73636 0.6228 0.0
C778 C 0.51756 0.73992 0.6693 0.0
C779 C 0.52893 0.75862 0.72631 0.0
C780 C 0.52141 0.77346 0.73725 0.0
C781 C 0.5025 0.76948 0.69061 0.0
C782 C 0.49114 0.75146 0.63418 0.0
C783 C 0.47158 0.75143 0.59003 0.0
C784 C 0.47356 0.75258 0.48295 0.0
C785 C 0.45019 0.73145 0.62159 0.0
C786 C 0.4738 0.77228 0.63025 0.0
C787 C 0.49171 0.78233 0.68844 0.0
C788 C 0.49738 0.80191 0.73296 0.0
C789 C 0.48463 0.81167 0.7167 0.0
C790 C 0.4664 0.80198 0.65593 0.0
C791 C 0.46082 0.78183 0.61313 0.0
H792 H 0.29857 0.6935 0.56869 0.0
H793 H 0.24316 0.68039 0.74373 0.0
H794 H 0.25901 0.71974 0.77229 0.0
H795 H 0.33937 0.73841 0.70608 0.0
H796 H 0.35465 0.75371 0.60547 0.0
H797 H 0.33926 0.72443 0.60075 0.0
H798 H 0.31858 0.72646 0.45521 0.0
H799 H 0.33387 0.75574 0.45964 0.0
H800 H 0.30448 0.74178 0.46116 0.0
H801 H 0.28016 0.76063 0.77755 0.0
H802 H 0.30577 0.80006 0.76353 0.0
H803 H 0.34759 0.78681 0.58536 0.0
C804 C 0.28977 0.6989 0.61306 0.0
C805 C 0.26963 0.68376 0.65436 0.0
C806 C 0.25876 0.69156 0.71253 0.0
C807 C 0.26756 0.71392 0.72869 0.0
C808 C 0.28733 0.72837 0.68653 0.0
C809 C 0.29839 0.7212 0.63034 0.0
C810 C 0.31934 0.74019 0.59321 0.0
C811 C 0.33934 0.73911 0.62851 0.0
C812 C 0.31904 0.74109 0.48594 0.0
C813 C 0.31821 0.75915 0.63652 0.0
C814 C 0.29961 0.75197 0.69007 0.0
C815 C 0.29483 0.76644 0.7361 0.0
C816 C 0.30949 0.78884 0.72754 0.0
C817 C 0.32876 0.79663 0.67348 0.0
C818 C 0.33307 0.78146 0.62745 0.0
H819 H 0.37817 0.62416 0.57546 0.0
H820 H 0.38957 0.57733 0.72432 0.0
H821 H 0.35014 0.55485 0.75488 0.0
H822 H 0.3338 0.61921 0.72704 0.0
H823 H 0.31872 0.6218 0.63118 0.0
H824 H 0.34803 0.63494 0.62548 0.0
H825 H 0.34524 0.61517 0.46957 0.0
H826 H 0.31594 0.60189 0.47506 0.0
H827 H 0.32925 0.5859 0.46478 0.0
H828 H 0.30945 0.53626 0.76132 0.0
H829 H 0.27009 0.52332 0.74733 0.0
H830 H 0.2847 0.58233 0.59687 0.0
C831 C 0.37239 0.60938 0.61594 0.0
C832 C 0.38698 0.60246 0.64711 0.0
C833 C 0.37871 0.58283 0.69866 0.0
C834 C 0.35634 0.56999 0.71684 0.0
C835 C 0.34236 0.57701 0.68353 0.0
C836 C 0.35003 0.5963 0.63474 0.0
C837 C 0.33135 0.59966 0.60412 0.0
C838 C 0.33308 0.62012 0.6497 0.0
C839 C 0.33039 0.60071 0.49703 0.0
C840 C 0.31203 0.57911 0.64227 0.0
C841 C 0.31878 0.56632 0.68802 0.0
C842 C 0.30395 0.54622 0.72636 0.0
C843 C 0.2816 0.53898 0.71777 0.0
C844 C 0.27422 0.55179 0.6713 0.0
C845 C 0.28975 0.57219 0.63356 0.0
H846 H 1.00686 0.1738 0.66682 0.0
H847 H 0.06637 0.23149 0.7544 0.0
H848 H 0.07771 0.24033 0.59157 0.0
H849 H 0.03182 0.15939 0.48335 0.0
H850 H 1.0093 0.15009 0.40304 0.0
H851 H 1.00442 0.14864 0.52699 0.0
H852 H 0.98487 0.17111 0.50691 0.0
H853 H 0.98977 0.17268 0.38281 0.0
H854 H 0.9989 0.19724 0.44981 0.0
H855 H 0.08393 0.24291 0.42475 0.0
H856 H 0.08585 0.23805 0.25623 0.0
H857 H 1.02315 0.17848 0.26612 0.0
C858 C 1.02215 0.18835 0.65115 0.0
C859 C 0.03568 0.20199 0.72359 0.0
C860 C 0.05571 0.22074 0.70064 0.0
C861 C 0.0623 0.22603 0.60802 0.0
C862 C 0.04878 0.21235 0.5384 0.0
C863 C 1.0292 0.19382 0.55794 0.0
C864 C 1.01865 0.18149 0.4683 0.0
C865 C 1.01589 0.15854 0.47059 0.0
C866 C 0.99675 0.18058 0.45096 0.0
C867 C 0.03562 0.19587 0.39643 0.0
C868 C 0.05266 0.21367 0.43928 0.0
C869 C 0.07069 0.2291 0.39002 0.0
C870 C 0.07164 0.22614 0.29426 0.0
C871 C 0.05471 0.20788 0.24826 0.0
C872 C 0.03624 0.19266 0.29965 0.0
H873 H 0.88443 0.83639 0.66301 0.0
H874 H 0.86497 0.88205 0.76468 0.0
H875 H 0.86261 0.89255 0.60477 0.0
H876 H 0.91706 0.87039 0.46309 0.0
H877 H 0.90857 0.84759 0.38526 0.0
H878 H 0.91018 0.84404 0.50911 0.0
H879 H 0.86987 0.81316 0.50921 0.0
H880 H 0.86807 0.81675 0.38558 0.0
H881 H 0.84912 0.81849 0.46455 0.0
H882 H 0.85909 0.89637 0.4399 0.0
H883 H 0.85773 0.89601 0.26927 0.0
H884 H 0.88061 0.84926 0.26209 0.0
C885 C 0.88004 0.84882 0.6511 0.0
C886 C 0.87494 0.85844 0.72662 0.0
C887 C 0.86901 0.87448 0.70845 0.0
C888 C 0.86757 0.88057 0.61758 0.0
C889 C 0.87217 0.87057 0.54478 0.0
C890 C 0.87851 0.85523 0.55946 0.0
C891 C 0.882 0.84697 0.46638 0.0
C892 C 0.90587 0.85259 0.45533 0.0
C893 C 0.86633 0.82238 0.45585 0.0
C894 C 0.87631 0.85993 0.39833 0.0
C895 C 0.87061 0.87329 0.44619 0.0
C896 C 0.86379 0.88623 0.40116 0.0
C897 C 0.863 0.88582 0.304 0.0
C898 C 0.86924 0.87276 0.2523 0.0
C899 C 0.87595 0.85954 0.30004 0.0
H900 H 0.23573 0.07255 0.64118 0.0
H901 H 0.18568 1.00975 0.74529 0.0
H902 H 0.17458 0.99697 0.58536 0.0
H903 H 0.20372 0.07411 0.43708 0.0
H904 H 0.22711 0.08646 0.36082 0.0
H905 H 0.23045 0.09186 0.4845 0.0
H906 H 0.25883 0.07888 0.49002 0.0
H907 H 0.25541 0.07322 0.36664 0.0
H908 H 0.25138 0.05208 0.44789 0.0
H909 H 0.17101 0.98911 0.41999 0.0
H910 H 0.17238 0.98745 0.24953 0.0
H911 H 0.22335 0.05534 0.24128 0.0
C912 C 0.22215 0.05633 0.62979 0.0
C913 C 0.21151 0.04214 0.70579 0.0
C914 C 0.19404 0.0209 0.68841 0.0
C915 C 0.1876 1.01344 0.59764 0.0
C916 C 0.19869 0.02742 0.52426 0.0
C917 C 0.21539 0.0485 0.53837 0.0
C918 C 0.22478 0.05959 0.4451 0.0
C919 C 0.2213 0.07917 0.43106 0.0
C920 C 0.24904 0.06634 0.43698 0.0
C921 C 0.21094 0.04127 0.37751 0.0
C922 C 0.19613 0.02291 0.42569 0.0
C923 C 0.18227 1.00344 0.38102 0.0
C924 C 0.18327 1.00266 0.28398 0.0
C925 C 0.19785 0.0213 0.23195 0.0
C926 C 0.21192 0.04091 0.27936 0.0
H927 H 0.74562 0.54335 0.62917 0.0
H928 H 0.67876 0.51291 0.52951 0.0
H929 H 0.66551 0.50833 0.6899 0.0
H930 H 0.73454 0.50979 0.83513 0.0
H931 H 0.75322 0.53152 0.91012 0.0
H932 H 0.75835 0.53283 0.78632 0.0
H933 H 0.76008 0.57018 0.77777 0.0
H934 H 0.75509 0.56905 0.90165 0.0
H935 H 0.73753 0.57274 0.82156 0.0
H936 H 0.65859 0.50541 0.85614 0.0
H937 H 0.65841 0.50725 0.02706 0.0
H938 H 0.72924 0.54069 0.02959 0.0
C939 C 0.72825 0.53584 0.6416 0.0
C940 C 0.71324 0.52836 0.56646 0.0
C941 C 0.69062 0.51867 0.58539 0.0
C942 C 0.68285 0.51594 0.67657 0.0
C943 C 0.69785 0.5231 0.74894 0.0
C944 C 0.72007 0.53309 0.73345 0.0
C945 C 0.73232 0.53954 0.82591 0.0
C946 C 0.74538 0.52771 0.84018 0.0
C947 C 0.74713 0.56436 0.83206 0.0
C948 C 0.71342 0.53148 0.89464 0.0
C949 C 0.69376 0.52193 0.84777 0.0
C950 C 0.67386 0.51298 0.89401 0.0
C951 C 0.67394 0.51409 -0.00878 0.0
C952 C 0.69378 0.52424 0.04152 0.0
C953 C 0.71384 0.53288 -0.0073 0.0
H954 H 0.55809 0.19425 0.60955 0.0
H955 H 0.50418 0.20723 0.60012 0.0
H956 H 0.49832 0.20023 0.76844 0.0
H957 H 0.5342 0.15102 0.79091 0.0
H958 H 0.55996 0.15972 0.84801 0.0
H959 H 0.55914 0.1639 0.7242 0.0
H960 H 0.58605 0.20506 0.74588 0.0
H961 H 0.58689 0.20105 0.8697 0.0
H962 H 0.57943 0.2204 0.82689 0.0
H963 H 0.4995 0.19494 0.93493 0.0
H964 H 0.50696 0.19053 0.09745 0.0
H965 H 0.56015 0.18039 0.01002 0.0
C966 C 0.54489 0.19526 0.64314 0.0
C967 C 0.53156 0.2013 0.59197 0.0
C968 C 0.51461 0.20273 0.63804 0.0
C969 C 0.51109 0.19871 0.73363 0.0
C970 C 0.52467 0.19326 0.78266 0.0
C971 C 0.54119 0.1914 0.73976 0.0
C972 C 0.55392 0.18628 0.81157 0.0
C973 C 0.55167 0.1639 0.79253 0.0
C974 C 0.578 0.20427 0.8136 0.0
C975 C 0.54219 0.18607 0.9012 0.0
C976 C 0.52532 0.19003 0.88169 0.0
C977 C 0.51252 0.19163 0.95131 0.0
C978 C 0.51702 0.1892 0.04385 0.0
C979 C 0.53414 0.18509 0.06691 0.0
C980 C 0.54684 0.18333 -0.00561 0.0
H981 H 0.8901 0.38707 0.56469 0.0
H982 H 0.83366 0.32223 0.55545 0.0
H983 H 0.83361 0.32022 0.72742 0.0
H984 H 0.91697 0.37816 0.76206 0.0
H985 H 0.92619 0.40464 0.81243 0.0
H986 H 0.92234 0.4009 0.68805 0.0
H987 H 0.89622 0.41667 0.69281 0.0
H988 H 0.89983 0.42029 0.81736 0.0
H989 H 0.87282 0.40456 0.76916 0.0
H990 H 0.83984 0.32437 0.89545 0.0
H991 H 0.85165 0.33464 0.05739 0.0
H992 H 0.90273 0.39814 0.96539 0.0
C993 C 0.87796 0.37244 0.5995 0.0
C994 C 0.86199 0.35467 0.54802 0.0
C995 C 0.84604 0.33589 0.59461 0.0
C996 C 0.84586 0.33463 0.69188 0.0
C997 C 0.86161 0.35244 0.7412 0.0
C998 C 0.87735 0.37105 0.6973 0.0
C999 C 0.892 0.38792 0.76838 0.0
C1000 C 0.91578 0.39321 0.75705 0.0
C1001 C 0.89009 0.40858 0.76149 0.0
C1002 C 0.8821 0.37571 0.85872 0.0
C1003 C 0.86463 0.35527 0.84053 0.0
C1004 C 0.85327 0.34043 0.91097 0.0
C1005 C 0.86001 0.34649 0.00286 0.0
C1006 C 0.87772 0.36734 0.02402 0.0
C1007 C 0.88885 0.38226 0.95108 0.0
H1008 H 0.39492 0.87502 0.38015 0.0
H1009 H 0.32428 0.84489 0.37553 0.0
H1010 H 0.3247 0.8441 0.2045 0.0
H1011 H 0.40545 0.90865 0.17611 0.0
H1012 H 0.42718 0.9048 0.13178 0.0
H1013 H 0.42192 0.90316 0.25554 0.0
H1014 H 0.41757 0.86464 0.26013 0.0
H1015 H 0.42298 0.86623 0.13652 0.0
H1016 H 0.3983 0.84384 0.1831 0.0
H1017 H 0.33189 0.84775 0.03862 0.0
H1018 H 0.34524 0.85207 0.87843 0.0
H1019 H 0.41161 0.87842 0.97982 0.0
C1020 C 0.3796 0.86817 0.34274 0.0
C1021 C 0.35955 0.86018 0.39104 0.0
C1022 C 0.33982 0.85123 0.34011 0.0
C1023 C 0.33987 0.85073 0.24283 0.0
C1024 C 0.35978 0.85904 0.19714 0.0
C1025 C 0.37931 0.86733 0.24456 0.0
C1026 C 0.39822 0.87474 0.17621 0.0
C1027 C 0.41413 0.8993 0.18549 0.0
C1028 C 0.40996 0.86157 0.18981 0.0
C1029 C 0.38612 0.86937 0.08348 0.0
C1030 C 0.36399 0.86052 0.09841 0.0
C1031 C 0.34915 0.85446 0.02569 0.0
C1032 C 0.35698 0.85703 0.93468 0.0
C1033 C 0.37947 0.86543 0.91635 0.0
C1034 C 0.39434 0.87193 -0.00817 0.0
H1035 H 0.20342 0.5615 0.96059 0.0
H1036 H 0.19098 0.49834 0.86606 0.0
H1037 H 0.19204 0.48735 0.02804 0.0
H1038 H 0.24052 0.56842 0.13851 0.0
H1039 H 0.231 0.58086 0.22207 0.0
H1040 H 0.2277 0.58354 0.09895 0.0
H1041 H 0.1861 0.56729 0.12181 0.0
H1042 H 0.18931 0.56484 0.24531 0.0
H1043 H 0.17054 0.5413 0.17889 0.0
H1044 H 0.19877 0.48478 0.19378 0.0
H1045 H 0.20576 0.48843 0.36281 0.0
H1046 H 0.21118 0.55223 0.35816 0.0
C1047 C 0.20046 0.54523 0.9747 0.0
C1048 C 0.19762 0.53076 0.90114 0.0
C1049 C 0.19393 0.50972 0.92146 0.0
C1050 C 0.19428 0.50332 0.01325 0.0
C1051 C 0.19807 0.51818 0.08413 0.0
C1052 C 0.20065 0.53854 0.06677 0.0
C1053 C 0.20499 0.5514 0.15672 0.0
C1054 C 0.22738 0.57229 0.15384 0.0
C1055 C 0.18663 0.5565 0.17686 0.0
C1056 C 0.20482 0.53517 0.22647 0.0
C1057 C 0.20096 0.51623 0.18234 0.0
C1058 C 0.20144 0.49934 0.22971 0.0
C1059 C 0.20562 0.50166 0.32543 0.0
C1060 C 0.20896 0.5206 0.37289 0.0
C1061 C 0.2085 0.53756 0.32305 0.0
H1062 H 0.55838 0.7317 0.32363 0.0
H1063 H 0.54266 0.6668 0.41223 0.0
H1064 H 0.53801 0.6549 0.25034 0.0
H1065 H 0.51901 0.71389 0.14006 0.0
H1066 H 0.53572 0.73523 0.05898 0.0
H1067 H 0.53986 0.73995 0.18277 0.0
H1068 H 0.5805 0.75095 0.1627 0.0
H1069 H 0.57643 0.7462 0.03875 0.0
H1070 H 0.58743 0.73242 0.10637 0.0
H1071 H 0.53281 0.64853 0.0845 0.0
H1072 H 0.52608 0.64776 0.91601 0.0
H1073 H 0.54465 0.71613 0.92328 0.0
C1074 C 0.55419 0.7151 0.30836 0.0
C1075 C 0.55089 0.70023 0.38122 0.0
C1076 C 0.54516 0.67854 0.3586 0.0
C1077 C 0.5426 0.67157 0.26629 0.0
C1078 C 0.54573 0.68639 0.19634 0.0
C1079 C 0.55132 0.70768 0.21526 0.0
C1080 C 0.55233 0.71958 0.12513 0.0
C1081 C 0.53574 0.72763 0.12687 0.0
C1082 C 0.57556 0.73841 0.10721 0.0
C1083 C 0.54598 0.70143 0.05398 0.0
C1084 C 0.54252 0.68256 0.09747 0.0
C1085 C 0.53562 0.66321 0.04913 0.0
C1086 C 0.53178 0.66292 0.95352 0.0
C1087 C 0.53486 0.68184 0.90695 0.0
C1088 C 0.54241 0.7015 0.95737 0.0
loop_
_geom_bond_atom_site_label_1
_geom_bond_atom_site_label_2
_geom_bond_distance
_geom_bond_site_symmetry_2
_ccdc_geom_bond_type
C0 Eu1 2.835 1_556 S
C0 C2 1.500 . S
C0 O20 1.257 . S
C0 O21 1.260 1_556 S
Eu1 C0 2.835 1_554 S
Eu1 O20 2.473 1_554 S
Eu1 O21 2.480 . S
Eu1 O22 2.430 . S
Eu1 O23 2.670 . S
Eu1 O24 2.394 . S
Eu1 O29 2.355 1_554 S
Eu1 O31 2.374 1_554 S
C2 C0 1.500 . S
C2 C3 1.377 1_556 S
C2 C7 1.377 . S
C3 C2 1.377 1_554 S
C3 C4 1.395 . S
C3 H32 0.931 . S
C4 C3 1.395 . S
C4 C5 1.383 1_554 S
C4 H33 0.931 . S
C5 C4 1.383 1_556 S
C5 C6 1.394 . S
C6 C5 1.394 . S
C6 C7 1.378 . S
C6 H34 0.931 . S
C7 C2 1.377 . S
C7 C6 1.378 . S
C7 H35 0.931 . S
C8 O22 1.259 . S
C8 O23 1.270 . S
C9 O24 1.251 1_655 S
C9 O25 1.251 . S
C10 Eu11 2.835 1_554 S
C10 C12 1.500 . S
C10 O26 1.257 . S
C10 O27 1.260 1_554 S
Eu11 C10 2.835 1_556 S
Eu11 O23 2.355 1_656 S
Eu11 O25 2.374 1_556 S
Eu11 O26 2.473 1_556 S
Eu11 O27 2.480 . S
Eu11 O28 2.430 . S
Eu11 O29 2.670 1_655 S
Eu11 O30 2.394 1_655 S
C12 C10 1.500 . S
C12 C13 1.377 1_554 S
C12 C17 1.377 . S
C13 C12 1.377 1_556 S
C13 C14 1.395 . S
C13 H36 0.931 . S
C14 C13 1.395 . S
C14 C15 1.383 1_556 S
C14 H37 0.931 . S
C15 C14 1.383 1_554 S
C15 C16 1.394 . S
C16 C15 1.394 . S
C16 C17 1.378 . S
C16 H38 0.931 . S
C17 C12 1.377 . S
C17 C16 1.378 . S
C17 H39 0.931 . S
C18 O28 1.259 1_455 S
C18 O29 1.270 . S
C19 O30 1.251 . S
C19 O31 1.251 . S
O20 C0 1.257 . S
O20 Eu1 2.473 1_556 S
O21 C0 1.260 1_554 S
O21 Eu1 2.480 . S
O22 Eu1 2.430 . S
O22 C8 1.259 . S
O23 Eu1 2.670 . S
O23 C8 1.270 . S
O23 Eu11 2.355 1_454 S
O24 Eu1 2.394 . S
O24 C9 1.251 1_455 S
O25 C9 1.251 . S
O25 Eu11 2.374 1_554 S
O26 C10 1.257 . S
O26 Eu11 2.473 1_554 S
O27 C10 1.260 1_556 S
O27 Eu11 2.480 . S
O28 Eu11 2.430 . S
O28 C18 1.259 1_655 S
O29 Eu1 2.355 1_556 S
O29 Eu11 2.670 1_455 S
O29 C18 1.270 . S
O30 Eu11 2.394 1_455 S
O30 C19 1.251 . S
O31 Eu1 2.374 1_556 S
O31 C19 1.251 . S
H32 C3 0.931 . S
H33 C4 0.931 . S
H34 C6 0.931 . S
H35 C7 0.931 . S
H36 C13 0.931 . S
H37 C14 0.931 . S
H38 C16 0.931 . S
H39 C17 0.931 . S
C40 Eu41 2.835 1_556 S
C40 C42 1.500 . S
C40 O60 1.257 . S
C40 O61 1.260 1_556 S
Eu41 C40 2.835 1_554 S
Eu41 O60 2.473 1_554 S
Eu41 O61 2.480 . S
Eu41 O62 2.430 . S
Eu41 O63 2.670 . S
Eu41 O64 2.394 . S
Eu41 O69 2.355 1_554 S
Eu41 O71 2.374 1_554 S
C42 C40 1.500 . S
C42 C43 1.377 1_556 S
C42 C47 1.377 . S
C43 C42 1.377 1_554 S
C43 C44 1.395 . S
C43 H72 0.931 . S
C44 C43 1.395 . S
C44 C45 1.383 1_554 S
C44 H73 0.931 . S
C45 C44 1.383 1_556 S
C45 C46 1.394 . S
C46 C45 1.394 . S
C46 C47 1.378 . S
C46 H74 0.931 . S
C47 C42 1.377 . S
C47 C46 1.378 . S
C47 H75 0.931 . S
C48 O62 1.259 . S
C48 O63 1.270 . S
C49 O64 1.251 . S
C49 O65 1.251 . S
C50 Eu51 2.835 1_554 S
C50 C52 1.500 . S
C50 O66 1.257 . S
C50 O67 1.260 1_554 S
Eu51 C50 2.835 1_556 S
Eu51 O63 2.355 1_556 S
Eu51 O65 2.374 1_556 S
Eu51 O66 2.473 1_556 S
Eu51 O67 2.480 . S
Eu51 O68 2.430 . S
Eu51 O69 2.670 . S
Eu51 O70 2.394 . S
C52 C50 1.500 . S
C52 C53 1.377 1_554 S
C52 C57 1.377 . S
C53 C52 1.377 1_556 S
C53 C54 1.395 . S
C53 H76 0.931 . S
C54 C53 1.395 . S
C54 C55 1.383 1_556 S
C54 H77 0.931 . S
C55 C54 1.383 1_554 S
C55 C56 1.394 . S
C56 C55 1.394 . S
C56 C57 1.378 . S
C56 H78 0.931 . S
C57 C52 1.377 . S
C57 C56 1.378 . S
C57 H79 0.931 . S
C58 O68 1.259 . S
C58 O69 1.270 . S
C59 O70 1.251 . S
C59 O71 1.251 . S
O60 C40 1.257 . S
O60 Eu41 2.473 1_556 S
O61 C40 1.260 1_554 S
O61 Eu41 2.480 . S
O62 Eu41 2.430 . S
O62 C48 1.259 . S
O63 Eu41 2.670 . S
O63 C48 1.270 . S
O63 Eu51 2.355 1_554 S
O64 Eu41 2.394 . S
O64 C49 1.251 . S
O65 C49 1.251 . S
O65 Eu51 2.374 1_554 S
O66 C50 1.257 . S
O66 Eu51 2.473 1_554 S
O67 C50 1.260 1_556 S
O67 Eu51 2.480 . S
O68 Eu51 2.430 . S
O68 C58 1.259 . S
O69 Eu41 2.355 1_556 S
O69 Eu51 2.670 . S
O69 C58 1.270 . S
O70 Eu51 2.394 . S
O70 C59 1.251 . S
O71 Eu41 2.374 1_556 S
O71 C59 1.251 . S
H72 C43 0.931 . S
H73 C44 0.931 . S
H74 C46 0.931 . S
H75 C47 0.931 . S
H76 C53 0.931 . S
H77 C54 0.931 . S
H78 C56 0.931 . S
H79 C57 0.931 . S
C80 Eu81 2.835 1_556 S
C80 C82 1.500 . S
C80 O100 1.257 . S
C80 O101 1.260 1_556 S
Eu81 C80 2.835 1_554 S
Eu81 O100 2.473 1_554 S
Eu81 O101 2.480 . S
Eu81 O102 2.430 . S
Eu81 O103 2.670 1_565 S
Eu81 O104 2.394 1_565 S
Eu81 O109 2.355 1_564 S
Eu81 O111 2.374 1_554 S
C82 C80 1.500 . S
C82 C83 1.377 1_556 S
C82 C87 1.377 . S
C83 C82 1.377 1_554 S
C83 C84 1.395 . S
C83 H112 0.931 . S
C84 C83 1.395 . S
C84 C85 1.383 1_554 S
C84 H113 0.931 . S
C85 C84 1.383 1_556 S
C85 C86 1.394 . S
C86 C85 1.394 . S
C86 C87 1.378 . S
C86 H114 0.931 . S
C87 C82 1.377 . S
C87 C86 1.378 . S
C87 H115 0.931 . S
C88 O102 1.259 1_545 S
C88 O103 1.270 . S
C89 O104 1.251 . S
C89 O105 1.251 . S
C90 Eu91 2.835 1_554 S
C90 C92 1.500 . S
C90 O106 1.257 . S
C90 O107 1.260 1_554 S
Eu91 C90 2.835 1_556 S
Eu91 O103 2.355 1_556 S
Eu91 O105 2.374 1_556 S
Eu91 O106 2.473 1_556 S
Eu91 O107 2.480 . S
Eu91 O108 2.430 . S
Eu91 O109 2.670 . S
Eu91 O110 2.394 . S
C92 C90 1.500 . S
C92 C93 1.377 1_554 S
C92 C97 1.377 . S
C93 C92 1.377 1_556 S
C93 C94 1.395 . S
C93 H116 0.931 . S
C94 C93 1.395 . S
C94 C95 1.383 1_556 S
C94 H117 0.931 . S
C95 C94 1.383 1_554 S
C95 C96 1.394 . S
C96 C95 1.394 . S
C96 C97 1.378 . S
C96 H118 0.931 . S
C97 C92 1.377 . S
C97 C96 1.378 . S
C97 H119 0.931 . S
C98 O108 1.259 . S
C98 O109 1.270 . S
C99 O110 1.251 1_565 S
C99 O111 1.251 . S
O100 C80 1.257 . S
O100 Eu81 2.473 1_556 S
O101 C80 1.260 1_554 S
O101 Eu81 2.480 . S
O102 Eu81 2.430 . S
O102 C88 1.259 1_565 S
O103 Eu81 2.670 1_545 S
O103 C88 1.270 . S
O103 Eu91 2.355 1_554 S
O104 Eu81 2.394 1_545 S
O104 C89 1.251 . S
O105 C89 1.251 . S
O105 Eu91 2.374 1_554 S
O106 C90 1.257 . S
O106 Eu91 2.473 1_554 S
O107 C90 1.260 1_556 S
O107 Eu91 2.480 . S
O108 Eu91 2.430 . S
O108 C98 1.259 . S
O109 Eu81 2.355 1_546 S
O109 Eu91 2.670 . S
O109 C98 1.270 . S
O110 Eu91 2.394 . S
O110 C99 1.251 1_545 S
O111 Eu81 2.374 1_556 S
O111 C99 1.251 . S
H112 C83 0.931 . S
H113 C84 0.931 . S
H114 C86 0.931 . S
H115 C87 0.931 . S
H116 C93 0.931 . S
H117 C94 0.931 . S
H118 C96 0.931 . S
H119 C97 0.931 . S
C120 Eu121 2.835 . S
C120 C122 1.500 . S
C120 O140 1.257 . S
C120 O141 1.260 . S
Eu121 C120 2.835 . S
Eu121 O140 2.473 . S
Eu121 O141 2.480 . S
Eu121 O142 2.430 . S
Eu121 O143 2.670 . S
Eu121 O144 2.394 . S
Eu121 O149 2.355 . S
Eu121 O151 2.374 . S
C122 C120 1.500 . S
C122 C123 1.377 . S
C122 C127 1.377 . S
C123 C122 1.377 . S
C123 C124 1.395 . S
C123 H152 0.931 . S
C124 C123 1.395 . S
C124 C125 1.383 . S
C124 H153 0.931 . S
C125 C124 1.383 . S
C125 C126 1.394 . S
C126 C125 1.394 . S
C126 C127 1.378 . S
C126 H154 0.931 . S
C127 C122 1.377 . S
C127 C126 1.378 . S
C127 H155 0.931 . S
C128 O142 1.259 . S
C128 O143 1.270 . S
C129 O144 1.251 . S
C129 O145 1.251 . S
C130 Eu131 2.835 . S
C130 C132 1.500 . S
C130 O146 1.257 . S
C130 O147 1.260 . S
Eu131 C130 2.835 . S
Eu131 O143 2.355 . S
Eu131 O145 2.374 . S
Eu131 O146 2.473 . S
Eu131 O147 2.480 . S
Eu131 O148 2.430 . S
Eu131 O149 2.670 . S
Eu131 O150 2.394 . S
C132 C130 1.500 . S
C132 C133 1.377 . S
C132 C137 1.377 . S
C133 C132 1.377 . S
C133 C134 1.395 . S
C133 H156 0.931 . S
C134 C133 1.395 . S
C134 C135 1.383 . S
C134 H157 0.931 . S
C135 C134 1.383 . S
C135 C136 1.394 . S
C136 C135 1.394 . S
C136 C137 1.378 . S
C136 H158 0.931 . S
C137 C132 1.377 . S
C137 C136 1.378 . S
C137 H159 0.931 . S
C138 O148 1.259 . S
C138 O149 1.270 . S
C139 O150 1.251 . S
C139 O151 1.251 . S
O140 C120 1.257 . S
O140 Eu121 2.473 . S
O141 C120 1.260 . S
O141 Eu121 2.480 . S
O142 Eu121 2.430 . S
O142 C128 1.259 . S
O143 Eu121 2.670 . S
O143 C128 1.270 . S
O143 Eu131 2.355 . S
O144 Eu121 2.394 . S
O144 C129 1.251 . S
O145 C129 1.251 . S
O145 Eu131 2.374 . S
O146 C130 1.257 . S
O146 Eu131 2.473 . S
O147 C130 1.260 . S
O147 Eu131 2.480 . S
O148 Eu131 2.430 . S
O148 C138 1.259 . S
O149 Eu121 2.355 . S
O149 Eu131 2.670 . S
O149 C138 1.270 . S
O150 Eu131 2.394 . S
O150 C139 1.251 . S
O151 Eu121 2.374 . S
O151 C139 1.251 . S
H152 C123 0.931 . S
H153 C124 0.931 . S
H154 C126 0.931 . S
H155 C127 0.931 . S
H156 C133 0.931 . S
H157 C134 0.931 . S
H158 C136 0.931 . S
H159 C137 0.931 . S
C160 Eu161 2.835 . S
C160 C162 1.500 . S
C160 O180 1.257 . S
C160 O181 1.260 . S
Eu161 C160 2.835 . S
Eu161 O180 2.473 . S
Eu161 O181 2.480 . S
Eu161 O182 2.430 . S
Eu161 O183 2.670 . S
Eu161 O184 2.394 . S
Eu161 O189 2.355 . S
Eu161 O191 2.374 . S
C162 C160 1.500 . S
C162 C163 1.377 . S
C162 C167 1.377 . S
C163 C162 1.377 . S
C163 C164 1.395 . S
C163 H192 0.931 . S
C164 C163 1.395 . S
C164 C165 1.383 . S
C164 H193 0.931 . S
C165 C164 1.383 . S
C165 C166 1.394 . S
C166 C165 1.394 . S
C166 C167 1.378 . S
C166 H194 0.931 . S
C167 C162 1.377 . S
C167 C166 1.378 . S
C167 H195 0.931 . S
C168 O182 1.259 . S
C168 O183 1.270 . S
C169 O184 1.251 . S
C169 O185 1.251 . S
C170 Eu171 2.835 . S
C170 C172 1.500 . S
C170 O186 1.257 . S
C170 O187 1.260 . S
Eu171 C170 2.835 . S
Eu171 O183 2.355 . S
Eu171 O185 2.374 . S
Eu171 O186 2.473 . S
Eu171 O187 2.480 . S
Eu171 O188 2.430 . S
Eu171 O189 2.670 . S
Eu171 O190 2.394 . S
C172 C170 1.500 . S
C172 C173 1.377 . S
C172 C177 1.377 . S
C173 C172 1.377 . S
C173 C174 1.395 . S
C173 H196 0.931 . S
C174 C173 1.395 . S
C174 C175 1.383 . S
C174 H197 0.931 . S
C175 C174 1.383 . S
C175 C176 1.394 . S
C176 C175 1.394 . S
C176 C177 1.378 . S
C176 H198 0.931 . S
C177 C172 1.377 . S
C177 C176 1.378 . S
C177 H199 0.931 . S
C178 O188 1.259 . S
C178 O189 1.270 . S
C179 O190 1.251 . S
C179 O191 1.251 . S
O180 C160 1.257 . S
O180 Eu161 2.473 . S
O181 C160 1.260 . S
O181 Eu161 2.480 . S
O182 Eu161 2.430 . S
O182 C168 1.259 . S
O183 Eu161 2.670 . S
O183 C168 1.270 . S
O183 Eu171 2.355 . S
O184 Eu161 2.394 . S
O184 C169 1.251 . S
O185 C169 1.251 . S
O185 Eu171 2.374 . S
O186 C170 1.257 . S
O186 Eu171 2.473 . S
O187 C170 1.260 . S
O187 Eu171 2.480 . S
O188 Eu171 2.430 . S
O188 C178 1.259 . S
O189 Eu161 2.355 . S
O189 Eu171 2.670 . S
O189 C178 1.270 . S
O190 Eu171 2.394 . S
O190 C179 1.251 . S
O191 Eu161 2.374 . S
O191 C179 1.251 . S
H192 C163 0.931 . S
H193 C164 0.931 . S
H194 C166 0.931 . S
H195 C167 0.931 . S
H196 C173 0.931 . S
H197 C174 0.931 . S
H198 C176 0.931 . S
H199 C177 0.931 . S
C200 Eu201 2.835 . S
C200 C202 1.500 . S
C200 O220 1.257 . S
C200 O221 1.260 . S
Eu201 C200 2.835 . S
Eu201 O220 2.473 . S
Eu201 O221 2.480 . S
Eu201 O222 2.430 . S
Eu201 O223 2.670 . S
Eu201 O224 2.394 . S
Eu201 O229 2.355 . S
Eu201 O231 2.374 . S
C202 C200 1.500 . S
C202 C203 1.377 . S
C202 C207 1.377 . S
C203 C202 1.377 . S
C203 C204 1.395 . S
C203 H232 0.931 . S
C204 C203 1.395 . S
C204 C205 1.383 . S
C204 H233 0.931 . S
C205 C204 1.383 . S
C205 C206 1.394 . S
C206 C205 1.394 . S
C206 C207 1.378 . S
C206 H234 0.931 . S
C207 C202 1.377 . S
C207 C206 1.378 . S
C207 H235 0.931 . S
C208 O222 1.259 . S
C208 O223 1.270 . S
C209 O224 1.251 . S
C209 O225 1.251 . S
C210 Eu211 2.835 . S
C210 C212 1.500 . S
C210 O226 1.257 . S
C210 O227 1.260 . S
Eu211 C210 2.835 . S
Eu211 O223 2.355 . S
Eu211 O225 2.374 . S
Eu211 O226 2.473 . S
Eu211 O227 2.480 . S
Eu211 O228 2.430 . S
Eu211 O229 2.670 . S
Eu211 O230 2.394 . S
C212 C210 1.500 . S
C212 C213 1.377 . S
C212 C217 1.377 . S
C213 C212 1.377 . S
C213 C214 1.395 . S
C213 H236 0.931 . S
C214 C213 1.395 . S
C214 C215 1.383 . S
C214 H237 0.931 . S
C215 C214 1.383 . S
C215 C216 1.394 . S
C216 C215 1.394 . S
C216 C217 1.378 . S
C216 H238 0.931 . S
C217 C212 1.377 . S
C217 C216 1.378 . S
C217 H239 0.931 . S
C218 O228 1.259 . S
C218 O229 1.270 . S
C219 O230 1.251 . S
C219 O231 1.251 . S
O220 C200 1.257 . S
O220 Eu201 2.473 . S
O221 C200 1.260 . S
O221 Eu201 2.480 . S
O222 Eu201 2.430 . S
O222 C208 1.259 . S
O223 Eu201 2.670 . S
O223 C208 1.270 . S
O223 Eu211 2.355 . S
O224 Eu201 2.394 . S
O224 C209 1.251 . S
O225 C209 1.251 . S
O225 Eu211 2.374 . S
O226 C210 1.257 . S
O226 Eu211 2.473 . S
O227 C210 1.260 . S
O227 Eu211 2.480 . S
O228 Eu211 2.430 . S
O228 C218 1.259 . S
O229 Eu201 2.355 . S
O229 Eu211 2.670 . S
O229 C218 1.270 . S
O230 Eu211 2.394 . S
O230 C219 1.251 . S
O231 Eu201 2.374 . S
O231 C219 1.251 . S
H232 C203 0.931 . S
H233 C204 0.931 . S
H234 C206 0.931 . S
H235 C207 0.931 . S
H236 C213 0.931 . S
H237 C214 0.931 . S
H238 C216 0.931 . S
H239 C217 0.931 . S
C240 Eu241 2.835 . S
C240 C242 1.500 . S
C240 O260 1.257 . S
C240 O261 1.260 . S
Eu241 C240 2.835 . S
Eu241 O260 2.473 . S
Eu241 O261 2.480 . S
Eu241 O262 2.430 . S
Eu241 O263 2.670 . S
Eu241 O264 2.394 . S
Eu241 O269 2.355 . S
Eu241 O271 2.374 . S
C242 C240 1.500 . S
C242 C243 1.377 . S
C242 C247 1.377 . S
C243 C242 1.377 . S
C243 C244 1.395 . S
C243 H272 0.931 . S
C244 C243 1.395 . S
C244 C245 1.383 . S
C244 H273 0.931 . S
C245 C244 1.383 . S
C245 C246 1.394 . S
C246 C245 1.394 . S
C246 C247 1.378 . S
C246 H274 0.931 . S
C247 C242 1.377 . S
C247 C246 1.378 . S
C247 H275 0.931 . S
C248 O262 1.259 . S
C248 O263 1.270 . S
C249 O264 1.251 . S
C249 O265 1.251 . S
C250 Eu251 2.835 . S
C250 C252 1.500 . S
C250 O266 1.257 . S
C250 O267 1.260 . S
Eu251 C250 2.835 . S
Eu251 O263 2.355 . S
Eu251 O265 2.374 . S
Eu251 O266 2.473 . S
Eu251 O267 2.480 . S
Eu251 O268 2.430 . S
Eu251 O269 2.670 . S
Eu251 O270 2.394 . S
C252 C250 1.500 . S
C252 C253 1.377 . S
C252 C257 1.377 . S
C253 C252 1.377 . S
C253 C254 1.395 . S
C253 H276 0.931 . S
C254 C253 1.395 . S
C254 C255 1.383 . S
C254 H277 0.931 . S
C255 C254 1.383 . S
C255 C256 1.394 . S
C256 C255 1.394 . S
C256 C257 1.378 . S
C256 H278 0.931 . S
C257 C252 1.377 . S
C257 C256 1.378 . S
C257 H279 0.931 . S
C258 O268 1.259 . S
C258 O269 1.270 . S
C259 O270 1.251 . S
C259 O271 1.251 . S
O260 C240 1.257 . S
O260 Eu241 2.473 . S
O261 C240 1.260 . S
O261 Eu241 2.480 . S
O262 Eu241 2.430 . S
O262 C248 1.259 . S
O263 Eu241 2.670 . S
O263 C248 1.270 . S
O263 Eu251 2.355 . S
O264 Eu241 2.394 . S
O264 C249 1.251 . S
O265 C249 1.251 . S
O265 Eu251 2.374 . S
O266 C250 1.257 . S
O266 Eu251 2.473 . S
O267 C250 1.260 . S
O267 Eu251 2.480 . S
O268 Eu251 2.430 . S
O268 C258 1.259 . S
O269 Eu241 2.355 . S
O269 Eu251 2.670 . S
O269 C258 1.270 . S
O270 Eu251 2.394 . S
O270 C259 1.251 . S
O271 Eu241 2.374 . S
O271 C259 1.251 . S
H272 C243 0.931 . S
H273 C244 0.931 . S
H274 C246 0.931 . S
H275 C247 0.931 . S
H276 C253 0.931 . S
H277 C254 0.931 . S
H278 C256 0.931 . S
H279 C257 0.931 . S
C280 Eu281 2.835 . S
C280 C282 1.500 . S
C280 O300 1.257 . S
C280 O301 1.260 . S
Eu281 C280 2.835 . S
Eu281 O300 2.473 . S
Eu281 O301 2.480 . S
Eu281 O302 2.430 . S
Eu281 O303 2.670 . S
Eu281 O304 2.394 . S
Eu281 O309 2.355 . S
Eu281 O311 2.374 . S
C282 C280 1.500 . S
C282 C283 1.377 . S
C282 C287 1.377 . S
C283 C282 1.377 . S
C283 C284 1.395 . S
C283 H312 0.931 . S
C284 C283 1.395 . S
C284 C285 1.383 . S
C284 H313 0.931 . S
C285 C284 1.383 . S
C285 C286 1.394 . S
C286 C285 1.394 . S
C286 C287 1.378 . S
C286 H314 0.931 . S
C287 C282 1.377 . S
C287 C286 1.378 . S
C287 H315 0.931 . S
C288 O302 1.259 . S
C288 O303 1.270 . S
C289 O304 1.251 . S
C289 O305 1.251 . S
C290 Eu291 2.835 . S
C290 C292 1.500 . S
C290 O306 1.257 . S
C290 O307 1.260 . S
Eu291 C290 2.835 . S
Eu291 O303 2.355 . S
Eu291 O305 2.374 . S
Eu291 O306 2.473 . S
Eu291 O307 2.480 . S
Eu291 O308 2.430 . S
Eu291 O309 2.670 . S
Eu291 O310 2.394 . S
C292 C290 1.500 . S
C292 C293 1.377 . S
C292 C297 1.377 . S
C293 C292 1.377 . S
C293 C294 1.395 . S
C293 H316 0.931 . S
C294 C293 1.395 . S
C294 C295 1.383 . S
C294 H317 0.931 . S
C295 C294 1.383 . S
C295 C296 1.394 . S
C296 C295 1.394 . S
C296 C297 1.378 . S
C296 H318 0.931 . S
C297 C292 1.377 . S
C297 C296 1.378 . S
C297 H319 0.931 . S
C298 O308 1.259 . S
C298 O309 1.270 . S
C299 O310 1.251 . S
C299 O311 1.251 . S
O300 C280 1.257 . S
O300 Eu281 2.473 . S
O301 C280 1.260 . S
O301 Eu281 2.480 . S
O302 Eu281 2.430 . S
O302 C288 1.259 . S
O303 Eu281 2.670 . S
O303 C288 1.270 . S
O303 Eu291 2.355 . S
O304 Eu281 2.394 . S
O304 C289 1.251 . S
O305 C289 1.251 . S
O305 Eu291 2.374 . S
O306 C290 1.257 . S
O306 Eu291 2.473 . S
O307 C290 1.260 . S
O307 Eu291 2.480 . S
O308 Eu291 2.430 . S
O308 C298 1.259 . S
O309 Eu281 2.355 . S
O309 Eu291 2.670 . S
O309 C298 1.270 . S
O310 Eu291 2.394 . S
O310 C299 1.251 . S
O311 Eu281 2.374 . S
O311 C299 1.251 . S
H312 C283 0.931 . S
H313 C284 0.931 . S
H314 C286 0.931 . S
H315 C287 0.931 . S
H316 C293 0.931 . S
H317 C294 0.931 . S
H318 C296 0.931 . S
H319 C297 0.931 . S
C320 Eu321 2.835 . S
C320 C322 1.500 . S
C320 O340 1.257 . S
C320 O341 1.260 . S
Eu321 C320 2.835 . S
Eu321 O340 2.473 . S
Eu321 O341 2.480 . S
Eu321 O342 2.430 . S
Eu321 O343 2.670 . S
Eu321 O344 2.394 . S
Eu321 O349 2.355 . S
Eu321 O351 2.374 . S
C322 C320 1.500 . S
C322 C323 1.377 . S
C322 C327 1.377 . S
C323 C322 1.377 . S
C323 C324 1.395 . S
C323 H352 0.931 . S
C324 C323 1.395 . S
C324 C325 1.383 . S
C324 H353 0.931 . S
C325 C324 1.383 . S
C325 C326 1.394 . S
C326 C325 1.394 . S
C326 C327 1.378 . S
C326 H354 0.931 . S
C327 C322 1.377 . S
C327 C326 1.378 . S
C327 H355 0.931 . S
C328 O342 1.259 . S
C328 O343 1.270 . S
C329 O344 1.251 . S
C329 O345 1.251 . S
C330 Eu331 2.835 . S
C330 C332 1.500 . S
C330 O346 1.257 . S
C330 O347 1.260 . S
Eu331 C330 2.835 . S
Eu331 O343 2.355 . S
Eu331 O345 2.374 . S
Eu331 O346 2.473 . S
Eu331 O347 2.480 . S
Eu331 O348 2.430 . S
Eu331 O349 2.670 . S
Eu331 O350 2.394 . S
C332 C330 1.500 . S
C332 C333 1.377 . S
C332 C337 1.377 . S
C333 C332 1.377 . S
C333 C334 1.395 . S
C333 H356 0.931 . S
C334 C333 1.395 . S
C334 C335 1.383 . S
C334 H357 0.931 . S
C335 C334 1.383 . S
C335 C336 1.394 . S
C336 C335 1.394 . S
C336 C337 1.378 . S
C336 H358 0.931 . S
C337 C332 1.377 . S
C337 C336 1.378 . S
C337 H359 0.931 . S
C338 O348 1.259 . S
C338 O349 1.270 . S
C339 O350 1.251 . S
C339 O351 1.251 . S
O340 C320 1.257 . S
O340 Eu321 2.473 . S
O341 C320 1.260 . S
O341 Eu321 2.480 . S
O342 Eu321 2.430 . S
O342 C328 1.259 . S
O343 Eu321 2.670 . S
O343 C328 1.270 . S
O343 Eu331 2.355 . S
O344 Eu321 2.394 . S
O344 C329 1.251 . S
O345 C329 1.251 . S
O345 Eu331 2.374 . S
O346 C330 1.257 . S
O346 Eu331 2.473 . S
O347 C330 1.260 . S
O347 Eu331 2.480 . S
O348 Eu331 2.430 . S
O348 C338 1.259 . S
O349 Eu321 2.355 . S
O349 Eu331 2.670 . S
O349 C338 1.270 . S
O350 Eu331 2.394 . S
O350 C339 1.251 . S
O351 Eu321 2.374 . S
O351 C339 1.251 . S
H352 C323 0.931 . S
H353 C324 0.931 . S
H354 C326 0.931 . S
H355 C327 0.931 . S
H356 C333 0.931 . S
H357 C334 0.931 . S
H358 C336 0.931 . S
H359 C337 0.931 . S
H360 C372 0.930 . S
H361 C374 0.930 . S
H362 C375 0.930 1_554 S
H363 C379 0.959 . S
H364 C379 0.959 . S
H365 C379 0.961 . S
H366 C380 0.960 . S
H367 C380 0.961 . S
H368 C380 0.959 . S
H369 C383 0.929 . S
H370 C384 0.931 . S
H371 C386 0.930 . S
C372 H360 0.930 . S
C372 C373 1.399 . S
C372 C377 1.399 . S
C373 C372 1.399 . S
C373 C374 1.376 1_556 S
C374 H361 0.930 . S
C374 C373 1.376 1_554 S
C374 C375 1.388 1_554 S
C375 H362 0.930 1_556 S
C375 C374 1.388 1_556 S
C375 C376 1.390 . S
C376 C375 1.390 . S
C376 C377 1.394 . S
C376 C382 1.465 . S
C377 C372 1.399 . S
C377 C376 1.394 . S
C377 C378 1.516 . S
C378 C377 1.516 . S
C378 C379 1.502 . S
C378 C380 1.561 . S
C378 C381 1.526 . S
C379 H363 0.959 . S
C379 H364 0.959 . S
C379 H365 0.961 . S
C379 C378 1.502 . S
C380 H366 0.960 . S
C380 H367 0.961 . S
C380 H368 0.959 . S
C380 C378 1.561 . S
C381 C378 1.526 . S
C381 C382 1.396 . S
C381 C386 1.390 . S
C382 C376 1.465 . S
C382 C381 1.396 . S
C382 C383 1.399 . S
C383 H369 0.929 . S
C383 C382 1.399 . S
C383 C384 1.385 . S
C384 H370 0.931 . S
C384 C383 1.385 . S
C384 C385 1.389 . S
C385 C384 1.389 . S
C385 C386 1.387 . S
C386 H371 0.930 . S
C386 C381 1.390 . S
C386 C385 1.387 . S
H387 C399 0.930 1_554 S
H388 C401 0.930 . S
H389 C402 0.930 . S
H390 C406 0.959 . S
H391 C406 0.959 . S
H392 C406 0.961 . S
H393 C407 0.960 . S
H394 C407 0.961 . S
H395 C407 0.959 . S
H396 C410 0.929 . S
H397 C411 0.931 . S
H398 C413 0.930 . S
C399 H387 0.930 1_556 S
C399 C400 1.399 . S
C399 C404 1.399 . S
C400 C399 1.399 . S
C400 C401 1.376 . S
C401 H388 0.930 . S
C401 C400 1.376 . S
C401 C402 1.388 . S
C402 H389 0.930 . S
C402 C401 1.388 . S
C402 C403 1.390 . S
C403 C402 1.390 . S
C403 C404 1.394 . S
C403 C409 1.465 . S
C404 C399 1.399 . S
C404 C403 1.394 . S
C404 C405 1.516 . S
C405 C404 1.516 . S
C405 C406 1.502 . S
C405 C407 1.561 1_556 S
C405 C408 1.526 . S
C406 H390 0.959 . S
C406 H391 0.959 . S
C406 H392 0.961 . S
C406 C405 1.502 . S
C407 H393 0.960 . S
C407 H394 0.961 . S
C407 H395 0.959 . S
C407 C405 1.561 1_554 S
C408 C405 1.526 . S
C408 C409 1.396 . S
C408 C413 1.390 . S
C409 C403 1.465 . S
C409 C408 1.396 . S
C409 C410 1.399 . S
C410 H396 0.929 . S
C410 C409 1.399 . S
C410 C411 1.385 . S
C411 H397 0.931 . S
C411 C410 1.385 . S
C411 C412 1.389 . S
C412 C411 1.389 . S
C412 C413 1.387 . S
C413 H398 0.930 . S
C413 C408 1.390 . S
C413 C412 1.387 . S
H414 C426 0.930 1_554 S
H415 C428 0.930 . S
H416 C429 0.930 . S
H417 C433 0.959 . S
H418 C433 0.959 . S
H419 C433 0.961 . S
H420 C434 0.960 1_554 S
H421 C434 0.961 . S
H422 C434 0.959 . S
H423 C437 0.929 . S
H424 C438 0.931 . S
H425 C440 0.930 . S
C426 H414 0.930 1_556 S
C426 C427 1.399 . S
C426 C431 1.399 . S
C427 C426 1.399 . S
C427 C428 1.376 . S
C428 H415 0.930 . S
C428 C427 1.376 . S
C428 C429 1.388 . S
C429 H416 0.930 . S
C429 C428 1.388 . S
C429 C430 1.390 . S
C430 C429 1.390 . S
C430 C431 1.394 . S
C430 C436 1.465 . S
C431 C426 1.399 . S
C431 C430 1.394 . S
C431 C432 1.516 . S
C432 C431 1.516 . S
C432 C433 1.502 1_556 S
C432 C434 1.561 . S
C432 C435 1.526 . S
C433 H417 0.959 . S
C433 H418 0.959 . S
C433 H419 0.961 . S
C433 C432 1.502 1_554 S
C434 H420 0.960 1_556 S
C434 H421 0.961 . S
C434 H422 0.959 . S
C434 C432 1.561 . S
C435 C432 1.526 . S
C435 C436 1.396 . S
C435 C440 1.390 . S
C436 C430 1.465 . S
C436 C435 1.396 . S
C436 C437 1.399 . S
C437 H423 0.929 . S
C437 C436 1.399 . S
C437 C438 1.385 . S
C438 H424 0.931 . S
C438 C437 1.385 . S
C438 C439 1.389 . S
C439 C438 1.389 . S
C439 C440 1.387 . S
C440 H425 0.930 . S
C440 C435 1.390 . S
C440 C439 1.387 . S
H441 C453 0.930 . S
H442 C455 0.930 . S
H443 C456 0.930 . S
H444 C460 0.959 . S
H445 C460 0.959 . S
H446 C460 0.961 . S
H447 C461 0.960 . S
H448 C461 0.961 . S
H449 C461 0.959 . S
H450 C464 0.929 . S
H451 C465 0.931 . S
H452 C467 0.930 . S
C453 H441 0.930 . S
C453 C454 1.399 . S
C453 C458 1.399 . S
C454 C453 1.399 . S
C454 C455 1.376 . S
C455 H442 0.930 . S
C455 C454 1.376 . S
C455 C456 1.388 . S
C456 H443 0.930 . S
C456 C455 1.388 . S
C456 C457 1.390 . S
C457 C456 1.390 . S
C457 C458 1.394 . S
C457 C463 1.465 . S
C458 C453 1.399 . S
C458 C457 1.394 . S
C458 C459 1.516 . S
C459 C458 1.516 . S
C459 C460 1.502 . S
C459 C461 1.561 . S
C459 C462 1.526 . S
C460 H444 0.959 . S
C460 H445 0.959 . S
C460 H446 0.961 . S
C460 C459 1.502 . S
C461 H447 0.960 . S
C461 H448 0.961 . S
C461 H449 0.959 . S
C461 C459 1.561 . S
C462 C459 1.526 . S
C462 C463 1.396 . S
C462 C467 1.390 . S
C463 C457 1.465 . S
C463 C462 1.396 . S
C463 C464 1.399 . S
C464 H450 0.929 . S
C464 C463 1.399 . S
C464 C465 1.385 . S
C465 H451 0.931 . S
C465 C464 1.385 . S
C465 C466 1.389 . S
C466 C465 1.389 . S
C466 C467 1.387 . S
C467 H452 0.930 . S
C467 C462 1.390 . S
C467 C466 1.387 . S
H468 C480 0.930 . S
H469 C482 0.930 . S
H470 C483 0.930 . S
H471 C487 0.959 . S
H472 C487 0.959 . S
H473 C487 0.961 . S
H474 C488 0.960 . S
H475 C488 0.961 . S
H476 C488 0.959 . S
H477 C491 0.929 . S
H478 C492 0.931 1_556 S
H479 C494 0.930 . S
C480 H468 0.930 . S
C480 C481 1.399 . S
C480 C485 1.399 . S
C481 C480 1.399 . S
C481 C482 1.376 . S
C482 H469 0.930 . S
C482 C481 1.376 . S
C482 C483 1.388 . S
C483 H470 0.930 . S
C483 C482 1.388 . S
C483 C484 1.390 . S
C484 C483 1.390 . S
C484 C485 1.394 . S
C484 C490 1.465 . S
C485 C480 1.399 . S
C485 C484 1.394 . S
C485 C486 1.516 . S
C486 C485 1.516 . S
C486 C487 1.502 . S
C486 C488 1.561 . S
C486 C489 1.526 . S
C487 H471 0.959 . S
C487 H472 0.959 . S
C487 H473 0.961 . S
C487 C486 1.502 . S
C488 H474 0.960 . S
C488 H475 0.961 . S
C488 H476 0.959 . S
C488 C486 1.561 . S
C489 C486 1.526 . S
C489 C490 1.396 . S
C489 C494 1.390 . S
C490 C484 1.465 . S
C490 C489 1.396 . S
C490 C491 1.399 . S
C491 H477 0.929 . S
C491 C490 1.399 . S
C491 C492 1.385 . S
C492 H478 0.931 1_554 S
C492 C491 1.385 . S
C492 C493 1.389 . S
C493 C492 1.389 . S
C493 C494 1.387 . S
C494 H479 0.930 . S
C494 C489 1.390 . S
C494 C493 1.387 . S
H495 C507 0.930 . S
H496 C509 0.930 . S
H497 C510 0.930 . S
H498 C514 0.959 . S
H499 C514 0.959 . S
H500 C514 0.961 . S
H501 C515 0.960 . S
H502 C515 0.961 . S
H503 C515 0.959 . S
H504 C518 0.929 . S
H505 C519 0.931 . S
H506 C521 0.930 . S
C507 H495 0.930 . S
C507 C508 1.399 . S
C507 C512 1.399 . S
C508 C507 1.399 . S
C508 C509 1.376 . S
C509 H496 0.930 . S
C509 C508 1.376 . S
C509 C510 1.388 . S
C510 H497 0.930 . S
C510 C509 1.388 . S
C510 C511 1.390 . S
C511 C510 1.390 . S
C511 C512 1.394 . S
C511 C517 1.465 . S
C512 C507 1.399 . S
C512 C511 1.394 . S
C512 C513 1.516 . S
C513 C512 1.516 . S
C513 C514 1.502 . S
C513 C515 1.561 . S
C513 C516 1.526 . S
C514 H498 0.959 . S
C514 H499 0.959 . S
C514 H500 0.961 . S
C514 C513 1.502 . S
C515 H501 0.960 . S
C515 H502 0.961 . S
C515 H503 0.959 . S
C515 C513 1.561 . S
C516 C513 1.526 . S
C516 C517 1.396 . S
C516 C521 1.390 . S
C517 C511 1.465 . S
C517 C516 1.396 . S
C517 C518 1.399 . S
C518 H504 0.929 . S
C518 C517 1.399 . S
C518 C519 1.385 . S
C519 H505 0.931 . S
C519 C518 1.385 . S
C519 C520 1.389 . S
C520 C519 1.389 . S
C520 C521 1.387 . S
C521 H506 0.930 . S
C521 C516 1.390 . S
C521 C520 1.387 . S
H522 C534 0.930 . S
H523 C536 0.930 . S
H524 C537 0.930 . S
H525 C541 0.959 . S
H526 C541 0.959 . S
H527 C541 0.961 . S
H528 C542 0.960 . S
H529 C542 0.961 . S
H530 C542 0.959 . S
H531 C545 0.929 . S
H532 C546 0.931 1_655 S
H533 C548 0.930 . S
C534 H522 0.930 . S
C534 C535 1.399 . S
C534 C539 1.399 . S
C535 C534 1.399 . S
C535 C536 1.376 . S
C536 H523 0.930 . S
C536 C535 1.376 . S
C536 C537 1.388 . S
C537 H524 0.930 . S
C537 C536 1.388 . S
C537 C538 1.390 . S
C538 C537 1.390 . S
C538 C539 1.394 . S
C538 C544 1.465 . S
C539 C534 1.399 . S
C539 C538 1.394 . S
C539 C540 1.516 . S
C540 C539 1.516 . S
C540 C541 1.502 . S
C540 C542 1.561 . S
C540 C543 1.526 . S
C541 H525 0.959 . S
C541 H526 0.959 . S
C541 H527 0.961 . S
C541 C540 1.502 . S
C542 H528 0.960 . S
C542 H529 0.961 . S
C542 H530 0.959 . S
C542 C540 1.561 . S
C543 C540 1.526 . S
C543 C544 1.396 . S
C543 C548 1.390 . S
C544 C538 1.465 . S
C544 C543 1.396 . S
C544 C545 1.399 . S
C545 H531 0.929 . S
C545 C544 1.399 . S
C545 C546 1.385 . S
C546 H532 0.931 1_455 S
C546 C545 1.385 . S
C546 C547 1.389 . S
C547 C546 1.389 . S
C547 C548 1.387 . S
C548 H533 0.930 . S
C548 C543 1.390 . S
C548 C547 1.387 . S
H549 C561 0.930 . S
H550 C563 0.930 . S
H551 C564 0.930 . S
H552 C568 0.959 . S
H553 C568 0.959 . S
H554 C568 0.961 . S
H555 C569 0.960 . S
H556 C569 0.961 . S
H557 C569 0.959 . S
H558 C572 0.929 . S
H559 C573 0.931 . S
H560 C575 0.930 . S
C561 H549 0.930 . S
C561 C562 1.399 . S
C561 C566 1.399 . S
C562 C561 1.399 . S
C562 C563 1.376 . S
C563 H550 0.930 . S
C563 C562 1.376 . S
C563 C564 1.388 . S
C564 H551 0.930 . S
C564 C563 1.388 . S
C564 C565 1.390 . S
C565 C564 1.390 . S
C565 C566 1.394 . S
C565 C571 1.465 . S
C566 C561 1.399 . S
C566 C565 1.394 . S
C566 C567 1.516 . S
C567 C566 1.516 . S
C567 C568 1.502 . S
C567 C569 1.561 . S
C567 C570 1.526 . S
C568 H552 0.959 . S
C568 H553 0.959 . S
C568 H554 0.961 . S
C568 C567 1.502 . S
C569 H555 0.960 . S
C569 H556 0.961 . S
C569 H557 0.959 . S
C569 C567 1.561 . S
C570 C567 1.526 . S
C570 C571 1.396 . S
C570 C575 1.390 . S
C571 C565 1.465 . S
C571 C570 1.396 . S
C571 C572 1.399 . S
C572 H558 0.929 . S
C572 C571 1.399 . S
C572 C573 1.385 . S
C573 H559 0.931 . S
C573 C572 1.385 . S
C573 C574 1.389 . S
C574 C573 1.389 . S
C574 C575 1.387 . S
C575 H560 0.930 . S
C575 C570 1.390 . S
C575 C574 1.387 . S
H576 C588 0.930 . S
H577 C590 0.930 . S
H578 C591 0.930 . S
H579 C595 0.959 . S
H580 C595 0.959 . S
H581 C595 0.961 . S
H582 C596 0.960 . S
H583 C596 0.961 . S
H584 C596 0.959 . S
H585 C599 0.929 . S
H586 C600 0.931 . S
H587 C602 0.930 . S
C588 H576 0.930 . S
C588 C589 1.399 . S
C588 C593 1.399 1_545 S
C589 C588 1.399 . S
C589 C590 1.376 . S
C590 H577 0.930 . S
C590 C589 1.376 . S
C590 C591 1.388 1_545 S
C591 H578 0.930 . S
C591 C590 1.388 1_565 S
C591 C592 1.390 . S
C592 C591 1.390 . S
C592 C593 1.394 . S
C592 C598 1.465 . S
C593 C588 1.399 1_565 S
C593 C592 1.394 . S
C593 C594 1.516 . S
C594 C593 1.516 . S
C594 C595 1.502 . S
C594 C596 1.561 . S
C594 C597 1.526 . S
C595 H579 0.959 . S
C595 H580 0.959 . S
C595 H581 0.961 . S
C595 C594 1.502 . S
C596 H582 0.960 . S
C596 H583 0.961 . S
C596 H584 0.959 . S
C596 C594 1.561 . S
C597 C594 1.526 . S
C597 C598 1.396 . S
C597 C602 1.390 . S
C598 C592 1.465 . S
C598 C597 1.396 . S
C598 C599 1.399 . S
C599 H585 0.929 . S
C599 C598 1.399 . S
C599 C600 1.385 . S
C600 H586 0.931 . S
C600 C599 1.385 . S
C600 C601 1.389 . S
C601 C600 1.389 . S
C601 C602 1.387 . S
C602 H587 0.930 . S
C602 C597 1.390 . S
C602 C601 1.387 . S
H603 C615 0.930 . S
H604 C617 0.930 . S
H605 C618 0.930 . S
H606 C622 0.959 . S
H607 C622 0.959 . S
H608 C622 0.961 . S
H609 C623 0.960 . S
H610 C623 0.961 . S
H611 C623 0.959 . S
H612 C626 0.929 . S
H613 C627 0.931 . S
H614 C629 0.930 . S
C615 H603 0.930 . S
C615 C616 1.399 1_556 S
C615 C620 1.399 . S
C616 C615 1.399 1_554 S
C616 C617 1.376 . S
C617 H604 0.930 . S
C617 C616 1.376 . S
C617 C618 1.388 . S
C618 H605 0.930 . S
C618 C617 1.388 . S
C618 C619 1.390 . S
C619 C618 1.390 . S
C619 C620 1.394 1_554 S
C619 C625 1.465 . S
C620 C615 1.399 . S
C620 C619 1.394 1_556 S
C620 C621 1.516 . S
C621 C620 1.516 . S
C621 C622 1.502 . S
C621 C623 1.561 . S
C621 C624 1.526 . S
C622 H606 0.959 . S
C622 H607 0.959 . S
C622 H608 0.961 . S
C622 C621 1.502 . S
C623 H609 0.960 . S
C623 H610 0.961 . S
C623 H611 0.959 . S
C623 C621 1.561 . S
C624 C621 1.526 . S
C624 C625 1.396 1_556 S
C624 C629 1.390 . S
C625 C619 1.465 . S
C625 C624 1.396 1_554 S
C625 C626 1.399 . S
C626 H612 0.929 . S
C626 C625 1.399 . S
C626 C627 1.385 . S
C627 H613 0.931 . S
C627 C626 1.385 . S
C627 C628 1.389 1_554 S
C628 C627 1.389 1_556 S
C628 C629 1.387 . S
C629 H614 0.930 . S
C629 C624 1.390 . S
C629 C628 1.387 . S
H630 C642 0.930 . S
H631 C644 0.930 . S
H632 C645 0.930 . S
H633 C649 0.959 . S
H634 C649 0.959 . S
H635 C649 0.961 . S
H636 C650 0.960 . S
H637 C650 0.961 . S
H638 C650 0.959 . S
H639 C653 0.929 . S
H640 C654 0.902 1_455 S
H641 C656 0.930 . S
C642 H630 0.930 . S
C642 C643 1.399 1_554 S
C642 C647 1.399 . S
C643 C642 1.399 1_556 S
C643 C644 1.376 . S
C644 H631 0.930 . S
C644 C643 1.376 . S
C644 C645 1.388 . S
C645 H632 0.930 . S
C645 C644 1.388 . S
C645 C646 1.390 . S
C646 C645 1.390 . S
C646 C647 1.394 1_556 S
C646 C652 1.465 . S
C647 C642 1.399 . S
C647 C646 1.394 1_554 S
C647 C648 1.516 . S
C648 C647 1.516 . S
C648 C649 1.502 . S
C648 C650 1.561 . S
C648 C651 1.526 . S
C649 H633 0.959 . S
C649 H634 0.959 . S
C649 H635 0.961 . S
C649 C648 1.502 . S
C650 H636 0.960 . S
C650 H637 0.961 . S
C650 H638 0.959 . S
C650 C648 1.561 . S
C651 C648 1.526 . S
C651 C652 1.396 1_554 S
C651 C656 1.390 . S
C652 C646 1.465 . S
C652 C651 1.396 1_556 S
C652 C653 1.399 . S
C653 H639 0.929 . S
C653 C652 1.399 . S
C653 C654 1.385 . S
C654 H640 0.902 1_655 S
C654 C653 1.385 . S
C654 C655 1.389 1_556 S
C655 C654 1.389 1_554 S
C655 C656 1.387 . S
C656 H641 0.930 . S
C656 C651 1.390 . S
C656 C655 1.387 . S
H657 C669 0.930 . S
H658 C671 0.930 . S
H659 C672 0.930 . S
H660 C676 0.959 . S
H661 C676 0.959 . S
H662 C676 0.961 . S
H663 C677 0.960 . S
H664 C677 0.961 . S
H665 C677 0.959 . S
H666 C680 0.929 . S
H667 C681 0.931 . S
H668 C683 0.930 . S
C669 H657 0.930 . S
C669 C670 1.399 . S
C669 C674 1.399 . S
C670 C669 1.399 . S
C670 C671 1.376 1_554 S
C671 H658 0.930 . S
C671 C670 1.376 1_556 S
C671 C672 1.388 . S
C672 H659 0.930 . S
C672 C671 1.388 . S
C672 C673 1.390 . S
C673 C672 1.390 . S
C673 C674 1.394 1_556 S
C673 C679 1.465 . S
C674 C669 1.399 . S
C674 C673 1.394 1_554 S
C674 C675 1.516 . S
C675 C674 1.516 . S
C675 C676 1.502 . S
C675 C677 1.561 . S
C675 C678 1.526 . S
C676 H660 0.959 . S
C676 H661 0.959 . S
C676 H662 0.961 . S
C676 C675 1.502 . S
C677 H663 0.960 . S
C677 H664 0.961 . S
C677 H665 0.959 . S
C677 C675 1.561 . S
C678 C675 1.526 . S
C678 C679 1.396 1_554 S
C678 C683 1.390 1_655 S
C679 C673 1.465 . S
C679 C678 1.396 1_556 S
C679 C680 1.399 . S
C680 H666 0.929 . S
C680 C679 1.399 . S
C680 C681 1.385 1_655 S
C681 H667 0.931 . S
C681 C680 1.385 1_455 S
C681 C682 1.389 . S
C682 C681 1.389 . S
C682 C683 1.387 1_556 S
C683 H668 0.930 . S
C683 C678 1.390 1_455 S
C683 C682 1.387 1_554 S
H684 C696 0.930 . S
H685 C698 0.930 . S
H686 C699 0.930 . S
H687 C703 0.959 . S
H688 C703 0.959 . S
H689 C703 0.961 . S
H690 C704 0.960 . S
H691 C704 0.961 . S
H692 C704 0.959 . S
H693 C707 0.929 . S
H694 C708 0.931 . S
H695 C710 0.930 . S
C696 H684 0.930 . S
C696 C697 1.399 . S
C696 C701 1.399 . S
C697 C696 1.399 . S
C697 C698 1.376 . S
C698 H685 0.930 . S
C698 C697 1.376 . S
C698 C699 1.388 . S
C699 H686 0.930 . S
C699 C698 1.388 . S
C699 C700 1.390 . S
C700 C699 1.390 . S
C700 C701 1.394 . S
C700 C706 1.465 . S
C701 C696 1.399 . S
C701 C700 1.394 . S
C701 C702 1.516 . S
C702 C701 1.516 . S
C702 C703 1.502 . S
C702 C704 1.561 . S
C702 C705 1.526 . S
C703 H687 0.959 . S
C703 H688 0.959 . S
C703 H689 0.961 . S
C703 C702 1.502 . S
C704 H690 0.960 . S
C704 H691 0.961 . S
C704 H692 0.959 . S
C704 C702 1.561 . S
C705 C702 1.526 . S
C705 C706 1.396 . S
C705 C710 1.390 . S
C706 C700 1.465 . S
C706 C705 1.396 . S
C706 C707 1.399 . S
C707 H693 0.929 . S
C707 C706 1.399 . S
C707 C708 1.385 . S
C708 H694 0.931 . S
C708 C707 1.385 . S
C708 C709 1.389 . S
C709 C708 1.389 . S
C709 C710 1.387 . S
C710 H695 0.930 . S
C710 C705 1.390 . S
C710 C709 1.387 . S
H711 C723 0.930 . S
H712 C725 0.930 . S
H713 C726 0.930 . S
H714 C730 0.959 . S
H715 C730 0.959 . S
H716 C730 0.961 . S
H717 C731 0.960 . S
H718 C731 0.961 . S
H719 C731 0.959 . S
H720 C734 0.929 . S
H721 C735 0.931 . S
H722 C737 0.930 . S
C723 H711 0.930 . S
C723 C724 1.399 . S
C723 C728 1.399 . S
C724 C723 1.399 . S
C724 C725 1.376 . S
C725 H712 0.930 . S
C725 C724 1.376 . S
C725 C726 1.388 . S
C726 H713 0.930 . S
C726 C725 1.388 . S
C726 C727 1.390 . S
C727 C726 1.390 . S
C727 C728 1.394 . S
C727 C733 1.465 . S
C728 C723 1.399 . S
C728 C727 1.394 . S
C728 C729 1.516 . S
C729 C728 1.516 . S
C729 C730 1.502 . S
C729 C731 1.561 . S
C729 C732 1.526 . S
C730 H714 0.959 . S
C730 H715 0.959 . S
C730 H716 0.961 . S
C730 C729 1.502 . S
C731 H717 0.960 . S
C731 H718 0.961 . S
C731 H719 0.959 . S
C731 C729 1.561 . S
C732 C729 1.526 . S
C732 C733 1.396 . S
C732 C737 1.390 . S
C733 C727 1.465 . S
C733 C732 1.396 . S
C733 C734 1.399 . S
C734 H720 0.929 . S
C734 C733 1.399 . S
C734 C735 1.385 . S
C735 H721 0.931 . S
C735 C734 1.385 . S
C735 C736 1.389 . S
C736 C735 1.389 . S
C736 C737 1.387 . S
C737 H722 0.930 . S
C737 C732 1.390 . S
C737 C736 1.387 . S
H738 C750 0.930 . S
H739 C752 0.930 . S
H740 C753 0.930 . S
H741 C757 0.959 . S
H742 C757 0.959 . S
H743 C757 0.961 . S
H744 C758 0.960 . S
H745 C758 0.961 . S
H746 C758 0.959 . S
H747 C761 0.929 . S
H748 C762 0.931 . S
H749 C764 0.930 . S
C750 H738 0.930 . S
C750 C751 1.399 . S
C750 C755 1.399 . S
C751 C750 1.399 . S
C751 C752 1.376 . S
C752 H739 0.930 . S
C752 C751 1.376 . S
C752 C753 1.388 . S
C753 H740 0.930 . S
C753 C752 1.388 . S
C753 C754 1.390 . S
C754 C753 1.390 . S
C754 C755 1.394 . S
C754 C760 1.465 . S
C755 C750 1.399 . S
C755 C754 1.394 . S
C755 C756 1.516 . S
C756 C755 1.516 . S
C756 C757 1.502 . S
C756 C758 1.561 . S
C756 C759 1.526 . S
C757 H741 0.959 . S
C757 H742 0.959 . S
C757 H743 0.961 . S
C757 C756 1.502 . S
C758 H744 0.960 . S
C758 H745 0.961 . S
C758 H746 0.959 . S
C758 C756 1.561 . S
C759 C756 1.526 . S
C759 C760 1.396 . S
C759 C764 1.390 . S
C760 C754 1.465 . S
C760 C759 1.396 . S
C760 C761 1.399 . S
C761 H747 0.929 . S
C761 C760 1.399 . S
C761 C762 1.385 . S
C762 H748 0.931 . S
C762 C761 1.385 . S
C762 C763 1.389 . S
C763 C762 1.389 . S
C763 C764 1.387 . S
C764 H749 0.930 . S
C764 C759 1.390 . S
C764 C763 1.387 . S
H765 C777 0.930 . S
H766 C779 0.930 . S
H767 C780 0.930 . S
H768 C784 0.959 . S
H769 C784 0.959 . S
H770 C784 0.961 . S
H771 C785 0.960 . S
H772 C785 0.961 . S
H773 C785 0.959 . S
H774 C788 0.929 . S
H775 C789 0.931 . S
H776 C791 0.930 . S
C777 H765 0.930 . S
C777 C778 1.399 . S
C777 C782 1.399 . S
C778 C777 1.399 . S
C778 C779 1.376 . S
C779 H766 0.930 . S
C779 C778 1.376 . S
C779 C780 1.388 . S
C780 H767 0.930 . S
C780 C779 1.388 . S
C780 C781 1.390 . S
C781 C780 1.390 . S
C781 C782 1.394 . S
C781 C787 1.465 . S
C782 C777 1.399 . S
C782 C781 1.394 . S
C782 C783 1.516 . S
C783 C782 1.516 . S
C783 C784 1.502 . S
C783 C785 1.561 . S
C783 C786 1.526 . S
C784 H768 0.959 . S
C784 H769 0.959 . S
C784 H770 0.961 . S
C784 C783 1.502 . S
C785 H771 0.960 . S
C785 H772 0.961 . S
C785 H773 0.959 . S
C785 C783 1.561 . S
C786 C783 1.526 . S
C786 C787 1.396 . S
C786 C791 1.390 . S
C787 C781 1.465 . S
C787 C786 1.396 . S
C787 C788 1.399 . S
C788 H774 0.929 . S
C788 C787 1.399 . S
C788 C789 1.385 . S
C789 H775 0.931 . S
C789 C788 1.385 . S
C789 C790 1.389 . S
C790 C789 1.389 . S
C790 C791 1.387 . S
C791 H776 0.930 . S
C791 C786 1.390 . S
C791 C790 1.387 . S
H792 C804 0.930 . S
H793 C806 0.930 . S
H794 C807 0.930 . S
H795 C811 0.959 . S
H796 C811 0.959 . S
H797 C811 0.961 . S
H798 C812 0.960 . S
H799 C812 0.961 . S
H800 C812 0.959 . S
H801 C815 0.929 . S
H802 C816 0.931 . S
H803 C818 0.930 . S
C804 H792 0.930 . S
C804 C805 1.399 . S
C804 C809 1.399 . S
C805 C804 1.399 . S
C805 C806 1.376 . S
C806 H793 0.930 . S
C806 C805 1.376 . S
C806 C807 1.388 . S
C807 H794 0.930 . S
C807 C806 1.388 . S
C807 C808 1.390 . S
C808 C807 1.390 . S
C808 C809 1.394 . S
C808 C814 1.465 . S
C809 C804 1.399 . S
C809 C808 1.394 . S
C809 C810 1.516 . S
C810 C809 1.516 . S
C810 C811 1.502 . S
C810 C812 1.561 . S
C810 C813 1.526 . S
C811 H795 0.959 . S
C811 H796 0.959 . S
C811 H797 0.961 . S
C811 C810 1.502 . S
C812 H798 0.960 . S
C812 H799 0.961 . S
C812 H800 0.959 . S
C812 C810 1.561 . S
C813 C810 1.526 . S
C813 C814 1.396 . S
C813 C818 1.390 . S
C814 C808 1.465 . S
C814 C813 1.396 . S
C814 C815 1.399 . S
C815 H801 0.929 . S
C815 C814 1.399 . S
C815 C816 1.385 . S
C816 H802 0.931 . S
C816 C815 1.385 . S
C816 C817 1.389 . S
C817 C816 1.389 . S
C817 C818 1.387 . S
C818 H803 0.930 . S
C818 C813 1.390 . S
C818 C817 1.387 . S
H819 C831 0.930 . S
H820 C833 0.930 . S
H821 C834 0.930 . S
H822 C838 0.959 . S
H823 C838 0.959 . S
H824 C838 0.961 . S
H825 C839 0.960 . S
H826 C839 0.961 . S
H827 C839 0.959 . S
H828 C842 0.929 . S
H829 C843 0.931 . S
H830 C845 0.930 . S
C831 H819 0.930 . S
C831 C832 1.399 . S
C831 C836 1.399 . S
C832 C831 1.399 . S
C832 C833 1.376 . S
C833 H820 0.930 . S
C833 C832 1.376 . S
C833 C834 1.388 . S
C834 H821 0.930 . S
C834 C833 1.388 . S
C834 C835 1.390 . S
C835 C834 1.390 . S
C835 C836 1.394 . S
C835 C841 1.465 . S
C836 C831 1.399 . S
C836 C835 1.394 . S
C836 C837 1.516 . S
C837 C836 1.516 . S
C837 C838 1.502 . S
C837 C839 1.561 . S
C837 C840 1.526 . S
C838 H822 0.959 . S
C838 H823 0.959 . S
C838 H824 0.961 . S
C838 C837 1.502 . S
C839 H825 0.960 . S
C839 H826 0.961 . S
C839 H827 0.959 . S
C839 C837 1.561 . S
C840 C837 1.526 . S
C840 C841 1.396 . S
C840 C845 1.390 . S
C841 C835 1.465 . S
C841 C840 1.396 . S
C841 C842 1.399 . S
C842 H828 0.929 . S
C842 C841 1.399 . S
C842 C843 1.385 . S
C843 H829 0.931 . S
C843 C842 1.385 . S
C843 C844 1.389 . S
C844 C843 1.389 . S
C844 C845 1.387 . S
C845 H830 0.930 . S
C845 C840 1.390 . S
C845 C844 1.387 . S
H846 C858 0.930 . S
H847 C860 0.930 . S
H848 C861 0.930 . S
H849 C865 0.959 . S
H850 C865 0.959 . S
H851 C865 0.961 . S
H852 C866 0.960 . S
H853 C866 0.961 . S
H854 C866 0.959 . S
H855 C869 0.929 . S
H856 C870 0.931 . S
H857 C872 0.930 . S
C858 H846 0.930 . S
C858 C859 1.399 . S
C858 C863 1.399 . S
C859 C858 1.399 . S
C859 C860 1.376 . S
C860 H847 0.930 . S
C860 C859 1.376 . S
C860 C861 1.388 . S
C861 H848 0.930 . S
C861 C860 1.388 . S
C861 C862 1.390 . S
C862 C861 1.390 . S
C862 C863 1.394 . S
C862 C868 1.465 . S
C863 C858 1.399 . S
C863 C862 1.394 . S
C863 C864 1.516 . S
C864 C863 1.516 . S
C864 C865 1.502 . S
C864 C866 1.561 1_455 S
C864 C867 1.526 . S
C865 H849 0.959 . S
C865 H850 0.959 . S
C865 H851 0.961 . S
C865 C864 1.502 . S
C866 H852 0.960 . S
C866 H853 0.961 . S
C866 H854 0.959 . S
C866 C864 1.561 1_655 S
C867 C864 1.526 . S
C867 C868 1.396 . S
C867 C872 1.390 . S
C868 C862 1.465 . S
C868 C867 1.396 . S
C868 C869 1.399 . S
C869 H855 0.929 . S
C869 C868 1.399 . S
C869 C870 1.385 . S
C870 H856 0.931 . S
C870 C869 1.385 . S
C870 C871 1.389 . S
C871 C870 1.389 . S
C871 C872 1.387 . S
C872 H857 0.930 . S
C872 C867 1.390 . S
C872 C871 1.387 . S
H873 C885 0.930 . S
H874 C887 0.930 . S
H875 C888 0.930 . S
H876 C892 0.959 . S
H877 C892 0.959 . S
H878 C892 0.961 . S
H879 C893 0.960 . S
H880 C893 0.961 . S
H881 C893 0.959 . S
H882 C896 0.929 . S
H883 C897 0.931 . S
H884 C899 0.930 . S
C885 H873 0.930 . S
C885 C886 1.399 . S
C885 C890 1.399 . S
C886 C885 1.399 . S
C886 C887 1.376 . S
C887 H874 0.930 . S
C887 C886 1.376 . S
C887 C888 1.388 . S
C888 H875 0.930 . S
C888 C887 1.388 . S
C888 C889 1.390 . S
C889 C888 1.390 . S
C889 C890 1.394 . S
C889 C895 1.465 . S
C890 C885 1.399 . S
C890 C889 1.394 . S
C890 C891 1.516 . S
C891 C890 1.516 . S
C891 C892 1.502 . S
C891 C893 1.561 . S
C891 C894 1.526 . S
C892 H876 0.959 . S
C892 H877 0.959 . S
C892 H878 0.961 . S
C892 C891 1.502 . S
C893 H879 0.960 . S
C893 H880 0.961 . S
C893 H881 0.959 . S
C893 C891 1.561 . S
C894 C891 1.526 . S
C894 C895 1.396 . S
C894 C899 1.390 . S
C895 C889 1.465 . S
C895 C894 1.396 . S
C895 C896 1.399 . S
C896 H882 0.929 . S
C896 C895 1.399 . S
C896 C897 1.385 . S
C897 H883 0.931 . S
C897 C896 1.385 . S
C897 C898 1.389 . S
C898 C897 1.389 . S
C898 C899 1.387 . S
C899 H884 0.930 . S
C899 C894 1.390 . S
C899 C898 1.387 . S
H900 C912 0.930 . S
H901 C914 0.930 . S
H902 C915 0.930 . S
H903 C919 0.959 . S
H904 C919 0.959 . S
H905 C919 0.961 . S
H906 C920 0.960 . S
H907 C920 0.961 . S
H908 C920 0.959 . S
H909 C923 0.929 . S
H910 C924 0.931 . S
H911 C926 0.930 . S
C912 H900 0.930 . S
C912 C913 1.399 . S
C912 C917 1.399 . S
C913 C912 1.399 . S
C913 C914 1.376 1_545 S
C914 H901 0.930 . S
C914 C913 1.376 1_565 S
C914 C915 1.388 . S
C915 H902 0.930 . S
C915 C914 1.388 . S
C915 C916 1.390 1_565 S
C916 C915 1.390 1_545 S
C916 C917 1.394 . S
C916 C922 1.465 . S
C917 C912 1.399 . S
C917 C916 1.394 . S
C917 C918 1.516 . S
C918 C917 1.516 . S
C918 C919 1.502 . S
C918 C920 1.561 . S
C918 C921 1.526 . S
C919 H903 0.959 . S
C919 H904 0.959 . S
C919 H905 0.961 . S
C919 C918 1.502 . S
C920 H906 0.960 . S
C920 H907 0.961 . S
C920 H908 0.959 . S
C920 C918 1.561 . S
C921 C918 1.526 . S
C921 C922 1.396 . S
C921 C926 1.390 . S
C922 C916 1.465 . S
C922 C921 1.396 . S
C922 C923 1.399 1_545 S
C923 H909 0.929 . S
C923 C922 1.399 1_565 S
C923 C924 1.385 . S
C924 H910 0.931 . S
C924 C923 1.385 . S
C924 C925 1.389 1_565 S
C925 C924 1.389 1_545 S
C925 C926 1.387 . S
C926 H911 0.930 . S
C926 C921 1.390 . S
C926 C925 1.387 . S
H927 C939 0.930 . S
H928 C941 0.930 . S
H929 C942 0.930 . S
H930 C946 0.959 . S
H931 C946 0.959 . S
H932 C946 0.961 . S
H933 C947 0.960 . S
H934 C947 0.961 . S
H935 C947 0.959 . S
H936 C950 0.929 . S
H937 C951 0.931 . S
H938 C953 0.930 . S
C939 H927 0.930 . S
C939 C940 1.399 . S
C939 C944 1.399 . S
C940 C939 1.399 . S
C940 C941 1.376 . S
C941 H928 0.930 . S
C941 C940 1.376 . S
C941 C942 1.388 . S
C942 H929 0.930 . S
C942 C941 1.388 . S
C942 C943 1.390 . S
C943 C942 1.390 . S
C943 C944 1.394 . S
C943 C949 1.465 . S
C944 C939 1.399 . S
C944 C943 1.394 . S
C944 C945 1.516 . S
C945 C944 1.516 . S
C945 C946 1.502 . S
C945 C947 1.561 . S
C945 C948 1.526 . S
C946 H930 0.959 . S
C946 H931 0.959 . S
C946 H932 0.961 . S
C946 C945 1.502 . S
C947 H933 0.960 . S
C947 H934 0.961 . S
C947 H935 0.959 . S
C947 C945 1.561 . S
C948 C945 1.526 . S
C948 C949 1.396 . S
C948 C953 1.390 1_556 S
C949 C943 1.465 . S
C949 C948 1.396 . S
C949 C950 1.399 . S
C950 H936 0.929 . S
C950 C949 1.399 . S
C950 C951 1.385 1_556 S
C951 H937 0.931 . S
C951 C950 1.385 1_554 S
C951 C952 1.389 . S
C952 C951 1.389 . S
C952 C953 1.387 . S
C953 H938 0.930 . S
C953 C948 1.390 1_554 S
C953 C952 1.387 . S
H954 C966 0.930 . S
H955 C968 0.930 . S
H956 C969 0.930 . S
H957 C973 0.959 . S
H958 C973 0.959 . S
H959 C973 0.961 . S
H960 C974 0.960 . S
H961 C974 0.961 . S
H962 C974 0.959 . S
H963 C977 0.929 . S
H964 C978 0.931 . S
H965 C980 0.930 . S
C966 H954 0.930 . S
C966 C967 1.399 . S
C966 C971 1.399 . S
C967 C966 1.399 . S
C967 C968 1.376 . S
C968 H955 0.930 . S
C968 C967 1.376 . S
C968 C969 1.388 . S
C969 H956 0.930 . S
C969 C968 1.388 . S
C969 C970 1.390 . S
C970 C969 1.390 . S
C970 C971 1.394 . S
C970 C976 1.465 . S
C971 C966 1.399 . S
C971 C970 1.394 . S
C971 C972 1.516 . S
C972 C971 1.516 . S
C972 C973 1.502 . S
C972 C974 1.561 . S
C972 C975 1.526 . S
C973 H957 0.959 . S
C973 H958 0.959 . S
C973 H959 0.961 . S
C973 C972 1.502 . S
C974 H960 0.960 . S
C974 H961 0.961 . S
C974 H962 0.959 . S
C974 C972 1.561 . S
C975 C972 1.526 . S
C975 C976 1.396 . S
C975 C980 1.390 1_556 S
C976 C970 1.465 . S
C976 C975 1.396 . S
C976 C977 1.399 . S
C977 H963 0.929 . S
C977 C976 1.399 . S
C977 C978 1.385 1_556 S
C978 H964 0.931 . S
C978 C977 1.385 1_554 S
C978 C979 1.389 . S
C979 C978 1.389 . S
C979 C980 1.387 . S
C980 H965 0.930 . S
C980 C975 1.390 1_554 S
C980 C979 1.387 . S
H981 C993 0.930 . S
H982 C995 0.930 . S
H983 C996 0.930 . S
H984 C1000 0.959 . S
H985 C1000 0.959 . S
H986 C1000 0.961 . S
H987 C1001 0.960 . S
H988 C1001 0.961 . S
H989 C1001 0.959 . S
H990 C1004 0.929 . S
H991 C1005 0.931 . S
H992 C1007 0.930 . S
C993 H981 0.930 . S
C993 C994 1.399 . S
C993 C998 1.399 . S
C994 C993 1.399 . S
C994 C995 1.376 . S
C995 H982 0.930 . S
C995 C994 1.376 . S
C995 C996 1.388 . S
C996 H983 0.930 . S
C996 C995 1.388 . S
C996 C997 1.390 . S
C997 C996 1.390 . S
C997 C998 1.394 . S
C997 C1003 1.465 . S
C998 C993 1.399 . S
C998 C997 1.394 . S
C998 C999 1.516 . S
C999 C998 1.516 . S
C999 C1000 1.502 . S
C999 C1001 1.561 . S
C999 C1002 1.526 . S
C1000 H984 0.959 . S
C1000 H985 0.959 . S
C1000 H986 0.961 . S
C1000 C999 1.502 . S
C1001 H987 0.960 . S
C1001 H988 0.961 . S
C1001 H989 0.959 . S
C1001 C999 1.561 . S
C1002 C999 1.526 . S
C1002 C1003 1.396 . S
C1002 C1007 1.390 1_556 S
C1003 C997 1.465 . S
C1003 C1002 1.396 . S
C1003 C1004 1.399 . S
C1004 H990 0.929 . S
C1004 C1003 1.399 . S
C1004 C1005 1.385 1_556 S
C1005 H991 0.931 . S
C1005 C1004 1.385 1_554 S
C1005 C1006 1.389 . S
C1006 C1005 1.389 . S
C1006 C1007 1.387 . S
C1007 H992 0.930 . S
C1007 C1002 1.390 1_554 S
C1007 C1006 1.387 . S
H1008 C1020 0.930 . S
H1009 C1022 0.930 . S
H1010 C1023 0.930 . S
H1011 C1027 0.959 . S
H1012 C1027 0.959 . S
H1013 C1027 0.961 . S
H1014 C1028 0.960 . S
H1015 C1028 0.961 . S
H1016 C1028 0.959 . S
H1017 C1031 0.929 . S
H1018 C1032 0.931 . S
H1019 C1034 0.930 . S
C1020 H1008 0.930 . S
C1020 C1021 1.399 . S
C1020 C1025 1.399 . S
C1021 C1020 1.399 . S
C1021 C1022 1.376 . S
C1022 H1009 0.930 . S
C1022 C1021 1.376 . S
C1022 C1023 1.388 . S
C1023 H1010 0.930 . S
C1023 C1022 1.388 . S
C1023 C1024 1.390 . S
C1024 C1023 1.390 . S
C1024 C1025 1.394 . S
C1024 C1030 1.465 . S
C1025 C1020 1.399 . S
C1025 C1024 1.394 . S
C1025 C1026 1.516 . S
C1026 C1025 1.516 . S
C1026 C1027 1.502 . S
C1026 C1028 1.561 . S
C1026 C1029 1.526 . S
C1027 H1011 0.959 . S
C1027 H1012 0.959 . S
C1027 H1013 0.961 . S
C1027 C1026 1.502 . S
C1028 H1014 0.960 . S
C1028 H1015 0.961 . S
C1028 H1016 0.959 . S
C1028 C1026 1.561 . S
C1029 C1026 1.526 . S
C1029 C1030 1.396 . S
C1029 C1034 1.390 1_554 S
C1030 C1024 1.465 . S
C1030 C1029 1.396 . S
C1030 C1031 1.399 . S
C1031 H1017 0.929 . S
C1031 C1030 1.399 . S
C1031 C1032 1.385 1_554 S
C1032 H1018 0.931 . S
C1032 C1031 1.385 1_556 S
C1032 C1033 1.389 . S
C1033 C1032 1.389 . S
C1033 C1034 1.387 . S
C1034 H1019 0.930 . S
C1034 C1029 1.390 1_556 S
C1034 C1033 1.387 . S
H1035 C1047 0.930 . S
H1036 C1049 0.930 . S
H1037 C1050 0.930 . S
H1038 C1054 0.959 . S
H1039 C1054 0.959 . S
H1040 C1054 0.961 . S
H1041 C1055 0.960 . S
H1042 C1055 0.961 . S
H1043 C1055 0.959 . S
H1044 C1058 0.929 . S
H1045 C1059 0.931 . S
H1046 C1061 0.930 . S
C1047 H1035 0.930 . S
C1047 C1048 1.399 . S
C1047 C1052 1.399 1_556 S
C1048 C1047 1.399 . S
C1048 C1049 1.376 . S
C1049 H1036 0.930 . S
C1049 C1048 1.376 . S
C1049 C1050 1.388 1_556 S
C1050 H1037 0.930 . S
C1050 C1049 1.388 1_554 S
C1050 C1051 1.390 . S
C1051 C1050 1.390 . S
C1051 C1052 1.394 . S
C1051 C1057 1.465 . S
C1052 C1047 1.399 1_554 S
C1052 C1051 1.394 . S
C1052 C1053 1.516 . S
C1053 C1052 1.516 . S
C1053 C1054 1.502 . S
C1053 C1055 1.561 . S
C1053 C1056 1.526 . S
C1054 H1038 0.959 . S
C1054 H1039 0.959 . S
C1054 H1040 0.961 . S
C1054 C1053 1.502 . S
C1055 H1041 0.960 . S
C1055 H1042 0.961 . S
C1055 H1043 0.959 . S
C1055 C1053 1.561 . S
C1056 C1053 1.526 . S
C1056 C1057 1.396 . S
C1056 C1061 1.390 . S
C1057 C1051 1.465 . S
C1057 C1056 1.396 . S
C1057 C1058 1.399 . S
C1058 H1044 0.929 . S
C1058 C1057 1.399 . S
C1058 C1059 1.385 . S
C1059 H1045 0.931 . S
C1059 C1058 1.385 . S
C1059 C1060 1.389 . S
C1060 C1059 1.389 . S
C1060 C1061 1.387 . S
C1061 H1046 0.930 . S
C1061 C1056 1.390 . S
C1061 C1060 1.387 . S
H1062 C1074 0.930 . S
H1063 C1076 0.930 . S
H1064 C1077 0.930 . S
H1065 C1081 0.959 . S
H1066 C1081 0.959 . S
H1067 C1081 0.961 . S
H1068 C1082 0.960 . S
H1069 C1082 0.961 . S
H1070 C1082 0.959 . S
H1071 C1085 0.929 . S
H1072 C1086 0.931 . S
H1073 C1088 0.930 . S
C1074 H1062 0.930 . S
C1074 C1075 1.399 . S
C1074 C1079 1.399 . S
C1075 C1074 1.399 . S
C1075 C1076 1.376 . S
C1076 H1063 0.930 . S
C1076 C1075 1.376 . S
C1076 C1077 1.388 . S
C1077 H1064 0.930 . S
C1077 C1076 1.388 . S
C1077 C1078 1.390 . S
C1078 C1077 1.390 . S
C1078 C1079 1.394 . S
C1078 C1084 1.465 . S
C1079 C1074 1.399 . S
C1079 C1078 1.394 . S
C1079 C1080 1.516 . S
C1080 C1079 1.516 . S
C1080 C1081 1.502 . S
C1080 C1082 1.561 . S
C1080 C1083 1.526 . S
C1081 H1065 0.959 . S
C1081 H1066 0.959 . S
C1081 H1067 0.961 . S
C1081 C1080 1.502 . S
C1082 H1068 0.960 . S
C1082 H1069 0.961 . S
C1082 H1070 0.959 . S
C1082 C1080 1.561 . S
C1083 C1080 1.526 . S
C1083 C1084 1.396 . S
C1083 C1088 1.390 1_554 S
C1084 C1078 1.465 . S
C1084 C1083 1.396 . S
C1084 C1085 1.399 . S
C1085 H1071 0.929 . S
C1085 C1084 1.399 . S
C1085 C1086 1.385 1_554 S
C1086 H1072 0.931 . S
C1086 C1085 1.385 1_556 S
C1086 C1087 1.389 . S
C1087 C1086 1.389 . S
C1087 C1088 1.387 . S
C1088 H1073 0.930 . S
C1088 C1083 1.390 1_556 S
C1088 C1087 1.387 . S
C373 C19 1.762 . S
C385 C295 1.796 . S
C400 C59 1.725 . S
C412 C335 1.805 . S
C427 C99 1.709 . S
C439 C255 1.816 . S
C454 C179 1.715 . S
C466 C95 1.815 . S
C481 C219 1.709 . S
C493 C15 1.816 . S
C508 C55 1.799 . S
C520 C139 1.742 . S
C535 C299 1.769 . S
C547 C215 1.788 1_455 S
C562 C339 1.748 . S
C574 C135 1.797 . S
C589 C175 1.813 . S
C601 C259 1.712 . S
C616 C89 1.687 . S
C628 C5 1.653 . S
C643 C45 1.679 1_545 S
C655 C9 1.691 . S
C670 C49 1.682 . S
C682 C85 1.682 . S
C697 C125 1.654 . S
C709 C209 1.679 . S
C724 C129 1.688 . S
C736 C165 1.654 . S
C751 C169 1.681 . S
C763 C205 1.678 . S
C778 C329 1.682 . S
C790 C245 1.681 . S
C805 C285 1.648 . S
C817 C249 1.680 . S
C832 C325 1.686 . S
C844 C289 1.687 . S
C859 C18 1.064 . S
C871 C8 1.121 . S
C886 C58 1.144 . S
C898 C48 1.050 . S
C913 C98 1.110 . S
C925 C88 1.074 . S
C940 C128 1.129 . S
C952 C138 1.081 . S
C967 C168 1.093 . S
C979 C178 1.090 . S
C994 C208 1.054 . S
C1006 C218 1.133 . S
C1021 C258 1.131 . S
C1033 C248 1.079 . S
C1048 C288 1.104 . S
C1060 C298 1.080 . S
C1075 C338 1.109 . S
C1087 C328 1.075 . S
