# Generated by pormake.
# Topology una, (4)-cn, num edge types: 1
# Building blocks:
#     Node 0, Type 0, BuildingBlock: TATPOV_clean_sbu_0, # of connection points: 4
#     Node 1, Type 0, BuildingBlock: TATPOV_clean_sbu_0, # of connection points: 4
#     Node 2, Type 0, BuildingBlock: TATPOV_clean_sbu_0, # of connection points: 4
#     Node 3, Type 0, BuildingBlock: TATPOV_clean_sbu_0, # of connection points: 4
#     Node 4, Type 0, BuildingBlock: TATPOV_clean_sbu_0, # of connection points: 4
#     Node 5, Type 0, BuildingBlock: TATPOV_clean_sbu_0, # of connection points: 4
#     Node 6, Type 0, BuildingBlock: TATPOV_clean_sbu_0, # of connection points: 4
#     Node 7, Type 0, BuildingBlock: TATPOV_clean_sbu_0, # of connection points: 4
#     Node 8, Type 0, BuildingBlock: TATPOV_clean_sbu_0, # of connection points: 4
#     Node 9, Type 0, BuildingBlock: TATPOV_clean_sbu_0, # of connection points: 4
#     Node 10, Type 0, BuildingBlock: TATPOV_clean_sbu_0, # of connection points: 4
#     Node 11, Type 0, BuildingBlock: TATPOV_clean_sbu_0, # of connection points: 4
#     Edge 12, Type (0, 0), BuildingBlock: UVAHIK_clean_linker_0, # of connection points: 2
#     Edge 13, Type (0, 0), BuildingBlock: UVAHIK_clean_linker_0, # of connection points: 2
#     Edge 14, Type (0, 0), BuildingBlock: UVAHIK_clean_linker_0, # of connection points: 2
#     Edge 15, Type (0, 0), BuildingBlock: UVAHIK_clean_linker_0, # of connection points: 2
#     Edge 16, Type (0, 0), BuildingBlock: UVAHIK_clean_linker_0, # of connection points: 2
#     Edge 17, Type (0, 0), BuildingBlock: UVAHIK_clean_linker_0, # of connection points: 2
#     Edge 18, Type (0, 0), BuildingBlock: UVAHIK_clean_linker_0, # of connection points: 2
#     Edge 19, Type (0, 0), BuildingBlock: UVAHIK_clean_linker_0, # of connection points: 2
#     Edge 20, Type (0, 0), BuildingBlock: UVAHIK_clean_linker_0, # of connection points: 2
#     Edge 21, Type (0, 0), BuildingBlock: UVAHIK_clean_linker_0, # of connection points: 2
#     Edge 22, Type (0, 0), BuildingBlock: UVAHIK_clean_linker_0, # of connection points: 2
#     Edge 23, Type (0, 0), BuildingBlock: UVAHIK_clean_linker_0, # of connection points: 2
#     Edge 24, Type (0, 0), BuildingBlock: UVAHIK_clean_linker_0, # of connection points: 2
#     Edge 25, Type (0, 0), BuildingBlock: UVAHIK_clean_linker_0, # of connection points: 2
#     Edge 26, Type (0, 0), BuildingBlock: UVAHIK_clean_linker_0, # of connection points: 2
#     Edge 27, Type (0, 0), BuildingBlock: UVAHIK_clean_linker_0, # of connection points: 2
#     Edge 28, Type (0, 0), BuildingBlock: UVAHIK_clean_linker_0, # of connection points: 2
#     Edge 29, Type (0, 0), BuildingBlock: UVAHIK_clean_linker_0, # of connection points: 2
#     Edge 30, Type (0, 0), BuildingBlock: UVAHIK_clean_linker_0, # of connection points: 2
#     Edge 31, Type (0, 0), BuildingBlock: UVAHIK_clean_linker_0, # of connection points: 2
#     Edge 32, Type (0, 0), BuildingBlock: UVAHIK_clean_linker_0, # of connection points: 2
#     Edge 33, Type (0, 0), BuildingBlock: UVAHIK_clean_linker_0, # of connection points: 2
#     Edge 34, Type (0, 0), BuildingBlock: UVAHIK_clean_linker_0, # of connection points: 2
#     Edge 35, Type (0, 0), BuildingBlock: UVAHIK_clean_linker_0, # of connection points: 2
# Relax obj value: 0.133
# Max RMSD: 0.163
# Mean RMSD: 0.163
data_MOF--net-una--node1-TATPOV_clean_sbu_0--edge1-UVAHIK_clean_linker_0
_symmetry_space_group_name_H-M    P1
_symmetry_Int_Tables_number       1
_symmetry_cell_setting            triclinic
loop_
_symmetry_equiv_pos_as_xyz
'x, y, z'
_cell_length_a     76.317427
_cell_length_b     76.157874
_cell_length_c     26.226025
_cell_angle_alpha  90.046383
_cell_angle_beta   90.018109
_cell_angle_gamma 119.87002
loop_
_atom_site_label
_atom_site_type_symbol
_atom_site_fract_x
_atom_site_fract_y
_atom_site_fract_z
_atom_type_partial_charge
Zn0 Zn 0.15254 0.44795 0.10683 0.0
Zn1 Zn 0.11647 0.42616 0.07173 0.0
O2 O 0.13333 0.42625 0.0108 0.0
O3 O 0.16326 0.43928 0.04706 0.0
O4 O 0.0883 0.41014 0.04464 0.0
O5 O 0.15089 0.47331 0.10534 0.0
O6 O 0.11864 0.45376 0.08821 0.0
C7 C 0.15179 0.43084 0.00923 0.0
C8 C 0.1299 0.414 0.16879 0.0
O9 O 0.11779 0.40899 0.13109 0.0
O10 O 0.14525 0.43152 0.17077 0.0
C11 C 0.08177 0.39245 0.02681 0.0
O12 O 0.09336 0.38425 0.02896 0.0
C13 C 0.13352 0.47118 0.09878 0.0
Zn14 Zn 0.69299 0.15625 0.24491 0.0
Zn15 Zn 0.68252 0.12077 0.21291 0.0
O16 O 0.69801 0.13842 0.1512 0.0
O17 O 0.713 0.16844 0.18774 0.0
O18 O 0.67377 0.09258 0.18843 0.0
O19 O 0.66503 0.15175 0.23832 0.0
O20 O 0.65526 0.11948 0.22922 0.0
C21 C 0.71083 0.15726 0.14984 0.0
C22 C 0.7068 0.13708 0.31104 0.0
O23 O 0.70158 0.12486 0.27351 0.0
O24 O 0.70239 0.15103 0.3114 0.0
C25 C 0.68552 0.08903 0.16155 0.0
O26 O 0.70378 0.1039 0.15125 0.0
C27 C 0.65098 0.13354 0.2352 0.0
Zn28 Zn 0.53352 0.69795 0.43558 0.0
Zn29 Zn 0.55795 0.68698 0.39949 0.0
O30 O 0.55635 0.70438 0.34193 0.0
O31 O 0.54028 0.7182 0.37891 0.0
O32 O 0.57582 0.67758 0.36804 0.0
O33 O 0.50983 0.66999 0.42981 0.0
O34 O 0.53162 0.65983 0.41361 0.0
C35 C 0.54986 0.71688 0.34112 0.0
C36 C 0.56754 0.71031 0.49957 0.0
O37 O 0.57376 0.70453 0.46151 0.0
O38 O 0.54957 0.70702 0.5004 0.0
C39 C 0.59495 0.68817 0.36523 0.0
O40 O 0.60427 0.70624 0.38621 0.0
C41 C 0.51355 0.65575 0.42247 0.0
Zn42 Zn 0.81102 0.52705 0.60161 0.0
Zn43 Zn 0.86786 0.55989 0.56143 0.0
O44 O 0.85372 0.56203 0.49717 0.0
O45 O 0.82565 0.54365 0.53851 0.0
O46 O 0.89696 0.57156 0.54125 0.0
O47 O 0.82295 0.50889 0.61235 0.0
O48 O 0.8552 0.52936 0.58652 0.0
C49 C 0.83464 0.55391 0.4994 0.0
C50 C 0.84712 0.56936 0.6244 0.0
O51 O 0.86581 0.57893 0.61508 0.0
O52 O 0.8374 0.55221 0.60395 0.0
C53 C 0.90641 0.59058 0.53386 0.0
O54 O 0.89712 0.60085 0.54338 0.0
C55 C 0.84091 0.5123 0.60357 0.0
Zn56 Zn 0.28754 0.83382 0.75922 0.0
Zn57 Zn 0.29847 0.86842 0.72192 0.0
O58 O 0.28018 0.84947 0.6653 0.0
O59 O 0.26578 0.82039 0.70606 0.0
O60 O 0.30821 0.89582 0.6909 0.0
O61 O 0.31449 0.83613 0.7494 0.0
O62 O 0.32537 0.86833 0.73472 0.0
C63 C 0.26691 0.83075 0.66724 0.0
C64 C 0.27661 0.85602 0.82391 0.0
O65 O 0.28135 0.86721 0.78443 0.0
O66 O 0.28056 0.84176 0.82578 0.0
C67 C 0.29743 0.90418 0.68664 0.0
O68 O 0.279 0.89504 0.70523 0.0
C69 C 0.32897 0.85386 0.74202 0.0
Zn70 Zn 0.4434 0.28965 0.93507 0.0
Zn71 Zn 0.42018 0.30135 0.89812 0.0
O72 O 0.42284 0.28584 0.83751 0.0
O73 O 0.43669 0.27016 0.87639 0.0
O74 O 0.40189 0.31119 0.87063 0.0
O75 O 0.4677 0.31709 0.93308 0.0
O76 O 0.44677 0.32819 0.91538 0.0
C77 C 0.42848 0.27267 0.83726 0.0
C78 C 0.40905 0.27497 -0.00554 0.0
O79 O 0.4035 0.28112 0.95577 0.0
O80 O 0.42734 0.2796 -0.00091 0.0
C81 C 0.38683 0.29961 0.84287 0.0
O82 O 0.38292 0.28099 0.83439 0.0
C83 C 0.46458 0.33172 0.92591 0.0
Zn84 Zn 0.53529 0.83136 0.80396 0.0
Zn85 Zn 0.55759 0.86643 0.84572 0.0
O86 O 0.55512 0.84736 0.90401 0.0
O87 O 0.54024 0.818 0.86439 0.0
O88 O 0.57458 0.89401 0.87656 0.0
O89 O 0.51111 0.83478 0.80133 0.0
O90 O 0.53087 0.86608 0.8271 0.0
C91 C 0.54869 0.8284 0.90384 0.0
C92 C 0.5713 0.85424 0.74887 0.0
O93 O 0.57562 0.86568 0.78778 0.0
O94 O 0.55377 0.83913 0.74381 0.0
C95 C 0.58998 0.89781 0.90323 0.0
O96 O 0.59481 0.88362 0.90939 0.0
C97 C 0.51363 0.85209 0.81179 0.0
Zn98 Zn 0.6912 0.53356 -0.00022 0.0
Zn99 Zn 0.68123 0.55903 0.03028 0.0
O100 O 0.69689 0.55746 0.09212 0.0
O101 O 0.71118 0.54147 0.05707 0.0
O102 O 0.67279 0.57881 0.0539 0.0
O103 O 0.66325 0.51026 0.00671 0.0
O104 O 0.65377 0.53301 0.0152 0.0
C105 C 0.7095 0.55115 0.09414 0.0
C106 C 0.70568 0.56607 0.93273 0.0
O107 O 0.70048 0.57335 0.9697 0.0
O108 O 0.70085 0.5476 0.93275 0.0
C109 C 0.68549 0.59573 0.07337 0.0
O110 O 0.70459 0.60064 0.07611 0.0
C111 C 0.64931 0.51459 0.00981 0.0
Zn112 Zn 0.15441 0.70017 0.14378 0.0
Zn113 Zn 0.11801 0.68759 0.17385 0.0
O114 O 0.13462 0.70533 0.23421 0.0
O115 O 0.16534 0.71978 0.20242 0.0
O116 O 0.08963 0.6756 0.1991 0.0
O117 O 0.15207 0.673 0.14988 0.0
O118 O 0.11966 0.66157 0.16156 0.0
C119 C 0.1534 0.71813 0.23796 0.0
C120 C 0.13282 0.71143 0.0755 0.0
O121 O 0.11998 0.70508 0.11164 0.0
O122 O 0.14809 0.70907 0.07764 0.0
C123 C 0.08173 0.68596 0.21394 0.0
O124 O 0.09212 0.70579 0.21019 0.0
C125 C 0.13435 0.65829 0.15538 0.0
Zn126 Zn 0.44747 0.15632 0.30857 0.0
Zn127 Zn 0.42379 0.12146 0.34977 0.0
O128 O 0.42575 0.14111 0.40624 0.0
O129 O 0.4429 0.17048 0.36752 0.0
O130 O 0.40627 0.09422 0.38162 0.0
O131 O 0.47105 0.15202 0.30806 0.0
O132 O 0.45043 0.12107 0.33472 0.0
C133 C 0.43327 0.16026 0.4061 0.0
C134 C 0.41203 0.1336 0.24992 0.0
O135 O 0.40684 0.12191 0.2885 0.0
O136 O 0.42959 0.14883 0.24731 0.0
C137 C 0.3896 0.08972 0.40293 0.0
O138 O 0.38346 0.10306 0.40316 0.0
C139 C 0.46794 0.13461 0.31987 0.0
Zn140 Zn 0.28636 0.45563 0.48546 0.0
Zn141 Zn 0.2963 0.42902 0.51657 0.0
O142 O 0.27871 0.42958 0.57539 0.0
O143 O 0.26814 0.44975 0.54616 0.0
O144 O 0.3049 0.40942 0.54204 0.0
O145 O 0.31489 0.47806 0.48721 0.0
O146 O 0.32386 0.45547 0.50546 0.0
C147 C 0.26787 0.43789 0.58032 0.0
C148 C 0.27182 0.42191 0.41847 0.0
O149 O 0.27869 0.41522 0.45311 0.0
O150 O 0.27467 0.43973 0.42132 0.0
C151 C 0.29307 0.394 0.56838 0.0
O152 O 0.27455 0.39022 0.57695 0.0
C153 C 0.3286 0.47371 0.49545 0.0
Zn154 Zn 0.80974 0.28137 0.66438 0.0
Zn155 Zn 0.86904 0.3044 0.68162 0.0
O156 O 0.85859 0.28651 0.74567 0.0
O157 O 0.8322 0.28191 0.70594 0.0
O158 O 0.8986 0.32185 0.69525 0.0
O159 O 0.82149 0.31204 0.66486 0.0
O160 O 0.85481 0.3223 0.67307 0.0
C161 C 0.83954 0.27757 0.74375 0.0
C162 C 0.84525 0.27564 0.61497 0.0
O163 O 0.8642 0.28504 0.62128 0.0
O164 O 0.83553 0.28188 0.64121 0.0
C165 C 0.90826 0.31235 0.70018 0.0
O166 O 0.89896 0.29288 0.68981 0.0
C167 C 0.84012 0.32598 0.66794 0.0
C168 C 0.12839 0.3811 0.18171 0.0
C169 C 0.12966 0.39862 0.20304 0.0
C170 C 0.13741 0.37136 0.20652 0.0
C171 C 0.17831 0.37665 0.23565 0.0
H172 H 0.18637 0.37372 0.38058 0.0
C173 C 0.25403 0.41621 0.33562 0.0
C174 C 0.25703 0.40814 0.38073 0.0
C175 C 0.23613 0.40545 0.30805 0.0
C176 C 0.18411 0.37392 0.33985 0.0
H177 H 0.13827 0.41779 0.2699 0.0
H178 H 0.15334 0.40048 0.31398 0.0
H179 H 0.15457 0.37019 0.34991 0.0
H180 H 0.24471 0.3817 0.42953 0.0
H181 H 0.21317 0.36293 0.38148 0.0
H182 H 0.20852 0.38218 0.22596 0.0
C183 C 0.14577 0.39435 0.27797 0.0
C184 C 0.16593 0.37199 0.32239 0.0
C185 C 0.13711 0.40429 0.2528 0.0
C186 C 0.2428 0.38824 0.39475 0.0
C187 C 0.2247 0.37756 0.36754 0.0
C188 C 0.19656 0.37878 0.25315 0.0
C189 C 0.14739 0.37881 0.25332 0.0
C190 C 0.16323 0.37428 0.27035 0.0
C191 C 0.2208 0.38652 0.32544 0.0
C192 C 0.19998 0.37839 0.30561 0.0
H193 H 0.12282 0.37651 0.14319 0.0
H194 H 0.13828 0.35929 0.18696 0.0
H195 H 0.17681 0.37874 0.19535 0.0
H196 H 0.26478 0.43152 0.32399 0.0
H197 H 0.23355 0.41283 0.27595 0.0
C198 C 0.84511 0.25151 0.54926 0.0
C199 C 0.83463 0.25727 0.58327 0.0
C200 C 0.83475 0.2333 0.52199 0.0
C201 C 0.78789 0.18378 0.52527 0.0
H202 H 0.78925 0.18615 0.37767 0.0
C203 C 0.71945 0.14325 0.3997 0.0
C204 C 0.7212 0.138 0.34952 0.0
C205 C 0.73605 0.1511 0.43237 0.0
C206 C 0.7891 0.18494 0.41883 0.0
H207 H 0.80524 0.24853 0.61566 0.0
H208 H 0.78736 0.217 0.56859 0.0
H209 H 0.81453 0.21485 0.42676 0.0
H210 H 0.74093 0.13506 0.29513 0.0
H211 H 0.77026 0.14919 0.35225 0.0
H212 H 0.76166 0.15447 0.51747 0.0
C213 C 0.80352 0.22638 0.56307 0.0
C214 C 0.80354 0.20144 0.4469 0.0
C215 C 0.81373 0.24459 0.58953 0.0
C216 C 0.7392 0.13881 0.33396 0.0
C217 C 0.756 0.14706 0.36642 0.0
C218 C 0.7735 0.1673 0.49727 0.0
C219 C 0.8139 0.22047 0.52931 0.0
C220 C 0.80237 0.20139 0.50029 0.0
C221 C 0.75482 0.15418 0.41504 0.0
C222 C 0.77331 0.16817 0.44382 0.0
H223 H 0.86124 0.26101 0.54387 0.0
H224 H 0.84303 0.22912 0.49579 0.0
H225 H 0.78692 0.18327 0.56651 0.0
H226 H 0.70574 0.14286 0.4123 0.0
H227 H 0.73466 0.15659 0.46941 0.0
C228 C 0.5746 0.7263 0.58483 0.0
C229 C 0.58181 0.7251 0.53649 0.0
C230 C 0.58347 0.74464 0.61115 0.0
C231 C 0.58615 0.78533 0.59479 0.0
H232 H 0.63481 0.8268 0.66035 0.0
C233 C 0.58395 0.85273 0.66334 0.0
C234 C 0.58717 0.8549 0.71611 0.0
C235 C 0.59254 0.84361 0.63424 0.0
C236 C 0.62124 0.81542 0.64153 0.0
H237 H 0.60575 0.74104 0.48138 0.0
H238 H 0.62111 0.7733 0.52736 0.0
H239 H 0.6328 0.79488 0.63249 0.0
H240 H 0.60389 0.85194 0.77893 0.0
H241 H 0.61815 0.83517 0.7288 0.0
H242 H 0.57401 0.80483 0.60465 0.0
C243 C 0.60874 0.76005 0.54493 0.0
C244 C 0.62012 0.79723 0.62584 0.0
C245 C 0.59994 0.74156 0.5187 0.0
C246 C 0.60134 0.85053 0.7381 0.0
C247 C 0.60948 0.84085 0.70928 0.0
C248 C 0.58729 0.80334 0.60984 0.0
C249 C 0.59959 0.76199 0.58932 0.0
C250 C 0.6023 0.78191 0.60361 0.0
C251 C 0.60374 0.83578 0.65802 0.0
C252 C 0.60468 0.81853 0.63425 0.0
H253 H 0.56069 0.71378 0.59943 0.0
H254 H 0.57622 0.74585 0.64544 0.0
H255 H 0.57233 0.77376 0.57714 0.0
H256 H 0.57308 0.85603 0.64565 0.0
H257 H 0.5884 0.84053 0.59437 0.0
C258 C 0.84646 0.59097 0.69599 0.0
C259 C 0.83675 0.57743 0.65562 0.0
C260 C 0.83581 0.59789 0.72559 0.0
C261 C 0.79015 0.60317 0.72361 0.0
H262 H 0.78731 0.59305 0.869 0.0
C263 C 0.71947 0.57286 0.84509 0.0
C264 C 0.72094 0.57936 0.89571 0.0
C265 C 0.73651 0.58122 0.81387 0.0
C266 C 0.78835 0.59656 0.8287 0.0
H267 H 0.80876 0.56107 0.6131 0.0
H268 H 0.79042 0.57326 0.66387 0.0
H269 H 0.81301 0.59101 0.81799 0.0
H270 H 0.74081 0.60051 0.95272 0.0
H271 H 0.7709 0.61482 0.89827 0.0
H272 H 0.76448 0.60715 0.73378 0.0
C273 C 0.80611 0.57854 0.67307 0.0
C274 C 0.80304 0.59536 0.79952 0.0
C275 C 0.81654 0.57135 0.64439 0.0
C276 C 0.73928 0.59552 0.91344 0.0
C277 C 0.7565 0.60355 0.88257 0.0
C278 C 0.77541 0.60426 0.7527 0.0
C279 C 0.81555 0.59177 0.71415 0.0
C280 C 0.80348 0.59779 0.74639 0.0
C281 C 0.75538 0.59587 0.83325 0.0
C282 C 0.77388 0.60016 0.80514 0.0
H283 H 0.86204 0.59581 0.70528 0.0
H284 H 0.84337 0.60799 0.7573 0.0
H285 H 0.79038 0.60542 0.68278 0.0
H286 H 0.70552 0.56024 0.83096 0.0
H287 H 0.73527 0.57488 0.77616 0.0
C288 C 0.24393 0.85419 0.84218 0.0
C289 C 0.26174 0.85531 0.86074 0.0
C290 C 0.22585 0.84343 0.86946 0.0
C291 C 0.18867 0.81611 0.94041 0.0
H292 H 0.19037 0.76634 0.95627 0.0
C293 C 0.13425 0.74372 0.05431 0.0
C294 C 0.13329 0.72576 0.03737 0.0
C295 C 0.14457 0.76144 0.02539 0.0
C296 C 0.18947 0.78 0.95139 0.0
H297 H 0.27562 0.8496 0.92576 0.0
H298 H 0.24433 0.83151 0.97409 0.0
H299 H 0.22058 0.79697 0.93135 0.0
H300 H 0.139 0.71114 0.97395 0.0
H301 H 0.15608 0.74175 0.92241 0.0
H302 H 0.15727 0.79869 0.96153 0.0
C303 C 0.2441 0.83834 0.93804 0.0
C304 C 0.20694 0.79768 0.93811 0.0
C305 C 0.26204 0.84881 0.91058 0.0
C306 C 0.13963 0.72487 0.98777 0.0
C307 C 0.14956 0.74243 0.95854 0.0
C308 C 0.17104 0.79826 0.95467 0.0
C309 C 0.22563 0.83402 0.91565 0.0
C310 C 0.20683 0.81596 0.93284 0.0
C311 C 0.15372 0.76118 0.97915 0.0
C312 C 0.17132 0.78 0.9599 0.0
H313 H 0.24331 0.85904 0.80372 0.0
H314 H 0.21183 0.84038 0.85149 0.0
H315 H 0.18819 0.83 0.9359 0.0
H316 H 0.12958 0.74477 0.09267 0.0
H317 H 0.14747 0.77566 0.04211 0.0
C318 C 0.4026 0.13609 0.16141 0.0
C319 C 0.39709 0.13254 0.21295 0.0
C320 C 0.39419 0.14465 0.12975 0.0
C321 C 0.36049 0.16689 0.12174 0.0
H322 H 0.4106 0.21478 0.08344 0.0
C323 C 0.39923 0.25721 0.07724 0.0
C324 C 0.39428 0.25821 0.02622 0.0
C325 C 0.39157 0.23851 0.10138 0.0
C326 C 0.39647 0.20148 0.09378 0.0
H327 H 0.37664 0.13239 0.27029 0.0
H328 H 0.36228 0.14789 0.21529 0.0
H329 H 0.41134 0.18512 0.11368 0.0
H330 H 0.37553 0.24088 0.96253 0.0
H331 H 0.36228 0.20804 0.00484 0.0
H332 H 0.34586 0.18398 0.10191 0.0
C333 C 0.3728 0.14381 0.19896 0.0
C334 C 0.39682 0.18436 0.11039 0.0
C335 C 0.38099 0.13487 0.23047 0.0
C336 C 0.37935 0.24053 0.00217 0.0
C337 C 0.37182 0.22171 0.02625 0.0
C338 C 0.36011 0.18413 0.10411 0.0
C339 C 0.38056 0.15025 0.14965 0.0
C340 C 0.37892 0.16692 0.12517 0.0
C341 C 0.37899 0.22056 0.07468 0.0
C342 C 0.37823 0.20167 0.09121 0.0
H343 H 0.415 0.13438 0.14716 0.0
H344 H 0.40013 0.14909 0.0915 0.0
H345 H 0.34651 0.15369 0.13328 0.0
H346 H 0.41077 0.27062 0.09642 0.0
H347 H 0.39726 0.23792 0.13884 0.0
C348 C 0.14729 0.50778 0.11795 0.0
C349 C 0.1308 0.48902 0.10366 0.0
C350 C 0.1452 0.52486 0.12207 0.0
C351 C 0.10893 0.54239 0.14087 0.0
H352 H 0.15275 0.59226 0.08599 0.0
C353 C 0.11198 0.62082 0.14201 0.0
C354 C 0.13102 0.63747 0.15369 0.0
C355 C 0.10971 0.60151 0.13574 0.0
C356 C 0.14045 0.57849 0.10181 0.0
H357 H 0.09903 0.47344 0.08311 0.0
H358 H 0.09542 0.50361 0.09015 0.0
H359 H 0.15279 0.56069 0.07333 0.0
H360 H 0.1622 0.64676 0.17173 0.0
H361 H 0.15816 0.61326 0.16181 0.0
H362 H 0.09681 0.56052 0.17002 0.0
C363 C 0.10992 0.5049 0.09837 0.0
C364 C 0.14046 0.56041 0.09447 0.0
C365 C 0.11203 0.48769 0.09416 0.0
C366 C 0.14743 0.63431 0.16165 0.0
C367 C 0.14514 0.61513 0.1558 0.0
C368 C 0.10893 0.56062 0.14828 0.0
C369 C 0.12659 0.52368 0.11186 0.0
C370 C 0.125 0.54226 0.11501 0.0
C371 C 0.12644 0.59864 0.14132 0.0
C372 C 0.125 0.57891 0.12993 0.0
H373 H 0.16193 0.50936 0.126 0.0
H374 H 0.15821 0.53904 0.13353 0.0
H375 H 0.09683 0.52859 0.15713 0.0
H376 H 0.09905 0.62284 0.13587 0.0
H377 H 0.09511 0.58904 0.12468 0.0
C378 C 0.62553 0.1448 0.23596 0.0
C379 C 0.6299 0.12903 0.24128 0.0
C380 C 0.60645 0.14172 0.24778 0.0
C381 C 0.55322 0.10509 0.26529 0.0
H382 H 0.55536 0.14812 0.34915 0.0
C383 C 0.48246 0.11126 0.32645 0.0
C384 C 0.48494 0.13051 0.31628 0.0
C385 C 0.49896 0.10797 0.32261 0.0
C386 C 0.55449 0.13594 0.32592 0.0
H387 H 0.61732 0.0973 0.26035 0.0
H388 H 0.58357 0.09191 0.2813 0.0
H389 H 0.58636 0.14775 0.33004 0.0
H390 H 0.50667 0.16131 0.2938 0.0
H391 H 0.535 0.15556 0.28724 0.0
H392 H 0.52125 0.09376 0.25985 0.0
C393 C 0.59512 0.10665 0.26802 0.0
C394 C 0.57222 0.13574 0.31492 0.0
C395 C 0.61437 0.10973 0.25603 0.0
C396 C 0.50414 0.1463 0.30219 0.0
C397 C 0.52048 0.14306 0.2987 0.0
C398 C 0.53534 0.1053 0.2763 0.0
C399 C 0.59124 0.12283 0.26541 0.0
C400 C 0.57188 0.12078 0.28298 0.0
C401 C 0.51815 0.12395 0.30914 0.0
C402 C 0.53599 0.12119 0.30517 0.0
H403 H 0.63703 0.15975 0.22379 0.0
H404 H 0.6037 0.15432 0.24413 0.0
H405 H 0.55258 0.09334 0.24073 0.0
H406 H 0.46785 0.09878 0.33732 0.0
H407 H 0.4968 0.09308 0.33082 0.0
C408 C 0.36612 0.48615 0.4948 0.0
C409 C 0.34997 0.49012 0.49319 0.0
C410 C 0.38616 0.5021 0.49123 0.0
C411 C 0.41665 0.55711 0.51118 0.0
H412 H 0.45271 0.55759 0.40621 0.0
C413 C 0.47681 0.63075 0.42747 0.0
C414 C 0.49682 0.63459 0.42656 0.0
C415 C 0.46089 0.61136 0.43709 0.0
C416 C 0.44291 0.5575 0.43623 0.0
H417 H 0.34229 0.51395 0.487 0.0
H418 H 0.37679 0.54133 0.48103 0.0
H419 H 0.42089 0.52617 0.42406 0.0
H420 H 0.51571 0.6208 0.43188 0.0
H421 H 0.48749 0.58652 0.44886 0.0
H422 H 0.43799 0.58847 0.52199 0.0
C423 C 0.37412 0.52604 0.48535 0.0
C424 C 0.42479 0.53957 0.44652 0.0
C425 C 0.35428 0.51026 0.48845 0.0
C426 C 0.50045 0.61831 0.43265 0.0
C427 C 0.48436 0.59874 0.44231 0.0
C428 C 0.43458 0.57489 0.50085 0.0
C429 C 0.39028 0.5222 0.4868 0.0
C430 C 0.41116 0.53949 0.48275 0.0
C431 C 0.46453 0.5953 0.4461 0.0
C432 C 0.4475 0.57548 0.462 0.0
H433 H 0.36328 0.47078 0.49833 0.0
H434 H 0.3984 0.49877 0.49242 0.0
H435 H 0.40661 0.55737 0.53999 0.0
H436 H 0.47342 0.64284 0.42195 0.0
H437 H 0.44568 0.609 0.43859 0.0
C438 C 0.85984 0.49371 0.5871 0.0
C439 C 0.84496 0.49564 0.61398 0.0
C440 C 0.86192 0.4766 0.59418 0.0
C441 C 0.8315 0.42373 0.63536 0.0
H442 H 0.8824 0.42429 0.64792 0.0
C443 C 0.83177 0.35222 0.69395 0.0
C444 C 0.84451 0.34709 0.66733 0.0
C445 C 0.83426 0.37155 0.68969 0.0
C446 C 0.86809 0.4239 0.644 0.0
H447 H 0.82151 0.48196 0.67148 0.0
H448 H 0.82543 0.45259 0.68451 0.0
H449 H 0.88237 0.45617 0.63494 0.0
H450 H 0.87037 0.35818 0.6171 0.0
H451 H 0.87429 0.39203 0.60777 0.0
H452 H 0.8171 0.39171 0.64377 0.0
C453 C 0.83508 0.46386 0.65693 0.0
C454 C 0.86809 0.44212 0.63656 0.0
C455 C 0.83289 0.48073 0.64958 0.0
C456 C 0.86038 0.36188 0.63799 0.0
C457 C 0.86264 0.38121 0.63284 0.0
C458 C 0.8315 0.40565 0.64259 0.0
C459 C 0.84923 0.46132 0.62842 0.0
C460 C 0.84975 0.4422 0.63311 0.0
C461 C 0.84923 0.38605 0.65763 0.0
C462 C 0.84975 0.40551 0.64795 0.0
H463 H 0.86928 0.50497 0.55927 0.0
H464 H 0.87291 0.47497 0.57157 0.0
H465 H 0.81712 0.42322 0.63144 0.0
H466 H 0.81966 0.34115 0.71759 0.0
H467 H 0.82409 0.37497 0.71064 0.0
C468 C 0.36635 0.87661 0.75585 0.0
C469 C 0.34985 0.85744 0.74421 0.0
C470 C 0.38556 0.87893 0.76416 0.0
C471 C 0.40795 0.84832 0.80492 0.0
H472 H 0.45844 0.89084 0.74936 0.0
C473 C 0.4773 0.83935 0.79242 0.0
C474 C 0.49626 0.85557 0.80658 0.0
C475 C 0.46061 0.84201 0.78803 0.0
C476 C 0.44447 0.87908 0.76578 0.0
H477 H 0.34081 0.82609 0.7282 0.0
H478 H 0.3741 0.83021 0.74174 0.0
H479 H 0.42694 0.89128 0.73322 0.0
H480 H 0.51256 0.88744 0.82665 0.0
H481 H 0.48305 0.89209 0.81868 0.0
H482 H 0.42514 0.83585 0.83659 0.0
C483 C 0.37219 0.84331 0.74608 0.0
C484 C 0.42649 0.87931 0.75648 0.0
C485 C 0.35312 0.84098 0.73811 0.0
C486 C 0.49815 0.87465 0.81573 0.0
C487 C 0.48132 0.87734 0.81101 0.0
C488 C 0.42579 0.84809 0.81415 0.0
C489 C 0.38847 0.86213 0.76078 0.0
C490 C 0.40798 0.86357 0.77473 0.0
C491 C 0.46235 0.86094 0.79761 0.0
C492 C 0.44415 0.86311 0.79347 0.0
H493 H 0.36425 0.88956 0.76068 0.0
H494 H 0.39789 0.89363 0.77527 0.0
H495 H 0.39399 0.83628 0.82067 0.0
H496 H 0.47523 0.82445 0.78484 0.0
H497 H 0.44627 0.82917 0.77672 0.0
C498 C 0.47946 0.3697 0.92373 0.0
C499 C 0.48187 0.35265 0.92957 0.0
C500 C 0.49621 0.3893 0.92754 0.0
C501 C 0.55197 0.41649 0.91921 0.0
H502 H 0.55088 0.45651 0.00878 0.0
C503 C 0.62373 0.47794 0.0089 0.0
C504 C 0.62815 0.49812 0.00424 0.0
C505 C 0.60455 0.46204 -0.00259 0.0
C506 C 0.55128 0.44558 0.98305 0.0
H507 H 0.50379 0.34292 0.94393 0.0
H508 H 0.53254 0.37668 0.95079 0.0
H509 H 0.51939 0.425 0.98974 0.0
H510 H 0.61554 0.51742 0.98681 0.0
H511 H 0.58161 0.48923 0.96664 0.0
H512 H 0.58382 0.43651 0.91401 0.0
C513 C 0.51789 0.37505 0.94262 0.0
C514 C 0.5333 0.42761 0.97206 0.0
C515 C 0.5013 0.35563 0.93906 0.0
C516 C 0.61257 0.50201 0.99059 0.0
C517 C 0.59321 0.48595 0.97904 0.0
C518 C 0.56982 0.43428 0.93033 0.0
C519 C 0.51561 0.39212 0.93673 0.0
C520 C 0.53363 0.41259 0.94146 0.0
C521 C 0.58928 0.46586 0.98092 0.0
C522 C 0.56977 0.44867 0.96371 0.0
H523 H 0.4647 0.36791 0.91633 0.0
H524 H 0.49404 0.40222 0.92277 0.0
H525 H 0.55263 0.40543 0.89452 0.0
H526 H 0.63526 0.47439 0.02022 0.0
H527 H 0.60177 0.44667 0.00042 0.0
C528 C 0.25382 0.42036 0.66391 0.0
C529 C 0.25409 0.43295 0.62434 0.0
C530 C 0.24039 0.41552 0.70475 0.0
C531 C 0.19318 0.41377 0.74411 0.0
H532 H 0.21692 0.42553 0.87915 0.0
C533 C 0.15537 0.42931 0.91492 0.0
C534 C 0.15983 0.42569 0.96431 0.0
C535 C 0.16458 0.42598 0.87279 0.0
C536 C 0.20978 0.42163 0.84203 0.0
H537 H 0.24019 0.44998 0.59624 0.0
H538 H 0.21693 0.44154 0.66733 0.0
H539 H 0.23719 0.42681 0.80656 0.0
H540 H 0.1759 0.41429 0.0088 0.0
H541 H 0.191 0.40727 0.93548 0.0
H542 H 0.16575 0.40859 0.77935 0.0
C543 C 0.22697 0.43532 0.6666 0.0
C544 C 0.22151 0.42246 0.80033 0.0
C545 C 0.24048 0.44032 0.62615 0.0
C546 C 0.17261 0.41758 0.97095 0.0
C547 C 0.18133 0.41369 0.9289 0.0
C548 C 0.18131 0.41262 0.78595 0.0
C549 C 0.22686 0.42297 0.70639 0.0
C550 C 0.2135 0.4191 0.75088 0.0
C551 C 0.17799 0.41845 0.87932 0.0
C552 C 0.18963 0.41709 0.83536 0.0
H553 H 0.264 0.41431 0.66344 0.0
H554 H 0.24055 0.40592 0.735 0.0
H555 H 0.18658 0.41085 0.70631 0.0
H556 H 0.1455 0.43556 0.90908 0.0
H557 H 0.16178 0.4301 0.83542 0.0
C558 C 0.71633 0.163 0.05602 0.0
C559 C 0.72412 0.16616 0.10567 0.0
C560 C 0.72906 0.17345 0.01511 0.0
C561 C 0.7788 0.21934 0.99094 0.0
H562 H 0.77058 0.19807 0.85329 0.0
C563 C 0.83514 0.26118 0.82889 0.0
C564 C 0.82661 0.26359 0.78387 0.0
C565 C 0.82278 0.24811 0.86703 0.0
C566 C 0.77297 0.20416 0.89161 0.0
H567 H 0.75118 0.18125 0.15178 0.0
H568 H 0.77361 0.19844 0.08053 0.0
H569 H 0.74884 0.17664 0.92202 0.0
H570 H 0.79857 0.25396 0.74282 0.0
H571 H 0.77699 0.23103 0.80956 0.0
H572 H 0.80313 0.2467 0.96061 0.0
C573 C 0.75763 0.18887 0.07291 0.0
C574 C 0.76049 0.19195 0.93094 0.0
C575 C 0.74485 0.17891 0.11371 0.0
C576 C 0.80555 0.25245 0.77727 0.0
C577 C 0.79321 0.23923 0.81521 0.0
C578 C 0.79142 0.23137 0.95188 0.0
C579 C 0.74984 0.18682 0.02328 0.0
C580 C 0.76324 0.19942 0.98114 0.0
C581 C 0.80171 0.23707 0.86056 0.0
C582 C 0.78859 0.22394 0.90188 0.0
H583 H 0.70031 0.15322 0.04922 0.0
H584 H 0.72247 0.1716 0.97756 0.0
H585 H 0.78107 0.22587 0.02871 0.0
H586 H 0.85134 0.26952 0.83486 0.0
H587 H 0.82969 0.24658 0.90159 0.0
C588 C 0.556 0.72375 0.24776 0.0
C589 C 0.55346 0.72991 0.29633 0.0
C590 C 0.55812 0.73559 0.20503 0.0
C591 C 0.57167 0.78644 0.1614 0.0
H592 H 0.5325 0.75821 0.05432 0.0
C593 C 0.54958 0.79918 0.94371 0.0
C594 C 0.55156 0.81844 0.9488 0.0
C595 C 0.55201 0.78943 0.98575 0.0
C596 C 0.54382 0.76631 0.0833 0.0
H597 H 0.55224 0.75372 0.33887 0.0
H598 H 0.55634 0.77459 0.26413 0.0
H599 H 0.53385 0.73944 0.12764 0.0
H600 H 0.55814 0.84284 0.00176 0.0
H601 H 0.56165 0.82543 0.07598 0.0
H602 H 0.58181 0.81333 0.11674 0.0
C603 C 0.55646 0.76053 0.25915 0.0
C604 C 0.54453 0.75553 0.12535 0.0
C605 C 0.55395 0.74852 0.30173 0.0
C606 C 0.55642 0.82795 -0.00324 0.0
C607 C 0.55859 0.81803 0.03916 0.0
C608 C 0.57116 0.79724 0.11884 0.0
C609 C 0.55815 0.75396 0.21035 0.0
C610 C 0.55838 0.76548 0.16483 0.0
C611 C 0.55617 0.79854 0.03419 0.0
C612 C 0.55717 0.78729 0.07933 0.0
H613 H 0.55573 0.7095 0.2426 0.0
H614 H 0.55948 0.73027 0.16771 0.0
H615 H 0.58253 0.79441 0.19146 0.0
H616 H 0.54623 0.7916 0.90708 0.0
H617 H 0.55058 0.77468 0.98018 0.0
C618 C 0.80243 0.55059 0.46908 0.0
C619 C 0.82267 0.55639 0.45902 0.0
C620 C 0.79055 0.55259 0.43203 0.0
C621 C 0.79287 0.57749 0.30907 0.0
H622 H 0.73708 0.53429 0.29899 0.0
C623 C 0.74235 0.55871 0.13157 0.0
C624 C 0.72277 0.55558 0.13858 0.0
C625 C 0.75486 0.56192 0.17333 0.0
C626 C 0.75253 0.54661 0.30199 0.0
H627 H 0.84649 0.56903 0.40244 0.0
H628 H 0.82539 0.57191 0.33636 0.0
H629 H 0.75869 0.53299 0.36531 0.0
H630 H 0.70095 0.55383 0.19413 0.0
H631 H 0.72274 0.55863 0.26805 0.0
H632 H 0.78674 0.59037 0.24351 0.0
C633 C 0.81886 0.56621 0.37353 0.0
C634 C 0.76494 0.54591 0.33992 0.0
C635 C 0.83091 0.56443 0.41111 0.0
C636 C 0.71601 0.55619 0.18796 0.0
C637 C 0.7284 0.55892 0.23 0.0
C638 C 0.7805 0.57799 0.27056 0.0
C639 C 0.7985 0.56018 0.38361 0.0
C640 C 0.7853 0.56128 0.34375 0.0
C641 C 0.74784 0.56165 0.22284 0.0
C642 C 0.76029 0.56248 0.26662 0.0
H643 H 0.79568 0.54459 0.50592 0.0
H644 H 0.77511 0.54824 0.4416 0.0
H645 H 0.80835 0.58974 0.31155 0.0
H646 H 0.74796 0.55852 0.09374 0.0
H647 H 0.76975 0.56383 0.16705 0.0
C648 C 0.18091 0.74839 0.28177 0.0
C649 C 0.16149 0.73124 0.28337 0.0
C650 C 0.18911 0.76051 0.32482 0.0
C651 C 0.18828 0.75739 0.46169 0.0
H652 H 0.21814 0.81608 0.45588 0.0
C653 C 0.23343 0.80414 0.63486 0.0
C654 C 0.25245 0.82106 0.62511 0.0
C655 C 0.21977 0.79447 0.59522 0.0
C656 C 0.21002 0.79971 0.45807 0.0
H657 H 0.13523 0.71362 0.33102 0.0
H658 H 0.14989 0.73469 0.40708 0.0
H659 H 0.19845 0.79671 0.38215 0.0
H660 H 0.27203 0.84143 0.56663 0.0
H661 H 0.24862 0.82395 0.49673 0.0
H662 H 0.20063 0.7601 0.5361 0.0
C663 C 0.15862 0.73871 0.37216 0.0
C664 C 0.19863 0.78866 0.41599 0.0
C665 C 0.15025 0.7267 0.32872 0.0
C666 C 0.25744 0.8284 0.57511 0.0
C667 C 0.24392 0.81846 0.53518 0.0
C668 C 0.19988 0.7684 0.50347 0.0
C669 C 0.17818 0.75563 0.37058 0.0
C670 C 0.18796 0.7674 0.41716 0.0
C671 C 0.22498 0.80123 0.54468 0.0
C672 C 0.2112 0.7897 0.5019 0.0
H673 H 0.1899 0.75238 0.24731 0.0
H674 H 0.20431 0.77332 0.32277 0.0
H675 H 0.18039 0.741 0.46328 0.0
H676 H 0.22905 0.79839 0.67328 0.0
H677 H 0.20516 0.78159 0.60426 0.0
C678 C 0.42471 0.26713 0.74299 0.0
C679 C 0.42519 0.25997 0.79197 0.0
C680 C 0.42293 0.25544 0.70012 0.0
C681 C 0.40667 0.20446 0.65378 0.0
H682 H 0.45167 0.23067 0.55985 0.0
C683 C 0.4226 0.16066 0.49655 0.0
C684 C 0.43042 0.17072 0.45007 0.0
C685 C 0.42025 0.17094 0.53789 0.0
C686 C 0.43876 0.22319 0.58503 0.0
H687 H 0.42292 0.2346 0.83501 0.0
H688 H 0.41934 0.21401 0.75999 0.0
H689 H 0.44922 0.24971 0.63127 0.0
H690 H 0.4412 0.19919 0.40994 0.0
H691 H 0.43658 0.2168 0.481 0.0
H692 H 0.39601 0.17797 0.60716 0.0
C693 C 0.42063 0.22873 0.75481 0.0
C694 C 0.43743 0.23412 0.62597 0.0
C695 C 0.42286 0.24057 0.79755 0.0
C696 C 0.43541 0.19106 0.44543 0.0
C697 C 0.43285 0.20122 0.48636 0.0
C698 C 0.40781 0.19356 0.61221 0.0
C699 C 0.4211 0.23626 0.70578 0.0
C700 C 0.42146 0.22484 0.66076 0.0
C701 C 0.42551 0.19141 0.53333 0.0
C702 C 0.42394 0.2028 0.57743 0.0
H703 H 0.4264 0.28201 0.73776 0.0
H704 H 0.42328 0.26149 0.66251 0.0
H705 H 0.39422 0.19704 0.68033 0.0
H706 H 0.41858 0.14496 0.50123 0.0
H707 H 0.41473 0.16297 0.57366 0.0
C708 C 0.05089 0.39197 0.99303 0.0
C709 C 0.06241 0.38234 -0.00132 0.0
C710 C 0.03377 0.38355 0.96194 0.0
C711 C 0.01202 0.3495 0.85194 0.0
H712 H 0.96414 0.35263 0.88514 0.0
C713 C 0.93835 0.31111 0.73301 0.0
C714 C 0.92802 0.32191 0.72642 0.0
C715 C 0.95534 0.31869 0.7645 0.0
C716 C 0.97752 0.35188 0.87512 0.0
H717 H 0.06442 0.35579 0.97815 0.0
H718 H 0.03433 0.34094 0.92435 0.0
H719 H -0.00851 0.36403 0.94716 0.0
H720 H 0.92801 0.34964 0.74554 0.0
H721 H 0.95777 0.36292 0.80029 0.0
H722 H -0.00204 0.33726 0.77993 0.0
C723 C 0.0388 0.35523 0.9432 0.0
C724 C -0.00685 0.35834 0.91068 0.0
C725 C 0.05595 0.36367 0.9743 0.0
C726 C 0.93561 0.34092 0.74992 0.0
C727 C 0.95253 0.34844 0.78165 0.0
C728 C -0.00365 0.34296 0.81644 0.0
C729 C 0.02775 0.36528 0.93589 0.0
C730 C 0.01063 0.35735 0.89937 0.0
C731 C 0.96227 0.33718 0.79018 0.0
C732 C 0.97901 0.34422 0.82753 0.0
H733 H 0.05542 0.40636 0.01135 0.0
H734 H 0.02571 0.39177 0.95681 0.0
H735 H 0.02543 0.34884 0.84171 0.0
H736 H 0.93291 0.29643 0.71533 0.0
H737 H 0.96251 0.30965 0.77046 0.0
C738 C 0.61663 0.92074 0.96501 0.0
C739 C 0.60182 0.91766 0.92868 0.0
C740 C 0.62725 0.93924 0.99059 0.0
C741 C 0.64241 0.99298 0.98162 0.0
H742 H 0.64629 0.99279 0.12913 0.0
C743 C 0.6887 0.06615 0.09835 0.0
C744 C 0.67812 0.06879 0.13872 0.0
C745 C 0.68084 0.04743 0.07388 0.0
C746 C 0.64534 0.99303 0.08795 0.0
H747 H 0.58679 0.93169 0.88999 0.0
H748 H 0.60547 0.96404 0.93439 0.0
H749 H 0.62969 0.96066 0.08253 0.0
H750 H 0.65145 0.0537 0.1865 0.0
H751 H 0.63788 0.02091 0.1441 0.0
H752 H 0.65786 0.02533 0.98704 0.0
C753 C 0.60885 0.95213 0.943 0.0
C754 C 0.63599 0.9747 0.0613 0.0
C755 C 0.5981 0.93358 0.9178 0.0
C756 C 0.65991 0.05215 0.15536 0.0
C757 C 0.65219 0.03336 0.1313 0.0
C758 C 0.65197 0.01131 0.0082 0.0
C759 C 0.62341 0.95508 0.97992 0.0
C760 C 0.63424 0.97451 0.00793 0.0
C761 C 0.66241 0.03093 0.08977 0.0
C762 C 0.65335 0.0115 0.06164 0.0
H763 H 0.61986 0.90877 0.97425 0.0
H764 H 0.63852 0.94118 0.01859 0.0
H765 H 0.64138 0.99325 0.94046 0.0
H766 H 0.70277 0.07868 0.08466 0.0
H767 H 0.68909 0.04588 0.04223 0.0
C768 C 0.65798 0.60332 0.09448 0.0
C769 C 0.67849 0.60888 0.09662 0.0
C770 C 0.65098 0.61473 0.11989 0.0
C771 C 0.66337 0.64962 0.2282 0.0
H772 H 0.61984 0.65619 0.17299 0.0
C773 C 0.62752 0.69114 0.33481 0.0
C774 C 0.60628 0.68072 0.33499 0.0
C775 C 0.63804 0.6844 0.30422 0.0
C776 C 0.63197 0.65442 0.18892 0.0
H777 H 0.70791 0.63125 0.12564 0.0
H778 H 0.69568 0.65132 0.16973 0.0
H779 H 0.63554 0.64154 0.11995 0.0
H780 H 0.57943 0.65497 0.30363 0.0
H781 H 0.59774 0.64336 0.25042 0.0
H782 H 0.65958 0.66235 0.29742 0.0
C783 C 0.68497 0.63794 0.14893 0.0
C784 C 0.64095 0.64601 0.1586 0.0
C785 C 0.69199 0.6265 0.12342 0.0
C786 C 0.59579 0.66336 0.30441 0.0
C787 C 0.60627 0.65679 0.27357 0.0
C788 C 0.65445 0.65814 0.25848 0.0
C789 C 0.66434 0.63202 0.14802 0.0
C790 C 0.65644 0.64308 0.17824 0.0
C791 C 0.62748 0.6673 0.27286 0.0
C792 C 0.63835 0.66019 0.23947 0.0
H793 H 0.64717 0.58984 0.07415 0.0
H794 H 0.63496 0.60958 0.1189 0.0
H795 H 0.67513 0.64738 0.24468 0.0
H796 H 0.63603 0.70454 0.35802 0.0
H797 H 0.65441 0.69279 0.30434 0.0
C798 C 0.05402 0.68708 0.26259 0.0
C799 C 0.06218 0.6758 0.24114 0.0
C800 C 0.03679 0.67762 0.29329 0.0
C801 C 0.00961 0.6331 0.37575 0.0
H802 H 0.96686 0.6465 0.37113 0.0
C803 C 0.93455 0.58929 0.48781 0.0
C804 C 0.92624 0.60064 0.50803 0.0
C805 C 0.95183 0.59859 0.45723 0.0
C806 C 0.97882 0.6428 0.37333 0.0
H807 H 0.05799 0.64556 0.23279 0.0
H808 H 0.02794 0.62915 0.28596 0.0
H809 H -0.0053 0.66217 0.31051 0.0
H810 H 0.93032 0.63086 0.51491 0.0
H811 H 0.96053 0.64706 0.46226 0.0
H812 H -0.00625 0.61375 0.43864 0.0
C813 C 0.03507 0.64534 0.27986 0.0
C814 C -0.00528 0.65173 0.33851 0.0
C815 C 0.05222 0.65475 0.24911 0.0
C816 C 0.93618 0.62163 0.4994 0.0
C817 C 0.95343 0.63091 0.46893 0.0
C818 C -0.00629 0.62418 0.41062 0.0
C819 C 0.02743 0.65673 0.30318 0.0
C820 C 0.01029 0.64698 0.33936 0.0
C821 C 0.96112 0.61941 0.4464 0.0
C822 C 0.97818 0.62898 0.40987 0.0
H823 H 0.06129 0.7033 0.25703 0.0
H824 H 0.03126 0.68681 0.31085 0.0
H825 H 0.02157 0.62939 0.37787 0.0
H826 H 0.92726 0.57309 0.49387 0.0
H827 H 0.95739 0.58932 0.44033 0.0
C828 C 0.38465 0.05601 0.42947 0.0
C829 C 0.3777 0.06997 0.42881 0.0
C830 C 0.37386 0.03764 0.45521 0.0
C831 C 0.33677 0.01284 0.55813 0.0
H832 H 0.33376 0.9643 0.50183 0.0
C833 C 0.29439 0.93381 0.65607 0.0
C834 C 0.30523 0.92334 0.65794 0.0
C835 C 0.30157 0.95151 0.62714 0.0
C836 C 0.33455 0.97776 0.51811 0.0
H837 H 0.35377 0.07544 0.45418 0.0
H838 H 0.33479 0.04318 0.49884 0.0
H839 H 0.34888 -0.00466 0.45171 0.0
H840 H 0.33219 0.92339 0.63133 0.0
H841 H 0.34458 0.95411 0.58101 0.0
H842 H 0.3225 -0.00487 0.62475 0.0
C843 C 0.34874 0.0466 0.47986 0.0
C844 C 0.34323 -0.00446 0.48946 0.0
C845 C 0.35956 0.06503 0.45404 0.0
C846 C 0.32344 0.93104 0.63071 0.0
C847 C 0.33049 0.94857 0.60154 0.0
C848 C 0.32797 -0.00503 0.58675 0.0
C849 C 0.35581 0.03273 0.48086 0.0
C850 C 0.34484 0.0134 0.50953 0.0
C851 C 0.31958 0.95892 0.59914 0.0
C852 C 0.32717 0.97738 0.56739 0.0
H853 H 0.39859 0.05935 0.41059 0.0
H854 H 0.37992 0.02745 0.45592 0.0
H855 H 0.33792 0.02638 0.57487 0.0
H856 H 0.28032 0.92827 0.67668 0.0
H857 H 0.29285 0.95919 0.62585 0.0
C858 C 0.28936 0.36779 0.63179 0.0
C859 C 0.30063 0.38157 0.59303 0.0
C860 C 0.29722 0.3573 0.65817 0.0
C861 C 0.33462 0.34045 0.65135 0.0
H862 H 0.33371 0.34215 0.79918 0.0
C863 C 0.3611 0.29611 0.77834 0.0
C864 C 0.37483 0.30743 0.81718 0.0
C865 C 0.35076 0.30402 0.75154 0.0
C866 C 0.33405 0.34155 0.75794 0.0
H867 H 0.32865 0.39454 0.55024 0.0
H868 H 0.34222 0.37598 0.59593 0.0
H869 H 0.31792 0.35771 0.7494 0.0
H870 H 0.38802 0.33569 0.85939 0.0
H871 H 0.36973 0.34938 0.81291 0.0
H872 H 0.35088 0.32441 0.6599 0.0
C873 C 0.32736 0.3734 0.60599 0.0
C874 C 0.32489 0.3503 0.72948 0.0
C875 C 0.31961 0.38408 0.58 0.0
C876 C 0.37757 0.3266 0.82962 0.0
C877 C 0.36704 0.33441 0.80318 0.0
C878 C 0.34355 0.33147 0.67981 0.0
C879 C 0.31638 0.36016 0.6459 0.0
C880 C 0.32524 0.34999 0.67591 0.0
C881 C 0.35375 0.32331 0.76341 0.0
C882 C 0.34351 0.33209 0.73339 0.0
H883 H 0.27468 0.36548 0.64274 0.0
H884 H 0.28835 0.34703 0.68842 0.0
H885 H 0.33502 0.33991 0.61011 0.0
H886 H 0.35863 0.28129 0.76782 0.0
H887 H 0.34045 0.29507 0.7214 0.0
loop_
_geom_bond_atom_site_label_1
_geom_bond_atom_site_label_2
_geom_bond_distance
_geom_bond_site_symmetry_2
_ccdc_geom_bond_type
Zn0 O3 2.031 . S
Zn0 O5 2.049 . S
Zn0 O10 2.067 . S
Zn1 O2 1.962 1_554 S
Zn1 O4 1.986 . S
Zn1 O6 1.996 . S
Zn1 O9 1.943 . S
O2 Zn1 1.962 1_556 S
O2 C7 1.254 . S
O3 Zn0 2.031 . S
O3 C7 1.269 1_554 S
O4 Zn1 1.986 . S
O4 C11 1.262 . S
O5 Zn0 2.049 . S
O5 C13 1.260 . S
O6 Zn1 1.996 . S
O6 C13 1.257 . S
C7 O2 1.254 . S
C7 O3 1.269 1_556 S
C8 O9 1.249 . S
C8 O10 1.270 . S
O9 Zn1 1.943 . S
O9 C8 1.249 . S
O10 Zn0 2.067 . S
O10 C8 1.270 . S
C11 O4 1.262 . S
C11 O12 1.232 . S
O12 C11 1.232 . S
C13 O5 1.260 . S
C13 O6 1.257 . S
Zn14 O17 2.031 . S
Zn14 O19 2.049 . S
Zn14 O24 2.067 . S
Zn15 O16 1.962 . S
Zn15 O18 1.986 . S
Zn15 O20 1.996 . S
Zn15 O23 1.943 . S
O16 Zn15 1.962 . S
O16 C21 1.254 . S
O17 Zn14 2.031 . S
O17 C21 1.269 . S
O18 Zn15 1.986 . S
O18 C25 1.262 . S
O19 Zn14 2.049 . S
O19 C27 1.260 . S
O20 Zn15 1.996 . S
O20 C27 1.257 . S
C21 O16 1.254 . S
C21 O17 1.269 . S
C22 O23 1.249 . S
C22 O24 1.270 . S
O23 Zn15 1.943 . S
O23 C22 1.249 . S
O24 Zn14 2.067 . S
O24 C22 1.270 . S
C25 O18 1.262 . S
C25 O26 1.232 . S
O26 C25 1.232 . S
C27 O19 1.260 . S
C27 O20 1.257 . S
Zn28 O31 2.031 . S
Zn28 O33 2.049 . S
Zn28 O38 2.067 . S
Zn29 O30 1.962 . S
Zn29 O32 1.986 . S
Zn29 O34 1.996 . S
Zn29 O37 1.943 . S
O30 Zn29 1.962 . S
O30 C35 1.254 . S
O31 Zn28 2.031 . S
O31 C35 1.269 . S
O32 Zn29 1.986 . S
O32 C39 1.262 . S
O33 Zn28 2.049 . S
O33 C41 1.260 . S
O34 Zn29 1.996 . S
O34 C41 1.257 . S
C35 O30 1.254 . S
C35 O31 1.269 . S
C36 O37 1.249 . S
C36 O38 1.270 . S
O37 Zn29 1.943 . S
O37 C36 1.249 . S
O38 Zn28 2.067 . S
O38 C36 1.270 . S
C39 O32 1.262 . S
C39 O40 1.232 . S
O40 C39 1.232 . S
C41 O33 1.260 . S
C41 O34 1.257 . S
Zn42 O45 2.031 . S
Zn42 O47 2.049 . S
Zn42 O52 2.067 . S
Zn43 O44 1.962 . S
Zn43 O46 1.986 . S
Zn43 O48 1.996 . S
Zn43 O51 1.943 . S
O44 Zn43 1.962 . S
O44 C49 1.254 . S
O45 Zn42 2.031 . S
O45 C49 1.269 . S
O46 Zn43 1.986 . S
O46 C53 1.262 . S
O47 Zn42 2.049 . S
O47 C55 1.260 . S
O48 Zn43 1.996 . S
O48 C55 1.257 . S
C49 O44 1.254 . S
C49 O45 1.269 . S
C50 O51 1.249 . S
C50 O52 1.270 . S
O51 Zn43 1.943 . S
O51 C50 1.249 . S
O52 Zn42 2.067 . S
O52 C50 1.270 . S
C53 O46 1.262 . S
C53 O54 1.232 . S
O54 C53 1.232 . S
C55 O47 1.260 . S
C55 O48 1.257 . S
Zn56 O59 2.031 . S
Zn56 O61 2.049 . S
Zn56 O66 2.067 . S
Zn57 O58 1.962 . S
Zn57 O60 1.986 . S
Zn57 O62 1.996 . S
Zn57 O65 1.943 . S
O58 Zn57 1.962 . S
O58 C63 1.254 . S
O59 Zn56 2.031 . S
O59 C63 1.269 . S
O60 Zn57 1.986 . S
O60 C67 1.262 . S
O61 Zn56 2.049 . S
O61 C69 1.260 . S
O62 Zn57 1.996 . S
O62 C69 1.257 . S
C63 O58 1.254 . S
C63 O59 1.269 . S
C64 O65 1.249 . S
C64 O66 1.270 . S
O65 Zn57 1.943 . S
O65 C64 1.249 . S
O66 Zn56 2.067 . S
O66 C64 1.270 . S
C67 O60 1.262 . S
C67 O68 1.232 . S
O68 C67 1.232 . S
C69 O61 1.260 . S
C69 O62 1.257 . S
Zn70 O73 2.031 . S
Zn70 O75 2.049 . S
Zn70 O80 2.067 . S
Zn71 O72 1.962 . S
Zn71 O74 1.986 . S
Zn71 O76 1.996 . S
Zn71 O79 1.943 . S
O72 Zn71 1.962 . S
O72 C77 1.254 . S
O73 Zn70 2.031 . S
O73 C77 1.269 . S
O74 Zn71 1.986 . S
O74 C81 1.262 . S
O75 Zn70 2.049 . S
O75 C83 1.260 . S
O76 Zn71 1.996 . S
O76 C83 1.257 . S
C77 O72 1.254 . S
C77 O73 1.269 . S
C78 O79 1.249 . S
C78 O80 1.270 . S
O79 Zn71 1.943 . S
O79 C78 1.249 . S
O80 Zn70 2.067 . S
O80 C78 1.270 . S
C81 O74 1.262 . S
C81 O82 1.232 . S
O82 C81 1.232 . S
C83 O75 1.260 . S
C83 O76 1.257 . S
Zn84 O87 2.031 . S
Zn84 O89 2.049 . S
Zn84 O94 2.067 . S
Zn85 O86 1.962 . S
Zn85 O88 1.986 . S
Zn85 O90 1.996 . S
Zn85 O93 1.943 . S
O86 Zn85 1.962 . S
O86 C91 1.254 . S
O87 Zn84 2.031 . S
O87 C91 1.269 . S
O88 Zn85 1.986 . S
O88 C95 1.262 . S
O89 Zn84 2.049 . S
O89 C97 1.260 . S
O90 Zn85 1.996 . S
O90 C97 1.257 . S
C91 O86 1.254 . S
C91 O87 1.269 . S
C92 O93 1.249 . S
C92 O94 1.270 . S
O93 Zn85 1.943 . S
O93 C92 1.249 . S
O94 Zn84 2.067 . S
O94 C92 1.270 . S
C95 O88 1.262 . S
C95 O96 1.232 . S
O96 C95 1.232 . S
C97 O89 1.260 . S
C97 O90 1.257 . S
Zn98 O101 2.031 . S
Zn98 O103 2.049 . S
Zn98 O108 2.067 1_554 S
Zn99 O100 1.962 . S
Zn99 O102 1.986 . S
Zn99 O104 1.996 . S
Zn99 O107 1.943 . S
O100 Zn99 1.962 . S
O100 C105 1.254 . S
O101 Zn98 2.031 . S
O101 C105 1.269 . S
O102 Zn99 1.986 . S
O102 C109 1.262 . S
O103 Zn98 2.049 . S
O103 C111 1.260 . S
O104 Zn99 1.996 . S
O104 C111 1.257 . S
C105 O100 1.254 . S
C105 O101 1.269 . S
C106 O107 1.249 1_556 S
C106 O108 1.270 . S
O107 Zn99 1.943 . S
O107 C106 1.249 1_554 S
O108 Zn98 2.067 1_556 S
O108 C106 1.270 . S
C109 O102 1.262 . S
C109 O110 1.232 . S
O110 C109 1.232 . S
C111 O103 1.260 . S
C111 O104 1.257 . S
Zn112 O115 2.031 . S
Zn112 O117 2.049 . S
Zn112 O122 2.067 . S
Zn113 O114 1.962 . S
Zn113 O116 1.986 . S
Zn113 O118 1.996 . S
Zn113 O121 1.943 . S
O114 Zn113 1.962 . S
O114 C119 1.254 . S
O115 Zn112 2.031 . S
O115 C119 1.269 . S
O116 Zn113 1.986 . S
O116 C123 1.262 . S
O117 Zn112 2.049 . S
O117 C125 1.260 . S
O118 Zn113 1.996 . S
O118 C125 1.257 . S
C119 O114 1.254 . S
C119 O115 1.269 . S
C120 O121 1.249 . S
C120 O122 1.270 . S
O121 Zn113 1.943 . S
O121 C120 1.249 . S
O122 Zn112 2.067 . S
O122 C120 1.270 . S
C123 O116 1.262 . S
C123 O124 1.232 . S
O124 C123 1.232 . S
C125 O117 1.260 . S
C125 O118 1.257 . S
Zn126 O129 2.031 . S
Zn126 O131 2.049 . S
Zn126 O136 2.067 . S
Zn127 O128 1.962 . S
Zn127 O130 1.986 . S
Zn127 O132 1.996 . S
Zn127 O135 1.943 . S
O128 Zn127 1.962 . S
O128 C133 1.254 . S
O129 Zn126 2.031 . S
O129 C133 1.269 . S
O130 Zn127 1.986 . S
O130 C137 1.262 . S
O131 Zn126 2.049 . S
O131 C139 1.260 . S
O132 Zn127 1.996 . S
O132 C139 1.257 . S
C133 O128 1.254 . S
C133 O129 1.269 . S
C134 O135 1.249 . S
C134 O136 1.270 . S
O135 Zn127 1.943 . S
O135 C134 1.249 . S
O136 Zn126 2.067 . S
O136 C134 1.270 . S
C137 O130 1.262 . S
C137 O138 1.232 . S
O138 C137 1.232 . S
C139 O131 1.260 . S
C139 O132 1.257 . S
Zn140 O143 2.031 . S
Zn140 O145 2.049 . S
Zn140 O150 2.067 . S
Zn141 O142 1.962 . S
Zn141 O144 1.986 . S
Zn141 O146 1.996 . S
Zn141 O149 1.943 . S
O142 Zn141 1.962 . S
O142 C147 1.254 . S
O143 Zn140 2.031 . S
O143 C147 1.269 . S
O144 Zn141 1.986 . S
O144 C151 1.262 . S
O145 Zn140 2.049 . S
O145 C153 1.260 . S
O146 Zn141 1.996 . S
O146 C153 1.257 . S
C147 O142 1.254 . S
C147 O143 1.269 . S
C148 O149 1.249 . S
C148 O150 1.270 . S
O149 Zn141 1.943 . S
O149 C148 1.249 . S
O150 Zn140 2.067 . S
O150 C148 1.270 . S
C151 O144 1.262 . S
C151 O152 1.232 . S
O152 C151 1.232 . S
C153 O145 1.260 . S
C153 O146 1.257 . S
Zn154 O157 2.031 . S
Zn154 O159 2.049 . S
Zn154 O164 2.067 . S
Zn155 O156 1.962 . S
Zn155 O158 1.986 . S
Zn155 O160 1.996 . S
Zn155 O163 1.943 . S
O156 Zn155 1.962 . S
O156 C161 1.254 . S
O157 Zn154 2.031 . S
O157 C161 1.269 . S
O158 Zn155 1.986 . S
O158 C165 1.262 . S
O159 Zn154 2.049 . S
O159 C167 1.260 . S
O160 Zn155 1.996 . S
O160 C167 1.257 . S
C161 O156 1.254 . S
C161 O157 1.269 . S
C162 O163 1.249 . S
C162 O164 1.270 . S
O163 Zn155 1.943 . S
O163 C162 1.249 . S
O164 Zn154 2.067 . S
O164 C162 1.270 . S
C165 O158 1.262 . S
C165 O166 1.232 . S
O166 C165 1.232 . S
C167 O159 1.260 . S
C167 O160 1.257 . S
C168 C169 1.349 . S
C168 C170 1.327 . S
C168 H193 0.950 . S
C169 C168 1.349 . S
C169 C185 1.349 . S
C170 C168 1.327 . S
C170 C189 1.429 . S
C170 H194 0.950 . S
C171 C188 1.574 . S
C171 C190 1.368 . S
C171 H195 0.949 . S
H172 C176 0.949 . S
C173 C174 1.349 . S
C173 C175 1.327 . S
C173 H196 0.950 . S
C174 C173 1.349 . S
C174 C186 1.349 . S
C175 C173 1.327 . S
C175 C191 1.429 . S
C175 H197 0.950 . S
C176 H172 0.949 . S
C176 C184 1.574 . S
C176 C192 1.368 . S
H177 C185 0.950 . S
H178 C183 0.950 . S
H179 C184 0.949 . S
H180 C186 0.950 . S
H181 C187 0.950 . S
H182 C188 0.949 . S
C183 H178 0.950 . S
C183 C185 1.327 . S
C183 C189 1.429 . S
C184 C176 1.574 . S
C184 H179 0.949 . S
C184 C190 1.368 . S
C185 C169 1.349 . S
C185 H177 0.950 . S
C185 C183 1.327 . S
C186 C174 1.349 . S
C186 H180 0.950 . S
C186 C187 1.327 . S
C187 H181 0.950 . S
C187 C186 1.327 . S
C187 C191 1.429 . S
C188 C171 1.574 . S
C188 H182 0.949 . S
C188 C192 1.368 . S
C189 C170 1.429 . S
C189 C183 1.429 . S
C189 C190 1.523 . S
C190 C171 1.368 . S
C190 C184 1.368 . S
C190 C189 1.523 . S
C191 C175 1.429 . S
C191 C187 1.429 . S
C191 C192 1.523 . S
C192 C176 1.368 . S
C192 C188 1.368 . S
C192 C191 1.523 . S
H193 C168 0.950 . S
H194 C170 0.950 . S
H195 C171 0.949 . S
H196 C173 0.950 . S
H197 C175 0.950 . S
C198 C199 1.349 . S
C198 C200 1.327 . S
C198 H223 0.950 . S
C199 C198 1.349 . S
C199 C215 1.349 . S
C200 C198 1.327 . S
C200 C219 1.429 . S
C200 H224 0.950 . S
C201 C218 1.574 . S
C201 C220 1.368 . S
C201 H225 0.949 . S
H202 C206 0.949 . S
C203 C204 1.349 . S
C203 C205 1.327 . S
C203 H226 0.950 . S
C204 C203 1.349 . S
C204 C216 1.349 . S
C205 C203 1.327 . S
C205 C221 1.429 . S
C205 H227 0.950 . S
C206 H202 0.949 . S
C206 C214 1.574 . S
C206 C222 1.368 . S
H207 C215 0.950 . S
H208 C213 0.950 . S
H209 C214 0.949 . S
H210 C216 0.950 . S
H211 C217 0.950 . S
H212 C218 0.949 . S
C213 H208 0.950 . S
C213 C215 1.327 . S
C213 C219 1.429 . S
C214 C206 1.574 . S
C214 H209 0.949 . S
C214 C220 1.368 . S
C215 C199 1.349 . S
C215 H207 0.950 . S
C215 C213 1.327 . S
C216 C204 1.349 . S
C216 H210 0.950 . S
C216 C217 1.327 . S
C217 H211 0.950 . S
C217 C216 1.327 . S
C217 C221 1.429 . S
C218 C201 1.574 . S
C218 H212 0.949 . S
C218 C222 1.368 . S
C219 C200 1.429 . S
C219 C213 1.429 . S
C219 C220 1.523 . S
C220 C201 1.368 . S
C220 C214 1.368 . S
C220 C219 1.523 . S
C221 C205 1.429 . S
C221 C217 1.429 . S
C221 C222 1.523 . S
C222 C206 1.368 . S
C222 C218 1.368 . S
C222 C221 1.523 . S
H223 C198 0.950 . S
H224 C200 0.950 . S
H225 C201 0.949 . S
H226 C203 0.950 . S
H227 C205 0.950 . S
C228 C229 1.349 . S
C228 C230 1.327 . S
C228 H253 0.950 . S
C229 C228 1.349 . S
C229 C245 1.349 . S
C230 C228 1.327 . S
C230 C249 1.429 . S
C230 H254 0.950 . S
C231 C248 1.574 . S
C231 C250 1.368 . S
C231 H255 0.949 . S
H232 C236 0.949 . S
C233 C234 1.349 . S
C233 C235 1.327 . S
C233 H256 0.950 . S
C234 C233 1.349 . S
C234 C246 1.349 . S
C235 C233 1.327 . S
C235 C251 1.429 . S
C235 H257 0.950 . S
C236 H232 0.949 . S
C236 C244 1.574 . S
C236 C252 1.368 . S
H237 C245 0.950 . S
H238 C243 0.950 . S
H239 C244 0.949 . S
H240 C246 0.950 . S
H241 C247 0.950 . S
H242 C248 0.949 . S
C243 H238 0.950 . S
C243 C245 1.327 . S
C243 C249 1.429 . S
C244 C236 1.574 . S
C244 H239 0.949 . S
C244 C250 1.368 . S
C245 C229 1.349 . S
C245 H237 0.950 . S
C245 C243 1.327 . S
C246 C234 1.349 . S
C246 H240 0.950 . S
C246 C247 1.327 . S
C247 H241 0.950 . S
C247 C246 1.327 . S
C247 C251 1.429 . S
C248 C231 1.574 . S
C248 H242 0.949 . S
C248 C252 1.368 . S
C249 C230 1.429 . S
C249 C243 1.429 . S
C249 C250 1.523 . S
C250 C231 1.368 . S
C250 C244 1.368 . S
C250 C249 1.523 . S
C251 C235 1.429 . S
C251 C247 1.429 . S
C251 C252 1.523 . S
C252 C236 1.368 . S
C252 C248 1.368 . S
C252 C251 1.523 . S
H253 C228 0.950 . S
H254 C230 0.950 . S
H255 C231 0.949 . S
H256 C233 0.950 . S
H257 C235 0.950 . S
C258 C259 1.349 . S
C258 C260 1.327 . S
C258 H283 0.950 . S
C259 C258 1.349 . S
C259 C275 1.349 . S
C260 C258 1.327 . S
C260 C279 1.429 . S
C260 H284 0.950 . S
C261 C278 1.574 . S
C261 C280 1.368 . S
C261 H285 0.949 . S
H262 C266 0.949 . S
C263 C264 1.349 . S
C263 C265 1.327 . S
C263 H286 0.950 . S
C264 C263 1.349 . S
C264 C276 1.349 . S
C265 C263 1.327 . S
C265 C281 1.429 . S
C265 H287 0.950 . S
C266 H262 0.949 . S
C266 C274 1.574 . S
C266 C282 1.368 . S
H267 C275 0.950 . S
H268 C273 0.950 . S
H269 C274 0.949 . S
H270 C276 0.950 . S
H271 C277 0.950 . S
H272 C278 0.949 . S
C273 H268 0.950 . S
C273 C275 1.327 . S
C273 C279 1.429 . S
C274 C266 1.574 . S
C274 H269 0.949 . S
C274 C280 1.368 . S
C275 C259 1.349 . S
C275 H267 0.950 . S
C275 C273 1.327 . S
C276 C264 1.349 . S
C276 H270 0.950 . S
C276 C277 1.327 . S
C277 H271 0.950 . S
C277 C276 1.327 . S
C277 C281 1.429 . S
C278 C261 1.574 . S
C278 H272 0.949 . S
C278 C282 1.368 . S
C279 C260 1.429 . S
C279 C273 1.429 . S
C279 C280 1.523 . S
C280 C261 1.368 . S
C280 C274 1.368 . S
C280 C279 1.523 . S
C281 C265 1.429 . S
C281 C277 1.429 . S
C281 C282 1.523 . S
C282 C266 1.368 . S
C282 C278 1.368 . S
C282 C281 1.523 . S
H283 C258 0.950 . S
H284 C260 0.950 . S
H285 C261 0.949 . S
H286 C263 0.950 . S
H287 C265 0.950 . S
C288 C289 1.349 . S
C288 C290 1.327 . S
C288 H313 0.950 . S
C289 C288 1.349 . S
C289 C305 1.349 . S
C290 C288 1.327 . S
C290 C309 1.429 . S
C290 H314 0.950 . S
C291 C308 1.574 1_556 S
C291 C310 1.368 . S
C291 H315 0.949 . S
H292 C296 0.949 . S
C293 C294 1.349 . S
C293 C295 1.327 . S
C293 H316 0.950 . S
C294 C293 1.349 . S
C294 C306 1.349 . S
C295 C293 1.327 . S
C295 C311 1.429 . S
C295 H317 0.950 . S
C296 H292 0.949 . S
C296 C304 1.574 . S
C296 C312 1.368 . S
H297 C305 0.950 . S
H298 C303 0.950 . S
H299 C304 0.949 . S
H300 C306 0.950 . S
H301 C307 0.950 . S
H302 C308 0.949 . S
C303 H298 0.950 . S
C303 C305 1.327 . S
C303 C309 1.429 . S
C304 C296 1.574 . S
C304 H299 0.949 . S
C304 C310 1.368 . S
C305 C289 1.349 . S
C305 H297 0.950 . S
C305 C303 1.327 . S
C306 C294 1.349 . S
C306 H300 0.950 . S
C306 C307 1.327 . S
C307 H301 0.950 . S
C307 C306 1.327 . S
C307 C311 1.429 . S
C308 C291 1.574 1_554 S
C308 H302 0.949 . S
C308 C312 1.368 1_554 S
C309 C290 1.429 . S
C309 C303 1.429 . S
C309 C310 1.523 . S
C310 C291 1.368 . S
C310 C304 1.368 . S
C310 C309 1.523 . S
C311 C295 1.429 . S
C311 C307 1.429 . S
C311 C312 1.523 1_554 S
C312 C296 1.368 . S
C312 C308 1.368 1_556 S
C312 C311 1.523 1_556 S
H313 C288 0.950 . S
H314 C290 0.950 . S
H315 C291 0.949 . S
H316 C293 0.950 . S
H317 C295 0.950 . S
C318 C319 1.349 . S
C318 C320 1.327 . S
C318 H343 0.950 . S
C319 C318 1.349 . S
C319 C335 1.349 . S
C320 C318 1.327 . S
C320 C339 1.429 . S
C320 H344 0.950 . S
C321 C338 1.574 . S
C321 C340 1.368 . S
C321 H345 0.949 . S
H322 C326 0.949 . S
C323 C324 1.349 1_554 S
C323 C325 1.327 . S
C323 H346 0.950 . S
C324 C323 1.349 1_556 S
C324 C336 1.349 . S
C325 C323 1.327 . S
C325 C341 1.429 . S
C325 H347 0.950 . S
C326 H322 0.949 . S
C326 C334 1.574 . S
C326 C342 1.368 . S
H327 C335 0.950 . S
H328 C333 0.950 . S
H329 C334 0.949 . S
H330 C336 0.950 . S
H331 C337 0.950 . S
H332 C338 0.949 . S
C333 H328 0.950 . S
C333 C335 1.327 . S
C333 C339 1.429 . S
C334 C326 1.574 . S
C334 H329 0.949 . S
C334 C340 1.368 . S
C335 C319 1.349 . S
C335 H327 0.950 . S
C335 C333 1.327 . S
C336 C324 1.349 . S
C336 H330 0.950 . S
C336 C337 1.327 1_556 S
C337 H331 0.950 . S
C337 C336 1.327 1_554 S
C337 C341 1.429 . S
C338 C321 1.574 . S
C338 H332 0.949 . S
C338 C342 1.368 . S
C339 C320 1.429 . S
C339 C333 1.429 . S
C339 C340 1.523 . S
C340 C321 1.368 . S
C340 C334 1.368 . S
C340 C339 1.523 . S
C341 C325 1.429 . S
C341 C337 1.429 . S
C341 C342 1.523 . S
C342 C326 1.368 . S
C342 C338 1.368 . S
C342 C341 1.523 . S
H343 C318 0.950 . S
H344 C320 0.950 . S
H345 C321 0.949 . S
H346 C323 0.950 . S
H347 C325 0.950 . S
C348 C349 1.349 . S
C348 C350 1.327 . S
C348 H373 0.950 . S
C349 C348 1.349 . S
C349 C365 1.349 . S
C350 C348 1.327 . S
C350 C369 1.429 . S
C350 H374 0.950 . S
C351 C368 1.574 . S
C351 C370 1.368 . S
C351 H375 0.949 . S
H352 C356 0.949 . S
C353 C354 1.349 . S
C353 C355 1.327 . S
C353 H376 0.950 . S
C354 C353 1.349 . S
C354 C366 1.349 . S
C355 C353 1.327 . S
C355 C371 1.429 . S
C355 H377 0.950 . S
C356 H352 0.949 . S
C356 C364 1.574 . S
C356 C372 1.368 . S
H357 C365 0.950 . S
H358 C363 0.950 . S
H359 C364 0.949 . S
H360 C366 0.950 . S
H361 C367 0.950 . S
H362 C368 0.949 . S
C363 H358 0.950 . S
C363 C365 1.327 . S
C363 C369 1.429 . S
C364 C356 1.574 . S
C364 H359 0.949 . S
C364 C370 1.368 . S
C365 C349 1.349 . S
C365 H357 0.950 . S
C365 C363 1.327 . S
C366 C354 1.349 . S
C366 H360 0.950 . S
C366 C367 1.327 . S
C367 H361 0.950 . S
C367 C366 1.327 . S
C367 C371 1.429 . S
C368 C351 1.574 . S
C368 H362 0.949 . S
C368 C372 1.368 . S
C369 C350 1.429 . S
C369 C363 1.429 . S
C369 C370 1.523 . S
C370 C351 1.368 . S
C370 C364 1.368 . S
C370 C369 1.523 . S
C371 C355 1.429 . S
C371 C367 1.429 . S
C371 C372 1.523 . S
C372 C356 1.368 . S
C372 C368 1.368 . S
C372 C371 1.523 . S
H373 C348 0.950 . S
H374 C350 0.950 . S
H375 C351 0.949 . S
H376 C353 0.950 . S
H377 C355 0.950 . S
C378 C379 1.349 . S
C378 C380 1.327 . S
C378 H403 0.950 . S
C379 C378 1.349 . S
C379 C395 1.349 . S
C380 C378 1.327 . S
C380 C399 1.429 . S
C380 H404 0.950 . S
C381 C398 1.574 . S
C381 C400 1.368 . S
C381 H405 0.949 . S
H382 C386 0.949 . S
C383 C384 1.349 . S
C383 C385 1.327 . S
C383 H406 0.950 . S
C384 C383 1.349 . S
C384 C396 1.349 . S
C385 C383 1.327 . S
C385 C401 1.429 . S
C385 H407 0.950 . S
C386 H382 0.949 . S
C386 C394 1.574 . S
C386 C402 1.368 . S
H387 C395 0.950 . S
H388 C393 0.950 . S
H389 C394 0.949 . S
H390 C396 0.950 . S
H391 C397 0.950 . S
H392 C398 0.949 . S
C393 H388 0.950 . S
C393 C395 1.327 . S
C393 C399 1.429 . S
C394 C386 1.574 . S
C394 H389 0.949 . S
C394 C400 1.368 . S
C395 C379 1.349 . S
C395 H387 0.950 . S
C395 C393 1.327 . S
C396 C384 1.349 . S
C396 H390 0.950 . S
C396 C397 1.327 . S
C397 H391 0.950 . S
C397 C396 1.327 . S
C397 C401 1.429 . S
C398 C381 1.574 . S
C398 H392 0.949 . S
C398 C402 1.368 . S
C399 C380 1.429 . S
C399 C393 1.429 . S
C399 C400 1.523 . S
C400 C381 1.368 . S
C400 C394 1.368 . S
C400 C399 1.523 . S
C401 C385 1.429 . S
C401 C397 1.429 . S
C401 C402 1.523 . S
C402 C386 1.368 . S
C402 C398 1.368 . S
C402 C401 1.523 . S
H403 C378 0.950 . S
H404 C380 0.950 . S
H405 C381 0.949 . S
H406 C383 0.950 . S
H407 C385 0.950 . S
C408 C409 1.349 . S
C408 C410 1.327 . S
C408 H433 0.950 . S
C409 C408 1.349 . S
C409 C425 1.349 . S
C410 C408 1.327 . S
C410 C429 1.429 . S
C410 H434 0.950 . S
C411 C428 1.574 . S
C411 C430 1.368 . S
C411 H435 0.949 . S
H412 C416 0.949 . S
C413 C414 1.349 . S
C413 C415 1.327 . S
C413 H436 0.950 . S
C414 C413 1.349 . S
C414 C426 1.349 . S
C415 C413 1.327 . S
C415 C431 1.429 . S
C415 H437 0.950 . S
C416 H412 0.949 . S
C416 C424 1.574 . S
C416 C432 1.368 . S
H417 C425 0.950 . S
H418 C423 0.950 . S
H419 C424 0.949 . S
H420 C426 0.950 . S
H421 C427 0.950 . S
H422 C428 0.949 . S
C423 H418 0.950 . S
C423 C425 1.327 . S
C423 C429 1.429 . S
C424 C416 1.574 . S
C424 H419 0.949 . S
C424 C430 1.368 . S
C425 C409 1.349 . S
C425 H417 0.950 . S
C425 C423 1.327 . S
C426 C414 1.349 . S
C426 H420 0.950 . S
C426 C427 1.327 . S
C427 H421 0.950 . S
C427 C426 1.327 . S
C427 C431 1.429 . S
C428 C411 1.574 . S
C428 H422 0.949 . S
C428 C432 1.368 . S
C429 C410 1.429 . S
C429 C423 1.429 . S
C429 C430 1.523 . S
C430 C411 1.368 . S
C430 C424 1.368 . S
C430 C429 1.523 . S
C431 C415 1.429 . S
C431 C427 1.429 . S
C431 C432 1.523 . S
C432 C416 1.368 . S
C432 C428 1.368 . S
C432 C431 1.523 . S
H433 C408 0.950 . S
H434 C410 0.950 . S
H435 C411 0.949 . S
H436 C413 0.950 . S
H437 C415 0.950 . S
C438 C439 1.349 . S
C438 C440 1.327 . S
C438 H463 0.950 . S
C439 C438 1.349 . S
C439 C455 1.349 . S
C440 C438 1.327 . S
C440 C459 1.429 . S
C440 H464 0.950 . S
C441 C458 1.574 . S
C441 C460 1.368 . S
C441 H465 0.949 . S
H442 C446 0.949 . S
C443 C444 1.349 . S
C443 C445 1.327 . S
C443 H466 0.950 . S
C444 C443 1.349 . S
C444 C456 1.349 . S
C445 C443 1.327 . S
C445 C461 1.429 . S
C445 H467 0.950 . S
C446 H442 0.949 . S
C446 C454 1.574 . S
C446 C462 1.368 . S
H447 C455 0.950 . S
H448 C453 0.950 . S
H449 C454 0.949 . S
H450 C456 0.950 . S
H451 C457 0.950 . S
H452 C458 0.949 . S
C453 H448 0.950 . S
C453 C455 1.327 . S
C453 C459 1.429 . S
C454 C446 1.574 . S
C454 H449 0.949 . S
C454 C460 1.368 . S
C455 C439 1.349 . S
C455 H447 0.950 . S
C455 C453 1.327 . S
C456 C444 1.349 . S
C456 H450 0.950 . S
C456 C457 1.327 . S
C457 H451 0.950 . S
C457 C456 1.327 . S
C457 C461 1.429 . S
C458 C441 1.574 . S
C458 H452 0.949 . S
C458 C462 1.368 . S
C459 C440 1.429 . S
C459 C453 1.429 . S
C459 C460 1.523 . S
C460 C441 1.368 . S
C460 C454 1.368 . S
C460 C459 1.523 . S
C461 C445 1.429 . S
C461 C457 1.429 . S
C461 C462 1.523 . S
C462 C446 1.368 . S
C462 C458 1.368 . S
C462 C461 1.523 . S
H463 C438 0.950 . S
H464 C440 0.950 . S
H465 C441 0.949 . S
H466 C443 0.950 . S
H467 C445 0.950 . S
C468 C469 1.349 . S
C468 C470 1.327 . S
C468 H493 0.950 . S
C469 C468 1.349 . S
C469 C485 1.349 . S
C470 C468 1.327 . S
C470 C489 1.429 . S
C470 H494 0.950 . S
C471 C488 1.574 . S
C471 C490 1.368 . S
C471 H495 0.949 . S
H472 C476 0.949 . S
C473 C474 1.349 . S
C473 C475 1.327 . S
C473 H496 0.950 . S
C474 C473 1.349 . S
C474 C486 1.349 . S
C475 C473 1.327 . S
C475 C491 1.429 . S
C475 H497 0.950 . S
C476 H472 0.949 . S
C476 C484 1.574 . S
C476 C492 1.368 . S
H477 C485 0.950 . S
H478 C483 0.950 . S
H479 C484 0.949 . S
H480 C486 0.950 . S
H481 C487 0.950 . S
H482 C488 0.949 . S
C483 H478 0.950 . S
C483 C485 1.327 . S
C483 C489 1.429 . S
C484 C476 1.574 . S
C484 H479 0.949 . S
C484 C490 1.368 . S
C485 C469 1.349 . S
C485 H477 0.950 . S
C485 C483 1.327 . S
C486 C474 1.349 . S
C486 H480 0.950 . S
C486 C487 1.327 . S
C487 H481 0.950 . S
C487 C486 1.327 . S
C487 C491 1.429 . S
C488 C471 1.574 . S
C488 H482 0.949 . S
C488 C492 1.368 . S
C489 C470 1.429 . S
C489 C483 1.429 . S
C489 C490 1.523 . S
C490 C471 1.368 . S
C490 C484 1.368 . S
C490 C489 1.523 . S
C491 C475 1.429 . S
C491 C487 1.429 . S
C491 C492 1.523 . S
C492 C476 1.368 . S
C492 C488 1.368 . S
C492 C491 1.523 . S
H493 C468 0.950 . S
H494 C470 0.950 . S
H495 C471 0.949 . S
H496 C473 0.950 . S
H497 C475 0.950 . S
C498 C499 1.349 . S
C498 C500 1.327 . S
C498 H523 0.950 . S
C499 C498 1.349 . S
C499 C515 1.349 . S
C500 C498 1.327 . S
C500 C519 1.429 . S
C500 H524 0.950 . S
C501 C518 1.574 1_556 S
C501 C520 1.368 . S
C501 H525 0.949 1_556 S
H502 C506 0.949 . S
C503 C504 1.349 . S
C503 C505 1.327 . S
C503 H526 0.950 . S
C504 C503 1.349 . S
C504 C516 1.349 1_554 S
C505 C503 1.327 . S
C505 C521 1.429 1_554 S
C505 H527 0.950 . S
C506 H502 0.949 . S
C506 C514 1.574 . S
C506 C522 1.368 . S
H507 C515 0.950 . S
H508 C513 0.950 . S
H509 C514 0.949 . S
H510 C516 0.950 . S
H511 C517 0.950 . S
H512 C518 0.949 . S
C513 H508 0.950 . S
C513 C515 1.327 . S
C513 C519 1.429 . S
C514 C506 1.574 . S
C514 H509 0.949 . S
C514 C520 1.368 . S
C515 C499 1.349 . S
C515 H507 0.950 . S
C515 C513 1.327 . S
C516 C504 1.349 1_556 S
C516 H510 0.950 . S
C516 C517 1.327 . S
C517 H511 0.950 . S
C517 C516 1.327 . S
C517 C521 1.429 . S
C518 C501 1.574 1_554 S
C518 H512 0.949 . S
C518 C522 1.368 1_554 S
C519 C500 1.429 . S
C519 C513 1.429 . S
C519 C520 1.523 . S
C520 C501 1.368 . S
C520 C514 1.368 . S
C520 C519 1.523 . S
C521 C505 1.429 1_556 S
C521 C517 1.429 . S
C521 C522 1.523 . S
C522 C506 1.368 . S
C522 C518 1.368 1_556 S
C522 C521 1.523 . S
H523 C498 0.950 . S
H524 C500 0.950 . S
H525 C501 0.949 1_554 S
H526 C503 0.950 . S
H527 C505 0.950 . S
C528 C529 1.349 . S
C528 C530 1.327 . S
C528 H553 0.950 . S
C529 C528 1.349 . S
C529 C545 1.349 . S
C530 C528 1.327 . S
C530 C549 1.429 . S
C530 H554 0.950 . S
C531 C548 1.574 . S
C531 C550 1.368 . S
C531 H555 0.949 . S
H532 C536 0.949 . S
C533 C534 1.349 . S
C533 C535 1.327 . S
C533 H556 0.950 . S
C534 C533 1.349 . S
C534 C546 1.349 . S
C535 C533 1.327 . S
C535 C551 1.429 . S
C535 H557 0.950 . S
C536 H532 0.949 . S
C536 C544 1.574 . S
C536 C552 1.368 . S
H537 C545 0.950 . S
H538 C543 0.950 . S
H539 C544 0.949 . S
H540 C546 0.950 . S
H541 C547 0.950 . S
H542 C548 0.949 . S
C543 H538 0.950 . S
C543 C545 1.327 . S
C543 C549 1.429 . S
C544 C536 1.574 . S
C544 H539 0.949 . S
C544 C550 1.368 . S
C545 C529 1.349 . S
C545 H537 0.950 . S
C545 C543 1.327 . S
C546 C534 1.349 . S
C546 H540 0.950 . S
C546 C547 1.327 . S
C547 H541 0.950 . S
C547 C546 1.327 . S
C547 C551 1.429 . S
C548 C531 1.574 . S
C548 H542 0.949 . S
C548 C552 1.368 . S
C549 C530 1.429 . S
C549 C543 1.429 . S
C549 C550 1.523 . S
C550 C531 1.368 . S
C550 C544 1.368 . S
C550 C549 1.523 . S
C551 C535 1.429 . S
C551 C547 1.429 . S
C551 C552 1.523 . S
C552 C536 1.368 . S
C552 C548 1.368 . S
C552 C551 1.523 . S
H553 C528 0.950 . S
H554 C530 0.950 . S
H555 C531 0.949 . S
H556 C533 0.950 . S
H557 C535 0.950 . S
C558 C559 1.349 . S
C558 C560 1.327 . S
C558 H583 0.950 . S
C559 C558 1.349 . S
C559 C575 1.349 . S
C560 C558 1.327 . S
C560 C579 1.429 . S
C560 H584 0.950 . S
C561 C578 1.574 1_554 S
C561 C580 1.368 1_554 S
C561 H585 0.949 . S
H562 C566 0.949 . S
C563 C564 1.349 . S
C563 C565 1.327 . S
C563 H586 0.950 . S
C564 C563 1.349 . S
C564 C576 1.349 . S
C565 C563 1.327 . S
C565 C581 1.429 . S
C565 H587 0.950 . S
C566 H562 0.949 . S
C566 C574 1.574 . S
C566 C582 1.368 . S
H567 C575 0.950 . S
H568 C573 0.950 . S
H569 C574 0.949 . S
H570 C576 0.950 . S
H571 C577 0.950 . S
H572 C578 0.949 . S
C573 H568 0.950 . S
C573 C575 1.327 . S
C573 C579 1.429 . S
C574 C566 1.574 . S
C574 H569 0.949 . S
C574 C580 1.368 . S
C575 C559 1.349 . S
C575 H567 0.950 . S
C575 C573 1.327 . S
C576 C564 1.349 . S
C576 H570 0.950 . S
C576 C577 1.327 . S
C577 H571 0.950 . S
C577 C576 1.327 . S
C577 C581 1.429 . S
C578 C561 1.574 1_556 S
C578 H572 0.949 . S
C578 C582 1.368 . S
C579 C560 1.429 . S
C579 C573 1.429 . S
C579 C580 1.523 1_554 S
C580 C561 1.368 1_556 S
C580 C574 1.368 . S
C580 C579 1.523 1_556 S
C581 C565 1.429 . S
C581 C577 1.429 . S
C581 C582 1.523 . S
C582 C566 1.368 . S
C582 C578 1.368 . S
C582 C581 1.523 . S
H583 C558 0.950 . S
H584 C560 0.950 . S
H585 C561 0.949 . S
H586 C563 0.950 . S
H587 C565 0.950 . S
C588 C589 1.349 . S
C588 C590 1.327 . S
C588 H613 0.950 . S
C589 C588 1.349 . S
C589 C605 1.349 . S
C590 C588 1.327 . S
C590 C609 1.429 . S
C590 H614 0.950 . S
C591 C608 1.574 . S
C591 C610 1.368 . S
C591 H615 0.949 . S
H592 C596 0.949 . S
C593 C594 1.349 . S
C593 C595 1.327 1_556 S
C593 H616 0.950 . S
C594 C593 1.349 . S
C594 C606 1.349 . S
C595 C593 1.327 1_554 S
C595 C611 1.429 . S
C595 H617 0.950 . S
C596 H592 0.949 . S
C596 C604 1.574 . S
C596 C612 1.368 . S
H597 C605 0.950 . S
H598 C603 0.950 . S
H599 C604 0.949 . S
H600 C606 0.950 . S
H601 C607 0.950 . S
H602 C608 0.949 . S
C603 H598 0.950 . S
C603 C605 1.327 . S
C603 C609 1.429 . S
C604 C596 1.574 . S
C604 H599 0.949 . S
C604 C610 1.368 . S
C605 C589 1.349 . S
C605 H597 0.950 . S
C605 C603 1.327 . S
C606 C594 1.349 . S
C606 H600 0.950 . S
C606 C607 1.327 1_556 S
C607 H601 0.950 . S
C607 C606 1.327 1_554 S
C607 C611 1.429 . S
C608 C591 1.574 . S
C608 H602 0.949 . S
C608 C612 1.368 . S
C609 C590 1.429 . S
C609 C603 1.429 . S
C609 C610 1.523 . S
C610 C591 1.368 . S
C610 C604 1.368 . S
C610 C609 1.523 . S
C611 C595 1.429 . S
C611 C607 1.429 . S
C611 C612 1.523 . S
C612 C596 1.368 . S
C612 C608 1.368 . S
C612 C611 1.523 . S
H613 C588 0.950 . S
H614 C590 0.950 . S
H615 C591 0.949 . S
H616 C593 0.950 . S
H617 C595 0.950 . S
C618 C619 1.349 . S
C618 C620 1.327 . S
C618 H643 0.950 . S
C619 C618 1.349 . S
C619 C635 1.349 . S
C620 C618 1.327 . S
C620 C639 1.429 . S
C620 H644 0.950 . S
C621 C638 1.574 . S
C621 C640 1.368 . S
C621 H645 0.949 . S
H622 C626 0.949 . S
C623 C624 1.349 . S
C623 C625 1.327 . S
C623 H646 0.950 . S
C624 C623 1.349 . S
C624 C636 1.349 . S
C625 C623 1.327 . S
C625 C641 1.429 . S
C625 H647 0.950 . S
C626 H622 0.949 . S
C626 C634 1.574 . S
C626 C642 1.368 . S
H627 C635 0.950 . S
H628 C633 0.950 . S
H629 C634 0.949 . S
H630 C636 0.950 . S
H631 C637 0.950 . S
H632 C638 0.949 . S
C633 H628 0.950 . S
C633 C635 1.327 . S
C633 C639 1.429 . S
C634 C626 1.574 . S
C634 H629 0.949 . S
C634 C640 1.368 . S
C635 C619 1.349 . S
C635 H627 0.950 . S
C635 C633 1.327 . S
C636 C624 1.349 . S
C636 H630 0.950 . S
C636 C637 1.327 . S
C637 H631 0.950 . S
C637 C636 1.327 . S
C637 C641 1.429 . S
C638 C621 1.574 . S
C638 H632 0.949 . S
C638 C642 1.368 . S
C639 C620 1.429 . S
C639 C633 1.429 . S
C639 C640 1.523 . S
C640 C621 1.368 . S
C640 C634 1.368 . S
C640 C639 1.523 . S
C641 C625 1.429 . S
C641 C637 1.429 . S
C641 C642 1.523 . S
C642 C626 1.368 . S
C642 C638 1.368 . S
C642 C641 1.523 . S
H643 C618 0.950 . S
H644 C620 0.950 . S
H645 C621 0.949 . S
H646 C623 0.950 . S
H647 C625 0.950 . S
C648 C649 1.349 . S
C648 C650 1.327 . S
C648 H673 0.950 . S
C649 C648 1.349 . S
C649 C665 1.349 . S
C650 C648 1.327 . S
C650 C669 1.429 . S
C650 H674 0.950 . S
C651 C668 1.574 . S
C651 C670 1.368 . S
C651 H675 0.949 . S
H652 C656 0.949 . S
C653 C654 1.349 . S
C653 C655 1.327 . S
C653 H676 0.950 . S
C654 C653 1.349 . S
C654 C666 1.349 . S
C655 C653 1.327 . S
C655 C671 1.429 . S
C655 H677 0.950 . S
C656 H652 0.949 . S
C656 C664 1.574 . S
C656 C672 1.368 . S
H657 C665 0.950 . S
H658 C663 0.950 . S
H659 C664 0.949 . S
H660 C666 0.950 . S
H661 C667 0.950 . S
H662 C668 0.949 . S
C663 H658 0.950 . S
C663 C665 1.327 . S
C663 C669 1.429 . S
C664 C656 1.574 . S
C664 H659 0.949 . S
C664 C670 1.368 . S
C665 C649 1.349 . S
C665 H657 0.950 . S
C665 C663 1.327 . S
C666 C654 1.349 . S
C666 H660 0.950 . S
C666 C667 1.327 . S
C667 H661 0.950 . S
C667 C666 1.327 . S
C667 C671 1.429 . S
C668 C651 1.574 . S
C668 H662 0.949 . S
C668 C672 1.368 . S
C669 C650 1.429 . S
C669 C663 1.429 . S
C669 C670 1.523 . S
C670 C651 1.368 . S
C670 C664 1.368 . S
C670 C669 1.523 . S
C671 C655 1.429 . S
C671 C667 1.429 . S
C671 C672 1.523 . S
C672 C656 1.368 . S
C672 C668 1.368 . S
C672 C671 1.523 . S
H673 C648 0.950 . S
H674 C650 0.950 . S
H675 C651 0.949 . S
H676 C653 0.950 . S
H677 C655 0.950 . S
C678 C679 1.349 . S
C678 C680 1.327 . S
C678 H703 0.950 . S
C679 C678 1.349 . S
C679 C695 1.349 . S
C680 C678 1.327 . S
C680 C699 1.429 . S
C680 H704 0.950 . S
C681 C698 1.574 . S
C681 C700 1.368 . S
C681 H705 0.949 . S
H682 C686 0.949 . S
C683 C684 1.349 . S
C683 C685 1.327 . S
C683 H706 0.950 . S
C684 C683 1.349 . S
C684 C696 1.349 . S
C685 C683 1.327 . S
C685 C701 1.429 . S
C685 H707 0.950 . S
C686 H682 0.949 . S
C686 C694 1.574 . S
C686 C702 1.368 . S
H687 C695 0.950 . S
H688 C693 0.950 . S
H689 C694 0.949 . S
H690 C696 0.950 . S
H691 C697 0.950 . S
H692 C698 0.949 . S
C693 H688 0.950 . S
C693 C695 1.327 . S
C693 C699 1.429 . S
C694 C686 1.574 . S
C694 H689 0.949 . S
C694 C700 1.368 . S
C695 C679 1.349 . S
C695 H687 0.950 . S
C695 C693 1.327 . S
C696 C684 1.349 . S
C696 H690 0.950 . S
C696 C697 1.327 . S
C697 H691 0.950 . S
C697 C696 1.327 . S
C697 C701 1.429 . S
C698 C681 1.574 . S
C698 H692 0.949 . S
C698 C702 1.368 . S
C699 C680 1.429 . S
C699 C693 1.429 . S
C699 C700 1.523 . S
C700 C681 1.368 . S
C700 C694 1.368 . S
C700 C699 1.523 . S
C701 C685 1.429 . S
C701 C697 1.429 . S
C701 C702 1.523 . S
C702 C686 1.368 . S
C702 C698 1.368 . S
C702 C701 1.523 . S
H703 C678 0.950 . S
H704 C680 0.950 . S
H705 C681 0.949 . S
H706 C683 0.950 . S
H707 C685 0.950 . S
C708 C709 1.349 1_554 S
C708 C710 1.327 1_554 S
C708 H733 0.950 . S
C709 C708 1.349 1_556 S
C709 C725 1.349 . S
C710 C708 1.327 1_556 S
C710 C729 1.429 . S
C710 H734 0.950 . S
C711 C728 1.574 1_455 S
C711 C730 1.368 . S
C711 H735 0.949 . S
H712 C716 0.949 . S
C713 C714 1.349 . S
C713 C715 1.327 . S
C713 H736 0.950 . S
C714 C713 1.349 . S
C714 C726 1.349 . S
C715 C713 1.327 . S
C715 C731 1.429 . S
C715 H737 0.950 . S
C716 H712 0.949 . S
C716 C724 1.574 1_655 S
C716 C732 1.368 . S
H717 C725 0.950 . S
H718 C723 0.950 . S
H719 C724 0.949 . S
H720 C726 0.950 . S
H721 C727 0.950 . S
H722 C728 0.949 . S
C723 H718 0.950 . S
C723 C725 1.327 . S
C723 C729 1.429 . S
C724 C716 1.574 1_455 S
C724 H719 0.949 . S
C724 C730 1.368 . S
C725 C709 1.349 . S
C725 H717 0.950 . S
C725 C723 1.327 . S
C726 C714 1.349 . S
C726 H720 0.950 . S
C726 C727 1.327 . S
C727 H721 0.950 . S
C727 C726 1.327 . S
C727 C731 1.429 . S
C728 C711 1.574 1_655 S
C728 H722 0.949 . S
C728 C732 1.368 . S
C729 C710 1.429 . S
C729 C723 1.429 . S
C729 C730 1.523 . S
C730 C711 1.368 . S
C730 C724 1.368 . S
C730 C729 1.523 . S
C731 C715 1.429 . S
C731 C727 1.429 . S
C731 C732 1.523 . S
C732 C716 1.368 . S
C732 C728 1.368 . S
C732 C731 1.523 . S
H733 C708 0.950 . S
H734 C710 0.950 . S
H735 C711 0.949 . S
H736 C713 0.950 . S
H737 C715 0.950 . S
C738 C739 1.349 . S
C738 C740 1.327 1_556 S
C738 H763 0.950 . S
C739 C738 1.349 . S
C739 C755 1.349 . S
C740 C738 1.327 1_554 S
C740 C759 1.429 1_554 S
C740 H764 0.950 . S
C741 C758 1.573 1_566 S
C741 C760 1.369 1_556 S
C741 H765 0.951 . S
H742 C746 0.951 . S
C743 C744 1.349 . S
C743 C745 1.327 . S
C743 H766 0.950 . S
C744 C743 1.349 . S
C744 C756 1.349 . S
C745 C743 1.327 . S
C745 C761 1.429 . S
C745 H767 0.950 . S
C746 H742 0.951 . S
C746 C754 1.572 1_545 S
C746 C762 1.370 . S
H747 C755 0.950 . S
H748 C753 0.950 . S
H749 C754 0.949 . S
H750 C756 0.950 . S
H751 C757 0.950 . S
H752 C758 0.949 . S
C753 H748 0.950 . S
C753 C755 1.327 . S
C753 C759 1.429 . S
C754 C746 1.572 1_565 S
C754 H749 0.949 . S
C754 C760 1.368 . S
C755 C739 1.349 . S
C755 H747 0.950 . S
C755 C753 1.327 . S
C756 C744 1.349 . S
C756 H750 0.950 . S
C756 C757 1.327 . S
C757 H751 0.950 . S
C757 C756 1.327 . S
C757 C761 1.429 . S
C758 C741 1.573 1_544 S
C758 H752 0.949 . S
C758 C762 1.368 . S
C759 C740 1.429 1_556 S
C759 C753 1.429 . S
C759 C760 1.523 1_556 S
C760 C741 1.369 1_554 S
C760 C754 1.368 . S
C760 C759 1.523 1_554 S
C761 C745 1.429 . S
C761 C757 1.429 . S
C761 C762 1.523 . S
C762 C746 1.370 . S
C762 C758 1.368 . S
C762 C761 1.523 . S
H763 C738 0.950 . S
H764 C740 0.950 . S
H765 C741 0.951 . S
H766 C743 0.950 . S
H767 C745 0.950 . S
C768 C769 1.349 . S
C768 C770 1.327 . S
C768 H793 0.950 . S
C769 C768 1.349 . S
C769 C785 1.349 . S
C770 C768 1.327 . S
C770 C789 1.429 . S
C770 H794 0.950 . S
C771 C788 1.574 . S
C771 C790 1.368 . S
C771 H795 0.949 . S
H772 C776 0.949 . S
C773 C774 1.349 . S
C773 C775 1.327 . S
C773 H796 0.950 . S
C774 C773 1.349 . S
C774 C786 1.349 . S
C775 C773 1.327 . S
C775 C791 1.429 . S
C775 H797 0.950 . S
C776 H772 0.949 . S
C776 C784 1.574 . S
C776 C792 1.368 . S
H777 C785 0.950 . S
H778 C783 0.950 . S
H779 C784 0.949 . S
H780 C786 0.950 . S
H781 C787 0.950 . S
H782 C788 0.949 . S
C783 H778 0.950 . S
C783 C785 1.327 . S
C783 C789 1.429 . S
C784 C776 1.574 . S
C784 H779 0.949 . S
C784 C790 1.368 . S
C785 C769 1.349 . S
C785 H777 0.950 . S
C785 C783 1.327 . S
C786 C774 1.349 . S
C786 H780 0.950 . S
C786 C787 1.327 . S
C787 H781 0.950 . S
C787 C786 1.327 . S
C787 C791 1.429 . S
C788 C771 1.574 . S
C788 H782 0.949 . S
C788 C792 1.368 . S
C789 C770 1.429 . S
C789 C783 1.429 . S
C789 C790 1.523 . S
C790 C771 1.368 . S
C790 C784 1.368 . S
C790 C789 1.523 . S
C791 C775 1.429 . S
C791 C787 1.429 . S
C791 C792 1.523 . S
C792 C776 1.368 . S
C792 C788 1.368 . S
C792 C791 1.523 . S
H793 C768 0.950 . S
H794 C770 0.950 . S
H795 C771 0.949 . S
H796 C773 0.950 . S
H797 C775 0.950 . S
C798 C799 1.349 . S
C798 C800 1.327 . S
C798 H823 0.950 . S
C799 C798 1.349 . S
C799 C815 1.349 . S
C800 C798 1.327 . S
C800 C819 1.429 . S
C800 H824 0.950 . S
C801 C818 1.574 1_455 S
C801 C820 1.368 . S
C801 H825 0.949 . S
H802 C806 0.949 . S
C803 C804 1.349 . S
C803 C805 1.327 . S
C803 H826 0.950 . S
C804 C803 1.349 . S
C804 C816 1.349 . S
C805 C803 1.327 . S
C805 C821 1.429 . S
C805 H827 0.950 . S
C806 H802 0.949 . S
C806 C814 1.574 1_655 S
C806 C822 1.368 . S
H807 C815 0.950 . S
H808 C813 0.950 . S
H809 C814 0.949 . S
H810 C816 0.950 . S
H811 C817 0.950 . S
H812 C818 0.949 . S
C813 H808 0.950 . S
C813 C815 1.327 . S
C813 C819 1.429 . S
C814 C806 1.574 1_455 S
C814 H809 0.949 . S
C814 C820 1.368 . S
C815 C799 1.349 . S
C815 H807 0.950 . S
C815 C813 1.327 . S
C816 C804 1.349 . S
C816 H810 0.950 . S
C816 C817 1.327 . S
C817 H811 0.950 . S
C817 C816 1.327 . S
C817 C821 1.429 . S
C818 C801 1.574 1_655 S
C818 H812 0.949 . S
C818 C822 1.368 . S
C819 C800 1.429 . S
C819 C813 1.429 . S
C819 C820 1.523 . S
C820 C801 1.368 . S
C820 C814 1.368 . S
C820 C819 1.523 . S
C821 C805 1.429 . S
C821 C817 1.429 . S
C821 C822 1.523 . S
C822 C806 1.368 . S
C822 C818 1.368 . S
C822 C821 1.523 . S
H823 C798 0.950 . S
H824 C800 0.950 . S
H825 C801 0.949 . S
H826 C803 0.950 . S
H827 C805 0.950 . S
C828 C829 1.349 . S
C828 C830 1.327 . S
C828 H853 0.950 . S
C829 C828 1.349 . S
C829 C845 1.349 . S
C830 C828 1.327 . S
C830 C849 1.429 . S
C830 H854 0.950 . S
C831 C848 1.574 1_545 S
C831 C850 1.368 . S
C831 H855 0.949 . S
H832 C836 0.949 . S
C833 C834 1.349 . S
C833 C835 1.327 . S
C833 H856 0.950 . S
C834 C833 1.349 . S
C834 C846 1.349 . S
C835 C833 1.327 . S
C835 C851 1.429 . S
C835 H857 0.950 . S
C836 H832 0.949 . S
C836 C844 1.574 1_565 S
C836 C852 1.368 . S
H837 C845 0.950 . S
H838 C843 0.950 . S
H839 C844 0.949 . S
H840 C846 0.950 . S
H841 C847 0.950 . S
H842 C848 0.949 . S
C843 H838 0.950 . S
C843 C845 1.327 . S
C843 C849 1.429 . S
C844 C836 1.574 1_545 S
C844 H839 0.949 . S
C844 C850 1.368 . S
C845 C829 1.349 . S
C845 H837 0.950 . S
C845 C843 1.327 . S
C846 C834 1.349 . S
C846 H840 0.950 . S
C846 C847 1.327 . S
C847 H841 0.950 . S
C847 C846 1.327 . S
C847 C851 1.429 . S
C848 C831 1.574 1_565 S
C848 H842 0.949 . S
C848 C852 1.368 . S
C849 C830 1.429 . S
C849 C843 1.429 . S
C849 C850 1.523 . S
C850 C831 1.368 . S
C850 C844 1.368 . S
C850 C849 1.523 . S
C851 C835 1.429 . S
C851 C847 1.429 . S
C851 C852 1.523 . S
C852 C836 1.368 . S
C852 C848 1.368 . S
C852 C851 1.523 . S
H853 C828 0.950 . S
H854 C830 0.950 . S
H855 C831 0.949 . S
H856 C833 0.950 . S
H857 C835 0.950 . S
C858 C859 1.349 . S
C858 C860 1.327 . S
C858 H883 0.950 . S
C859 C858 1.349 . S
C859 C875 1.349 . S
C860 C858 1.327 . S
C860 C879 1.429 . S
C860 H884 0.950 . S
C861 C878 1.574 . S
C861 C880 1.368 . S
C861 H885 0.949 . S
H862 C866 0.949 . S
C863 C864 1.349 . S
C863 C865 1.327 . S
C863 H886 0.950 . S
C864 C863 1.349 . S
C864 C876 1.349 . S
C865 C863 1.327 . S
C865 C881 1.429 . S
C865 H887 0.950 . S
C866 H862 0.949 . S
C866 C874 1.574 . S
C866 C882 1.368 . S
H867 C875 0.950 . S
H868 C873 0.950 . S
H869 C874 0.949 . S
H870 C876 0.950 . S
H871 C877 0.950 . S
H872 C878 0.949 . S
C873 H868 0.950 . S
C873 C875 1.327 . S
C873 C879 1.429 . S
C874 C866 1.574 . S
C874 H869 0.949 . S
C874 C880 1.368 . S
C875 C859 1.349 . S
C875 H867 0.950 . S
C875 C873 1.327 . S
C876 C864 1.349 . S
C876 H870 0.950 . S
C876 C877 1.327 . S
C877 H871 0.950 . S
C877 C876 1.327 . S
C877 C881 1.429 . S
C878 C861 1.574 . S
C878 H872 0.949 . S
C878 C882 1.368 . S
C879 C860 1.429 . S
C879 C873 1.429 . S
C879 C880 1.523 . S
C880 C861 1.368 . S
C880 C874 1.368 . S
C880 C879 1.523 . S
C881 C865 1.429 . S
C881 C877 1.429 . S
C881 C882 1.523 . S
C882 C866 1.368 . S
C882 C878 1.368 . S
C882 C881 1.523 . S
H883 C858 0.950 . S
H884 C860 0.950 . S
H885 C861 0.949 . S
H886 C863 0.950 . S
H887 C865 0.950 . S
C169 C8 1.288 . S
C174 C148 1.288 . S
C199 C162 1.288 . S
C204 C22 1.288 . S
C229 C36 1.288 . S
C234 C92 1.288 . S
C259 C50 1.288 . S
C264 C106 1.288 . S
C289 C64 1.288 . S
C294 C120 1.288 . S
C319 C134 1.288 . S
C324 C78 1.288 . S
C349 C13 1.485 . S
C354 C125 1.485 . S
C379 C27 1.485 . S
C384 C139 1.485 . S
C409 C153 1.485 . S
C414 C41 1.485 . S
C439 C55 1.485 . S
C444 C167 1.485 . S
C469 C69 1.485 . S
C474 C97 1.485 . S
C499 C83 1.485 . S
C504 C111 1.485 . S
C529 C147 0.709 . S
C534 C7 0.709 . S
C559 C21 0.709 . S
C564 C161 0.709 . S
C589 C35 0.710 . S
C594 C91 0.710 . S
C619 C49 0.709 . S
C624 C105 0.709 . S
C649 C119 0.709 . S
C654 C63 0.709 . S
C679 C77 0.709 . S
C684 C133 0.709 . S
C709 C11 1.358 1_556 S
C714 C165 1.358 . S
C739 C95 1.358 . S
C744 C25 1.358 . S
C769 C109 1.358 . S
C774 C39 1.358 . S
C799 C123 1.358 . S
C804 C53 1.358 . S
C829 C137 1.358 . S
C834 C67 1.358 . S
C859 C151 1.358 . S
C864 C81 1.358 . S
