# Generated by pormake.
# Topology vbb, (4)-cn, num edge types: 1
# Building blocks:
#     Node 0, Type 0, BuildingBlock: QUQFOY_clean_sbu_1, # of connection points: 4
#     Node 1, Type 0, BuildingBlock: QUQFOY_clean_sbu_1, # of connection points: 4
#     Node 2, Type 0, BuildingBlock: QUQFOY_clean_sbu_1, # of connection points: 4
#     Node 3, Type 0, BuildingBlock: QUQFOY_clean_sbu_1, # of connection points: 4
#     Node 4, Type 0, BuildingBlock: QUQFOY_clean_sbu_1, # of connection points: 4
#     Node 5, Type 0, BuildingBlock: QUQFOY_clean_sbu_1, # of connection points: 4
#     Node 6, Type 0, BuildingBlock: QUQFOY_clean_sbu_1, # of connection points: 4
#     Node 7, Type 0, BuildingBlock: QUQFOY_clean_sbu_1, # of connection points: 4
#     Node 8, Type 0, BuildingBlock: QUQFOY_clean_sbu_1, # of connection points: 4
#     Node 9, Type 0, BuildingBlock: QUQFOY_clean_sbu_1, # of connection points: 4
#     Node 10, Type 0, BuildingBlock: QUQFOY_clean_sbu_1, # of connection points: 4
#     Node 11, Type 0, BuildingBlock: QUQFOY_clean_sbu_1, # of connection points: 4
#     Node 12, Type 0, BuildingBlock: QUQFOY_clean_sbu_1, # of connection points: 4
#     Node 13, Type 0, BuildingBlock: QUQFOY_clean_sbu_1, # of connection points: 4
#     Node 14, Type 0, BuildingBlock: QUQFOY_clean_sbu_1, # of connection points: 4
#     Node 15, Type 0, BuildingBlock: QUQFOY_clean_sbu_1, # of connection points: 4
#     Node 16, Type 0, BuildingBlock: QUQFOY_clean_sbu_1, # of connection points: 4
#     Node 17, Type 0, BuildingBlock: QUQFOY_clean_sbu_1, # of connection points: 4
#     Node 18, Type 0, BuildingBlock: QUQFOY_clean_sbu_1, # of connection points: 4
#     Node 19, Type 0, BuildingBlock: QUQFOY_clean_sbu_1, # of connection points: 4
#     Node 20, Type 0, BuildingBlock: QUQFOY_clean_sbu_1, # of connection points: 4
#     Node 21, Type 0, BuildingBlock: QUQFOY_clean_sbu_1, # of connection points: 4
#     Node 22, Type 0, BuildingBlock: QUQFOY_clean_sbu_1, # of connection points: 4
#     Node 23, Type 0, BuildingBlock: QUQFOY_clean_sbu_1, # of connection points: 4
#     Node 24, Type 0, BuildingBlock: QUQFOY_clean_sbu_1, # of connection points: 4
#     Node 25, Type 0, BuildingBlock: QUQFOY_clean_sbu_1, # of connection points: 4
#     Node 26, Type 0, BuildingBlock: QUQFOY_clean_sbu_1, # of connection points: 4
#     Node 27, Type 0, BuildingBlock: QUQFOY_clean_sbu_1, # of connection points: 4
#     Node 28, Type 0, BuildingBlock: QUQFOY_clean_sbu_1, # of connection points: 4
#     Node 29, Type 0, BuildingBlock: QUQFOY_clean_sbu_1, # of connection points: 4
#     Node 30, Type 0, BuildingBlock: QUQFOY_clean_sbu_1, # of connection points: 4
#     Node 31, Type 0, BuildingBlock: QUQFOY_clean_sbu_1, # of connection points: 4
#     Edge 32, Type (0, 0), BuildingBlock: OJICUG_clean_linker_0, # of connection points: 2
#     Edge 33, Type (0, 0), BuildingBlock: OJICUG_clean_linker_0, # of connection points: 2
#     Edge 34, Type (0, 0), BuildingBlock: OJICUG_clean_linker_0, # of connection points: 2
#     Edge 35, Type (0, 0), BuildingBlock: OJICUG_clean_linker_0, # of connection points: 2
#     Edge 36, Type (0, 0), BuildingBlock: OJICUG_clean_linker_0, # of connection points: 2
#     Edge 37, Type (0, 0), BuildingBlock: OJICUG_clean_linker_0, # of connection points: 2
#     Edge 38, Type (0, 0), BuildingBlock: OJICUG_clean_linker_0, # of connection points: 2
#     Edge 39, Type (0, 0), BuildingBlock: OJICUG_clean_linker_0, # of connection points: 2
#     Edge 40, Type (0, 0), BuildingBlock: OJICUG_clean_linker_0, # of connection points: 2
#     Edge 41, Type (0, 0), BuildingBlock: OJICUG_clean_linker_0, # of connection points: 2
#     Edge 42, Type (0, 0), BuildingBlock: OJICUG_clean_linker_0, # of connection points: 2
#     Edge 43, Type (0, 0), BuildingBlock: OJICUG_clean_linker_0, # of connection points: 2
#     Edge 44, Type (0, 0), BuildingBlock: OJICUG_clean_linker_0, # of connection points: 2
#     Edge 45, Type (0, 0), BuildingBlock: OJICUG_clean_linker_0, # of connection points: 2
#     Edge 46, Type (0, 0), BuildingBlock: OJICUG_clean_linker_0, # of connection points: 2
#     Edge 47, Type (0, 0), BuildingBlock: OJICUG_clean_linker_0, # of connection points: 2
#     Edge 48, Type (0, 0), BuildingBlock: OJICUG_clean_linker_0, # of connection points: 2
#     Edge 49, Type (0, 0), BuildingBlock: OJICUG_clean_linker_0, # of connection points: 2
#     Edge 50, Type (0, 0), BuildingBlock: OJICUG_clean_linker_0, # of connection points: 2
#     Edge 51, Type (0, 0), BuildingBlock: OJICUG_clean_linker_0, # of connection points: 2
#     Edge 52, Type (0, 0), BuildingBlock: OJICUG_clean_linker_0, # of connection points: 2
#     Edge 53, Type (0, 0), BuildingBlock: OJICUG_clean_linker_0, # of connection points: 2
#     Edge 54, Type (0, 0), BuildingBlock: OJICUG_clean_linker_0, # of connection points: 2
#     Edge 55, Type (0, 0), BuildingBlock: OJICUG_clean_linker_0, # of connection points: 2
#     Edge 56, Type (0, 0), BuildingBlock: OJICUG_clean_linker_0, # of connection points: 2
#     Edge 57, Type (0, 0), BuildingBlock: OJICUG_clean_linker_0, # of connection points: 2
#     Edge 58, Type (0, 0), BuildingBlock: OJICUG_clean_linker_0, # of connection points: 2
#     Edge 59, Type (0, 0), BuildingBlock: OJICUG_clean_linker_0, # of connection points: 2
#     Edge 60, Type (0, 0), BuildingBlock: OJICUG_clean_linker_0, # of connection points: 2
#     Edge 61, Type (0, 0), BuildingBlock: OJICUG_clean_linker_0, # of connection points: 2
#     Edge 62, Type (0, 0), BuildingBlock: OJICUG_clean_linker_0, # of connection points: 2
#     Edge 63, Type (0, 0), BuildingBlock: OJICUG_clean_linker_0, # of connection points: 2
#     Edge 64, Type (0, 0), BuildingBlock: OJICUG_clean_linker_0, # of connection points: 2
#     Edge 65, Type (0, 0), BuildingBlock: OJICUG_clean_linker_0, # of connection points: 2
#     Edge 66, Type (0, 0), BuildingBlock: OJICUG_clean_linker_0, # of connection points: 2
#     Edge 67, Type (0, 0), BuildingBlock: OJICUG_clean_linker_0, # of connection points: 2
#     Edge 68, Type (0, 0), BuildingBlock: OJICUG_clean_linker_0, # of connection points: 2
#     Edge 69, Type (0, 0), BuildingBlock: OJICUG_clean_linker_0, # of connection points: 2
#     Edge 70, Type (0, 0), BuildingBlock: OJICUG_clean_linker_0, # of connection points: 2
#     Edge 71, Type (0, 0), BuildingBlock: OJICUG_clean_linker_0, # of connection points: 2
#     Edge 72, Type (0, 0), BuildingBlock: OJICUG_clean_linker_0, # of connection points: 2
#     Edge 73, Type (0, 0), BuildingBlock: OJICUG_clean_linker_0, # of connection points: 2
#     Edge 74, Type (0, 0), BuildingBlock: OJICUG_clean_linker_0, # of connection points: 2
#     Edge 75, Type (0, 0), BuildingBlock: OJICUG_clean_linker_0, # of connection points: 2
#     Edge 76, Type (0, 0), BuildingBlock: OJICUG_clean_linker_0, # of connection points: 2
#     Edge 77, Type (0, 0), BuildingBlock: OJICUG_clean_linker_0, # of connection points: 2
#     Edge 78, Type (0, 0), BuildingBlock: OJICUG_clean_linker_0, # of connection points: 2
#     Edge 79, Type (0, 0), BuildingBlock: OJICUG_clean_linker_0, # of connection points: 2
#     Edge 80, Type (0, 0), BuildingBlock: OJICUG_clean_linker_0, # of connection points: 2
#     Edge 81, Type (0, 0), BuildingBlock: OJICUG_clean_linker_0, # of connection points: 2
#     Edge 82, Type (0, 0), BuildingBlock: OJICUG_clean_linker_0, # of connection points: 2
#     Edge 83, Type (0, 0), BuildingBlock: OJICUG_clean_linker_0, # of connection points: 2
#     Edge 84, Type (0, 0), BuildingBlock: OJICUG_clean_linker_0, # of connection points: 2
#     Edge 85, Type (0, 0), BuildingBlock: OJICUG_clean_linker_0, # of connection points: 2
#     Edge 86, Type (0, 0), BuildingBlock: OJICUG_clean_linker_0, # of connection points: 2
#     Edge 87, Type (0, 0), BuildingBlock: OJICUG_clean_linker_0, # of connection points: 2
#     Edge 88, Type (0, 0), BuildingBlock: OJICUG_clean_linker_0, # of connection points: 2
#     Edge 89, Type (0, 0), BuildingBlock: OJICUG_clean_linker_0, # of connection points: 2
#     Edge 90, Type (0, 0), BuildingBlock: OJICUG_clean_linker_0, # of connection points: 2
#     Edge 91, Type (0, 0), BuildingBlock: OJICUG_clean_linker_0, # of connection points: 2
#     Edge 92, Type (0, 0), BuildingBlock: OJICUG_clean_linker_0, # of connection points: 2
#     Edge 93, Type (0, 0), BuildingBlock: OJICUG_clean_linker_0, # of connection points: 2
#     Edge 94, Type (0, 0), BuildingBlock: OJICUG_clean_linker_0, # of connection points: 2
#     Edge 95, Type (0, 0), BuildingBlock: OJICUG_clean_linker_0, # of connection points: 2
# Relax obj value: 0.078
# Max RMSD: 0.233
# Mean RMSD: 0.233
data_MOF--net-vbb--node1-QUQFOY_clean_sbu_1--edge1-OJICUG_clean_linker_0
_symmetry_space_group_name_H-M    P1
_symmetry_Int_Tables_number       1
_symmetry_cell_setting            triclinic
loop_
_symmetry_equiv_pos_as_xyz
'x, y, z'
_cell_length_a     32.434193
_cell_length_b     27.908175
_cell_length_c     77.523273
_cell_angle_alpha  89.992689
_cell_angle_beta   90.397398
_cell_angle_gamma 89.996696
loop_
_atom_site_label
_atom_site_type_symbol
_atom_site_fract_x
_atom_site_fract_y
_atom_site_fract_z
_atom_type_partial_charge
O0 O 0.51231 1.02596 0.08504 0.0
Cd1 Cd 0.49778 1.02944 0.11024 0.0
Cd2 Cd 0.46456 0.1104 0.10528 0.0
O3 O 0.46123 0.07685 0.0804 0.0
O4 O 0.47866 0.96685 0.12116 0.0
O5 O 0.43602 1.02066 0.11024 0.0
C6 C 0.4412 0.97996 0.11769 0.0
C7 C 0.42286 0.12138 0.12982 0.0
C8 C 0.48818 0.04724 0.07459 0.0
C9 C 0.54358 0.12114 0.11999 0.0
O10 O 0.51935 0.14192 0.10947 0.0
O11 O 0.53704 0.07737 0.12425 0.0
O12 O 0.4178 0.14818 0.11631 0.0
O13 O 0.44934 0.08727 0.12891 0.0
O14 O 0.74159 0.29615 0.08483 0.0
Cd15 Cd 0.74815 0.30145 0.11098 0.0
Cd16 Cd 0.78047 0.21157 0.10697 0.0
O17 O 0.78421 0.23504 0.08113 0.0
O18 O 0.76193 0.37017 0.11775 0.0
O19 O 0.80669 0.31077 0.11788 0.0
C20 C 0.79954 0.35564 0.11986 0.0
C21 C 0.82769 0.18399 0.1278 0.0
C22 C 0.76134 0.26835 0.07486 0.0
C23 C 0.69665 0.21931 0.12271 0.0
O24 O 0.7223 0.19395 0.11444 0.0
O25 O 0.70299 0.26413 0.12489 0.0
O26 O 0.81612 0.15619 0.1153 0.0
O27 O 0.81641 0.22804 0.12706 0.0
O28 O 0.50424 0.29564 0.24095 0.0
Cd29 Cd 0.49765 0.30073 0.21479 0.0
Cd30 Cd 0.46565 0.21072 0.21892 0.0
O31 O 0.46191 0.23429 0.24475 0.0
O32 O 0.48382 0.3694 0.20798 0.0
O33 O 0.43913 0.30995 0.20783 0.0
C34 C 0.44625 0.35483 0.20584 0.0
C35 C 0.41843 0.18287 0.19815 0.0
C36 C 0.48465 0.26778 0.25096 0.0
C37 C 0.5494 0.21877 0.20311 0.0
O38 O 0.52385 0.19335 0.21141 0.0
O39 O 0.54292 0.26355 0.20091 0.0
O40 O 0.43019 0.15514 0.21064 0.0
O41 O 0.42951 0.22698 0.19887 0.0
O42 O 0.73436 1.02656 0.24091 0.0
Cd43 Cd 0.7489 0.02993 0.21571 0.0
Cd44 Cd 0.78183 0.11108 0.22065 0.0
O45 O 0.78526 0.07769 0.24555 0.0
O46 O 0.76801 0.96727 0.20485 0.0
O47 O 0.81066 1.02125 0.21565 0.0
C48 C 0.80548 0.98047 0.20826 0.0
C49 C 0.82356 0.12238 0.19613 0.0
C50 C 0.75839 0.048 0.25136 0.0
C51 C 0.70278 0.1213 0.20588 0.0
O52 O 0.72689 0.14222 0.2164 0.0
O53 O 0.7095 0.07755 0.20164 0.0
O54 O 0.82838 0.14926 0.20964 0.0
O55 O 0.79733 0.08801 0.19704 0.0
O56 O 0.48406 0.0329 0.99066 0.0
Cd57 Cd 0.49863 1.02927 0.96546 0.0
Cd58 Cd 0.53183 0.94831 0.97047 0.0
O59 O 0.5351 0.98198 0.99532 0.0
O60 O 0.51787 0.09175 0.95448 0.0
O61 O 0.56041 0.03796 0.96548 0.0
C62 C 0.5553 0.0786 0.95799 0.0
C63 C 0.57358 0.9373 0.94594 0.0
C64 C 0.50817 1.01163 1.00111 0.0
C65 C 0.45283 0.93747 0.95575 0.0
O66 O 0.47706 0.91673 0.96628 0.0
O67 O 0.45936 0.98124 0.95148 0.0
O68 O 0.57865 0.91057 0.95947 0.0
O69 O 0.54703 0.97135 0.94682 0.0
O70 O 0.25461 0.76224 0.99088 0.0
Cd71 Cd 0.24819 0.75712 0.96471 0.0
Cd72 Cd 0.21594 0.84714 0.96883 0.0
O73 O 0.21239 0.82369 0.99467 0.0
O74 O 0.23432 0.68847 0.9579 0.0
O75 O 0.18974 0.74805 0.95763 0.0
C76 C 0.19679 0.70314 0.95568 0.0
C77 C 0.1685 0.87531 0.94821 0.0
C78 C 0.23509 0.79017 1.00089 0.0
C79 C 0.2998 0.83917 0.953 0.0
O80 O 0.27409 0.86456 0.96123 0.0
O81 O 0.29352 0.79433 0.95087 0.0
O82 O 0.18055 0.90292 0.96067 0.0
O83 O 0.17939 0.83113 0.94888 0.0
O84 O 0.49201 0.76256 0.83491 0.0
Cd85 Cd 0.49822 0.75722 0.86109 0.0
Cd86 Cd 0.53048 0.84732 0.85707 0.0
O87 O 0.53406 0.82421 0.83121 0.0
O88 O 0.51205 0.68851 0.86785 0.0
O89 O 0.55658 0.74812 0.86829 0.0
C90 C 0.54954 0.70318 0.87016 0.0
C91 C 0.57796 0.87547 0.87768 0.0
C92 C 0.51147 0.79066 0.82495 0.0
C93 C 0.44653 0.83911 0.87286 0.0
O94 O 0.47231 0.8646 0.86471 0.0
O95 O 0.45277 0.79423 0.87491 0.0
O96 O 0.56576 0.90314 0.86525 0.0
O97 O 0.56719 0.83125 0.87697 0.0
O98 O 0.26237 0.03321 0.83532 0.0
Cd99 Cd 0.24772 1.02935 0.8605 0.0
Cd100 Cd 0.21453 0.94847 0.85542 0.0
O101 O 0.21133 0.98234 0.83059 0.0
O102 O 0.22836 0.0917 0.87154 0.0
O103 O 0.18593 0.03798 0.86043 0.0
C104 C 0.19096 0.07855 0.86798 0.0
C105 C 0.17282 0.9374 0.87996 0.0
C106 C 0.23827 1.01203 0.82483 0.0
C107 C 0.29349 0.93744 0.87013 0.0
O108 O 0.26926 0.91679 0.85958 0.0
O109 O 0.28696 0.98118 0.87444 0.0
O110 O 0.16768 0.91076 0.86641 0.0
O111 O 0.19941 0.97139 0.8791 0.0
O112 O 0.5125 0.52574 0.58502 0.0
Cd113 Cd 0.49813 0.52887 0.61026 0.0
Cd114 Cd 0.46528 0.61018 0.60537 0.0
O115 O 0.46166 0.57699 0.58045 0.0
O116 O 0.47912 0.46607 0.62104 0.0
O117 O 0.43639 0.52025 0.61042 0.0
C118 C 0.44163 0.47936 0.61772 0.0
C119 C 0.4235 0.62193 0.62982 0.0
C120 C 0.48846 0.54728 0.5746 0.0
C121 C 0.54442 0.61998 0.62015 0.0
O122 O 0.52034 0.64101 0.60964 0.0
O123 O 0.53765 0.57623 0.62436 0.0
O124 O 0.41895 0.64883 0.61631 0.0
O125 O 0.44946 0.58727 0.62895 0.0
O126 O 0.74131 0.79571 0.585 0.0
Cd127 Cd 0.74869 0.80053 0.61109 0.0
Cd128 Cd 0.78104 0.71101 0.60694 0.0
O129 O 0.78481 0.7355 0.58118 0.0
O130 O 0.76272 0.86901 0.61815 0.0
O131 O 0.80763 0.80984 0.61736 0.0
C132 C 0.80046 0.85453 0.61979 0.0
C133 C 0.82806 0.68427 0.62802 0.0
C134 C 0.76147 0.76848 0.57497 0.0
C135 C 0.69763 0.71769 0.62272 0.0
O136 O 0.72297 0.69264 0.61417 0.0
O137 O 0.70418 0.76239 0.62514 0.0
O138 O 0.8175 0.65638 0.61539 0.0
O139 O 0.81575 0.72794 0.62735 0.0
O140 O 0.50471 0.79704 0.74108 0.0
Cd141 Cd 0.49838 0.80244 0.71492 0.0
Cd142 Cd 0.46637 0.71242 0.71887 0.0
O143 O 0.46248 0.73554 0.74473 0.0
O144 O 0.48455 0.87118 0.70822 0.0
O145 O 0.43995 0.81163 0.70782 0.0
C146 C 0.44702 0.85657 0.70596 0.0
C147 C 0.41925 0.68445 0.69808 0.0
C148 C 0.48513 0.769 0.75103 0.0
C149 C 0.55031 0.72072 0.7032 0.0
O150 O 0.52463 0.69518 0.71139 0.0
O151 O 0.54388 0.76554 0.70108 0.0
O152 O 0.4311 0.65674 0.71056 0.0
O153 O 0.43016 0.72862 0.69882 0.0
O154 O 0.73481 0.52759 0.74104 0.0
Cd155 Cd 0.74947 0.53128 0.71586 0.0
Cd156 Cd 0.78252 0.61229 0.72093 0.0
O157 O 0.78579 0.57854 0.74578 0.0
O158 O 0.76859 0.46878 0.70487 0.0
O159 O 0.81123 0.52246 0.71588 0.0
C160 C 0.80605 0.48185 0.70837 0.0
C161 C 0.82426 0.62342 0.69641 0.0
C162 C 0.75886 0.54883 0.75153 0.0
C163 C 0.70358 0.62298 0.70615 0.0
O164 O 0.72769 0.64372 0.71672 0.0
O165 O 0.71022 0.57925 0.70185 0.0
O166 O 0.82924 0.65021 0.70992 0.0
O167 O 0.79783 0.58925 0.6973 0.0
O168 O 0.48418 0.53385 0.49066 0.0
Cd169 Cd 0.49857 0.53054 0.46543 0.0
Cd170 Cd 0.53172 0.44949 0.47032 0.0
O171 O 0.53521 0.48285 0.49522 0.0
O172 O 0.51767 0.59322 0.45457 0.0
O173 O 0.56032 0.53921 0.46536 0.0
C174 C 0.55513 0.58001 0.45798 0.0
C175 C 0.57335 0.43829 0.44577 0.0
C176 C 0.50832 0.51246 0.50107 0.0
C177 C 0.4526 0.439 0.45566 0.0
O178 O 0.47686 0.41814 0.46614 0.0
O179 O 0.45916 0.48279 0.45142 0.0
O180 O 0.57832 0.41147 0.45928 0.0
O181 O 0.54703 0.47257 0.44669 0.0
O182 O 0.25506 0.26337 0.491 0.0
Cd183 Cd 0.24823 0.25842 0.46486 0.0
Cd184 Cd 0.21589 0.34824 0.46904 0.0
O185 O 0.2123 0.32429 0.49484 0.0
O186 O 0.23432 0.18982 0.45795 0.0
O187 O 0.18959 0.24924 0.45809 0.0
C188 C 0.1967 0.20441 0.45596 0.0
C189 C 0.16857 0.37597 0.44827 0.0
C190 C 0.23528 0.29098 0.50103 0.0
C191 C 0.29954 0.3408 0.45317 0.0
O192 O 0.274 0.36602 0.46155 0.0
O193 O 0.29317 0.29601 0.45091 0.0
O194 O 0.18013 0.40365 0.46081 0.0
O195 O 0.17994 0.33195 0.44893 0.0
O196 O 0.49148 0.26284 0.33486 0.0
Cd197 Cd 0.498 0.25784 0.36103 0.0
Cd198 Cd 0.53014 0.34785 0.35685 0.0
O199 O 0.53375 0.32423 0.33104 0.0
O200 O 0.51194 0.18924 0.36789 0.0
O201 O 0.5565 0.24883 0.36804 0.0
C202 C 0.54948 0.20394 0.37005 0.0
C203 C 0.57749 0.37604 0.37751 0.0
C204 C 0.51103 0.2907 0.32484 0.0
C205 C 0.44637 0.33989 0.37271 0.0
O206 O 0.47197 0.36527 0.36442 0.0
O207 O 0.45274 0.29508 0.37489 0.0
O208 O 0.56553 0.40362 0.36502 0.0
O209 O 0.56655 0.33187 0.37686 0.0
O210 O 0.26187 0.53311 0.33513 0.0
Cd211 Cd 0.24734 0.52962 0.36033 0.0
Cd212 Cd 0.21419 0.44864 0.35539 0.0
O213 O 0.21086 0.48214 0.33049 0.0
O214 O 0.22815 0.59217 0.37125 0.0
O215 O 0.18557 0.5383 0.36033 0.0
C216 C 0.1907 0.579 0.36778 0.0
C217 C 0.17257 0.43762 0.37995 0.0
C218 C 0.23778 0.51177 0.32468 0.0
C219 C 0.29323 0.43795 0.37008 0.0
O220 O 0.269 0.41715 0.35957 0.0
O221 O 0.28667 0.48172 0.37433 0.0
O222 O 0.16749 0.41082 0.36644 0.0
O223 O 0.19901 0.47176 0.37903 0.0
O224 O 0.01249 1.02601 0.58513 0.0
Cd225 Cd 0.99805 1.02919 0.61036 0.0
Cd226 Cd 0.96513 0.11043 0.60543 0.0
O227 O 0.96157 0.07713 0.58053 0.0
O228 O 0.97909 0.96637 0.62113 0.0
O229 O 0.93632 1.0205 0.6105 0.0
C230 C 0.94159 0.9796 0.6178 0.0
C231 C 0.92331 0.12217 0.62988 0.0
C232 C 0.98843 0.04746 0.5747 0.0
C233 C 0.04425 0.12037 0.62023 0.0
O234 O 0.02017 0.14133 0.6097 0.0
O235 O 0.03749 0.07663 0.62447 0.0
O236 O 0.91875 0.14903 0.61635 0.0
O237 O 0.94932 0.08755 0.62901 0.0
O238 O 0.24178 0.29531 0.58493 0.0
Cd239 Cd 0.24883 0.30033 0.61106 0.0
Cd240 Cd 0.28103 0.21053 0.60691 0.0
O241 O 0.28468 0.23451 0.58111 0.0
O242 O 0.26278 0.36893 0.61796 0.0
O243 O 0.30756 0.30957 0.61767 0.0
C244 C 0.30044 0.35437 0.61985 0.0
C245 C 0.32823 0.18314 0.62779 0.0
C246 C 0.26162 0.26774 0.57491 0.0
C247 C 0.1975 0.21798 0.62279 0.0
O248 O 0.22292 0.19273 0.61435 0.0
O249 O 0.204 0.26273 0.62507 0.0
O250 O 0.31693 0.15533 0.61525 0.0
O251 O 0.31666 0.22708 0.62709 0.0
O252 O 0.00474 0.29705 0.74112 0.0
Cd253 Cd -0.00158 0.30248 0.71495 0.0
Cd254 Cd 0.96624 0.21255 0.7189 0.0
O255 O 0.9624 0.23565 0.74476 0.0
O256 O 0.9847 0.37126 0.70827 0.0
O257 O 0.94 0.31181 0.70785 0.0
C258 C 0.94715 0.35674 0.70601 0.0
C259 C 0.91905 0.18465 0.69813 0.0
C260 C 0.98511 0.26905 0.75106 0.0
C261 C 0.05019 0.22067 0.70321 0.0
O262 O 0.02447 0.19519 0.7114 0.0
O263 O 0.04385 0.26551 0.7011 0.0
O264 O 0.93089 0.15692 0.7106 0.0
O265 O 0.93 0.22881 0.69887 0.0
O266 O 0.23437 1.02694 0.74092 0.0
Cd267 Cd 0.24902 0.03066 0.71574 0.0
Cd268 Cd 0.28225 0.11154 0.72076 0.0
O269 O 0.28543 0.0778 0.74562 0.0
O270 O 0.26828 0.96825 0.70473 0.0
O271 O 0.3108 1.02192 0.71581 0.0
C272 C 0.3057 0.98134 0.70827 0.0
C273 C 0.32392 0.12229 0.69618 0.0
C274 C 0.25847 0.04816 0.75139 0.0
C275 C 0.20331 0.12255 0.70605 0.0
O276 O 0.22754 0.14326 0.71658 0.0
O277 O 0.20982 0.07879 0.70177 0.0
O278 O 0.32914 0.14904 0.70969 0.0
O279 O 0.29727 0.08837 0.6971 0.0
O280 O 0.9843 0.03368 0.49076 0.0
Cd281 Cd -0.00123 0.03026 0.46555 0.0
Cd282 Cd 0.03176 0.94914 0.47048 0.0
O283 O 0.03524 0.98258 0.49537 0.0
O284 O 0.01793 0.09287 0.45466 0.0
O285 O 0.06053 0.03885 0.46548 0.0
C286 C 0.05538 0.07963 0.45808 0.0
C287 C 0.07345 0.9378 0.44596 0.0
C288 C 0.00838 1.01227 0.50119 0.0
C289 C 0.95266 0.93882 0.45578 0.0
O290 O 0.97684 0.91793 0.46628 0.0
O291 O 0.95933 0.98257 0.45152 0.0
O292 O 0.07832 0.91098 0.45948 0.0
O293 O 0.04718 0.97213 0.44686 0.0
O294 O 0.75463 0.76397 0.49107 0.0
Cd295 Cd 0.74783 0.759 0.46491 0.0
Cd296 Cd 0.71576 0.84894 0.46912 0.0
O297 O 0.71219 0.82518 0.49493 0.0
O298 O 0.73394 0.69039 0.45804 0.0
O299 O 0.68925 0.74985 0.45803 0.0
C300 C 0.69635 0.70499 0.45596 0.0
C301 C 0.66843 0.87692 0.44841 0.0
C302 C 0.73505 0.79174 0.50111 0.0
C303 C 0.7994 0.8411 0.45321 0.0
O304 O 0.7739 0.86644 0.46156 0.0
O305 O 0.79295 0.79632 0.45098 0.0
O306 O 0.68023 0.90457 0.46091 0.0
O307 O 0.67952 0.8328 0.44908 0.0
O308 O 0.99139 0.76315 0.33487 0.0
Cd309 Cd 0.99798 0.75794 0.36103 0.0
Cd310 Cd 0.03031 0.8478 0.35696 0.0
O311 O 0.03398 0.82428 0.33113 0.0
O312 O 0.01184 0.68926 0.36783 0.0
O313 O 0.05651 0.74874 0.36796 0.0
C314 C 0.04942 0.70386 0.36996 0.0
C315 C 0.07762 0.87569 0.37769 0.0
C316 C 0.01111 0.79094 0.32488 0.0
C317 C 0.94652 0.84007 0.37277 0.0
O318 O 0.97216 0.8654 0.36449 0.0
O319 O 0.95283 0.79524 0.37494 0.0
O320 O 0.06585 0.90337 0.36519 0.0
O321 O 0.0665 0.83158 0.37701 0.0
O322 O 0.76235 0.03394 0.3353 0.0
Cd323 Cd 0.74777 0.03029 0.36049 0.0
Cd324 Cd 0.71452 0.9494 0.35553 0.0
O325 O 0.7113 0.98303 0.33066 0.0
O326 O 0.72842 0.0927 0.37148 0.0
O327 O 0.68598 0.03888 0.36044 0.0
C328 C 0.69102 0.0795 0.36795 0.0
C329 C 0.67286 0.93854 0.3801 0.0
C330 C 0.73823 1.01266 0.32485 0.0
C331 C 0.79352 0.93843 0.3702 0.0
O332 O 0.76924 0.91769 0.3597 0.0
O333 O 0.78704 0.98222 0.37446 0.0
O334 O 0.66767 0.91181 0.36658 0.0
O335 O 0.69948 0.9725 0.3792 0.0
O336 O 0.01183 0.52657 0.08495 0.0
Cd337 Cd 0.99729 0.53008 0.11015 0.0
Cd338 Cd 0.96439 0.61122 0.10515 0.0
O339 O 0.96095 0.57769 0.08027 0.0
O340 O 0.97816 0.46749 0.12106 0.0
O341 O 0.93553 0.52141 0.1102 0.0
C342 C 0.9407 0.48067 0.11763 0.0
C343 C 0.92269 0.62261 0.12966 0.0
C344 C 0.98781 0.54795 0.07449 0.0
C345 C 0.04345 0.62149 0.11991 0.0
O346 O 0.01934 0.64237 0.10936 0.0
O347 O 0.03671 0.57777 0.12418 0.0
O348 O 0.91785 0.64944 0.11614 0.0
O349 O 0.94893 0.58824 0.12877 0.0
O350 O 0.24207 0.79562 0.08476 0.0
Cd351 Cd 0.24865 0.8008 0.11092 0.0
Cd352 Cd 0.28061 0.71079 0.10685 0.0
O353 O 0.28437 0.73424 0.08101 0.0
O354 O 0.26247 0.86949 0.1177 0.0
O355 O 0.30718 0.81004 0.11789 0.0
C356 C 0.30005 0.85492 0.11986 0.0
C357 C 0.32779 0.68297 0.12764 0.0
C358 C 0.26164 0.76771 0.07477 0.0
C359 C 0.19685 0.71891 0.12263 0.0
O360 O 0.2224 0.69345 0.11435 0.0
O361 O 0.20335 0.7637 0.12481 0.0
O362 O 0.31606 0.65522 0.11516 0.0
O363 O 0.31672 0.72708 0.12691 0.0
O364 O 0.00499 0.79615 0.241 0.0
Cd365 Cd 0.99821 0.80138 0.21486 0.0
Cd366 Cd 0.96582 0.71163 0.21888 0.0
O367 O 0.96204 0.73535 0.24471 0.0
O368 O 0.98433 0.87004 0.20803 0.0
O369 O 0.93955 0.81067 0.20814 0.0
C370 C 0.94669 0.85551 0.20605 0.0
C371 C 0.91867 0.68424 0.19799 0.0
C372 C 0.98507 0.76852 0.25097 0.0
C373 C 0.04954 0.71906 0.20314 0.0
O374 O 0.02397 0.69379 0.21148 0.0
O375 O 0.04317 0.76386 0.2009 0.0
O376 O 0.92998 0.65643 0.21053 0.0
O377 O 0.9302 0.7282 0.1987 0.0
O378 O 0.23391 0.52568 0.24074 0.0
Cd379 Cd 0.24844 0.52917 0.21553 0.0
Cd380 Cd 0.2816 0.61018 0.22049 0.0
O381 O 0.28491 0.57666 0.24538 0.0
O382 O 0.26757 0.46661 0.2046 0.0
O383 O 0.31019 0.52044 0.21551 0.0
C384 C 0.30503 0.47975 0.20806 0.0
C385 C 0.32334 0.6213 0.19597 0.0
C386 C 0.25799 0.54702 0.25118 0.0
C387 C 0.20258 0.62084 0.20577 0.0
O388 O 0.22679 0.64164 0.21628 0.0
O389 O 0.20914 0.57706 0.20152 0.0
O390 O 0.32832 0.64808 0.20948 0.0
O391 O 0.29692 0.58712 0.19686 0.0
O392 O 0.98391 0.53331 0.99055 0.0
Cd393 Cd -0.00147 0.52947 0.96537 0.0
Cd394 Cd 0.03168 0.44852 0.97045 0.0
O395 O 0.03489 0.48234 0.99528 0.0
O396 O 0.01788 0.59183 0.95433 0.0
O397 O 0.06032 0.53808 0.96542 0.0
C398 C 0.05529 0.57866 0.95787 0.0
C399 C 0.07349 0.4374 0.94594 0.0
C400 C 0.00798 0.51206 1.00104 0.0
C401 C 0.95272 0.43761 0.95572 0.0
O402 O 0.97693 0.41691 0.96627 0.0
O403 O 0.95926 0.48136 0.95142 0.0
O404 O 0.07855 0.41075 0.95949 0.0
O405 O 0.04691 0.47143 0.94679 0.0
O406 O 0.75452 0.26258 0.99097 0.0
Cd407 Cd 0.74807 0.25737 0.9648 0.0
Cd408 Cd 0.71583 0.34735 0.96887 0.0
O409 O 0.71225 0.324 0.99472 0.0
O410 O 0.7342 0.18869 0.95802 0.0
O411 O 0.6896 0.24825 0.95774 0.0
C412 C 0.69666 0.20333 0.95581 0.0
C413 C 0.66839 0.37549 0.94824 0.0
C414 C 0.73497 0.29052 1.00096 0.0
C415 C 0.79967 0.33935 0.95305 0.0
O416 O 0.77398 0.36477 0.96127 0.0
O417 O 0.79338 0.2945 0.95093 0.0
O418 O 0.68044 0.40311 0.9607 0.0
O419 O 0.67928 0.3313 0.94892 0.0
O420 O 0.99191 0.26258 0.83494 0.0
Cd421 Cd 0.99817 0.2572 0.86112 0.0
Cd422 Cd 0.03049 0.34724 0.85712 0.0
O423 O 0.03405 0.32415 0.83125 0.0
O424 O 0.012 0.18848 0.86786 0.0
O425 O 0.05655 0.24808 0.86829 0.0
C426 C 0.0495 0.20313 0.87015 0.0
C427 C 0.07799 0.37539 0.87772 0.0
C428 C 0.01141 0.29065 0.82498 0.0
C429 C 0.94656 0.33911 0.87292 0.0
O430 O 0.97234 0.36458 0.86476 0.0
O431 O 0.95278 0.29423 0.87497 0.0
O432 O 0.0658 0.40305 0.86528 0.0
O433 O 0.06721 0.33117 0.87701 0.0
O434 O 0.76261 0.53356 0.83545 0.0
Cd435 Cd 0.74789 0.52959 0.86063 0.0
Cd436 Cd 0.71469 0.44874 0.8555 0.0
O437 O 0.71158 0.48272 0.83068 0.0
O438 O 0.72846 0.59186 0.87169 0.0
O439 O 0.6861 0.53818 0.86051 0.0
C440 C 0.69107 0.57871 0.86809 0.0
C441 C 0.6729 0.43763 0.88001 0.0
C442 C 0.73854 0.51243 0.82495 0.0
C443 C 0.7936 0.43759 0.87023 0.0
O444 O 0.76938 0.41699 0.85966 0.0
O445 O 0.78709 0.48132 0.87456 0.0
O446 O 0.66776 0.41105 0.86645 0.0
O447 O 0.69954 0.47159 0.87918 0.0
C448 C 0.4087 0.09988 0.16045 0.0
C449 C 0.40524 0.13329 0.14688 0.0
H450 H 0.4144 0.08926 0.18771 0.0
C451 C 0.39415 0.1806 0.15081 0.0
H452 H 0.41656 0.06287 0.15781 0.0
C453 C 0.39272 0.19569 0.16804 0.0
C454 C 0.40242 0.1637 0.18156 0.0
H455 H 0.39097 0.20709 0.14068 0.0
H456 H 0.38829 0.23348 0.17062 0.0
C457 C 0.40722 0.11493 0.17765 0.0
C458 C 0.8519 0.18186 0.17515 0.0
C459 C 0.8411 0.13445 0.17907 0.0
H460 H 0.85745 0.23482 0.15535 0.0
C461 C 0.83787 0.10104 0.1655 0.0
H462 H 0.8549 0.20836 0.18529 0.0
C463 C 0.83925 0.11613 0.1483 0.0
C464 C 0.84377 0.16494 0.1444 0.0
H465 H 0.83024 0.06396 0.16814 0.0
H466 H 0.83226 0.09042 0.13824 0.0
C467 C 0.85325 0.19699 0.15793 0.0
C468 C 0.58918 0.94354 0.89812 0.0
C469 C 0.59405 0.89476 0.89425 0.0
H470 H 0.5798 0.99569 0.91792 0.0
C471 C 0.60386 0.86288 0.90779 0.0
H472 H 0.58195 0.96913 0.88804 0.0
C473 C 0.60243 0.87806 0.925 0.0
C474 C 0.59124 0.92536 0.92889 0.0
H475 H 0.60835 0.82508 0.90522 0.0
H476 H 0.60566 0.85163 0.93515 0.0
C477 C 0.58773 0.95869 0.91531 0.0
C478 C 0.15871 0.95867 0.91061 0.0
C479 C 0.15518 0.92539 0.89701 0.0
H480 H 0.16451 0.96903 0.93788 0.0
C481 C 0.144 0.87808 0.90089 0.0
H482 H 0.16663 0.99568 0.908 0.0
C483 C 0.14259 0.86283 0.9181 0.0
C484 C 0.1524 0.89467 0.93165 0.0
H485 H 0.14075 0.85168 0.89073 0.0
H486 H 0.1381 0.82502 0.92065 0.0
C487 C 0.15726 0.94346 0.92779 0.0
C488 C 0.40917 0.60104 0.66049 0.0
C489 C 0.406 0.63428 0.64687 0.0
H490 H 0.41469 0.59074 0.68778 0.0
C491 C 0.39527 0.68176 0.65071 0.0
H492 H 0.41674 0.56391 0.65793 0.0
C493 C 0.39389 0.69711 0.6679 0.0
C494 C 0.40329 0.66522 0.68149 0.0
H495 H 0.3923 0.70815 0.64053 0.0
H496 H 0.3897 0.73498 0.67042 0.0
C497 C 0.40777 0.61635 0.67767 0.0
C498 C 0.8388 0.6018 0.66583 0.0
C499 C 0.84184 0.6354 0.67935 0.0
H500 H 0.83324 0.59084 0.63857 0.0
C501 C 0.85234 0.68285 0.67535 0.0
H502 H 0.83138 0.5647 0.66852 0.0
C503 C 0.85357 0.69779 0.65811 0.0
C504 C 0.84429 0.66551 0.64463 0.0
H505 H 0.85516 0.70949 0.68545 0.0
H506 H 0.85751 0.73563 0.65547 0.0
C507 C 0.8401 0.61671 0.6486 0.0
C508 C 0.60199 0.37888 0.42483 0.0
C509 C 0.59085 0.42622 0.4287 0.0
H510 H 0.60784 0.32579 0.40509 0.0
C511 C 0.58729 0.45946 0.41509 0.0
H512 H 0.60526 0.35251 0.435 0.0
C513 C 0.5887 0.44422 0.39791 0.0
C514 C 0.59356 0.39542 0.39407 0.0
H515 H 0.57941 0.49649 0.41768 0.0
H516 H 0.58145 0.46977 0.38781 0.0
C517 C 0.60336 0.3636 0.40763 0.0
C518 C 0.14403 0.37832 0.40096 0.0
C519 C 0.15505 0.42566 0.39703 0.0
H520 H 0.13834 0.32538 0.42076 0.0
C521 C 0.15853 0.45904 0.4106 0.0
H522 H 0.14083 0.35185 0.39082 0.0
C523 C 0.15716 0.44394 0.4278 0.0
C524 C 0.15243 0.39515 0.4317 0.0
H525 H 0.16633 0.49606 0.40796 0.0
H526 H 0.16435 0.46959 0.43787 0.0
C527 C 0.1427 0.36319 0.41818 0.0
C528 C 0.90892 0.10126 0.66054 0.0
C529 C 0.90578 0.13451 0.64692 0.0
H530 H 0.91442 0.09095 0.68783 0.0
C531 C 0.89506 0.182 0.65076 0.0
H532 H 0.91648 0.06413 0.65797 0.0
C533 C 0.89368 0.19734 0.66795 0.0
C534 C 0.90306 0.16544 0.68153 0.0
H535 H 0.89212 0.20839 0.64058 0.0
H536 H 0.88951 0.23521 0.67047 0.0
C537 C 0.90751 0.11657 0.67772 0.0
C538 C 0.3396 0.11541 0.64836 0.0
C539 C 0.34433 0.16415 0.6444 0.0
H540 H 0.33034 0.06351 0.66827 0.0
C541 C 0.35398 0.19628 0.65788 0.0
H542 H 0.33246 0.08965 0.63833 0.0
C543 C 0.35259 0.18134 0.67512 0.0
C544 C 0.34156 0.13404 0.67911 0.0
H545 H 0.35834 0.23406 0.65524 0.0
H546 H 0.35572 0.20793 0.68522 0.0
C547 C 0.33816 0.10051 0.66559 0.0
C548 C 0.08902 0.94375 0.39812 0.0
C549 C 0.09369 0.89493 0.39427 0.0
H550 H 0.07986 0.99603 0.4179 0.0
C551 C 0.10331 0.86303 0.40782 0.0
H552 H 0.08192 0.96936 0.38803 0.0
C553 C 0.10194 0.87828 0.42503 0.0
C554 C 0.09099 0.92567 0.42891 0.0
H555 H 0.10765 0.8252 0.40528 0.0
H556 H 0.10506 0.85186 0.43519 0.0
C557 C 0.08762 0.95897 0.4153 0.0
C558 C 0.65732 0.94495 0.42794 0.0
C559 C 0.65237 0.89619 0.43183 0.0
H560 H 0.66678 0.99702 0.40811 0.0
C561 C 0.64255 0.86428 0.41831 0.0
H562 H 0.66459 0.97055 0.43801 0.0
C563 C 0.64399 0.87941 0.40109 0.0
C564 C 0.65523 0.92668 0.39717 0.0
H565 H 0.63801 0.8265 0.42089 0.0
H566 H 0.64071 0.85295 0.39095 0.0
C567 C 0.6588 0.96004 0.41074 0.0
C568 C 0.90699 0.61641 0.17749 0.0
C569 C 0.90257 0.66523 0.18139 0.0
H570 H 0.91589 0.56421 0.15766 0.0
C571 C 0.89317 0.6973 0.16786 0.0
H572 H 0.91393 0.59068 0.18756 0.0
C573 C 0.89447 0.68217 0.15064 0.0
C574 C 0.90516 0.63473 0.14672 0.0
H575 H 0.88904 0.73515 0.17044 0.0
H576 H 0.89153 0.70868 0.1405 0.0
C577 C 0.90834 0.60131 0.16029 0.0
C578 C 0.35194 0.68065 0.17499 0.0
C579 C 0.34095 0.6333 0.17891 0.0
H580 H 0.35774 0.7336 0.1552 0.0
C581 C 0.33759 0.59992 0.16534 0.0
H582 H 0.35505 0.70712 0.18514 0.0
C583 C 0.33906 0.61502 0.14814 0.0
C584 C 0.34378 0.66381 0.14425 0.0
H585 H 0.3298 0.56288 0.16797 0.0
H586 H 0.33197 0.58935 0.13807 0.0
C587 C 0.35338 0.69579 0.15778 0.0
C588 C 0.10382 0.36285 0.90783 0.0
C589 C 0.09408 0.39471 0.89428 0.0
H590 H 0.10554 0.35166 0.9352 0.0
C591 C 0.08925 0.44351 0.89813 0.0
H592 H 0.10829 0.32504 0.90528 0.0
C593 C 0.08776 0.4587 0.91531 0.0
C594 C 0.09121 0.4254 0.92891 0.0
H595 H 0.08207 0.46909 0.88804 0.0
H596 H 0.07987 0.49572 0.91791 0.0
C597 C 0.10237 0.37808 0.92504 0.0
C598 C 0.65717 0.44364 0.92783 0.0
C599 C 0.65232 0.39484 0.93167 0.0
H600 H 0.66657 0.49589 0.90806 0.0
C601 C 0.64257 0.36301 0.91811 0.0
H602 H 0.66436 0.4692 0.93793 0.0
C603 C 0.64402 0.37828 0.90091 0.0
C604 C 0.65519 0.42561 0.89704 0.0
H605 H 0.63809 0.3252 0.92066 0.0
H606 H 0.64083 0.35189 0.89075 0.0
C607 C 0.65866 0.45887 0.91065 0.0
C608 C 0.33026 0.93773 0.11979 0.0
C609 C 0.33511 0.88836 0.1225 0.0
H610 H 0.36005 1.00537 0.11624 0.0
C611 C 0.37505 0.87023 0.12564 0.0
H612 H 0.30002 0.95285 0.11735 0.0
C613 C 0.40958 0.90031 0.12501 0.0
C614 C 0.40491 0.9491 0.12112 0.0
H615 H 0.37988 0.83231 0.12787 0.0
H616 H 0.43998 0.8849 0.12674 0.0
C617 C 0.36478 0.96774 0.11906 0.0
C618 C 0.82974 0.43846 0.11976 0.0
C619 C 0.8346 0.3891 0.12249 0.0
H620 H 0.85954 0.50609 0.11617 0.0
C621 C 0.87454 0.37098 0.12563 0.0
H622 H 0.7995 0.45357 0.11731 0.0
C623 C 0.90907 0.40105 0.12497 0.0
C624 C 0.9044 0.44983 0.12106 0.0
H625 H 0.87937 0.33307 0.12787 0.0
H626 H 0.93947 0.38564 0.12671 0.0
C627 C 0.86427 0.46847 0.11901 0.0
C628 C 0.37124 0.3701 0.20006 0.0
C629 C 0.41117 0.38825 0.20319 0.0
H630 H 0.3063 0.38472 0.19898 0.0
C631 C 0.416 0.43762 0.20591 0.0
H632 H 0.36644 0.33219 0.19782 0.0
C633 C 0.38145 0.4676 0.20666 0.0
C634 C 0.34133 0.44894 0.20461 0.0
H635 H 0.44623 0.45276 0.20836 0.0
H636 H 0.38616 0.50523 0.20948 0.0
C637 C 0.33669 0.40015 0.20071 0.0
C638 C 0.8819 0.96831 0.20682 0.0
C639 C 0.84177 0.94962 0.20483 0.0
H640 H 0.94669 0.95347 0.20847 0.0
C641 C 0.83711 0.9008 0.20101 0.0
H642 H 0.88663 1.00596 0.20959 0.0
C643 C 0.87165 0.87074 0.20036 0.0
C644 C 0.9116 0.88892 0.20342 0.0
H645 H 0.80671 0.88535 0.19933 0.0
H646 H 0.86682 0.8328 0.19818 0.0
C647 C 0.91645 0.93831 0.20607 0.0
C648 C 0.66633 0.12059 0.95591 0.0
C649 C 0.66156 0.16996 0.95315 0.0
H650 H 0.63641 0.05304 0.9595 0.0
C651 C 0.62166 0.18815 0.94997 0.0
H652 H 0.69653 0.10542 0.95839 0.0
C653 C 0.58708 0.15814 0.95061 0.0
C654 C 0.59165 0.10937 0.95455 0.0
H655 H 0.6169 0.22606 0.9477 0.0
H656 H 0.55671 0.1736 0.94884 0.0
C657 C 0.63175 0.09066 0.95664 0.0
C658 C 0.12179 0.68804 0.9498 0.0
C659 C 0.16166 0.6698 0.95301 0.0
H660 H 0.05683 0.6736 0.94865 0.0
C661 C 0.16637 0.62044 0.95579 0.0
H662 H 0.11709 0.72595 0.94751 0.0
C663 C 0.13175 0.59057 0.95654 0.0
C664 C 0.09168 0.60933 0.95442 0.0
H665 H 0.19655 0.60524 0.9583 0.0
H666 H 0.13636 0.55295 0.95942 0.0
C667 C 0.08717 0.65809 0.95044 0.0
C668 C 0.57998 0.62048 0.87004 0.0
C669 C 0.58465 0.66983 0.87286 0.0
H670 H 0.61002 0.55302 0.86641 0.0
C671 C 0.62449 0.68805 0.87615 0.0
H672 H 0.54982 0.6053 0.86747 0.0
C673 C 0.65912 0.6581 0.87554 0.0
C674 C 0.65465 0.60937 0.87152 0.0
H675 H 0.62918 0.72594 0.87848 0.0
H676 H 0.68945 0.67359 0.87738 0.0
C677 C 0.6146 0.59062 0.86933 0.0
C678 C 0.07989 0.12041 0.87 0.0
C679 C 0.08461 0.16976 0.87282 0.0
H680 H 0.10988 0.05293 0.86635 0.0
C681 C 0.12448 0.18794 0.87608 0.0
H682 H 0.04972 0.10525 0.86746 0.0
C683 C 0.15908 0.15797 0.87544 0.0
C684 C 0.15457 0.10924 0.87143 0.0
H685 H 0.12919 0.22583 0.8784 0.0
H686 H 0.18943 0.17344 0.87726 0.0
C687 C 0.1145 0.09052 0.86926 0.0
C688 C 0.36521 0.46718 0.61922 0.0
C689 C 0.40535 0.44846 0.62113 0.0
H690 H 0.30041 0.45237 0.61762 0.0
C691 C 0.41005 0.39957 0.62485 0.0
H692 H 0.36047 0.50488 0.61653 0.0
C693 C 0.37551 0.36951 0.62547 0.0
C694 C 0.33554 0.38774 0.62249 0.0
H695 H 0.44046 0.3841 0.62646 0.0
H696 H 0.38035 0.33154 0.62758 0.0
C697 C 0.33067 0.43718 0.61995 0.0
C698 C 0.83066 0.93736 0.62007 0.0
C699 C 0.83557 0.88786 0.62246 0.0
H700 H 0.86042 1.00514 0.61681 0.0
C701 C 0.87557 0.86958 0.62533 0.0
H702 H 0.80037 0.95257 0.61783 0.0
C703 C 0.91008 0.89968 0.62476 0.0
C704 C 0.90535 0.94864 0.62119 0.0
H705 H 0.88043 0.83157 0.62732 0.0
H706 H 0.94051 0.88418 0.62628 0.0
C707 C 0.86519 0.96739 0.61939 0.0
C708 C 0.41671 0.93932 0.70617 0.0
C709 C 0.41194 0.88999 0.70334 0.0
H710 H 0.38682 1.00684 0.70986 0.0
C711 C 0.37203 0.87186 0.70012 0.0
H712 H 0.44692 0.95444 0.70869 0.0
C713 C 0.33746 0.90187 0.7008 0.0
C714 C 0.34205 0.95059 0.70481 0.0
H715 H 0.36727 0.83398 0.6978 0.0
H716 H 0.30709 0.88645 0.699 0.0
C717 C 0.38215 0.96926 0.70694 0.0
C718 C 0.83766 0.4023 0.70089 0.0
C719 C 0.84234 0.45101 0.70491 0.0
H720 H 0.86734 0.33434 0.69788 0.0
C721 C 0.88247 0.46958 0.70702 0.0
H722 H 0.80726 0.38695 0.69911 0.0
C723 C 0.91698 0.43956 0.70624 0.0
C724 C 0.91211 0.39024 0.70341 0.0
H725 H 0.88721 0.50716 0.70993 0.0
H726 H 0.94722 0.45461 0.70874 0.0
C727 C 0.87217 0.37221 0.7002 0.0
C728 C 0.58678 0.65974 0.45079 0.0
C729 C 0.59143 0.61089 0.45458 0.0
H730 H 0.6165 0.72776 0.44804 0.0
C731 C 0.63156 0.5922 0.45658 0.0
H732 H 0.55638 0.67519 0.4491 0.0
C733 C 0.6661 0.6222 0.45589 0.0
C734 C 0.66126 0.67161 0.45328 0.0
H735 H 0.63628 0.55453 0.45933 0.0
H736 H 0.69634 0.60703 0.4583 0.0
C737 C 0.62132 0.68981 0.45019 0.0
C738 C 0.08709 0.15928 0.45084 0.0
C739 C 0.09171 0.11043 0.45466 0.0
H740 H 0.11687 0.22725 0.44805 0.0
C741 C 0.13182 0.09169 0.45665 0.0
H742 H 0.05671 0.17476 0.44916 0.0
C743 C 0.16639 0.12164 0.45592 0.0
C744 C 0.16159 0.17106 0.45329 0.0
H745 H 0.13651 0.05403 0.45941 0.0
H746 H 0.19662 0.10645 0.45833 0.0
C747 C 0.12166 0.1893 0.45022 0.0
C748 C 0.61456 0.09139 0.3693 0.0
C749 C 0.65462 0.11019 0.37138 0.0
H750 H 0.54975 0.10601 0.36754 0.0
C751 C 0.65912 0.15899 0.3753 0.0
H752 H 0.60996 0.05375 0.36647 0.0
C753 C 0.62449 0.18892 0.37592 0.0
C754 C 0.58462 0.17064 0.37274 0.0
H755 H 0.68946 0.17452 0.37705 0.0
H756 H 0.62919 0.22685 0.37816 0.0
C757 C 0.57993 0.12125 0.37002 0.0
C758 C 0.15899 0.6586 0.37511 0.0
C759 C 0.15438 0.60981 0.37121 0.0
H760 H 0.12922 0.72655 0.37798 0.0
C761 C 0.11426 0.59112 0.36915 0.0
H762 H 0.18937 0.67404 0.37685 0.0
C763 C 0.0797 0.62108 0.36989 0.0
C764 C 0.08451 0.67046 0.37261 0.0
H765 H 0.10957 0.55349 0.36633 0.0
H766 H 0.04948 0.60593 0.36744 0.0
C767 C 0.12443 0.68863 0.37575 0.0
C768 C 0.52261 1.00519 0.04985 0.0
C769 C 0.49263 0.03785 0.05577 0.0
H770 H 0.55128 0.97144 1.02814 0.0
C771 C 0.46827 0.062 0.04353 0.0
H772 H 0.54211 0.98592 0.05888 0.0
C773 C 0.47374 0.05372 1.02585 0.0
C774 C 0.50372 1.02106 1.01993 0.0
H775 H 0.44507 0.08747 0.04756 0.0
H776 H 0.45424 0.07299 1.01682 0.0
C777 C 0.52808 0.99691 1.03218 0.0
C778 C 0.73005 0.31129 0.04942 0.0
C779 C 0.75551 0.27431 0.0559 0.0
H780 H 0.70328 0.34533 1.02719 0.0
C781 C 0.77356 0.24253 0.04414 0.0
H782 H 0.71545 0.33649 0.05807 0.0
C783 C 0.76632 0.24758 1.0264 0.0
C784 C 0.74085 0.28456 1.01991 0.0
H785 H 0.79309 0.21355 0.04863 0.0
H786 H 0.78092 0.22239 1.01775 0.0
C787 C 0.72282 0.31635 1.03167 0.0
C788 C 0.51589 0.31103 0.27635 0.0
C789 C 0.49051 0.27391 0.26991 0.0
H790 H 0.5426 0.34534 0.29853 0.0
C791 C 0.47255 0.24219 0.28172 0.0
H792 H 0.53044 0.33619 0.26766 0.0
C793 C 0.47978 0.24743 0.29945 0.0
C794 C 0.50517 0.28454 0.30589 0.0
H795 H 0.45308 0.21312 0.27727 0.0
H796 H 0.46524 0.22227 0.30814 0.0
C797 C 0.52313 0.31626 0.29408 0.0
C798 C 0.77816 0.06295 0.28243 0.0
C799 C 0.75388 0.03869 0.27019 0.0
H800 H 0.79208 0.07409 0.30913 0.0
C801 C 0.72394 1.00599 0.27612 0.0
H802 H 0.80133 0.08845 0.27838 0.0
C803 C 0.71843 0.99779 0.29379 0.0
C804 C 0.74271 1.02204 0.30603 0.0
H805 H 0.70451 0.98664 0.26709 0.0
H806 H 0.69526 0.97228 0.29783 0.0
C807 C 0.77265 0.05474 0.3001 0.0
C808 C 0.2231 0.81596 1.03162 0.0
C809 C 0.24099 0.78412 1.01984 0.0
H810 H 0.21589 0.83608 0.05802 0.0
C811 C 0.26636 0.74702 1.0263 0.0
H812 H 0.20365 0.84503 1.02716 0.0
C813 C 0.27365 0.7419 0.04404 0.0
C814 C 0.25576 0.77374 0.05582 0.0
H815 H 0.28085 0.72178 1.01763 0.0
H816 H 0.2931 0.71283 0.0485 0.0
C817 C 0.23039 0.81084 0.04936 0.0
C818 C 0.47313 0.74276 0.78172 0.0
C819 C 0.49093 0.77483 0.76999 0.0
H820 H 0.46597 0.72226 0.80809 0.0
C821 C 0.51616 0.81197 0.77651 0.0
H822 H 0.4538 0.71365 0.7772 0.0
C823 C 0.5234 0.81689 0.79426 0.0
C824 C 0.50562 0.78482 0.80599 0.0
H825 H 0.53057 0.8374 0.76789 0.0
H826 H 0.54275 0.846 0.79877 0.0
C827 C 0.48038 0.74768 0.79946 0.0
C828 C 0.27828 0.0627 0.78248 0.0
C829 C 0.25396 0.03864 0.77021 0.0
H830 H 0.29224 0.0735 0.8092 0.0
C831 C 0.22396 1.00594 0.77609 0.0
H832 H 0.3015 0.0882 0.77847 0.0
C833 C 0.21845 0.99754 0.79375 0.0
C834 C 0.24278 1.02159 0.80602 0.0
H835 H 0.20449 0.98673 0.76703 0.0
H836 H 0.19523 0.97204 0.79775 0.0
C837 C 0.27277 0.0543 0.80014 0.0
C838 C 0.52821 0.4973 0.53211 0.0
C839 C 0.50392 0.52169 0.5199 0.0
H840 H 0.5422 0.48591 0.55879 0.0
C841 C 0.47405 0.55441 0.52588 0.0
H842 H 0.55133 0.47177 0.52803 0.0
C843 C 0.46861 0.5625 0.54356 0.0
C844 C 0.49289 0.53809 0.55577 0.0
H845 H 0.45462 0.57388 0.51688 0.0
H846 H 0.44549 0.58802 0.54764 0.0
C847 C 0.52277 0.50538 0.54979 0.0
C848 C 0.77412 0.74352 0.54419 0.0
C849 C 0.75564 0.77474 0.55603 0.0
H850 H 0.78182 0.72407 0.51775 0.0
C851 C 0.72977 0.81146 0.54962 0.0
H852 H 0.79397 0.71476 0.54861 0.0
C853 C 0.72256 0.81679 0.53189 0.0
C854 C 0.741 0.78554 0.52005 0.0
H855 H 0.71484 0.83623 0.55833 0.0
H856 H 0.70269 0.84554 0.52747 0.0
C857 C 0.76688 0.74884 0.52646 0.0
C858 C 0.71879 0.49804 0.79385 0.0
C859 C 0.74307 0.52208 0.80615 0.0
H860 H 0.70489 0.48732 0.76713 0.0
C861 C 0.77305 0.55483 0.80029 0.0
H862 H 0.69558 0.47251 0.79784 0.0
C863 C 0.77859 0.56331 0.78264 0.0
C864 C 0.75431 0.53926 0.77034 0.0
H865 H 0.79249 0.57402 0.80937 0.0
H866 H 0.8018 0.58884 0.77865 0.0
C867 C 0.72433 0.50651 0.7762 0.0
C868 C 0.26692 0.24795 0.52639 0.0
C869 C 0.24114 0.28475 0.51998 0.0
H870 H 0.2939 0.21381 0.54856 0.0
C871 C 0.22277 0.31606 0.53181 0.0
H872 H 0.28179 0.22311 0.51769 0.0
C873 C 0.22997 0.31074 0.54955 0.0
C874 C 0.25574 0.27394 0.55596 0.0
H875 H 0.20298 0.34488 0.52738 0.0
H876 H 0.21509 0.33558 0.55825 0.0
C877 C 0.27412 0.24262 0.54413 0.0
C878 C 0.27223 0.55377 0.29992 0.0
C879 C 0.24228 0.52109 0.30585 0.0
H880 H 0.30094 0.58745 0.27821 0.0
C881 C 0.21801 0.49682 0.29361 0.0
H882 H 0.29166 0.57313 0.30895 0.0
C883 C 0.22353 0.50501 0.27594 0.0
C884 C 0.25348 0.53769 0.27001 0.0
H885 H 0.19483 0.47133 0.29766 0.0
H886 H 0.2041 0.48565 0.26691 0.0
C887 C 0.27776 0.56196 0.28225 0.0
C888 C 0.02824 0.99727 0.53225 0.0
C889 C 0.00395 1.02159 0.52002 0.0
H890 H 0.04221 0.98605 0.55894 0.0
C891 C 0.97405 0.05432 0.52597 0.0
H892 H 0.05138 0.97175 0.52819 0.0
C893 C 0.96859 0.0625 0.54365 0.0
C894 C 0.99288 0.03817 0.55587 0.0
H895 H 0.95461 0.07372 0.51695 0.0
H896 H 0.94545 0.08802 0.5477 0.0
C897 C 0.02278 1.00545 0.54992 0.0
C898 C 0.01618 0.31196 0.77655 0.0
C899 C 0.9909 0.27487 0.77002 0.0
H900 H 0.0428 0.34593 0.79881 0.0
C901 C 0.97304 0.24284 0.78175 0.0
H902 H 0.03064 0.33735 0.76793 0.0
C903 C 0.98027 0.24774 0.7995 0.0
C904 C 0.00556 0.28483 0.80602 0.0
H905 H 0.95366 0.21377 0.77723 0.0
H906 H 0.96581 0.22236 0.80812 0.0
C907 C 0.02341 0.31686 0.7943 0.0
C908 C 0.9725 0.74301 0.2817 0.0
C909 C 0.99083 0.77453 0.26993 0.0
H910 H 0.9648 0.72313 0.30811 0.0
C911 C 0.01649 0.81133 0.27641 0.0
H912 H 0.9528 0.71418 0.27722 0.0
C913 C 0.02363 0.81646 0.29416 0.0
C914 C 0.0053 0.78493 0.30593 0.0
H915 H 0.03133 0.83633 0.26775 0.0
H916 H 0.04333 0.84529 0.29863 0.0
C917 C 0.97964 0.74813 0.29945 0.0
C918 C 0.02775 0.4974 1.03212 0.0
C919 C 0.00349 0.52159 1.01985 0.0
H920 H 0.04165 0.48642 0.05883 0.0
C921 C 0.97357 0.55437 1.02574 0.0
H922 H 0.0509 0.47184 1.0281 0.0
C923 C 0.96806 0.56271 0.0434 0.0
C924 C 0.99231 0.53851 0.05567 0.0
H925 H 0.95415 0.57367 1.01669 0.0
H926 H 0.9449 0.58827 0.04742 0.0
C927 C 0.02224 0.50574 0.04978 0.0
C928 C 0.61776 0.12211 0.12925 0.0
C929 C 0.58119 0.14708 0.12564 0.0
H930 H 0.68354 0.12602 0.13137 0.0
C931 C 0.58241 0.19752 0.12477 0.0
H932 H 0.61782 0.08336 0.13006 0.0
C933 C 0.61998 0.22209 0.12577 0.0
C934 C 0.65703 0.19656 0.12737 0.0
H935 H 0.55456 0.21782 0.12221 0.0
H936 H 0.62024 0.26049 0.12371 0.0
C937 C 0.65539 0.14661 0.12997 0.0
C938 C 0.62605 0.22187 0.20001 0.0
C939 C 0.58908 0.19616 0.19845 0.0
H940 H 0.69148 0.2179 0.20355 0.0
C941 C 0.59088 0.1462 0.19589 0.0
H942 H 0.62565 0.26027 0.20203 0.0
C943 C 0.62859 0.12187 0.19662 0.0
C944 C 0.66508 0.14703 0.2002 0.0
H945 H 0.56279 0.12548 0.19453 0.0
H946 H 0.62866 0.08311 0.19585 0.0
C947 C 0.6637 0.19746 0.20101 0.0
C948 C 0.41404 0.86105 0.951 0.0
C949 C 0.41524 0.91148 0.9501 0.0
H950 H 0.37625 0.79806 0.95207 0.0
C951 C 0.37867 0.93641 0.94645 0.0
H952 H 0.4419 0.84078 0.95358 0.0
C953 C 0.34105 0.91188 0.94572 0.0
C954 C 0.33943 0.86194 0.94835 0.0
H955 H 0.37859 0.97516 0.94562 0.0
H956 H 0.31289 0.93244 0.9443 0.0
C957 C 0.37649 0.83644 0.94999 0.0
C958 C 0.40524 0.91174 0.8802 0.0
C959 C 0.40688 0.86183 0.87751 0.0
H960 H 0.3677 0.97502 0.88036 0.0
C961 C 0.36982 0.83635 0.8758 0.0
H962 H 0.43339 0.93228 0.88167 0.0
C963 C 0.33227 0.86097 0.87481 0.0
C964 C 0.33107 0.91139 0.87577 0.0
H965 H 0.37008 0.79799 0.87368 0.0
H966 H 0.30443 0.84072 0.87217 0.0
C967 C 0.36762 0.93628 0.87948 0.0
C968 C 0.62106 0.72052 0.62616 0.0
C969 C 0.6581 0.69485 0.62746 0.0
H970 H 0.55556 0.71651 0.62286 0.0
C971 C 0.65645 0.64481 0.62982 0.0
H972 H 0.62135 0.75899 0.62429 0.0
C973 C 0.61876 0.62041 0.62915 0.0
C974 C 0.58216 0.64561 0.62582 0.0
H975 H 0.6846 0.62412 0.63098 0.0
H976 H 0.61878 0.58163 0.62975 0.0
C977 C 0.58343 0.69606 0.6252 0.0
C978 C 0.59185 0.64826 0.69591 0.0
C979 C 0.59005 0.69817 0.6986 0.0
H980 H 0.62956 0.58512 0.69582 0.0
C981 C 0.62702 0.72379 0.70036 0.0
H982 H 0.56376 0.62762 0.6944 0.0
C983 C 0.66463 0.6993 0.70142 0.0
C984 C 0.66598 0.64889 0.70046 0.0
H985 H 0.62663 0.76215 0.70248 0.0
H986 H 0.69239 0.71965 0.70409 0.0
C987 C 0.62952 0.62386 0.6967 0.0
C988 C 0.41374 0.36269 0.45081 0.0
C989 C 0.41492 0.41314 0.45004 0.0
H990 H 0.37595 0.29969 0.45186 0.0
C991 C 0.37829 0.43815 0.44658 0.0
H992 H 0.44164 0.34237 0.45325 0.0
C993 C 0.34066 0.41364 0.44593 0.0
C994 C 0.33908 0.36365 0.44844 0.0
H995 H 0.3782 0.47691 0.44586 0.0
H996 H 0.31247 0.43423 0.44466 0.0
C997 C 0.37616 0.33811 0.44988 0.0
C998 C 0.40509 0.41257 0.37999 0.0
C999 C 0.40675 0.36262 0.3774 0.0
H1000 H 0.36749 0.4758 0.38009 0.0
C1001 C 0.36971 0.33706 0.37582 0.0
H1002 H 0.43324 0.43317 0.38136 0.0
C1003 C 0.33212 0.36161 0.37485 0.0
C1004 C 0.33087 0.41205 0.37571 0.0
H1005 H 0.36998 0.29867 0.37377 0.0
H1006 H 0.30427 0.34129 0.37231 0.0
C1007 C 0.36744 0.43705 0.3793 0.0
C1008 C 0.11853 0.12088 0.62932 0.0
C1009 C 0.08196 0.14605 0.6259 0.0
H1010 H 0.18436 0.12454 0.63123 0.0
C1011 C 0.08327 0.19649 0.62518 0.0
H1012 H 0.11851 0.08211 0.63001 0.0
C1013 C 0.12091 0.22093 0.62613 0.0
C1014 C 0.15793 0.19524 0.62753 0.0
H1015 H 0.05543 0.21693 0.62276 0.0
H1016 H 0.12123 0.25937 0.62419 0.0
C1017 C 0.15623 0.14525 0.62999 0.0
C1018 C 0.16447 0.19898 0.70135 0.0
C1019 C 0.16572 0.14856 0.70039 0.0
H1020 H 0.12659 0.26191 0.70245 0.0
C1021 C 0.12921 0.12362 0.69666 0.0
H1022 H 0.19228 0.21926 0.70401 0.0
C1023 C 0.09157 0.14811 0.6959 0.0
C1024 C 0.08988 0.19801 0.69859 0.0
H1025 H 0.12917 0.08488 0.69578 0.0
H1026 H 0.06344 0.12753 0.69441 0.0
C1027 C 0.1269 0.22355 0.70032 0.0
C1028 C 0.87841 0.93815 0.44662 0.0
C1029 C 0.91496 0.91304 0.45014 0.0
H1030 H 0.81259 0.93443 0.44463 0.0
C1031 C 0.91365 0.86261 0.45094 0.0
H1032 H 0.87842 0.97691 0.44587 0.0
C1033 C 0.87602 0.83814 0.44999 0.0
C1034 C 0.83901 0.86379 0.44849 0.0
H1035 H 0.94149 0.84221 0.45343 0.0
H1036 H 0.87571 0.79973 0.452 0.0
C1037 C 0.84072 0.91376 0.44594 0.0
C1038 C 0.86986 0.83738 0.3759 0.0
C1039 C 0.90694 0.86287 0.37747 0.0
H1040 H 0.80443 0.84174 0.3724 0.0
C1041 C 0.90536 0.91281 0.38008 0.0
H1042 H 0.87009 0.79899 0.37383 0.0
C1043 C 0.86774 0.93736 0.3794 0.0
C1044 C 0.83114 0.91244 0.37582 0.0
H1045 H 0.93354 0.93335 0.38145 0.0
H1046 H 0.86784 0.97611 0.38021 0.0
C1047 C 0.83231 0.862 0.37494 0.0
C1048 C 0.1202 0.72205 0.12571 0.0
C1049 C 0.15716 0.69634 0.1273 0.0
H1050 H 0.05477 0.7181 0.12215 0.0
C1051 C 0.15535 0.64639 0.12989 0.0
H1052 H 0.1206 0.76045 0.12366 0.0
C1053 C 0.11763 0.62207 0.12917 0.0
C1054 C 0.08115 0.64723 0.12556 0.0
H1055 H 0.18343 0.62567 0.13127 0.0
H1056 H 0.11755 0.58332 0.12997 0.0
C1057 C 0.08254 0.69766 0.12471 0.0
C1058 C 0.09072 0.64629 0.19589 0.0
C1059 C 0.08912 0.69625 0.19844 0.0
H1060 H 0.12826 0.58301 0.19583 0.0
C1061 C 0.12619 0.72178 0.19996 0.0
H1062 H 0.06255 0.62571 0.19457 0.0
C1063 C 0.16376 0.69719 0.20093 0.0
C1064 C 0.16495 0.64675 0.20012 0.0
H1065 H 0.12595 0.76019 0.20198 0.0
H1066 H 0.19163 0.71749 0.20344 0.0
C1067 C 0.12835 0.62177 0.19658 0.0
C1068 C 0.87635 0.33659 0.95002 0.0
C1069 C 0.83929 0.3621 0.94837 0.0
H1070 H 0.94176 0.34092 0.95359 0.0
C1071 C 0.84092 0.41202 0.94572 0.0
H1072 H 0.8761 0.29821 0.95211 0.0
C1073 C 0.87855 0.43655 0.94643 0.0
C1074 C 0.91512 0.41162 0.95008 0.0
H1075 H 0.81276 0.43258 0.9443 0.0
H1076 H 0.87847 0.47529 0.94558 0.0
C1077 C 0.91391 0.36119 0.951 0.0
C1078 C 0.86986 0.33642 0.87588 0.0
C1079 C 0.90693 0.36187 0.87758 0.0
H1080 H 0.80447 0.34086 0.87226 0.0
C1081 C 0.90533 0.41178 0.88028 0.0
H1082 H 0.87009 0.29807 0.87375 0.0
C1083 C 0.86773 0.43635 0.87957 0.0
C1084 C 0.83115 0.4115 0.87586 0.0
H1085 H 0.9335 0.43229 0.88176 0.0
H1086 H 0.86783 0.47509 0.88046 0.0
C1087 C 0.83232 0.36108 0.87489 0.0
loop_
_geom_bond_atom_site_label_1
_geom_bond_atom_site_label_2
_geom_bond_distance
_geom_bond_site_symmetry_2
_ccdc_geom_bond_type
O0 Cd1 2.223 1_545 S
O0 C8 1.315 . S
Cd1 O0 2.223 1_565 S
Cd1 O4 2.297 . S
Cd1 O5 2.439 . S
Cd1 O11 2.240 1_565 S
Cd2 O3 2.240 . S
Cd2 O10 2.223 . S
Cd2 O12 2.297 . S
Cd2 O13 2.439 . S
O3 Cd2 2.240 . S
O3 C8 1.279 . S
O4 Cd1 2.297 . S
O4 C6 1.247 . S
O5 Cd1 2.439 . S
O5 C6 1.208 . S
C6 O4 1.247 . S
C6 O5 1.208 . S
C7 O12 1.247 . S
C7 O13 1.208 . S
C8 O0 1.315 . S
C8 O3 1.279 . S
C9 O10 1.315 . S
C9 O11 1.279 . S
O10 Cd2 2.223 . S
O10 C9 1.315 . S
O11 Cd1 2.240 1_545 S
O11 C9 1.279 . S
O12 Cd2 2.297 . S
O12 C7 1.247 . S
O13 Cd2 2.439 . S
O13 C7 1.208 . S
O14 Cd15 2.223 . S
O14 C22 1.315 . S
Cd15 O14 2.223 . S
Cd15 O18 2.297 . S
Cd15 O19 2.439 . S
Cd15 O25 2.240 . S
Cd16 O17 2.240 . S
Cd16 O24 2.223 . S
Cd16 O26 2.297 . S
Cd16 O27 2.439 . S
O17 Cd16 2.240 . S
O17 C22 1.279 . S
O18 Cd15 2.297 . S
O18 C20 1.247 . S
O19 Cd15 2.439 . S
O19 C20 1.208 . S
C20 O18 1.247 . S
C20 O19 1.208 . S
C21 O26 1.247 . S
C21 O27 1.208 . S
C22 O14 1.315 . S
C22 O17 1.279 . S
C23 O24 1.315 . S
C23 O25 1.279 . S
O24 Cd16 2.223 . S
O24 C23 1.315 . S
O25 Cd15 2.240 . S
O25 C23 1.279 . S
O26 Cd16 2.297 . S
O26 C21 1.247 . S
O27 Cd16 2.439 . S
O27 C21 1.208 . S
O28 Cd29 2.223 . S
O28 C36 1.315 . S
Cd29 O28 2.223 . S
Cd29 O32 2.297 . S
Cd29 O33 2.439 . S
Cd29 O39 2.240 . S
Cd30 O31 2.240 . S
Cd30 O38 2.223 . S
Cd30 O40 2.297 . S
Cd30 O41 2.439 . S
O31 Cd30 2.240 . S
O31 C36 1.279 . S
O32 Cd29 2.297 . S
O32 C34 1.247 . S
O33 Cd29 2.439 . S
O33 C34 1.208 . S
C34 O32 1.247 . S
C34 O33 1.208 . S
C35 O40 1.247 . S
C35 O41 1.208 . S
C36 O28 1.315 . S
C36 O31 1.279 . S
C37 O38 1.315 . S
C37 O39 1.279 . S
O38 Cd30 2.223 . S
O38 C37 1.315 . S
O39 Cd29 2.240 . S
O39 C37 1.279 . S
O40 Cd30 2.297 . S
O40 C35 1.247 . S
O41 Cd30 2.439 . S
O41 C35 1.208 . S
O42 Cd43 2.223 1_545 S
O42 C50 1.315 . S
Cd43 O42 2.223 1_565 S
Cd43 O46 2.297 . S
Cd43 O47 2.439 . S
Cd43 O53 2.240 1_565 S
Cd44 O45 2.240 . S
Cd44 O52 2.223 . S
Cd44 O54 2.297 . S
Cd44 O55 2.439 . S
O45 Cd44 2.240 . S
O45 C50 1.279 . S
O46 Cd43 2.297 . S
O46 C48 1.247 . S
O47 Cd43 2.439 . S
O47 C48 1.208 . S
C48 O46 1.247 . S
C48 O47 1.208 . S
C49 O54 1.247 . S
C49 O55 1.208 . S
C50 O42 1.315 . S
C50 O45 1.279 . S
C51 O52 1.315 . S
C51 O53 1.279 . S
O52 Cd44 2.223 . S
O52 C51 1.315 . S
O53 Cd43 2.240 1_545 S
O53 C51 1.279 . S
O54 Cd44 2.297 . S
O54 C49 1.247 . S
O55 Cd44 2.439 . S
O55 C49 1.208 . S
O56 Cd57 2.223 1_565 S
O56 C64 1.315 . S
Cd57 O56 2.223 1_545 S
Cd57 O60 2.297 . S
Cd57 O61 2.439 . S
Cd57 O67 2.240 1_545 S
Cd58 O59 2.240 . S
Cd58 O66 2.223 . S
Cd58 O68 2.297 . S
Cd58 O69 2.439 . S
O59 Cd58 2.240 . S
O59 C64 1.279 . S
O60 Cd57 2.297 . S
O60 C62 1.247 . S
O61 Cd57 2.439 . S
O61 C62 1.208 . S
C62 O60 1.247 . S
C62 O61 1.208 . S
C63 O68 1.247 . S
C63 O69 1.208 . S
C64 O56 1.315 . S
C64 O59 1.279 . S
C65 O66 1.315 . S
C65 O67 1.279 . S
O66 Cd58 2.223 . S
O66 C65 1.315 . S
O67 Cd57 2.240 1_565 S
O67 C65 1.279 . S
O68 Cd58 2.297 . S
O68 C63 1.247 . S
O69 Cd58 2.439 . S
O69 C63 1.208 . S
O70 Cd71 2.223 . S
O70 C78 1.315 . S
Cd71 O70 2.223 . S
Cd71 O74 2.297 . S
Cd71 O75 2.439 . S
Cd71 O81 2.240 . S
Cd72 O73 2.240 . S
Cd72 O80 2.223 . S
Cd72 O82 2.297 . S
Cd72 O83 2.439 . S
O73 Cd72 2.240 . S
O73 C78 1.279 . S
O74 Cd71 2.297 . S
O74 C76 1.247 . S
O75 Cd71 2.439 . S
O75 C76 1.208 . S
C76 O74 1.247 . S
C76 O75 1.208 . S
C77 O82 1.247 . S
C77 O83 1.208 . S
C78 O70 1.315 . S
C78 O73 1.279 . S
C79 O80 1.315 . S
C79 O81 1.279 . S
O80 Cd72 2.223 . S
O80 C79 1.315 . S
O81 Cd71 2.240 . S
O81 C79 1.279 . S
O82 Cd72 2.297 . S
O82 C77 1.247 . S
O83 Cd72 2.439 . S
O83 C77 1.208 . S
O84 Cd85 2.223 . S
O84 C92 1.315 . S
Cd85 O84 2.223 . S
Cd85 O88 2.297 . S
Cd85 O89 2.439 . S
Cd85 O95 2.240 . S
Cd86 O87 2.240 . S
Cd86 O94 2.223 . S
Cd86 O96 2.297 . S
Cd86 O97 2.439 . S
O87 Cd86 2.240 . S
O87 C92 1.279 . S
O88 Cd85 2.297 . S
O88 C90 1.247 . S
O89 Cd85 2.439 . S
O89 C90 1.208 . S
C90 O88 1.247 . S
C90 O89 1.208 . S
C91 O96 1.247 . S
C91 O97 1.208 . S
C92 O84 1.315 . S
C92 O87 1.279 . S
C93 O94 1.315 . S
C93 O95 1.279 . S
O94 Cd86 2.223 . S
O94 C93 1.315 . S
O95 Cd85 2.240 . S
O95 C93 1.279 . S
O96 Cd86 2.297 . S
O96 C91 1.247 . S
O97 Cd86 2.439 . S
O97 C91 1.208 . S
O98 Cd99 2.223 1_565 S
O98 C106 1.315 . S
Cd99 O98 2.223 1_545 S
Cd99 O102 2.297 . S
Cd99 O103 2.439 . S
Cd99 O109 2.240 1_545 S
Cd100 O101 2.240 . S
Cd100 O108 2.223 . S
Cd100 O110 2.297 . S
Cd100 O111 2.439 . S
O101 Cd100 2.240 . S
O101 C106 1.279 . S
O102 Cd99 2.297 . S
O102 C104 1.247 . S
O103 Cd99 2.439 . S
O103 C104 1.208 . S
C104 O102 1.247 . S
C104 O103 1.208 . S
C105 O110 1.247 . S
C105 O111 1.208 . S
C106 O98 1.315 . S
C106 O101 1.279 . S
C107 O108 1.315 . S
C107 O109 1.279 . S
O108 Cd100 2.223 . S
O108 C107 1.315 . S
O109 Cd99 2.240 1_565 S
O109 C107 1.279 . S
O110 Cd100 2.297 . S
O110 C105 1.247 . S
O111 Cd100 2.439 . S
O111 C105 1.208 . S
O112 Cd113 2.223 . S
O112 C120 1.315 . S
Cd113 O112 2.223 . S
Cd113 O116 2.297 . S
Cd113 O117 2.439 . S
Cd113 O123 2.240 . S
Cd114 O115 2.240 . S
Cd114 O122 2.223 . S
Cd114 O124 2.297 . S
Cd114 O125 2.439 . S
O115 Cd114 2.240 . S
O115 C120 1.279 . S
O116 Cd113 2.297 . S
O116 C118 1.247 . S
O117 Cd113 2.439 . S
O117 C118 1.208 . S
C118 O116 1.247 . S
C118 O117 1.208 . S
C119 O124 1.247 . S
C119 O125 1.208 . S
C120 O112 1.315 . S
C120 O115 1.279 . S
C121 O122 1.315 . S
C121 O123 1.279 . S
O122 Cd114 2.223 . S
O122 C121 1.315 . S
O123 Cd113 2.240 . S
O123 C121 1.279 . S
O124 Cd114 2.297 . S
O124 C119 1.247 . S
O125 Cd114 2.439 . S
O125 C119 1.208 . S
O126 Cd127 2.223 . S
O126 C134 1.315 . S
Cd127 O126 2.223 . S
Cd127 O130 2.297 . S
Cd127 O131 2.439 . S
Cd127 O137 2.240 . S
Cd128 O129 2.240 . S
Cd128 O136 2.223 . S
Cd128 O138 2.297 . S
Cd128 O139 2.439 . S
O129 Cd128 2.240 . S
O129 C134 1.279 . S
O130 Cd127 2.297 . S
O130 C132 1.247 . S
O131 Cd127 2.439 . S
O131 C132 1.208 . S
C132 O130 1.247 . S
C132 O131 1.208 . S
C133 O138 1.247 . S
C133 O139 1.208 . S
C134 O126 1.315 . S
C134 O129 1.279 . S
C135 O136 1.315 . S
C135 O137 1.279 . S
O136 Cd128 2.223 . S
O136 C135 1.315 . S
O137 Cd127 2.240 . S
O137 C135 1.279 . S
O138 Cd128 2.297 . S
O138 C133 1.247 . S
O139 Cd128 2.439 . S
O139 C133 1.208 . S
O140 Cd141 2.223 . S
O140 C148 1.315 . S
Cd141 O140 2.223 . S
Cd141 O144 2.297 . S
Cd141 O145 2.439 . S
Cd141 O151 2.240 . S
Cd142 O143 2.240 . S
Cd142 O150 2.223 . S
Cd142 O152 2.297 . S
Cd142 O153 2.439 . S
O143 Cd142 2.240 . S
O143 C148 1.279 . S
O144 Cd141 2.297 . S
O144 C146 1.247 . S
O145 Cd141 2.439 . S
O145 C146 1.208 . S
C146 O144 1.247 . S
C146 O145 1.208 . S
C147 O152 1.247 . S
C147 O153 1.208 . S
C148 O140 1.315 . S
C148 O143 1.279 . S
C149 O150 1.315 . S
C149 O151 1.279 . S
O150 Cd142 2.223 . S
O150 C149 1.315 . S
O151 Cd141 2.240 . S
O151 C149 1.279 . S
O152 Cd142 2.297 . S
O152 C147 1.247 . S
O153 Cd142 2.439 . S
O153 C147 1.208 . S
O154 Cd155 2.223 . S
O154 C162 1.315 . S
Cd155 O154 2.223 . S
Cd155 O158 2.297 . S
Cd155 O159 2.439 . S
Cd155 O165 2.240 . S
Cd156 O157 2.240 . S
Cd156 O164 2.223 . S
Cd156 O166 2.297 . S
Cd156 O167 2.439 . S
O157 Cd156 2.240 . S
O157 C162 1.279 . S
O158 Cd155 2.297 . S
O158 C160 1.247 . S
O159 Cd155 2.439 . S
O159 C160 1.208 . S
C160 O158 1.247 . S
C160 O159 1.208 . S
C161 O166 1.247 . S
C161 O167 1.208 . S
C162 O154 1.315 . S
C162 O157 1.279 . S
C163 O164 1.315 . S
C163 O165 1.279 . S
O164 Cd156 2.223 . S
O164 C163 1.315 . S
O165 Cd155 2.240 . S
O165 C163 1.279 . S
O166 Cd156 2.297 . S
O166 C161 1.247 . S
O167 Cd156 2.439 . S
O167 C161 1.208 . S
O168 Cd169 2.223 . S
O168 C176 1.315 . S
Cd169 O168 2.223 . S
Cd169 O172 2.297 . S
Cd169 O173 2.439 . S
Cd169 O179 2.240 . S
Cd170 O171 2.240 . S
Cd170 O178 2.223 . S
Cd170 O180 2.297 . S
Cd170 O181 2.439 . S
O171 Cd170 2.240 . S
O171 C176 1.279 . S
O172 Cd169 2.297 . S
O172 C174 1.247 . S
O173 Cd169 2.439 . S
O173 C174 1.208 . S
C174 O172 1.247 . S
C174 O173 1.208 . S
C175 O180 1.247 . S
C175 O181 1.208 . S
C176 O168 1.315 . S
C176 O171 1.279 . S
C177 O178 1.315 . S
C177 O179 1.279 . S
O178 Cd170 2.223 . S
O178 C177 1.315 . S
O179 Cd169 2.240 . S
O179 C177 1.279 . S
O180 Cd170 2.297 . S
O180 C175 1.247 . S
O181 Cd170 2.439 . S
O181 C175 1.208 . S
O182 Cd183 2.223 . S
O182 C190 1.315 . S
Cd183 O182 2.223 . S
Cd183 O186 2.297 . S
Cd183 O187 2.439 . S
Cd183 O193 2.240 . S
Cd184 O185 2.240 . S
Cd184 O192 2.223 . S
Cd184 O194 2.297 . S
Cd184 O195 2.439 . S
O185 Cd184 2.240 . S
O185 C190 1.279 . S
O186 Cd183 2.297 . S
O186 C188 1.247 . S
O187 Cd183 2.439 . S
O187 C188 1.208 . S
C188 O186 1.247 . S
C188 O187 1.208 . S
C189 O194 1.247 . S
C189 O195 1.208 . S
C190 O182 1.315 . S
C190 O185 1.279 . S
C191 O192 1.315 . S
C191 O193 1.279 . S
O192 Cd184 2.223 . S
O192 C191 1.315 . S
O193 Cd183 2.240 . S
O193 C191 1.279 . S
O194 Cd184 2.297 . S
O194 C189 1.247 . S
O195 Cd184 2.439 . S
O195 C189 1.208 . S
O196 Cd197 2.223 . S
O196 C204 1.315 . S
Cd197 O196 2.223 . S
Cd197 O200 2.297 . S
Cd197 O201 2.439 . S
Cd197 O207 2.240 . S
Cd198 O199 2.240 . S
Cd198 O206 2.223 . S
Cd198 O208 2.297 . S
Cd198 O209 2.439 . S
O199 Cd198 2.240 . S
O199 C204 1.279 . S
O200 Cd197 2.297 . S
O200 C202 1.247 . S
O201 Cd197 2.439 . S
O201 C202 1.208 . S
C202 O200 1.247 . S
C202 O201 1.208 . S
C203 O208 1.247 . S
C203 O209 1.208 . S
C204 O196 1.315 . S
C204 O199 1.279 . S
C205 O206 1.315 . S
C205 O207 1.279 . S
O206 Cd198 2.223 . S
O206 C205 1.315 . S
O207 Cd197 2.240 . S
O207 C205 1.279 . S
O208 Cd198 2.297 . S
O208 C203 1.247 . S
O209 Cd198 2.439 . S
O209 C203 1.208 . S
O210 Cd211 2.223 . S
O210 C218 1.315 . S
Cd211 O210 2.223 . S
Cd211 O214 2.297 . S
Cd211 O215 2.439 . S
Cd211 O221 2.240 . S
Cd212 O213 2.240 . S
Cd212 O220 2.223 . S
Cd212 O222 2.297 . S
Cd212 O223 2.439 . S
O213 Cd212 2.240 . S
O213 C218 1.279 . S
O214 Cd211 2.297 . S
O214 C216 1.247 . S
O215 Cd211 2.439 . S
O215 C216 1.208 . S
C216 O214 1.247 . S
C216 O215 1.208 . S
C217 O222 1.247 . S
C217 O223 1.208 . S
C218 O210 1.315 . S
C218 O213 1.279 . S
C219 O220 1.315 . S
C219 O221 1.279 . S
O220 Cd212 2.223 . S
O220 C219 1.315 . S
O221 Cd211 2.240 . S
O221 C219 1.279 . S
O222 Cd212 2.297 . S
O222 C217 1.247 . S
O223 Cd212 2.439 . S
O223 C217 1.208 . S
O224 Cd225 2.223 1_545 S
O224 C232 1.315 . S
Cd225 O224 2.223 1_565 S
Cd225 O228 2.297 . S
Cd225 O229 2.439 . S
Cd225 O235 2.240 1_665 S
Cd226 O227 2.240 . S
Cd226 O234 2.223 1_655 S
Cd226 O236 2.297 . S
Cd226 O237 2.439 . S
O227 Cd226 2.240 . S
O227 C232 1.279 . S
O228 Cd225 2.297 . S
O228 C230 1.247 . S
O229 Cd225 2.439 . S
O229 C230 1.208 . S
C230 O228 1.247 . S
C230 O229 1.208 . S
C231 O236 1.247 . S
C231 O237 1.208 . S
C232 O224 1.315 . S
C232 O227 1.279 . S
C233 O234 1.315 . S
C233 O235 1.279 . S
O234 Cd226 2.223 1_455 S
O234 C233 1.315 . S
O235 Cd225 2.240 1_445 S
O235 C233 1.279 . S
O236 Cd226 2.297 . S
O236 C231 1.247 . S
O237 Cd226 2.439 . S
O237 C231 1.208 . S
O238 Cd239 2.223 . S
O238 C246 1.315 . S
Cd239 O238 2.223 . S
Cd239 O242 2.297 . S
Cd239 O243 2.439 . S
Cd239 O249 2.240 . S
Cd240 O241 2.240 . S
Cd240 O248 2.223 . S
Cd240 O250 2.297 . S
Cd240 O251 2.439 . S
O241 Cd240 2.240 . S
O241 C246 1.279 . S
O242 Cd239 2.297 . S
O242 C244 1.247 . S
O243 Cd239 2.439 . S
O243 C244 1.208 . S
C244 O242 1.247 . S
C244 O243 1.208 . S
C245 O250 1.247 . S
C245 O251 1.208 . S
C246 O238 1.315 . S
C246 O241 1.279 . S
C247 O248 1.315 . S
C247 O249 1.279 . S
O248 Cd240 2.223 . S
O248 C247 1.315 . S
O249 Cd239 2.240 . S
O249 C247 1.279 . S
O250 Cd240 2.297 . S
O250 C245 1.247 . S
O251 Cd240 2.439 . S
O251 C245 1.208 . S
O252 Cd253 2.223 . S
O252 C260 1.315 . S
Cd253 O252 2.223 . S
Cd253 O256 2.297 . S
Cd253 O257 2.439 . S
Cd253 O263 2.240 1_655 S
Cd254 O255 2.240 . S
Cd254 O262 2.223 1_655 S
Cd254 O264 2.297 . S
Cd254 O265 2.439 . S
O255 Cd254 2.240 . S
O255 C260 1.279 . S
O256 Cd253 2.297 . S
O256 C258 1.247 . S
O257 Cd253 2.439 . S
O257 C258 1.208 . S
C258 O256 1.247 . S
C258 O257 1.208 . S
C259 O264 1.247 . S
C259 O265 1.208 . S
C260 O252 1.315 . S
C260 O255 1.279 . S
C261 O262 1.315 . S
C261 O263 1.279 . S
O262 Cd254 2.223 1_455 S
O262 C261 1.315 . S
O263 Cd253 2.240 1_455 S
O263 C261 1.279 . S
O264 Cd254 2.297 . S
O264 C259 1.247 . S
O265 Cd254 2.439 . S
O265 C259 1.208 . S
O266 Cd267 2.223 1_545 S
O266 C274 1.315 . S
Cd267 O266 2.223 1_565 S
Cd267 O270 2.297 . S
Cd267 O271 2.439 . S
Cd267 O277 2.240 1_565 S
Cd268 O269 2.240 . S
Cd268 O276 2.223 . S
Cd268 O278 2.297 . S
Cd268 O279 2.439 . S
O269 Cd268 2.240 . S
O269 C274 1.279 . S
O270 Cd267 2.297 . S
O270 C272 1.247 . S
O271 Cd267 2.439 . S
O271 C272 1.208 . S
C272 O270 1.247 . S
C272 O271 1.208 . S
C273 O278 1.247 . S
C273 O279 1.208 . S
C274 O266 1.315 . S
C274 O269 1.279 . S
C275 O276 1.315 . S
C275 O277 1.279 . S
O276 Cd268 2.223 . S
O276 C275 1.315 . S
O277 Cd267 2.240 1_545 S
O277 C275 1.279 . S
O278 Cd268 2.297 . S
O278 C273 1.247 . S
O279 Cd268 2.439 . S
O279 C273 1.208 . S
O280 Cd281 2.223 1_565 S
O280 C288 1.315 . S
Cd281 O280 2.223 1_545 S
Cd281 O284 2.297 . S
Cd281 O285 2.439 . S
Cd281 O291 2.240 1_445 S
Cd282 O283 2.240 . S
Cd282 O290 2.223 1_455 S
Cd282 O292 2.297 . S
Cd282 O293 2.439 . S
O283 Cd282 2.240 . S
O283 C288 1.279 . S
O284 Cd281 2.297 . S
O284 C286 1.247 . S
O285 Cd281 2.439 . S
O285 C286 1.208 . S
C286 O284 1.247 . S
C286 O285 1.208 . S
C287 O292 1.247 . S
C287 O293 1.208 . S
C288 O280 1.315 . S
C288 O283 1.279 . S
C289 O290 1.315 . S
C289 O291 1.279 . S
O290 Cd282 2.223 1_655 S
O290 C289 1.315 . S
O291 Cd281 2.240 1_665 S
O291 C289 1.279 . S
O292 Cd282 2.297 . S
O292 C287 1.247 . S
O293 Cd282 2.439 . S
O293 C287 1.208 . S
O294 Cd295 2.223 . S
O294 C302 1.315 . S
Cd295 O294 2.223 . S
Cd295 O298 2.297 . S
Cd295 O299 2.439 . S
Cd295 O305 2.240 . S
Cd296 O297 2.240 . S
Cd296 O304 2.223 . S
Cd296 O306 2.297 . S
Cd296 O307 2.439 . S
O297 Cd296 2.240 . S
O297 C302 1.279 . S
O298 Cd295 2.297 . S
O298 C300 1.247 . S
O299 Cd295 2.439 . S
O299 C300 1.208 . S
C300 O298 1.247 . S
C300 O299 1.208 . S
C301 O306 1.247 . S
C301 O307 1.208 . S
C302 O294 1.315 . S
C302 O297 1.279 . S
C303 O304 1.315 . S
C303 O305 1.279 . S
O304 Cd296 2.223 . S
O304 C303 1.315 . S
O305 Cd295 2.240 . S
O305 C303 1.279 . S
O306 Cd296 2.297 . S
O306 C301 1.247 . S
O307 Cd296 2.439 . S
O307 C301 1.208 . S
O308 Cd309 2.223 . S
O308 C316 1.315 . S
Cd309 O308 2.223 . S
Cd309 O312 2.297 . S
Cd309 O313 2.439 . S
Cd309 O319 2.240 1_455 S
Cd310 O311 2.240 . S
Cd310 O318 2.223 1_455 S
Cd310 O320 2.297 . S
Cd310 O321 2.439 . S
O311 Cd310 2.240 . S
O311 C316 1.279 . S
O312 Cd309 2.297 . S
O312 C314 1.247 . S
O313 Cd309 2.439 . S
O313 C314 1.208 . S
C314 O312 1.247 . S
C314 O313 1.208 . S
C315 O320 1.247 . S
C315 O321 1.208 . S
C316 O308 1.315 . S
C316 O311 1.279 . S
C317 O318 1.315 . S
C317 O319 1.279 . S
O318 Cd310 2.223 1_655 S
O318 C317 1.315 . S
O319 Cd309 2.240 1_655 S
O319 C317 1.279 . S
O320 Cd310 2.297 . S
O320 C315 1.247 . S
O321 Cd310 2.439 . S
O321 C315 1.208 . S
O322 Cd323 2.223 1_565 S
O322 C330 1.315 . S
Cd323 O322 2.223 1_545 S
Cd323 O326 2.297 . S
Cd323 O327 2.439 . S
Cd323 O333 2.240 1_545 S
Cd324 O325 2.240 . S
Cd324 O332 2.223 . S
Cd324 O334 2.297 . S
Cd324 O335 2.439 . S
O325 Cd324 2.240 . S
O325 C330 1.279 . S
O326 Cd323 2.297 . S
O326 C328 1.247 . S
O327 Cd323 2.439 . S
O327 C328 1.208 . S
C328 O326 1.247 . S
C328 O327 1.208 . S
C329 O334 1.247 . S
C329 O335 1.208 . S
C330 O322 1.315 . S
C330 O325 1.279 . S
C331 O332 1.315 . S
C331 O333 1.279 . S
O332 Cd324 2.223 . S
O332 C331 1.315 . S
O333 Cd323 2.240 1_565 S
O333 C331 1.279 . S
O334 Cd324 2.297 . S
O334 C329 1.247 . S
O335 Cd324 2.439 . S
O335 C329 1.208 . S
O336 Cd337 2.223 . S
O336 C344 1.315 . S
Cd337 O336 2.223 . S
Cd337 O340 2.297 . S
Cd337 O341 2.439 . S
Cd337 O347 2.240 1_655 S
Cd338 O339 2.240 . S
Cd338 O346 2.223 1_655 S
Cd338 O348 2.297 . S
Cd338 O349 2.439 . S
O339 Cd338 2.240 . S
O339 C344 1.279 . S
O340 Cd337 2.297 . S
O340 C342 1.247 . S
O341 Cd337 2.439 . S
O341 C342 1.208 . S
C342 O340 1.247 . S
C342 O341 1.208 . S
C343 O348 1.247 . S
C343 O349 1.208 . S
C344 O336 1.315 . S
C344 O339 1.279 . S
C345 O346 1.315 . S
C345 O347 1.279 . S
O346 Cd338 2.223 1_455 S
O346 C345 1.315 . S
O347 Cd337 2.240 1_455 S
O347 C345 1.279 . S
O348 Cd338 2.297 . S
O348 C343 1.247 . S
O349 Cd338 2.439 . S
O349 C343 1.208 . S
O350 Cd351 2.223 . S
O350 C358 1.315 . S
Cd351 O350 2.223 . S
Cd351 O354 2.297 . S
Cd351 O355 2.439 . S
Cd351 O361 2.240 . S
Cd352 O353 2.240 . S
Cd352 O360 2.223 . S
Cd352 O362 2.297 . S
Cd352 O363 2.439 . S
O353 Cd352 2.240 . S
O353 C358 1.279 . S
O354 Cd351 2.297 . S
O354 C356 1.247 . S
O355 Cd351 2.439 . S
O355 C356 1.208 . S
C356 O354 1.247 . S
C356 O355 1.208 . S
C357 O362 1.247 . S
C357 O363 1.208 . S
C358 O350 1.315 . S
C358 O353 1.279 . S
C359 O360 1.315 . S
C359 O361 1.279 . S
O360 Cd352 2.223 . S
O360 C359 1.315 . S
O361 Cd351 2.240 . S
O361 C359 1.279 . S
O362 Cd352 2.297 . S
O362 C357 1.247 . S
O363 Cd352 2.439 . S
O363 C357 1.208 . S
O364 Cd365 2.223 . S
O364 C372 1.315 . S
Cd365 O364 2.223 . S
Cd365 O368 2.297 . S
Cd365 O369 2.439 . S
Cd365 O375 2.240 1_655 S
Cd366 O367 2.240 . S
Cd366 O374 2.223 1_655 S
Cd366 O376 2.297 . S
Cd366 O377 2.439 . S
O367 Cd366 2.240 . S
O367 C372 1.279 . S
O368 Cd365 2.297 . S
O368 C370 1.247 . S
O369 Cd365 2.439 . S
O369 C370 1.208 . S
C370 O368 1.247 . S
C370 O369 1.208 . S
C371 O376 1.247 . S
C371 O377 1.208 . S
C372 O364 1.315 . S
C372 O367 1.279 . S
C373 O374 1.315 . S
C373 O375 1.279 . S
O374 Cd366 2.223 1_455 S
O374 C373 1.315 . S
O375 Cd365 2.240 1_455 S
O375 C373 1.279 . S
O376 Cd366 2.297 . S
O376 C371 1.247 . S
O377 Cd366 2.439 . S
O377 C371 1.208 . S
O378 Cd379 2.223 . S
O378 C386 1.315 . S
Cd379 O378 2.223 . S
Cd379 O382 2.297 . S
Cd379 O383 2.439 . S
Cd379 O389 2.240 . S
Cd380 O381 2.240 . S
Cd380 O388 2.223 . S
Cd380 O390 2.297 . S
Cd380 O391 2.439 . S
O381 Cd380 2.240 . S
O381 C386 1.279 . S
O382 Cd379 2.297 . S
O382 C384 1.247 . S
O383 Cd379 2.439 . S
O383 C384 1.208 . S
C384 O382 1.247 . S
C384 O383 1.208 . S
C385 O390 1.247 . S
C385 O391 1.208 . S
C386 O378 1.315 . S
C386 O381 1.279 . S
C387 O388 1.315 . S
C387 O389 1.279 . S
O388 Cd380 2.223 . S
O388 C387 1.315 . S
O389 Cd379 2.240 . S
O389 C387 1.279 . S
O390 Cd380 2.297 . S
O390 C385 1.247 . S
O391 Cd380 2.439 . S
O391 C385 1.208 . S
O392 Cd393 2.223 . S
O392 C400 1.315 . S
Cd393 O392 2.223 . S
Cd393 O396 2.297 . S
Cd393 O397 2.439 . S
Cd393 O403 2.240 1_455 S
Cd394 O395 2.240 . S
Cd394 O402 2.223 1_455 S
Cd394 O404 2.297 . S
Cd394 O405 2.439 . S
O395 Cd394 2.240 . S
O395 C400 1.279 . S
O396 Cd393 2.297 . S
O396 C398 1.247 . S
O397 Cd393 2.439 . S
O397 C398 1.208 . S
C398 O396 1.247 . S
C398 O397 1.208 . S
C399 O404 1.247 . S
C399 O405 1.208 . S
C400 O392 1.315 . S
C400 O395 1.279 . S
C401 O402 1.315 . S
C401 O403 1.279 . S
O402 Cd394 2.223 1_655 S
O402 C401 1.315 . S
O403 Cd393 2.240 1_655 S
O403 C401 1.279 . S
O404 Cd394 2.297 . S
O404 C399 1.247 . S
O405 Cd394 2.439 . S
O405 C399 1.208 . S
O406 Cd407 2.223 . S
O406 C414 1.315 . S
Cd407 O406 2.223 . S
Cd407 O410 2.297 . S
Cd407 O411 2.439 . S
Cd407 O417 2.240 . S
Cd408 O409 2.240 . S
Cd408 O416 2.223 . S
Cd408 O418 2.297 . S
Cd408 O419 2.439 . S
O409 Cd408 2.240 . S
O409 C414 1.279 . S
O410 Cd407 2.297 . S
O410 C412 1.247 . S
O411 Cd407 2.439 . S
O411 C412 1.208 . S
C412 O410 1.247 . S
C412 O411 1.208 . S
C413 O418 1.247 . S
C413 O419 1.208 . S
C414 O406 1.315 . S
C414 O409 1.279 . S
C415 O416 1.315 . S
C415 O417 1.279 . S
O416 Cd408 2.223 . S
O416 C415 1.315 . S
O417 Cd407 2.240 . S
O417 C415 1.279 . S
O418 Cd408 2.297 . S
O418 C413 1.247 . S
O419 Cd408 2.439 . S
O419 C413 1.208 . S
O420 Cd421 2.223 . S
O420 C428 1.315 . S
Cd421 O420 2.223 . S
Cd421 O424 2.297 . S
Cd421 O425 2.439 . S
Cd421 O431 2.240 1_455 S
Cd422 O423 2.240 . S
Cd422 O430 2.223 1_455 S
Cd422 O432 2.297 . S
Cd422 O433 2.439 . S
O423 Cd422 2.240 . S
O423 C428 1.279 . S
O424 Cd421 2.297 . S
O424 C426 1.247 . S
O425 Cd421 2.439 . S
O425 C426 1.208 . S
C426 O424 1.247 . S
C426 O425 1.208 . S
C427 O432 1.247 . S
C427 O433 1.208 . S
C428 O420 1.315 . S
C428 O423 1.279 . S
C429 O430 1.315 . S
C429 O431 1.279 . S
O430 Cd422 2.223 1_655 S
O430 C429 1.315 . S
O431 Cd421 2.240 1_655 S
O431 C429 1.279 . S
O432 Cd422 2.297 . S
O432 C427 1.247 . S
O433 Cd422 2.439 . S
O433 C427 1.208 . S
O434 Cd435 2.223 . S
O434 C442 1.315 . S
Cd435 O434 2.223 . S
Cd435 O438 2.297 . S
Cd435 O439 2.439 . S
Cd435 O445 2.240 . S
Cd436 O437 2.240 . S
Cd436 O444 2.223 . S
Cd436 O446 2.297 . S
Cd436 O447 2.439 . S
O437 Cd436 2.240 . S
O437 C442 1.279 . S
O438 Cd435 2.297 . S
O438 C440 1.247 . S
O439 Cd435 2.439 . S
O439 C440 1.208 . S
C440 O438 1.247 . S
C440 O439 1.208 . S
C441 O446 1.247 . S
C441 O447 1.208 . S
C442 O434 1.315 . S
C442 O437 1.279 . S
C443 O444 1.315 . S
C443 O445 1.279 . S
O444 Cd436 2.223 . S
O444 C443 1.315 . S
O445 Cd435 2.240 . S
O445 C443 1.279 . S
O446 Cd436 2.297 . S
O446 C441 1.247 . S
O447 Cd436 2.439 . S
O447 C441 1.208 . S
C448 C449 1.387 . S
C448 H452 0.950 . S
C448 C457 1.390 . S
C449 C448 1.387 . S
C449 C451 1.387 . S
H450 C457 0.950 . S
C451 C449 1.387 . S
C451 C453 1.390 . S
C451 H455 0.950 . S
H452 C448 0.950 . S
C453 C451 1.390 . S
C453 C454 1.387 . S
C453 H456 0.950 . S
C454 C453 1.387 . S
C454 C457 1.387 . S
H455 C451 0.950 . S
H456 C453 0.950 . S
C457 C448 1.390 . S
C457 H450 0.950 . S
C457 C454 1.387 . S
C458 C459 1.387 . S
C458 H462 0.950 . S
C458 C467 1.390 . S
C459 C458 1.387 . S
C459 C461 1.387 . S
H460 C467 0.950 . S
C461 C459 1.387 . S
C461 C463 1.390 . S
C461 H465 0.950 . S
H462 C458 0.950 . S
C463 C461 1.390 . S
C463 C464 1.387 . S
C463 H466 0.950 . S
C464 C463 1.387 . S
C464 C467 1.387 . S
H465 C461 0.950 . S
H466 C463 0.950 . S
C467 C458 1.390 . S
C467 H460 0.950 . S
C467 C464 1.387 . S
C468 C469 1.387 . S
C468 H472 0.950 . S
C468 C477 1.390 . S
C469 C468 1.387 . S
C469 C471 1.387 . S
H470 C477 0.950 . S
C471 C469 1.387 . S
C471 C473 1.390 . S
C471 H475 0.950 . S
H472 C468 0.950 . S
C473 C471 1.390 . S
C473 C474 1.387 . S
C473 H476 0.950 . S
C474 C473 1.387 . S
C474 C477 1.387 . S
H475 C471 0.950 . S
H476 C473 0.950 . S
C477 C468 1.390 . S
C477 H470 0.950 . S
C477 C474 1.387 . S
C478 C479 1.387 . S
C478 H482 0.950 . S
C478 C487 1.390 . S
C479 C478 1.387 . S
C479 C481 1.387 . S
H480 C487 0.950 . S
C481 C479 1.387 . S
C481 C483 1.390 . S
C481 H485 0.950 . S
H482 C478 0.950 . S
C483 C481 1.390 . S
C483 C484 1.387 . S
C483 H486 0.950 . S
C484 C483 1.387 . S
C484 C487 1.387 . S
H485 C481 0.950 . S
H486 C483 0.950 . S
C487 C478 1.390 . S
C487 H480 0.950 . S
C487 C484 1.387 . S
C488 C489 1.387 . S
C488 H492 0.950 . S
C488 C497 1.390 . S
C489 C488 1.387 . S
C489 C491 1.387 . S
H490 C497 0.950 . S
C491 C489 1.387 . S
C491 C493 1.390 . S
C491 H495 0.950 . S
H492 C488 0.950 . S
C493 C491 1.390 . S
C493 C494 1.387 . S
C493 H496 0.950 . S
C494 C493 1.387 . S
C494 C497 1.387 . S
H495 C491 0.950 . S
H496 C493 0.950 . S
C497 C488 1.390 . S
C497 H490 0.950 . S
C497 C494 1.387 . S
C498 C499 1.387 . S
C498 H502 0.950 . S
C498 C507 1.390 . S
C499 C498 1.387 . S
C499 C501 1.387 . S
H500 C507 0.950 . S
C501 C499 1.387 . S
C501 C503 1.390 . S
C501 H505 0.950 . S
H502 C498 0.950 . S
C503 C501 1.390 . S
C503 C504 1.387 . S
C503 H506 0.950 . S
C504 C503 1.387 . S
C504 C507 1.387 . S
H505 C501 0.950 . S
H506 C503 0.950 . S
C507 C498 1.390 . S
C507 H500 0.950 . S
C507 C504 1.387 . S
C508 C509 1.387 . S
C508 H512 0.950 . S
C508 C517 1.390 . S
C509 C508 1.387 . S
C509 C511 1.387 . S
H510 C517 0.950 . S
C511 C509 1.387 . S
C511 C513 1.390 . S
C511 H515 0.950 . S
H512 C508 0.950 . S
C513 C511 1.390 . S
C513 C514 1.387 . S
C513 H516 0.950 . S
C514 C513 1.387 . S
C514 C517 1.387 . S
H515 C511 0.950 . S
H516 C513 0.950 . S
C517 C508 1.390 . S
C517 H510 0.950 . S
C517 C514 1.387 . S
C518 C519 1.387 . S
C518 H522 0.950 . S
C518 C527 1.390 . S
C519 C518 1.387 . S
C519 C521 1.387 . S
H520 C527 0.950 . S
C521 C519 1.387 . S
C521 C523 1.390 . S
C521 H525 0.950 . S
H522 C518 0.950 . S
C523 C521 1.390 . S
C523 C524 1.387 . S
C523 H526 0.950 . S
C524 C523 1.387 . S
C524 C527 1.387 . S
H525 C521 0.950 . S
H526 C523 0.950 . S
C527 C518 1.390 . S
C527 H520 0.950 . S
C527 C524 1.387 . S
C528 C529 1.387 . S
C528 H532 0.950 1_655 S
C528 C537 1.390 . S
C529 C528 1.387 . S
C529 C531 1.387 . S
H530 C537 0.950 1_455 S
C531 C529 1.387 . S
C531 C533 1.390 . S
C531 H535 0.950 . S
H532 C528 0.950 1_455 S
C533 C531 1.390 . S
C533 C534 1.387 . S
C533 H536 0.950 . S
C534 C533 1.387 . S
C534 C537 1.387 . S
H535 C531 0.950 . S
H536 C533 0.950 . S
C537 C528 1.390 . S
C537 H530 0.950 1_655 S
C537 C534 1.387 . S
C538 C539 1.387 . S
C538 H542 0.950 . S
C538 C547 1.390 . S
C539 C538 1.387 . S
C539 C541 1.387 . S
H540 C547 0.950 . S
C541 C539 1.387 . S
C541 C543 1.390 . S
C541 H545 0.950 . S
H542 C538 0.950 . S
C543 C541 1.390 . S
C543 C544 1.387 . S
C543 H546 0.950 . S
C544 C543 1.387 . S
C544 C547 1.387 . S
H545 C541 0.950 . S
H546 C543 0.950 . S
C547 C538 1.390 . S
C547 H540 0.950 . S
C547 C544 1.387 . S
C548 C549 1.387 . S
C548 H552 0.950 . S
C548 C557 1.390 . S
C549 C548 1.387 . S
C549 C551 1.387 . S
H550 C557 0.950 . S
C551 C549 1.387 . S
C551 C553 1.390 . S
C551 H555 0.950 1_455 S
H552 C548 0.950 . S
C553 C551 1.390 . S
C553 C554 1.387 . S
C553 H556 0.950 1_455 S
C554 C553 1.387 . S
C554 C557 1.387 . S
H555 C551 0.950 1_655 S
H556 C553 0.950 1_655 S
C557 C548 1.390 . S
C557 H550 0.950 . S
C557 C554 1.387 . S
C558 C559 1.387 . S
C558 H562 0.950 . S
C558 C567 1.390 . S
C559 C558 1.387 . S
C559 C561 1.387 . S
H560 C567 0.950 . S
C561 C559 1.387 . S
C561 C563 1.390 . S
C561 H565 0.950 . S
H562 C558 0.950 . S
C563 C561 1.390 . S
C563 C564 1.387 . S
C563 H566 0.950 . S
C564 C563 1.387 . S
C564 C567 1.387 . S
H565 C561 0.950 . S
H566 C563 0.950 . S
C567 C558 1.390 . S
C567 H560 0.950 . S
C567 C564 1.387 . S
C568 C569 1.387 . S
C568 H572 0.950 . S
C568 C577 1.390 . S
C569 C568 1.387 . S
C569 C571 1.387 . S
H570 C577 0.950 . S
C571 C569 1.387 . S
C571 C573 1.390 . S
C571 H575 0.950 1_655 S
H572 C568 0.950 . S
C573 C571 1.390 . S
C573 C574 1.387 . S
C573 H576 0.950 1_655 S
C574 C573 1.387 . S
C574 C577 1.387 . S
H575 C571 0.950 1_455 S
H576 C573 0.950 1_455 S
C577 C568 1.390 . S
C577 H570 0.950 . S
C577 C574 1.387 . S
C578 C579 1.387 . S
C578 H582 0.950 . S
C578 C587 1.390 . S
C579 C578 1.387 . S
C579 C581 1.387 . S
H580 C587 0.950 . S
C581 C579 1.387 . S
C581 C583 1.390 . S
C581 H585 0.950 . S
H582 C578 0.950 . S
C583 C581 1.390 . S
C583 C584 1.387 . S
C583 H586 0.950 . S
C584 C583 1.387 . S
C584 C587 1.387 . S
H585 C581 0.950 . S
H586 C583 0.950 . S
C587 C578 1.390 . S
C587 H580 0.950 . S
C587 C584 1.387 . S
C588 C589 1.387 . S
C588 H592 0.950 . S
C588 C597 1.390 . S
C589 C588 1.387 . S
C589 C591 1.387 . S
H590 C597 0.950 . S
C591 C589 1.387 . S
C591 C593 1.390 . S
C591 H595 0.950 1_455 S
H592 C588 0.950 . S
C593 C591 1.390 . S
C593 C594 1.387 . S
C593 H596 0.950 1_455 S
C594 C593 1.387 . S
C594 C597 1.387 . S
H595 C591 0.950 1_655 S
H596 C593 0.950 1_655 S
C597 C588 1.390 . S
C597 H590 0.950 . S
C597 C594 1.387 . S
C598 C599 1.387 . S
C598 H602 0.950 . S
C598 C607 1.390 . S
C599 C598 1.387 . S
C599 C601 1.387 . S
H600 C607 0.950 . S
C601 C599 1.387 . S
C601 C603 1.390 . S
C601 H605 0.950 . S
H602 C598 0.950 . S
C603 C601 1.390 . S
C603 C604 1.387 . S
C603 H606 0.950 . S
C604 C603 1.387 . S
C604 C607 1.387 . S
H605 C601 0.950 . S
H606 C603 0.950 . S
C607 C598 1.390 . S
C607 H600 0.950 . S
C607 C604 1.387 . S
C608 C609 1.387 . S
C608 H612 0.950 . S
C608 C617 1.390 . S
C609 C608 1.387 . S
C609 C611 1.387 . S
H610 C617 0.950 . S
C611 C609 1.387 . S
C611 C613 1.390 . S
C611 H615 0.950 . S
H612 C608 0.950 . S
C613 C611 1.390 . S
C613 C614 1.387 . S
C613 H616 0.950 . S
C614 C613 1.387 . S
C614 C617 1.387 . S
H615 C611 0.950 . S
H616 C613 0.950 . S
C617 C608 1.390 . S
C617 H610 0.950 . S
C617 C614 1.387 . S
C618 C619 1.387 . S
C618 H622 0.950 . S
C618 C627 1.390 . S
C619 C618 1.387 . S
C619 C621 1.387 . S
H620 C627 0.950 . S
C621 C619 1.387 . S
C621 C623 1.390 . S
C621 H625 0.950 . S
H622 C618 0.950 . S
C623 C621 1.390 . S
C623 C624 1.387 . S
C623 H626 0.950 . S
C624 C623 1.387 . S
C624 C627 1.387 . S
H625 C621 0.950 . S
H626 C623 0.950 . S
C627 C618 1.390 . S
C627 H620 0.950 . S
C627 C624 1.387 . S
C628 C629 1.387 . S
C628 H632 0.950 . S
C628 C637 1.390 . S
C629 C628 1.387 . S
C629 C631 1.387 . S
H630 C637 0.950 . S
C631 C629 1.387 . S
C631 C633 1.390 . S
C631 H635 0.950 . S
H632 C628 0.950 . S
C633 C631 1.390 . S
C633 C634 1.387 . S
C633 H636 0.950 . S
C634 C633 1.387 . S
C634 C637 1.387 . S
H635 C631 0.950 . S
H636 C633 0.950 . S
C637 C628 1.390 . S
C637 H630 0.950 . S
C637 C634 1.387 . S
C638 C639 1.387 . S
C638 H642 0.950 . S
C638 C647 1.390 . S
C639 C638 1.387 . S
C639 C641 1.387 . S
H640 C647 0.950 . S
C641 C639 1.387 . S
C641 C643 1.390 . S
C641 H645 0.950 . S
H642 C638 0.950 . S
C643 C641 1.390 . S
C643 C644 1.387 . S
C643 H646 0.950 . S
C644 C643 1.387 . S
C644 C647 1.387 . S
H645 C641 0.950 . S
H646 C643 0.950 . S
C647 C638 1.390 . S
C647 H640 0.950 . S
C647 C644 1.387 . S
C648 C649 1.387 . S
C648 H652 0.950 . S
C648 C657 1.390 . S
C649 C648 1.387 . S
C649 C651 1.387 . S
H650 C657 0.950 . S
C651 C649 1.387 . S
C651 C653 1.390 . S
C651 H655 0.950 . S
H652 C648 0.950 . S
C653 C651 1.390 . S
C653 C654 1.387 . S
C653 H656 0.950 . S
C654 C653 1.387 . S
C654 C657 1.387 . S
H655 C651 0.950 . S
H656 C653 0.950 . S
C657 C648 1.390 . S
C657 H650 0.950 . S
C657 C654 1.387 . S
C658 C659 1.387 . S
C658 H662 0.950 . S
C658 C667 1.390 . S
C659 C658 1.387 . S
C659 C661 1.387 . S
H660 C667 0.950 . S
C661 C659 1.387 . S
C661 C663 1.390 . S
C661 H665 0.950 . S
H662 C658 0.950 . S
C663 C661 1.390 . S
C663 C664 1.387 . S
C663 H666 0.950 . S
C664 C663 1.387 . S
C664 C667 1.387 . S
H665 C661 0.950 . S
H666 C663 0.950 . S
C667 C658 1.390 . S
C667 H660 0.950 . S
C667 C664 1.387 . S
C668 C669 1.387 . S
C668 H672 0.950 . S
C668 C677 1.390 . S
C669 C668 1.387 . S
C669 C671 1.387 . S
H670 C677 0.950 . S
C671 C669 1.387 . S
C671 C673 1.390 . S
C671 H675 0.950 . S
H672 C668 0.950 . S
C673 C671 1.390 . S
C673 C674 1.387 . S
C673 H676 0.950 . S
C674 C673 1.387 . S
C674 C677 1.387 . S
H675 C671 0.950 . S
H676 C673 0.950 . S
C677 C668 1.390 . S
C677 H670 0.950 . S
C677 C674 1.387 . S
C678 C679 1.387 . S
C678 H682 0.950 . S
C678 C687 1.390 . S
C679 C678 1.387 . S
C679 C681 1.387 . S
H680 C687 0.950 . S
C681 C679 1.387 . S
C681 C683 1.390 . S
C681 H685 0.950 . S
H682 C678 0.950 . S
C683 C681 1.390 . S
C683 C684 1.387 . S
C683 H686 0.950 . S
C684 C683 1.387 . S
C684 C687 1.387 . S
H685 C681 0.950 . S
H686 C683 0.950 . S
C687 C678 1.390 . S
C687 H680 0.950 . S
C687 C684 1.387 . S
C688 C689 1.387 . S
C688 H692 0.950 . S
C688 C697 1.390 . S
C689 C688 1.387 . S
C689 C691 1.387 . S
H690 C697 0.950 . S
C691 C689 1.387 . S
C691 C693 1.390 . S
C691 H695 0.950 . S
H692 C688 0.950 . S
C693 C691 1.390 . S
C693 C694 1.387 . S
C693 H696 0.950 . S
C694 C693 1.387 . S
C694 C697 1.387 . S
H695 C691 0.950 . S
H696 C693 0.950 . S
C697 C688 1.390 . S
C697 H690 0.950 . S
C697 C694 1.387 . S
C698 C699 1.387 . S
C698 H702 0.950 . S
C698 C707 1.390 . S
C699 C698 1.387 . S
C699 C701 1.387 . S
H700 C707 0.950 . S
C701 C699 1.387 . S
C701 C703 1.390 . S
C701 H705 0.950 . S
H702 C698 0.950 . S
C703 C701 1.390 . S
C703 C704 1.387 . S
C703 H706 0.950 . S
C704 C703 1.387 . S
C704 C707 1.387 . S
H705 C701 0.950 . S
H706 C703 0.950 . S
C707 C698 1.390 . S
C707 H700 0.950 . S
C707 C704 1.387 . S
C708 C709 1.387 . S
C708 H712 0.950 . S
C708 C717 1.390 . S
C709 C708 1.387 . S
C709 C711 1.387 . S
H710 C717 0.950 . S
C711 C709 1.387 . S
C711 C713 1.390 . S
C711 H715 0.950 . S
H712 C708 0.950 . S
C713 C711 1.390 . S
C713 C714 1.387 . S
C713 H716 0.950 . S
C714 C713 1.387 . S
C714 C717 1.387 . S
H715 C711 0.950 . S
H716 C713 0.950 . S
C717 C708 1.390 . S
C717 H710 0.950 . S
C717 C714 1.387 . S
C718 C719 1.387 . S
C718 H722 0.950 . S
C718 C727 1.390 . S
C719 C718 1.387 . S
C719 C721 1.387 . S
H720 C727 0.950 . S
C721 C719 1.387 . S
C721 C723 1.390 . S
C721 H725 0.950 . S
H722 C718 0.950 . S
C723 C721 1.390 . S
C723 C724 1.387 . S
C723 H726 0.950 . S
C724 C723 1.387 . S
C724 C727 1.387 . S
H725 C721 0.950 . S
H726 C723 0.950 . S
C727 C718 1.390 . S
C727 H720 0.950 . S
C727 C724 1.387 . S
C728 C729 1.387 . S
C728 H732 0.950 . S
C728 C737 1.390 . S
C729 C728 1.387 . S
C729 C731 1.387 . S
H730 C737 0.950 . S
C731 C729 1.387 . S
C731 C733 1.390 . S
C731 H735 0.950 . S
H732 C728 0.950 . S
C733 C731 1.390 . S
C733 C734 1.387 . S
C733 H736 0.950 . S
C734 C733 1.387 . S
C734 C737 1.387 . S
H735 C731 0.950 . S
H736 C733 0.950 . S
C737 C728 1.390 . S
C737 H730 0.950 . S
C737 C734 1.387 . S
C738 C739 1.387 . S
C738 H742 0.950 . S
C738 C747 1.390 . S
C739 C738 1.387 . S
C739 C741 1.387 . S
H740 C747 0.950 . S
C741 C739 1.387 . S
C741 C743 1.390 . S
C741 H745 0.950 . S
H742 C738 0.950 . S
C743 C741 1.390 . S
C743 C744 1.387 . S
C743 H746 0.950 . S
C744 C743 1.387 . S
C744 C747 1.387 . S
H745 C741 0.950 . S
H746 C743 0.950 . S
C747 C738 1.390 . S
C747 H740 0.950 . S
C747 C744 1.387 . S
C748 C749 1.387 . S
C748 H752 0.950 . S
C748 C757 1.390 . S
C749 C748 1.387 . S
C749 C751 1.387 . S
H750 C757 0.950 . S
C751 C749 1.387 . S
C751 C753 1.390 . S
C751 H755 0.950 . S
H752 C748 0.950 . S
C753 C751 1.390 . S
C753 C754 1.387 . S
C753 H756 0.950 . S
C754 C753 1.387 . S
C754 C757 1.387 . S
H755 C751 0.950 . S
H756 C753 0.950 . S
C757 C748 1.390 . S
C757 H750 0.950 . S
C757 C754 1.387 . S
C758 C759 1.387 . S
C758 H762 0.950 . S
C758 C767 1.390 . S
C759 C758 1.387 . S
C759 C761 1.387 . S
H760 C767 0.950 . S
C761 C759 1.387 . S
C761 C763 1.390 . S
C761 H765 0.950 . S
H762 C758 0.950 . S
C763 C761 1.390 . S
C763 C764 1.387 . S
C763 H766 0.950 . S
C764 C763 1.387 . S
C764 C767 1.387 . S
H765 C761 0.950 . S
H766 C763 0.950 . S
C767 C758 1.390 . S
C767 H760 0.950 . S
C767 C764 1.387 . S
C768 C769 1.387 1_565 S
C768 H772 0.950 . S
C768 C777 1.390 . S
C769 C768 1.387 1_545 S
C769 C771 1.387 1_554 S
H770 C777 0.950 . S
C771 C769 1.387 1_556 S
C771 C773 1.390 . S
C771 H775 0.950 . S
H772 C768 0.950 . S
C773 C771 1.390 . S
C773 C774 1.387 1_545 S
C773 H776 0.950 . S
C774 C773 1.387 1_565 S
C774 C777 1.387 1_556 S
H775 C771 0.950 . S
H776 C773 0.950 . S
C777 C768 1.390 . S
C777 H770 0.950 . S
C777 C774 1.387 1_554 S
C778 C779 1.387 . S
C778 H782 0.950 . S
C778 C787 1.390 . S
C779 C778 1.387 . S
C779 C781 1.387 1_554 S
H780 C787 0.950 . S
C781 C779 1.387 1_556 S
C781 C783 1.390 . S
C781 H785 0.950 . S
H782 C778 0.950 . S
C783 C781 1.390 . S
C783 C784 1.387 . S
C783 H786 0.950 . S
C784 C783 1.387 . S
C784 C787 1.387 1_556 S
H785 C781 0.950 . S
H786 C783 0.950 . S
C787 C778 1.390 . S
C787 H780 0.950 . S
C787 C784 1.387 1_554 S
C788 C789 1.387 . S
C788 H792 0.950 . S
C788 C797 1.390 . S
C789 C788 1.387 . S
C789 C791 1.387 . S
H790 C797 0.950 . S
C791 C789 1.387 . S
C791 C793 1.390 . S
C791 H795 0.950 . S
H792 C788 0.950 . S
C793 C791 1.390 . S
C793 C794 1.387 . S
C793 H796 0.950 . S
C794 C793 1.387 . S
C794 C797 1.387 . S
H795 C791 0.950 . S
H796 C793 0.950 . S
C797 C788 1.390 . S
C797 H790 0.950 . S
C797 C794 1.387 . S
C798 C799 1.387 . S
C798 H802 0.950 . S
C798 C807 1.390 1_545 S
C799 C798 1.387 . S
C799 C801 1.387 . S
H800 C807 0.950 . S
C801 C799 1.387 . S
C801 C803 1.390 1_545 S
C801 H805 0.950 . S
H802 C798 0.950 . S
C803 C801 1.390 1_565 S
C803 C804 1.387 . S
C803 H806 0.950 . S
C804 C803 1.387 . S
C804 C807 1.387 . S
H805 C801 0.950 . S
H806 C803 0.950 . S
C807 C798 1.390 1_565 S
C807 H800 0.950 . S
C807 C804 1.387 . S
C808 C809 1.387 . S
C808 H812 0.950 . S
C808 C817 1.390 1_556 S
C809 C808 1.387 . S
C809 C811 1.387 . S
H810 C817 0.950 . S
C811 C809 1.387 . S
C811 C813 1.390 1_556 S
C811 H815 0.950 . S
H812 C808 0.950 . S
C813 C811 1.390 1_554 S
C813 C814 1.387 . S
C813 H816 0.950 . S
C814 C813 1.387 . S
C814 C817 1.387 . S
H815 C811 0.950 . S
H816 C813 0.950 . S
C817 C808 1.390 1_554 S
C817 H810 0.950 . S
C817 C814 1.387 . S
C818 C819 1.387 . S
C818 H822 0.950 . S
C818 C827 1.390 . S
C819 C818 1.387 . S
C819 C821 1.387 . S
H820 C827 0.950 . S
C821 C819 1.387 . S
C821 C823 1.390 . S
C821 H825 0.950 . S
H822 C818 0.950 . S
C823 C821 1.390 . S
C823 C824 1.387 . S
C823 H826 0.950 . S
C824 C823 1.387 . S
C824 C827 1.387 . S
H825 C821 0.950 . S
H826 C823 0.950 . S
C827 C818 1.390 . S
C827 H820 0.950 . S
C827 C824 1.387 . S
C828 C829 1.387 . S
C828 H832 0.950 . S
C828 C837 1.390 . S
C829 C828 1.387 . S
C829 C831 1.387 1_545 S
H830 C837 0.950 . S
C831 C829 1.387 1_565 S
C831 C833 1.390 . S
C831 H835 0.950 . S
H832 C828 0.950 . S
C833 C831 1.390 . S
C833 C834 1.387 . S
C833 H836 0.950 . S
C834 C833 1.387 . S
C834 C837 1.387 1_565 S
H835 C831 0.950 . S
H836 C833 0.950 . S
C837 C828 1.390 . S
C837 H830 0.950 . S
C837 C834 1.387 1_545 S
C838 C839 1.387 . S
C838 H842 0.950 . S
C838 C847 1.390 . S
C839 C838 1.387 . S
C839 C841 1.387 . S
H840 C847 0.950 . S
C841 C839 1.387 . S
C841 C843 1.390 . S
C841 H845 0.950 . S
H842 C838 0.950 . S
C843 C841 1.390 . S
C843 C844 1.387 . S
C843 H846 0.950 . S
C844 C843 1.387 . S
C844 C847 1.387 . S
H845 C841 0.950 . S
H846 C843 0.950 . S
C847 C838 1.390 . S
C847 H840 0.950 . S
C847 C844 1.387 . S
C848 C849 1.387 . S
C848 H852 0.950 . S
C848 C857 1.390 . S
C849 C848 1.387 . S
C849 C851 1.387 . S
H850 C857 0.950 . S
C851 C849 1.387 . S
C851 C853 1.390 . S
C851 H855 0.950 . S
H852 C848 0.950 . S
C853 C851 1.390 . S
C853 C854 1.387 . S
C853 H856 0.950 . S
C854 C853 1.387 . S
C854 C857 1.387 . S
H855 C851 0.950 . S
H856 C853 0.950 . S
C857 C848 1.390 . S
C857 H850 0.950 . S
C857 C854 1.387 . S
C858 C859 1.387 . S
C858 H862 0.950 . S
C858 C867 1.390 . S
C859 C858 1.387 . S
C859 C861 1.387 . S
H860 C867 0.950 . S
C861 C859 1.387 . S
C861 C863 1.390 . S
C861 H865 0.950 . S
H862 C858 0.950 . S
C863 C861 1.390 . S
C863 C864 1.387 . S
C863 H866 0.950 . S
C864 C863 1.387 . S
C864 C867 1.387 . S
H865 C861 0.950 . S
H866 C863 0.950 . S
C867 C858 1.390 . S
C867 H860 0.950 . S
C867 C864 1.387 . S
C868 C869 1.387 . S
C868 H872 0.950 . S
C868 C877 1.390 . S
C869 C868 1.387 . S
C869 C871 1.387 . S
H870 C877 0.950 . S
C871 C869 1.387 . S
C871 C873 1.390 . S
C871 H875 0.950 . S
H872 C868 0.950 . S
C873 C871 1.390 . S
C873 C874 1.387 . S
C873 H876 0.950 . S
C874 C873 1.387 . S
C874 C877 1.387 . S
H875 C871 0.950 . S
H876 C873 0.950 . S
C877 C868 1.390 . S
C877 H870 0.950 . S
C877 C874 1.387 . S
C878 C879 1.387 . S
C878 H882 0.950 . S
C878 C887 1.390 . S
C879 C878 1.387 . S
C879 C881 1.387 . S
H880 C887 0.950 . S
C881 C879 1.387 . S
C881 C883 1.390 . S
C881 H885 0.950 . S
H882 C878 0.950 . S
C883 C881 1.390 . S
C883 C884 1.387 . S
C883 H886 0.950 . S
C884 C883 1.387 . S
C884 C887 1.387 . S
H885 C881 0.950 . S
H886 C883 0.950 . S
C887 C878 1.390 . S
C887 H880 0.950 . S
C887 C884 1.387 . S
C888 C889 1.387 . S
C888 H892 0.950 . S
C888 C897 1.390 1_455 S
C889 C888 1.387 . S
C889 C891 1.387 1_565 S
H890 C897 0.950 . S
C891 C889 1.387 1_545 S
C891 C893 1.390 1_455 S
C891 H895 0.950 . S
H892 C888 0.950 . S
C893 C891 1.390 1_655 S
C893 C894 1.387 . S
C893 H896 0.950 . S
C894 C893 1.387 . S
C894 C897 1.387 1_545 S
H895 C891 0.950 . S
H896 C893 0.950 . S
C897 C888 1.390 1_655 S
C897 H890 0.950 . S
C897 C894 1.387 1_565 S
C898 C899 1.387 . S
C898 H902 0.950 . S
C898 C907 1.390 . S
C899 C898 1.387 . S
C899 C901 1.387 1_655 S
H900 C907 0.950 . S
C901 C899 1.387 1_455 S
C901 C903 1.390 . S
C901 H905 0.950 . S
H902 C898 0.950 . S
C903 C901 1.390 . S
C903 C904 1.387 . S
C903 H906 0.950 . S
C904 C903 1.387 . S
C904 C907 1.387 1_455 S
H905 C901 0.950 . S
H906 C903 0.950 . S
C907 C898 1.390 . S
C907 H900 0.950 . S
C907 C904 1.387 1_655 S
C908 C909 1.379 1_455 S
C908 H912 0.950 . S
C908 C917 1.399 . S
C909 C908 1.379 1_655 S
C909 C911 1.387 . S
H910 C917 0.950 . S
C911 C909 1.387 . S
C911 C913 1.399 . S
C911 H915 0.950 . S
H912 C908 0.950 . S
C913 C911 1.399 . S
C913 C914 1.379 1_655 S
C913 H916 0.950 . S
C914 C913 1.379 1_455 S
C914 C917 1.387 . S
H915 C911 0.950 . S
H916 C913 0.950 . S
C917 C908 1.399 . S
C917 H910 0.950 . S
C917 C914 1.387 . S
C918 C919 1.374 1_654 S
C918 H922 0.949 . S
C918 C927 1.403 . S
C919 C918 1.374 1_456 S
C919 C921 1.387 . S
H920 C927 0.950 . S
C921 C919 1.387 . S
C921 C923 1.403 . S
C921 H925 0.950 . S
H922 C918 0.949 . S
C923 C921 1.403 . S
C923 C924 1.374 1_456 S
C923 H926 0.949 . S
C924 C923 1.374 1_654 S
C924 C927 1.387 . S
H925 C921 0.950 . S
H926 C923 0.949 . S
C927 C918 1.403 . S
C927 H920 0.950 . S
C927 C924 1.387 . S
C928 C929 1.387 . S
C928 H932 0.950 . S
C928 C937 1.390 . S
C929 C928 1.387 . S
C929 C931 1.387 . S
H930 C937 0.950 . S
C931 C929 1.387 . S
C931 C933 1.390 . S
C931 H935 0.950 . S
H932 C928 0.950 . S
C933 C931 1.390 . S
C933 C934 1.387 . S
C933 H936 0.950 . S
C934 C933 1.387 . S
C934 C937 1.387 . S
H935 C931 0.950 . S
H936 C933 0.950 . S
C937 C928 1.390 . S
C937 H930 0.950 . S
C937 C934 1.387 . S
C938 C939 1.387 . S
C938 H942 0.950 . S
C938 C947 1.390 . S
C939 C938 1.387 . S
C939 C941 1.387 . S
H940 C947 0.950 . S
C941 C939 1.387 . S
C941 C943 1.390 . S
C941 H945 0.950 . S
H942 C938 0.950 . S
C943 C941 1.390 . S
C943 C944 1.387 . S
C943 H946 0.950 . S
C944 C943 1.387 . S
C944 C947 1.387 . S
H945 C941 0.950 . S
H946 C943 0.950 . S
C947 C938 1.390 . S
C947 H940 0.950 . S
C947 C944 1.387 . S
C948 C949 1.387 . S
C948 H952 0.950 . S
C948 C957 1.390 . S
C949 C948 1.387 . S
C949 C951 1.387 . S
H950 C957 0.950 . S
C951 C949 1.387 . S
C951 C953 1.390 . S
C951 H955 0.950 . S
H952 C948 0.950 . S
C953 C951 1.390 . S
C953 C954 1.387 . S
C953 H956 0.950 . S
C954 C953 1.387 . S
C954 C957 1.387 . S
H955 C951 0.950 . S
H956 C953 0.950 . S
C957 C948 1.390 . S
C957 H950 0.950 . S
C957 C954 1.387 . S
C958 C959 1.387 . S
C958 H962 0.950 . S
C958 C967 1.390 . S
C959 C958 1.387 . S
C959 C961 1.387 . S
H960 C967 0.950 . S
C961 C959 1.387 . S
C961 C963 1.390 . S
C961 H965 0.950 . S
H962 C958 0.950 . S
C963 C961 1.390 . S
C963 C964 1.387 . S
C963 H966 0.950 . S
C964 C963 1.387 . S
C964 C967 1.387 . S
H965 C961 0.950 . S
H966 C963 0.950 . S
C967 C958 1.390 . S
C967 H960 0.950 . S
C967 C964 1.387 . S
C968 C969 1.387 . S
C968 H972 0.950 . S
C968 C977 1.390 . S
C969 C968 1.387 . S
C969 C971 1.387 . S
H970 C977 0.950 . S
C971 C969 1.387 . S
C971 C973 1.390 . S
C971 H975 0.950 . S
H972 C968 0.950 . S
C973 C971 1.390 . S
C973 C974 1.387 . S
C973 H976 0.950 . S
C974 C973 1.387 . S
C974 C977 1.387 . S
H975 C971 0.950 . S
H976 C973 0.950 . S
C977 C968 1.390 . S
C977 H970 0.950 . S
C977 C974 1.387 . S
C978 C979 1.387 . S
C978 H982 0.950 . S
C978 C987 1.390 . S
C979 C978 1.387 . S
C979 C981 1.387 . S
H980 C987 0.950 . S
C981 C979 1.387 . S
C981 C983 1.390 . S
C981 H985 0.950 . S
H982 C978 0.950 . S
C983 C981 1.390 . S
C983 C984 1.387 . S
C983 H986 0.950 . S
C984 C983 1.387 . S
C984 C987 1.387 . S
H985 C981 0.950 . S
H986 C983 0.950 . S
C987 C978 1.390 . S
C987 H980 0.950 . S
C987 C984 1.387 . S
C988 C989 1.387 . S
C988 H992 0.950 . S
C988 C997 1.390 . S
C989 C988 1.387 . S
C989 C991 1.387 . S
H990 C997 0.950 . S
C991 C989 1.387 . S
C991 C993 1.390 . S
C991 H995 0.950 . S
H992 C988 0.950 . S
C993 C991 1.390 . S
C993 C994 1.387 . S
C993 H996 0.950 . S
C994 C993 1.387 . S
C994 C997 1.387 . S
H995 C991 0.950 . S
H996 C993 0.950 . S
C997 C988 1.390 . S
C997 H990 0.950 . S
C997 C994 1.387 . S
C998 C999 1.387 . S
C998 H1002 0.950 . S
C998 C1007 1.390 . S
C999 C998 1.387 . S
C999 C1001 1.387 . S
H1000 C1007 0.950 . S
C1001 C999 1.387 . S
C1001 C1003 1.390 . S
C1001 H1005 0.950 . S
H1002 C998 0.950 . S
C1003 C1001 1.390 . S
C1003 C1004 1.387 . S
C1003 H1006 0.950 . S
C1004 C1003 1.387 . S
C1004 C1007 1.387 . S
H1005 C1001 0.950 . S
H1006 C1003 0.950 . S
C1007 C998 1.390 . S
C1007 H1000 0.950 . S
C1007 C1004 1.387 . S
C1008 C1009 1.387 . S
C1008 H1012 0.950 . S
C1008 C1017 1.390 . S
C1009 C1008 1.387 . S
C1009 C1011 1.387 . S
H1010 C1017 0.950 . S
C1011 C1009 1.387 . S
C1011 C1013 1.390 . S
C1011 H1015 0.950 . S
H1012 C1008 0.950 . S
C1013 C1011 1.390 . S
C1013 C1014 1.387 . S
C1013 H1016 0.950 . S
C1014 C1013 1.387 . S
C1014 C1017 1.387 . S
H1015 C1011 0.950 . S
H1016 C1013 0.950 . S
C1017 C1008 1.390 . S
C1017 H1010 0.950 . S
C1017 C1014 1.387 . S
C1018 C1019 1.387 . S
C1018 H1022 0.950 . S
C1018 C1027 1.390 . S
C1019 C1018 1.387 . S
C1019 C1021 1.387 . S
H1020 C1027 0.950 . S
C1021 C1019 1.387 . S
C1021 C1023 1.390 . S
C1021 H1025 0.950 . S
H1022 C1018 0.950 . S
C1023 C1021 1.390 . S
C1023 C1024 1.387 . S
C1023 H1026 0.950 . S
C1024 C1023 1.387 . S
C1024 C1027 1.387 . S
H1025 C1021 0.950 . S
H1026 C1023 0.950 . S
C1027 C1018 1.390 . S
C1027 H1020 0.950 . S
C1027 C1024 1.387 . S
C1028 C1029 1.387 . S
C1028 H1032 0.950 . S
C1028 C1037 1.390 . S
C1029 C1028 1.387 . S
C1029 C1031 1.387 . S
H1030 C1037 0.950 . S
C1031 C1029 1.387 . S
C1031 C1033 1.390 . S
C1031 H1035 0.950 . S
H1032 C1028 0.950 . S
C1033 C1031 1.390 . S
C1033 C1034 1.387 . S
C1033 H1036 0.950 . S
C1034 C1033 1.387 . S
C1034 C1037 1.387 . S
H1035 C1031 0.950 . S
H1036 C1033 0.950 . S
C1037 C1028 1.390 . S
C1037 H1030 0.950 . S
C1037 C1034 1.387 . S
C1038 C1039 1.387 . S
C1038 H1042 0.950 . S
C1038 C1047 1.390 . S
C1039 C1038 1.387 . S
C1039 C1041 1.387 . S
H1040 C1047 0.950 . S
C1041 C1039 1.387 . S
C1041 C1043 1.390 . S
C1041 H1045 0.950 . S
H1042 C1038 0.950 . S
C1043 C1041 1.390 . S
C1043 C1044 1.387 . S
C1043 H1046 0.950 . S
C1044 C1043 1.387 . S
C1044 C1047 1.387 . S
H1045 C1041 0.950 . S
H1046 C1043 0.950 . S
C1047 C1038 1.390 . S
C1047 H1040 0.950 . S
C1047 C1044 1.387 . S
C1048 C1049 1.387 . S
C1048 H1052 0.950 . S
C1048 C1057 1.390 . S
C1049 C1048 1.387 . S
C1049 C1051 1.387 . S
H1050 C1057 0.950 . S
C1051 C1049 1.387 . S
C1051 C1053 1.390 . S
C1051 H1055 0.950 . S
H1052 C1048 0.950 . S
C1053 C1051 1.390 . S
C1053 C1054 1.387 . S
C1053 H1056 0.950 . S
C1054 C1053 1.387 . S
C1054 C1057 1.387 . S
H1055 C1051 0.950 . S
H1056 C1053 0.950 . S
C1057 C1048 1.390 . S
C1057 H1050 0.950 . S
C1057 C1054 1.387 . S
C1058 C1059 1.387 . S
C1058 H1062 0.950 . S
C1058 C1067 1.390 . S
C1059 C1058 1.387 . S
C1059 C1061 1.387 . S
H1060 C1067 0.950 . S
C1061 C1059 1.387 . S
C1061 C1063 1.390 . S
C1061 H1065 0.950 . S
H1062 C1058 0.950 . S
C1063 C1061 1.390 . S
C1063 C1064 1.387 . S
C1063 H1066 0.950 . S
C1064 C1063 1.387 . S
C1064 C1067 1.387 . S
H1065 C1061 0.950 . S
H1066 C1063 0.950 . S
C1067 C1058 1.390 . S
C1067 H1060 0.950 . S
C1067 C1064 1.387 . S
C1068 C1069 1.387 . S
C1068 H1072 0.950 . S
C1068 C1077 1.390 . S
C1069 C1068 1.387 . S
C1069 C1071 1.387 . S
H1070 C1077 0.950 . S
C1071 C1069 1.387 . S
C1071 C1073 1.390 . S
C1071 H1075 0.950 . S
H1072 C1068 0.950 . S
C1073 C1071 1.390 . S
C1073 C1074 1.387 . S
C1073 H1076 0.950 . S
C1074 C1073 1.387 . S
C1074 C1077 1.387 . S
H1075 C1071 0.950 . S
H1076 C1073 0.950 . S
C1077 C1068 1.390 . S
C1077 H1070 0.950 . S
C1077 C1074 1.387 . S
C1078 C1079 1.387 . S
C1078 H1082 0.950 . S
C1078 C1087 1.390 . S
C1079 C1078 1.387 . S
C1079 C1081 1.387 . S
H1080 C1087 0.950 . S
C1081 C1079 1.387 . S
C1081 C1083 1.390 . S
C1081 H1085 0.950 . S
H1082 C1078 0.950 . S
C1083 C1081 1.390 . S
C1083 C1084 1.387 . S
C1083 H1086 0.950 . S
C1084 C1083 1.387 . S
C1084 C1087 1.387 . S
H1085 C1081 0.950 . S
H1086 C1083 0.950 . S
C1087 C1078 1.390 . S
C1087 H1080 0.950 . S
C1087 C1084 1.387 . S
C449 C7 1.854 . S
C454 C35 1.854 . S
C459 C49 1.856 . S
C464 C21 1.856 . S
C469 C91 1.856 . S
C474 C63 1.855 . S
C479 C105 1.855 . S
C484 C77 1.856 . S
C489 C119 1.856 . S
C494 C147 1.856 . S
C499 C161 1.857 . S
C504 C133 1.858 . S
C509 C175 1.854 . S
C514 C203 1.855 . S
C519 C217 1.857 . S
C524 C189 1.858 . S
C529 C231 1.854 . S
C534 C259 1.855 . S
C539 C245 1.856 . S
C544 C273 1.856 . S
C549 C315 1.855 . S
C554 C287 1.854 . S
C559 C301 1.858 . S
C564 C329 1.857 . S
C569 C371 1.856 . S
C574 C343 1.855 . S
C579 C385 1.856 . S
C584 C357 1.856 . S
C589 C427 1.854 . S
C594 C399 1.854 . S
C599 C413 1.858 . S
C604 C441 1.857 . S
C609 C356 1.275 . S
C614 C6 1.275 . S
C619 C20 1.274 . S
C624 C342 1.274 . S
C629 C34 1.274 . S
C634 C384 1.274 . S
C639 C48 1.276 . S
C644 C370 1.276 . S
C649 C412 1.274 . S
C654 C62 1.274 . S
C659 C76 1.275 . S
C664 C398 1.275 . S
C669 C90 1.274 . S
C674 C440 1.274 . S
C679 C426 1.274 . S
C684 C104 1.274 . S
C689 C118 1.274 . S
C694 C244 1.274 . S
C699 C132 1.274 . S
C704 C230 1.274 . S
C709 C146 1.276 . S
C714 C272 1.276 . S
C719 C160 1.274 . S
C724 C258 1.274 . S
C729 C174 1.276 . S
C734 C300 1.276 . S
C739 C286 1.275 . S
C744 C188 1.275 . S
C749 C328 1.274 . S
C754 C202 1.274 . S
C759 C216 1.276 . S
C764 C314 1.276 . S
C769 C8 1.490 . S
C774 C64 1.490 . S
C779 C22 1.486 . S
C784 C414 1.486 . S
C789 C36 1.483 . S
C794 C204 1.483 . S
C799 C50 1.489 . S
C804 C330 1.489 . S
C809 C78 1.490 . S
C814 C358 1.490 . S
C819 C148 1.484 . S
C824 C92 1.484 . S
C829 C274 1.491 . S
C834 C106 1.491 . S
C839 C176 1.489 . S
C844 C120 1.489 . S
C849 C134 1.484 . S
C854 C302 1.484 . S
C859 C442 1.492 . S
C864 C162 1.492 . S
C869 C190 1.489 . S
C874 C246 1.489 . S
C879 C218 1.493 . S
C884 C386 1.493 . S
C889 C288 1.489 . S
C894 C232 1.489 . S
C899 C260 1.483 . S
C904 C428 1.483 . S
C909 C372 1.487 . S
C914 C316 1.487 . S
C919 C400 1.487 . S
C924 C344 1.487 . S
C929 C9 1.565 . S
C934 C23 1.565 . S
C939 C37 1.568 . S
C944 C51 1.568 . S
C949 C65 1.565 . S
C954 C79 1.565 . S
C959 C93 1.568 . S
C964 C107 1.568 . S
C969 C135 1.565 . S
C974 C121 1.565 . S
C979 C149 1.565 . S
C984 C163 1.565 . S
C989 C177 1.565 . S
C994 C191 1.565 . S
C999 C205 1.568 . S
C1004 C219 1.568 . S
C1009 C233 1.565 . S
C1014 C247 1.565 . S
C1019 C275 1.568 . S
C1024 C261 1.568 . S
C1029 C289 1.568 . S
C1034 C303 1.568 . S
C1039 C317 1.565 . S
C1044 C331 1.565 . S
C1049 C359 1.565 . S
C1054 C345 1.565 . S
C1059 C373 1.568 . S
C1064 C387 1.568 . S
C1069 C415 1.565 . S
C1074 C401 1.565 . S
C1079 C429 1.566 . S
C1084 C443 1.565 . S
