# Generated by pormake.
# Topology mok, (4)-cn, num edge types: 1
# Building blocks:
#     Node 0, Type 0, BuildingBlock: GALJAG_clean_sbu_0, # of connection points: 4
#     Node 1, Type 0, BuildingBlock: GALJAG_clean_sbu_0, # of connection points: 4
#     Node 2, Type 0, BuildingBlock: GALJAG_clean_sbu_0, # of connection points: 4
#     Node 3, Type 0, BuildingBlock: GALJAG_clean_sbu_0, # of connection points: 4
#     Node 4, Type 0, BuildingBlock: GALJAG_clean_sbu_0, # of connection points: 4
#     Node 5, Type 0, BuildingBlock: GALJAG_clean_sbu_0, # of connection points: 4
#     Node 6, Type 0, BuildingBlock: GALJAG_clean_sbu_0, # of connection points: 4
#     Node 7, Type 0, BuildingBlock: GALJAG_clean_sbu_0, # of connection points: 4
#     Edge 8, Type (0, 0), BuildingBlock: AJUNOK_clean_linker_0, # of connection points: 2
#     Edge 9, Type (0, 0), BuildingBlock: AJUNOK_clean_linker_0, # of connection points: 2
#     Edge 10, Type (0, 0), BuildingBlock: AJUNOK_clean_linker_0, # of connection points: 2
#     Edge 11, Type (0, 0), BuildingBlock: AJUNOK_clean_linker_0, # of connection points: 2
#     Edge 12, Type (0, 0), BuildingBlock: AJUNOK_clean_linker_0, # of connection points: 2
#     Edge 13, Type (0, 0), BuildingBlock: AJUNOK_clean_linker_0, # of connection points: 2
#     Edge 14, Type (0, 0), BuildingBlock: AJUNOK_clean_linker_0, # of connection points: 2
#     Edge 15, Type (0, 0), BuildingBlock: AJUNOK_clean_linker_0, # of connection points: 2
#     Edge 16, Type (0, 0), BuildingBlock: AJUNOK_clean_linker_0, # of connection points: 2
#     Edge 17, Type (0, 0), BuildingBlock: AJUNOK_clean_linker_0, # of connection points: 2
#     Edge 18, Type (0, 0), BuildingBlock: AJUNOK_clean_linker_0, # of connection points: 2
#     Edge 19, Type (0, 0), BuildingBlock: AJUNOK_clean_linker_0, # of connection points: 2
#     Edge 20, Type (0, 0), BuildingBlock: AJUNOK_clean_linker_0, # of connection points: 2
#     Edge 21, Type (0, 0), BuildingBlock: AJUNOK_clean_linker_0, # of connection points: 2
#     Edge 22, Type (0, 0), BuildingBlock: AJUNOK_clean_linker_0, # of connection points: 2
#     Edge 23, Type (0, 0), BuildingBlock: AJUNOK_clean_linker_0, # of connection points: 2
# Relax obj value: 0.070
# Max RMSD: 0.103
# Mean RMSD: 0.103
data_MOF--net-mok--node1-GALJAG_clean_sbu_0--edge1-AJUNOK_clean_linker_0
_symmetry_space_group_name_H-M    P1
_symmetry_Int_Tables_number       1
_symmetry_cell_setting            triclinic
loop_
_symmetry_equiv_pos_as_xyz
'x, y, z'
_cell_length_a     40.4413649
_cell_length_b     10.259845
_cell_length_c     20.952544
_cell_angle_alpha  89.999485
_cell_angle_beta   90.065098
_cell_angle_gamma 90.025251
loop_
_atom_site_label
_atom_site_type_symbol
_atom_site_fract_x
_atom_site_fract_y
_atom_site_fract_z
_atom_type_partial_charge
In0 In 0.60995 0.31556 0.01649 0.0
O1 O 0.60209 0.47818 0.94361 0.0
O2 O 0.60885 0.2838 0.90994 0.0
C3 C 0.60325 0.4141 0.13444 0.0
C4 C 0.55512 0.16936 0.01762 0.0
C5 C 0.67553 0.27242 0.01789 0.0
O6 O 0.60032 0.4845 0.08505 0.0
O7 O 0.60958 0.29571 0.12365 0.0
O8 O 0.65473 0.18011 0.01924 0.0
O9 O 0.66303 0.385 0.01566 0.0
C10 C 0.60382 0.40185 0.89615 0.0
O11 O 0.58375 0.119 0.01855 0.0
O12 O 0.55461 0.29234 0.01625 0.0
In13 In 0.38361 0.69234 0.02167 0.0
O14 O 0.40719 0.89344 0.01859 0.0
O15 O 0.43875 0.72698 0.02161 0.0
C16 C 0.31787 0.73188 0.02016 0.0
C17 C 0.39042 0.59101 0.90413 0.0
C18 C 0.39062 0.60719 0.14228 0.0
O19 O 0.33838 0.82504 0.01899 0.0
O20 O 0.33071 0.61989 0.02228 0.0
O21 O 0.39406 0.53186 0.0948 0.0
O22 O 0.38354 0.72343 0.12832 0.0
C23 C 0.43646 0.84969 0.01962 0.0
O24 O 0.39307 0.52157 0.95387 0.0
O25 O 0.38451 0.70989 0.91436 0.0
In26 In 0.61096 0.68536 0.51616 0.0
O27 O 0.59942 0.51916 0.58517 0.0
O28 O 0.61226 0.70508 0.62331 0.0
C29 C 0.60267 0.6005 0.39607 0.0
C30 C 0.55903 0.84672 0.519 0.0
C31 C 0.67709 0.71062 0.51515 0.0
O32 O 0.59977 0.525 0.44363 0.0
O33 O 0.60975 0.717 0.40969 0.0
O34 O 0.65804 0.80852 0.51719 0.0
O35 O 0.66258 0.60185 0.51352 0.0
C36 C 0.60423 0.58839 0.6344 0.0
O37 O 0.5885 0.88867 0.5185 0.0
O38 O 0.55617 0.72411 0.51827 0.0
In39 In 0.38656 0.31775 0.52158 0.0
O40 O 0.4126 0.12126 0.5199 0.0
O41 O 0.44197 0.29411 0.5216 0.0
C42 C 0.32107 0.27376 0.51869 0.0
C43 C 0.39193 0.40232 0.64253 0.0
C44 C 0.39263 0.41866 0.40388 0.0
O45 O 0.34189 0.18163 0.51712 0.0
O46 O 0.33351 0.38637 0.522 0.0
O47 O 0.39504 0.48872 0.45351 0.0
O48 O 0.38742 0.29928 0.41432 0.0
C49 C 0.44128 0.1711 0.52052 0.0
O50 O 0.39511 0.47851 0.59529 0.0
O51 O 0.38598 0.28521 0.62817 0.0
In52 In 0.10859 0.81771 0.01527 0.0
O53 O 0.08608 0.61442 0.01485 0.0
O54 O 0.05372 0.77864 0.01512 0.0
C55 C 0.17473 0.79074 0.01605 0.0
C56 C 0.10171 0.91218 0.8965 0.0
C57 C 0.10103 0.91143 0.13401 0.0
O58 O 0.15551 0.69322 0.01603 0.0
O59 O 0.16039 0.89983 0.01566 0.0
O60 O 0.09677 0.98191 0.08505 0.0
O61 O 0.10893 0.79482 0.12247 0.0
C62 C 0.05659 0.65609 0.01497 0.0
O63 O 0.09779 0.98289 0.94545 0.0
O64 O 0.10885 0.79477 0.90802 0.0
In65 In 0.8846 0.17756 0.01826 0.0
O66 O 0.89464 0.01181 0.94863 0.0
O67 O 0.88369 0.20018 0.91112 0.0
C68 C 0.89187 0.08395 0.13685 0.0
C69 C 0.93858 0.32878 0.01708 0.0
C70 C 0.8186 0.20843 0.01953 0.0
O71 O 0.89528 0.01263 0.08794 0.0
O72 O 0.88493 0.20161 0.12535 0.0
O73 O 0.83814 0.30505 0.01824 0.0
O74 O 0.83258 0.0986 0.02009 0.0
C75 C 0.89067 0.08257 0.89968 0.0
O76 O 0.90969 0.37685 0.01783 0.0
O77 O 0.93972 0.2059 0.01702 0.0
In78 In 0.11192 0.18499 0.51495 0.0
O79 O 0.10082 0.02304 0.5869 0.0
O80 O 0.11175 0.21382 0.62147 0.0
C81 C 0.1029 0.09712 0.39561 0.0
C82 C 0.0598 0.34484 0.51602 0.0
C83 C 0.17805 0.21142 0.51375 0.0
O84 O 0.10062 0.02228 0.44358 0.0
O85 O 0.10995 0.21401 0.40846 0.0
O86 O 0.15883 0.30888 0.51488 0.0
O87 O 0.1637 0.10222 0.51319 0.0
C88 C 0.1042 0.09765 0.63473 0.0
O89 O 0.0892 0.38769 0.51504 0.0
O90 O 0.05713 0.22213 0.51636 0.0
In91 In 0.88579 0.80956 0.518 0.0
O92 O 0.91218 0.61415 0.51821 0.0
O93 O 0.94118 0.78827 0.51836 0.0
C94 C 0.82024 0.76827 0.51682 0.0
C95 C 0.89165 0.8972 0.63788 0.0
C96 C 0.89241 0.89829 0.3985 0.0
O97 O 0.84081 0.67516 0.51674 0.0
O98 O 0.83297 0.88061 0.51759 0.0
O99 O 0.89458 0.97378 0.44629 0.0
O100 O 0.88671 0.78047 0.41174 0.0
C101 C 0.94075 0.66518 0.51828 0.0
O102 O 0.89407 0.97306 0.5903 0.0
O103 O 0.88613 0.77938 0.62428 0.0
C104 C 0.76754 0.34582 0.01535 0.0
C105 C 0.7821 0.22182 0.01988 0.0
C106 C 0.7331 0.36077 0.01482 0.0
C107 C 0.71181 0.25233 0.01881 0.0
H108 H 0.78283 0.43226 0.01193 0.0
H109 H 0.72314 0.45847 0.01106 0.0
S110 S 0.73739 0.90621 0.03282 0.0
N111 N 0.77248 0.98814 0.02938 0.0
N112 N 0.70782 0.01668 0.02835 0.0
C113 C 0.72601 0.12774 0.02374 0.0
C114 C 0.7611 0.1124 0.02428 0.0
C115 C 0.22607 0.65505 0.01901 0.0
C116 C 0.21125 0.77885 0.01679 0.0
C117 C 0.26053 0.64123 0.02011 0.0
C118 C 0.28156 0.75066 0.01898 0.0
H119 H 0.21097 0.56783 0.02003 0.0
H120 H 0.27071 0.54364 0.02188 0.0
S121 S 0.25526 0.09692 0.0127 0.0
N122 N 0.22035 0.01351 0.0132 0.0
N123 N 0.28505 0.98717 0.01523 0.0
C124 C 0.26711 0.87513 0.01661 0.0
C125 C 0.23199 0.8893 0.01553 0.0
C126 C 0.76299 0.85896 0.51849 0.0
C127 C 0.78393 0.74943 0.51612 0.0
C128 C 0.72853 0.84548 0.51802 0.0
C129 C 0.71361 0.72192 0.51511 0.0
H130 H 0.77323 0.95643 0.52086 0.0
H131 H 0.71352 0.9328 0.52006 0.0
S132 S 0.75733 0.40369 0.50749 0.0
N133 N 0.78724 0.51309 0.51035 0.0
N134 N 0.72249 0.48733 0.5094 0.0
C135 C 0.73425 0.61133 0.51252 0.0
C136 C 0.76939 0.62517 0.51305 0.0
C137 C 0.22918 0.34761 0.5194 0.0
C138 C 0.21455 0.22386 0.51398 0.0
C139 C 0.2636 0.3622 0.5208 0.0
C140 C 0.28481 0.25366 0.5168 0.0
H141 H 0.21397 0.4342 0.52292 0.0
H142 H 0.27361 0.45975 0.52525 0.0
S143 S 0.25902 0.90813 0.50047 0.0
N144 N 0.22397 0.99032 0.50354 0.0
N145 N 0.28867 0.01815 0.50616 0.0
C146 C 0.27055 0.12928 0.51091 0.0
C147 C 0.23544 0.1143 0.5095 0.0
C148 C 0.60226 0.37731 0.25215 0.0
C149 C 0.60053 0.46476 0.20039 0.0
C150 C 0.6018 0.42171 0.31534 0.0
C151 C 0.59991 0.55538 0.32924 0.0
H152 H 0.60448 0.27344 0.24394 0.0
H153 H 0.6039 0.35084 0.35347 0.0
S154 S 0.59206 0.82415 0.21133 0.0
N155 N 0.59468 0.69089 0.16746 0.0
N156 N 0.59411 0.77472 0.28623 0.0
C157 C 0.59707 0.64379 0.27806 0.0
C158 C 0.59729 0.59841 0.21364 0.0
C159 C 0.39464 0.42858 0.22298 0.0
C160 C 0.39341 0.56252 0.2093 0.0
C161 C 0.39502 0.38359 0.28609 0.0
C162 C 0.39447 0.47074 0.33805 0.0
H163 H 0.39457 0.35757 0.1847 0.0
H164 H 0.39533 0.27927 0.2941 0.0
S165 S 0.39354 0.83175 0.32803 0.0
N166 N 0.39325 0.7826 0.253 0.0
N167 N 0.3942 0.69762 0.37154 0.0
C168 C 0.39433 0.6051 0.32511 0.0
C169 C 0.39371 0.65106 0.26077 0.0
C170 C 0.39317 0.6261 0.78644 0.0
C171 C 0.39296 0.53896 0.8384 0.0
C172 C 0.39367 0.58108 0.72336 0.0
C173 C 0.39371 0.44706 0.70966 0.0
H174 H 0.39258 0.73041 0.7944 0.0
H175 H 0.39329 0.65207 0.68509 0.0
S176 S 0.39513 0.17804 0.8285 0.0
N177 N 0.39427 0.31219 0.87196 0.0
N178 N 0.39504 0.22706 0.75343 0.0
C179 C 0.39432 0.35859 0.76116 0.0
C180 C 0.39401 0.40464 0.82551 0.0
C181 C 0.60507 0.58035 0.81528 0.0
C182 C 0.60151 0.44723 0.82927 0.0
C183 C 0.60535 0.62479 0.7521 0.0
C184 C 0.60178 0.53801 0.70043 0.0
H185 H 0.60849 0.65064 0.8533 0.0
H186 H 0.60881 0.72812 0.74381 0.0
S187 S 0.58896 0.18063 0.71163 0.0
N188 N 0.59248 0.22936 0.78645 0.0
N189 N 0.59279 0.31336 0.66771 0.0
C190 C 0.59707 0.40508 0.71379 0.0
C191 C 0.59701 0.35958 0.7782 0.0
C192 C 0.10182 0.87371 0.25172 0.0
C193 C 0.09851 0.96099 0.20017 0.0
C194 C 0.10204 0.91798 0.31497 0.0
C195 C 0.09929 0.05134 0.32904 0.0
H196 H 0.10487 0.77025 0.24324 0.0
H197 H 0.10541 0.84749 0.35292 0.0
S198 S 0.08699 0.31896 0.21189 0.0
N199 N 0.09007 0.18619 0.1678 0.0
N200 N 0.09076 0.26976 0.28659 0.0
C201 C 0.09475 0.13932 0.27814 0.0
C202 C 0.09427 0.09406 0.21373 0.0
C203 C 0.89228 0.07739 0.31778 0.0
C204 C 0.89493 0.94393 0.33176 0.0
C205 C 0.89195 0.12167 0.25455 0.0
C206 C 0.89453 0.03426 0.20293 0.0
H207 H 0.88956 0.14804 0.35584 0.0
H208 H 0.88916 0.22528 0.24616 0.0
S209 S 0.9049 0.67564 0.21418 0.0
N210 N 0.90219 0.72505 0.28897 0.0
N211 N 0.90178 0.80861 0.17024 0.0
C212 C 0.89842 0.90095 0.21631 0.0
C213 C 0.89855 0.85571 0.2807 0.0
C214 C 0.89107 0.07592 0.71876 0.0
C215 C 0.89377 0.9425 0.70475 0.0
C216 C 0.8906 0.12011 0.78199 0.0
C217 C 0.89309 0.03267 0.83361 0.0
H218 H 0.8885 0.14668 0.68069 0.0
H219 H 0.88785 0.22374 0.79036 0.0
S220 S 0.90323 0.67396 0.8224 0.0
N221 N 0.90075 0.72348 0.74757 0.0
N222 N 0.90009 0.8069 0.86634 0.0
C223 C 0.8969 0.89932 0.82025 0.0
C224 C 0.89716 0.85415 0.75584 0.0
C225 C 0.10127 0.87451 0.77876 0.0
C226 C 0.09963 0.96229 0.83037 0.0
C227 C 0.1017 0.91879 0.7155 0.0
C228 C 0.10087 0.05262 0.70149 0.0
H229 H 0.10273 0.77048 0.78718 0.0
H230 H 0.10361 0.84768 0.67745 0.0
S231 S 0.09398 0.3225 0.81906 0.0
N232 N 0.0952 0.18907 0.86301 0.0
N233 N 0.0963 0.27266 0.74427 0.0
C234 C 0.09819 0.14143 0.75255 0.0
C235 C 0.09748 0.09619 0.81695 0.0
C236 C 0.49773 0.87748 0.02197 0.0
C237 C 0.46608 0.93428 0.01885 0.0
C238 C 0.52635 0.95419 0.02155 0.0
C239 C 0.52446 0.09073 0.01799 0.0
H240 H 0.50052 0.77263 0.02487 0.0
H241 H 0.55013 0.90584 0.02415 0.0
S242 S 0.44752 0.28795 0.00883 0.0
N243 N 0.4345 0.13558 0.01197 0.0
N244 N 0.48826 0.28007 0.0112 0.0
C245 C 0.49295 0.14905 0.01481 0.0
C246 C 0.46377 0.07078 0.01523 0.0
C247 C 0.4979 0.87718 0.52022 0.0
C248 C 0.52972 0.93286 0.5198 0.0
C249 C 0.4695 0.95498 0.52041 0.0
C250 C 0.47178 0.09161 0.52022 0.0
H251 H 0.49477 0.77231 0.52031 0.0
H252 H 0.44559 0.90734 0.52069 0.0
S253 S 0.5493 0.28625 0.51869 0.0
N254 N 0.5619 0.13324 0.519 0.0
N255 N 0.50852 0.2799 0.51934 0.0
C256 C 0.50347 0.1489 0.51981 0.0
C257 C 0.53243 0.06944 0.51962 0.0
C258 C 0.99475 0.62456 0.01629 0.0
C259 C 0.02733 0.56958 0.01523 0.0
C260 C 0.96643 0.54607 0.01685 0.0
C261 C 0.9689 0.4095 0.01635 0.0
H262 H 0.99151 0.72937 0.01679 0.0
H263 H 0.94244 0.59305 0.01773 0.0
S264 S 0.04738 0.21674 0.01321 0.0
N265 N 0.05976 0.37003 0.01345 0.0
N266 N 0.00661 0.22214 0.01449 0.0
C267 C 0.00136 0.35302 0.01517 0.0
C268 C 0.03021 0.43312 0.01461 0.0
C269 C 0.99796 0.37335 0.51728 0.0
C270 C 0.03035 0.43008 0.51672 0.0
C271 C 0.96942 0.45018 0.51788 0.0
C272 C 0.97142 0.58685 0.51797 0.0
H273 H 0.99505 0.26837 0.5172 0.0
H274 H 0.94561 0.40174 0.51822 0.0
S275 S 0.04922 0.78411 0.51689 0.0
N276 N 0.06212 0.63149 0.51645 0.0
N277 N 0.00845 0.77641 0.5176 0.0
C278 C 0.00366 0.64523 0.51752 0.0
C279 C 0.03279 0.56674 0.51688 0.0
loop_
_geom_bond_atom_site_label_1
_geom_bond_atom_site_label_2
_geom_bond_distance
_geom_bond_site_symmetry_2
_ccdc_geom_bond_type
In0 O1 2.294 1_554 S
In0 O2 2.326 1_554 S
In0 O6 2.266 . S
In0 O7 2.326 . S
In0 O8 2.266 . S
In0 O9 2.326 . S
In0 O11 2.294 . S
In0 O12 2.326 . S
O1 In0 2.294 1_556 S
O1 C10 1.240 . S
O2 In0 2.326 1_556 S
O2 C10 1.252 . S
C3 O6 1.252 . S
C3 O7 1.260 . S
C4 O11 1.240 . S
C4 O12 1.252 . S
C5 O8 1.252 . S
C5 O9 1.260 . S
O6 In0 2.266 . S
O6 C3 1.252 . S
O7 In0 2.326 . S
O7 C3 1.260 . S
O8 In0 2.266 . S
O8 C5 1.252 . S
O9 In0 2.326 . S
O9 C5 1.260 . S
C10 O1 1.240 . S
C10 O2 1.252 . S
O11 In0 2.294 . S
O11 C4 1.240 . S
O12 In0 2.326 . S
O12 C4 1.252 . S
In13 O14 2.294 . S
In13 O15 2.326 . S
In13 O19 2.266 . S
In13 O20 2.326 . S
In13 O21 2.266 . S
In13 O22 2.326 . S
In13 O24 2.294 1_554 S
In13 O25 2.326 1_554 S
O14 In13 2.294 . S
O14 C23 1.240 . S
O15 In13 2.326 . S
O15 C23 1.252 . S
C16 O19 1.252 . S
C16 O20 1.260 . S
C17 O24 1.240 . S
C17 O25 1.252 . S
C18 O21 1.252 . S
C18 O22 1.260 . S
O19 In13 2.266 . S
O19 C16 1.252 . S
O20 In13 2.326 . S
O20 C16 1.260 . S
O21 In13 2.266 . S
O21 C18 1.252 . S
O22 In13 2.326 . S
O22 C18 1.260 . S
C23 O14 1.240 . S
C23 O15 1.252 . S
O24 In13 2.294 1_556 S
O24 C17 1.240 . S
O25 In13 2.326 1_556 S
O25 C17 1.252 . S
In26 O27 2.294 . S
In26 O28 2.326 . S
In26 O32 2.266 . S
In26 O33 2.326 . S
In26 O34 2.266 . S
In26 O35 2.326 . S
In26 O37 2.294 . S
In26 O38 2.326 . S
O27 In26 2.294 . S
O27 C36 1.240 . S
O28 In26 2.326 . S
O28 C36 1.252 . S
C29 O32 1.252 . S
C29 O33 1.260 . S
C30 O37 1.240 . S
C30 O38 1.252 . S
C31 O34 1.252 . S
C31 O35 1.260 . S
O32 In26 2.266 . S
O32 C29 1.252 . S
O33 In26 2.326 . S
O33 C29 1.260 . S
O34 In26 2.266 . S
O34 C31 1.252 . S
O35 In26 2.326 . S
O35 C31 1.260 . S
C36 O27 1.240 . S
C36 O28 1.252 . S
O37 In26 2.294 . S
O37 C30 1.240 . S
O38 In26 2.326 . S
O38 C30 1.252 . S
In39 O40 2.294 . S
In39 O41 2.326 . S
In39 O45 2.266 . S
In39 O46 2.326 . S
In39 O47 2.266 . S
In39 O48 2.326 . S
In39 O50 2.294 . S
In39 O51 2.326 . S
O40 In39 2.294 . S
O40 C49 1.240 . S
O41 In39 2.326 . S
O41 C49 1.252 . S
C42 O45 1.252 . S
C42 O46 1.260 . S
C43 O50 1.240 . S
C43 O51 1.252 . S
C44 O47 1.252 . S
C44 O48 1.260 . S
O45 In39 2.266 . S
O45 C42 1.252 . S
O46 In39 2.326 . S
O46 C42 1.260 . S
O47 In39 2.266 . S
O47 C44 1.252 . S
O48 In39 2.326 . S
O48 C44 1.260 . S
C49 O40 1.240 . S
C49 O41 1.252 . S
O50 In39 2.294 . S
O50 C43 1.240 . S
O51 In39 2.326 . S
O51 C43 1.252 . S
In52 O53 2.294 . S
In52 O54 2.326 . S
In52 O58 2.266 . S
In52 O59 2.326 . S
In52 O60 2.266 . S
In52 O61 2.326 . S
In52 O63 2.294 1_554 S
In52 O64 2.326 1_554 S
O53 In52 2.294 . S
O53 C62 1.240 . S
O54 In52 2.326 . S
O54 C62 1.252 . S
C55 O58 1.252 . S
C55 O59 1.260 . S
C56 O63 1.240 . S
C56 O64 1.252 . S
C57 O60 1.252 . S
C57 O61 1.260 . S
O58 In52 2.266 . S
O58 C55 1.252 . S
O59 In52 2.326 . S
O59 C55 1.260 . S
O60 In52 2.266 . S
O60 C57 1.252 . S
O61 In52 2.326 . S
O61 C57 1.260 . S
C62 O53 1.240 . S
C62 O54 1.252 . S
O63 In52 2.294 1_556 S
O63 C56 1.240 . S
O64 In52 2.326 1_556 S
O64 C56 1.252 . S
In65 O66 2.294 1_554 S
In65 O67 2.326 1_554 S
In65 O71 2.266 . S
In65 O72 2.326 . S
In65 O73 2.266 . S
In65 O74 2.326 . S
In65 O76 2.294 . S
In65 O77 2.326 . S
O66 In65 2.294 1_556 S
O66 C75 1.240 . S
O67 In65 2.326 1_556 S
O67 C75 1.252 . S
C68 O71 1.252 . S
C68 O72 1.260 . S
C69 O76 1.240 . S
C69 O77 1.252 . S
C70 O73 1.252 . S
C70 O74 1.260 . S
O71 In65 2.266 . S
O71 C68 1.252 . S
O72 In65 2.326 . S
O72 C68 1.260 . S
O73 In65 2.266 . S
O73 C70 1.252 . S
O74 In65 2.326 . S
O74 C70 1.260 . S
C75 O66 1.240 . S
C75 O67 1.252 . S
O76 In65 2.294 . S
O76 C69 1.240 . S
O77 In65 2.326 . S
O77 C69 1.252 . S
In78 O79 2.294 . S
In78 O80 2.326 . S
In78 O84 2.266 . S
In78 O85 2.326 . S
In78 O86 2.266 . S
In78 O87 2.326 . S
In78 O89 2.294 . S
In78 O90 2.326 . S
O79 In78 2.294 . S
O79 C88 1.240 . S
O80 In78 2.326 . S
O80 C88 1.252 . S
C81 O84 1.252 . S
C81 O85 1.260 . S
C82 O89 1.240 . S
C82 O90 1.252 . S
C83 O86 1.252 . S
C83 O87 1.260 . S
O84 In78 2.266 . S
O84 C81 1.252 . S
O85 In78 2.326 . S
O85 C81 1.260 . S
O86 In78 2.266 . S
O86 C83 1.252 . S
O87 In78 2.326 . S
O87 C83 1.260 . S
C88 O79 1.240 . S
C88 O80 1.252 . S
O89 In78 2.294 . S
O89 C82 1.240 . S
O90 In78 2.326 . S
O90 C82 1.252 . S
In91 O92 2.294 . S
In91 O93 2.326 . S
In91 O97 2.266 . S
In91 O98 2.326 . S
In91 O99 2.266 . S
In91 O100 2.326 . S
In91 O102 2.294 . S
In91 O103 2.326 . S
O92 In91 2.294 . S
O92 C101 1.240 . S
O93 In91 2.326 . S
O93 C101 1.252 . S
C94 O97 1.252 . S
C94 O98 1.260 . S
C95 O102 1.240 . S
C95 O103 1.252 . S
C96 O99 1.252 . S
C96 O100 1.260 . S
O97 In91 2.266 . S
O97 C94 1.252 . S
O98 In91 2.326 . S
O98 C94 1.260 . S
O99 In91 2.266 . S
O99 C96 1.252 . S
O100 In91 2.326 . S
O100 C96 1.260 . S
C101 O92 1.240 . S
C101 O93 1.252 . S
O102 In91 2.294 . S
O102 C95 1.240 . S
O103 In91 2.326 . S
O103 C95 1.252 . S
C104 C105 1.369 1_556 S
C104 C106 1.419 . S
C104 H108 0.930 . S
C105 C104 1.369 1_554 S
C105 C114 1.429 . S
C106 C104 1.419 . S
C106 C107 1.363 1_556 S
C106 H109 0.929 . S
C107 C106 1.363 1_554 S
C107 C113 1.428 . S
H108 C104 0.930 . S
H109 C106 0.929 . S
S110 N111 1.613 . S
S110 N112 1.610 . S
N111 S110 1.613 . S
N111 C114 1.350 . S
N112 S110 1.610 . S
N112 C113 1.351 . S
C113 C107 1.428 . S
C113 N112 1.351 . S
C113 C114 1.434 . S
C114 C105 1.429 . S
C114 N111 1.350 . S
C114 C113 1.434 . S
C115 C116 1.369 . S
C115 C117 1.419 . S
C115 H119 0.930 . S
C116 C115 1.369 . S
C116 C125 1.429 . S
C117 C115 1.419 . S
C117 C118 1.363 . S
C117 H120 0.929 . S
C118 C117 1.363 . S
C118 C124 1.428 . S
H119 C115 0.930 . S
H120 C117 0.929 . S
S121 N122 1.613 1_545 S
S121 N123 1.610 1_545 S
N122 S121 1.613 1_565 S
N122 C125 1.350 . S
N123 S121 1.610 1_565 S
N123 C124 1.351 . S
C124 C118 1.428 . S
C124 N123 1.351 . S
C124 C125 1.434 . S
C125 C116 1.429 . S
C125 N122 1.350 . S
C125 C124 1.434 . S
C126 C127 1.369 . S
C126 C128 1.419 . S
C126 H130 0.930 . S
C127 C126 1.369 . S
C127 C136 1.429 . S
C128 C126 1.419 . S
C128 C129 1.363 . S
C128 H131 0.929 . S
C129 C128 1.363 . S
C129 C135 1.428 . S
H130 C126 0.930 . S
H131 C128 0.929 . S
S132 N133 1.613 . S
S132 N134 1.610 . S
N133 S132 1.613 . S
N133 C136 1.350 . S
N134 S132 1.610 . S
N134 C135 1.351 . S
C135 C129 1.428 . S
C135 N134 1.351 . S
C135 C136 1.434 . S
C136 C127 1.429 . S
C136 N133 1.350 . S
C136 C135 1.434 . S
C137 C138 1.369 . S
C137 C139 1.419 . S
C137 H141 0.930 . S
C138 C137 1.369 . S
C138 C147 1.429 . S
C139 C137 1.419 . S
C139 C140 1.363 . S
C139 H142 0.929 . S
C140 C139 1.363 . S
C140 C146 1.428 . S
H141 C137 0.930 . S
H142 C139 0.929 . S
S143 N144 1.613 . S
S143 N145 1.610 . S
N144 S143 1.613 . S
N144 C147 1.350 . S
N145 S143 1.610 . S
N145 C146 1.351 . S
C146 C140 1.428 . S
C146 N145 1.351 . S
C146 C147 1.434 . S
C147 C138 1.429 . S
C147 N144 1.350 . S
C147 C146 1.434 . S
C148 C149 1.369 . S
C148 C150 1.419 . S
C148 H152 0.930 . S
C149 C148 1.369 . S
C149 C158 1.429 . S
C150 C148 1.419 . S
C150 C151 1.363 . S
C150 H153 0.929 . S
C151 C150 1.363 . S
C151 C157 1.428 . S
H152 C148 0.930 . S
H153 C150 0.929 . S
S154 N155 1.613 . S
S154 N156 1.610 . S
N155 S154 1.613 . S
N155 C158 1.350 . S
N156 S154 1.610 . S
N156 C157 1.351 . S
C157 C151 1.428 . S
C157 N156 1.351 . S
C157 C158 1.434 . S
C158 C149 1.429 . S
C158 N155 1.350 . S
C158 C157 1.434 . S
C159 C160 1.369 . S
C159 C161 1.419 . S
C159 H163 0.930 . S
C160 C159 1.369 . S
C160 C169 1.429 . S
C161 C159 1.419 . S
C161 C162 1.363 . S
C161 H164 0.929 . S
C162 C161 1.363 . S
C162 C168 1.428 . S
H163 C159 0.930 . S
H164 C161 0.929 . S
S165 N166 1.613 . S
S165 N167 1.610 . S
N166 S165 1.613 . S
N166 C169 1.350 . S
N167 S165 1.610 . S
N167 C168 1.351 . S
C168 C162 1.428 . S
C168 N167 1.351 . S
C168 C169 1.434 . S
C169 C160 1.429 . S
C169 N166 1.350 . S
C169 C168 1.434 . S
C170 C171 1.369 . S
C170 C172 1.419 . S
C170 H174 0.930 . S
C171 C170 1.369 . S
C171 C180 1.429 . S
C172 C170 1.419 . S
C172 C173 1.363 . S
C172 H175 0.929 . S
C173 C172 1.363 . S
C173 C179 1.428 . S
H174 C170 0.930 . S
H175 C172 0.929 . S
S176 N177 1.613 . S
S176 N178 1.610 . S
N177 S176 1.613 . S
N177 C180 1.350 . S
N178 S176 1.610 . S
N178 C179 1.351 . S
C179 C173 1.428 . S
C179 N178 1.351 . S
C179 C180 1.434 . S
C180 C171 1.429 . S
C180 N177 1.350 . S
C180 C179 1.434 . S
C181 C182 1.369 . S
C181 C183 1.419 . S
C181 H185 0.930 . S
C182 C181 1.369 . S
C182 C191 1.429 . S
C183 C181 1.419 . S
C183 C184 1.363 . S
C183 H186 0.929 . S
C184 C183 1.363 . S
C184 C190 1.428 . S
H185 C181 0.930 . S
H186 C183 0.929 . S
S187 N188 1.613 . S
S187 N189 1.610 . S
N188 S187 1.613 . S
N188 C191 1.350 . S
N189 S187 1.610 . S
N189 C190 1.351 . S
C190 C184 1.428 . S
C190 N189 1.351 . S
C190 C191 1.434 . S
C191 C182 1.429 . S
C191 N188 1.350 . S
C191 C190 1.434 . S
C192 C193 1.369 . S
C192 C194 1.419 . S
C192 H196 0.930 . S
C193 C192 1.369 . S
C193 C202 1.429 1_565 S
C194 C192 1.419 . S
C194 C195 1.363 1_565 S
C194 H197 0.929 . S
C195 C194 1.363 1_545 S
C195 C201 1.428 . S
H196 C192 0.930 . S
H197 C194 0.929 . S
S198 N199 1.613 . S
S198 N200 1.610 . S
N199 S198 1.613 . S
N199 C202 1.350 . S
N200 S198 1.610 . S
N200 C201 1.351 . S
C201 C195 1.428 . S
C201 N200 1.351 . S
C201 C202 1.434 . S
C202 C193 1.429 1_545 S
C202 N199 1.350 . S
C202 C201 1.434 . S
C203 C204 1.369 1_545 S
C203 C205 1.419 . S
C203 H207 0.930 . S
C204 C203 1.369 1_565 S
C204 C213 1.429 . S
C205 C203 1.419 . S
C205 C206 1.363 . S
C205 H208 0.929 . S
C206 C205 1.363 . S
C206 C212 1.428 1_545 S
H207 C203 0.930 . S
H208 C205 0.929 . S
S209 N210 1.613 . S
S209 N211 1.610 . S
N210 S209 1.613 . S
N210 C213 1.350 . S
N211 S209 1.610 . S
N211 C212 1.351 . S
C212 C206 1.428 1_565 S
C212 N211 1.351 . S
C212 C213 1.434 . S
C213 C204 1.429 . S
C213 N210 1.350 . S
C213 C212 1.434 . S
C214 C215 1.369 1_545 S
C214 C216 1.419 . S
C214 H218 0.930 . S
C215 C214 1.369 1_565 S
C215 C224 1.429 . S
C216 C214 1.419 . S
C216 C217 1.363 . S
C216 H219 0.929 . S
C217 C216 1.363 . S
C217 C223 1.428 1_545 S
H218 C214 0.930 . S
H219 C216 0.929 . S
S220 N221 1.613 . S
S220 N222 1.610 . S
N221 S220 1.613 . S
N221 C224 1.350 . S
N222 S220 1.610 . S
N222 C223 1.351 . S
C223 C217 1.428 1_565 S
C223 N222 1.351 . S
C223 C224 1.434 . S
C224 C215 1.429 . S
C224 N221 1.350 . S
C224 C223 1.434 . S
C225 C226 1.369 . S
C225 C227 1.419 . S
C225 H229 0.930 . S
C226 C225 1.369 . S
C226 C235 1.429 1_565 S
C227 C225 1.419 . S
C227 C228 1.363 1_565 S
C227 H230 0.929 . S
C228 C227 1.363 1_545 S
C228 C234 1.428 . S
H229 C225 0.930 . S
H230 C227 0.929 . S
S231 N232 1.613 . S
S231 N233 1.610 . S
N232 S231 1.613 . S
N232 C235 1.350 . S
N233 S231 1.610 . S
N233 C234 1.351 . S
C234 C228 1.428 . S
C234 N233 1.351 . S
C234 C235 1.434 . S
C235 C226 1.429 1_545 S
C235 N232 1.350 . S
C235 C234 1.434 . S
C236 C237 1.369 . S
C236 C238 1.419 1_565 S
C236 H240 0.930 . S
C237 C236 1.369 . S
C237 C246 1.429 1_554 S
C238 C236 1.419 1_545 S
C238 C239 1.363 . S
C238 H241 0.929 1_545 S
C239 C238 1.363 . S
C239 C245 1.428 1_554 S
H240 C236 0.930 . S
H241 C238 0.929 1_565 S
S242 N243 1.613 . S
S242 N244 1.610 . S
N243 S242 1.613 . S
N243 C246 1.350 1_545 S
N244 S242 1.610 . S
N244 C245 1.351 . S
C245 C239 1.428 1_556 S
C245 N244 1.351 . S
C245 C246 1.434 1_545 S
C246 C237 1.429 1_556 S
C246 N243 1.350 1_565 S
C246 C245 1.434 1_565 S
C247 C248 1.369 . S
C247 C249 1.419 . S
C247 H251 0.930 . S
C248 C247 1.369 . S
C248 C257 1.429 1_565 S
C249 C247 1.419 . S
C249 C250 1.363 1_565 S
C249 H252 0.929 . S
C250 C249 1.363 1_545 S
C250 C256 1.428 . S
H251 C247 0.930 . S
H252 C249 0.929 . S
S253 N254 1.613 . S
S253 N255 1.610 . S
N254 S253 1.613 . S
N254 C257 1.350 . S
N255 S253 1.610 . S
N255 C256 1.351 . S
C256 C250 1.428 . S
C256 N255 1.351 . S
C256 C257 1.434 . S
C257 C248 1.429 1_545 S
C257 N254 1.350 . S
C257 C256 1.434 . S
C258 C259 1.369 . S
C258 C260 1.419 1_455 S
C258 H262 0.930 . S
C259 C258 1.369 . S
C259 C268 1.429 1_554 S
C260 C258 1.419 1_655 S
C260 C261 1.363 . S
C260 H263 0.929 . S
C261 C260 1.363 . S
C261 C267 1.428 1_554 S
H262 C258 0.930 . S
H263 C260 0.929 . S
S264 N265 1.613 . S
S264 N266 1.610 1_455 S
N265 S264 1.613 . S
N265 C268 1.350 . S
N266 S264 1.610 1_655 S
N266 C267 1.351 . S
C267 C261 1.428 1_556 S
C267 N266 1.351 . S
C267 C268 1.434 1_655 S
C268 C259 1.429 1_556 S
C268 N265 1.350 . S
C268 C267 1.434 1_455 S
C269 C270 1.369 1_655 S
C269 C271 1.419 . S
C269 H273 0.930 . S
C270 C269 1.369 1_455 S
C270 C279 1.429 . S
C271 C269 1.419 . S
C271 C272 1.363 . S
C271 H274 0.929 . S
C272 C271 1.363 . S
C272 C278 1.428 1_655 S
H273 C269 0.930 . S
H274 C271 0.929 . S
S275 N276 1.613 . S
S275 N277 1.610 . S
N276 S275 1.613 . S
N276 C279 1.350 . S
N277 S275 1.610 . S
N277 C278 1.351 . S
C278 C272 1.428 1_455 S
C278 N277 1.351 . S
C278 C279 1.434 . S
C279 C270 1.429 . S
C279 N276 1.350 . S
C279 C278 1.434 . S
C105 C70 1.515 . S
C107 C5 1.517 . S
C116 C55 1.515 . S
C118 C16 1.516 . S
C127 C94 1.517 . S
C129 C31 1.516 . S
C138 C83 1.515 . S
C140 C42 1.516 . S
C149 C3 1.445 . S
C151 C29 1.442 . S
C160 C18 1.442 . S
C162 C44 1.444 . S
C171 C17 1.484 . S
C173 C43 1.482 . S
C182 C10 1.483 . S
C184 C36 1.484 . S
C193 C57 1.445 . S
C195 C81 1.442 . S
C204 C96 1.441 . S
C206 C68 1.445 . S
C215 C95 1.481 . S
C217 C75 1.483 . S
C226 C56 1.483 . S
C228 C88 1.482 . S
C237 C23 1.515 . S
C239 C4 1.515 . S
C248 C30 1.515 . S
C250 C49 1.516 . S
C259 C62 1.515 . S
C261 C69 1.515 . S
C270 C82 1.515 . S
C272 C101 1.516 . S
