# Generated by pormake.
# Topology dia-a, (4)-cn, num edge types: 1
# Building blocks:
#     Node 0, Type 0, BuildingBlock: NAHDIM_clean_sbu_0, # of connection points: 4
#     Node 1, Type 0, BuildingBlock: NAHDIM_clean_sbu_0, # of connection points: 4
#     Node 2, Type 0, BuildingBlock: NAHDIM_clean_sbu_0, # of connection points: 4
#     Node 3, Type 0, BuildingBlock: NAHDIM_clean_sbu_0, # of connection points: 4
#     Node 4, Type 0, BuildingBlock: NAHDIM_clean_sbu_0, # of connection points: 4
#     Node 5, Type 0, BuildingBlock: NAHDIM_clean_sbu_0, # of connection points: 4
#     Node 6, Type 0, BuildingBlock: NAHDIM_clean_sbu_0, # of connection points: 4
#     Node 7, Type 0, BuildingBlock: NAHDIM_clean_sbu_0, # of connection points: 4
#     Node 8, Type 0, BuildingBlock: NAHDIM_clean_sbu_0, # of connection points: 4
#     Node 9, Type 0, BuildingBlock: NAHDIM_clean_sbu_0, # of connection points: 4
#     Node 10, Type 0, BuildingBlock: NAHDIM_clean_sbu_0, # of connection points: 4
#     Node 11, Type 0, BuildingBlock: NAHDIM_clean_sbu_0, # of connection points: 4
#     Node 12, Type 0, BuildingBlock: NAHDIM_clean_sbu_0, # of connection points: 4
#     Node 13, Type 0, BuildingBlock: NAHDIM_clean_sbu_0, # of connection points: 4
#     Node 14, Type 0, BuildingBlock: NAHDIM_clean_sbu_0, # of connection points: 4
#     Node 15, Type 0, BuildingBlock: NAHDIM_clean_sbu_0, # of connection points: 4
#     Node 16, Type 0, BuildingBlock: NAHDIM_clean_sbu_0, # of connection points: 4
#     Node 17, Type 0, BuildingBlock: NAHDIM_clean_sbu_0, # of connection points: 4
#     Node 18, Type 0, BuildingBlock: NAHDIM_clean_sbu_0, # of connection points: 4
#     Node 19, Type 0, BuildingBlock: NAHDIM_clean_sbu_0, # of connection points: 4
#     Node 20, Type 0, BuildingBlock: NAHDIM_clean_sbu_0, # of connection points: 4
#     Node 21, Type 0, BuildingBlock: NAHDIM_clean_sbu_0, # of connection points: 4
#     Node 22, Type 0, BuildingBlock: NAHDIM_clean_sbu_0, # of connection points: 4
#     Node 23, Type 0, BuildingBlock: NAHDIM_clean_sbu_0, # of connection points: 4
#     Node 24, Type 0, BuildingBlock: NAHDIM_clean_sbu_0, # of connection points: 4
#     Node 25, Type 0, BuildingBlock: NAHDIM_clean_sbu_0, # of connection points: 4
#     Node 26, Type 0, BuildingBlock: NAHDIM_clean_sbu_0, # of connection points: 4
#     Node 27, Type 0, BuildingBlock: NAHDIM_clean_sbu_0, # of connection points: 4
#     Node 28, Type 0, BuildingBlock: NAHDIM_clean_sbu_0, # of connection points: 4
#     Node 29, Type 0, BuildingBlock: NAHDIM_clean_sbu_0, # of connection points: 4
#     Node 30, Type 0, BuildingBlock: NAHDIM_clean_sbu_0, # of connection points: 4
#     Node 31, Type 0, BuildingBlock: NAHDIM_clean_sbu_0, # of connection points: 4
#     Edge 32, Type (0, 0), BuildingBlock: UVAHIK_clean_linker_0, # of connection points: 2
#     Edge 33, Type (0, 0), BuildingBlock: UVAHIK_clean_linker_0, # of connection points: 2
#     Edge 34, Type (0, 0), BuildingBlock: UVAHIK_clean_linker_0, # of connection points: 2
#     Edge 35, Type (0, 0), BuildingBlock: UVAHIK_clean_linker_0, # of connection points: 2
#     Edge 36, Type (0, 0), BuildingBlock: UVAHIK_clean_linker_0, # of connection points: 2
#     Edge 37, Type (0, 0), BuildingBlock: UVAHIK_clean_linker_0, # of connection points: 2
#     Edge 38, Type (0, 0), BuildingBlock: UVAHIK_clean_linker_0, # of connection points: 2
#     Edge 39, Type (0, 0), BuildingBlock: UVAHIK_clean_linker_0, # of connection points: 2
#     Edge 40, Type (0, 0), BuildingBlock: UVAHIK_clean_linker_0, # of connection points: 2
#     Edge 41, Type (0, 0), BuildingBlock: UVAHIK_clean_linker_0, # of connection points: 2
#     Edge 42, Type (0, 0), BuildingBlock: UVAHIK_clean_linker_0, # of connection points: 2
#     Edge 43, Type (0, 0), BuildingBlock: UVAHIK_clean_linker_0, # of connection points: 2
#     Edge 44, Type (0, 0), BuildingBlock: UVAHIK_clean_linker_0, # of connection points: 2
#     Edge 45, Type (0, 0), BuildingBlock: UVAHIK_clean_linker_0, # of connection points: 2
#     Edge 46, Type (0, 0), BuildingBlock: UVAHIK_clean_linker_0, # of connection points: 2
#     Edge 47, Type (0, 0), BuildingBlock: UVAHIK_clean_linker_0, # of connection points: 2
#     Edge 48, Type (0, 0), BuildingBlock: UVAHIK_clean_linker_0, # of connection points: 2
#     Edge 49, Type (0, 0), BuildingBlock: UVAHIK_clean_linker_0, # of connection points: 2
#     Edge 50, Type (0, 0), BuildingBlock: UVAHIK_clean_linker_0, # of connection points: 2
#     Edge 51, Type (0, 0), BuildingBlock: UVAHIK_clean_linker_0, # of connection points: 2
#     Edge 52, Type (0, 0), BuildingBlock: UVAHIK_clean_linker_0, # of connection points: 2
#     Edge 53, Type (0, 0), BuildingBlock: UVAHIK_clean_linker_0, # of connection points: 2
#     Edge 54, Type (0, 0), BuildingBlock: UVAHIK_clean_linker_0, # of connection points: 2
#     Edge 55, Type (0, 0), BuildingBlock: UVAHIK_clean_linker_0, # of connection points: 2
#     Edge 56, Type (0, 0), BuildingBlock: UVAHIK_clean_linker_0, # of connection points: 2
#     Edge 57, Type (0, 0), BuildingBlock: UVAHIK_clean_linker_0, # of connection points: 2
#     Edge 58, Type (0, 0), BuildingBlock: UVAHIK_clean_linker_0, # of connection points: 2
#     Edge 59, Type (0, 0), BuildingBlock: UVAHIK_clean_linker_0, # of connection points: 2
#     Edge 60, Type (0, 0), BuildingBlock: UVAHIK_clean_linker_0, # of connection points: 2
#     Edge 61, Type (0, 0), BuildingBlock: UVAHIK_clean_linker_0, # of connection points: 2
#     Edge 62, Type (0, 0), BuildingBlock: UVAHIK_clean_linker_0, # of connection points: 2
#     Edge 63, Type (0, 0), BuildingBlock: UVAHIK_clean_linker_0, # of connection points: 2
#     Edge 64, Type (0, 0), BuildingBlock: UVAHIK_clean_linker_0, # of connection points: 2
#     Edge 65, Type (0, 0), BuildingBlock: UVAHIK_clean_linker_0, # of connection points: 2
#     Edge 66, Type (0, 0), BuildingBlock: UVAHIK_clean_linker_0, # of connection points: 2
#     Edge 67, Type (0, 0), BuildingBlock: UVAHIK_clean_linker_0, # of connection points: 2
#     Edge 68, Type (0, 0), BuildingBlock: UVAHIK_clean_linker_0, # of connection points: 2
#     Edge 69, Type (0, 0), BuildingBlock: UVAHIK_clean_linker_0, # of connection points: 2
#     Edge 70, Type (0, 0), BuildingBlock: UVAHIK_clean_linker_0, # of connection points: 2
#     Edge 71, Type (0, 0), BuildingBlock: UVAHIK_clean_linker_0, # of connection points: 2
#     Edge 72, Type (0, 0), BuildingBlock: UVAHIK_clean_linker_0, # of connection points: 2
#     Edge 73, Type (0, 0), BuildingBlock: UVAHIK_clean_linker_0, # of connection points: 2
#     Edge 74, Type (0, 0), BuildingBlock: UVAHIK_clean_linker_0, # of connection points: 2
#     Edge 75, Type (0, 0), BuildingBlock: UVAHIK_clean_linker_0, # of connection points: 2
#     Edge 76, Type (0, 0), BuildingBlock: UVAHIK_clean_linker_0, # of connection points: 2
#     Edge 77, Type (0, 0), BuildingBlock: UVAHIK_clean_linker_0, # of connection points: 2
#     Edge 78, Type (0, 0), BuildingBlock: UVAHIK_clean_linker_0, # of connection points: 2
#     Edge 79, Type (0, 0), BuildingBlock: UVAHIK_clean_linker_0, # of connection points: 2
#     Edge 80, Type (0, 0), BuildingBlock: UVAHIK_clean_linker_0, # of connection points: 2
#     Edge 81, Type (0, 0), BuildingBlock: UVAHIK_clean_linker_0, # of connection points: 2
#     Edge 82, Type (0, 0), BuildingBlock: UVAHIK_clean_linker_0, # of connection points: 2
#     Edge 83, Type (0, 0), BuildingBlock: UVAHIK_clean_linker_0, # of connection points: 2
#     Edge 84, Type (0, 0), BuildingBlock: UVAHIK_clean_linker_0, # of connection points: 2
#     Edge 85, Type (0, 0), BuildingBlock: UVAHIK_clean_linker_0, # of connection points: 2
#     Edge 86, Type (0, 0), BuildingBlock: UVAHIK_clean_linker_0, # of connection points: 2
#     Edge 87, Type (0, 0), BuildingBlock: UVAHIK_clean_linker_0, # of connection points: 2
#     Edge 88, Type (0, 0), BuildingBlock: UVAHIK_clean_linker_0, # of connection points: 2
#     Edge 89, Type (0, 0), BuildingBlock: UVAHIK_clean_linker_0, # of connection points: 2
#     Edge 90, Type (0, 0), BuildingBlock: UVAHIK_clean_linker_0, # of connection points: 2
#     Edge 91, Type (0, 0), BuildingBlock: UVAHIK_clean_linker_0, # of connection points: 2
#     Edge 92, Type (0, 0), BuildingBlock: UVAHIK_clean_linker_0, # of connection points: 2
#     Edge 93, Type (0, 0), BuildingBlock: UVAHIK_clean_linker_0, # of connection points: 2
#     Edge 94, Type (0, 0), BuildingBlock: UVAHIK_clean_linker_0, # of connection points: 2
#     Edge 95, Type (0, 0), BuildingBlock: UVAHIK_clean_linker_0, # of connection points: 2
# Relax obj value: 0.800
# Max RMSD: 0.295
# Mean RMSD: 0.280
data_MOF--net-dia-a--node1-NAHDIM_clean_sbu_0--edge1-UVAHIK_clean_linker_0
_symmetry_space_group_name_H-M    P1
_symmetry_Int_Tables_number       1
_symmetry_cell_setting            triclinic
loop_
_symmetry_equiv_pos_as_xyz
'x, y, z'
_cell_length_a     89.434544
_cell_length_b     83.255928
_cell_length_c     63.349829
_cell_angle_alpha  95.100758
_cell_angle_beta   94.227697
_cell_angle_gamma 89.184002
loop_
_atom_site_label
_atom_site_type_symbol
_atom_site_fract_x
_atom_site_fract_y
_atom_site_fract_z
_atom_type_partial_charge
C0 C 0.08292 0.02066 0.47962 0.0
O1 O 0.07815 0.03551 0.47797 0.0
O2 O 0.10148 0.05878 0.49508 0.0
Zn3 Zn 0.10878 0.03653 0.50185 0.0
O4 O 0.10695 0.03548 0.53311 0.0
C5 C 0.13809 0.04496 0.49036 0.0
O6 O 0.13072 0.05717 0.48271 0.0
O7 O 0.09618 0.01831 0.48747 0.0
C8 C 0.11474 0.04466 0.54663 0.0
O9 O 0.12421 0.05464 0.5399 0.0
C10 C 0.09102 0.06567 0.50514 0.0
O11 O 0.08412 0.05755 0.51836 0.0
O12 O 0.1308 0.0339 0.49755 0.0
C13 C 0.89886 0.21905 0.79832 0.0
O14 O 0.89461 0.22165 0.81774 0.0
O15 O 0.86376 0.24731 0.80267 0.0
Zn16 Zn 0.88509 0.25011 0.79499 0.0
O17 O 0.89656 0.26004 0.82133 0.0
C18 C 0.87392 0.27003 0.76153 0.0
O19 O 0.86147 0.26196 0.76219 0.0
O20 O 0.89538 0.22934 0.78507 0.0
C21 C 0.91073 0.25968 0.82487 0.0
O22 O 0.91898 0.25231 0.8106 0.0
C23 C 0.86134 0.24525 0.82178 0.0
O24 O 0.87283 0.24319 0.83545 0.0
O25 O 0.88539 0.26648 0.77334 0.0
C26 C 0.6105 0.27408 0.02353 0.0
O27 O 0.60331 0.26459 0.00858 0.0
O28 O 0.59878 0.23238 0.02604 0.0
Zn29 Zn 0.60864 0.24713 0.04998 0.0
O30 O 0.62826 0.23697 0.05944 0.0
C31 C 0.58272 0.24313 0.0739 0.0
O32 O 0.576 0.23925 0.05503 0.0
O33 O 0.61317 0.26925 0.04191 0.0
C34 C 0.62822 0.22242 0.06403 0.0
O35 O 0.61549 0.21455 0.06204 0.0
C36 C 0.60644 0.22431 0.01259 0.0
O37 O 0.62091 0.22692 0.01295 0.0
O38 O 0.59622 0.24788 0.07528 0.0
C39 C 0.85106 0.94936 0.22499 0.0
O40 O 0.86555 0.94774 0.2295 0.0
O41 O 0.86837 0.92377 0.26221 0.0
Zn42 Zn 0.8492 0.91911 0.24433 0.0
O43 O 0.83393 0.91436 0.26477 0.0
C44 C 0.86439 0.89462 0.21835 0.0
O45 O 0.876 0.9041 0.22314 0.0
O46 O 0.84226 0.93837 0.22911 0.0
C47 C 0.83757 0.90478 0.2789 0.0
O48 O 0.85097 0.89808 0.27931 0.0
C49 C 0.869 0.93572 0.27617 0.0
O50 O 0.8574 0.94553 0.27748 0.0
O51 O 0.85171 0.8991 0.22469 0.0
C52 C 0.03402 0.12938 0.78431 0.0
O53 O 0.03986 0.12336 0.80158 0.0
O54 O 0.07296 0.12484 0.80051 0.0
Zn55 Zn 0.06473 0.12807 0.7702 0.0
O56 O 0.06828 0.10879 0.74962 0.0
C57 C 0.07922 0.1466 0.7409 0.0
O58 O 0.08137 0.13221 0.73128 0.0
O59 O 0.04242 0.13188 0.76963 0.0
C60 C 0.0743 0.09513 0.75221 0.0
O61 O 0.07887 0.09142 0.77135 0.0
C62 C 0.08588 0.12057 0.808 0.0
O63 O 0.08774 0.11785 0.82814 0.0
O64 O 0.0728 0.14787 0.75827 0.0
C65 C 0.72802 0.36984 0.97558 0.0
O66 O 0.73832 0.37351 0.99106 0.0
O67 O 0.7678 0.38014 0.96861 0.0
Zn68 Zn 0.75232 0.37043 0.9465 0.0
O69 O 0.75959 0.34846 0.93566 0.0
C70 C 0.7552 0.39853 0.92309 0.0
O71 O 0.75927 0.4057 0.94192 0.0
O72 O 0.73166 0.36841 0.95649 0.0
C73 C 0.75366 0.34189 0.91821 0.0
O74 O 0.74249 0.34931 0.90837 0.0
C75 C 0.77416 0.3727 0.98355 0.0
O76 O 0.76973 0.3581 0.9863 0.0
O77 O 0.75133 0.38383 0.92153 0.0
C78 C 0.76199 0.08866 0.20886 0.0
O79 O 0.75612 0.09315 0.22688 0.0
O80 O 0.72163 0.08921 0.1663 0.0
Zn81 Zn 0.7343 0.10155 0.18975 0.0
O82 O 0.72392 0.10047 0.21685 0.0
C83 C 0.73809 0.12668 0.163 0.0
O84 O 0.74425 0.11474 0.15162 0.0
O85 O 0.75493 0.09165 0.1915 0.0
C86 C 0.72079 0.11302 0.22869 0.0
O87 O 0.7252 0.12715 0.22389 0.0
C88 C 0.72669 0.0794 0.15194 0.0
O89 O 0.74111 0.07612 0.15253 0.0
O90 O 0.73413 0.12425 0.1813 0.0
C91 C 0.96847 0.91158 0.51662 0.0
O92 O 0.95494 0.91798 0.51586 0.0
O93 O 0.93355 0.88933 0.52166 0.0
Zn94 Zn 0.95061 0.88513 0.50274 0.0
O95 O 0.94366 0.89471 0.47558 0.0
C96 C 0.95971 0.85569 0.47938 0.0
O97 O 0.96719 0.86565 0.4692 0.0
O98 O 0.96975 0.89634 0.51359 0.0
C99 C 0.9522 0.90103 0.46347 0.0
O100 O 0.96673 0.90132 0.46828 0.0
C101 C 0.92776 0.87809 0.53063 0.0
O102 O 0.93447 0.86394 0.5302 0.0
O103 O 0.95285 0.86125 0.49535 0.0
C104 C 0.55868 0.01264 0.96786 0.0
O105 O 0.55082 0.0261 0.96863 0.0
O106 O 0.57921 0.05348 0.96732 0.0
Zn107 Zn 0.58278 0.03404 0.98419 0.0
O108 O 0.57523 0.03947 0.01311 0.0
C109 C 0.61476 0.04027 0.98579 0.0
O110 O 0.61056 0.05188 0.97385 0.0
O111 O 0.57279 0.01334 0.97206 0.0
C112 C 0.58078 0.05172 0.02418 0.0
O113 O 0.59044 0.06061 0.01585 0.0
C114 C 0.56819 0.06297 0.97061 0.0
O115 O 0.55794 0.05881 0.98288 0.0
O116 O 0.60497 0.03055 0.99056 0.0
C117 C 0.8812 0.69407 0.31067 0.0
O118 O 0.87983 0.7011 0.32983 0.0
O119 O 0.85002 0.72993 0.30442 0.0
Zn120 Zn 0.87165 0.72535 0.29864 0.0
O121 O 0.88512 0.73626 0.32264 0.0
C122 C 0.86534 0.73889 0.2584 0.0
O123 O 0.8519 0.73311 0.25992 0.0
O124 O 0.87738 0.70181 0.29468 0.0
C125 C 0.88167 0.73837 0.34182 0.0
O126 O 0.86871 0.73318 0.34682 0.0
C127 C 0.84169 0.72294 0.31613 0.0
O128 O 0.84685 0.71036 0.32559 0.0
O129 O 0.8757 0.73632 0.27257 0.0
C130 C 0.1316 0.2686 0.56388 0.0
O131 O 0.13621 0.2554 0.57236 0.0
O132 O 0.09587 0.24134 0.56534 0.0
Zn133 Zn 0.10471 0.26105 0.58276 0.0
O134 O 0.11791 0.25323 0.60704 0.0
C135 C 0.08206 0.27696 0.6106 0.0
O136 O 0.07271 0.28891 0.61493 0.0
O137 O 0.1181 0.27327 0.56551 0.0
C138 C 0.12705 0.26233 0.61867 0.0
O139 O 0.12729 0.27777 0.61587 0.0
C140 C 0.10078 0.23516 0.54807 0.0
O141 O 0.11159 0.24239 0.53975 0.0
O142 O 0.08854 0.27639 0.59331 0.0
C143 C 0.86035 0.49401 0.72989 0.0
O144 O 0.87244 0.49437 0.74301 0.0
O145 O 0.87442 0.46576 0.76557 0.0
Zn146 Zn 0.85698 0.46199 0.74369 0.0
O147 O 0.83901 0.4594 0.76031 0.0
C148 C 0.87227 0.43335 0.7266 0.0
O149 O 0.88412 0.44063 0.73633 0.0
O150 O 0.85277 0.4811 0.72665 0.0
C151 C 0.82755 0.45122 0.75323 0.0
O152 O 0.82698 0.44422 0.73377 0.0
C153 C 0.87231 0.47397 0.78301 0.0
O154 O 0.85916 0.48083 0.78555 0.0
O155 O 0.85973 0.44076 0.72622 0.0
C156 C 0.52677 0.11993 0.2819 0.0
O157 O 0.52712 0.1095 0.26513 0.0
O158 O 0.57617 0.12653 0.28853 0.0
Zn159 Zn 0.55651 0.12676 0.27088 0.0
O160 O 0.5552 0.10805 0.24809 0.0
C161 C 0.56617 0.14681 0.24114 0.0
O162 O 0.57614 0.1351 0.23981 0.0
O163 O 0.53845 0.12808 0.28811 0.0
C164 C 0.56618 0.09896 0.24316 0.0
O165 O 0.57902 0.10057 0.25457 0.0
C166 C 0.58107 0.1152 0.2994 0.0
O167 O 0.5724 0.10284 0.30105 0.0
O168 O 0.55631 0.14644 0.25454 0.0
C169 C 0.73257 0.83028 0.4781 0.0
O170 O 0.73939 0.82139 0.46349 0.0
O171 O 0.76573 0.86611 0.47891 0.0
Zn172 Zn 0.74741 0.85715 0.46164 0.0
O173 O 0.75417 0.84111 0.43841 0.0
C174 C 0.73318 0.88477 0.43691 0.0
O175 O 0.7216 0.89465 0.43599 0.0
O176 O 0.73482 0.8454 0.48047 0.0
C177 C 0.74891 0.83851 0.41924 0.0
O178 O 0.73775 0.84739 0.41198 0.0
C179 C 0.77399 0.85643 0.48907 0.0
O180 O 0.77 0.84125 0.48837 0.0
O181 O 0.73399 0.87508 0.4514 0.0
C182 C 0.26936 0.11308 0.70856 0.0
O183 O 0.26037 0.11837 0.72318 0.0
O184 O 0.24104 0.11289 0.64814 0.0
Zn185 Zn 0.24514 0.12234 0.6783 0.0
O186 O 0.2284 0.11509 0.69483 0.0
C187 C 0.24218 0.15433 0.6637 0.0
O188 O 0.24445 0.14666 0.64516 0.0
O189 O 0.26528 0.11419 0.68912 0.0
C190 C 0.21564 0.12065 0.68867 0.0
O191 O 0.21476 0.12961 0.67255 0.0
C192 C 0.24359 0.09797 0.64363 0.0
O193 O 0.24925 0.08931 0.65868 0.0
O194 O 0.24341 0.1466 0.68016 0.0
C195 C 0.97135 0.43299 0.02499 0.0
O196 O 0.95964 0.4426 0.02311 0.0
O197 O 0.93321 0.40613 0.02135 0.0
Zn198 Zn 0.95056 0.40987 0.00383 0.0
O199 O 0.94404 0.42542 0.98239 0.0
C200 C 0.95412 0.37522 0.99355 0.0
O201 O 0.95166 0.37417 0.01358 0.0
O202 O 0.96974 0.41801 0.01953 0.0
C203 C 0.95265 0.42717 0.96768 0.0
O204 O 0.96555 0.41939 0.9678 0.0
C205 C 0.92415 0.41719 0.02747 0.0
O206 O 0.92719 0.43225 0.0249 0.0
O207 O 0.95458 0.38903 0.98659 0.0
C208 C 0.10313 0.48754 0.95216 0.0
O209 O 0.10503 0.47804 0.93487 0.0
O210 O 0.10896 0.53914 0.96852 0.0
Zn211 Zn 0.11008 0.51738 0.98046 0.0
O212 O 0.09216 0.51629 0.99801 0.0
C213 C 0.14001 0.52517 0.99791 0.0
O214 O 0.14051 0.53216 0.98018 0.0
O215 O 0.11159 0.49968 0.95668 0.0
C216 C 0.09104 0.5286 0.01121 0.0
O217 O 0.10121 0.53992 0.01209 0.0
C218 C 0.09636 0.54538 0.9631 0.0
O219 O 0.08416 0.53677 0.96314 0.0
O220 O 0.12835 0.5174 0.00096 0.0
C221 C 0.47109 0.42413 0.53243 0.0
O222 O 0.47081 0.42077 0.55227 0.0
O223 O 0.43591 0.41905 0.55597 0.0
Zn224 Zn 0.44046 0.41077 0.52602 0.0
O225 O 0.42531 0.41801 0.50328 0.0
C226 C 0.4531 0.37884 0.51494 0.0
O227 O 0.46509 0.3869 0.51161 0.0
O228 O 0.45985 0.42067 0.51943 0.0
C229 C 0.41841 0.40785 0.48993 0.0
O230 O 0.41994 0.3924 0.49231 0.0
C231 C 0.42359 0.42197 0.56451 0.0
O232 O 0.42405 0.4285 0.5842 0.0
O233 O 0.44195 0.38643 0.52241 0.0
C234 C 0.11473 0.75903 0.02478 0.0
O235 O 0.12017 0.74456 0.01974 0.0
O236 O 0.09849 0.72125 0.03214 0.0
Zn237 Zn 0.10146 0.74085 0.05347 0.0
O238 O 0.12002 0.73661 0.07223 0.0
C239 C 0.07064 0.7409 0.06683 0.0
O240 O 0.06659 0.73753 0.04657 0.0
O241 O 0.10536 0.76074 0.03896 0.0
C242 C 0.11915 0.72749 0.08713 0.0
O243 O 0.10615 0.72118 0.08997 0.0
C244 C 0.09137 0.70893 0.03632 0.0
O245 O 0.08532 0.70904 0.05459 0.0
O246 O 0.08434 0.74371 0.0725 0.0
C247 C 0.00692 0.60586 0.25732 0.0
O248 O 0.01908 0.60558 0.27025 0.0
O249 O 0.046 0.60745 0.24248 0.0
Zn250 Zn 0.0272 0.60577 0.22265 0.0
O251 O 0.02854 0.58644 0.20144 0.0
C252 C 0.02894 0.63933 0.21487 0.0
O253 O 0.03214 0.64119 0.23551 0.0
O254 O 0.00813 0.60557 0.23744 0.0
C255 C 0.01798 0.58322 0.18721 0.0
O256 O 0.00572 0.5921 0.18736 0.0
C257 C 0.05478 0.59547 0.24472 0.0
O258 O 0.05084 0.58128 0.2354 0.0
O259 O 0.02635 0.62526 0.20595 0.0
C260 C 0.22176 0.86775 0.97602 0.0
O261 O 0.23272 0.86974 0.99095 0.0
O262 O 0.26068 0.87861 0.97161 0.0
Zn263 Zn 0.2451 0.87258 0.94752 0.0
O264 O 0.25256 0.85215 0.93211 0.0
C265 C 0.24908 0.90388 0.93268 0.0
O266 O 0.25159 0.90824 0.95306 0.0
O267 O 0.22445 0.86897 0.95681 0.0
C268 C 0.2658 0.85289 0.92623 0.0
O269 O 0.27313 0.86652 0.93023 0.0
C270 C 0.26727 0.86782 0.98195 0.0
O271 O 0.26251 0.85288 0.97862 0.0
O272 O 0.24511 0.88949 0.92681 0.0
C273 C 0.36987 0.99247 0.7754 0.0
O274 O 0.3693 0.99064 0.79572 0.0
O275 O 0.39439 0.95967 0.79838 0.0
Zn276 Zn 0.37632 0.95976 0.77737 0.0
O277 O 0.35846 0.95839 0.79461 0.0
C278 C 0.38814 0.93083 0.75542 0.0
O279 O 0.40091 0.93625 0.76478 0.0
O280 O 0.37367 0.98044 0.76307 0.0
C281 C 0.34603 0.95243 0.78693 0.0
O282 O 0.34463 0.9466 0.76692 0.0
C283 C 0.40352 0.97087 0.8051 0.0
O284 O 0.40213 0.985 0.79741 0.0
O285 O 0.37638 0.93947 0.75725 0.0
C286 C 0.47571 0.89577 0.05351 0.0
O287 O 0.47948 0.89519 0.07387 0.0
O288 O 0.43111 0.88615 0.01729 0.0
Zn289 Zn 0.4535 0.88787 0.01599 0.0
O290 O 0.45747 0.90681 0.9995 0.0
C291 C 0.45421 0.85435 0.00162 0.0
O292 O 0.44546 0.8536 0.01728 0.0
O293 O 0.46377 0.88875 0.04562 0.0
C294 C 0.44938 0.91946 0.99946 0.0
O295 O 0.43831 0.92116 0.01203 0.0
C296 C 0.42352 0.89138 0.03268 0.0
O297 O 0.43037 0.89884 0.04976 0.0
O298 O 0.45973 0.86786 0.99858 0.0
C299 C 0.25521 0.60516 0.24458 0.0
O300 O 0.24595 0.60632 0.25982 0.0
O301 O 0.22407 0.60348 0.18984 0.0
Zn302 Zn 0.22996 0.61656 0.21736 0.0
O303 O 0.21446 0.61216 0.23771 0.0
C304 C 0.23232 0.64358 0.19315 0.0
O305 O 0.23864 0.63258 0.18045 0.0
O306 O 0.2508 0.60951 0.22642 0.0
C307 C 0.20829 0.62336 0.24909 0.0
O308 O 0.21326 0.63816 0.24942 0.0
C309 C 0.21853 0.58946 0.1892 0.0
O310 O 0.21665 0.58312 0.20708 0.0
O311 O 0.22866 0.63982 0.21107 0.0
C312 C 0.39094 0.70798 0.79473 0.0
O313 O 0.38457 0.70966 0.81281 0.0
O314 O 0.36305 0.74235 0.80527 0.0
Zn315 Zn 0.38423 0.74182 0.79593 0.0
O316 O 0.39785 0.74834 0.82182 0.0
C317 C 0.37494 0.76475 0.76531 0.0
O318 O 0.36173 0.75818 0.76594 0.0
O319 O 0.39128 0.72003 0.78376 0.0
C320 C 0.41115 0.7531 0.82045 0.0
O321 O 0.4163 0.75341 0.8016 0.0
C322 C 0.36067 0.73997 0.82429 0.0
O323 O 0.3719 0.73542 0.83702 0.0
O324 O 0.38616 0.75911 0.77586 0.0
C325 C 0.59169 0.4961 0.43894 0.0
O326 O 0.59371 0.48833 0.42039 0.0
O327 O 0.59958 0.54682 0.46165 0.0
Zn328 Zn 0.59914 0.52429 0.47104 0.0
O329 O 0.58122 0.52273 0.48852 0.0
C330 C 0.62965 0.52895 0.48669 0.0
O331 O 0.63001 0.5357 0.46876 0.0
O332 O 0.59988 0.5082 0.44523 0.0
C333 C 0.57854 0.53524 0.50071 0.0
O334 O 0.58694 0.54802 0.50037 0.0
C335 C 0.5892 0.5536 0.45078 0.0
O336 O 0.57712 0.5454 0.44379 0.0
O337 O 0.61763 0.52228 0.49077 0.0
C338 C 0.59057 0.77913 0.52718 0.0
O339 O 0.58117 0.79116 0.52446 0.0
O340 O 0.59045 0.72623 0.51282 0.0
Zn341 Zn 0.59547 0.74423 0.53576 0.0
O342 O 0.61786 0.74499 0.54331 0.0
C343 C 0.57414 0.73041 0.5606 0.0
O344 O 0.56663 0.72797 0.542 0.0
O345 O 0.58534 0.76519 0.5287 0.0
C346 C 0.62392 0.73117 0.54458 0.0
O347 O 0.6155 0.71832 0.5404 0.0
C348 C 0.59771 0.72201 0.49669 0.0
O349 O 0.60931 0.73051 0.49287 0.0
O350 O 0.58665 0.73761 0.5619 0.0
C351 C 0.75541 0.61821 0.70944 0.0
O352 O 0.74561 0.6165 0.72352 0.0
O353 O 0.72295 0.61496 0.65928 0.0
Zn354 Zn 0.72952 0.62983 0.68493 0.0
O355 O 0.71593 0.62507 0.70764 0.0
C356 C 0.73316 0.65811 0.66248 0.0
O357 O 0.74397 0.64941 0.6541 0.0
O358 O 0.7512 0.62454 0.69244 0.0
C359 C 0.70953 0.63558 0.71976 0.0
O360 O 0.7125 0.65091 0.71892 0.0
C361 C 0.71999 0.60035 0.66154 0.0
O362 O 0.72166 0.5952 0.68059 0.0
O363 O 0.7261 0.65251 0.67686 0.0
C364 C 0.51636 0.60847 0.7605 0.0
O365 O 0.52829 0.6169 0.76755 0.0
O366 O 0.55545 0.59618 0.74908 0.0
Zn367 Zn 0.53632 0.59561 0.72989 0.0
O368 O 0.53575 0.57635 0.70826 0.0
C369 C 0.54392 0.6277 0.71997 0.0
O370 O 0.55092 0.62853 0.739 0.0
O371 O 0.51743 0.59762 0.74526 0.0
C372 C 0.52421 0.57384 0.69551 0.0
O373 O 0.51229 0.58301 0.69809 0.0
C374 C 0.56598 0.58599 0.74611 0.0
O375 O 0.56357 0.57348 0.73217 0.0
O376 O 0.53686 0.61494 0.713 0.0
C377 C 0.24218 0.35569 0.46806 0.0
O378 O 0.25584 0.3497 0.46991 0.0
O379 O 0.27498 0.37378 0.44953 0.0
Zn380 Zn 0.25534 0.36668 0.43384 0.0
O381 O 0.2589 0.34417 0.42106 0.0
C382 C 0.25478 0.39482 0.40992 0.0
O383 O 0.26223 0.40138 0.4271 0.0
O384 O 0.23892 0.365 0.45352 0.0
C385 C 0.25195 0.33794 0.40415 0.0
O386 O 0.24184 0.34652 0.39391 0.0
C387 C 0.27651 0.38407 0.46559 0.0
O388 O 0.26455 0.39111 0.47319 0.0
O389 O 0.25 0.38051 0.40977 0.0
C390 C 0.35119 0.47199 0.22603 0.0
O391 O 0.35109 0.46569 0.20625 0.0
O392 O 0.36801 0.43253 0.26414 0.0
Zn393 Zn 0.35709 0.43899 0.23714 0.0
O394 O 0.33518 0.42895 0.23538 0.0
C395 C 0.37612 0.42035 0.20495 0.0
O396 O 0.38275 0.42043 0.18712 0.0
O397 O 0.35391 0.46298 0.24102 0.0
C398 C 0.32456 0.43875 0.24023 0.0
O399 O 0.33473 0.42801 0.2351 0.0
C400 C 0.37632 0.44239 0.27596 0.0
O401 O 0.37885 0.45662 0.26954 0.0
O402 O 0.36842 0.43272 0.21094 0.0
C403 C 0.39991 0.21365 0.32922 0.0
O404 O 0.3932 0.2148 0.34707 0.0
O405 O 0.36502 0.24001 0.3283 0.0
Zn406 Zn 0.38692 0.24487 0.3273 0.0
O407 O 0.39549 0.25335 0.35637 0.0
C408 C 0.38048 0.27527 0.31335 0.0
O409 O 0.37198 0.27492 0.32937 0.0
O410 O 0.39854 0.22517 0.31731 0.0
C411 C 0.40961 0.25448 0.36016 0.0
O412 O 0.41839 0.24947 0.34514 0.0
C413 C 0.35957 0.23691 0.34543 0.0
O414 O 0.36866 0.23562 0.36248 0.0
O415 O 0.38852 0.26297 0.30843 0.0
C416 C -0.00395 0.9152 0.51374 0.0
C417 C 0.98163 0.92194 0.51545 0.0
C418 C 0.00793 0.92468 0.50892 0.0
C419 C 0.01455 0.96011 0.48106 0.0
H420 H 0.05376 0.96164 0.51158 0.0
C421 C 0.05667 0.01043 0.47413 0.0
C422 C 0.0721 0.00722 0.47717 0.0
C423 C 0.04622 -0.00156 0.47603 0.0
C424 C 0.04298 0.9611 0.50257 0.0
H425 H 0.96859 0.94411 0.51458 0.0
H426 H 0.98927 0.96051 0.50612 0.0
H427 H 0.03458 0.94395 0.52203 0.0
H428 H 0.08869 0.98852 0.48283 0.0
H429 H 0.07044 0.96746 0.48553 0.0
H430 H 0.02284 0.97713 0.46151 0.0
C431 C 0.99133 0.94789 0.50827 0.0
C432 C 0.03199 0.95104 0.50868 0.0
C433 C 0.97953 0.9385 0.51331 0.0
C434 C 0.07687 0.99143 0.4806 0.0
C435 C 0.06641 0.97939 0.48235 0.0
C436 C 0.02557 0.97001 0.4748 0.0
C437 C 0.00554 0.94099 0.50552 0.0
C438 C 0.01758 0.95073 0.49827 0.0
C439 C 0.05096 0.9829 0.4808 0.0
C440 C 0.03983 0.97091 0.48575 0.0
H441 H -0.00196 0.90249 0.5153 0.0
H442 H 0.01881 0.91909 0.50694 0.0
H443 H 0.00361 0.95983 0.47249 0.0
H444 H 0.0526 0.02245 0.47147 0.0
H445 H 0.03444 0.00166 0.4749 0.0
C446 C 0.91543 0.20387 0.77304 0.0
C447 C 0.90947 0.20573 0.79303 0.0
C448 C 0.927 0.19277 0.76914 0.0
C449 C 0.94818 0.15816 0.79056 0.0
H450 H 0.98123 0.17592 0.76411 0.0
C451 C 0.00916 0.13424 0.79988 0.0
C452 C 0.0181 0.13456 0.78257 0.0
C453 C -0.00541 0.1406 0.79881 0.0
C454 C 0.97203 0.17061 0.77118 0.0
H455 H 0.91039 0.1967 0.82421 0.0
H456 H 0.93064 0.17756 0.81753 0.0
H457 H 0.95783 0.19093 0.76598 0.0
H458 H 0.01842 0.14101 0.75015 0.0
H459 H -0.007 0.1519 0.74825 0.0
H460 H 0.96265 0.13801 0.79627 0.0
C461 C 0.92633 0.18455 0.80476 0.0
C462 C 0.95857 0.17923 0.77222 0.0
C463 C 0.91475 0.19563 0.80864 0.0
C464 C 0.01191 0.14073 0.76387 0.0
C465 C -0.00265 0.14704 0.76279 0.0
C466 C 0.96169 0.14952 0.78953 0.0
C467 C 0.93286 0.1833 0.78517 0.0
C468 C 0.94655 0.17323 0.78219 0.0
C469 C 0.98863 0.14738 0.7804 0.0
C470 C 0.97384 0.15577 0.78007 0.0
H471 H 0.91154 0.21138 0.7606 0.0
H472 H 0.9316 0.19189 0.75374 0.0
H473 H 0.93907 0.1531 0.79811 0.0
H474 H 0.01358 0.12956 0.81451 0.0
H475 H 0.98822 0.14079 0.81273 0.0
C476 C 0.7016 0.36231 0.96345 0.0
C477 C 0.71265 0.36563 0.98019 0.0
C478 C 0.68765 0.35638 0.96736 0.0
C479 C 0.66257 0.34923 0.00977 0.0
H480 H 0.65113 0.31139 0.97219 0.0
C481 C 0.62662 0.29821 0.03398 0.0
C482 C 0.61758 0.28907 0.01835 0.0
C483 C 0.6353 0.3108 0.02852 0.0
C484 C 0.65389 0.32214 0.98259 0.0
H485 H 0.71737 0.36619 0.01432 0.0
H486 H 0.69307 0.35558 0.02111 0.0
H487 H 0.6719 0.32769 0.96421 0.0
H488 H 0.60964 0.28686 0.98504 0.0
H489 H 0.62465 0.30903 0.97557 0.0
H490 H 0.64478 0.3433 0.02852 0.0
C491 C 0.69516 0.35772 0.00497 0.0
C492 C 0.66585 0.3315 0.97802 0.0
C493 C 0.70913 0.36371 0.00107 0.0
C494 C 0.61661 0.29354 0.99742 0.0
C495 C 0.62527 0.30619 0.99197 0.0
C496 C 0.65054 0.33987 0.01433 0.0
C497 C 0.68442 0.35357 0.98808 0.0
C498 C 0.67055 0.34494 0.99178 0.0
C499 C 0.6351 0.31461 0.00733 0.0
C500 C 0.64629 0.32599 0.00104 0.0
H501 H 0.70388 0.36384 0.94719 0.0
H502 H 0.67952 0.35358 0.95405 0.0
H503 H 0.66579 0.35965 0.02053 0.0
H504 H 0.62757 0.29516 0.05029 0.0
H505 H 0.64282 0.3169 0.04075 0.0
C506 C 0.78111 0.0725 0.18902 0.0
C507 C 0.77544 0.0781 0.20847 0.0
C508 C 0.79232 0.06065 0.18826 0.0
C509 C 0.8201 0.03826 0.2213 0.0
H510 H 0.81039 0.0027 0.1789 0.0
C511 C 0.85378 0.97845 0.21869 0.0
C512 C 0.84479 0.96466 0.21786 0.0
C513 C 0.84739 0.99337 0.21447 0.0
C514 C 0.8133 0.01256 0.19076 0.0
H515 H 0.77778 0.07642 0.24253 0.0
H516 H 0.7972 0.05563 0.24118 0.0
H517 H 0.79594 0.02768 0.17826 0.0
H518 H 0.82219 0.95555 0.21091 0.0
H519 H 0.81109 0.98148 0.20354 0.0
H520 H 0.837 0.02277 0.2344 0.0
C521 C 0.79307 0.06046 0.22651 0.0
C522 C 0.80513 0.02695 0.19027 0.0
C523 C 0.78186 0.07233 0.22728 0.0
C524 C 0.82943 0.96594 0.21175 0.0
C525 C 0.82308 0.9808 0.20739 0.0
C526 C 0.82831 0.02386 0.22175 0.0
C527 C 0.7981 0.05415 0.20692 0.0
C528 C 0.80819 0.03982 0.20584 0.0
C529 C 0.83192 -0.00526 0.20912 0.0
C530 C 0.82473 0.01072 0.20681 0.0
H531 H 0.77651 0.07681 0.17424 0.0
H532 H 0.79615 0.05624 0.17296 0.0
H533 H 0.82283 0.04802 0.23338 0.0
H534 H 0.86566 0.97786 0.22334 0.0
H535 H 0.85451 0.00389 0.21573 0.0
C536 C 0.55916 0.98286 0.97116 0.0
C537 C 0.55096 -0.00305 0.96718 0.0
C538 C 0.55179 0.96891 0.97528 0.0
C539 C 0.53439 0.94952 0.00325 0.0
H540 H 0.4957 0.93449 0.97814 0.0
C541 C 0.49243 0.91892 0.05034 0.0
C542 C 0.48495 0.90516 0.04072 0.0
C543 C 0.5013 0.92793 0.03863 0.0
C544 C 0.50657 0.93842 0.98516 0.0
H545 H 0.52855 0.00692 0.96233 0.0
H546 H 0.51574 0.98261 0.96956 0.0
H547 H 0.50978 0.95364 0.96029 0.0
H548 H 0.48164 0.88943 0.0117 0.0
H549 H 0.49682 0.90558 0.99085 0.0
H550 H 0.53098 0.93477 0.02845 0.0
C551 C 0.52785 0.98234 0.96956 0.0
C552 C 0.51459 0.94943 0.97502 0.0
C553 C 0.53521 -0.00367 0.96551 0.0
C554 C 0.48684 0.90032 0.01927 0.0
C555 C 0.4956 0.90947 0.00741 0.0
C556 C 0.52632 0.93866 0.01345 0.0
C557 C 0.53608 0.96872 0.97538 0.0
C558 C 0.52846 0.95534 0.98419 0.0
C559 C 0.50293 0.92336 0.01703 0.0
C560 C 0.51218 0.93328 0.00478 0.0
H561 H 0.5713 0.98286 0.97235 0.0
H562 H 0.55842 0.95849 0.97935 0.0
H563 H 0.54495 0.95395 0.01088 0.0
H564 H 0.49127 0.92286 0.06691 0.0
H565 H 0.50672 0.93865 0.04641 0.0
C566 C 0.89231 0.67177 0.28744 0.0
C567 C 0.88978 0.67878 0.30788 0.0
C568 C 0.90265 0.65914 0.28474 0.0
C569 C 0.93749 0.64577 0.3108 0.0
H570 H 0.93489 0.61088 0.26594 0.0
C571 C 0.99033 0.61041 0.28766 0.0
C572 C 0.99196 0.60848 0.26569 0.0
C573 C 0.97645 0.61487 0.29535 0.0
C574 C 0.93581 0.62057 0.27853 0.0
H575 H 0.89521 0.67716 0.3416 0.0
H576 H 0.91328 0.65516 0.33683 0.0
H577 H 0.91235 0.62622 0.27469 0.0
H578 H 0.9801 0.60884 0.23457 0.0
H579 H 0.95619 0.61695 0.24786 0.0
H580 H 0.961 0.64087 0.3139 0.0
C581 C 0.90739 0.65956 0.32291 0.0
C582 C 0.92289 0.62931 0.28357 0.0
C583 C 0.89699 0.67213 0.32561 0.0
C584 C 0.97928 0.61028 0.2516 0.0
C585 C 0.96547 0.61481 0.25926 0.0
C586 C 0.95042 0.63714 0.30566 0.0
C587 C 0.9107 0.65331 0.30243 0.0
C588 C 0.92368 0.64228 0.29937 0.0
C589 C 0.96394 0.61755 0.28122 0.0
C590 C 0.94983 0.62474 0.28903 0.0
H591 H 0.88688 0.67655 0.27345 0.0
H592 H 0.90501 0.65464 0.26875 0.0
H593 H 0.93852 0.65583 0.32287 0.0
H594 H -0.00015 0.60897 0.29894 0.0
H595 H 0.97561 0.61662 0.31237 0.0
C596 C 0.21528 0.35411 0.4767 0.0
C597 C 0.2304 0.34961 0.48044 0.0
C598 C 0.20403 0.34656 0.48638 0.0
C599 C 0.19692 0.30802 0.50691 0.0
H600 H 0.16365 0.32979 0.53355 0.0
C601 C 0.15757 0.27427 0.55479 0.0
C602 C 0.14223 0.2782 0.55347 0.0
C603 C 0.1678 0.28352 0.54562 0.0
C604 C 0.17275 0.32352 0.52588 0.0
H605 H 0.24562 0.33436 0.49823 0.0
H606 H 0.22604 0.32126 0.51498 0.0
H607 H 0.18253 0.34562 0.5187 0.0
H608 H 0.12555 0.29487 0.54134 0.0
H609 H 0.14342 0.31086 0.52485 0.0
H610 H 0.18718 0.28596 0.51366 0.0
C611 C 0.22287 0.33044 0.50437 0.0
C612 C 0.18358 0.33259 0.51747 0.0
C613 C 0.23408 0.33802 0.49484 0.0
C614 C 0.13731 0.29155 0.54265 0.0
C615 C 0.14756 0.30078 0.53333 0.0
C616 C 0.18608 0.29897 0.51511 0.0
C617 C 0.20771 0.33433 0.49982 0.0
C618 C 0.19587 0.32492 0.50819 0.0
C619 C 0.16294 0.29687 0.53473 0.0
C620 C 0.17397 0.3066 0.52498 0.0
H621 H 0.21208 0.36303 0.46572 0.0
H622 H 0.19242 0.34978 0.48261 0.0
H623 H 0.20611 0.30176 0.49941 0.0
H624 H 0.16177 0.26416 0.56318 0.0
H625 H 0.17958 0.28034 0.54739 0.0
C626 C 0.77458 0.60215 0.72956 0.0
C627 C 0.77036 0.61039 0.71161 0.0
C628 C 0.78759 0.59267 0.73021 0.0
C629 C 0.81093 0.56891 0.69386 0.0
H630 H 0.83514 0.56229 0.74573 0.0
C631 C 0.86047 0.52411 0.72978 0.0
C632 C 0.854 0.50918 0.72233 0.0
C633 C 0.85302 0.53853 0.7258 0.0
C634 C 0.82869 0.56415 0.73098 0.0
H635 H 0.77703 0.61599 0.68085 0.0
H636 H 0.79979 0.59948 0.68207 0.0
H637 H 0.81742 0.58479 0.74517 0.0
H638 H 0.83518 0.49774 0.70354 0.0
H639 H 0.8222 0.52282 0.6967 0.0
H640 H 0.82196 0.54806 0.67982 0.0
C641 C 0.7929 0.60017 0.69549 0.0
C642 C 0.81842 0.57695 0.73075 0.0
C643 C 0.7799 0.6097 0.69486 0.0
C644 C 0.84045 0.50902 0.70959 0.0
C645 C 0.83304 0.52343 0.70557 0.0
C646 C 0.82118 0.55609 0.69411 0.0
C647 C 0.79667 0.5912 0.71292 0.0
C648 C 0.80914 0.57922 0.71235 0.0
C649 C 0.839 0.53833 0.71419 0.0
C650 C 0.82989 0.55331 0.71284 0.0
H651 H 0.76751 0.60246 0.74276 0.0
H652 H 0.79008 0.58581 0.7438 0.0
H653 H 0.80388 0.57023 0.67946 0.0
H654 H 0.87095 0.52467 0.73954 0.0
H655 H 0.85801 0.54983 0.73238 0.0
C656 C 0.51155 0.13688 0.30713 0.0
C657 C 0.51234 0.12421 0.29103 0.0
C658 C 0.49767 0.14278 0.31322 0.0
C659 C 0.45928 0.1467 0.29021 0.0
H660 H 0.45227 0.16559 0.34682 0.0
C661 C 0.41246 0.18781 0.33823 0.0
C662 C 0.41004 0.19988 0.32416 0.0
C663 C 0.42309 0.17563 0.33449 0.0
C664 C 0.45391 0.16016 0.33097 0.0
H665 H 0.4992 0.10696 0.26989 0.0
H666 H 0.47498 0.11718 0.2807 0.0
H667 H 0.47441 0.14873 0.34139 0.0
H668 H 0.41646 0.20826 0.29467 0.0
H669 H 0.43509 0.18714 0.28827 0.0
H670 H 0.43892 0.15833 0.27973 0.0
C671 C 0.4851 0.12275 0.2883 0.0
C672 C 0.46668 0.15063 0.32784 0.0
C673 C 0.49898 0.11685 0.2822 0.0
C674 C 0.41806 0.19916 0.30584 0.0
C675 C 0.42867 0.18697 0.30209 0.0
C676 C 0.44653 0.15622 0.29334 0.0
C677 C 0.48429 0.13611 0.30339 0.0
C678 C 0.4697 0.14413 0.30734 0.0
C679 C 0.4315 0.17524 0.31658 0.0
C680 C 0.4439 0.1634 0.31366 0.0
H681 H 0.52162 0.14279 0.31432 0.0
H682 H 0.49746 0.15316 0.32478 0.0
H683 H 0.46133 0.142 0.27417 0.0
H684 H 0.4064 0.18796 0.35244 0.0
H685 H 0.42489 0.16664 0.3458 0.0
C686 C 0.71373 0.83259 0.50558 0.0
C687 C 0.72087 0.82318 0.48969 0.0
C688 C 0.70131 0.82667 0.51448 0.0
C689 C 0.67881 0.78984 0.51839 0.0
H690 H 0.64589 0.8206 0.52057 0.0
C691 C 0.61637 0.77197 0.5168 0.0
C692 C 0.60679 0.78215 0.52851 0.0
C693 C 0.63145 0.77595 0.51609 0.0
C694 C 0.65501 0.81191 0.52048 0.0
H695 H 0.72113 0.7998 0.47162 0.0
H696 H 0.69931 0.78959 0.48684 0.0
H697 H 0.6704 0.82937 0.51254 0.0
H698 H 0.60531 0.80429 0.54892 0.0
H699 H 0.63167 0.81124 0.54794 0.0
H700 H 0.66312 0.77226 0.52574 0.0
C701 C 0.70338 0.80148 0.49261 0.0
C702 C 0.66912 0.81695 0.51588 0.0
C703 C 0.71586 0.80738 0.48378 0.0
C704 C 0.61254 0.79622 0.53985 0.0
C705 C 0.6276 0.8002 0.5392 0.0
C706 C 0.66464 0.78477 0.523 0.0
C707 C 0.6957 0.81124 0.50761 0.0
C708 C 0.68115 0.80596 0.51452 0.0
C709 C 0.63715 0.79032 0.52691 0.0
C710 C 0.65254 0.79573 0.52384 0.0
H711 H 0.71742 0.84475 0.51069 0.0
H712 H 0.69585 0.83436 0.52633 0.0
H713 H 0.68789 0.78111 0.51767 0.0
H714 H 0.61203 0.76129 0.50749 0.0
H715 H 0.63844 0.76819 0.50622 0.0
C716 C 0.29176 0.09661 0.69832 0.0
C717 C 0.28333 0.1042 0.71431 0.0
C718 C 0.30399 0.08673 0.70352 0.0
C719 C 0.33058 0.07571 0.74746 0.0
H720 H 0.32959 0.03335 0.71653 0.0
C721 C 0.35899 0.02016 0.7809 0.0
C722 C 0.3643 0.00764 0.76697 0.0
C723 C 0.35186 0.03364 0.77305 0.0
C724 C 0.3303 0.04522 0.72504 0.0
H725 H 0.2816 0.10798 0.74837 0.0
H726 H 0.30299 0.09071 0.75743 0.0
H727 H 0.31202 0.05409 0.70556 0.0
H728 H 0.36711 -8e-05 0.73389 0.0
H729 H 0.35489 0.02368 0.72015 0.0
H730 H 0.34872 0.06675 0.76716 0.0
C731 C 0.30014 0.09246 0.74087 0.0
C732 C 0.32017 0.05711 0.71878 0.0
C733 C 0.28783 0.10228 0.73567 0.0
C734 C 0.36305 0.00931 0.74503 0.0
C735 C 0.35595 0.02287 0.73716 0.0
C736 C 0.3408 0.06385 0.75364 0.0
C737 C 0.30813 0.0843 0.72481 0.0
C738 C 0.31998 0.07237 0.73019 0.0
C739 C 0.34993 0.03501 0.75106 0.0
C740 C 0.34056 0.04832 0.74281 0.0
H741 H 0.28866 0.09789 0.6817 0.0
H742 H 0.31005 0.08076 0.69082 0.0
H743 H 0.33083 0.08744 0.75637 0.0
H744 H 0.35979 0.0193 0.7979 0.0
H745 H 0.34722 0.0426 0.78425 0.0
C746 C -0.00078 0.43019 0.02421 0.0
C747 C 0.98661 0.43989 0.02839 0.0
C748 C 0.01318 0.43717 0.02274 0.0
C749 C 0.02779 0.47522 0.00799 0.0
H750 H 0.06605 0.45338 0.01649 0.0
C751 C 0.07605 0.48373 0.95588 0.0
C752 C 0.09074 0.48451 0.96518 0.0
C753 C 0.06422 0.48023 0.96786 0.0
C754 C 0.05551 0.45979 0.0143 0.0
H755 H 0.97909 0.4644 0.03647 0.0
H756 H 0.00352 0.47656 0.03444 0.0
H757 H 0.04415 0.44386 0.03241 0.0
H758 H 0.10489 0.48179 0.99387 0.0
H759 H 0.08414 0.47534 0.01494 0.0
H760 H 0.03909 0.49104 0.98973 0.0
C761 C 0.00254 0.46358 0.03163 0.0
C762 C 0.04291 0.45424 0.02325 0.0
C763 C 0.98854 0.4566 0.03294 0.0
C764 C 0.09355 0.48143 0.98653 0.0
C765 C 0.08172 0.47766 0.99848 0.0
C766 C 0.04036 0.48079 0.99913 0.0
C767 C 0.01487 0.45402 0.0256 0.0
C768 C 0.02879 0.46156 0.01961 0.0
C769 C 0.0669 0.47715 0.9893 0.0
C770 C 0.05423 0.47279 0.00154 0.0
H771 H -0.00185 0.41727 0.02069 0.0
H772 H 0.02236 0.42941 0.01793 0.0
H773 H 0.01712 0.48113 0.00467 0.0
H774 H 0.07373 0.48584 0.93932 0.0
H775 H 0.053 0.47955 0.96015 0.0
C776 C 0.49685 0.43617 0.53904 0.0
C777 C 0.4841 0.43242 0.52521 0.0
C778 C 0.50891 0.44437 0.53212 0.0
C779 C 0.51809 0.47077 0.49107 0.0
H780 H 0.55898 0.45588 0.50198 0.0
C781 C 0.56546 0.48751 0.44121 0.0
C782 C 0.57961 0.49108 0.4514 0.0
C783 C 0.55409 0.48184 0.45247 0.0
C784 C 0.54765 0.46036 0.4991 0.0
H785 H 0.47413 0.43421 0.4932 0.0
H786 H 0.49506 0.44835 0.48122 0.0
H787 H 0.53854 0.44305 0.51767 0.0
H788 H 0.59331 0.49102 0.481 0.0
H789 H 0.57338 0.48091 0.50087 0.0
H790 H 0.52709 0.48787 0.47225 0.0
C791 C 0.4957 0.44517 0.49747 0.0
C792 C 0.53595 0.453 0.50807 0.0
C793 C 0.48373 0.43694 0.50432 0.0
C794 C 0.58235 0.48863 0.47297 0.0
C795 C 0.571 0.48274 0.48424 0.0
C796 C 0.52975 0.47812 0.48216 0.0
C797 C 0.50839 0.44907 0.5113 0.0
C798 C 0.52101 0.45788 0.50371 0.0
C799 C 0.55671 0.47936 0.47411 0.0
C800 C 0.54463 0.47275 0.48564 0.0
H801 H 0.4975 0.43286 0.55523 0.0
H802 H 0.51852 0.44725 0.54316 0.0
H803 H 0.50673 0.47504 0.48781 0.0
H804 H 0.5632 0.48907 0.42448 0.0
H805 H 0.54334 0.47901 0.44406 0.0
C806 C 0.11709 0.78898 0.02379 0.0
C807 C 0.12097 0.77322 0.0161 0.0
C808 C 0.12451 0.80225 0.0175 0.0
C809 C 0.15026 0.82539 0.01504 0.0
H810 H 0.16564 0.82511 0.95939 0.0
C811 C 0.20503 0.85651 0.00095 0.0
C812 C 0.20695 0.86202 0.98101 0.0
C813 C 0.19175 0.84896 0.00469 0.0
C814 C 0.16125 0.82564 0.97491 0.0
H815 H 0.13511 0.7591 0.99493 0.0
H816 H 0.14813 0.78207 0.98427 0.0
H817 H 0.1467 0.80573 0.96538 0.0
H818 H 0.19602 0.86503 0.94987 0.0
H819 H 0.17271 0.8522 0.95657 0.0
H820 H 0.16487 0.84527 0.02459 0.0
C821 C 0.13927 0.78429 0.99496 0.0
C822 C 0.15051 0.81436 0.97841 0.0
C823 C 0.13187 0.77107 0.00122 0.0
C824 C 0.19496 0.86073 0.96533 0.0
C825 C 0.18162 0.8533 0.96913 0.0
C826 C 0.16094 0.83676 0.0115 0.0
C827 C 0.13593 0.80002 0.00337 0.0
C828 C 0.14527 0.81373 0.9987 0.0
C829 C 0.18003 0.84687 0.98864 0.0
C830 C 0.16693 0.83668 0.99158 0.0
H831 H 0.10868 0.79105 0.03521 0.0
H832 H 0.12154 0.81423 0.02405 0.0
H833 H 0.14652 0.82522 0.03089 0.0
H834 H 0.21405 0.85733 0.01338 0.0
H835 H 0.19103 0.84402 0.01982 0.0
C836 C 0.34456 0.49483 0.25216 0.0
C837 C 0.34638 0.4889 0.231 0.0
C838 C 0.33825 0.51005 0.25679 0.0
C839 C 0.32789 0.54877 0.23502 0.0
H840 H 0.29405 0.54757 0.26974 0.0
C841 C 0.27824 0.59288 0.22958 0.0
C842 C 0.26966 0.5964 0.24717 0.0
C843 C 0.29052 0.58241 0.23081 0.0
C844 C 0.30367 0.54834 0.26047 0.0
H845 H 0.34383 0.49472 0.19823 0.0
H846 H 0.33279 0.52134 0.20634 0.0
H847 H 0.31052 0.52424 0.26578 0.0
H848 H 0.26803 0.59274 0.28038 0.0
H849 H 0.28976 0.57473 0.2827 0.0
H850 H 0.32087 0.5728 0.22939 0.0
C851 C 0.33628 0.51419 0.21934 0.0
C852 C 0.3131 0.5349 0.25813 0.0
C853 C 0.34252 0.4989 0.21468 0.0
C854 C 0.2743 0.59012 0.26647 0.0
C855 C 0.2867 0.57972 0.26775 0.0
C856 C 0.31853 0.56231 0.23752 0.0
C857 C 0.33372 0.51973 0.24039 0.0
C858 C 0.32507 0.53481 0.24496 0.0
C859 C 0.29464 0.57529 0.24972 0.0
C860 C 0.30605 0.56209 0.2498 0.0
H861 H 0.34752 0.48749 0.26516 0.0
H862 H 0.33656 0.51409 0.27318 0.0
H863 H 0.33716 0.5491 0.22499 0.0
H864 H 0.27504 0.59756 0.21447 0.0
H865 H 0.29622 0.5792 0.21652 0.0
C866 C 0.4883 0.60681 0.75675 0.0
C867 C 0.50141 0.61358 0.76735 0.0
C868 C 0.47424 0.61346 0.76075 0.0
C869 C 0.45423 0.64195 0.79761 0.0
H870 H 0.42982 0.65082 0.74671 0.0
C871 C 0.40071 0.68067 0.80264 0.0
C872 C 0.39981 0.69325 0.78918 0.0
C873 C 0.41088 0.66795 0.79942 0.0
C874 C 0.43648 0.64838 0.76107 0.0
H875 H 0.50994 0.63197 0.79147 0.0
H876 H 0.48547 0.64357 0.79838 0.0
H877 H 0.45218 0.63389 0.74375 0.0
H878 H 0.40822 0.7018 0.76096 0.0
H879 H 0.42601 0.67969 0.75542 0.0
H880 H 0.43896 0.65708 0.81485 0.0
C881 C 0.48602 0.6331 0.78702 0.0
C882 C 0.4492 0.63854 0.75941 0.0
C883 C 0.50008 0.62649 0.78298 0.0
C884 C 0.40865 0.69232 0.77166 0.0
C885 C 0.41881 0.67959 0.76842 0.0
C886 C 0.44149 0.65176 0.79928 0.0
C887 C 0.47299 0.62696 0.77551 0.0
C888 C 0.45842 0.63553 0.77762 0.0
C889 C 0.42035 0.66751 0.78263 0.0
C890 C 0.43267 0.6554 0.78098 0.0
H891 H 0.48892 0.5968 0.74468 0.0
H892 H 0.46438 0.60831 0.75186 0.0
H893 H 0.46102 0.63972 0.81195 0.0
H894 H 0.39397 0.68094 0.8162 0.0
H895 H 0.41163 0.65868 0.81042 0.0
C896 C 0.08423 0.21108 0.54792 0.0
C897 C 0.09575 0.21893 0.53905 0.0
C898 C 0.08074 0.19504 0.54115 0.0
C899 C 0.08723 0.16168 0.49936 0.0
H900 H 0.0823 0.13479 0.54524 0.0
C901 C 0.09702 0.09257 0.49297 0.0
C902 C 0.08799 0.08314 0.50421 0.0
C903 C 0.09545 0.10937 0.49453 0.0
C904 C 0.08338 0.14213 0.53215 0.0
H905 H 0.11217 0.21631 0.51538 0.0
H906 H 0.1063 0.1883 0.5039 0.0
H907 H 0.08399 0.16382 0.55286 0.0
H908 H 0.0696 0.08388 0.5248 0.0
H909 H 0.06681 0.11312 0.52734 0.0
H910 H 0.08711 0.13977 0.4788 0.0
C911 C 0.0998 0.19456 0.51588 0.0
C912 C 0.08433 0.15882 0.53652 0.0
C913 C 0.10323 0.21063 0.52257 0.0
C914 C 0.07684 0.09079 0.5161 0.0
C915 C 0.07528 0.10757 0.51765 0.0
C916 C 0.08633 0.14493 0.495 0.0
C917 C 0.08876 0.18645 0.52545 0.0
C918 C 0.08644 0.16882 0.52025 0.0
C919 C 0.08483 0.11708 0.50736 0.0
C920 C 0.08456 0.13495 0.5114 0.0
H921 H 0.07816 0.21717 0.56052 0.0
H922 H 0.07196 0.18927 0.54856 0.0
H923 H 0.08866 0.16903 0.4864 0.0
H924 H 0.10571 0.08705 0.48365 0.0
H925 H 0.10306 0.11634 0.48652 0.0
C926 C 0.8861 0.40696 0.7241 0.0
C927 C 0.87284 0.41581 0.72015 0.0
C928 C 0.88601 0.3901 0.72181 0.0
C929 C 0.85978 0.35714 0.7252 0.0
H930 H 0.89393 0.3302 0.71086 0.0
C931 C 0.86087 0.28972 0.73852 0.0
C932 C 0.87404 0.28448 0.74945 0.0
C933 C 0.86048 0.30448 0.72951 0.0
C934 C 0.8843 0.33757 0.71492 0.0
H935 H 0.84935 0.41388 0.70898 0.0
H936 H 0.84927 0.38448 0.70463 0.0
H937 H 0.89366 0.35865 0.70408 0.0
H938 H 0.89737 0.29021 0.75842 0.0
H939 H 0.89664 0.31595 0.74294 0.0
H940 H 0.85063 0.33629 0.73667 0.0
C941 C 0.85967 0.39058 0.71 0.0
C942 C 0.88415 0.35386 0.71104 0.0
C943 C 0.85974 0.40744 0.71236 0.0
C944 C 0.88702 0.2939 0.75017 0.0
C945 C 0.88663 0.30864 0.74116 0.0
C946 C 0.85993 0.34088 0.72904 0.0
C947 C 0.87267 0.3817 0.71541 0.0
C948 C 0.87203 0.36394 0.7166 0.0
C949 C 0.87325 0.31431 0.7312 0.0
C950 C 0.87234 0.33098 0.72441 0.0
H951 H 0.8964 0.413 0.73006 0.0
H952 H 0.89622 0.3837 0.72626 0.0
H953 H 0.85038 0.36456 0.73003 0.0
H954 H 0.8507 0.28271 0.73752 0.0
H955 H 0.85006 0.30839 0.72166 0.0
C956 C 0.58188 0.08607 0.95822 0.0
C957 C 0.56866 0.07982 0.9649 0.0
C958 C 0.58341 0.10267 0.95716 0.0
C959 C 0.56909 0.14025 0.98323 0.0
H960 H 0.59396 0.16044 0.94567 0.0
C961 C 0.58434 0.20692 1.0 0.0
C962 C 0.59968 0.21021 0.9996 0.0
C963 C 0.57846 0.19227 0.99073 0.0
C964 C 0.58698 0.15497 0.95629 0.0
H965 H 0.54618 0.08594 0.97375 0.0
H966 H 0.54872 0.11482 0.97144 0.0
H967 H 0.58716 0.13206 0.93792 0.0
H968 H 0.62066 0.20114 0.98788 0.0
H969 H 0.61047 0.17553 0.97207 0.0
H970 H 0.56931 0.16283 0.00204 0.0
C971 C 0.55807 0.10695 0.96762 0.0
C972 C 0.58309 0.13872 0.95185 0.0
C973 C 0.55658 0.09038 0.96881 0.0
C974 C 0.6088 0.19898 0.98853 0.0
C975 C 0.60292 0.1843 0.97934 0.0
C976 C 0.57297 0.15643 0.98766 0.0
C977 C 0.57171 0.11337 0.96263 0.0
C978 C 0.57433 0.13108 0.96551 0.0
C979 C 0.58779 0.18054 0.98094 0.0
C980 C 0.5822 0.16394 0.97449 0.0
H981 H 0.59141 0.07827 0.95508 0.0
H982 H 0.5941 0.10717 0.95337 0.0
H983 H 0.56259 0.13473 0.99437 0.0
H984 H 0.57697 0.21537 0.00821 0.0
H985 H 0.56668 0.18991 0.99187 0.0
C986 C 0.88218 0.75615 0.24023 0.0
C987 C 0.86769 0.75072 0.24289 0.0
C988 C 0.88419 0.76943 0.22873 0.0
C989 C 0.86386 0.79912 0.19545 0.0
H990 H 0.89091 0.82935 0.22833 0.0
C991 C 0.85419 0.86735 0.2057 0.0
C992 C 0.86654 0.87772 0.20964 0.0
C993 C 0.85635 0.85074 0.20186 0.0
C994 C 0.88358 0.82101 0.21855 0.0
H995 H 0.84403 0.75413 0.23414 0.0
H996 H 0.84747 0.77752 0.21477 0.0
H997 H 0.89119 0.80143 0.23611 0.0
H998 H 0.8908 0.87895 0.2105 0.0
H999 H 0.89454 0.84991 0.20376 0.0
H1000 H 0.85561 0.81918 0.17886 0.0
C1001 C 0.85734 0.77145 0.22119 0.0
C1002 C 0.88374 0.8049 0.22301 0.0
C1003 C 0.85535 0.75805 0.23246 0.0
C1004 C 0.88105 0.87128 0.20777 0.0
C1005 C 0.8832 0.85464 0.20398 0.0
C1006 C 0.86364 0.81531 0.19107 0.0
C1007 C 0.87175 0.77769 0.21989 0.0
C1008 C 0.87353 0.79385 0.21205 0.0
C1009 C 0.8709 0.84414 0.20189 0.0
C1010 C 0.87315 0.82653 0.20308 0.0
H1011 H 0.89194 0.75059 0.24781 0.0
H1012 H 0.89548 0.77366 0.2276 0.0
H1013 H 0.85605 0.79088 0.18639 0.0
H1014 H 0.84286 0.87194 0.20683 0.0
H1015 H 0.84662 0.843 0.20043 0.0
C1016 C 0.18897 0.12689 0.69538 0.0
C1017 C 0.20207 0.11794 0.69986 0.0
C1018 C 0.17618 0.12492 0.7062 0.0
C1019 C 0.16382 0.11007 0.75542 0.0
H1020 H 0.12441 0.11573 0.727 0.0
C1021 C 0.10844 0.10499 0.79668 0.0
C1022 C 0.09862 0.11815 0.79454 0.0
C1023 C 0.12077 0.10296 0.7843 0.0
C1024 C 0.13535 0.11411 0.7351 0.0
H1025 H 0.21196 0.09965 0.71896 0.0
H1026 H 0.18943 0.09585 0.73755 0.0
H1027 H 0.14653 0.1152 0.70661 0.0
H1028 H 0.09484 0.14027 0.77975 0.0
H1029 H 0.11578 0.13637 0.75701 0.0
H1030 H 0.15249 0.10888 0.7839 0.0
C1031 C 0.18915 0.10467 0.72595 0.0
C1032 C 0.14805 0.11389 0.72349 0.0
C1033 C 0.20204 0.10677 0.71523 0.0
C1034 C 0.10154 0.12944 0.78032 0.0
C1035 C 0.1137 0.12733 0.76771 0.0
C1036 C 0.15109 0.11007 0.76698 0.0
C1037 C 0.17607 0.1138 0.72163 0.0
C1038 C 0.16249 0.11226 0.73358 0.0
C1039 C 0.12346 0.11409 0.76962 0.0
C1040 C 0.13678 0.11243 0.757 0.0
H1041 H 0.18863 0.13571 0.68376 0.0
H1042 H 0.16649 0.13245 0.70275 0.0
H1043 H 0.17473 0.10898 0.76381 0.0
H1044 H 0.10653 0.09623 0.80784 0.0
H1045 H 0.12816 0.09268 0.78614 0.0
C1046 C 0.79413 0.37254 0.01358 0.0
C1047 C 0.78776 0.37955 0.99561 0.0
C1048 C 0.80789 0.37797 0.02345 0.0
C1049 C 0.83648 0.41068 0.02349 0.0
H1050 H 0.86397 0.3773 0.04135 0.0
C1051 C 0.89911 0.42468 0.04111 0.0
C1052 C 0.909 0.41283 0.03296 0.0
C1053 C 0.88403 0.42105 0.04282 0.0
C1054 C 0.8565 0.38679 0.03632 0.0
H1055 H 0.79064 0.3981 0.9743 0.0
H1056 H 0.81471 0.40705 0.99076 0.0
H1057 H 0.83792 0.37074 0.03164 0.0
H1058 H 0.91098 0.38765 0.0213 0.0
H1059 H 0.88481 0.38151 0.02337 0.0
H1060 H 0.85528 0.42639 0.02635 0.0
C1061 C 0.80901 0.3977 0.9978 0.0
C1062 C 0.8414 0.38308 0.03108 0.0
C1063 C 0.79518 0.39246 0.98819 0.0
C1064 C 0.90369 0.39707 0.02771 0.0
C1065 C 0.88859 0.39352 0.02904 0.0
C1066 C 0.85163 0.41431 0.02832 0.0
C1067 C 0.81572 0.39037 0.01537 0.0
C1068 C 0.83125 0.39486 0.02398 0.0
C1069 C 0.87843 0.40556 0.03605 0.0
C1070 C 0.86196 0.4023 0.03422 0.0
H1071 H 0.78862 0.36265 0.0198 0.0
H1072 H 0.8125 0.37223 0.0372 0.0
H1073 H 0.82898 0.42022 0.01869 0.0
H1074 H 0.9029 0.4369 0.04551 0.0
H1075 H 0.87669 0.43055 0.04885 0.0
C1076 C 0.70373 0.12594 0.25496 0.0
C1077 C 0.71048 0.11194 0.24574 0.0
C1078 C 0.69227 0.12483 0.2686 0.0
C1079 C 0.66984 0.12026 0.30103 0.0
H1080 H 0.64073 0.08773 0.27927 0.0
C1081 C 0.60437 0.09933 0.30818 0.0
C1082 C 0.59738 0.11426 0.30515 0.0
C1083 C 0.61999 0.0978 0.30842 0.0
C1084 C 0.64885 0.09665 0.28598 0.0
H1085 H 0.71138 0.08586 0.24503 0.0
H1086 H 0.69164 0.08393 0.26923 0.0
H1087 H 0.66526 0.0872 0.26536 0.0
H1088 H 0.6013 0.13959 0.30226 0.0
H1089 H 0.62842 0.13694 0.30271 0.0
H1090 H 0.6529 0.13024 0.32072 0.0
C1091 C 0.69489 0.09576 0.26544 0.0
C1092 C 0.66298 0.09635 0.27798 0.0
C1093 C 0.70625 0.09686 0.25163 0.0
C1094 C 0.60636 0.12789 0.30443 0.0
C1095 C 0.62194 0.12639 0.30483 0.0
C1096 C 0.65563 0.12061 0.30895 0.0
C1097 C 0.68739 0.10969 0.27351 0.0
C1098 C 0.6735 0.10846 0.28488 0.0
C1099 C 0.62887 0.1112 0.30586 0.0
C1100 C 0.64482 0.10909 0.301 0.0
H1101 H 0.70673 0.13775 0.25079 0.0
H1102 H 0.68669 0.13583 0.27427 0.0
H1103 H 0.67777 0.12958 0.30704 0.0
H1104 H 0.59778 0.08861 0.30887 0.0
H1105 H 0.62505 0.08598 0.30952 0.0
C1106 C 0.90405 0.89421 0.53411 0.0
C1107 C 0.91209 0.87979 0.53668 0.0
C1108 C 0.88849 0.89474 0.5352 0.0
C1109 C 0.85551 0.87169 0.54855 0.0
H1110 H 0.83629 0.88954 0.49885 0.0
C1111 C 0.79797 0.85072 0.51012 0.0
C1112 C 0.78846 0.8618 0.50015 0.0
C1113 C 0.81218 0.85535 0.519 0.0
C1114 C 0.84137 0.88479 0.51308 0.0
H1115 H 0.91025 0.85504 0.54435 0.0
H1116 H 0.88317 0.85591 0.54602 0.0
H1117 H 0.8629 0.89368 0.50766 0.0
H1118 H 0.78615 0.88666 0.49259 0.0
H1119 H 0.81093 0.89479 0.5083 0.0
H1120 H 0.83397 0.86232 0.55348 0.0
C1121 C 0.88885 0.86685 0.54322 0.0
C1122 C 0.85667 0.88719 0.51816 0.0
C1123 C 0.9044 0.86633 0.54216 0.0
C1124 C 0.79325 0.8778 0.50001 0.0
C1125 C 0.80747 0.88244 0.50894 0.0
C1126 C 0.84016 0.86931 0.54347 0.0
C1127 C 0.88065 0.88086 0.53888 0.0
C1128 C 0.86401 0.88034 0.53565 0.0
C1129 C 0.81722 0.87119 0.51818 0.0
C1130 C 0.83299 0.87549 0.52536 0.0
H1131 H 0.90964 0.90487 0.53011 0.0
H1132 H 0.88253 0.90582 0.53223 0.0
H1133 H 0.86079 0.86644 0.56229 0.0
H1134 H 0.79463 0.83831 0.51054 0.0
H1135 H 0.81945 0.84631 0.52573 0.0
C1136 C 0.55333 0.09089 0.20741 0.0
C1137 C 0.56545 0.08913 0.22249 0.0
C1138 C 0.55392 0.08397 0.18656 0.0
C1139 C 0.55606 0.06442 0.14391 0.0
H1140 H 0.59458 0.07028 0.12139 0.0
C1141 C 0.5686 0.04468 0.05656 0.0
C1142 C 0.57739 0.05524 0.04663 0.0
C1143 C 0.5664 0.04747 0.07822 0.0
C1144 C 0.58373 0.06864 0.12739 0.0
H1145 H 0.58708 0.07755 0.22805 0.0
H1146 H 0.58795 0.06517 0.19183 0.0
H1147 H 0.59186 0.07643 0.1591 0.0
H1148 H 0.59031 0.07729 0.05144 0.0
H1149 H 0.5863 0.08225 0.08902 0.0
H1150 H 0.54784 0.05722 0.11188 0.0
C1151 C 0.57819 0.07229 0.19593 0.0
C1152 C 0.58222 0.07191 0.1491 0.0
C1153 C 0.57765 0.0793 0.21673 0.0
C1154 C 0.58357 0.06885 0.05863 0.0
C1155 C 0.58136 0.07164 0.08023 0.0
C1156 C 0.55757 0.06115 0.12211 0.0
C1157 C 0.56658 0.07504 0.18041 0.0
C1158 C 0.56834 0.07003 0.15761 0.0
C1159 C 0.57296 0.06085 0.09036 0.0
C1160 C 0.57138 0.06347 0.11358 0.0
H1161 H 0.54375 0.09837 0.21133 0.0
H1162 H 0.54482 0.08641 0.17502 0.0
H1163 H 0.54524 0.06272 0.14999 0.0
H1164 H 0.56369 0.03407 0.04774 0.0
H1165 H 0.55993 0.03889 0.08558 0.0
C1166 C 0.82204 0.72912 0.34186 0.0
C1167 C 0.8276 0.73101 0.32209 0.0
C1168 C 0.81044 0.73905 0.34921 0.0
C1169 C 0.79398 0.77935 0.34141 0.0
H1170 H 0.76705 0.7673 0.38246 0.0
C1171 C 0.75357 0.82489 0.38332 0.0
C1172 C 0.7552 0.82517 0.40558 0.0
C1173 C 0.76006 0.81241 0.37065 0.0
C1174 C 0.77447 0.7708 0.37093 0.0
H1175 H 0.82457 0.74381 0.29372 0.0
H1176 H 0.80392 0.76064 0.30609 0.0
H1177 H 0.782 0.74654 0.36393 0.0
H1178 H 0.76448 0.81242 0.43202 0.0
H1179 H 0.77555 0.7906 0.40995 0.0
H1180 H 0.78644 0.80363 0.34858 0.0
C1181 C 0.80887 0.75196 0.31634 0.0
C1182 C 0.7831 0.75893 0.36038 0.0
C1183 C 0.82062 0.74221 0.30916 0.0
C1184 C 0.7631 0.81258 0.4149 0.0
C1185 C 0.76932 0.80001 0.40228 0.0
C1186 C 0.78519 0.79116 0.35174 0.0
C1187 C 0.80399 0.75094 0.33679 0.0
C1188 C 0.79328 0.7631 0.34589 0.0
C1189 C 0.76799 0.79986 0.38005 0.0
C1190 C 0.77565 0.78706 0.36699 0.0
H1191 H 0.82726 0.72066 0.35223 0.0
H1192 H 0.80714 0.73798 0.36512 0.0
H1193 H 0.80184 0.78313 0.33066 0.0
H1194 H 0.74757 0.83446 0.37572 0.0
H1195 H 0.75889 0.81256 0.35353 0.0
C1196 C 0.23162 0.17821 0.64612 0.0
C1197 C 0.23481 0.17041 0.66474 0.0
C1198 C 0.22204 0.19161 0.64616 0.0
C1199 C 0.18998 0.2077 0.67397 0.0
H1200 H 0.19236 0.24217 0.6371 0.0
C1201 C 0.1523 0.26356 0.63865 0.0
C1202 C 0.13913 0.25497 0.63194 0.0
C1203 C 0.16477 0.25571 0.64777 0.0
C1204 C 0.1916 0.23282 0.64779 0.0
H1205 H 0.2314 0.17141 0.69841 0.0
H1206 H 0.21478 0.19488 0.69846 0.0
H1207 H 0.21411 0.22477 0.64337 0.0
H1208 H 0.12828 0.23176 0.63107 0.0
H1209 H 0.14998 0.21809 0.64689 0.0
H1210 H 0.16737 0.21549 0.67798 0.0
C1211 C 0.21948 0.19044 0.68376 0.0
C1212 C 0.20402 0.22274 0.6512 0.0
C1213 C 0.2291 0.17705 0.68374 0.0
C1214 C 0.13831 0.23868 0.63592 0.0
C1215 C 0.15074 0.23087 0.64513 0.0
C1216 C 0.17756 0.21775 0.67053 0.0
C1217 C 0.21544 0.19752 0.66481 0.0
C1218 C 0.20322 0.2098 0.66387 0.0
C1219 C 0.16427 0.23916 0.65052 0.0
C1220 C 0.17809 0.23015 0.65694 0.0
H1221 H 0.23586 0.17345 0.63123 0.0
H1222 H 0.2191 0.19671 0.63125 0.0
H1223 H 0.18892 0.19776 0.68369 0.0
H1224 H 0.15326 0.27614 0.63588 0.0
H1225 H 0.17497 0.26248 0.65205 0.0
C1226 C 0.89801 0.46722 0.79844 0.0
C1227 C 0.88372 0.474 0.80113 0.0
C1228 C 0.90807 0.46541 0.81604 0.0
C1229 C 0.9146 0.47658 0.8745 0.0
H1230 H 0.9344 0.43482 0.87353 0.0
C1231 C 0.93399 0.44505 0.94951 0.0
C1232 C 0.94756 0.43634 0.94949 0.0
C1233 C 0.92844 0.45231 0.93143 0.0
C1234 C 0.92917 0.44665 0.87396 0.0
H1235 H 0.86908 0.48491 0.82429 0.0
H1236 H 0.88637 0.48136 0.85491 0.0
H1237 H 0.92075 0.44283 0.84152 0.0
H1238 H 0.9663 0.42903 0.93082 0.0
H1239 H 0.95651 0.44159 0.89924 0.0
H1240 H 0.92249 0.47994 0.90738 0.0
C1241 C 0.88999 0.47769 0.83926 0.0
C1242 C 0.92136 0.45129 0.85556 0.0
C1243 C 0.88 0.47964 0.82166 0.0
C1244 C 0.95577 0.43559 0.93133 0.0
C1245 C 0.95015 0.44272 0.91321 0.0
C1246 C 0.92229 0.47186 0.89299 0.0
C1247 C 0.90402 0.4702 0.83673 0.0
C1248 C 0.91375 0.4662 0.85567 0.0
C1249 C 0.9363 0.45088 0.91293 0.0
C1250 C 0.92945 0.45673 0.89297 0.0
H1251 H 0.90127 0.4629 0.78279 0.0
H1252 H 0.9189 0.45991 0.81346 0.0
H1253 H 0.9091 0.48827 0.87508 0.0
H1254 H 0.92743 0.44591 0.96328 0.0
H1255 H 0.91766 0.45841 0.93162 0.0
C1256 C 0.20501 0.5667 0.16765 0.0
C1257 C 0.21358 0.58079 0.16853 0.0
C1258 C 0.19951 0.55913 0.14809 0.0
C1259 C 0.19006 0.56812 0.09269 0.0
H1260 H 0.18548 0.52175 0.08275 0.0
C1261 C 0.16339 0.5392 0.01346 0.0
C1262 C 0.15178 0.52834 0.0154 0.0
C1263 C 0.17324 0.54401 0.03096 0.0
C1264 C 0.18668 0.53472 0.08532 0.0
H1265 H 0.22367 0.59758 0.14956 0.0
H1266 H 0.21437 0.5842 0.11549 0.0
H1267 H 0.19852 0.53331 0.11576 0.0
H1268 H 0.14199 0.51326 0.0369 0.0
H1269 H 0.15915 0.52169 0.06741 0.0
H1270 H 0.17807 0.56957 0.06245 0.0
C1271 C 0.21157 0.5792 0.12989 0.0
C1272 C 0.1941 0.54135 0.10424 0.0
C1273 C 0.21696 0.58683 0.14944 0.0
C1274 C 0.15078 0.52169 0.03488 0.0
C1275 C 0.16067 0.52646 0.05235 0.0
C1276 C 0.18273 0.56149 0.07377 0.0
C1277 C 0.20256 0.56541 0.12898 0.0
C1278 C 0.1957 0.55816 0.10827 0.0
C1279 C 0.17174 0.538 0.05073 0.0
C1280 C 0.18078 0.54475 0.06999 0.0
H1281 H 0.20218 0.56175 0.18208 0.0
H1282 H 0.19246 0.54865 0.14801 0.0
H1283 H 0.19082 0.58112 0.09538 0.0
H1284 H 0.16454 0.54448 0.99865 0.0
H1285 H 0.18181 0.55275 0.02916 0.0
C1286 C 0.58372 0.24164 0.11328 0.0
C1287 C 0.57595 0.23874 0.09321 0.0
C1288 C 0.57901 0.23458 0.13084 0.0
C1289 C 0.56476 0.22027 0.16731 0.0
H1290 H 0.55914 0.17442 0.15255 0.0
C1291 C 0.55618 0.17287 0.22823 0.0
C1292 C 0.56568 0.15931 0.22591 0.0
C1293 C 0.55529 0.18413 0.21301 0.0
C1294 C 0.56059 0.18722 0.1569 0.0
H1295 H 0.55633 0.2274 0.07629 0.0
H1296 H 0.54813 0.21509 0.10697 0.0
H1297 H 0.56028 0.19242 0.12447 0.0
H1298 H 0.58183 0.14707 0.206 0.0
H1299 H 0.58012 0.16655 0.17949 0.0
H1300 H 0.5656 0.2148 0.19988 0.0
C1301 C 0.55799 0.22264 0.10902 0.0
C1302 C 0.56107 0.19756 0.14083 0.0
C1303 C 0.56266 0.22975 0.09147 0.0
C1304 C 0.57439 0.15736 0.20828 0.0
C1305 C 0.57335 0.16846 0.193 0.0
C1306 C 0.56412 0.20989 0.18345 0.0
C1307 C 0.56646 0.22445 0.12866 0.0
C1308 C 0.56354 0.21414 0.14584 0.0
C1309 C 0.5637 0.18186 0.19509 0.0
C1310 C 0.56246 0.19322 0.17834 0.0
H1311 H 0.59394 0.24861 0.11521 0.0
H1312 H 0.58582 0.23616 0.14573 0.0
H1313 H 0.5666 0.23301 0.17162 0.0
H1314 H 0.54936 0.17471 0.24168 0.0
H1315 H 0.54777 0.19439 0.21496 0.0
C1316 C 0.81264 0.90841 0.29446 0.0
C1317 C 0.82713 0.90165 0.29513 0.0
C1318 C 0.80297 0.90585 0.31016 0.0
C1319 C 0.79638 0.87934 0.35256 0.0
H1320 H 0.77191 0.91541 0.37302 0.0
C1321 C 0.75895 0.87854 0.42428 0.0
C1322 C 0.74452 0.88521 0.42107 0.0
C1323 C 0.76958 0.87978 0.40931 0.0
C1324 C 0.77859 0.90519 0.36738 0.0
H1325 H 0.84277 0.88675 0.31277 0.0
H1326 H 0.82596 0.88247 0.34031 0.0
H1327 H 0.78929 0.91905 0.34609 0.0
H1328 H 0.72989 0.8982 0.39947 0.0
H1329 H 0.74832 0.90043 0.37366 0.0
H1330 H 0.7856 0.86553 0.37405 0.0
C1331 C 0.822 0.88958 0.32749 0.0
C1332 C 0.78853 0.90725 0.35188 0.0
C1333 C 0.83166 0.89211 0.31174 0.0
C1334 C 0.74093 0.89301 0.40256 0.0
C1335 C 0.75151 0.89434 0.38775 0.0
C1336 C 0.78644 0.87729 0.36817 0.0
C1337 C 0.80757 0.89652 0.32698 0.0
C1338 C 0.79741 0.89432 0.34405 0.0
C1339 C 0.766 0.88792 0.39103 0.0
C1340 C 0.77729 0.89015 0.37551 0.0
H1341 H 0.80876 0.91575 0.28183 0.0
H1342 H 0.79184 0.91114 0.30906 0.0
H1343 H 0.80298 0.86909 0.34677 0.0
H1344 H 0.76213 0.87266 0.43849 0.0
H1345 H 0.7807 0.87478 0.41231 0.0
C1346 C 0.16162 0.06107 0.49579 0.0
C1347 C 0.15442 0.04619 0.49588 0.0
C1348 C 0.17582 0.06357 0.50618 0.0
C1349 C 0.19717 0.04844 0.55192 0.0
H1350 H 0.22464 0.08218 0.54221 0.0
C1351 C 0.2397 0.0733 0.61829 0.0
C1352 C 0.23879 0.09014 0.62238 0.0
C1353 C 0.23345 0.06571 0.59918 0.0
C1354 C 0.21712 0.07265 0.54506 0.0
H1355 H 0.15724 0.02164 0.50452 0.0
H1356 H 0.18224 0.02584 0.52202 0.0
H1357 H 0.20659 0.07188 0.51351 0.0
H1358 H 0.2315 0.11232 0.60905 0.0
H1359 H 0.2205 0.09907 0.5758 0.0
H1360 H 0.20729 0.04957 0.5836 0.0
C1361 C 0.17668 0.03578 0.51466 0.0
C1362 C 0.20677 0.06677 0.52865 0.0
C1363 C 0.16239 0.03334 0.5045 0.0
C1364 C 0.23231 0.09931 0.60645 0.0
C1365 C 0.22612 0.09172 0.5873 0.0
C1366 C 0.20758 0.05422 0.5682 0.0
C1367 C 0.18321 0.05118 0.51666 0.0
C1368 C 0.19629 0.05501 0.53214 0.0
C1369 C 0.22624 0.07481 0.58372 0.0
C1370 C 0.2173 0.06677 0.56519 0.0
H1371 H 0.15583 0.07121 0.48919 0.0
H1372 H 0.1804 0.07561 0.5074 0.0
H1373 H 0.18916 0.0396 0.55542 0.0
H1374 H 0.24474 0.06589 0.63016 0.0
H1375 H 0.23385 0.05267 0.59676 0.0
C1376 C 0.46319 0.35366 0.49622 0.0
C1377 C 0.45135 0.36185 0.50606 0.0
C1378 C 0.46075 0.33881 0.48442 0.0
C1379 C 0.43293 0.3058 0.47064 0.0
H1380 H 0.44891 0.3048 0.41529 0.0
C1381 C 0.40653 0.26945 0.39571 0.0
C1382 C 0.41598 0.26278 0.38039 0.0
C1383 C 0.41244 0.27875 0.41376 0.0
C1384 C 0.44459 0.30466 0.43079 0.0
H1385 H 0.42793 0.36029 0.5125 0.0
H1386 H 0.42364 0.33462 0.49167 0.0
H1387 H 0.45669 0.32588 0.44266 0.0
H1388 H 0.43915 0.25991 0.37262 0.0
H1389 H 0.44946 0.27605 0.4042 0.0
H1390 H 0.42036 0.28486 0.45832 0.0
C1391 C 0.43485 0.33953 0.49319 0.0
C1392 C 0.44908 0.31677 0.44655 0.0
C1393 C 0.4373 0.35434 0.50508 0.0
C1394 C 0.43154 0.26499 0.38401 0.0
C1395 C 0.43745 0.2743 0.40207 0.0
C1396 C 0.4284 0.29368 0.45482 0.0
C1397 C 0.44641 0.33186 0.48212 0.0
C1398 C 0.44309 0.31769 0.46654 0.0
C1399 C 0.42794 0.28158 0.41691 0.0
C1400 C 0.43396 0.29318 0.43458 0.0
H1401 H 0.47419 0.35903 0.49685 0.0
H1402 H 0.46998 0.33305 0.47646 0.0
H1403 H 0.42826 0.30602 0.48596 0.0
H1404 H 0.39449 0.26794 0.39343 0.0
H1405 H 0.40479 0.28431 0.42477 0.0
C1406 C 0.03467 0.66827 0.21096 0.0
C1407 C 0.0292 0.65326 0.20192 0.0
C1408 C 0.03599 0.68105 0.19833 0.0
C1409 C 0.02416 0.69586 0.14619 0.0
H1410 H 0.06357 0.71518 0.1514 0.0
C1411 C 0.04935 0.72547 0.07829 0.0
C1412 C 0.06069 0.73698 0.08324 0.0
C1413 C 0.04255 0.71862 0.09451 0.0
C1414 C 0.05235 0.7103 0.14998 0.0
H1415 H 0.0202 0.64014 0.17272 0.0
H1416 H 0.02253 0.66243 0.15073 0.0
H1417 H 0.05718 0.69673 0.17681 0.0
H1418 H 0.07266 0.75163 0.10885 0.0
H1419 H 0.06035 0.74023 0.1371 0.0
H1420 H 0.01943 0.70922 0.11908 0.0
C1421 C 0.02574 0.66433 0.16758 0.0
C1422 C 0.04871 0.69963 0.16457 0.0
C1423 C 0.02453 0.65152 0.18016 0.0
C1424 C 0.06406 0.74264 0.10458 0.0
C1425 C 0.05711 0.73598 0.12077 0.0
C1426 C 0.02774 0.70667 0.13167 0.0
C1427 C 0.03175 0.67913 0.17645 0.0
C1428 C 0.03473 0.692 0.16255 0.0
C1429 C 0.04682 0.72331 0.11599 0.0
C1430 C 0.04203 0.71374 0.13307 0.0
H1431 H 0.0383 0.67003 0.22769 0.0
H1432 H 0.04055 0.69236 0.20562 0.0
H1433 H 0.01321 0.69029 0.14441 0.0
H1434 H 0.04655 0.72081 0.06199 0.0
H1435 H 0.03476 0.70886 0.09013 0.0
C1436 C 0.90876 0.27637 0.85936 0.0
C1437 C 0.91776 0.26812 0.8446 0.0
C1438 C 0.91527 0.28509 0.87745 0.0
C1439 C 0.95007 0.30593 0.89741 0.0
H1440 H 0.93012 0.31017 0.94996 0.0
C1441 C 0.95574 0.36196 0.95679 0.0
C1442 C 0.9545 0.36056 0.97853 0.0
C1443 C 0.95423 0.34846 0.94211 0.0
C1444 C 0.93605 0.30894 0.93559 0.0
H1445 H 0.94066 0.26212 0.83763 0.0
H1446 H 0.95205 0.27729 0.86944 0.0
H1447 H 0.92169 0.28992 0.92173 0.0
H1448 H 0.95162 0.34368 0.00207 0.0
H1449 H 0.9492 0.32001 0.97643 0.0
H1450 H 0.9644 0.325 0.91127 0.0
C1451 C 0.93995 0.27717 0.86682 0.0
C1452 C 0.93106 0.29746 0.91927 0.0
C1453 C 0.93342 0.26843 0.84864 0.0
C1454 C 0.95251 0.34519 0.98541 0.0
C1455 C 0.95104 0.33164 0.9707 0.0
C1456 C 0.95511 0.31737 0.91379 0.0
C1457 C 0.93094 0.28574 0.88132 0.0
C1458 C 0.9377 0.29617 0.89974 0.0
C1459 C 0.95152 0.33318 0.94882 0.0
C1460 C 0.94785 0.31935 0.93283 0.0
H1461 H 0.89665 0.27638 0.85677 0.0
H1462 H 0.90798 0.29176 0.88805 0.0
H1463 H 0.95541 0.30531 0.88257 0.0
H1464 H 0.95731 0.37361 0.95093 0.0
H1465 H 0.95447 0.35017 0.9254 0.0
C1466 C 0.18769 0.60478 0.25582 0.0
C1467 C 0.19403 0.62025 0.2585 0.0
C1468 C 0.17309 0.60238 0.26134 0.0
C1469 C 0.13788 0.62494 0.26481 0.0
H1470 H 0.12347 0.58562 0.28457 0.0
C1471 C 0.07475 0.61338 0.26368 0.0
C1472 C 0.07019 0.59803 0.25463 0.0
C1473 C 0.08983 0.61638 0.27006 0.0
C1474 C 0.12732 0.59666 0.27901 0.0
H1475 H 0.19041 0.64509 0.27063 0.0
H1476 H 0.16499 0.64086 0.28041 0.0
H1477 H 0.15043 0.59035 0.28543 0.0
H1478 H 0.07778 0.57356 0.24643 0.0
H1479 H 0.10404 0.57886 0.25712 0.0
H1480 H 0.11493 0.631 0.25751 0.0
C1481 C 0.17122 0.63065 0.27367 0.0
C1482 C 0.14276 0.59938 0.27953 0.0
C1483 C 0.18583 0.63304 0.26817 0.0
C1484 C 0.0809 0.58554 0.25329 0.0
C1485 C 0.09599 0.58856 0.25956 0.0
C1486 C 0.12249 0.62221 0.26423 0.0
C1487 C 0.1645 0.6154 0.26968 0.0
C1488 C 0.14822 0.61339 0.272 0.0
C1489 C 0.10071 0.60413 0.26744 0.0
C1490 C 0.117 0.60788 0.27087 0.0
H1491 H 0.19371 0.59463 0.24848 0.0
H1492 H 0.16825 0.5905 0.25791 0.0
H1493 H 0.14168 0.63574 0.25856 0.0
H1494 H 0.06676 0.62324 0.26515 0.0
H1495 H 0.09302 0.62844 0.27647 0.0
C1496 C 0.28945 0.85928 0.00489 0.0
C1497 C 0.28171 0.8714 0.99436 0.0
C1498 C 0.30415 0.86175 0.01357 0.0
C1499 C 0.33375 0.89282 0.02738 0.0
H1500 H 0.36045 0.85715 0.01259 0.0
C1501 C 0.39825 0.89528 0.04749 0.0
C1502 C 0.40706 0.88907 0.03111 0.0
C1503 C 0.3827 0.89305 0.04575 0.0
C1504 C 0.35316 0.86724 0.01682 0.0
H1505 H 0.28301 0.896 0.98587 0.0
H1506 H 0.30867 0.90022 1.00072 0.0
H1507 H 0.33354 0.85384 0.0056 0.0
H1508 H 0.40641 0.87567 1.00006 0.0
H1509 H 0.37943 0.87193 0.997 0.0
H1510 H 0.35353 0.9064 0.03778 0.0
C1511 C 0.30338 0.88885 0.00247 0.0
C1512 C 0.33769 0.86528 0.01308 0.0
C1513 C 0.28866 0.8864 0.99386 0.0
C1514 C 0.39999 0.88058 0.01301 0.0
C1515 C 0.3845 0.87833 0.01131 0.0
C1516 C 0.34927 0.89478 0.03114 0.0
C1517 C 0.31146 0.87638 0.01186 0.0
C1518 C 0.32779 0.87811 0.018 0.0
C1519 C 0.37566 0.88449 0.02766 0.0
C1520 C 0.35916 0.8821 0.02551 0.0
H1521 H 0.28438 0.84764 0.00573 0.0
H1522 H 0.30995 0.85202 0.02109 0.0
H1523 H 0.32643 0.9029 0.03155 0.0
H1524 H 0.40335 0.90188 0.06164 0.0
H1525 H 0.3762 0.89786 0.05868 0.0
C1526 C 0.10796 0.57193 0.95844 0.0
C1527 C 0.09522 0.56296 0.96139 0.0
C1528 C 0.10738 0.5888 0.9602 0.0
C1529 C 0.08097 0.62417 0.96685 0.0
H1530 H 0.11574 0.64429 0.99803 0.0
C1531 C 0.07968 0.6826 0.02287 0.0
C1532 C 0.09084 0.69411 0.02163 0.0
C1533 C 0.07991 0.66786 0.0105 0.0
C1534 C 0.10604 0.6389 0.989 0.0
H1535 H 0.07171 0.56459 0.9676 0.0
H1536 H 0.0708 0.5938 0.97153 0.0
H1537 H 0.11685 0.61593 0.98523 0.0
H1538 H 0.11077 0.69944 0.00609 0.0
H1539 H 0.11142 0.67336 0.98488 0.0
H1540 H 0.06991 0.64706 0.97214 0.0
C1541 C 0.08118 0.58799 0.96725 0.0
C1542 C 0.10666 0.62262 0.98154 0.0
C1543 C 0.08171 0.57115 0.9651 0.0
C1544 C 0.102 0.6908 0.00732 0.0
C1545 C 0.10241 0.6759 0.99525 0.0
C1546 C 0.08027 0.64038 0.97468 0.0
C1547 C 0.09411 0.59707 0.96538 0.0
C1548 C 0.09403 0.61491 0.97074 0.0
C1549 C 0.09146 0.66423 0.99695 0.0
C1550 C 0.09272 0.6478 0.98617 0.0
H1551 H 0.11851 0.56593 0.95538 0.0
H1552 H 0.11747 0.59532 0.95809 0.0
H1553 H 0.07112 0.61881 0.95818 0.0
H1554 H 0.07091 0.68485 0.03371 0.0
H1555 H 0.07142 0.65901 0.01224 0.0
C1556 C 0.39934 0.90332 0.74819 0.0
C1557 C 0.3869 0.91377 0.74656 0.0
C1558 C 0.39765 0.8867 0.74343 0.0
C1559 C 0.36863 0.85597 0.74349 0.0
H1560 H 0.39981 0.82707 0.72303 0.0
C1561 C 0.3636 0.78748 0.74595 0.0
C1562 C 0.37633 0.78002 0.75525 0.0
C1563 C 0.36448 0.803 0.73929 0.0
C1564 C 0.391 0.83499 0.72877 0.0
H1565 H 0.36314 0.91504 0.73702 0.0
H1566 H 0.36026 0.88607 0.72835 0.0
H1567 H 0.40204 0.85608 0.72083 0.0
H1568 H 0.40019 0.78264 0.76364 0.0
H1569 H 0.4017 0.80969 0.75224 0.0
H1570 H 0.35781 0.83503 0.75204 0.0
C1571 C 0.37126 0.89069 0.73381 0.0
C1572 C 0.39227 0.85161 0.72752 0.0
C1573 C 0.37294 0.90733 0.73864 0.0
C1574 C 0.39015 0.78804 0.7566 0.0
C1575 C 0.39103 0.80354 0.74993 0.0
C1576 C 0.36734 0.83939 0.74468 0.0
C1577 C 0.38349 0.88012 0.73685 0.0
C1578 C 0.38127 0.86234 0.73532 0.0
C1579 C 0.37813 0.81139 0.74176 0.0
C1580 C 0.37867 0.82872 0.73779 0.0
H1581 H 0.41027 0.90787 0.75418 0.0
H1582 H 0.40731 0.87895 0.74612 0.0
H1583 H 0.36005 0.86385 0.75 0.0
H1584 H 0.3528 0.78161 0.74451 0.0
H1585 H 0.35438 0.8086 0.73274 0.0
C1586 C 0.43362 0.76774 0.83822 0.0
C1587 C 0.42014 0.75959 0.83978 0.0
C1588 C 0.44125 0.77534 0.85637 0.0
C1589 C 0.44397 0.77845 0.91531 0.0
H1590 H 0.45297 0.82328 0.91014 0.0
C1591 C 0.44641 0.82684 0.98597 0.0
C1592 C 0.45552 0.84041 0.98565 0.0
C1593 C 0.44576 0.81485 0.96906 0.0
C1594 C 0.4509 0.8107 0.91187 0.0
H1595 H 0.40455 0.75227 0.86173 0.0
H1596 H 0.41783 0.76555 0.89329 0.0
H1597 H 0.4452 0.80587 0.87857 0.0
H1598 H 0.47203 0.8514 0.96815 0.0
H1599 H 0.47115 0.83028 0.93885 0.0
H1600 H 0.44931 0.78342 0.94874 0.0
C1601 C 0.42254 0.76603 0.87809 0.0
C1602 C 0.44641 0.80071 0.89371 0.0
C1603 C 0.41486 0.75852 0.85996 0.0
C1604 C 0.46475 0.84118 0.96876 0.0
C1605 C 0.46419 0.82912 0.9519 0.0
C1606 C 0.44857 0.78843 0.93349 0.0
C1607 C 0.43563 0.77483 0.87643 0.0
C1608 C 0.44251 0.7846 0.8953 0.0
C1609 C 0.4543 0.81609 0.9515 0.0
C1610 C 0.45169 0.8048 0.93206 0.0
H1611 H 0.43803 0.76872 0.82292 0.0
H1612 H 0.4514 0.78191 0.85464 0.0
H1613 H 0.44124 0.76601 0.91696 0.0
H1614 H 0.43916 0.82586 0.99876 0.0
H1615 H 0.43791 0.80509 0.96924 0.0
C1616 C 0.08447 0.26909 0.64781 0.0
C1617 C 0.08495 0.26473 0.62594 0.0
C1618 C 0.08636 0.25743 0.66238 0.0
C1619 C 0.10056 0.2163 0.66914 0.0
H1620 H 0.07014 0.21538 0.70958 0.0
C1621 C 0.08843 0.15949 0.71022 0.0
C1622 C 0.08325 0.16111 0.73071 0.0
C1623 C 0.0909 0.17309 0.69958 0.0
C1624 C 0.07894 0.21561 0.69875 0.0
H1625 H 0.08712 0.24473 0.60215 0.0
H1626 H 0.09087 0.22438 0.62752 0.0
H1627 H 0.07041 0.23751 0.68698 0.0
H1628 H 0.07734 0.1783 0.75657 0.0
H1629 H 0.08197 0.20209 0.73818 0.0
H1630 H 0.10904 0.19434 0.68076 0.0
C1631 C 0.08936 0.23686 0.63345 0.0
C1632 C 0.07905 0.22829 0.68574 0.0
C1633 C 0.08729 0.24851 0.61891 0.0
C1634 C 0.0812 0.17665 0.74071 0.0
C1635 C 0.08378 0.19028 0.73011 0.0
C1636 C 0.10054 0.20368 0.6823 0.0
C1637 C 0.08876 0.24118 0.65533 0.0
C1638 C 0.08967 0.22859 0.67052 0.0
C1639 C 0.08836 0.18866 0.70923 0.0
C1640 C 0.08952 0.20299 0.69696 0.0
H1641 H 0.08256 0.28152 0.65366 0.0
H1642 H 0.08587 0.2611 0.67915 0.0
H1643 H 0.109 0.21637 0.65773 0.0
H1644 H 0.09014 0.1477 0.70204 0.0
H1645 H 0.09422 0.17132 0.68344 0.0
C1646 C 0.26508 0.82454 0.90879 0.0
C1647 C 0.27317 0.83862 0.9158 0.0
C1648 C 0.27232 0.81109 0.89913 0.0
C1649 C 0.30961 0.79241 0.89601 0.0
H1650 H 0.29426 0.7715 0.84174 0.0
C1651 C 0.33629 0.75516 0.82203 0.0
C1652 C 0.34647 0.74544 0.83327 0.0
C1653 C 0.32463 0.7632 0.83223 0.0
C1654 C 0.29862 0.77716 0.85696 0.0
H1655 H 0.29516 0.84962 0.91815 0.0
H1656 H 0.3077 0.82625 0.9015 0.0
H1657 H 0.27946 0.79281 0.85985 0.0
H1658 H 0.35146 0.73519 0.86333 0.0
H1659 H 0.33101 0.74902 0.88098 0.0
H1660 H 0.32899 0.7774 0.89293 0.0
C1661 C 0.29581 0.82554 0.90354 0.0
C1662 C 0.29012 0.78926 0.86737 0.0
C1663 C 0.28859 0.83898 0.91295 0.0
C1664 C 0.34395 0.74279 0.85431 0.0
C1665 C 0.33227 0.75077 0.86447 0.0
C1666 C 0.31803 0.78031 0.88573 0.0
C1667 C 0.28779 0.81144 0.8966 0.0
C1668 C 0.29574 0.79728 0.88673 0.0
C1669 C 0.3229 0.76162 0.85383 0.0
C1670 C 0.31281 0.77277 0.86586 0.0
H1671 H 0.25318 0.82391 0.91074 0.0
H1672 H 0.26589 0.80034 0.89394 0.0
H1673 H 0.31413 0.79827 0.91104 0.0
H1674 H 0.33789 0.75741 0.80577 0.0
H1675 H 0.31765 0.77152 0.82359 0.0
C1676 C 0.93019 0.90735 0.43891 0.0
C1677 C 0.94571 0.90801 0.44414 0.0
C1678 C 0.92398 0.91376 0.42062 0.0
C1679 C 0.9332 0.92401 0.36803 0.0
H1680 H 0.89401 0.94448 0.36853 0.0
C1681 C 0.88218 0.95003 0.30854 0.0
C1682 C 0.88154 0.93704 0.29276 0.0
C1683 C 0.89257 0.94994 0.32612 0.0
C1684 C 0.90509 0.93911 0.36809 0.0
H1685 H 0.96691 0.91608 0.43438 0.0
H1686 H 0.95598 0.92737 0.40235 0.0
H1687 H 0.90705 0.93811 0.40177 0.0
H1688 H 0.892 0.91433 0.28224 0.0
H1689 H 0.90981 0.91398 0.31302 0.0
H1690 H 0.93116 0.92491 0.33427 0.0
C1691 C 0.94866 0.92176 0.41237 0.0
C1692 C 0.91247 0.93524 0.38715 0.0
C1693 C 0.9549 0.91533 0.43074 0.0
C1694 C 0.89215 0.9245 0.29418 0.0
C1695 C 0.90247 0.92436 0.3118 0.0
C1696 C 0.92583 0.92795 0.34892 0.0
C1697 C 0.93313 0.92102 0.40712 0.0
C1698 C 0.92638 0.92718 0.38727 0.0
C1699 C 0.90247 0.93682 0.32832 0.0
C1700 C 0.91149 0.93511 0.34867 0.0
H1701 H 0.92279 0.90176 0.44885 0.0
H1702 H 0.912 0.9127 0.41683 0.0
H1703 H 0.94391 0.91779 0.36758 0.0
H1704 H 0.87427 0.95997 0.30777 0.0
H1705 H 0.89249 0.95989 0.33835 0.0
C1706 C 0.51295 0.56131 0.6606 0.0
C1707 C 0.52519 0.56291 0.67588 0.0
C1708 C 0.51469 0.55346 0.64047 0.0
C1709 C 0.52567 0.55087 0.59628 0.0
H1710 H 0.55483 0.51698 0.58442 0.0
C1711 C 0.56271 0.54988 0.52696 0.0
C1712 C 0.56728 0.5352 0.51664 0.0
C1713 C 0.5537 0.5501 0.544 0.0
C1714 C 0.54641 0.52623 0.58734 0.0
H1715 H 0.54852 0.55639 0.68256 0.0
H1716 H 0.55163 0.54303 0.64749 0.0
H1717 H 0.54605 0.52165 0.62004 0.0
H1718 H 0.56535 0.50921 0.51545 0.0
H1719 H 0.54957 0.50957 0.54552 0.0
H1720 H 0.52635 0.55576 0.56378 0.0
C1721 C 0.54063 0.54766 0.65101 0.0
C1722 C 0.54151 0.52903 0.60782 0.0
C1723 C 0.53888 0.55545 0.67114 0.0
C1724 C 0.56201 0.5207 0.52308 0.0
C1725 C 0.55306 0.52091 0.54036 0.0
C1726 C 0.53055 0.54806 0.57584 0.0
C1727 C 0.52872 0.54708 0.63517 0.0
C1728 C 0.53153 0.54181 0.61273 0.0
C1729 C 0.54907 0.53563 0.55126 0.0
C1730 C 0.54144 0.53616 0.57136 0.0
H1731 H 0.50219 0.56676 0.66383 0.0
H1732 H 0.50521 0.55295 0.62878 0.0
H1733 H 0.51805 0.56088 0.59945 0.0
H1734 H 0.56651 0.56126 0.5223 0.0
H1735 H 0.551 0.56164 0.55218 0.0
C1736 C 0.75587 0.32178 0.88675 0.0
C1737 C 0.76035 0.32711 0.90793 0.0
C1738 C 0.76341 0.30901 0.87617 0.0
C1739 C 0.79003 0.27516 0.88357 0.0
H1740 H 0.80451 0.28624 0.83058 0.0
C1741 C 0.84434 0.24911 0.85141 0.0
C1742 C 0.84625 0.24832 0.82952 0.0
C1743 C 0.83098 0.25495 0.85936 0.0
C1744 C 0.8003 0.28266 0.84503 0.0
H1745 H 0.77565 0.3226 0.93499 0.0
H1746 H 0.78877 0.3003 0.91651 0.0
H1747 H 0.78611 0.3035 0.84784 0.0
H1748 H 0.83513 0.25167 0.79862 0.0
H1749 H 0.81161 0.26149 0.81245 0.0
H1750 H 0.80448 0.25447 0.88099 0.0
C1751 C 0.77942 0.30598 0.9081 0.0
C1752 C 0.78976 0.29263 0.85499 0.0
C1753 C 0.77198 0.31884 0.91864 0.0
C1754 C 0.83407 0.2523 0.8156 0.0
C1755 C 0.82063 0.25804 0.82355 0.0
C1756 C 0.80048 0.26508 0.8735 0.0
C1757 C 0.77547 0.3012 0.8866 0.0
C1758 C 0.78484 0.28925 0.87466 0.0
C1759 C 0.81912 0.26002 0.8456 0.0
C1760 C 0.80611 0.26898 0.85443 0.0
H1761 H 0.74691 0.32783 0.87807 0.0
H1762 H 0.76003 0.30548 0.85965 0.0
H1763 H 0.78627 0.27215 0.89859 0.0
H1764 H 0.85346 0.24607 0.86261 0.0
H1765 H 0.83035 0.25642 0.87643 0.0
C1766 C 0.0752 0.54591 0.0347 0.0
C1767 C 0.07866 0.53049 0.02544 0.0
C1768 C 0.06438 0.54794 0.04944 0.0
C1769 C 0.04865 0.52758 0.09047 0.0
H1770 H 0.02259 0.56523 0.093 0.0
C1771 C 0.00989 0.56958 0.15139 0.0
C1772 C 0.02047 0.57134 0.16896 0.0
C1773 C 0.01333 0.56042 0.13276 0.0
C1774 C 0.02951 0.55444 0.09244 0.0
H1775 H 0.07319 0.50514 0.0239 0.0
H1776 H 0.05431 0.50865 0.05017 0.0
H1777 H 0.03486 0.5573 0.06062 0.0
H1778 H 0.04248 0.56381 0.18135 0.0
H1779 H 0.04854 0.54808 0.14889 0.0
H1780 H 0.04379 0.52513 0.12265 0.0
C1781 C 0.05998 0.51915 0.04583 0.0
C1782 C 0.03664 0.54999 0.07392 0.0
C1783 C 0.07073 0.51715 0.03076 0.0
C1784 C 0.03412 0.5628 0.16805 0.0
C1785 C 0.03754 0.55365 0.14945 0.0
C1786 C 0.04154 0.53206 0.10908 0.0
C1787 C 0.05683 0.53458 0.05546 0.0
C1788 C 0.04675 0.53692 0.07305 0.0
C1789 C 0.0274 0.55281 0.13135 0.0
C1790 C 0.03235 0.54592 0.11053 0.0
H1791 H 0.08104 0.55645 0.03081 0.0
H1792 H 0.06235 0.55995 0.05679 0.0
H1793 H 0.05641 0.51747 0.09026 0.0
H1794 H -0.00079 0.57587 0.15164 0.0
H1795 H 0.00519 0.55981 0.11918 0.0
C1796 C 0.60225 0.58008 0.45826 0.0
C1797 C 0.59012 0.57108 0.44827 0.0
C1798 C 0.60255 0.59679 0.4578 0.0
C1799 C 0.57708 0.63153 0.45165 0.0
H1800 H 0.61465 0.65456 0.45463 0.0
C1801 C 0.60301 0.70065 0.46755 0.0
C1802 C 0.59454 0.70621 0.48459 0.0
C1803 C 0.60129 0.68489 0.45805 0.0
C1804 C 0.60399 0.64841 0.45341 0.0
H1805 H 0.56912 0.57254 0.42911 0.0
H1806 H 0.56979 0.60177 0.42793 0.0
H1807 H 0.61445 0.62551 0.44628 0.0
H1808 H 0.57709 0.69979 0.50432 0.0
H1809 H 0.57438 0.67239 0.48825 0.0
H1810 H 0.56661 0.65445 0.45863 0.0
C1811 C 0.57892 0.5959 0.43651 0.0
C1812 C 0.60391 0.63167 0.44893 0.0
C1813 C 0.57858 0.57913 0.43708 0.0
C1814 C 0.58382 0.69593 0.49123 0.0
C1815 C 0.58218 0.68018 0.48186 0.0
C1816 C 0.57714 0.64829 0.45594 0.0
C1817 C 0.59079 0.60498 0.4472 0.0
C1818 C 0.59054 0.62295 0.44867 0.0
C1819 C 0.59112 0.67431 0.46546 0.0
C1820 C 0.59066 0.6569 0.45756 0.0
H1821 H 0.61133 0.57429 0.46708 0.0
H1822 H 0.61175 0.60334 0.46653 0.0
H1823 H 0.56656 0.62525 0.45168 0.0
H1824 H 0.61129 0.70831 0.46195 0.0
H1825 H 0.60818 0.68088 0.4452 0.0
C1826 C 0.68883 0.64222 0.74391 0.0
C1827 C 0.69725 0.63065 0.73224 0.0
C1828 C 0.67593 0.63775 0.75309 0.0
C1829 C 0.654 0.60218 0.76531 0.0
H1830 H 0.61986 0.62974 0.75242 0.0
C1831 C 0.59344 0.57955 0.74954 0.0
C1832 C 0.5815 0.59002 0.75457 0.0
C1833 C 0.60828 0.58462 0.75369 0.0
C1834 C 0.62928 0.62205 0.75663 0.0
H1835 H 0.69923 0.60513 0.72226 0.0
H1836 H 0.6767 0.59742 0.73783 0.0
H1837 H 0.6449 0.6387 0.74719 0.0
H1838 H 0.57583 0.61356 0.76958 0.0
H1839 H 0.60174 0.62235 0.77691 0.0
H1840 H 0.63816 0.58519 0.77375 0.0
C1841 C 0.68008 0.60993 0.74016 0.0
C1842 C 0.6437 0.62721 0.75363 0.0
C1843 C 0.69298 0.61439 0.73105 0.0
C1844 C 0.58475 0.60522 0.76533 0.0
C1845 C 0.5996 0.61031 0.76943 0.0
C1846 C 0.63954 0.59699 0.76824 0.0
C1847 C 0.67115 0.62161 0.75078 0.0
C1848 C 0.65621 0.61716 0.75735 0.0
C1849 C 0.61151 0.60029 0.76295 0.0
C1850 C 0.62698 0.60669 0.76337 0.0
H1851 H 0.69188 0.65484 0.7453 0.0
H1852 H 0.66945 0.64701 0.76149 0.0
H1853 H 0.66341 0.59426 0.76871 0.0
H1854 H 0.59134 0.56773 0.74135 0.0
H1855 H 0.61716 0.57662 0.74837 0.0
C1856 C 0.22502 0.65996 0.16284 0.0
C1857 C 0.22629 0.65859 0.18483 0.0
C1858 C 0.21628 0.67221 0.1544 0.0
C1859 C 0.18352 0.69697 0.16861 0.0
H1860 H 0.18709 0.71118 0.11259 0.0
C1861 C 0.13192 0.71168 0.11502 0.0
C1862 C 0.13264 0.72351 0.10067 0.0
C1863 C 0.1447 0.70735 0.12726 0.0
C1864 C 0.18598 0.70761 0.12842 0.0
H1865 H 0.22081 0.67002 0.21542 0.0
H1866 H 0.20607 0.69182 0.20079 0.0
H1867 H 0.20853 0.69866 0.13077 0.0
H1868 H 0.14728 0.74041 0.0883 0.0
H1869 H 0.1696 0.73304 0.11004 0.0
H1870 H 0.16105 0.70604 0.16638 0.0
C1871 C 0.2113 0.68304 0.18994 0.0
C1872 C 0.19824 0.70022 0.13876 0.0
C1873 C 0.21985 0.67063 0.19837 0.0
C1874 C 0.14638 0.73117 0.09914 0.0
C1875 C 0.15919 0.72691 0.11154 0.0
C1876 C 0.17135 0.70452 0.15841 0.0
C1877 C 0.20879 0.68354 0.16781 0.0
C1878 C 0.19699 0.69425 0.15865 0.0
C1879 C 0.15852 0.71484 0.12564 0.0
C1880 C 0.17222 0.70935 0.13784 0.0
H1881 H 0.22986 0.65091 0.15196 0.0
H1882 H 0.21459 0.67205 0.13729 0.0
H1883 H 0.182 0.69247 0.18382 0.0
H1884 H 0.12154 0.70548 0.11653 0.0
H1885 H 0.14379 0.69776 0.13757 0.0
C1886 C 0.55669 0.71284 0.57721 0.0
C1887 C 0.56889 0.72345 0.5794 0.0
C1888 C 0.55267 0.70498 0.59452 0.0
C1889 C 0.5692 0.69195 0.64523 0.0
H1890 H 0.52816 0.68074 0.65308 0.0
C1891 C 0.55454 0.65414 0.71262 0.0
C1892 C 0.545 0.64105 0.70626 0.0
C1893 C 0.55637 0.66617 0.69901 0.0
C1894 C 0.53968 0.68377 0.65104 0.0
H1895 H 0.58594 0.7348 0.60174 0.0
H1896 H 0.57874 0.72135 0.63203 0.0
H1897 H 0.53323 0.69869 0.62602 0.0
H1898 H 0.52948 0.63064 0.68094 0.0
H1899 H 0.53271 0.65162 0.65721 0.0
H1900 H 0.57566 0.67688 0.67003 0.0
C1901 C 0.5725 0.71879 0.61682 0.0
C1902 C 0.54259 0.69402 0.63554 0.0
C1903 C 0.57657 0.72658 0.59948 0.0
C1904 C 0.53695 0.64053 0.6863 0.0
C1905 C 0.53872 0.65261 0.67275 0.0
C1906 C 0.56628 0.68179 0.66079 0.0
C1907 C 0.5607 0.70763 0.61444 0.0
C1908 C 0.55741 0.69802 0.6322 0.0
C1909 C 0.54862 0.66542 0.67883 0.0
C1910 C 0.55151 0.67738 0.66363 0.0
H1911 H 0.55055 0.71015 0.56195 0.0
H1912 H 0.54365 0.69633 0.59202 0.0
H1913 H 0.58077 0.69453 0.64288 0.0
H1914 H 0.56086 0.65493 0.72792 0.0
H1915 H 0.56397 0.676 0.7042 0.0
C1916 C 0.81605 0.45663 0.78798 0.0
C1917 C 0.81563 0.44855 0.7675 0.0
C1918 C 0.80571 0.45303 0.80229 0.0
C1919 C 0.78318 0.41942 0.81447 0.0
H1920 H 0.76728 0.45103 0.85587 0.0
C1921 C 0.75236 0.39916 0.88357 0.0
C1922 C 0.75709 0.40668 0.90365 0.0
C1923 C 0.75596 0.40573 0.86507 0.0
C1924 C 0.77165 0.44206 0.84444 0.0
H1925 H 0.80358 0.43088 0.74564 0.0
H1926 H 0.78551 0.42455 0.77073 0.0
H1927 H 0.78017 0.46003 0.82639 0.0
H1928 H 0.76855 0.42748 0.92007 0.0
H1929 H 0.77512 0.43874 0.88787 0.0
H1930 H 0.77532 0.40145 0.83288 0.0
C1931 C 0.79393 0.43359 0.77572 0.0
C1932 C 0.779 0.44722 0.82755 0.0
C1933 C 0.80425 0.43726 0.76134 0.0
C1934 C 0.76476 0.42137 0.90484 0.0
C1935 C 0.76845 0.42789 0.88634 0.0
C1936 C 0.7759 0.41427 0.83138 0.0
C1937 C 0.79474 0.44122 0.79648 0.0
C1938 C 0.78514 0.43594 0.81266 0.0
C1939 C 0.76445 0.41991 0.86624 0.0
C1940 C 0.77034 0.42552 0.84684 0.0
H1941 H 0.82463 0.46545 0.79321 0.0
H1942 H 0.80674 0.45899 0.81824 0.0
H1943 H 0.78796 0.41043 0.80345 0.0
H1944 H 0.74627 0.38791 0.88211 0.0
H1945 H 0.75244 0.39945 0.84984 0.0
C1946 C 0.96098 0.83414 0.44936 0.0
C1947 C 0.95639 0.83918 0.46966 0.0
C1948 C 0.95523 0.82006 0.43823 0.0
C1949 C 0.92087 0.79655 0.43469 0.0
H1950 H 0.94135 0.76831 0.39397 0.0
C1951 C 0.8887 0.74814 0.37971 0.0
C1952 C 0.89197 0.74694 0.35827 0.0
C1953 C 0.89799 0.75692 0.39514 0.0
C1954 C 0.93547 0.77614 0.40522 0.0
H1955 H 0.94329 0.83256 0.49503 0.0
H1956 H 0.93343 0.8079 0.4757 0.0
H1957 H 0.95577 0.78765 0.41843 0.0
H1958 H 0.9078 0.75366 0.33629 0.0
H1959 H 0.92381 0.76928 0.36313 0.0
H1960 H 0.90055 0.78557 0.42113 0.0
C1961 C 0.94119 0.81505 0.46819 0.0
C1962 C 0.94373 0.78718 0.41925 0.0
C1963 C 0.94692 0.82913 0.4793 0.0
C1964 C 0.90496 0.75436 0.35268 0.0
C1965 C 0.91421 0.76321 0.36811 0.0
C1966 C 0.91263 0.78558 0.42067 0.0
C1967 C 0.94481 0.8107 0.44721 0.0
C1968 C 0.93649 0.79766 0.43394 0.0
C1969 C 0.91072 0.76479 0.38948 0.0
C1970 C 0.91978 0.77541 0.40554 0.0
H1971 H 0.96831 0.84156 0.4415 0.0
H1972 H 0.95821 0.81709 0.42207 0.0
H1973 H 0.91489 0.80466 0.4455 0.0
H1974 H 0.87886 0.74243 0.38459 0.0
H1975 H 0.89511 0.75766 0.41151 0.0
C1976 C 0.40688 0.40501 0.53818 0.0
C1977 C 0.40892 0.41858 0.55283 0.0
C1978 C 0.39273 0.40151 0.52799 0.0
C1979 C 0.35264 0.4083 0.53481 0.0
H1980 H 0.34733 0.39577 0.47433 0.0
C1981 C 0.2938 0.40093 0.49131 0.0
C1982 C 0.29171 0.38818 0.47533 0.0
C1983 C 0.30819 0.40482 0.50036 0.0
C1984 C 0.34863 0.39906 0.49129 0.0
H1985 H 0.39775 0.43899 0.56872 0.0
H1986 H 0.37305 0.4329 0.55105 0.0
H1987 H 0.37238 0.40204 0.49075 0.0
H1988 H 0.3031 0.36945 0.45639 0.0
H1989 H 0.32807 0.37599 0.47246 0.0
H1990 H 0.32902 0.4051 0.53555 0.0
C1991 C 0.38237 0.42497 0.54731 0.0
C1992 C 0.36299 0.40268 0.50066 0.0
C1993 C 0.39652 0.42849 0.55737 0.0
C1994 C 0.30431 0.3794 0.46862 0.0
C1995 C 0.31867 0.38323 0.47774 0.0
C1996 C 0.33832 0.40458 0.52549 0.0
C1997 C 0.3803 0.4114 0.53257 0.0
C1998 C 0.36513 0.4074 0.52252 0.0
C1999 C 0.32081 0.39599 0.49373 0.0
C2000 C 0.3361 0.39996 0.5036 0.0
H2001 H 0.41613 0.39687 0.53505 0.0
H2002 H 0.39143 0.39082 0.51696 0.0
H2003 H 0.35397 0.41165 0.55176 0.0
H2004 H 0.28435 0.408 0.49676 0.0
H2005 H 0.30941 0.41489 0.51239 0.0
C2006 C 0.38975 0.39506 0.2138 0.0
C2007 C 0.37791 0.40605 0.21734 0.0
C2008 C 0.39115 0.3811 0.22457 0.0
C2009 C 0.3796 0.36313 0.27189 0.0
H2010 H 0.38668 0.32228 0.23958 0.0
C2011 C 0.37076 0.3027 0.3063 0.0
C2012 C 0.38085 0.28997 0.30185 0.0
C2013 C 0.37123 0.31683 0.29607 0.0
C2014 C 0.38493 0.3336 0.24892 0.0
H2015 H 0.35807 0.4105 0.23444 0.0
H2016 H 0.36064 0.38654 0.2537 0.0
H2017 H 0.38634 0.34721 0.222 0.0
H2018 H 0.39931 0.28206 0.28303 0.0
H2019 H 0.40029 0.30691 0.26534 0.0
H2020 H 0.37821 0.34961 0.29882 0.0
C2021 C 0.369 0.38886 0.24284 0.0
C2022 C 0.38471 0.34788 0.23883 0.0
C2023 C 0.36755 0.40271 0.2319 0.0
C2024 C 0.39135 0.29164 0.28676 0.0
C2025 C 0.39187 0.30585 0.27657 0.0
C2026 C 0.3799 0.34887 0.28201 0.0
C2027 C 0.38076 0.37783 0.23918 0.0
C2028 C 0.38187 0.36278 0.25015 0.0
C2029 C 0.38186 0.31867 0.2812 0.0
C2030 C 0.38237 0.3339 0.2706 0.0
H2031 H 0.39795 0.3972 0.20262 0.0
H2032 H 0.4004 0.37288 0.22152 0.0
H2033 H 0.37761 0.37445 0.28111 0.0
H2034 H 0.36244 0.30178 0.31771 0.0
H2035 H 0.36313 0.32628 0.2997 0.0
C2036 C 0.33737 0.23906 0.36725 0.0
C2037 C 0.34319 0.23807 0.34719 0.0
C2038 C 0.32249 0.24376 0.36955 0.0
C2039 C 0.29516 0.26974 0.34343 0.0
H2040 H 0.27295 0.26229 0.39188 0.0
C2041 C 0.25247 0.31637 0.37395 0.0
C2042 C 0.25618 0.32162 0.39537 0.0
C2043 C 0.25826 0.30179 0.36511 0.0
C2044 C 0.27891 0.26438 0.37812 0.0
H2045 H 0.33754 0.23935 0.31348 0.0
H2046 H 0.31147 0.24723 0.31745 0.0
H2047 H 0.29226 0.24299 0.38067 0.0
H2048 H 0.26781 0.31518 0.42473 0.0
H2049 H 0.2779 0.2899 0.40936 0.0
H2050 H 0.28238 0.29149 0.34151 0.0
C2051 C 0.31851 0.24486 0.3315 0.0
C2052 C 0.29 0.25337 0.37173 0.0
C2053 C 0.33344 0.24028 0.32921 0.0
C2054 C 0.26489 0.31154 0.40811 0.0
C2055 C 0.27053 0.29694 0.39935 0.0
C2056 C 0.28403 0.28066 0.34972 0.0
C2057 C 0.31308 0.24744 0.35181 0.0
C2058 C 0.29878 0.25637 0.35499 0.0
C2059 C 0.26768 0.29215 0.37761 0.0
C2060 C 0.27632 0.27851 0.36776 0.0
H2061 H 0.34454 0.2373 0.38141 0.0
H2062 H 0.31878 0.2457 0.38548 0.0
H2063 H 0.30175 0.27259 0.3306 0.0
H2064 H 0.2457 0.32385 0.36377 0.0
H2065 H 0.25583 0.29834 0.34832 0.0
C2066 C 0.08896 0.0727 0.73402 0.0
C2067 C 0.07749 0.08439 0.73322 0.0
C2068 C 0.09315 0.06413 0.71531 0.0
C2069 C 0.10649 0.05902 0.67199 0.0
H2070 H 0.07723 0.04637 0.62544 0.0
C2071 C 0.11958 0.0564 0.58425 0.0
C2072 C 0.11229 0.04497 0.56951 0.0
C2073 C 0.11628 0.05763 0.60555 0.0
C2074 C 0.0856 0.04954 0.63833 0.0
H2075 H 0.06093 0.0957 0.71244 0.0
H2076 H 0.06816 0.08082 0.68004 0.0
H2077 H 0.06887 0.05415 0.66062 0.0
H2078 H 0.0964 0.02528 0.56577 0.0
H2079 H 0.09079 0.02731 0.60299 0.0
H2080 H 0.1232 0.05468 0.64957 0.0
C2081 C 0.07391 0.07817 0.69499 0.0
C2082 C 0.08078 0.05415 0.65845 0.0
C2083 C 0.06984 0.0868 0.71357 0.0
C2084 C 0.10211 0.03433 0.57669 0.0
C2085 C 0.09885 0.03552 0.59801 0.0
C2086 C 0.11132 0.05439 0.65183 0.0
C2087 C 0.0858 0.06697 0.69556 0.0
C2088 C 0.09112 0.05941 0.67534 0.0
C2089 C 0.10567 0.0474 0.61261 0.0
C2090 C 0.10089 0.05004 0.63463 0.0
H2091 H 0.0951 0.07066 0.74894 0.0
H2092 H 0.10231 0.0555 0.71622 0.0
H2093 H 0.11473 0.06309 0.68465 0.0
H2094 H 0.12749 0.06477 0.57924 0.0
H2095 H 0.12161 0.06705 0.61629 0.0
C2096 C 0.64238 0.19797 0.07463 0.0
C2097 C 0.64219 0.21454 0.07197 0.0
C2098 C 0.65538 0.19052 0.08272 0.0
C2099 C 0.68992 0.19867 0.11627 0.0
H2100 H 0.70088 0.15582 0.09305 0.0
C2101 C 0.7235 0.1526 0.16369 0.0
C2102 C 0.73255 0.14118 0.15282 0.0
C2103 C 0.71552 0.16423 0.15278 0.0
C2104 C 0.69819 0.1679 0.09954 0.0
H2105 H 0.65557 0.23629 0.07553 0.0
H2106 H 0.67832 0.22322 0.08983 0.0
H2107 H 0.68073 0.1705 0.0751 0.0
H2108 H 0.74148 0.13405 0.12242 0.0
H2109 H 0.72766 0.15446 0.10346 0.0
H2110 H 0.7072 0.19588 0.14102 0.0
C2111 C 0.66836 0.21604 0.08566 0.0
C2112 C 0.6865 0.17623 0.08938 0.0
C2113 C 0.65535 0.22349 0.07739 0.0
C2114 C 0.73447 0.14254 0.13123 0.0
C2115 C 0.72648 0.15418 0.12032 0.0
C2116 C 0.7016 0.1903 0.12652 0.0
C2117 C 0.66848 0.19948 0.08844 0.0
C2118 C 0.68201 0.19153 0.09789 0.0
C2119 C 0.71644 0.16471 0.13079 0.0
C2120 C 0.70565 0.17467 0.1185 0.0
H2121 H 0.63244 0.19073 0.07061 0.0
H2122 H 0.65506 0.17778 0.08495 0.0
H2123 H 0.68667 0.21044 0.12324 0.0
H2124 H 0.72183 0.15195 0.18036 0.0
H2125 H 0.70784 0.17212 0.16132 0.0
C2126 C 0.3783 0.4237 0.30496 0.0
C2127 C 0.3814 0.43871 0.29777 0.0
C2128 C 0.38176 0.42083 0.32618 0.0
C2129 C 0.40465 0.43578 0.37484 0.0
H2130 H 0.37549 0.41313 0.4033 0.0
C2131 C 0.41255 0.42882 0.46443 0.0
C2132 C 0.4108 0.41306 0.47013 0.0
C2133 C 0.40756 0.43288 0.44414 0.0
C2134 C 0.38377 0.41941 0.39554 0.0
H2135 H 0.39095 0.46232 0.3071 0.0
H2136 H 0.39687 0.45735 0.34409 0.0
H2137 H 0.37046 0.4178 0.36595 0.0
H2138 H 0.40146 0.38955 0.45957 0.0
H2139 H 0.3928 0.39663 0.42424 0.0
H2140 H 0.41799 0.43732 0.40438 0.0
C2141 C 0.39188 0.44774 0.33332 0.0
C2142 C 0.38093 0.42203 0.37412 0.0
C2143 C 0.38845 0.4506 0.3121 0.0
C2144 C 0.40309 0.40177 0.45562 0.0
C2145 C 0.39805 0.40585 0.43539 0.0
C2146 C 0.40747 0.4332 0.39626 0.0
C2147 C 0.38838 0.4329 0.34068 0.0
C2148 C 0.39138 0.43016 0.36348 0.0
C2149 C 0.40064 0.4213 0.4292 0.0
C2150 C 0.3971 0.42491 0.40683 0.0
H2151 H 0.37296 0.41424 0.29429 0.0
H2152 H 0.37918 0.40915 0.33125 0.0
H2153 H 0.41302 0.4419 0.36707 0.0
H2154 H 0.41839 0.43783 0.47528 0.0
H2155 H 0.40947 0.44498 0.43996 0.0
C2156 C 0.64207 0.52392 0.52232 0.0
C2157 C 0.64215 0.53137 0.50327 0.0
C2158 C 0.65277 0.52798 0.5391 0.0
C2159 C 0.68844 0.55061 0.55367 0.0
H2160 H 0.67203 0.55748 0.60875 0.0
C2161 C 0.71345 0.59446 0.62251 0.0
C2162 C 0.71377 0.58962 0.64324 0.0
C2163 C 0.70664 0.5848 0.60542 0.0
C2164 C 0.67687 0.55538 0.59356 0.0
H2165 H 0.65396 0.54833 0.48654 0.0
H2166 H 0.67227 0.55572 0.51587 0.0
H2167 H 0.65673 0.54477 0.57874 0.0
H2168 H 0.7076 0.57061 0.66219 0.0
H2169 H 0.69556 0.55385 0.63231 0.0
H2170 H 0.70835 0.56201 0.56849 0.0
C2171 C 0.66417 0.54652 0.51783 0.0
C2172 C 0.66811 0.54803 0.57632 0.0
C2173 C 0.65358 0.54235 0.50099 0.0
C2174 C 0.70751 0.57471 0.64642 0.0
C2175 C 0.70057 0.56513 0.62935 0.0
C2176 C 0.69714 0.55813 0.57089 0.0
C2177 C 0.66368 0.53969 0.5373 0.0
C2178 C 0.67368 0.5458 0.55605 0.0
C2179 C 0.6999 0.57017 0.60872 0.0
C2180 C 0.69135 0.56081 0.59092 0.0
H2181 H 0.63349 0.51529 0.5245 0.0
H2182 H 0.65224 0.52221 0.55369 0.0
H2183 H 0.69321 0.54882 0.5384 0.0
H2184 H 0.71822 0.60585 0.61952 0.0
H2185 H 0.70617 0.58906 0.58971 0.0
C2186 C 0.26161 0.9287 0.92326 0.0
C2187 C 0.2539 0.91431 0.91674 0.0
C2188 C 0.26887 0.93682 0.90861 0.0
C2189 C 0.27381 0.93897 0.85117 0.0
H2190 H 0.31545 0.94616 0.87089 0.0
C2191 C 0.32106 0.94176 0.79427 0.0
C2192 C 0.33345 0.95165 0.80067 0.0
C2193 C 0.30969 0.94022 0.80796 0.0
C2194 C 0.30381 0.94459 0.86517 0.0
H2195 H 0.2466 0.89798 0.88942 0.0
H2196 H 0.25931 0.91208 0.86395 0.0
H2197 H 0.29777 0.93896 0.89563 0.0
H2198 H 0.34326 0.96839 0.82594 0.0
H2199 H 0.32331 0.96602 0.84957 0.0
H2200 H 0.27999 0.94428 0.82053 0.0
C2201 C 0.25977 0.91711 0.88035 0.0
C2202 C 0.29364 0.94046 0.87941 0.0
C2203 C 0.25254 0.90897 0.895 0.0
C2204 C 0.33396 0.96048 0.82067 0.0
C2205 C 0.32254 0.95908 0.83425 0.0
C2206 C 0.28399 0.94322 0.8369 0.0
C2207 C 0.2685 0.93075 0.88715 0.0
C2208 C 0.2786 0.9373 0.87251 0.0
C2209 C 0.31042 0.94867 0.82826 0.0
C2210 C 0.29918 0.94577 0.84366 0.0
H2211 H 0.26276 0.93324 0.93985 0.0
H2212 H 0.27532 0.94747 0.91423 0.0
H2213 H 0.26225 0.93673 0.84545 0.0
H2214 H 0.32035 0.9348 0.77895 0.0
H2215 H 0.30063 0.93194 0.80291 0.0
C2216 C 0.70158 0.07836 0.13173 0.0
C2217 C 0.71655 0.07302 0.13367 0.0
C2218 C 0.69226 0.07341 0.11377 0.0
C2219 C 0.68675 0.04238 0.06912 0.0
H2220 H 0.66213 0.07557 0.04429 0.0
C2221 C 0.63341 0.03006 0.01304 0.0
C2222 C 0.62978 0.04069 0.99734 0.0
C2223 C 0.64623 0.0325 0.0269 0.0
C2224 C 0.66909 0.06617 0.05078 0.0
H2225 H 0.73334 0.05786 0.11854 0.0
H2226 H 0.71693 0.04912 0.08711 0.0
H2227 H 0.67981 0.08287 0.07453 0.0
H2228 H 0.6375 0.06134 0.98268 0.0
H2229 H 0.65993 0.06548 0.00674 0.0
H2230 H 0.67579 0.02564 0.04543 0.0
C2231 C 0.71247 0.05717 0.09955 0.0
C2232 C 0.67907 0.07034 0.0683 0.0
C2233 C 0.72186 0.06222 0.11751 0.0
C2234 C 0.63987 0.05303 0.99474 0.0
C2235 C 0.65269 0.05547 0.0086 0.0
C2236 C 0.67665 0.03818 0.0516 0.0
C2237 C 0.69765 0.06295 0.09736 0.0
C2238 C 0.68783 0.05847 0.07788 0.0
C2239 C 0.6557 0.0456 0.02533 0.0
C2240 C 0.66758 0.05002 0.04241 0.0
H2241 H 0.69709 0.08663 0.1439 0.0
H2242 H 0.6808 0.07784 0.11269 0.0
H2243 H 0.69335 0.03298 0.07621 0.0
H2244 H 0.62592 0.02038 0.01544 0.0
H2245 H 0.6482 0.02471 0.03966 0.0
C2246 C 0.43918 0.94158 0.97811 0.0
C2247 C 0.45069 0.93048 0.98261 0.0
C2248 C 0.43893 0.94969 0.9597 0.0
C2249 C 0.45214 0.94291 0.90605 0.0
H2250 H 0.4302 0.98269 0.89837 0.0
C2251 C 0.42178 0.98137 0.83507 0.0
C2252 C 0.41441 0.96832 0.82327 0.0
C2253 C 0.43047 0.979 0.85388 0.0
C2254 C 0.43664 0.97173 0.90019 0.0
H2255 H 0.47169 0.9203 0.9724 0.0
H2256 H 0.4716 0.93494 0.94077 0.0
H2257 H 0.43827 0.97596 0.93411 0.0
H2258 H 0.4111 0.94245 0.82126 0.0
H2259 H 0.42597 0.93837 0.8539 0.0
H2260 H 0.45038 0.9386 0.87219 0.0
C2261 C 0.46247 0.93698 0.95103 0.0
C2262 C 0.4411 0.96776 0.92073 0.0
C2263 C 0.4626 0.92869 0.96928 0.0
C2264 C 0.41655 0.95278 0.83002 0.0
C2265 C 0.42523 0.95042 0.8487 0.0
C2266 C 0.44779 0.94694 0.88556 0.0
C2267 C 0.45029 0.94704 0.9455 0.0
C2268 C 0.44836 0.95297 0.92394 0.0
C2269 C 0.43202 0.96353 0.86114 0.0
C2270 C 0.43942 0.96104 0.88242 0.0
H2271 H 0.42985 0.94326 0.98807 0.0
H2272 H 0.42929 0.9572 0.95596 0.0
H2273 H 0.45763 0.93138 0.90778 0.0
H2274 H 0.42038 0.99349 0.83024 0.0
H2275 H 0.43568 0.98933 0.863 0.0
C2276 C 0.64766 0.74206 0.56417 0.0
C2277 C 0.63973 0.72928 0.55262 0.0
C2278 C 0.66177 0.73928 0.57447 0.0
C2279 C 0.69252 0.70868 0.57839 0.0
H2280 H 0.69473 0.7225 0.63859 0.0
C2281 C 0.73411 0.67808 0.63519 0.0
C2282 C 0.72741 0.67269 0.65263 0.0
C2283 C 0.72708 0.6899 0.62346 0.0
C2284 C 0.69436 0.71861 0.62179 0.0
H2285 H 0.64081 0.70394 0.54143 0.0
H2286 H 0.66516 0.69912 0.55919 0.0
H2287 H 0.67546 0.73384 0.61485 0.0
H2288 H 0.70869 0.67645 0.6725 0.0
H2289 H 0.69631 0.69663 0.6519 0.0
H2290 H 0.71056 0.69252 0.58543 0.0
C2291 C 0.66064 0.71128 0.56041 0.0
C2292 C 0.68342 0.72528 0.60812 0.0
C2293 C 0.64657 0.71401 0.55036 0.0
C2294 C 0.71413 0.68024 0.65906 0.0
C2295 C 0.70707 0.69196 0.64729 0.0
C2296 C 0.70339 0.70197 0.59203 0.0
C2297 C 0.66824 0.72375 0.57308 0.0
C2298 C 0.68196 0.71983 0.58643 0.0
C2299 C 0.71316 0.69652 0.62887 0.0
C2300 C 0.70402 0.70633 0.61405 0.0
H2301 H 0.64269 0.754 0.56609 0.0
H2302 H 0.66742 0.74916 0.58398 0.0
H2303 H 0.69185 0.70444 0.56168 0.0
H2304 H 0.74444 0.67266 0.62996 0.0
H2305 H 0.73224 0.69336 0.60963 0.0
C2306 C 0.29981 0.44529 0.25399 0.0
C2307 C 0.31094 0.43372 0.24959 0.0
C2308 C 0.28821 0.44194 0.26654 0.0
C2309 C 0.2718 0.40894 0.29418 0.0
H2310 H 0.26575 0.4437 0.33767 0.0
C2311 C 0.24659 0.39575 0.37132 0.0
C2312 C 0.25455 0.40263 0.38981 0.0
C2313 C 0.24854 0.40145 0.35159 0.0
C2314 C 0.2673 0.43384 0.32567 0.0
H2315 H 0.31825 0.40915 0.25384 0.0
H2316 H 0.29845 0.40345 0.2761 0.0
H2317 H 0.27854 0.449 0.3066 0.0
H2318 H 0.26997 0.42161 0.4023 0.0
H2319 H 0.27376 0.43115 0.36811 0.0
H2320 H 0.2618 0.39347 0.31416 0.0
C2321 C 0.29831 0.41504 0.26957 0.0
C2322 C 0.27445 0.43694 0.30759 0.0
C2323 C 0.30979 0.41834 0.25684 0.0
C2324 C 0.26369 0.41601 0.38837 0.0
C2325 C 0.26577 0.42157 0.36867 0.0
C2326 C 0.26486 0.40579 0.31241 0.0
C2327 C 0.28765 0.42697 0.2752 0.0
C2328 C 0.27732 0.42439 0.29199 0.0
C2329 C 0.25861 0.41404 0.34991 0.0
C2330 C 0.26306 0.41808 0.32879 0.0
H2331 H 0.30047 0.45722 0.24853 0.0
H2332 H 0.28003 0.45131 0.27016 0.0
H2333 H 0.27346 0.39905 0.28226 0.0
H2334 H 0.23932 0.38554 0.37194 0.0
H2335 H 0.24256 0.3956 0.33758 0.0
loop_
_geom_bond_atom_site_label_1
_geom_bond_atom_site_label_2
_geom_bond_distance
_geom_bond_site_symmetry_2
_ccdc_geom_bond_type
C0 O1 1.160 . S
C0 O7 1.185 . S
O1 C0 1.160 . S
O2 Zn3 1.899 . S
O2 C10 1.284 . S
Zn3 O2 1.899 . S
Zn3 O4 2.032 . S
Zn3 O7 2.086 . S
Zn3 O12 1.977 . S
O4 Zn3 2.032 . S
O4 C8 1.278 . S
C5 O6 1.203 . S
C5 O12 1.267 . S
O6 C5 1.203 . S
O7 C0 1.185 . S
O7 Zn3 2.086 . S
C8 O4 1.278 . S
C8 O9 1.211 . S
O9 C8 1.211 . S
C10 O2 1.284 . S
C10 O11 1.273 . S
O11 C10 1.273 . S
O12 Zn3 1.977 . S
O12 C5 1.267 . S
C13 O14 1.160 . S
C13 O20 1.185 . S
O14 C13 1.160 . S
O15 Zn16 1.899 . S
O15 C23 1.284 . S
Zn16 O15 1.899 . S
Zn16 O17 2.032 . S
Zn16 O20 2.086 . S
Zn16 O25 1.977 . S
O17 Zn16 2.032 . S
O17 C21 1.278 . S
C18 O19 1.203 . S
C18 O25 1.267 . S
O19 C18 1.203 . S
O20 C13 1.185 . S
O20 Zn16 2.086 . S
C21 O17 1.278 . S
C21 O22 1.211 . S
O22 C21 1.211 . S
C23 O15 1.284 . S
C23 O24 1.273 . S
O24 C23 1.273 . S
O25 Zn16 1.977 . S
O25 C18 1.267 . S
C26 O27 1.160 . S
C26 O33 1.185 . S
O27 C26 1.160 . S
O28 Zn29 1.899 . S
O28 C36 1.284 . S
Zn29 O28 1.899 . S
Zn29 O30 2.032 . S
Zn29 O33 2.086 . S
Zn29 O38 1.977 . S
O30 Zn29 2.032 . S
O30 C34 1.278 . S
C31 O32 1.203 . S
C31 O38 1.267 . S
O32 C31 1.203 . S
O33 C26 1.185 . S
O33 Zn29 2.086 . S
C34 O30 1.278 . S
C34 O35 1.211 . S
O35 C34 1.211 . S
C36 O28 1.284 . S
C36 O37 1.273 . S
O37 C36 1.273 . S
O38 Zn29 1.977 . S
O38 C31 1.267 . S
C39 O40 1.160 . S
C39 O46 1.185 . S
O40 C39 1.160 . S
O41 Zn42 1.899 . S
O41 C49 1.284 . S
Zn42 O41 1.899 . S
Zn42 O43 2.032 . S
Zn42 O46 2.086 . S
Zn42 O51 1.977 . S
O43 Zn42 2.032 . S
O43 C47 1.278 . S
C44 O45 1.203 . S
C44 O51 1.267 . S
O45 C44 1.203 . S
O46 C39 1.185 . S
O46 Zn42 2.086 . S
C47 O43 1.278 . S
C47 O48 1.211 . S
O48 C47 1.211 . S
C49 O41 1.284 . S
C49 O50 1.273 . S
O50 C49 1.273 . S
O51 Zn42 1.977 . S
O51 C44 1.267 . S
C52 O53 1.160 . S
C52 O59 1.185 . S
O53 C52 1.160 . S
O54 Zn55 1.899 . S
O54 C62 1.284 . S
Zn55 O54 1.899 . S
Zn55 O56 2.032 . S
Zn55 O59 2.086 . S
Zn55 O64 1.977 . S
O56 Zn55 2.032 . S
O56 C60 1.278 . S
C57 O58 1.203 . S
C57 O64 1.267 . S
O58 C57 1.203 . S
O59 C52 1.185 . S
O59 Zn55 2.086 . S
C60 O56 1.278 . S
C60 O61 1.211 . S
O61 C60 1.211 . S
C62 O54 1.284 . S
C62 O63 1.273 . S
O63 C62 1.273 . S
O64 Zn55 1.977 . S
O64 C57 1.267 . S
C65 O66 1.160 . S
C65 O72 1.185 . S
O66 C65 1.160 . S
O67 Zn68 1.899 . S
O67 C75 1.284 . S
Zn68 O67 1.899 . S
Zn68 O69 2.032 . S
Zn68 O72 2.086 . S
Zn68 O77 1.977 . S
O69 Zn68 2.032 . S
O69 C73 1.278 . S
C70 O71 1.203 . S
C70 O77 1.267 . S
O71 C70 1.203 . S
O72 C65 1.185 . S
O72 Zn68 2.086 . S
C73 O69 1.278 . S
C73 O74 1.211 . S
O74 C73 1.211 . S
C75 O67 1.284 . S
C75 O76 1.273 . S
O76 C75 1.273 . S
O77 Zn68 1.977 . S
O77 C70 1.267 . S
C78 O79 1.160 . S
C78 O85 1.185 . S
O79 C78 1.160 . S
O80 Zn81 1.899 . S
O80 C88 1.284 . S
Zn81 O80 1.899 . S
Zn81 O82 2.032 . S
Zn81 O85 2.086 . S
Zn81 O90 1.977 . S
O82 Zn81 2.032 . S
O82 C86 1.278 . S
C83 O84 1.203 . S
C83 O90 1.267 . S
O84 C83 1.203 . S
O85 C78 1.185 . S
O85 Zn81 2.086 . S
C86 O82 1.278 . S
C86 O87 1.211 . S
O87 C86 1.211 . S
C88 O80 1.284 . S
C88 O89 1.273 . S
O89 C88 1.273 . S
O90 Zn81 1.977 . S
O90 C83 1.267 . S
C91 O92 1.160 . S
C91 O98 1.185 . S
O92 C91 1.160 . S
O93 Zn94 1.899 . S
O93 C101 1.284 . S
Zn94 O93 1.899 . S
Zn94 O95 2.032 . S
Zn94 O98 2.086 . S
Zn94 O103 1.977 . S
O95 Zn94 2.032 . S
O95 C99 1.278 . S
C96 O97 1.203 . S
C96 O103 1.267 . S
O97 C96 1.203 . S
O98 C91 1.185 . S
O98 Zn94 2.086 . S
C99 O95 1.278 . S
C99 O100 1.211 . S
O100 C99 1.211 . S
C101 O93 1.284 . S
C101 O102 1.273 . S
O102 C101 1.273 . S
O103 Zn94 1.977 . S
O103 C96 1.267 . S
C104 O105 1.160 . S
C104 O111 1.185 1_556 S
O105 C104 1.160 . S
O106 Zn107 1.899 1_556 S
O106 C114 1.294 . S
Zn107 O106 1.899 1_554 S
Zn107 O108 2.032 . S
Zn107 O111 2.086 . S
Zn107 O116 1.977 . S
O108 Zn107 2.032 . S
O108 C112 1.278 . S
C109 O110 1.203 . S
C109 O116 1.267 . S
O110 C109 1.203 . S
O111 C104 1.185 1_554 S
O111 Zn107 2.086 . S
C112 O108 1.278 . S
C112 O113 1.211 . S
O113 C112 1.211 . S
C114 O106 1.294 . S
C114 O115 1.222 1_556 S
O115 C114 1.222 1_554 S
O116 Zn107 1.977 . S
O116 C109 1.267 . S
C117 O118 1.160 . S
C117 O124 1.185 . S
O118 C117 1.160 . S
O119 Zn120 1.899 . S
O119 C127 1.284 . S
Zn120 O119 1.899 . S
Zn120 O121 2.032 . S
Zn120 O124 2.086 . S
Zn120 O129 1.977 . S
O121 Zn120 2.032 . S
O121 C125 1.278 . S
C122 O123 1.203 . S
C122 O129 1.267 . S
O123 C122 1.203 . S
O124 C117 1.185 . S
O124 Zn120 2.086 . S
C125 O121 1.278 . S
C125 O126 1.211 . S
O126 C125 1.211 . S
C127 O119 1.284 . S
C127 O128 1.273 . S
O128 C127 1.273 . S
O129 Zn120 1.977 . S
O129 C122 1.267 . S
C130 O131 1.160 . S
C130 O137 1.185 . S
O131 C130 1.160 . S
O132 Zn133 1.899 . S
O132 C140 1.284 . S
Zn133 O132 1.899 . S
Zn133 O134 2.032 . S
Zn133 O137 2.086 . S
Zn133 O142 1.977 . S
O134 Zn133 2.032 . S
O134 C138 1.278 . S
C135 O136 1.203 . S
C135 O142 1.267 . S
O136 C135 1.203 . S
O137 C130 1.185 . S
O137 Zn133 2.086 . S
C138 O134 1.278 . S
C138 O139 1.211 . S
O139 C138 1.211 . S
C140 O132 1.284 . S
C140 O141 1.273 . S
O141 C140 1.273 . S
O142 Zn133 1.977 . S
O142 C135 1.267 . S
C143 O144 1.160 . S
C143 O150 1.185 . S
O144 C143 1.160 . S
O145 Zn146 1.899 . S
O145 C153 1.284 . S
Zn146 O145 1.899 . S
Zn146 O147 2.032 . S
Zn146 O150 2.086 . S
Zn146 O155 1.977 . S
O147 Zn146 2.032 . S
O147 C151 1.278 . S
C148 O149 1.203 . S
C148 O155 1.267 . S
O149 C148 1.203 . S
O150 C143 1.185 . S
O150 Zn146 2.086 . S
C151 O147 1.278 . S
C151 O152 1.211 . S
O152 C151 1.211 . S
C153 O145 1.284 . S
C153 O154 1.273 . S
O154 C153 1.273 . S
O155 Zn146 1.977 . S
O155 C148 1.267 . S
C156 O157 1.160 . S
C156 O163 1.185 . S
O157 C156 1.160 . S
O158 Zn159 1.899 . S
O158 C166 1.284 . S
Zn159 O158 1.899 . S
Zn159 O160 2.032 . S
Zn159 O163 2.086 . S
Zn159 O168 1.977 . S
O160 Zn159 2.032 . S
O160 C164 1.278 . S
C161 O162 1.203 . S
C161 O168 1.267 . S
O162 C161 1.203 . S
O163 C156 1.185 . S
O163 Zn159 2.086 . S
C164 O160 1.278 . S
C164 O165 1.211 . S
O165 C164 1.211 . S
C166 O158 1.284 . S
C166 O167 1.273 . S
O167 C166 1.273 . S
O168 Zn159 1.977 . S
O168 C161 1.267 . S
C169 O170 1.160 . S
C169 O176 1.185 . S
O170 C169 1.160 . S
O171 Zn172 1.899 . S
O171 C179 1.284 . S
Zn172 O171 1.899 . S
Zn172 O173 2.032 . S
Zn172 O176 2.086 . S
Zn172 O181 1.977 . S
O173 Zn172 2.032 . S
O173 C177 1.278 . S
C174 O175 1.203 . S
C174 O181 1.267 . S
O175 C174 1.203 . S
O176 C169 1.185 . S
O176 Zn172 2.086 . S
C177 O173 1.278 . S
C177 O178 1.211 . S
O178 C177 1.211 . S
C179 O171 1.284 . S
C179 O180 1.273 . S
O180 C179 1.273 . S
O181 Zn172 1.977 . S
O181 C174 1.267 . S
C182 O183 1.160 . S
C182 O189 1.185 . S
O183 C182 1.160 . S
O184 Zn185 1.899 . S
O184 C192 1.284 . S
Zn185 O184 1.899 . S
Zn185 O186 2.032 . S
Zn185 O189 2.086 . S
Zn185 O194 1.977 . S
O186 Zn185 2.032 . S
O186 C190 1.278 . S
C187 O188 1.203 . S
C187 O194 1.267 . S
O188 C187 1.203 . S
O189 C182 1.185 . S
O189 Zn185 2.086 . S
C190 O186 1.278 . S
C190 O191 1.211 . S
O191 C190 1.211 . S
C192 O184 1.284 . S
C192 O193 1.273 . S
O193 C192 1.273 . S
O194 Zn185 1.977 . S
O194 C187 1.267 . S
C195 O196 1.164 . S
C195 O202 1.179 1_554 S
O196 C195 1.164 . S
O197 Zn198 1.859 1_554 S
O197 C205 1.278 1_554 S
Zn198 O197 1.859 1_556 S
Zn198 O199 2.032 . S
Zn198 O202 2.086 . S
Zn198 O207 1.977 . S
O199 Zn198 2.032 . S
O199 C203 1.278 . S
C200 O201 1.203 . S
C200 O207 1.267 . S
O201 C200 1.203 . S
O202 C195 1.179 1_556 S
O202 Zn198 2.086 . S
C203 O199 1.278 . S
C203 O204 1.211 . S
O204 C203 1.211 . S
C205 O197 1.278 1_556 S
C205 O206 1.273 . S
O206 C205 1.273 . S
O207 Zn198 1.977 . S
O207 C200 1.267 . S
C208 O209 1.160 . S
C208 O215 1.185 1_556 S
O209 C208 1.160 . S
O210 Zn211 1.899 1_556 S
O210 C218 1.284 . S
Zn211 O210 1.899 1_554 S
Zn211 O212 2.032 . S
Zn211 O215 2.086 . S
Zn211 O220 1.977 . S
O212 Zn211 2.032 . S
O212 C216 1.278 . S
C213 O214 1.203 . S
C213 O220 1.267 . S
O214 C213 1.203 . S
O215 C208 1.185 1_554 S
O215 Zn211 2.086 . S
C216 O212 1.278 . S
C216 O217 1.211 . S
O217 C216 1.211 . S
C218 O210 1.284 . S
C218 O219 1.273 1_556 S
O219 C218 1.273 1_554 S
O220 Zn211 1.977 . S
O220 C213 1.267 . S
C221 O222 1.160 . S
C221 O228 1.185 . S
O222 C221 1.160 . S
O223 Zn224 1.899 . S
O223 C231 1.284 . S
Zn224 O223 1.899 . S
Zn224 O225 2.032 . S
Zn224 O228 2.086 . S
Zn224 O233 1.977 . S
O225 Zn224 2.032 . S
O225 C229 1.278 . S
C226 O227 1.203 . S
C226 O233 1.267 . S
O227 C226 1.203 . S
O228 C221 1.185 . S
O228 Zn224 2.086 . S
C229 O225 1.278 . S
C229 O230 1.211 . S
O230 C229 1.211 . S
C231 O223 1.284 . S
C231 O232 1.273 . S
O232 C231 1.273 . S
O233 Zn224 1.977 . S
O233 C226 1.267 . S
C234 O235 1.160 . S
C234 O241 1.185 . S
O235 C234 1.160 . S
O236 Zn237 1.899 . S
O236 C244 1.284 . S
Zn237 O236 1.899 . S
Zn237 O238 2.032 . S
Zn237 O241 2.086 . S
Zn237 O246 1.977 . S
O238 Zn237 2.032 . S
O238 C242 1.278 . S
C239 O240 1.203 . S
C239 O246 1.267 . S
O240 C239 1.203 . S
O241 C234 1.185 . S
O241 Zn237 2.086 . S
C242 O238 1.278 . S
C242 O243 1.211 . S
O243 C242 1.211 . S
C244 O236 1.284 . S
C244 O245 1.273 . S
O245 C244 1.273 . S
O246 Zn237 1.977 . S
O246 C239 1.267 . S
C247 O248 1.160 . S
C247 O254 1.185 . S
O248 C247 1.160 . S
O249 Zn250 1.899 . S
O249 C257 1.284 . S
Zn250 O249 1.899 . S
Zn250 O251 2.032 . S
Zn250 O254 2.086 . S
Zn250 O259 1.977 . S
O251 Zn250 2.032 . S
O251 C255 1.278 . S
C252 O253 1.203 . S
C252 O259 1.267 . S
O253 C252 1.203 . S
O254 C247 1.185 . S
O254 Zn250 2.086 . S
C255 O251 1.278 . S
C255 O256 1.211 . S
O256 C255 1.211 . S
C257 O249 1.284 . S
C257 O258 1.273 . S
O258 C257 1.273 . S
O259 Zn250 1.977 . S
O259 C252 1.267 . S
C260 O261 1.160 . S
C260 O267 1.185 . S
O261 C260 1.160 . S
O262 Zn263 1.899 . S
O262 C270 1.284 . S
Zn263 O262 1.899 . S
Zn263 O264 2.032 . S
Zn263 O267 2.086 . S
Zn263 O272 1.977 . S
O264 Zn263 2.032 . S
O264 C268 1.278 . S
C265 O266 1.203 . S
C265 O272 1.267 . S
O266 C265 1.203 . S
O267 C260 1.185 . S
O267 Zn263 2.086 . S
C268 O264 1.278 . S
C268 O269 1.211 . S
O269 C268 1.211 . S
C270 O262 1.284 . S
C270 O271 1.273 . S
O271 C270 1.273 . S
O272 Zn263 1.977 . S
O272 C265 1.267 . S
C273 O274 1.160 . S
C273 O280 1.185 . S
O274 C273 1.160 . S
O275 Zn276 1.899 . S
O275 C283 1.284 . S
Zn276 O275 1.899 . S
Zn276 O277 2.032 . S
Zn276 O280 2.086 . S
Zn276 O285 1.977 . S
O277 Zn276 2.032 . S
O277 C281 1.278 . S
C278 O279 1.203 . S
C278 O285 1.267 . S
O279 C278 1.203 . S
O280 C273 1.185 . S
O280 Zn276 2.086 . S
C281 O277 1.278 . S
C281 O282 1.211 . S
O282 C281 1.211 . S
C283 O275 1.284 . S
C283 O284 1.273 . S
O284 C283 1.273 . S
O285 Zn276 1.977 . S
O285 C278 1.267 . S
C286 O287 1.162 . S
C286 O293 1.182 1_554 S
O287 C286 1.162 . S
O288 Zn289 1.863 1_554 S
O288 C296 1.279 1_554 S
Zn289 O288 1.863 1_556 S
Zn289 O290 2.032 . S
Zn289 O293 2.086 . S
Zn289 O298 1.977 . S
O290 Zn289 2.032 . S
O290 C294 1.278 . S
C291 O292 1.203 . S
C291 O298 1.267 . S
O292 C291 1.203 . S
O293 C286 1.182 1_556 S
O293 Zn289 2.086 . S
C294 O290 1.278 . S
C294 O295 1.211 . S
O295 C294 1.211 . S
C296 O288 1.279 1_556 S
C296 O297 1.273 . S
O297 C296 1.273 . S
O298 Zn289 1.977 . S
O298 C291 1.267 . S
C299 O300 1.160 . S
C299 O306 1.185 . S
O300 C299 1.160 . S
O301 Zn302 1.899 . S
O301 C309 1.284 . S
Zn302 O301 1.899 . S
Zn302 O303 2.032 . S
Zn302 O306 2.086 . S
Zn302 O311 1.977 . S
O303 Zn302 2.032 . S
O303 C307 1.278 . S
C304 O305 1.203 . S
C304 O311 1.267 . S
O305 C304 1.203 . S
O306 C299 1.185 . S
O306 Zn302 2.086 . S
C307 O303 1.278 . S
C307 O308 1.211 . S
O308 C307 1.211 . S
C309 O301 1.284 . S
C309 O310 1.273 . S
O310 C309 1.273 . S
O311 Zn302 1.977 . S
O311 C304 1.267 . S
C312 O313 1.160 . S
C312 O319 1.185 . S
O313 C312 1.160 . S
O314 Zn315 1.899 . S
O314 C322 1.284 . S
Zn315 O314 1.899 . S
Zn315 O316 2.032 . S
Zn315 O319 2.086 . S
Zn315 O324 1.977 . S
O316 Zn315 2.032 . S
O316 C320 1.278 . S
C317 O318 1.203 . S
C317 O324 1.267 . S
O318 C317 1.203 . S
O319 C312 1.185 . S
O319 Zn315 2.086 . S
C320 O316 1.278 . S
C320 O321 1.211 . S
O321 C320 1.211 . S
C322 O314 1.284 . S
C322 O323 1.273 . S
O323 C322 1.273 . S
O324 Zn315 1.977 . S
O324 C317 1.267 . S
C325 O326 1.160 . S
C325 O332 1.185 . S
O326 C325 1.160 . S
O327 Zn328 1.899 . S
O327 C335 1.284 . S
Zn328 O327 1.899 . S
Zn328 O329 2.032 . S
Zn328 O332 2.086 . S
Zn328 O337 1.977 . S
O329 Zn328 2.032 . S
O329 C333 1.278 . S
C330 O331 1.203 . S
C330 O337 1.267 . S
O331 C330 1.203 . S
O332 C325 1.185 . S
O332 Zn328 2.086 . S
C333 O329 1.278 . S
C333 O334 1.211 . S
O334 C333 1.211 . S
C335 O327 1.284 . S
C335 O336 1.273 . S
O336 C335 1.273 . S
O337 Zn328 1.977 . S
O337 C330 1.267 . S
C338 O339 1.160 . S
C338 O345 1.185 . S
O339 C338 1.160 . S
O340 Zn341 1.899 . S
O340 C348 1.284 . S
Zn341 O340 1.899 . S
Zn341 O342 2.032 . S
Zn341 O345 2.086 . S
Zn341 O350 1.977 . S
O342 Zn341 2.032 . S
O342 C346 1.278 . S
C343 O344 1.203 . S
C343 O350 1.267 . S
O344 C343 1.203 . S
O345 C338 1.185 . S
O345 Zn341 2.086 . S
C346 O342 1.278 . S
C346 O347 1.211 . S
O347 C346 1.211 . S
C348 O340 1.284 . S
C348 O349 1.273 . S
O349 C348 1.273 . S
O350 Zn341 1.977 . S
O350 C343 1.267 . S
C351 O352 1.160 . S
C351 O358 1.185 . S
O352 C351 1.160 . S
O353 Zn354 1.899 . S
O353 C361 1.284 . S
Zn354 O353 1.899 . S
Zn354 O355 2.032 . S
Zn354 O358 2.086 . S
Zn354 O363 1.977 . S
O355 Zn354 2.032 . S
O355 C359 1.278 . S
C356 O357 1.203 . S
C356 O363 1.267 . S
O357 C356 1.203 . S
O358 C351 1.185 . S
O358 Zn354 2.086 . S
C359 O355 1.278 . S
C359 O360 1.211 . S
O360 C359 1.211 . S
C361 O353 1.284 . S
C361 O362 1.273 . S
O362 C361 1.273 . S
O363 Zn354 1.977 . S
O363 C356 1.267 . S
C364 O365 1.160 . S
C364 O371 1.185 . S
O365 C364 1.160 . S
O366 Zn367 1.899 . S
O366 C374 1.284 . S
Zn367 O366 1.899 . S
Zn367 O368 2.032 . S
Zn367 O371 2.086 . S
Zn367 O376 1.977 . S
O368 Zn367 2.032 . S
O368 C372 1.278 . S
C369 O370 1.203 . S
C369 O376 1.267 . S
O370 C369 1.203 . S
O371 C364 1.185 . S
O371 Zn367 2.086 . S
C372 O368 1.278 . S
C372 O373 1.211 . S
O373 C372 1.211 . S
C374 O366 1.284 . S
C374 O375 1.273 . S
O375 C374 1.273 . S
O376 Zn367 1.977 . S
O376 C369 1.267 . S
C377 O378 1.160 . S
C377 O384 1.185 . S
O378 C377 1.160 . S
O379 Zn380 1.899 . S
O379 C387 1.284 . S
Zn380 O379 1.899 . S
Zn380 O381 2.032 . S
Zn380 O384 2.086 . S
Zn380 O389 1.977 . S
O381 Zn380 2.032 . S
O381 C385 1.278 . S
C382 O383 1.203 . S
C382 O389 1.267 . S
O383 C382 1.203 . S
O384 C377 1.185 . S
O384 Zn380 2.086 . S
C385 O381 1.278 . S
C385 O386 1.211 . S
O386 C385 1.211 . S
C387 O379 1.284 . S
C387 O388 1.273 . S
O388 C387 1.273 . S
O389 Zn380 1.977 . S
O389 C382 1.267 . S
C390 O391 1.160 . S
C390 O397 1.185 . S
O391 C390 1.160 . S
O392 Zn393 1.899 . S
O392 C400 1.284 . S
Zn393 O392 1.899 . S
Zn393 O394 2.032 . S
Zn393 O397 2.086 . S
Zn393 O402 1.977 . S
O394 Zn393 2.032 . S
O394 C398 1.278 . S
C395 O396 1.203 . S
C395 O402 1.267 . S
O396 C395 1.203 . S
O397 C390 1.185 . S
O397 Zn393 2.086 . S
C398 O394 1.278 . S
C398 O399 1.211 . S
O399 C398 1.211 . S
C400 O392 1.284 . S
C400 O401 1.273 . S
O401 C400 1.273 . S
O402 Zn393 1.977 . S
O402 C395 1.267 . S
C403 O404 1.160 . S
C403 O410 1.185 . S
O404 C403 1.160 . S
O405 Zn406 1.899 . S
O405 C413 1.284 . S
Zn406 O405 1.899 . S
Zn406 O407 2.032 . S
Zn406 O410 2.086 . S
Zn406 O415 1.977 . S
O407 Zn406 2.032 . S
O407 C411 1.278 . S
C408 O409 1.203 . S
C408 O415 1.267 . S
O409 C408 1.203 . S
O410 C403 1.185 . S
O410 Zn406 2.086 . S
C411 O407 1.278 . S
C411 O412 1.211 . S
O412 C411 1.211 . S
C413 O405 1.284 . S
C413 O414 1.273 . S
O414 C413 1.273 . S
O415 Zn406 1.977 . S
O415 C408 1.267 . S
C416 C417 1.349 . S
C416 C418 1.327 1_655 S
C416 H441 0.950 . S
C417 C416 1.349 . S
C417 C433 1.349 . S
C418 C416 1.327 1_455 S
C418 C437 1.429 . S
C418 H442 0.950 . S
C419 C436 1.574 . S
C419 C438 1.368 . S
C419 H443 0.949 . S
H420 C424 0.949 . S
C421 C422 1.349 . S
C421 C423 1.327 . S
C421 H444 0.950 . S
C422 C421 1.349 . S
C422 C434 1.349 . S
C423 C421 1.327 . S
C423 C439 1.429 1_545 S
C423 H445 0.944 1_545 S
C424 H420 0.949 . S
C424 C432 1.574 . S
C424 C440 1.368 . S
H425 C433 0.950 . S
H426 C431 0.950 . S
H427 C432 0.949 . S
H428 C434 0.950 . S
H429 C435 0.950 . S
H430 C436 0.949 . S
C431 H426 0.950 . S
C431 C433 1.327 . S
C431 C437 1.429 1_655 S
C432 C424 1.574 . S
C432 H427 0.949 . S
C432 C438 1.368 . S
C433 C417 1.349 . S
C433 H425 0.950 . S
C433 C431 1.327 . S
C434 C422 1.349 . S
C434 H428 0.950 . S
C434 C435 1.327 1_545 S
C435 H429 0.950 . S
C435 C434 1.327 1_565 S
C435 C439 1.429 . S
C436 C419 1.574 . S
C436 H430 0.949 . S
C436 C440 1.368 . S
C437 C418 1.429 . S
C437 C431 1.429 1_455 S
C437 C438 1.523 . S
C438 C419 1.368 . S
C438 C432 1.368 . S
C438 C437 1.523 . S
C439 C423 1.429 1_565 S
C439 C435 1.429 . S
C439 C440 1.523 . S
C440 C424 1.368 . S
C440 C436 1.368 . S
C440 C439 1.523 . S
H441 C416 0.950 . S
H442 C418 0.950 . S
H443 C419 0.949 . S
H444 C421 0.950 . S
H445 C423 0.944 1_565 S
C446 C447 1.349 . S
C446 C448 1.327 . S
C446 H471 0.950 . S
C447 C446 1.349 . S
C447 C463 1.349 . S
C448 C446 1.327 . S
C448 C467 1.429 . S
C448 H472 0.950 . S
C449 C466 1.574 . S
C449 C468 1.368 . S
C449 H473 0.949 . S
H450 C454 0.949 . S
C451 C452 1.349 . S
C451 C453 1.398 . S
C451 H474 0.950 . S
C452 C451 1.349 . S
C452 C464 1.349 . S
C453 C451 1.398 . S
C453 C469 1.410 1_455 S
C453 H475 0.901 1_455 S
C454 H450 0.949 . S
C454 C462 1.574 . S
C454 C470 1.368 . S
H455 C463 0.950 . S
H456 C461 0.950 . S
H457 C462 0.949 . S
H458 C464 0.950 . S
H459 C465 0.950 . S
H460 C466 0.949 . S
C461 H456 0.950 . S
C461 C463 1.327 . S
C461 C467 1.429 . S
C462 C454 1.574 . S
C462 H457 0.949 . S
C462 C468 1.368 . S
C463 C447 1.349 . S
C463 H455 0.950 . S
C463 C461 1.327 . S
C464 C452 1.349 . S
C464 H458 0.950 . S
C464 C465 1.327 . S
C465 H459 0.950 . S
C465 C464 1.327 . S
C465 C469 1.429 1_455 S
C466 C449 1.574 . S
C466 H460 0.949 . S
C466 C470 1.368 . S
C467 C448 1.429 . S
C467 C461 1.429 . S
C467 C468 1.523 . S
C468 C449 1.368 . S
C468 C462 1.368 . S
C468 C467 1.523 . S
C469 C453 1.410 1_655 S
C469 C465 1.429 1_655 S
C469 C470 1.523 . S
C470 C454 1.368 . S
C470 C466 1.368 . S
C470 C469 1.523 . S
H471 C446 0.950 . S
H472 C448 0.950 . S
H473 C449 0.949 . S
H474 C451 0.950 . S
H475 C453 0.901 1_655 S
C476 C477 1.349 . S
C476 C478 1.327 . S
C476 H501 0.950 . S
C477 C476 1.349 . S
C477 C493 1.349 . S
C478 C476 1.327 . S
C478 C497 1.429 . S
C478 H502 0.950 . S
C479 C496 1.574 . S
C479 C498 1.368 1_554 S
C479 H503 0.949 . S
H480 C484 0.949 . S
C481 C482 1.349 . S
C481 C483 1.327 . S
C481 H504 0.950 . S
C482 C481 1.349 . S
C482 C494 1.349 . S
C483 C481 1.327 . S
C483 C499 1.429 . S
C483 H505 0.950 . S
C484 H480 0.949 . S
C484 C492 1.574 . S
C484 C500 1.368 1_556 S
H485 C493 0.950 . S
H486 C491 0.950 1_554 S
H487 C492 0.949 . S
H488 C494 0.950 . S
H489 C495 0.950 1_556 S
H490 C496 0.949 . S
C491 H486 0.950 1_556 S
C491 C493 1.327 . S
C491 C497 1.429 . S
C492 C484 1.574 . S
C492 H487 0.949 . S
C492 C498 1.368 . S
C493 C477 1.349 . S
C493 H485 0.950 . S
C493 C491 1.327 . S
C494 C482 1.349 . S
C494 H488 0.950 . S
C494 C495 1.327 . S
C495 H489 0.950 1_554 S
C495 C494 1.327 . S
C495 C499 1.429 . S
C496 C479 1.574 . S
C496 H490 0.949 . S
C496 C500 1.368 . S
C497 C478 1.429 . S
C497 C491 1.429 . S
C497 C498 1.523 . S
C498 C479 1.368 1_556 S
C498 C492 1.368 . S
C498 C497 1.523 . S
C499 C483 1.429 . S
C499 C495 1.429 . S
C499 C500 1.523 . S
C500 C484 1.368 1_554 S
C500 C496 1.368 . S
C500 C499 1.523 . S
H501 C476 0.950 . S
H502 C478 0.950 . S
H503 C479 0.949 . S
H504 C481 0.950 . S
H505 C483 0.950 . S
C506 C507 1.349 . S
C506 C508 1.327 . S
C506 H531 0.950 . S
C507 C506 1.349 . S
C507 C523 1.349 . S
C508 C506 1.327 . S
C508 C527 1.429 . S
C508 H532 0.950 . S
C509 C526 1.574 . S
C509 C528 1.368 . S
C509 H533 0.949 . S
H510 C514 0.949 . S
C511 C512 1.349 . S
C511 C513 1.327 . S
C511 H534 0.950 . S
C512 C511 1.349 . S
C512 C524 1.349 . S
C513 C511 1.327 . S
C513 C529 1.429 1_565 S
C513 H535 0.949 1_565 S
C514 H510 0.949 . S
C514 C522 1.574 . S
C514 C530 1.368 . S
H515 C523 0.950 . S
H516 C521 0.950 . S
H517 C522 0.949 . S
H518 C524 0.950 . S
H519 C525 0.950 . S
H520 C526 0.949 . S
C521 H516 0.950 . S
C521 C523 1.327 . S
C521 C527 1.429 . S
C522 C514 1.574 . S
C522 H517 0.949 . S
C522 C528 1.368 . S
C523 C507 1.349 . S
C523 H515 0.950 . S
C523 C521 1.327 . S
C524 C512 1.349 . S
C524 H518 0.950 . S
C524 C525 1.327 1_565 S
C525 H519 0.950 . S
C525 C524 1.327 1_545 S
C525 C529 1.429 . S
C526 C509 1.574 . S
C526 H520 0.949 . S
C526 C530 1.368 . S
C527 C508 1.429 . S
C527 C521 1.429 . S
C527 C528 1.523 . S
C528 C509 1.368 . S
C528 C522 1.368 . S
C528 C527 1.523 . S
C529 C513 1.429 1_545 S
C529 C525 1.429 . S
C529 C530 1.523 . S
C530 C514 1.368 . S
C530 C526 1.368 . S
C530 C529 1.523 . S
H531 C506 0.950 . S
H532 C508 0.950 . S
H533 C509 0.949 . S
H534 C511 0.950 . S
H535 C513 0.949 1_545 S
C536 C537 1.349 . S
C536 C538 1.327 1_545 S
C536 H561 0.950 . S
C537 C536 1.349 . S
C537 C553 1.349 1_556 S
C538 C536 1.327 1_565 S
C538 C557 1.429 . S
C538 H562 0.950 . S
C539 C556 1.574 . S
C539 C558 1.368 1_554 S
C539 H563 0.949 . S
H540 C544 0.949 . S
C541 C542 1.349 . S
C541 C543 1.327 . S
C541 H564 0.950 . S
C542 C541 1.349 . S
C542 C554 1.349 1_554 S
C543 C541 1.327 . S
C543 C559 1.395 1_554 S
C543 H565 0.950 . S
C544 H540 0.949 . S
C544 C552 1.574 . S
C544 C560 1.368 . S
H545 C553 0.950 . S
H546 C551 0.950 . S
H547 C552 0.949 . S
H548 C554 0.950 . S
H549 C555 0.950 . S
H550 C556 0.949 . S
C551 H546 0.950 . S
C551 C553 1.327 . S
C551 C557 1.429 1_544 S
C552 C544 1.574 . S
C552 H547 0.949 . S
C552 C558 1.368 . S
C553 C537 1.349 1_554 S
C553 H545 0.950 . S
C553 C551 1.327 . S
C554 C542 1.349 1_556 S
C554 H548 0.950 . S
C554 C555 1.327 . S
C555 H549 0.950 . S
C555 C554 1.327 . S
C555 C559 1.455 . S
C556 C539 1.574 . S
C556 H550 0.949 . S
C556 C560 1.368 1_554 S
C557 C538 1.429 . S
C557 C551 1.429 1_566 S
C557 C558 1.523 . S
C558 C539 1.368 1_556 S
C558 C552 1.368 . S
C558 C557 1.523 . S
C559 C543 1.395 1_556 S
C559 C555 1.455 . S
C559 C560 1.530 . S
C560 C544 1.368 . S
C560 C556 1.368 1_556 S
C560 C559 1.530 . S
H561 C536 0.950 . S
H562 C538 0.950 . S
H563 C539 0.949 . S
H564 C541 0.950 . S
H565 C543 0.950 . S
C566 C567 1.349 . S
C566 C568 1.327 . S
C566 H591 0.950 . S
C567 C566 1.349 . S
C567 C583 1.349 . S
C568 C566 1.327 . S
C568 C587 1.429 . S
C568 H592 0.950 . S
C569 C586 1.574 . S
C569 C588 1.368 . S
C569 H593 0.949 . S
H570 C574 0.949 . S
C571 C572 1.349 . S
C571 C573 1.327 1_455 S
C571 H594 0.950 . S
C572 C571 1.349 . S
C572 C584 1.349 . S
C573 C571 1.327 1_655 S
C573 C589 1.429 . S
C573 H595 0.950 . S
C574 H570 0.949 . S
C574 C582 1.574 . S
C574 C590 1.368 . S
H575 C583 0.950 . S
H576 C581 0.950 . S
H577 C582 0.949 . S
H578 C584 0.950 . S
H579 C585 0.950 . S
H580 C586 0.949 . S
C581 H576 0.950 . S
C581 C583 1.327 . S
C581 C587 1.429 . S
C582 C574 1.574 . S
C582 H577 0.949 . S
C582 C588 1.368 . S
C583 C567 1.349 . S
C583 H575 0.950 . S
C583 C581 1.327 . S
C584 C572 1.349 . S
C584 H578 0.950 . S
C584 C585 1.327 . S
C585 H579 0.950 . S
C585 C584 1.327 . S
C585 C589 1.429 1_455 S
C586 C569 1.574 . S
C586 H580 0.949 . S
C586 C590 1.368 . S
C587 C568 1.429 . S
C587 C581 1.429 . S
C587 C588 1.523 . S
C588 C569 1.368 . S
C588 C582 1.368 . S
C588 C587 1.523 . S
C589 C573 1.429 . S
C589 C585 1.429 1_655 S
C589 C590 1.523 . S
C590 C574 1.368 . S
C590 C586 1.368 . S
C590 C589 1.523 . S
H591 C566 0.950 . S
H592 C568 0.950 . S
H593 C569 0.949 . S
H594 C571 0.950 . S
H595 C573 0.950 . S
C596 C597 1.349 . S
C596 C598 1.327 . S
C596 H621 0.950 . S
C597 C596 1.349 . S
C597 C613 1.349 . S
C598 C596 1.327 . S
C598 C617 1.429 . S
C598 H622 0.950 . S
C599 C616 1.574 . S
C599 C618 1.368 . S
C599 H623 0.949 . S
H600 C604 0.949 . S
C601 C602 1.349 . S
C601 C603 1.327 . S
C601 H624 0.950 . S
C602 C601 1.349 . S
C602 C614 1.349 . S
C603 C601 1.327 . S
C603 C619 1.429 . S
C603 H625 0.950 . S
C604 H600 0.949 . S
C604 C612 1.574 . S
C604 C620 1.368 . S
H605 C613 0.950 . S
H606 C611 0.950 . S
H607 C612 0.949 . S
H608 C614 0.950 . S
H609 C615 0.950 . S
H610 C616 0.949 . S
C611 H606 0.950 . S
C611 C613 1.327 . S
C611 C617 1.429 . S
C612 C604 1.574 . S
C612 H607 0.949 . S
C612 C618 1.368 . S
C613 C597 1.349 . S
C613 H605 0.950 . S
C613 C611 1.327 . S
C614 C602 1.349 . S
C614 H608 0.950 . S
C614 C615 1.327 . S
C615 H609 0.950 . S
C615 C614 1.327 . S
C615 C619 1.429 . S
C616 C599 1.574 . S
C616 H610 0.949 . S
C616 C620 1.368 . S
C617 C598 1.429 . S
C617 C611 1.429 . S
C617 C618 1.523 . S
C618 C599 1.368 . S
C618 C612 1.368 . S
C618 C617 1.523 . S
C619 C603 1.429 . S
C619 C615 1.429 . S
C619 C620 1.523 . S
C620 C604 1.368 . S
C620 C616 1.368 . S
C620 C619 1.523 . S
H621 C596 0.950 . S
H622 C598 0.950 . S
H623 C599 0.949 . S
H624 C601 0.950 . S
H625 C603 0.950 . S
C626 C627 1.349 . S
C626 C628 1.327 . S
C626 H651 0.950 . S
C627 C626 1.349 . S
C627 C643 1.349 . S
C628 C626 1.327 . S
C628 C647 1.429 . S
C628 H652 0.950 . S
C629 C646 1.574 . S
C629 C648 1.368 . S
C629 H653 0.949 . S
H630 C634 0.949 . S
C631 C632 1.349 . S
C631 C633 1.327 . S
C631 H654 0.950 . S
C632 C631 1.349 . S
C632 C644 1.349 . S
C633 C631 1.327 . S
C633 C649 1.429 . S
C633 H655 0.950 . S
C634 H630 0.949 . S
C634 C642 1.574 . S
C634 C650 1.368 . S
H635 C643 0.950 . S
H636 C641 0.950 . S
H637 C642 0.949 . S
H638 C644 0.950 . S
H639 C645 0.950 . S
H640 C646 0.949 . S
C641 H636 0.950 . S
C641 C643 1.327 . S
C641 C647 1.429 . S
C642 C634 1.574 . S
C642 H637 0.949 . S
C642 C648 1.368 . S
C643 C627 1.349 . S
C643 H635 0.950 . S
C643 C641 1.327 . S
C644 C632 1.349 . S
C644 H638 0.950 . S
C644 C645 1.327 . S
C645 H639 0.950 . S
C645 C644 1.327 . S
C645 C649 1.429 . S
C646 C629 1.574 . S
C646 H640 0.949 . S
C646 C650 1.368 . S
C647 C628 1.429 . S
C647 C641 1.429 . S
C647 C648 1.523 . S
C648 C629 1.368 . S
C648 C642 1.368 . S
C648 C647 1.523 . S
C649 C633 1.429 . S
C649 C645 1.429 . S
C649 C650 1.523 . S
C650 C634 1.368 . S
C650 C646 1.368 . S
C650 C649 1.523 . S
H651 C626 0.950 . S
H652 C628 0.950 . S
H653 C629 0.949 . S
H654 C631 0.950 . S
H655 C633 0.950 . S
C656 C657 1.349 . S
C656 C658 1.327 . S
C656 H681 0.950 . S
C657 C656 1.349 . S
C657 C673 1.349 . S
C658 C656 1.327 . S
C658 C677 1.429 . S
C658 H682 0.950 . S
C659 C676 1.574 . S
C659 C678 1.368 . S
C659 H683 0.949 . S
H660 C664 0.949 . S
C661 C662 1.349 . S
C661 C663 1.327 . S
C661 H684 0.950 . S
C662 C661 1.349 . S
C662 C674 1.349 . S
C663 C661 1.327 . S
C663 C679 1.429 . S
C663 H685 0.950 . S
C664 H660 0.949 . S
C664 C672 1.574 . S
C664 C680 1.368 . S
H665 C673 0.950 . S
H666 C671 0.950 . S
H667 C672 0.949 . S
H668 C674 0.950 . S
H669 C675 0.950 . S
H670 C676 0.949 . S
C671 H666 0.950 . S
C671 C673 1.327 . S
C671 C677 1.429 . S
C672 C664 1.574 . S
C672 H667 0.949 . S
C672 C678 1.368 . S
C673 C657 1.349 . S
C673 H665 0.950 . S
C673 C671 1.327 . S
C674 C662 1.349 . S
C674 H668 0.950 . S
C674 C675 1.327 . S
C675 H669 0.950 . S
C675 C674 1.327 . S
C675 C679 1.429 . S
C676 C659 1.574 . S
C676 H670 0.949 . S
C676 C680 1.368 . S
C677 C658 1.429 . S
C677 C671 1.429 . S
C677 C678 1.523 . S
C678 C659 1.368 . S
C678 C672 1.368 . S
C678 C677 1.523 . S
C679 C663 1.429 . S
C679 C675 1.429 . S
C679 C680 1.523 . S
C680 C664 1.368 . S
C680 C676 1.368 . S
C680 C679 1.523 . S
H681 C656 0.950 . S
H682 C658 0.950 . S
H683 C659 0.949 . S
H684 C661 0.950 . S
H685 C663 0.950 . S
C686 C687 1.349 . S
C686 C688 1.327 . S
C686 H711 0.950 . S
C687 C686 1.349 . S
C687 C703 1.349 . S
C688 C686 1.327 . S
C688 C707 1.429 . S
C688 H712 0.950 . S
C689 C706 1.574 . S
C689 C708 1.368 . S
C689 H713 0.949 . S
H690 C694 0.949 . S
C691 C692 1.349 . S
C691 C693 1.327 . S
C691 H714 0.950 . S
C692 C691 1.349 . S
C692 C704 1.349 . S
C693 C691 1.327 . S
C693 C709 1.429 . S
C693 H715 0.950 . S
C694 H690 0.949 . S
C694 C702 1.574 . S
C694 C710 1.368 . S
H695 C703 0.950 . S
H696 C701 0.950 . S
H697 C702 0.949 . S
H698 C704 0.950 . S
H699 C705 0.950 . S
H700 C706 0.949 . S
C701 H696 0.950 . S
C701 C703 1.327 . S
C701 C707 1.429 . S
C702 C694 1.574 . S
C702 H697 0.949 . S
C702 C708 1.368 . S
C703 C687 1.349 . S
C703 H695 0.950 . S
C703 C701 1.327 . S
C704 C692 1.349 . S
C704 H698 0.950 . S
C704 C705 1.327 . S
C705 H699 0.950 . S
C705 C704 1.327 . S
C705 C709 1.429 . S
C706 C689 1.574 . S
C706 H700 0.949 . S
C706 C710 1.368 . S
C707 C688 1.429 . S
C707 C701 1.429 . S
C707 C708 1.523 . S
C708 C689 1.368 . S
C708 C702 1.368 . S
C708 C707 1.523 . S
C709 C693 1.429 . S
C709 C705 1.429 . S
C709 C710 1.523 . S
C710 C694 1.368 . S
C710 C706 1.368 . S
C710 C709 1.523 . S
H711 C686 0.950 . S
H712 C688 0.950 . S
H713 C689 0.949 . S
H714 C691 0.950 . S
H715 C693 0.950 . S
C716 C717 1.349 . S
C716 C718 1.327 . S
C716 H741 0.950 . S
C717 C716 1.349 . S
C717 C733 1.349 . S
C718 C716 1.327 . S
C718 C737 1.429 . S
C718 H742 0.950 . S
C719 C736 1.574 . S
C719 C738 1.368 . S
C719 H743 0.949 . S
H720 C724 0.949 . S
C721 C722 1.349 . S
C721 C723 1.327 . S
C721 H744 0.950 . S
C722 C721 1.349 . S
C722 C734 1.349 . S
C723 C721 1.327 . S
C723 C739 1.429 1_565 S
C723 H745 0.945 1_565 S
C724 H720 0.949 . S
C724 C732 1.574 . S
C724 C740 1.368 . S
H725 C733 0.950 . S
H726 C731 0.950 . S
H727 C732 0.949 . S
H728 C734 0.950 . S
H729 C735 0.950 . S
H730 C736 0.949 . S
C731 H726 0.950 . S
C731 C733 1.327 . S
C731 C737 1.429 . S
C732 C724 1.574 . S
C732 H727 0.949 . S
C732 C738 1.368 . S
C733 C717 1.349 . S
C733 H725 0.950 . S
C733 C731 1.327 . S
C734 C722 1.349 . S
C734 H728 0.950 . S
C734 C735 1.327 1_565 S
C735 H729 0.950 . S
C735 C734 1.327 1_545 S
C735 C739 1.429 . S
C736 C719 1.574 . S
C736 H730 0.949 . S
C736 C740 1.368 . S
C737 C718 1.429 . S
C737 C731 1.429 . S
C737 C738 1.523 . S
C738 C719 1.368 . S
C738 C732 1.368 . S
C738 C737 1.523 . S
C739 C723 1.429 1_545 S
C739 C735 1.429 . S
C739 C740 1.523 . S
C740 C724 1.368 . S
C740 C736 1.368 . S
C740 C739 1.523 . S
H741 C716 0.950 . S
H742 C718 0.950 . S
H743 C719 0.949 . S
H744 C721 0.950 . S
H745 C723 0.945 1_545 S
C746 C747 1.349 . S
C746 C748 1.327 1_655 S
C746 H771 0.950 . S
C747 C746 1.349 . S
C747 C763 1.349 1_554 S
C748 C746 1.327 1_455 S
C748 C767 1.402 1_554 S
C748 H772 0.950 . S
C749 C766 1.574 . S
C749 C768 1.368 . S
C749 H773 0.949 . S
H750 C754 0.949 . S
C751 C752 1.349 . S
C751 C753 1.327 . S
C751 H774 0.950 . S
C752 C751 1.349 . S
C752 C764 1.349 1_556 S
C753 C751 1.327 . S
C753 C769 1.429 . S
C753 H775 0.950 . S
C754 H750 0.949 . S
C754 C762 1.574 . S
C754 C770 1.368 1_554 S
H755 C763 0.950 . S
H756 C761 0.950 . S
H757 C762 0.949 . S
H758 C764 0.950 . S
H759 C765 0.950 . S
H760 C766 0.949 . S
C761 H756 0.950 . S
C761 C763 1.327 . S
C761 C767 1.449 1_655 S
C762 C754 1.574 . S
C762 H757 0.949 . S
C762 C768 1.368 1_554 S
C763 C747 1.349 1_556 S
C763 H755 0.950 . S
C763 C761 1.327 . S
C764 C752 1.349 1_554 S
C764 H758 0.950 . S
C764 C765 1.327 . S
C765 H759 0.950 . S
C765 C764 1.327 . S
C765 C769 1.429 1_554 S
C766 C749 1.574 . S
C766 H760 0.949 . S
C766 C770 1.368 . S
C767 C748 1.402 1_556 S
C767 C761 1.449 1_455 S
C767 C768 1.530 . S
C768 C749 1.368 . S
C768 C762 1.368 1_556 S
C768 C767 1.530 . S
C769 C753 1.429 . S
C769 C765 1.429 1_556 S
C769 C770 1.523 . S
C770 C754 1.368 1_556 S
C770 C766 1.368 . S
C770 C769 1.523 . S
H771 C746 0.950 . S
H772 C748 0.950 . S
H773 C749 0.949 . S
H774 C751 0.950 . S
H775 C753 0.950 . S
C776 C777 1.349 . S
C776 C778 1.327 . S
C776 H801 0.950 . S
C777 C776 1.349 . S
C777 C793 1.349 . S
C778 C776 1.327 . S
C778 C797 1.429 . S
C778 H802 0.950 . S
C779 C796 1.574 . S
C779 C798 1.368 . S
C779 H803 0.949 . S
H780 C784 0.949 . S
C781 C782 1.349 . S
C781 C783 1.327 . S
C781 H804 0.950 . S
C782 C781 1.349 . S
C782 C794 1.349 . S
C783 C781 1.327 . S
C783 C799 1.429 . S
C783 H805 0.950 . S
C784 H780 0.949 . S
C784 C792 1.574 . S
C784 C800 1.368 . S
H785 C793 0.950 . S
H786 C791 0.950 . S
H787 C792 0.949 . S
H788 C794 0.950 . S
H789 C795 0.950 . S
H790 C796 0.949 . S
C791 H786 0.950 . S
C791 C793 1.327 . S
C791 C797 1.429 . S
C792 C784 1.574 . S
C792 H787 0.949 . S
C792 C798 1.368 . S
C793 C777 1.349 . S
C793 H785 0.950 . S
C793 C791 1.327 . S
C794 C782 1.349 . S
C794 H788 0.950 . S
C794 C795 1.327 . S
C795 H789 0.950 . S
C795 C794 1.327 . S
C795 C799 1.429 . S
C796 C779 1.574 . S
C796 H790 0.949 . S
C796 C800 1.368 . S
C797 C778 1.429 . S
C797 C791 1.429 . S
C797 C798 1.523 . S
C798 C779 1.368 . S
C798 C792 1.368 . S
C798 C797 1.523 . S
C799 C783 1.429 . S
C799 C795 1.429 . S
C799 C800 1.523 . S
C800 C784 1.368 . S
C800 C796 1.368 . S
C800 C799 1.523 . S
H801 C776 0.950 . S
H802 C778 0.950 . S
H803 C779 0.949 . S
H804 C781 0.950 . S
H805 C783 0.950 . S
C806 C807 1.349 . S
C806 C808 1.327 1_554 S
C806 H831 0.950 1_554 S
C807 C806 1.349 . S
C807 C823 1.349 . S
C808 C806 1.327 1_556 S
C808 C827 1.429 1_556 S
C808 H832 0.950 . S
C809 C826 1.574 . S
C809 C828 1.368 . S
C809 H833 0.949 . S
H810 C814 0.949 . S
C811 C812 1.349 . S
C811 C813 1.339 . S
C811 H834 0.950 1_556 S
C812 C811 1.349 . S
C812 C824 1.349 . S
C813 C811 1.339 . S
C813 C829 1.445 . S
C813 H835 0.921 1_556 S
C814 H810 0.949 . S
C814 C822 1.574 . S
C814 C830 1.368 . S
H815 C823 0.950 . S
H816 C821 0.950 . S
H817 C822 0.949 . S
H818 C824 0.950 . S
H819 C825 0.950 . S
H820 C826 0.949 . S
C821 H816 0.950 . S
C821 C823 1.327 . S
C821 C827 1.429 . S
C822 C814 1.574 . S
C822 H817 0.949 . S
C822 C828 1.368 1_556 S
C823 C807 1.349 . S
C823 H815 0.950 . S
C823 C821 1.327 . S
C824 C812 1.349 . S
C824 H818 0.950 . S
C824 C825 1.327 . S
C825 H819 0.950 . S
C825 C824 1.327 . S
C825 C829 1.429 . S
C826 C809 1.574 . S
C826 H820 0.949 . S
C826 C830 1.368 1_554 S
C827 C808 1.429 1_554 S
C827 C821 1.429 . S
C827 C828 1.523 . S
C828 C809 1.368 . S
C828 C822 1.368 1_554 S
C828 C827 1.523 . S
C829 C813 1.445 . S
C829 C825 1.429 . S
C829 C830 1.523 . S
C830 C814 1.368 . S
C830 C826 1.368 1_556 S
C830 C829 1.523 . S
H831 C806 0.950 1_556 S
H832 C808 0.950 . S
H833 C809 0.949 . S
H834 C811 0.950 1_554 S
H835 C813 0.921 1_554 S
C836 C837 1.349 . S
C836 C838 1.327 . S
C836 H861 0.950 . S
C837 C836 1.349 . S
C837 C853 1.349 . S
C838 C836 1.327 . S
C838 C857 1.429 . S
C838 H862 0.950 . S
C839 C856 1.574 . S
C839 C858 1.368 . S
C839 H863 0.949 . S
H840 C844 0.949 . S
C841 C842 1.349 . S
C841 C843 1.327 . S
C841 H864 0.950 . S
C842 C841 1.349 . S
C842 C854 1.349 . S
C843 C841 1.327 . S
C843 C859 1.429 . S
C843 H865 0.950 . S
C844 H840 0.949 . S
C844 C852 1.574 . S
C844 C860 1.368 . S
H845 C853 0.950 . S
H846 C851 0.950 . S
H847 C852 0.949 . S
H848 C854 0.950 . S
H849 C855 0.950 . S
H850 C856 0.949 . S
C851 H846 0.950 . S
C851 C853 1.327 . S
C851 C857 1.429 . S
C852 C844 1.574 . S
C852 H847 0.949 . S
C852 C858 1.368 . S
C853 C837 1.349 . S
C853 H845 0.950 . S
C853 C851 1.327 . S
C854 C842 1.349 . S
C854 H848 0.950 . S
C854 C855 1.327 . S
C855 H849 0.950 . S
C855 C854 1.327 . S
C855 C859 1.429 . S
C856 C839 1.574 . S
C856 H850 0.949 . S
C856 C860 1.368 . S
C857 C838 1.429 . S
C857 C851 1.429 . S
C857 C858 1.523 . S
C858 C839 1.368 . S
C858 C852 1.368 . S
C858 C857 1.523 . S
C859 C843 1.429 . S
C859 C855 1.429 . S
C859 C860 1.523 . S
C860 C844 1.368 . S
C860 C856 1.368 . S
C860 C859 1.523 . S
H861 C836 0.950 . S
H862 C838 0.950 . S
H863 C839 0.949 . S
H864 C841 0.950 . S
H865 C843 0.950 . S
C866 C867 1.349 . S
C866 C868 1.327 . S
C866 H891 0.950 . S
C867 C866 1.349 . S
C867 C883 1.349 . S
C868 C866 1.327 . S
C868 C887 1.429 . S
C868 H892 0.950 . S
C869 C886 1.574 . S
C869 C888 1.368 . S
C869 H893 0.949 . S
H870 C874 0.949 . S
C871 C872 1.349 . S
C871 C873 1.327 . S
C871 H894 0.950 . S
C872 C871 1.349 . S
C872 C884 1.349 . S
C873 C871 1.327 . S
C873 C889 1.429 . S
C873 H895 0.950 . S
C874 H870 0.949 . S
C874 C882 1.574 . S
C874 C890 1.368 . S
H875 C883 0.950 . S
H876 C881 0.950 . S
H877 C882 0.949 . S
H878 C884 0.950 . S
H879 C885 0.950 . S
H880 C886 0.949 . S
C881 H876 0.950 . S
C881 C883 1.327 . S
C881 C887 1.429 . S
C882 C874 1.574 . S
C882 H877 0.949 . S
C882 C888 1.368 . S
C883 C867 1.349 . S
C883 H875 0.950 . S
C883 C881 1.327 . S
C884 C872 1.349 . S
C884 H878 0.950 . S
C884 C885 1.327 . S
C885 H879 0.950 . S
C885 C884 1.327 . S
C885 C889 1.429 . S
C886 C869 1.574 . S
C886 H880 0.949 . S
C886 C890 1.368 . S
C887 C868 1.429 . S
C887 C881 1.429 . S
C887 C888 1.523 . S
C888 C869 1.368 . S
C888 C882 1.368 . S
C888 C887 1.523 . S
C889 C873 1.429 . S
C889 C885 1.429 . S
C889 C890 1.523 . S
C890 C874 1.368 . S
C890 C886 1.368 . S
C890 C889 1.523 . S
H891 C866 0.950 . S
H892 C868 0.950 . S
H893 C869 0.949 . S
H894 C871 0.950 . S
H895 C873 0.950 . S
C896 C897 1.349 . S
C896 C898 1.327 . S
C896 H921 0.950 . S
C897 C896 1.349 . S
C897 C913 1.349 . S
C898 C896 1.327 . S
C898 C917 1.429 . S
C898 H922 0.950 . S
C899 C916 1.574 . S
C899 C918 1.368 . S
C899 H923 0.949 . S
H900 C904 0.949 . S
C901 C902 1.349 . S
C901 C903 1.327 . S
C901 H924 0.950 . S
C902 C901 1.349 . S
C902 C914 1.349 . S
C903 C901 1.327 . S
C903 C919 1.429 . S
C903 H925 0.950 . S
C904 H900 0.949 . S
C904 C912 1.574 . S
C904 C920 1.368 . S
H905 C913 0.950 . S
H906 C911 0.950 . S
H907 C912 0.949 . S
H908 C914 0.950 . S
H909 C915 0.950 . S
H910 C916 0.949 . S
C911 H906 0.950 . S
C911 C913 1.327 . S
C911 C917 1.429 . S
C912 C904 1.574 . S
C912 H907 0.949 . S
C912 C918 1.368 . S
C913 C897 1.349 . S
C913 H905 0.950 . S
C913 C911 1.327 . S
C914 C902 1.349 . S
C914 H908 0.950 . S
C914 C915 1.327 . S
C915 H909 0.950 . S
C915 C914 1.327 . S
C915 C919 1.429 . S
C916 C899 1.574 . S
C916 H910 0.949 . S
C916 C920 1.368 . S
C917 C898 1.429 . S
C917 C911 1.429 . S
C917 C918 1.523 . S
C918 C899 1.368 . S
C918 C912 1.368 . S
C918 C917 1.523 . S
C919 C903 1.429 . S
C919 C915 1.429 . S
C919 C920 1.523 . S
C920 C904 1.368 . S
C920 C916 1.368 . S
C920 C919 1.523 . S
H921 C896 0.950 . S
H922 C898 0.950 . S
H923 C899 0.949 . S
H924 C901 0.950 . S
H925 C903 0.950 . S
C926 C927 1.349 . S
C926 C928 1.327 . S
C926 H951 0.950 . S
C927 C926 1.349 . S
C927 C943 1.349 . S
C928 C926 1.327 . S
C928 C947 1.429 . S
C928 H952 0.950 . S
C929 C946 1.574 . S
C929 C948 1.368 . S
C929 H953 0.949 . S
H930 C934 0.949 . S
C931 C932 1.349 . S
C931 C933 1.327 . S
C931 H954 0.950 . S
C932 C931 1.349 . S
C932 C944 1.349 . S
C933 C931 1.327 . S
C933 C949 1.429 . S
C933 H955 0.950 . S
C934 H930 0.949 . S
C934 C942 1.574 . S
C934 C950 1.368 . S
H935 C943 0.950 . S
H936 C941 0.950 . S
H937 C942 0.949 . S
H938 C944 0.950 . S
H939 C945 0.950 . S
H940 C946 0.949 . S
C941 H936 0.950 . S
C941 C943 1.327 . S
C941 C947 1.429 . S
C942 C934 1.574 . S
C942 H937 0.949 . S
C942 C948 1.368 . S
C943 C927 1.349 . S
C943 H935 0.950 . S
C943 C941 1.327 . S
C944 C932 1.349 . S
C944 H938 0.950 . S
C944 C945 1.327 . S
C945 H939 0.950 . S
C945 C944 1.327 . S
C945 C949 1.429 . S
C946 C929 1.574 . S
C946 H940 0.949 . S
C946 C950 1.368 . S
C947 C928 1.429 . S
C947 C941 1.429 . S
C947 C948 1.523 . S
C948 C929 1.368 . S
C948 C942 1.368 . S
C948 C947 1.523 . S
C949 C933 1.429 . S
C949 C945 1.429 . S
C949 C950 1.523 . S
C950 C934 1.368 . S
C950 C946 1.368 . S
C950 C949 1.523 . S
H951 C926 0.950 . S
H952 C928 0.950 . S
H953 C929 0.949 . S
H954 C931 0.950 . S
H955 C933 0.950 . S
C956 C957 1.349 . S
C956 C958 1.327 . S
C956 H981 0.950 . S
C957 C956 1.349 . S
C957 C973 1.349 1_556 S
C958 C956 1.327 . S
C958 C977 1.429 . S
C958 H982 0.950 . S
C959 C976 1.574 . S
C959 C978 1.368 1_554 S
C959 H983 0.949 . S
H960 C964 0.949 . S
C961 C962 1.349 . S
C961 C963 1.327 . S
C961 H984 0.950 . S
C962 C961 1.349 . S
C962 C974 1.349 . S
C963 C961 1.327 . S
C963 C979 1.429 . S
C963 H985 0.950 . S
C964 H960 0.949 . S
C964 C972 1.574 . S
C964 C980 1.368 1_556 S
H965 C973 0.950 . S
H966 C971 0.950 . S
H967 C972 0.949 . S
H968 C974 0.950 1_556 S
H969 C975 0.950 . S
H970 C976 0.949 . S
C971 H966 0.950 . S
C971 C973 1.327 . S
C971 C977 1.429 1_554 S
C972 C964 1.574 . S
C972 H967 0.949 . S
C972 C978 1.368 . S
C973 C957 1.349 1_554 S
C973 H965 0.950 . S
C973 C971 1.327 . S
C974 C962 1.349 . S
C974 H968 0.950 1_554 S
C974 C975 1.327 1_554 S
C975 H969 0.950 . S
C975 C974 1.327 1_556 S
C975 C979 1.429 1_556 S
C976 C959 1.574 . S
C976 H970 0.949 . S
C976 C980 1.368 . S
C977 C958 1.429 . S
C977 C971 1.429 1_556 S
C977 C978 1.523 . S
C978 C959 1.368 1_556 S
C978 C972 1.368 . S
C978 C977 1.523 . S
C979 C963 1.429 . S
C979 C975 1.429 1_554 S
C979 C980 1.523 . S
C980 C964 1.368 1_554 S
C980 C976 1.368 . S
C980 C979 1.523 . S
H981 C956 0.950 . S
H982 C958 0.950 . S
H983 C959 0.949 . S
H984 C961 0.950 . S
H985 C963 0.950 . S
C986 C987 1.349 . S
C986 C988 1.327 . S
C986 H1011 0.950 . S
C987 C986 1.349 . S
C987 C1003 1.349 . S
C988 C986 1.327 . S
C988 C1007 1.429 . S
C988 H1012 0.950 . S
C989 C1006 1.574 . S
C989 C1008 1.368 . S
C989 H1013 0.949 . S
H990 C994 0.949 . S
C991 C992 1.349 . S
C991 C993 1.327 . S
C991 H1014 0.950 . S
C992 C991 1.349 . S
C992 C1004 1.349 . S
C993 C991 1.327 . S
C993 C1009 1.429 . S
C993 H1015 0.950 . S
C994 H990 0.949 . S
C994 C1002 1.574 . S
C994 C1010 1.368 . S
H995 C1003 0.950 . S
H996 C1001 0.950 . S
H997 C1002 0.949 . S
H998 C1004 0.950 . S
H999 C1005 0.950 . S
H1000 C1006 0.949 . S
C1001 H996 0.950 . S
C1001 C1003 1.327 . S
C1001 C1007 1.429 . S
C1002 C994 1.574 . S
C1002 H997 0.949 . S
C1002 C1008 1.368 . S
C1003 C987 1.349 . S
C1003 H995 0.950 . S
C1003 C1001 1.327 . S
C1004 C992 1.349 . S
C1004 H998 0.950 . S
C1004 C1005 1.327 . S
C1005 H999 0.950 . S
C1005 C1004 1.327 . S
C1005 C1009 1.429 . S
C1006 C989 1.574 . S
C1006 H1000 0.949 . S
C1006 C1010 1.368 . S
C1007 C988 1.429 . S
C1007 C1001 1.429 . S
C1007 C1008 1.523 . S
C1008 C989 1.368 . S
C1008 C1002 1.368 . S
C1008 C1007 1.523 . S
C1009 C993 1.429 . S
C1009 C1005 1.429 . S
C1009 C1010 1.523 . S
C1010 C994 1.368 . S
C1010 C1006 1.368 . S
C1010 C1009 1.523 . S
H1011 C986 0.950 . S
H1012 C988 0.950 . S
H1013 C989 0.949 . S
H1014 C991 0.950 . S
H1015 C993 0.950 . S
C1016 C1017 1.349 . S
C1016 C1018 1.327 . S
C1016 H1041 0.950 . S
C1017 C1016 1.349 . S
C1017 C1033 1.349 . S
C1018 C1016 1.327 . S
C1018 C1037 1.429 . S
C1018 H1042 0.950 . S
C1019 C1036 1.574 . S
C1019 C1038 1.368 . S
C1019 H1043 0.949 . S
H1020 C1024 0.949 . S
C1021 C1022 1.349 . S
C1021 C1023 1.327 . S
C1021 H1044 0.950 . S
C1022 C1021 1.349 . S
C1022 C1034 1.349 . S
C1023 C1021 1.327 . S
C1023 C1039 1.429 . S
C1023 H1045 0.950 . S
C1024 H1020 0.949 . S
C1024 C1032 1.574 . S
C1024 C1040 1.368 . S
H1025 C1033 0.950 . S
H1026 C1031 0.950 . S
H1027 C1032 0.949 . S
H1028 C1034 0.950 . S
H1029 C1035 0.950 . S
H1030 C1036 0.949 . S
C1031 H1026 0.950 . S
C1031 C1033 1.327 . S
C1031 C1037 1.429 . S
C1032 C1024 1.574 . S
C1032 H1027 0.949 . S
C1032 C1038 1.368 . S
C1033 C1017 1.349 . S
C1033 H1025 0.950 . S
C1033 C1031 1.327 . S
C1034 C1022 1.349 . S
C1034 H1028 0.950 . S
C1034 C1035 1.327 . S
C1035 H1029 0.950 . S
C1035 C1034 1.327 . S
C1035 C1039 1.429 . S
C1036 C1019 1.574 . S
C1036 H1030 0.949 . S
C1036 C1040 1.368 . S
C1037 C1018 1.429 . S
C1037 C1031 1.429 . S
C1037 C1038 1.523 . S
C1038 C1019 1.368 . S
C1038 C1032 1.368 . S
C1038 C1037 1.523 . S
C1039 C1023 1.429 . S
C1039 C1035 1.429 . S
C1039 C1040 1.523 . S
C1040 C1024 1.368 . S
C1040 C1036 1.368 . S
C1040 C1039 1.523 . S
H1041 C1016 0.950 . S
H1042 C1018 0.950 . S
H1043 C1019 0.949 . S
H1044 C1021 0.950 . S
H1045 C1023 0.950 . S
C1046 C1047 1.349 . S
C1046 C1048 1.327 . S
C1046 H1071 0.950 . S
C1047 C1046 1.349 . S
C1047 C1063 1.349 . S
C1048 C1046 1.327 . S
C1048 C1067 1.429 . S
C1048 H1072 0.950 . S
C1049 C1066 1.575 . S
C1049 C1068 1.368 . S
C1049 H1073 0.949 . S
H1050 C1054 0.949 . S
C1051 C1052 1.349 . S
C1051 C1053 1.327 . S
C1051 H1074 0.950 . S
C1052 C1051 1.349 . S
C1052 C1064 1.349 . S
C1053 C1051 1.327 . S
C1053 C1069 1.435 . S
C1053 H1075 0.950 . S
C1054 H1050 0.949 . S
C1054 C1062 1.574 . S
C1054 C1070 1.368 . S
H1055 C1063 0.950 . S
H1056 C1061 0.950 . S
H1057 C1062 0.949 . S
H1058 C1064 0.952 . S
H1059 C1065 0.950 . S
H1060 C1066 0.947 1_554 S
C1061 H1056 0.950 . S
C1061 C1063 1.327 . S
C1061 C1067 1.429 . S
C1062 C1054 1.574 . S
C1062 H1057 0.949 . S
C1062 C1068 1.368 . S
C1063 C1047 1.349 . S
C1063 H1055 0.950 . S
C1063 C1061 1.327 . S
C1064 C1052 1.349 . S
C1064 H1058 0.952 . S
C1064 C1065 1.327 1_554 S
C1065 H1059 0.950 . S
C1065 C1064 1.327 1_556 S
C1065 C1069 1.426 1_556 S
C1066 C1049 1.575 . S
C1066 H1060 0.947 1_556 S
C1066 C1070 1.369 . S
C1067 C1048 1.429 . S
C1067 C1061 1.429 . S
C1067 C1068 1.523 . S
C1068 C1049 1.368 . S
C1068 C1062 1.368 . S
C1068 C1067 1.523 . S
C1069 C1053 1.435 . S
C1069 C1065 1.426 1_554 S
C1069 C1070 1.520 1_554 S
C1070 C1054 1.368 . S
C1070 C1066 1.369 . S
C1070 C1069 1.520 1_556 S
H1071 C1046 0.950 . S
H1072 C1048 0.950 . S
H1073 C1049 0.949 . S
H1074 C1051 0.950 . S
H1075 C1053 0.950 . S
C1076 C1077 1.349 . S
C1076 C1078 1.327 . S
C1076 H1101 0.950 . S
C1077 C1076 1.349 . S
C1077 C1093 1.349 . S
C1078 C1076 1.327 . S
C1078 C1097 1.429 . S
C1078 H1102 0.950 . S
C1079 C1096 1.574 . S
C1079 C1098 1.368 . S
C1079 H1103 0.949 . S
H1080 C1084 0.949 . S
C1081 C1082 1.349 . S
C1081 C1083 1.327 . S
C1081 H1104 0.950 . S
C1082 C1081 1.349 . S
C1082 C1094 1.349 . S
C1083 C1081 1.327 . S
C1083 C1099 1.429 . S
C1083 H1105 0.950 . S
C1084 H1080 0.949 . S
C1084 C1092 1.574 . S
C1084 C1100 1.368 . S
H1085 C1093 0.950 . S
H1086 C1091 0.950 . S
H1087 C1092 0.949 . S
H1088 C1094 0.950 . S
H1089 C1095 0.950 . S
H1090 C1096 0.949 . S
C1091 H1086 0.950 . S
C1091 C1093 1.327 . S
C1091 C1097 1.429 . S
C1092 C1084 1.574 . S
C1092 H1087 0.949 . S
C1092 C1098 1.368 . S
C1093 C1077 1.349 . S
C1093 H1085 0.950 . S
C1093 C1091 1.327 . S
C1094 C1082 1.349 . S
C1094 H1088 0.950 . S
C1094 C1095 1.327 . S
C1095 H1089 0.950 . S
C1095 C1094 1.327 . S
C1095 C1099 1.429 . S
C1096 C1079 1.574 . S
C1096 H1090 0.949 . S
C1096 C1100 1.368 . S
C1097 C1078 1.429 . S
C1097 C1091 1.429 . S
C1097 C1098 1.523 . S
C1098 C1079 1.368 . S
C1098 C1092 1.368 . S
C1098 C1097 1.523 . S
C1099 C1083 1.429 . S
C1099 C1095 1.429 . S
C1099 C1100 1.523 . S
C1100 C1084 1.368 . S
C1100 C1096 1.368 . S
C1100 C1099 1.523 . S
H1101 C1076 0.950 . S
H1102 C1078 0.950 . S
H1103 C1079 0.949 . S
H1104 C1081 0.950 . S
H1105 C1083 0.950 . S
C1106 C1107 1.349 . S
C1106 C1108 1.327 . S
C1106 H1131 0.950 . S
C1107 C1106 1.349 . S
C1107 C1123 1.349 . S
C1108 C1106 1.327 . S
C1108 C1127 1.429 . S
C1108 H1132 0.950 . S
C1109 C1126 1.574 . S
C1109 C1128 1.368 . S
C1109 H1133 0.949 . S
H1110 C1114 0.949 . S
C1111 C1112 1.349 . S
C1111 C1113 1.327 . S
C1111 H1134 0.950 . S
C1112 C1111 1.349 . S
C1112 C1124 1.349 . S
C1113 C1111 1.327 . S
C1113 C1129 1.429 . S
C1113 H1135 0.950 . S
C1114 H1110 0.949 . S
C1114 C1122 1.574 . S
C1114 C1130 1.368 . S
H1115 C1123 0.950 . S
H1116 C1121 0.950 . S
H1117 C1122 0.949 . S
H1118 C1124 0.950 . S
H1119 C1125 0.950 . S
H1120 C1126 0.949 . S
C1121 H1116 0.950 . S
C1121 C1123 1.327 . S
C1121 C1127 1.429 . S
C1122 C1114 1.574 . S
C1122 H1117 0.949 . S
C1122 C1128 1.368 . S
C1123 C1107 1.349 . S
C1123 H1115 0.950 . S
C1123 C1121 1.327 . S
C1124 C1112 1.349 . S
C1124 H1118 0.950 . S
C1124 C1125 1.327 . S
C1125 H1119 0.950 . S
C1125 C1124 1.327 . S
C1125 C1129 1.429 . S
C1126 C1109 1.574 . S
C1126 H1120 0.949 . S
C1126 C1130 1.368 . S
C1127 C1108 1.429 . S
C1127 C1121 1.429 . S
C1127 C1128 1.523 . S
C1128 C1109 1.368 . S
C1128 C1122 1.368 . S
C1128 C1127 1.523 . S
C1129 C1113 1.429 . S
C1129 C1125 1.429 . S
C1129 C1130 1.523 . S
C1130 C1114 1.368 . S
C1130 C1126 1.368 . S
C1130 C1129 1.523 . S
H1131 C1106 0.950 . S
H1132 C1108 0.950 . S
H1133 C1109 0.949 . S
H1134 C1111 0.950 . S
H1135 C1113 0.950 . S
C1136 C1137 1.349 . S
C1136 C1138 1.327 . S
C1136 H1161 0.950 . S
C1137 C1136 1.349 . S
C1137 C1153 1.349 . S
C1138 C1136 1.327 . S
C1138 C1157 1.429 . S
C1138 H1162 0.950 . S
C1139 C1156 1.574 . S
C1139 C1158 1.368 . S
C1139 H1163 0.949 . S
H1140 C1144 0.949 . S
C1141 C1142 1.349 . S
C1141 C1143 1.327 . S
C1141 H1164 0.950 . S
C1142 C1141 1.349 . S
C1142 C1154 1.349 . S
C1143 C1141 1.327 . S
C1143 C1159 1.429 . S
C1143 H1165 0.950 . S
C1144 H1140 0.949 . S
C1144 C1152 1.574 . S
C1144 C1160 1.368 . S
H1145 C1153 0.950 . S
H1146 C1151 0.950 . S
H1147 C1152 0.949 . S
H1148 C1154 0.950 . S
H1149 C1155 0.950 . S
H1150 C1156 0.949 . S
C1151 H1146 0.950 . S
C1151 C1153 1.327 . S
C1151 C1157 1.429 . S
C1152 C1144 1.574 . S
C1152 H1147 0.949 . S
C1152 C1158 1.368 . S
C1153 C1137 1.349 . S
C1153 H1145 0.950 . S
C1153 C1151 1.327 . S
C1154 C1142 1.349 . S
C1154 H1148 0.950 . S
C1154 C1155 1.327 . S
C1155 H1149 0.950 . S
C1155 C1154 1.327 . S
C1155 C1159 1.429 . S
C1156 C1139 1.574 . S
C1156 H1150 0.949 . S
C1156 C1160 1.368 . S
C1157 C1138 1.429 . S
C1157 C1151 1.429 . S
C1157 C1158 1.523 . S
C1158 C1139 1.368 . S
C1158 C1152 1.368 . S
C1158 C1157 1.523 . S
C1159 C1143 1.429 . S
C1159 C1155 1.429 . S
C1159 C1160 1.523 . S
C1160 C1144 1.368 . S
C1160 C1156 1.368 . S
C1160 C1159 1.523 . S
H1161 C1136 0.950 . S
H1162 C1138 0.950 . S
H1163 C1139 0.949 . S
H1164 C1141 0.950 . S
H1165 C1143 0.950 . S
C1166 C1167 1.349 . S
C1166 C1168 1.327 . S
C1166 H1191 0.950 . S
C1167 C1166 1.349 . S
C1167 C1183 1.349 . S
C1168 C1166 1.327 . S
C1168 C1187 1.429 . S
C1168 H1192 0.950 . S
C1169 C1186 1.574 . S
C1169 C1188 1.368 . S
C1169 H1193 0.949 . S
H1170 C1174 0.949 . S
C1171 C1172 1.349 . S
C1171 C1173 1.327 . S
C1171 H1194 0.950 . S
C1172 C1171 1.349 . S
C1172 C1184 1.349 . S
C1173 C1171 1.327 . S
C1173 C1189 1.429 . S
C1173 H1195 0.950 . S
C1174 H1170 0.949 . S
C1174 C1182 1.574 . S
C1174 C1190 1.368 . S
H1175 C1183 0.950 . S
H1176 C1181 0.950 . S
H1177 C1182 0.949 . S
H1178 C1184 0.950 . S
H1179 C1185 0.950 . S
H1180 C1186 0.949 . S
C1181 H1176 0.950 . S
C1181 C1183 1.327 . S
C1181 C1187 1.429 . S
C1182 C1174 1.574 . S
C1182 H1177 0.949 . S
C1182 C1188 1.368 . S
C1183 C1167 1.349 . S
C1183 H1175 0.950 . S
C1183 C1181 1.327 . S
C1184 C1172 1.349 . S
C1184 H1178 0.950 . S
C1184 C1185 1.327 . S
C1185 H1179 0.950 . S
C1185 C1184 1.327 . S
C1185 C1189 1.429 . S
C1186 C1169 1.574 . S
C1186 H1180 0.949 . S
C1186 C1190 1.368 . S
C1187 C1168 1.429 . S
C1187 C1181 1.429 . S
C1187 C1188 1.523 . S
C1188 C1169 1.368 . S
C1188 C1182 1.368 . S
C1188 C1187 1.523 . S
C1189 C1173 1.429 . S
C1189 C1185 1.429 . S
C1189 C1190 1.523 . S
C1190 C1174 1.368 . S
C1190 C1186 1.368 . S
C1190 C1189 1.523 . S
H1191 C1166 0.950 . S
H1192 C1168 0.950 . S
H1193 C1169 0.949 . S
H1194 C1171 0.950 . S
H1195 C1173 0.950 . S
C1196 C1197 1.349 . S
C1196 C1198 1.327 . S
C1196 H1221 0.950 . S
C1197 C1196 1.349 . S
C1197 C1213 1.349 . S
C1198 C1196 1.327 . S
C1198 C1217 1.429 . S
C1198 H1222 0.950 . S
C1199 C1216 1.574 . S
C1199 C1218 1.368 . S
C1199 H1223 0.949 . S
H1200 C1204 0.949 . S
C1201 C1202 1.349 . S
C1201 C1203 1.327 . S
C1201 H1224 0.950 . S
C1202 C1201 1.349 . S
C1202 C1214 1.349 . S
C1203 C1201 1.327 . S
C1203 C1219 1.429 . S
C1203 H1225 0.950 . S
C1204 H1200 0.949 . S
C1204 C1212 1.574 . S
C1204 C1220 1.368 . S
H1205 C1213 0.950 . S
H1206 C1211 0.950 . S
H1207 C1212 0.949 . S
H1208 C1214 0.950 . S
H1209 C1215 0.950 . S
H1210 C1216 0.949 . S
C1211 H1206 0.950 . S
C1211 C1213 1.327 . S
C1211 C1217 1.429 . S
C1212 C1204 1.574 . S
C1212 H1207 0.949 . S
C1212 C1218 1.368 . S
C1213 C1197 1.349 . S
C1213 H1205 0.950 . S
C1213 C1211 1.327 . S
C1214 C1202 1.349 . S
C1214 H1208 0.950 . S
C1214 C1215 1.327 . S
C1215 H1209 0.950 . S
C1215 C1214 1.327 . S
C1215 C1219 1.429 . S
C1216 C1199 1.574 . S
C1216 H1210 0.949 . S
C1216 C1220 1.368 . S
C1217 C1198 1.429 . S
C1217 C1211 1.429 . S
C1217 C1218 1.523 . S
C1218 C1199 1.368 . S
C1218 C1212 1.368 . S
C1218 C1217 1.523 . S
C1219 C1203 1.429 . S
C1219 C1215 1.429 . S
C1219 C1220 1.523 . S
C1220 C1204 1.368 . S
C1220 C1216 1.368 . S
C1220 C1219 1.523 . S
H1221 C1196 0.950 . S
H1222 C1198 0.950 . S
H1223 C1199 0.949 . S
H1224 C1201 0.950 . S
H1225 C1203 0.950 . S
C1226 C1227 1.349 . S
C1226 C1228 1.327 . S
C1226 H1251 0.950 . S
C1227 C1226 1.349 . S
C1227 C1243 1.349 . S
C1228 C1226 1.327 . S
C1228 C1247 1.429 . S
C1228 H1252 0.950 . S
C1229 C1246 1.574 . S
C1229 C1248 1.368 . S
C1229 H1253 0.949 . S
H1230 C1234 0.949 . S
C1231 C1232 1.349 . S
C1231 C1233 1.327 . S
C1231 H1254 0.950 . S
C1232 C1231 1.349 . S
C1232 C1244 1.349 . S
C1233 C1231 1.327 . S
C1233 C1249 1.429 . S
C1233 H1255 0.950 . S
C1234 H1230 0.949 . S
C1234 C1242 1.574 . S
C1234 C1250 1.368 . S
H1235 C1243 0.950 . S
H1236 C1241 0.950 . S
H1237 C1242 0.949 . S
H1238 C1244 0.950 . S
H1239 C1245 0.950 . S
H1240 C1246 0.949 . S
C1241 H1236 0.950 . S
C1241 C1243 1.327 . S
C1241 C1247 1.429 . S
C1242 C1234 1.574 . S
C1242 H1237 0.949 . S
C1242 C1248 1.368 . S
C1243 C1227 1.349 . S
C1243 H1235 0.950 . S
C1243 C1241 1.327 . S
C1244 C1232 1.349 . S
C1244 H1238 0.950 . S
C1244 C1245 1.327 . S
C1245 H1239 0.950 . S
C1245 C1244 1.327 . S
C1245 C1249 1.429 . S
C1246 C1229 1.574 . S
C1246 H1240 0.949 . S
C1246 C1250 1.368 . S
C1247 C1228 1.429 . S
C1247 C1241 1.429 . S
C1247 C1248 1.523 . S
C1248 C1229 1.368 . S
C1248 C1242 1.368 . S
C1248 C1247 1.523 . S
C1249 C1233 1.429 . S
C1249 C1245 1.429 . S
C1249 C1250 1.523 . S
C1250 C1234 1.368 . S
C1250 C1246 1.368 . S
C1250 C1249 1.523 . S
H1251 C1226 0.950 . S
H1252 C1228 0.950 . S
H1253 C1229 0.949 . S
H1254 C1231 0.950 . S
H1255 C1233 0.950 . S
C1256 C1257 1.349 . S
C1256 C1258 1.327 . S
C1256 H1281 0.950 . S
C1257 C1256 1.349 . S
C1257 C1273 1.349 . S
C1258 C1256 1.327 . S
C1258 C1277 1.429 . S
C1258 H1282 0.950 . S
C1259 C1276 1.574 . S
C1259 C1278 1.368 . S
C1259 H1283 0.949 . S
H1260 C1264 0.949 . S
C1261 C1262 1.349 . S
C1261 C1263 1.327 . S
C1261 H1284 0.950 . S
C1262 C1261 1.349 . S
C1262 C1274 1.349 . S
C1263 C1261 1.327 . S
C1263 C1279 1.429 . S
C1263 H1285 0.950 . S
C1264 H1260 0.949 . S
C1264 C1272 1.574 . S
C1264 C1280 1.368 . S
H1265 C1273 0.950 . S
H1266 C1271 0.950 . S
H1267 C1272 0.949 . S
H1268 C1274 0.950 . S
H1269 C1275 0.950 . S
H1270 C1276 0.949 . S
C1271 H1266 0.950 . S
C1271 C1273 1.327 . S
C1271 C1277 1.429 . S
C1272 C1264 1.574 . S
C1272 H1267 0.949 . S
C1272 C1278 1.368 . S
C1273 C1257 1.349 . S
C1273 H1265 0.950 . S
C1273 C1271 1.327 . S
C1274 C1262 1.349 . S
C1274 H1268 0.950 . S
C1274 C1275 1.327 . S
C1275 H1269 0.950 . S
C1275 C1274 1.327 . S
C1275 C1279 1.429 . S
C1276 C1259 1.574 . S
C1276 H1270 0.949 . S
C1276 C1280 1.368 . S
C1277 C1258 1.429 . S
C1277 C1271 1.429 . S
C1277 C1278 1.523 . S
C1278 C1259 1.368 . S
C1278 C1272 1.368 . S
C1278 C1277 1.523 . S
C1279 C1263 1.429 . S
C1279 C1275 1.429 . S
C1279 C1280 1.523 . S
C1280 C1264 1.368 . S
C1280 C1276 1.368 . S
C1280 C1279 1.523 . S
H1281 C1256 0.950 . S
H1282 C1258 0.950 . S
H1283 C1259 0.949 . S
H1284 C1261 0.950 . S
H1285 C1263 0.950 . S
C1286 C1287 1.349 . S
C1286 C1288 1.327 . S
C1286 H1311 0.950 . S
C1287 C1286 1.349 . S
C1287 C1303 1.349 . S
C1288 C1286 1.327 . S
C1288 C1307 1.429 . S
C1288 H1312 0.950 . S
C1289 C1306 1.574 . S
C1289 C1308 1.368 . S
C1289 H1313 0.949 . S
H1290 C1294 0.949 . S
C1291 C1292 1.349 . S
C1291 C1293 1.327 . S
C1291 H1314 0.950 . S
C1292 C1291 1.349 . S
C1292 C1304 1.349 . S
C1293 C1291 1.327 . S
C1293 C1309 1.429 . S
C1293 H1315 0.950 . S
C1294 H1290 0.949 . S
C1294 C1302 1.574 . S
C1294 C1310 1.368 . S
H1295 C1303 0.950 . S
H1296 C1301 0.950 . S
H1297 C1302 0.949 . S
H1298 C1304 0.950 . S
H1299 C1305 0.950 . S
H1300 C1306 0.949 . S
C1301 H1296 0.950 . S
C1301 C1303 1.327 . S
C1301 C1307 1.429 . S
C1302 C1294 1.574 . S
C1302 H1297 0.949 . S
C1302 C1308 1.368 . S
C1303 C1287 1.349 . S
C1303 H1295 0.950 . S
C1303 C1301 1.327 . S
C1304 C1292 1.349 . S
C1304 H1298 0.950 . S
C1304 C1305 1.327 . S
C1305 H1299 0.950 . S
C1305 C1304 1.327 . S
C1305 C1309 1.429 . S
C1306 C1289 1.574 . S
C1306 H1300 0.949 . S
C1306 C1310 1.368 . S
C1307 C1288 1.429 . S
C1307 C1301 1.429 . S
C1307 C1308 1.523 . S
C1308 C1289 1.368 . S
C1308 C1302 1.368 . S
C1308 C1307 1.523 . S
C1309 C1293 1.429 . S
C1309 C1305 1.429 . S
C1309 C1310 1.523 . S
C1310 C1294 1.368 . S
C1310 C1306 1.368 . S
C1310 C1309 1.523 . S
H1311 C1286 0.950 . S
H1312 C1288 0.950 . S
H1313 C1289 0.949 . S
H1314 C1291 0.950 . S
H1315 C1293 0.950 . S
C1316 C1317 1.349 . S
C1316 C1318 1.327 . S
C1316 H1341 0.950 . S
C1317 C1316 1.349 . S
C1317 C1333 1.349 . S
C1318 C1316 1.327 . S
C1318 C1337 1.429 . S
C1318 H1342 0.950 . S
C1319 C1336 1.574 . S
C1319 C1338 1.368 . S
C1319 H1343 0.949 . S
H1320 C1324 0.949 . S
C1321 C1322 1.349 . S
C1321 C1323 1.327 . S
C1321 H1344 0.950 . S
C1322 C1321 1.349 . S
C1322 C1334 1.349 . S
C1323 C1321 1.327 . S
C1323 C1339 1.429 . S
C1323 H1345 0.950 . S
C1324 H1320 0.949 . S
C1324 C1332 1.574 . S
C1324 C1340 1.368 . S
H1325 C1333 0.950 . S
H1326 C1331 0.950 . S
H1327 C1332 0.949 . S
H1328 C1334 0.950 . S
H1329 C1335 0.950 . S
H1330 C1336 0.949 . S
C1331 H1326 0.950 . S
C1331 C1333 1.327 . S
C1331 C1337 1.429 . S
C1332 C1324 1.574 . S
C1332 H1327 0.949 . S
C1332 C1338 1.368 . S
C1333 C1317 1.349 . S
C1333 H1325 0.950 . S
C1333 C1331 1.327 . S
C1334 C1322 1.349 . S
C1334 H1328 0.950 . S
C1334 C1335 1.327 . S
C1335 H1329 0.950 . S
C1335 C1334 1.327 . S
C1335 C1339 1.429 . S
C1336 C1319 1.574 . S
C1336 H1330 0.949 . S
C1336 C1340 1.368 . S
C1337 C1318 1.429 . S
C1337 C1331 1.429 . S
C1337 C1338 1.523 . S
C1338 C1319 1.368 . S
C1338 C1332 1.368 . S
C1338 C1337 1.523 . S
C1339 C1323 1.429 . S
C1339 C1335 1.429 . S
C1339 C1340 1.523 . S
C1340 C1324 1.368 . S
C1340 C1336 1.368 . S
C1340 C1339 1.523 . S
H1341 C1316 0.950 . S
H1342 C1318 0.950 . S
H1343 C1319 0.949 . S
H1344 C1321 0.950 . S
H1345 C1323 0.950 . S
C1346 C1347 1.349 . S
C1346 C1348 1.327 . S
C1346 H1371 0.950 . S
C1347 C1346 1.349 . S
C1347 C1363 1.349 . S
C1348 C1346 1.327 . S
C1348 C1367 1.429 . S
C1348 H1372 0.950 . S
C1349 C1366 1.574 . S
C1349 C1368 1.368 . S
C1349 H1373 0.949 . S
H1350 C1354 0.949 . S
C1351 C1352 1.349 . S
C1351 C1353 1.327 . S
C1351 H1374 0.950 . S
C1352 C1351 1.349 . S
C1352 C1364 1.349 . S
C1353 C1351 1.327 . S
C1353 C1369 1.429 . S
C1353 H1375 0.950 . S
C1354 H1350 0.949 . S
C1354 C1362 1.574 . S
C1354 C1370 1.368 . S
H1355 C1363 0.950 . S
H1356 C1361 0.950 . S
H1357 C1362 0.949 . S
H1358 C1364 0.950 . S
H1359 C1365 0.950 . S
H1360 C1366 0.949 . S
C1361 H1356 0.950 . S
C1361 C1363 1.327 . S
C1361 C1367 1.429 . S
C1362 C1354 1.574 . S
C1362 H1357 0.949 . S
C1362 C1368 1.368 . S
C1363 C1347 1.349 . S
C1363 H1355 0.950 . S
C1363 C1361 1.327 . S
C1364 C1352 1.349 . S
C1364 H1358 0.950 . S
C1364 C1365 1.327 . S
C1365 H1359 0.950 . S
C1365 C1364 1.327 . S
C1365 C1369 1.429 . S
C1366 C1349 1.574 . S
C1366 H1360 0.949 . S
C1366 C1370 1.368 . S
C1367 C1348 1.429 . S
C1367 C1361 1.429 . S
C1367 C1368 1.523 . S
C1368 C1349 1.368 . S
C1368 C1362 1.368 . S
C1368 C1367 1.523 . S
C1369 C1353 1.429 . S
C1369 C1365 1.429 . S
C1369 C1370 1.523 . S
C1370 C1354 1.368 . S
C1370 C1366 1.368 . S
C1370 C1369 1.523 . S
H1371 C1346 0.950 . S
H1372 C1348 0.950 . S
H1373 C1349 0.949 . S
H1374 C1351 0.950 . S
H1375 C1353 0.950 . S
C1376 C1377 1.349 . S
C1376 C1378 1.327 . S
C1376 H1401 0.950 . S
C1377 C1376 1.349 . S
C1377 C1393 1.349 . S
C1378 C1376 1.327 . S
C1378 C1397 1.429 . S
C1378 H1402 0.950 . S
C1379 C1396 1.574 . S
C1379 C1398 1.368 . S
C1379 H1403 0.949 . S
H1380 C1384 0.949 . S
C1381 C1382 1.349 . S
C1381 C1383 1.327 . S
C1381 H1404 0.950 . S
C1382 C1381 1.349 . S
C1382 C1394 1.349 . S
C1383 C1381 1.327 . S
C1383 C1399 1.429 . S
C1383 H1405 0.950 . S
C1384 H1380 0.949 . S
C1384 C1392 1.574 . S
C1384 C1400 1.368 . S
H1385 C1393 0.950 . S
H1386 C1391 0.950 . S
H1387 C1392 0.949 . S
H1388 C1394 0.950 . S
H1389 C1395 0.950 . S
H1390 C1396 0.949 . S
C1391 H1386 0.950 . S
C1391 C1393 1.327 . S
C1391 C1397 1.429 . S
C1392 C1384 1.574 . S
C1392 H1387 0.949 . S
C1392 C1398 1.368 . S
C1393 C1377 1.349 . S
C1393 H1385 0.950 . S
C1393 C1391 1.327 . S
C1394 C1382 1.349 . S
C1394 H1388 0.950 . S
C1394 C1395 1.327 . S
C1395 H1389 0.950 . S
C1395 C1394 1.327 . S
C1395 C1399 1.429 . S
C1396 C1379 1.574 . S
C1396 H1390 0.949 . S
C1396 C1400 1.368 . S
C1397 C1378 1.429 . S
C1397 C1391 1.429 . S
C1397 C1398 1.523 . S
C1398 C1379 1.368 . S
C1398 C1392 1.368 . S
C1398 C1397 1.523 . S
C1399 C1383 1.429 . S
C1399 C1395 1.429 . S
C1399 C1400 1.523 . S
C1400 C1384 1.368 . S
C1400 C1396 1.368 . S
C1400 C1399 1.523 . S
H1401 C1376 0.950 . S
H1402 C1378 0.950 . S
H1403 C1379 0.949 . S
H1404 C1381 0.950 . S
H1405 C1383 0.950 . S
C1406 C1407 1.349 . S
C1406 C1408 1.327 . S
C1406 H1431 0.950 . S
C1407 C1406 1.349 . S
C1407 C1423 1.349 . S
C1408 C1406 1.327 . S
C1408 C1427 1.429 . S
C1408 H1432 0.950 . S
C1409 C1426 1.574 . S
C1409 C1428 1.368 . S
C1409 H1433 0.949 . S
H1410 C1414 0.949 . S
C1411 C1412 1.349 . S
C1411 C1413 1.327 . S
C1411 H1434 0.950 . S
C1412 C1411 1.349 . S
C1412 C1424 1.349 . S
C1413 C1411 1.327 . S
C1413 C1429 1.429 . S
C1413 H1435 0.950 . S
C1414 H1410 0.949 . S
C1414 C1422 1.574 . S
C1414 C1430 1.368 . S
H1415 C1423 0.950 . S
H1416 C1421 0.950 . S
H1417 C1422 0.949 . S
H1418 C1424 0.950 . S
H1419 C1425 0.950 . S
H1420 C1426 0.949 . S
C1421 H1416 0.950 . S
C1421 C1423 1.327 . S
C1421 C1427 1.429 . S
C1422 C1414 1.574 . S
C1422 H1417 0.949 . S
C1422 C1428 1.368 . S
C1423 C1407 1.349 . S
C1423 H1415 0.950 . S
C1423 C1421 1.327 . S
C1424 C1412 1.349 . S
C1424 H1418 0.950 . S
C1424 C1425 1.327 . S
C1425 H1419 0.950 . S
C1425 C1424 1.327 . S
C1425 C1429 1.429 . S
C1426 C1409 1.574 . S
C1426 H1420 0.949 . S
C1426 C1430 1.368 . S
C1427 C1408 1.429 . S
C1427 C1421 1.429 . S
C1427 C1428 1.523 . S
C1428 C1409 1.368 . S
C1428 C1422 1.368 . S
C1428 C1427 1.523 . S
C1429 C1413 1.429 . S
C1429 C1425 1.429 . S
C1429 C1430 1.523 . S
C1430 C1414 1.368 . S
C1430 C1426 1.368 . S
C1430 C1429 1.523 . S
H1431 C1406 0.950 . S
H1432 C1408 0.950 . S
H1433 C1409 0.949 . S
H1434 C1411 0.950 . S
H1435 C1413 0.950 . S
C1436 C1437 1.349 . S
C1436 C1438 1.327 . S
C1436 H1461 0.950 . S
C1437 C1436 1.349 . S
C1437 C1453 1.349 . S
C1438 C1436 1.327 . S
C1438 C1457 1.429 . S
C1438 H1462 0.950 . S
C1439 C1456 1.574 . S
C1439 C1458 1.368 . S
C1439 H1463 0.949 . S
H1440 C1444 0.949 . S
C1441 C1442 1.349 . S
C1441 C1443 1.327 . S
C1441 H1464 0.950 . S
C1442 C1441 1.349 . S
C1442 C1454 1.349 . S
C1443 C1441 1.327 . S
C1443 C1459 1.429 . S
C1443 H1465 0.950 . S
C1444 H1440 0.949 . S
C1444 C1452 1.574 . S
C1444 C1460 1.368 . S
H1445 C1453 0.950 . S
H1446 C1451 0.950 . S
H1447 C1452 0.949 . S
H1448 C1454 0.950 . S
H1449 C1455 0.950 . S
H1450 C1456 0.949 . S
C1451 H1446 0.950 . S
C1451 C1453 1.327 . S
C1451 C1457 1.429 . S
C1452 C1444 1.574 . S
C1452 H1447 0.949 . S
C1452 C1458 1.368 . S
C1453 C1437 1.349 . S
C1453 H1445 0.950 . S
C1453 C1451 1.327 . S
C1454 C1442 1.349 . S
C1454 H1448 0.950 . S
C1454 C1455 1.327 . S
C1455 H1449 0.950 . S
C1455 C1454 1.327 . S
C1455 C1459 1.429 . S
C1456 C1439 1.574 . S
C1456 H1450 0.949 . S
C1456 C1460 1.368 . S
C1457 C1438 1.429 . S
C1457 C1451 1.429 . S
C1457 C1458 1.523 . S
C1458 C1439 1.368 . S
C1458 C1452 1.368 . S
C1458 C1457 1.523 . S
C1459 C1443 1.429 . S
C1459 C1455 1.429 . S
C1459 C1460 1.523 . S
C1460 C1444 1.368 . S
C1460 C1456 1.368 . S
C1460 C1459 1.523 . S
H1461 C1436 0.950 . S
H1462 C1438 0.950 . S
H1463 C1439 0.949 . S
H1464 C1441 0.950 . S
H1465 C1443 0.950 . S
C1466 C1467 1.349 . S
C1466 C1468 1.327 . S
C1466 H1491 0.950 . S
C1467 C1466 1.349 . S
C1467 C1483 1.349 . S
C1468 C1466 1.327 . S
C1468 C1487 1.429 . S
C1468 H1492 0.950 . S
C1469 C1486 1.574 . S
C1469 C1488 1.368 . S
C1469 H1493 0.949 . S
H1470 C1474 0.949 . S
C1471 C1472 1.349 . S
C1471 C1473 1.327 . S
C1471 H1494 0.950 . S
C1472 C1471 1.349 . S
C1472 C1484 1.349 . S
C1473 C1471 1.327 . S
C1473 C1489 1.429 . S
C1473 H1495 0.950 . S
C1474 H1470 0.949 . S
C1474 C1482 1.574 . S
C1474 C1490 1.368 . S
H1475 C1483 0.950 . S
H1476 C1481 0.950 . S
H1477 C1482 0.949 . S
H1478 C1484 0.950 . S
H1479 C1485 0.950 . S
H1480 C1486 0.949 . S
C1481 H1476 0.950 . S
C1481 C1483 1.327 . S
C1481 C1487 1.429 . S
C1482 C1474 1.574 . S
C1482 H1477 0.949 . S
C1482 C1488 1.368 . S
C1483 C1467 1.349 . S
C1483 H1475 0.950 . S
C1483 C1481 1.327 . S
C1484 C1472 1.349 . S
C1484 H1478 0.950 . S
C1484 C1485 1.327 . S
C1485 H1479 0.950 . S
C1485 C1484 1.327 . S
C1485 C1489 1.429 . S
C1486 C1469 1.574 . S
C1486 H1480 0.949 . S
C1486 C1490 1.368 . S
C1487 C1468 1.429 . S
C1487 C1481 1.429 . S
C1487 C1488 1.523 . S
C1488 C1469 1.368 . S
C1488 C1482 1.368 . S
C1488 C1487 1.523 . S
C1489 C1473 1.429 . S
C1489 C1485 1.429 . S
C1489 C1490 1.523 . S
C1490 C1474 1.368 . S
C1490 C1486 1.368 . S
C1490 C1489 1.523 . S
H1491 C1466 0.950 . S
H1492 C1468 0.950 . S
H1493 C1469 0.949 . S
H1494 C1471 0.950 . S
H1495 C1473 0.950 . S
C1496 C1497 1.349 . S
C1496 C1498 1.327 . S
C1496 H1521 0.950 . S
C1497 C1496 1.349 . S
C1497 C1513 1.349 . S
C1498 C1496 1.327 . S
C1498 C1517 1.429 . S
C1498 H1522 0.950 . S
C1499 C1516 1.574 . S
C1499 C1518 1.368 . S
C1499 H1523 0.949 . S
H1500 C1504 0.949 . S
C1501 C1502 1.349 . S
C1501 C1503 1.327 . S
C1501 H1524 0.950 . S
C1502 C1501 1.349 . S
C1502 C1514 1.349 . S
C1503 C1501 1.327 . S
C1503 C1519 1.427 . S
C1503 H1525 0.950 . S
C1504 H1500 0.949 . S
C1504 C1512 1.574 . S
C1504 C1520 1.368 . S
H1505 C1513 0.950 . S
H1506 C1511 0.950 . S
H1507 C1512 0.949 . S
H1508 C1514 0.950 . S
H1509 C1515 0.950 . S
H1510 C1516 0.949 . S
C1511 H1506 0.950 . S
C1511 C1513 1.327 . S
C1511 C1517 1.429 . S
C1512 C1504 1.574 . S
C1512 H1507 0.949 . S
C1512 C1518 1.368 . S
C1513 C1497 1.349 . S
C1513 H1505 0.950 . S
C1513 C1511 1.327 . S
C1514 C1502 1.349 . S
C1514 H1508 0.950 . S
C1514 C1515 1.327 . S
C1515 H1509 0.950 . S
C1515 C1514 1.327 . S
C1515 C1519 1.433 . S
C1516 C1499 1.574 . S
C1516 H1510 0.949 . S
C1516 C1520 1.368 . S
C1517 C1498 1.429 . S
C1517 C1511 1.429 . S
C1517 C1518 1.523 . S
C1518 C1499 1.368 . S
C1518 C1512 1.368 . S
C1518 C1517 1.523 . S
C1519 C1503 1.427 . S
C1519 C1515 1.433 . S
C1519 C1520 1.520 1_554 S
C1520 C1504 1.368 . S
C1520 C1516 1.368 . S
C1520 C1519 1.520 1_556 S
H1521 C1496 0.950 . S
H1522 C1498 0.950 . S
H1523 C1499 0.949 . S
H1524 C1501 0.950 . S
H1525 C1503 0.950 . S
C1526 C1527 1.349 1_554 S
C1526 C1528 1.327 . S
C1526 H1551 0.950 . S
C1527 C1526 1.349 1_556 S
C1527 C1543 1.349 . S
C1528 C1526 1.327 . S
C1528 C1547 1.429 1_554 S
C1528 H1552 0.950 . S
C1529 C1546 1.574 . S
C1529 C1548 1.368 . S
C1529 H1553 0.949 . S
H1530 C1534 0.949 . S
C1531 C1532 1.318 1_556 S
C1531 C1533 1.331 . S
C1531 H1554 0.979 . S
C1532 C1531 1.318 1_554 S
C1532 C1544 1.349 . S
C1533 C1531 1.331 . S
C1533 C1549 1.429 1_556 S
C1533 H1555 0.950 . S
C1534 H1530 0.949 . S
C1534 C1542 1.574 . S
C1534 C1550 1.368 . S
H1535 C1543 0.950 . S
H1536 C1541 0.950 . S
H1537 C1542 0.949 . S
H1538 C1544 0.950 . S
H1539 C1545 0.950 . S
H1540 C1546 0.949 . S
C1541 H1536 0.950 . S
C1541 C1543 1.327 . S
C1541 C1547 1.429 . S
C1542 C1534 1.574 . S
C1542 H1537 0.949 . S
C1542 C1548 1.368 1_554 S
C1543 C1527 1.349 . S
C1543 H1535 0.950 . S
C1543 C1541 1.327 . S
C1544 C1532 1.349 . S
C1544 H1538 0.950 . S
C1544 C1545 1.327 . S
C1545 H1539 0.950 . S
C1545 C1544 1.327 . S
C1545 C1549 1.429 . S
C1546 C1529 1.574 . S
C1546 H1540 0.949 . S
C1546 C1550 1.368 1_556 S
C1547 C1528 1.429 1_556 S
C1547 C1541 1.429 . S
C1547 C1548 1.523 . S
C1548 C1529 1.368 . S
C1548 C1542 1.368 1_556 S
C1548 C1547 1.523 . S
C1549 C1533 1.429 1_554 S
C1549 C1545 1.429 . S
C1549 C1550 1.523 . S
C1550 C1534 1.368 . S
C1550 C1546 1.368 1_554 S
C1550 C1549 1.523 . S
H1551 C1526 0.950 . S
H1552 C1528 0.950 . S
H1553 C1529 0.949 . S
H1554 C1531 0.979 . S
H1555 C1533 0.950 . S
C1556 C1557 1.349 . S
C1556 C1558 1.327 . S
C1556 H1581 0.950 . S
C1557 C1556 1.349 . S
C1557 C1573 1.349 . S
C1558 C1556 1.327 . S
C1558 C1577 1.429 . S
C1558 H1582 0.950 . S
C1559 C1576 1.574 . S
C1559 C1578 1.368 . S
C1559 H1583 0.949 . S
H1560 C1564 0.949 . S
C1561 C1562 1.349 . S
C1561 C1563 1.327 . S
C1561 H1584 0.950 . S
C1562 C1561 1.349 . S
C1562 C1574 1.349 . S
C1563 C1561 1.327 . S
C1563 C1579 1.429 . S
C1563 H1585 0.950 . S
C1564 H1560 0.949 . S
C1564 C1572 1.574 . S
C1564 C1580 1.368 . S
H1565 C1573 0.950 . S
H1566 C1571 0.950 . S
H1567 C1572 0.949 . S
H1568 C1574 0.950 . S
H1569 C1575 0.950 . S
H1570 C1576 0.949 . S
C1571 H1566 0.950 . S
C1571 C1573 1.327 . S
C1571 C1577 1.429 . S
C1572 C1564 1.574 . S
C1572 H1567 0.949 . S
C1572 C1578 1.368 . S
C1573 C1557 1.349 . S
C1573 H1565 0.950 . S
C1573 C1571 1.327 . S
C1574 C1562 1.349 . S
C1574 H1568 0.950 . S
C1574 C1575 1.327 . S
C1575 H1569 0.950 . S
C1575 C1574 1.327 . S
C1575 C1579 1.429 . S
C1576 C1559 1.574 . S
C1576 H1570 0.949 . S
C1576 C1580 1.368 . S
C1577 C1558 1.429 . S
C1577 C1571 1.429 . S
C1577 C1578 1.523 . S
C1578 C1559 1.368 . S
C1578 C1572 1.368 . S
C1578 C1577 1.523 . S
C1579 C1563 1.429 . S
C1579 C1575 1.429 . S
C1579 C1580 1.523 . S
C1580 C1564 1.368 . S
C1580 C1576 1.368 . S
C1580 C1579 1.523 . S
H1581 C1556 0.950 . S
H1582 C1558 0.950 . S
H1583 C1559 0.949 . S
H1584 C1561 0.950 . S
H1585 C1563 0.950 . S
C1586 C1587 1.349 . S
C1586 C1588 1.327 . S
C1586 H1611 0.950 . S
C1587 C1586 1.349 . S
C1587 C1603 1.349 . S
C1588 C1586 1.327 . S
C1588 C1607 1.429 . S
C1588 H1612 0.950 . S
C1589 C1606 1.574 . S
C1589 C1608 1.368 . S
C1589 H1613 0.949 . S
H1590 C1594 0.949 . S
C1591 C1592 1.349 . S
C1591 C1593 1.327 . S
C1591 H1614 0.950 . S
C1592 C1591 1.349 . S
C1592 C1604 1.349 . S
C1593 C1591 1.327 . S
C1593 C1609 1.429 . S
C1593 H1615 0.950 . S
C1594 H1590 0.949 . S
C1594 C1602 1.574 . S
C1594 C1610 1.368 . S
H1595 C1603 0.950 . S
H1596 C1601 0.950 . S
H1597 C1602 0.949 . S
H1598 C1604 0.950 . S
H1599 C1605 0.950 . S
H1600 C1606 0.949 . S
C1601 H1596 0.950 . S
C1601 C1603 1.327 . S
C1601 C1607 1.429 . S
C1602 C1594 1.574 . S
C1602 H1597 0.949 . S
C1602 C1608 1.368 . S
C1603 C1587 1.349 . S
C1603 H1595 0.950 . S
C1603 C1601 1.327 . S
C1604 C1592 1.349 . S
C1604 H1598 0.950 . S
C1604 C1605 1.327 . S
C1605 H1599 0.950 . S
C1605 C1604 1.327 . S
C1605 C1609 1.429 . S
C1606 C1589 1.574 . S
C1606 H1600 0.949 . S
C1606 C1610 1.368 . S
C1607 C1588 1.429 . S
C1607 C1601 1.429 . S
C1607 C1608 1.523 . S
C1608 C1589 1.368 . S
C1608 C1602 1.368 . S
C1608 C1607 1.523 . S
C1609 C1593 1.429 . S
C1609 C1605 1.429 . S
C1609 C1610 1.523 . S
C1610 C1594 1.368 . S
C1610 C1606 1.368 . S
C1610 C1609 1.523 . S
H1611 C1586 0.950 . S
H1612 C1588 0.950 . S
H1613 C1589 0.949 . S
H1614 C1591 0.950 . S
H1615 C1593 0.950 . S
C1616 C1617 1.349 . S
C1616 C1618 1.327 . S
C1616 H1641 0.950 . S
C1617 C1616 1.349 . S
C1617 C1633 1.349 . S
C1618 C1616 1.327 . S
C1618 C1637 1.429 . S
C1618 H1642 0.950 . S
C1619 C1636 1.574 . S
C1619 C1638 1.368 . S
C1619 H1643 0.949 . S
H1620 C1624 0.949 . S
C1621 C1622 1.349 . S
C1621 C1623 1.327 . S
C1621 H1644 0.950 . S
C1622 C1621 1.349 . S
C1622 C1634 1.349 . S
C1623 C1621 1.327 . S
C1623 C1639 1.429 . S
C1623 H1645 0.950 . S
C1624 H1620 0.949 . S
C1624 C1632 1.574 . S
C1624 C1640 1.368 . S
H1625 C1633 0.950 . S
H1626 C1631 0.950 . S
H1627 C1632 0.949 . S
H1628 C1634 0.950 . S
H1629 C1635 0.950 . S
H1630 C1636 0.949 . S
C1631 H1626 0.950 . S
C1631 C1633 1.327 . S
C1631 C1637 1.429 . S
C1632 C1624 1.574 . S
C1632 H1627 0.949 . S
C1632 C1638 1.368 . S
C1633 C1617 1.349 . S
C1633 H1625 0.950 . S
C1633 C1631 1.327 . S
C1634 C1622 1.349 . S
C1634 H1628 0.950 . S
C1634 C1635 1.327 . S
C1635 H1629 0.950 . S
C1635 C1634 1.327 . S
C1635 C1639 1.429 . S
C1636 C1619 1.574 . S
C1636 H1630 0.949 . S
C1636 C1640 1.368 . S
C1637 C1618 1.429 . S
C1637 C1631 1.429 . S
C1637 C1638 1.523 . S
C1638 C1619 1.368 . S
C1638 C1632 1.368 . S
C1638 C1637 1.523 . S
C1639 C1623 1.429 . S
C1639 C1635 1.429 . S
C1639 C1640 1.523 . S
C1640 C1624 1.368 . S
C1640 C1636 1.368 . S
C1640 C1639 1.523 . S
H1641 C1616 0.950 . S
H1642 C1618 0.950 . S
H1643 C1619 0.949 . S
H1644 C1621 0.950 . S
H1645 C1623 0.950 . S
C1646 C1647 1.349 . S
C1646 C1648 1.327 . S
C1646 H1671 0.950 . S
C1647 C1646 1.349 . S
C1647 C1663 1.349 . S
C1648 C1646 1.327 . S
C1648 C1667 1.429 . S
C1648 H1672 0.950 . S
C1649 C1666 1.574 . S
C1649 C1668 1.368 . S
C1649 H1673 0.949 . S
H1650 C1654 0.949 . S
C1651 C1652 1.349 . S
C1651 C1653 1.327 . S
C1651 H1674 0.950 . S
C1652 C1651 1.349 . S
C1652 C1664 1.349 . S
C1653 C1651 1.327 . S
C1653 C1669 1.429 . S
C1653 H1675 0.950 . S
C1654 H1650 0.949 . S
C1654 C1662 1.574 . S
C1654 C1670 1.368 . S
H1655 C1663 0.950 . S
H1656 C1661 0.950 . S
H1657 C1662 0.949 . S
H1658 C1664 0.950 . S
H1659 C1665 0.950 . S
H1660 C1666 0.949 . S
C1661 H1656 0.950 . S
C1661 C1663 1.327 . S
C1661 C1667 1.429 . S
C1662 C1654 1.574 . S
C1662 H1657 0.949 . S
C1662 C1668 1.368 . S
C1663 C1647 1.349 . S
C1663 H1655 0.950 . S
C1663 C1661 1.327 . S
C1664 C1652 1.349 . S
C1664 H1658 0.950 . S
C1664 C1665 1.327 . S
C1665 H1659 0.950 . S
C1665 C1664 1.327 . S
C1665 C1669 1.429 . S
C1666 C1649 1.574 . S
C1666 H1660 0.949 . S
C1666 C1670 1.368 . S
C1667 C1648 1.429 . S
C1667 C1661 1.429 . S
C1667 C1668 1.523 . S
C1668 C1649 1.368 . S
C1668 C1662 1.368 . S
C1668 C1667 1.523 . S
C1669 C1653 1.429 . S
C1669 C1665 1.429 . S
C1669 C1670 1.523 . S
C1670 C1654 1.368 . S
C1670 C1666 1.368 . S
C1670 C1669 1.523 . S
H1671 C1646 0.950 . S
H1672 C1648 0.950 . S
H1673 C1649 0.949 . S
H1674 C1651 0.950 . S
H1675 C1653 0.950 . S
C1676 C1677 1.349 . S
C1676 C1678 1.327 . S
C1676 H1701 0.950 . S
C1677 C1676 1.349 . S
C1677 C1693 1.349 . S
C1678 C1676 1.327 . S
C1678 C1697 1.429 . S
C1678 H1702 0.950 . S
C1679 C1696 1.574 . S
C1679 C1698 1.368 . S
C1679 H1703 0.949 . S
H1680 C1684 0.949 . S
C1681 C1682 1.349 . S
C1681 C1683 1.327 . S
C1681 H1704 0.950 . S
C1682 C1681 1.349 . S
C1682 C1694 1.349 . S
C1683 C1681 1.327 . S
C1683 C1699 1.429 . S
C1683 H1705 0.950 . S
C1684 H1680 0.949 . S
C1684 C1692 1.574 . S
C1684 C1700 1.368 . S
H1685 C1693 0.950 . S
H1686 C1691 0.950 . S
H1687 C1692 0.949 . S
H1688 C1694 0.950 . S
H1689 C1695 0.950 . S
H1690 C1696 0.949 . S
C1691 H1686 0.950 . S
C1691 C1693 1.327 . S
C1691 C1697 1.429 . S
C1692 C1684 1.574 . S
C1692 H1687 0.949 . S
C1692 C1698 1.368 . S
C1693 C1677 1.349 . S
C1693 H1685 0.950 . S
C1693 C1691 1.327 . S
C1694 C1682 1.349 . S
C1694 H1688 0.950 . S
C1694 C1695 1.327 . S
C1695 H1689 0.950 . S
C1695 C1694 1.327 . S
C1695 C1699 1.429 . S
C1696 C1679 1.574 . S
C1696 H1690 0.949 . S
C1696 C1700 1.368 . S
C1697 C1678 1.429 . S
C1697 C1691 1.429 . S
C1697 C1698 1.523 . S
C1698 C1679 1.368 . S
C1698 C1692 1.368 . S
C1698 C1697 1.523 . S
C1699 C1683 1.429 . S
C1699 C1695 1.429 . S
C1699 C1700 1.523 . S
C1700 C1684 1.368 . S
C1700 C1696 1.368 . S
C1700 C1699 1.523 . S
H1701 C1676 0.950 . S
H1702 C1678 0.950 . S
H1703 C1679 0.949 . S
H1704 C1681 0.950 . S
H1705 C1683 0.950 . S
C1706 C1707 1.349 . S
C1706 C1708 1.327 . S
C1706 H1731 0.950 . S
C1707 C1706 1.349 . S
C1707 C1723 1.349 . S
C1708 C1706 1.327 . S
C1708 C1727 1.429 . S
C1708 H1732 0.950 . S
C1709 C1726 1.574 . S
C1709 C1728 1.368 . S
C1709 H1733 0.949 . S
H1710 C1714 0.949 . S
C1711 C1712 1.349 . S
C1711 C1713 1.327 . S
C1711 H1734 0.950 . S
C1712 C1711 1.349 . S
C1712 C1724 1.349 . S
C1713 C1711 1.327 . S
C1713 C1729 1.429 . S
C1713 H1735 0.950 . S
C1714 H1710 0.949 . S
C1714 C1722 1.574 . S
C1714 C1730 1.368 . S
H1715 C1723 0.950 . S
H1716 C1721 0.950 . S
H1717 C1722 0.949 . S
H1718 C1724 0.950 . S
H1719 C1725 0.950 . S
H1720 C1726 0.949 . S
C1721 H1716 0.950 . S
C1721 C1723 1.327 . S
C1721 C1727 1.429 . S
C1722 C1714 1.574 . S
C1722 H1717 0.949 . S
C1722 C1728 1.368 . S
C1723 C1707 1.349 . S
C1723 H1715 0.950 . S
C1723 C1721 1.327 . S
C1724 C1712 1.349 . S
C1724 H1718 0.950 . S
C1724 C1725 1.327 . S
C1725 H1719 0.950 . S
C1725 C1724 1.327 . S
C1725 C1729 1.429 . S
C1726 C1709 1.574 . S
C1726 H1720 0.949 . S
C1726 C1730 1.368 . S
C1727 C1708 1.429 . S
C1727 C1721 1.429 . S
C1727 C1728 1.523 . S
C1728 C1709 1.368 . S
C1728 C1722 1.368 . S
C1728 C1727 1.523 . S
C1729 C1713 1.429 . S
C1729 C1725 1.429 . S
C1729 C1730 1.523 . S
C1730 C1714 1.368 . S
C1730 C1726 1.368 . S
C1730 C1729 1.523 . S
H1731 C1706 0.950 . S
H1732 C1708 0.950 . S
H1733 C1709 0.949 . S
H1734 C1711 0.950 . S
H1735 C1713 0.950 . S
C1736 C1737 1.349 . S
C1736 C1738 1.327 . S
C1736 H1761 0.950 . S
C1737 C1736 1.349 . S
C1737 C1753 1.349 . S
C1738 C1736 1.327 . S
C1738 C1757 1.429 . S
C1738 H1762 0.950 . S
C1739 C1756 1.574 . S
C1739 C1758 1.368 . S
C1739 H1763 0.949 . S
H1740 C1744 0.949 . S
C1741 C1742 1.349 . S
C1741 C1743 1.327 . S
C1741 H1764 0.950 . S
C1742 C1741 1.349 . S
C1742 C1754 1.349 . S
C1743 C1741 1.327 . S
C1743 C1759 1.429 . S
C1743 H1765 0.950 . S
C1744 H1740 0.949 . S
C1744 C1752 1.574 . S
C1744 C1760 1.368 . S
H1745 C1753 0.950 . S
H1746 C1751 0.950 . S
H1747 C1752 0.949 . S
H1748 C1754 0.950 . S
H1749 C1755 0.950 . S
H1750 C1756 0.949 . S
C1751 H1746 0.950 . S
C1751 C1753 1.327 . S
C1751 C1757 1.429 . S
C1752 C1744 1.574 . S
C1752 H1747 0.949 . S
C1752 C1758 1.368 . S
C1753 C1737 1.349 . S
C1753 H1745 0.950 . S
C1753 C1751 1.327 . S
C1754 C1742 1.349 . S
C1754 H1748 0.950 . S
C1754 C1755 1.327 . S
C1755 H1749 0.950 . S
C1755 C1754 1.327 . S
C1755 C1759 1.429 . S
C1756 C1739 1.574 . S
C1756 H1750 0.949 . S
C1756 C1760 1.368 . S
C1757 C1738 1.429 . S
C1757 C1751 1.429 . S
C1757 C1758 1.523 . S
C1758 C1739 1.368 . S
C1758 C1752 1.368 . S
C1758 C1757 1.523 . S
C1759 C1743 1.429 . S
C1759 C1755 1.429 . S
C1759 C1760 1.523 . S
C1760 C1744 1.368 . S
C1760 C1756 1.368 . S
C1760 C1759 1.523 . S
H1761 C1736 0.950 . S
H1762 C1738 0.950 . S
H1763 C1739 0.949 . S
H1764 C1741 0.950 . S
H1765 C1743 0.950 . S
C1766 C1767 1.349 . S
C1766 C1768 1.327 . S
C1766 H1791 0.950 . S
C1767 C1766 1.349 . S
C1767 C1783 1.349 . S
C1768 C1766 1.327 . S
C1768 C1787 1.429 . S
C1768 H1792 0.950 . S
C1769 C1786 1.574 . S
C1769 C1788 1.368 . S
C1769 H1793 0.949 . S
H1770 C1774 0.949 . S
C1771 C1772 1.349 . S
C1771 C1773 1.327 . S
C1771 H1794 0.950 . S
C1772 C1771 1.349 . S
C1772 C1784 1.349 . S
C1773 C1771 1.327 . S
C1773 C1789 1.429 . S
C1773 H1795 0.950 . S
C1774 H1770 0.949 . S
C1774 C1782 1.574 . S
C1774 C1790 1.368 . S
H1775 C1783 0.950 . S
H1776 C1781 0.950 . S
H1777 C1782 0.949 . S
H1778 C1784 0.950 . S
H1779 C1785 0.950 . S
H1780 C1786 0.949 . S
C1781 H1776 0.950 . S
C1781 C1783 1.327 . S
C1781 C1787 1.429 . S
C1782 C1774 1.574 . S
C1782 H1777 0.949 . S
C1782 C1788 1.368 . S
C1783 C1767 1.349 . S
C1783 H1775 0.950 . S
C1783 C1781 1.327 . S
C1784 C1772 1.349 . S
C1784 H1778 0.950 . S
C1784 C1785 1.327 . S
C1785 H1779 0.950 . S
C1785 C1784 1.327 . S
C1785 C1789 1.429 . S
C1786 C1769 1.574 . S
C1786 H1780 0.949 . S
C1786 C1790 1.368 . S
C1787 C1768 1.429 . S
C1787 C1781 1.429 . S
C1787 C1788 1.523 . S
C1788 C1769 1.368 . S
C1788 C1782 1.368 . S
C1788 C1787 1.523 . S
C1789 C1773 1.429 . S
C1789 C1785 1.429 . S
C1789 C1790 1.523 . S
C1790 C1774 1.368 . S
C1790 C1786 1.368 . S
C1790 C1789 1.523 . S
H1791 C1766 0.950 . S
H1792 C1768 0.950 . S
H1793 C1769 0.949 . S
H1794 C1771 0.950 . S
H1795 C1773 0.950 . S
C1796 C1797 1.349 . S
C1796 C1798 1.327 . S
C1796 H1821 0.950 . S
C1797 C1796 1.349 . S
C1797 C1813 1.349 . S
C1798 C1796 1.327 . S
C1798 C1817 1.429 . S
C1798 H1822 0.950 . S
C1799 C1816 1.574 . S
C1799 C1818 1.368 . S
C1799 H1823 0.949 . S
H1800 C1804 0.949 . S
C1801 C1802 1.349 . S
C1801 C1803 1.327 . S
C1801 H1824 0.950 . S
C1802 C1801 1.349 . S
C1802 C1814 1.349 . S
C1803 C1801 1.327 . S
C1803 C1819 1.429 . S
C1803 H1825 0.950 . S
C1804 H1800 0.949 . S
C1804 C1812 1.574 . S
C1804 C1820 1.368 . S
H1805 C1813 0.950 . S
H1806 C1811 0.950 . S
H1807 C1812 0.949 . S
H1808 C1814 0.950 . S
H1809 C1815 0.950 . S
H1810 C1816 0.949 . S
C1811 H1806 0.950 . S
C1811 C1813 1.327 . S
C1811 C1817 1.429 . S
C1812 C1804 1.574 . S
C1812 H1807 0.949 . S
C1812 C1818 1.368 . S
C1813 C1797 1.349 . S
C1813 H1805 0.950 . S
C1813 C1811 1.327 . S
C1814 C1802 1.349 . S
C1814 H1808 0.950 . S
C1814 C1815 1.327 . S
C1815 H1809 0.950 . S
C1815 C1814 1.327 . S
C1815 C1819 1.429 . S
C1816 C1799 1.574 . S
C1816 H1810 0.949 . S
C1816 C1820 1.368 . S
C1817 C1798 1.429 . S
C1817 C1811 1.429 . S
C1817 C1818 1.523 . S
C1818 C1799 1.368 . S
C1818 C1812 1.368 . S
C1818 C1817 1.523 . S
C1819 C1803 1.429 . S
C1819 C1815 1.429 . S
C1819 C1820 1.523 . S
C1820 C1804 1.368 . S
C1820 C1816 1.368 . S
C1820 C1819 1.523 . S
H1821 C1796 0.950 . S
H1822 C1798 0.950 . S
H1823 C1799 0.949 . S
H1824 C1801 0.950 . S
H1825 C1803 0.950 . S
C1826 C1827 1.349 . S
C1826 C1828 1.327 . S
C1826 H1851 0.950 . S
C1827 C1826 1.349 . S
C1827 C1843 1.349 . S
C1828 C1826 1.327 . S
C1828 C1847 1.429 . S
C1828 H1852 0.950 . S
C1829 C1846 1.574 . S
C1829 C1848 1.368 . S
C1829 H1853 0.949 . S
H1830 C1834 0.949 . S
C1831 C1832 1.349 . S
C1831 C1833 1.327 . S
C1831 H1854 0.950 . S
C1832 C1831 1.349 . S
C1832 C1844 1.349 . S
C1833 C1831 1.327 . S
C1833 C1849 1.429 . S
C1833 H1855 0.950 . S
C1834 H1830 0.949 . S
C1834 C1842 1.574 . S
C1834 C1850 1.368 . S
H1835 C1843 0.950 . S
H1836 C1841 0.950 . S
H1837 C1842 0.949 . S
H1838 C1844 0.950 . S
H1839 C1845 0.950 . S
H1840 C1846 0.949 . S
C1841 H1836 0.950 . S
C1841 C1843 1.327 . S
C1841 C1847 1.429 . S
C1842 C1834 1.574 . S
C1842 H1837 0.949 . S
C1842 C1848 1.368 . S
C1843 C1827 1.349 . S
C1843 H1835 0.950 . S
C1843 C1841 1.327 . S
C1844 C1832 1.349 . S
C1844 H1838 0.950 . S
C1844 C1845 1.327 . S
C1845 H1839 0.950 . S
C1845 C1844 1.327 . S
C1845 C1849 1.429 . S
C1846 C1829 1.574 . S
C1846 H1840 0.949 . S
C1846 C1850 1.368 . S
C1847 C1828 1.429 . S
C1847 C1841 1.429 . S
C1847 C1848 1.523 . S
C1848 C1829 1.368 . S
C1848 C1842 1.368 . S
C1848 C1847 1.523 . S
C1849 C1833 1.429 . S
C1849 C1845 1.429 . S
C1849 C1850 1.523 . S
C1850 C1834 1.368 . S
C1850 C1846 1.368 . S
C1850 C1849 1.523 . S
H1851 C1826 0.950 . S
H1852 C1828 0.950 . S
H1853 C1829 0.949 . S
H1854 C1831 0.950 . S
H1855 C1833 0.950 . S
C1856 C1857 1.349 . S
C1856 C1858 1.327 . S
C1856 H1881 0.950 . S
C1857 C1856 1.349 . S
C1857 C1873 1.349 . S
C1858 C1856 1.327 . S
C1858 C1877 1.429 . S
C1858 H1882 0.950 . S
C1859 C1876 1.574 . S
C1859 C1878 1.368 . S
C1859 H1883 0.949 . S
H1860 C1864 0.949 . S
C1861 C1862 1.349 . S
C1861 C1863 1.327 . S
C1861 H1884 0.950 . S
C1862 C1861 1.349 . S
C1862 C1874 1.349 . S
C1863 C1861 1.327 . S
C1863 C1879 1.429 . S
C1863 H1885 0.950 . S
C1864 H1860 0.949 . S
C1864 C1872 1.574 . S
C1864 C1880 1.368 . S
H1865 C1873 0.950 . S
H1866 C1871 0.950 . S
H1867 C1872 0.949 . S
H1868 C1874 0.950 . S
H1869 C1875 0.950 . S
H1870 C1876 0.949 . S
C1871 H1866 0.950 . S
C1871 C1873 1.327 . S
C1871 C1877 1.429 . S
C1872 C1864 1.574 . S
C1872 H1867 0.949 . S
C1872 C1878 1.368 . S
C1873 C1857 1.349 . S
C1873 H1865 0.950 . S
C1873 C1871 1.327 . S
C1874 C1862 1.349 . S
C1874 H1868 0.950 . S
C1874 C1875 1.327 . S
C1875 H1869 0.950 . S
C1875 C1874 1.327 . S
C1875 C1879 1.429 . S
C1876 C1859 1.574 . S
C1876 H1870 0.949 . S
C1876 C1880 1.368 . S
C1877 C1858 1.429 . S
C1877 C1871 1.429 . S
C1877 C1878 1.523 . S
C1878 C1859 1.368 . S
C1878 C1872 1.368 . S
C1878 C1877 1.523 . S
C1879 C1863 1.429 . S
C1879 C1875 1.429 . S
C1879 C1880 1.523 . S
C1880 C1864 1.368 . S
C1880 C1876 1.368 . S
C1880 C1879 1.523 . S
H1881 C1856 0.950 . S
H1882 C1858 0.950 . S
H1883 C1859 0.949 . S
H1884 C1861 0.950 . S
H1885 C1863 0.950 . S
C1886 C1887 1.349 . S
C1886 C1888 1.327 . S
C1886 H1911 0.950 . S
C1887 C1886 1.349 . S
C1887 C1903 1.349 . S
C1888 C1886 1.327 . S
C1888 C1907 1.429 . S
C1888 H1912 0.950 . S
C1889 C1906 1.574 . S
C1889 C1908 1.368 . S
C1889 H1913 0.949 . S
H1890 C1894 0.949 . S
C1891 C1892 1.349 . S
C1891 C1893 1.327 . S
C1891 H1914 0.950 . S
C1892 C1891 1.349 . S
C1892 C1904 1.349 . S
C1893 C1891 1.327 . S
C1893 C1909 1.429 . S
C1893 H1915 0.950 . S
C1894 H1890 0.949 . S
C1894 C1902 1.574 . S
C1894 C1910 1.368 . S
H1895 C1903 0.950 . S
H1896 C1901 0.950 . S
H1897 C1902 0.949 . S
H1898 C1904 0.950 . S
H1899 C1905 0.950 . S
H1900 C1906 0.949 . S
C1901 H1896 0.950 . S
C1901 C1903 1.327 . S
C1901 C1907 1.429 . S
C1902 C1894 1.574 . S
C1902 H1897 0.949 . S
C1902 C1908 1.368 . S
C1903 C1887 1.349 . S
C1903 H1895 0.950 . S
C1903 C1901 1.327 . S
C1904 C1892 1.349 . S
C1904 H1898 0.950 . S
C1904 C1905 1.327 . S
C1905 H1899 0.950 . S
C1905 C1904 1.327 . S
C1905 C1909 1.429 . S
C1906 C1889 1.574 . S
C1906 H1900 0.949 . S
C1906 C1910 1.368 . S
C1907 C1888 1.429 . S
C1907 C1901 1.429 . S
C1907 C1908 1.523 . S
C1908 C1889 1.368 . S
C1908 C1902 1.368 . S
C1908 C1907 1.523 . S
C1909 C1893 1.429 . S
C1909 C1905 1.429 . S
C1909 C1910 1.523 . S
C1910 C1894 1.368 . S
C1910 C1906 1.368 . S
C1910 C1909 1.523 . S
H1911 C1886 0.950 . S
H1912 C1888 0.950 . S
H1913 C1889 0.949 . S
H1914 C1891 0.950 . S
H1915 C1893 0.950 . S
C1916 C1917 1.349 . S
C1916 C1918 1.327 . S
C1916 H1941 0.950 . S
C1917 C1916 1.349 . S
C1917 C1933 1.349 . S
C1918 C1916 1.327 . S
C1918 C1937 1.429 . S
C1918 H1942 0.950 . S
C1919 C1936 1.574 . S
C1919 C1938 1.368 . S
C1919 H1943 0.949 . S
H1920 C1924 0.949 . S
C1921 C1922 1.349 . S
C1921 C1923 1.327 . S
C1921 H1944 0.950 . S
C1922 C1921 1.349 . S
C1922 C1934 1.349 . S
C1923 C1921 1.327 . S
C1923 C1939 1.429 . S
C1923 H1945 0.950 . S
C1924 H1920 0.949 . S
C1924 C1932 1.574 . S
C1924 C1940 1.368 . S
H1925 C1933 0.950 . S
H1926 C1931 0.950 . S
H1927 C1932 0.949 . S
H1928 C1934 0.950 . S
H1929 C1935 0.950 . S
H1930 C1936 0.949 . S
C1931 H1926 0.950 . S
C1931 C1933 1.327 . S
C1931 C1937 1.429 . S
C1932 C1924 1.574 . S
C1932 H1927 0.949 . S
C1932 C1938 1.368 . S
C1933 C1917 1.349 . S
C1933 H1925 0.950 . S
C1933 C1931 1.327 . S
C1934 C1922 1.349 . S
C1934 H1928 0.950 . S
C1934 C1935 1.327 . S
C1935 H1929 0.950 . S
C1935 C1934 1.327 . S
C1935 C1939 1.429 . S
C1936 C1919 1.574 . S
C1936 H1930 0.949 . S
C1936 C1940 1.368 . S
C1937 C1918 1.429 . S
C1937 C1931 1.429 . S
C1937 C1938 1.523 . S
C1938 C1919 1.368 . S
C1938 C1932 1.368 . S
C1938 C1937 1.523 . S
C1939 C1923 1.429 . S
C1939 C1935 1.429 . S
C1939 C1940 1.523 . S
C1940 C1924 1.368 . S
C1940 C1936 1.368 . S
C1940 C1939 1.523 . S
H1941 C1916 0.950 . S
H1942 C1918 0.950 . S
H1943 C1919 0.949 . S
H1944 C1921 0.950 . S
H1945 C1923 0.950 . S
C1946 C1947 1.349 . S
C1946 C1948 1.327 . S
C1946 H1971 0.950 . S
C1947 C1946 1.349 . S
C1947 C1963 1.349 . S
C1948 C1946 1.327 . S
C1948 C1967 1.429 . S
C1948 H1972 0.950 . S
C1949 C1966 1.574 . S
C1949 C1968 1.368 . S
C1949 H1973 0.949 . S
H1950 C1954 0.949 . S
C1951 C1952 1.349 . S
C1951 C1953 1.327 . S
C1951 H1974 0.950 . S
C1952 C1951 1.349 . S
C1952 C1964 1.349 . S
C1953 C1951 1.327 . S
C1953 C1969 1.429 . S
C1953 H1975 0.950 . S
C1954 H1950 0.949 . S
C1954 C1962 1.574 . S
C1954 C1970 1.368 . S
H1955 C1963 0.950 . S
H1956 C1961 0.950 . S
H1957 C1962 0.949 . S
H1958 C1964 0.950 . S
H1959 C1965 0.950 . S
H1960 C1966 0.949 . S
C1961 H1956 0.950 . S
C1961 C1963 1.327 . S
C1961 C1967 1.429 . S
C1962 C1954 1.574 . S
C1962 H1957 0.949 . S
C1962 C1968 1.368 . S
C1963 C1947 1.349 . S
C1963 H1955 0.950 . S
C1963 C1961 1.327 . S
C1964 C1952 1.349 . S
C1964 H1958 0.950 . S
C1964 C1965 1.327 . S
C1965 H1959 0.950 . S
C1965 C1964 1.327 . S
C1965 C1969 1.429 . S
C1966 C1949 1.574 . S
C1966 H1960 0.949 . S
C1966 C1970 1.368 . S
C1967 C1948 1.429 . S
C1967 C1961 1.429 . S
C1967 C1968 1.523 . S
C1968 C1949 1.368 . S
C1968 C1962 1.368 . S
C1968 C1967 1.523 . S
C1969 C1953 1.429 . S
C1969 C1965 1.429 . S
C1969 C1970 1.523 . S
C1970 C1954 1.368 . S
C1970 C1966 1.368 . S
C1970 C1969 1.523 . S
H1971 C1946 0.950 . S
H1972 C1948 0.950 . S
H1973 C1949 0.949 . S
H1974 C1951 0.950 . S
H1975 C1953 0.950 . S
C1976 C1977 1.349 . S
C1976 C1978 1.327 . S
C1976 H2001 0.950 . S
C1977 C1976 1.349 . S
C1977 C1993 1.349 . S
C1978 C1976 1.327 . S
C1978 C1997 1.429 . S
C1978 H2002 0.950 . S
C1979 C1996 1.574 . S
C1979 C1998 1.368 . S
C1979 H2003 0.949 . S
H1980 C1984 0.949 . S
C1981 C1982 1.349 . S
C1981 C1983 1.327 . S
C1981 H2004 0.950 . S
C1982 C1981 1.349 . S
C1982 C1994 1.349 . S
C1983 C1981 1.327 . S
C1983 C1999 1.429 . S
C1983 H2005 0.950 . S
C1984 H1980 0.949 . S
C1984 C1992 1.574 . S
C1984 C2000 1.368 . S
H1985 C1993 0.950 . S
H1986 C1991 0.950 . S
H1987 C1992 0.949 . S
H1988 C1994 0.950 . S
H1989 C1995 0.950 . S
H1990 C1996 0.949 . S
C1991 H1986 0.950 . S
C1991 C1993 1.327 . S
C1991 C1997 1.429 . S
C1992 C1984 1.574 . S
C1992 H1987 0.949 . S
C1992 C1998 1.368 . S
C1993 C1977 1.349 . S
C1993 H1985 0.950 . S
C1993 C1991 1.327 . S
C1994 C1982 1.349 . S
C1994 H1988 0.950 . S
C1994 C1995 1.327 . S
C1995 H1989 0.950 . S
C1995 C1994 1.327 . S
C1995 C1999 1.429 . S
C1996 C1979 1.574 . S
C1996 H1990 0.949 . S
C1996 C2000 1.368 . S
C1997 C1978 1.429 . S
C1997 C1991 1.429 . S
C1997 C1998 1.523 . S
C1998 C1979 1.368 . S
C1998 C1992 1.368 . S
C1998 C1997 1.523 . S
C1999 C1983 1.429 . S
C1999 C1995 1.429 . S
C1999 C2000 1.523 . S
C2000 C1984 1.368 . S
C2000 C1996 1.368 . S
C2000 C1999 1.523 . S
H2001 C1976 0.950 . S
H2002 C1978 0.950 . S
H2003 C1979 0.949 . S
H2004 C1981 0.950 . S
H2005 C1983 0.950 . S
C2006 C2007 1.349 . S
C2006 C2008 1.327 . S
C2006 H2031 0.950 . S
C2007 C2006 1.349 . S
C2007 C2023 1.349 . S
C2008 C2006 1.327 . S
C2008 C2027 1.429 . S
C2008 H2032 0.950 . S
C2009 C2026 1.574 . S
C2009 C2028 1.368 . S
C2009 H2033 0.949 . S
H2010 C2014 0.949 . S
C2011 C2012 1.349 . S
C2011 C2013 1.327 . S
C2011 H2034 0.950 . S
C2012 C2011 1.349 . S
C2012 C2024 1.349 . S
C2013 C2011 1.327 . S
C2013 C2029 1.429 . S
C2013 H2035 0.950 . S
C2014 H2010 0.949 . S
C2014 C2022 1.574 . S
C2014 C2030 1.368 . S
H2015 C2023 0.950 . S
H2016 C2021 0.950 . S
H2017 C2022 0.949 . S
H2018 C2024 0.950 . S
H2019 C2025 0.950 . S
H2020 C2026 0.949 . S
C2021 H2016 0.950 . S
C2021 C2023 1.327 . S
C2021 C2027 1.429 . S
C2022 C2014 1.574 . S
C2022 H2017 0.949 . S
C2022 C2028 1.368 . S
C2023 C2007 1.349 . S
C2023 H2015 0.950 . S
C2023 C2021 1.327 . S
C2024 C2012 1.349 . S
C2024 H2018 0.950 . S
C2024 C2025 1.327 . S
C2025 H2019 0.950 . S
C2025 C2024 1.327 . S
C2025 C2029 1.429 . S
C2026 C2009 1.574 . S
C2026 H2020 0.949 . S
C2026 C2030 1.368 . S
C2027 C2008 1.429 . S
C2027 C2021 1.429 . S
C2027 C2028 1.523 . S
C2028 C2009 1.368 . S
C2028 C2022 1.368 . S
C2028 C2027 1.523 . S
C2029 C2013 1.429 . S
C2029 C2025 1.429 . S
C2029 C2030 1.523 . S
C2030 C2014 1.368 . S
C2030 C2026 1.368 . S
C2030 C2029 1.523 . S
H2031 C2006 0.950 . S
H2032 C2008 0.950 . S
H2033 C2009 0.949 . S
H2034 C2011 0.950 . S
H2035 C2013 0.950 . S
C2036 C2037 1.349 . S
C2036 C2038 1.327 . S
C2036 H2061 0.950 . S
C2037 C2036 1.349 . S
C2037 C2053 1.349 . S
C2038 C2036 1.327 . S
C2038 C2057 1.429 . S
C2038 H2062 0.950 . S
C2039 C2056 1.574 . S
C2039 C2058 1.368 . S
C2039 H2063 0.949 . S
H2040 C2044 0.949 . S
C2041 C2042 1.349 . S
C2041 C2043 1.327 . S
C2041 H2064 0.950 . S
C2042 C2041 1.349 . S
C2042 C2054 1.349 . S
C2043 C2041 1.327 . S
C2043 C2059 1.429 . S
C2043 H2065 0.950 . S
C2044 H2040 0.949 . S
C2044 C2052 1.574 . S
C2044 C2060 1.368 . S
H2045 C2053 0.950 . S
H2046 C2051 0.950 . S
H2047 C2052 0.949 . S
H2048 C2054 0.950 . S
H2049 C2055 0.950 . S
H2050 C2056 0.949 . S
C2051 H2046 0.950 . S
C2051 C2053 1.327 . S
C2051 C2057 1.429 . S
C2052 C2044 1.574 . S
C2052 H2047 0.949 . S
C2052 C2058 1.368 . S
C2053 C2037 1.349 . S
C2053 H2045 0.950 . S
C2053 C2051 1.327 . S
C2054 C2042 1.349 . S
C2054 H2048 0.950 . S
C2054 C2055 1.327 . S
C2055 H2049 0.950 . S
C2055 C2054 1.327 . S
C2055 C2059 1.429 . S
C2056 C2039 1.574 . S
C2056 H2050 0.949 . S
C2056 C2060 1.368 . S
C2057 C2038 1.429 . S
C2057 C2051 1.429 . S
C2057 C2058 1.523 . S
C2058 C2039 1.368 . S
C2058 C2052 1.368 . S
C2058 C2057 1.523 . S
C2059 C2043 1.429 . S
C2059 C2055 1.429 . S
C2059 C2060 1.523 . S
C2060 C2044 1.368 . S
C2060 C2056 1.368 . S
C2060 C2059 1.523 . S
H2061 C2036 0.950 . S
H2062 C2038 0.950 . S
H2063 C2039 0.949 . S
H2064 C2041 0.950 . S
H2065 C2043 0.950 . S
C2066 C2067 1.349 . S
C2066 C2068 1.327 . S
C2066 H2091 0.950 . S
C2067 C2066 1.349 . S
C2067 C2083 1.349 . S
C2068 C2066 1.327 . S
C2068 C2087 1.429 . S
C2068 H2092 0.950 . S
C2069 C2086 1.574 . S
C2069 C2088 1.368 . S
C2069 H2093 0.949 . S
H2070 C2074 0.949 . S
C2071 C2072 1.349 . S
C2071 C2073 1.327 . S
C2071 H2094 0.950 . S
C2072 C2071 1.349 . S
C2072 C2084 1.349 . S
C2073 C2071 1.327 . S
C2073 C2089 1.429 . S
C2073 H2095 0.950 . S
C2074 H2070 0.949 . S
C2074 C2082 1.574 . S
C2074 C2090 1.368 . S
H2075 C2083 0.950 . S
H2076 C2081 0.950 . S
H2077 C2082 0.949 . S
H2078 C2084 0.950 . S
H2079 C2085 0.950 . S
H2080 C2086 0.949 . S
C2081 H2076 0.950 . S
C2081 C2083 1.327 . S
C2081 C2087 1.429 . S
C2082 C2074 1.574 . S
C2082 H2077 0.949 . S
C2082 C2088 1.368 . S
C2083 C2067 1.349 . S
C2083 H2075 0.950 . S
C2083 C2081 1.327 . S
C2084 C2072 1.349 . S
C2084 H2078 0.950 . S
C2084 C2085 1.327 . S
C2085 H2079 0.950 . S
C2085 C2084 1.327 . S
C2085 C2089 1.429 . S
C2086 C2069 1.574 . S
C2086 H2080 0.949 . S
C2086 C2090 1.368 . S
C2087 C2068 1.429 . S
C2087 C2081 1.429 . S
C2087 C2088 1.523 . S
C2088 C2069 1.368 . S
C2088 C2082 1.368 . S
C2088 C2087 1.523 . S
C2089 C2073 1.429 . S
C2089 C2085 1.429 . S
C2089 C2090 1.523 . S
C2090 C2074 1.368 . S
C2090 C2086 1.368 . S
C2090 C2089 1.523 . S
H2091 C2066 0.950 . S
H2092 C2068 0.950 . S
H2093 C2069 0.949 . S
H2094 C2071 0.950 . S
H2095 C2073 0.950 . S
C2096 C2097 1.349 . S
C2096 C2098 1.327 . S
C2096 H2121 0.950 . S
C2097 C2096 1.349 . S
C2097 C2113 1.349 . S
C2098 C2096 1.327 . S
C2098 C2117 1.429 . S
C2098 H2122 0.950 . S
C2099 C2116 1.574 . S
C2099 C2118 1.368 . S
C2099 H2123 0.949 . S
H2100 C2104 0.949 . S
C2101 C2102 1.349 . S
C2101 C2103 1.327 . S
C2101 H2124 0.950 . S
C2102 C2101 1.349 . S
C2102 C2114 1.349 . S
C2103 C2101 1.327 . S
C2103 C2119 1.429 . S
C2103 H2125 0.950 . S
C2104 H2100 0.949 . S
C2104 C2112 1.574 . S
C2104 C2120 1.368 . S
H2105 C2113 0.950 . S
H2106 C2111 0.950 . S
H2107 C2112 0.949 . S
H2108 C2114 0.950 . S
H2109 C2115 0.950 . S
H2110 C2116 0.949 . S
C2111 H2106 0.950 . S
C2111 C2113 1.327 . S
C2111 C2117 1.429 . S
C2112 C2104 1.574 . S
C2112 H2107 0.949 . S
C2112 C2118 1.368 . S
C2113 C2097 1.349 . S
C2113 H2105 0.950 . S
C2113 C2111 1.327 . S
C2114 C2102 1.349 . S
C2114 H2108 0.950 . S
C2114 C2115 1.327 . S
C2115 H2109 0.950 . S
C2115 C2114 1.327 . S
C2115 C2119 1.429 . S
C2116 C2099 1.574 . S
C2116 H2110 0.949 . S
C2116 C2120 1.368 . S
C2117 C2098 1.429 . S
C2117 C2111 1.429 . S
C2117 C2118 1.523 . S
C2118 C2099 1.368 . S
C2118 C2112 1.368 . S
C2118 C2117 1.523 . S
C2119 C2103 1.429 . S
C2119 C2115 1.429 . S
C2119 C2120 1.523 . S
C2120 C2104 1.368 . S
C2120 C2116 1.368 . S
C2120 C2119 1.523 . S
H2121 C2096 0.950 . S
H2122 C2098 0.950 . S
H2123 C2099 0.949 . S
H2124 C2101 0.950 . S
H2125 C2103 0.950 . S
C2126 C2127 1.349 . S
C2126 C2128 1.327 . S
C2126 H2151 0.950 . S
C2127 C2126 1.349 . S
C2127 C2143 1.349 . S
C2128 C2126 1.327 . S
C2128 C2147 1.429 . S
C2128 H2152 0.950 . S
C2129 C2146 1.574 . S
C2129 C2148 1.368 . S
C2129 H2153 0.949 . S
H2130 C2134 0.949 . S
C2131 C2132 1.349 . S
C2131 C2133 1.327 . S
C2131 H2154 0.950 . S
C2132 C2131 1.349 . S
C2132 C2144 1.349 . S
C2133 C2131 1.327 . S
C2133 C2149 1.429 . S
C2133 H2155 0.950 . S
C2134 H2130 0.949 . S
C2134 C2142 1.574 . S
C2134 C2150 1.368 . S
H2135 C2143 0.950 . S
H2136 C2141 0.950 . S
H2137 C2142 0.949 . S
H2138 C2144 0.950 . S
H2139 C2145 0.950 . S
H2140 C2146 0.949 . S
C2141 H2136 0.950 . S
C2141 C2143 1.327 . S
C2141 C2147 1.429 . S
C2142 C2134 1.574 . S
C2142 H2137 0.949 . S
C2142 C2148 1.368 . S
C2143 C2127 1.349 . S
C2143 H2135 0.950 . S
C2143 C2141 1.327 . S
C2144 C2132 1.349 . S
C2144 H2138 0.950 . S
C2144 C2145 1.327 . S
C2145 H2139 0.950 . S
C2145 C2144 1.327 . S
C2145 C2149 1.429 . S
C2146 C2129 1.574 . S
C2146 H2140 0.949 . S
C2146 C2150 1.368 . S
C2147 C2128 1.429 . S
C2147 C2141 1.429 . S
C2147 C2148 1.523 . S
C2148 C2129 1.368 . S
C2148 C2142 1.368 . S
C2148 C2147 1.523 . S
C2149 C2133 1.429 . S
C2149 C2145 1.429 . S
C2149 C2150 1.523 . S
C2150 C2134 1.368 . S
C2150 C2146 1.368 . S
C2150 C2149 1.523 . S
H2151 C2126 0.950 . S
H2152 C2128 0.950 . S
H2153 C2129 0.949 . S
H2154 C2131 0.950 . S
H2155 C2133 0.950 . S
C2156 C2157 1.349 . S
C2156 C2158 1.327 . S
C2156 H2181 0.950 . S
C2157 C2156 1.349 . S
C2157 C2173 1.349 . S
C2158 C2156 1.327 . S
C2158 C2177 1.429 . S
C2158 H2182 0.950 . S
C2159 C2176 1.574 . S
C2159 C2178 1.368 . S
C2159 H2183 0.949 . S
H2160 C2164 0.949 . S
C2161 C2162 1.349 . S
C2161 C2163 1.327 . S
C2161 H2184 0.950 . S
C2162 C2161 1.349 . S
C2162 C2174 1.349 . S
C2163 C2161 1.327 . S
C2163 C2179 1.429 . S
C2163 H2185 0.950 . S
C2164 H2160 0.949 . S
C2164 C2172 1.574 . S
C2164 C2180 1.368 . S
H2165 C2173 0.950 . S
H2166 C2171 0.950 . S
H2167 C2172 0.949 . S
H2168 C2174 0.950 . S
H2169 C2175 0.950 . S
H2170 C2176 0.949 . S
C2171 H2166 0.950 . S
C2171 C2173 1.327 . S
C2171 C2177 1.429 . S
C2172 C2164 1.574 . S
C2172 H2167 0.949 . S
C2172 C2178 1.368 . S
C2173 C2157 1.349 . S
C2173 H2165 0.950 . S
C2173 C2171 1.327 . S
C2174 C2162 1.349 . S
C2174 H2168 0.950 . S
C2174 C2175 1.327 . S
C2175 H2169 0.950 . S
C2175 C2174 1.327 . S
C2175 C2179 1.429 . S
C2176 C2159 1.574 . S
C2176 H2170 0.949 . S
C2176 C2180 1.368 . S
C2177 C2158 1.429 . S
C2177 C2171 1.429 . S
C2177 C2178 1.523 . S
C2178 C2159 1.368 . S
C2178 C2172 1.368 . S
C2178 C2177 1.523 . S
C2179 C2163 1.429 . S
C2179 C2175 1.429 . S
C2179 C2180 1.523 . S
C2180 C2164 1.368 . S
C2180 C2176 1.368 . S
C2180 C2179 1.523 . S
H2181 C2156 0.950 . S
H2182 C2158 0.950 . S
H2183 C2159 0.949 . S
H2184 C2161 0.950 . S
H2185 C2163 0.950 . S
C2186 C2187 1.349 . S
C2186 C2188 1.327 . S
C2186 H2211 0.950 . S
C2187 C2186 1.349 . S
C2187 C2203 1.349 . S
C2188 C2186 1.327 . S
C2188 C2207 1.429 . S
C2188 H2212 0.950 . S
C2189 C2206 1.574 . S
C2189 C2208 1.368 . S
C2189 H2213 0.949 . S
H2190 C2194 0.949 . S
C2191 C2192 1.349 . S
C2191 C2193 1.327 . S
C2191 H2214 0.950 . S
C2192 C2191 1.349 . S
C2192 C2204 1.349 . S
C2193 C2191 1.327 . S
C2193 C2209 1.429 . S
C2193 H2215 0.950 . S
C2194 H2190 0.949 . S
C2194 C2202 1.574 . S
C2194 C2210 1.368 . S
H2195 C2203 0.950 . S
H2196 C2201 0.950 . S
H2197 C2202 0.949 . S
H2198 C2204 0.950 . S
H2199 C2205 0.950 . S
H2200 C2206 0.949 . S
C2201 H2196 0.950 . S
C2201 C2203 1.327 . S
C2201 C2207 1.429 . S
C2202 C2194 1.574 . S
C2202 H2197 0.949 . S
C2202 C2208 1.368 . S
C2203 C2187 1.349 . S
C2203 H2195 0.950 . S
C2203 C2201 1.327 . S
C2204 C2192 1.349 . S
C2204 H2198 0.950 . S
C2204 C2205 1.327 . S
C2205 H2199 0.950 . S
C2205 C2204 1.327 . S
C2205 C2209 1.429 . S
C2206 C2189 1.574 . S
C2206 H2200 0.949 . S
C2206 C2210 1.368 . S
C2207 C2188 1.429 . S
C2207 C2201 1.429 . S
C2207 C2208 1.523 . S
C2208 C2189 1.368 . S
C2208 C2202 1.368 . S
C2208 C2207 1.523 . S
C2209 C2193 1.429 . S
C2209 C2205 1.429 . S
C2209 C2210 1.523 . S
C2210 C2194 1.368 . S
C2210 C2206 1.368 . S
C2210 C2209 1.523 . S
H2211 C2186 0.950 . S
H2212 C2188 0.950 . S
H2213 C2189 0.949 . S
H2214 C2191 0.950 . S
H2215 C2193 0.950 . S
C2216 C2217 1.349 . S
C2216 C2218 1.327 . S
C2216 H2241 0.950 . S
C2217 C2216 1.349 . S
C2217 C2233 1.349 . S
C2218 C2216 1.327 . S
C2218 C2237 1.429 . S
C2218 H2242 0.950 . S
C2219 C2236 1.574 . S
C2219 C2238 1.368 . S
C2219 H2243 0.949 . S
H2220 C2224 0.949 . S
C2221 C2222 1.349 . S
C2221 C2223 1.327 . S
C2221 H2244 0.950 . S
C2222 C2221 1.349 . S
C2222 C2234 1.349 . S
C2223 C2221 1.327 . S
C2223 C2239 1.429 . S
C2223 H2245 0.950 . S
C2224 H2220 0.949 . S
C2224 C2232 1.574 . S
C2224 C2240 1.368 . S
H2225 C2233 0.950 . S
H2226 C2231 0.950 . S
H2227 C2232 0.949 . S
H2228 C2234 0.950 . S
H2229 C2235 0.950 . S
H2230 C2236 0.949 . S
C2231 H2226 0.950 . S
C2231 C2233 1.327 . S
C2231 C2237 1.429 . S
C2232 C2224 1.574 . S
C2232 H2227 0.949 . S
C2232 C2238 1.368 . S
C2233 C2217 1.349 . S
C2233 H2225 0.950 . S
C2233 C2231 1.327 . S
C2234 C2222 1.349 . S
C2234 H2228 0.950 . S
C2234 C2235 1.327 . S
C2235 H2229 0.950 . S
C2235 C2234 1.327 . S
C2235 C2239 1.429 . S
C2236 C2219 1.574 . S
C2236 H2230 0.949 . S
C2236 C2240 1.368 . S
C2237 C2218 1.429 . S
C2237 C2231 1.429 . S
C2237 C2238 1.523 . S
C2238 C2219 1.368 . S
C2238 C2232 1.368 . S
C2238 C2237 1.523 . S
C2239 C2223 1.429 . S
C2239 C2235 1.429 . S
C2239 C2240 1.523 . S
C2240 C2224 1.368 . S
C2240 C2236 1.368 . S
C2240 C2239 1.523 . S
H2241 C2216 0.950 . S
H2242 C2218 0.950 . S
H2243 C2219 0.949 . S
H2244 C2221 0.950 . S
H2245 C2223 0.950 . S
C2246 C2247 1.349 . S
C2246 C2248 1.327 . S
C2246 H2271 0.950 . S
C2247 C2246 1.349 . S
C2247 C2263 1.349 . S
C2248 C2246 1.327 . S
C2248 C2267 1.429 . S
C2248 H2272 0.950 . S
C2249 C2266 1.574 . S
C2249 C2268 1.368 . S
C2249 H2273 0.949 . S
H2250 C2254 0.949 . S
C2251 C2252 1.349 . S
C2251 C2253 1.327 . S
C2251 H2274 0.950 . S
C2252 C2251 1.349 . S
C2252 C2264 1.349 . S
C2253 C2251 1.327 . S
C2253 C2269 1.429 . S
C2253 H2275 0.950 . S
C2254 H2250 0.949 . S
C2254 C2262 1.574 . S
C2254 C2270 1.368 . S
H2255 C2263 0.950 . S
H2256 C2261 0.950 . S
H2257 C2262 0.949 . S
H2258 C2264 0.950 . S
H2259 C2265 0.950 . S
H2260 C2266 0.949 . S
C2261 H2256 0.950 . S
C2261 C2263 1.327 . S
C2261 C2267 1.429 . S
C2262 C2254 1.574 . S
C2262 H2257 0.949 . S
C2262 C2268 1.368 . S
C2263 C2247 1.349 . S
C2263 H2255 0.950 . S
C2263 C2261 1.327 . S
C2264 C2252 1.349 . S
C2264 H2258 0.950 . S
C2264 C2265 1.327 . S
C2265 H2259 0.950 . S
C2265 C2264 1.327 . S
C2265 C2269 1.429 . S
C2266 C2249 1.574 . S
C2266 H2260 0.949 . S
C2266 C2270 1.368 . S
C2267 C2248 1.429 . S
C2267 C2261 1.429 . S
C2267 C2268 1.523 . S
C2268 C2249 1.368 . S
C2268 C2262 1.368 . S
C2268 C2267 1.523 . S
C2269 C2253 1.429 . S
C2269 C2265 1.429 . S
C2269 C2270 1.523 . S
C2270 C2254 1.368 . S
C2270 C2266 1.368 . S
C2270 C2269 1.523 . S
H2271 C2246 0.950 . S
H2272 C2248 0.950 . S
H2273 C2249 0.949 . S
H2274 C2251 0.950 . S
H2275 C2253 0.950 . S
C2276 C2277 1.349 . S
C2276 C2278 1.327 . S
C2276 H2301 0.950 . S
C2277 C2276 1.349 . S
C2277 C2293 1.349 . S
C2278 C2276 1.327 . S
C2278 C2297 1.429 . S
C2278 H2302 0.950 . S
C2279 C2296 1.574 . S
C2279 C2298 1.368 . S
C2279 H2303 0.949 . S
H2280 C2284 0.949 . S
C2281 C2282 1.349 . S
C2281 C2283 1.327 . S
C2281 H2304 0.950 . S
C2282 C2281 1.349 . S
C2282 C2294 1.349 . S
C2283 C2281 1.327 . S
C2283 C2299 1.429 . S
C2283 H2305 0.950 . S
C2284 H2280 0.949 . S
C2284 C2292 1.574 . S
C2284 C2300 1.368 . S
H2285 C2293 0.950 . S
H2286 C2291 0.950 . S
H2287 C2292 0.949 . S
H2288 C2294 0.950 . S
H2289 C2295 0.950 . S
H2290 C2296 0.949 . S
C2291 H2286 0.950 . S
C2291 C2293 1.327 . S
C2291 C2297 1.429 . S
C2292 C2284 1.574 . S
C2292 H2287 0.949 . S
C2292 C2298 1.368 . S
C2293 C2277 1.349 . S
C2293 H2285 0.950 . S
C2293 C2291 1.327 . S
C2294 C2282 1.349 . S
C2294 H2288 0.950 . S
C2294 C2295 1.327 . S
C2295 H2289 0.950 . S
C2295 C2294 1.327 . S
C2295 C2299 1.429 . S
C2296 C2279 1.574 . S
C2296 H2290 0.949 . S
C2296 C2300 1.368 . S
C2297 C2278 1.429 . S
C2297 C2291 1.429 . S
C2297 C2298 1.523 . S
C2298 C2279 1.368 . S
C2298 C2292 1.368 . S
C2298 C2297 1.523 . S
C2299 C2283 1.429 . S
C2299 C2295 1.429 . S
C2299 C2300 1.523 . S
C2300 C2284 1.368 . S
C2300 C2296 1.368 . S
C2300 C2299 1.523 . S
H2301 C2276 0.950 . S
H2302 C2278 0.950 . S
H2303 C2279 0.949 . S
H2304 C2281 0.950 . S
H2305 C2283 0.950 . S
C2306 C2307 1.349 . S
C2306 C2308 1.327 . S
C2306 H2331 0.950 . S
C2307 C2306 1.349 . S
C2307 C2323 1.349 . S
C2308 C2306 1.327 . S
C2308 C2327 1.429 . S
C2308 H2332 0.950 . S
C2309 C2326 1.574 . S
C2309 C2328 1.368 . S
C2309 H2333 0.949 . S
H2310 C2314 0.949 . S
C2311 C2312 1.349 . S
C2311 C2313 1.327 . S
C2311 H2334 0.950 . S
C2312 C2311 1.349 . S
C2312 C2324 1.349 . S
C2313 C2311 1.327 . S
C2313 C2329 1.429 . S
C2313 H2335 0.950 . S
C2314 H2310 0.949 . S
C2314 C2322 1.574 . S
C2314 C2330 1.368 . S
H2315 C2323 0.950 . S
H2316 C2321 0.950 . S
H2317 C2322 0.949 . S
H2318 C2324 0.950 . S
H2319 C2325 0.950 . S
H2320 C2326 0.949 . S
C2321 H2316 0.950 . S
C2321 C2323 1.327 . S
C2321 C2327 1.429 . S
C2322 C2314 1.574 . S
C2322 H2317 0.949 . S
C2322 C2328 1.368 . S
C2323 C2307 1.349 . S
C2323 H2315 0.950 . S
C2323 C2321 1.327 . S
C2324 C2312 1.349 . S
C2324 H2318 0.950 . S
C2324 C2325 1.327 . S
C2325 H2319 0.950 . S
C2325 C2324 1.327 . S
C2325 C2329 1.429 . S
C2326 C2309 1.574 . S
C2326 H2320 0.949 . S
C2326 C2330 1.368 . S
C2327 C2308 1.429 . S
C2327 C2321 1.429 . S
C2327 C2328 1.523 . S
C2328 C2309 1.368 . S
C2328 C2322 1.368 . S
C2328 C2327 1.523 . S
C2329 C2313 1.429 . S
C2329 C2325 1.429 . S
C2329 C2330 1.523 . S
C2330 C2314 1.368 . S
C2330 C2326 1.368 . S
C2330 C2329 1.523 . S
H2331 C2306 0.950 . S
H2332 C2308 0.950 . S
H2333 C2309 0.949 . S
H2334 C2311 0.950 . S
H2335 C2313 0.950 . S
C417 C91 1.318 . S
C422 C0 1.316 . S
C447 C13 1.449 . S
C452 C52 1.457 . S
C477 C65 1.178 . S
C482 C26 1.170 . S
C507 C78 1.234 . S
C512 C39 1.303 . S
C537 C104 1.315 . S
C542 C286 1.317 . S
C567 C117 1.449 . S
C572 C247 1.457 . S
C597 C377 1.178 . S
C602 C130 1.170 . S
C627 C351 1.234 . S
C632 C143 1.303 . S
C657 C156 1.457 . S
C662 C403 1.450 . S
C687 C169 1.178 . S
C692 C338 1.170 . S
C717 C182 1.234 . S
C722 C273 1.303 . S
C747 C195 1.318 . S
C752 C208 1.316 . S
C777 C221 1.317 . S
C782 C325 1.316 . S
C807 C234 1.170 . S
C812 C260 1.178 . S
C837 C390 1.303 . S
C842 C299 1.234 . S
C867 C364 1.457 . S
C872 C312 1.449 . S
C897 C140 0.672 . S
C902 C10 0.772 . S
C927 C148 0.682 . S
C932 C18 0.506 . S
C957 C114 0.821 . S
C962 C36 0.672 . S
C987 C122 0.506 . S
C992 C44 0.682 . S
C1017 C190 0.530 . S
C1022 C62 0.653 . S
C1047 C75 0.619 . S
C1052 C205 0.725 1_554 S
C1077 C86 0.530 . S
C1082 C166 0.653 . S
C1107 C101 0.725 . S
C1112 C179 0.619 . S
C1137 C164 0.757 . S
C1142 C112 0.471 . S
C1167 C127 0.736 . S
C1172 C177 0.493 . S
C1197 C187 0.876 . S
C1202 C138 0.420 . S
C1227 C153 0.664 . S
C1232 C203 0.444 . S
C1257 C309 0.464 . S
C1262 C213 0.663 . S
C1287 C31 0.698 . S
C1292 C161 0.450 . S
C1317 C47 0.375 . S
C1322 C174 0.762 . S
C1347 C5 0.663 . S
C1352 C192 0.464 . S
C1377 C226 0.670 . S
C1382 C411 0.436 . S
C1407 C252 0.450 . S
C1412 C239 0.699 . S
C1437 C21 0.436 . S
C1442 C200 0.670 . S
C1467 C307 0.530 . S
C1472 C257 0.653 . S
C1497 C270 0.619 . S
C1502 C296 0.725 1_554 S
C1527 C218 0.772 . S
C1532 C244 0.672 . S
C1557 C278 0.682 . S
C1562 C317 0.506 . S
C1587 C320 0.436 . S
C1592 C291 0.670 . S
C1617 C135 0.699 . S
C1622 C57 0.450 . S
C1647 C268 0.493 . S
C1652 C322 0.736 . S
C1677 C99 0.444 . S
C1682 C49 0.664 . S
C1707 C372 0.758 . S
C1712 C333 0.471 . S
C1737 C73 0.493 . S
C1742 C23 0.736 . S
C1767 C216 0.471 . S
C1772 C255 0.757 . S
C1797 C335 0.772 . S
C1802 C348 0.672 . S
C1827 C359 0.530 . S
C1832 C374 0.653 . S
C1857 C304 0.876 . S
C1862 C242 0.420 . S
C1887 C343 0.698 . S
C1892 C369 0.451 . S
C1917 C151 0.375 . S
C1922 C70 0.762 . S
C1947 C96 0.670 . S
C1952 C125 0.436 . S
C1977 C231 0.725 . S
C1982 C387 0.619 . S
C2007 C395 0.682 . S
C2012 C408 0.506 . S
C2037 C413 0.736 . S
C2042 C385 0.493 . S
C2067 C60 0.758 . S
C2072 C8 0.471 . S
C2097 C34 0.420 . S
C2102 C83 0.876 . S
C2127 C400 0.664 . S
C2132 C229 0.444 . S
C2157 C330 0.663 . S
C2162 C361 0.464 . S
C2187 C265 0.762 . S
C2192 C281 0.375 . S
C2217 C88 0.464 . S
C2222 C109 0.663 . S
C2247 C294 0.444 . S
C2252 C283 0.664 . S
C2277 C346 0.420 . S
C2282 C356 0.876 . S
C2307 C398 0.375 . S
C2312 C382 0.762 . S
