# Generated by pormake.
# Topology smc, (6)-cn, num edge types: 1
# Building blocks:
#     Node 0, Type 0, BuildingBlock: LEVNOQ01_clean_sbu_1, # of connection points: 6
#     Node 1, Type 0, BuildingBlock: LEVNOQ01_clean_sbu_1, # of connection points: 6
#     Node 2, Type 0, BuildingBlock: LEVNOQ01_clean_sbu_1, # of connection points: 6
#     Node 3, Type 0, BuildingBlock: LEVNOQ01_clean_sbu_1, # of connection points: 6
#     Node 4, Type 0, BuildingBlock: LEVNOQ01_clean_sbu_1, # of connection points: 6
#     Node 5, Type 0, BuildingBlock: LEVNOQ01_clean_sbu_1, # of connection points: 6
#     Node 6, Type 0, BuildingBlock: LEVNOQ01_clean_sbu_1, # of connection points: 6
#     Node 7, Type 0, BuildingBlock: LEVNOQ01_clean_sbu_1, # of connection points: 6
#     Node 8, Type 0, BuildingBlock: LEVNOQ01_clean_sbu_1, # of connection points: 6
#     Edge 9, Type (0, 0), BuildingBlock: UVAHIK_clean_linker_0, # of connection points: 2
#     Edge 10, Type (0, 0), BuildingBlock: UVAHIK_clean_linker_0, # of connection points: 2
#     Edge 11, Type (0, 0), BuildingBlock: UVAHIK_clean_linker_0, # of connection points: 2
#     Edge 12, Type (0, 0), BuildingBlock: UVAHIK_clean_linker_0, # of connection points: 2
#     Edge 13, Type (0, 0), BuildingBlock: UVAHIK_clean_linker_0, # of connection points: 2
#     Edge 14, Type (0, 0), BuildingBlock: UVAHIK_clean_linker_0, # of connection points: 2
#     Edge 15, Type (0, 0), BuildingBlock: UVAHIK_clean_linker_0, # of connection points: 2
#     Edge 16, Type (0, 0), BuildingBlock: UVAHIK_clean_linker_0, # of connection points: 2
#     Edge 17, Type (0, 0), BuildingBlock: UVAHIK_clean_linker_0, # of connection points: 2
#     Edge 18, Type (0, 0), BuildingBlock: UVAHIK_clean_linker_0, # of connection points: 2
#     Edge 19, Type (0, 0), BuildingBlock: UVAHIK_clean_linker_0, # of connection points: 2
#     Edge 20, Type (0, 0), BuildingBlock: UVAHIK_clean_linker_0, # of connection points: 2
#     Edge 21, Type (0, 0), BuildingBlock: UVAHIK_clean_linker_0, # of connection points: 2
#     Edge 22, Type (0, 0), BuildingBlock: UVAHIK_clean_linker_0, # of connection points: 2
#     Edge 23, Type (0, 0), BuildingBlock: UVAHIK_clean_linker_0, # of connection points: 2
#     Edge 24, Type (0, 0), BuildingBlock: UVAHIK_clean_linker_0, # of connection points: 2
#     Edge 25, Type (0, 0), BuildingBlock: UVAHIK_clean_linker_0, # of connection points: 2
#     Edge 26, Type (0, 0), BuildingBlock: UVAHIK_clean_linker_0, # of connection points: 2
#     Edge 27, Type (0, 0), BuildingBlock: UVAHIK_clean_linker_0, # of connection points: 2
#     Edge 28, Type (0, 0), BuildingBlock: UVAHIK_clean_linker_0, # of connection points: 2
#     Edge 29, Type (0, 0), BuildingBlock: UVAHIK_clean_linker_0, # of connection points: 2
#     Edge 30, Type (0, 0), BuildingBlock: UVAHIK_clean_linker_0, # of connection points: 2
#     Edge 31, Type (0, 0), BuildingBlock: UVAHIK_clean_linker_0, # of connection points: 2
#     Edge 32, Type (0, 0), BuildingBlock: UVAHIK_clean_linker_0, # of connection points: 2
#     Edge 33, Type (0, 0), BuildingBlock: UVAHIK_clean_linker_0, # of connection points: 2
#     Edge 34, Type (0, 0), BuildingBlock: UVAHIK_clean_linker_0, # of connection points: 2
#     Edge 35, Type (0, 0), BuildingBlock: UVAHIK_clean_linker_0, # of connection points: 2
# Relax obj value: 0.146
# Max RMSD: 0.229
# Mean RMSD: 0.229
data_MOF--net-smc--node1-LEVNOQ01_clean_sbu_1--edge1-UVAHIK_clean_linker_0
_symmetry_space_group_name_H-M    P1
_symmetry_Int_Tables_number       1
_symmetry_cell_setting            triclinic
loop_
_symmetry_equiv_pos_as_xyz
'x, y, z'
_cell_length_a     38.299229
_cell_length_b     38.324574
_cell_length_c     55.853602
_cell_angle_alpha  90.042051
_cell_angle_beta   90.019029
_cell_angle_gamma 120.10268
loop_
_atom_site_label
_atom_site_type_symbol
_atom_site_fract_x
_atom_site_fract_y
_atom_site_fract_z
_atom_type_partial_charge
O0 O 0.914 0.34357 0.03793 0.0
Mg1 Mg 0.93483 0.40156 0.05243 0.0
O2 O 0.94887 0.3693 1.00464 0.0
Mg3 Mg -0.00185 0.43672 0.01073 0.0
O4 O -0.00363 0.43442 0.05233 0.0
O5 O 0.9599 0.41472 0.08592 0.0
O6 O 0.04651 0.50484 0.01614 0.0
O7 O 0.04596 0.41693 0.0152 0.0
Mg8 Mg 0.06179 0.46851 0.96926 0.0
O9 O 0.00018 0.43881 0.96912 0.0
O10 O 0.08757 0.52627 0.98493 0.0
O11 O 0.08195 0.42974 0.98199 0.0
O12 O 0.03707 0.4598 0.93574 0.0
C13 C 0.92214 0.45586 0.01933 0.0
C14 C 0.92234 0.33932 0.01656 0.0
C15 C -0.00532 0.43279 0.07558 0.0
C16 C 0.07643 0.53302 1.00493 0.0
C17 C 0.0726 0.41459 1.00278 0.0
C18 C 0.00216 0.44048 0.94587 0.0
O19 O 0.91087 0.43662 0.0389 0.0
O20 O 0.95117 0.45775 0.00716 0.0
O21 O 0.56719 0.66395 0.98669 0.0
Mg22 Mg 0.53146 0.60686 0.9704 0.0
O23 O 0.58464 0.64098 0.01834 0.0
Mg24 Mg 0.56598 0.5745 0.01171 0.0
O25 O 0.5647 0.57882 0.97058 0.0
O26 O 0.54594 0.59545 0.93682 0.0
O27 O 0.54583 0.50785 1.00494 0.0
O28 O 0.63344 0.59425 0.00595 0.0
Mg29 Mg 0.59898 0.54072 0.05171 0.0
O30 O 0.5671 0.57032 0.05308 0.0
O31 O 0.56625 0.48394 0.03461 0.0
O32 O 0.65733 0.58022 0.03843 0.0
O33 O 0.58383 0.54859 0.08576 0.0
C34 C 0.46858 0.55027 1.00506 0.0
C35 C 0.58452 0.66959 0.00685 0.0
C36 C 0.56527 0.58033 0.94738 0.0
C37 C 0.5477 0.47912 0.01501 0.0
C38 C 0.66268 0.59604 0.01785 0.0
C39 C 0.56779 0.56791 0.07626 0.0
O40 O 0.47372 0.56726 0.98487 0.0
O41 O 0.49792 0.5522 0.01688 0.0
O42 O 0.33355 0.92044 0.97999 0.0
Mg43 Mg 0.39387 0.94323 0.97009 0.0
O44 O 0.35508 0.95162 0.01463 0.0
Mg45 Mg 0.42518 -0.00206 0.01243 0.0
O46 O 0.4285 0.00525 0.97021 0.0
O47 O 0.40858 0.96692 0.937 0.0
O48 O 0.49511 0.04228 0.01018 0.0
O49 O 0.41249 0.05052 0.0108 0.0
Mg50 Mg 0.45661 0.05283 0.0561 0.0
O51 O 0.42235 -0.00884 0.05467 0.0
O52 O 0.5161 0.075 0.04452 0.0
O53 O 0.42648 0.08364 0.04505 0.0
O54 O 0.44439 0.02692 0.0888 0.0
C55 C 0.43999 0.91982 1.00104 0.0
C56 C 0.32625 0.92675 1.00113 0.0
C57 C 0.42693 0.0021 0.94689 0.0
C58 C 0.52356 0.06688 0.02385 0.0
C59 C 0.41337 0.07825 0.02378 0.0
C60 C 0.42413 -0.00736 0.07805 0.0
O61 O 0.42307 0.91172 0.98078 0.0
O62 O 0.44196 0.94812 0.01386 0.0
O63 O 0.74447 0.7589 0.30997 0.0
Mg64 Mg 0.72333 0.79884 0.30353 0.0
O65 O 0.7168 0.75226 0.34535 0.0
Mg66 Mg 0.66803 0.77264 0.34341 0.0
O67 O 0.66153 0.77243 0.30095 0.0
O68 O 0.70445 0.79736 0.26983 0.0
O69 O 0.62017 0.79351 0.34188 0.0
O70 O 0.61914 0.70412 0.33923 0.0
Mg71 Mg 0.6132 0.74067 0.38423 0.0
O72 O 0.67502 0.77534 0.38588 0.0
O73 O 0.58003 0.76806 0.37303 0.0
O74 O 0.59242 0.68065 0.37462 0.0
O75 O 0.63407 0.75504 0.41797 0.0
C76 C 0.74692 0.8669 0.33633 0.0
C77 C 0.74014 0.7469 0.33139 0.0
C78 C 0.668 0.77828 0.27792 0.0
C79 C 0.59002 0.78891 0.3541 0.0
C80 C 0.5965 0.67459 0.35282 0.0
C81 C 0.67002 0.77317 0.4091 0.0
O82 O 0.75762 0.85786 0.317 0.0
O83 O 0.71577 0.84053 0.3474 0.0
O84 O 0.24675 0.00351 0.31809 0.0
Mg85 Mg 0.20712 0.94578 0.30417 0.0
O86 O 0.25498 0.97813 0.35183 0.0
Mg87 Mg 0.23343 0.90975 0.34646 0.0
O88 O 0.23414 0.91156 0.30505 0.0
O89 O 0.21842 0.93075 0.27095 0.0
O90 O 0.21019 0.84158 0.34152 0.0
O91 O 0.30111 0.92698 0.34057 0.0
Mg92 Mg 0.26953 0.88559 0.38253 0.0
O93 O 0.23094 0.90744 0.38882 0.0
O94 O 0.24586 0.82781 0.36674 0.0
O95 O 0.32948 0.92895 0.37495 0.0
O96 O 0.25455 0.88312 0.41729 0.0
C97 C 0.13908 0.89504 0.33801 0.0
C98 C 0.25972 0.00813 0.3394 0.0
C99 C 0.23451 0.9126 0.28181 0.0
C100 C 0.21988 0.81691 0.35019 0.0
C101 C 0.33265 0.93568 0.35273 0.0
C102 C 0.2343 0.90036 0.4113 0.0
O103 O 0.14796 0.91444 0.31845 0.0
O104 O 0.16571 0.89159 0.34986 0.0
O105 O 0.00573 0.25749 0.31118 0.0
Mg106 Mg 0.06679 0.2796 0.30321 0.0
O107 O 0.02914 0.28953 0.34528 0.0
Mg108 Mg 0.0971 0.33933 0.34233 0.0
O109 O 0.10137 0.34155 0.3 0.0
O110 O 0.08312 0.29808 0.26919 0.0
O111 O 0.16544 0.3877 0.34047 0.0
O112 O 0.077 0.38757 0.33701 0.0
Mg113 Mg 0.11997 0.39686 0.3839 0.0
O114 O 0.09294 0.33556 0.38462 0.0
O115 O 0.18058 0.42518 0.37314 0.0
O116 O 0.0823 0.41794 0.37152 0.0
O117 O 0.10961 0.3746 0.4175 0.0
C118 C 0.1151 0.26195 0.33711 0.0
C119 C -0.00026 0.26386 0.33257 0.0
C120 C 0.10032 0.3347 0.27701 0.0
C121 C 0.19113 0.4159 0.3538 0.0
C122 C 0.07144 0.41196 0.34982 0.0
C123 C 0.09357 0.33927 0.40788 0.0
O124 O 0.09416 0.24873 0.31825 0.0
O125 O 0.11944 0.29356 0.34734 0.0
O126 O 0.41697 0.09744 0.6482 0.0
Mg127 Mg 0.39575 0.13553 0.63587 0.0
O128 O 0.38263 0.08504 0.68207 0.0
Mg129 Mg 0.33418 0.10456 0.67862 0.0
O130 O 0.33407 0.10539 0.63704 0.0
O131 O 0.36892 0.12539 0.6029 0.0
O132 O 0.28702 0.12571 0.6754 0.0
O133 O 0.28449 0.03683 0.67345 0.0
Mg134 Mg 0.27422 0.07131 0.71968 0.0
O135 O 0.33589 0.10474 0.72076 0.0
O136 O 0.24751 0.10446 0.70732 0.0
O137 O 0.25201 0.012 0.70741 0.0
O138 O 0.29648 0.08397 0.75341 0.0
C139 C 0.41167 0.20077 0.67112 0.0
C140 C 0.40882 0.0827 0.66913 0.0
C141 C 0.33465 0.10624 0.61377 0.0
C142 C 0.25811 0.12366 0.68776 0.0
C143 C 0.25881 0.00709 0.68588 0.0
C144 C 0.332 0.10247 0.74399 0.0
O145 O 0.42219 0.19386 0.65096 0.0
O146 O 0.38243 0.17265 0.68275 0.0
O147 O 0.90762 0.33105 0.64533 0.0
Mg148 Mg 0.86887 0.27048 0.63589 0.0
O149 O 0.9189 0.3086 0.67912 0.0
Mg150 Mg 0.90276 0.24118 0.67546 0.0
O151 O 0.89821 0.23805 0.6336 0.0
O152 O 0.87264 0.25349 0.60193 0.0
O153 O 0.88557 0.17396 0.67252 0.0
O154 O 0.9713 0.26349 0.66794 0.0
Mg155 Mg 0.94352 0.22197 0.71353 0.0
O156 O 0.9046 0.2435 0.7179 0.0
O157 O 0.91806 0.16204 0.701 0.0
O158 O 0.00114 0.26522 0.70191 0.0
O159 O 0.93194 0.22661 0.74821 0.0
C160 C 0.80602 0.22001 0.67184 0.0
C161 C 0.92117 0.33745 0.66651 0.0
C162 C 0.89316 0.23802 0.61052 0.0
C163 C 0.89417 0.14993 0.6833 0.0
C164 C 0.00332 0.2731 0.67984 0.0
C165 C 0.90985 0.24107 0.74082 0.0
O166 O 0.81201 0.24048 0.65294 0.0
O167 O 0.83441 0.21691 0.68158 0.0
O168 O 0.74946 0.75072 0.70803 0.0
Mg169 Mg 0.78889 0.73027 0.71813 0.0
O170 O 0.74348 0.71948 0.67389 0.0
Mg171 Mg 0.76015 0.6688 0.67842 0.0
O172 O 0.76151 0.66853 0.7205 0.0
O173 O 0.78393 0.71014 0.75222 0.0
O174 O 0.77877 0.61966 0.68211 0.0
O175 O 0.69176 0.62179 0.68386 0.0
Mg176 Mg 0.72525 0.60758 0.63841 0.0
O177 O 0.75812 0.66937 0.63618 0.0
O178 O 0.75636 0.57884 0.65093 0.0
O179 O 0.66622 0.58591 0.65098 0.0
O180 O 0.73629 0.62808 0.60431 0.0
C181 C 0.85567 0.74586 0.68452 0.0
C182 C 0.73883 0.74482 0.68629 0.0
C183 C 0.76535 0.67402 0.74361 0.0
C184 C 0.77567 0.58959 0.67048 0.0
C185 C 0.66164 0.59502 0.67207 0.0
C186 C 0.75459 0.66413 0.61303 0.0
O187 O 0.84734 0.75964 0.7029 0.0
O188 O 0.82876 0.7141 0.67407 0.0
C189 C 0.40373 0.48734 1.00019 0.0
C190 C 0.42728 0.52296 0.01305 0.0
C191 C 0.36292 0.46304 1.00541 0.0
C192 C 0.2797 0.44456 0.04691 0.0
H193 H 0.22008 0.42155 0.98737 0.0
C194 C 0.12027 0.42225 0.03495 0.0
C195 C 0.09921 0.40224 0.01412 0.0
C196 C 0.15648 0.42368 0.04075 0.0
C197 C 0.23586 0.42645 1.00423 0.0
H198 H 0.4282 0.56056 0.04222 0.0
H199 H 0.35569 0.5186 0.05091 0.0
H200 H 0.29228 0.45143 0.98628 0.0
H201 H 0.09525 0.36293 0.98518 0.0
H202 H 0.15693 0.36301 0.99617 0.0
H203 H 0.22253 0.42087 0.06476 0.0
C204 C 0.36895 0.50897 0.03714 0.0
C205 C 0.27753 0.44388 1.00358 0.0
C206 C 0.4102 0.53309 0.0321 0.0
C207 C 0.11133 0.37881 1.00121 0.0
C208 C 0.1468 0.37924 0.00741 0.0
C209 C 0.23754 0.42687 0.04757 0.0
C210 C 0.34468 0.47443 0.02324 0.0
C211 C 0.30004 0.45337 0.02483 0.0
C212 C 0.1715 0.40453 0.02593 0.0
C213 C 0.21521 0.41786 0.02616 0.0
H214 H 0.41669 0.47891 0.98561 0.0
H215 H 0.34519 0.43618 0.99474 0.0
H216 H 0.29636 0.45162 0.06357 0.0
H217 H 0.11147 0.44075 0.04506 0.0
H218 H 0.17459 0.4433 0.05519 0.0
C219 C 0.44907 0.86786 0.02227 0.0
C220 C 0.46446 0.90212 0.00769 0.0
C221 C 0.47327 0.85128 0.028 0.0
C222 C 0.55429 0.84146 1.00271 0.0
H223 H 0.56591 0.80627 0.0658 0.0
C224 C 0.62243 0.74402 0.00667 0.0
C225 C 0.59721 0.70803 0.01876 0.0
C226 C 0.62142 0.7789 0.01239 0.0
C227 C 0.56309 0.81605 0.04809 0.0
H228 H 0.51639 0.94695 0.98813 0.0
H229 H 0.55869 0.91786 0.99793 0.0
H230 H 0.52919 0.84295 0.06108 0.0
H231 H 0.55537 0.68069 0.04812 0.0
H232 H 0.55138 0.7405 0.05716 0.0
H233 H 0.58508 0.81262 0.98914 0.0
C234 C 0.52821 0.90372 1.00491 0.0
C235 C 0.54202 0.8369 0.04543 0.0
C236 C 0.50415 0.92022 0.99927 0.0
C237 C 0.57511 0.70839 0.03863 0.0
C238 C 0.57292 0.74285 0.0438 0.0
C239 C 0.57472 0.82028 1.00527 0.0
C240 C 0.51287 0.8689 0.01909 0.0
C241 C 0.5371 0.84925 0.02265 0.0
C242 C 0.59353 0.77743 0.02936 0.0
C243 C 0.57888 0.80665 0.02792 0.0
H244 H 0.41836 0.85372 0.02888 0.0
H245 H 0.4607 0.82407 0.03869 0.0
H246 H 0.55034 0.85015 0.9849 0.0
H247 H 0.63998 0.74424 0.99139 0.0
H248 H 0.63911 0.80565 1.00167 0.0
C249 C 0.25576 0.86925 0.99644 0.0
C250 C 0.28634 0.89774 0.01142 0.0
C251 C 0.22497 0.83315 0.0059 0.0
C252 C 0.15983 0.76065 0.03784 0.0
H253 H 0.22055 0.70464 0.04137 0.0
C254 C 0.08452 0.58567 0.03509 0.0
C255 C 0.09881 0.57435 0.01501 0.0
C256 C 0.10515 0.62562 0.0434 0.0
C257 C 0.20318 0.71989 0.04109 0.0
H258 H 0.30424 0.91377 0.04813 0.0
H259 H 0.25185 0.84954 0.06475 0.0
H260 H 0.25628 0.77834 0.041 0.0
H261 H 0.14679 0.59586 0.98857 0.0
H262 H 0.18248 0.66475 1.00313 0.0
H263 H 0.10678 0.70203 0.03645 0.0
C264 C 0.25185 0.85526 0.04576 0.0
C265 C 0.22357 0.76196 0.04102 0.0
C266 C 0.28199 0.89185 0.03628 0.0
C267 C 0.13477 0.6034 1.00402 0.0
C268 C 0.15551 0.64289 0.01249 0.0
C269 C 0.13931 0.71843 0.0384 0.0
C270 C 0.22444 0.82492 0.0304 0.0
C271 C 0.20213 0.78254 0.03824 0.0
C272 C 0.14072 0.65457 0.03205 0.0
C273 C 0.16099 0.69777 0.03871 0.0
H274 H 0.25771 0.87302 0.97718 0.0
H275 H 0.20411 0.81001 0.99373 0.0
H276 H 0.14288 0.77607 0.03548 0.0
H277 H 0.057 0.56397 0.04401 0.0
H278 H 0.09316 0.63401 0.0585 0.0
C279 C 0.43804 0.12961 0.99221 0.0
C280 C 0.41233 0.11172 0.01188 0.0
C281 C 0.44662 0.1674 0.98412 0.0
C282 C 0.42188 0.24625 0.98261 0.0
H283 H 0.53302 0.31822 1.00144 0.0
C284 C 0.48686 0.41358 0.00586 0.0
C285 C 0.52851 0.43955 1.00366 0.0
C286 C 0.46971 0.37327 0.9989 0.0
C287 C 0.50234 0.29875 0.99534 0.0
H288 H 0.37379 0.1178 0.03783 0.0
H289 H 0.38777 0.18402 0.02295 0.0
H290 H 0.50529 0.24589 1.00368 0.0
H291 H 0.58466 0.44614 0.99069 0.0
H292 H 0.55466 0.37608 0.97755 0.0
H293 H 0.41883 0.29929 0.97446 0.0
C294 C 0.40103 0.16848 0.01386 0.0
C295 C 0.48643 0.2573 0.99685 0.0
C296 C 0.39311 0.13087 0.02237 0.0
C297 C 0.55244 0.4261 0.9927 0.0
C298 C 0.53526 0.38608 0.98533 0.0
C299 C 0.43804 0.28796 0.98072 0.0
C300 C 0.4291 0.18756 0.99534 0.0
C301 C 0.44596 0.23085 0.99096 0.0
C302 C 0.4941 0.35871 0.9895 0.0
C303 C 0.47824 0.31468 0.9876 0.0
H304 H 0.45446 0.11613 0.98452 0.0
H305 H 0.46892 0.18202 0.97014 0.0
H306 H 0.39057 0.22608 0.97794 0.0
H307 H 0.46809 0.42379 0.01429 0.0
H308 H 0.438 0.35307 1.00249 0.0
C309 C 0.5773 0.0973 0.99211 0.0
C310 C 0.56603 0.08631 0.0161 0.0
C311 C 0.61827 0.12018 0.98589 0.0
C312 C 0.71406 0.19168 0.0145 0.0
H313 H 0.76794 0.17502 0.96054 0.0
C314 C 0.87938 0.26485 0.01677 0.0
C315 C 0.89436 0.30139 1.00436 0.0
C316 C 0.84228 0.23178 0.01035 0.0
C317 C 0.75297 0.17983 0.97557 0.0
H318 H 0.5883 0.08768 0.05197 0.0
H319 H 0.6591 0.12619 0.04113 0.0
H320 H 0.69428 0.13103 0.96567 0.0
H321 H 0.88466 0.33094 0.97418 0.0
H322 H 0.81967 0.2731 0.96306 0.0
H323 H 0.7722 0.2396 0.02476 0.0
C324 C 0.63668 0.11858 0.02721 0.0
C325 C 0.71106 0.15499 0.97845 0.0
C326 C 0.59613 0.0964 0.03342 0.0
C327 C 0.87434 0.30279 0.9836 0.0
C328 C 0.83699 0.26973 0.97729 0.0
C329 C 0.75546 0.21602 0.01172 0.0
C330 C 0.64827 0.13192 1.00359 0.0
C331 C 0.6915 0.1601 0.99838 0.0
C332 C 0.81961 0.23508 0.99165 0.0
C333 C 0.77538 0.20974 0.99263 0.0
H334 H 0.55454 0.08985 0.97845 0.0
H335 H 0.62639 0.13008 0.96755 0.0
H336 H 0.69974 0.19719 0.02961 0.0
H337 H 0.89422 0.26317 0.03289 0.0
H338 H 0.82915 0.20535 0.02175 0.0
C339 C 0.88123 0.47253 0.99172 0.0
C340 C 0.90468 0.48066 0.01248 0.0
C341 C 0.86161 0.49437 0.987 0.0
C342 C 0.82449 0.55186 0.02043 0.0
H343 H 0.80699 0.58516 0.95813 0.0
C344 C 0.73712 0.63062 0.01862 0.0
C345 C 0.70106 0.60767 0.00598 0.0
C346 C 0.77096 0.62764 0.01293 0.0
C347 C 0.81209 0.57632 0.97561 0.0
H348 H 0.92844 0.5187 0.04376 0.0
H349 H 0.89602 0.55798 0.03512 0.0
H350 H 0.84771 0.55206 0.96147 0.0
H351 H 0.67295 0.56748 0.9759 0.0
H352 H 0.73178 0.56151 0.96627 0.0
H353 H 0.78867 0.57499 0.03468 0.0
C354 C 0.89129 0.53407 0.02287 0.0
C355 C 0.835 0.55712 0.97751 0.0
C356 C 0.91004 0.51183 0.02779 0.0
C357 C 0.70075 0.58601 0.98561 0.0
C358 C 0.73443 0.58243 0.98017 0.0
C359 C 0.8022 0.5712 0.01857 0.0
C360 C 0.86581 0.52481 1.00287 0.0
C361 C 0.8416 0.54496 1.00004 0.0
C362 C 0.76859 0.60069 0.99504 0.0
C363 C 0.79591 0.5839 0.99623 0.0
H364 H 0.87679 0.44835 0.97977 0.0
H365 H 0.84197 0.48635 0.97154 0.0
H366 H 0.82763 0.54159 0.03793 0.0
H367 H 0.7379 0.6475 0.03438 0.0
H368 H 0.79735 0.64271 0.02433 0.0
C369 C 0.79611 0.73216 0.32561 0.0
C370 C 0.76959 0.73636 0.34119 0.0
C371 C 0.83263 0.73723 0.33413 0.0
C372 C 0.90824 0.74669 0.36223 0.0
H373 H 0.96434 0.86271 0.37155 0.0
C374 C 0.08316 0.84613 0.36487 0.0
C375 C 0.09687 0.87538 0.34664 0.0
C376 C 0.0424 0.82557 0.37153 0.0
C377 C 0.94905 0.83022 0.36952 0.0
H378 H 0.75711 0.74152 0.37833 0.0
H379 H 0.82231 0.75321 0.39307 0.0
H380 H 0.89056 0.82454 0.37112 0.0
H381 H 0.07886 0.90718 0.32189 0.0
H382 H 0.00825 0.87178 0.33373 0.0
H383 H 0.96689 0.75273 0.3595 0.0
C384 C 0.81474 0.74606 0.37434 0.0
C385 C 0.90695 0.80839 0.36944 0.0
C386 C 0.77766 0.73977 0.36588 0.0
C387 C 0.06935 0.88474 0.33592 0.0
C388 C 0.02893 0.86469 0.34282 0.0
C389 C 0.95046 0.76845 0.36284 0.0
C390 C 0.84328 0.74694 0.35826 0.0
C391 C 0.88629 0.76674 0.36488 0.0
C392 C 0.01493 0.83451 0.3604 0.0
C393 C 0.97116 0.81063 0.36544 0.0
H394 H 0.79047 0.72875 0.3065 0.0
H395 H 0.85427 0.73779 0.32142 0.0
H396 H 0.89279 0.71465 0.35844 0.0
H397 H 0.10363 0.8383 0.37351 0.0
H398 H 0.03224 0.80241 0.38516 0.0
C399 C 0.17311 0.26267 0.35834 0.0
C400 C 0.13568 0.24111 0.34659 0.0
C401 C 0.19493 0.24354 0.3643 0.0
C402 C 0.21857 0.17777 0.38226 0.0
H403 H 0.24033 0.13898 0.32315 0.0
C404 C 0.25161 0.04743 0.37193 0.0
C405 C 0.27155 0.04699 0.35093 0.0
C406 C 0.24788 0.08105 0.37738 0.0
C407 C 0.23547 0.15035 0.33983 0.0
H408 H 0.09018 0.18227 0.33366 0.0
H409 H 0.12828 0.14899 0.34411 0.0
H410 H 0.20389 0.17551 0.32193 0.0
H411 H 0.30894 0.083 0.32151 0.0
H412 H 0.3043 0.14243 0.33168 0.0
H413 H 0.24875 0.15068 0.40025 0.0
C414 C 0.14087 0.18064 0.34841 0.0
C415 C 0.21412 0.17083 0.33909 0.0
C416 C 0.11925 0.1997 0.34234 0.0
C417 C 0.2931 0.08261 0.33767 0.0
C418 C 0.29011 0.11644 0.3434 0.0
C419 C 0.2397 0.15663 0.38306 0.0
C420 C 0.17936 0.20267 0.35872 0.0
C421 C 0.20491 0.18409 0.36025 0.0
C422 C 0.26457 0.11467 0.36204 0.0
C423 C 0.248 0.14236 0.3618 0.0
H424 H 0.18646 0.2947 0.36171 0.0
H425 H 0.22481 0.26109 0.37199 0.0
H426 H 0.21162 0.18781 0.39878 0.0
H427 H 0.23458 0.02018 0.38237 0.0
H428 H 0.22815 0.07876 0.39193 0.0
C429 C 0.963 0.22372 0.3683 0.0
C430 C 0.96191 0.23393 0.34426 0.0
C431 C 0.93308 0.18677 0.37734 0.0
C432 C 0.89883 0.09548 0.3715 0.0
H433 H 0.7823 0.0373 0.36506 0.0
C434 C 0.80778 0.9357 0.33524 0.0
C435 C 0.7708 0.90829 0.34592 0.0
C436 C 0.82966 0.97537 0.34335 0.0
C437 C 0.81474 0.05322 0.36745 0.0
H438 H 0.92613 0.21607 0.31176 0.0
H439 H 0.87328 0.15183 0.32775 0.0
H440 H 0.81929 0.11128 0.365 0.0
H441 H 0.72855 0.90061 0.37414 0.0
H442 H 0.76669 0.97075 0.38793 0.0
H443 H 0.89482 0.03771 0.37175 0.0
C444 C 0.89745 0.17228 0.33953 0.0
C445 C 0.83578 0.09538 0.36736 0.0
C446 C 0.92774 0.20897 0.33035 0.0
C447 C 0.75678 0.92113 0.36541 0.0
C448 C 0.77853 0.96113 0.37334 0.0
C449 C 0.87792 0.05344 0.37111 0.0
C450 C 0.90127 0.15993 0.36257 0.0
C451 C 0.87804 0.11673 0.36863 0.0
C452 C 0.81491 0.98864 0.36216 0.0
C453 C 0.83585 0.03201 0.36821 0.0
H454 H -0.0108 0.24198 0.37927 0.0
H455 H 0.93662 0.17772 0.39513 0.0
H456 H 0.93152 0.11136 0.37216 0.0
H457 H 0.81959 0.92675 0.32031 0.0
H458 H 0.85738 -0.00386 0.33421 0.0
C459 C 0.15916 0.75587 0.33389 0.0
C460 C 0.19932 0.77469 0.34197 0.0
C461 C 0.13819 0.71454 0.32888 0.0
C462 C 0.1209 0.62723 0.3084 0.0
H463 H 0.09843 0.56713 0.36771 0.0
C464 C 0.08393 0.46224 0.31828 0.0
C465 C 0.06222 0.44117 0.33868 0.0
C466 C 0.08994 0.50064 0.3134 0.0
C467 C 0.10364 0.58331 0.35099 0.0
H468 H 0.24986 0.7659 0.34974 0.0
H469 H 0.21299 0.6935 0.34095 0.0
H470 H 0.13445 0.64049 0.36876 0.0
H471 H 0.02466 0.44047 0.36782 0.0
H472 H 0.03371 0.50679 0.35878 0.0
H473 H 0.09136 0.56983 0.29052 0.0
C474 C 0.19789 0.71079 0.33868 0.0
C475 C 0.12468 0.62527 0.35164 0.0
C476 C 0.21878 0.75199 0.34379 0.0
C477 C 0.04173 0.45632 0.35205 0.0
C478 C 0.04728 0.49443 0.34701 0.0
C479 C 0.10012 0.58497 0.30769 0.0
C480 C 0.15727 0.69172 0.33169 0.0
C481 C 0.1337 0.64746 0.3304 0.0
C482 C 0.07398 0.51818 0.32879 0.0
C483 C 0.0914 0.56258 0.32902 0.0
H484 H 0.14338 0.77265 0.33258 0.0
H485 H 0.10663 0.70005 0.32389 0.0
H486 H 0.12782 0.64409 0.29183 0.0
H487 H 0.10057 0.45154 0.30794 0.0
H488 H 0.11063 0.51811 0.29921 0.0
C489 C 0.24981 0.4482 0.32543 0.0
C490 C 0.2344 0.43493 0.34852 0.0
C491 C 0.29162 0.4683 0.32151 0.0
C492 C 0.38635 0.52436 0.35621 0.0
H493 H 0.43905 0.51615 0.29891 0.0
C494 C 0.55253 0.6007 0.35748 0.0
C495 C 0.56778 0.63484 0.34271 0.0
C496 C 0.51492 0.56717 0.35265 0.0
C497 C 0.4245 0.51828 0.31502 0.0
H498 H 0.24948 0.42925 0.38512 0.0
H499 H 0.32151 0.46195 0.37818 0.0
H500 H 0.36493 0.47671 0.30207 0.0
H501 H 0.55883 0.65854 0.30956 0.0
H502 H 0.49272 0.60001 0.30126 0.0
H503 H 0.44528 0.56531 0.36933 0.0
C504 C 0.30214 0.45904 0.36327 0.0
C505 C 0.38223 0.49615 0.31677 0.0
C506 C 0.26084 0.44011 0.36727 0.0
C507 C 0.54781 0.63256 0.32116 0.0
C508 C 0.5099 0.59904 0.31641 0.0
C509 C 0.42813 0.54563 0.35464 0.0
C510 C 0.31827 0.47452 0.34056 0.0
C511 C 0.36278 0.49865 0.33758 0.0
C512 C 0.49201 0.5676 0.33313 0.0
C513 C 0.44765 0.54252 0.33422 0.0
H514 H 0.22972 0.44428 0.31072 0.0
H515 H 0.30305 0.47997 0.30382 0.0
H516 H 0.37254 0.52839 0.3721 0.0
H517 H 0.56761 0.60159 0.37408 0.0
H518 H 0.50178 0.54295 0.36564 0.0
C519 C 0.40558 0.95642 0.3536 0.0
C520 C 0.36944 0.9415 0.34061 0.0
C521 C 0.43564 0.9485 0.34592 0.0
C522 C 0.49619 0.92725 0.32258 0.0
H523 H 0.44017 0.81038 0.32614 0.0
C524 C 0.57823 0.83389 0.32646 0.0
C525 C 0.5663 0.80781 0.34631 0.0
C526 C 0.55607 0.85233 0.31971 0.0
C527 C 0.45621 0.84298 0.32476 0.0
H528 H 0.33855 0.91114 0.30789 0.0
H529 H 0.39067 0.89641 0.29488 0.0
H530 H 0.40145 0.84494 0.32261 0.0
H531 H 0.52121 0.7801 0.3743 0.0
H532 H 0.48266 0.81192 0.36239 0.0
H533 H 0.55097 0.92516 0.32565 0.0
C534 C 0.39574 0.91431 0.3109 0.0
C535 C 0.43412 0.86273 0.32251 0.0
C536 C 0.36604 0.92296 0.31832 0.0
C537 C 0.53134 0.8 0.35893 0.0
C538 C 0.50905 0.81802 0.35204 0.0
C539 C 0.51839 0.90739 0.32437 0.0
C540 C 0.42968 0.92508 0.32535 0.0
C541 C 0.45383 0.90506 0.32216 0.0
C542 C 0.5213 0.84455 0.33247 0.0
C543 C 0.49849 0.86515 0.32633 0.0
H544 H 0.40907 0.97099 0.37077 0.0
H545 H 0.46153 0.95709 0.35739 0.0
H546 H 0.51196 0.95991 0.3225 0.0
H547 H 0.6049 0.84041 0.31629 0.0
H548 H 0.56602 0.87258 0.30451 0.0
C549 C 0.74842 0.15864 0.69017 0.0
C550 C 0.76508 0.1985 0.68194 0.0
C551 C 0.70734 0.13617 0.69591 0.0
C552 C 0.61682 0.11762 0.71568 0.0
H553 H 0.56178 0.09388 0.65445 0.0
C554 C 0.45637 0.08981 0.70132 0.0
C555 C 0.43654 0.07118 0.67992 0.0
C556 C 0.49305 0.09228 0.70714 0.0
C557 C 0.57627 0.099 0.67177 0.0
H558 H 0.75334 0.2473 0.67511 0.0
H559 H 0.68169 0.20813 0.68545 0.0
H560 H 0.63473 0.12683 0.65561 0.0
H561 H 0.43561 0.03533 0.64976 0.0
H562 H 0.49806 0.03699 0.66075 0.0
H563 H 0.55821 0.09101 0.73192 0.0
C564 C 0.70024 0.19429 0.68724 0.0
C565 C 0.61817 0.11833 0.67234 0.0
C566 C 0.74098 0.21649 0.6812 0.0
C567 C 0.45069 0.05017 0.66624 0.0
C568 C 0.48668 0.0516 0.67243 0.0
C569 C 0.57454 0.0981 0.71515 0.0
C570 C 0.68293 0.15368 0.69388 0.0
C571 C 0.63872 0.1285 0.69422 0.0
C572 C 0.50991 0.07544 0.69183 0.0
C573 C 0.55379 0.08931 0.69312 0.0
H574 H 0.76646 0.14412 0.69066 0.0
H575 H 0.6942 0.10462 0.70058 0.0
H576 H 0.63241 0.12553 0.73274 0.0
H577 H 0.44609 0.10647 0.71207 0.0
H578 H 0.50991 0.11083 0.72224 0.0
C579 C 0.91851 0.37521 0.70201 0.0
C580 C 0.92982 0.37563 0.67804 0.0
C581 C 0.91232 0.40585 0.71074 0.0
C582 C 0.85718 0.44183 0.70557 0.0
H583 H 0.9158 0.55742 0.69505 0.0
C584 C 0.78546 0.52994 0.66911 0.0
C585 C 0.79497 0.56705 0.67955 0.0
C586 C 0.80467 0.50918 0.6767 0.0
C587 C 0.89926 0.5253 0.69855 0.0
H588 H 0.94889 0.41091 0.64542 0.0
H589 H 0.93906 0.46495 0.66086 0.0
H590 H 0.9523 0.51998 0.69536 0.0
H591 H 0.8315 0.61102 0.70661 0.0
H592 H 0.86602 0.57484 0.71947 0.0
H593 H 0.80374 0.44641 0.70664 0.0
C594 C 0.93453 0.44078 0.67282 0.0
C595 C 0.9201 0.50397 0.69867 0.0
C596 C 0.94003 0.40978 0.66395 0.0
C597 C 0.82362 0.58255 0.69816 0.0
C598 C 0.84337 0.56196 0.70552 0.0
C599 C 0.83632 0.46296 0.70497 0.0
C600 C 0.91818 0.43771 0.69575 0.0
C601 C 0.899 0.4619 0.70146 0.0
C602 C 0.83417 0.52523 0.69472 0.0
C603 C 0.85699 0.50464 0.70063 0.0
H604 H 0.91005 0.34914 0.71317 0.0
H605 H 0.89973 0.40291 0.72849 0.0
H606 H 0.84013 0.4093 0.70739 0.0
H607 H 0.76343 0.51703 0.65482 0.0
H608 H 0.79741 0.48115 0.66786 0.0
C609 C 0.62553 0.55582 0.7082 0.0
C610 C 0.6238 0.56725 0.68453 0.0
C611 C 0.59476 0.51916 0.71712 0.0
C612 C 0.55764 0.42842 0.71084 0.0
H613 H 0.44198 0.37137 0.70015 0.0
C614 C 0.47035 0.27103 0.67053 0.0
C615 C 0.43366 0.24224 0.68093 0.0
C616 C 0.49066 0.31062 0.67892 0.0
C617 C 0.47412 0.38694 0.7037 0.0
H618 H 0.58615 0.55269 0.65295 0.0
H619 H 0.53198 0.48921 0.66872 0.0
H620 H 0.47918 0.44532 0.70233 0.0
H621 H 0.38988 0.23233 0.70861 0.0
H622 H 0.42527 0.3024 0.72289 0.0
H623 H 0.5533 0.37052 0.71008 0.0
C624 C 0.5572 0.50816 0.6803 0.0
C625 C 0.49531 0.42912 0.70491 0.0
C626 C 0.58827 0.54446 0.67123 0.0
C627 C 0.41805 0.25385 0.7002 0.0
C628 C 0.43818 0.29382 0.70837 0.0
C629 C 0.53663 0.38646 0.70919 0.0
C630 C 0.56156 0.49392 0.70263 0.0
C631 C 0.53744 0.45022 0.70771 0.0
C632 C 0.47459 0.3225 0.69771 0.0
C633 C 0.49495 0.36548 0.70474 0.0
H634 H 0.65268 0.57258 0.71875 0.0
H635 H 0.59868 0.50885 0.73444 0.0
H636 H 0.59019 0.44393 0.71262 0.0
H637 H 0.48331 0.26314 0.65571 0.0
H638 H 0.51843 0.33232 0.67018 0.0
C639 C 0.74905 0.78924 0.65149 0.0
C640 C 0.73231 0.77534 0.6743 0.0
C641 C 0.75822 0.82765 0.6439 0.0
C642 C 0.81326 0.91761 0.65447 0.0
H643 H 0.75459 0.9755 0.65896 0.0
C644 C 0.88433 0.08061 0.68783 0.0
C645 C 0.87522 0.10723 0.67572 0.0
C646 C 0.86504 0.03988 0.68161 0.0
C647 C 0.77129 0.9597 0.65729 0.0
H648 H 0.70627 0.78764 0.70534 0.0
H649 H 0.72091 0.85408 0.69164 0.0
H650 H 0.71734 0.90156 0.65684 0.0
H651 H 0.83942 0.11204 0.64716 0.0
H652 H 0.80537 0.04046 0.63649 0.0
H653 H 0.86716 0.97527 0.65659 0.0
C654 C 0.72775 0.83579 0.6799 0.0
C655 C 0.75 0.91754 0.6561 0.0
C656 C 0.71939 0.79778 0.68775 0.0
C657 C 0.84696 0.09229 0.65692 0.0
C658 C 0.82741 0.05137 0.65083 0.0
C659 C 0.83448 0.95959 0.6561 0.0
C660 C 0.74969 0.85205 0.65872 0.0
C661 C 0.77087 0.89617 0.65513 0.0
C662 C 0.83608 0.02477 0.66324 0.0
C663 C 0.81371 0.98097 0.65809 0.0
H664 H 0.75934 0.77261 0.64073 0.0
H665 H 0.77497 0.83958 0.62743 0.0
H666 H 0.83005 0.90176 0.65417 0.0
H667 H 0.90589 0.09104 0.70241 0.0
H668 H 0.87192 0.01992 0.69169 0.0
C669 C 0.9204 0.80845 0.67555 0.0
C670 C 0.89758 0.76616 0.67593 0.0
C671 C 0.96146 0.82797 0.67 0.0
C672 C 0.04696 0.83325 0.68462 0.0
H673 H 0.10154 0.87616 0.62414 0.0
C674 C 0.21602 0.93248 0.68583 0.0
C675 C 0.22929 0.96938 0.67415 0.0
C676 C 0.1787 0.8991 0.67998 0.0
C677 C 0.08678 0.8642 0.64114 0.0
H678 H 0.89912 0.71097 0.67056 0.0
H679 H 0.97179 0.74547 0.66166 0.0
H680 H 0.02751 0.83599 0.62536 0.0
H681 H 0.21594 -0.00025 0.64605 0.0
H682 H 0.15067 0.94223 0.63619 0.0
H683 H 0.105 0.86305 0.70094 0.0
C684 C 0.95742 0.76321 0.66493 0.0
C685 C 0.04455 0.84118 0.64176 0.0
C686 C 0.9161 0.74363 0.67001 0.0
C687 C 0.20679 0.97132 0.65491 0.0
C688 C 0.16909 0.93823 0.64938 0.0
C689 C 0.08892 0.85635 0.68408 0.0
C690 C 0.98031 0.80545 0.66516 0.0
C691 C 0.02455 0.82611 0.66358 0.0
C692 C 0.15351 0.90255 0.66291 0.0
C693 C 0.10947 0.87271 0.66241 0.0
H694 H 0.90662 0.82635 0.68002 0.0
H695 H 0.97887 0.86063 0.67046 0.0
H696 H 0.03185 0.82215 0.70165 0.0
H697 H 0.23297 0.93037 0.70074 0.0
H698 H 0.16822 0.87162 0.6902 0.0
C699 C 0.2183 0.14057 0.6593 0.0
C700 C 0.23953 0.14753 0.68088 0.0
C701 C 0.19812 0.16176 0.65419 0.0
C702 C 0.15792 0.21891 0.6862 0.0
H703 H 0.14485 0.25183 0.62273 0.0
C704 C 0.07782 0.30545 0.67922 0.0
C705 C 0.04079 0.28176 0.66755 0.0
C706 C 0.1103 0.29964 0.67443 0.0
C707 C 0.14874 0.2431 0.64053 0.0
H708 H 0.25861 0.18291 0.71339 0.0
H709 H 0.22572 0.22142 0.70407 0.0
H710 H 0.18428 0.21776 0.628 0.0
H711 H 0.01014 0.23714 0.6398 0.0
H712 H 0.0669 0.22734 0.63125 0.0
H713 H 0.12265 0.24392 0.69882 0.0
C714 C 0.22275 0.1986 0.69147 0.0
C715 C 0.17087 0.22327 0.64355 0.0
C716 C 0.2419 0.17684 0.69677 0.0
C717 C 0.03857 0.25654 0.64862 0.0
C718 C 0.07106 0.2506 0.64388 0.0
C719 C 0.13663 0.23916 0.68324 0.0
C720 C 0.19965 0.19063 0.67045 0.0
C721 C 0.1759 0.21118 0.66652 0.0
C722 C 0.10594 0.2698 0.65809 0.0
C723 C 0.13198 0.2517 0.66047 0.0
H724 H 0.21612 0.11783 0.64688 0.0
H725 H 0.18036 0.15459 0.63796 0.0
H726 H 0.15968 0.20874 0.70401 0.0
H727 H 0.08023 0.32508 0.69388 0.0
H728 H 0.1372 0.31521 0.68538 0.0
C729 C 0.1273 0.36079 0.23641 0.0
C730 C 0.11588 0.36751 0.25909 0.0
C731 C 0.1319 0.38594 0.21717 0.0
C732 C 0.0864 0.44441 0.19733 0.0
H733 H 0.14971 0.45844 0.14021 0.0
C734 C 0.03392 0.47619 0.10948 0.0
C735 C 0.03081 0.45017 0.09088 0.0
C736 C 0.05888 0.48229 0.12914 0.0
C737 C 0.13184 0.45487 0.15601 0.0
H738 H 0.10396 0.40784 0.27995 0.0
H739 H 0.11231 0.45247 0.24628 0.0
H740 H 0.16886 0.44067 0.17808 0.0
H741 H 0.05327 0.41239 0.0772 0.0
H742 H 0.09637 0.42213 0.11179 0.0
H743 H 0.04803 0.45616 0.17532 0.0
C744 C 0.11723 0.42733 0.24332 0.0
C745 C 0.14287 0.44478 0.17775 0.0
C746 C 0.11286 0.40212 0.26268 0.0
C747 C 0.05576 0.43315 0.09118 0.0
C748 C 0.08035 0.4387 0.1111 0.0
C749 C 0.07537 0.4544 0.17568 0.0
C750 C 0.12497 0.4184 0.22008 0.0
C751 C 0.11942 0.43803 0.1985 0.0
C752 C 0.08043 0.46158 0.13094 0.0
C753 C 0.09712 0.45849 0.15452 0.0
H754 H 0.13017 0.33447 0.23314 0.0
H755 H 0.13764 0.37784 0.19963 0.0
H756 H 0.06715 0.43883 0.21274 0.0
H757 H 0.01475 0.4895 0.10963 0.0
H758 H 0.05904 0.50104 0.14371 0.0
C759 C 0.64143 0.77942 0.23751 0.0
C760 C 0.63487 0.76113 0.26014 0.0
C761 C 0.61679 0.7585 0.21811 0.0
C762 C 0.56155 0.65402 0.19844 0.0
H763 H 0.54648 0.70056 0.14046 0.0
C764 C 0.52821 0.56569 0.11181 0.0
C765 C 0.55244 0.58762 0.09238 0.0
C766 C 0.52334 0.58553 0.13138 0.0
C767 C 0.55044 0.68705 0.15649 0.0
H768 H 0.59478 0.70849 0.28083 0.0
H769 H 0.55104 0.67159 0.2469 0.0
H770 H 0.56325 0.73857 0.17799 0.0
H771 H 0.5884 0.64718 0.07723 0.0
H772 H 0.58116 0.68234 0.11178 0.0
H773 H 0.5512 0.60369 0.17709 0.0
C774 C 0.57581 0.70197 0.24407 0.0
C775 C 0.55991 0.70879 0.17805 0.0
C776 C 0.60052 0.72316 0.26359 0.0
C777 C 0.56911 0.62962 0.09191 0.0
C778 C 0.56497 0.64969 0.1118 0.0
C779 C 0.55223 0.63244 0.177 0.0
C780 C 0.58502 0.71863 0.22083 0.0
C781 C 0.56671 0.69297 0.19917 0.0
C782 C 0.54369 0.62794 0.13231 0.0
C783 C 0.54752 0.64897 0.15556 0.0
H784 H 0.66749 0.80894 0.23438 0.0
H785 H 0.62498 0.77242 0.2006 0.0
H786 H 0.56737 0.64109 0.21412 0.0
H787 H 0.51504 0.53322 0.11254 0.0
H788 H 0.50564 0.56764 0.14644 0.0
C789 C 0.42141 0.95135 0.11295 0.0
C790 C 0.40189 0.95662 0.09319 0.0
C791 C 0.39903 0.92697 0.13214 0.0
C792 C 0.30252 0.90092 0.16004 0.0
H793 H 0.3411 0.85861 0.21015 0.0
C794 C 0.2954 0.91979 0.26186 0.0
C795 C 0.25421 0.89563 0.26716 0.0
C796 C 0.31158 0.91201 0.24143 0.0
C797 C 0.32978 0.86987 0.19615 0.0
H798 H 0.34446 0.9397 0.07759 0.0
H799 H 0.30466 0.89433 0.1099 0.0
H800 H 0.36962 0.86851 0.16967 0.0
H801 H 0.19815 0.84326 0.25639 0.0
H802 H 0.22652 0.82954 0.22063 0.0
H803 H 0.26333 0.90293 0.18663 0.0
C804 C 0.33726 0.90936 0.11092 0.0
C805 C 0.34613 0.87574 0.17304 0.0
C806 C 0.35982 0.93423 0.09192 0.0
C807 C 0.23019 0.86171 0.2529 0.0
C808 C 0.2463 0.854 0.23244 0.0
C809 C 0.28585 0.89443 0.18291 0.0
C810 C 0.35659 0.90755 0.13197 0.0
C811 C 0.33366 0.89268 0.15487 0.0
C812 C 0.28665 0.88013 0.22603 0.0
C813 C 0.30011 0.87996 0.20129 0.0
H814 H 0.45399 0.96883 0.11448 0.0
H815 H 0.41521 0.92665 0.14796 0.0
H816 H 0.29264 0.91488 0.1469 0.0
H817 H 0.31412 0.94685 0.27218 0.0
H818 H 0.34256 0.93305 0.2365 0.0
C819 C 0.4606 0.03468 0.90887 0.0
C820 C 0.44429 0.03746 0.93081 0.0
C821 C 0.46585 0.06084 0.8901 0.0
C822 C 0.41495 0.11363 0.86864 0.0
H823 H 0.48432 0.13399 0.8136 0.0
C824 C 0.36707 0.14516 0.77899 0.0
C825 C 0.36674 0.12031 0.76043 0.0
C826 C 0.39045 0.15148 0.79946 0.0
C827 C 0.46477 0.12866 0.82883 0.0
H828 H 0.42395 0.07192 0.9511 0.0
H829 H 0.43433 0.11897 0.91847 0.0
H830 H 0.50245 0.11743 0.8522 0.0
H831 H 0.39263 0.08494 0.74774 0.0
H832 H 0.43318 0.09525 0.78373 0.0
H833 H 0.37629 0.12283 0.84529 0.0
C834 C 0.44244 0.09597 0.91561 0.0
C835 C 0.47517 0.11921 0.85099 0.0
C836 C 0.43712 0.06954 0.93449 0.0
C837 C 0.39295 0.10477 0.76168 0.0
C838 C 0.41604 0.11062 0.78239 0.0
C839 C 0.40466 0.12317 0.84659 0.0
C840 C 0.45479 0.0905 0.89277 0.0
C841 C 0.44956 0.11005 0.87099 0.0
C842 C 0.41333 0.13228 0.80206 0.0
C843 C 0.42869 0.12949 0.82617 0.0
H844 H 0.46645 0.01019 0.90559 0.0
H845 H 0.47516 0.05529 0.87289 0.0
H846 H 0.39402 0.10617 0.88338 0.0
H847 H 0.34692 0.15731 0.77843 0.0
H848 H 0.38841 0.1692 0.81393 0.0
C849 C 0.94084 0.37652 0.93373 0.0
C850 C 0.9665 0.41803 0.9304 0.0
C851 C 0.91577 0.35262 0.91505 0.0
C852 C 0.88328 0.35594 0.85177 0.0
H853 H 0.90244 0.26657 0.84351 0.0
C854 C 0.90136 0.29499 0.7604 0.0
C855 C 0.89148 0.25451 0.75914 0.0
C856 C 0.89499 0.31052 0.78167 0.0
C857 C 0.89578 0.29073 0.8456 0.0
H858 H 0.98379 0.46784 0.90599 0.0
H859 H 0.9405 0.42662 0.87348 0.0
H860 H 0.91762 0.30132 0.8815 0.0
H861 H 0.86419 0.19766 0.77808 0.0
H862 H 0.85189 0.22417 0.81482 0.0
H863 H 0.8636 0.34637 0.81511 0.0
C864 C 0.93903 0.41211 0.89037 0.0
C865 C 0.90444 0.31072 0.86757 0.0
C866 C 0.96401 0.43584 0.90901 0.0
C867 C 0.8719 0.229 0.77862 0.0
C868 C 0.86525 0.24431 0.79973 0.0
C869 C 0.87474 0.33593 0.82964 0.0
C870 C 0.91627 0.3699 0.89266 0.0
C871 C 0.89934 0.34428 0.87083 0.0
C872 C 0.87874 0.2857 0.80199 0.0
C873 C 0.88178 0.30363 0.82615 0.0
H874 H 0.94311 0.36204 0.94982 0.0
H875 H 0.89814 0.32028 0.9176 0.0
H876 H 0.87855 0.38138 0.8537 0.0
H877 H 0.91749 0.31539 0.74586 0.0
H878 H 0.90599 0.3426 0.78281 0.0
C879 C 0.77266 0.63862 0.77855 0.0
C880 C 0.74769 0.6404 0.76079 0.0
C881 C 0.75612 0.61727 0.79973 0.0
C882 C 0.71366 0.61288 0.84687 0.0
H883 H 0.61934 0.50807 0.85777 0.0
C884 C 0.62953 0.583 0.93564 0.0
C885 C 0.58789 0.56669 0.9325 0.0
C886 C 0.6529 0.58008 0.91724 0.0
C887 C 0.64568 0.53751 0.85507 0.0
H888 H 0.68593 0.61992 0.7506 0.0
H889 H 0.65666 0.58161 0.78749 0.0
H890 H 0.65167 0.52432 0.81837 0.0
H891 H 0.53734 0.53174 0.90892 0.0
H892 H 0.57737 0.52672 0.87699 0.0
H893 H 0.70617 0.62781 0.88255 0.0
C894 C 0.689 0.59616 0.78486 0.0
C895 C 0.66423 0.54663 0.83252 0.0
C896 C 0.70565 0.61771 0.76364 0.0
C897 C 0.56947 0.54442 0.91174 0.0
C898 C 0.59259 0.54144 0.89343 0.0
C899 C 0.69473 0.60412 0.86921 0.0
C900 C 0.71427 0.59744 0.80356 0.0
C901 C 0.69786 0.58475 0.82808 0.0
C902 C 0.6349 0.56101 0.89536 0.0
C903 C 0.6597 0.56674 0.87345 0.0
H904 H 0.80519 0.65637 0.77685 0.0
H905 H 0.77621 0.61857 0.81381 0.0
H906 H 0.73926 0.64274 0.84385 0.0
H907 H 0.64445 0.60095 0.95134 0.0
H908 H 0.68529 0.59484 0.91962 0.0
C909 C 0.6997 0.80249 0.44872 0.0
C910 C 0.70422 0.78909 0.42615 0.0
C911 C 0.72529 0.8065 0.46763 0.0
C912 C 0.77525 0.75351 0.48819 0.0
H913 H 0.79447 0.8204 0.54439 0.0
C914 C 0.73329 0.69631 0.58288 0.0
C915 C 0.7649 0.69747 0.5962 0.0
C916 C 0.74126 0.71997 0.56246 0.0
C917 C 0.79034 0.80209 0.52869 0.0
H918 H 0.74165 0.77393 0.40495 0.0
H919 H 0.78625 0.77964 0.43824 0.0
H920 H 0.78407 0.84299 0.50532 0.0
H921 H 0.82979 0.72508 0.59917 0.0
H922 H 0.84398 0.76733 0.56298 0.0
H923 H 0.77855 0.71133 0.51197 0.0
C924 C 0.76273 0.78696 0.44132 0.0
C925 C 0.78409 0.81478 0.50638 0.0
C926 C 0.7374 0.78376 0.42222 0.0
C927 C 0.80499 0.7244 0.58944 0.0
C928 C 0.81306 0.74818 0.56873 0.0
C929 C 0.78152 0.7409 0.51047 0.0
C930 C 0.75574 0.79662 0.46453 0.0
C931 C 0.77442 0.78967 0.4861 0.0
C932 C 0.78105 0.74515 0.55481 0.0
C933 C 0.78745 0.76431 0.53103 0.0
H934 H 0.67456 0.80723 0.45223 0.0
H935 H 0.71876 0.81386 0.48517 0.0
H936 H 0.76743 0.73314 0.47311 0.0
H937 H 0.70216 0.67525 0.58752 0.0
H938 H 0.71618 0.71705 0.55189 0.0
C939 C 0.22283 0.95225 0.43132 0.0
C940 C 0.21699 0.91307 0.4307 0.0
C941 C 0.2172 0.96789 0.45277 0.0
C942 C 0.22471 0.95215 0.51715 0.0
H943 H 0.20438 0.04094 0.52451 0.0
C944 C 0.27183 0.04216 0.60359 0.0
C945 C 0.29808 0.08323 0.59908 0.0
C946 C 0.24565 0.0172 0.5856 0.0
C947 C 0.20983 0.01592 0.52279 0.0
H948 H 0.19622 0.85792 0.45086 0.0
H949 H 0.18442 0.88423 0.48774 0.0
H950 H 0.18782 0.00374 0.48663 0.0
H951 H 0.31504 0.13135 0.57341 0.0
H952 H 0.26958 0.08825 0.54217 0.0
H953 H 0.24833 0.96515 0.55266 0.0
C954 C 0.195 0.90368 0.47218 0.0
C955 C 0.2005 -0.00528 0.50105 0.0
C956 C 0.20136 0.88843 0.45099 0.0
C957 C 0.29491 0.09972 0.57731 0.0
C958 C 0.2687 0.07495 0.55942 0.0
C959 C 0.23382 0.97312 0.53879 0.0
C960 C 0.20515 0.94433 0.4738 0.0
C961 C 0.20883 0.96321 0.49775 0.0
C962 C 0.24546 0.03303 0.56285 0.0
C963 C 0.22761 0.00602 0.5417 0.0
H964 H 0.23513 0.97188 0.41592 0.0
H965 H 0.22536 -0.00068 0.45328 0.0
H966 H 0.2325 0.92876 0.51527 0.0
H967 H 0.27439 0.02868 0.62004 0.0
H968 H 0.22773 0.98509 0.58893 0.0
C969 C 0.95163 0.23076 0.59724 0.0
C970 C 0.91226 0.22322 0.59345 0.0
C971 C 0.9735 0.22675 0.57835 0.0
C972 C 0.96572 0.19495 0.51381 0.0
H973 H 0.06847 0.29408 0.50875 0.0
C974 C 0.03421 0.27988 0.42587 0.0
C975 C 0.07619 0.30443 0.42414 0.0
C976 C 0.01684 0.25624 0.44631 0.0
C977 C 0.04037 0.26566 0.50994 0.0
H978 H 0.86341 0.20197 0.56777 0.0
H979 H 0.9011 0.19521 0.53497 0.0
H980 H 0.03293 0.27627 0.54659 0.0
H981 H 0.13317 0.32206 0.44148 0.0
H982 H 0.10312 0.28037 0.47696 0.0
H983 H 0.97231 0.18596 0.47651 0.0
C984 C 0.91549 0.20399 0.55235 0.0
C985 C 0.01991 0.25534 0.53179 0.0
C986 C 0.89385 0.20813 0.57116 0.0
C987 C 0.10068 0.30276 0.44227 0.0
C988 C 0.08343 0.27924 0.46268 0.0
C989 C 0.98616 0.20542 0.49185 0.0
C990 C 0.95623 0.2151 0.55534 0.0
C991 C 0.98161 0.22063 0.53382 0.0
C992 C 0.04127 0.25731 0.46549 0.0
C993 C 0.02311 0.24161 0.48947 0.0
H994 H 0.96653 0.24299 0.61414 0.0
H995 H 0.00465 0.23501 0.58141 0.0
H996 H 0.93661 0.1676 0.51482 0.0
H997 H 0.01477 0.28218 0.41269 0.0
H998 H 0.98428 0.24017 0.44797 0.0
loop_
_geom_bond_atom_site_label_1
_geom_bond_atom_site_label_2
_geom_bond_distance
_geom_bond_site_symmetry_2
_ccdc_geom_bond_type
O0 Mg1 1.990 . S
O0 C14 1.253 . S
Mg1 O0 1.990 . S
Mg1 O4 2.180 1_655 S
Mg1 O5 2.117 . S
Mg1 O19 2.030 . S
O2 Mg3 2.079 1_655 S
O2 C14 1.282 . S
Mg3 O2 2.079 1_455 S
Mg3 O4 2.099 . S
Mg3 O6 2.079 . S
Mg3 O7 2.072 . S
Mg3 O9 2.099 1_554 S
Mg3 O20 2.079 1_455 S
O4 Mg1 2.180 1_455 S
O4 Mg3 2.099 . S
O4 C15 1.279 . S
O5 Mg1 2.117 . S
O5 C15 1.250 1_655 S
O6 Mg3 2.079 . S
O6 C16 1.262 1_554 S
O7 Mg3 2.072 . S
O7 C17 1.268 . S
Mg8 O9 2.180 . S
Mg8 O10 2.030 . S
Mg8 O11 1.990 . S
Mg8 O12 2.117 . S
O9 Mg3 2.099 1_556 S
O9 Mg8 2.180 . S
O9 C18 1.279 . S
O10 Mg8 2.030 . S
O10 C16 1.250 . S
O11 Mg8 1.990 . S
O11 C17 1.239 1_556 S
O12 Mg8 2.117 . S
O12 C18 1.250 . S
C13 O19 1.248 . S
C13 O20 1.264 . S
C14 O0 1.253 . S
C14 O2 1.282 . S
C15 O4 1.279 . S
C15 O5 1.250 1_455 S
C16 O6 1.262 1_556 S
C16 O10 1.250 . S
C17 O7 1.268 . S
C17 O11 1.239 1_554 S
C18 O9 1.279 . S
C18 O12 1.250 . S
O19 Mg1 2.030 . S
O19 C13 1.248 . S
O20 Mg3 2.079 1_655 S
O20 C13 1.264 . S
O21 Mg22 1.990 . S
O21 C35 1.239 1_556 S
Mg22 O21 1.990 . S
Mg22 O25 2.180 . S
Mg22 O26 2.117 . S
Mg22 O40 2.030 . S
O23 Mg24 2.072 . S
O23 C35 1.268 . S
Mg24 O23 2.072 . S
Mg24 O25 2.099 1_554 S
Mg24 O27 2.079 . S
Mg24 O28 2.079 . S
Mg24 O30 2.099 . S
Mg24 O41 2.079 . S
O25 Mg22 2.180 . S
O25 Mg24 2.099 1_556 S
O25 C36 1.279 . S
O26 Mg22 2.117 . S
O26 C36 1.250 . S
O27 Mg24 2.079 . S
O27 C37 1.264 . S
O28 Mg24 2.079 . S
O28 C38 1.282 . S
Mg29 O30 2.180 . S
Mg29 O31 2.030 . S
Mg29 O32 1.990 . S
Mg29 O33 2.117 . S
O30 Mg24 2.099 . S
O30 Mg29 2.180 . S
O30 C39 1.279 . S
O31 Mg29 2.030 . S
O31 C37 1.248 . S
O32 Mg29 1.990 . S
O32 C38 1.253 . S
O33 Mg29 2.117 . S
O33 C39 1.250 . S
C34 O40 1.250 . S
C34 O41 1.262 1_556 S
C35 O21 1.239 1_554 S
C35 O23 1.268 . S
C36 O25 1.279 . S
C36 O26 1.250 . S
C37 O27 1.264 . S
C37 O31 1.248 . S
C38 O28 1.282 . S
C38 O32 1.253 . S
C39 O30 1.279 . S
C39 O33 1.250 . S
O40 Mg22 2.030 . S
O40 C34 1.250 . S
O41 Mg24 2.079 . S
O41 C34 1.262 1_554 S
O42 Mg43 1.990 . S
O42 C56 1.240 1_556 S
Mg43 O42 1.990 . S
Mg43 O46 2.180 1_565 S
Mg43 O47 2.117 . S
Mg43 O61 2.030 . S
O44 Mg45 2.072 1_565 S
O44 C56 1.267 . S
Mg45 O44 2.072 1_545 S
Mg45 O46 2.099 1_554 S
Mg45 O48 2.079 . S
Mg45 O49 2.079 . S
Mg45 O51 2.099 . S
Mg45 O62 2.079 1_545 S
O46 Mg43 2.180 1_545 S
O46 Mg45 2.099 1_556 S
O46 C57 1.279 . S
O47 Mg43 2.117 . S
O47 C57 1.250 1_565 S
O48 Mg45 2.079 . S
O48 C58 1.264 . S
O49 Mg45 2.079 . S
O49 C59 1.282 . S
Mg50 O51 2.180 . S
Mg50 O52 2.030 . S
Mg50 O53 1.990 . S
Mg50 O54 2.117 . S
O51 Mg45 2.099 . S
O51 Mg50 2.180 . S
O51 C60 1.279 . S
O52 Mg50 2.030 . S
O52 C58 1.248 . S
O53 Mg50 1.990 . S
O53 C59 1.253 . S
O54 Mg50 2.117 . S
O54 C60 1.250 . S
C55 O61 1.250 . S
C55 O62 1.262 1_556 S
C56 O42 1.240 1_554 S
C56 O44 1.267 . S
C57 O46 1.279 . S
C57 O47 1.250 1_545 S
C58 O48 1.264 . S
C58 O52 1.248 . S
C59 O49 1.282 . S
C59 O53 1.253 . S
C60 O51 1.279 . S
C60 O54 1.250 . S
O61 Mg43 2.030 . S
O61 C55 1.250 . S
O62 Mg45 2.079 1_565 S
O62 C55 1.262 1_554 S
O63 Mg64 1.990 . S
O63 C77 1.253 . S
Mg64 O63 1.990 . S
Mg64 O67 2.180 . S
Mg64 O68 2.117 . S
Mg64 O82 2.030 . S
O65 Mg66 2.072 . S
O65 C77 1.260 . S
Mg66 O65 2.072 . S
Mg66 O67 2.099 . S
Mg66 O69 2.079 . S
Mg66 O70 2.072 . S
Mg66 O72 2.099 . S
Mg66 O83 2.079 . S
O67 Mg64 2.180 . S
O67 Mg66 2.099 . S
O67 C78 1.279 . S
O68 Mg64 2.117 . S
O68 C78 1.250 . S
O69 Mg66 2.079 . S
O69 C79 1.264 . S
O70 Mg66 2.072 . S
O70 C80 1.260 . S
Mg71 O72 2.180 . S
Mg71 O73 2.030 . S
Mg71 O74 1.990 . S
Mg71 O75 2.117 . S
O72 Mg66 2.099 . S
O72 Mg71 2.180 . S
O72 C81 1.279 . S
O73 Mg71 2.030 . S
O73 C79 1.248 . S
O74 Mg71 1.990 . S
O74 C80 1.253 . S
O75 Mg71 2.117 . S
O75 C81 1.250 . S
C76 O82 1.248 . S
C76 O83 1.264 . S
C77 O63 1.253 . S
C77 O65 1.260 . S
C78 O67 1.279 . S
C78 O68 1.250 . S
C79 O69 1.264 . S
C79 O73 1.248 . S
C80 O70 1.260 . S
C80 O74 1.253 . S
C81 O72 1.279 . S
C81 O75 1.250 . S
O82 Mg64 2.030 . S
O82 C76 1.248 . S
O83 Mg66 2.079 . S
O83 C76 1.264 . S
O84 Mg85 1.990 . S
O84 C98 1.253 . S
Mg85 O84 1.990 . S
Mg85 O88 2.180 . S
Mg85 O89 2.117 . S
Mg85 O103 2.030 . S
O86 Mg87 2.072 . S
O86 C98 1.260 . S
Mg87 O86 2.072 . S
Mg87 O88 2.099 . S
Mg87 O90 2.079 . S
Mg87 O91 2.072 . S
Mg87 O93 2.099 . S
Mg87 O104 2.079 . S
O88 Mg85 2.180 . S
O88 Mg87 2.099 . S
O88 C99 1.279 . S
O89 Mg85 2.117 . S
O89 C99 1.250 . S
O90 Mg87 2.079 . S
O90 C100 1.264 . S
O91 Mg87 2.072 . S
O91 C101 1.260 . S
Mg92 O93 2.180 . S
Mg92 O94 2.030 . S
Mg92 O95 1.990 . S
Mg92 O96 2.117 . S
O93 Mg87 2.099 . S
O93 Mg92 2.180 . S
O93 C102 1.279 . S
O94 Mg92 2.030 . S
O94 C100 1.248 . S
O95 Mg92 1.990 . S
O95 C101 1.253 . S
O96 Mg92 2.117 . S
O96 C102 1.250 . S
C97 O103 1.248 . S
C97 O104 1.264 . S
C98 O84 1.253 . S
C98 O86 1.260 . S
C99 O88 1.279 . S
C99 O89 1.250 . S
C100 O90 1.264 . S
C100 O94 1.248 . S
C101 O91 1.260 . S
C101 O95 1.253 . S
C102 O93 1.279 . S
C102 O96 1.250 . S
O103 Mg85 2.030 . S
O103 C97 1.248 . S
O104 Mg87 2.079 . S
O104 C97 1.264 . S
O105 Mg106 1.990 . S
O105 C119 1.253 . S
Mg106 O105 1.990 . S
Mg106 O109 2.180 . S
Mg106 O110 2.117 . S
Mg106 O124 2.030 . S
O107 Mg108 2.072 . S
O107 C119 1.260 . S
Mg108 O107 2.072 . S
Mg108 O109 2.099 . S
Mg108 O111 2.079 . S
Mg108 O112 2.072 . S
Mg108 O114 2.099 . S
Mg108 O125 2.079 . S
O109 Mg106 2.180 . S
O109 Mg108 2.099 . S
O109 C120 1.279 . S
O110 Mg106 2.117 . S
O110 C120 1.250 . S
O111 Mg108 2.079 . S
O111 C121 1.264 . S
O112 Mg108 2.072 . S
O112 C122 1.260 . S
Mg113 O114 2.180 . S
Mg113 O115 2.030 . S
Mg113 O116 1.990 . S
Mg113 O117 2.117 . S
O114 Mg108 2.099 . S
O114 Mg113 2.180 . S
O114 C123 1.279 . S
O115 Mg113 2.030 . S
O115 C121 1.248 . S
O116 Mg113 1.990 . S
O116 C122 1.253 . S
O117 Mg113 2.117 . S
O117 C123 1.250 . S
C118 O124 1.248 . S
C118 O125 1.264 . S
C119 O105 1.253 . S
C119 O107 1.260 . S
C120 O109 1.279 . S
C120 O110 1.250 . S
C121 O111 1.264 . S
C121 O115 1.248 . S
C122 O112 1.260 . S
C122 O116 1.253 . S
C123 O114 1.279 . S
C123 O117 1.250 . S
O124 Mg106 2.030 . S
O124 C118 1.248 . S
O125 Mg108 2.079 . S
O125 C118 1.264 . S
O126 Mg127 1.990 . S
O126 C140 1.253 . S
Mg127 O126 1.990 . S
Mg127 O130 2.180 . S
Mg127 O131 2.117 . S
Mg127 O145 2.030 . S
O128 Mg129 2.072 . S
O128 C140 1.260 . S
Mg129 O128 2.072 . S
Mg129 O130 2.099 . S
Mg129 O132 2.079 . S
Mg129 O133 2.072 . S
Mg129 O135 2.099 . S
Mg129 O146 2.079 . S
O130 Mg127 2.180 . S
O130 Mg129 2.099 . S
O130 C141 1.279 . S
O131 Mg127 2.117 . S
O131 C141 1.250 . S
O132 Mg129 2.079 . S
O132 C142 1.264 . S
O133 Mg129 2.072 . S
O133 C143 1.260 . S
Mg134 O135 2.180 . S
Mg134 O136 2.030 . S
Mg134 O137 1.990 . S
Mg134 O138 2.117 . S
O135 Mg129 2.099 . S
O135 Mg134 2.180 . S
O135 C144 1.279 . S
O136 Mg134 2.030 . S
O136 C142 1.248 . S
O137 Mg134 1.990 . S
O137 C143 1.253 . S
O138 Mg134 2.117 . S
O138 C144 1.250 . S
C139 O145 1.248 . S
C139 O146 1.264 . S
C140 O126 1.253 . S
C140 O128 1.260 . S
C141 O130 1.279 . S
C141 O131 1.250 . S
C142 O132 1.264 . S
C142 O136 1.248 . S
C143 O133 1.260 . S
C143 O137 1.253 . S
C144 O135 1.279 . S
C144 O138 1.250 . S
O145 Mg127 2.030 . S
O145 C139 1.248 . S
O146 Mg129 2.079 . S
O146 C139 1.264 . S
O147 Mg148 1.990 . S
O147 C161 1.253 . S
Mg148 O147 1.990 . S
Mg148 O151 2.180 . S
Mg148 O152 2.117 . S
Mg148 O166 2.030 . S
O149 Mg150 2.072 . S
O149 C161 1.260 . S
Mg150 O149 2.072 . S
Mg150 O151 2.099 . S
Mg150 O153 2.079 . S
Mg150 O154 2.072 . S
Mg150 O156 2.099 . S
Mg150 O167 2.079 . S
O151 Mg148 2.180 . S
O151 Mg150 2.099 . S
O151 C162 1.279 . S
O152 Mg148 2.117 . S
O152 C162 1.250 . S
O153 Mg150 2.079 . S
O153 C163 1.264 . S
O154 Mg150 2.072 . S
O154 C164 1.260 . S
Mg155 O156 2.180 . S
Mg155 O157 2.030 . S
Mg155 O158 1.990 . S
Mg155 O159 2.117 . S
O156 Mg150 2.099 . S
O156 Mg155 2.180 . S
O156 C165 1.279 . S
O157 Mg155 2.030 . S
O157 C163 1.248 . S
O158 Mg155 1.990 . S
O158 C164 1.253 . S
O159 Mg155 2.117 . S
O159 C165 1.250 . S
C160 O166 1.248 . S
C160 O167 1.264 . S
C161 O147 1.253 . S
C161 O149 1.260 . S
C162 O151 1.279 . S
C162 O152 1.250 . S
C163 O153 1.264 . S
C163 O157 1.248 . S
C164 O154 1.260 . S
C164 O158 1.253 . S
C165 O156 1.279 . S
C165 O159 1.250 . S
O166 Mg148 2.030 . S
O166 C160 1.248 . S
O167 Mg150 2.079 . S
O167 C160 1.264 . S
O168 Mg169 1.990 . S
O168 C182 1.253 . S
Mg169 O168 1.990 . S
Mg169 O172 2.180 . S
Mg169 O173 2.117 . S
Mg169 O187 2.030 . S
O170 Mg171 2.072 . S
O170 C182 1.260 . S
Mg171 O170 2.072 . S
Mg171 O172 2.099 . S
Mg171 O174 2.079 . S
Mg171 O175 2.072 . S
Mg171 O177 2.099 . S
Mg171 O188 2.079 . S
O172 Mg169 2.180 . S
O172 Mg171 2.099 . S
O172 C183 1.279 . S
O173 Mg169 2.117 . S
O173 C183 1.250 . S
O174 Mg171 2.079 . S
O174 C184 1.264 . S
O175 Mg171 2.072 . S
O175 C185 1.260 . S
Mg176 O177 2.180 . S
Mg176 O178 2.030 . S
Mg176 O179 1.990 . S
Mg176 O180 2.117 . S
O177 Mg171 2.099 . S
O177 Mg176 2.180 . S
O177 C186 1.279 . S
O178 Mg176 2.030 . S
O178 C184 1.248 . S
O179 Mg176 1.990 . S
O179 C185 1.253 . S
O180 Mg176 2.117 . S
O180 C186 1.250 . S
C181 O187 1.248 . S
C181 O188 1.264 . S
C182 O168 1.253 . S
C182 O170 1.260 . S
C183 O172 1.279 . S
C183 O173 1.250 . S
C184 O174 1.264 . S
C184 O178 1.248 . S
C185 O175 1.260 . S
C185 O179 1.253 . S
C186 O177 1.279 . S
C186 O180 1.250 . S
O187 Mg169 2.030 . S
O187 C181 1.248 . S
O188 Mg171 2.079 . S
O188 C181 1.264 . S
C189 C190 1.349 1_556 S
C189 C191 1.327 . S
C189 H214 0.950 . S
C190 C189 1.349 1_554 S
C190 C206 1.349 . S
C191 C189 1.327 . S
C191 C210 1.429 1_556 S
C191 H215 0.950 . S
C192 C209 1.574 . S
C192 C211 1.368 . S
C192 H216 0.949 . S
H193 C197 0.949 . S
C194 C195 1.349 . S
C194 C196 1.327 . S
C194 H217 0.950 . S
C195 C194 1.349 . S
C195 C207 1.349 1_554 S
C196 C194 1.327 . S
C196 C212 1.429 . S
C196 H218 0.950 . S
C197 H193 0.949 . S
C197 C205 1.574 . S
C197 C213 1.368 1_556 S
H198 C206 0.950 . S
H199 C204 0.950 . S
H200 C205 0.949 . S
H201 C207 0.950 . S
H202 C208 0.950 . S
H203 C209 0.949 . S
C204 H199 0.950 . S
C204 C206 1.327 . S
C204 C210 1.429 . S
C205 C197 1.574 . S
C205 H200 0.949 . S
C205 C211 1.368 1_556 S
C206 C190 1.349 . S
C206 H198 0.950 . S
C206 C204 1.327 . S
C207 C195 1.349 1_556 S
C207 H201 0.950 . S
C207 C208 1.327 . S
C208 H202 0.950 . S
C208 C207 1.327 . S
C208 C212 1.429 1_556 S
C209 C192 1.574 . S
C209 H203 0.949 . S
C209 C213 1.368 . S
C210 C191 1.429 1_554 S
C210 C204 1.429 . S
C210 C211 1.523 . S
C211 C192 1.368 . S
C211 C205 1.368 1_554 S
C211 C210 1.523 . S
C212 C196 1.429 . S
C212 C208 1.429 1_554 S
C212 C213 1.523 . S
C213 C197 1.368 1_554 S
C213 C209 1.368 . S
C213 C212 1.523 . S
H214 C189 0.950 . S
H215 C191 0.950 . S
H216 C192 0.949 . S
H217 C194 0.950 . S
H218 C196 0.950 . S
C219 C220 1.349 . S
C219 C221 1.327 . S
C219 H244 0.950 . S
C220 C219 1.349 . S
C220 C236 1.349 1_554 S
C221 C219 1.327 . S
C221 C240 1.429 . S
C221 H245 0.950 . S
C222 C239 1.574 . S
C222 C241 1.368 1_556 S
C222 H246 0.949 . S
H223 C227 0.949 . S
C224 C225 1.349 1_556 S
C224 C226 1.327 . S
C224 H247 0.950 . S
C225 C224 1.349 1_554 S
C225 C237 1.349 . S
C226 C224 1.327 . S
C226 C242 1.429 1_556 S
C226 H248 0.950 . S
C227 H223 0.949 . S
C227 C235 1.574 . S
C227 C243 1.368 . S
H228 C236 0.950 . S
H229 C234 0.950 . S
H230 C235 0.949 . S
H231 C237 0.950 . S
H232 C238 0.950 . S
H233 C239 0.949 . S
C234 H229 0.950 . S
C234 C236 1.327 . S
C234 C240 1.429 1_556 S
C235 C227 1.574 . S
C235 H230 0.949 . S
C235 C241 1.368 . S
C236 C220 1.349 1_556 S
C236 H228 0.950 . S
C236 C234 1.327 . S
C237 C225 1.349 . S
C237 H231 0.950 . S
C237 C238 1.327 . S
C238 H232 0.950 . S
C238 C237 1.327 . S
C238 C242 1.429 . S
C239 C222 1.574 . S
C239 H233 0.949 . S
C239 C243 1.368 1_556 S
C240 C221 1.429 . S
C240 C234 1.429 1_554 S
C240 C241 1.523 . S
C241 C222 1.368 1_554 S
C241 C235 1.368 . S
C241 C240 1.523 . S
C242 C226 1.429 1_554 S
C242 C238 1.429 . S
C242 C243 1.523 . S
C243 C227 1.368 . S
C243 C239 1.368 1_554 S
C243 C242 1.523 . S
H244 C219 0.950 . S
H245 C221 0.950 . S
H246 C222 0.949 . S
H247 C224 0.950 . S
H248 C226 0.950 . S
C249 C250 1.349 1_556 S
C249 C251 1.327 . S
C249 H274 0.950 . S
C250 C249 1.349 1_554 S
C250 C266 1.349 . S
C251 C249 1.327 . S
C251 C270 1.429 1_556 S
C251 H275 0.950 . S
C252 C269 1.574 . S
C252 C271 1.368 . S
C252 H276 0.949 . S
H253 C257 0.949 . S
C254 C255 1.349 . S
C254 C256 1.327 . S
C254 H277 0.950 . S
C255 C254 1.349 . S
C255 C267 1.349 1_554 S
C256 C254 1.327 . S
C256 C272 1.429 . S
C256 H278 0.950 . S
C257 H253 0.949 . S
C257 C265 1.574 . S
C257 C273 1.368 1_556 S
H258 C266 0.950 . S
H259 C264 0.950 . S
H260 C265 0.949 . S
H261 C267 0.950 . S
H262 C268 0.950 . S
H263 C269 0.949 . S
C264 H259 0.950 . S
C264 C266 1.327 . S
C264 C270 1.429 . S
C265 C257 1.574 . S
C265 H260 0.949 . S
C265 C271 1.368 1_556 S
C266 C250 1.349 . S
C266 H258 0.950 . S
C266 C264 1.327 . S
C267 C255 1.349 1_556 S
C267 H261 0.950 . S
C267 C268 1.327 . S
C268 H262 0.950 . S
C268 C267 1.327 . S
C268 C272 1.429 1_556 S
C269 C252 1.574 . S
C269 H263 0.949 . S
C269 C273 1.368 . S
C270 C251 1.429 1_554 S
C270 C264 1.429 . S
C270 C271 1.523 . S
C271 C252 1.368 . S
C271 C265 1.368 1_554 S
C271 C270 1.523 . S
C272 C256 1.429 . S
C272 C268 1.429 1_554 S
C272 C273 1.523 . S
C273 C257 1.368 1_554 S
C273 C269 1.368 . S
C273 C272 1.523 . S
H274 C249 0.950 . S
H275 C251 0.950 . S
H276 C252 0.949 . S
H277 C254 0.950 . S
H278 C256 0.950 . S
C279 C280 1.349 . S
C279 C281 1.327 . S
C279 H304 0.950 . S
C280 C279 1.349 . S
C280 C296 1.349 1_554 S
C281 C279 1.327 . S
C281 C300 1.429 . S
C281 H305 0.950 . S
C282 C299 1.574 . S
C282 C301 1.368 1_556 S
C282 H306 0.949 . S
H283 C287 0.949 . S
C284 C285 1.349 1_556 S
C284 C286 1.327 . S
C284 H307 0.950 . S
C285 C284 1.349 1_554 S
C285 C297 1.349 . S
C286 C284 1.327 . S
C286 C302 1.429 1_556 S
C286 H308 0.950 . S
C287 H283 0.949 . S
C287 C295 1.574 . S
C287 C303 1.368 . S
H288 C296 0.950 . S
H289 C294 0.950 . S
H290 C295 0.949 . S
H291 C297 0.950 . S
H292 C298 0.950 . S
H293 C299 0.949 . S
C294 H289 0.950 . S
C294 C296 1.327 . S
C294 C300 1.429 1_556 S
C295 C287 1.574 . S
C295 H290 0.949 . S
C295 C301 1.368 . S
C296 C280 1.349 1_556 S
C296 H288 0.950 . S
C296 C294 1.327 . S
C297 C285 1.349 . S
C297 H291 0.950 . S
C297 C298 1.327 . S
C298 H292 0.950 . S
C298 C297 1.327 . S
C298 C302 1.429 . S
C299 C282 1.574 . S
C299 H293 0.949 . S
C299 C303 1.368 1_556 S
C300 C281 1.429 . S
C300 C294 1.429 1_554 S
C300 C301 1.523 . S
C301 C282 1.368 1_554 S
C301 C295 1.368 . S
C301 C300 1.523 . S
C302 C286 1.429 1_554 S
C302 C298 1.429 . S
C302 C303 1.523 . S
C303 C287 1.368 . S
C303 C299 1.368 1_554 S
C303 C302 1.523 . S
H304 C279 0.950 . S
H305 C281 0.950 . S
H306 C282 0.949 . S
H307 C284 0.950 . S
H308 C286 0.950 . S
C309 C310 1.349 1_556 S
C309 C311 1.327 . S
C309 H334 0.950 . S
C310 C309 1.349 1_554 S
C310 C326 1.349 . S
C311 C309 1.327 . S
C311 C330 1.429 1_556 S
C311 H335 0.950 . S
C312 C329 1.574 . S
C312 C331 1.368 . S
C312 H336 0.949 . S
H313 C317 0.949 . S
C314 C315 1.349 . S
C314 C316 1.327 . S
C314 H337 0.950 . S
C315 C314 1.349 . S
C315 C327 1.349 1_554 S
C316 C314 1.327 . S
C316 C332 1.429 . S
C316 H338 0.950 . S
C317 H313 0.949 . S
C317 C325 1.574 . S
C317 C333 1.368 1_556 S
H318 C326 0.950 . S
H319 C324 0.950 . S
H320 C325 0.949 . S
H321 C327 0.950 . S
H322 C328 0.950 . S
H323 C329 0.949 . S
C324 H319 0.950 . S
C324 C326 1.327 . S
C324 C330 1.429 . S
C325 C317 1.574 . S
C325 H320 0.949 . S
C325 C331 1.368 1_556 S
C326 C310 1.349 . S
C326 H318 0.950 . S
C326 C324 1.327 . S
C327 C315 1.349 1_556 S
C327 H321 0.950 . S
C327 C328 1.327 . S
C328 H322 0.950 . S
C328 C327 1.327 . S
C328 C332 1.429 1_556 S
C329 C312 1.574 . S
C329 H323 0.949 . S
C329 C333 1.368 . S
C330 C311 1.429 1_554 S
C330 C324 1.429 . S
C330 C331 1.523 . S
C331 C312 1.368 . S
C331 C325 1.368 1_554 S
C331 C330 1.523 . S
C332 C316 1.429 . S
C332 C328 1.429 1_554 S
C332 C333 1.523 . S
C333 C317 1.368 1_554 S
C333 C329 1.368 . S
C333 C332 1.523 . S
H334 C309 0.950 . S
H335 C311 0.950 . S
H336 C312 0.949 . S
H337 C314 0.950 . S
H338 C316 0.950 . S
C339 C340 1.349 1_556 S
C339 C341 1.327 . S
C339 H364 0.950 . S
C340 C339 1.349 1_554 S
C340 C356 1.349 . S
C341 C339 1.327 . S
C341 C360 1.429 1_556 S
C341 H365 0.950 . S
C342 C359 1.574 . S
C342 C361 1.368 . S
C342 H366 0.949 . S
H343 C347 0.949 . S
C344 C345 1.349 . S
C344 C346 1.327 . S
C344 H367 0.950 . S
C345 C344 1.349 . S
C345 C357 1.349 1_554 S
C346 C344 1.327 . S
C346 C362 1.429 . S
C346 H368 0.950 . S
C347 H343 0.949 . S
C347 C355 1.574 . S
C347 C363 1.368 1_556 S
H348 C356 0.950 . S
H349 C354 0.950 . S
H350 C355 0.949 . S
H351 C357 0.950 . S
H352 C358 0.950 . S
H353 C359 0.949 . S
C354 H349 0.950 . S
C354 C356 1.327 . S
C354 C360 1.429 . S
C355 C347 1.574 . S
C355 H350 0.949 . S
C355 C361 1.368 1_556 S
C356 C340 1.349 . S
C356 H348 0.950 . S
C356 C354 1.327 . S
C357 C345 1.349 1_556 S
C357 H351 0.950 . S
C357 C358 1.327 . S
C358 H352 0.950 . S
C358 C357 1.327 . S
C358 C362 1.429 1_556 S
C359 C342 1.574 . S
C359 H353 0.949 . S
C359 C363 1.368 . S
C360 C341 1.429 1_554 S
C360 C354 1.429 . S
C360 C361 1.523 . S
C361 C342 1.368 . S
C361 C355 1.368 1_554 S
C361 C360 1.523 . S
C362 C346 1.429 . S
C362 C358 1.429 1_554 S
C362 C363 1.523 . S
C363 C347 1.368 1_554 S
C363 C359 1.368 . S
C363 C362 1.523 . S
H364 C339 0.950 . S
H365 C341 0.950 . S
H366 C342 0.949 . S
H367 C344 0.950 . S
H368 C346 0.950 . S
C369 C370 1.349 . S
C369 C371 1.327 . S
C369 H394 0.950 . S
C370 C369 1.349 . S
C370 C386 1.349 . S
C371 C369 1.327 . S
C371 C390 1.429 . S
C371 H395 0.950 . S
C372 C389 1.574 . S
C372 C391 1.368 . S
C372 H396 0.949 . S
H373 C377 0.949 . S
C374 C375 1.349 . S
C374 C376 1.327 . S
C374 H397 0.950 . S
C375 C374 1.349 . S
C375 C387 1.349 . S
C376 C374 1.327 . S
C376 C392 1.429 . S
C376 H398 0.950 . S
C377 H373 0.949 . S
C377 C385 1.574 . S
C377 C393 1.368 . S
H378 C386 0.950 . S
H379 C384 0.950 . S
H380 C385 0.949 . S
H381 C387 0.950 . S
H382 C388 0.950 . S
H383 C389 0.949 . S
C384 H379 0.950 . S
C384 C386 1.327 . S
C384 C390 1.429 . S
C385 C377 1.574 . S
C385 H380 0.949 . S
C385 C391 1.368 . S
C386 C370 1.349 . S
C386 H378 0.950 . S
C386 C384 1.327 . S
C387 C375 1.349 . S
C387 H381 0.950 . S
C387 C388 1.327 . S
C388 H382 0.950 . S
C388 C387 1.327 . S
C388 C392 1.429 . S
C389 C372 1.574 . S
C389 H383 0.949 . S
C389 C393 1.368 . S
C390 C371 1.429 . S
C390 C384 1.429 . S
C390 C391 1.523 . S
C391 C372 1.368 . S
C391 C385 1.368 . S
C391 C390 1.523 . S
C392 C376 1.429 . S
C392 C388 1.429 . S
C392 C393 1.523 1_455 S
C393 C377 1.368 . S
C393 C389 1.368 . S
C393 C392 1.523 1_655 S
H394 C369 0.950 . S
H395 C371 0.950 . S
H396 C372 0.949 . S
H397 C374 0.950 . S
H398 C376 0.950 . S
C399 C400 1.349 . S
C399 C401 1.327 . S
C399 H424 0.950 . S
C400 C399 1.349 . S
C400 C416 1.349 . S
C401 C399 1.327 . S
C401 C420 1.429 . S
C401 H425 0.950 . S
C402 C419 1.574 . S
C402 C421 1.368 . S
C402 H426 0.949 . S
H403 C407 0.949 . S
C404 C405 1.349 . S
C404 C406 1.327 1_565 S
C404 H427 0.950 . S
C405 C404 1.349 . S
C405 C417 1.349 1_565 S
C406 C404 1.327 1_545 S
C406 C422 1.429 . S
C406 H428 0.950 . S
C407 H403 0.949 . S
C407 C415 1.574 . S
C407 C423 1.368 . S
H408 C416 0.950 . S
H409 C414 0.950 . S
H410 C415 0.949 . S
H411 C417 0.950 . S
H412 C418 0.950 . S
H413 C419 0.949 . S
C414 H409 0.950 . S
C414 C416 1.327 . S
C414 C420 1.429 . S
C415 C407 1.574 . S
C415 H410 0.949 . S
C415 C421 1.368 . S
C416 C400 1.349 . S
C416 H408 0.950 . S
C416 C414 1.327 . S
C417 C405 1.349 1_545 S
C417 H411 0.950 . S
C417 C418 1.327 . S
C418 H412 0.950 . S
C418 C417 1.327 . S
C418 C422 1.429 . S
C419 C402 1.574 . S
C419 H413 0.949 . S
C419 C423 1.368 . S
C420 C401 1.429 . S
C420 C414 1.429 . S
C420 C421 1.523 . S
C421 C402 1.368 . S
C421 C415 1.368 . S
C421 C420 1.523 . S
C422 C406 1.429 . S
C422 C418 1.429 . S
C422 C423 1.523 . S
C423 C407 1.368 . S
C423 C419 1.368 . S
C423 C422 1.523 . S
H424 C399 0.950 . S
H425 C401 0.950 . S
H426 C402 0.949 . S
H427 C404 0.950 . S
H428 C406 0.950 . S
C429 C430 1.349 . S
C429 C431 1.327 1_455 S
C429 H454 0.950 . S
C430 C429 1.349 . S
C430 C446 1.349 . S
C431 C429 1.327 1_655 S
C431 C450 1.429 . S
C431 H455 0.950 . S
C432 C449 1.574 . S
C432 C451 1.368 . S
C432 H456 0.949 . S
H433 C437 0.949 . S
C434 C435 1.349 . S
C434 C436 1.327 . S
C434 H457 0.950 . S
C435 C434 1.349 . S
C435 C447 1.349 . S
C436 C434 1.327 . S
C436 C452 1.429 1_565 S
C436 H458 0.950 . S
C437 H433 0.949 . S
C437 C445 1.574 . S
C437 C453 1.368 . S
H438 C446 0.950 . S
H439 C444 0.950 . S
H440 C445 0.949 . S
H441 C447 0.950 . S
H442 C448 0.950 1_545 S
H443 C449 0.949 . S
C444 H439 0.950 . S
C444 C446 1.327 . S
C444 C450 1.429 1_455 S
C445 C437 1.574 . S
C445 H440 0.949 . S
C445 C451 1.368 . S
C446 C430 1.349 . S
C446 H438 0.950 . S
C446 C444 1.327 . S
C447 C435 1.349 . S
C447 H441 0.950 . S
C447 C448 1.327 . S
C448 H442 0.950 1_565 S
C448 C447 1.327 . S
C448 C452 1.429 1_565 S
C449 C432 1.574 . S
C449 H443 0.949 . S
C449 C453 1.368 . S
C450 C431 1.429 . S
C450 C444 1.429 1_655 S
C450 C451 1.523 . S
C451 C432 1.368 . S
C451 C445 1.368 . S
C451 C450 1.523 . S
C452 C436 1.429 1_545 S
C452 C448 1.429 1_545 S
C452 C453 1.523 . S
C453 C437 1.368 . S
C453 C449 1.368 . S
C453 C452 1.523 . S
H454 C429 0.950 . S
H455 C431 0.950 . S
H456 C432 0.949 . S
H457 C434 0.950 . S
H458 C436 0.950 . S
C459 C460 1.349 . S
C459 C461 1.327 . S
C459 H484 0.950 . S
C460 C459 1.349 . S
C460 C476 1.349 . S
C461 C459 1.327 . S
C461 C480 1.429 . S
C461 H485 0.950 . S
C462 C479 1.574 . S
C462 C481 1.368 . S
C462 H486 0.949 . S
H463 C467 0.949 . S
C464 C465 1.349 . S
C464 C466 1.327 . S
C464 H487 0.950 . S
C465 C464 1.349 . S
C465 C477 1.349 . S
C466 C464 1.327 . S
C466 C482 1.429 . S
C466 H488 0.950 . S
C467 H463 0.949 . S
C467 C475 1.574 . S
C467 C483 1.368 . S
H468 C476 0.950 . S
H469 C474 0.950 . S
H470 C475 0.949 . S
H471 C477 0.950 . S
H472 C478 0.950 . S
H473 C479 0.949 . S
C474 H469 0.950 . S
C474 C476 1.327 . S
C474 C480 1.429 . S
C475 C467 1.574 . S
C475 H470 0.949 . S
C475 C481 1.368 . S
C476 C460 1.349 . S
C476 H468 0.950 . S
C476 C474 1.327 . S
C477 C465 1.349 . S
C477 H471 0.950 . S
C477 C478 1.327 . S
C478 H472 0.950 . S
C478 C477 1.327 . S
C478 C482 1.429 . S
C479 C462 1.574 . S
C479 H473 0.949 . S
C479 C483 1.368 . S
C480 C461 1.429 . S
C480 C474 1.429 . S
C480 C481 1.523 . S
C481 C462 1.368 . S
C481 C475 1.368 . S
C481 C480 1.523 . S
C482 C466 1.429 . S
C482 C478 1.429 . S
C482 C483 1.523 . S
C483 C467 1.368 . S
C483 C479 1.368 . S
C483 C482 1.523 . S
H484 C459 0.950 . S
H485 C461 0.950 . S
H486 C462 0.949 . S
H487 C464 0.950 . S
H488 C466 0.950 . S
C489 C490 1.349 . S
C489 C491 1.327 . S
C489 H514 0.950 . S
C490 C489 1.349 . S
C490 C506 1.349 . S
C491 C489 1.327 . S
C491 C510 1.429 . S
C491 H515 0.950 . S
C492 C509 1.574 . S
C492 C511 1.368 . S
C492 H516 0.949 . S
H493 C497 0.949 . S
C494 C495 1.349 . S
C494 C496 1.327 . S
C494 H517 0.950 . S
C495 C494 1.349 . S
C495 C507 1.349 . S
C496 C494 1.327 . S
C496 C512 1.429 . S
C496 H518 0.950 . S
C497 H493 0.949 . S
C497 C505 1.574 . S
C497 C513 1.368 . S
H498 C506 0.950 . S
H499 C504 0.950 . S
H500 C505 0.949 . S
H501 C507 0.950 . S
H502 C508 0.950 . S
H503 C509 0.949 . S
C504 H499 0.950 . S
C504 C506 1.327 . S
C504 C510 1.429 . S
C505 C497 1.574 . S
C505 H500 0.949 . S
C505 C511 1.368 . S
C506 C490 1.349 . S
C506 H498 0.950 . S
C506 C504 1.327 . S
C507 C495 1.349 . S
C507 H501 0.950 . S
C507 C508 1.327 . S
C508 H502 0.950 . S
C508 C507 1.327 . S
C508 C512 1.429 . S
C509 C492 1.574 . S
C509 H503 0.949 . S
C509 C513 1.368 . S
C510 C491 1.429 . S
C510 C504 1.429 . S
C510 C511 1.523 . S
C511 C492 1.368 . S
C511 C505 1.368 . S
C511 C510 1.523 . S
C512 C496 1.429 . S
C512 C508 1.429 . S
C512 C513 1.523 . S
C513 C497 1.368 . S
C513 C509 1.368 . S
C513 C512 1.523 . S
H514 C489 0.950 . S
H515 C491 0.950 . S
H516 C492 0.949 . S
H517 C494 0.950 . S
H518 C496 0.950 . S
C519 C520 1.349 . S
C519 C521 1.327 . S
C519 H544 0.950 . S
C520 C519 1.349 . S
C520 C536 1.349 . S
C521 C519 1.327 . S
C521 C540 1.429 . S
C521 H545 0.950 . S
C522 C539 1.574 . S
C522 C541 1.368 . S
C522 H546 0.949 . S
H523 C527 0.949 . S
C524 C525 1.349 . S
C524 C526 1.327 . S
C524 H547 0.950 . S
C525 C524 1.349 . S
C525 C537 1.349 . S
C526 C524 1.327 . S
C526 C542 1.429 . S
C526 H548 0.950 . S
C527 H523 0.949 . S
C527 C535 1.574 . S
C527 C543 1.368 . S
H528 C536 0.950 . S
H529 C534 0.950 . S
H530 C535 0.949 . S
H531 C537 0.950 . S
H532 C538 0.950 . S
H533 C539 0.949 . S
C534 H529 0.950 . S
C534 C536 1.327 . S
C534 C540 1.429 . S
C535 C527 1.574 . S
C535 H530 0.949 . S
C535 C541 1.368 . S
C536 C520 1.349 . S
C536 H528 0.950 . S
C536 C534 1.327 . S
C537 C525 1.349 . S
C537 H531 0.950 . S
C537 C538 1.327 . S
C538 H532 0.950 . S
C538 C537 1.327 . S
C538 C542 1.429 . S
C539 C522 1.574 . S
C539 H533 0.949 . S
C539 C543 1.368 . S
C540 C521 1.429 . S
C540 C534 1.429 . S
C540 C541 1.523 . S
C541 C522 1.368 . S
C541 C535 1.368 . S
C541 C540 1.523 . S
C542 C526 1.429 . S
C542 C538 1.429 . S
C542 C543 1.523 . S
C543 C527 1.368 . S
C543 C539 1.368 . S
C543 C542 1.523 . S
H544 C519 0.950 . S
H545 C521 0.950 . S
H546 C522 0.949 . S
H547 C524 0.950 . S
H548 C526 0.950 . S
C549 C550 1.349 . S
C549 C551 1.327 . S
C549 H574 0.950 . S
C550 C549 1.349 . S
C550 C566 1.349 . S
C551 C549 1.327 . S
C551 C570 1.429 . S
C551 H575 0.950 . S
C552 C569 1.574 . S
C552 C571 1.368 . S
C552 H576 0.949 . S
H553 C557 0.949 . S
C554 C555 1.349 . S
C554 C556 1.327 . S
C554 H577 0.950 . S
C555 C554 1.349 . S
C555 C567 1.349 . S
C556 C554 1.327 . S
C556 C572 1.429 . S
C556 H578 0.950 . S
C557 H553 0.949 . S
C557 C565 1.574 . S
C557 C573 1.368 . S
H558 C566 0.950 . S
H559 C564 0.950 . S
H560 C565 0.949 . S
H561 C567 0.950 . S
H562 C568 0.950 . S
H563 C569 0.949 . S
C564 H559 0.950 . S
C564 C566 1.327 . S
C564 C570 1.429 . S
C565 C557 1.574 . S
C565 H560 0.949 . S
C565 C571 1.368 . S
C566 C550 1.349 . S
C566 H558 0.950 . S
C566 C564 1.327 . S
C567 C555 1.349 . S
C567 H561 0.950 . S
C567 C568 1.327 . S
C568 H562 0.950 . S
C568 C567 1.327 . S
C568 C572 1.429 . S
C569 C552 1.574 . S
C569 H563 0.949 . S
C569 C573 1.368 . S
C570 C551 1.429 . S
C570 C564 1.429 . S
C570 C571 1.523 . S
C571 C552 1.368 . S
C571 C565 1.368 . S
C571 C570 1.523 . S
C572 C556 1.429 . S
C572 C568 1.429 . S
C572 C573 1.523 . S
C573 C557 1.368 . S
C573 C569 1.368 . S
C573 C572 1.523 . S
H574 C549 0.950 . S
H575 C551 0.950 . S
H576 C552 0.949 . S
H577 C554 0.950 . S
H578 C556 0.950 . S
C579 C580 1.349 . S
C579 C581 1.327 . S
C579 H604 0.950 . S
C580 C579 1.349 . S
C580 C596 1.349 . S
C581 C579 1.327 . S
C581 C600 1.429 . S
C581 H605 0.950 . S
C582 C599 1.574 . S
C582 C601 1.368 . S
C582 H606 0.949 . S
H583 C587 0.949 . S
C584 C585 1.349 . S
C584 C586 1.327 . S
C584 H607 0.950 . S
C585 C584 1.349 . S
C585 C597 1.349 . S
C586 C584 1.327 . S
C586 C602 1.429 . S
C586 H608 0.950 . S
C587 H583 0.949 . S
C587 C595 1.574 . S
C587 C603 1.368 . S
H588 C596 0.950 . S
H589 C594 0.950 . S
H590 C595 0.949 . S
H591 C597 0.950 . S
H592 C598 0.950 . S
H593 C599 0.949 . S
C594 H589 0.950 . S
C594 C596 1.327 . S
C594 C600 1.429 . S
C595 C587 1.574 . S
C595 H590 0.949 . S
C595 C601 1.368 . S
C596 C580 1.349 . S
C596 H588 0.950 . S
C596 C594 1.327 . S
C597 C585 1.349 . S
C597 H591 0.950 . S
C597 C598 1.327 . S
C598 H592 0.950 . S
C598 C597 1.327 . S
C598 C602 1.429 . S
C599 C582 1.574 . S
C599 H593 0.949 . S
C599 C603 1.368 . S
C600 C581 1.429 . S
C600 C594 1.429 . S
C600 C601 1.523 . S
C601 C582 1.368 . S
C601 C595 1.368 . S
C601 C600 1.523 . S
C602 C586 1.429 . S
C602 C598 1.429 . S
C602 C603 1.523 . S
C603 C587 1.368 . S
C603 C599 1.368 . S
C603 C602 1.523 . S
H604 C579 0.950 . S
H605 C581 0.950 . S
H606 C582 0.949 . S
H607 C584 0.950 . S
H608 C586 0.950 . S
C609 C610 1.349 . S
C609 C611 1.327 . S
C609 H634 0.950 . S
C610 C609 1.349 . S
C610 C626 1.349 . S
C611 C609 1.327 . S
C611 C630 1.429 . S
C611 H635 0.950 . S
C612 C629 1.574 . S
C612 C631 1.368 . S
C612 H636 0.949 . S
H613 C617 0.949 . S
C614 C615 1.349 . S
C614 C616 1.327 . S
C614 H637 0.950 . S
C615 C614 1.349 . S
C615 C627 1.349 . S
C616 C614 1.327 . S
C616 C632 1.429 . S
C616 H638 0.950 . S
C617 H613 0.949 . S
C617 C625 1.574 . S
C617 C633 1.368 . S
H618 C626 0.950 . S
H619 C624 0.950 . S
H620 C625 0.949 . S
H621 C627 0.950 . S
H622 C628 0.950 . S
H623 C629 0.949 . S
C624 H619 0.950 . S
C624 C626 1.327 . S
C624 C630 1.429 . S
C625 C617 1.574 . S
C625 H620 0.949 . S
C625 C631 1.368 . S
C626 C610 1.349 . S
C626 H618 0.950 . S
C626 C624 1.327 . S
C627 C615 1.349 . S
C627 H621 0.950 . S
C627 C628 1.327 . S
C628 H622 0.950 . S
C628 C627 1.327 . S
C628 C632 1.429 . S
C629 C612 1.574 . S
C629 H623 0.949 . S
C629 C633 1.368 . S
C630 C611 1.429 . S
C630 C624 1.429 . S
C630 C631 1.523 . S
C631 C612 1.368 . S
C631 C625 1.368 . S
C631 C630 1.523 . S
C632 C616 1.429 . S
C632 C628 1.429 . S
C632 C633 1.523 . S
C633 C617 1.368 . S
C633 C629 1.368 . S
C633 C632 1.523 . S
H634 C609 0.950 . S
H635 C611 0.950 . S
H636 C612 0.949 . S
H637 C614 0.950 . S
H638 C616 0.950 . S
C639 C640 1.349 . S
C639 C641 1.327 . S
C639 H664 0.950 . S
C640 C639 1.349 . S
C640 C656 1.349 . S
C641 C639 1.327 . S
C641 C660 1.429 . S
C641 H665 0.950 . S
C642 C659 1.574 . S
C642 C661 1.368 . S
C642 H666 0.949 . S
H643 C647 0.949 . S
C644 C645 1.349 . S
C644 C646 1.327 . S
C644 H667 0.950 . S
C645 C644 1.349 . S
C645 C657 1.349 . S
C646 C644 1.327 . S
C646 C662 1.429 . S
C646 H668 0.950 . S
C647 H643 0.949 . S
C647 C655 1.574 . S
C647 C663 1.368 . S
H648 C656 0.950 . S
H649 C654 0.950 . S
H650 C655 0.949 . S
H651 C657 0.950 . S
H652 C658 0.950 . S
H653 C659 0.949 . S
C654 H649 0.950 . S
C654 C656 1.327 . S
C654 C660 1.429 . S
C655 C647 1.574 . S
C655 H650 0.949 . S
C655 C661 1.368 . S
C656 C640 1.349 . S
C656 H648 0.950 . S
C656 C654 1.327 . S
C657 C645 1.349 . S
C657 H651 0.950 . S
C657 C658 1.327 . S
C658 H652 0.950 . S
C658 C657 1.327 . S
C658 C662 1.429 . S
C659 C642 1.574 . S
C659 H653 0.949 . S
C659 C663 1.368 . S
C660 C641 1.429 . S
C660 C654 1.429 . S
C660 C661 1.523 . S
C661 C642 1.368 . S
C661 C655 1.368 . S
C661 C660 1.523 . S
C662 C646 1.429 . S
C662 C658 1.429 . S
C662 C663 1.523 1_545 S
C663 C647 1.368 . S
C663 C659 1.368 . S
C663 C662 1.523 1_565 S
H664 C639 0.950 . S
H665 C641 0.950 . S
H666 C642 0.949 . S
H667 C644 0.950 . S
H668 C646 0.950 . S
C669 C670 1.349 . S
C669 C671 1.327 . S
C669 H694 0.950 . S
C670 C669 1.349 . S
C670 C686 1.349 . S
C671 C669 1.327 . S
C671 C690 1.429 1_655 S
C671 H695 0.950 . S
C672 C689 1.574 . S
C672 C691 1.368 . S
C672 H696 0.949 . S
H673 C677 0.949 . S
C674 C675 1.349 . S
C674 C676 1.327 1_545 S
C674 H697 0.950 . S
C675 C674 1.349 . S
C675 C687 1.349 . S
C676 C674 1.327 1_565 S
C676 C692 1.429 . S
C676 H698 0.950 . S
C677 H673 0.949 . S
C677 C685 1.574 . S
C677 C693 1.368 . S
H678 C686 0.950 . S
H679 C684 0.950 1_455 S
H680 C685 0.949 . S
H681 C687 0.950 . S
H682 C688 0.954 . S
H683 C689 0.949 . S
C684 H679 0.950 1_655 S
C684 C686 1.327 . S
C684 C690 1.429 1_655 S
C685 C677 1.574 . S
C685 H680 0.949 . S
C685 C691 1.368 . S
C686 C670 1.349 . S
C686 H678 0.950 . S
C686 C684 1.327 . S
C687 C675 1.349 . S
C687 H681 0.950 . S
C687 C688 1.333 . S
C688 H682 0.954 . S
C688 C687 1.333 . S
C688 C692 1.416 1_545 S
C689 C672 1.574 . S
C689 H683 0.949 . S
C689 C693 1.368 . S
C690 C671 1.429 1_455 S
C690 C684 1.429 1_455 S
C690 C691 1.523 . S
C691 C672 1.368 . S
C691 C685 1.368 . S
C691 C690 1.523 . S
C692 C676 1.429 . S
C692 C688 1.416 1_565 S
C692 C693 1.523 . S
C693 C677 1.368 . S
C693 C689 1.368 . S
C693 C692 1.523 . S
H694 C669 0.950 . S
H695 C671 0.950 . S
H696 C672 0.949 . S
H697 C674 0.950 . S
H698 C676 0.950 . S
C699 C700 1.349 . S
C699 C701 1.327 . S
C699 H724 0.950 . S
C700 C699 1.349 . S
C700 C716 1.349 . S
C701 C699 1.327 . S
C701 C720 1.429 . S
C701 H725 0.950 . S
C702 C719 1.574 . S
C702 C721 1.368 . S
C702 H726 0.949 . S
H703 C707 0.949 . S
C704 C705 1.349 1_455 S
C704 C706 1.327 . S
C704 H727 0.950 . S
C705 C704 1.349 1_655 S
C705 C717 1.349 . S
C706 C704 1.327 . S
C706 C722 1.429 . S
C706 H728 0.950 . S
C707 H703 0.949 . S
C707 C715 1.574 . S
C707 C723 1.368 . S
H708 C716 0.950 . S
H709 C714 0.950 . S
H710 C715 0.949 . S
H711 C717 0.950 . S
H712 C718 0.950 . S
H713 C719 0.949 . S
C714 H709 0.950 . S
C714 C716 1.327 . S
C714 C720 1.429 . S
C715 C707 1.574 . S
C715 H710 0.949 . S
C715 C721 1.368 . S
C716 C700 1.349 . S
C716 H708 0.950 . S
C716 C714 1.327 . S
C717 C705 1.349 . S
C717 H711 0.950 . S
C717 C718 1.327 1_655 S
C718 H712 0.950 . S
C718 C717 1.327 1_455 S
C718 C722 1.429 . S
C719 C702 1.574 . S
C719 H713 0.949 . S
C719 C723 1.368 . S
C720 C701 1.429 . S
C720 C714 1.429 . S
C720 C721 1.523 . S
C721 C702 1.368 . S
C721 C715 1.368 . S
C721 C720 1.523 . S
C722 C706 1.429 . S
C722 C718 1.429 . S
C722 C723 1.523 . S
C723 C707 1.368 . S
C723 C719 1.368 . S
C723 C722 1.523 . S
H724 C699 0.950 . S
H725 C701 0.950 . S
H726 C702 0.949 . S
H727 C704 0.950 . S
H728 C706 0.950 . S
C729 C730 1.349 . S
C729 C731 1.327 . S
C729 H754 0.950 . S
C730 C729 1.349 . S
C730 C746 1.349 . S
C731 C729 1.327 . S
C731 C750 1.429 . S
C731 H755 0.950 . S
C732 C749 1.574 . S
C732 C751 1.368 . S
C732 H756 0.949 . S
H733 C737 0.949 . S
C734 C735 1.349 . S
C734 C736 1.327 . S
C734 H757 0.950 . S
C735 C734 1.349 . S
C735 C747 1.349 . S
C736 C734 1.327 . S
C736 C752 1.429 . S
C736 H758 0.950 . S
C737 H733 0.949 . S
C737 C745 1.574 . S
C737 C753 1.368 . S
H738 C746 0.950 . S
H739 C744 0.950 . S
H740 C745 0.949 . S
H741 C747 0.950 . S
H742 C748 0.950 . S
H743 C749 0.949 . S
C744 H739 0.950 . S
C744 C746 1.327 . S
C744 C750 1.429 . S
C745 C737 1.574 . S
C745 H740 0.949 . S
C745 C751 1.368 . S
C746 C730 1.349 . S
C746 H738 0.950 . S
C746 C744 1.327 . S
C747 C735 1.349 . S
C747 H741 0.950 . S
C747 C748 1.327 . S
C748 H742 0.950 . S
C748 C747 1.327 . S
C748 C752 1.429 . S
C749 C732 1.574 . S
C749 H743 0.949 . S
C749 C753 1.368 . S
C750 C731 1.429 . S
C750 C744 1.429 . S
C750 C751 1.523 . S
C751 C732 1.368 . S
C751 C745 1.368 . S
C751 C750 1.523 . S
C752 C736 1.429 . S
C752 C748 1.429 . S
C752 C753 1.523 . S
C753 C737 1.368 . S
C753 C749 1.368 . S
C753 C752 1.523 . S
H754 C729 0.950 . S
H755 C731 0.950 . S
H756 C732 0.949 . S
H757 C734 0.950 . S
H758 C736 0.950 . S
C759 C760 1.349 . S
C759 C761 1.327 . S
C759 H784 0.950 . S
C760 C759 1.349 . S
C760 C776 1.349 . S
C761 C759 1.327 . S
C761 C780 1.429 . S
C761 H785 0.950 . S
C762 C779 1.574 . S
C762 C781 1.368 . S
C762 H786 0.949 . S
H763 C767 0.949 . S
C764 C765 1.349 . S
C764 C766 1.327 . S
C764 H787 0.950 . S
C765 C764 1.349 . S
C765 C777 1.349 . S
C766 C764 1.327 . S
C766 C782 1.429 . S
C766 H788 0.950 . S
C767 H763 0.949 . S
C767 C775 1.574 . S
C767 C783 1.368 . S
H768 C776 0.950 . S
H769 C774 0.950 . S
H770 C775 0.949 . S
H771 C777 0.950 . S
H772 C778 0.950 . S
H773 C779 0.949 . S
C774 H769 0.950 . S
C774 C776 1.327 . S
C774 C780 1.429 . S
C775 C767 1.574 . S
C775 H770 0.949 . S
C775 C781 1.368 . S
C776 C760 1.349 . S
C776 H768 0.950 . S
C776 C774 1.327 . S
C777 C765 1.349 . S
C777 H771 0.950 . S
C777 C778 1.327 . S
C778 H772 0.950 . S
C778 C777 1.327 . S
C778 C782 1.429 . S
C779 C762 1.574 . S
C779 H773 0.949 . S
C779 C783 1.368 . S
C780 C761 1.429 . S
C780 C774 1.429 . S
C780 C781 1.523 . S
C781 C762 1.368 . S
C781 C775 1.368 . S
C781 C780 1.523 . S
C782 C766 1.429 . S
C782 C778 1.429 . S
C782 C783 1.523 . S
C783 C767 1.368 . S
C783 C779 1.368 . S
C783 C782 1.523 . S
H784 C759 0.950 . S
H785 C761 0.950 . S
H786 C762 0.949 . S
H787 C764 0.950 . S
H788 C766 0.950 . S
C789 C790 1.349 . S
C789 C791 1.327 . S
C789 H814 0.950 . S
C790 C789 1.349 . S
C790 C806 1.349 1_565 S
C791 C789 1.327 . S
C791 C810 1.429 . S
C791 H815 0.950 . S
C792 C809 1.574 . S
C792 C811 1.368 . S
C792 H816 0.949 . S
H793 C797 0.949 . S
C794 C795 1.349 . S
C794 C796 1.327 . S
C794 H817 0.950 . S
C795 C794 1.349 . S
C795 C807 1.349 . S
C796 C794 1.327 . S
C796 C812 1.429 . S
C796 H818 0.950 . S
C797 H793 0.949 . S
C797 C805 1.574 . S
C797 C813 1.368 . S
H798 C806 0.950 . S
H799 C804 0.950 1_545 S
H800 C805 0.949 . S
H801 C807 0.950 . S
H802 C808 0.950 . S
H803 C809 0.949 . S
C804 H799 0.950 1_565 S
C804 C806 1.327 1_565 S
C804 C810 1.429 . S
C805 C797 1.574 . S
C805 H800 0.949 . S
C805 C811 1.368 . S
C806 C790 1.349 1_545 S
C806 H798 0.950 . S
C806 C804 1.327 1_545 S
C807 C795 1.349 . S
C807 H801 0.950 . S
C807 C808 1.327 . S
C808 H802 0.950 . S
C808 C807 1.327 . S
C808 C812 1.429 . S
C809 C792 1.574 . S
C809 H803 0.949 . S
C809 C813 1.368 . S
C810 C791 1.429 . S
C810 C804 1.429 . S
C810 C811 1.523 . S
C811 C792 1.368 . S
C811 C805 1.368 . S
C811 C810 1.523 . S
C812 C796 1.429 . S
C812 C808 1.429 . S
C812 C813 1.523 . S
C813 C797 1.368 . S
C813 C809 1.368 . S
C813 C812 1.523 . S
H814 C789 0.950 . S
H815 C791 0.950 . S
H816 C792 0.949 . S
H817 C794 0.950 . S
H818 C796 0.950 . S
C819 C820 1.349 . S
C819 C821 1.327 . S
C819 H844 0.950 . S
C820 C819 1.349 . S
C820 C836 1.349 . S
C821 C819 1.327 . S
C821 C840 1.429 . S
C821 H845 0.950 . S
C822 C839 1.574 . S
C822 C841 1.368 . S
C822 H846 0.949 . S
H823 C827 0.949 . S
C824 C825 1.349 . S
C824 C826 1.327 . S
C824 H847 0.950 . S
C825 C824 1.349 . S
C825 C837 1.349 . S
C826 C824 1.327 . S
C826 C842 1.429 . S
C826 H848 0.950 . S
C827 H823 0.949 . S
C827 C835 1.574 . S
C827 C843 1.368 . S
H828 C836 0.950 . S
H829 C834 0.950 . S
H830 C835 0.949 . S
H831 C837 0.950 . S
H832 C838 0.950 . S
H833 C839 0.949 . S
C834 H829 0.950 . S
C834 C836 1.327 . S
C834 C840 1.429 . S
C835 C827 1.574 . S
C835 H830 0.949 . S
C835 C841 1.368 . S
C836 C820 1.349 . S
C836 H828 0.950 . S
C836 C834 1.327 . S
C837 C825 1.349 . S
C837 H831 0.950 . S
C837 C838 1.327 . S
C838 H832 0.950 . S
C838 C837 1.327 . S
C838 C842 1.429 . S
C839 C822 1.574 . S
C839 H833 0.949 . S
C839 C843 1.368 . S
C840 C821 1.429 . S
C840 C834 1.429 . S
C840 C841 1.523 . S
C841 C822 1.368 . S
C841 C835 1.368 . S
C841 C840 1.523 . S
C842 C826 1.429 . S
C842 C838 1.429 . S
C842 C843 1.523 . S
C843 C827 1.368 . S
C843 C839 1.368 . S
C843 C842 1.523 . S
H844 C819 0.950 . S
H845 C821 0.950 . S
H846 C822 0.949 . S
H847 C824 0.950 . S
H848 C826 0.950 . S
C849 C850 1.349 . S
C849 C851 1.327 . S
C849 H874 0.950 1_655 S
C850 C849 1.349 . S
C850 C866 1.349 . S
C851 C849 1.327 . S
C851 C870 1.429 . S
C851 H875 0.931 1_655 S
C852 C869 1.574 . S
C852 C871 1.368 . S
C852 H876 0.949 . S
H853 C857 0.949 . S
C854 C855 1.349 . S
C854 C856 1.327 . S
C854 H877 0.950 . S
C855 C854 1.349 . S
C855 C867 1.349 . S
C856 C854 1.327 . S
C856 C872 1.429 . S
C856 H878 0.950 . S
C857 H853 0.949 . S
C857 C865 1.574 . S
C857 C873 1.368 . S
H858 C866 0.950 . S
H859 C864 0.950 . S
H860 C865 0.949 . S
H861 C867 0.950 . S
H862 C868 0.950 . S
H863 C869 0.949 . S
C864 H859 0.950 . S
C864 C866 1.327 . S
C864 C870 1.429 . S
C865 C857 1.574 . S
C865 H860 0.949 . S
C865 C871 1.368 . S
C866 C850 1.349 . S
C866 H858 0.950 . S
C866 C864 1.327 . S
C867 C855 1.349 . S
C867 H861 0.950 . S
C867 C868 1.327 . S
C868 H862 0.950 . S
C868 C867 1.327 . S
C868 C872 1.429 . S
C869 C852 1.574 . S
C869 H863 0.949 . S
C869 C873 1.368 . S
C870 C851 1.429 . S
C870 C864 1.429 . S
C870 C871 1.523 . S
C871 C852 1.368 . S
C871 C865 1.368 . S
C871 C870 1.523 . S
C872 C856 1.429 . S
C872 C868 1.429 . S
C872 C873 1.523 . S
C873 C857 1.368 . S
C873 C869 1.368 . S
C873 C872 1.523 . S
H874 C849 0.950 1_455 S
H875 C851 0.931 1_455 S
H876 C852 0.949 . S
H877 C854 0.950 . S
H878 C856 0.950 . S
C879 C880 1.349 . S
C879 C881 1.327 . S
C879 H904 0.950 . S
C880 C879 1.349 . S
C880 C896 1.349 . S
C881 C879 1.327 . S
C881 C900 1.429 . S
C881 H905 0.950 . S
C882 C899 1.574 . S
C882 C901 1.368 . S
C882 H906 0.949 . S
H883 C887 0.949 . S
C884 C885 1.349 . S
C884 C886 1.327 . S
C884 H907 0.950 . S
C885 C884 1.349 . S
C885 C897 1.349 . S
C886 C884 1.327 . S
C886 C902 1.429 . S
C886 H908 0.950 . S
C887 H883 0.949 . S
C887 C895 1.574 . S
C887 C903 1.368 . S
H888 C896 0.950 . S
H889 C894 0.950 . S
H890 C895 0.949 . S
H891 C897 0.950 . S
H892 C898 0.950 . S
H893 C899 0.949 . S
C894 H889 0.950 . S
C894 C896 1.327 . S
C894 C900 1.429 . S
C895 C887 1.574 . S
C895 H890 0.949 . S
C895 C901 1.368 . S
C896 C880 1.349 . S
C896 H888 0.950 . S
C896 C894 1.327 . S
C897 C885 1.349 . S
C897 H891 0.950 . S
C897 C898 1.327 . S
C898 H892 0.950 . S
C898 C897 1.327 . S
C898 C902 1.429 . S
C899 C882 1.574 . S
C899 H893 0.949 . S
C899 C903 1.368 . S
C900 C881 1.429 . S
C900 C894 1.429 . S
C900 C901 1.523 . S
C901 C882 1.368 . S
C901 C895 1.368 . S
C901 C900 1.523 . S
C902 C886 1.429 . S
C902 C898 1.429 . S
C902 C903 1.523 . S
C903 C887 1.368 . S
C903 C899 1.368 . S
C903 C902 1.523 . S
H904 C879 0.950 . S
H905 C881 0.950 . S
H906 C882 0.949 . S
H907 C884 0.950 . S
H908 C886 0.950 . S
C909 C910 1.349 . S
C909 C911 1.327 . S
C909 H934 0.950 . S
C910 C909 1.349 . S
C910 C926 1.349 . S
C911 C909 1.327 . S
C911 C930 1.429 . S
C911 H935 0.950 . S
C912 C929 1.574 . S
C912 C931 1.368 . S
C912 H936 0.949 . S
H913 C917 0.949 . S
C914 C915 1.349 . S
C914 C916 1.327 . S
C914 H937 0.950 . S
C915 C914 1.349 . S
C915 C927 1.349 . S
C916 C914 1.327 . S
C916 C932 1.429 . S
C916 H938 0.950 . S
C917 H913 0.949 . S
C917 C925 1.574 . S
C917 C933 1.368 . S
H918 C926 0.950 . S
H919 C924 0.950 . S
H920 C925 0.949 . S
H921 C927 0.950 . S
H922 C928 0.950 . S
H923 C929 0.949 . S
C924 H919 0.950 . S
C924 C926 1.327 . S
C924 C930 1.429 . S
C925 C917 1.574 . S
C925 H920 0.949 . S
C925 C931 1.368 . S
C926 C910 1.349 . S
C926 H918 0.950 . S
C926 C924 1.327 . S
C927 C915 1.349 . S
C927 H921 0.950 . S
C927 C928 1.327 . S
C928 H922 0.950 . S
C928 C927 1.327 . S
C928 C932 1.429 . S
C929 C912 1.574 . S
C929 H923 0.949 . S
C929 C933 1.368 . S
C930 C911 1.429 . S
C930 C924 1.429 . S
C930 C931 1.523 . S
C931 C912 1.368 . S
C931 C925 1.368 . S
C931 C930 1.523 . S
C932 C916 1.429 . S
C932 C928 1.429 . S
C932 C933 1.523 . S
C933 C917 1.368 . S
C933 C929 1.368 . S
C933 C932 1.523 . S
H934 C909 0.950 . S
H935 C911 0.950 . S
H936 C912 0.949 . S
H937 C914 0.950 . S
H938 C916 0.950 . S
C939 C940 1.349 . S
C939 C941 1.327 . S
C939 H964 0.950 . S
C940 C939 1.349 . S
C940 C956 1.349 . S
C941 C939 1.327 . S
C941 C960 1.429 . S
C941 H965 0.950 . S
C942 C959 1.574 1_565 S
C942 C961 1.368 . S
C942 H966 0.949 . S
H943 C947 0.949 . S
C944 C945 1.349 . S
C944 C946 1.327 . S
C944 H967 0.950 . S
C945 C944 1.349 . S
C945 C957 1.349 . S
C946 C944 1.327 . S
C946 C962 1.429 . S
C946 H968 0.950 . S
C947 H943 0.949 . S
C947 C955 1.574 . S
C947 C963 1.368 . S
H948 C956 0.950 . S
H949 C954 0.950 . S
H950 C955 0.949 . S
H951 C957 0.950 . S
H952 C958 0.950 . S
H953 C959 0.959 . S
C954 H949 0.950 . S
C954 C956 1.327 . S
C954 C960 1.429 . S
C955 C947 1.574 . S
C955 H950 0.949 . S
C955 C961 1.368 1_545 S
C956 C940 1.349 . S
C956 H948 0.950 . S
C956 C954 1.327 . S
C957 C945 1.349 . S
C957 H951 0.950 . S
C957 C958 1.327 . S
C958 H952 0.950 . S
C958 C957 1.327 . S
C958 C962 1.429 . S
C959 C942 1.574 1_545 S
C959 H953 0.959 . S
C959 C963 1.368 . S
C960 C941 1.429 . S
C960 C954 1.429 . S
C960 C961 1.523 . S
C961 C942 1.368 . S
C961 C955 1.368 1_565 S
C961 C960 1.523 . S
C962 C946 1.429 . S
C962 C958 1.429 . S
C962 C963 1.523 . S
C963 C947 1.368 . S
C963 C959 1.368 . S
C963 C962 1.523 . S
H964 C939 0.950 . S
H965 C941 0.950 . S
H966 C942 0.949 . S
H967 C944 0.950 . S
H968 C946 0.950 . S
C969 C970 1.349 . S
C969 C971 1.327 . S
C969 H994 0.950 . S
C970 C969 1.349 . S
C970 C986 1.349 . S
C971 C969 1.327 . S
C971 C990 1.429 . S
C971 H995 0.950 1_655 S
C972 C989 1.576 . S
C972 C991 1.368 . S
C972 H996 0.949 . S
H973 C977 0.949 . S
C974 C975 1.349 . S
C974 C976 1.327 . S
C974 H997 0.950 . S
C975 C974 1.349 . S
C975 C987 1.349 . S
C976 C974 1.327 . S
C976 C992 1.429 . S
C976 H998 0.950 . S
C977 H973 0.949 . S
C977 C985 1.574 . S
C977 C993 1.368 . S
H978 C986 0.950 . S
H979 C984 0.950 . S
H980 C985 0.949 . S
H981 C987 0.950 . S
H982 C988 0.950 . S
H983 C989 0.949 . S
C984 H979 0.950 . S
C984 C986 1.327 . S
C984 C990 1.429 . S
C985 C977 1.574 . S
C985 H980 0.949 . S
C985 C991 1.368 1_455 S
C986 C970 1.349 . S
C986 H978 0.950 . S
C986 C984 1.327 . S
C987 C975 1.349 . S
C987 H981 0.950 . S
C987 C988 1.327 . S
C988 H982 0.950 . S
C988 C987 1.327 . S
C988 C992 1.429 . S
C989 C972 1.576 . S
C989 H983 0.949 . S
C989 C993 1.367 1_655 S
C990 C971 1.429 . S
C990 C984 1.429 . S
C990 C991 1.523 . S
C991 C972 1.368 . S
C991 C985 1.368 1_655 S
C991 C990 1.523 . S
C992 C976 1.429 . S
C992 C988 1.429 . S
C992 C993 1.523 . S
C993 C977 1.368 . S
C993 C989 1.367 1_455 S
C993 C992 1.523 . S
H994 C969 0.950 . S
H995 C971 0.950 1_455 S
H996 C972 0.949 . S
H997 C974 0.950 . S
H998 C976 0.950 . S
C190 C34 0.950 1_554 S
C195 C17 0.935 . S
C220 C55 0.950 1_554 S
C225 C35 0.935 . S
C250 C56 0.935 . S
C255 C16 0.950 1_554 S
C280 C59 0.929 . S
C285 C37 0.951 . S
C310 C58 0.951 . S
C315 C14 0.929 . S
C340 C13 0.952 . S
C345 C38 0.929 . S
C370 C77 0.929 . S
C375 C97 0.951 . S
C400 C118 0.951 . S
C405 C98 0.929 . S
C430 C119 0.929 . S
C435 C76 0.951 . S
C460 C100 0.951 . S
C465 C122 0.929 . S
C490 C121 0.951 . S
C495 C80 0.929 . S
C520 C101 0.929 . S
C525 C79 0.952 . S
C550 C160 0.951 . S
C555 C140 0.929 . S
C580 C161 0.929 . S
C585 C184 0.951 . S
C610 C185 0.929 . S
C615 C139 0.951 . S
C640 C182 0.929 . S
C645 C163 0.951 . S
C670 C181 0.951 . S
C675 C143 0.929 . S
C700 C142 0.952 . S
C705 C164 0.929 . S
C730 C120 1.833 . S
C735 C15 1.833 . S
C760 C78 1.833 . S
C765 C39 1.833 . S
C790 C60 1.833 1_565 S
C795 C99 1.833 . S
C820 C57 1.833 . S
C825 C144 1.833 . S
C850 C18 1.833 1_655 S
C855 C165 1.833 . S
C880 C183 1.833 . S
C885 C36 1.833 . S
C910 C81 1.833 . S
C915 C186 1.833 . S
C940 C102 1.833 . S
C945 C141 1.833 . S
C970 C162 1.833 . S
C975 C123 1.833 . S
