# Generated by pormake.
# Topology sml, (6)-cn, num edge types: 1
# Building blocks:
#     Node 0, Type 0, BuildingBlock: VOLQOD_clean_sbu_1, # of connection points: 6
#     Node 1, Type 0, BuildingBlock: VOLQOD_clean_sbu_1, # of connection points: 6
#     Node 2, Type 0, BuildingBlock: VOLQOD_clean_sbu_1, # of connection points: 6
#     Node 3, Type 0, BuildingBlock: VOLQOD_clean_sbu_1, # of connection points: 6
#     Node 4, Type 0, BuildingBlock: VOLQOD_clean_sbu_1, # of connection points: 6
#     Node 5, Type 0, BuildingBlock: VOLQOD_clean_sbu_1, # of connection points: 6
#     Edge 6, Type (0, 0), BuildingBlock: ZUJKAS_clean_linker_0, # of connection points: 2
#     Edge 7, Type (0, 0), BuildingBlock: ZUJKAS_clean_linker_0, # of connection points: 2
#     Edge 8, Type (0, 0), BuildingBlock: ZUJKAS_clean_linker_0, # of connection points: 2
#     Edge 9, Type (0, 0), BuildingBlock: ZUJKAS_clean_linker_0, # of connection points: 2
#     Edge 10, Type (0, 0), BuildingBlock: ZUJKAS_clean_linker_0, # of connection points: 2
#     Edge 11, Type (0, 0), BuildingBlock: ZUJKAS_clean_linker_0, # of connection points: 2
#     Edge 12, Type (0, 0), BuildingBlock: ZUJKAS_clean_linker_0, # of connection points: 2
#     Edge 13, Type (0, 0), BuildingBlock: ZUJKAS_clean_linker_0, # of connection points: 2
#     Edge 14, Type (0, 0), BuildingBlock: ZUJKAS_clean_linker_0, # of connection points: 2
#     Edge 15, Type (0, 0), BuildingBlock: ZUJKAS_clean_linker_0, # of connection points: 2
#     Edge 16, Type (0, 0), BuildingBlock: ZUJKAS_clean_linker_0, # of connection points: 2
#     Edge 17, Type (0, 0), BuildingBlock: ZUJKAS_clean_linker_0, # of connection points: 2
#     Edge 18, Type (0, 0), BuildingBlock: ZUJKAS_clean_linker_0, # of connection points: 2
#     Edge 19, Type (0, 0), BuildingBlock: ZUJKAS_clean_linker_0, # of connection points: 2
#     Edge 20, Type (0, 0), BuildingBlock: ZUJKAS_clean_linker_0, # of connection points: 2
#     Edge 21, Type (0, 0), BuildingBlock: ZUJKAS_clean_linker_0, # of connection points: 2
#     Edge 22, Type (0, 0), BuildingBlock: ZUJKAS_clean_linker_0, # of connection points: 2
#     Edge 23, Type (0, 0), BuildingBlock: ZUJKAS_clean_linker_0, # of connection points: 2
# Relax obj value: 0.294
# Max RMSD: 0.187
# Mean RMSD: 0.187
data_MOF--net-sml--node1-VOLQOD_clean_sbu_1--edge1-ZUJKAS_clean_linker_0
_symmetry_space_group_name_H-M    P1
_symmetry_Int_Tables_number       1
_symmetry_cell_setting            triclinic
loop_
_symmetry_equiv_pos_as_xyz
'x, y, z'
_cell_length_a     55.235358
_cell_length_b     55.293519
_cell_length_c     19.078135
_cell_angle_alpha  90.016864
_cell_angle_beta   89.977374
_cell_angle_gamma 120.02092
loop_
_atom_site_label
_atom_site_type_symbol
_atom_site_fract_x
_atom_site_fract_y
_atom_site_fract_z
_atom_type_partial_charge
O0 O 0.11767 0.39431 0.01604 0.0
Zn1 Zn 0.154 0.42759 0.98603 0.0
O2 O 0.18497 0.42026 -0.00463 0.0
Zn3 Zn 0.21075 0.44364 0.06802 0.0
Zn4 Zn 0.16934 0.38093 0.01707 0.0
Zn5 Zn 0.20564 0.4283 0.90918 0.0
O6 O 0.2508 0.46655 0.03333 0.0
O7 O 0.24413 0.46096 0.91845 0.0
O8 O 0.16112 0.46156 0.04216 0.0
O9 O 0.1999 0.47155 0.10024 0.0
O10 O 0.20737 0.4202 0.15194 0.0
O11 O 0.17701 0.37709 0.11701 0.0
O12 O 0.18527 0.36257 0.95644 0.0
O13 O 0.14785 0.43276 0.88458 0.0
O14 O 0.21025 0.39595 0.87949 0.0
O15 O 0.18533 0.43541 0.83357 0.0
C16 C 0.10988 0.36839 0.01714 0.0
C17 C 0.26001 0.47275 0.97075 0.0
C18 C 0.19232 0.39412 0.16421 0.0
C19 C 0.18027 0.47651 0.08598 0.0
C20 C 0.20123 0.37137 0.90309 0.0
C21 C 0.16264 0.43602 0.83047 0.0
O22 O 0.12742 0.35996 0.01057 0.0
O23 O 0.7209 0.11784 0.34821 0.0
Zn24 Zn 0.72291 0.1526 0.31031 0.0
O25 O 0.76081 0.18356 0.31392 0.0
Zn26 Zn 0.76508 0.20906 0.38847 0.0
Zn27 Zn 0.78423 0.16715 0.32626 0.0
Zn28 Zn 0.77077 0.20403 0.22826 0.0
O29 O 0.78207 0.24913 0.3539 0.0
O30 O 0.77385 0.24127 0.2398 0.0
O31 O 0.69681 0.16113 0.36468 0.0
O32 O 0.72678 0.19884 0.42468 0.0
O33 O 0.78628 0.20423 0.46818 0.0
O34 O 0.79642 0.17284 0.42534 0.0
O35 O 0.81793 0.18455 0.26339 0.0
O36 O 0.71127 0.1432 0.20992 0.0
O37 O 0.80865 0.21168 0.19629 0.0
O38 O 0.74331 0.18129 0.15459 0.0
C39 C 0.73784 0.10891 0.33756 0.0
C40 C 0.78108 0.25764 0.29232 0.0
C41 C 0.79636 0.18804 0.4752 0.0
C42 C 0.70181 0.18006 0.40991 0.0
C43 C 0.8247 0.20241 0.21434 0.0
C44 C 0.72143 0.15725 0.15412 0.0
O45 O 0.7627 0.12524 0.31632 0.0
O46 O 0.6036 0.72132 0.67704 0.0
Zn47 Zn 0.56994 0.72312 0.64435 0.0
O48 O 0.57661 0.76104 0.65194 0.0
Zn49 Zn 0.55405 0.76394 0.72536 0.0
Zn50 Zn 0.61605 0.78522 0.67077 0.0
Zn51 Zn 0.56699 0.77236 0.56654 0.0
O52 O 0.53182 0.78196 0.69233 0.0
O53 O 0.53299 0.77599 0.57755 0.0
O54 O 0.53592 0.69629 0.70065 0.0
O55 O 0.52588 0.72531 0.75738 0.0
O56 O 0.57803 0.78309 0.80895 0.0
O57 O 0.62087 0.79558 0.77203 0.0
O58 O 0.63269 0.81983 0.61124 0.0
O59 O 0.56547 0.71158 0.54289 0.0
O60 O 0.59807 0.81016 0.53699 0.0
O61 O 0.56121 0.74529 0.49098 0.0
C62 C 0.6295 0.73946 0.67222 0.0
C63 C 0.52318 0.78224 0.6305 0.0
C64 C 0.6041 0.79348 0.82049 0.0
C65 C 0.52093 0.70067 0.74398 0.0
C66 C 0.62272 0.82651 0.55937 0.0
C67 C 0.56179 0.72259 0.48835 0.0
O68 O 0.63755 0.76498 0.65918 0.0
O69 O 0.87874 0.60238 0.0148 0.0
Zn70 Zn 0.84272 0.56966 0.98143 0.0
O71 O 0.81198 0.57722 -0.00925 0.0
Zn72 Zn 0.78638 0.55438 0.0642 0.0
Zn73 Zn 0.82803 0.61677 0.0109 0.0
Zn74 Zn 0.79107 0.56856 0.90501 0.0
O75 O 0.74623 0.53134 0.03045 0.0
O76 O 0.75257 0.53593 0.91535 0.0
O77 O 0.83503 0.53531 0.03642 0.0
O78 O 0.79719 0.52658 0.0973 0.0
O79 O 0.79009 0.57834 0.14715 0.0
O80 O 0.82042 0.62124 0.11074 0.0
O81 O 0.81234 0.63499 0.94873 0.0
O82 O 0.84944 0.56537 0.87962 0.0
O83 O 0.78653 0.60078 0.87443 0.0
O84 O 0.81128 0.56135 0.8293 0.0
C85 C 0.88706 0.62842 0.01497 0.0
C86 C 0.73683 0.52461 0.96818 0.0
C87 C 0.8052 0.60448 0.15852 0.0
C88 C 0.81629 0.52099 0.08178 0.0
C89 C 0.79599 0.62567 0.89617 0.0
C90 C 0.83439 0.56158 0.82573 0.0
O91 O 0.87005 0.63733 0.00518 0.0
O92 O 0.27424 0.88006 0.36064 0.0
Zn93 Zn 0.27289 0.84513 0.32635 0.0
O94 O 0.23519 0.81332 0.3324 0.0
Zn95 Zn 0.23329 0.7874 0.40347 0.0
Zn96 Zn 0.21078 0.82811 0.35394 0.0
Zn97 Zn 0.22365 0.7934 0.24544 0.0
O98 O 0.21566 0.74749 0.36801 0.0
O99 O 0.21883 0.75523 0.25333 0.0
O100 O 0.30016 0.83867 0.38194 0.0
O101 O 0.2723 0.79792 0.43342 0.0
O102 O 0.21431 0.79139 0.48883 0.0
O103 O 0.20114 0.82162 0.45541 0.0
O104 O 0.17572 0.81007 0.2959 0.0
O105 O 0.28482 0.85287 0.22532 0.0
O106 O 0.18615 0.78758 0.2159 0.0
O107 O 0.2514 0.81516 0.1715 0.0
C108 C 0.25598 0.88761 0.35599 0.0
C109 C 0.2138 0.73887 0.30513 0.0
C110 C 0.20369 0.80673 0.50243 0.0
C111 C 0.29657 0.81866 0.42186 0.0
C112 C 0.16939 0.7948 0.24137 0.0
C113 C 0.27416 0.83846 0.17017 0.0
O114 O 0.23047 0.87004 0.3428 0.0
O115 O 0.39222 0.27295 0.68786 0.0
Zn116 Zn 0.42591 0.27141 0.65453 0.0
O117 O 0.41955 0.23345 0.6614 0.0
Zn118 Zn 0.44352 0.23141 0.73267 0.0
Zn119 Zn 0.38045 0.2088 0.68437 0.0
Zn120 Zn 0.42771 0.22184 0.57379 0.0
O121 O 0.46659 0.21487 0.69643 0.0
O122 O 0.46046 0.21588 0.58175 0.0
O123 O 0.45983 0.29859 0.71049 0.0
O124 O 0.47112 0.27015 0.76519 0.0
O125 O 0.42085 0.21138 0.81737 0.0
O126 O 0.3773 0.19786 0.78486 0.0
O127 O 0.36282 0.17444 0.62389 0.0
O128 O 0.43051 0.28348 0.55358 0.0
O129 O 0.3951 0.1854 0.54147 0.0
O130 O 0.43507 0.25016 0.50052 0.0
C131 C 0.36637 0.25445 0.68783 0.0
C132 C 0.4726 0.21198 0.6336 0.0
C133 C 0.39486 0.2002 0.83126 0.0
C134 C 0.47537 0.2946 0.75277 0.0
C135 C 0.37115 0.16875 0.56728 0.0
C136 C 0.43471 0.27297 0.49882 0.0
O137 O 0.3584 0.22874 0.67813 0.0
H138 H 0.37589 0.30639 0.72287 0.0
H139 H 0.34134 0.31989 0.75315 0.0
H140 H 0.27478 0.23568 0.71566 0.0
H141 H 0.30921 0.22177 0.68521 0.0
H142 H 0.26851 0.28277 0.65563 0.0
H143 H 0.29355 0.29156 0.93982 0.0
H144 H 0.32327 0.30901 0.88254 0.0
H145 H 0.30211 0.27162 0.87995 0.0
C146 C 0.35392 0.2907 0.72061 0.0
C147 C 0.34533 0.26293 0.70207 0.0
C148 C 0.33424 0.29847 0.73809 0.0
C149 C 0.30565 0.27868 0.73725 0.0
C150 C 0.29683 0.25117 0.71678 0.0
H151 H 0.18929 0.319 0.94355 0.0
H152 H 0.2098 0.29194 0.89783 0.0
C153 C 0.31654 0.24329 0.69957 0.0
C154 C 0.28517 0.28683 0.75971 0.0
H155 H 0.26614 0.31115 0.9012 0.0
C156 C 0.26766 0.28867 0.70941 0.0
C157 C 0.28393 0.29406 0.83008 0.0
C158 C 0.30152 0.29128 0.88652 0.0
C159 C 0.24976 0.2989 0.72727 0.0
C160 C 0.24973 0.30767 0.79691 0.0
C161 C 0.2663 0.30453 0.84774 0.0
C162 C 0.23428 0.32199 0.81766 0.0
C163 C 0.2313 0.3005 0.6714 0.0
C164 C 0.24104 0.34768 0.78714 0.0
C165 C 0.22942 0.36322 0.81312 0.0
C166 C 0.21098 0.35344 0.87057 0.0
C167 C 0.20346 0.32718 0.89937 0.0
C168 C 0.21512 0.31166 0.8733 0.0
H169 H 0.22725 0.28537 0.62842 0.0
H170 H 0.21098 0.29634 0.69357 0.0
H171 H 0.24192 0.32178 0.64835 0.0
H172 H 0.25625 0.35632 0.74517 0.0
H173 H 0.23567 0.38334 0.78966 0.0
H174 H 0.06561 0.37756 0.01608 0.0
H175 H 0.01645 0.34366 0.03894 0.0
H176 H 0.03715 0.2787 0.0655 0.0
H177 H 0.08642 0.31234 0.04246 0.0
H178 H 0.98031 0.28561 0.96526 0.0
H179 H 0.99692 0.28515 0.2535 0.0
H180 H 0.02026 0.31426 0.19886 0.0
H181 H 0.0209 0.28221 0.19485 0.0
C182 C 0.05975 0.35605 0.02644 0.0
C183 C 0.07997 0.34769 0.02783 0.0
C184 C 0.03166 0.33673 0.03919 0.0
C185 C 0.02338 0.30884 0.05405 0.0
C186 C 0.0433 0.30022 0.05424 0.0
H187 H 0.86268 0.18464 0.22884 0.0
H188 H 0.9102 0.20674 0.18171 0.0
C189 C 0.07139 0.31948 0.04104 0.0
C190 C 0.99401 0.28909 0.07223 0.0
H191 H 0.951 0.25826 0.21203 0.0
C192 C 0.97381 0.27937 0.01905 0.0
C193 C 0.98585 0.28095 0.14234 0.0
C194 C 0.00698 0.29117 0.20108 0.0
C195 C 0.94536 0.26189 0.03445 0.0
C196 C 0.93701 0.25467 0.10509 0.0
C197 C 0.95742 0.2638 0.15792 0.0
C198 C 0.90723 0.23932 0.12639 0.0
C199 C 0.92461 0.25131 0.97491 0.0
C200 C 0.88972 0.25017 0.11044 0.0
C201 C 0.86252 0.23749 0.13678 0.0
C202 C 0.85244 0.21397 0.18067 0.0
C203 C 0.86982 0.20277 0.19534 0.0
C204 C 0.89697 0.21535 0.16843 0.0
H205 H 0.93459 0.25038 0.92517 0.0
H206 H 0.90667 0.23021 0.98628 0.0
H207 H 0.9165 0.26585 0.96676 0.0
H208 H 0.89741 0.26908 0.07975 0.0
H209 H 0.84979 0.24679 0.12479 0.0
H210 H 0.76834 0.08228 0.32606 0.0
H211 H 0.75338 0.03379 0.35679 0.0
H212 H 0.67188 0.02018 0.41314 0.0
H213 H 0.68655 0.06846 0.38329 0.0
H214 H 0.69779 0.00362 0.51595 0.0
H215 H 0.6978 0.96095 0.25166 0.0
H216 H 0.72912 0.9924 0.27679 0.0
H217 H 0.6973 0.99309 0.2639 0.0
C218 C 0.74715 0.06891 0.34443 0.0
C219 C 0.72865 0.07928 0.3523 0.0
C220 C 0.73863 0.0412 0.36164 0.0
C221 C 0.71149 0.02344 0.38664 0.0
C222 C 0.69291 0.03361 0.39376 0.0
H223 H 0.60734 0.84873 0.45201 0.0
H224 H 0.63247 0.89659 0.40817 0.0
C225 C 0.70136 0.06122 0.37661 0.0
C226 C 0.70258 0.99459 0.40879 0.0
H227 H 0.6863 0.93017 0.34769 0.0
C228 C 0.69547 0.98757 0.47938 0.0
C229 C 0.69948 0.97381 0.36062 0.0
C230 C 0.70611 0.98023 0.28384 0.0
C231 C 0.68476 0.9601 0.50304 0.0
C232 C 0.68156 0.93924 0.45489 0.0
C233 C 0.68908 0.94633 0.38444 0.0
C234 C 0.66828 0.9096 0.47594 0.0
C235 C 0.67592 0.95343 0.57875 0.0
C236 C 0.68053 0.90091 0.52707 0.0
C237 C 0.66616 0.87357 0.55267 0.0
C238 C 0.63934 0.85447 0.52718 0.0
C239 C 0.62784 0.86293 0.47322 0.0
C240 C 0.64221 0.89025 0.44786 0.0
H241 H 0.67453 0.97062 0.60508 0.0
H242 H 0.65529 0.934 0.58291 0.0
H243 H 0.69148 0.9501 0.60744 0.0
H244 H 0.70087 0.91548 0.54851 0.0
H245 H 0.67574 0.86768 0.59372 0.0
H246 H 0.62027 0.68811 0.71248 0.0
H247 H 0.65514 0.67509 0.74314 0.0
H248 H 0.72127 0.75828 0.69367 0.0
H249 H 0.68655 0.77168 0.66269 0.0
H250 H 0.72755 0.71097 0.64056 0.0
H251 H 0.70448 0.70654 0.92518 0.0
H252 H 0.67428 0.68759 0.8702 0.0
H253 H 0.69485 0.72494 0.86309 0.0
C254 C 0.6422 0.70365 0.70757 0.0
C255 C 0.65061 0.73102 0.68566 0.0
C256 C 0.66207 0.69616 0.72531 0.0
C257 C 0.69066 0.71586 0.72142 0.0
C258 C 0.69924 0.74289 0.69724 0.0
H259 H 0.80816 0.67849 0.93323 0.0
H260 H 0.78767 0.7052 0.88496 0.0
C261 C 0.67936 0.75047 0.67971 0.0
C262 C 0.7114 0.70822 0.74479 0.0
H263 H 0.73164 0.68634 0.88868 0.0
C264 C 0.72876 0.70589 0.69488 0.0
C265 C 0.7132 0.70214 0.81586 0.0
C266 C 0.69591 0.70564 0.87194 0.0
C267 C 0.74698 0.69619 0.71386 0.0
C268 C 0.74749 0.68845 0.78427 0.0
C269 C 0.73112 0.69216 0.83464 0.0
C270 C 0.76304 0.6744 0.80635 0.0
C271 C 0.76526 0.69404 0.65833 0.0
C272 C 0.7562 0.64842 0.77755 0.0
C273 C 0.76781 0.6331 0.80496 0.0
C274 C 0.78631 0.64339 0.86219 0.0
C275 C 0.79394 0.66993 0.88926 0.0
C276 C 0.78229 0.68524 0.86173 0.0
H277 H 0.76918 0.70877 0.61445 0.0
H278 H 0.78565 0.69838 0.6804 0.0
H279 H 0.75453 0.67256 0.63648 0.0
H280 H 0.74091 0.63938 0.73587 0.0
H281 H 0.76148 0.61276 0.78276 0.0
H282 H 0.14918 0.76287 0.12311 0.0
H283 H 0.10147 0.7403 0.07808 0.0
H284 H 0.0783 0.77862 0.24184 0.0
H285 H 0.12598 0.80115 0.28795 0.0
H286 H 0.04418 0.72106 0.23385 0.0
H287 H 0.05666 0.76947 0.97205 0.0
H288 H 0.08026 0.75657 0.98754 0.0
H289 H 0.08295 0.7849 0.03974 0.0
C290 C 0.13409 0.76689 0.14904 0.0
C291 C 0.14139 0.78371 0.20944 0.0
C292 C 0.10686 0.75411 0.12283 0.0
C293 C 0.08647 0.75805 0.15619 0.0
C294 C 0.09384 0.77549 0.21515 0.0
H295 H 0.91269 0.68555 0.02065 0.0
H296 H 0.96111 0.7184 0.05385 0.0
C297 C 0.12109 0.78833 0.24138 0.0
C298 C 0.05693 0.74173 0.1338 0.0
H299 H 0.01357 0.727 -0.0069 0.0
C300 C 0.03742 0.72258 0.18147 0.0
C301 C 0.04818 0.74391 0.0656 0.0
C302 C 0.06804 0.76501 0.01343 0.0
C303 C 0.00952 0.70485 0.16202 0.0
C304 C 0.00107 0.70611 0.09286 0.0
C305 C 0.02029 0.72593 0.04585 0.0
C306 C 0.97242 0.68653 0.06842 0.0
C307 C 0.98932 0.68478 0.2155 0.0
C308 C 0.96309 0.65789 0.06413 0.0
C309 C 0.93553 0.63907 0.04519 0.0
C310 C 0.91679 0.6486 0.03007 0.0
C311 C 0.92652 0.67749 0.03226 0.0
C312 C 0.95416 0.6963 0.05109 0.0
H313 H 0.99726 0.69097 0.26984 0.0
H314 H 0.96865 0.6835 0.21132 0.0
H315 H 0.98623 0.66363 0.20575 0.0
H316 H 0.97708 0.65005 0.07639 0.0
H317 H 0.92882 0.61702 0.04363 0.0
H318 H 0.37018 0.15616 0.42869 0.0
H319 H 0.34411 0.11009 0.37385 0.0
H320 H 0.30804 0.07389 0.57454 0.0
H321 H 0.33277 0.12001 0.62846 0.0
H322 H 0.35076 0.06869 0.39431 0.0
H323 H 0.24067 0.0323 0.45811 0.0
H324 H 0.26763 0.06821 0.47013 0.0
H325 H 0.26068 0.04256 0.53735 0.0
C326 C 0.3562 0.1384 0.46067 0.0
C327 C 0.35346 0.14159 0.53278 0.0
C328 C 0.34129 0.1121 0.42932 0.0
C329 C 0.32372 0.08846 0.46971 0.0
C330 C 0.32063 0.09181 0.54159 0.0
H331 H 0.30193 0.92649 0.4259 0.0
H332 H 0.31676 0.97554 0.44455 0.0
C333 C 0.33501 0.11819 0.5726 0.0
C334 C 0.31131 0.06004 0.43895 0.0
H335 H 0.25248 0.99569 0.43982 0.0
C336 C 0.32909 0.05293 0.40308 0.0
C337 C 0.28289 0.03945 0.44862 0.0
C338 C 0.26187 0.04618 0.47993 0.0
C339 C 0.31973 0.02554 0.38057 0.0
C340 C 0.29217 0.00438 0.39703 0.0
C341 C 0.27383 0.01176 0.42871 0.0
C342 C 0.28264 0.97439 0.38582 0.0
C343 C 0.33965 0.01964 0.33981 0.0
C344 C 0.25774 0.95701 0.34951 0.0
C345 C 0.24879 0.92865 0.34027 0.0
C346 C 0.26475 0.91732 0.36674 0.0
C347 C 0.28944 0.93471 0.40383 0.0
C348 C 0.29807 0.96283 0.41406 0.0
H349 H 0.35478 0.03828 0.30943 0.0
H350 H 0.35186 0.01447 0.37691 0.0
H351 H 0.32836 0.0019 0.30296 0.0
H352 H 0.24535 0.96542 0.3279 0.0
H353 H 0.22965 0.91571 0.31156 0.0
H354 H 0.18827 0.46798 0.71698 0.0
H355 H 0.17783 0.45037 0.59694 0.0
H356 H 0.10153 0.37856 0.66723 0.0
H357 H 0.11134 0.39668 0.78721 0.0
H358 H 0.1623 0.38146 0.61748 0.0
H359 H 0.10426 0.41351 0.4367 0.0
H360 H 0.12777 0.43879 0.49942 0.0
H361 H 0.09682 0.40831 0.52966 0.0
C362 C 0.16837 0.44945 0.70595 0.0
C363 C 0.15066 0.43354 0.76077 0.0
C364 C 0.16247 0.43935 0.63759 0.0
C365 C 0.1391 0.41311 0.62403 0.0
C366 C 0.11953 0.39896 0.67709 0.0
H367 H 0.1474 0.34725 0.21624 0.0
H368 H 0.13032 0.34166 0.33638 0.0
C369 C 0.1251 0.40943 0.74539 0.0
C370 C 0.13981 0.39798 0.56164 0.0
H371 H 0.13158 0.39584 0.38484 0.0
C372 C 0.1549 0.3838 0.56665 0.0
C373 C 0.13008 0.40121 0.4962 0.0
C374 C 0.11367 0.41615 0.48961 0.0
C375 C 0.16254 0.37475 0.50649 0.0
C376 C 0.15462 0.37988 0.44054 0.0
C377 C 0.1375 0.39192 0.43598 0.0
C378 C 0.16765 0.37761 0.37569 0.0
C379 C 0.18047 0.36142 0.51321 0.0
C380 C 0.19488 0.39881 0.35964 0.0
C381 C 0.20461 0.40241 0.29089 0.0
C382 C 0.18717 0.38472 0.23771 0.0
C383 C 0.16132 0.36133 0.25598 0.0
C384 C 0.15142 0.35807 0.32454 0.0
H385 H 0.17975 0.35346 0.5671 0.0
H386 H 0.17367 0.34393 0.47535 0.0
H387 H 0.20248 0.37717 0.5009 0.0
H388 H 0.20758 0.41413 0.39885 0.0
H389 H 0.22468 0.42045 0.27842 0.0
H390 H 0.73558 0.11971 0.11721 0.0
H391 H 0.75071 0.11735 -0.00075 0.0
H392 H 0.70735 0.15853 0.92018 0.0
H393 H 0.69547 0.16427 0.04048 0.0
H394 H 0.74254 0.10491 0.87547 0.0
H395 H 0.78389 0.21857 0.88485 0.0
H396 H 0.76513 0.19612 0.95712 0.0
H397 H 0.74652 0.20098 0.88554 0.0
C398 C 0.72822 0.12715 0.07417 0.0
C399 C 0.71491 0.14264 0.08732 0.0
C400 C 0.73707 0.12597 0.00661 0.0
C401 C 0.73162 0.13934 0.95147 0.0
C402 C 0.71321 0.1496 0.96286 0.0
H403 H 0.76554 0.13701 0.52657 0.0
H404 H 0.75677 0.12436 0.64857 0.0
C405 C 0.70576 0.15226 0.03115 0.0
C406 C 0.74858 0.14642 0.88659 0.0
H407 H 0.78599 0.20005 0.774 0.0
C408 C 0.75232 0.12581 0.85361 0.0
C409 C 0.76316 0.17415 0.86052 0.0
C410 C 0.7648 0.19874 0.8995 0.0
C411 C 0.76874 0.1318 0.79306 0.0
C412 C 0.77973 0.15844 0.76133 0.0
C413 C 0.77734 0.1794 0.79678 0.0
C414 C 0.79001 0.16407 0.68787 0.0
C415 C 0.77438 0.10957 0.76504 0.0
C416 C 0.81166 0.19078 0.66765 0.0
C417 C 0.81534 0.19872 0.59711 0.0
C418 C 0.79852 0.17946 0.54607 0.0
C419 C 0.77912 0.152 0.56539 0.0
C420 C 0.77437 0.14459 0.6356 0.0
H421 H 0.77803 0.09858 0.80898 0.0
H422 H 0.75572 0.09365 0.7362 0.0
H423 H 0.79287 0.11834 0.72987 0.0
H424 H 0.82427 0.20621 0.70669 0.0
H425 H 0.8303 0.22005 0.58284 0.0
H426 H 0.59988 0.70825 0.44736 0.0
H427 H 0.61799 0.71424 0.32751 0.0
H428 H 0.54925 0.72333 0.25325 0.0
H429 H 0.53152 0.71807 0.37271 0.0
H430 H 0.57556 0.69702 0.15462 0.0
H431 H 0.64572 0.80105 0.27653 0.0
H432 H 0.64128 0.76963 0.31703 0.0
H433 H 0.61294 0.77669 0.31722 0.0
C434 C 0.58779 0.7099 0.40482 0.0
C435 C 0.56453 0.71305 0.41878 0.0
C436 C 0.59827 0.71349 0.3366 0.0
C437 C 0.58513 0.71965 0.28233 0.0
C438 C 0.55962 0.71861 0.29482 0.0
H439 H 0.57801 0.79767 0.93746 0.0
H440 H 0.58323 0.78334 0.05487 0.0
C441 C 0.54945 0.71553 0.36291 0.0
C442 C 0.60033 0.73342 0.21782 0.0
H443 H 0.6413 0.79944 0.15408 0.0
C444 C 0.59078 0.71917 0.1542 0.0
C445 C 0.61996 0.76242 0.21808 0.0
C446 C 0.6307 0.77854 0.28566 0.0
C447 C 0.59886 0.73366 0.09049 0.0
C448 C 0.61652 0.76299 0.09122 0.0
C449 C 0.62779 0.77693 0.15435 0.0
C450 C 0.61922 0.77948 0.02839 0.0
C451 C 0.58673 0.71798 0.023 0.0
C452 C 0.63906 0.78393 0.97694 0.0
C453 C 0.63636 0.79247 0.90997 0.0
C454 C 0.61343 0.79602 0.89386 0.0
C455 C 0.59568 0.79481 0.94815 0.0
C456 C 0.59859 0.78658 0.01513 0.0
H457 H 0.5755 0.69498 0.03075 0.0
H458 H 0.57185 0.72395 0.00102 0.0
H459 H 0.6036 0.72366 0.9838 0.0
H460 H 0.65513 0.77858 0.98682 0.0
H461 H 0.65047 0.79331 0.86934 0.0
H462 H 0.80885 0.52997 0.71166 0.0
H463 H 0.81898 0.54798 0.59195 0.0
H464 H 0.89501 0.62 0.66263 0.0
H465 H 0.88547 0.60152 0.78231 0.0
H466 H 0.83364 0.61639 0.61203 0.0
H467 H 0.89347 0.58592 0.43279 0.0
H468 H 0.86993 0.56041 0.49509 0.0
H469 H 0.90056 0.59108 0.52588 0.0
C470 C 0.82862 0.54866 0.70076 0.0
C471 C 0.84632 0.56449 0.7557 0.0
C472 C 0.83433 0.55901 0.6326 0.0
C473 C 0.85755 0.58537 0.61924 0.0
C474 C 0.87712 0.59951 0.67232 0.0
H475 H 0.85088 0.65083 0.20978 0.0
H476 H 0.86777 0.65648 0.33012 0.0
C477 C 0.87172 0.58883 0.74044 0.0
C478 C 0.85683 0.60049 0.55682 0.0
H479 H 0.8663 0.60356 0.38033 0.0
C480 C 0.84144 0.61437 0.56143 0.0
C481 C 0.8671 0.59771 0.49168 0.0
C482 C 0.88385 0.5831 0.48548 0.0
C483 C 0.83409 0.6236 0.50112 0.0
C484 C 0.84256 0.61891 0.43534 0.0
C485 C 0.85995 0.60715 0.43129 0.0
C486 C 0.82987 0.62134 0.36999 0.0
C487 C 0.81596 0.63673 0.5075 0.0
C488 C 0.80242 0.60061 0.35406 0.0
C489 C 0.79278 0.597 0.28522 0.0
C490 C 0.81052 0.61419 0.23178 0.0
C491 C 0.8367 0.63717 0.24976 0.0
C492 C 0.8465 0.64044 0.31843 0.0
H493 H 0.81674 0.64488 0.5612 0.0
H494 H 0.82252 0.65404 0.46922 0.0
H495 H 0.79396 0.62078 0.49578 0.0
H496 H 0.7894 0.5856 0.39349 0.0
H497 H 0.77248 0.57927 0.27295 0.0
H498 H 0.20007 0.85087 0.55446 0.0
H499 H 0.21488 0.87047 0.67172 0.0
H500 H 0.21783 0.79719 0.73506 0.0
H501 H 0.20339 0.77743 0.6179 0.0
H502 H 0.1977 0.83797 0.83576 0.0
H503 H 0.30244 0.87927 0.71197 0.0
H504 H 0.27245 0.87521 0.66388 0.0
H505 H 0.27505 0.84507 0.68592 0.0
C506 C 0.20268 0.83832 0.59404 0.0
C507 C 0.20127 0.81287 0.57648 0.0
C508 C 0.21125 0.84967 0.66089 0.0
C509 C 0.2179 0.83542 0.7108 0.0
C510 C 0.21293 0.80847 0.69641 0.0
H511 H 0.281 0.81363 0.05587 0.0
H512 H 0.2761 0.82575 0.93585 0.0
C513 C 0.20462 0.7972 0.62957 0.0
C514 C 0.23429 0.84993 0.77314 0.0
H515 H 0.30062 0.87727 0.83633 0.0
C516 C 0.22029 0.84751 0.83601 0.0
C517 C 0.26373 0.86239 0.77229 0.0
C518 C 0.27949 0.86588 0.70494 0.0
C519 C 0.23489 0.85512 0.89962 0.0
C520 C 0.26407 0.86524 0.89944 0.0
C521 C 0.27833 0.86975 0.83587 0.0
C522 C 0.27811 0.86461 0.96423 0.0
C523 C 0.21872 0.84986 0.96712 0.0
C524 C 0.28333 0.88376 0.01832 0.0
C525 C 0.28672 0.87708 0.08689 0.0
C526 C 0.28431 0.85104 0.10123 0.0
C527 C 0.28295 0.83382 0.0457 0.0
C528 C 0.28007 0.8407 0.97729 0.0
H529 H 0.19604 0.84151 0.95791 0.0
H530 H 0.22127 0.83471 1e-05 0.0
H531 H 0.22705 0.86962 -0.00281 0.0
H532 H 0.28188 0.9023 0.00876 0.0
H533 H 0.28751 0.89054 0.1292 0.0
H534 H 0.3958 0.28569 0.45556 0.0
H535 H 0.37854 0.2788 0.33481 0.0
H536 H 0.45038 0.27407 0.26558 0.0
H537 H 0.46727 0.2802 0.38602 0.0
H538 H 0.42163 0.29678 0.16308 0.0
H539 H 0.35638 0.19273 0.29018 0.0
H540 H 0.35846 0.22352 0.32842 0.0
H541 H 0.3884 0.21898 0.33031 0.0
C542 C 0.40874 0.28492 0.4139 0.0
C543 C 0.43263 0.28309 0.42955 0.0
C544 C 0.39875 0.2808 0.34515 0.0
C545 C 0.41301 0.27545 0.29214 0.0
C546 C 0.43914 0.27813 0.3062 0.0
H547 H 0.42407 0.19891 0.94522 0.0
H548 H 0.41927 0.213 0.06325 0.0
C549 C 0.44884 0.28173 0.37484 0.0
C550 C 0.39845 0.26055 0.22805 0.0
H551 H 0.36027 0.19361 0.16767 0.0
C552 C 0.40738 0.2744 0.16376 0.0
C553 C 0.38012 0.23127 0.22979 0.0
C554 C 0.37018 0.21555 0.29817 0.0
C555 C 0.39987 0.25935 0.10084 0.0
C556 C 0.38345 0.22989 0.10307 0.0
C557 C 0.37285 0.21622 0.16683 0.0
C558 C 0.38103 0.21325 0.04079 0.0
C559 C 0.41118 0.27472 0.03258 0.0
C560 C 0.35988 0.20674 -0.00837 0.0
C561 C 0.36237 0.19836 0.92429 0.0
C562 C 0.38637 0.19705 0.9055 0.0
C563 C 0.40557 0.2001 0.95787 0.0
C564 C 0.4029 0.20821 0.02522 0.0
H565 H 0.42099 0.2977 0.03901 0.0
H566 H 0.42713 0.27002 0.0116 0.0
H567 H 0.39416 0.26757 -0.00677 0.0
H568 H 0.34281 0.21045 0.00337 0.0
H569 H 0.34707 0.19597 0.8853 0.0
H570 H 0.14504 0.49715 0.06116 0.0
H571 H 0.14824 0.53962 0.11001 0.0
H572 H 0.21876 0.55308 0.2357 0.0
H573 H 0.21601 0.51097 0.18695 0.0
H574 H 0.14802 0.55737 0.25332 0.0
H575 H 0.2482 0.62426 0.1134 0.0
H576 H 0.22545 0.58795 0.0917 0.0
H577 H 0.24756 0.59739 0.16767 0.0
C578 C 0.1611 0.50901 0.09959 0.0
C579 C 0.18049 0.50082 0.1194 0.0
C580 C 0.16283 0.53321 0.12758 0.0
C581 C 0.18396 0.54961 0.17566 0.0
C582 C 0.20257 0.54089 0.19783 0.0
H583 H 0.20682 0.69826 0.39969 0.0
H584 H 0.19797 0.65108 0.37318 0.0
C585 C 0.20092 0.51678 0.16987 0.0
C586 C 0.18759 0.57668 0.19952 0.0
H587 H 0.23223 0.64698 0.1892 0.0
C588 C 0.16643 0.577 0.2396 0.0
C589 C 0.21156 0.60219 0.18088 0.0
C590 C 0.23443 0.60311 0.13557 0.0
C591 C 0.16866 0.60231 0.2616 0.0
C592 C 0.19273 0.62776 0.24328 0.0
C593 C 0.21389 0.62737 0.20348 0.0
C594 C 0.19586 0.65524 0.2609 0.0
C595 C 0.14502 0.60173 0.30255 0.0
C596 C 0.19764 0.67311 0.20659 0.0
C597 C 0.20281 0.69996 0.22138 0.0
C598 C 0.20645 0.70963 0.29096 0.0
C599 C 0.20405 0.69145 0.34559 0.0
C600 C 0.19888 0.66446 0.3306 0.0
H601 H 0.12587 0.58078 0.30143 0.0
H602 H 0.15153 0.60723 0.358 0.0
H603 H 0.13988 0.61734 0.28146 0.0
H604 H 0.1954 0.66637 0.15246 0.0
H605 H 0.20437 0.71327 0.17794 0.0
H606 H 0.70448 0.21667 0.51031 0.0
H607 H 0.66569 0.21945 0.56325 0.0
H608 H 0.60706 0.14851 0.44109 0.0
H609 H 0.64567 0.14527 0.38839 0.0
H610 H 0.62832 0.22893 0.49119 0.0
H611 H 0.57251 0.12902 0.6371 0.0
H612 H 0.60793 0.14317 0.60579 0.0
H613 H 0.57892 0.12473 0.54692 0.0
C614 C 0.68334 0.20142 0.49517 0.0
C615 C 0.67822 0.18077 0.44489 0.0
C616 C 0.6612 0.20304 0.52563 0.0
C617 C 0.63351 0.18397 0.50681 0.0
C618 C 0.62825 0.16305 0.45753 0.0
H619 H 0.49015 0.20396 0.50647 0.0
H620 H 0.52935 0.19669 0.48208 0.0
C621 C 0.65038 0.16139 0.42703 0.0
C622 C 0.61033 0.18744 0.53413 0.0
H623 H 0.54746 0.15353 0.61888 0.0
C624 C 0.6108 0.21255 0.51977 0.0
C625 C 0.58764 0.16616 0.57204 0.0
C626 C 0.58677 0.13935 0.59204 0.0
C627 C 0.58869 0.21658 0.54004 0.0
C628 C 0.56536 0.19478 0.57475 0.0
C629 C 0.5653 0.17006 0.59159 0.0
C630 C 0.54041 0.19705 0.59092 0.0
C631 C 0.59032 0.24406 0.5236 0.0
C632 C 0.53317 0.19877 0.66046 0.0
C633 C 0.51066 0.20294 0.67483 0.0
C634 C 0.49501 0.2053 0.61972 0.0
C635 C 0.50182 0.20248 0.55024 0.0
C636 C 0.52427 0.19837 0.53607 0.0
H637 H 0.61213 0.26079 0.51272 0.0
H638 H 0.57753 0.24154 0.47639 0.0
H639 H 0.58193 0.25082 0.56764 0.0
H640 H 0.54538 0.19764 0.70344 0.0
H641 H 0.50593 0.20492 0.7289 0.0
H642 H 0.30012 0.50651 0.06641 0.0
H643 H 0.34729 0.54533 0.04093 0.0
H644 H 0.33314 0.52746 0.82003 0.0
H645 H 0.28635 0.48891 0.84437 0.0
H646 H 0.39404 0.54585 0.95417 0.0
H647 H 0.35145 0.6109 0.85018 0.0
H648 H 0.33165 0.58139 0.90736 0.0
H649 H 0.33539 0.57592 0.81612 0.0
C650 C 0.30716 0.51069 0.01248 0.0
C651 C 0.28932 0.49476 0.95741 0.0
C652 C 0.33408 0.53281 -0.00189 0.0
C653 C 0.34343 0.53932 0.92861 0.0
C654 C 0.32612 0.52286 0.87395 0.0
H655 H 0.49996 0.64463 0.72099 0.0
H656 H 0.45842 0.60569 0.77428 0.0
C657 C 0.29935 0.50083 0.88811 0.0
C658 C 0.37069 0.56408 0.91193 0.0
H659 H 0.39936 0.62681 0.82784 0.0
C660 C 0.39534 0.56373 0.92722 0.0
C661 C 0.37218 0.58739 0.87744 0.0
C662 C 0.3463 0.58918 0.86221 0.0
C663 C 0.42156 0.58585 0.90654 0.0
C664 C 0.42291 0.60858 0.86909 0.0
C665 C 0.39826 0.60927 0.8561 0.0
C666 C 0.44949 0.63179 0.84159 0.0
C667 C 0.44753 0.58473 0.92494 0.0
C668 C 0.45805 0.65935 0.86122 0.0
C669 C 0.48154 0.68162 0.83042 0.0
C670 C 0.49693 0.67679 0.77902 0.0
C671 C 0.48864 0.64909 0.76048 0.0
C672 C 0.46503 0.62679 0.79129 0.0
H673 H 0.44378 0.5703 0.96942 0.0
H674 H 0.45402 0.57703 0.87896 0.0
H675 H 0.46503 0.60579 0.9388 0.0
H676 H 0.44626 0.66365 0.89968 0.0
H677 H 0.48737 0.70265 0.84628 0.0
H678 H 0.7856 0.28306 0.16696 0.0
H679 H 0.79454 0.33019 0.14583 0.0
H680 H 0.8009 0.34594 0.36832 0.0
H681 H 0.79212 0.29846 0.39043 0.0
H682 H 0.7605 0.35102 0.19723 0.0
H683 H 0.87128 0.41485 0.28358 0.0
H684 H 0.85552 0.37815 0.26287 0.0
H685 H 0.84725 0.38887 0.34386 0.0
C686 C 0.78907 0.29649 0.21168 0.0
C687 C 0.78802 0.28689 0.28053 0.0
C688 C 0.79422 0.32347 0.19936 0.0
C689 C 0.79852 0.34155 0.25543 0.0
C690 C 0.79799 0.33237 0.32431 0.0
H691 H 0.7832 0.48951 0.19025 0.0
H692 H 0.78003 0.44745 0.24061 0.0
C693 C 0.79285 0.30523 0.33682 0.0
C694 C 0.80193 0.36933 0.24069 0.0
H695 H 0.84922 0.43923 0.24198 0.0
C696 C 0.7798 0.37035 0.20751 0.0
C697 C 0.82724 0.39438 0.25373 0.0
C698 C 0.85183 0.39422 0.28754 0.0
C699 C 0.78245 0.39574 0.18567 0.0
C700 C 0.80777 0.42085 0.19856 0.0
C701 C 0.82981 0.41992 0.23265 0.0
C702 C 0.81197 0.44803 0.17384 0.0
C703 C 0.75847 0.39537 0.14671 0.0
C704 C 0.83176 0.46286 0.12147 0.0
C705 C 0.83376 0.48705 0.09266 0.0
C706 C 0.81596 0.49676 0.11582 0.0
C707 C 0.79698 0.48243 0.17047 0.0
C708 C 0.79511 0.45837 0.19938 0.0
H709 H 0.74316 0.37412 0.12759 0.0
H710 H 0.74731 0.40237 0.18238 0.0
H711 H 0.76621 0.4098 0.10117 0.0
H712 H 0.84501 0.4552 0.10125 0.0
H713 H 0.8487 0.49764 0.05095 0.0
H714 H 0.29973 0.77473 0.47622 0.0
H715 H 0.34051 0.77512 0.52619 0.0
H716 H 0.38938 0.86426 0.49479 0.0
H717 H 0.34881 0.86381 0.44178 0.0
H718 H 0.41727 0.84132 0.45129 0.0
H719 H 0.37675 0.79752 0.71286 0.0
H720 H 0.35385 0.77437 0.64681 0.0
H721 H 0.35854 0.80896 0.65528 0.0
C722 C 0.31907 0.79448 0.48056 0.0
C723 C 0.32105 0.81925 0.45503 0.0
C724 C 0.34234 0.79472 0.50988 0.0
C725 C 0.36789 0.81982 0.51597 0.0
C726 C 0.36984 0.84466 0.4912 0.0
H727 H 0.50527 0.8088 0.72095 0.0
H728 H 0.46989 0.82231 0.69806 0.0
C729 C 0.34667 0.84437 0.46075 0.0
C730 C 0.39304 0.81958 0.54246 0.0
H731 H 0.41535 0.79216 0.67049 0.0
C732 C 0.41699 0.83102 0.49992 0.0
C733 C 0.39311 0.8068 0.60674 0.0
C734 C 0.36926 0.79654 0.65831 0.0
C735 C 0.44022 0.82845 0.51763 0.0
C736 C 0.43911 0.81316 0.57823 0.0
C737 C 0.41597 0.80335 0.62321 0.0
C738 C 0.46072 0.80542 0.5928 0.0
C739 C 0.46561 0.84194 0.47064 0.0
C740 C 0.46681 0.79091 0.54197 0.0
C741 C 0.48709 0.78348 0.55452 0.0
C742 C 0.50136 0.78987 0.61889 0.0
C743 C 0.49468 0.80366 0.67078 0.0
C744 C 0.47453 0.81142 0.65775 0.0
H745 H 0.46739 0.86062 0.44395 0.0
H746 H 0.48516 0.84833 0.50046 0.0
H747 H 0.46356 0.82688 0.42938 0.0
H748 H 0.45574 0.78514 0.49245 0.0
H749 H 0.49138 0.77248 0.5138 0.0
H750 H 0.69713 0.49155 0.06546 0.0
H751 H 0.64989 0.4525 0.04196 0.0
H752 H 0.66308 0.46876 0.82024 0.0
H753 H 0.70996 0.50752 0.84264 0.0
H754 H 0.60269 0.4509 0.95716 0.0
H755 H 0.64512 0.38582 0.85241 0.0
H756 H 0.66529 0.41584 0.9078 0.0
H757 H 0.66065 0.42048 0.81657 0.0
C758 C 0.68987 0.48697 0.01176 0.0
C759 C 0.70747 0.5025 0.95592 0.0
C760 C 0.6629 0.46471 -0.00148 0.0
C761 C 0.65327 0.45766 0.92937 0.0
C762 C 0.67033 0.47375 0.8739 0.0
H763 H 0.4954 0.35046 0.72968 0.0
H764 H 0.53702 0.38985 0.78128 0.0
C765 C 0.69715 0.49591 0.88695 0.0
C766 C 0.62596 0.43273 0.91398 0.0
H767 H 0.59702 0.36955 0.8319 0.0
C768 C 0.60132 0.43295 0.93042 0.0
C769 C 0.62438 0.4093 0.87983 0.0
C770 C 0.65023 0.40759 0.86354 0.0
C771 C 0.57502 0.41058 0.91123 0.0
C772 C 0.57355 0.38773 0.87408 0.0
C773 C 0.5982 0.38718 0.85993 0.0
C774 C 0.54683 0.36425 0.84799 0.0
C775 C 0.54908 0.41158 0.93089 0.0
C776 C 0.5387 0.33682 0.86789 0.0
C777 C 0.51516 0.31429 0.83801 0.0
C778 C 0.49928 0.31873 0.78731 0.0
C779 C 0.5071 0.3463 0.76866 0.0
C780 C 0.53076 0.36886 0.79852 0.0
H781 H 0.55308 0.42615 0.97521 0.0
H782 H 0.54218 0.41904 0.88526 0.0
H783 H 0.53178 0.39053 0.94559 0.0
H784 H 0.5509 0.33281 0.90574 0.0
H785 H 0.5097 0.29337 0.85395 0.0
loop_
_geom_bond_atom_site_label_1
_geom_bond_atom_site_label_2
_geom_bond_distance
_geom_bond_site_symmetry_2
_ccdc_geom_bond_type
O0 Zn1 1.953 1_554 S
O0 C16 1.225 . S
Zn1 O0 1.953 1_556 S
Zn1 O2 1.949 1_556 S
Zn1 O8 1.919 1_556 S
Zn1 O13 1.924 . S
O2 Zn1 1.949 1_554 S
O2 Zn3 1.923 . S
O2 Zn4 1.950 . S
O2 Zn5 1.945 1_554 S
Zn3 O2 1.923 . S
Zn3 O6 1.933 . S
Zn3 O9 1.941 . S
Zn3 O10 1.965 . S
Zn4 O2 1.950 . S
Zn4 O11 1.938 . S
Zn4 O12 1.906 . S
Zn4 O22 1.953 . S
Zn5 O2 1.945 1_556 S
Zn5 O7 1.932 . S
Zn5 O14 1.977 . S
Zn5 O15 1.910 . S
O6 Zn3 1.933 . S
O6 C17 1.226 1_554 S
O7 Zn5 1.932 . S
O7 C17 1.307 . S
O8 Zn1 1.919 1_554 S
O8 C19 1.253 . S
O9 Zn3 1.941 . S
O9 C19 1.283 . S
O10 Zn3 1.965 . S
O10 C18 1.303 . S
O11 Zn4 1.938 . S
O11 C18 1.247 . S
O12 Zn4 1.906 . S
O12 C20 1.304 1_554 S
O13 Zn1 1.924 . S
O13 C21 1.311 . S
O14 Zn5 1.977 . S
O14 C20 1.272 . S
O15 Zn5 1.910 . S
O15 C21 1.231 . S
C16 O0 1.225 . S
C16 O22 1.298 . S
C17 O6 1.226 1_556 S
C17 O7 1.307 . S
C18 O10 1.303 . S
C18 O11 1.247 . S
C19 O8 1.253 . S
C19 O9 1.283 . S
C20 O12 1.304 1_556 S
C20 O14 1.272 . S
C21 O13 1.311 . S
C21 O15 1.231 . S
O22 Zn4 1.953 . S
O22 C16 1.298 . S
O23 Zn24 1.953 . S
O23 C39 1.225 . S
Zn24 O23 1.953 . S
Zn24 O25 1.949 . S
Zn24 O31 1.919 . S
Zn24 O36 1.924 . S
O25 Zn24 1.949 . S
O25 Zn26 1.923 . S
O25 Zn27 1.950 . S
O25 Zn28 1.945 . S
Zn26 O25 1.923 . S
Zn26 O29 1.933 . S
Zn26 O32 1.941 . S
Zn26 O33 1.965 . S
Zn27 O25 1.950 . S
Zn27 O34 1.938 . S
Zn27 O35 1.906 . S
Zn27 O45 1.953 . S
Zn28 O25 1.945 . S
Zn28 O30 1.932 . S
Zn28 O37 1.977 . S
Zn28 O38 1.910 . S
O29 Zn26 1.933 . S
O29 C40 1.226 . S
O30 Zn28 1.932 . S
O30 C40 1.307 . S
O31 Zn24 1.919 . S
O31 C42 1.253 . S
O32 Zn26 1.941 . S
O32 C42 1.283 . S
O33 Zn26 1.965 . S
O33 C41 1.303 . S
O34 Zn27 1.938 . S
O34 C41 1.247 . S
O35 Zn27 1.906 . S
O35 C43 1.304 . S
O36 Zn24 1.924 . S
O36 C44 1.311 . S
O37 Zn28 1.977 . S
O37 C43 1.272 . S
O38 Zn28 1.910 . S
O38 C44 1.231 . S
C39 O23 1.225 . S
C39 O45 1.298 . S
C40 O29 1.226 . S
C40 O30 1.307 . S
C41 O33 1.303 . S
C41 O34 1.247 . S
C42 O31 1.253 . S
C42 O32 1.283 . S
C43 O35 1.304 . S
C43 O37 1.272 . S
C44 O36 1.311 . S
C44 O38 1.231 . S
O45 Zn27 1.953 . S
O45 C39 1.298 . S
O46 Zn47 1.953 . S
O46 C62 1.225 . S
Zn47 O46 1.953 . S
Zn47 O48 1.949 . S
Zn47 O54 1.919 . S
Zn47 O59 1.924 . S
O48 Zn47 1.949 . S
O48 Zn49 1.923 . S
O48 Zn50 1.950 . S
O48 Zn51 1.945 . S
Zn49 O48 1.923 . S
Zn49 O52 1.933 . S
Zn49 O55 1.941 . S
Zn49 O56 1.965 . S
Zn50 O48 1.950 . S
Zn50 O57 1.938 . S
Zn50 O58 1.906 . S
Zn50 O68 1.953 . S
Zn51 O48 1.945 . S
Zn51 O53 1.932 . S
Zn51 O60 1.977 . S
Zn51 O61 1.910 . S
O52 Zn49 1.933 . S
O52 C63 1.226 . S
O53 Zn51 1.932 . S
O53 C63 1.307 . S
O54 Zn47 1.919 . S
O54 C65 1.253 . S
O55 Zn49 1.941 . S
O55 C65 1.283 . S
O56 Zn49 1.965 . S
O56 C64 1.303 . S
O57 Zn50 1.938 . S
O57 C64 1.247 . S
O58 Zn50 1.906 . S
O58 C66 1.304 . S
O59 Zn47 1.924 . S
O59 C67 1.311 . S
O60 Zn51 1.977 . S
O60 C66 1.272 . S
O61 Zn51 1.910 . S
O61 C67 1.231 . S
C62 O46 1.225 . S
C62 O68 1.298 . S
C63 O52 1.226 . S
C63 O53 1.307 . S
C64 O56 1.303 . S
C64 O57 1.247 . S
C65 O54 1.253 . S
C65 O55 1.283 . S
C66 O58 1.304 . S
C66 O60 1.272 . S
C67 O59 1.311 . S
C67 O61 1.231 . S
O68 Zn50 1.953 . S
O68 C62 1.298 . S
O69 Zn70 1.953 1_554 S
O69 C85 1.225 . S
Zn70 O69 1.953 1_556 S
Zn70 O71 1.949 1_556 S
Zn70 O77 1.919 1_556 S
Zn70 O82 1.924 . S
O71 Zn70 1.949 1_554 S
O71 Zn72 1.923 . S
O71 Zn73 1.950 . S
O71 Zn74 1.945 1_554 S
Zn72 O71 1.923 . S
Zn72 O75 1.933 . S
Zn72 O78 1.941 . S
Zn72 O79 1.965 . S
Zn73 O71 1.950 . S
Zn73 O80 1.938 . S
Zn73 O81 1.906 . S
Zn73 O91 1.953 . S
Zn74 O71 1.945 1_556 S
Zn74 O76 1.932 . S
Zn74 O83 1.977 . S
Zn74 O84 1.910 . S
O75 Zn72 1.933 . S
O75 C86 1.226 1_554 S
O76 Zn74 1.932 . S
O76 C86 1.307 . S
O77 Zn70 1.919 1_554 S
O77 C88 1.253 . S
O78 Zn72 1.941 . S
O78 C88 1.283 . S
O79 Zn72 1.965 . S
O79 C87 1.303 . S
O80 Zn73 1.938 . S
O80 C87 1.247 . S
O81 Zn73 1.906 . S
O81 C89 1.304 1_554 S
O82 Zn70 1.924 . S
O82 C90 1.311 . S
O83 Zn74 1.977 . S
O83 C89 1.272 . S
O84 Zn74 1.910 . S
O84 C90 1.231 . S
C85 O69 1.225 . S
C85 O91 1.298 . S
C86 O75 1.226 1_556 S
C86 O76 1.307 . S
C87 O79 1.303 . S
C87 O80 1.247 . S
C88 O77 1.253 . S
C88 O78 1.283 . S
C89 O81 1.304 1_556 S
C89 O83 1.272 . S
C90 O82 1.311 . S
C90 O84 1.231 . S
O91 Zn73 1.953 . S
O91 C85 1.298 . S
O92 Zn93 1.953 . S
O92 C108 1.225 . S
Zn93 O92 1.953 . S
Zn93 O94 1.949 . S
Zn93 O100 1.919 . S
Zn93 O105 1.924 . S
O94 Zn93 1.949 . S
O94 Zn95 1.923 . S
O94 Zn96 1.950 . S
O94 Zn97 1.945 . S
Zn95 O94 1.923 . S
Zn95 O98 1.933 . S
Zn95 O101 1.941 . S
Zn95 O102 1.965 . S
Zn96 O94 1.950 . S
Zn96 O103 1.938 . S
Zn96 O104 1.906 . S
Zn96 O114 1.953 . S
Zn97 O94 1.945 . S
Zn97 O99 1.932 . S
Zn97 O106 1.977 . S
Zn97 O107 1.910 . S
O98 Zn95 1.933 . S
O98 C109 1.226 . S
O99 Zn97 1.932 . S
O99 C109 1.307 . S
O100 Zn93 1.919 . S
O100 C111 1.253 . S
O101 Zn95 1.941 . S
O101 C111 1.283 . S
O102 Zn95 1.965 . S
O102 C110 1.303 . S
O103 Zn96 1.938 . S
O103 C110 1.247 . S
O104 Zn96 1.906 . S
O104 C112 1.304 . S
O105 Zn93 1.924 . S
O105 C113 1.311 . S
O106 Zn97 1.977 . S
O106 C112 1.272 . S
O107 Zn97 1.910 . S
O107 C113 1.231 . S
C108 O92 1.225 . S
C108 O114 1.298 . S
C109 O98 1.226 . S
C109 O99 1.307 . S
C110 O102 1.303 . S
C110 O103 1.247 . S
C111 O100 1.253 . S
C111 O101 1.283 . S
C112 O104 1.304 . S
C112 O106 1.272 . S
C113 O105 1.311 . S
C113 O107 1.231 . S
O114 Zn96 1.953 . S
O114 C108 1.298 . S
O115 Zn116 1.953 . S
O115 C131 1.225 . S
Zn116 O115 1.953 . S
Zn116 O117 1.949 . S
Zn116 O123 1.919 . S
Zn116 O128 1.924 . S
O117 Zn116 1.949 . S
O117 Zn118 1.923 . S
O117 Zn119 1.950 . S
O117 Zn120 1.945 . S
Zn118 O117 1.923 . S
Zn118 O121 1.933 . S
Zn118 O124 1.941 . S
Zn118 O125 1.965 . S
Zn119 O117 1.950 . S
Zn119 O126 1.938 . S
Zn119 O127 1.906 . S
Zn119 O137 1.953 . S
Zn120 O117 1.945 . S
Zn120 O122 1.932 . S
Zn120 O129 1.977 . S
Zn120 O130 1.910 . S
O121 Zn118 1.933 . S
O121 C132 1.226 . S
O122 Zn120 1.932 . S
O122 C132 1.307 . S
O123 Zn116 1.919 . S
O123 C134 1.253 . S
O124 Zn118 1.941 . S
O124 C134 1.283 . S
O125 Zn118 1.965 . S
O125 C133 1.303 . S
O126 Zn119 1.938 . S
O126 C133 1.247 . S
O127 Zn119 1.906 . S
O127 C135 1.304 . S
O128 Zn116 1.924 . S
O128 C136 1.311 . S
O129 Zn120 1.977 . S
O129 C135 1.272 . S
O130 Zn120 1.910 . S
O130 C136 1.231 . S
C131 O115 1.225 . S
C131 O137 1.298 . S
C132 O121 1.226 . S
C132 O122 1.307 . S
C133 O125 1.303 . S
C133 O126 1.247 . S
C134 O123 1.253 . S
C134 O124 1.283 . S
C135 O127 1.304 . S
C135 O129 1.272 . S
C136 O128 1.311 . S
C136 O130 1.231 . S
O137 Zn119 1.953 . S
O137 C131 1.298 . S
H138 C146 0.929 . S
H139 C148 0.930 . S
H140 C150 0.930 . S
H141 C153 0.929 . S
H142 C156 0.930 . S
H143 C158 0.960 . S
H144 C158 0.960 . S
H145 C158 0.960 . S
C146 H138 0.929 . S
C146 C147 1.377 . S
C146 C148 1.384 . S
C147 C146 1.377 . S
C147 C153 1.390 . S
C148 H139 0.930 . S
C148 C146 1.384 . S
C148 C149 1.372 . S
C149 C148 1.372 . S
C149 C150 1.400 . S
C149 C154 1.490 . S
C150 H140 0.930 . S
C150 C149 1.400 . S
C150 C153 1.386 . S
H151 C167 0.930 1_554 S
H152 C168 0.931 . S
C153 H141 0.929 . S
C153 C147 1.390 . S
C153 C150 1.386 . S
C154 C149 1.490 . S
C154 C156 1.395 . S
C154 C157 1.403 . S
H155 C161 0.930 . S
C156 H142 0.930 . S
C156 C154 1.395 . S
C156 C159 1.403 . S
C157 C154 1.403 . S
C157 C158 1.524 . S
C157 C161 1.400 . S
C158 H143 0.960 . S
C158 H144 0.960 . S
C158 H145 0.960 . S
C158 C157 1.524 . S
C159 C156 1.403 . S
C159 C160 1.392 . S
C159 C163 1.495 . S
C160 C159 1.392 . S
C160 C161 1.385 . S
C160 C162 1.478 . S
C161 H155 0.930 . S
C161 C157 1.400 . S
C161 C160 1.385 . S
C162 C160 1.478 . S
C162 C164 1.381 . S
C162 C168 1.383 . S
C163 C159 1.495 . S
C163 H169 0.959 . S
C163 H170 0.961 . S
C163 H171 0.960 . S
C164 C162 1.381 . S
C164 C165 1.394 . S
C164 H172 0.930 . S
C165 C164 1.394 . S
C165 C166 1.383 . S
C165 H173 0.929 . S
C166 C165 1.383 . S
C166 C167 1.377 . S
C167 H151 0.930 1_556 S
C167 C166 1.377 . S
C167 C168 1.379 . S
C168 H152 0.931 . S
C168 C162 1.383 . S
C168 C167 1.379 . S
H169 C163 0.959 . S
H170 C163 0.961 . S
H171 C163 0.960 . S
H172 C164 0.930 . S
H173 C165 0.929 . S
H174 C182 0.929 . S
H175 C184 0.930 . S
H176 C186 0.930 . S
H177 C189 0.929 . S
H178 C192 0.930 . S
H179 C194 0.960 . S
H180 C194 0.960 . S
H181 C194 0.960 . S
C182 H174 0.929 . S
C182 C183 1.377 . S
C182 C184 1.384 . S
C183 C182 1.377 . S
C183 C189 1.390 . S
C184 H175 0.930 . S
C184 C182 1.384 . S
C184 C185 1.372 . S
C185 C184 1.372 . S
C185 C186 1.400 . S
C185 C190 1.490 . S
C186 H176 0.930 . S
C186 C185 1.400 . S
C186 C189 1.386 . S
H187 C203 0.930 . S
H188 C204 0.931 . S
C189 H177 0.929 . S
C189 C183 1.390 . S
C189 C186 1.386 . S
C190 C185 1.490 . S
C190 C192 1.395 1_455 S
C190 C193 1.407 1_455 S
H191 C197 0.930 . S
C192 H178 0.930 . S
C192 C190 1.395 1_655 S
C192 C195 1.403 . S
C193 C190 1.407 1_655 S
C193 C194 1.492 1_655 S
C193 C197 1.431 . S
C194 H179 0.960 . S
C194 H180 0.960 . S
C194 H181 0.960 . S
C194 C193 1.492 1_455 S
C195 C192 1.403 . S
C195 C196 1.392 . S
C195 C199 1.495 . S
C196 C195 1.392 . S
C196 C197 1.385 . S
C196 C198 1.478 . S
C197 H191 0.930 . S
C197 C193 1.431 . S
C197 C196 1.385 . S
C198 C196 1.478 . S
C198 C200 1.381 . S
C198 C204 1.383 . S
C199 C195 1.495 . S
C199 H205 0.959 . S
C199 H206 0.961 . S
C199 H207 0.960 . S
C200 C198 1.381 . S
C200 C201 1.394 . S
C200 H208 0.930 . S
C201 C200 1.394 . S
C201 C202 1.383 . S
C201 H209 0.929 . S
C202 C201 1.383 . S
C202 C203 1.377 . S
C203 H187 0.930 . S
C203 C202 1.377 . S
C203 C204 1.379 . S
C204 H188 0.931 . S
C204 C198 1.383 . S
C204 C203 1.379 . S
H205 C199 0.959 . S
H206 C199 0.961 . S
H207 C199 0.960 . S
H208 C200 0.930 . S
H209 C201 0.929 . S
H210 C218 0.929 . S
H211 C220 0.930 . S
H212 C222 0.930 . S
H213 C225 0.929 . S
H214 C228 0.930 . S
H215 C230 0.960 . S
H216 C230 0.960 . S
H217 C230 0.960 1_545 S
C218 H210 0.929 . S
C218 C219 1.377 . S
C218 C220 1.384 . S
C219 C218 1.377 . S
C219 C225 1.390 . S
C220 H211 0.930 . S
C220 C218 1.384 . S
C220 C221 1.372 . S
C221 C220 1.372 . S
C221 C222 1.400 . S
C221 C226 1.490 . S
C222 H212 0.930 . S
C222 C221 1.400 . S
C222 C225 1.386 . S
H223 C239 0.930 . S
H224 C240 0.931 . S
C225 H213 0.929 . S
C225 C219 1.390 . S
C225 C222 1.386 . S
C226 C221 1.490 . S
C226 C228 1.395 . S
C226 C229 1.403 1_545 S
H227 C233 0.930 . S
C228 H214 0.930 . S
C228 C226 1.395 . S
C228 C231 1.403 1_545 S
C229 C226 1.403 1_565 S
C229 C230 1.524 . S
C229 C233 1.400 . S
C230 H215 0.960 . S
C230 H216 0.960 . S
C230 H217 0.960 1_565 S
C230 C229 1.524 . S
C231 C228 1.403 1_565 S
C231 C232 1.392 . S
C231 C235 1.495 . S
C232 C231 1.392 . S
C232 C233 1.385 . S
C232 C234 1.478 . S
C233 H227 0.930 . S
C233 C229 1.400 . S
C233 C232 1.385 . S
C234 C232 1.478 . S
C234 C236 1.381 . S
C234 C240 1.383 . S
C235 C231 1.495 . S
C235 H241 0.959 . S
C235 H242 0.961 . S
C235 H243 0.960 . S
C236 C234 1.381 . S
C236 C237 1.394 . S
C236 H244 0.930 . S
C237 C236 1.394 . S
C237 C238 1.383 . S
C237 H245 0.929 . S
C238 C237 1.383 . S
C238 C239 1.377 . S
C239 H223 0.930 . S
C239 C238 1.377 . S
C239 C240 1.379 . S
C240 H224 0.931 . S
C240 C234 1.383 . S
C240 C239 1.379 . S
H241 C235 0.959 . S
H242 C235 0.961 . S
H243 C235 0.960 . S
H244 C236 0.930 . S
H245 C237 0.929 . S
H246 C254 0.929 . S
H247 C256 0.930 . S
H248 C258 0.930 . S
H249 C261 0.929 . S
H250 C264 0.930 . S
H251 C266 0.960 . S
H252 C266 0.960 . S
H253 C266 0.960 . S
C254 H246 0.929 . S
C254 C255 1.377 . S
C254 C256 1.384 . S
C255 C254 1.377 . S
C255 C261 1.390 . S
C256 H247 0.930 . S
C256 C254 1.384 . S
C256 C257 1.372 . S
C257 C256 1.372 . S
C257 C258 1.400 . S
C257 C262 1.490 . S
C258 H248 0.930 . S
C258 C257 1.400 . S
C258 C261 1.386 . S
H259 C275 0.930 . S
H260 C276 0.931 . S
C261 H249 0.929 . S
C261 C255 1.390 . S
C261 C258 1.386 . S
C262 C257 1.490 . S
C262 C264 1.395 . S
C262 C265 1.403 . S
H263 C269 0.930 . S
C264 H250 0.930 . S
C264 C262 1.395 . S
C264 C267 1.403 . S
C265 C262 1.403 . S
C265 C266 1.524 . S
C265 C269 1.400 . S
C266 H251 0.960 . S
C266 H252 0.960 . S
C266 H253 0.960 . S
C266 C265 1.524 . S
C267 C264 1.403 . S
C267 C268 1.392 . S
C267 C271 1.495 . S
C268 C267 1.392 . S
C268 C269 1.385 . S
C268 C270 1.478 . S
C269 H263 0.930 . S
C269 C265 1.400 . S
C269 C268 1.385 . S
C270 C268 1.478 . S
C270 C272 1.381 . S
C270 C276 1.383 . S
C271 C267 1.495 . S
C271 H277 0.959 . S
C271 H278 0.961 . S
C271 H279 0.960 . S
C272 C270 1.381 . S
C272 C273 1.394 . S
C272 H280 0.930 . S
C273 C272 1.394 . S
C273 C274 1.383 . S
C273 H281 0.929 . S
C274 C273 1.383 . S
C274 C275 1.377 . S
C275 H259 0.930 . S
C275 C274 1.377 . S
C275 C276 1.379 . S
C276 H260 0.931 . S
C276 C270 1.383 . S
C276 C275 1.379 . S
H277 C271 0.959 . S
H278 C271 0.961 . S
H279 C271 0.960 . S
H280 C272 0.930 . S
H281 C273 0.929 . S
H282 C290 0.929 . S
H283 C292 0.930 . S
H284 C294 0.930 . S
H285 C297 0.929 . S
H286 C300 0.930 . S
H287 C302 0.960 . S
H288 C302 0.960 . S
H289 C302 0.960 . S
C290 H282 0.929 . S
C290 C291 1.377 . S
C290 C292 1.384 . S
C291 C290 1.377 . S
C291 C297 1.390 . S
C292 H283 0.930 . S
C292 C290 1.384 . S
C292 C293 1.372 . S
C293 C292 1.372 . S
C293 C294 1.400 . S
C293 C298 1.490 . S
C294 H284 0.930 . S
C294 C293 1.400 . S
C294 C297 1.386 . S
H295 C311 0.930 . S
H296 C312 0.931 . S
C297 H285 0.929 . S
C297 C291 1.390 . S
C297 C294 1.386 . S
C298 C293 1.490 . S
C298 C300 1.395 . S
C298 C301 1.403 . S
H299 C305 0.930 1_655 S
C300 H286 0.930 . S
C300 C298 1.395 . S
C300 C303 1.403 . S
C301 C298 1.403 . S
C301 C302 1.524 . S
C301 C305 1.400 . S
C302 H287 0.960 . S
C302 H288 0.960 . S
C302 H289 0.960 . S
C302 C301 1.524 . S
C303 C300 1.403 . S
C303 C304 1.392 1_455 S
C303 C307 1.495 . S
C304 C303 1.392 1_655 S
C304 C305 1.385 1_655 S
C304 C306 1.478 . S
C305 H299 0.930 1_455 S
C305 C301 1.400 . S
C305 C304 1.385 1_455 S
C306 C304 1.478 . S
C306 C308 1.381 . S
C306 C312 1.383 . S
C307 C303 1.495 . S
C307 H313 0.959 . S
C307 H314 0.961 1_455 S
C307 H315 0.960 1_455 S
C308 C306 1.381 . S
C308 C309 1.394 . S
C308 H316 0.930 . S
C309 C308 1.394 . S
C309 C310 1.383 . S
C309 H317 0.929 1_554 S
C310 C309 1.383 . S
C310 C311 1.377 . S
C311 H295 0.930 . S
C311 C310 1.377 . S
C311 C312 1.379 . S
C312 H296 0.931 . S
C312 C306 1.383 . S
C312 C311 1.379 . S
H313 C307 0.959 . S
H314 C307 0.961 1_655 S
H315 C307 0.960 1_655 S
H316 C308 0.930 . S
H317 C309 0.929 1_556 S
H318 C326 0.929 . S
H319 C328 0.930 . S
H320 C330 0.930 . S
H321 C333 0.929 . S
H322 C336 0.930 . S
H323 C338 0.960 . S
H324 C338 0.960 . S
H325 C338 0.960 . S
C326 H318 0.929 . S
C326 C327 1.377 . S
C326 C328 1.384 . S
C327 C326 1.377 . S
C327 C333 1.390 . S
C328 H319 0.930 . S
C328 C326 1.384 . S
C328 C329 1.372 . S
C329 C328 1.372 . S
C329 C330 1.400 . S
C329 C334 1.490 . S
C330 H320 0.930 . S
C330 C329 1.400 . S
C330 C333 1.386 . S
H331 C347 0.930 . S
H332 C348 0.931 . S
C333 H321 0.929 . S
C333 C327 1.390 . S
C333 C330 1.386 . S
C334 C329 1.490 . S
C334 C336 1.395 . S
C334 C337 1.403 . S
H335 C341 0.928 1_565 S
C336 H322 0.930 . S
C336 C334 1.395 . S
C336 C339 1.403 . S
C337 C334 1.403 . S
C337 C338 1.524 . S
C337 C341 1.408 . S
C338 H323 0.960 . S
C338 H324 0.960 . S
C338 H325 0.960 . S
C338 C337 1.524 . S
C339 C336 1.403 . S
C339 C340 1.392 1_545 S
C339 C343 1.495 . S
C340 C339 1.392 1_565 S
C340 C341 1.379 1_565 S
C340 C342 1.478 . S
C341 H335 0.928 1_545 S
C341 C337 1.408 . S
C341 C340 1.379 1_545 S
C342 C340 1.478 . S
C342 C344 1.381 . S
C342 C348 1.383 . S
C343 C339 1.495 . S
C343 H349 0.959 . S
C343 H350 0.961 1_545 S
C343 H351 0.954 1_545 S
C344 C342 1.381 . S
C344 C345 1.394 . S
C344 H352 0.930 . S
C345 C344 1.394 . S
C345 C346 1.383 . S
C345 H353 0.929 . S
C346 C345 1.383 . S
C346 C347 1.377 . S
C347 H331 0.930 . S
C347 C346 1.377 . S
C347 C348 1.379 . S
C348 H332 0.931 . S
C348 C342 1.383 . S
C348 C347 1.379 . S
H349 C343 0.959 . S
H350 C343 0.961 1_565 S
H351 C343 0.954 1_565 S
H352 C344 0.930 . S
H353 C345 0.929 . S
H354 C362 0.929 . S
H355 C364 0.930 . S
H356 C366 0.930 . S
H357 C369 0.929 . S
H358 C372 0.930 . S
H359 C374 0.960 . S
H360 C374 0.960 . S
H361 C374 0.960 . S
C362 H354 0.929 . S
C362 C363 1.377 . S
C362 C364 1.384 . S
C363 C362 1.377 . S
C363 C369 1.390 . S
C364 H355 0.930 . S
C364 C362 1.384 . S
C364 C365 1.372 . S
C365 C364 1.372 . S
C365 C366 1.400 . S
C365 C370 1.490 . S
C366 H356 0.930 . S
C366 C365 1.400 . S
C366 C369 1.386 . S
H367 C383 0.930 . S
H368 C384 0.931 . S
C369 H357 0.929 . S
C369 C363 1.390 . S
C369 C366 1.386 . S
C370 C365 1.490 . S
C370 C372 1.395 . S
C370 C373 1.403 . S
H371 C377 0.930 . S
C372 H358 0.930 . S
C372 C370 1.395 . S
C372 C375 1.403 . S
C373 C370 1.403 . S
C373 C374 1.524 . S
C373 C377 1.400 . S
C374 H359 0.960 . S
C374 H360 0.960 . S
C374 H361 0.960 . S
C374 C373 1.524 . S
C375 C372 1.403 . S
C375 C376 1.392 . S
C375 C379 1.495 . S
C376 C375 1.392 . S
C376 C377 1.385 . S
C376 C378 1.478 . S
C377 H371 0.930 . S
C377 C373 1.400 . S
C377 C376 1.385 . S
C378 C376 1.478 . S
C378 C380 1.381 . S
C378 C384 1.383 . S
C379 C375 1.495 . S
C379 H385 0.959 . S
C379 H386 0.961 . S
C379 H387 0.960 . S
C380 C378 1.381 . S
C380 C381 1.394 . S
C380 H388 0.930 . S
C381 C380 1.394 . S
C381 C382 1.383 . S
C381 H389 0.929 . S
C382 C381 1.383 . S
C382 C383 1.377 . S
C383 H367 0.930 . S
C383 C382 1.377 . S
C383 C384 1.379 . S
C384 H368 0.931 . S
C384 C378 1.383 . S
C384 C383 1.379 . S
H385 C379 0.959 . S
H386 C379 0.961 . S
H387 C379 0.960 . S
H388 C380 0.930 . S
H389 C381 0.929 . S
H390 C398 0.929 . S
H391 C400 0.930 . S
H392 C402 0.930 1_556 S
H393 C405 0.929 . S
H394 C408 0.930 . S
H395 C410 0.960 . S
H396 C410 0.960 . S
H397 C410 0.960 . S
C398 H390 0.929 . S
C398 C399 1.377 . S
C398 C400 1.384 . S
C399 C398 1.377 . S
C399 C405 1.390 . S
C400 H391 0.930 . S
C400 C398 1.384 . S
C400 C401 1.372 1_554 S
C401 C400 1.372 1_556 S
C401 C402 1.400 1_556 S
C401 C406 1.490 . S
C402 H392 0.930 1_554 S
C402 C401 1.400 1_554 S
C402 C405 1.386 . S
H403 C419 0.930 . S
H404 C420 0.931 . S
C405 H393 0.929 . S
C405 C399 1.390 . S
C405 C402 1.386 . S
C406 C401 1.490 . S
C406 C408 1.395 . S
C406 C409 1.403 . S
H407 C413 0.930 . S
C408 H394 0.930 . S
C408 C406 1.395 . S
C408 C411 1.403 . S
C409 C406 1.403 . S
C409 C410 1.524 . S
C409 C413 1.400 . S
C410 H395 0.960 . S
C410 H396 0.960 . S
C410 H397 0.960 . S
C410 C409 1.524 . S
C411 C408 1.403 . S
C411 C412 1.392 . S
C411 C415 1.495 . S
C412 C411 1.392 . S
C412 C413 1.385 . S
C412 C414 1.478 . S
C413 H407 0.930 . S
C413 C409 1.400 . S
C413 C412 1.385 . S
C414 C412 1.478 . S
C414 C416 1.381 . S
C414 C420 1.383 . S
C415 C411 1.495 . S
C415 H421 0.959 . S
C415 H422 0.961 . S
C415 H423 0.960 . S
C416 C414 1.381 . S
C416 C417 1.394 . S
C416 H424 0.930 . S
C417 C416 1.394 . S
C417 C418 1.383 . S
C417 H425 0.929 . S
C418 C417 1.383 . S
C418 C419 1.377 . S
C419 H403 0.930 . S
C419 C418 1.377 . S
C419 C420 1.379 . S
C420 H404 0.931 . S
C420 C414 1.383 . S
C420 C419 1.379 . S
H421 C415 0.959 . S
H422 C415 0.961 . S
H423 C415 0.960 . S
H424 C416 0.930 . S
H425 C417 0.929 . S
H426 C434 0.929 . S
H427 C436 0.930 . S
H428 C438 0.930 . S
H429 C441 0.929 . S
H430 C444 0.930 . S
H431 C446 0.960 . S
H432 C446 0.960 . S
H433 C446 0.960 . S
C434 H426 0.929 . S
C434 C435 1.377 . S
C434 C436 1.384 . S
C435 C434 1.377 . S
C435 C441 1.390 . S
C436 H427 0.930 . S
C436 C434 1.384 . S
C436 C437 1.372 . S
C437 C436 1.372 . S
C437 C438 1.400 . S
C437 C442 1.490 . S
C438 H428 0.930 . S
C438 C437 1.400 . S
C438 C441 1.386 . S
H439 C455 0.930 . S
H440 C456 0.931 1_554 S
C441 H429 0.929 . S
C441 C435 1.390 . S
C441 C438 1.386 . S
C442 C437 1.490 . S
C442 C444 1.395 . S
C442 C445 1.403 . S
H443 C449 0.930 . S
C444 H430 0.930 . S
C444 C442 1.395 . S
C444 C447 1.403 . S
C445 C442 1.403 . S
C445 C446 1.524 . S
C445 C449 1.400 . S
C446 H431 0.960 . S
C446 H432 0.960 . S
C446 H433 0.960 . S
C446 C445 1.524 . S
C447 C444 1.403 . S
C447 C448 1.392 . S
C447 C451 1.495 . S
C448 C447 1.392 . S
C448 C449 1.385 . S
C448 C450 1.478 . S
C449 H443 0.930 . S
C449 C445 1.400 . S
C449 C448 1.385 . S
C450 C448 1.478 . S
C450 C452 1.381 1_554 S
C450 C456 1.383 1_554 S
C451 C447 1.495 . S
C451 H457 0.959 . S
C451 H458 0.961 . S
C451 H459 0.960 . S
C452 C450 1.381 1_556 S
C452 C453 1.394 . S
C452 H460 0.930 . S
C453 C452 1.394 . S
C453 C454 1.383 . S
C453 H461 0.929 . S
C454 C453 1.383 . S
C454 C455 1.377 . S
C455 H439 0.930 . S
C455 C454 1.377 . S
C455 C456 1.379 . S
C456 H440 0.931 1_556 S
C456 C450 1.383 1_556 S
C456 C455 1.379 . S
H457 C451 0.959 . S
H458 C451 0.961 . S
H459 C451 0.960 . S
H460 C452 0.930 . S
H461 C453 0.929 . S
H462 C470 0.929 . S
H463 C472 0.930 . S
H464 C474 0.930 . S
H465 C477 0.929 . S
H466 C480 0.930 . S
H467 C482 0.960 . S
H468 C482 0.960 . S
H469 C482 0.960 . S
C470 H462 0.929 . S
C470 C471 1.377 . S
C470 C472 1.384 . S
C471 C470 1.377 . S
C471 C477 1.390 . S
C472 H463 0.930 . S
C472 C470 1.384 . S
C472 C473 1.372 . S
C473 C472 1.372 . S
C473 C474 1.400 . S
C473 C478 1.490 . S
C474 H464 0.930 . S
C474 C473 1.400 . S
C474 C477 1.386 . S
H475 C491 0.930 . S
H476 C492 0.931 . S
C477 H465 0.929 . S
C477 C471 1.390 . S
C477 C474 1.386 . S
C478 C473 1.490 . S
C478 C480 1.395 . S
C478 C481 1.403 . S
H479 C485 0.930 . S
C480 H466 0.930 . S
C480 C478 1.395 . S
C480 C483 1.403 . S
C481 C478 1.403 . S
C481 C482 1.524 . S
C481 C485 1.400 . S
C482 H467 0.960 . S
C482 H468 0.960 . S
C482 H469 0.960 . S
C482 C481 1.524 . S
C483 C480 1.403 . S
C483 C484 1.392 . S
C483 C487 1.495 . S
C484 C483 1.392 . S
C484 C485 1.385 . S
C484 C486 1.478 . S
C485 H479 0.930 . S
C485 C481 1.400 . S
C485 C484 1.385 . S
C486 C484 1.478 . S
C486 C488 1.381 . S
C486 C492 1.383 . S
C487 C483 1.495 . S
C487 H493 0.959 . S
C487 H494 0.961 . S
C487 H495 0.960 . S
C488 C486 1.381 . S
C488 C489 1.394 . S
C488 H496 0.930 . S
C489 C488 1.394 . S
C489 C490 1.383 . S
C489 H497 0.929 . S
C490 C489 1.383 . S
C490 C491 1.377 . S
C491 H475 0.930 . S
C491 C490 1.377 . S
C491 C492 1.379 . S
C492 H476 0.931 . S
C492 C486 1.383 . S
C492 C491 1.379 . S
H493 C487 0.959 . S
H494 C487 0.961 . S
H495 C487 0.960 . S
H496 C488 0.930 . S
H497 C489 0.929 . S
H498 C506 0.929 . S
H499 C508 0.930 . S
H500 C510 0.930 . S
H501 C513 0.929 . S
H502 C516 0.930 . S
H503 C518 0.960 . S
H504 C518 0.960 . S
H505 C518 0.960 . S
C506 H498 0.929 . S
C506 C507 1.377 . S
C506 C508 1.384 . S
C507 C506 1.377 . S
C507 C513 1.390 . S
C508 H499 0.930 . S
C508 C506 1.384 . S
C508 C509 1.372 . S
C509 C508 1.372 . S
C509 C510 1.400 . S
C509 C514 1.490 . S
C510 H500 0.930 . S
C510 C509 1.400 . S
C510 C513 1.386 . S
H511 C527 0.930 . S
H512 C528 0.931 1_556 S
C513 H501 0.929 . S
C513 C507 1.390 . S
C513 C510 1.386 . S
C514 C509 1.490 . S
C514 C516 1.395 . S
C514 C517 1.403 . S
H515 C521 0.930 . S
C516 H502 0.930 . S
C516 C514 1.395 . S
C516 C519 1.403 . S
C517 C514 1.403 . S
C517 C518 1.524 . S
C517 C521 1.400 . S
C518 H503 0.960 . S
C518 H504 0.960 . S
C518 H505 0.960 . S
C518 C517 1.524 . S
C519 C516 1.403 . S
C519 C520 1.392 . S
C519 C523 1.495 . S
C520 C519 1.392 . S
C520 C521 1.385 . S
C520 C522 1.478 . S
C521 H515 0.930 . S
C521 C517 1.400 . S
C521 C520 1.385 . S
C522 C520 1.478 . S
C522 C524 1.381 1_556 S
C522 C528 1.383 1_556 S
C523 C519 1.495 . S
C523 H529 0.959 . S
C523 H530 0.961 . S
C523 H531 0.960 . S
C524 C522 1.381 1_554 S
C524 C525 1.394 . S
C524 H532 0.930 . S
C525 C524 1.394 . S
C525 C526 1.383 . S
C525 H533 0.929 . S
C526 C525 1.383 . S
C526 C527 1.377 . S
C527 H511 0.930 . S
C527 C526 1.377 . S
C527 C528 1.379 . S
C528 H512 0.931 1_554 S
C528 C522 1.383 1_554 S
C528 C527 1.379 . S
H529 C523 0.959 . S
H530 C523 0.961 . S
H531 C523 0.960 . S
H532 C524 0.930 . S
H533 C525 0.929 . S
H534 C542 0.929 . S
H535 C544 0.930 . S
H536 C546 0.930 . S
H537 C549 0.929 . S
H538 C552 0.930 . S
H539 C554 0.960 . S
H540 C554 0.960 . S
H541 C554 0.960 . S
C542 H534 0.929 . S
C542 C543 1.377 . S
C542 C544 1.384 . S
C543 C542 1.377 . S
C543 C549 1.390 . S
C544 H535 0.930 . S
C544 C542 1.384 . S
C544 C545 1.372 . S
C545 C544 1.372 . S
C545 C546 1.400 . S
C545 C550 1.490 . S
C546 H536 0.930 . S
C546 C545 1.400 . S
C546 C549 1.386 . S
H547 C563 0.930 . S
H548 C564 0.931 1_554 S
C549 H537 0.929 . S
C549 C543 1.390 . S
C549 C546 1.386 . S
C550 C545 1.490 . S
C550 C552 1.395 . S
C550 C553 1.403 . S
H551 C557 0.930 . S
C552 H538 0.930 . S
C552 C550 1.395 . S
C552 C555 1.403 . S
C553 C550 1.403 . S
C553 C554 1.524 . S
C553 C557 1.400 . S
C554 H539 0.960 . S
C554 H540 0.960 . S
C554 H541 0.960 . S
C554 C553 1.524 . S
C555 C552 1.403 . S
C555 C556 1.392 . S
C555 C559 1.495 . S
C556 C555 1.392 . S
C556 C557 1.385 . S
C556 C558 1.478 . S
C557 H551 0.930 . S
C557 C553 1.400 . S
C557 C556 1.385 . S
C558 C556 1.478 . S
C558 C560 1.381 1_554 S
C558 C564 1.383 1_554 S
C559 C555 1.495 . S
C559 H565 0.959 . S
C559 H566 0.961 . S
C559 H567 0.960 . S
C560 C558 1.381 1_556 S
C560 C561 1.394 . S
C560 H568 0.930 . S
C561 C560 1.394 . S
C561 C562 1.383 . S
C561 H569 0.929 . S
C562 C561 1.383 . S
C562 C563 1.377 . S
C563 H547 0.930 . S
C563 C562 1.377 . S
C563 C564 1.379 . S
C564 H548 0.931 1_556 S
C564 C558 1.383 1_556 S
C564 C563 1.379 . S
H565 C559 0.959 . S
H566 C559 0.961 . S
H567 C559 0.960 . S
H568 C560 0.930 . S
H569 C561 0.929 . S
H570 C578 0.929 . S
H571 C580 0.930 . S
H572 C582 0.930 . S
H573 C585 0.929 . S
H574 C588 0.930 . S
H575 C590 0.960 . S
H576 C590 0.960 . S
H577 C590 0.960 . S
C578 H570 0.929 . S
C578 C579 1.377 . S
C578 C580 1.384 . S
C579 C578 1.377 . S
C579 C585 1.390 . S
C580 H571 0.930 . S
C580 C578 1.384 . S
C580 C581 1.372 . S
C581 C580 1.372 . S
C581 C582 1.400 . S
C581 C586 1.490 . S
C582 H572 0.930 . S
C582 C581 1.400 . S
C582 C585 1.386 . S
H583 C599 0.930 . S
H584 C600 0.931 . S
C585 H573 0.929 . S
C585 C579 1.390 . S
C585 C582 1.386 . S
C586 C581 1.490 . S
C586 C588 1.395 . S
C586 C589 1.403 . S
H587 C593 0.930 . S
C588 H574 0.930 . S
C588 C586 1.395 . S
C588 C591 1.403 . S
C589 C586 1.403 . S
C589 C590 1.524 . S
C589 C593 1.400 . S
C590 H575 0.960 . S
C590 H576 0.960 . S
C590 H577 0.960 . S
C590 C589 1.524 . S
C591 C588 1.403 . S
C591 C592 1.392 . S
C591 C595 1.495 . S
C592 C591 1.392 . S
C592 C593 1.385 . S
C592 C594 1.478 . S
C593 H587 0.930 . S
C593 C589 1.400 . S
C593 C592 1.385 . S
C594 C592 1.478 . S
C594 C596 1.381 . S
C594 C600 1.383 . S
C595 C591 1.495 . S
C595 H601 0.959 . S
C595 H602 0.961 . S
C595 H603 0.960 . S
C596 C594 1.381 . S
C596 C597 1.394 . S
C596 H604 0.930 . S
C597 C596 1.394 . S
C597 C598 1.383 . S
C597 H605 0.929 . S
C598 C597 1.383 . S
C598 C599 1.377 . S
C599 H583 0.930 . S
C599 C598 1.377 . S
C599 C600 1.379 . S
C600 H584 0.931 . S
C600 C594 1.383 . S
C600 C599 1.379 . S
H601 C595 0.959 . S
H602 C595 0.961 . S
H603 C595 0.960 . S
H604 C596 0.930 . S
H605 C597 0.929 . S
H606 C614 0.929 . S
H607 C616 0.930 . S
H608 C618 0.930 . S
H609 C621 0.929 . S
H610 C624 0.930 . S
H611 C626 0.960 . S
H612 C626 0.960 . S
H613 C626 0.960 . S
C614 H606 0.929 . S
C614 C615 1.377 . S
C614 C616 1.384 . S
C615 C614 1.377 . S
C615 C621 1.390 . S
C616 H607 0.930 . S
C616 C614 1.384 . S
C616 C617 1.372 . S
C617 C616 1.372 . S
C617 C618 1.400 . S
C617 C622 1.490 . S
C618 H608 0.930 . S
C618 C617 1.400 . S
C618 C621 1.386 . S
H619 C635 0.930 . S
H620 C636 0.931 . S
C621 H609 0.929 . S
C621 C615 1.390 . S
C621 C618 1.386 . S
C622 C617 1.490 . S
C622 C624 1.395 . S
C622 C625 1.403 . S
H623 C629 0.930 . S
C624 H610 0.930 . S
C624 C622 1.395 . S
C624 C627 1.403 . S
C625 C622 1.403 . S
C625 C626 1.524 . S
C625 C629 1.400 . S
C626 H611 0.960 . S
C626 H612 0.960 . S
C626 H613 0.960 . S
C626 C625 1.524 . S
C627 C624 1.403 . S
C627 C628 1.392 . S
C627 C631 1.495 . S
C628 C627 1.392 . S
C628 C629 1.385 . S
C628 C630 1.478 . S
C629 H623 0.930 . S
C629 C625 1.400 . S
C629 C628 1.385 . S
C630 C628 1.478 . S
C630 C632 1.381 . S
C630 C636 1.383 . S
C631 C627 1.495 . S
C631 H637 0.959 . S
C631 H638 0.961 . S
C631 H639 0.960 . S
C632 C630 1.381 . S
C632 C633 1.394 . S
C632 H640 0.930 . S
C633 C632 1.394 . S
C633 C634 1.383 . S
C633 H641 0.929 . S
C634 C633 1.383 . S
C634 C635 1.377 . S
C635 H619 0.930 . S
C635 C634 1.377 . S
C635 C636 1.379 . S
C636 H620 0.931 . S
C636 C630 1.383 . S
C636 C635 1.379 . S
H637 C631 0.959 . S
H638 C631 0.961 . S
H639 C631 0.960 . S
H640 C632 0.930 . S
H641 C633 0.929 . S
H642 C650 0.929 1_554 S
H643 C652 0.930 . S
H644 C654 0.930 . S
H645 C657 0.929 . S
H646 C660 0.930 . S
H647 C662 0.960 . S
H648 C662 0.960 . S
H649 C662 0.960 . S
C650 H642 0.929 1_556 S
C650 C651 1.377 . S
C650 C652 1.384 . S
C651 C650 1.377 . S
C651 C657 1.390 . S
C652 H643 0.930 . S
C652 C650 1.384 . S
C652 C653 1.372 . S
C653 C652 1.372 . S
C653 C654 1.400 . S
C653 C658 1.490 . S
C654 H644 0.930 . S
C654 C653 1.400 . S
C654 C657 1.386 . S
H655 C671 0.930 . S
H656 C672 0.931 . S
C657 H645 0.929 . S
C657 C651 1.390 . S
C657 C654 1.386 . S
C658 C653 1.490 . S
C658 C660 1.395 . S
C658 C661 1.403 . S
H659 C665 0.930 . S
C660 H646 0.930 . S
C660 C658 1.395 . S
C660 C663 1.403 . S
C661 C658 1.403 . S
C661 C662 1.524 . S
C661 C665 1.400 . S
C662 H647 0.960 . S
C662 H648 0.960 . S
C662 H649 0.960 . S
C662 C661 1.524 . S
C663 C660 1.403 . S
C663 C664 1.392 . S
C663 C667 1.495 . S
C664 C663 1.392 . S
C664 C665 1.385 . S
C664 C666 1.478 . S
C665 H659 0.930 . S
C665 C661 1.400 . S
C665 C664 1.385 . S
C666 C664 1.478 . S
C666 C668 1.381 . S
C666 C672 1.383 . S
C667 C663 1.495 . S
C667 H673 0.959 . S
C667 H674 0.961 . S
C667 H675 0.960 . S
C668 C666 1.381 . S
C668 C669 1.394 . S
C668 H676 0.930 . S
C669 C668 1.394 . S
C669 C670 1.383 . S
C669 H677 0.929 . S
C670 C669 1.383 . S
C670 C671 1.377 . S
C671 H655 0.930 . S
C671 C670 1.377 . S
C671 C672 1.379 . S
C672 H656 0.931 . S
C672 C666 1.383 . S
C672 C671 1.379 . S
H673 C667 0.959 . S
H674 C667 0.961 . S
H675 C667 0.960 . S
H676 C668 0.930 . S
H677 C669 0.929 . S
H678 C686 0.929 . S
H679 C688 0.930 . S
H680 C690 0.930 . S
H681 C693 0.929 . S
H682 C696 0.930 . S
H683 C698 0.960 . S
H684 C698 0.960 . S
H685 C698 0.960 . S
C686 H678 0.929 . S
C686 C687 1.377 . S
C686 C688 1.384 . S
C687 C686 1.377 . S
C687 C693 1.390 . S
C688 H679 0.930 . S
C688 C686 1.384 . S
C688 C689 1.372 . S
C689 C688 1.372 . S
C689 C690 1.400 . S
C689 C694 1.490 . S
C690 H680 0.930 . S
C690 C689 1.400 . S
C690 C693 1.386 . S
H691 C707 0.930 . S
H692 C708 0.931 . S
C693 H681 0.929 . S
C693 C687 1.390 . S
C693 C690 1.386 . S
C694 C689 1.490 . S
C694 C696 1.395 . S
C694 C697 1.403 . S
H695 C701 0.930 . S
C696 H682 0.930 . S
C696 C694 1.395 . S
C696 C699 1.403 . S
C697 C694 1.403 . S
C697 C698 1.524 . S
C697 C701 1.400 . S
C698 H683 0.960 . S
C698 H684 0.960 . S
C698 H685 0.960 . S
C698 C697 1.524 . S
C699 C696 1.403 . S
C699 C700 1.392 . S
C699 C703 1.495 . S
C700 C699 1.392 . S
C700 C701 1.385 . S
C700 C702 1.478 . S
C701 H695 0.930 . S
C701 C697 1.400 . S
C701 C700 1.385 . S
C702 C700 1.478 . S
C702 C704 1.381 . S
C702 C708 1.383 . S
C703 C699 1.495 . S
C703 H709 0.959 . S
C703 H710 0.961 . S
C703 H711 0.960 . S
C704 C702 1.381 . S
C704 C705 1.394 . S
C704 H712 0.930 . S
C705 C704 1.394 . S
C705 C706 1.383 . S
C705 H713 0.929 1_554 S
C706 C705 1.383 . S
C706 C707 1.377 . S
C707 H691 0.930 . S
C707 C706 1.377 . S
C707 C708 1.379 . S
C708 H692 0.931 . S
C708 C702 1.383 . S
C708 C707 1.379 . S
H709 C703 0.959 . S
H710 C703 0.961 . S
H711 C703 0.960 . S
H712 C704 0.930 . S
H713 C705 0.929 1_556 S
H714 C722 0.929 . S
H715 C724 0.930 . S
H716 C726 0.930 . S
H717 C729 0.929 . S
H718 C732 0.930 . S
H719 C734 0.960 . S
H720 C734 0.960 . S
H721 C734 0.960 . S
C722 H714 0.929 . S
C722 C723 1.377 . S
C722 C724 1.384 . S
C723 C722 1.377 . S
C723 C729 1.390 . S
C724 H715 0.930 . S
C724 C722 1.384 . S
C724 C725 1.372 . S
C725 C724 1.372 . S
C725 C726 1.400 . S
C725 C730 1.490 . S
C726 H716 0.930 . S
C726 C725 1.400 . S
C726 C729 1.386 . S
H727 C743 0.930 . S
H728 C744 0.931 . S
C729 H717 0.929 . S
C729 C723 1.390 . S
C729 C726 1.386 . S
C730 C725 1.490 . S
C730 C732 1.395 . S
C730 C733 1.403 . S
H731 C737 0.930 . S
C732 H718 0.930 . S
C732 C730 1.395 . S
C732 C735 1.403 . S
C733 C730 1.403 . S
C733 C734 1.524 . S
C733 C737 1.400 . S
C734 H719 0.960 . S
C734 H720 0.960 . S
C734 H721 0.960 . S
C734 C733 1.524 . S
C735 C732 1.403 . S
C735 C736 1.392 . S
C735 C739 1.495 . S
C736 C735 1.392 . S
C736 C737 1.385 . S
C736 C738 1.478 . S
C737 H731 0.930 . S
C737 C733 1.400 . S
C737 C736 1.385 . S
C738 C736 1.478 . S
C738 C740 1.381 . S
C738 C744 1.383 . S
C739 C735 1.495 . S
C739 H745 0.959 . S
C739 H746 0.961 . S
C739 H747 0.960 . S
C740 C738 1.381 . S
C740 C741 1.394 . S
C740 H748 0.930 . S
C741 C740 1.394 . S
C741 C742 1.383 . S
C741 H749 0.929 . S
C742 C741 1.383 . S
C742 C743 1.377 . S
C743 H727 0.930 . S
C743 C742 1.377 . S
C743 C744 1.379 . S
C744 H728 0.931 . S
C744 C738 1.383 . S
C744 C743 1.379 . S
H745 C739 0.959 . S
H746 C739 0.961 . S
H747 C739 0.960 . S
H748 C740 0.930 . S
H749 C741 0.929 . S
H750 C758 0.929 1_554 S
H751 C760 0.930 . S
H752 C762 0.930 . S
H753 C765 0.929 . S
H754 C768 0.930 . S
H755 C770 0.960 . S
H756 C770 0.960 . S
H757 C770 0.960 . S
C758 H750 0.929 1_556 S
C758 C759 1.377 . S
C758 C760 1.384 . S
C759 C758 1.377 . S
C759 C765 1.390 . S
C760 H751 0.930 . S
C760 C758 1.384 . S
C760 C761 1.372 . S
C761 C760 1.372 . S
C761 C762 1.400 . S
C761 C766 1.490 . S
C762 H752 0.930 . S
C762 C761 1.400 . S
C762 C765 1.386 . S
H763 C779 0.930 . S
H764 C780 0.931 . S
C765 H753 0.929 . S
C765 C759 1.390 . S
C765 C762 1.386 . S
C766 C761 1.490 . S
C766 C768 1.395 . S
C766 C769 1.403 . S
H767 C773 0.930 . S
C768 H754 0.930 . S
C768 C766 1.395 . S
C768 C771 1.403 . S
C769 C766 1.403 . S
C769 C770 1.524 . S
C769 C773 1.400 . S
C770 H755 0.960 . S
C770 H756 0.960 . S
C770 H757 0.960 . S
C770 C769 1.524 . S
C771 C768 1.403 . S
C771 C772 1.392 . S
C771 C775 1.495 . S
C772 C771 1.392 . S
C772 C773 1.385 . S
C772 C774 1.478 . S
C773 H767 0.930 . S
C773 C769 1.400 . S
C773 C772 1.385 . S
C774 C772 1.478 . S
C774 C776 1.381 . S
C774 C780 1.383 . S
C775 C771 1.495 . S
C775 H781 0.959 . S
C775 H782 0.961 . S
C775 H783 0.960 . S
C776 C774 1.381 . S
C776 C777 1.394 . S
C776 H784 0.930 . S
C777 C776 1.394 . S
C777 C778 1.383 . S
C777 H785 0.929 . S
C778 C777 1.383 . S
C778 C779 1.377 . S
C779 H763 0.930 . S
C779 C778 1.377 . S
C779 C780 1.379 . S
C780 H764 0.931 . S
C780 C774 1.383 . S
C780 C779 1.379 . S
H781 C775 0.959 . S
H782 C775 0.961 . S
H783 C775 0.960 . S
H784 C776 0.930 . S
H785 C777 0.929 . S
C147 C131 1.421 . S
C166 C20 1.399 . S
C183 C16 1.420 . S
C202 C43 1.406 . S
C219 C39 1.426 . S
C238 C66 1.429 . S
C255 C62 1.420 . S
C274 C89 1.396 . S
C291 C112 1.414 . S
C310 C85 1.408 . S
C327 C135 1.415 . S
C346 C108 1.410 . S
C363 C21 0.538 . S
C382 C18 0.399 . S
C399 C44 0.517 . S
C418 C41 0.422 . S
C435 C67 0.547 . S
C454 C64 0.440 . S
C471 C90 0.530 . S
C490 C87 0.402 . S
C507 C110 0.420 . S
C526 C113 0.445 . S
C543 C136 0.547 . S
C562 C133 0.440 . S
C579 C19 1.581 . S
C598 C109 1.615 . S
C615 C42 1.574 . S
C634 C132 1.596 . S
C651 C17 1.610 . S
C670 C65 1.569 . S
C687 C40 1.609 . S
C706 C88 1.585 . S
C723 C111 1.577 . S
C742 C63 1.598 . S
C759 C86 1.610 . S
C778 C134 1.568 . S
