# Generated by pormake.
# Topology ske, (6)-cn, num edge types: 1
# Building blocks:
#     Node 0, Type 0, BuildingBlock: BETFEN_clean_sbu_0, # of connection points: 6
#     Node 1, Type 0, BuildingBlock: BETFEN_clean_sbu_0, # of connection points: 6
#     Node 2, Type 0, BuildingBlock: BETFEN_clean_sbu_0, # of connection points: 6
#     Node 3, Type 0, BuildingBlock: BETFEN_clean_sbu_0, # of connection points: 6
#     Node 4, Type 0, BuildingBlock: BETFEN_clean_sbu_0, # of connection points: 6
#     Node 5, Type 0, BuildingBlock: BETFEN_clean_sbu_0, # of connection points: 6
#     Node 6, Type 0, BuildingBlock: BETFEN_clean_sbu_0, # of connection points: 6
#     Node 7, Type 0, BuildingBlock: BETFEN_clean_sbu_0, # of connection points: 6
#     Edge 8, Type (0, 0), BuildingBlock: EZIPEK_clean_linker_0, # of connection points: 2
#     Edge 9, Type (0, 0), BuildingBlock: EZIPEK_clean_linker_0, # of connection points: 2
#     Edge 10, Type (0, 0), BuildingBlock: EZIPEK_clean_linker_0, # of connection points: 2
#     Edge 11, Type (0, 0), BuildingBlock: EZIPEK_clean_linker_0, # of connection points: 2
#     Edge 12, Type (0, 0), BuildingBlock: EZIPEK_clean_linker_0, # of connection points: 2
#     Edge 13, Type (0, 0), BuildingBlock: EZIPEK_clean_linker_0, # of connection points: 2
#     Edge 14, Type (0, 0), BuildingBlock: EZIPEK_clean_linker_0, # of connection points: 2
#     Edge 15, Type (0, 0), BuildingBlock: EZIPEK_clean_linker_0, # of connection points: 2
#     Edge 16, Type (0, 0), BuildingBlock: EZIPEK_clean_linker_0, # of connection points: 2
#     Edge 17, Type (0, 0), BuildingBlock: EZIPEK_clean_linker_0, # of connection points: 2
#     Edge 18, Type (0, 0), BuildingBlock: EZIPEK_clean_linker_0, # of connection points: 2
#     Edge 19, Type (0, 0), BuildingBlock: EZIPEK_clean_linker_0, # of connection points: 2
#     Edge 20, Type (0, 0), BuildingBlock: EZIPEK_clean_linker_0, # of connection points: 2
#     Edge 21, Type (0, 0), BuildingBlock: EZIPEK_clean_linker_0, # of connection points: 2
#     Edge 22, Type (0, 0), BuildingBlock: EZIPEK_clean_linker_0, # of connection points: 2
#     Edge 23, Type (0, 0), BuildingBlock: EZIPEK_clean_linker_0, # of connection points: 2
#     Edge 24, Type (0, 0), BuildingBlock: EZIPEK_clean_linker_0, # of connection points: 2
#     Edge 25, Type (0, 0), BuildingBlock: EZIPEK_clean_linker_0, # of connection points: 2
#     Edge 26, Type (0, 0), BuildingBlock: EZIPEK_clean_linker_0, # of connection points: 2
#     Edge 27, Type (0, 0), BuildingBlock: EZIPEK_clean_linker_0, # of connection points: 2
#     Edge 28, Type (0, 0), BuildingBlock: EZIPEK_clean_linker_0, # of connection points: 2
#     Edge 29, Type (0, 0), BuildingBlock: EZIPEK_clean_linker_0, # of connection points: 2
#     Edge 30, Type (0, 0), BuildingBlock: EZIPEK_clean_linker_0, # of connection points: 2
#     Edge 31, Type (0, 0), BuildingBlock: EZIPEK_clean_linker_0, # of connection points: 2
# Relax obj value: 0.203
# Max RMSD: 0.211
# Mean RMSD: 0.204
data_MOF--net-ske--node1-BETFEN_clean_sbu_0--edge1-EZIPEK_clean_linker_0
_symmetry_space_group_name_H-M    P1
_symmetry_Int_Tables_number       1
_symmetry_cell_setting            triclinic
loop_
_symmetry_equiv_pos_as_xyz
'x, y, z'
_cell_length_a     88.76743
_cell_length_b     21.528798
_cell_length_c     11.702861
_cell_angle_alpha  89.880993
_cell_angle_beta   90.316039
_cell_angle_gamma 84.88697
loop_
_atom_site_label
_atom_site_type_symbol
_atom_site_fract_x
_atom_site_fract_y
_atom_site_fract_z
_atom_type_partial_charge
Pr0 Pr 0.16191 0.24804 0.54405 0.0
Pr1 Pr 0.12392 0.25311 0.54474 0.0
C2 C 0.19013 0.28493 0.54324 0.0
C3 C 0.20528 0.2761 0.59588 0.0
C4 C 0.21011 0.22196 0.65789 0.0
C5 C 0.22477 0.21452 0.70433 0.0
C6 C 0.23472 0.26113 0.68926 0.0
C7 C 0.2298 0.31534 0.62808 0.0
C8 C 0.21519 0.32273 0.58182 0.0
C9 C 0.15129 0.12716 0.54568 0.0
C10 C 0.14423 0.24631 0.79516 0.0
C11 C 0.09565 0.21658 0.55255 0.0
C12 C 0.07931 0.2301 0.52692 0.0
C13 C 0.07073 0.28107 0.57655 0.0
C14 C 0.05496 0.28788 0.5639 0.0
C15 C 0.04752 0.24393 0.50156 0.0
C16 C 0.0561 0.19424 0.4488 0.0
C17 C 0.07186 0.18736 0.46154 0.0
C18 C 0.13367 0.37391 0.52244 0.0
C19 C 0.14263 0.24993 0.29572 0.0
O20 O 0.17918 0.31204 0.60531 0.0
O21 O 0.1859 0.23988 0.47845 0.0
O22 O 0.14391 0.17992 0.54877 0.0
O23 O 0.16563 0.13643 0.54753 0.0
O24 O 0.13099 0.24525 0.74136 0.0
O25 O 0.15724 0.2473 0.74061 0.0
O26 O 0.10494 0.20199 0.46806 0.0
O27 O 0.10162 0.24811 0.63434 0.0
O28 O 0.1417 0.32252 0.53224 0.0
O29 O 0.11944 0.36331 0.52306 0.0
O30 O 0.15537 0.25986 0.34991 0.0
O31 O 0.12982 0.24102 0.34916 0.0
H32 H 0.2026 0.18551 0.66978 0.0
H33 H 0.22839 0.17243 0.7515 0.0
H34 H 0.23731 0.35174 0.61568 0.0
H35 H 0.21166 0.36481 0.53423 0.0
H36 H 0.07611 0.31463 0.62795 0.0
H37 H 0.0485 0.32644 0.60542 0.0
H38 H 0.05055 0.15976 0.40077 0.0
H39 H 0.07818 0.14733 0.42347 0.0
Pr40 Pr 0.8693 0.25704 0.5294 0.0
Pr41 Pr 0.90561 0.25606 0.53725 0.0
C42 C 0.84013 0.2311 0.54238 0.0
C43 C 0.82556 0.23836 0.60404 0.0
C44 C 0.81793 0.29739 0.62469 0.0
C45 C 0.8033 0.30246 0.6703 0.0
C46 C 0.79608 0.2487 0.69582 0.0
C47 C 0.80384 0.18986 0.67841 0.0
C48 C 0.81844 0.18476 0.63279 0.0
C49 C 0.8805 0.375 0.51226 0.0
C50 C 0.88671 0.25763 0.78512 0.0
C51 C 0.93386 0.29278 0.54628 0.0
C52 C 0.95005 0.28173 0.51789 0.0
C53 C 0.95748 0.22132 0.51438 0.0
C54 C 0.97325 0.21292 0.50269 0.0
C55 C 0.98177 0.26479 0.495 0.0
C56 C 0.97426 0.32495 0.4944 0.0
C57 C 0.95853 0.3333 0.50561 0.0
C58 C 0.89737 0.13245 0.51633 0.0
C59 C 0.88775 0.25054 0.28531 0.0
O60 O 0.85131 0.19495 0.58669 0.0
O61 O 0.84453 0.27935 0.48776 0.0
O62 O 0.88591 0.33084 0.57625 0.0
O63 O 0.86808 0.36062 0.46393 0.0
O64 O 0.89975 0.26233 0.73288 0.0
O65 O 0.87382 0.2543 0.72861 0.0
O66 O 0.92418 0.31118 0.46543 0.0
O67 O 0.92845 0.25595 0.62209 0.0
O68 O 0.88888 0.18238 0.52088 0.0
O69 O 0.91135 0.14586 0.522 0.0
O70 O 0.87585 0.23227 0.33947 0.0
O71 O 0.89959 0.26912 0.34104 0.0
H72 H 0.8231 0.33955 0.60303 0.0
H73 H 0.79748 0.34826 0.68328 0.0
H74 H 0.79845 0.14789 0.69763 0.0
H75 H 0.82401 0.13878 0.61679 0.0
H76 H 0.95117 0.18084 0.52412 0.0
H77 H 0.97887 0.16614 0.50328 0.0
H78 H 0.98063 0.36549 0.48869 0.0
H79 H 0.95303 0.38026 0.50885 0.0
Pr80 Pr 0.12416 0.74803 0.50651 0.0
Pr81 Pr 0.16186 0.75162 0.50713 0.0
C82 C 0.0963 0.70727 0.50391 0.0
C83 C 0.07988 0.72183 0.52218 0.0
C84 C 0.0715 0.76977 0.46138 0.0
C85 C 0.05571 0.77742 0.47011 0.0
C86 C 0.04808 0.73732 0.5396 0.0
C87 C 0.05646 0.6908 0.60307 0.0
C88 C 0.07222 0.6831 0.59431 0.0
C89 C 0.13255 0.87202 0.52222 0.0
C90 C 0.143 0.74851 0.75495 0.0
C91 C 0.18972 0.79202 0.50828 0.0
C92 C 0.20512 0.78303 0.46065 0.0
C93 C 0.21195 0.7236 0.43292 0.0
C94 C 0.22683 0.71675 0.39203 0.0
C95 C 0.23502 0.76919 0.37838 0.0
C96 C 0.22811 0.82849 0.40502 0.0
C97 C 0.21329 0.83531 0.44582 0.0
C98 C 0.15319 0.62752 0.49666 0.0
C99 C 0.14342 0.74823 0.25659 0.0
O100 O 0.10521 0.70216 0.59372 0.0
O101 O 0.10248 0.73128 0.41444 0.0
O102 O 0.14096 0.82167 0.51651 0.0
O103 O 0.11852 0.85848 0.52105 0.0
O104 O 0.15492 0.76716 0.70075 0.0
O105 O 0.13104 0.73042 0.69987 0.0
O106 O 0.17885 0.8152 0.44018 0.0
O107 O 0.18555 0.74958 0.57927 0.0
O108 O 0.14492 0.67825 0.49884 0.0
O109 O 0.16725 0.64059 0.49729 0.0
O110 O 0.13066 0.73938 0.31082 0.0
O111 O 0.15624 0.75736 0.31032 0.0
H112 H 0.07708 0.80024 0.40484 0.0
H113 H 0.04939 0.81351 0.42035 0.0
H114 H 0.05075 0.65932 0.65677 0.0
H115 H 0.07841 0.64552 0.64128 0.0
H116 H 0.20584 0.68262 0.44348 0.0
H117 H 0.23198 0.67066 0.3714 0.0
H118 H 0.23425 0.86944 0.3947 0.0
H119 H 0.20822 0.88151 0.46682 0.0
Pr120 Pr 0.90541 0.75064 0.50722 0.0
Pr121 Pr 0.86884 0.75597 0.50313 0.0
C122 C 0.93457 0.77171 0.47472 0.0
C123 C 0.95071 0.76505 0.50823 0.0
C124 C 0.9586 0.70631 0.52715 0.0
C125 C 0.97434 0.70101 0.54195 0.0
C126 C 0.9824 0.75427 0.5376 0.0
C127 C 0.97445 0.81306 0.5231 0.0
C128 C 0.95874 0.81837 0.50855 0.0
C129 C 0.89336 0.63608 0.54426 0.0
C130 C 0.88785 0.757 0.7539 0.0
C131 C 0.84039 0.72097 0.507 0.0
C132 C 0.82496 0.73098 0.45857 0.0
C133 C 0.81718 0.79068 0.45003 0.0
C134 C 0.80223 0.79776 0.40949 0.0
C135 C 0.79488 0.74532 0.37705 0.0
C136 C 0.80271 0.68592 0.38425 0.0
C137 C 0.81761 0.67883 0.42481 0.0
C138 C 0.87847 0.87815 0.50145 0.0
C139 C 0.886 0.75963 0.25346 0.0
O140 O 0.92513 0.81003 0.53206 0.0
O141 O 0.9285 0.72292 0.43429 0.0
O142 O 0.88824 0.67815 0.47493 0.0
O143 O 0.90583 0.65132 0.59176 0.0
O144 O 0.87572 0.74114 0.69821 0.0
O145 O 0.9002 0.77128 0.70047 0.0
O146 O 0.851 0.69454 0.44145 0.0
O147 O 0.84512 0.76371 0.57461 0.0
O148 O 0.88629 0.82657 0.50347 0.0
O149 O 0.86429 0.86717 0.49401 0.0
O150 O 0.89906 0.75937 0.3095 0.0
O151 O 0.87287 0.7577 0.30567 0.0
H152 H 0.95269 0.66439 0.52682 0.0
H153 H 0.98031 0.65525 0.55296 0.0
H154 H 0.98048 0.85461 0.51923 0.0
H155 H 0.95293 0.86406 0.49308 0.0
H156 H 0.82259 0.83167 0.47551 0.0
H157 H 0.79635 0.84398 0.40405 0.0
H158 H 0.79723 0.645 0.35936 0.0
H159 H 0.82336 0.63237 0.43114 0.0
Pr160 Pr 0.65971 0.74848 0.02978 0.0
Pr161 Pr 0.62596 0.76025 0.03569 0.0
C162 C 0.68984 0.75818 0.04446 0.0
C163 C 0.70378 0.7607 0.11371 0.0
C164 C 0.70982 0.7093 0.17896 0.0
C165 C 0.7242 0.70929 0.229 0.0
C166 C 0.73275 0.7605 0.21435 0.0
C167 C 0.72651 0.81274 0.15309 0.0
C168 C 0.71216 0.81279 0.10312 0.0
C169 C 0.6473 0.63391 1.00979 0.0
C170 C 0.64259 0.75015 0.28312 0.0
C171 C 0.59583 0.75535 1.02117 0.0
C172 C 0.5792 0.75426 1.01501 0.0
C173 C 0.56973 0.80192 0.06673 0.0
C174 C 0.55402 0.80063 0.06365 0.0
C175 C 0.54749 0.75183 1.00851 0.0
C176 C 0.55685 0.70432 0.95607 0.0
C177 C 0.57261 0.70545 0.95945 0.0
C178 C 0.63847 0.87477 0.04974 0.0
C179 C 0.64309 0.75569 0.7807 0.0
O180 O 0.67985 0.8066 0.04314 0.0
O181 O 0.68385 0.70511 0.03522 0.0
O182 O 0.64281 0.67605 0.08023 0.0
O183 O 0.65864 0.64967 0.95032 0.0
O184 O 0.6303 0.73663 0.22838 0.0
O185 O 0.65478 0.76353 0.227 0.0
O186 O 0.60533 0.70992 0.98443 0.0
O187 O 0.60208 0.80284 0.06391 0.0
O188 O 0.64278 0.83159 0.98118 0.0
O189 O 0.62728 0.85992 0.11143 0.0
O190 O 0.65576 0.76492 0.83431 0.0
O191 O 0.63054 0.74795 0.83721 0.0
H192 H 0.70368 0.66831 0.18817 0.0
H193 H 0.72886 0.66855 0.27596 0.0
H194 H 0.73297 0.8526 0.14081 0.0
H195 H 0.70784 0.85268 0.05234 0.0
H196 H 0.57446 0.84006 0.11047 0.0
H197 H 0.54695 0.8376 0.10462 0.0
H198 H 0.55196 0.66627 0.91327 0.0
H199 H 0.57961 0.6681 0.91896 0.0
Pr200 Pr 0.36985 0.75329 0.03539 0.0
Pr201 Pr 0.40388 0.74145 0.04284 0.0
C202 C 0.33997 0.73844 0.04675 0.0
C203 C 0.3257 0.74116 0.11159 0.0
C204 C 0.32087 0.79229 0.18092 0.0
C205 C 0.30648 0.79607 0.23092 0.0
C206 C 0.29678 0.74895 0.21181 0.0
C207 C 0.30179 0.69721 0.14525 0.0
C208 C 0.31613 0.69333 0.09575 0.0
C209 C 0.38221 0.86866 1.01929 0.0
C210 C 0.38715 0.74738 0.29164 0.0
C211 C 0.43392 0.74722 0.02654 0.0
C212 C 0.45049 0.74916 1.01715 0.0
C213 C 0.4598 0.69429 0.99444 0.0
C214 C 0.47552 0.69519 0.99066 0.0
C215 C 0.48219 0.75096 1.00907 0.0
C216 C 0.47295 0.80603 0.03021 0.0
C217 C 0.45721 0.80514 0.03443 0.0
C218 C 0.39138 0.62713 0.06055 0.0
C219 C 0.38651 0.74922 0.78935 0.0
O220 O 0.35047 0.69363 0.06976 0.0
O221 O 0.34531 0.79068 1.0167 0.0
O222 O 0.38689 0.82495 0.08658 0.0
O223 O 0.37033 0.85468 0.96317 0.0
O224 O 0.40013 0.75178 0.23941 0.0
O225 O 0.37438 0.7437 0.23427 0.0
O226 O 0.42489 0.79445 0.06225 0.0
O227 O 0.42723 0.69782 0.99808 0.0
O228 O 0.38695 0.67019 0.99102 0.0
O229 O 0.40279 0.64206 0.12096 0.0
O230 O 0.37432 0.73375 0.84194 0.0
O231 O 0.39856 0.76293 0.84752 0.0
H232 H 0.32803 0.82984 0.19422 0.0
H233 H 0.30276 0.83639 0.28202 0.0
H234 H 0.29444 0.66052 0.12952 0.0
H235 H 0.3196 0.65368 0.04213 0.0
H236 H 0.45496 0.65041 0.9812 0.0
H237 H 0.4825 0.65229 0.97435 0.0
H238 H 0.47795 0.84946 0.04465 0.0
H239 H 0.45033 0.84811 0.05206 0.0
Pr240 Pr 0.62537 0.25124 1.00442 0.0
Pr241 Pr 0.66053 0.25616 1.01374 0.0
C242 C 0.5965 0.22041 1.00906 0.0
C243 C 0.58031 0.2328 0.03944 0.0
C244 C 0.57149 0.28535 0.99641 0.0
C245 C 0.55572 0.29033 1.00747 0.0
C246 C 0.5485 0.24302 0.06186 0.0
C247 C 0.55732 0.19201 0.10956 0.0
C248 C 0.57309 0.1869 0.09821 0.0
C249 C 0.6349 0.37273 0.99964 0.0
C250 C 0.64245 0.25269 0.25972 0.0
C251 C 0.68932 0.28731 1.00036 0.0
C252 C 0.70422 0.27643 0.94323 0.0
C253 C 0.71453 0.22557 0.97427 0.0
C254 C 0.72923 0.2199 0.9303 0.0
C255 C 0.73392 0.265 0.85486 0.0
C256 C 0.7236 0.31501 0.8216 0.0
C257 C 0.7089 0.32079 0.86563 0.0
C258 C 0.65107 0.13526 0.02642 0.0
C259 C 0.6436 0.25042 0.75857 0.0
O260 O 0.6065 0.20115 0.08704 0.0
O261 O 0.60192 0.25468 0.92947 0.0
O262 O 0.64072 0.32768 0.05868 0.0
O263 O 0.62228 0.35755 0.95576 0.0
O264 O 0.65465 0.26967 0.20796 0.0
O265 O 0.63033 0.23914 0.20175 0.0
O266 O 0.67806 0.31691 0.94402 0.0
O267 O 0.68506 0.24391 0.06839 0.0
O268 O 0.64522 0.17889 0.96371 0.0
O269 O 0.66375 0.15119 0.06805 0.0
O270 O 0.63135 0.23494 0.81122 0.0
O271 O 0.65575 0.26404 0.81571 0.0
H272 H 0.57668 0.32135 0.94999 0.0
H273 H 0.54909 0.32994 0.96986 0.0
H274 H 0.55194 0.15492 0.15134 0.0
H275 H 0.57958 0.14558 0.13084 0.0
H276 H 0.7114 0.19092 0.03481 0.0
H277 H 0.73706 0.18103 0.95698 0.0
H278 H 0.72704 0.35032 0.7636 0.0
H279 H 0.70133 0.36093 0.84131 0.0
Pr280 Pr 0.40605 0.2463 1.00102 0.0
Pr281 Pr 0.36964 0.24527 0.99619 0.0
C282 C 0.43513 0.27004 0.97164 0.0
C283 C 0.45119 0.2636 1.0085 0.0
C284 C 0.45929 0.20484 1.02296 0.0
C285 C 0.47498 0.20016 0.04132 0.0
C286 C 0.48281 0.25405 0.04519 0.0
C287 C 0.47466 0.31271 0.03498 0.0
C288 C 0.459 0.31741 1.01674 0.0
C289 C 0.39514 0.12952 0.03871 0.0
C290 C 0.3885 0.24999 0.24721 0.0
C291 C 0.34155 0.2061 0.99713 0.0
C292 C 0.32596 0.21917 0.95407 0.0
C293 C 0.32272 0.25485 0.85487 0.0
C294 C 0.30788 0.26318 0.81225 0.0
C295 C 0.29614 0.23596 0.86836 0.0
C296 C 0.29938 0.20114 0.96835 0.0
C297 C 0.31418 0.19282 1.0108 0.0
C298 C 0.37767 0.36934 0.99958 0.0
C299 C 0.38684 0.25344 0.74706 0.0
O300 O 0.42541 0.3074 0.02847 0.0
O301 O 0.42932 0.22125 0.92881 0.0
O302 O 0.38969 0.17046 0.96855 0.0
O303 O 0.40726 0.14729 0.08761 0.0
O304 O 0.37663 0.23149 0.1915 0.0
O305 O 0.40063 0.26652 0.19368 0.0
O306 O 0.35192 0.18747 0.92259 0.0
O307 O 0.34633 0.24346 0.07487 0.0
O308 O 0.38621 0.31955 0.99863 0.0
O309 O 0.36371 0.35547 0.99227 0.0
O310 O 0.3998 0.25584 0.80339 0.0
O311 O 0.37381 0.24873 0.79909 0.0
H312 H 0.4536 0.16252 1.01649 0.0
H313 H 0.48109 0.15448 0.0488 0.0
H314 H 0.48051 0.35477 0.03732 0.0
H315 H 0.45306 0.36317 1.00474 0.0
H316 H 0.33167 0.27548 0.80979 0.0
H317 H 0.30556 0.29025 0.73501 0.0
H318 H 0.29047 0.17981 1.01265 0.0
H319 H 0.31648 0.16495 0.08717 0.0
C320 C 0.254 0.28657 0.83635 0.0
C321 C 0.25039 0.25341 0.73658 0.0
C322 C 0.27653 0.20554 0.72779 0.0
C323 C 0.28043 0.24274 0.82166 0.0
N324 N 0.27357 0.32522 0.95554 0.0
N325 N 0.25852 0.18848 0.57687 0.0
C326 C 0.26934 0.2851 0.87333 0.0
C327 C 0.26175 0.21477 0.67941 0.0
N328 N 0.24268 0.31804 0.89755 0.0
N329 N 0.28684 0.16005 0.68709 0.0
H330 H 0.24779 0.19353 0.53935 0.0
H331 H 0.2667 0.16575 0.52457 0.0
H332 H 0.29783 0.15235 0.71934 0.0
H333 H 0.28419 0.12674 0.62767 0.0
H334 H 0.24432 0.33752 0.97751 0.0
H335 H 0.23134 0.32033 0.87279 0.0
H336 H 0.26639 0.36181 0.98778 0.0
H337 H 0.28468 0.3252 0.98523 0.0
C338 C 0.75331 0.23982 0.70157 0.0
C339 C 0.74985 0.2611 0.81387 0.0
C340 C 0.77683 0.27034 0.85155 0.0
C341 C 0.78013 0.25376 0.73649 0.0
N342 N 0.77137 0.23255 0.54628 0.0
N343 N 0.7578 0.30609 0.99035 0.0
C344 C 0.76831 0.24121 0.65983 0.0
C345 C 0.76148 0.27902 0.88744 0.0
N346 N 0.74233 0.21655 0.63599 0.0
N347 N 0.7884 0.27588 0.92743 0.0
H348 H 0.74672 0.31281 1.02 0.0
H349 H 0.76554 0.32648 0.04231 0.0
H350 H 0.79976 0.27043 0.90402 0.0
H351 H 0.78683 0.28095 1.01512 0.0
H352 H 0.74449 0.19387 0.55853 0.0
H353 H 0.73119 0.21537 0.66327 0.0
H354 H 0.76303 0.23001 0.484 0.0
H355 H 0.7822 0.23311 0.51247 0.0
C356 C 0.26902 0.77935 0.18351 0.0
C357 C 0.28101 0.75498 0.25598 0.0
C358 C 0.26295 0.74256 0.41085 0.0
C359 C 0.25086 0.76255 0.33558 0.0
N360 N 0.242 0.79092 0.14592 0.0
N361 N 0.28947 0.70559 0.43269 0.0
C362 C 0.2538 0.77848 0.22059 0.0
C363 C 0.278 0.73436 0.36812 0.0
N364 N 0.27223 0.8047 0.08014 0.0
N365 N 0.26009 0.73337 0.52404 0.0
H366 H 0.30068 0.7003 0.40527 0.0
H367 H 0.28779 0.68309 0.50977 0.0
H368 H 0.24921 0.7381 0.55811 0.0
H369 H 0.26852 0.72556 0.5859 0.0
H370 H 0.26417 0.82953 0.02886 0.0
H371 H 0.28322 0.80522 0.04915 0.0
H372 H 0.24335 0.79614 0.05823 0.0
H373 H 0.23071 0.79099 0.17011 0.0
C374 C 0.75168 0.7683 0.37378 0.0
C375 C 0.74865 0.75786 0.25653 0.0
C376 C 0.7759 0.74731 0.21676 0.0
C377 C 0.77893 0.75207 0.33541 0.0
N378 N 0.76993 0.75885 0.5294 0.0
N379 N 0.75768 0.72832 0.06855 0.0
C380 C 0.76687 0.76047 0.41474 0.0
C381 C 0.76072 0.74495 0.17848 0.0
N382 N 0.74004 0.7872 0.44531 0.0
N383 N 0.78752 0.74662 0.14042 0.0
H384 H 0.74673 0.72638 0.03695 0.0
H385 H 0.76598 0.71154 1.01115 0.0
H386 H 0.79879 0.74791 0.1654 0.0
H387 H 0.78593 0.75008 0.05236 0.0
H388 H 0.74161 0.80219 0.5287 0.0
H389 H 0.72877 0.79258 0.41849 0.0
H390 H 0.76165 0.75758 0.59175 0.0
H391 H 0.78091 0.75406 0.5626 0.0
C392 C 0.13055 0.98118 0.60569 0.0
C393 C 0.13739 0.93749 0.52624 0.0
C394 C 0.15242 0.02003 0.45212 0.0
C395 C 0.14521 0.06412 0.52997 0.0
N396 N 0.12376 0.08921 0.65323 0.0
N397 N 0.15207 0.92053 0.35483 0.0
C398 C 0.13313 0.04561 0.59788 0.0
C399 C 0.14768 0.95821 0.44473 0.0
N400 N 0.12208 0.96087 0.69305 0.0
N401 N 0.16349 0.03773 0.38155 0.0
H402 H 0.14834 0.87651 0.34338 0.0
H403 H 0.1582 0.93485 0.28548 0.0
H404 H 0.16548 0.08416 0.36815 0.0
H405 H 0.17086 0.00617 0.33722 0.0
H406 H 0.11833 0.98905 0.76129 0.0
H407 H 0.12014 0.91431 0.70402 0.0
H408 H 0.11382 0.07885 0.6932 0.0
H409 H 0.12489 0.13671 0.64926 0.0
C410 C 0.89587 0.46388 0.4566 0.0
C411 C 0.88416 0.44138 0.52319 0.0
C412 C 0.87713 0.54847 0.59051 0.0
C413 C 0.88987 0.5695 0.53413 0.0
N414 N 0.91216 0.54621 0.41917 0.0
N415 N 0.86452 0.46102 0.66321 0.0
C416 C 0.89952 0.52675 0.46943 0.0
C417 C 0.87505 0.48342 0.59296 0.0
N418 N 0.90295 0.42622 0.37592 0.0
N419 N 0.86673 0.59089 0.6388 0.0
H420 H 0.86233 0.41425 0.66482 0.0
H421 H 0.85876 0.48768 0.72598 0.0
H422 H 0.86783 0.63857 0.63752 0.0
H423 H 0.85637 0.5797 0.67057 0.0
H424 H 0.91037 0.44147 0.31554 0.0
H425 H 0.9003 0.38079 0.36241 0.0
H426 H 0.92069 0.51575 0.38447 0.0
H427 H 0.91459 0.59267 0.41729 0.0
C428 C 0.89623 0.95942 0.4418 0.0
C429 C 0.88413 0.94196 0.51094 0.0
C430 C 0.88185 0.04814 0.59384 0.0
C431 C 0.89247 0.0674 0.51356 0.0
N432 N 0.90805 0.04284 0.34878 0.0
N433 N 0.86539 0.97072 0.65524 0.0
C434 C 0.89925 0.0233 0.43483 0.0
C435 C 0.87685 0.98689 0.58678 0.0
N436 N 0.9051 0.91535 0.38334 0.0
N437 N 0.87734 0.08667 0.68236 0.0
H438 H 0.8629 0.92484 0.66791 0.0
H439 H 0.85805 0.00321 0.69774 0.0
H440 H 0.88112 0.13064 0.69348 0.0
H441 H 0.87102 0.0731 0.75126 0.0
H442 H 0.9152 0.92436 0.34433 0.0
H443 H 0.90324 0.86852 0.38144 0.0
H444 H 0.91167 0.01483 0.27999 0.0
H445 H 0.91056 0.08884 0.33971 0.0
C446 C 0.13879 0.54003 0.41508 0.0
C447 C 0.14808 0.56252 0.50274 0.0
C448 C 0.14728 0.46229 0.60521 0.0
C449 C 0.13913 0.43797 0.51345 0.0
N450 N 0.12788 0.45195 0.32645 0.0
N451 N 0.16274 0.54132 0.67542 0.0
C452 C 0.135 0.47663 0.41747 0.0
C453 C 0.15287 0.5223 0.59543 0.0
N454 N 0.13369 0.57919 0.32858 0.0
N455 N 0.14866 0.4301 0.70592 0.0
H456 H 0.16626 0.58609 0.67778 0.0
H457 H 0.16819 0.51135 0.73558 0.0
H458 H 0.14414 0.38751 0.71778 0.0
H459 H 0.15277 0.44844 0.78097 0.0
H460 H 0.12535 0.56941 0.27017 0.0
H461 H 0.13738 0.62328 0.31788 0.0
H462 H 0.126 0.47455 0.24835 0.0
H463 H 0.1248 0.40634 0.32539 0.0
C464 C 0.6337 0.54644 0.93049 0.0
C465 C 0.64343 0.56808 1.01467 0.0
C466 C 0.65019 0.45999 0.07815 0.0
C467 C 0.63973 0.43836 0.99719 0.0
N468 N 0.62707 0.45994 0.81587 0.0
N469 N 0.65945 0.54779 0.17925 0.0
C470 C 0.63295 0.48134 0.9151 0.0
C471 C 0.65121 0.52547 0.09177 0.0
N472 N 0.62473 0.58839 0.86701 0.0
N473 N 0.66029 0.41863 0.1335 0.0
H474 H 0.66092 0.59501 0.18905 0.0
H475 H 0.66372 0.52059 0.24771 0.0
H476 H 0.6618 0.37166 0.11336 0.0
H477 H 0.66887 0.43158 0.18694 0.0
H478 H 0.61602 0.57598 0.81403 0.0
H479 H 0.62504 0.63632 0.8759 0.0
H480 H 0.62339 0.48887 0.748 0.0
H481 H 0.62788 0.41301 0.79349 0.0
C482 C 0.39946 0.95339 0.97952 0.0
C483 C 0.38614 0.93442 0.03091 0.0
C484 C 0.37812 0.04372 0.07805 0.0
C485 C 0.39186 0.06249 0.03324 0.0
N486 N 0.41608 0.03506 0.9452 0.0
N487 N 0.36412 0.95934 0.14688 0.0
C488 C 0.40271 0.01713 0.98579 0.0
C489 C 0.37585 0.97906 0.08511 0.0
N490 N 0.40866 0.91084 0.92002 0.0
N491 N 0.36704 0.08781 0.11169 0.0
H492 H 0.36211 0.9125 0.15421 0.0
H493 H 0.3572 0.98846 0.19926 0.0
H494 H 0.36835 0.13524 0.10901 0.0
H495 H 0.35612 0.07799 0.1328 0.0
H496 H 0.41752 0.9222 0.8684 0.0
H497 H 0.40689 0.86377 0.91698 0.0
H498 H 0.42532 0.00396 0.92483 0.0
H499 H 0.41825 0.08153 0.9353 0.0
C500 C 0.3943 0.45758 0.95832 0.0
C501 C 0.38227 0.43386 1.02036 0.0
C502 C 0.37678 0.53643 0.11257 0.0
C503 C 0.38819 0.56079 0.04612 0.0
N504 N 0.40751 0.54719 0.90271 0.0
N505 N 0.36522 0.44553 0.18059 0.0
C506 C 0.39695 0.52188 0.96883 0.0
C507 C 0.37428 0.47207 0.10355 0.0
N508 N 0.40356 0.41837 0.89245 0.0
N509 N 0.36815 0.57532 0.18336 0.0
H510 H 0.36392 0.39792 0.18307 0.0
H511 H 0.36027 0.46884 0.25058 0.0
H512 H 0.37031 0.62147 0.19783 0.0
H513 H 0.3583 0.56345 0.22249 0.0
H514 H 0.41353 0.43039 0.85557 0.0
H515 H 0.40199 0.37165 0.88035 0.0
H516 H 0.41294 0.52475 0.83374 0.0
H517 H 0.41037 0.59279 0.91273 0.0
C518 C 0.63495 0.0469 0.96485 0.0
C519 C 0.64604 0.07032 0.03845 0.0
C520 C 0.65241 0.9643 0.11427 0.0
C521 C 0.64199 0.94066 0.03772 0.0
N522 N 0.62421 0.95668 0.8825 0.0
N523 N 0.65967 0.05359 0.21748 0.0
C524 C 0.63352 0.98124 0.96071 0.0
C525 C 0.65325 0.02964 0.12262 0.0
N526 N 0.62479 0.08722 0.90763 0.0
N527 N 0.66188 0.92405 0.17753 0.0
H528 H 0.65893 0.101 0.23603 0.0
H529 H 0.66373 0.02637 0.28662 0.0
H530 H 0.66154 0.87587 0.17404 0.0
H531 H 0.67099 0.93796 0.22459 0.0
H532 H 0.61587 0.07356 0.85854 0.0
H533 H 0.6237 0.13491 0.92166 0.0
H534 H 0.61924 0.98152 0.81365 0.0
H535 H 0.62234 0.90954 0.88085 0.0
C536 C 0.14804 0.29965 0.10651 0.0
C537 C 0.14291 0.24865 0.16777 0.0
C538 C 0.13859 0.19583 0.98513 0.0
C539 C 0.14449 0.24551 0.92397 0.0
N540 N 0.15846 0.33722 0.93208 0.0
N541 N 0.13637 0.14235 0.1666 0.0
C542 C 0.15033 0.29504 0.98626 0.0
C543 C 0.1389 0.19526 0.10738 0.0
N544 N 0.15018 0.35391 0.16241 0.0
N545 N 0.13305 0.14798 0.92643 0.0
H546 H 0.137 0.13919 0.25545 0.0
H547 H 0.13504 0.09966 0.12799 0.0
H548 H 0.13451 0.14205 0.8389 0.0
H549 H 0.12663 0.11532 0.96385 0.0
H550 H 0.15196 0.39534 0.12049 0.0
H551 H 0.14878 0.35948 0.2502 0.0
H552 H 0.16445 0.36943 0.9754 0.0
H553 H 0.1606 0.33656 0.84504 0.0
C554 C 0.89796 0.21283 0.09316 0.0
C555 C 0.88754 0.25272 0.15707 0.0
C556 C 0.8774 0.29986 0.97679 0.0
C557 C 0.88671 0.25548 0.91322 0.0
N558 N 0.90369 0.16149 0.91235 0.0
N559 N 0.86621 0.33068 0.15885 0.0
C560 C 0.89643 0.20979 0.97187 0.0
C561 C 0.87685 0.29481 0.09845 0.0
N562 N 0.90947 0.17814 0.14783 0.0
N563 N 0.86975 0.34917 0.92161 0.0
H564 H 0.86606 0.33229 0.24772 0.0
H565 H 0.85696 0.35606 0.1209 0.0
H566 H 0.87019 0.35545 0.83347 0.0
H567 H 0.86414 0.38696 0.96365 0.0
H568 H 0.91836 0.15356 0.10505 0.0
H569 H 0.9109 0.17827 0.23612 0.0
H570 H 0.90956 0.12305 0.9515 0.0
H571 H 0.90262 0.15647 0.82416 0.0
C572 C 0.13318 0.79101 0.06697 0.0
C573 C 0.14331 0.74803 0.12822 0.0
C574 C 0.15407 0.7088 0.94523 0.0
C575 C 0.14304 0.74799 0.88373 0.0
N576 N 0.12054 0.81989 0.88804 0.0
N577 N 0.16153 0.65811 0.12507 0.0
C578 C 0.13208 0.78683 0.94533 0.0
C579 C 0.1533 0.70496 0.06712 0.0
N580 N 0.12515 0.83819 0.1244 0.0
N581 N 0.16531 0.67486 0.88742 0.0
H582 H 0.16112 0.65296 0.21358 0.0
H583 H 0.16768 0.62095 0.08504 0.0
H584 H 0.16583 0.67308 0.79865 0.0
H585 H 0.17471 0.65166 0.92738 0.0
H586 H 0.11893 0.87525 0.08381 0.0
H587 H 0.12584 0.84384 0.2127 0.0
H588 H 0.11124 0.84285 0.92866 0.0
H589 H 0.11961 0.82072 0.79939 0.0
C590 C 0.88757 0.81534 0.94158 0.0
C591 C 0.88755 0.75784 0.88198 0.0
C592 C 0.88518 0.70268 0.06532 0.0
C593 C 0.88623 0.75949 0.12535 0.0
N594 N 0.88919 0.8695 0.1229 0.0
N595 N 0.88835 0.64571 0.88663 0.0
C596 C 0.8877 0.81567 0.0639 0.0
C597 C 0.88681 0.70124 0.94381 0.0
N598 N 0.88672 0.86998 0.88096 0.0
N599 N 0.88245 0.65005 0.12463 0.0
H600 H 0.88965 0.64275 0.79831 0.0
H601 H 0.88956 0.60235 0.92668 0.0
H602 H 0.88187 0.64848 0.21359 0.0
H603 H 0.87976 0.60894 0.08603 0.0
H604 H 0.88504 0.91395 0.91788 0.0
H605 H 0.88663 0.8716 0.79188 0.0
H606 H 0.89225 0.91042 0.08562 0.0
H607 H 0.88796 0.87251 0.21124 0.0
C608 C 0.64224 0.69526 0.47362 0.0
C609 C 0.64258 0.75162 0.41067 0.0
C610 C 0.64244 0.81108 0.5907 0.0
C611 C 0.64295 0.75437 0.65329 0.0
N612 N 0.64579 0.6421 0.65624 0.0
N613 N 0.64353 0.86316 0.40685 0.0
C614 C 0.64343 0.69634 0.59521 0.0
C615 C 0.64289 0.80953 0.46873 0.0
N616 N 0.64069 0.64061 0.41713 0.0
N617 N 0.64106 0.86654 0.64826 0.0
H618 H 0.64237 0.86472 0.31829 0.0
H619 H 0.64571 0.90582 0.44193 0.0
H620 H 0.64121 0.86925 0.73717 0.0
H621 H 0.63894 0.90991 0.60927 0.0
H622 H 0.63853 0.59929 0.45765 0.0
H623 H 0.6406 0.63718 0.32831 0.0
H624 H 0.64787 0.59824 0.61944 0.0
H625 H 0.64693 0.64122 0.7448 0.0
C626 C 0.39595 0.70257 0.60294 0.0
C627 C 0.38682 0.7495 0.66188 0.0
C628 C 0.37873 0.79762 0.47785 0.0
C629 C 0.38686 0.74775 0.41911 0.0
N630 N 0.40093 0.64675 0.42551 0.0
N631 N 0.36804 0.83771 0.65616 0.0
C632 C 0.39492 0.69872 0.48162 0.0
C633 C 0.37771 0.79568 0.59942 0.0
N634 N 0.40565 0.66148 0.66281 0.0
N635 N 0.37258 0.84837 0.41783 0.0
H636 H 0.36755 0.84015 0.74491 0.0
H637 H 0.3598 0.8675 0.61551 0.0
H638 H 0.37322 0.85184 0.32914 0.0
H639 H 0.36799 0.88933 0.45608 0.0
H640 H 0.41389 0.6311 0.62445 0.0
H641 H 0.40621 0.66062 0.75171 0.0
H642 H 0.40548 0.60641 0.46675 0.0
H643 H 0.40007 0.64153 0.33738 0.0
C644 C 0.63972 0.19678 0.44863 0.0
C645 C 0.64217 0.25228 0.38764 0.0
C646 C 0.64604 0.30632 0.56976 0.0
C647 C 0.64372 0.25068 0.63071 0.0
N648 N 0.64131 0.14013 0.62886 0.0
N649 N 0.64422 0.36307 0.38979 0.0
C650 C 0.6412 0.1953 0.57027 0.0
C651 C 0.64456 0.30778 0.44818 0.0
N652 N 0.63568 0.14564 0.39066 0.0
N653 N 0.64984 0.35779 0.62788 0.0
H654 H 0.64234 0.36662 0.30192 0.0
H655 H 0.64427 0.4065 0.42849 0.0
H656 H 0.65013 0.36055 0.71662 0.0
H657 H 0.65367 0.39683 0.58876 0.0
H658 H 0.63182 0.10674 0.42995 0.0
H659 H 0.63517 0.14314 0.30197 0.0
H660 H 0.64124 0.09672 0.59014 0.0
H661 H 0.64292 0.13664 0.71704 0.0
C662 C 0.38686 0.19496 0.43742 0.0
C663 C 0.38824 0.25102 0.37534 0.0
C664 C 0.38933 0.30849 0.55718 0.0
C665 C 0.38708 0.25313 0.61887 0.0
N666 N 0.38191 0.14506 0.61817 0.0
N667 N 0.3889 0.36271 0.3745 0.0
C668 C 0.38525 0.19686 0.55889 0.0
C669 C 0.38909 0.30817 0.43492 0.0
N670 N 0.38789 0.13924 0.3807 0.0
N671 N 0.39161 0.36168 0.61581 0.0
H672 H 0.38881 0.3645 0.2855 0.0
H673 H 0.38775 0.40675 0.41155 0.0
H674 H 0.39036 0.36522 0.704 0.0
H675 H 0.39533 0.4014 0.57832 0.0
H676 H 0.38864 0.09601 0.42124 0.0
H677 H 0.38933 0.13569 0.29257 0.0
H678 H 0.37852 0.10506 0.57944 0.0
H679 H 0.38155 0.14317 0.70715 0.0
C680 C 0.02271 0.2695 0.39818 0.0
C681 C 0.03068 0.24762 0.49798 0.0
C682 C 1.00662 0.23928 0.59697 0.0
C683 C 0.99864 0.25672 0.49464 0.0
N684 N 0.99897 0.27856 0.2927 0.0
N685 N 0.0304 0.20035 0.6849 0.0
C686 C 1.00667 0.26901 0.39362 0.0
C687 C 0.02267 0.22916 0.59523 0.0
N688 N 0.03044 0.29252 0.30915 0.0
N689 N 0.99891 0.23488 0.69709 0.0
H690 H 0.04216 0.19234 0.68724 0.0
H691 H 0.02513 0.1795 0.75241 0.0
H692 H 0.98716 0.24208 0.70245 0.0
H693 H 1.0042 0.2294 0.77657 0.0
H694 H 0.02519 0.31547 0.23926 0.0
H695 H 0.04218 0.29301 0.30915 0.0
H696 H 1.00426 0.28136 0.21389 0.0
H697 H 0.98725 0.27842 0.28635 0.0
C698 C 1.0071 0.76694 0.63847 0.0
C699 C 0.99925 0.74844 0.53998 0.0
C700 C 0.02342 0.71739 0.44626 0.0
C701 C 0.03124 0.74131 0.54025 0.0
N702 N 0.03068 0.79638 0.71943 0.0
N703 N 0.99975 0.71592 0.34267 0.0
C704 C 0.02312 0.76814 0.63481 0.0
C705 C 1.00736 0.72627 0.44179 0.0
N706 N 0.99927 0.78171 0.73641 0.0
N707 N 0.03132 0.68447 0.36279 0.0
H708 H 0.98799 0.72181 0.33554 0.0
H709 H 1.00511 0.70667 0.26483 0.0
H710 H 0.04309 0.67717 0.3625 0.0
H711 H 0.02619 0.65983 0.29913 0.0
H712 H 1.00445 0.78924 0.8146 0.0
H713 H 0.98755 0.78146 0.74188 0.0
H714 H 0.0253 0.82268 0.78435 0.0
H715 H 0.0424 0.79767 0.71988 0.0
C716 C 0.52225 0.77392 0.91115 0.0
C717 C 0.53078 0.75038 1.00727 0.0
C718 C 0.50738 0.73189 0.10766 0.0
C719 C 0.49893 0.75122 1.00852 0.0
N720 N 0.49816 0.78248 0.81058 0.0
N721 N 0.53193 0.69872 0.19042 0.0
C722 C 0.50633 0.77 0.90865 0.0
C723 C 0.52346 0.72701 0.10377 0.0
N724 N 0.52935 0.80161 0.82372 0.0
N725 N 0.5 0.71994 0.20652 0.0
H726 H 0.54372 0.6951 0.19126 0.0
H727 H 0.52736 0.67457 0.25713 0.0
H728 H 0.48824 0.72218 0.21221 0.0
H729 H 0.50542 0.71248 0.2851 0.0
H730 H 0.52362 0.82601 0.75739 0.0
H731 H 0.54102 0.80415 0.82151 0.0
H732 H 0.50304 0.78961 0.73151 0.0
H733 H 0.48645 0.7812 0.80619 0.0
C734 C 0.50707 0.26342 0.15494 0.0
C735 C 0.49968 0.24921 0.05154 0.0
C736 C 0.52432 0.2246 0.95989 0.0
C737 C 0.53167 0.2443 0.0598 0.0
N738 N 0.53024 0.2892 0.24813 0.0
N739 N 0.50105 0.2256 0.8502 0.0
C740 C 0.52309 0.26551 0.15636 0.0
C741 C 0.50825 0.23217 0.95255 0.0
N742 N 0.4988 0.2733 0.25242 0.0
N743 N 0.5327 0.19717 0.8729 0.0
H744 H 0.48931 0.23048 0.84101 0.0
H745 H 0.50669 0.22043 0.77256 0.0
H746 H 0.54449 0.19154 0.87418 0.0
H747 H 0.52799 0.17532 0.80374 0.0
H748 H 0.50359 0.27747 0.3331 0.0
H749 H 0.48706 0.27245 0.25413 0.0
H750 H 0.52456 0.31177 0.31598 0.0
H751 H 0.54196 0.29032 0.25273 0.0
loop_
_geom_bond_atom_site_label_1
_geom_bond_atom_site_label_2
_geom_bond_distance
_geom_bond_site_symmetry_2
_ccdc_geom_bond_type
Pr0 C2 2.880 . S
Pr0 O20 2.562 . S
Pr0 O21 2.490 . S
Pr0 O22 2.695 . S
Pr0 O23 2.512 . S
Pr0 O25 2.437 . S
Pr0 O28 2.436 . S
Pr0 O30 2.438 . S
Pr1 C11 2.880 . S
Pr1 O22 2.436 . S
Pr1 O24 2.438 . S
Pr1 O26 2.562 . S
Pr1 O27 2.490 . S
Pr1 O28 2.695 . S
Pr1 O29 2.512 . S
Pr1 O31 2.437 . S
C2 Pr0 2.880 . S
C2 C3 1.491 . S
C2 O20 1.254 . S
C2 O21 1.225 . S
C3 C2 1.491 . S
C3 C4 1.392 . S
C3 C8 1.356 . S
C4 C3 1.392 . S
C4 C5 1.368 . S
C4 H32 0.929 . S
C5 C4 1.368 . S
C5 C6 1.386 . S
C5 H33 0.929 . S
C6 C5 1.386 . S
C6 C7 1.373 . S
C7 C6 1.373 . S
C7 C8 1.409 . S
C7 H34 0.931 . S
C8 C3 1.356 . S
C8 C7 1.409 . S
C8 H35 0.930 . S
C9 O22 1.270 . S
C9 O23 1.248 . S
C10 O24 1.267 . S
C10 O25 1.278 . S
C11 Pr1 2.880 . S
C11 C12 1.491 . S
C11 O26 1.254 . S
C11 O27 1.225 . S
C12 C11 1.491 . S
C12 C13 1.392 . S
C12 C17 1.356 . S
C13 C12 1.392 . S
C13 C14 1.368 . S
C13 H36 0.929 . S
C14 C13 1.368 . S
C14 C15 1.386 . S
C14 H37 0.929 . S
C15 C14 1.386 . S
C15 C16 1.373 . S
C16 C15 1.373 . S
C16 C17 1.409 . S
C16 H38 0.931 . S
C17 C12 1.356 . S
C17 C16 1.409 . S
C17 H39 0.930 . S
C18 O28 1.270 . S
C18 O29 1.248 . S
C19 O30 1.267 . S
C19 O31 1.278 . S
O20 Pr0 2.562 . S
O20 C2 1.254 . S
O21 Pr0 2.490 . S
O21 C2 1.225 . S
O22 Pr0 2.695 . S
O22 Pr1 2.436 . S
O22 C9 1.270 . S
O23 Pr0 2.512 . S
O23 C9 1.248 . S
O24 Pr1 2.438 . S
O24 C10 1.267 . S
O25 Pr0 2.437 . S
O25 C10 1.278 . S
O26 Pr1 2.562 . S
O26 C11 1.254 . S
O27 Pr1 2.490 . S
O27 C11 1.225 . S
O28 Pr0 2.436 . S
O28 Pr1 2.695 . S
O28 C18 1.270 . S
O29 Pr1 2.512 . S
O29 C18 1.248 . S
O30 Pr0 2.438 . S
O30 C19 1.267 . S
O31 Pr1 2.437 . S
O31 C19 1.278 . S
H32 C4 0.929 . S
H33 C5 0.929 . S
H34 C7 0.931 . S
H35 C8 0.930 . S
H36 C13 0.929 . S
H37 C14 0.929 . S
H38 C16 0.931 . S
H39 C17 0.930 . S
Pr40 C42 2.880 . S
Pr40 O60 2.562 . S
Pr40 O61 2.490 . S
Pr40 O62 2.695 . S
Pr40 O63 2.512 . S
Pr40 O65 2.437 . S
Pr40 O68 2.436 . S
Pr40 O70 2.438 . S
Pr41 C51 2.880 . S
Pr41 O62 2.436 . S
Pr41 O64 2.438 . S
Pr41 O66 2.562 . S
Pr41 O67 2.490 . S
Pr41 O68 2.695 . S
Pr41 O69 2.512 . S
Pr41 O71 2.437 . S
C42 Pr40 2.880 . S
C42 C43 1.491 . S
C42 O60 1.254 . S
C42 O61 1.225 . S
C43 C42 1.491 . S
C43 C44 1.392 . S
C43 C48 1.356 . S
C44 C43 1.392 . S
C44 C45 1.368 . S
C44 H72 0.929 . S
C45 C44 1.368 . S
C45 C46 1.386 . S
C45 H73 0.929 . S
C46 C45 1.386 . S
C46 C47 1.373 . S
C47 C46 1.373 . S
C47 C48 1.409 . S
C47 H74 0.931 . S
C48 C43 1.356 . S
C48 C47 1.409 . S
C48 H75 0.930 . S
C49 O62 1.270 . S
C49 O63 1.248 . S
C50 O64 1.267 . S
C50 O65 1.278 . S
C51 Pr41 2.880 . S
C51 C52 1.491 . S
C51 O66 1.254 . S
C51 O67 1.225 . S
C52 C51 1.491 . S
C52 C53 1.392 . S
C52 C57 1.356 . S
C53 C52 1.392 . S
C53 C54 1.368 . S
C53 H76 0.929 . S
C54 C53 1.368 . S
C54 C55 1.386 . S
C54 H77 0.929 . S
C55 C54 1.386 . S
C55 C56 1.373 . S
C56 C55 1.373 . S
C56 C57 1.409 . S
C56 H78 0.931 . S
C57 C52 1.356 . S
C57 C56 1.409 . S
C57 H79 0.930 . S
C58 O68 1.270 . S
C58 O69 1.248 . S
C59 O70 1.267 . S
C59 O71 1.278 . S
O60 Pr40 2.562 . S
O60 C42 1.254 . S
O61 Pr40 2.490 . S
O61 C42 1.225 . S
O62 Pr40 2.695 . S
O62 Pr41 2.436 . S
O62 C49 1.270 . S
O63 Pr40 2.512 . S
O63 C49 1.248 . S
O64 Pr41 2.438 . S
O64 C50 1.267 . S
O65 Pr40 2.437 . S
O65 C50 1.278 . S
O66 Pr41 2.562 . S
O66 C51 1.254 . S
O67 Pr41 2.490 . S
O67 C51 1.225 . S
O68 Pr40 2.436 . S
O68 Pr41 2.695 . S
O68 C58 1.270 . S
O69 Pr41 2.512 . S
O69 C58 1.248 . S
O70 Pr40 2.438 . S
O70 C59 1.267 . S
O71 Pr41 2.437 . S
O71 C59 1.278 . S
H72 C44 0.929 . S
H73 C45 0.929 . S
H74 C47 0.931 . S
H75 C48 0.930 . S
H76 C53 0.929 . S
H77 C54 0.929 . S
H78 C56 0.931 . S
H79 C57 0.930 . S
Pr80 C82 2.880 . S
Pr80 O100 2.562 . S
Pr80 O101 2.490 . S
Pr80 O102 2.695 . S
Pr80 O103 2.512 . S
Pr80 O105 2.437 . S
Pr80 O108 2.436 . S
Pr80 O110 2.438 . S
Pr81 C91 2.880 . S
Pr81 O102 2.436 . S
Pr81 O104 2.438 . S
Pr81 O106 2.562 . S
Pr81 O107 2.490 . S
Pr81 O108 2.695 . S
Pr81 O109 2.512 . S
Pr81 O111 2.437 . S
C82 Pr80 2.880 . S
C82 C83 1.491 . S
C82 O100 1.254 . S
C82 O101 1.225 . S
C83 C82 1.491 . S
C83 C84 1.392 . S
C83 C88 1.356 . S
C84 C83 1.392 . S
C84 C85 1.368 . S
C84 H112 0.929 . S
C85 C84 1.368 . S
C85 C86 1.386 . S
C85 H113 0.929 . S
C86 C85 1.386 . S
C86 C87 1.373 . S
C87 C86 1.373 . S
C87 C88 1.409 . S
C87 H114 0.931 . S
C88 C83 1.356 . S
C88 C87 1.409 . S
C88 H115 0.930 . S
C89 O102 1.270 . S
C89 O103 1.248 . S
C90 O104 1.267 . S
C90 O105 1.278 . S
C91 Pr81 2.880 . S
C91 C92 1.491 . S
C91 O106 1.254 . S
C91 O107 1.225 . S
C92 C91 1.491 . S
C92 C93 1.392 . S
C92 C97 1.356 . S
C93 C92 1.392 . S
C93 C94 1.368 . S
C93 H116 0.929 . S
C94 C93 1.368 . S
C94 C95 1.386 . S
C94 H117 0.929 . S
C95 C94 1.386 . S
C95 C96 1.373 . S
C96 C95 1.373 . S
C96 C97 1.409 . S
C96 H118 0.931 . S
C97 C92 1.356 . S
C97 C96 1.409 . S
C97 H119 0.930 . S
C98 O108 1.270 . S
C98 O109 1.248 . S
C99 O110 1.267 . S
C99 O111 1.278 . S
O100 Pr80 2.562 . S
O100 C82 1.254 . S
O101 Pr80 2.490 . S
O101 C82 1.225 . S
O102 Pr80 2.695 . S
O102 Pr81 2.436 . S
O102 C89 1.270 . S
O103 Pr80 2.512 . S
O103 C89 1.248 . S
O104 Pr81 2.438 . S
O104 C90 1.267 . S
O105 Pr80 2.437 . S
O105 C90 1.278 . S
O106 Pr81 2.562 . S
O106 C91 1.254 . S
O107 Pr81 2.490 . S
O107 C91 1.225 . S
O108 Pr80 2.436 . S
O108 Pr81 2.695 . S
O108 C98 1.270 . S
O109 Pr81 2.512 . S
O109 C98 1.248 . S
O110 Pr80 2.438 . S
O110 C99 1.267 . S
O111 Pr81 2.437 . S
O111 C99 1.278 . S
H112 C84 0.929 . S
H113 C85 0.929 . S
H114 C87 0.931 . S
H115 C88 0.930 . S
H116 C93 0.929 . S
H117 C94 0.929 . S
H118 C96 0.931 . S
H119 C97 0.930 . S
Pr120 C122 2.880 . S
Pr120 O140 2.562 . S
Pr120 O141 2.490 . S
Pr120 O142 2.695 . S
Pr120 O143 2.512 . S
Pr120 O145 2.437 . S
Pr120 O148 2.436 . S
Pr120 O150 2.438 . S
Pr121 C131 2.880 . S
Pr121 O142 2.436 . S
Pr121 O144 2.438 . S
Pr121 O146 2.562 . S
Pr121 O147 2.490 . S
Pr121 O148 2.695 . S
Pr121 O149 2.512 . S
Pr121 O151 2.437 . S
C122 Pr120 2.880 . S
C122 C123 1.491 . S
C122 O140 1.254 . S
C122 O141 1.225 . S
C123 C122 1.491 . S
C123 C124 1.392 . S
C123 C128 1.356 . S
C124 C123 1.392 . S
C124 C125 1.368 . S
C124 H152 0.929 . S
C125 C124 1.368 . S
C125 C126 1.386 . S
C125 H153 0.929 . S
C126 C125 1.386 . S
C126 C127 1.373 . S
C127 C126 1.373 . S
C127 C128 1.409 . S
C127 H154 0.931 . S
C128 C123 1.356 . S
C128 C127 1.409 . S
C128 H155 0.930 . S
C129 O142 1.270 . S
C129 O143 1.248 . S
C130 O144 1.267 . S
C130 O145 1.278 . S
C131 Pr121 2.880 . S
C131 C132 1.491 . S
C131 O146 1.254 . S
C131 O147 1.225 . S
C132 C131 1.491 . S
C132 C133 1.392 . S
C132 C137 1.356 . S
C133 C132 1.392 . S
C133 C134 1.368 . S
C133 H156 0.929 . S
C134 C133 1.368 . S
C134 C135 1.386 . S
C134 H157 0.929 . S
C135 C134 1.386 . S
C135 C136 1.373 . S
C136 C135 1.373 . S
C136 C137 1.409 . S
C136 H158 0.931 . S
C137 C132 1.356 . S
C137 C136 1.409 . S
C137 H159 0.930 . S
C138 O148 1.270 . S
C138 O149 1.248 . S
C139 O150 1.267 . S
C139 O151 1.278 . S
O140 Pr120 2.562 . S
O140 C122 1.254 . S
O141 Pr120 2.490 . S
O141 C122 1.225 . S
O142 Pr120 2.695 . S
O142 Pr121 2.436 . S
O142 C129 1.270 . S
O143 Pr120 2.512 . S
O143 C129 1.248 . S
O144 Pr121 2.438 . S
O144 C130 1.267 . S
O145 Pr120 2.437 . S
O145 C130 1.278 . S
O146 Pr121 2.562 . S
O146 C131 1.254 . S
O147 Pr121 2.490 . S
O147 C131 1.225 . S
O148 Pr120 2.436 . S
O148 Pr121 2.695 . S
O148 C138 1.270 . S
O149 Pr121 2.512 . S
O149 C138 1.248 . S
O150 Pr120 2.438 . S
O150 C139 1.267 . S
O151 Pr121 2.437 . S
O151 C139 1.278 . S
H152 C124 0.929 . S
H153 C125 0.929 . S
H154 C127 0.931 . S
H155 C128 0.930 . S
H156 C133 0.929 . S
H157 C134 0.929 . S
H158 C136 0.931 . S
H159 C137 0.930 . S
Pr160 C162 2.880 1_556 S
Pr160 O180 2.562 1_556 S
Pr160 O181 2.490 1_556 S
Pr160 O182 2.695 . S
Pr160 O183 2.512 . S
Pr160 O185 2.437 1_556 S
Pr160 O188 2.436 1_556 S
Pr160 O190 2.438 . S
Pr161 C171 2.880 1_554 S
Pr161 O182 2.436 1_554 S
Pr161 O184 2.438 . S
Pr161 O186 2.562 1_554 S
Pr161 O187 2.490 1_554 S
Pr161 O188 2.695 . S
Pr161 O189 2.512 . S
Pr161 O191 2.437 1_554 S
C162 Pr160 2.880 1_554 S
C162 C163 1.491 . S
C162 O180 1.254 . S
C162 O181 1.225 . S
C163 C162 1.491 . S
C163 C164 1.392 . S
C163 C168 1.356 . S
C164 C163 1.392 . S
C164 C165 1.368 . S
C164 H192 0.929 . S
C165 C164 1.368 . S
C165 C166 1.386 . S
C165 H193 0.929 . S
C166 C165 1.386 . S
C166 C167 1.373 . S
C167 C166 1.373 . S
C167 C168 1.409 . S
C167 H194 0.931 . S
C168 C163 1.356 . S
C168 C167 1.409 . S
C168 H195 0.930 . S
C169 O182 1.270 . S
C169 O183 1.248 . S
C170 O184 1.267 . S
C170 O185 1.278 . S
C171 Pr161 2.880 1_556 S
C171 C172 1.491 . S
C171 O186 1.254 . S
C171 O187 1.225 . S
C172 C171 1.491 . S
C172 C173 1.392 . S
C172 C177 1.356 . S
C173 C172 1.392 . S
C173 C174 1.368 . S
C173 H196 0.929 . S
C174 C173 1.368 . S
C174 C175 1.386 . S
C174 H197 0.929 . S
C175 C174 1.386 . S
C175 C176 1.373 . S
C176 C175 1.373 . S
C176 C177 1.409 . S
C176 H198 0.931 . S
C177 C172 1.356 . S
C177 C176 1.409 . S
C177 H199 0.930 . S
C178 O188 1.270 . S
C178 O189 1.248 . S
C179 O190 1.267 . S
C179 O191 1.278 . S
O180 Pr160 2.562 1_554 S
O180 C162 1.254 . S
O181 Pr160 2.490 1_554 S
O181 C162 1.225 . S
O182 Pr160 2.695 . S
O182 Pr161 2.436 1_556 S
O182 C169 1.270 . S
O183 Pr160 2.512 . S
O183 C169 1.248 . S
O184 Pr161 2.438 . S
O184 C170 1.267 . S
O185 Pr160 2.437 1_554 S
O185 C170 1.278 . S
O186 Pr161 2.562 1_556 S
O186 C171 1.254 . S
O187 Pr161 2.490 1_556 S
O187 C171 1.225 . S
O188 Pr160 2.436 1_554 S
O188 Pr161 2.695 . S
O188 C178 1.270 . S
O189 Pr161 2.512 . S
O189 C178 1.248 . S
O190 Pr160 2.438 . S
O190 C179 1.267 . S
O191 Pr161 2.437 1_556 S
O191 C179 1.278 . S
H192 C164 0.929 . S
H193 C165 0.929 . S
H194 C167 0.931 . S
H195 C168 0.930 . S
H196 C173 0.929 . S
H197 C174 0.929 . S
H198 C176 0.931 . S
H199 C177 0.930 . S
Pr200 C202 2.880 1_556 S
Pr200 O220 2.562 1_556 S
Pr200 O221 2.490 1_556 S
Pr200 O222 2.695 . S
Pr200 O223 2.512 . S
Pr200 O225 2.437 1_556 S
Pr200 O228 2.436 1_556 S
Pr200 O230 2.438 . S
Pr201 C211 2.880 1_554 S
Pr201 O222 2.436 1_554 S
Pr201 O224 2.438 . S
Pr201 O226 2.562 1_554 S
Pr201 O227 2.490 1_554 S
Pr201 O228 2.695 . S
Pr201 O229 2.512 . S
Pr201 O231 2.437 1_554 S
C202 Pr200 2.880 1_554 S
C202 C203 1.491 . S
C202 O220 1.254 . S
C202 O221 1.225 . S
C203 C202 1.491 . S
C203 C204 1.392 . S
C203 C208 1.356 . S
C204 C203 1.392 . S
C204 C205 1.368 . S
C204 H232 0.929 . S
C205 C204 1.368 . S
C205 C206 1.386 . S
C205 H233 0.929 . S
C206 C205 1.386 . S
C206 C207 1.373 . S
C207 C206 1.373 . S
C207 C208 1.409 . S
C207 H234 0.931 . S
C208 C203 1.356 . S
C208 C207 1.409 . S
C208 H235 0.930 . S
C209 O222 1.270 . S
C209 O223 1.248 . S
C210 O224 1.267 . S
C210 O225 1.278 . S
C211 Pr201 2.880 1_556 S
C211 C212 1.491 . S
C211 O226 1.254 . S
C211 O227 1.225 . S
C212 C211 1.491 . S
C212 C213 1.392 . S
C212 C217 1.356 . S
C213 C212 1.392 . S
C213 C214 1.368 . S
C213 H236 0.929 . S
C214 C213 1.368 . S
C214 C215 1.386 . S
C214 H237 0.929 . S
C215 C214 1.386 . S
C215 C216 1.373 . S
C216 C215 1.373 . S
C216 C217 1.409 . S
C216 H238 0.931 . S
C217 C212 1.356 . S
C217 C216 1.409 . S
C217 H239 0.930 . S
C218 O228 1.270 . S
C218 O229 1.248 . S
C219 O230 1.267 . S
C219 O231 1.278 . S
O220 Pr200 2.562 1_554 S
O220 C202 1.254 . S
O221 Pr200 2.490 1_554 S
O221 C202 1.225 . S
O222 Pr200 2.695 . S
O222 Pr201 2.436 1_556 S
O222 C209 1.270 . S
O223 Pr200 2.512 . S
O223 C209 1.248 . S
O224 Pr201 2.438 . S
O224 C210 1.267 . S
O225 Pr200 2.437 1_554 S
O225 C210 1.278 . S
O226 Pr201 2.562 1_556 S
O226 C211 1.254 . S
O227 Pr201 2.490 1_556 S
O227 C211 1.225 . S
O228 Pr200 2.436 1_554 S
O228 Pr201 2.695 . S
O228 C218 1.270 . S
O229 Pr201 2.512 . S
O229 C218 1.248 . S
O230 Pr200 2.438 . S
O230 C219 1.267 . S
O231 Pr201 2.437 1_556 S
O231 C219 1.278 . S
H232 C204 0.929 . S
H233 C205 0.929 . S
H234 C207 0.931 . S
H235 C208 0.930 . S
H236 C213 0.929 . S
H237 C214 0.929 . S
H238 C216 0.931 . S
H239 C217 0.930 . S
Pr240 C242 2.880 1_556 S
Pr240 O260 2.562 1_556 S
Pr240 O261 2.490 1_556 S
Pr240 O262 2.695 . S
Pr240 O263 2.512 . S
Pr240 O265 2.437 1_556 S
Pr240 O268 2.436 1_556 S
Pr240 O270 2.438 . S
Pr241 C251 2.880 1_554 S
Pr241 O262 2.436 1_554 S
Pr241 O264 2.438 . S
Pr241 O266 2.562 1_554 S
Pr241 O267 2.490 1_554 S
Pr241 O268 2.695 . S
Pr241 O269 2.512 . S
Pr241 O271 2.437 1_554 S
C242 Pr240 2.880 1_554 S
C242 C243 1.491 . S
C242 O260 1.254 . S
C242 O261 1.225 . S
C243 C242 1.491 . S
C243 C244 1.392 . S
C243 C248 1.356 . S
C244 C243 1.392 . S
C244 C245 1.368 . S
C244 H272 0.929 . S
C245 C244 1.368 . S
C245 C246 1.386 . S
C245 H273 0.929 . S
C246 C245 1.386 . S
C246 C247 1.373 . S
C247 C246 1.373 . S
C247 C248 1.409 . S
C247 H274 0.931 . S
C248 C243 1.356 . S
C248 C247 1.409 . S
C248 H275 0.930 . S
C249 O262 1.270 . S
C249 O263 1.248 . S
C250 O264 1.267 . S
C250 O265 1.278 . S
C251 Pr241 2.880 1_556 S
C251 C252 1.491 . S
C251 O266 1.254 . S
C251 O267 1.225 . S
C252 C251 1.491 . S
C252 C253 1.392 . S
C252 C257 1.356 . S
C253 C252 1.392 . S
C253 C254 1.368 . S
C253 H276 0.929 . S
C254 C253 1.368 . S
C254 C255 1.386 . S
C254 H277 0.929 . S
C255 C254 1.386 . S
C255 C256 1.373 . S
C256 C255 1.373 . S
C256 C257 1.409 . S
C256 H278 0.931 . S
C257 C252 1.356 . S
C257 C256 1.409 . S
C257 H279 0.930 . S
C258 O268 1.270 . S
C258 O269 1.248 . S
C259 O270 1.267 . S
C259 O271 1.278 . S
O260 Pr240 2.562 1_554 S
O260 C242 1.254 . S
O261 Pr240 2.490 1_554 S
O261 C242 1.225 . S
O262 Pr240 2.695 . S
O262 Pr241 2.436 1_556 S
O262 C249 1.270 . S
O263 Pr240 2.512 . S
O263 C249 1.248 . S
O264 Pr241 2.438 . S
O264 C250 1.267 . S
O265 Pr240 2.437 1_554 S
O265 C250 1.278 . S
O266 Pr241 2.562 1_556 S
O266 C251 1.254 . S
O267 Pr241 2.490 1_556 S
O267 C251 1.225 . S
O268 Pr240 2.436 1_554 S
O268 Pr241 2.695 . S
O268 C258 1.270 . S
O269 Pr241 2.512 . S
O269 C258 1.248 . S
O270 Pr240 2.438 . S
O270 C259 1.267 . S
O271 Pr241 2.437 1_556 S
O271 C259 1.278 . S
H272 C244 0.929 . S
H273 C245 0.929 . S
H274 C247 0.931 . S
H275 C248 0.930 . S
H276 C253 0.929 . S
H277 C254 0.929 . S
H278 C256 0.931 . S
H279 C257 0.930 . S
Pr280 C282 2.880 1_556 S
Pr280 O300 2.562 1_556 S
Pr280 O301 2.490 1_556 S
Pr280 O302 2.695 . S
Pr280 O303 2.512 . S
Pr280 O305 2.437 1_556 S
Pr280 O308 2.436 1_556 S
Pr280 O310 2.438 . S
Pr281 C291 2.880 1_554 S
Pr281 O302 2.436 1_554 S
Pr281 O304 2.438 . S
Pr281 O306 2.562 1_554 S
Pr281 O307 2.490 1_554 S
Pr281 O308 2.695 . S
Pr281 O309 2.512 . S
Pr281 O311 2.437 1_554 S
C282 Pr280 2.880 1_554 S
C282 C283 1.491 . S
C282 O300 1.254 . S
C282 O301 1.225 . S
C283 C282 1.491 . S
C283 C284 1.392 . S
C283 C288 1.356 . S
C284 C283 1.392 . S
C284 C285 1.368 . S
C284 H312 0.929 . S
C285 C284 1.368 . S
C285 C286 1.386 . S
C285 H313 0.929 . S
C286 C285 1.386 . S
C286 C287 1.373 . S
C287 C286 1.373 . S
C287 C288 1.409 . S
C287 H314 0.931 . S
C288 C283 1.356 . S
C288 C287 1.409 . S
C288 H315 0.930 . S
C289 O302 1.270 . S
C289 O303 1.248 . S
C290 O304 1.267 . S
C290 O305 1.278 . S
C291 Pr281 2.880 1_556 S
C291 C292 1.491 . S
C291 O306 1.254 . S
C291 O307 1.225 . S
C292 C291 1.491 . S
C292 C293 1.392 . S
C292 C297 1.356 . S
C293 C292 1.392 . S
C293 C294 1.368 . S
C293 H316 0.929 . S
C294 C293 1.368 . S
C294 C295 1.386 . S
C294 H317 0.929 . S
C295 C294 1.386 . S
C295 C296 1.373 . S
C296 C295 1.373 . S
C296 C297 1.409 . S
C296 H318 0.931 . S
C297 C292 1.356 . S
C297 C296 1.409 . S
C297 H319 0.930 . S
C298 O308 1.270 . S
C298 O309 1.248 . S
C299 O310 1.267 . S
C299 O311 1.278 . S
O300 Pr280 2.562 1_554 S
O300 C282 1.254 . S
O301 Pr280 2.490 1_554 S
O301 C282 1.225 . S
O302 Pr280 2.695 . S
O302 Pr281 2.436 1_556 S
O302 C289 1.270 . S
O303 Pr280 2.512 . S
O303 C289 1.248 . S
O304 Pr281 2.438 . S
O304 C290 1.267 . S
O305 Pr280 2.437 1_554 S
O305 C290 1.278 . S
O306 Pr281 2.562 1_556 S
O306 C291 1.254 . S
O307 Pr281 2.490 1_556 S
O307 C291 1.225 . S
O308 Pr280 2.436 1_554 S
O308 Pr281 2.695 . S
O308 C298 1.270 . S
O309 Pr281 2.512 . S
O309 C298 1.248 . S
O310 Pr280 2.438 . S
O310 C299 1.267 . S
O311 Pr281 2.437 1_556 S
O311 C299 1.278 . S
H312 C284 0.929 . S
H313 C285 0.929 . S
H314 C287 0.931 . S
H315 C288 0.930 . S
H316 C293 0.929 . S
H317 C294 0.929 . S
H318 C296 0.931 . S
H319 C297 0.930 . S
C320 C321 1.363 . S
C320 C326 1.379 . S
C320 N328 1.356 . S
C321 C320 1.363 . S
C321 C327 1.363 . S
C322 C323 1.363 . S
C322 C327 1.379 . S
C322 N329 1.356 . S
C323 C322 1.363 . S
C323 C326 1.363 . S
N324 C326 1.356 . S
N324 H336 0.984 . S
N324 H337 0.985 . S
N325 C327 1.356 . S
N325 H330 0.984 . S
N325 H331 0.985 . S
C326 C320 1.379 . S
C326 C323 1.363 . S
C326 N324 1.356 . S
C327 C321 1.363 . S
C327 C322 1.379 . S
C327 N325 1.356 . S
N328 C320 1.356 . S
N328 H334 0.984 . S
N328 H335 0.984 . S
N329 C322 1.356 . S
N329 H332 0.984 . S
N329 H333 0.985 . S
H330 N325 0.984 . S
H331 N325 0.985 . S
H332 N329 0.984 . S
H333 N329 0.985 . S
H334 N328 0.984 . S
H335 N328 0.984 . S
H336 N324 0.984 . S
H337 N324 0.985 . S
C338 C339 1.363 . S
C338 C344 1.379 . S
C338 N346 1.356 . S
C339 C338 1.363 . S
C339 C345 1.363 . S
C340 C341 1.363 . S
C340 C345 1.379 . S
C340 N347 1.356 . S
C341 C340 1.363 . S
C341 C344 1.363 . S
N342 C344 1.356 . S
N342 H354 0.984 . S
N342 H355 0.985 . S
N343 C345 1.356 . S
N343 H348 0.984 . S
N343 H349 0.985 . S
C344 C338 1.379 . S
C344 C341 1.363 . S
C344 N342 1.356 . S
C345 C339 1.363 . S
C345 C340 1.379 . S
C345 N343 1.356 . S
N346 C338 1.356 . S
N346 H352 0.984 . S
N346 H353 0.984 . S
N347 C340 1.356 . S
N347 H350 0.984 . S
N347 H351 0.985 . S
H348 N343 0.984 . S
H349 N343 0.985 . S
H350 N347 0.984 . S
H351 N347 0.985 . S
H352 N346 0.984 . S
H353 N346 0.984 . S
H354 N342 0.984 . S
H355 N342 0.985 . S
C356 C357 1.363 . S
C356 C362 1.379 . S
C356 N364 1.356 . S
C357 C356 1.363 . S
C357 C363 1.363 . S
C358 C359 1.363 . S
C358 C363 1.379 . S
C358 N365 1.356 . S
C359 C358 1.363 . S
C359 C362 1.363 . S
N360 C362 1.356 . S
N360 H372 0.984 . S
N360 H373 0.985 . S
N361 C363 1.356 . S
N361 H366 0.984 . S
N361 H367 0.985 . S
C362 C356 1.379 . S
C362 C359 1.363 . S
C362 N360 1.356 . S
C363 C357 1.363 . S
C363 C358 1.379 . S
C363 N361 1.356 . S
N364 C356 1.356 . S
N364 H370 0.984 . S
N364 H371 0.984 . S
N365 C358 1.356 . S
N365 H368 0.984 . S
N365 H369 0.985 . S
H366 N361 0.984 . S
H367 N361 0.985 . S
H368 N365 0.984 . S
H369 N365 0.985 . S
H370 N364 0.984 . S
H371 N364 0.984 . S
H372 N360 0.984 . S
H373 N360 0.985 . S
C374 C375 1.363 . S
C374 C380 1.379 . S
C374 N382 1.356 . S
C375 C374 1.363 . S
C375 C381 1.363 . S
C376 C377 1.363 . S
C376 C381 1.379 . S
C376 N383 1.356 . S
C377 C376 1.363 . S
C377 C380 1.363 . S
N378 C380 1.356 . S
N378 H390 0.984 . S
N378 H391 0.985 . S
N379 C381 1.356 . S
N379 H384 0.984 . S
N379 H385 0.985 . S
C380 C374 1.379 . S
C380 C377 1.363 . S
C380 N378 1.356 . S
C381 C375 1.363 . S
C381 C376 1.379 . S
C381 N379 1.356 . S
N382 C374 1.356 . S
N382 H388 0.984 . S
N382 H389 0.984 . S
N383 C376 1.356 . S
N383 H386 0.984 . S
N383 H387 0.985 . S
H384 N379 0.984 . S
H385 N379 0.985 . S
H386 N383 0.984 . S
H387 N383 0.985 . S
H388 N382 0.984 . S
H389 N382 0.984 . S
H390 N378 0.984 . S
H391 N378 0.985 . S
C392 C393 1.363 . S
C392 C398 1.379 1_565 S
C392 N400 1.356 . S
C393 C392 1.363 . S
C393 C399 1.363 . S
C394 C395 1.363 . S
C394 C399 1.379 1_545 S
C394 N401 1.356 . S
C395 C394 1.363 . S
C395 C398 1.363 . S
N396 C398 1.356 . S
N396 H408 0.984 . S
N396 H409 0.985 . S
N397 C399 1.356 . S
N397 H402 0.984 . S
N397 H403 0.985 . S
C398 C392 1.379 1_545 S
C398 C395 1.363 . S
C398 N396 1.356 . S
C399 C393 1.363 . S
C399 C394 1.379 1_565 S
C399 N397 1.356 . S
N400 C392 1.356 . S
N400 H406 0.984 . S
N400 H407 0.984 . S
N401 C394 1.356 . S
N401 H404 0.984 . S
N401 H405 0.985 . S
H402 N397 0.984 . S
H403 N397 0.985 . S
H404 N401 0.984 . S
H405 N401 0.985 . S
H406 N400 0.984 . S
H407 N400 0.984 . S
H408 N396 0.984 . S
H409 N396 0.985 . S
C410 C411 1.363 . S
C410 C416 1.379 . S
C410 N418 1.356 . S
C411 C410 1.363 . S
C411 C417 1.363 . S
C412 C413 1.363 . S
C412 C417 1.379 . S
C412 N419 1.356 . S
C413 C412 1.363 . S
C413 C416 1.363 . S
N414 C416 1.356 . S
N414 H426 0.984 . S
N414 H427 0.985 . S
N415 C417 1.356 . S
N415 H420 0.984 . S
N415 H421 0.985 . S
C416 C410 1.379 . S
C416 C413 1.363 . S
C416 N414 1.356 . S
C417 C411 1.363 . S
C417 C412 1.379 . S
C417 N415 1.356 . S
N418 C410 1.356 . S
N418 H424 0.984 . S
N418 H425 0.984 . S
N419 C412 1.356 . S
N419 H422 0.984 . S
N419 H423 0.985 . S
H420 N415 0.984 . S
H421 N415 0.985 . S
H422 N419 0.984 . S
H423 N419 0.985 . S
H424 N418 0.984 . S
H425 N418 0.984 . S
H426 N414 0.984 . S
H427 N414 0.985 . S
C428 C429 1.363 . S
C428 C434 1.379 1_565 S
C428 N436 1.356 . S
C429 C428 1.363 . S
C429 C435 1.363 . S
C430 C431 1.363 . S
C430 C435 1.379 1_545 S
C430 N437 1.356 . S
C431 C430 1.363 . S
C431 C434 1.363 . S
N432 C434 1.356 . S
N432 H444 0.984 . S
N432 H445 0.985 . S
N433 C435 1.356 . S
N433 H438 0.984 . S
N433 H439 0.985 . S
C434 C428 1.379 1_545 S
C434 C431 1.363 . S
C434 N432 1.356 . S
C435 C429 1.363 . S
C435 C430 1.379 1_565 S
C435 N433 1.356 . S
N436 C428 1.356 . S
N436 H442 0.984 . S
N436 H443 0.984 . S
N437 C430 1.356 . S
N437 H440 0.984 . S
N437 H441 0.985 . S
H438 N433 0.984 . S
H439 N433 0.985 . S
H440 N437 0.984 . S
H441 N437 0.985 . S
H442 N436 0.984 . S
H443 N436 0.984 . S
H444 N432 0.984 . S
H445 N432 0.985 . S
C446 C447 1.363 . S
C446 C452 1.379 . S
C446 N454 1.356 . S
C447 C446 1.363 . S
C447 C453 1.363 . S
C448 C449 1.363 . S
C448 C453 1.379 . S
C448 N455 1.356 . S
C449 C448 1.363 . S
C449 C452 1.363 . S
N450 C452 1.356 . S
N450 H462 0.984 . S
N450 H463 0.985 . S
N451 C453 1.356 . S
N451 H456 0.984 . S
N451 H457 0.985 . S
C452 C446 1.379 . S
C452 C449 1.363 . S
C452 N450 1.356 . S
C453 C447 1.363 . S
C453 C448 1.379 . S
C453 N451 1.356 . S
N454 C446 1.356 . S
N454 H460 0.984 . S
N454 H461 0.984 . S
N455 C448 1.356 . S
N455 H458 0.984 . S
N455 H459 0.985 . S
H456 N451 0.984 . S
H457 N451 0.985 . S
H458 N455 0.984 . S
H459 N455 0.985 . S
H460 N454 0.984 . S
H461 N454 0.984 . S
H462 N450 0.984 . S
H463 N450 0.985 . S
C464 C465 1.363 . S
C464 C470 1.379 . S
C464 N472 1.356 . S
C465 C464 1.363 . S
C465 C471 1.363 1_556 S
C466 C467 1.363 1_554 S
C466 C471 1.379 . S
C466 N473 1.356 . S
C467 C466 1.363 1_556 S
C467 C470 1.363 . S
N468 C470 1.356 . S
N468 H480 0.984 . S
N468 H481 0.985 . S
N469 C471 1.356 . S
N469 H474 0.984 . S
N469 H475 0.985 . S
C470 C464 1.379 . S
C470 C467 1.363 . S
C470 N468 1.356 . S
C471 C465 1.363 1_554 S
C471 C466 1.379 . S
C471 N469 1.356 . S
N472 C464 1.356 . S
N472 H478 0.984 . S
N472 H479 0.984 . S
N473 C466 1.356 . S
N473 H476 0.984 . S
N473 H477 0.985 . S
H474 N469 0.984 . S
H475 N469 0.985 . S
H476 N473 0.984 . S
H477 N473 0.985 . S
H478 N472 0.984 . S
H479 N472 0.984 . S
H480 N468 0.984 . S
H481 N468 0.985 . S
C482 C483 1.363 . S
C482 C488 1.379 1_565 S
C482 N490 1.356 . S
C483 C482 1.363 . S
C483 C489 1.363 1_556 S
C484 C485 1.363 1_554 S
C484 C489 1.379 1_545 S
C484 N491 1.356 . S
C485 C484 1.363 1_556 S
C485 C488 1.363 . S
N486 C488 1.356 . S
N486 H498 0.984 . S
N486 H499 0.985 . S
N487 C489 1.356 . S
N487 H492 0.984 . S
N487 H493 0.985 . S
C488 C482 1.379 1_545 S
C488 C485 1.363 . S
C488 N486 1.356 . S
C489 C483 1.363 1_554 S
C489 C484 1.379 1_565 S
C489 N487 1.356 . S
N490 C482 1.356 . S
N490 H496 0.984 . S
N490 H497 0.984 . S
N491 C484 1.356 . S
N491 H494 0.984 . S
N491 H495 0.985 . S
H492 N487 0.984 . S
H493 N487 0.985 . S
H494 N491 0.984 . S
H495 N491 0.985 . S
H496 N490 0.984 . S
H497 N490 0.984 . S
H498 N486 0.984 . S
H499 N486 0.985 . S
C500 C501 1.363 1_556 S
C500 C506 1.379 . S
C500 N508 1.356 . S
C501 C500 1.363 1_554 S
C501 C507 1.363 . S
C502 C503 1.363 . S
C502 C507 1.379 . S
C502 N509 1.356 . S
C503 C502 1.363 . S
C503 C506 1.363 1_554 S
N504 C506 1.356 . S
N504 H516 0.984 . S
N504 H517 0.985 . S
N505 C507 1.356 . S
N505 H510 0.984 . S
N505 H511 0.985 . S
C506 C500 1.379 . S
C506 C503 1.363 1_556 S
C506 N504 1.356 . S
C507 C501 1.363 . S
C507 C502 1.379 . S
C507 N505 1.356 . S
N508 C500 1.356 . S
N508 H514 0.984 . S
N508 H515 0.984 . S
N509 C502 1.356 . S
N509 H512 0.984 . S
N509 H513 0.985 . S
H510 N505 0.984 . S
H511 N505 0.985 . S
H512 N509 0.984 . S
H513 N509 0.985 . S
H514 N508 0.984 . S
H515 N508 0.984 . S
H516 N504 0.984 . S
H517 N504 0.985 . S
C518 C519 1.363 1_556 S
C518 C524 1.379 1_545 S
C518 N526 1.356 . S
C519 C518 1.363 1_554 S
C519 C525 1.363 . S
C520 C521 1.363 . S
C520 C525 1.379 1_565 S
C520 N527 1.356 . S
C521 C520 1.363 . S
C521 C524 1.363 1_554 S
N522 C524 1.356 . S
N522 H534 0.984 . S
N522 H535 0.985 . S
N523 C525 1.356 . S
N523 H528 0.984 . S
N523 H529 0.985 . S
C524 C518 1.379 1_565 S
C524 C521 1.363 1_556 S
C524 N522 1.356 . S
C525 C519 1.363 . S
C525 C520 1.379 1_545 S
C525 N523 1.356 . S
N526 C518 1.356 . S
N526 H532 0.984 . S
N526 H533 0.984 . S
N527 C520 1.356 . S
N527 H530 0.984 . S
N527 H531 0.985 . S
H528 N523 0.984 . S
H529 N523 0.985 . S
H530 N527 0.984 . S
H531 N527 0.985 . S
H532 N526 0.984 . S
H533 N526 0.984 . S
H534 N522 0.984 . S
H535 N522 0.985 . S
C536 C537 1.363 1_556 S
C536 C542 1.379 . S
C536 N544 1.356 1_556 S
C537 C536 1.363 1_554 S
C537 C543 1.363 1_554 S
C538 C539 1.363 . S
C538 C543 1.379 . S
C538 N545 1.356 . S
C539 C538 1.363 . S
C539 C542 1.363 . S
N540 C542 1.356 . S
N540 H552 0.984 . S
N540 H553 0.985 . S
N541 C543 1.356 1_554 S
N541 H546 0.984 . S
N541 H547 0.985 1_554 S
C542 C536 1.379 . S
C542 C539 1.363 . S
C542 N540 1.356 . S
C543 C537 1.363 1_556 S
C543 C538 1.379 . S
C543 N541 1.356 1_556 S
N544 C536 1.356 1_554 S
N544 H550 0.984 . S
N544 H551 0.984 . S
N545 C538 1.356 . S
N545 H548 0.984 . S
N545 H549 0.985 . S
H546 N541 0.984 . S
H547 N541 0.985 1_556 S
H548 N545 0.984 . S
H549 N545 0.985 . S
H550 N544 0.984 . S
H551 N544 0.984 . S
H552 N540 0.984 . S
H553 N540 0.985 . S
C554 C555 1.363 1_556 S
C554 C560 1.379 . S
C554 N562 1.356 1_556 S
C555 C554 1.363 1_554 S
C555 C561 1.363 1_554 S
C556 C557 1.363 . S
C556 C561 1.379 . S
C556 N563 1.356 . S
C557 C556 1.363 . S
C557 C560 1.363 . S
N558 C560 1.356 . S
N558 H570 0.984 . S
N558 H571 0.985 . S
N559 C561 1.356 1_554 S
N559 H564 0.984 . S
N559 H565 0.985 . S
C560 C554 1.379 . S
C560 C557 1.363 . S
C560 N558 1.356 . S
C561 C555 1.363 1_556 S
C561 C556 1.379 . S
C561 N559 1.356 1_556 S
N562 C554 1.356 1_554 S
N562 H568 0.984 1_554 S
N562 H569 0.984 . S
N563 C556 1.356 . S
N563 H566 0.984 . S
N563 H567 0.985 . S
H564 N559 0.984 . S
H565 N559 0.985 . S
H566 N563 0.984 . S
H567 N563 0.985 . S
H568 N562 0.984 1_556 S
H569 N562 0.984 . S
H570 N558 0.984 . S
H571 N558 0.985 . S
C572 C573 1.363 . S
C572 C578 1.379 . S
C572 N580 1.356 . S
C573 C572 1.363 . S
C573 C579 1.363 . S
C574 C575 1.363 1_554 S
C574 C579 1.379 . S
C574 N581 1.356 1_554 S
C575 C574 1.363 1_556 S
C575 C578 1.363 1_556 S
N576 C578 1.356 1_556 S
N576 H588 0.984 1_556 S
N576 H589 0.985 . S
N577 C579 1.356 . S
N577 H582 0.984 . S
N577 H583 0.985 . S
C578 C572 1.379 . S
C578 C575 1.363 1_554 S
C578 N576 1.356 1_554 S
C579 C573 1.363 . S
C579 C574 1.379 . S
C579 N577 1.356 . S
N580 C572 1.356 . S
N580 H586 0.984 . S
N580 H587 0.984 . S
N581 C574 1.356 1_556 S
N581 H584 0.984 . S
N581 H585 0.985 . S
H582 N577 0.984 . S
H583 N577 0.985 . S
H584 N581 0.984 . S
H585 N581 0.985 . S
H586 N580 0.984 . S
H587 N580 0.984 . S
H588 N576 0.984 1_554 S
H589 N576 0.985 . S
C590 C591 1.363 1_554 S
C590 C596 1.379 . S
C590 N598 1.356 1_554 S
C591 C590 1.363 1_556 S
C591 C597 1.363 1_556 S
C592 C593 1.363 . S
C592 C597 1.379 . S
C592 N599 1.356 . S
C593 C592 1.363 . S
C593 C596 1.363 . S
N594 C596 1.356 . S
N594 H606 0.984 . S
N594 H607 0.985 . S
N595 C597 1.356 1_556 S
N595 H600 0.984 . S
N595 H601 0.985 . S
C596 C590 1.379 . S
C596 C593 1.363 . S
C596 N594 1.356 . S
C597 C591 1.363 1_554 S
C597 C592 1.379 . S
C597 N595 1.356 1_554 S
N598 C590 1.356 1_556 S
N598 H604 0.984 1_556 S
N598 H605 0.984 . S
N599 C592 1.356 . S
N599 H602 0.984 . S
N599 H603 0.985 . S
H600 N595 0.984 . S
H601 N595 0.985 . S
H602 N599 0.984 . S
H603 N599 0.985 . S
H604 N598 0.984 1_554 S
H605 N598 0.984 . S
H606 N594 0.984 . S
H607 N594 0.985 . S
C608 C609 1.363 . S
C608 C614 1.379 . S
C608 N616 1.356 . S
C609 C608 1.363 . S
C609 C615 1.363 . S
C610 C611 1.363 . S
C610 C615 1.379 . S
C610 N617 1.356 . S
C611 C610 1.363 . S
C611 C614 1.363 . S
N612 C614 1.356 . S
N612 H624 0.984 . S
N612 H625 0.985 . S
N613 C615 1.356 . S
N613 H618 0.984 . S
N613 H619 0.985 . S
C614 C608 1.379 . S
C614 C611 1.363 . S
C614 N612 1.356 . S
C615 C609 1.363 . S
C615 C610 1.379 . S
C615 N613 1.356 . S
N616 C608 1.356 . S
N616 H622 0.984 . S
N616 H623 0.984 . S
N617 C610 1.356 . S
N617 H620 0.984 . S
N617 H621 0.985 . S
H618 N613 0.984 . S
H619 N613 0.985 . S
H620 N617 0.984 . S
H621 N617 0.985 . S
H622 N616 0.984 . S
H623 N616 0.984 . S
H624 N612 0.984 . S
H625 N612 0.985 . S
C626 C627 1.363 . S
C626 C632 1.379 . S
C626 N634 1.356 . S
C627 C626 1.363 . S
C627 C633 1.363 . S
C628 C629 1.363 . S
C628 C633 1.379 . S
C628 N635 1.356 . S
C629 C628 1.363 . S
C629 C632 1.363 . S
N630 C632 1.356 . S
N630 H642 0.984 . S
N630 H643 0.985 . S
N631 C633 1.356 . S
N631 H636 0.984 . S
N631 H637 0.985 . S
C632 C626 1.379 . S
C632 C629 1.363 . S
C632 N630 1.356 . S
C633 C627 1.363 . S
C633 C628 1.379 . S
C633 N631 1.356 . S
N634 C626 1.356 . S
N634 H640 0.984 . S
N634 H641 0.984 . S
N635 C628 1.356 . S
N635 H638 0.984 . S
N635 H639 0.985 . S
H636 N631 0.984 . S
H637 N631 0.985 . S
H638 N635 0.984 . S
H639 N635 0.985 . S
H640 N634 0.984 . S
H641 N634 0.984 . S
H642 N630 0.984 . S
H643 N630 0.985 . S
C644 C645 1.363 . S
C644 C650 1.379 . S
C644 N652 1.356 . S
C645 C644 1.363 . S
C645 C651 1.363 . S
C646 C647 1.363 . S
C646 C651 1.379 . S
C646 N653 1.356 . S
C647 C646 1.363 . S
C647 C650 1.363 . S
N648 C650 1.356 . S
N648 H660 0.984 . S
N648 H661 0.985 . S
N649 C651 1.356 . S
N649 H654 0.984 . S
N649 H655 0.985 . S
C650 C644 1.379 . S
C650 C647 1.363 . S
C650 N648 1.356 . S
C651 C645 1.363 . S
C651 C646 1.379 . S
C651 N649 1.356 . S
N652 C644 1.356 . S
N652 H658 0.984 . S
N652 H659 0.984 . S
N653 C646 1.356 . S
N653 H656 0.984 . S
N653 H657 0.985 . S
H654 N649 0.984 . S
H655 N649 0.985 . S
H656 N653 0.984 . S
H657 N653 0.985 . S
H658 N652 0.984 . S
H659 N652 0.984 . S
H660 N648 0.984 . S
H661 N648 0.985 . S
C662 C663 1.363 . S
C662 C668 1.379 . S
C662 N670 1.356 . S
C663 C662 1.363 . S
C663 C669 1.363 . S
C664 C665 1.363 . S
C664 C669 1.379 . S
C664 N671 1.356 . S
C665 C664 1.363 . S
C665 C668 1.363 . S
N666 C668 1.356 . S
N666 H678 0.984 . S
N666 H679 0.985 . S
N667 C669 1.356 . S
N667 H672 0.984 . S
N667 H673 0.985 . S
C668 C662 1.379 . S
C668 C665 1.363 . S
C668 N666 1.356 . S
C669 C663 1.363 . S
C669 C664 1.379 . S
C669 N667 1.356 . S
N670 C662 1.356 . S
N670 H676 0.984 . S
N670 H677 0.984 . S
N671 C664 1.356 . S
N671 H674 0.984 . S
N671 H675 0.985 . S
H672 N667 0.984 . S
H673 N667 0.985 . S
H674 N671 0.984 . S
H675 N671 0.985 . S
H676 N670 0.984 . S
H677 N670 0.984 . S
H678 N666 0.984 . S
H679 N666 0.985 . S
C680 C681 1.363 . S
C680 C686 1.379 1_455 S
C680 N688 1.356 1_554 S
C681 C680 1.363 . S
C681 C687 1.363 . S
C682 C683 1.363 . S
C682 C687 1.379 1_655 S
C682 N689 1.356 . S
C683 C682 1.363 . S
C683 C686 1.363 . S
N684 C686 1.356 1_556 S
N684 H696 0.984 . S
N684 H697 0.985 1_556 S
N685 C687 1.356 . S
N685 H690 0.984 . S
N685 H691 0.985 . S
C686 C680 1.379 1_655 S
C686 C683 1.363 . S
C686 N684 1.356 1_554 S
C687 C681 1.363 . S
C687 C682 1.379 1_455 S
C687 N685 1.356 . S
N688 C680 1.356 1_556 S
N688 H694 0.984 . S
N688 H695 0.984 1_556 S
N689 C682 1.356 . S
N689 H692 0.984 . S
N689 H693 0.985 . S
H690 N685 0.984 . S
H691 N685 0.985 . S
H692 N689 0.984 . S
H693 N689 0.985 . S
H694 N688 0.984 . S
H695 N688 0.984 1_554 S
H696 N684 0.984 . S
H697 N684 0.985 1_554 S
C698 C699 1.363 . S
C698 C704 1.379 1_655 S
C698 N706 1.356 1_556 S
C699 C698 1.363 . S
C699 C705 1.363 . S
C700 C701 1.363 . S
C700 C705 1.379 1_455 S
C700 N707 1.356 . S
C701 C700 1.363 . S
C701 C704 1.363 . S
N702 C704 1.356 1_554 S
N702 H714 0.984 . S
N702 H715 0.985 1_554 S
N703 C705 1.356 . S
N703 H708 0.984 . S
N703 H709 0.985 . S
C704 C698 1.379 1_455 S
C704 C701 1.363 . S
C704 N702 1.356 1_556 S
C705 C699 1.363 . S
C705 C700 1.379 1_655 S
C705 N703 1.356 . S
N706 C698 1.356 1_554 S
N706 H712 0.984 . S
N706 H713 0.984 1_554 S
N707 C700 1.356 . S
N707 H710 0.984 . S
N707 H711 0.985 . S
H708 N703 0.984 . S
H709 N703 0.985 . S
H710 N707 0.984 . S
H711 N707 0.985 . S
H712 N706 0.984 . S
H713 N706 0.984 1_556 S
H714 N702 0.984 . S
H715 N702 0.985 1_556 S
C716 C717 1.363 . S
C716 C722 1.379 . S
C716 N724 1.356 . S
C717 C716 1.363 . S
C717 C723 1.363 . S
C718 C719 1.363 . S
C718 C723 1.379 . S
C718 N725 1.356 . S
C719 C718 1.363 . S
C719 C722 1.363 . S
N720 C722 1.356 . S
N720 H732 0.984 . S
N720 H733 0.985 . S
N721 C723 1.356 . S
N721 H726 0.984 . S
N721 H727 0.985 . S
C722 C716 1.379 . S
C722 C719 1.363 . S
C722 N720 1.356 . S
C723 C717 1.363 . S
C723 C718 1.379 . S
C723 N721 1.356 . S
N724 C716 1.356 . S
N724 H730 0.984 . S
N724 H731 0.984 . S
N725 C718 1.356 . S
N725 H728 0.984 . S
N725 H729 0.985 . S
H726 N721 0.984 . S
H727 N721 0.985 . S
H728 N725 0.984 . S
H729 N725 0.985 . S
H730 N724 0.984 . S
H731 N724 0.984 . S
H732 N720 0.984 . S
H733 N720 0.985 . S
C734 C735 1.363 . S
C734 C740 1.379 . S
C734 N742 1.356 . S
C735 C734 1.363 . S
C735 C741 1.363 . S
C736 C737 1.363 . S
C736 C741 1.379 . S
C736 N743 1.356 . S
C737 C736 1.363 . S
C737 C740 1.363 . S
N738 C740 1.356 . S
N738 H750 0.984 . S
N738 H751 0.985 . S
N739 C741 1.356 . S
N739 H744 0.984 . S
N739 H745 0.985 . S
C740 C734 1.379 . S
C740 C737 1.363 . S
C740 N738 1.356 . S
C741 C735 1.363 . S
C741 C736 1.379 . S
C741 N739 1.356 . S
N742 C734 1.356 . S
N742 H748 0.984 . S
N742 H749 0.984 . S
N743 C736 1.356 . S
N743 H746 0.984 . S
N743 H747 0.985 . S
H744 N739 0.984 . S
H745 N739 0.985 . S
H746 N743 0.984 . S
H747 N743 0.985 . S
H748 N742 0.984 . S
H749 N742 0.984 . S
H750 N738 0.984 . S
H751 N738 0.985 . S
C321 C6 1.703 . S
C323 C295 1.702 . S
C339 C255 1.703 . S
C341 C46 1.702 . S
C357 C206 1.703 . S
C359 C95 1.702 . S
C375 C166 1.703 . S
C377 C135 1.702 . S
C393 C89 1.604 . S
C395 C9 1.639 . S
C411 C49 1.639 . S
C413 C129 1.604 . S
C429 C138 1.639 . S
C431 C58 1.604 . S
C447 C98 1.639 . S
C449 C18 1.604 . S
C465 C169 1.437 . S
C467 C249 1.437 . S
C483 C209 1.437 . S
C485 C289 1.437 . S
C501 C298 1.438 . S
C503 C218 1.438 . S
C519 C258 1.438 . S
C521 C178 1.438 . S
C537 C19 2.065 . S
C539 C10 2.065 . S
C555 C59 2.065 . S
C557 C50 2.065 . S
C573 C99 2.065 . S
C575 C90 2.065 . S
C591 C130 2.065 . S
C593 C139 2.065 . S
C609 C170 2.064 . S
C611 C179 2.064 . S
C627 C219 2.064 . S
C629 C210 2.064 . S
C645 C250 2.064 . S
C647 C259 2.064 . S
C663 C290 2.064 . S
C665 C299 2.064 . S
C681 C15 2.245 . S
C683 C55 2.245 . S
C699 C126 2.245 . S
C701 C86 2.245 . S
C717 C175 2.247 . S
C719 C215 2.247 . S
C735 C286 2.247 . S
C737 C246 2.247 . S
