# Generated by pormake.
# Topology ung, (4)-cn, num edge types: 1
# Building blocks:
#     Node 0, Type 0, BuildingBlock: ICAMEG_clean_sbu_1, # of connection points: 4
#     Node 1, Type 0, BuildingBlock: ICAMEG_clean_sbu_1, # of connection points: 4
#     Node 2, Type 0, BuildingBlock: ICAMEG_clean_sbu_1, # of connection points: 4
#     Node 3, Type 0, BuildingBlock: ICAMEG_clean_sbu_1, # of connection points: 4
#     Node 4, Type 0, BuildingBlock: ICAMEG_clean_sbu_1, # of connection points: 4
#     Node 5, Type 0, BuildingBlock: ICAMEG_clean_sbu_1, # of connection points: 4
#     Node 6, Type 0, BuildingBlock: ICAMEG_clean_sbu_1, # of connection points: 4
#     Node 7, Type 0, BuildingBlock: ICAMEG_clean_sbu_1, # of connection points: 4
#     Node 8, Type 0, BuildingBlock: ICAMEG_clean_sbu_1, # of connection points: 4
#     Node 9, Type 0, BuildingBlock: ICAMEG_clean_sbu_1, # of connection points: 4
#     Node 10, Type 0, BuildingBlock: ICAMEG_clean_sbu_1, # of connection points: 4
#     Node 11, Type 0, BuildingBlock: ICAMEG_clean_sbu_1, # of connection points: 4
#     Node 12, Type 0, BuildingBlock: ICAMEG_clean_sbu_1, # of connection points: 4
#     Node 13, Type 0, BuildingBlock: ICAMEG_clean_sbu_1, # of connection points: 4
#     Node 14, Type 0, BuildingBlock: ICAMEG_clean_sbu_1, # of connection points: 4
#     Node 15, Type 0, BuildingBlock: ICAMEG_clean_sbu_1, # of connection points: 4
#     Node 16, Type 0, BuildingBlock: ICAMEG_clean_sbu_1, # of connection points: 4
#     Node 17, Type 0, BuildingBlock: ICAMEG_clean_sbu_1, # of connection points: 4
#     Edge 18, Type (0, 0), BuildingBlock: XIVTED_clean_linker_0, # of connection points: 2
#     Edge 19, Type (0, 0), BuildingBlock: XIVTED_clean_linker_0, # of connection points: 2
#     Edge 20, Type (0, 0), BuildingBlock: XIVTED_clean_linker_0, # of connection points: 2
#     Edge 21, Type (0, 0), BuildingBlock: XIVTED_clean_linker_0, # of connection points: 2
#     Edge 22, Type (0, 0), BuildingBlock: XIVTED_clean_linker_0, # of connection points: 2
#     Edge 23, Type (0, 0), BuildingBlock: XIVTED_clean_linker_0, # of connection points: 2
#     Edge 24, Type (0, 0), BuildingBlock: XIVTED_clean_linker_0, # of connection points: 2
#     Edge 25, Type (0, 0), BuildingBlock: XIVTED_clean_linker_0, # of connection points: 2
#     Edge 26, Type (0, 0), BuildingBlock: XIVTED_clean_linker_0, # of connection points: 2
#     Edge 27, Type (0, 0), BuildingBlock: XIVTED_clean_linker_0, # of connection points: 2
#     Edge 28, Type (0, 0), BuildingBlock: XIVTED_clean_linker_0, # of connection points: 2
#     Edge 29, Type (0, 0), BuildingBlock: XIVTED_clean_linker_0, # of connection points: 2
#     Edge 30, Type (0, 0), BuildingBlock: XIVTED_clean_linker_0, # of connection points: 2
#     Edge 31, Type (0, 0), BuildingBlock: XIVTED_clean_linker_0, # of connection points: 2
#     Edge 32, Type (0, 0), BuildingBlock: XIVTED_clean_linker_0, # of connection points: 2
#     Edge 33, Type (0, 0), BuildingBlock: XIVTED_clean_linker_0, # of connection points: 2
#     Edge 34, Type (0, 0), BuildingBlock: XIVTED_clean_linker_0, # of connection points: 2
#     Edge 35, Type (0, 0), BuildingBlock: XIVTED_clean_linker_0, # of connection points: 2
#     Edge 36, Type (0, 0), BuildingBlock: XIVTED_clean_linker_0, # of connection points: 2
#     Edge 37, Type (0, 0), BuildingBlock: XIVTED_clean_linker_0, # of connection points: 2
#     Edge 38, Type (0, 0), BuildingBlock: XIVTED_clean_linker_0, # of connection points: 2
#     Edge 39, Type (0, 0), BuildingBlock: XIVTED_clean_linker_0, # of connection points: 2
#     Edge 40, Type (0, 0), BuildingBlock: XIVTED_clean_linker_0, # of connection points: 2
#     Edge 41, Type (0, 0), BuildingBlock: XIVTED_clean_linker_0, # of connection points: 2
#     Edge 42, Type (0, 0), BuildingBlock: XIVTED_clean_linker_0, # of connection points: 2
#     Edge 43, Type (0, 0), BuildingBlock: XIVTED_clean_linker_0, # of connection points: 2
#     Edge 44, Type (0, 0), BuildingBlock: XIVTED_clean_linker_0, # of connection points: 2
#     Edge 45, Type (0, 0), BuildingBlock: XIVTED_clean_linker_0, # of connection points: 2
#     Edge 46, Type (0, 0), BuildingBlock: XIVTED_clean_linker_0, # of connection points: 2
#     Edge 47, Type (0, 0), BuildingBlock: XIVTED_clean_linker_0, # of connection points: 2
#     Edge 48, Type (0, 0), BuildingBlock: XIVTED_clean_linker_0, # of connection points: 2
#     Edge 49, Type (0, 0), BuildingBlock: XIVTED_clean_linker_0, # of connection points: 2
#     Edge 50, Type (0, 0), BuildingBlock: XIVTED_clean_linker_0, # of connection points: 2
#     Edge 51, Type (0, 0), BuildingBlock: XIVTED_clean_linker_0, # of connection points: 2
#     Edge 52, Type (0, 0), BuildingBlock: XIVTED_clean_linker_0, # of connection points: 2
#     Edge 53, Type (0, 0), BuildingBlock: XIVTED_clean_linker_0, # of connection points: 2
# Relax obj value: 0.020
# Max RMSD: 0.108
# Mean RMSD: 0.108
data_MOF--net-ung--node1-ICAMEG_clean_sbu_1--edge1-XIVTED_clean_linker_0
_symmetry_space_group_name_H-M    P1
_symmetry_Int_Tables_number       1
_symmetry_cell_setting            triclinic
loop_
_symmetry_equiv_pos_as_xyz
'x, y, z'
_cell_length_a     76.883158
_cell_length_b     76.98791
_cell_length_c     24.845204
_cell_angle_alpha  90.045897
_cell_angle_beta   90.052146
_cell_angle_gamma 120.00326
loop_
_atom_site_label
_atom_site_type_symbol
_atom_site_fract_x
_atom_site_fract_y
_atom_site_fract_z
_atom_type_partial_charge
Co0 Co 0.08419 0.64841 0.20079 0.0
Co1 Co 0.04422 0.62798 0.2882 0.0
O2 O 0.06434 0.62636 0.24429 0.0
C3 C 0.06451 0.61441 0.12576 0.0
O4 O 0.04738 0.61211 0.14325 0.0
C5 C 0.06457 0.61421 0.36249 0.0
O6 O 0.0815 0.62933 0.34505 0.0
O7 O 0.06522 0.65291 0.32313 0.0
O8 O 0.0877 0.66857 0.25705 0.0
H9 H 0.01035 0.66237 0.37419 0.0
H10 H 0.08943 0.61348 0.22359 0.0
O11 O 0.08103 0.62864 0.14386 0.0
H12 H 0.14969 0.67202 0.29834 0.0
H13 H 0.1432 0.68091 0.07476 0.0
H14 H 0.09206 0.68916 0.17291 0.0
H15 H 0.12359 0.67622 0.25231 0.0
H16 H 0.11828 0.65371 0.1322 0.0
O17 O 0.04786 0.61152 0.34462 0.0
H18 H 0.03544 0.6602 0.31712 0.0
H19 H 0.01046 0.59861 0.35656 0.0
H20 H 0.11678 0.7168 0.11626 0.0
H21 H 0.11523 0.60863 0.26893 0.0
H22 H 0.14259 0.71276 0.0667 0.0
H23 H 0.1456 0.63803 0.30685 0.0
O24 O 0.06285 0.6519 0.16625 0.0
H25 H 0.01443 0.55744 0.21878 0.0
H26 H 0.00462 0.61577 0.23697 0.0
H27 H 0.97889 0.58533 0.19066 0.0
H28 H 0.98371 0.55588 0.18138 0.0
H29 H 0.03986 0.58823 0.2644 0.0
H30 H 0.98518 0.60014 0.41441 0.0
H31 H 0.98498 0.63218 0.42331 0.0
O32 O 0.04026 0.6445 0.23245 0.0
C33 C 0.08054 0.66823 0.30363 0.0
C34 C 0.01023 0.6483 0.37046 0.0
C35 C 0.99612 0.61338 0.39309 0.0
N36 N 0.02427 0.62925 0.33308 0.0
C37 C 0.02436 0.64697 0.33807 0.0
C38 C 0.01048 0.61262 0.36035 0.0
C39 C 0.99602 0.63137 0.39806 0.0
C40 C 0.1027 0.62637 0.23946 0.0
N41 N 0.10504 0.64512 0.23504 0.0
C42 C 0.11722 0.62352 0.26531 0.0
C43 C 0.13423 0.64002 0.28666 0.0
C44 C 0.13653 0.6591 0.28193 0.0
C45 C 0.12168 0.66138 0.25592 0.0
C46 C 0.13206 0.68287 0.09627 0.0
C47 C 0.10334 0.68735 0.15177 0.0
C48 C 0.1179 0.66752 0.12878 0.0
N49 N 0.10387 0.66994 0.15629 0.0
C50 C 0.11725 0.70303 0.11962 0.0
C51 C 0.13171 0.70074 0.09177 0.0
C52 C 0.04736 0.65154 0.18598 0.0
C53 C 0.01212 0.57015 0.22273 0.0
C54 C 0.00684 0.60303 0.233 0.0
C55 C 0.9922 0.58582 0.20684 0.0
C56 C 0.99491 0.5693 0.20168 0.0
N57 N 0.02368 0.60374 0.2536 0.0
C58 C 0.02643 0.58759 0.24874 0.0
Co59 Co 0.5014 0.48253 0.2922 0.0
Co60 Co 0.48123 0.50254 0.20525 0.0
O61 O 0.50321 0.50442 0.24874 0.0
C62 C 0.5153 0.51645 0.36731 0.0
O63 O 0.50031 0.51847 0.34968 0.0
C64 C 0.51516 0.51635 0.1303 0.0
O65 O 0.51715 0.50136 0.14786 0.0
O66 O 0.47724 0.47756 0.17053 0.0
O67 O 0.48492 0.4623 0.23589 0.0
H68 H 0.41255 0.46763 0.12118 0.0
H69 H 0.54131 0.5179 0.26937 0.0
O70 O 0.51787 0.50241 0.34918 0.0
H71 H 0.54399 0.45998 0.19419 0.0
H72 H 0.52886 0.45076 0.41773 0.0
H73 H 0.46896 0.44154 0.31996 0.0
H74 H 0.51354 0.45523 0.24043 0.0
H75 H 0.53062 0.47779 0.36059 0.0
O76 O 0.5011 0.51893 0.14828 0.0
H77 H 0.44013 0.47011 0.17761 0.0
H78 H 0.47642 0.53161 0.13666 0.0
H79 H 0.46656 0.41405 0.37631 0.0
H80 H 0.57211 0.52331 0.22382 0.0
H81 H 0.49667 0.41858 0.42567 0.0
H82 H 0.57356 0.49422 0.18568 0.0
O83 O 0.47643 0.47859 0.32696 0.0
H84 H 0.52209 0.57328 0.27341 0.0
H85 H 0.45393 0.51472 0.25688 0.0
H86 H 0.45871 0.5452 0.30293 0.0
H87 H 0.49299 0.57476 0.31139 0.0
H88 H 0.51666 0.54244 0.22804 0.0
H89 H 0.44929 0.52976 0.07943 0.0
H90 H 0.41705 0.49761 0.07162 0.0
O91 O 0.46103 0.48616 0.26163 0.0
C92 C 0.47771 0.46243 0.18966 0.0
C93 C 0.4265 0.48174 0.12443 0.0
C94 C 0.44713 0.51661 0.10094 0.0
N95 N 0.45977 0.50103 0.16084 0.0
C96 C 0.44214 0.48325 0.15646 0.0
C97 C 0.46244 0.51755 0.13333 0.0
C98 C 0.42904 0.49857 0.09659 0.0
C99 C 0.5419 0.50514 0.25341 0.0
N100 N 0.52568 0.48626 0.25783 0.0
C101 C 0.55935 0.50831 0.22744 0.0
C102 C 0.56014 0.49199 0.20597 0.0
C103 C 0.54355 0.47277 0.21069 0.0
C104 C 0.52633 0.47018 0.23683 0.0
C105 C 0.51565 0.44859 0.39631 0.0
C106 C 0.48215 0.44356 0.34103 0.0
C107 C 0.51655 0.46384 0.36397 0.0
N108 N 0.49995 0.46115 0.33657 0.0
C109 C 0.48069 0.42797 0.37301 0.0
C110 C 0.49759 0.43053 0.40074 0.0
C111 C 0.46125 0.47905 0.30789 0.0
C112 C 0.50708 0.56052 0.26981 0.0
C113 C 0.4689 0.52751 0.26047 0.0
C114 C 0.47151 0.54474 0.2865 0.0
C115 C 0.49075 0.56133 0.2912 0.0
N116 N 0.48499 0.52684 0.23955 0.0
C117 C 0.50389 0.54305 0.24395 0.0
Co118 Co 0.62745 0.04378 0.20586 0.0
Co119 Co 0.64758 0.0839 0.29306 0.0
O120 O 0.62559 0.06385 0.24946 0.0
C121 C 0.61348 0.06373 0.13075 0.0
O122 O 0.62842 0.08077 0.14835 0.0
C123 C 0.61364 0.06404 0.36819 0.0
O124 O 0.61145 0.04696 0.35066 0.0
O125 O 0.65143 0.06284 0.32781 0.0
O126 O 0.64393 0.04003 0.26214 0.0
H127 H 0.71618 0.11735 0.37755 0.0
H128 H 0.5875 0.03919 0.22872 0.0
O129 O 0.61097 0.04717 0.14892 0.0
H130 H 0.58492 0.97861 0.3033 0.0
H131 H 0.60015 0.98464 0.07992 0.0
H132 H 0.65995 0.03527 0.17807 0.0
H133 H 0.61538 0.00436 0.25736 0.0
H134 H 0.5983 0.00985 0.13726 0.0
O135 O 0.62774 0.08057 0.34996 0.0
H136 H 0.68859 0.09234 0.32098 0.0
H137 H 0.6525 0.11787 0.36155 0.0
H138 H 0.66244 0.01024 0.12152 0.0
H139 H 0.55668 0.01374 0.27397 0.0
H140 H 0.63238 0.98469 0.07197 0.0
H141 H 0.55528 0.98322 0.3118 0.0
O142 O 0.6524 0.06481 0.17116 0.0
H143 H 0.60694 0.114 0.22473 0.0
H144 H 0.67501 0.1233 0.24152 0.0
H145 H 0.67035 0.14906 0.19546 0.0
H146 H 0.63612 0.1445 0.18687 0.0
H147 H 0.61225 0.08854 0.2701 0.0
H148 H 0.67963 0.14306 0.41891 0.0
H149 H 0.71178 0.14295 0.42699 0.0
O150 O 0.66779 0.08761 0.23683 0.0
C151 C 0.65101 0.04727 0.30854 0.0
C152 C 0.70227 0.1176 0.37418 0.0
C153 C 0.68175 0.13202 0.39746 0.0
N154 N 0.66905 0.10379 0.33755 0.0
C155 C 0.68663 0.10353 0.34208 0.0
C156 C 0.66643 0.1177 0.365 0.0
C157 C 0.69979 0.13195 0.40196 0.0
C158 C 0.58693 0.02585 0.24457 0.0
N159 N 0.60318 0.02322 0.24014 0.0
C160 C 0.56947 0.01153 0.27037 0.0
C161 C 0.56871 0.99442 0.29166 0.0
C162 C 0.58534 0.99184 0.28694 0.0
C163 C 0.60256 0.00649 0.26098 0.0
C164 C 0.61334 0.99566 0.10142 0.0
C165 C 0.64678 0.0241 0.15692 0.0
C166 C 0.61239 0.00999 0.13388 0.0
N167 N 0.62896 0.02388 0.16138 0.0
C168 C 0.64829 0.01002 0.12483 0.0
C169 C 0.63142 0.9957 0.09699 0.0
C170 C 0.66759 0.08037 0.19044 0.0
C171 C 0.62194 0.11619 0.22838 0.0
C172 C 0.66006 0.12119 0.23787 0.0
C173 C 0.65752 0.13585 0.21184 0.0
C174 C 0.63831 0.13328 0.20707 0.0
N175 N 0.64393 0.10448 0.25872 0.0
C176 C 0.62505 0.10187 0.25424 0.0
Co177 Co 0.04381 0.48213 0.78536 0.0
Co178 Co 0.08522 0.50271 0.7017 0.0
O179 O 0.06447 0.50411 0.74334 0.0
C180 C 0.06423 0.51532 0.86284 0.0
O181 O 0.08126 0.51751 0.8448 0.0
C182 C 0.06449 0.51491 0.6239 0.0
O183 O 0.04763 0.49991 0.6421 0.0
O184 O 0.06515 0.4769 0.66791 0.0
O185 O 0.03959 0.4625 0.72705 0.0
H186 H 0.1221 0.46971 0.62579 0.0
H187 H 0.0413 0.51872 0.76419 0.0
O188 O 0.04761 0.50149 0.84408 0.0
H189 H 0.97903 0.46287 0.68866 0.0
H190 H 0.98418 0.45051 0.90961 0.0
H191 H 0.03349 0.44027 0.80834 0.0
H192 H 0.00375 0.45644 0.73435 0.0
H193 H 0.0102 0.47778 0.85462 0.0
O194 O 0.08125 0.51802 0.64254 0.0
H195 H 0.09598 0.47139 0.67936 0.0
H196 H 0.11879 0.53201 0.63274 0.0
H197 H 0.00761 0.41253 0.86247 0.0
H198 H 0.01691 0.52584 0.71929 0.0
H199 H 0.98273 0.41757 0.91358 0.0
H200 H 0.98555 0.49779 0.68092 0.0
O201 O 0.06414 0.47683 0.81981 0.0
H202 H 0.11217 0.57367 0.76494 0.0
H203 H 0.12471 0.51686 0.75573 0.0
H204 H 0.14934 0.54816 0.80097 0.0
H205 H 0.14313 0.57684 0.80576 0.0
H206 H 0.08787 0.54205 0.72041 0.0
H207 H 0.14508 0.53097 0.57831 0.0
H208 H 0.14689 0.49966 0.57477 0.0
O209 O 0.0894 0.48742 0.76002 0.0
C210 C 0.04842 0.46229 0.68378 0.0
C211 C 0.1215 0.48345 0.62713 0.0
C212 C 0.13438 0.51783 0.60043 0.0
N213 N 0.10595 0.50181 0.65947 0.0
C214 C 0.10678 0.4845 0.65751 0.0
C215 C 0.11944 0.51832 0.63121 0.0
C216 C 0.1354 0.50026 0.59848 0.0
C217 C 0.02761 0.50642 0.74798 0.0
N218 N 0.02396 0.48718 0.75179 0.0
C219 C 0.01389 0.51055 0.72244 0.0
C220 C 0.99631 0.49482 0.70086 0.0
C221 C 0.99265 0.47522 0.70513 0.0
C222 C 0.00674 0.47167 0.73084 0.0
C223 C 0.99492 0.44811 0.88744 0.0
C224 C 0.02262 0.44253 0.83021 0.0
C225 C 0.00971 0.46352 0.85635 0.0
N226 N 0.02324 0.46056 0.82799 0.0
C227 C 0.00805 0.42679 0.86091 0.0
C228 C 0.9941 0.42963 0.88963 0.0
C229 C 0.08079 0.47875 0.80378 0.0
C230 C 0.11508 0.5613 0.76294 0.0
C231 C 0.1219 0.52928 0.75766 0.0
C232 C 0.13592 0.54697 0.78327 0.0
C233 C 0.13243 0.56306 0.78591 0.0
N234 N 0.10493 0.52768 0.73516 0.0
C235 C 0.10142 0.54339 0.73756 0.0
Co236 Co 0.62734 0.64743 0.7093 0.0
Co237 Co 0.64895 0.62758 0.79273 0.0
O238 O 0.62651 0.62571 0.7514 0.0
C239 C 0.61471 0.61418 0.63219 0.0
O240 O 0.62982 0.61237 0.64986 0.0
C241 C 0.61608 0.61492 0.87076 0.0
O242 O 0.61401 0.62981 0.85273 0.0
O243 O 0.65431 0.65325 0.82652 0.0
O244 O 0.6429 0.66731 0.76703 0.0
H245 H 0.71901 0.66174 0.8683 0.0
H246 H 0.5885 0.61059 0.73138 0.0
O247 O 0.61167 0.62781 0.65106 0.0
H248 H 0.58171 0.66609 0.80738 0.0
H249 H 0.59808 0.67804 0.58567 0.0
H250 H 0.65843 0.68938 0.68518 0.0
H251 H 0.61281 0.67282 0.76098 0.0
H252 H 0.59746 0.65111 0.64086 0.0
O253 O 0.62986 0.61204 0.85201 0.0
H254 H 0.69087 0.6595 0.815 0.0
H255 H 0.65397 0.59868 0.86138 0.0
H256 H 0.65967 0.71679 0.63083 0.0
H257 H 0.55705 0.60318 0.77702 0.0
H258 H 0.62934 0.71119 0.5806 0.0
H259 H 0.55354 0.63104 0.81561 0.0
O260 O 0.65291 0.65298 0.67427 0.0
H261 H 0.60576 0.55645 0.72969 0.0
H262 H 0.67472 0.61412 0.73825 0.0
H263 H 0.6685 0.58301 0.69288 0.0
H264 H 0.63381 0.55389 0.68841 0.0
H265 H 0.61262 0.58788 0.77433 0.0
H266 H 0.68165 0.60028 0.91554 0.0
H267 H 0.71448 0.63197 0.91907 0.0
O268 O 0.66824 0.64315 0.73425 0.0
C269 C 0.65209 0.66775 0.8103 0.0
C270 C 0.7048 0.64783 0.86695 0.0
C271 C 0.68382 0.61334 0.89352 0.0
N272 N 0.67087 0.62894 0.83473 0.0
C273 C 0.68883 0.64645 0.8367 0.0
C274 C 0.66819 0.61254 0.86288 0.0
C275 C 0.70224 0.63113 0.89546 0.0
C276 C 0.58702 0.62282 0.74767 0.0
N277 N 0.60248 0.64213 0.74355 0.0
C278 C 0.5692 0.61852 0.77363 0.0
C279 C 0.56726 0.63415 0.79534 0.0
C280 C 0.58306 0.65382 0.7908 0.0
C281 C 0.60067 0.65754 0.76466 0.0
C282 C 0.61139 0.68067 0.60745 0.0
C283 C 0.64513 0.68688 0.6637 0.0
C284 C 0.61114 0.66547 0.63866 0.0
N285 N 0.62785 0.66874 0.66653 0.0
C286 C 0.64594 0.70243 0.63287 0.0
C287 C 0.62892 0.69927 0.60464 0.0
C288 C 0.66794 0.65156 0.6903 0.0
C289 C 0.62095 0.569 0.73155 0.0
C290 C 0.65958 0.60151 0.73646 0.0
C291 C 0.65615 0.58393 0.71078 0.0
C292 C 0.63669 0.56759 0.70832 0.0
N293 N 0.64406 0.60277 0.75921 0.0
C294 C 0.62494 0.58681 0.75699 0.0
Co295 Co 0.50077 0.08435 0.79252 0.0
Co296 Co 0.48056 0.04406 0.7059 0.0
O297 O 0.50258 0.06421 0.7492 0.0
C298 C 0.51475 0.06451 0.86791 0.0
O299 O 0.49978 0.04745 0.85045 0.0
C300 C 0.51441 0.06384 0.63052 0.0
O301 O 0.51659 0.08093 0.64789 0.0
O302 O 0.4766 0.06501 0.67091 0.0
O303 O 0.48424 0.08801 0.73615 0.0
H304 H 0.41184 0.01032 0.62209 0.0
H305 H 0.54068 0.08887 0.76972 0.0
O306 O 0.51727 0.08105 0.84955 0.0
H307 H 0.54328 0.14933 0.69419 0.0
H308 H 0.52821 0.14374 0.91764 0.0
H309 H 0.46831 0.09296 0.82014 0.0
H310 H 0.51283 0.12369 0.74044 0.0
H311 H 0.52998 0.1184 0.86068 0.0
O312 O 0.50034 0.04733 0.64889 0.0
H313 H 0.43948 0.03547 0.67825 0.0
H314 H 0.47563 0.00999 0.63781 0.0
H315 H 0.4659 0.11812 0.8763 0.0
H316 H 0.57148 0.11421 0.72417 0.0
H317 H 0.49601 0.14374 0.92552 0.0
H318 H 0.57289 0.14467 0.68587 0.0
O319 O 0.47583 0.0634 0.82748 0.0
H320 H 0.52141 0.01422 0.77451 0.0
H321 H 0.45326 0.00473 0.75798 0.0
H322 H 0.45804 0.97911 0.80438 0.0
H323 H 0.49231 0.98377 0.81284 0.0
H324 H 0.51597 0.03954 0.7288 0.0
H325 H 0.44844 0.98465 0.58086 0.0
H326 H 0.41624 0.98467 0.57292 0.0
O327 O 0.46041 0.0404 0.76226 0.0
C328 C 0.47706 0.08064 0.68992 0.0
C329 C 0.42577 0.0101 0.6254 0.0
C330 C 0.44633 0.99571 0.6022 0.0
N331 N 0.45905 0.02405 0.66172 0.0
C332 C 0.44145 0.02426 0.65727 0.0
C333 C 0.46167 0.01011 0.63443 0.0
C334 C 0.42826 0.99573 0.59777 0.0
C335 C 0.54126 0.10218 0.75366 0.0
N336 N 0.52502 0.10484 0.758 0.0
C337 C 0.5587 0.11644 0.7277 0.0
C338 C 0.55947 0.13351 0.70614 0.0
C339 C 0.54285 0.13613 0.71076 0.0
C340 C 0.52564 0.12153 0.7369 0.0
C341 C 0.515 0.13268 0.89627 0.0
C342 C 0.4815 0.10415 0.84114 0.0
C343 C 0.51591 0.11828 0.86404 0.0
N344 N 0.49931 0.10435 0.83671 0.0
C345 C 0.48003 0.11832 0.87301 0.0
C346 C 0.49693 0.13268 0.90067 0.0
C347 C 0.46065 0.04776 0.8085 0.0
C348 C 0.50639 0.01198 0.77092 0.0
C349 C 0.46822 0.00688 0.76157 0.0
C350 C 0.47083 0.9923 0.7878 0.0
C351 C 0.49007 0.99492 0.7925 0.0
N352 N 0.48431 0.02357 0.74047 0.0
C353 C 0.50321 0.02623 0.74486 0.0
Co354 Co 0.70998 0.95978 0.628 0.0
Co355 Co 0.74995 0.97906 0.54059 0.0
O356 O 0.7299 0.95749 0.58494 0.0
C357 C 0.72992 0.94606 0.70384 0.0
O358 O 0.74698 0.96091 0.6861 0.0
C359 C 0.72985 0.94455 0.46735 0.0
O360 O 0.71281 0.94261 0.48446 0.0
O361 O 0.72885 0.98272 0.50505 0.0
O362 O 0.7063 0.97601 0.5709 0.0
H363 H 0.78351 0.0469 0.45278 0.0
H364 H 0.70504 0.91961 0.60695 0.0
O365 O 0.71333 0.94356 0.68568 0.0
H366 H 0.64449 0.91706 0.53123 0.0
H367 H 0.65098 0.93363 0.754 0.0
H368 H 0.70178 0.99259 0.65413 0.0
H369 H 0.6705 0.94768 0.57624 0.0
H370 H 0.67604 0.93125 0.69728 0.0
O371 O 0.74646 0.95878 0.48493 0.0
H372 H 0.75849 0.01983 0.5103 0.0
H373 H 0.78382 0.98333 0.4728 0.0
H374 H 0.67691 0.99561 0.71002 0.0
H375 H 0.67932 0.88864 0.56267 0.0
H376 H 0.65127 0.96598 0.76044 0.0
H377 H 0.64882 0.88725 0.52427 0.0
O378 O 0.73122 0.98486 0.66192 0.0
H379 H 0.78002 0.93888 0.61241 0.0
H380 H 0.7895 0.00678 0.59154 0.0
H381 H 0.8153 0.00241 0.6387 0.0
H382 H 0.81065 0.96826 0.64935 0.0
H383 H 0.75452 0.9439 0.56591 0.0
H384 H 0.80903 0.00993 0.41451 0.0
H385 H 0.80902 0.04203 0.40441 0.0
O386 O 0.7538 0.9997 0.5956 0.0
C387 C 0.71344 0.98267 0.5242 0.0
C388 C 0.78372 0.03301 0.45702 0.0
C389 C 0.79803 0.01225 0.43549 0.0
N390 N 0.76984 0.00012 0.49532 0.0
C391 C 0.76963 0.01766 0.48967 0.0
C392 C 0.7837 0.99724 0.46847 0.0
C393 C 0.79801 0.03026 0.42985 0.0
C394 C 0.6917 0.91906 0.59086 0.0
N395 N 0.68923 0.9354 0.59444 0.0
C396 C 0.67724 0.9015 0.56561 0.0
C397 C 0.66014 0.90075 0.544 0.0
C398 C 0.65771 0.91748 0.54785 0.0
C399 C 0.67251 0.93479 0.57329 0.0
C400 C 0.66204 0.94664 0.73212 0.0
C401 C 0.69058 0.9796 0.67566 0.0
C402 C 0.67628 0.94538 0.70001 0.0
N403 N 0.69021 0.96172 0.67202 0.0
C404 C 0.67658 0.98142 0.70738 0.0
C405 C 0.66221 0.96479 0.7357 0.0
C406 C 0.74671 -0.00013 0.64191 0.0
C407 C 0.78226 0.95384 0.60786 0.0
C408 C 0.78735 0.99187 0.59608 0.0
C409 C 0.80203 0.98949 0.62273 0.0
C410 C 0.79942 0.97033 0.62866 0.0
N411 N 0.77057 0.97562 0.57575 0.0
C412 C 0.76791 0.95678 0.58135 0.0
Co413 Co 0.16861 0.81289 0.6262 0.0
Co414 Co 0.1488 0.83481 0.54363 0.0
O415 O 0.17048 0.83545 0.58575 0.0
C416 C 0.18055 0.8452 0.70557 0.0
O417 O 0.16567 0.8472 0.68696 0.0
C418 C 0.18216 0.84736 0.46694 0.0
O419 O 0.18395 0.83227 0.48468 0.0
O420 O 0.14303 0.80922 0.5082 0.0
O421 O 0.15349 0.79398 0.56655 0.0
H422 H 0.07935 0.80298 0.46481 0.0
H423 H 0.20829 0.84951 0.61025 0.0
O424 O 0.18372 0.83165 0.68662 0.0
H425 H 0.21424 0.79455 0.52696 0.0
H426 H 0.19576 0.77994 0.74855 0.0
H427 H 0.13686 0.77075 0.6457 0.0
H428 H 0.18274 0.78777 0.57117 0.0
H429 H 0.19737 0.8078 0.69559 0.0
O430 O 0.16848 0.8504 0.48554 0.0
H431 H 0.10671 0.804 0.51923 0.0
H432 H 0.14535 0.86483 0.47552 0.0
H433 H 0.13462 0.74244 0.69778 0.0
H434 H 0.2401 0.85692 0.56679 0.0
H435 H 0.16423 0.74695 0.74969 0.0
H436 H 0.24319 0.82933 0.5246 0.0
O437 O 0.14265 0.80708 0.65913 0.0
H438 H 0.19356 0.9048 0.61276 0.0
H439 H 0.12361 0.8496 0.59521 0.0
H440 H 0.1306 0.88066 0.64229 0.0
H441 H 0.16581 0.90854 0.6513 0.0
H442 H 0.18588 0.8734 0.56643 0.0
H443 H 0.11847 0.86443 0.42027 0.0
H444 H 0.08516 0.83336 0.41485 0.0
O445 O 0.12889 0.81939 0.60133 0.0
C446 C 0.14483 0.79432 0.52307 0.0
C447 C 0.09378 0.81663 0.467 0.0
C448 C 0.11575 0.85111 0.44193 0.0
N449 N 0.12753 0.8345 0.50088 0.0
C450 C 0.1093 0.81731 0.49787 0.0
C451 C 0.13092 0.85123 0.47317 0.0
C452 C 0.09706 0.83367 0.43893 0.0
C453 C 0.20959 0.83738 0.5925 0.0
N454 N 0.19372 0.81821 0.59356 0.0
C455 C 0.22761 0.84169 0.56773 0.0
C456 C 0.22932 0.82621 0.54399 0.0
C457 C 0.21308 0.80669 0.54527 0.0
C458 C 0.19527 0.80295 0.5703 0.0
C459 C 0.18277 0.77778 0.72603 0.0
C460 C 0.14983 0.77279 0.66795 0.0
C461 C 0.18357 0.79351 0.69607 0.0
N462 N 0.16726 0.79085 0.66729 0.0
C463 C 0.14846 0.75672 0.69748 0.0
C464 C 0.16507 0.75927 0.72664 0.0
C465 C 0.12832 0.80977 0.64376 0.0
C466 C 0.17816 0.89277 0.60904 0.0
C467 C 0.13896 0.86162 0.59922 0.0
C468 C 0.14283 0.8792 0.62574 0.0
C469 C 0.16258 0.89485 0.63073 0.0
N470 N 0.15431 0.85967 0.57818 0.0
C471 C 0.17371 0.87498 0.58269 0.0
Co472 Co 0.31445 0.41939 0.62678 0.0
Co473 Co 0.29404 0.37921 0.53966 0.0
O474 O 0.2924 0.39937 0.58333 0.0
C475 C 0.28067 0.39929 0.70212 0.0
O476 O 0.27861 0.38233 0.6841 0.0
C477 C 0.28038 0.39949 0.46473 0.0
O478 O 0.29541 0.41644 0.48258 0.0
O479 O 0.3191 0.4001 0.505 0.0
O480 O 0.33454 0.42317 0.57009 0.0
H481 H 0.32843 0.34507 0.45526 0.0
H482 H 0.27902 0.42397 0.60478 0.0
O483 O 0.29469 0.41592 0.68412 0.0
H484 H 0.3369 0.48458 0.52969 0.0
H485 H 0.34667 0.47845 0.75293 0.0
H486 H 0.35556 0.42792 0.65377 0.0
H487 H 0.34171 0.45884 0.57528 0.0
H488 H 0.31943 0.45325 0.69584 0.0
O489 O 0.2777 0.38284 0.48271 0.0
H490 H 0.32626 0.37028 0.51179 0.0
H491 H 0.26467 0.34544 0.47104 0.0
H492 H 0.38326 0.45293 0.71005 0.0
H493 H 0.27356 0.44941 0.55987 0.0
H494 H 0.37889 0.47844 0.76011 0.0
H495 H 0.30262 0.47995 0.52179 0.0
O496 O 0.31846 0.39835 0.66109 0.0
H497 H 0.22338 0.34987 0.60802 0.0
H498 H 0.28158 0.33969 0.59112 0.0
H499 H 0.25103 0.31419 0.63727 0.0
H500 H 0.22165 0.3192 0.64593 0.0
H501 H 0.25428 0.37506 0.56254 0.0
H502 H 0.2662 0.32005 0.41372 0.0
H503 H 0.29823 0.31971 0.40576 0.0
O504 O 0.3104 0.37524 0.59593 0.0
C505 C 0.33429 0.41575 0.52391 0.0
C506 C 0.31436 0.34501 0.45858 0.0
C507 C 0.27944 0.33099 0.4352 0.0
N508 N 0.29531 0.35919 0.49513 0.0
C509 C 0.31303 0.35921 0.49065 0.0
C510 C 0.27868 0.34542 0.46764 0.0
C511 C 0.29742 0.3308 0.43077 0.0
C512 C 0.29177 0.43732 0.58882 0.0
N513 N 0.31067 0.43997 0.59291 0.0
C514 C 0.28857 0.45163 0.56322 0.0
C515 C 0.30488 0.46875 0.54178 0.0
C516 C 0.32412 0.47135 0.54617 0.0
C517 C 0.32675 0.4567 0.57194 0.0
C518 C 0.34877 0.46745 0.7312 0.0
C519 C 0.35361 0.43906 0.67515 0.0
C520 C 0.3334 0.45313 0.6989 0.0
N521 N 0.336 0.43927 0.67111 0.0
C522 C 0.36932 0.45314 0.70708 0.0
C523 C 0.36685 0.46744 0.7352 0.0
C524 C 0.31776 0.38262 0.64202 0.0
C525 C 0.23606 0.34748 0.60433 0.0
C526 C 0.26887 0.34199 0.59477 0.0
C527 C 0.25159 0.32748 0.62086 0.0
C528 C 0.23511 0.33029 0.62567 0.0
N529 N 0.26967 0.3588 0.57391 0.0
C530 C 0.25356 0.36165 0.5784 0.0
Co531 Co 0.70841 0.81352 0.12289 0.0
Co532 Co 0.75168 0.83584 0.04577 0.0
O533 O 0.72995 0.83628 0.08499 0.0
C534 C 0.7286 0.84482 0.20538 0.0
O535 O 0.74563 0.8472 0.18684 0.0
C536 C 0.73125 0.84766 0.96571 0.0
O537 O 0.71426 0.83277 0.98357 0.0
O538 O 0.73267 0.80976 0.01058 0.0
O539 O 0.70456 0.79551 0.06105 0.0
H540 H 0.79157 0.80499 0.97708 0.0
H541 H 0.70726 0.85123 0.10941 0.0
O542 O 0.712 0.83146 0.18528 0.0
H543 H 0.6456 0.7987 0.02221 0.0
H544 H 0.64715 0.78013 0.24107 0.0
H545 H 0.69639 0.77071 0.13689 0.0
H546 H 0.66912 0.79019 0.06632 0.0
H547 H 0.67439 0.8084 0.19156 0.0
O548 O 0.74788 0.85078 0.98531 0.0
H549 H 0.76425 0.80564 0.02736 0.0
H550 H 0.78556 0.86583 0.97874 0.0
H551 H 0.6693 0.74199 0.18547 0.0
H552 H 0.68407 0.86039 0.06618 0.0
H553 H 0.64444 0.74662 0.23803 0.0
H554 H 0.65302 0.83403 0.02198 0.0
O555 O 0.72767 0.80635 0.15605 0.0
H556 H 0.77502 0.90605 0.10989 0.0
H557 H 0.79103 0.85157 0.10187 0.0
H558 H 0.81419 0.88311 0.14863 0.0
H559 H 0.80623 0.91063 0.15284 0.0
H560 H 0.75221 0.87421 0.06394 0.0
H561 H 0.81303 0.86579 0.92759 0.0
H562 H 0.8162 0.83523 0.92673 0.0
O563 O 0.75578 0.82112 0.10564 0.0
C564 C 0.71495 0.79554 0.02106 0.0
C565 C 0.79038 0.81841 0.97726 0.0
C566 C 0.8024 0.85253 0.94942 0.0
N567 N 0.77338 0.83578 0.00621 0.0
C568 C 0.77497 0.81888 0.00576 0.0
C569 C 0.78679 0.85245 0.97833 0.0
C570 C 0.80418 0.83538 0.94897 0.0
C571 C 0.69369 0.83965 0.09069 0.0
N572 N 0.68952 0.82019 0.09048 0.0
C573 C 0.68065 0.84493 0.0661 0.0
C574 C 0.66325 0.83014 0.04124 0.0
C575 C 0.65908 0.81032 0.04132 0.0
C576 C 0.67248 0.8056 0.06623 0.0
C577 C 0.65787 0.77792 0.21826 0.0
C578 C 0.68557 0.77281 0.15946 0.0
C579 C 0.67336 0.79389 0.19027 0.0
N580 N 0.68689 0.79117 0.16115 0.0
C581 C 0.67029 0.7565 0.18699 0.0
C582 C 0.65636 0.75912 0.21652 0.0
C583 C 0.74547 0.8102 0.14494 0.0
C584 C 0.77867 0.89419 0.10824 0.0
C585 C 0.78745 0.86345 0.10368 0.0
C586 C 0.80064 0.8813 0.13009 0.0
C587 C 0.79617 0.89674 0.1324 0.0
N588 N 0.77031 0.86106 0.08014 0.0
C589 C 0.76585 0.87615 0.08211 0.0
Co590 Co 0.3143 0.96038 0.12876 0.0
Co591 Co 0.29344 0.97921 0.0403 0.0
O592 O 0.29208 0.95783 0.08515 0.0
C593 C 0.28054 0.94675 0.20416 0.0
O594 O 0.27829 0.96148 0.1857 0.0
C595 C 0.27975 0.94473 0.96732 0.0
O596 O 0.29493 0.94309 0.98521 0.0
O597 O 0.31845 0.98324 0.00561 0.0
O598 O 0.33425 0.97652 0.07162 0.0
H599 H 0.32724 0.04699 0.95214 0.0
H600 H 0.27917 0.92008 0.10806 0.0
O601 O 0.29469 0.94426 0.1865 0.0
H602 H 0.33741 0.91768 0.0339 0.0
H603 H 0.34726 0.93486 0.25654 0.0
H604 H 0.35528 0.99341 0.15486 0.0
H605 H 0.34187 0.94834 0.07818 0.0
H606 H 0.3198 0.93217 0.19917 0.0
O607 O 0.27701 0.95878 0.98446 0.0
H608 H 0.32541 0.02016 0.01027 0.0
H609 H 0.26374 0.9829 0.97123 0.0
H610 H 0.38319 0.99674 0.21139 0.0
H611 H 0.27406 0.88907 0.06448 0.0
H612 H 0.37927 0.96732 0.26272 0.0
H613 H 0.3033 0.88776 0.02686 0.0
O614 O 0.31803 0.98551 0.16192 0.0
H615 H 0.223 0.93824 0.11045 0.0
H616 H 0.28093 0.00653 0.09009 0.0
H617 H 0.25044 0.00173 0.13622 0.0
H618 H 0.2212 0.96738 0.14661 0.0
H619 H 0.25384 0.9437 0.06495 0.0
H620 H 0.26493 0.00926 0.91232 0.0
H621 H 0.29684 0.04161 0.90268 0.0
O622 O 0.30989 -1e-05 0.09545 0.0
C623 C 0.33381 0.98321 0.02493 0.0
C624 C 0.31323 0.03299 0.95618 0.0
C625 C 0.27826 0.0118 0.93377 0.0
N626 N 0.29444 8e-05 0.99455 0.0
C627 C 0.31209 0.01777 0.98916 0.0
C628 C 0.27769 0.99692 0.96711 0.0
C629 C 0.29617 0.02995 0.92839 0.0
C630 C 0.292 0.91955 0.09232 0.0
N631 N 0.31081 0.93596 0.09593 0.0
C632 C 0.289 0.90198 0.06747 0.0
C633 C 0.30541 0.90127 0.04629 0.0
C634 C 0.32455 0.91806 0.05019 0.0
C635 C 0.32698 0.93539 0.07522 0.0
C636 C 0.34917 0.94778 0.23426 0.0
C637 C 0.35352 0.98051 0.17679 0.0
C638 C 0.33367 0.94635 0.20179 0.0
N639 N 0.33603 0.96257 0.17331 0.0
C640 C 0.36935 0.9825 0.20886 0.0
C641 C 0.36713 0.96599 0.2377 0.0
C642 C 0.31728 0.00036 0.14176 0.0
C643 C 0.23562 0.95328 0.106 0.0
C644 C 0.26827 0.99154 0.09451 0.0
C645 C 0.25104 0.98891 0.12058 0.0
C646 C 0.23463 0.96964 0.12637 0.0
N647 N 0.26912 0.97542 0.0746 0.0
C648 C 0.25309 0.95648 0.08006 0.0
Co649 Co 0.16682 0.41872 0.12772 0.0
Co650 Co 0.14756 0.3795 0.03778 0.0
O651 O 0.16917 0.39922 0.0829 0.0
C652 C 0.18073 0.39838 0.20165 0.0
O653 O 0.16592 0.38144 0.18304 0.0
C654 C 0.18197 0.40017 0.96445 0.0
O655 O 0.18391 0.41705 0.98279 0.0
O656 O 0.14379 0.40077 0.00414 0.0
O657 O 0.1504 0.42271 0.07168 0.0
H658 H 0.07954 0.34644 0.9499 0.0
H659 H 0.20709 0.42403 0.10535 0.0
O660 O 0.18319 0.41504 0.18448 0.0
H661 H 0.20919 0.48485 0.03442 0.0
H662 H 0.19294 0.4767 0.25738 0.0
H663 H 0.13386 0.4265 0.156 0.0
H664 H 0.17867 0.45847 0.07869 0.0
H665 H 0.19539 0.45218 0.19851 0.0
O666 O 0.16783 0.38345 0.98157 0.0
H667 H 0.10667 0.37108 0.0083 0.0
H668 H 0.14332 0.3462 0.96754 0.0
H669 H 0.13078 0.45083 0.21404 0.0
H670 H 0.23798 0.45011 0.06175 0.0
H671 H 0.16047 0.47617 0.26523 0.0
H672 H 0.23913 0.48076 0.02576 0.0
O673 O 0.14181 0.39719 0.1609 0.0
H674 H 0.18803 0.34914 0.10561 0.0
H675 H 0.11994 0.33962 0.0867 0.0
H676 H 0.12445 0.31358 0.13165 0.0
H677 H 0.1587 0.31827 0.1413 0.0
H678 H 0.18286 0.37487 0.06132 0.0
H679 H 0.11666 0.32139 0.90834 0.0
H680 H 0.08446 0.32136 0.89943 0.0
O681 O 0.12689 0.37519 0.09323 0.0
C682 C 0.14371 0.41593 0.02467 0.0
C683 C 0.09347 0.34625 0.95362 0.0
C684 C 0.11432 0.33221 0.93023 0.0
N685 N 0.12646 0.35993 0.99175 0.0
C686 C 0.10886 0.36012 0.98676 0.0
C687 C 0.12937 0.34631 0.96374 0.0
C688 C 0.09625 0.3322 0.92527 0.0
C689 C 0.20755 0.43742 0.09031 0.0
N690 N 0.19114 0.43977 0.09483 0.0
C691 C 0.22505 0.4521 0.06545 0.0
C692 C 0.22568 0.46927 0.04518 0.0
C693 C 0.20888 0.47157 0.04999 0.0
C694 C 0.19163 0.45657 0.07501 0.0
C695 C 0.17991 0.46577 0.23517 0.0
C696 C 0.14688 0.43757 0.17786 0.0
C697 C 0.1812 0.45183 0.20185 0.0
N698 N 0.16483 0.43807 0.17345 0.0
C699 C 0.14503 0.45127 0.21079 0.0
C700 C 0.16169 0.46546 0.23954 0.0
C701 C 0.12675 0.38191 0.14013 0.0
C702 C 0.17303 0.3469 0.10148 0.0
C703 C 0.13489 0.34178 0.09082 0.0
C704 C 0.13735 0.32697 0.11621 0.0
C705 C 0.15657 0.3296 0.12158 0.0
N706 N 0.15111 0.3587 0.07116 0.0
C707 C 0.16999 0.36137 0.07622 0.0
Co708 Co 0.41772 0.31516 0.87242 0.0
Co709 Co 0.37747 0.29497 0.95902 0.0
O710 O 0.39762 0.29317 0.91564 0.0
C711 C 0.39791 0.28135 0.79685 0.0
O712 O 0.38081 0.27918 0.81423 0.0
C713 C 0.3973 0.28084 0.03423 0.0
O714 O 0.41442 0.29577 0.01707 0.0
O715 O 0.3985 0.31985 0.99424 0.0
O716 O 0.42134 0.3353 0.92882 0.0
H717 H 0.34379 0.32982 0.04342 0.0
H718 H 0.42242 0.27991 0.89517 0.0
O719 O 0.41446 0.2954 0.81534 0.0
H720 H 0.4829 0.33794 0.97089 0.0
H721 H 0.47708 0.34731 0.74743 0.0
H722 H 0.42614 0.35612 0.84484 0.0
H723 H 0.45711 0.34257 0.92461 0.0
H724 H 0.45182 0.32016 0.80435 0.0
O725 O 0.38077 0.27842 0.01582 0.0
H726 H 0.36893 0.32741 0.98713 0.0
H727 H 0.34339 0.26578 0.02683 0.0
H728 H 0.45121 0.38371 0.78871 0.0
H729 H 0.44791 0.27463 0.94075 0.0
H730 H 0.47691 0.37939 0.73953 0.0
H731 H 0.47839 0.30378 0.97915 0.0
O732 O 0.39665 0.31901 0.83743 0.0
H733 H 0.34749 0.2244 0.88972 0.0
H734 H 0.33807 0.28299 0.90689 0.0
H735 H 0.31235 0.25264 0.86026 0.0
H736 H 0.31698 0.22306 0.85148 0.0
H737 H 0.3729 0.25511 0.93565 0.0
H738 H 0.31807 0.26754 0.0839 0.0
H739 H 0.31813 0.29972 0.09227 0.0
O740 O 0.37379 0.31153 0.90287 0.0
C741 C 0.41405 0.33506 0.97515 0.0
C742 C 0.34356 0.31569 0.03992 0.0
C743 C 0.32914 0.28074 0.0627 0.0
N744 N 0.35749 0.29643 0.00328 0.0
C745 C 0.35772 0.31422 0.00798 0.0
C746 C 0.34353 0.27984 0.0304 0.0
C747 C 0.32918 0.2988 0.06737 0.0
C748 C 0.43574 0.29269 0.91127 0.0
N749 N 0.43832 0.31153 0.90698 0.0
C750 C 0.45008 0.2896 0.93725 0.0
C751 C 0.46716 0.30595 0.95886 0.0
C752 C 0.46969 0.32513 0.95428 0.0
C753 C 0.45502 0.32765 0.92812 0.0
C754 C 0.46599 0.34939 0.76878 0.0
C755 C 0.43737 0.35419 0.82386 0.0
C756 C 0.45164 0.33407 0.80099 0.0
N757 N 0.43766 0.33665 0.8283 0.0
C758 C 0.45148 0.36983 0.792 0.0
C759 C 0.46589 0.36739 0.76437 0.0
C760 C 0.38107 0.31861 0.85657 0.0
C761 C 0.34527 0.23716 0.89345 0.0
C762 C 0.34021 0.2702 0.90315 0.0
C763 C 0.32557 0.25303 0.8768 0.0
C764 C 0.32817 0.23644 0.87192 0.0
N765 N 0.35693 0.27079 0.92421 0.0
C766 C 0.35957 0.25456 0.91963 0.0
Co767 Co 0.83471 0.14743 0.95932 0.0
Co768 Co 0.81446 0.16716 0.8718 0.0
O769 O 0.83653 0.16916 0.91512 0.0
C770 C 0.84926 0.18177 0.03316 0.0
O771 O 0.83433 0.18394 0.01572 0.0
C772 C 0.84814 0.18057 0.79626 0.0
O773 O 0.85011 0.16559 0.81409 0.0
O774 O 0.81029 0.14199 0.8378 0.0
O775 O 0.81788 0.12697 0.90397 0.0
H776 H 0.74553 0.13206 0.78921 0.0
H777 H 0.87466 0.18244 0.93474 0.0
O778 O 0.85154 0.16752 0.01539 0.0
H779 H 0.87643 0.12381 0.86137 0.0
H780 H 0.86225 0.1159 0.08543 0.0
H781 H 0.80214 0.10673 0.98893 0.0
H782 H 0.8463 0.11959 0.90828 0.0
H783 H 0.86403 0.14273 0.02738 0.0
O784 O 0.83417 0.18327 0.81429 0.0
H785 H 0.77324 0.13469 0.84531 0.0
H786 H 0.80954 0.19599 0.80248 0.0
H787 H 0.79971 0.07944 0.0462 0.0
H788 H 0.90516 0.18733 0.88849 0.0
H789 H 0.82993 0.08394 0.09493 0.0
H790 H 0.90614 0.15788 0.85126 0.0
O791 O 0.80997 0.14391 0.99453 0.0
H792 H 0.85564 0.23819 0.93755 0.0
H793 H 0.78738 0.17965 0.9233 0.0
H794 H 0.79236 0.21037 0.96836 0.0
H795 H 0.8267 0.23993 0.97565 0.0
H796 H 0.85001 0.20712 0.89321 0.0
H797 H 0.78228 0.194 0.74555 0.0
H798 H 0.74996 0.16187 0.73886 0.0
O799 O 0.79441 0.15105 0.92873 0.0
C800 C 0.81063 0.12689 0.85768 0.0
C801 C 0.75951 0.14616 0.79197 0.0
C802 C 0.78015 0.18092 0.76741 0.0
N803 N 0.79289 0.16552 0.82758 0.0
C804 C 0.77523 0.14776 0.8238 0.0
C805 C 0.79553 0.18195 0.79962 0.0
C806 C 0.76201 0.16289 0.76368 0.0
C807 C 0.87506 0.16953 0.91918 0.0
N808 N 0.85876 0.15075 0.92447 0.0
C809 C 0.89233 0.1724 0.89281 0.0
C810 C 0.89286 0.15588 0.87185 0.0
C811 C 0.87619 0.13676 0.87747 0.0
C812 C 0.85916 0.13446 0.90399 0.0
C813 C 0.84899 0.11373 0.06429 0.0
C814 C 0.81538 0.10873 0.00972 0.0
C815 C 0.8499 0.12888 0.03144 0.0
N816 N 0.83325 0.1262 0.00439 0.0
C817 C 0.8139 0.09326 0.04222 0.0
C818 C 0.83085 0.09581 0.06959 0.0
C819 C 0.79474 0.14423 0.97534 0.0
C820 C 0.8406 0.22543 0.93446 0.0
C821 C 0.80237 0.19243 0.9264 0.0
C822 C 0.80509 0.2098 0.95187 0.0
C823 C 0.82436 0.22639 0.95591 0.0
N824 N 0.81838 0.19162 0.90541 0.0
C825 C 0.83731 0.20783 0.90918 0.0
Co826 Co 0.95941 0.70993 0.86858 0.0
Co827 Co 0.97951 0.7514 0.95214 0.0
O828 O 0.95768 0.73054 0.90995 0.0
C829 C 0.94687 0.73024 0.79053 0.0
O830 O 0.96177 0.74717 0.8088 0.0
C831 C 0.94625 0.73064 0.02905 0.0
O832 O 0.94441 0.71376 0.01108 0.0
O833 O 0.98518 0.73139 0.9868 0.0
O834 O 0.97484 0.70607 0.92722 0.0
H835 H 0.04913 0.78846 0.03004 0.0
H836 H 0.91978 0.70679 0.88665 0.0
O837 O 0.94395 0.71359 0.80915 0.0
H838 H 0.9144 0.64584 0.96769 0.0
H839 H 0.93183 0.65004 0.74524 0.0
H840 H 0.99115 0.69965 0.84693 0.0
H841 H 0.94564 0.67064 0.92274 0.0
H842 H 0.93038 0.67616 0.79941 0.0
O843 O 0.95996 0.74734 0.01059 0.0
H844 H 0.02158 0.76235 0.97561 0.0
H845 H 0.98329 0.78479 0.02135 0.0
H846 H 0.99323 0.67371 0.79362 0.0
H847 H 0.88821 0.68232 0.93088 0.0
H848 H 0.96341 0.64866 0.74228 0.0
H849 H 0.8854 0.65162 0.97195 0.0
O850 O 0.98518 0.73016 0.83505 0.0
H851 H 0.935 0.77728 0.88526 0.0
H852 H 0.00482 0.79144 0.90131 0.0
H853 H 0.99796 0.8158 0.85539 0.0
H854 H 0.96282 0.80877 0.84716 0.0
H855 H 0.94254 0.75327 0.93039 0.0
H856 H 0.01036 0.81104 0.07665 0.0
H857 H 0.04359 0.81304 0.08104 0.0
O858 O 0.99928 0.75586 0.894 0.0
C859 C 0.98346 0.71482 0.97099 0.0
C860 C 0.03474 0.78779 0.0283 0.0
C861 C 0.01297 0.80044 0.05453 0.0
N862 N 0.00092 0.77216 0.99497 0.0
C863 C 0.01911 0.77308 -0.00258 0.0
C864 C 0.99768 0.78552 0.02326 0.0
C865 C 0.03161 0.80156 0.05696 0.0
C866 C 0.9186 0.69336 0.9039 0.0
N867 N 0.93449 0.69008 0.90179 0.0
C868 C 0.90072 0.6796 0.92912 0.0
C869 C 0.89916 0.6624 0.95223 0.0
C870 C 0.91543 0.65915 0.94988 0.0
C871 C 0.93309 0.67326 0.92443 0.0
C872 C 0.94491 0.66085 0.76749 0.0
C873 C 0.97809 0.68874 0.82493 0.0
C874 C 0.9442 0.6757 0.79813 0.0
N875 N 0.96063 0.68933 0.82657 0.0
C876 C 0.97937 0.67412 0.79471 0.0
C877 C 0.96263 0.66008 0.76587 0.0
C878 C -0.00036 0.74702 0.85086 0.0
C879 C 0.95037 0.78052 0.88863 0.0
C880 C 0.9895 0.78824 0.89759 0.0
C881 C 0.9857 0.80211 0.87175 0.0
C882 C 0.96599 0.79817 0.8672 0.0
N883 N 0.9741 0.77094 0.91838 0.0
C884 C 0.95474 0.76702 0.9143 0.0
Co885 Co 0.37718 0.14811 0.45881 0.0
Co886 Co 0.41712 0.16753 0.37127 0.0
O887 O 0.39724 0.16979 0.41472 0.0
C888 C 0.39729 0.18228 0.53323 0.0
O889 O 0.41434 0.18435 0.51585 0.0
C890 C 0.39731 0.18157 0.29572 0.0
O891 O 0.38019 0.16679 0.31336 0.0
O892 O 0.39583 0.14256 0.33696 0.0
O893 O 0.37327 0.12762 0.40327 0.0
H894 H 0.45001 0.13174 0.28794 0.0
H895 H 0.37268 0.18339 0.43467 0.0
O896 O 0.38069 0.1682 0.51511 0.0
H897 H 0.31183 0.12518 0.36108 0.0
H898 H 0.31807 0.11689 0.58479 0.0
H899 H 0.36859 0.10723 0.48805 0.0
H900 H 0.3376 0.1206 0.40764 0.0
H901 H 0.34331 0.14367 0.52696 0.0
O902 O 0.41385 0.18394 0.31397 0.0
H903 H 0.42519 0.1347 0.3442 0.0
H904 H 0.45112 0.19618 0.3023 0.0
H905 H 0.34354 0.08 0.5451 0.0
H906 H 0.34721 0.18862 0.38879 0.0
H907 H 0.31804 0.08475 0.59395 0.0
H908 H 0.31655 0.15939 0.35146 0.0
O909 O 0.39825 0.1443 0.49393 0.0
H910 H 0.44795 0.2385 0.4381 0.0
H911 H 0.45659 0.17939 0.42279 0.0
H912 H 0.48264 0.20984 0.46829 0.0
H913 H 0.47841 0.23969 0.47612 0.0
H914 H 0.42218 0.20768 0.39331 0.0
H915 H 0.47612 0.19386 0.24523 0.0
H916 H 0.47572 0.16147 0.23798 0.0
O917 O 0.42076 0.15112 0.42792 0.0
C918 C 0.38032 0.12753 0.35684 0.0
C919 C 0.45039 0.14595 0.29094 0.0
C920 C 0.46503 0.18081 0.26691 0.0
N921 N 0.43684 0.16564 0.32694 0.0
C922 C 0.43642 0.14773 0.32286 0.0
C923 C 0.45082 0.18203 0.29921 0.0
C924 C 0.4648 0.16263 0.26287 0.0
C925 C 0.35928 0.17057 0.41905 0.0
N926 N 0.35659 0.1517 0.42409 0.0
C927 C 0.34495 0.17364 0.39289 0.0
C928 C 0.32777 0.15723 0.37187 0.0
C929 C 0.32512 0.13803 0.37722 0.0
C930 C 0.33978 0.13554 0.40353 0.0
C931 C 0.32907 0.11462 0.5636 0.0
C932 C 0.35745 0.10935 0.50889 0.0
C933 C 0.34341 0.12974 0.53087 0.0
N934 N 0.35727 0.12692 0.50375 0.0
C935 C 0.34335 0.0939 0.54127 0.0
C936 C 0.32906 0.09659 0.56871 0.0
C937 C 0.41365 0.14438 0.47457 0.0
C938 C 0.44999 0.22562 0.43478 0.0
C939 C 0.45462 0.1923 0.42612 0.0
C940 C 0.46944 0.20952 0.45183 0.0
C941 C 0.46707 0.22626 0.45618 0.0
N942 N 0.43792 0.19179 0.40518 0.0
C943 C 0.4355 0.20816 0.40924 0.0
Co944 Co 0.95977 0.31368 0.37563 0.0
Co945 Co 0.98067 0.2932 0.45956 0.0
O946 O 0.95853 0.2917 0.41742 0.0
C947 C 0.94758 0.2808 0.29745 0.0
O948 O 0.9624 0.27865 0.31593 0.0
C949 C 0.94745 0.2806 0.53649 0.0
O950 O 0.94548 0.29552 0.51822 0.0
O951 O 0.98619 0.31891 0.49355 0.0
O952 O 0.97474 0.33314 0.43463 0.0
H953 H 0.05045 0.32643 0.53686 0.0
H954 H 0.92076 0.27674 0.39537 0.0
O955 O 0.9446 0.29447 0.31625 0.0
H956 H 0.91331 0.33191 0.47091 0.0
H957 H 0.93181 0.34517 0.25066 0.0
H958 H 0.99112 0.35574 0.35406 0.0
H959 H 0.94478 0.33885 0.42624 0.0
H960 H 0.93058 0.31787 0.30546 0.0
O961 O 0.96127 0.2777 0.51825 0.0
H962 H 0.02269 0.32466 0.48275 0.0
H963 H 0.98495 0.26392 0.52858 0.0
H964 H 0.99296 0.38352 0.30015 0.0
H965 H 0.88895 0.26912 0.43923 0.0
H966 H 0.96315 0.3783 0.24796 0.0
H967 H 0.88511 0.29682 0.47759 0.0
O968 O 0.98565 0.3194 0.34199 0.0
H969 H 0.9371 0.22228 0.39532 0.0
H970 H 0.00633 0.27939 0.40603 0.0
H971 H -6e-05 0.24823 0.36067 0.0
H972 H 0.96512 0.2194 0.35512 0.0
H973 H 0.94413 0.25376 0.43998 0.0
H974 H 0.01224 0.26505 0.58354 0.0
H975 H 0.0453 0.29646 0.58775 0.0
O976 O 0.00025 0.30868 0.40169 0.0
C977 C 0.98379 0.33337 0.47795 0.0
C978 C 0.03613 0.31264 0.53524 0.0
C979 C 0.01468 0.2782 0.56149 0.0
N980 N 0.00228 0.29419 0.50224 0.0
C981 C 0.02038 0.31154 0.50457 0.0
C982 C 0.99927 0.27767 0.53042 0.0
C983 C 0.03323 0.29583 0.56382 0.0
C984 C 0.91915 0.28889 0.41159 0.0
N985 N 0.93463 0.30823 0.40836 0.0
C986 C 0.90112 0.28448 0.43653 0.0
C987 C 0.89899 0.30002 0.45811 0.0
C988 C 0.91481 0.31971 0.45443 0.0
C989 C 0.93263 0.32355 0.4293 0.0
C990 C 0.94488 0.34764 0.2733 0.0
C991 C 0.97805 0.35341 0.33172 0.0
C992 C 0.94429 0.33222 0.30429 0.0
N993 N 0.96072 0.33528 0.33323 0.0
C994 C 0.9792 0.36917 0.30114 0.0
C995 C 0.96247 0.36623 0.27182 0.0
C996 C 0.00039 0.3175 0.35815 0.0
C997 C 0.95235 0.23472 0.39764 0.0
C998 C 0.99113 0.26691 0.40377 0.0
C999 C 0.98761 0.2493 0.37809 0.0
C1000 C 0.96807 0.23312 0.37502 0.0
N1001 N 0.97563 0.26835 0.42593 0.0
C1002 C 0.95644 0.25255 0.4231 0.0
Co1003 Co 0.83449 0.74981 0.45102 0.0
Co1004 Co 0.81266 0.70824 0.36798 0.0
O1005 O 0.83518 0.72881 0.40905 0.0
C1006 C 0.84717 0.72923 0.52794 0.0
O1007 O 0.83194 0.71234 0.51058 0.0
C1008 C 0.84549 0.72815 0.28987 0.0
O1009 O 0.84756 0.74514 0.30768 0.0
O1010 O 0.80738 0.72856 0.33398 0.0
O1011 O 0.81884 0.75406 0.39343 0.0
H1012 H 0.74256 0.67254 0.29269 0.0
H1013 H 0.87325 0.75164 0.42857 0.0
O1014 O 0.85024 0.7459 0.50909 0.0
H1015 H 0.88004 0.81382 0.35212 0.0
H1016 H 0.86407 0.80987 0.57405 0.0
H1017 H 0.80351 0.76086 0.47536 0.0
H1018 H 0.84898 0.78961 0.39891 0.0
H1019 H 0.86453 0.78342 0.519 0.0
O1020 O 0.83169 0.71156 0.30869 0.0
H1021 H 0.77078 0.69842 0.34576 0.0
H1022 H 0.80745 0.67412 0.29975 0.0
H1023 H 0.80244 0.78717 0.52957 0.0
H1024 H 0.90465 0.77551 0.38255 0.0
H1025 H 0.83288 0.81191 0.57939 0.0
H1026 H 0.90815 0.80682 0.34373 0.0
O1027 O 0.80895 0.72993 0.48638 0.0
H1028 H 0.85565 0.6801 0.43152 0.0
H1029 H 0.7868 0.66919 0.42292 0.0
H1030 H 0.79291 0.64431 0.46868 0.0
H1031 H 0.82754 0.6497 0.47319 0.0
H1032 H 0.84889 0.70466 0.38648 0.0
H1033 H 0.77968 0.64805 0.24582 0.0
H1034 H 0.74692 0.6471 0.24222 0.0
O1035 O 0.79343 0.70476 0.4265 0.0
C1036 C 0.80962 0.7453 0.3502 0.0
C1037 C 0.75673 0.67274 0.29408 0.0
C1038 C 0.77758 0.65902 0.26771 0.0
N1039 N 0.79067 0.68768 0.3262 0.0
C1040 C 0.77274 0.68733 0.3242 0.0
C1041 C 0.79325 0.67384 0.29822 0.0
C1042 C 0.7592 0.6585 0.26573 0.0
C1043 C 0.87473 0.76531 0.41219 0.0
N1044 N 0.85929 0.76923 0.4164 0.0
C1045 C 0.89252 0.77874 0.386 0.0
C1046 C 0.89446 0.79629 0.36417 0.0
C1047 C 0.87868 0.80021 0.3688 0.0
C1048 C 0.8611 0.78642 0.39516 0.0
C1049 C 0.85072 0.7992 0.55244 0.0
C1050 C 0.81685 0.77166 0.49666 0.0
C1051 C 0.85088 0.78417 0.52132 0.0
N1052 N 0.83411 0.77072 0.49368 0.0
C1053 C 0.81614 0.78648 0.52741 0.0
C1054 C 0.83322 0.80034 0.5554 0.0
C1055 C 0.79384 0.71355 0.47044 0.0
C1056 C 0.84048 0.67755 0.42965 0.0
C1057 C 0.80191 0.67164 0.42471 0.0
C1058 C 0.80527 0.65749 0.45061 0.0
C1059 C 0.82471 0.66051 0.4531 0.0
N1060 N 0.81745 0.6883 0.40176 0.0
C1061 C 0.83655 0.69136 0.40398 0.0
H1062 H 0.03172 0.51449 0.91008 0.0
H1063 H 0.09722 0.61499 0.08028 0.0
H1064 H 0.09655 0.54845 0.90682 0.0
H1065 H 0.03238 0.581 0.08256 0.0
H1066 H 0.09732 0.59072 0.01721 0.0
H1067 H 0.03176 0.53853 0.97407 0.0
C1068 C 0.04599 0.52698 0.92294 0.0
C1069 C 0.06418 0.52944 0.90306 0.0
C1070 C 0.08307 0.58858 0.03144 0.0
C1071 C 0.0643 0.55711 0.97631 0.0
C1072 C 0.08299 0.60245 0.06743 0.0
C1073 C 0.06474 0.60006 0.08664 0.0
C1074 C 0.06479 0.57216 0.01452 0.0
C1075 C 0.04679 0.58349 0.06866 0.0
C1076 C 0.04599 0.54072 0.95948 0.0
C1077 C 0.08218 0.54592 0.92119 0.0
N1078 N 0.04728 0.57018 0.03363 0.0
N1079 N 0.08178 0.55915 0.95674 0.0
H1080 H 0.61621 0.58279 0.91743 0.0
H1081 H 0.51531 0.5488 0.08481 0.0
H1082 H 0.58311 0.6145 0.91411 0.0
H1083 H 0.54838 0.51707 0.08777 0.0
H1084 H 0.54003 0.57305 0.02249 0.0
H1085 H 0.59167 0.55876 0.98046 0.0
C1086 C 0.60382 0.58476 0.93011 0.0
C1087 C 0.60174 0.60072 0.91051 0.0
C1088 C 0.54187 0.56078 0.03669 0.0
C1089 C 0.57351 0.57316 0.98258 0.0
C1090 C 0.52774 0.54689 0.07225 0.0
C1091 C 0.52974 0.53083 0.09147 0.0
C1092 C 0.55817 0.55864 0.0202 0.0
C1093 C 0.54619 0.52916 0.07387 0.0
C1094 C 0.58979 0.571 0.96607 0.0
C1095 C 0.58536 0.60247 0.9283 0.0
N1096 N 0.55977 0.5429 0.03926 0.0
N1097 N 0.57186 0.58884 0.96327 0.0
H1098 H 0.58124 0.03123 0.08494 0.0
H1099 H 0.547 0.09703 0.91363 0.0
H1100 H 0.61266 0.09599 0.08706 0.0
H1101 H 0.51555 0.03226 0.91178 0.0
H1102 H 0.57114 0.09694 0.97726 0.0
H1103 H 0.5571 0.03133 0.02136 0.0
C1104 C 0.58311 0.04549 0.07195 0.0
C1105 C 0.59904 0.06364 0.0913 0.0
C1106 C 0.55895 0.08274 0.96302 0.0
C1107 C 0.57136 0.06385 0.01854 0.0
C1108 C 0.54513 0.08277 0.92669 0.0
C1109 C 0.52918 0.06461 0.9074 0.0
C1110 C 0.55686 0.06443 0.98021 0.0
C1111 C 0.52756 0.04662 0.92571 0.0
C1112 C 0.56928 0.04553 0.03565 0.0
C1113 C 0.60065 0.08164 0.07308 0.0
N1114 N 0.54124 0.04699 0.96106 0.0
N1115 N 0.58697 0.08128 0.03775 0.0
H1116 H 0.61413 0.09663 0.41384 0.0
H1117 H 0.51396 0.03123 0.58508 0.0
H1118 H 0.58047 0.03187 0.41199 0.0
H1119 H 0.54757 0.09599 0.58661 0.0
H1120 H 0.53814 0.03118 0.52163 0.0
H1121 H 0.58996 0.09667 0.47733 0.0
C1122 C 0.60168 0.0824 0.42688 0.0
C1123 C 0.59934 0.0642 0.40761 0.0
C1124 C 0.54022 0.0454 0.53576 0.0
C1125 C 0.57155 0.06417 0.48028 0.0
C1126 C 0.5264 0.04546 0.57198 0.0
C1127 C 0.52871 0.06366 0.59113 0.0
C1128 C 0.55651 0.06368 0.51853 0.0
C1129 C 0.54515 0.08161 0.57279 0.0
C1130 C 0.58786 0.08245 0.46313 0.0
C1131 C 0.5829 0.04625 0.42589 0.0
N1132 N 0.55842 0.08116 0.53754 0.0
N1133 N 0.56963 0.04669 0.46117 0.0
H1134 H 0.09728 0.61388 0.40505 0.0
H1135 H 0.03166 0.51478 0.58029 0.0
H1136 H 0.03243 0.58157 0.40798 0.0
H1137 H 0.09651 0.54715 0.57686 0.0
H1138 H 0.03159 0.53889 0.51648 0.0
H1139 H 0.09727 0.58948 0.46785 0.0
C1140 C 0.08304 0.6017 0.41902 0.0
C1141 C 0.06483 0.59981 0.40133 0.0
C1142 C 0.04583 0.54069 0.52959 0.0
C1143 C 0.0647 0.57175 0.47306 0.0
C1144 C 0.04588 0.52689 0.56593 0.0
C1145 C 0.06412 0.52892 0.58388 0.0
C1146 C 0.06415 0.55664 0.51109 0.0
C1147 C 0.08209 0.54497 0.56412 0.0
C1148 C 0.08304 0.58774 0.45481 0.0
C1149 C 0.04683 0.58365 0.42059 0.0
N1150 N 0.08164 0.55821 0.52885 0.0
N1151 N 0.04723 0.57025 0.45541 0.0
H1152 H 0.61467 0.58156 0.58758 0.0
H1153 H 0.51583 0.54939 0.41097 0.0
H1154 H 0.58245 0.61415 0.58567 0.0
H1155 H 0.54772 0.51647 0.41307 0.0
H1156 H 0.54021 0.57335 0.47482 0.0
H1157 H 0.5905 0.5577 0.52299 0.0
C1158 C 0.60257 0.58376 0.57344 0.0
C1159 C 0.60061 0.5999 0.59201 0.0
C1160 C 0.54187 0.56087 0.46138 0.0
C1161 C 0.57284 0.5726 0.51831 0.0
C1162 C 0.52791 0.54715 0.42498 0.0
C1163 C 0.5297 0.53086 0.40674 0.0
C1164 C 0.55773 0.5583 0.47969 0.0
C1165 C 0.54574 0.52879 0.42609 0.0
C1166 C 0.58875 0.5701 0.53664 0.0
C1167 C 0.58457 0.60194 0.57247 0.0
N1168 N 0.55913 0.54235 0.46149 0.0
N1169 N 0.57131 0.58845 0.53674 0.0
H1170 H 0.69615 0.84388 0.25356 0.0
H1171 H 0.76233 0.94438 0.42311 0.0
H1172 H 0.761 0.87736 0.25091 0.0
H1173 H 0.69748 0.91107 0.42516 0.0
H1174 H 0.76213 0.91964 0.36132 0.0
H1175 H 0.69637 0.86786 0.3182 0.0
C1176 C 0.71046 0.85622 0.26678 0.0
C1177 C 0.7286 0.85861 0.24677 0.0
C1178 C 0.74794 0.91774 0.37524 0.0
C1179 C 0.72893 0.8862 0.32063 0.0
C1180 C 0.74803 0.93188 0.41049 0.0
C1181 C 0.72987 0.92984 0.4292 0.0
C1182 C 0.72957 0.9014 0.35852 0.0
C1183 C 0.71183 0.9133 0.41158 0.0
C1184 C 0.71056 0.86993 0.30365 0.0
C1185 C 0.74666 0.87489 0.26534 0.0
N1186 N 0.71214 0.89972 0.3772 0.0
N1187 N 0.74636 0.8881 0.30112 0.0
H1188 H 0.21504 0.84755 0.42352 0.0
H1189 H 0.24737 0.94609 0.24678 0.0
H1190 H 0.18222 0.87954 0.42017 0.0
H1191 H 0.28073 0.91466 0.25098 0.0
H1192 H 0.2233 0.92175 0.31022 0.0
H1193 H 0.23913 0.87178 0.35969 0.0
C1194 C 0.21284 0.8596 0.40921 0.0
C1195 C 0.19656 0.86149 0.42716 0.0
C1196 C 0.23591 0.92019 0.29735 0.0
C1197 C 0.22413 0.88932 0.35433 0.0
C1198 C 0.24969 0.93413 0.26119 0.0
C1199 C 0.26613 0.93245 0.24363 0.0
C1200 C 0.23855 0.90445 0.3161 0.0
C1201 C 0.2683 0.91656 0.26348 0.0
C1202 C 0.22663 0.87346 0.37286 0.0
C1203 C 0.19454 0.87748 0.40744 0.0
N1204 N 0.25466 0.90318 0.29862 0.0
N1205 N 0.20815 0.89077 0.37215 0.0
H1206 H 0.2799 0.43204 0.42194 0.0
H1207 H 0.18142 0.36583 0.2437 0.0
H1208 H 0.24812 0.36728 0.41794 0.0
H1209 H 0.21283 0.43057 0.24901 0.0
H1210 H 0.20575 0.36606 0.30746 0.0
H1211 H 0.25559 0.43182 0.3581 0.0
C1212 C 0.26786 0.41777 0.40751 0.0
C1213 C 0.26608 0.39966 0.42524 0.0
C1214 C 0.2073 0.38021 0.29474 0.0
C1215 C 0.23814 0.39929 0.35232 0.0
C1216 C 0.19338 0.38009 0.2584 0.0
C1217 C 0.19505 0.39821 0.24107 0.0
C1218 C 0.22302 0.39858 0.31389 0.0
C1219 C 0.21093 0.41624 0.26129 0.0
C1220 C 0.25396 0.41766 0.37113 0.0
C1221 C 0.2501 0.38162 0.40535 0.0
N1222 N 0.22429 0.41596 0.29659 0.0
N1223 N 0.23676 0.3819 0.36999 0.0
H1224 H 0.21521 0.43283 0.92255 0.0
H1225 H 0.24766 0.36677 0.74502 0.0
H1226 H 0.1821 0.36808 0.91752 0.0
H1227 H 0.28073 0.43153 0.74896 0.0
H1228 H 0.22362 0.36699 0.80878 0.0
H1229 H 0.23943 0.43271 0.8591 0.0
C1230 C 0.21299 0.41859 0.908 0.0
C1231 C 0.19657 0.40044 0.9253 0.0
C1232 C 0.23615 0.38115 0.79578 0.0
C1233 C 0.22428 0.40019 0.85285 0.0
C1234 C 0.24992 0.38104 0.75943 0.0
C1235 C 0.26626 0.39915 0.74169 0.0
C1236 C 0.23872 0.39952 0.81454 0.0
C1237 C 0.26836 0.41719 0.76157 0.0
C1238 C 0.22685 0.41853 0.87183 0.0
C1239 C 0.19451 0.38244 0.90526 0.0
N1240 N 0.25475 0.41691 0.7969 0.0
N1241 N 0.20821 0.38278 0.87014 0.0
H1242 H 0.76365 0.87953 0.91879 0.0
H1243 H 0.69742 0.91383 0.74939 0.0
H1244 H 0.6988 0.84801 0.92112 0.0
H1245 H 0.76227 0.94513 0.74691 0.0
H1246 H 0.6976 0.88953 0.81205 0.0
H1247 H 0.76338 0.90347 0.85509 0.0
C1248 C 0.74933 0.87758 0.90574 0.0
C1249 C 0.7312 0.8617 0.9253 0.0
C1250 C 0.71179 0.90172 0.79787 0.0
C1251 C 0.73081 0.88918 0.85245 0.0
C1252 C 0.71171 0.91564 0.76213 0.0
C1253 C 0.72987 0.93159 0.74296 0.0
C1254 C 0.73016 0.90373 0.81458 0.0
C1255 C 0.74791 0.93312 0.76079 0.0
C1256 C 0.7492 0.89129 0.86939 0.0
C1257 C 0.71313 0.85997 0.90698 0.0
N1258 N 0.74759 0.91936 0.79558 0.0
N1259 N 0.7134 0.87358 0.87165 0.0
H1260 H 0.27944 0.91157 0.92595 0.0
H1261 H 0.18026 0.87769 0.74952 0.0
H1262 H 0.24703 0.94396 0.92128 0.0
H1263 H 0.21272 0.84534 0.75334 0.0
H1264 H 0.20429 0.90181 0.8137 0.0
H1265 H 0.25498 0.88695 0.86338 0.0
C1266 C 0.26723 0.91355 0.91165 0.0
C1267 C 0.26533 0.92989 0.92875 0.0
C1268 C 0.20612 0.8894 0.80063 0.0
C1269 C 0.23722 0.90171 0.85735 0.0
C1270 C 0.19237 0.87558 0.76407 0.0
C1271 C 0.19446 0.85944 0.74608 0.0
C1272 C 0.2221 0.88709 0.81932 0.0
C1273 C 0.21052 0.85755 0.76612 0.0
C1274 C 0.25324 0.89946 0.87601 0.0
C1275 C 0.24912 0.93162 0.90912 0.0
N1276 N 0.22373 0.87122 0.80159 0.0
N1277 N 0.23571 0.91771 0.87448 0.0
H1278 H 0.43052 0.2818 0.75129 0.0
H1279 H 0.36475 0.18198 0.57867 0.0
H1280 H 0.36567 0.24833 0.7525 0.0
H1281 H 0.4296 0.21539 0.57719 0.0
H1282 H 0.36483 0.20614 0.64238 0.0
H1283 H 0.43049 0.2577 0.68735 0.0
C1284 C 0.41626 0.26941 0.73802 0.0
C1285 C 0.39805 0.2671 0.75723 0.0
C1286 C 0.37905 0.20819 0.6282 0.0
C1287 C 0.39794 0.23941 0.68407 0.0
C1288 C 0.37903 0.19438 0.59181 0.0
C1289 C 0.39721 0.19664 0.57261 0.0
C1290 C 0.39739 0.22442 0.64556 0.0
C1291 C 0.41523 0.21302 0.59104 0.0
C1292 C 0.41626 0.25564 0.70152 0.0
C1293 C 0.38005 0.25074 0.73866 0.0
N1294 N 0.41486 0.22629 0.62647 0.0
N1295 N 0.38046 0.23751 0.70314 0.0
H1296 H 0.88126 0.18108 0.75374 0.0
H1297 H 0.9144 0.28024 0.57911 0.0
H1298 H 0.84831 0.21294 0.7502 0.0
H1299 H 0.9474 0.24844 0.5834 0.0
H1300 H 0.8901 0.25584 0.64215 0.0
H1301 H 0.90561 0.2056 0.69107 0.0
C1302 C 0.87909 0.19318 0.73963 0.0
C1303 C 0.86269 0.19493 0.75716 0.0
C1304 C 0.90269 0.25423 0.62939 0.0
C1305 C 0.89058 0.22312 0.68562 0.0
C1306 C 0.9166 0.2682 0.59349 0.0
C1307 C 0.93299 0.26641 0.57603 0.0
C1308 C 0.90516 0.23836 0.64793 0.0
C1309 C 0.935 0.25042 0.5958 0.0
C1310 C 0.89303 0.20721 0.70393 0.0
C1311 C 0.86071 0.21098 0.73773 0.0
N1312 N 0.92125 0.23702 0.63063 0.0
N1313 N 0.87449 0.22445 0.70303 0.0
H1314 H 0.94665 0.7628 0.74684 0.0
H1315 H 0.84727 0.69661 0.57178 0.0
H1316 H 0.91459 0.69803 0.74381 0.0
H1317 H 0.87972 0.76138 0.57379 0.0
H1318 H 0.87167 0.69679 0.63523 0.0
H1319 H 0.92229 0.76257 0.6832 0.0
C1320 C 0.93455 0.74853 0.7326 0.0
C1321 C 0.93269 0.73041 0.75059 0.0
C1322 C 0.87343 0.71096 0.62185 0.0
C1323 C 0.90468 0.73003 0.67798 0.0
C1324 C 0.85946 0.71087 0.58572 0.0
C1325 C 0.86142 0.729 0.56752 0.0
C1326 C 0.88947 0.72933 0.6399 0.0
C1327 C 0.8776 0.74703 0.58675 0.0
C1328 C 0.92061 0.7484 0.69636 0.0
C1329 C 0.91664 0.71237 0.73099 0.0
N1330 N 0.89099 0.74673 0.62185 0.0
N1331 N 0.90325 0.71264 0.6958 0.0
H1332 H 0.84549 0.69584 0.24376 0.0
H1333 H 0.94615 0.76277 0.07578 0.0
H1334 H 0.87843 0.7606 0.24644 0.0
H1335 H 0.91327 0.698 0.07212 0.0
H1336 H 0.92156 0.76218 0.13873 0.0
H1337 H 0.87009 0.69628 0.18086 0.0
C1338 C 0.85785 0.71016 0.23097 0.0
C1339 C 0.85987 0.72822 0.25031 0.0
C1340 C 0.91973 0.74809 0.12428 0.0
C1341 C 0.88815 0.72881 0.17845 0.0
C1342 C 0.93379 0.7484 0.08834 0.0
C1343 C 0.9318 0.73039 0.06868 0.0
C1344 C 0.90349 0.72964 0.14072 0.0
C1345 C 0.91545 0.71225 0.08637 0.0
C1346 C 0.87192 0.71039 0.1951 0.0
C1347 C 0.87622 0.74632 0.23243 0.0
N1348 N 0.90191 0.71234 0.12134 0.0
N1349 N 0.88974 0.74615 0.19756 0.0
H1350 H 0.42999 0.21361 0.25012 0.0
H1351 H 0.36463 0.24864 0.07925 0.0
H1352 H 0.36515 0.18267 0.25183 0.0
H1353 H 0.42947 0.27976 0.07814 0.0
H1354 H 0.36454 0.22434 0.14238 0.0
H1355 H 0.43008 0.23785 0.18678 0.0
C1356 C 0.41575 0.21187 0.23708 0.0
C1357 C 0.39752 0.19604 0.25627 0.0
C1358 C 0.37879 0.23649 0.12841 0.0
C1359 C 0.39755 0.22384 0.18378 0.0
C1360 C 0.37887 0.2504 0.09237 0.0
C1361 C 0.3971 0.26631 0.07343 0.0
C1362 C 0.39708 0.23844 0.14568 0.0
C1363 C 0.41506 0.26779 0.0918 0.0
C1364 C 0.41583 0.22575 0.20092 0.0
C1365 C 0.37956 0.19459 0.23799 0.0
N1366 N 0.4146 0.25402 0.12687 0.0
N1367 N 0.38003 0.20832 0.2028 0.0
H1368 H 0.91609 0.28168 0.2491 0.0
H1369 H 0.88148 0.18137 0.07869 0.0
H1370 H 0.947 0.24781 0.2534 0.0
H1371 H 0.85052 0.2152 0.0759 0.0
H1372 H 0.90584 0.2057 0.14183 0.0
H1373 H 0.8923 0.25774 0.18448 0.0
C1374 C 0.91793 0.26924 0.23633 0.0
C1375 C 0.93359 0.26676 0.25671 0.0
C1376 C 0.89371 0.20779 0.12745 0.0
C1377 C 0.90628 0.2392 0.18272 0.0
C1378 C 0.87977 0.19389 0.09142 0.0
C1379 C 0.86389 0.19622 0.07208 0.0
C1380 C 0.89179 0.22417 0.14429 0.0
C1381 C 0.86247 0.21276 0.08991 0.0
C1382 C 0.90431 0.25555 0.19942 0.0
C1383 C 0.93519 0.25034 0.23865 0.0
N1384 N 0.87625 0.2261 0.125 0.0
N1385 N 0.92168 0.23716 0.20274 0.0
H1386 H 0.07923 0.67182 0.41287 0.0
H1387 H 0.13417 0.79076 0.41635 0.0
H1388 H 0.10409 0.70679 0.26851 0.0
H1389 H 0.13523 0.75637 0.55231 0.0
H1390 H 0.11882 0.76001 0.36198 0.0
H1391 H 0.09533 0.7028 0.46583 0.0
C1392 C 0.08805 0.686 0.39233 0.0
C1393 C 0.09037 0.68674 0.33625 0.0
C1394 C 0.12251 0.7593 0.4037 0.0
C1395 C 0.10856 0.72214 0.39641 0.0
C1396 C 0.13119 0.77679 0.43476 0.0
C1397 C 0.136 0.77614 0.48896 0.0
C1398 C 0.11826 0.74105 0.42739 0.0
C1399 C 0.13185 0.75762 0.5107 0.0
C1400 C 0.09728 0.70363 0.42256 0.0
C1401 C 0.10201 0.70554 0.31171 0.0
N1402 N 0.12306 0.74079 0.47997 0.0
N1403 N 0.11056 0.72254 0.34193 0.0
H1404 H 0.45742 0.47216 0.41657 0.0
H1405 H 0.33812 0.41235 0.41532 0.0
H1406 H 0.4229 0.4664 0.27363 0.0
H1407 H 0.37262 0.44165 0.55787 0.0
H1408 H 0.36914 0.42842 0.3625 0.0
H1409 H 0.42639 0.45729 0.4693 0.0
C1410 C 0.44333 0.46778 0.39628 0.0
C1411 C 0.44275 0.47054 0.34061 0.0
C1412 C 0.36985 0.43136 0.40532 0.0
C1413 C 0.40728 0.45336 0.40056 0.0
C1414 C 0.35219 0.42215 0.43551 0.0
C1415 C 0.35277 0.42567 0.4911 0.0
C1416 C 0.38823 0.44386 0.43106 0.0
C1417 C 0.37144 0.43857 0.5151 0.0
C1418 C 0.42567 0.45938 0.42642 0.0
C1419 C 0.42408 0.46464 0.31647 0.0
N1420 N 0.38846 0.44708 0.48501 0.0
N1421 N 0.40705 0.45617 0.34653 0.0
H1422 H 0.71655 0.98954 0.41543 0.0
H1423 H 0.65811 0.05033 0.41719 0.0
H1424 H 0.68798 0.99559 0.5582 0.0
H1425 H 0.66332 0.02139 0.27406 0.0
H1426 H 0.67276 0.03392 0.46976 0.0
H1427 H 0.70074 0.00477 0.36265 0.0
C1428 C 0.70696 0.99405 0.43567 0.0
C1429 C 0.70358 0.99128 0.49131 0.0
C1430 C 0.6706 0.03114 0.42687 0.0
C1431 C 0.68569 0.00887 0.43134 0.0
C1432 C 0.66233 0.04055 0.39682 0.0
C1433 C 0.65948 0.03722 0.34115 0.0
C1434 C 0.67639 0.01862 0.40091 0.0
C1435 C 0.66517 0.02432 0.3169 0.0
C1436 C 0.6979 0.00266 0.40551 0.0
C1437 C 0.69095 0.99735 0.51538 0.0
N1438 N 0.6735 0.01561 0.34688 0.0
N1439 N 0.68259 0.00601 0.48532 0.0
H1440 H 0.67158 0.07735 0.08178 0.0
H1441 H 0.79088 0.1373 0.08406 0.0
H1442 H 0.70586 0.10611 0.22504 0.0
H1443 H 0.75642 0.13172 0.94113 0.0
H1444 H 0.75982 0.12232 0.13667 0.0
H1445 H 0.70266 0.09363 0.02931 0.0
C1446 C 0.68562 0.08707 0.1022 0.0
C1447 C 0.68612 0.09038 0.15788 0.0
C1448 C 0.75913 0.12448 0.09382 0.0
C1449 C 0.72166 0.10883 0.09824 0.0
C1450 C 0.77681 0.13295 0.06375 0.0
C1451 C 0.77625 0.13577 0.0081 0.0
C1452 C 0.74074 0.11846 0.0679 0.0
C1453 C 0.75758 0.1299 0.98394 0.0
C1454 C 0.70331 0.09641 0.07221 0.0
C1455 C 0.70475 0.10319 0.18219 0.0
N1456 N 0.74054 0.12137 0.01392 0.0
N1457 N 0.72181 0.11183 0.15228 0.0
H1458 H 0.99378 0.72107 0.07808 0.0
H1459 H 0.04877 0.65703 0.07699 0.0
H1460 H 0.99331 0.68681 0.93976 0.0
H1461 H 0.02341 0.666 0.22218 0.0
H1462 H 0.03275 0.67224 0.02512 0.0
H1463 H 0.00891 0.70517 0.13135 0.0
C1464 C 0.99686 0.71025 0.05892 0.0
C1465 C 0.99227 0.70526 0.00439 0.0
C1466 C 0.03067 0.6708 0.06833 0.0
C1467 C 0.00973 0.68733 0.06472 0.0
C1468 C 0.03984 0.6622 0.09794 0.0
C1469 C 0.03738 0.66021 0.15394 0.0
C1470 C 0.01929 0.67782 0.09502 0.0
C1471 C 0.0256 0.66712 0.17902 0.0
C1472 C 0.0054 0.70115 0.08935 0.0
C1473 C 0.99652 0.69108 0.98166 0.0
N1474 N 0.01712 0.67579 0.14941 0.0
N1475 N 0.00516 0.68274 0.01181 0.0
H1476 H 0.41098 0.33912 0.08381 0.0
H1477 H 0.47034 0.45828 0.08113 0.0
H1478 H 0.43962 0.37329 0.94066 0.0
H1479 H 0.4653 0.42426 0.22423 0.0
H1480 H 0.45531 0.42714 0.02878 0.0
H1481 H 0.42709 0.37024 0.13626 0.0
C1482 C 0.42064 0.35314 0.06341 0.0
C1483 C 0.42397 0.3536 0.00777 0.0
C1484 C 0.45759 0.42656 0.07162 0.0
C1485 C 0.4422 0.38917 0.06737 0.0
C1486 C 0.46608 0.44428 0.10154 0.0
C1487 C 0.46909 0.44387 0.15714 0.0
C1488 C 0.45174 0.40827 0.09764 0.0
C1489 C 0.46334 0.4253 0.18144 0.0
C1490 C 0.42987 0.37086 0.09339 0.0
C1491 C 0.4367 0.3722 0.98348 0.0
N1492 N 0.45479 0.40821 0.1516 0.0
N1493 N 0.44522 0.38928 0.01337 0.0
H1494 H 0.96828 0.3579 0.49601 0.0
H1495 H 0.06691 0.44717 0.62084 0.0
H1496 H 0.01919 0.35084 0.53358 0.0
H1497 H 0.00842 0.43505 0.6735 0.0
H1498 H 0.0509 0.41513 0.57212 0.0
H1499 H 0.98399 0.3896 0.54605 0.0
C1500 C 0.98274 0.36302 0.51482 0.0
C1501 C 0.99246 0.35176 0.5108 0.0
C1502 C 0.04165 0.41959 0.59436 0.0
C1503 C 0.01061 0.38806 0.56671 0.0
C1504 C 0.05072 0.43788 0.62176 0.0
C1505 C 0.03896 0.44374 0.65134 0.0
C1506 C 0.02069 0.4074 0.59546 0.0
C1507 C 0.01803 0.43106 0.65144 0.0
C1508 C 0.99164 0.38102 0.5434 0.0
C1509 C 0.01115 0.35901 0.53612 0.0
N1510 N 0.00952 0.41354 0.62353 0.0
N1511 N 0.01978 0.37688 0.56252 0.0
H1512 H 0.67132 0.65986 0.58225 0.0
H1513 H 0.79058 0.71865 0.57846 0.0
H1514 H 0.70632 0.6637 0.72246 0.0
H1515 H 0.75536 0.68766 0.43836 0.0
H1516 H 0.75971 0.70344 0.63226 0.0
H1517 H 0.70218 0.67501 0.52845 0.0
C1518 C 0.68547 0.66391 0.60171 0.0
C1519 C 0.68625 0.66046 0.65686 0.0
C1520 C 0.75884 0.69999 0.58972 0.0
C1521 C 0.72146 0.67798 0.59593 0.0
C1522 C 0.77638 0.70869 0.55903 0.0
C1523 C 0.77553 0.70436 0.50391 0.0
C1524 C 0.74033 0.68725 0.56483 0.0
C1525 C 0.75673 0.69131 0.48078 0.0
C1526 C 0.70301 0.67246 0.57101 0.0
C1527 C 0.70499 0.66597 0.68002 0.0
N1528 N 0.73984 0.68333 0.51127 0.0
N1529 N 0.72189 0.6746 0.64952 0.0
H1530 H 0.41078 0.13761 0.58336 0.0
H1531 H 0.46966 0.07725 0.58138 0.0
H1532 H 0.43902 0.1314 0.44015 0.0
H1533 H 0.46477 0.10656 0.72415 0.0
H1534 H 0.45473 0.09339 0.52879 0.0
H1535 H 0.42683 0.12259 0.63597 0.0
C1536 C 0.42034 0.1331 0.56299 0.0
C1537 C 0.42357 0.13578 0.50727 0.0
C1538 C 0.45702 0.09631 0.5716 0.0
C1539 C 0.44174 0.11842 0.56707 0.0
C1540 C 0.46545 0.08706 0.60167 0.0
C1541 C 0.46848 0.09057 0.65725 0.0
C1542 C 0.45123 0.10885 0.59747 0.0
C1543 C 0.4628 0.10349 0.68138 0.0
C1544 C 0.42954 0.12461 0.59305 0.0
C1545 C 0.43617 0.12971 0.48302 0.0
N1546 N 0.4543 0.11204 0.65141 0.0
N1547 N 0.44467 0.12116 0.51301 0.0
H1548 H 0.33747 0.98984 0.91612 0.0
H1549 H 0.45678 0.05111 0.9171 0.0
H1550 H 0.37228 0.99639 0.05903 0.0
H1551 H 0.42239 0.02166 0.77453 0.0
H1552 H 0.4258 0.03472 0.96998 0.0
H1553 H 0.36847 0.00507 0.86326 0.0
C1554 C 0.35161 0.99446 0.93638 0.0
C1555 C 0.35228 0.99183 0.99208 0.0
C1556 C 0.4251 0.03182 0.92714 0.0
C1557 C 0.38772 0.00943 0.93199 0.0
C1558 C 0.44274 0.04122 0.89691 0.0
C1559 C 0.44217 0.03775 0.8413 0.0
C1560 C 0.40675 0.01917 0.90142 0.0
C1561 C 0.42355 0.02472 0.81731 0.0
C1562 C 0.36926 0.00307 0.90617 0.0
C1563 C 0.37103 0.99805 0.01617 0.0
N1564 N 0.40655 0.01602 0.84745 0.0
N1565 N 0.38804 0.00671 0.98604 0.0
H1566 H 0.10921 0.46952 0.77203 0.0
H1567 H 0.12896 0.43951 0.0617 0.0
H1568 H 0.0748 0.46833 0.91073 0.0
H1569 H 0.13847 0.41503 0.91551 0.0
H1570 H 0.1137 0.45519 0.00856 0.0
H1571 H 0.12481 0.45457 0.82609 0.0
C1572 C 0.10497 0.4662 0.81391 0.0
C1573 C 0.09061 0.47014 0.83685 0.0
C1574 C 0.11914 0.44637 0.98828 0.0
C1575 C 0.10861 0.45319 0.89894 0.0
C1576 C 0.12795 0.43752 0.01843 0.0
C1577 C 0.13498 0.42592 0.99295 0.0
C1578 C 0.11773 0.44394 0.93222 0.0
C1579 C 0.13317 0.42377 0.9368 0.0
C1580 C 0.11384 0.45759 0.84461 0.0
C1581 C 0.08572 0.46545 0.89136 0.0
N1582 N 0.12483 0.43281 0.90825 0.0
N1583 N 0.09481 0.45731 0.92072 0.0
H1584 H 0.68437 0.68195 0.87845 0.0
H1585 H 0.67576 0.77314 0.99101 0.0
H1586 H 0.64087 0.6963 0.8143 0.0
H1587 H 0.73352 0.77731 0.97257 0.0
H1588 H 0.66039 0.74198 0.93866 0.0
H1589 H 0.70038 0.71397 0.92709 0.0
C1590 C 0.67808 0.69173 0.87491 0.0
C1591 C 0.66123 0.68644 0.84229 0.0
C1592 C 0.67644 0.74982 0.94585 0.0
C1593 C 0.67933 0.72283 0.89801 0.0
C1594 C 0.6852 0.76751 0.97574 0.0
C1595 C 0.70591 0.77776 0.98593 0.0
C1596 C 0.68842 0.74206 0.92735 0.0
C1597 C 0.71751 0.7699 0.96513 0.0
C1598 C 0.68732 0.71002 0.90229 0.0
C1599 C 0.65382 0.69977 0.8389 0.0
N1600 N 0.70855 0.75232 0.93732 0.0
N1601 N 0.66281 0.7173 0.86681 0.0
H1602 H 0.77231 0.03775 0.60513 0.0
H1603 H 0.79827 0.08898 0.89418 0.0
H1604 H 0.74416 0.00485 0.75031 0.0
H1605 H 0.80291 0.12199 0.74928 0.0
H1606 H 0.78305 0.05795 0.84173 0.0
H1607 H 0.78833 0.06882 0.65749 0.0
C1608 C 0.76956 0.03703 0.64804 0.0
C1609 C 0.75683 0.01867 0.6734 0.0
C1610 C 0.78741 0.072 0.82153 0.0
C1611 C 0.77525 0.05413 0.73336 0.0
C1612 C 0.79618 0.08973 0.85131 0.0
C1613 C 0.80184 0.10812 0.82607 0.0
C1614 C 0.78458 0.07268 0.76597 0.0
C1615 C 0.79868 0.10814 0.77041 0.0
C1616 C 0.77864 0.05478 0.67776 0.0
C1617 C 0.75378 0.01868 0.72909 0.0
N1618 N 0.79036 0.09069 0.74212 0.0
N1619 N 0.76301 0.03615 0.7573 0.0
H1620 H 0.1118 0.77502 0.70179 0.0
H1621 H 0.02594 0.78712 0.83833 0.0
H1622 H 0.10252 0.82408 0.65875 0.0
H1623 H 0.01569 0.72885 0.79031 0.0
H1624 H 0.05752 0.80272 0.78782 0.0
H1625 H 0.0799 0.75949 0.75106 0.0
C1626 C 0.10315 0.7826 0.70308 0.0
C1627 C 0.10976 0.80083 0.67606 0.0
C1628 C 0.04827 0.78653 0.78832 0.0
C1629 C 0.07359 0.78334 0.73264 0.0
C1630 C 0.03031 0.77762 0.81716 0.0
C1631 C 0.01817 0.75667 0.81839 0.0
C1632 C 0.05436 0.77437 0.76187 0.0
C1633 C 0.02455 0.74506 0.7901 0.0
C1634 C 0.08494 0.77368 0.7308 0.0
C1635 C 0.09791 0.80996 0.67874 0.0
N1636 N 0.04236 0.75407 0.76346 0.0
N1637 N 0.08045 0.8012 0.70697 0.0
H1638 H 0.32518 0.3859 0.75051 0.0
H1639 H 0.38398 0.32551 0.74788 0.0
H1640 H 0.3298 0.35652 0.60753 0.0
H1641 H 0.35555 0.33137 0.89116 0.0
H1642 H 0.36786 0.34051 0.69543 0.0
H1643 H 0.34001 0.36961 0.8029 0.0
C1644 C 0.3293 0.37604 0.73014 0.0
C1645 C 0.32624 0.37256 0.67455 0.0
C1646 C 0.36512 0.33841 0.73832 0.0
C1647 C 0.34337 0.35412 0.7341 0.0
C1648 C 0.37436 0.32994 0.7683 0.0
C1649 C 0.3711 0.32718 0.82399 0.0
C1650 C 0.35286 0.34451 0.76438 0.0
C1651 C 0.35842 0.33314 0.8483 0.0
C1652 C 0.33768 0.3667 0.76008 0.0
C1653 C 0.33181 0.35957 0.6503 0.0
N1654 N 0.34989 0.34168 0.81841 0.0
N1655 N 0.34026 0.35095 0.68016 0.0
H1656 H 0.03805 0.3269 0.3906 0.0
H1657 H 0.08856 0.358 0.10221 0.0
H1658 H 0.00503 0.32823 0.25142 0.0
H1659 H 0.12209 0.38256 0.24917 0.0
H1660 H 0.05746 0.3419 0.15465 0.0
H1661 H 0.06876 0.34221 0.33721 0.0
C1662 C 0.03721 0.33032 0.34876 0.0
C1663 C 0.01891 0.32633 0.32548 0.0
C1664 C 0.07165 0.35083 0.17525 0.0
C1665 C 0.05404 0.34368 0.26418 0.0
C1666 C 0.0894 0.35992 0.1455 0.0
C1667 C 0.10794 0.37167 0.17141 0.0
C1668 C 0.0725 0.35317 0.23133 0.0
C1669 C 0.10812 0.37372 0.22756 0.0
C1670 C 0.05478 0.33914 0.31845 0.0
C1671 C 0.01882 0.33115 0.27104 0.0
N1672 N 0.09066 0.36444 0.25572 0.0
N1673 N 0.03613 0.33949 0.24205 0.0
H1674 H 0.77744 0.72722 0.28165 0.0
H1675 H 0.78474 0.82711 0.17424 0.0
H1676 H 0.82056 0.78499 0.34701 0.0
H1677 H 0.72738 0.77301 0.19101 0.0
H1678 H 0.8005 0.81129 0.22464 0.0
H1679 H 0.76118 0.74315 0.23383 0.0
C1680 C 0.7836 0.74325 0.2856 0.0
C1681 C 0.80041 0.75481 0.31838 0.0
C1682 C 0.78446 0.80296 0.21748 0.0
C1683 C 0.78201 0.773 0.26358 0.0
C1684 C 0.77548 0.81192 0.18869 0.0
C1685 C 0.75475 0.80132 0.17864 0.0
C1686 C 0.7727 0.78309 0.23504 0.0
C1687 C 0.74339 0.7817 0.19838 0.0
C1688 C 0.77422 0.75226 0.25868 0.0
C1689 C 0.80765 0.77551 0.32229 0.0
N1690 N 0.75256 0.77308 0.22515 0.0
N1691 N 0.79851 0.78399 0.29485 0.0
H1692 H 0.32919 0.03812 0.10464 0.0
H1693 H 0.35458 0.08966 0.39337 0.0
H1694 H 0.32476 0.00551 0.25016 0.0
H1695 H 0.38295 0.12258 0.24838 0.0
H1696 H 0.33864 0.05861 0.34103 0.0
H1697 H 0.34409 0.06925 0.15675 0.0
C1698 C 0.33125 0.03747 0.14757 0.0
C1699 C 0.32577 0.01917 0.17309 0.0
C1700 C 0.34835 0.07265 0.32077 0.0
C1701 C 0.34264 0.0547 0.23277 0.0
C1702 C 0.35739 0.0904 0.35049 0.0
C1703 C 0.37018 0.10876 0.32521 0.0
C1704 C 0.35183 0.07329 0.26523 0.0
C1705 C 0.37329 0.10875 0.26954 0.0
C1706 C 0.33984 0.05526 0.17715 0.0
C1707 C 0.32887 0.01928 0.22881 0.0
N1708 N 0.3641 0.09128 0.24132 0.0
N1709 N 0.33701 0.03678 0.25687 0.0
loop_
_geom_bond_atom_site_label_1
_geom_bond_atom_site_label_2
_geom_bond_distance
_geom_bond_site_symmetry_2
_ccdc_geom_bond_type
Co0 O2 2.143 . S
Co0 O8 2.074 . S
Co0 O11 2.093 . S
Co0 O24 2.097 . S
Co0 N41 2.151 . S
Co0 N49 2.214 . S
Co1 O2 2.160 . S
Co1 O7 2.058 . S
Co1 O17 2.057 . S
Co1 O32 2.037 . S
Co1 N36 2.145 . S
Co1 N57 2.257 . S
O2 Co0 2.143 . S
O2 Co1 2.160 . S
C3 O4 1.278 . S
C3 O11 1.224 . S
O4 C3 1.278 . S
C5 O6 1.245 . S
C5 O17 1.232 . S
O6 C5 1.245 . S
O7 Co1 2.058 . S
O7 C33 1.269 . S
O8 Co0 2.074 . S
O8 C33 1.257 . S
H9 C34 0.930 . S
H10 C40 0.930 . S
O11 Co0 2.093 . S
O11 C3 1.224 . S
H12 C44 0.929 . S
H13 C46 0.930 . S
H14 C47 0.930 . S
H15 C45 0.929 . S
H16 C48 0.928 . S
O17 Co1 2.057 . S
O17 C5 1.232 . S
H18 C37 0.929 . S
H19 C38 0.929 . S
H20 C50 0.931 . S
H21 C42 0.929 . S
H22 C51 0.930 . S
H23 C43 0.931 . S
O24 Co0 2.097 . S
O24 C52 1.214 . S
H25 C53 0.929 . S
H26 C54 0.929 . S
H27 C55 0.930 . S
H28 C56 0.929 . S
H29 C58 0.930 . S
H30 C35 0.930 . S
H31 C39 0.942 . S
O32 Co1 2.037 . S
O32 C52 1.234 . S
C33 O7 1.269 . S
C33 O8 1.257 . S
C34 H9 0.930 . S
C34 C37 1.388 . S
C34 C39 1.416 1_455 S
C35 H30 0.930 . S
C35 C38 1.404 . S
C35 C39 1.343 1_455 S
N36 Co1 2.145 . S
N36 C37 1.397 . S
N36 C38 1.334 . S
C37 H18 0.929 . S
C37 C34 1.388 . S
C37 N36 1.397 . S
C38 H19 0.929 . S
C38 C35 1.404 . S
C38 N36 1.334 . S
C39 H31 0.942 . S
C39 C34 1.416 1_655 S
C39 C35 1.343 1_655 S
C40 H10 0.930 . S
C40 N41 1.330 . S
C40 C42 1.446 . S
N41 Co0 2.151 . S
N41 C40 1.330 . S
N41 C45 1.418 . S
C42 H21 0.929 . S
C42 C40 1.446 . S
C42 C43 1.332 . S
C43 H23 0.931 . S
C43 C42 1.332 . S
C43 C44 1.267 . S
C44 H12 0.929 . S
C44 C43 1.267 . S
C44 C45 1.251 . S
C45 H15 0.929 . S
C45 N41 1.418 . S
C45 C44 1.251 . S
C46 H13 0.930 . S
C46 C48 1.406 . S
C46 C51 1.261 . S
C47 H14 0.930 . S
C47 N49 1.325 . S
C47 C50 1.357 . S
C48 H16 0.928 . S
C48 C46 1.406 . S
C48 N49 1.261 . S
N49 Co0 2.214 . S
N49 C47 1.325 . S
N49 C48 1.261 . S
C50 H20 0.931 . S
C50 C47 1.357 . S
C50 C51 1.312 . S
C51 H22 0.930 . S
C51 C46 1.261 . S
C51 C50 1.312 . S
C52 O24 1.214 . S
C52 O32 1.234 . S
C53 H25 0.929 . S
C53 C56 1.391 1_455 S
C53 C58 1.391 . S
C54 H26 0.929 . S
C54 C55 1.390 1_455 S
C54 N57 1.391 . S
C55 H27 0.930 . S
C55 C54 1.390 1_655 S
C55 C56 1.392 . S
C56 H28 0.929 . S
C56 C53 1.391 1_655 S
C56 C55 1.392 . S
N57 Co1 2.257 . S
N57 C54 1.391 . S
N57 C58 1.388 . S
C58 H29 0.930 . S
C58 C53 1.391 . S
C58 N57 1.388 . S
Co59 O61 2.143 . S
Co59 O67 2.074 . S
Co59 O70 2.093 . S
Co59 O83 2.097 . S
Co59 N100 2.151 . S
Co59 N108 2.214 . S
Co60 O61 2.160 . S
Co60 O66 2.058 . S
Co60 O76 2.057 . S
Co60 O91 2.037 . S
Co60 N95 2.145 . S
Co60 N116 2.257 . S
O61 Co59 2.143 . S
O61 Co60 2.160 . S
C62 O63 1.278 . S
C62 O70 1.224 . S
O63 C62 1.278 . S
C64 O65 1.245 . S
C64 O76 1.232 . S
O65 C64 1.245 . S
O66 Co60 2.058 . S
O66 C92 1.269 . S
O67 Co59 2.074 . S
O67 C92 1.257 . S
H68 C93 0.930 . S
H69 C99 0.930 . S
O70 Co59 2.093 . S
O70 C62 1.224 . S
H71 C103 0.929 . S
H72 C105 0.930 . S
H73 C106 0.930 . S
H74 C104 0.929 . S
H75 C107 0.928 . S
O76 Co60 2.057 . S
O76 C64 1.232 . S
H77 C96 0.929 . S
H78 C97 0.929 . S
H79 C109 0.931 . S
H80 C101 0.929 . S
H81 C110 0.930 . S
H82 C102 0.931 . S
O83 Co59 2.097 . S
O83 C111 1.214 . S
H84 C112 0.929 . S
H85 C113 0.929 . S
H86 C114 0.930 . S
H87 C115 0.929 . S
H88 C117 0.930 . S
H89 C94 0.930 . S
H90 C98 0.930 . S
O91 Co60 2.037 . S
O91 C111 1.234 . S
C92 O66 1.269 . S
C92 O67 1.257 . S
C93 H68 0.930 . S
C93 C96 1.388 . S
C93 C98 1.418 . S
C94 H89 0.930 . S
C94 C97 1.404 . S
C94 C98 1.353 . S
N95 Co60 2.145 . S
N95 C96 1.397 . S
N95 C97 1.334 . S
C96 H77 0.929 . S
C96 C93 1.388 . S
C96 N95 1.397 . S
C97 H78 0.929 . S
C97 C94 1.404 . S
C97 N95 1.334 . S
C98 H90 0.930 . S
C98 C93 1.418 . S
C98 C94 1.353 . S
C99 H69 0.930 . S
C99 N100 1.330 . S
C99 C101 1.446 . S
N100 Co59 2.151 . S
N100 C99 1.330 . S
N100 C104 1.418 . S
C101 H80 0.929 . S
C101 C99 1.446 . S
C101 C102 1.332 . S
C102 H82 0.931 . S
C102 C101 1.332 . S
C102 C103 1.267 . S
C103 H71 0.929 . S
C103 C102 1.267 . S
C103 C104 1.251 . S
C104 H74 0.929 . S
C104 N100 1.418 . S
C104 C103 1.251 . S
C105 H72 0.930 . S
C105 C107 1.406 . S
C105 C110 1.261 . S
C106 H73 0.930 . S
C106 N108 1.325 . S
C106 C109 1.357 . S
C107 H75 0.928 . S
C107 C105 1.406 . S
C107 N108 1.261 . S
N108 Co59 2.214 . S
N108 C106 1.325 . S
N108 C107 1.261 . S
C109 H79 0.931 . S
C109 C106 1.357 . S
C109 C110 1.312 . S
C110 H81 0.930 . S
C110 C105 1.261 . S
C110 C109 1.312 . S
C111 O83 1.214 . S
C111 O91 1.234 . S
C112 H84 0.929 . S
C112 C115 1.391 . S
C112 C117 1.391 . S
C113 H85 0.929 . S
C113 C114 1.390 . S
C113 N116 1.391 . S
C114 H86 0.930 . S
C114 C113 1.390 . S
C114 C115 1.392 . S
C115 H87 0.929 . S
C115 C112 1.391 . S
C115 C114 1.392 . S
N116 Co60 2.257 . S
N116 C113 1.391 . S
N116 C117 1.388 . S
C117 H88 0.930 . S
C117 C112 1.391 . S
C117 N116 1.388 . S
Co118 O120 2.143 . S
Co118 O126 2.074 . S
Co118 O129 2.093 . S
Co118 O142 2.097 . S
Co118 N159 2.151 . S
Co118 N167 2.214 . S
Co119 O120 2.160 . S
Co119 O125 2.058 . S
Co119 O135 2.057 . S
Co119 O150 2.037 . S
Co119 N154 2.145 . S
Co119 N175 2.257 . S
O120 Co118 2.143 . S
O120 Co119 2.160 . S
C121 O122 1.278 . S
C121 O129 1.224 . S
O122 C121 1.278 . S
C123 O124 1.245 . S
C123 O135 1.232 . S
O124 C123 1.245 . S
O125 Co119 2.058 . S
O125 C151 1.269 . S
O126 Co118 2.074 . S
O126 C151 1.257 . S
H127 C152 0.930 . S
H128 C158 0.930 . S
O129 Co118 2.093 . S
O129 C121 1.224 . S
H130 C162 0.929 . S
H131 C164 0.930 1_565 S
H132 C165 0.930 . S
H133 C163 0.952 . S
H134 C166 0.928 . S
O135 Co119 2.057 . S
O135 C123 1.232 . S
H136 C155 0.929 . S
H137 C156 0.929 . S
H138 C168 0.931 . S
H139 C160 0.929 . S
H140 C169 0.930 . S
H141 C161 0.931 . S
O142 Co118 2.097 . S
O142 C170 1.214 . S
H143 C171 0.929 . S
H144 C172 0.929 . S
H145 C173 0.930 . S
H146 C174 0.929 . S
H147 C176 0.930 . S
H148 C153 0.930 . S
H149 C157 0.930 . S
O150 Co119 2.037 . S
O150 C170 1.234 . S
C151 O125 1.269 . S
C151 O126 1.257 . S
C152 H127 0.930 . S
C152 C155 1.388 . S
C152 C157 1.418 . S
C153 H148 0.930 . S
C153 C156 1.404 . S
C153 C157 1.353 . S
N154 Co119 2.145 . S
N154 C155 1.397 . S
N154 C156 1.334 . S
C155 H136 0.929 . S
C155 C152 1.388 . S
C155 N154 1.397 . S
C156 H137 0.929 . S
C156 C153 1.404 . S
C156 N154 1.334 . S
C157 H149 0.930 . S
C157 C152 1.418 . S
C157 C153 1.353 . S
C158 H128 0.930 . S
C158 N159 1.330 . S
C158 C160 1.446 1_545 S
N159 Co118 2.151 . S
N159 C158 1.330 . S
N159 C163 1.416 . S
C160 H139 0.929 . S
C160 C158 1.446 1_565 S
C160 C161 1.332 . S
C161 H141 0.931 . S
C161 C160 1.332 . S
C161 C162 1.267 . S
C162 H130 0.929 . S
C162 C161 1.267 . S
C162 C163 1.252 1_565 S
C163 H133 0.952 . S
C163 N159 1.416 . S
C163 C162 1.252 1_545 S
C164 H131 0.930 1_545 S
C164 C166 1.406 . S
C164 C169 1.261 . S
C165 H132 0.930 . S
C165 N167 1.325 . S
C165 C168 1.357 . S
C166 H134 0.928 . S
C166 C164 1.406 . S
C166 N167 1.261 . S
N167 Co118 2.214 . S
N167 C165 1.325 . S
N167 C166 1.261 . S
C168 H138 0.931 . S
C168 C165 1.357 . S
C168 C169 1.312 . S
C169 H140 0.930 . S
C169 C164 1.261 . S
C169 C168 1.312 . S
C170 O142 1.214 . S
C170 O150 1.234 . S
C171 H143 0.929 . S
C171 C174 1.391 . S
C171 C176 1.391 . S
C172 H144 0.929 . S
C172 C173 1.390 . S
C172 N175 1.391 . S
C173 H145 0.930 . S
C173 C172 1.390 . S
C173 C174 1.392 . S
C174 H146 0.929 . S
C174 C171 1.391 . S
C174 C173 1.392 . S
N175 Co119 2.257 . S
N175 C172 1.391 . S
N175 C176 1.388 . S
C176 H147 0.930 . S
C176 C171 1.391 . S
C176 N175 1.388 . S
Co177 O179 2.143 . S
Co177 O185 2.074 . S
Co177 O188 2.093 . S
Co177 O201 2.097 . S
Co177 N218 2.151 . S
Co177 N226 2.214 . S
Co178 O179 2.160 . S
Co178 O184 2.058 . S
Co178 O194 2.057 . S
Co178 O209 2.037 . S
Co178 N213 2.145 . S
Co178 N234 2.257 . S
O179 Co177 2.143 . S
O179 Co178 2.160 . S
C180 O181 1.278 . S
C180 O188 1.224 . S
O181 C180 1.278 . S
C182 O183 1.245 . S
C182 O194 1.232 . S
O183 C182 1.245 . S
O184 Co178 2.058 . S
O184 C210 1.269 . S
O185 Co177 2.074 . S
O185 C210 1.257 . S
H186 C211 0.930 . S
H187 C217 0.930 . S
O188 Co177 2.093 . S
O188 C180 1.224 . S
H189 C221 0.929 . S
H190 C223 0.930 1_655 S
H191 C224 0.930 . S
H192 C222 0.911 1_455 S
H193 C225 0.928 . S
O194 Co178 2.057 . S
O194 C182 1.232 . S
H195 C214 0.929 . S
H196 C215 0.929 . S
H197 C227 0.931 . S
H198 C219 0.929 . S
H199 C228 0.930 . S
H200 C220 0.931 . S
O201 Co177 2.097 . S
O201 C229 1.214 . S
H202 C230 0.929 . S
H203 C231 0.929 . S
H204 C232 0.930 . S
H205 C233 0.929 . S
H206 C235 0.930 . S
H207 C212 0.930 . S
H208 C216 0.930 . S
O209 Co178 2.037 . S
O209 C229 1.234 . S
C210 O184 1.269 . S
C210 O185 1.257 . S
C211 H186 0.930 . S
C211 C214 1.388 . S
C211 C216 1.418 . S
C212 H207 0.930 . S
C212 C215 1.404 . S
C212 C216 1.353 . S
N213 Co178 2.145 . S
N213 C214 1.397 . S
N213 C215 1.334 . S
C214 H195 0.929 . S
C214 C211 1.388 . S
C214 N213 1.397 . S
C215 H196 0.929 . S
C215 C212 1.404 . S
C215 N213 1.334 . S
C216 H208 0.930 . S
C216 C211 1.418 . S
C216 C212 1.353 . S
C217 H187 0.930 . S
C217 N218 1.330 . S
C217 C219 1.446 1_455 S
N218 Co177 2.151 . S
N218 C217 1.330 . S
N218 C222 1.410 1_455 S
C219 H198 0.929 . S
C219 C217 1.446 1_655 S
C219 C220 1.332 . S
C220 H200 0.931 . S
C220 C219 1.332 . S
C220 C221 1.267 . S
C221 H189 0.929 . S
C221 C220 1.267 . S
C221 C222 1.267 . S
C222 H192 0.911 1_655 S
C222 N218 1.410 1_655 S
C222 C221 1.267 . S
C223 H190 0.930 1_455 S
C223 C225 1.406 . S
C223 C228 1.261 . S
C224 H191 0.930 . S
C224 N226 1.325 . S
C224 C227 1.357 . S
C225 H193 0.928 . S
C225 C223 1.406 . S
C225 N226 1.261 . S
N226 Co177 2.214 . S
N226 C224 1.325 . S
N226 C225 1.261 . S
C227 H197 0.931 . S
C227 C224 1.357 . S
C227 C228 1.312 . S
C228 H199 0.930 . S
C228 C223 1.261 . S
C228 C227 1.312 . S
C229 O201 1.214 . S
C229 O209 1.234 . S
C230 H202 0.929 . S
C230 C233 1.391 . S
C230 C235 1.391 . S
C231 H203 0.929 . S
C231 C232 1.390 . S
C231 N234 1.391 . S
C232 H204 0.930 . S
C232 C231 1.390 . S
C232 C233 1.392 . S
C233 H205 0.929 . S
C233 C230 1.391 . S
C233 C232 1.392 . S
N234 Co178 2.257 . S
N234 C231 1.391 . S
N234 C235 1.388 . S
C235 H206 0.930 . S
C235 C230 1.391 . S
C235 N234 1.388 . S
Co236 O238 2.143 . S
Co236 O244 2.074 . S
Co236 O247 2.093 . S
Co236 O260 2.097 . S
Co236 N277 2.151 . S
Co236 N285 2.214 . S
Co237 O238 2.160 . S
Co237 O243 2.058 . S
Co237 O253 2.057 . S
Co237 O268 2.037 . S
Co237 N272 2.145 . S
Co237 N293 2.257 . S
O238 Co236 2.143 . S
O238 Co237 2.160 . S
C239 O240 1.278 . S
C239 O247 1.224 . S
O240 C239 1.278 . S
C241 O242 1.245 . S
C241 O253 1.232 . S
O242 C241 1.245 . S
O243 Co237 2.058 . S
O243 C269 1.269 . S
O244 Co236 2.074 . S
O244 C269 1.257 . S
H245 C270 0.930 . S
H246 C276 0.930 . S
O247 Co236 2.093 . S
O247 C239 1.224 . S
H248 C280 0.929 . S
H249 C282 0.930 . S
H250 C283 0.930 . S
H251 C281 0.929 . S
H252 C284 0.928 . S
O253 Co237 2.057 . S
O253 C241 1.232 . S
H254 C273 0.929 . S
H255 C274 0.929 . S
H256 C286 0.931 . S
H257 C278 0.929 . S
H258 C287 0.930 . S
H259 C279 0.931 . S
O260 Co236 2.097 . S
O260 C288 1.214 . S
H261 C289 0.929 . S
H262 C290 0.929 . S
H263 C291 0.930 . S
H264 C292 0.929 . S
H265 C294 0.930 . S
H266 C271 0.930 . S
H267 C275 0.930 . S
O268 Co237 2.037 . S
O268 C288 1.234 . S
C269 O243 1.269 . S
C269 O244 1.257 . S
C270 H245 0.930 . S
C270 C273 1.388 . S
C270 C275 1.418 . S
C271 H266 0.930 . S
C271 C274 1.404 . S
C271 C275 1.353 . S
N272 Co237 2.145 . S
N272 C273 1.397 . S
N272 C274 1.334 . S
C273 H254 0.929 . S
C273 C270 1.388 . S
C273 N272 1.397 . S
C274 H255 0.929 . S
C274 C271 1.404 . S
C274 N272 1.334 . S
C275 H267 0.930 . S
C275 C270 1.418 . S
C275 C271 1.353 . S
C276 H246 0.930 . S
C276 N277 1.330 . S
C276 C278 1.446 . S
N277 Co236 2.151 . S
N277 C276 1.330 . S
N277 C281 1.418 . S
C278 H257 0.929 . S
C278 C276 1.446 . S
C278 C279 1.332 . S
C279 H259 0.931 . S
C279 C278 1.332 . S
C279 C280 1.267 . S
C280 H248 0.929 . S
C280 C279 1.267 . S
C280 C281 1.251 . S
C281 H251 0.929 . S
C281 N277 1.418 . S
C281 C280 1.251 . S
C282 H249 0.930 . S
C282 C284 1.406 . S
C282 C287 1.261 . S
C283 H250 0.930 . S
C283 N285 1.325 . S
C283 C286 1.357 . S
C284 H252 0.928 . S
C284 C282 1.406 . S
C284 N285 1.261 . S
N285 Co236 2.214 . S
N285 C283 1.325 . S
N285 C284 1.261 . S
C286 H256 0.931 . S
C286 C283 1.357 . S
C286 C287 1.312 . S
C287 H258 0.930 . S
C287 C282 1.261 . S
C287 C286 1.312 . S
C288 O260 1.214 . S
C288 O268 1.234 . S
C289 H261 0.929 . S
C289 C292 1.391 . S
C289 C294 1.391 . S
C290 H262 0.929 . S
C290 C291 1.390 . S
C290 N293 1.391 . S
C291 H263 0.930 . S
C291 C290 1.390 . S
C291 C292 1.392 . S
C292 H264 0.929 . S
C292 C289 1.391 . S
C292 C291 1.392 . S
N293 Co237 2.257 . S
N293 C290 1.391 . S
N293 C294 1.388 . S
C294 H265 0.930 . S
C294 C289 1.391 . S
C294 N293 1.388 . S
Co295 O297 2.143 . S
Co295 O303 2.074 . S
Co295 O306 2.093 . S
Co295 O319 2.097 . S
Co295 N336 2.151 . S
Co295 N344 2.214 . S
Co296 O297 2.160 . S
Co296 O302 2.058 . S
Co296 O312 2.057 . S
Co296 O327 2.037 . S
Co296 N331 2.145 . S
Co296 N352 2.257 . S
O297 Co295 2.143 . S
O297 Co296 2.160 . S
C298 O299 1.278 . S
C298 O306 1.224 . S
O299 C298 1.278 . S
C300 O301 1.245 . S
C300 O312 1.232 . S
O301 C300 1.245 . S
O302 Co296 2.058 . S
O302 C328 1.269 . S
O303 Co295 2.074 . S
O303 C328 1.257 . S
H304 C329 0.930 . S
H305 C335 0.930 . S
O306 Co295 2.093 . S
O306 C298 1.224 . S
H307 C339 0.929 . S
H308 C341 0.930 . S
H309 C342 0.930 . S
H310 C340 0.929 . S
H311 C343 0.928 . S
O312 Co296 2.057 . S
O312 C300 1.232 . S
H313 C332 0.929 . S
H314 C333 0.929 . S
H315 C345 0.931 . S
H316 C337 0.929 . S
H317 C346 0.930 . S
H318 C338 0.931 . S
O319 Co295 2.097 . S
O319 C347 1.214 . S
H320 C348 0.929 . S
H321 C349 0.929 . S
H322 C350 0.930 . S
H323 C351 0.929 . S
H324 C353 0.930 . S
H325 C330 0.930 . S
H326 C334 0.929 1_565 S
O327 Co296 2.037 . S
O327 C347 1.234 . S
C328 O302 1.269 . S
C328 O303 1.257 . S
C329 H304 0.930 . S
C329 C332 1.388 . S
C329 C334 1.419 . S
C330 H325 0.930 . S
C330 C333 1.404 . S
C330 C334 1.353 . S
N331 Co296 2.145 . S
N331 C332 1.397 . S
N331 C333 1.334 . S
C332 H313 0.929 . S
C332 C329 1.388 . S
C332 N331 1.397 . S
C333 H314 0.929 . S
C333 C330 1.404 . S
C333 N331 1.334 . S
C334 H326 0.929 1_545 S
C334 C329 1.419 . S
C334 C330 1.353 . S
C335 H305 0.930 . S
C335 N336 1.330 . S
C335 C337 1.446 . S
N336 Co295 2.151 . S
N336 C335 1.330 . S
N336 C340 1.418 . S
C337 H316 0.929 . S
C337 C335 1.446 . S
C337 C338 1.332 . S
C338 H318 0.931 . S
C338 C337 1.332 . S
C338 C339 1.267 . S
C339 H307 0.929 . S
C339 C338 1.267 . S
C339 C340 1.251 . S
C340 H310 0.929 . S
C340 N336 1.418 . S
C340 C339 1.251 . S
C341 H308 0.930 . S
C341 C343 1.406 . S
C341 C346 1.261 . S
C342 H309 0.930 . S
C342 N344 1.325 . S
C342 C345 1.357 . S
C343 H311 0.928 . S
C343 C341 1.406 . S
C343 N344 1.261 . S
N344 Co295 2.214 . S
N344 C342 1.325 . S
N344 C343 1.261 . S
C345 H315 0.931 . S
C345 C342 1.357 . S
C345 C346 1.312 . S
C346 H317 0.930 . S
C346 C341 1.261 . S
C346 C345 1.312 . S
C347 O319 1.214 . S
C347 O327 1.234 . S
C348 H320 0.929 . S
C348 C351 1.391 1_545 S
C348 C353 1.391 . S
C349 H321 0.929 . S
C349 C350 1.390 1_545 S
C349 N352 1.391 . S
C350 H322 0.930 . S
C350 C349 1.390 1_565 S
C350 C351 1.392 . S
C351 H323 0.929 . S
C351 C348 1.391 1_565 S
C351 C350 1.392 . S
N352 Co296 2.257 . S
N352 C349 1.391 . S
N352 C353 1.388 . S
C353 H324 0.930 . S
C353 C348 1.391 . S
C353 N352 1.388 . S
Co354 O356 2.143 . S
Co354 O362 2.074 . S
Co354 O365 2.093 . S
Co354 O378 2.097 . S
Co354 N395 2.151 . S
Co354 N403 2.214 . S
Co355 O356 2.160 . S
Co355 O361 2.058 . S
Co355 O371 2.057 . S
Co355 O386 2.037 1_565 S
Co355 N390 2.145 1_565 S
Co355 N411 2.257 . S
O356 Co354 2.143 . S
O356 Co355 2.160 . S
C357 O358 1.278 . S
C357 O365 1.224 . S
O358 C357 1.278 . S
C359 O360 1.245 . S
C359 O371 1.232 . S
O360 C359 1.245 . S
O361 Co355 2.058 . S
O361 C387 1.269 . S
O362 Co354 2.074 . S
O362 C387 1.257 . S
H363 C388 0.930 . S
H364 C394 0.930 . S
O365 Co354 2.093 . S
O365 C357 1.224 . S
H366 C398 0.929 . S
H367 C400 0.930 . S
H368 C401 0.916 1_545 S
H369 C399 0.929 . S
H370 C402 0.928 . S
O371 Co355 2.057 . S
O371 C359 1.232 . S
H372 C391 0.929 . S
H373 C392 0.978 . S
H374 C404 0.935 1_545 S
H375 C396 0.929 . S
H376 C405 0.930 . S
H377 C397 0.931 . S
O378 Co354 2.097 . S
O378 C406 1.214 1_565 S
H379 C407 0.929 . S
H380 C408 0.929 1_545 S
H381 C409 0.930 1_545 S
H382 C410 0.929 . S
H383 C412 0.930 . S
H384 C389 0.930 . S
H385 C393 0.930 . S
O386 Co355 2.037 1_545 S
O386 C406 1.234 . S
C387 O361 1.269 . S
C387 O362 1.257 . S
C388 H363 0.930 . S
C388 C391 1.388 . S
C388 C393 1.418 . S
C389 H384 0.930 . S
C389 C392 1.381 1_545 S
C389 C393 1.353 . S
N390 Co355 2.145 1_545 S
N390 C391 1.397 . S
N390 C392 1.311 1_545 S
C391 H372 0.929 . S
C391 C388 1.388 . S
C391 N390 1.397 . S
C392 H373 0.978 . S
C392 C389 1.381 1_565 S
C392 N390 1.311 1_565 S
C393 H385 0.930 . S
C393 C388 1.418 . S
C393 C389 1.353 . S
C394 H364 0.930 . S
C394 N395 1.330 . S
C394 C396 1.446 . S
N395 Co354 2.151 . S
N395 C394 1.330 . S
N395 C399 1.418 . S
C396 H375 0.929 . S
C396 C394 1.446 . S
C396 C397 1.332 . S
C397 H377 0.931 . S
C397 C396 1.332 . S
C397 C398 1.267 . S
C398 H366 0.929 . S
C398 C397 1.267 . S
C398 C399 1.251 . S
C399 H369 0.929 . S
C399 N395 1.418 . S
C399 C398 1.251 . S
C400 H367 0.930 . S
C400 C402 1.406 . S
C400 C405 1.261 . S
C401 H368 0.916 1_565 S
C401 N403 1.325 . S
C401 C404 1.354 . S
C402 H370 0.928 . S
C402 C400 1.406 . S
C402 N403 1.261 . S
N403 Co354 2.214 . S
N403 C401 1.325 . S
N403 C402 1.261 . S
C404 H374 0.935 1_565 S
C404 C401 1.354 . S
C404 C405 1.311 . S
C405 H376 0.930 . S
C405 C400 1.261 . S
C405 C404 1.311 . S
C406 O378 1.214 1_545 S
C406 O386 1.234 . S
C407 H379 0.929 . S
C407 C410 1.391 . S
C407 C412 1.391 . S
C408 H380 0.929 1_565 S
C408 C409 1.390 . S
C408 N411 1.391 . S
C409 H381 0.930 1_565 S
C409 C408 1.390 . S
C409 C410 1.392 . S
C410 H382 0.929 . S
C410 C407 1.391 . S
C410 C409 1.392 . S
N411 Co355 2.257 . S
N411 C408 1.391 . S
N411 C412 1.388 . S
C412 H383 0.930 . S
C412 C407 1.391 . S
C412 N411 1.388 . S
Co413 O415 2.143 . S
Co413 O421 2.074 . S
Co413 O424 2.093 . S
Co413 O437 2.097 . S
Co413 N454 2.151 . S
Co413 N462 2.214 . S
Co414 O415 2.160 . S
Co414 O420 2.058 . S
Co414 O430 2.057 . S
Co414 O445 2.037 . S
Co414 N449 2.145 . S
Co414 N470 2.257 . S
O415 Co413 2.143 . S
O415 Co414 2.160 . S
C416 O417 1.278 . S
C416 O424 1.224 . S
O417 C416 1.278 . S
C418 O419 1.245 . S
C418 O430 1.232 . S
O419 C418 1.245 . S
O420 Co414 2.058 . S
O420 C446 1.269 . S
O421 Co413 2.074 . S
O421 C446 1.257 . S
H422 C447 0.930 . S
H423 C453 0.930 . S
O424 Co413 2.093 . S
O424 C416 1.224 . S
H425 C457 0.929 . S
H426 C459 0.930 . S
H427 C460 0.930 . S
H428 C458 0.929 . S
H429 C461 0.928 . S
O430 Co414 2.057 . S
O430 C418 1.232 . S
H431 C450 0.929 . S
H432 C451 0.929 . S
H433 C463 0.931 . S
H434 C455 0.929 . S
H435 C464 0.930 . S
H436 C456 0.931 . S
O437 Co413 2.097 . S
O437 C465 1.214 . S
H438 C466 0.929 . S
H439 C467 0.929 . S
H440 C468 0.930 . S
H441 C469 0.929 . S
H442 C471 0.930 . S
H443 C448 0.930 . S
H444 C452 0.930 . S
O445 Co414 2.037 . S
O445 C465 1.234 . S
C446 O420 1.269 . S
C446 O421 1.257 . S
C447 H422 0.930 . S
C447 C450 1.388 . S
C447 C452 1.418 . S
C448 H443 0.930 . S
C448 C451 1.404 . S
C448 C452 1.353 . S
N449 Co414 2.145 . S
N449 C450 1.397 . S
N449 C451 1.334 . S
C450 H431 0.929 . S
C450 C447 1.388 . S
C450 N449 1.397 . S
C451 H432 0.929 . S
C451 C448 1.404 . S
C451 N449 1.334 . S
C452 H444 0.930 . S
C452 C447 1.418 . S
C452 C448 1.353 . S
C453 H423 0.930 . S
C453 N454 1.330 . S
C453 C455 1.446 . S
N454 Co413 2.151 . S
N454 C453 1.330 . S
N454 C458 1.418 . S
C455 H434 0.929 . S
C455 C453 1.446 . S
C455 C456 1.332 . S
C456 H436 0.931 . S
C456 C455 1.332 . S
C456 C457 1.267 . S
C457 H425 0.929 . S
C457 C456 1.267 . S
C457 C458 1.251 . S
C458 H428 0.929 . S
C458 N454 1.418 . S
C458 C457 1.251 . S
C459 H426 0.930 . S
C459 C461 1.406 . S
C459 C464 1.261 . S
C460 H427 0.930 . S
C460 N462 1.325 . S
C460 C463 1.357 . S
C461 H429 0.928 . S
C461 C459 1.406 . S
C461 N462 1.261 . S
N462 Co413 2.214 . S
N462 C460 1.325 . S
N462 C461 1.261 . S
C463 H433 0.931 . S
C463 C460 1.357 . S
C463 C464 1.312 . S
C464 H435 0.930 . S
C464 C459 1.261 . S
C464 C463 1.312 . S
C465 O437 1.214 . S
C465 O445 1.234 . S
C466 H438 0.929 . S
C466 C469 1.391 . S
C466 C471 1.391 . S
C467 H439 0.929 . S
C467 C468 1.390 . S
C467 N470 1.391 . S
C468 H440 0.930 . S
C468 C467 1.390 . S
C468 C469 1.392 . S
C469 H441 0.929 . S
C469 C466 1.391 . S
C469 C468 1.392 . S
N470 Co414 2.257 . S
N470 C467 1.391 . S
N470 C471 1.388 . S
C471 H442 0.930 . S
C471 C466 1.391 . S
C471 N470 1.388 . S
Co472 O474 2.143 . S
Co472 O480 2.074 . S
Co472 O483 2.093 . S
Co472 O496 2.097 . S
Co472 N513 2.151 . S
Co472 N521 2.214 . S
Co473 O474 2.160 . S
Co473 O479 2.058 . S
Co473 O489 2.057 . S
Co473 O504 2.037 . S
Co473 N508 2.145 . S
Co473 N529 2.257 . S
O474 Co472 2.143 . S
O474 Co473 2.160 . S
C475 O476 1.278 . S
C475 O483 1.224 . S
O476 C475 1.278 . S
C477 O478 1.245 . S
C477 O489 1.232 . S
O478 C477 1.245 . S
O479 Co473 2.058 . S
O479 C505 1.269 . S
O480 Co472 2.074 . S
O480 C505 1.257 . S
H481 C506 0.930 . S
H482 C512 0.930 . S
O483 Co472 2.093 . S
O483 C475 1.224 . S
H484 C516 0.929 . S
H485 C518 0.930 . S
H486 C519 0.930 . S
H487 C517 0.929 . S
H488 C520 0.928 . S
O489 Co473 2.057 . S
O489 C477 1.232 . S
H490 C509 0.929 . S
H491 C510 0.929 . S
H492 C522 0.931 . S
H493 C514 0.929 . S
H494 C523 0.930 . S
H495 C515 0.931 . S
O496 Co472 2.097 . S
O496 C524 1.214 . S
H497 C525 0.929 . S
H498 C526 0.929 . S
H499 C527 0.930 . S
H500 C528 0.929 . S
H501 C530 0.930 . S
H502 C507 0.930 . S
H503 C511 0.930 . S
O504 Co473 2.037 . S
O504 C524 1.234 . S
C505 O479 1.269 . S
C505 O480 1.257 . S
C506 H481 0.930 . S
C506 C509 1.388 . S
C506 C511 1.418 . S
C507 H502 0.930 . S
C507 C510 1.404 . S
C507 C511 1.353 . S
N508 Co473 2.145 . S
N508 C509 1.397 . S
N508 C510 1.334 . S
C509 H490 0.929 . S
C509 C506 1.388 . S
C509 N508 1.397 . S
C510 H491 0.929 . S
C510 C507 1.404 . S
C510 N508 1.334 . S
C511 H503 0.930 . S
C511 C506 1.418 . S
C511 C507 1.353 . S
C512 H482 0.930 . S
C512 N513 1.330 . S
C512 C514 1.446 . S
N513 Co472 2.151 . S
N513 C512 1.330 . S
N513 C517 1.418 . S
C514 H493 0.929 . S
C514 C512 1.446 . S
C514 C515 1.332 . S
C515 H495 0.931 . S
C515 C514 1.332 . S
C515 C516 1.267 . S
C516 H484 0.929 . S
C516 C515 1.267 . S
C516 C517 1.251 . S
C517 H487 0.929 . S
C517 N513 1.418 . S
C517 C516 1.251 . S
C518 H485 0.930 . S
C518 C520 1.406 . S
C518 C523 1.261 . S
C519 H486 0.930 . S
C519 N521 1.325 . S
C519 C522 1.357 . S
C520 H488 0.928 . S
C520 C518 1.406 . S
C520 N521 1.261 . S
N521 Co472 2.214 . S
N521 C519 1.325 . S
N521 C520 1.261 . S
C522 H492 0.931 . S
C522 C519 1.357 . S
C522 C523 1.312 . S
C523 H494 0.930 . S
C523 C518 1.261 . S
C523 C522 1.312 . S
C524 O496 1.214 . S
C524 O504 1.234 . S
C525 H497 0.929 . S
C525 C528 1.391 . S
C525 C530 1.391 . S
C526 H498 0.929 . S
C526 C527 1.390 . S
C526 N529 1.391 . S
C527 H499 0.930 . S
C527 C526 1.390 . S
C527 C528 1.392 . S
C528 H500 0.929 . S
C528 C525 1.391 . S
C528 C527 1.392 . S
N529 Co473 2.257 . S
N529 C526 1.391 . S
N529 C530 1.388 . S
C530 H501 0.930 . S
C530 C525 1.391 . S
C530 N529 1.388 . S
Co531 O533 2.143 . S
Co531 O539 2.074 . S
Co531 O542 2.093 . S
Co531 O555 2.097 . S
Co531 N572 2.151 . S
Co531 N580 2.214 . S
Co532 O533 2.160 . S
Co532 O538 2.058 . S
Co532 O548 2.057 1_554 S
Co532 O563 2.037 . S
Co532 N567 2.145 1_554 S
Co532 N588 2.257 . S
O533 Co531 2.143 . S
O533 Co532 2.160 . S
C534 O535 1.278 . S
C534 O542 1.224 . S
O535 C534 1.278 . S
C536 O537 1.245 1_556 S
C536 O548 1.232 . S
O537 C536 1.245 1_554 S
O538 Co532 2.058 . S
O538 C564 1.269 . S
O539 Co531 2.074 . S
O539 C564 1.257 . S
H540 C565 0.930 . S
H541 C571 0.930 . S
O542 Co531 2.093 . S
O542 C534 1.224 . S
H543 C575 0.929 . S
H544 C577 0.930 . S
H545 C578 0.930 . S
H546 C576 0.929 . S
H547 C579 0.928 . S
O548 Co532 2.057 1_556 S
O548 C536 1.232 . S
H549 C568 0.929 1_554 S
H550 C569 0.929 . S
H551 C581 0.931 . S
H552 C573 0.929 . S
H553 C582 0.930 . S
H554 C574 0.931 . S
O555 Co531 2.097 . S
O555 C583 1.214 . S
H556 C584 0.929 . S
H557 C585 0.929 . S
H558 C586 0.930 . S
H559 C587 0.929 . S
H560 C589 0.930 . S
H561 C566 0.930 . S
H562 C570 0.930 . S
O563 Co532 2.037 . S
O563 C583 1.234 . S
C564 O538 1.269 . S
C564 O539 1.257 . S
C565 H540 0.930 . S
C565 C568 1.388 . S
C565 C570 1.418 . S
C566 H561 0.930 . S
C566 C569 1.404 . S
C566 C570 1.353 . S
N567 Co532 2.145 1_556 S
N567 C568 1.397 . S
N567 C569 1.334 . S
C568 H549 0.929 1_556 S
C568 C565 1.388 . S
C568 N567 1.397 . S
C569 H550 0.929 . S
C569 C566 1.404 . S
C569 N567 1.334 . S
C570 H562 0.930 . S
C570 C565 1.418 . S
C570 C566 1.353 . S
C571 H541 0.930 . S
C571 N572 1.330 . S
C571 C573 1.446 . S
N572 Co531 2.151 . S
N572 C571 1.330 . S
N572 C576 1.418 . S
C573 H552 0.929 . S
C573 C571 1.446 . S
C573 C574 1.332 . S
C574 H554 0.931 . S
C574 C573 1.332 . S
C574 C575 1.267 . S
C575 H543 0.929 . S
C575 C574 1.267 . S
C575 C576 1.251 . S
C576 H546 0.929 . S
C576 N572 1.418 . S
C576 C575 1.251 . S
C577 H544 0.930 . S
C577 C579 1.406 . S
C577 C582 1.261 . S
C578 H545 0.930 . S
C578 N580 1.325 . S
C578 C581 1.357 . S
C579 H547 0.928 . S
C579 C577 1.406 . S
C579 N580 1.261 . S
N580 Co531 2.214 . S
N580 C578 1.325 . S
N580 C579 1.261 . S
C581 H551 0.931 . S
C581 C578 1.357 . S
C581 C582 1.312 . S
C582 H553 0.930 . S
C582 C577 1.261 . S
C582 C581 1.312 . S
C583 O555 1.214 . S
C583 O563 1.234 . S
C584 H556 0.929 . S
C584 C587 1.391 . S
C584 C589 1.391 . S
C585 H557 0.929 . S
C585 C586 1.390 . S
C585 N588 1.391 . S
C586 H558 0.930 . S
C586 C585 1.390 . S
C586 C587 1.392 . S
C587 H559 0.929 . S
C587 C584 1.391 . S
C587 C586 1.392 . S
N588 Co532 2.257 . S
N588 C585 1.391 . S
N588 C589 1.388 . S
C589 H560 0.930 . S
C589 C584 1.391 . S
C589 N588 1.388 . S
Co590 O592 2.143 . S
Co590 O598 2.074 . S
Co590 O601 2.093 . S
Co590 O614 2.097 . S
Co590 N631 2.151 . S
Co590 N639 2.214 . S
Co591 O592 2.160 . S
Co591 O597 2.058 . S
Co591 O607 2.057 1_554 S
Co591 O622 2.037 1_565 S
Co591 N626 2.145 1_564 S
Co591 N647 2.257 . S
O592 Co590 2.143 . S
O592 Co591 2.160 . S
C593 O594 1.278 . S
C593 O601 1.224 . S
O594 C593 1.278 . S
C595 O596 1.245 1_556 S
C595 O607 1.232 . S
O596 C595 1.245 1_554 S
O597 Co591 2.058 . S
O597 C623 1.269 . S
O598 Co590 2.074 . S
O598 C623 1.257 . S
H599 C624 0.930 . S
H600 C630 0.930 . S
O601 Co590 2.093 . S
O601 C593 1.224 . S
H602 C634 0.929 . S
H603 C636 0.930 . S
H604 C637 0.884 1_545 S
H605 C635 0.929 . S
H606 C638 0.928 . S
O607 Co591 2.057 1_556 S
O607 C595 1.232 . S
H608 C627 0.929 1_554 S
H609 C628 0.963 . S
H610 C640 0.931 . S
H611 C632 0.929 . S
H612 C641 0.930 . S
H613 C633 0.931 . S
O614 Co590 2.097 . S
O614 C642 1.214 1_565 S
H615 C643 0.929 . S
H616 C644 0.929 1_545 S
H617 C645 0.930 1_545 S
H618 C646 0.929 . S
H619 C648 0.930 . S
H620 C625 0.930 . S
H621 C629 0.930 . S
O622 Co591 2.037 1_545 S
O622 C642 1.234 . S
C623 O597 1.269 . S
C623 O598 1.257 . S
C624 H599 0.930 . S
C624 C627 1.388 . S
C624 C629 1.418 . S
C625 H620 0.930 . S
C625 C628 1.367 1_545 S
C625 C629 1.353 . S
N626 Co591 2.145 1_546 S
N626 C627 1.397 . S
N626 C628 1.340 1_545 S
C627 H608 0.929 1_556 S
C627 C624 1.388 . S
C627 N626 1.397 . S
C628 H609 0.963 . S
C628 C625 1.367 1_565 S
C628 N626 1.340 1_565 S
C629 H621 0.930 . S
C629 C624 1.418 . S
C629 C625 1.353 . S
C630 H600 0.930 . S
C630 N631 1.330 . S
C630 C632 1.446 . S
N631 Co590 2.151 . S
N631 C630 1.330 . S
N631 C635 1.418 . S
C632 H611 0.929 . S
C632 C630 1.446 . S
C632 C633 1.332 . S
C633 H613 0.931 . S
C633 C632 1.332 . S
C633 C634 1.267 . S
C634 H602 0.929 . S
C634 C633 1.267 . S
C634 C635 1.251 . S
C635 H605 0.929 . S
C635 N631 1.418 . S
C635 C634 1.251 . S
C636 H603 0.930 . S
C636 C638 1.406 . S
C636 C641 1.261 . S
C637 H604 0.884 1_565 S
C637 N639 1.325 . S
C637 C640 1.357 1_565 S
C638 H606 0.928 . S
C638 C636 1.406 . S
C638 N639 1.261 . S
N639 Co590 2.214 . S
N639 C637 1.325 . S
N639 C638 1.261 . S
C640 H610 0.931 . S
C640 C637 1.357 1_545 S
C640 C641 1.312 1_545 S
C641 H612 0.930 . S
C641 C636 1.261 . S
C641 C640 1.312 1_565 S
C642 O614 1.214 1_545 S
C642 O622 1.234 . S
C643 H615 0.929 . S
C643 C646 1.391 . S
C643 C648 1.391 . S
C644 H616 0.929 1_565 S
C644 C645 1.390 . S
C644 N647 1.391 . S
C645 H617 0.930 1_565 S
C645 C644 1.390 . S
C645 C646 1.392 . S
C646 H618 0.929 . S
C646 C643 1.391 . S
C646 C645 1.392 . S
N647 Co591 2.257 . S
N647 C644 1.391 . S
N647 C648 1.388 . S
C648 H619 0.930 . S
C648 C643 1.391 . S
C648 N647 1.388 . S
Co649 O651 2.143 . S
Co649 O657 2.074 . S
Co649 O660 2.093 . S
Co649 O673 2.097 . S
Co649 N690 2.151 . S
Co649 N698 2.214 . S
Co650 O651 2.160 . S
Co650 O656 2.058 . S
Co650 O666 2.057 1_554 S
Co650 O681 2.037 . S
Co650 N685 2.145 1_554 S
Co650 N706 2.257 . S
O651 Co649 2.143 . S
O651 Co650 2.160 . S
C652 O653 1.278 . S
C652 O660 1.224 . S
O653 C652 1.278 . S
C654 O655 1.245 1_556 S
C654 O666 1.232 . S
O655 C654 1.245 1_554 S
O656 Co650 2.058 . S
O656 C682 1.269 . S
O657 Co649 2.074 . S
O657 C682 1.257 . S
H658 C683 0.930 . S
H659 C689 0.930 . S
O660 Co649 2.093 . S
O660 C652 1.224 . S
H661 C693 0.929 . S
H662 C695 0.930 . S
H663 C696 0.930 . S
H664 C694 0.929 . S
H665 C697 0.928 . S
O666 Co650 2.057 1_556 S
O666 C654 1.232 . S
H667 C686 0.929 1_554 S
H668 C687 0.929 . S
H669 C699 0.931 . S
H670 C691 0.929 . S
H671 C700 0.930 . S
H672 C692 0.931 . S
O673 Co649 2.097 . S
O673 C701 1.214 . S
H674 C702 0.929 . S
H675 C703 0.929 . S
H676 C704 0.930 . S
H677 C705 0.929 . S
H678 C707 0.930 . S
H679 C684 0.930 . S
H680 C688 0.930 . S
O681 Co650 2.037 . S
O681 C701 1.234 . S
C682 O656 1.269 . S
C682 O657 1.257 . S
C683 H658 0.930 . S
C683 C686 1.388 . S
C683 C688 1.418 . S
C684 H679 0.930 . S
C684 C687 1.404 . S
C684 C688 1.353 . S
N685 Co650 2.145 1_556 S
N685 C686 1.397 . S
N685 C687 1.334 . S
C686 H667 0.929 1_556 S
C686 C683 1.388 . S
C686 N685 1.397 . S
C687 H668 0.929 . S
C687 C684 1.404 . S
C687 N685 1.334 . S
C688 H680 0.930 . S
C688 C683 1.418 . S
C688 C684 1.353 . S
C689 H659 0.930 . S
C689 N690 1.330 . S
C689 C691 1.446 . S
N690 Co649 2.151 . S
N690 C689 1.330 . S
N690 C694 1.418 . S
C691 H670 0.929 . S
C691 C689 1.446 . S
C691 C692 1.332 . S
C692 H672 0.931 . S
C692 C691 1.332 . S
C692 C693 1.267 . S
C693 H661 0.929 . S
C693 C692 1.267 . S
C693 C694 1.251 . S
C694 H664 0.929 . S
C694 N690 1.418 . S
C694 C693 1.251 . S
C695 H662 0.930 . S
C695 C697 1.406 . S
C695 C700 1.261 . S
C696 H663 0.930 . S
C696 N698 1.325 . S
C696 C699 1.357 . S
C697 H665 0.928 . S
C697 C695 1.406 . S
C697 N698 1.261 . S
N698 Co649 2.214 . S
N698 C696 1.325 . S
N698 C697 1.261 . S
C699 H669 0.931 . S
C699 C696 1.357 . S
C699 C700 1.312 . S
C700 H671 0.930 . S
C700 C695 1.261 . S
C700 C699 1.312 . S
C701 O673 1.214 . S
C701 O681 1.234 . S
C702 H674 0.929 . S
C702 C705 1.391 . S
C702 C707 1.391 . S
C703 H675 0.929 . S
C703 C704 1.390 . S
C703 N706 1.391 . S
C704 H676 0.930 . S
C704 C703 1.390 . S
C704 C705 1.392 . S
C705 H677 0.929 . S
C705 C702 1.391 . S
C705 C704 1.392 . S
N706 Co650 2.257 . S
N706 C703 1.391 . S
N706 C707 1.388 . S
C707 H678 0.930 . S
C707 C702 1.391 . S
C707 N706 1.388 . S
Co708 O710 2.143 . S
Co708 O716 2.074 . S
Co708 O719 2.093 . S
Co708 O732 2.097 . S
Co708 N749 2.151 . S
Co708 N757 2.214 . S
Co709 O710 2.160 . S
Co709 O715 2.058 . S
Co709 O725 2.057 1_556 S
Co709 O740 2.037 . S
Co709 N744 2.145 1_556 S
Co709 N765 2.257 . S
O710 Co708 2.143 . S
O710 Co709 2.160 . S
C711 O712 1.278 . S
C711 O719 1.224 . S
O712 C711 1.278 . S
C713 O714 1.245 1_554 S
C713 O725 1.232 . S
O714 C713 1.245 1_556 S
O715 Co709 2.058 . S
O715 C741 1.269 . S
O716 Co708 2.074 . S
O716 C741 1.257 . S
H717 C742 0.930 . S
H718 C748 0.930 . S
O719 Co708 2.093 . S
O719 C711 1.224 . S
H720 C752 0.929 . S
H721 C754 0.930 . S
H722 C755 0.930 . S
H723 C753 0.929 . S
H724 C756 0.928 . S
O725 Co709 2.057 1_554 S
O725 C713 1.232 . S
H726 C745 0.929 1_556 S
H727 C746 0.929 . S
H728 C758 0.931 . S
H729 C750 0.929 . S
H730 C759 0.930 . S
H731 C751 0.931 . S
O732 Co708 2.097 . S
O732 C760 1.214 . S
H733 C761 0.929 . S
H734 C762 0.929 . S
H735 C763 0.930 . S
H736 C764 0.929 . S
H737 C766 0.930 . S
H738 C743 0.930 . S
H739 C747 0.930 . S
O740 Co709 2.037 . S
O740 C760 1.234 . S
C741 O715 1.269 . S
C741 O716 1.257 . S
C742 H717 0.930 . S
C742 C745 1.388 . S
C742 C747 1.418 . S
C743 H738 0.930 . S
C743 C746 1.404 . S
C743 C747 1.353 . S
N744 Co709 2.145 1_554 S
N744 C745 1.397 . S
N744 C746 1.334 . S
C745 H726 0.929 1_554 S
C745 C742 1.388 . S
C745 N744 1.397 . S
C746 H727 0.929 . S
C746 C743 1.404 . S
C746 N744 1.334 . S
C747 H739 0.930 . S
C747 C742 1.418 . S
C747 C743 1.353 . S
C748 H718 0.930 . S
C748 N749 1.330 . S
C748 C750 1.446 . S
N749 Co708 2.151 . S
N749 C748 1.330 . S
N749 C753 1.418 . S
C750 H729 0.929 . S
C750 C748 1.446 . S
C750 C751 1.332 . S
C751 H731 0.931 . S
C751 C750 1.332 . S
C751 C752 1.267 . S
C752 H720 0.929 . S
C752 C751 1.267 . S
C752 C753 1.251 . S
C753 H723 0.929 . S
C753 N749 1.418 . S
C753 C752 1.251 . S
C754 H721 0.930 . S
C754 C756 1.406 . S
C754 C759 1.261 . S
C755 H722 0.930 . S
C755 N757 1.325 . S
C755 C758 1.357 . S
C756 H724 0.928 . S
C756 C754 1.406 . S
C756 N757 1.261 . S
N757 Co708 2.214 . S
N757 C755 1.325 . S
N757 C756 1.261 . S
C758 H728 0.931 . S
C758 C755 1.357 . S
C758 C759 1.312 . S
C759 H730 0.930 . S
C759 C754 1.261 . S
C759 C758 1.312 . S
C760 O732 1.214 . S
C760 O740 1.234 . S
C761 H733 0.929 . S
C761 C764 1.391 . S
C761 C766 1.391 . S
C762 H734 0.929 . S
C762 C763 1.390 . S
C762 N765 1.391 . S
C763 H735 0.930 . S
C763 C762 1.390 . S
C763 C764 1.392 . S
C764 H736 0.929 . S
C764 C761 1.391 . S
C764 C763 1.392 . S
N765 Co709 2.257 . S
N765 C762 1.391 . S
N765 C766 1.388 . S
C766 H737 0.930 . S
C766 C761 1.391 . S
C766 N765 1.388 . S
Co767 O769 2.143 . S
Co767 O775 2.074 . S
Co767 O778 2.093 1_556 S
Co767 O791 2.097 . S
Co767 N808 2.151 . S
Co767 N816 2.214 1_556 S
Co768 O769 2.160 . S
Co768 O774 2.058 . S
Co768 O784 2.057 . S
Co768 O799 2.037 . S
Co768 N803 2.145 . S
Co768 N824 2.257 . S
O769 Co767 2.143 . S
O769 Co768 2.160 . S
C770 O771 1.278 1_554 S
C770 O778 1.224 . S
O771 C770 1.278 1_556 S
C772 O773 1.245 . S
C772 O784 1.232 . S
O773 C772 1.245 . S
O774 Co768 2.058 . S
O774 C800 1.269 . S
O775 Co767 2.074 . S
O775 C800 1.257 . S
H776 C801 0.930 . S
H777 C807 0.930 . S
O778 Co767 2.093 1_554 S
O778 C770 1.224 . S
H779 C811 0.929 . S
H780 C813 0.930 . S
H781 C814 0.930 . S
H782 C812 0.929 . S
H783 C815 0.928 . S
O784 Co768 2.057 . S
O784 C772 1.232 . S
H785 C804 0.929 . S
H786 C805 0.929 . S
H787 C817 0.931 . S
H788 C809 0.929 . S
H789 C818 0.930 . S
H790 C810 0.931 . S
O791 Co767 2.097 . S
O791 C819 1.214 . S
H792 C820 0.929 . S
H793 C821 0.929 . S
H794 C822 0.930 . S
H795 C823 0.929 . S
H796 C825 0.930 . S
H797 C802 0.930 . S
H798 C806 0.930 . S
O799 Co768 2.037 . S
O799 C819 1.234 . S
C800 O774 1.269 . S
C800 O775 1.257 . S
C801 H776 0.930 . S
C801 C804 1.388 . S
C801 C806 1.418 . S
C802 H797 0.930 . S
C802 C805 1.404 . S
C802 C806 1.353 . S
N803 Co768 2.145 . S
N803 C804 1.397 . S
N803 C805 1.334 . S
C804 H785 0.929 . S
C804 C801 1.388 . S
C804 N803 1.397 . S
C805 H786 0.929 . S
C805 C802 1.404 . S
C805 N803 1.334 . S
C806 H798 0.930 . S
C806 C801 1.418 . S
C806 C802 1.353 . S
C807 H777 0.930 . S
C807 N808 1.330 . S
C807 C809 1.446 . S
N808 Co767 2.151 . S
N808 C807 1.330 . S
N808 C812 1.418 . S
C809 H788 0.929 . S
C809 C807 1.446 . S
C809 C810 1.332 . S
C810 H790 0.931 . S
C810 C809 1.332 . S
C810 C811 1.267 . S
C811 H779 0.929 . S
C811 C810 1.267 . S
C811 C812 1.251 . S
C812 H782 0.929 . S
C812 N808 1.418 . S
C812 C811 1.251 . S
C813 H780 0.930 . S
C813 C815 1.406 . S
C813 C818 1.261 . S
C814 H781 0.930 . S
C814 N816 1.325 . S
C814 C817 1.357 . S
C815 H783 0.928 . S
C815 C813 1.406 . S
C815 N816 1.261 . S
N816 Co767 2.214 1_554 S
N816 C814 1.325 . S
N816 C815 1.261 . S
C817 H787 0.931 . S
C817 C814 1.357 . S
C817 C818 1.312 . S
C818 H789 0.930 . S
C818 C813 1.261 . S
C818 C817 1.312 . S
C819 O791 1.214 . S
C819 O799 1.234 . S
C820 H792 0.929 . S
C820 C823 1.391 . S
C820 C825 1.391 . S
C821 H793 0.929 . S
C821 C822 1.390 . S
C821 N824 1.391 . S
C822 H794 0.930 . S
C822 C821 1.390 . S
C822 C823 1.392 . S
C823 H795 0.929 . S
C823 C820 1.391 . S
C823 C822 1.392 . S
N824 Co768 2.257 . S
N824 C821 1.391 . S
N824 C825 1.388 . S
C825 H796 0.930 . S
C825 C820 1.391 . S
C825 N824 1.388 . S
Co826 O828 2.143 . S
Co826 O834 2.074 . S
Co826 O837 2.093 . S
Co826 O850 2.097 . S
Co826 N867 2.151 . S
Co826 N875 2.214 . S
Co827 O828 2.160 . S
Co827 O833 2.058 . S
Co827 O843 2.057 1_556 S
Co827 O858 2.037 1_655 S
Co827 N862 2.145 1_656 S
Co827 N883 2.257 . S
O828 Co826 2.143 . S
O828 Co827 2.160 . S
C829 O830 1.278 . S
C829 O837 1.224 . S
O830 C829 1.278 . S
C831 O832 1.245 1_554 S
C831 O843 1.232 . S
O832 C831 1.245 1_556 S
O833 Co827 2.058 . S
O833 C859 1.269 . S
O834 Co826 2.074 . S
O834 C859 1.257 . S
H835 C860 0.930 . S
H836 C866 0.930 . S
O837 Co826 2.093 . S
O837 C829 1.224 . S
H838 C870 0.929 . S
H839 C872 0.930 . S
H840 C873 0.921 1_455 S
H841 C871 0.929 . S
H842 C874 0.928 . S
O843 Co827 2.057 1_554 S
O843 C831 1.232 . S
H844 C863 0.929 1_556 S
H845 C864 0.984 . S
H846 C876 0.913 1_455 S
H847 C868 0.929 . S
H848 C877 0.930 . S
H849 C869 0.931 . S
O850 Co826 2.097 . S
O850 C878 1.214 1_655 S
H851 C879 0.929 . S
H852 C880 0.929 1_455 S
H853 C881 0.930 1_455 S
H854 C882 0.929 . S
H855 C884 0.930 . S
H856 C861 0.930 . S
H857 C865 0.930 . S
O858 Co827 2.037 1_455 S
O858 C878 1.234 . S
C859 O833 1.269 . S
C859 O834 1.257 . S
C860 H835 0.930 . S
C860 C863 1.388 . S
C860 C865 1.418 . S
C861 H856 0.930 . S
C861 C864 1.379 1_455 S
C861 C865 1.353 . S
N862 Co827 2.145 1_454 S
N862 C863 1.397 . S
N862 C864 1.308 1_455 S
C863 H844 0.929 1_554 S
C863 C860 1.388 . S
C863 N862 1.397 . S
C864 H845 0.984 . S
C864 C861 1.379 1_655 S
C864 N862 1.308 1_655 S
C865 H857 0.930 . S
C865 C860 1.418 . S
C865 C861 1.353 . S
C866 H836 0.930 . S
C866 N867 1.330 . S
C866 C868 1.446 . S
N867 Co826 2.151 . S
N867 C866 1.330 . S
N867 C871 1.418 . S
C868 H847 0.929 . S
C868 C866 1.446 . S
C868 C869 1.332 . S
C869 H849 0.931 . S
C869 C868 1.332 . S
C869 C870 1.267 . S
C870 H838 0.929 . S
C870 C869 1.267 . S
C870 C871 1.251 . S
C871 H841 0.929 . S
C871 N867 1.418 . S
C871 C870 1.251 . S
C872 H839 0.930 . S
C872 C874 1.406 . S
C872 C877 1.261 . S
C873 H840 0.921 1_655 S
C873 N875 1.325 . S
C873 C876 1.370 . S
C874 H842 0.928 . S
C874 C872 1.406 . S
C874 N875 1.261 . S
N875 Co826 2.214 . S
N875 C873 1.325 . S
N875 C874 1.261 . S
C876 H846 0.913 1_655 S
C876 C873 1.370 . S
C876 C877 1.318 . S
C877 H848 0.930 . S
C877 C872 1.261 . S
C877 C876 1.318 . S
C878 O850 1.214 1_455 S
C878 O858 1.234 . S
C879 H851 0.929 . S
C879 C882 1.391 . S
C879 C884 1.391 . S
C880 H852 0.929 1_655 S
C880 C881 1.390 . S
C880 N883 1.391 . S
C881 H853 0.930 1_655 S
C881 C880 1.390 . S
C881 C882 1.392 . S
C882 H854 0.929 . S
C882 C879 1.391 . S
C882 C881 1.392 . S
N883 Co827 2.257 . S
N883 C880 1.391 . S
N883 C884 1.388 . S
C884 H855 0.930 . S
C884 C879 1.391 . S
C884 N883 1.388 . S
Co885 O887 2.143 . S
Co885 O893 2.074 . S
Co885 O896 2.093 . S
Co885 O909 2.097 . S
Co885 N926 2.151 . S
Co885 N934 2.214 . S
Co886 O887 2.160 . S
Co886 O892 2.058 . S
Co886 O902 2.057 . S
Co886 O917 2.037 . S
Co886 N921 2.145 . S
Co886 N942 2.257 . S
O887 Co885 2.143 . S
O887 Co886 2.160 . S
C888 O889 1.278 . S
C888 O896 1.224 . S
O889 C888 1.278 . S
C890 O891 1.245 . S
C890 O902 1.232 . S
O891 C890 1.245 . S
O892 Co886 2.058 . S
O892 C918 1.269 . S
O893 Co885 2.074 . S
O893 C918 1.257 . S
H894 C919 0.930 . S
H895 C925 0.930 . S
O896 Co885 2.093 . S
O896 C888 1.224 . S
H897 C929 0.929 . S
H898 C931 0.930 . S
H899 C932 0.930 . S
H900 C930 0.929 . S
H901 C933 0.928 . S
O902 Co886 2.057 . S
O902 C890 1.232 . S
H903 C922 0.929 . S
H904 C923 0.929 . S
H905 C935 0.931 . S
H906 C927 0.929 . S
H907 C936 0.930 . S
H908 C928 0.931 . S
O909 Co885 2.097 . S
O909 C937 1.214 . S
H910 C938 0.929 . S
H911 C939 0.929 . S
H912 C940 0.930 . S
H913 C941 0.929 . S
H914 C943 0.930 . S
H915 C920 0.930 . S
H916 C924 0.930 . S
O917 Co886 2.037 . S
O917 C937 1.234 . S
C918 O892 1.269 . S
C918 O893 1.257 . S
C919 H894 0.930 . S
C919 C922 1.388 . S
C919 C924 1.418 . S
C920 H915 0.930 . S
C920 C923 1.404 . S
C920 C924 1.353 . S
N921 Co886 2.145 . S
N921 C922 1.397 . S
N921 C923 1.334 . S
C922 H903 0.929 . S
C922 C919 1.388 . S
C922 N921 1.397 . S
C923 H904 0.929 . S
C923 C920 1.404 . S
C923 N921 1.334 . S
C924 H916 0.930 . S
C924 C919 1.418 . S
C924 C920 1.353 . S
C925 H895 0.930 . S
C925 N926 1.330 . S
C925 C927 1.446 . S
N926 Co885 2.151 . S
N926 C925 1.330 . S
N926 C930 1.418 . S
C927 H906 0.929 . S
C927 C925 1.446 . S
C927 C928 1.332 . S
C928 H908 0.931 . S
C928 C927 1.332 . S
C928 C929 1.267 . S
C929 H897 0.929 . S
C929 C928 1.267 . S
C929 C930 1.251 . S
C930 H900 0.929 . S
C930 N926 1.418 . S
C930 C929 1.251 . S
C931 H898 0.930 . S
C931 C933 1.406 . S
C931 C936 1.261 . S
C932 H899 0.930 . S
C932 N934 1.325 . S
C932 C935 1.357 . S
C933 H901 0.928 . S
C933 C931 1.406 . S
C933 N934 1.261 . S
N934 Co885 2.214 . S
N934 C932 1.325 . S
N934 C933 1.261 . S
C935 H905 0.931 . S
C935 C932 1.357 . S
C935 C936 1.312 . S
C936 H907 0.930 . S
C936 C931 1.261 . S
C936 C935 1.312 . S
C937 O909 1.214 . S
C937 O917 1.234 . S
C938 H910 0.929 . S
C938 C941 1.391 . S
C938 C943 1.391 . S
C939 H911 0.929 . S
C939 C940 1.390 . S
C939 N942 1.391 . S
C940 H912 0.930 . S
C940 C939 1.390 . S
C940 C941 1.392 . S
C941 H913 0.929 . S
C941 C938 1.391 . S
C941 C940 1.392 . S
N942 Co886 2.257 . S
N942 C939 1.391 . S
N942 C943 1.388 . S
C943 H914 0.930 . S
C943 C938 1.391 . S
C943 N942 1.388 . S
Co944 O946 2.143 . S
Co944 O952 2.074 . S
Co944 O955 2.093 . S
Co944 O968 2.097 . S
Co944 N985 2.151 . S
Co944 N993 2.214 . S
Co945 O946 2.160 . S
Co945 O951 2.058 . S
Co945 O961 2.057 . S
Co945 O976 2.037 1_655 S
Co945 N980 2.145 1_655 S
Co945 N1001 2.257 . S
O946 Co944 2.143 . S
O946 Co945 2.160 . S
C947 O948 1.278 . S
C947 O955 1.224 . S
O948 C947 1.278 . S
C949 O950 1.245 . S
C949 O961 1.232 . S
O950 C949 1.245 . S
O951 Co945 2.058 . S
O951 C977 1.269 . S
O952 Co944 2.074 . S
O952 C977 1.257 . S
H953 C978 0.930 . S
H954 C984 0.930 . S
O955 Co944 2.093 . S
O955 C947 1.224 . S
H956 C988 0.929 . S
H957 C990 0.930 . S
H958 C991 0.911 1_455 S
H959 C989 0.929 . S
H960 C992 0.928 . S
O961 Co945 2.057 . S
O961 C949 1.232 . S
H962 C981 0.929 . S
H963 C982 0.963 . S
H964 C994 0.911 1_455 S
H965 C986 0.929 . S
H966 C995 0.930 . S
H967 C987 0.931 . S
O968 Co944 2.097 . S
O968 C996 1.214 1_655 S
H969 C997 0.929 . S
H970 C998 0.929 1_455 S
H971 C999 0.930 1_455 S
H972 C1000 0.929 . S
H973 C1002 0.930 . S
H974 C979 0.930 . S
H975 C983 0.930 . S
O976 Co945 2.037 1_455 S
O976 C996 1.234 . S
C977 O951 1.269 . S
C977 O952 1.257 . S
C978 H953 0.930 . S
C978 C981 1.388 . S
C978 C983 1.418 . S
C979 H974 0.930 . S
C979 C982 1.366 1_455 S
C979 C983 1.353 . S
N980 Co945 2.145 1_455 S
N980 C981 1.397 . S
N980 C982 1.340 1_455 S
C981 H962 0.929 . S
C981 C978 1.388 . S
C981 N980 1.397 . S
C982 H963 0.963 . S
C982 C979 1.366 1_655 S
C982 N980 1.340 1_655 S
C983 H975 0.930 . S
C983 C978 1.418 . S
C983 C979 1.353 . S
C984 H954 0.930 . S
C984 N985 1.330 . S
C984 C986 1.446 . S
N985 Co944 2.151 . S
N985 C984 1.330 . S
N985 C989 1.418 . S
C986 H965 0.929 . S
C986 C984 1.446 . S
C986 C987 1.332 . S
C987 H967 0.931 . S
C987 C986 1.332 . S
C987 C988 1.267 . S
C988 H956 0.929 . S
C988 C987 1.267 . S
C988 C989 1.251 . S
C989 H959 0.929 . S
C989 N985 1.418 . S
C989 C988 1.251 . S
C990 H957 0.930 . S
C990 C992 1.406 . S
C990 C995 1.261 . S
C991 H958 0.911 1_655 S
C991 N993 1.325 . S
C991 C994 1.356 . S
C992 H960 0.928 . S
C992 C990 1.406 . S
C992 N993 1.261 . S
N993 Co944 2.214 . S
N993 C991 1.325 . S
N993 C992 1.261 . S
C994 H964 0.911 1_655 S
C994 C991 1.356 . S
C994 C995 1.335 . S
C995 H966 0.930 . S
C995 C990 1.261 . S
C995 C994 1.335 . S
C996 O968 1.214 1_455 S
C996 O976 1.234 . S
C997 H969 0.929 . S
C997 C1000 1.391 . S
C997 C1002 1.391 . S
C998 H970 0.929 1_655 S
C998 C999 1.390 . S
C998 N1001 1.391 . S
C999 H971 0.930 1_655 S
C999 C998 1.390 . S
C999 C1000 1.392 . S
C1000 H972 0.929 . S
C1000 C997 1.391 . S
C1000 C999 1.392 . S
N1001 Co945 2.257 . S
N1001 C998 1.391 . S
N1001 C1002 1.388 . S
C1002 H973 0.930 . S
C1002 C997 1.391 . S
C1002 N1001 1.388 . S
Co1003 O1005 2.143 . S
Co1003 O1011 2.074 . S
Co1003 O1014 2.093 . S
Co1003 O1027 2.097 . S
Co1003 N1044 2.151 . S
Co1003 N1052 2.214 . S
Co1004 O1005 2.160 . S
Co1004 O1010 2.058 . S
Co1004 O1020 2.057 . S
Co1004 O1035 2.037 . S
Co1004 N1039 2.145 . S
Co1004 N1060 2.257 . S
O1005 Co1003 2.143 . S
O1005 Co1004 2.160 . S
C1006 O1007 1.278 . S
C1006 O1014 1.224 . S
O1007 C1006 1.278 . S
C1008 O1009 1.245 . S
C1008 O1020 1.232 . S
O1009 C1008 1.245 . S
O1010 Co1004 2.058 . S
O1010 C1036 1.269 . S
O1011 Co1003 2.074 . S
O1011 C1036 1.257 . S
H1012 C1037 0.930 . S
H1013 C1043 0.930 . S
O1014 Co1003 2.093 . S
O1014 C1006 1.224 . S
H1015 C1047 0.929 . S
H1016 C1049 0.930 . S
H1017 C1050 0.930 . S
H1018 C1048 0.929 . S
H1019 C1051 0.928 . S
O1020 Co1004 2.057 . S
O1020 C1008 1.232 . S
H1021 C1040 0.929 . S
H1022 C1041 0.929 . S
H1023 C1053 0.931 . S
H1024 C1045 0.929 . S
H1025 C1054 0.930 . S
H1026 C1046 0.931 . S
O1027 Co1003 2.097 . S
O1027 C1055 1.214 . S
H1028 C1056 0.929 . S
H1029 C1057 0.929 . S
H1030 C1058 0.930 . S
H1031 C1059 0.929 . S
H1032 C1061 0.930 . S
H1033 C1038 0.930 . S
H1034 C1042 0.930 . S
O1035 Co1004 2.037 . S
O1035 C1055 1.234 . S
C1036 O1010 1.269 . S
C1036 O1011 1.257 . S
C1037 H1012 0.930 . S
C1037 C1040 1.388 . S
C1037 C1042 1.418 . S
C1038 H1033 0.930 . S
C1038 C1041 1.404 . S
C1038 C1042 1.353 . S
N1039 Co1004 2.145 . S
N1039 C1040 1.397 . S
N1039 C1041 1.334 . S
C1040 H1021 0.929 . S
C1040 C1037 1.388 . S
C1040 N1039 1.397 . S
C1041 H1022 0.929 . S
C1041 C1038 1.404 . S
C1041 N1039 1.334 . S
C1042 H1034 0.930 . S
C1042 C1037 1.418 . S
C1042 C1038 1.353 . S
C1043 H1013 0.930 . S
C1043 N1044 1.330 . S
C1043 C1045 1.446 . S
N1044 Co1003 2.151 . S
N1044 C1043 1.330 . S
N1044 C1048 1.418 . S
C1045 H1024 0.929 . S
C1045 C1043 1.446 . S
C1045 C1046 1.332 . S
C1046 H1026 0.931 . S
C1046 C1045 1.332 . S
C1046 C1047 1.267 . S
C1047 H1015 0.929 . S
C1047 C1046 1.267 . S
C1047 C1048 1.251 . S
C1048 H1018 0.929 . S
C1048 N1044 1.418 . S
C1048 C1047 1.251 . S
C1049 H1016 0.930 . S
C1049 C1051 1.406 . S
C1049 C1054 1.261 . S
C1050 H1017 0.930 . S
C1050 N1052 1.325 . S
C1050 C1053 1.357 . S
C1051 H1019 0.928 . S
C1051 C1049 1.406 . S
C1051 N1052 1.261 . S
N1052 Co1003 2.214 . S
N1052 C1050 1.325 . S
N1052 C1051 1.261 . S
C1053 H1023 0.931 . S
C1053 C1050 1.357 . S
C1053 C1054 1.312 . S
C1054 H1025 0.930 . S
C1054 C1049 1.261 . S
C1054 C1053 1.312 . S
C1055 O1027 1.214 . S
C1055 O1035 1.234 . S
C1056 H1028 0.929 . S
C1056 C1059 1.391 . S
C1056 C1061 1.391 . S
C1057 H1029 0.929 . S
C1057 C1058 1.390 . S
C1057 N1060 1.391 . S
C1058 H1030 0.930 . S
C1058 C1057 1.390 . S
C1058 C1059 1.392 . S
C1059 H1031 0.929 . S
C1059 C1056 1.391 . S
C1059 C1058 1.392 . S
N1060 Co1004 2.257 . S
N1060 C1057 1.391 . S
N1060 C1061 1.388 . S
C1061 H1032 0.930 . S
C1061 C1056 1.391 . S
C1061 N1060 1.388 . S
H1062 C1068 0.930 . S
H1063 C1072 0.930 . S
H1064 C1077 0.929 . S
H1065 C1075 0.929 . S
H1066 C1070 0.929 1_556 S
H1067 C1076 0.929 1_554 S
C1068 H1062 0.930 . S
C1068 C1069 1.367 . S
C1068 C1076 1.378 . S
C1069 C1068 1.367 . S
C1069 C1077 1.433 . S
C1070 H1066 0.929 1_554 S
C1070 C1072 1.378 . S
C1070 C1074 1.350 . S
C1071 C1074 1.463 1_556 S
C1071 C1076 1.350 . S
C1071 N1079 1.427 . S
C1072 H1063 0.930 . S
C1072 C1070 1.378 . S
C1072 C1073 1.367 . S
C1073 C1072 1.367 . S
C1073 C1075 1.433 . S
C1074 C1070 1.350 . S
C1074 C1071 1.463 1_554 S
C1074 N1078 1.427 . S
C1075 H1065 0.929 . S
C1075 C1073 1.433 . S
C1075 N1078 1.384 . S
C1076 H1067 0.929 1_556 S
C1076 C1068 1.378 . S
C1076 C1071 1.350 . S
C1077 H1064 0.929 . S
C1077 C1069 1.433 . S
C1077 N1079 1.384 . S
N1078 C1074 1.427 . S
N1078 C1075 1.384 . S
N1079 C1071 1.427 . S
N1079 C1077 1.384 . S
H1080 C1086 0.930 . S
H1081 C1090 0.930 . S
H1082 C1095 0.929 . S
H1083 C1093 0.929 . S
H1084 C1088 0.929 . S
H1085 C1094 0.929 . S
C1086 H1080 0.930 . S
C1086 C1087 1.367 . S
C1086 C1094 1.378 . S
C1087 C1086 1.367 . S
C1087 C1095 1.433 . S
C1088 H1084 0.929 . S
C1088 C1090 1.378 . S
C1088 C1092 1.350 . S
C1089 C1092 1.463 1_556 S
C1089 C1094 1.350 . S
C1089 N1097 1.427 . S
C1090 H1081 0.930 . S
C1090 C1088 1.378 . S
C1090 C1091 1.367 . S
C1091 C1090 1.367 . S
C1091 C1093 1.433 . S
C1092 C1088 1.350 . S
C1092 C1089 1.463 1_554 S
C1092 N1096 1.427 . S
C1093 H1083 0.929 . S
C1093 C1091 1.433 . S
C1093 N1096 1.384 . S
C1094 H1085 0.929 . S
C1094 C1086 1.378 . S
C1094 C1089 1.350 . S
C1095 H1082 0.929 . S
C1095 C1087 1.433 . S
C1095 N1097 1.384 . S
N1096 C1092 1.427 . S
N1096 C1093 1.384 . S
N1097 C1089 1.427 . S
N1097 C1095 1.384 . S
H1098 C1104 0.930 . S
H1099 C1108 0.930 . S
H1100 C1113 0.929 . S
H1101 C1111 0.929 . S
H1102 C1106 0.929 . S
H1103 C1112 0.929 . S
C1104 H1098 0.930 . S
C1104 C1105 1.367 . S
C1104 C1112 1.378 . S
C1105 C1104 1.367 . S
C1105 C1113 1.433 . S
C1106 H1102 0.929 . S
C1106 C1108 1.378 . S
C1106 C1110 1.350 . S
C1107 C1110 1.463 1_554 S
C1107 C1112 1.350 . S
C1107 N1115 1.427 . S
C1108 H1099 0.930 . S
C1108 C1106 1.378 . S
C1108 C1109 1.367 . S
C1109 C1108 1.367 . S
C1109 C1111 1.433 . S
C1110 C1106 1.350 . S
C1110 C1107 1.463 1_556 S
C1110 N1114 1.427 . S
C1111 H1101 0.929 . S
C1111 C1109 1.433 . S
C1111 N1114 1.384 . S
C1112 H1103 0.929 . S
C1112 C1104 1.378 . S
C1112 C1107 1.350 . S
C1113 H1100 0.929 . S
C1113 C1105 1.433 . S
C1113 N1115 1.384 . S
N1114 C1110 1.427 . S
N1114 C1111 1.384 . S
N1115 C1107 1.427 . S
N1115 C1113 1.384 . S
H1116 C1122 0.930 . S
H1117 C1126 0.930 . S
H1118 C1131 0.929 . S
H1119 C1129 0.929 . S
H1120 C1124 0.929 . S
H1121 C1130 0.929 . S
C1122 H1116 0.930 . S
C1122 C1123 1.367 . S
C1122 C1130 1.378 . S
C1123 C1122 1.367 . S
C1123 C1131 1.433 . S
C1124 H1120 0.929 . S
C1124 C1126 1.378 . S
C1124 C1128 1.350 . S
C1125 C1128 1.463 . S
C1125 C1130 1.350 . S
C1125 N1133 1.427 . S
C1126 H1117 0.930 . S
C1126 C1124 1.378 . S
C1126 C1127 1.367 . S
C1127 C1126 1.367 . S
C1127 C1129 1.433 . S
C1128 C1124 1.350 . S
C1128 C1125 1.463 . S
C1128 N1132 1.427 . S
C1129 H1119 0.929 . S
C1129 C1127 1.433 . S
C1129 N1132 1.384 . S
C1130 H1121 0.929 . S
C1130 C1122 1.378 . S
C1130 C1125 1.350 . S
C1131 H1118 0.929 . S
C1131 C1123 1.433 . S
C1131 N1133 1.384 . S
N1132 C1128 1.427 . S
N1132 C1129 1.384 . S
N1133 C1125 1.427 . S
N1133 C1131 1.384 . S
H1134 C1140 0.930 . S
H1135 C1144 0.930 . S
H1136 C1149 0.929 . S
H1137 C1147 0.929 . S
H1138 C1142 0.929 . S
H1139 C1148 0.929 . S
C1140 H1134 0.930 . S
C1140 C1141 1.367 . S
C1140 C1148 1.378 . S
C1141 C1140 1.367 . S
C1141 C1149 1.433 . S
C1142 H1138 0.929 . S
C1142 C1144 1.378 . S
C1142 C1146 1.350 . S
C1143 C1146 1.463 . S
C1143 C1148 1.350 . S
C1143 N1151 1.427 . S
C1144 H1135 0.930 . S
C1144 C1142 1.378 . S
C1144 C1145 1.367 . S
C1145 C1144 1.367 . S
C1145 C1147 1.433 . S
C1146 C1142 1.350 . S
C1146 C1143 1.463 . S
C1146 N1150 1.427 . S
C1147 H1137 0.929 . S
C1147 C1145 1.433 . S
C1147 N1150 1.384 . S
C1148 H1139 0.929 . S
C1148 C1140 1.378 . S
C1148 C1143 1.350 . S
C1149 H1136 0.929 . S
C1149 C1141 1.433 . S
C1149 N1151 1.384 . S
N1150 C1146 1.427 . S
N1150 C1147 1.384 . S
N1151 C1143 1.427 . S
N1151 C1149 1.384 . S
H1152 C1158 0.930 . S
H1153 C1162 0.930 . S
H1154 C1167 0.929 . S
H1155 C1165 0.929 . S
H1156 C1160 0.929 . S
H1157 C1166 0.929 . S
C1158 H1152 0.930 . S
C1158 C1159 1.367 . S
C1158 C1166 1.378 . S
C1159 C1158 1.367 . S
C1159 C1167 1.433 . S
C1160 H1156 0.929 . S
C1160 C1162 1.378 . S
C1160 C1164 1.350 . S
C1161 C1164 1.463 . S
C1161 C1166 1.350 . S
C1161 N1169 1.427 . S
C1162 H1153 0.930 . S
C1162 C1160 1.378 . S
C1162 C1163 1.367 . S
C1163 C1162 1.367 . S
C1163 C1165 1.433 . S
C1164 C1160 1.350 . S
C1164 C1161 1.463 . S
C1164 N1168 1.427 . S
C1165 H1155 0.929 . S
C1165 C1163 1.433 . S
C1165 N1168 1.384 . S
C1166 H1157 0.929 . S
C1166 C1158 1.378 . S
C1166 C1161 1.350 . S
C1167 H1154 0.929 . S
C1167 C1159 1.433 . S
C1167 N1169 1.384 . S
N1168 C1164 1.427 . S
N1168 C1165 1.384 . S
N1169 C1161 1.427 . S
N1169 C1167 1.384 . S
H1170 C1176 0.930 . S
H1171 C1180 0.930 . S
H1172 C1185 0.929 . S
H1173 C1183 0.929 . S
H1174 C1178 0.929 . S
H1175 C1184 0.929 . S
C1176 H1170 0.930 . S
C1176 C1177 1.367 . S
C1176 C1184 1.378 . S
C1177 C1176 1.367 . S
C1177 C1185 1.433 . S
C1178 H1174 0.929 . S
C1178 C1180 1.378 . S
C1178 C1182 1.350 . S
C1179 C1182 1.463 . S
C1179 C1184 1.350 . S
C1179 N1187 1.427 . S
C1180 H1171 0.930 . S
C1180 C1178 1.378 . S
C1180 C1181 1.367 . S
C1181 C1180 1.367 . S
C1181 C1183 1.433 . S
C1182 C1178 1.350 . S
C1182 C1179 1.463 . S
C1182 N1186 1.427 . S
C1183 H1173 0.929 . S
C1183 C1181 1.433 . S
C1183 N1186 1.384 . S
C1184 H1175 0.929 . S
C1184 C1176 1.378 . S
C1184 C1179 1.350 . S
C1185 H1172 0.929 . S
C1185 C1177 1.433 . S
C1185 N1187 1.384 . S
N1186 C1182 1.427 . S
N1186 C1183 1.384 . S
N1187 C1179 1.427 . S
N1187 C1185 1.384 . S
H1188 C1194 0.930 . S
H1189 C1198 0.930 . S
H1190 C1203 0.929 . S
H1191 C1201 0.929 . S
H1192 C1196 0.929 . S
H1193 C1202 0.929 . S
C1194 H1188 0.930 . S
C1194 C1195 1.367 . S
C1194 C1202 1.378 . S
C1195 C1194 1.367 . S
C1195 C1203 1.433 . S
C1196 H1192 0.929 . S
C1196 C1198 1.378 . S
C1196 C1200 1.350 . S
C1197 C1200 1.463 . S
C1197 C1202 1.350 . S
C1197 N1205 1.427 . S
C1198 H1189 0.930 . S
C1198 C1196 1.378 . S
C1198 C1199 1.367 . S
C1199 C1198 1.367 . S
C1199 C1201 1.433 . S
C1200 C1196 1.350 . S
C1200 C1197 1.463 . S
C1200 N1204 1.427 . S
C1201 H1191 0.929 . S
C1201 C1199 1.433 . S
C1201 N1204 1.384 . S
C1202 H1193 0.929 . S
C1202 C1194 1.378 . S
C1202 C1197 1.350 . S
C1203 H1190 0.929 . S
C1203 C1195 1.433 . S
C1203 N1205 1.384 . S
N1204 C1200 1.427 . S
N1204 C1201 1.384 . S
N1205 C1197 1.427 . S
N1205 C1203 1.384 . S
H1206 C1212 0.930 . S
H1207 C1216 0.930 . S
H1208 C1221 0.929 . S
H1209 C1219 0.929 . S
H1210 C1214 0.929 . S
H1211 C1220 0.929 . S
C1212 H1206 0.930 . S
C1212 C1213 1.367 . S
C1212 C1220 1.378 . S
C1213 C1212 1.367 . S
C1213 C1221 1.433 . S
C1214 H1210 0.929 . S
C1214 C1216 1.378 . S
C1214 C1218 1.350 . S
C1215 C1218 1.463 . S
C1215 C1220 1.350 . S
C1215 N1223 1.427 . S
C1216 H1207 0.930 . S
C1216 C1214 1.378 . S
C1216 C1217 1.367 . S
C1217 C1216 1.367 . S
C1217 C1219 1.433 . S
C1218 C1214 1.350 . S
C1218 C1215 1.463 . S
C1218 N1222 1.427 . S
C1219 H1209 0.929 . S
C1219 C1217 1.433 . S
C1219 N1222 1.384 . S
C1220 H1211 0.929 . S
C1220 C1212 1.378 . S
C1220 C1215 1.350 . S
C1221 H1208 0.929 . S
C1221 C1213 1.433 . S
C1221 N1223 1.384 . S
N1222 C1218 1.427 . S
N1222 C1219 1.384 . S
N1223 C1215 1.427 . S
N1223 C1221 1.384 . S
H1224 C1230 0.930 . S
H1225 C1234 0.930 . S
H1226 C1239 0.929 . S
H1227 C1237 0.929 . S
H1228 C1232 0.929 . S
H1229 C1238 0.929 . S
C1230 H1224 0.930 . S
C1230 C1231 1.367 . S
C1230 C1238 1.378 . S
C1231 C1230 1.367 . S
C1231 C1239 1.433 . S
C1232 H1228 0.929 . S
C1232 C1234 1.378 . S
C1232 C1236 1.350 . S
C1233 C1236 1.463 . S
C1233 C1238 1.350 . S
C1233 N1241 1.427 . S
C1234 H1225 0.930 . S
C1234 C1232 1.378 . S
C1234 C1235 1.367 . S
C1235 C1234 1.367 . S
C1235 C1237 1.433 . S
C1236 C1232 1.350 . S
C1236 C1233 1.463 . S
C1236 N1240 1.427 . S
C1237 H1227 0.929 . S
C1237 C1235 1.433 . S
C1237 N1240 1.384 . S
C1238 H1229 0.929 . S
C1238 C1230 1.378 . S
C1238 C1233 1.350 . S
C1239 H1226 0.929 . S
C1239 C1231 1.433 . S
C1239 N1241 1.384 . S
N1240 C1236 1.427 . S
N1240 C1237 1.384 . S
N1241 C1233 1.427 . S
N1241 C1239 1.384 . S
H1242 C1248 0.930 . S
H1243 C1252 0.930 . S
H1244 C1257 0.929 . S
H1245 C1255 0.929 . S
H1246 C1250 0.929 . S
H1247 C1256 0.929 . S
C1248 H1242 0.930 . S
C1248 C1249 1.367 . S
C1248 C1256 1.378 . S
C1249 C1248 1.367 . S
C1249 C1257 1.433 . S
C1250 H1246 0.929 . S
C1250 C1252 1.378 . S
C1250 C1254 1.350 . S
C1251 C1254 1.463 . S
C1251 C1256 1.350 . S
C1251 N1259 1.427 . S
C1252 H1243 0.930 . S
C1252 C1250 1.378 . S
C1252 C1253 1.367 . S
C1253 C1252 1.367 . S
C1253 C1255 1.433 . S
C1254 C1250 1.350 . S
C1254 C1251 1.463 . S
C1254 N1258 1.427 . S
C1255 H1245 0.929 . S
C1255 C1253 1.433 . S
C1255 N1258 1.384 . S
C1256 H1247 0.929 . S
C1256 C1248 1.378 . S
C1256 C1251 1.350 . S
C1257 H1244 0.929 . S
C1257 C1249 1.433 . S
C1257 N1259 1.384 . S
N1258 C1254 1.427 . S
N1258 C1255 1.384 . S
N1259 C1251 1.427 . S
N1259 C1257 1.384 . S
H1260 C1266 0.930 . S
H1261 C1270 0.930 . S
H1262 C1275 0.929 . S
H1263 C1273 0.929 . S
H1264 C1268 0.929 . S
H1265 C1274 0.929 . S
C1266 H1260 0.930 . S
C1266 C1267 1.367 . S
C1266 C1274 1.378 . S
C1267 C1266 1.367 . S
C1267 C1275 1.433 . S
C1268 H1264 0.929 . S
C1268 C1270 1.378 . S
C1268 C1272 1.350 . S
C1269 C1272 1.463 . S
C1269 C1274 1.350 . S
C1269 N1277 1.427 . S
C1270 H1261 0.930 . S
C1270 C1268 1.378 . S
C1270 C1271 1.367 . S
C1271 C1270 1.367 . S
C1271 C1273 1.433 . S
C1272 C1268 1.350 . S
C1272 C1269 1.463 . S
C1272 N1276 1.427 . S
C1273 H1263 0.929 . S
C1273 C1271 1.433 . S
C1273 N1276 1.384 . S
C1274 H1265 0.929 . S
C1274 C1266 1.378 . S
C1274 C1269 1.350 . S
C1275 H1262 0.929 . S
C1275 C1267 1.433 . S
C1275 N1277 1.384 . S
N1276 C1272 1.427 . S
N1276 C1273 1.384 . S
N1277 C1269 1.427 . S
N1277 C1275 1.384 . S
H1278 C1284 0.930 . S
H1279 C1288 0.930 . S
H1280 C1293 0.929 . S
H1281 C1291 0.929 . S
H1282 C1286 0.929 . S
H1283 C1292 0.929 . S
C1284 H1278 0.930 . S
C1284 C1285 1.367 . S
C1284 C1292 1.378 . S
C1285 C1284 1.367 . S
C1285 C1293 1.433 . S
C1286 H1282 0.929 . S
C1286 C1288 1.378 . S
C1286 C1290 1.350 . S
C1287 C1290 1.463 . S
C1287 C1292 1.350 . S
C1287 N1295 1.427 . S
C1288 H1279 0.930 . S
C1288 C1286 1.378 . S
C1288 C1289 1.367 . S
C1289 C1288 1.367 . S
C1289 C1291 1.433 . S
C1290 C1286 1.350 . S
C1290 C1287 1.463 . S
C1290 N1294 1.427 . S
C1291 H1281 0.929 . S
C1291 C1289 1.433 . S
C1291 N1294 1.384 . S
C1292 H1283 0.929 . S
C1292 C1284 1.378 . S
C1292 C1287 1.350 . S
C1293 H1280 0.929 . S
C1293 C1285 1.433 . S
C1293 N1295 1.384 . S
N1294 C1290 1.427 . S
N1294 C1291 1.384 . S
N1295 C1287 1.427 . S
N1295 C1293 1.384 . S
H1296 C1302 0.930 . S
H1297 C1306 0.930 . S
H1298 C1311 0.929 . S
H1299 C1309 0.929 . S
H1300 C1304 0.929 . S
H1301 C1310 0.929 . S
C1302 H1296 0.930 . S
C1302 C1303 1.367 . S
C1302 C1310 1.378 . S
C1303 C1302 1.367 . S
C1303 C1311 1.433 . S
C1304 H1300 0.929 . S
C1304 C1306 1.378 . S
C1304 C1308 1.350 . S
C1305 C1308 1.463 . S
C1305 C1310 1.350 . S
C1305 N1313 1.427 . S
C1306 H1297 0.930 . S
C1306 C1304 1.378 . S
C1306 C1307 1.367 . S
C1307 C1306 1.367 . S
C1307 C1309 1.433 . S
C1308 C1304 1.350 . S
C1308 C1305 1.463 . S
C1308 N1312 1.427 . S
C1309 H1299 0.929 . S
C1309 C1307 1.433 . S
C1309 N1312 1.384 . S
C1310 H1301 0.929 . S
C1310 C1302 1.378 . S
C1310 C1305 1.350 . S
C1311 H1298 0.929 . S
C1311 C1303 1.433 . S
C1311 N1313 1.384 . S
N1312 C1308 1.427 . S
N1312 C1309 1.384 . S
N1313 C1305 1.427 . S
N1313 C1311 1.384 . S
H1314 C1320 0.930 . S
H1315 C1324 0.930 . S
H1316 C1329 0.929 . S
H1317 C1327 0.929 . S
H1318 C1322 0.929 . S
H1319 C1328 0.929 . S
C1320 H1314 0.930 . S
C1320 C1321 1.367 . S
C1320 C1328 1.378 . S
C1321 C1320 1.367 . S
C1321 C1329 1.433 . S
C1322 H1318 0.929 . S
C1322 C1324 1.378 . S
C1322 C1326 1.350 . S
C1323 C1326 1.463 . S
C1323 C1328 1.350 . S
C1323 N1331 1.427 . S
C1324 H1315 0.930 . S
C1324 C1322 1.378 . S
C1324 C1325 1.367 . S
C1325 C1324 1.367 . S
C1325 C1327 1.433 . S
C1326 C1322 1.350 . S
C1326 C1323 1.463 . S
C1326 N1330 1.427 . S
C1327 H1317 0.929 . S
C1327 C1325 1.433 . S
C1327 N1330 1.384 . S
C1328 H1319 0.929 . S
C1328 C1320 1.378 . S
C1328 C1323 1.350 . S
C1329 H1316 0.929 . S
C1329 C1321 1.433 . S
C1329 N1331 1.384 . S
N1330 C1326 1.427 . S
N1330 C1327 1.384 . S
N1331 C1323 1.427 . S
N1331 C1329 1.384 . S
H1332 C1338 0.930 . S
H1333 C1342 0.930 . S
H1334 C1347 0.929 . S
H1335 C1345 0.929 . S
H1336 C1340 0.929 . S
H1337 C1346 0.929 . S
C1338 H1332 0.930 . S
C1338 C1339 1.367 . S
C1338 C1346 1.378 . S
C1339 C1338 1.367 . S
C1339 C1347 1.433 . S
C1340 H1336 0.929 . S
C1340 C1342 1.378 . S
C1340 C1344 1.350 . S
C1341 C1344 1.463 . S
C1341 C1346 1.350 . S
C1341 N1349 1.427 . S
C1342 H1333 0.930 . S
C1342 C1340 1.378 . S
C1342 C1343 1.367 . S
C1343 C1342 1.367 . S
C1343 C1345 1.433 . S
C1344 C1340 1.350 . S
C1344 C1341 1.463 . S
C1344 N1348 1.427 . S
C1345 H1335 0.929 . S
C1345 C1343 1.433 . S
C1345 N1348 1.384 . S
C1346 H1337 0.929 . S
C1346 C1338 1.378 . S
C1346 C1341 1.350 . S
C1347 H1334 0.929 . S
C1347 C1339 1.433 . S
C1347 N1349 1.384 . S
N1348 C1344 1.427 . S
N1348 C1345 1.384 . S
N1349 C1341 1.427 . S
N1349 C1347 1.384 . S
H1350 C1356 0.930 . S
H1351 C1360 0.930 . S
H1352 C1365 0.929 . S
H1353 C1363 0.929 . S
H1354 C1358 0.929 . S
H1355 C1364 0.929 . S
C1356 H1350 0.930 . S
C1356 C1357 1.367 . S
C1356 C1364 1.378 . S
C1357 C1356 1.367 . S
C1357 C1365 1.433 . S
C1358 H1354 0.929 . S
C1358 C1360 1.378 . S
C1358 C1362 1.350 . S
C1359 C1362 1.463 . S
C1359 C1364 1.350 . S
C1359 N1367 1.427 . S
C1360 H1351 0.930 . S
C1360 C1358 1.378 . S
C1360 C1361 1.367 . S
C1361 C1360 1.367 . S
C1361 C1363 1.433 . S
C1362 C1358 1.350 . S
C1362 C1359 1.463 . S
C1362 N1366 1.427 . S
C1363 H1353 0.929 . S
C1363 C1361 1.433 . S
C1363 N1366 1.384 . S
C1364 H1355 0.929 . S
C1364 C1356 1.378 . S
C1364 C1359 1.350 . S
C1365 H1352 0.929 . S
C1365 C1357 1.433 . S
C1365 N1367 1.384 . S
N1366 C1362 1.427 . S
N1366 C1363 1.384 . S
N1367 C1359 1.427 . S
N1367 C1365 1.384 . S
H1368 C1374 0.930 . S
H1369 C1378 0.930 . S
H1370 C1383 0.929 . S
H1371 C1381 0.929 . S
H1372 C1376 0.929 . S
H1373 C1382 0.929 . S
C1374 H1368 0.930 . S
C1374 C1375 1.367 . S
C1374 C1382 1.378 . S
C1375 C1374 1.367 . S
C1375 C1383 1.433 . S
C1376 H1372 0.929 . S
C1376 C1378 1.378 . S
C1376 C1380 1.350 . S
C1377 C1380 1.463 . S
C1377 C1382 1.350 . S
C1377 N1385 1.427 . S
C1378 H1369 0.930 . S
C1378 C1376 1.378 . S
C1378 C1379 1.367 . S
C1379 C1378 1.367 . S
C1379 C1381 1.433 . S
C1380 C1376 1.350 . S
C1380 C1377 1.463 . S
C1380 N1384 1.427 . S
C1381 H1371 0.929 . S
C1381 C1379 1.433 . S
C1381 N1384 1.384 . S
C1382 H1373 0.929 . S
C1382 C1374 1.378 . S
C1382 C1377 1.350 . S
C1383 H1370 0.929 . S
C1383 C1375 1.433 . S
C1383 N1385 1.384 . S
N1384 C1380 1.427 . S
N1384 C1381 1.384 . S
N1385 C1377 1.427 . S
N1385 C1383 1.384 . S
H1386 C1392 0.930 . S
H1387 C1396 0.930 . S
H1388 C1401 0.929 . S
H1389 C1399 0.929 . S
H1390 C1394 0.929 . S
H1391 C1400 0.929 . S
C1392 H1386 0.930 . S
C1392 C1393 1.367 . S
C1392 C1400 1.378 . S
C1393 C1392 1.367 . S
C1393 C1401 1.433 . S
C1394 H1390 0.929 . S
C1394 C1396 1.378 . S
C1394 C1398 1.350 . S
C1395 C1398 1.463 . S
C1395 C1400 1.350 . S
C1395 N1403 1.427 . S
C1396 H1387 0.930 . S
C1396 C1394 1.378 . S
C1396 C1397 1.367 . S
C1397 C1396 1.367 . S
C1397 C1399 1.433 . S
C1398 C1394 1.350 . S
C1398 C1395 1.463 . S
C1398 N1402 1.427 . S
C1399 H1389 0.929 . S
C1399 C1397 1.433 . S
C1399 N1402 1.384 . S
C1400 H1391 0.929 . S
C1400 C1392 1.378 . S
C1400 C1395 1.350 . S
C1401 H1388 0.929 . S
C1401 C1393 1.433 . S
C1401 N1403 1.384 . S
N1402 C1398 1.427 . S
N1402 C1399 1.384 . S
N1403 C1395 1.427 . S
N1403 C1401 1.384 . S
H1404 C1410 0.930 . S
H1405 C1414 0.930 . S
H1406 C1419 0.929 . S
H1407 C1417 0.929 . S
H1408 C1412 0.929 . S
H1409 C1418 0.929 . S
C1410 H1404 0.930 . S
C1410 C1411 1.367 . S
C1410 C1418 1.378 . S
C1411 C1410 1.367 . S
C1411 C1419 1.433 . S
C1412 H1408 0.929 . S
C1412 C1414 1.378 . S
C1412 C1416 1.350 . S
C1413 C1416 1.463 . S
C1413 C1418 1.350 . S
C1413 N1421 1.427 . S
C1414 H1405 0.930 . S
C1414 C1412 1.378 . S
C1414 C1415 1.367 . S
C1415 C1414 1.367 . S
C1415 C1417 1.433 . S
C1416 C1412 1.350 . S
C1416 C1413 1.463 . S
C1416 N1420 1.427 . S
C1417 H1407 0.929 . S
C1417 C1415 1.433 . S
C1417 N1420 1.384 . S
C1418 H1409 0.929 . S
C1418 C1410 1.378 . S
C1418 C1413 1.350 . S
C1419 H1406 0.929 . S
C1419 C1411 1.433 . S
C1419 N1421 1.384 . S
N1420 C1416 1.427 . S
N1420 C1417 1.384 . S
N1421 C1413 1.427 . S
N1421 C1419 1.384 . S
H1422 C1428 0.927 . S
H1423 C1432 0.930 . S
H1424 C1437 0.929 . S
H1425 C1435 0.929 . S
H1426 C1430 0.929 . S
H1427 C1436 0.929 . S
C1428 H1422 0.927 . S
C1428 C1429 1.361 1_545 S
C1428 C1436 1.398 . S
C1429 C1428 1.361 1_565 S
C1429 C1437 1.433 . S
C1430 H1426 0.929 . S
C1430 C1432 1.378 . S
C1430 C1434 1.350 . S
C1431 C1434 1.463 . S
C1431 C1436 1.350 . S
C1431 N1439 1.434 . S
C1432 H1423 0.930 . S
C1432 C1430 1.378 . S
C1432 C1433 1.367 . S
C1433 C1432 1.367 . S
C1433 C1435 1.433 . S
C1434 C1430 1.350 . S
C1434 C1431 1.463 . S
C1434 N1438 1.427 . S
C1435 H1425 0.929 . S
C1435 C1433 1.433 . S
C1435 N1438 1.384 . S
C1436 H1427 0.929 . S
C1436 C1428 1.398 . S
C1436 C1431 1.350 . S
C1437 H1424 0.929 . S
C1437 C1429 1.433 . S
C1437 N1439 1.361 1_565 S
N1438 C1434 1.427 . S
N1438 C1435 1.384 . S
N1439 C1431 1.434 . S
N1439 C1437 1.361 1_545 S
H1440 C1446 0.930 . S
H1441 C1450 0.930 . S
H1442 C1455 0.929 . S
H1443 C1453 0.929 . S
H1444 C1448 0.929 . S
H1445 C1454 0.929 . S
C1446 H1440 0.930 . S
C1446 C1447 1.367 . S
C1446 C1454 1.378 . S
C1447 C1446 1.367 . S
C1447 C1455 1.433 . S
C1448 H1444 0.929 . S
C1448 C1450 1.378 . S
C1448 C1452 1.350 . S
C1449 C1452 1.463 . S
C1449 C1454 1.350 . S
C1449 N1457 1.427 . S
C1450 H1441 0.930 . S
C1450 C1448 1.378 . S
C1450 C1451 1.367 . S
C1451 C1450 1.367 . S
C1451 C1453 1.433 1_554 S
C1452 C1448 1.350 . S
C1452 C1449 1.463 . S
C1452 N1456 1.427 . S
C1453 H1443 0.929 . S
C1453 C1451 1.433 1_556 S
C1453 N1456 1.384 1_556 S
C1454 H1445 0.929 . S
C1454 C1446 1.378 . S
C1454 C1449 1.350 . S
C1455 H1442 0.929 . S
C1455 C1447 1.433 . S
C1455 N1457 1.384 . S
N1456 C1452 1.427 . S
N1456 C1453 1.384 1_554 S
N1457 C1449 1.427 . S
N1457 C1455 1.384 . S
H1458 C1464 0.930 . S
H1459 C1468 0.930 . S
H1460 C1473 0.929 . S
H1461 C1471 0.929 . S
H1462 C1466 0.929 . S
H1463 C1472 0.929 . S
C1464 H1458 0.930 . S
C1464 C1465 1.369 1_455 S
C1464 C1472 1.378 . S
C1465 C1464 1.369 1_655 S
C1465 C1473 1.433 1_554 S
C1466 H1462 0.929 . S
C1466 C1468 1.378 . S
C1466 C1470 1.350 . S
C1467 C1470 1.463 . S
C1467 C1472 1.350 . S
C1467 N1475 1.427 1_455 S
C1468 H1459 0.930 . S
C1468 C1466 1.378 . S
C1468 C1469 1.367 . S
C1469 C1468 1.367 . S
C1469 C1471 1.433 . S
C1470 C1466 1.350 . S
C1470 C1467 1.463 . S
C1470 N1474 1.427 . S
C1471 H1461 0.929 . S
C1471 C1469 1.433 . S
C1471 N1474 1.384 . S
C1472 H1463 0.929 . S
C1472 C1464 1.378 . S
C1472 C1467 1.350 . S
C1473 H1460 0.929 . S
C1473 C1465 1.433 1_556 S
C1473 N1475 1.384 1_556 S
N1474 C1470 1.427 . S
N1474 C1471 1.384 . S
N1475 C1467 1.427 1_655 S
N1475 C1473 1.384 1_554 S
H1476 C1482 0.930 . S
H1477 C1486 0.930 . S
H1478 C1491 0.929 . S
H1479 C1489 0.929 . S
H1480 C1484 0.929 . S
H1481 C1490 0.929 . S
C1482 H1476 0.930 . S
C1482 C1483 1.367 . S
C1482 C1490 1.378 . S
C1483 C1482 1.367 . S
C1483 C1491 1.433 1_554 S
C1484 H1480 0.929 . S
C1484 C1486 1.378 . S
C1484 C1488 1.350 . S
C1485 C1488 1.463 . S
C1485 C1490 1.350 . S
C1485 N1493 1.427 . S
C1486 H1477 0.930 . S
C1486 C1484 1.378 . S
C1486 C1487 1.367 . S
C1487 C1486 1.367 . S
C1487 C1489 1.433 . S
C1488 C1484 1.350 . S
C1488 C1485 1.463 . S
C1488 N1492 1.427 . S
C1489 H1479 0.929 . S
C1489 C1487 1.433 . S
C1489 N1492 1.384 . S
C1490 H1481 0.929 . S
C1490 C1482 1.378 . S
C1490 C1485 1.350 . S
C1491 H1478 0.929 . S
C1491 C1483 1.433 1_556 S
C1491 N1493 1.384 1_556 S
N1492 C1488 1.427 . S
N1492 C1489 1.384 . S
N1493 C1485 1.427 . S
N1493 C1491 1.384 1_554 S
H1494 C1500 0.930 . S
H1495 C1504 0.930 . S
H1496 C1509 0.929 . S
H1497 C1507 0.929 . S
H1498 C1502 0.929 . S
H1499 C1508 0.929 . S
C1500 H1494 0.930 . S
C1500 C1501 1.367 . S
C1500 C1508 1.378 . S
C1501 C1500 1.367 . S
C1501 C1509 1.433 1_655 S
C1502 H1498 0.929 . S
C1502 C1504 1.378 . S
C1502 C1506 1.350 . S
C1503 C1506 1.463 . S
C1503 C1508 1.350 1_455 S
C1503 N1511 1.427 . S
C1504 H1495 0.930 . S
C1504 C1502 1.378 . S
C1504 C1505 1.367 . S
C1505 C1504 1.367 . S
C1505 C1507 1.433 . S
C1506 C1502 1.350 . S
C1506 C1503 1.463 . S
C1506 N1510 1.427 . S
C1507 H1497 0.929 . S
C1507 C1505 1.433 . S
C1507 N1510 1.384 . S
C1508 H1499 0.929 . S
C1508 C1500 1.378 . S
C1508 C1503 1.350 1_655 S
C1509 H1496 0.929 . S
C1509 C1501 1.433 1_455 S
C1509 N1511 1.384 . S
N1510 C1506 1.427 . S
N1510 C1507 1.384 . S
N1511 C1503 1.427 . S
N1511 C1509 1.384 . S
H1512 C1518 0.930 . S
H1513 C1522 0.930 . S
H1514 C1527 0.929 . S
H1515 C1525 0.929 . S
H1516 C1520 0.929 . S
H1517 C1526 0.929 . S
C1518 H1512 0.930 . S
C1518 C1519 1.367 . S
C1518 C1526 1.378 . S
C1519 C1518 1.367 . S
C1519 C1527 1.433 . S
C1520 H1516 0.929 . S
C1520 C1522 1.378 . S
C1520 C1524 1.350 . S
C1521 C1524 1.463 . S
C1521 C1526 1.350 . S
C1521 N1529 1.427 . S
C1522 H1513 0.930 . S
C1522 C1520 1.378 . S
C1522 C1523 1.367 . S
C1523 C1522 1.367 . S
C1523 C1525 1.433 . S
C1524 C1520 1.350 . S
C1524 C1521 1.463 . S
C1524 N1528 1.427 . S
C1525 H1515 0.929 . S
C1525 C1523 1.433 . S
C1525 N1528 1.384 . S
C1526 H1517 0.929 . S
C1526 C1518 1.378 . S
C1526 C1521 1.350 . S
C1527 H1514 0.929 . S
C1527 C1519 1.433 . S
C1527 N1529 1.384 . S
N1528 C1524 1.427 . S
N1528 C1525 1.384 . S
N1529 C1521 1.427 . S
N1529 C1527 1.384 . S
H1530 C1536 0.930 . S
H1531 C1540 0.930 . S
H1532 C1545 0.929 . S
H1533 C1543 0.929 . S
H1534 C1538 0.929 . S
H1535 C1544 0.929 . S
C1536 H1530 0.930 . S
C1536 C1537 1.367 . S
C1536 C1544 1.378 . S
C1537 C1536 1.367 . S
C1537 C1545 1.433 . S
C1538 H1534 0.929 . S
C1538 C1540 1.378 . S
C1538 C1542 1.350 . S
C1539 C1542 1.463 . S
C1539 C1544 1.350 . S
C1539 N1547 1.427 . S
C1540 H1531 0.930 . S
C1540 C1538 1.378 . S
C1540 C1541 1.367 . S
C1541 C1540 1.367 . S
C1541 C1543 1.433 . S
C1542 C1538 1.350 . S
C1542 C1539 1.463 . S
C1542 N1546 1.427 . S
C1543 H1533 0.929 . S
C1543 C1541 1.433 . S
C1543 N1546 1.384 . S
C1544 H1535 0.929 . S
C1544 C1536 1.378 . S
C1544 C1539 1.350 . S
C1545 H1532 0.929 . S
C1545 C1537 1.433 . S
C1545 N1547 1.384 . S
N1546 C1542 1.427 . S
N1546 C1543 1.384 . S
N1547 C1539 1.427 . S
N1547 C1545 1.384 . S
H1548 C1554 0.930 . S
H1549 C1558 0.930 . S
H1550 C1563 0.929 . S
H1551 C1561 0.929 . S
H1552 C1556 0.929 . S
H1553 C1562 0.929 . S
C1554 H1548 0.930 . S
C1554 C1555 1.380 . S
C1554 C1562 1.378 . S
C1555 C1554 1.380 . S
C1555 C1563 1.429 1_566 S
C1556 H1552 0.929 . S
C1556 C1558 1.378 . S
C1556 C1560 1.350 . S
C1557 C1560 1.463 . S
C1557 C1562 1.350 1_545 S
C1557 N1565 1.427 . S
C1558 H1549 0.930 . S
C1558 C1556 1.378 . S
C1558 C1559 1.367 . S
C1559 C1558 1.367 . S
C1559 C1561 1.433 . S
C1560 C1556 1.350 . S
C1560 C1557 1.463 . S
C1560 N1564 1.427 . S
C1561 H1551 0.929 . S
C1561 C1559 1.433 . S
C1561 N1564 1.384 . S
C1562 H1553 0.929 . S
C1562 C1554 1.378 . S
C1562 C1557 1.350 1_565 S
C1563 H1550 0.929 . S
C1563 C1555 1.429 1_544 S
C1563 N1565 1.384 1_554 S
N1564 C1560 1.427 . S
N1564 C1561 1.384 . S
N1565 C1557 1.427 . S
N1565 C1563 1.384 1_556 S
H1566 C1572 0.930 . S
H1567 C1576 0.930 . S
H1568 C1581 0.929 . S
H1569 C1579 0.929 . S
H1570 C1574 0.929 1_554 S
H1571 C1580 0.929 . S
C1572 H1566 0.930 . S
C1572 C1573 1.367 . S
C1572 C1580 1.378 . S
C1573 C1572 1.367 . S
C1573 C1581 1.433 . S
C1574 H1570 0.929 1_556 S
C1574 C1576 1.378 1_556 S
C1574 C1578 1.350 . S
C1575 C1578 1.463 . S
C1575 C1580 1.350 . S
C1575 N1583 1.427 . S
C1576 H1567 0.930 . S
C1576 C1574 1.378 1_554 S
C1576 C1577 1.368 . S
C1577 C1576 1.368 . S
C1577 C1579 1.431 1_554 S
C1578 C1574 1.350 . S
C1578 C1575 1.463 . S
C1578 N1582 1.427 . S
C1579 H1569 0.929 . S
C1579 C1577 1.431 1_556 S
C1579 N1582 1.384 . S
C1580 H1571 0.929 . S
C1580 C1572 1.378 . S
C1580 C1575 1.350 . S
C1581 H1568 0.929 . S
C1581 C1573 1.433 . S
C1581 N1583 1.384 . S
N1582 C1578 1.427 . S
N1582 C1579 1.384 . S
N1583 C1575 1.427 . S
N1583 C1581 1.384 . S
H1584 C1590 0.930 . S
H1585 C1594 0.930 . S
H1586 C1599 0.929 . S
H1587 C1597 0.929 1_554 S
H1588 C1592 0.929 . S
H1589 C1598 0.929 . S
C1590 H1584 0.930 . S
C1590 C1591 1.367 . S
C1590 C1598 1.378 . S
C1591 C1590 1.367 . S
C1591 C1599 1.433 . S
C1592 H1588 0.929 . S
C1592 C1594 1.378 . S
C1592 C1596 1.350 . S
C1593 C1596 1.463 . S
C1593 C1598 1.350 . S
C1593 N1601 1.427 . S
C1594 H1585 0.930 . S
C1594 C1592 1.378 . S
C1594 C1595 1.367 . S
C1595 C1594 1.367 . S
C1595 C1597 1.433 . S
C1596 C1592 1.350 . S
C1596 C1593 1.463 . S
C1596 N1600 1.427 . S
C1597 H1587 0.929 1_556 S
C1597 C1595 1.433 . S
C1597 N1600 1.384 . S
C1598 H1589 0.929 . S
C1598 C1590 1.378 . S
C1598 C1593 1.350 . S
C1599 H1586 0.929 . S
C1599 C1591 1.433 . S
C1599 N1601 1.384 . S
N1600 C1596 1.427 . S
N1600 C1597 1.384 . S
N1601 C1593 1.427 . S
N1601 C1599 1.384 . S
H1602 C1608 0.930 . S
H1603 C1612 0.930 . S
H1604 C1617 0.929 . S
H1605 C1615 0.929 . S
H1606 C1610 0.929 . S
H1607 C1616 0.929 . S
C1608 H1602 0.930 . S
C1608 C1609 1.367 . S
C1608 C1616 1.378 . S
C1609 C1608 1.367 . S
C1609 C1617 1.433 . S
C1610 H1606 0.929 . S
C1610 C1612 1.378 . S
C1610 C1614 1.350 . S
C1611 C1614 1.463 . S
C1611 C1616 1.350 . S
C1611 N1619 1.427 . S
C1612 H1603 0.930 . S
C1612 C1610 1.378 . S
C1612 C1613 1.367 . S
C1613 C1612 1.367 . S
C1613 C1615 1.433 . S
C1614 C1610 1.350 . S
C1614 C1611 1.463 . S
C1614 N1618 1.427 . S
C1615 H1605 0.929 . S
C1615 C1613 1.433 . S
C1615 N1618 1.384 . S
C1616 H1607 0.929 . S
C1616 C1608 1.378 . S
C1616 C1611 1.350 . S
C1617 H1604 0.929 . S
C1617 C1609 1.433 . S
C1617 N1619 1.384 . S
N1618 C1614 1.427 . S
N1618 C1615 1.384 . S
N1619 C1611 1.427 . S
N1619 C1617 1.384 . S
H1620 C1626 0.930 . S
H1621 C1630 0.930 . S
H1622 C1635 0.929 . S
H1623 C1633 0.929 . S
H1624 C1628 0.929 . S
H1625 C1634 0.929 . S
C1626 H1620 0.930 . S
C1626 C1627 1.367 . S
C1626 C1634 1.378 . S
C1627 C1626 1.367 . S
C1627 C1635 1.433 . S
C1628 H1624 0.929 . S
C1628 C1630 1.378 . S
C1628 C1632 1.350 . S
C1629 C1632 1.463 . S
C1629 C1634 1.350 . S
C1629 N1637 1.427 . S
C1630 H1621 0.930 . S
C1630 C1628 1.378 . S
C1630 C1631 1.367 . S
C1631 C1630 1.367 . S
C1631 C1633 1.433 . S
C1632 C1628 1.350 . S
C1632 C1629 1.463 . S
C1632 N1636 1.427 . S
C1633 H1623 0.929 . S
C1633 C1631 1.433 . S
C1633 N1636 1.384 . S
C1634 H1625 0.929 . S
C1634 C1626 1.378 . S
C1634 C1629 1.350 . S
C1635 H1622 0.929 . S
C1635 C1627 1.433 . S
C1635 N1637 1.384 . S
N1636 C1632 1.427 . S
N1636 C1633 1.384 . S
N1637 C1629 1.427 . S
N1637 C1635 1.384 . S
H1638 C1644 0.930 . S
H1639 C1648 0.930 . S
H1640 C1653 0.929 . S
H1641 C1651 0.929 . S
H1642 C1646 0.929 . S
H1643 C1652 0.929 . S
C1644 H1638 0.930 . S
C1644 C1645 1.367 . S
C1644 C1652 1.378 . S
C1645 C1644 1.367 . S
C1645 C1653 1.433 . S
C1646 H1642 0.929 . S
C1646 C1648 1.378 . S
C1646 C1650 1.350 . S
C1647 C1650 1.463 . S
C1647 C1652 1.350 . S
C1647 N1655 1.427 . S
C1648 H1639 0.930 . S
C1648 C1646 1.378 . S
C1648 C1649 1.367 . S
C1649 C1648 1.367 . S
C1649 C1651 1.433 . S
C1650 C1646 1.350 . S
C1650 C1647 1.463 . S
C1650 N1654 1.427 . S
C1651 H1641 0.929 . S
C1651 C1649 1.433 . S
C1651 N1654 1.384 . S
C1652 H1643 0.929 . S
C1652 C1644 1.378 . S
C1652 C1647 1.350 . S
C1653 H1640 0.929 . S
C1653 C1645 1.433 . S
C1653 N1655 1.384 . S
N1654 C1650 1.427 . S
N1654 C1651 1.384 . S
N1655 C1647 1.427 . S
N1655 C1653 1.384 . S
H1656 C1662 0.930 . S
H1657 C1666 0.930 . S
H1658 C1671 0.929 . S
H1659 C1669 0.929 . S
H1660 C1664 0.929 . S
H1661 C1670 0.929 . S
C1662 H1656 0.930 . S
C1662 C1663 1.367 . S
C1662 C1670 1.378 . S
C1663 C1662 1.367 . S
C1663 C1671 1.433 . S
C1664 H1660 0.929 . S
C1664 C1666 1.378 . S
C1664 C1668 1.350 . S
C1665 C1668 1.463 . S
C1665 C1670 1.350 . S
C1665 N1673 1.427 . S
C1666 H1657 0.930 . S
C1666 C1664 1.378 . S
C1666 C1667 1.367 . S
C1667 C1666 1.367 . S
C1667 C1669 1.433 . S
C1668 C1664 1.350 . S
C1668 C1665 1.463 . S
C1668 N1672 1.427 . S
C1669 H1659 0.929 . S
C1669 C1667 1.433 . S
C1669 N1672 1.384 . S
C1670 H1661 0.929 . S
C1670 C1662 1.378 . S
C1670 C1665 1.350 . S
C1671 H1658 0.929 . S
C1671 C1663 1.433 . S
C1671 N1673 1.384 . S
N1672 C1668 1.427 . S
N1672 C1669 1.384 . S
N1673 C1665 1.427 . S
N1673 C1671 1.384 . S
H1674 C1680 0.930 . S
H1675 C1684 0.930 . S
H1676 C1689 0.929 . S
H1677 C1687 0.929 . S
H1678 C1682 0.929 . S
H1679 C1688 0.929 . S
C1680 H1674 0.930 . S
C1680 C1681 1.367 . S
C1680 C1688 1.378 . S
C1681 C1680 1.367 . S
C1681 C1689 1.433 . S
C1682 H1678 0.929 . S
C1682 C1684 1.378 . S
C1682 C1686 1.350 . S
C1683 C1686 1.463 . S
C1683 C1688 1.350 . S
C1683 N1691 1.427 . S
C1684 H1675 0.930 . S
C1684 C1682 1.378 . S
C1684 C1685 1.367 . S
C1685 C1684 1.367 . S
C1685 C1687 1.433 . S
C1686 C1682 1.350 . S
C1686 C1683 1.463 . S
C1686 N1690 1.427 . S
C1687 H1677 0.929 . S
C1687 C1685 1.433 . S
C1687 N1690 1.384 . S
C1688 H1679 0.929 . S
C1688 C1680 1.378 . S
C1688 C1683 1.350 . S
C1689 H1676 0.929 . S
C1689 C1681 1.433 . S
C1689 N1691 1.384 . S
N1690 C1686 1.427 . S
N1690 C1687 1.384 . S
N1691 C1683 1.427 . S
N1691 C1689 1.384 . S
H1692 C1698 0.930 . S
H1693 C1702 0.930 . S
H1694 C1707 0.929 . S
H1695 C1705 0.929 . S
H1696 C1700 0.929 . S
H1697 C1706 0.929 . S
C1698 H1692 0.930 . S
C1698 C1699 1.367 . S
C1698 C1706 1.378 . S
C1699 C1698 1.367 . S
C1699 C1707 1.433 . S
C1700 H1696 0.929 . S
C1700 C1702 1.378 . S
C1700 C1704 1.350 . S
C1701 C1704 1.463 . S
C1701 C1706 1.350 . S
C1701 N1709 1.427 . S
C1702 H1693 0.930 . S
C1702 C1700 1.378 . S
C1702 C1703 1.367 . S
C1703 C1702 1.367 . S
C1703 C1705 1.433 . S
C1704 C1700 1.350 . S
C1704 C1701 1.463 . S
C1704 N1708 1.427 . S
C1705 H1695 0.929 . S
C1705 C1703 1.433 . S
C1705 N1708 1.384 . S
C1706 H1697 0.929 . S
C1706 C1698 1.378 . S
C1706 C1701 1.350 . S
C1707 H1694 0.929 . S
C1707 C1699 1.433 . S
C1707 N1709 1.384 . S
N1708 C1704 1.427 . S
N1708 C1705 1.384 . S
N1709 C1701 1.427 . S
N1709 C1707 1.384 . S
C1069 C180 1.301 . S
C1073 C3 1.301 . S
C1087 C241 1.307 . S
C1091 C64 1.307 . S
C1105 C121 1.302 . S
C1109 C298 1.302 . S
C1123 C123 1.300 . S
C1127 C300 1.300 . S
C1141 C5 1.298 . S
C1145 C182 1.298 . S
C1159 C239 1.299 . S
C1163 C62 1.299 . S
C1177 C534 1.292 . S
C1181 C359 1.300 . S
C1195 C418 1.298 . S
C1199 C593 1.293 . S
C1213 C477 1.301 . S
C1217 C652 1.298 . S
C1231 C654 1.301 . S
C1235 C475 1.295 . S
C1249 C536 1.307 . S
C1253 C357 1.304 . S
C1267 C595 1.302 . S
C1271 C416 1.294 . S
C1285 C711 1.300 . S
C1289 C888 1.300 . S
C1303 C772 1.300 . S
C1307 C949 1.300 . S
C1321 C829 1.297 . S
C1325 C1006 1.297 . S
C1339 C1008 1.305 . S
C1343 C831 1.305 . S
C1357 C890 1.305 . S
C1361 C713 1.305 . S
C1375 C947 1.297 . S
C1379 C770 1.297 . S
C1393 C33 1.512 . S
C1397 C446 1.510 . S
C1411 C111 1.514 . S
C1415 C505 1.512 . S
C1429 C387 1.510 . S
C1433 C151 1.512 . S
C1447 C170 1.514 . S
C1451 C819 1.514 1_554 S
C1465 C859 1.510 1_554 S
C1469 C52 1.513 . S
C1483 C741 1.511 1_554 S
C1487 C92 1.508 . S
C1501 C977 1.513 . S
C1505 C210 1.509 . S
C1519 C288 1.515 . S
C1523 C1055 1.516 . S
C1537 C937 1.512 . S
C1541 C328 1.513 . S
C1555 C623 1.505 1_556 S
C1559 C347 1.511 . S
C1573 C229 1.517 . S
C1577 C682 1.517 . S
C1591 C269 1.509 . S
C1595 C564 1.513 1_556 S
C1609 C406 1.515 . S
C1613 C800 1.516 . S
C1627 C465 1.515 . S
C1631 C878 1.516 . S
C1645 C524 1.512 . S
C1649 C760 1.513 . S
C1663 C996 1.519 . S
C1667 C701 1.519 . S
C1681 C1036 1.512 . S
C1685 C583 1.515 . S
C1699 C642 1.517 . S
C1703 C918 1.515 . S
