# Generated by pormake.
# Topology vby, (6)-cn, num edge types: 1
# Building blocks:
#     Node 0, Type 0, BuildingBlock: KUMJIN_clean_sbu_1, # of connection points: 6
#     Node 1, Type 0, BuildingBlock: KUMJIN_clean_sbu_1, # of connection points: 6
#     Node 2, Type 0, BuildingBlock: KUMJIN_clean_sbu_1, # of connection points: 6
#     Node 3, Type 0, BuildingBlock: KUMJIN_clean_sbu_1, # of connection points: 6
#     Node 4, Type 0, BuildingBlock: KUMJIN_clean_sbu_1, # of connection points: 6
#     Node 5, Type 0, BuildingBlock: KUMJIN_clean_sbu_1, # of connection points: 6
#     Node 6, Type 0, BuildingBlock: KUMJIN_clean_sbu_1, # of connection points: 6
#     Node 7, Type 0, BuildingBlock: KUMJIN_clean_sbu_1, # of connection points: 6
#     Edge 8, Type (0, 0), BuildingBlock: UVAHIK_clean_linker_0, # of connection points: 2
#     Edge 9, Type (0, 0), BuildingBlock: UVAHIK_clean_linker_0, # of connection points: 2
#     Edge 10, Type (0, 0), BuildingBlock: UVAHIK_clean_linker_0, # of connection points: 2
#     Edge 11, Type (0, 0), BuildingBlock: UVAHIK_clean_linker_0, # of connection points: 2
#     Edge 12, Type (0, 0), BuildingBlock: UVAHIK_clean_linker_0, # of connection points: 2
#     Edge 13, Type (0, 0), BuildingBlock: UVAHIK_clean_linker_0, # of connection points: 2
#     Edge 14, Type (0, 0), BuildingBlock: UVAHIK_clean_linker_0, # of connection points: 2
#     Edge 15, Type (0, 0), BuildingBlock: UVAHIK_clean_linker_0, # of connection points: 2
#     Edge 16, Type (0, 0), BuildingBlock: UVAHIK_clean_linker_0, # of connection points: 2
#     Edge 17, Type (0, 0), BuildingBlock: UVAHIK_clean_linker_0, # of connection points: 2
#     Edge 18, Type (0, 0), BuildingBlock: UVAHIK_clean_linker_0, # of connection points: 2
#     Edge 19, Type (0, 0), BuildingBlock: UVAHIK_clean_linker_0, # of connection points: 2
#     Edge 20, Type (0, 0), BuildingBlock: UVAHIK_clean_linker_0, # of connection points: 2
#     Edge 21, Type (0, 0), BuildingBlock: UVAHIK_clean_linker_0, # of connection points: 2
#     Edge 22, Type (0, 0), BuildingBlock: UVAHIK_clean_linker_0, # of connection points: 2
#     Edge 23, Type (0, 0), BuildingBlock: UVAHIK_clean_linker_0, # of connection points: 2
#     Edge 24, Type (0, 0), BuildingBlock: UVAHIK_clean_linker_0, # of connection points: 2
#     Edge 25, Type (0, 0), BuildingBlock: UVAHIK_clean_linker_0, # of connection points: 2
#     Edge 26, Type (0, 0), BuildingBlock: UVAHIK_clean_linker_0, # of connection points: 2
#     Edge 27, Type (0, 0), BuildingBlock: UVAHIK_clean_linker_0, # of connection points: 2
#     Edge 28, Type (0, 0), BuildingBlock: UVAHIK_clean_linker_0, # of connection points: 2
#     Edge 29, Type (0, 0), BuildingBlock: UVAHIK_clean_linker_0, # of connection points: 2
#     Edge 30, Type (0, 0), BuildingBlock: UVAHIK_clean_linker_0, # of connection points: 2
#     Edge 31, Type (0, 0), BuildingBlock: UVAHIK_clean_linker_0, # of connection points: 2
# Relax obj value: 0.188
# Max RMSD: 0.308
# Mean RMSD: 0.214
data_MOF--net-vby--node1-KUMJIN_clean_sbu_1--edge1-UVAHIK_clean_linker_0
_symmetry_space_group_name_H-M    P1
_symmetry_Int_Tables_number       1
_symmetry_cell_setting            triclinic
loop_
_symmetry_equiv_pos_as_xyz
'x, y, z'
_cell_length_a     19.541156
_cell_length_b     116.56364
_cell_length_c     38.441796
_cell_angle_alpha  101.80303
_cell_angle_beta   94.327032
_cell_angle_gamma 89.992111
loop_
_atom_site_label
_atom_site_type_symbol
_atom_site_fract_x
_atom_site_fract_y
_atom_site_fract_z
_atom_type_partial_charge
Eu0 Eu 0.09719 0.36025 0.02041 0.0
C1 C 0.25903 0.40383 0.06729 0.0
N2 N 0.19876 0.40042 0.07823 0.0
C3 C 0.24785 0.40406 0.13872 0.0
C4 C 0.317 0.40691 0.09169 0.0
C5 C 0.19149 0.40128 0.11375 0.0
C6 C 0.3112 0.40668 0.12757 0.0
C7 C 0.32355 0.40853 0.02006 0.0
C8 C 0.26257 0.40466 0.03175 0.0
C9 C 0.38153 0.4113 0.04422 0.0
C10 C 0.37835 0.41045 0.07985 0.0
Eu11 Eu 0.10807 0.39601 0.03255 0.0
N12 N 0.20682 0.40145 0.00839 0.0
C13 C 0.32467 0.40939 0.98427 0.0
C14 C 0.20687 0.40248 0.97366 0.0
C15 C 0.26595 0.40641 0.96103 0.0
H16 H 0.14216 0.40028 0.12353 0.0
H17 H 0.26626 0.40711 0.9334 0.0
H18 H 0.9953 0.35562 0.94423 0.0
H19 H 0.06656 0.3458 0.14481 0.0
H20 H 0.16129 0.40018 0.9558 0.0
H21 H 0.37056 0.41233 0.97432 0.0
H22 H 0.12723 0.35469 0.10242 0.0
H23 H 0.24193 0.40446 0.16671 0.0
H24 H 0.42904 0.41417 0.03562 0.0
H25 H 0.42336 0.41276 0.09824 0.0
H26 H 0.88322 0.34625 0.92078 0.0
H27 H 0.35453 0.40898 0.1471 0.0
H28 H 0.9512 0.33681 0.12683 0.0
N29 N 0.98987 0.35181 0.99572 0.0
C30 C 0.95484 0.34625 0.01689 0.0
C31 C 0.90256 0.34627 0.94793 0.0
C32 C 0.89066 0.34081 0.00462 0.0
C33 C 0.9658 0.35162 0.96131 0.0
C34 C 0.86457 0.34091 0.96974 0.0
N35 N 0.04492 0.35154 0.06217 0.0
C36 C 0.076 0.35111 0.09484 0.0
C37 C 0.94692 0.34085 0.07417 0.0
C38 C 0.98268 0.3463 0.05126 0.0
C39 C 0.97714 0.34086 0.10839 0.0
C40 C 0.0422 0.34594 0.11866 0.0
H41 H 0.81546 0.33681 0.95932 0.0
H42 H 0.8051 0.33129 0.01859 0.0
H43 H 0.85431 0.33132 0.07945 0.0
O44 O 0.14352 0.34391 0.02921 0.0
O45 O 0.99374 0.36912 0.02196 0.0
O46 O 0.9978 0.3896 0.03007 0.0
O47 O 0.14767 0.34869 0.97804 0.0
O48 O 0.13144 0.37234 0.07266 0.0
O49 O 0.06736 0.3889 0.07784 0.0
O50 O 0.07303 0.40985 0.00518 0.0
O51 O 0.19027 0.38363 0.00784 0.0
O52 O 0.19441 0.3703 0.04331 0.0
O53 O 0.09062 0.41373 0.06243 0.0
O54 O 0.05962 0.38639 0.97944 0.0
O55 O 0.10431 0.36753 0.96984 0.0
C56 C 0.96476 0.37946 0.02573 0.0
C57 C 0.13137 0.32852 0.97909 0.0
C58 C 0.12624 0.30756 0.97894 0.0
C59 C 0.07271 0.3062 0.95184 0.0
C60 C 0.07872 0.32689 0.95145 0.0
C61 C 0.04958 0.3158 0.93803 0.0
C62 C 0.15572 0.31876 0.99239 0.0
C63 C 0.08849 0.37963 0.08986 0.0
C64 C 0.15708 0.34041 0.99617 0.0
C65 C 0.85462 0.33548 0.02749 0.0
C66 C 0.88262 0.33552 0.06218 0.0
C67 C 0.22567 0.37653 0.02449 0.0
C68 C 1.01173 0.42552 0.03649 0.0
C69 C 0.96628 0.44501 0.03633 0.0
C70 C 0.89982 0.44059 0.03788 0.0
C71 C 0.94532 0.42125 0.03825 0.0
C72 C 0.02203 0.43736 0.03571 0.0
C73 C 0.88961 0.42879 0.03897 0.0
C74 C 0.07633 0.37655 0.95835 0.0
C75 C 0.07106 0.41778 0.03423 0.0
H76 H 0.04934 0.29766 0.94105 0.0
H77 H 0.05945 0.3342 0.94045 0.0
H78 H 1.00861 0.31465 0.91698 0.0
H79 H 0.19606 0.31992 0.01384 0.0
H80 H 0.85592 0.44629 0.03863 0.0
H81 H 0.93663 0.41211 0.03884 0.0
H82 H 0.07346 0.44056 0.03384 0.0
H83 H 0.83832 0.42548 0.04028 0.0
Eu84 Eu 0.9684 0.65045 0.02814 0.0
C85 C 0.80057 0.60689 0.02342 0.0
N86 N 0.85671 0.61049 0.0461 0.0
C87 C 0.79855 0.60677 0.09538 0.0
C88 C 0.73978 0.60346 0.03636 0.0
C89 C 0.85742 0.61023 0.08143 0.0
C90 C 0.73933 0.60344 0.07279 0.0
C91 C 0.74513 0.60343 0.96348 0.0
C92 C 0.80357 0.60686 0.98728 0.0
C93 C 0.68391 0.60035 0.97649 0.0
C94 C 0.68135 0.6003 0.01277 0.0
Eu95 Eu 0.95526 0.61505 0.02013 0.0
N96 N 0.86372 0.60983 0.97527 0.0
C97 C 0.75029 0.60291 0.92711 0.0
C98 C 0.87026 0.60832 0.93948 0.0
C99 C 0.81342 0.60517 0.91503 0.0
H100 H 0.90348 0.61276 0.09875 0.0
H101 H 0.81875 0.60424 0.88677 0.0
H102 H 0.92507 0.65507 0.94581 0.0
H103 H 0.18801 0.66788 0.11996 0.0
H104 H 0.91935 0.60911 0.92919 0.0
H105 H 0.70656 0.60033 0.90802 0.0
H106 H 0.07272 0.65872 0.10239 0.0
H107 H 0.79881 0.60669 0.12349 0.0
H108 H 0.63852 0.59778 0.95858 0.0
H109 H 0.63394 0.59778 0.02229 0.0
H110 H 0.98076 0.66193 0.89791 0.0
H111 H 0.69359 0.60086 0.08372 0.0
H112 H 0.25499 0.6741 0.07468 0.0
N113 N 1.01451 0.65768 0.98168 0.0
C114 C 0.07904 0.66233 0.98877 0.0
C115 C 1.00919 0.662 0.92323 0.0
C116 C 0.11223 0.66664 0.96264 0.0
C117 C 0.9781 0.65799 0.9502 0.0
C118 C 0.07691 0.66619 0.92929 0.0
N119 N 0.07661 0.65939 0.04775 0.0
C120 C 0.10199 0.66143 0.08261 0.0
C121 C 0.17616 0.66867 0.03169 0.0
C122 C 0.11065 0.66335 0.02289 0.0
C123 C 0.20467 0.67009 0.06689 0.0
C124 C 0.16701 0.66659 0.09255 0.0
H125 H 0.1007 0.66939 0.90845 0.0
H126 H 0.20512 0.67483 0.95108 0.0
H127 H 0.26112 0.67658 0.0115 0.0
O128 O 0.90646 0.6609 0.06775 0.0
O129 O 0.07038 0.64135 0.0355 0.0
O130 O 0.06274 0.62114 0.01264 0.0
O131 O 0.94036 0.66838 0.02497 0.0
O132 O 0.96499 0.64412 0.08036 0.0
O133 O 1.0054 0.62496 0.0725 0.0
O134 O 0.96503 0.59661 0.99472 0.0
O135 O 0.87505 0.62818 0.04327 0.0
O136 O 0.86961 0.64076 0.00543 0.0
O137 O 0.998 0.60243 0.05038 0.0
O138 O 0.99489 0.62119 0.97297 0.0
O139 O 0.933 0.63797 0.97661 0.0
C140 C 0.09775 0.63106 0.02392 0.0
C141 C 0.83519 0.675 0.04676 0.0
C142 C 0.76671 0.69209 0.03956 0.0
C143 C 0.70753 0.68482 0.03296 0.0
C144 C 0.77537 0.66803 0.04067 0.0
C145 C 0.71195 0.67292 0.03376 0.0
C146 C 0.83061 0.68702 0.04647 0.0
C147 C 0.99146 0.63514 0.09264 0.0
C148 C 0.90305 0.66983 0.05205 0.0
C149 C 0.17861 0.67155 0.9709 0.0
C150 C 0.21047 0.67257 0.00534 0.0
C151 C 0.83848 0.63449 0.02429 0.0
C152 C 0.04945 0.58546 0.01925 0.0
C153 C 0.09122 0.56561 0.01737 0.0
C154 C 0.15702 0.56946 0.01182 0.0
C155 C 0.11525 0.58917 0.01379 0.0
C156 C 0.03763 0.57373 0.021 0.0
C157 C 0.1688 0.58117 0.0101 0.0
C158 C 0.97401 0.63022 0.95969 0.0
C159 C 0.9921 0.5936 0.02342 0.0
H160 H 0.65771 0.68826 0.02664 0.0
H161 H 0.7778 0.65881 0.04106 0.0
H162 H 0.66609 0.66744 0.02869 0.0
H163 H 0.87697 0.69239 0.05181 0.0
H164 H 0.19957 0.56347 0.00931 0.0
H165 H 0.12509 0.59821 0.01245 0.0
H166 H 0.98634 0.57091 0.02483 0.0
H167 H 0.21968 0.58405 0.00602 0.0
Eu168 Eu 0.08562 0.64862 0.55039 0.0
C169 C 0.24515 0.60476 0.48824 0.0
N170 N 0.18407 0.60803 0.47412 0.0
C171 C 0.22347 0.60371 0.41552 0.0
C172 C 0.29866 0.601 0.46613 0.0
C173 C 0.17201 0.60745 0.43843 0.0
C174 C 0.28705 0.60047 0.42941 0.0
C175 C 0.31944 0.60281 0.54027 0.0
C176 C 0.25527 0.60569 0.52513 0.0
C177 C 0.37275 0.5991 0.51825 0.0
C178 C 0.36232 0.59814 0.48133 0.0
Eu179 Eu 0.09942 0.61305 0.51421 0.0
N180 N 0.20297 0.60945 0.54611 0.0
C181 C 0.3281 0.60365 0.57716 0.0
C182 C 0.20995 0.60945 0.58171 0.0
C183 C 0.27289 0.60684 0.59787 0.0
H184 H 0.12248 0.6098 0.42769 0.0
H185 H 0.27832 0.60704 0.62622 0.0
H186 H 0.13008 0.65428 0.63825 0.0
H187 H 0.85426 0.66078 0.47856 0.0
H188 H 0.16696 0.61099 0.59778 0.0
H189 H 0.37664 0.60154 0.58977 0.0
H190 H 0.97281 0.65356 0.48535 0.0
H191 H 0.21403 0.60329 0.38717 0.0
H192 H 0.42233 0.5969 0.52953 0.0
H193 H 0.4041 0.59529 0.46477 0.0
H194 H 0.07529 0.66097 0.69473 0.0
H195 H 0.32694 0.59763 0.41159 0.0
H196 H 0.78902 0.6671 0.53177 0.0
N197 N 0.0391 0.65566 0.60563 0.0
C198 C 0.97304 0.6593 0.60425 0.0
C199 C 0.04583 0.66049 0.66946 0.0
C200 C 0.94018 0.66346 0.63569 0.0
C201 C 0.0765 0.65659 0.63751 0.0
C202 C 0.97714 0.66382 0.66856 0.0
N203 N 0.97292 0.65544 0.54147 0.0
C204 C 0.94431 0.65626 0.50858 0.0
C205 C 0.87189 0.66361 0.56869 0.0
C206 C 0.93921 0.65939 0.57123 0.0
C207 C 0.8408 0.66393 0.53486 0.0
C208 C 0.87744 0.66036 0.50473 0.0
H209 H 0.95366 0.66691 0.69335 0.0
H210 H 0.84599 0.67053 0.65719 0.0
H211 H 0.78622 0.67065 0.59854 0.0
O212 O 0.11997 0.66174 0.52155 0.0
O213 O 0.98494 0.6383 0.54258 0.0
O214 O 0.98822 0.61827 0.51794 0.0
O215 O 0.13445 0.66506 0.57882 0.0
O216 O 0.0893 0.64183 0.49056 0.0
O217 O 0.04565 0.62264 0.47461 0.0
O218 O 0.0921 0.59579 0.52761 0.0
O219 O 0.17936 0.62612 0.50415 0.0
O220 O 0.18729 0.63964 0.55623 0.0
O221 O 0.05812 0.59796 0.47462 0.0
O222 O 0.06702 0.61949 0.57023 0.0
O223 O 0.12937 0.63659 0.58521 0.0
C224 C 0.95563 0.62794 0.53054 0.0
C225 C 0.10885 0.68132 0.5528 0.0
C226 C 0.11623 0.70142 0.54373 0.0
C227 C 0.05191 0.70365 0.55764 0.0
C228 C 0.04567 0.68393 0.56742 0.0
C229 C 1.01708 0.69495 0.56947 0.0
C230 C 0.14458 0.69016 0.54123 0.0
C231 C 0.05923 0.63297 0.46736 0.0
C232 C 0.13749 0.66947 0.55051 0.0
C233 C 0.87225 0.66736 0.63332 0.0
C234 C 0.83823 0.66746 0.59991 0.0
C235 C 0.21634 0.6334 0.52912 0.0
C236 C 1.00506 0.58288 0.49674 0.0
C237 C 0.96341 0.56351 0.50149 0.0
C238 C 0.89562 0.56747 0.4982 0.0
C239 C 0.93719 0.58668 0.49374 0.0
C240 C 1.01788 0.57134 0.50073 0.0
C241 C 0.8828 0.57898 0.49441 0.0
C242 C 0.08992 0.62871 0.59391 0.0
C243 C 0.06357 0.59078 0.49655 0.0
H244 H 0.0294 0.71225 0.5604 0.0
H245 H 1.01885 0.67754 0.57791 0.0
H246 H 0.96824 0.69681 0.58082 0.0
H247 H 0.19403 0.68831 0.53047 0.0
H248 H 0.8524 0.56165 0.49815 0.0
H249 H 0.9263 0.59557 0.49093 0.0
H250 H 0.07054 0.56855 0.50379 0.0
H251 H 0.83046 0.58192 0.49192 0.0
Eu252 Eu 0.94525 0.39476 0.52682 0.0
C253 C 0.08202 0.34416 0.48769 0.0
N254 N 0.03302 0.3499 0.47121 0.0
C255 C 0.08421 0.34403 0.41573 0.0
C256 C 0.1362 0.33856 0.46896 0.0
C257 C 0.0316 0.34947 0.43545 0.0
C258 C 0.13729 0.33868 0.43266 0.0
C259 C 0.12764 0.33797 0.54125 0.0
C260 C 0.07766 0.34387 0.52342 0.0
C261 C 0.18265 0.33262 0.52292 0.0
C262 C 0.18688 0.33291 0.48687 0.0
Eu263 Eu 0.94709 0.35902 0.50671 0.0
N264 N 0.02406 0.34919 0.54055 0.0
C265 C 0.12044 0.33751 0.57689 0.0
C266 C 1.01487 0.34822 0.57464 0.0
C267 C 0.06338 0.34255 0.59352 0.0
H268 H 0.9894 0.35312 0.42187 0.0
H269 H 0.0563 0.34195 0.62075 0.0
H270 H 0.92849 0.39827 0.6165 0.0
H271 H 0.7701 0.40648 0.4233 0.0
H272 H 0.96936 0.35158 0.58704 0.0
H273 H 0.15779 0.33307 0.59153 0.0
H274 H 0.87777 0.39897 0.44825 0.0
H275 H 0.08341 0.34386 0.38745 0.0
H276 H 0.22175 0.32811 0.53626 0.0
H277 H 0.22914 0.32862 0.47298 0.0
H278 H 0.83793 0.40311 0.65757 0.0
H279 H 0.17794 0.33445 0.4173 0.0
H280 H 0.67534 0.4125 0.46202 0.0
N281 N 0.86399 0.39948 0.57017 0.0
C282 C 0.80276 0.40339 0.5579 0.0
C283 C 0.82692 0.403 0.62949 0.0
C284 C 0.75023 0.40678 0.58101 0.0
C285 C 0.87781 0.39989 0.60577 0.0
C286 C 0.76254 0.40629 0.61699 0.0
N287 N 0.84287 0.40061 0.49999 0.0
C288 C 0.83624 0.40156 0.46511 0.0
C289 C 0.73039 0.40851 0.50906 0.0
C290 C 0.79264 0.40426 0.5222 0.0
C291 C 0.7224 0.40927 0.47307 0.0
C292 C 0.77568 0.40584 0.45106 0.0
H293 H 0.7235 0.40882 0.63555 0.0
H294 H 0.64676 0.41336 0.58516 0.0
H295 H 0.62947 0.41486 0.52228 0.0
O296 O 0.97774 0.40896 0.50224 0.0
O297 O 0.85359 0.383 0.50164 0.0
O298 O 0.86092 0.36899 0.53443 0.0
O299 O 0.9713 0.41215 0.55919 0.0
O300 O 0.98359 0.38619 0.47399 0.0
O301 O 0.92445 0.36838 0.46043 0.0
O302 O 0.90963 0.34176 0.51202 0.0
O303 O 0.052 0.36753 0.50717 0.0
O304 O 0.05358 0.3878 0.52986 0.0
O305 O 0.86884 0.34957 0.46759 0.0
O306 O 0.9322 0.36897 0.56288 0.0
O307 O 0.99219 0.38653 0.57181 0.0
C308 C 0.82343 0.37578 0.51789 0.0
C309 C 0.04548 0.4245 0.53681 0.0
C310 C 0.09084 0.44409 0.53764 0.0
C311 C 0.15764 0.43996 0.54318 0.0
C312 C 0.11224 0.42052 0.54242 0.0
C313 C 0.16808 0.42826 0.54563 0.0
C314 C 0.03499 0.43624 0.53452 0.0
C315 C 0.96069 0.37671 0.45133 0.0
C316 C 0.9857 0.41658 0.53212 0.0
C317 C 0.68767 0.41079 0.56778 0.0
C318 C 0.67789 0.41169 0.53198 0.0
C319 C 0.08386 0.3777 0.51899 0.0
C320 C 0.82205 0.33038 0.47042 0.0
C321 C 0.78489 0.31051 0.47265 0.0
C322 C 0.73022 0.31134 0.4474 0.0
C323 C 0.76737 0.33093 0.44496 0.0
C324 C 0.83102 0.32007 0.48399 0.0
C325 C 0.72185 0.32146 0.43357 0.0
C326 C 0.973 0.37711 0.58283 0.0
C327 C 0.86747 0.34073 0.48364 0.0
H328 H 0.20174 0.44579 0.546 0.0
H329 H 0.12106 0.41147 0.54411 0.0
H330 H 0.21966 0.42518 0.54996 0.0
H331 H 0.98319 0.43918 0.52956 0.0
H332 H 0.69438 0.30408 0.43802 0.0
H333 H 0.75916 0.33876 0.43418 0.0
H334 H 0.87295 0.31953 0.5037 0.0
H335 H 0.6797 0.32199 0.41403 0.0
Eu336 Eu 0.59231 0.86002 0.01733 0.0
C337 C 0.75091 0.90422 0.06699 0.0
N338 N 0.68845 0.90134 0.07662 0.0
C339 C 0.72972 0.90647 0.13834 0.0
C340 C 0.80619 0.90776 0.09281 0.0
C341 C 0.67622 0.90322 0.11188 0.0
C342 C 0.79535 0.90851 0.12875 0.0
C343 C 0.8216 0.90786 0.0208 0.0
C344 C 0.75886 0.90427 0.03136 0.0
C345 C 0.87736 0.91092 0.04628 0.0
C346 C 0.86976 0.91081 0.08216 0.0
Eu347 Eu 0.60346 0.89533 0.0286 0.0
N348 N 0.70504 0.90084 0.00693 0.0
C349 C 0.8263 0.9083 0.98489 0.0
C350 C 0.70811 0.90169 0.97221 0.0
C351 C 0.76904 0.90533 0.96058 0.0
H352 H 0.62511 0.90254 0.12008 0.0
H353 H 0.77191 0.9058 0.9329 0.0
H354 H 0.51037 0.85176 0.93667 0.0
H355 H 0.53146 0.84925 0.14365 0.0
H356 H 0.66363 0.89938 0.95355 0.0
H357 H 0.87362 0.91102 0.97576 0.0
H358 H 0.60589 0.85529 0.10126 0.0
H359 H 0.71994 0.90763 0.16618 0.0
H360 H 0.9263 0.91352 0.0386 0.0
H361 H 0.91288 0.91342 0.10162 0.0
H362 H 0.40111 0.84199 0.90937 0.0
H363 H 0.83649 0.91118 0.14937 0.0
H364 H 0.41233 0.84244 0.12357 0.0
N365 N 0.48788 0.85128 0.98956 0.0
C366 C 0.44401 0.84759 0.01088 0.0
C367 C 0.41232 0.84359 0.93796 0.0
C368 C 0.38077 0.84214 0.99659 0.0
C369 C 0.47398 0.84911 0.95344 0.0
C370 C 0.36508 0.84021 0.95967 0.0
N371 N 0.52714 0.85342 0.05914 0.0
C372 C 0.55293 0.85293 0.09279 0.0
C373 C 0.42022 0.84488 0.06964 0.0
C374 C 0.46366 0.84893 0.04688 0.0
C375 C 0.44417 0.84543 0.1052 0.0
C376 C 0.51133 0.84927 0.11664 0.0
H377 H 0.31717 0.83599 0.94765 0.0
H378 H 0.28682 0.83451 0.00903 0.0
H379 H 0.32129 0.83693 0.07306 0.0
O380 O 0.6269 0.84312 0.02763 0.0
O381 O 0.49536 0.86983 0.00367 0.0
O382 O 0.50153 0.88814 0.04082 0.0
O383 O 0.65247 0.84835 0.97952 0.0
O384 O 0.627 0.87159 0.07101 0.0
O385 O 0.56502 0.88849 0.07484 0.0
O386 O 0.54521 0.9067 0.99862 0.0
O387 O 0.68776 0.8831 0.00584 0.0
O388 O 0.69047 0.86979 0.04131 0.0
O389 O 0.59647 0.91406 0.04999 0.0
O390 O 0.56283 0.88543 0.97402 0.0
O391 O 0.60848 0.86666 0.96649 0.0
C392 C 0.46591 0.87893 0.02274 0.0
C393 C 0.63323 0.828 0.97719 0.0
C394 C 0.6307 0.80688 0.97433 0.0
C395 C 0.5872 0.80541 0.94291 0.0
C396 C 0.59143 0.82629 0.94513 0.0
C397 C 0.56827 0.81506 0.92827 0.0
C398 C 0.65371 0.81821 0.99137 0.0
C399 C 0.58933 0.87977 0.08875 0.0
C400 C 0.65302 0.8399 0.99713 0.0
C401 C 0.33602 0.83858 0.01943 0.0
C402 C 0.3556 0.83999 0.0559 0.0
C403 C 0.72279 0.8763 0.02369 0.0
C404 C 0.50264 0.92445 0.03117 0.0
C405 C 0.46297 0.94461 0.0367 0.0
C406 C 0.4048 0.94148 0.05251 0.0
C407 C 0.44447 0.9215 0.0468 0.0
C408 C 0.51104 0.93586 0.02559 0.0
C409 C 0.39549 0.93 0.05716 0.0
C410 C 0.58148 0.87554 0.95381 0.0
C411 C 0.55829 0.91614 0.02291 0.0
H412 H 0.5689 0.79675 0.92937 0.0
H413 H 0.57637 0.83361 0.93313 0.0
H414 H 0.53549 0.81384 0.90377 0.0
H415 H 0.68632 0.81943 0.01599 0.0
H416 H 0.36712 0.94794 0.06209 0.0
H417 H 0.43761 0.91273 0.05146 0.0
H418 H 0.55584 0.93789 0.01286 0.0
H419 H 0.3508 0.92774 0.06953 0.0
Eu420 Eu 0.46362 0.15027 0.02406 0.0
C421 C 0.29509 0.10668 0.01763 0.0
N422 N 0.35099 0.11017 0.04061 0.0
C423 C 0.29139 0.10645 0.08945 0.0
C424 C 0.2338 0.10328 0.03018 0.0
C425 C 0.35078 0.10988 0.07591 0.0
C426 C 0.23253 0.1032 0.06653 0.0
C427 C 0.24066 0.10341 0.95749 0.0
C428 C 0.29879 0.10675 0.98158 0.0
C429 C 0.17902 0.10034 0.97011 0.0
C430 C 0.17571 0.10022 0.00629 0.0
Eu431 Eu 0.45029 0.11472 0.01515 0.0
N432 N 0.35929 0.10974 0.96993 0.0
C433 C 0.24653 0.10296 0.92121 0.0
C434 C 0.36651 0.10829 0.93421 0.0
C435 C 0.31001 0.10522 0.90949 0.0
H436 H 0.39651 0.11238 0.09353 0.0
H437 H 0.31588 0.10433 0.88129 0.0
H438 H 0.42123 0.15518 0.94204 0.0
H439 H 0.68496 0.16649 0.1163 0.0
H440 H 0.41589 0.10907 0.92421 0.0
H441 H 0.20306 0.10045 0.9019 0.0
H442 H 0.56928 0.15754 0.09831 0.0
H443 H 0.29098 0.10634 0.11751 0.0
H444 H 0.13387 0.09783 0.95197 0.0
H445 H 0.12797 0.09771 0.01552 0.0
H446 H 0.47758 0.1623 0.89472 0.0
H447 H 0.18639 0.10064 0.07715 0.0
H448 H 0.7516 0.17323 0.07178 0.0
N449 N 0.51 0.15782 0.97833 0.0
C450 C 0.57459 0.16244 0.98576 0.0
C451 C 0.5056 0.16231 0.92012 0.0
C452 C 0.60819 0.16686 0.95996 0.0
C453 C 0.47411 0.15817 0.94675 0.0
C454 C 0.57327 0.16653 0.92657 0.0
N455 N 0.57229 0.15895 0.0442 0.0
C456 C 0.5983 0.1605 0.07887 0.0
C457 C 0.67211 0.16834 0.02883 0.0
C458 C 0.60622 0.1632 0.0198 0.0
C459 C 0.701 0.16935 0.06382 0.0
C460 C 0.66356 0.16554 0.08904 0.0
H461 H 0.59741 0.16979 0.90596 0.0
H462 H 0.7016 0.17502 0.94892 0.0
H463 H 0.75755 0.1763 0.00917 0.0
O464 O 0.40382 0.16083 0.0645 0.0
O465 O 0.56619 0.14117 0.02731 0.0
O466 O 0.5603 0.12065 0.013 0.0
O467 O 0.43477 0.16814 0.02074 0.0
O468 O 0.46048 0.14367 0.07582 0.0
O469 O 0.50099 0.12451 0.06747 0.0
O470 O 0.46637 0.09661 0.98761 0.0
O471 O 0.37017 0.12786 0.03845 0.0
O472 O 0.3648 0.14065 0.00123 0.0
O473 O 0.48407 0.10143 0.04481 0.0
O474 O 0.49049 0.12116 0.96859 0.0
O475 O 0.42765 0.13784 0.97274 0.0
C476 C 0.59427 0.13075 0.02042 0.0
C477 C 0.33165 0.17499 0.04445 0.0
C478 C 0.26393 0.19228 0.03866 0.0
C479 C 0.2041 0.18518 0.03307 0.0
C480 C 0.27132 0.16816 0.03921 0.0
C481 C 0.20792 0.17324 0.03354 0.0
C482 C 0.32771 0.18703 0.0444 0.0
C483 C 0.48676 0.13463 0.08781 0.0
C484 C 0.39943 0.1697 0.04858 0.0
C485 C 0.67477 0.17166 0.9685 0.0
C486 C 0.70661 0.17241 0.00284 0.0
C487 C 0.33373 0.13429 0.01983 0.0
C488 C 0.54411 0.08518 0.01601 0.0
C489 C 0.58597 0.06543 0.01681 0.0
C490 C 0.65367 0.06999 0.0213 0.0
C491 C 0.61173 0.0895 0.02015 0.0
C492 C 0.53151 0.07319 0.01369 0.0
C493 C 0.66625 0.08189 0.02258 0.0
C494 C 0.46933 0.13025 0.95572 0.0
C495 C 0.48553 0.09307 0.01677 0.0
H496 H 0.15426 0.18879 0.02777 0.0
H497 H 0.2733 0.15891 0.03931 0.0
H498 H 0.16158 0.16789 0.02917 0.0
H499 H 0.37453 0.19229 0.04898 0.0
H500 H 0.69711 0.06445 0.02463 0.0
H501 H 0.62218 0.09874 0.0221 0.0
H502 H 0.47887 0.06999 0.00982 0.0
H503 H 0.71847 0.08526 0.02619 0.0
Eu504 Eu 0.58986 0.15092 0.54419 0.0
C505 C 0.74745 0.10654 0.49383 0.0
N506 N 0.6875 0.10952 0.47781 0.0
C507 C 0.73142 0.10414 0.42039 0.0
C508 C 0.80277 0.10246 0.47336 0.0
C509 C 0.67813 0.10824 0.44172 0.0
C510 C 0.79404 0.10126 0.43626 0.0
C511 C 0.81744 0.10548 0.54804 0.0
C512 C 0.7545 0.10806 0.53096 0.0
C513 C 0.8727 0.1015 0.52766 0.0
C514 C 0.8653 0.09995 0.49048 0.0
Eu515 Eu 0.59952 0.1152 0.51546 0.0
N516 N 0.70034 0.11205 0.55029 0.0
C517 C 0.82291 0.10686 0.58515 0.0
C518 C 0.70421 0.11259 0.58619 0.0
C519 C 0.76581 0.11028 0.60422 0.0
H520 H 0.62937 0.11032 0.42946 0.0
H521 H 0.76879 0.11091 0.63278 0.0
H522 H 0.64162 0.15833 0.63125 0.0
H523 H 0.36168 0.16414 0.4722 0.0
H524 H 0.6597 0.11435 0.60109 0.0
H525 H 0.87041 0.10499 0.59923 0.0
H526 H 0.47704 0.15564 0.4786 0.0
H527 H 0.72414 0.10318 0.39174 0.0
H528 H 0.92141 0.09954 0.54043 0.0
H529 H 0.90851 0.09688 0.4752 0.0
H530 H 0.59252 0.16724 0.68787 0.0
H531 H 0.83537 0.09815 0.41965 0.0
H532 H 0.30211 0.17263 0.52594 0.0
N533 N 0.55024 0.16009 0.59932 0.0
C534 C 0.48611 0.16458 0.59806 0.0
C535 C 0.5619 0.16648 0.66282 0.0
C536 C 0.45658 0.16997 0.62955 0.0
C537 C 0.58929 0.16134 0.63083 0.0
C538 C 0.49498 0.1707 0.66222 0.0
N539 N 0.48079 0.15897 0.53517 0.0
C540 C 0.45108 0.15933 0.50209 0.0
C541 C 0.38527 0.16914 0.56271 0.0
C542 C 0.4508 0.16418 0.56506 0.0
C543 C 0.35257 0.16893 0.52886 0.0
C544 C 0.386 0.16413 0.49844 0.0
H545 H 0.47404 0.17475 0.68703 0.0
H546 H 0.36672 0.17873 0.65132 0.0
H547 H 0.30432 0.178 0.59283 0.0
O548 O 0.64342 0.16042 0.51056 0.0
O549 O 0.48652 0.14149 0.53557 0.0
O550 O 0.48941 0.121 0.52111 0.0
O551 O 0.62477 0.16902 0.56428 0.0
O552 O 0.58684 0.14286 0.48496 0.0
O553 O 0.54769 0.12337 0.47211 0.0
O554 O 0.59217 0.09822 0.53071 0.0
O555 O 0.68014 0.12795 0.50396 0.0
O556 O 0.68863 0.14183 0.55502 0.0
O557 O 0.55654 0.09986 0.47747 0.0
O558 O 0.56449 0.12287 0.57014 0.0
O559 O 0.62817 0.13986 0.58326 0.0
C560 C 0.45698 0.13104 0.52823 0.0
C561 C 0.71959 0.17581 0.53955 0.0
C562 C 0.7874 0.19348 0.53985 0.0
C563 C 0.84659 0.18766 0.54987 0.0
C564 C 0.77898 0.1702 0.5496 0.0
C565 C 0.84227 0.1761 0.55456 0.0
C566 C 0.72396 0.18737 0.53454 0.0
C567 C 0.55935 0.13348 0.46308 0.0
C568 C 0.65214 0.16994 0.53515 0.0
C569 C 0.39042 0.17463 0.62739 0.0
C570 C 0.35489 0.17422 0.59407 0.0
C571 C 0.71787 0.13516 0.5288 0.0
C572 C 0.50362 0.08529 0.5018 0.0
C573 C 0.46072 0.06609 0.50748 0.0
C574 C 0.39343 0.07039 0.5063 0.0
C575 C 0.43626 0.08942 0.50087 0.0
C576 C 0.51561 0.07367 0.50518 0.0
C577 C 0.38147 0.08197 0.50304 0.0
C578 C 0.58687 0.13238 0.59272 0.0
C579 C 0.56249 0.09297 0.50021 0.0
H580 H 0.89613 0.19209 0.55474 0.0
H581 H 0.77619 0.16133 0.55385 0.0
H582 H 0.88804 0.17174 0.56244 0.0
H583 H 0.67773 0.19157 0.52634 0.0
H584 H 0.3499 0.06478 0.50749 0.0
H585 H 0.42609 0.09838 0.49855 0.0
H586 H 0.56795 0.07062 0.50662 0.0
H587 H 0.32951 0.08517 0.50217 0.0
Eu588 Eu 0.45044 0.89698 0.53169 0.0
C589 C 0.576 0.85039 0.44253 0.0
N590 N 0.50986 0.85399 0.44143 0.0
C591 C 0.5016 0.84889 0.37761 0.0
C592 C 0.60815 0.84611 0.41094 0.0
C593 C 0.47169 0.85291 0.40971 0.0
C594 C 0.57036 0.84559 0.3782 0.0
C595 C 0.67807 0.84626 0.47773 0.0
C596 C 0.61065 0.85046 0.47544 0.0
C597 C 0.71106 0.84232 0.44635 0.0
C598 C 0.67623 0.84226 0.41304 0.0
Eu599 Eu 0.46467 0.8613 0.49684 0.0
N600 N 0.57752 0.85448 0.50535 0.0
C601 C 0.70985 0.84604 0.51148 0.0
C602 C 0.60674 0.85372 0.53818 0.0
C603 C 0.67373 0.84965 0.54179 0.0
H604 H 0.41813 0.85525 0.40923 0.0
H605 H 0.69742 0.84929 0.5679 0.0
H606 H 0.42757 0.90054 0.61829 0.0
H607 H 0.27061 0.90212 0.41907 0.0
H608 H 0.57864 0.85645 0.56154 0.0
H609 H 0.76173 0.84289 0.51438 0.0
H610 H 0.38227 0.89841 0.44769 0.0
H611 H 0.47154 0.84829 0.35245 0.0
H612 H 0.76314 0.83915 0.44753 0.0
H613 H 0.70195 0.83901 0.38904 0.0
H614 H 0.33591 0.90714 0.65869 0.0
H615 H 0.59327 0.84241 0.3533 0.0
H616 H 0.17236 0.90775 0.45546 0.0
N617 N 0.36576 0.90207 0.5717 0.0
C618 C 0.30451 0.90522 0.55742 0.0
C619 C 0.3264 0.90659 0.63029 0.0
C620 C 0.25091 0.90901 0.57944 0.0
C621 C 0.37792 0.90281 0.60746 0.0
C622 C 0.26263 0.9097 0.61623 0.0
N623 N 0.34664 0.90031 0.49955 0.0
C624 C 0.33939 0.90005 0.4638 0.0
C625 C 0.22991 0.90683 0.50516 0.0
C626 C 0.29429 0.90411 0.52046 0.0
C627 C 0.22107 0.90578 0.46819 0.0
C628 C 0.27625 0.90251 0.44752 0.0
H629 H 0.22268 0.91257 0.63399 0.0
H630 H 0.14518 0.91457 0.58057 0.0
H631 H 0.12676 0.91264 0.51571 0.0
O632 O 0.45622 0.91419 0.51784 0.0
O633 O 0.37109 0.8839 0.5424 0.0
O634 O 0.36311 0.87026 0.49059 0.0
O635 O 0.49233 0.91218 0.5707 0.0
O636 O 0.48323 0.89038 0.47592 0.0
O637 O 0.42141 0.87323 0.46158 0.0
O638 O 0.43028 0.84846 0.52668 0.0
O639 O 0.56539 0.87159 0.50457 0.0
O640 O 0.5617 0.89176 0.52728 0.0
O641 O 0.4155 0.84478 0.4694 0.0
O642 O 0.46198 0.86841 0.55662 0.0
O643 O 0.5051 0.88765 0.57165 0.0
C644 C 0.33403 0.87657 0.51758 0.0
C645 C 0.54418 0.92711 0.54739 0.0
C646 C 0.58568 0.94639 0.54167 0.0
C647 C 0.65334 0.94226 0.54322 0.0
C648 C 0.61191 0.92315 0.5487 0.0
C649 C 0.66617 0.93073 0.5467 0.0
C650 C 0.53133 0.93869 0.54381 0.0
C651 C 0.46132 0.88101 0.45266 0.0
C652 C 0.48581 0.91928 0.54855 0.0
C653 C 0.18706 0.91171 0.56409 0.0
C654 C 0.17652 0.91058 0.5271 0.0
C655 C 0.59449 0.88202 0.51564 0.0
C656 C 0.44081 0.82875 0.49648 0.0
C657 C 0.43221 0.80869 0.50582 0.0
C658 C 0.49708 0.80641 0.49259 0.0
C659 C 0.50459 0.82608 0.4826 0.0
C660 C 0.40418 0.81996 0.50783 0.0
C661 C 0.53282 0.81505 0.481 0.0
C662 C 0.49328 0.8773 0.57917 0.0
C663 C 0.41244 0.84058 0.49811 0.0
H664 H 0.69646 0.94798 0.54214 0.0
H665 H 0.62279 0.91423 0.55115 0.0
H666 H 0.7184 0.92766 0.54785 0.0
H667 H 0.47874 0.94161 0.54207 0.0
H668 H 0.51938 0.7978 0.49019 0.0
H669 H 0.53218 0.83244 0.47234 0.0
H670 H 0.3543 0.82186 0.51803 0.0
H671 H 0.58211 0.81315 0.4702 0.0
C672 C 0.34247 0.37194 0.04959 0.0
C673 C 0.30132 0.37605 0.02332 0.0
C674 C 0.41415 0.3722 0.04961 0.0
C675 C 0.55658 0.3765 0.99251 0.0
H676 H 0.66622 0.38087 0.08271 0.0
C677 C 0.84968 0.38728 0.00959 0.0
C678 C 0.88924 0.37962 0.02637 0.0
C679 C 0.7779 0.38699 0.00914 0.0
C680 C 0.63613 0.37963 0.05734 0.0
H681 H 0.30296 0.38298 0.97531 0.0
H682 H 0.42696 0.38431 0.97668 0.0
H683 H 0.54153 0.38015 0.08196 0.0
H684 H 0.88524 0.36604 0.05718 0.0
H685 H 0.76012 0.36564 0.05682 0.0
H686 H 0.65204 0.37651 0.96832 0.0
C687 C 0.40482 0.3806 0.99694 0.0
C688 C 0.56447 0.3791 0.05677 0.0
C689 C 0.33329 0.38005 0.99646 0.0
C690 C 0.85593 0.37188 0.04347 0.0
C691 C 0.78443 0.37174 0.04358 0.0
C692 C 0.62816 0.37732 0.99322 0.0
C693 C 0.44663 0.37672 0.02361 0.0
C694 C 0.5234 0.37743 0.0243 0.0
C695 C 0.74465 0.37922 0.02618 0.0
C696 C 0.66863 0.3788 0.0256 0.0
H697 H 0.31938 0.36868 0.07049 0.0
H698 H 0.44387 0.3688 0.07006 0.0
H699 H 0.5276 0.37495 0.96684 0.0
H700 H 0.87415 0.39331 0.99618 0.0
H701 H 0.74835 0.39289 0.9957 0.0
C702 C 0.20591 0.63775 0.00309 0.0
C703 C 0.17321 0.63079 0.02286 0.0
C704 C 0.27751 0.63794 0.00293 0.0
C705 C 0.43496 0.63422 0.05582 0.0
H706 H 0.52145 0.62879 0.96657 0.0
C707 C 0.73075 0.63182 0.05356 0.0
C708 C 0.7625 0.63469 0.02486 0.0
C709 C 0.65916 0.63124 0.05325 0.0
C710 C 0.49863 0.63058 0.99186 0.0
H711 H 0.18912 0.61842 0.05758 0.0
H712 H 0.31515 0.61892 0.05799 0.0
H713 H 0.39684 0.62799 0.96605 0.0
H714 H 0.74386 0.64003 0.9743 0.0
H715 H 0.61931 0.63988 0.97471 0.0
H716 H 0.5355 0.63742 0.08192 0.0
C717 C 0.28519 0.62422 0.04256 0.0
C718 C 0.4269 0.63 0.99145 0.0
C719 C 0.2133 0.62388 0.04218 0.0
C720 C 0.72094 0.63761 0.99662 0.0
C721 C 0.64919 0.63736 0.9967 0.0
C722 C 0.5066 0.63509 0.05629 0.0
C723 C 0.31804 0.63126 0.02292 0.0
C724 C 0.3943 0.63175 0.02341 0.0
C725 C 0.61688 0.63397 0.02476 0.0
C726 C 0.53989 0.63323 0.0243 0.0
H727 H 0.17598 0.64295 0.98739 0.0
H728 H 0.30131 0.64346 0.98761 0.0
H729 H 0.41116 0.63576 0.08089 0.0
H730 H 0.76135 0.62981 0.07614 0.0
H731 H 0.63739 0.62841 0.07519 0.0
C732 C 0.83937 0.62121 0.50124 0.0
C733 C 0.88006 0.62737 0.53082 0.0
C734 C 0.76753 0.62161 0.50062 0.0
C735 C 0.62423 0.62716 0.55855 0.0
H736 H 0.52156 0.6346 0.47599 0.0
C737 C 0.33429 0.63699 0.56038 0.0
C738 C 0.29227 0.6335 0.52866 0.0
C739 C 0.40584 0.63626 0.56029 0.0
C740 C 0.54894 0.6323 0.49909 0.0
H741 H 0.87798 0.63825 0.58359 0.0
H742 H 0.75291 0.63894 0.58263 0.0
H743 H 0.64569 0.63259 0.4763 0.0
H744 H 0.29258 0.62707 0.47171 0.0
H745 H 0.41652 0.62519 0.47163 0.0
H746 H 0.52801 0.62652 0.58112 0.0
C747 C 0.77617 0.63389 0.55979 0.0
C748 C 0.62037 0.6312 0.49925 0.0
C749 C 0.84777 0.63359 0.56021 0.0
C750 C 0.32352 0.62963 0.49671 0.0
C751 C 0.39494 0.62871 0.49665 0.0
C752 C 0.55272 0.62806 0.5582 0.0
C753 C 0.73514 0.628 0.52985 0.0
C754 C 0.65891 0.6287 0.52908 0.0
C755 C 0.43737 0.63193 0.52849 0.0
C756 C 0.51386 0.63076 0.52858 0.0
H757 H 0.86307 0.61637 0.47821 0.0
H758 H 0.73727 0.6169 0.4773 0.0
H759 H 0.65242 0.62509 0.5818 0.0
H760 H 0.31187 0.64008 0.58546 0.0
H761 H 0.43631 0.63913 0.58527 0.0
C762 C 0.70677 0.37984 0.49159 0.0
C763 C 0.74741 0.37524 0.51707 0.0
C764 C 0.63535 0.38021 0.49238 0.0
C765 C 0.48819 0.36576 0.51684 0.0
H766 H 0.39719 0.39563 0.52443 0.0
C767 C 0.19713 0.36924 0.53376 0.0
C768 C 0.15961 0.37775 0.51984 0.0
C769 C 0.26875 0.36906 0.53408 0.0
C770 C 0.42118 0.38715 0.5216 0.0
H771 H 0.74446 0.36673 0.56208 0.0
H772 H 0.61895 0.36684 0.56232 0.0
H773 H 0.52158 0.39478 0.5226 0.0
H774 H 0.16709 0.39274 0.49514 0.0
H775 H 0.29175 0.39216 0.49392 0.0
H776 H 0.38864 0.35795 0.51404 0.0
C777 C 0.64294 0.3705 0.54243 0.0
C778 C 0.49273 0.38672 0.52086 0.0
C779 C 0.71466 0.3704 0.5422 0.0
C780 C 0.19502 0.38613 0.50627 0.0
C781 C 0.2667 0.38581 0.50583 0.0
C782 C 0.41654 0.36614 0.51673 0.0
C783 C 0.60274 0.37558 0.51787 0.0
C784 C 0.52691 0.37603 0.51867 0.0
C785 C 0.3049 0.37726 0.51977 0.0
C786 C 0.3817 0.37686 0.51935 0.0
H787 H 0.73021 0.38326 0.47112 0.0
H788 H 0.60549 0.38402 0.4728 0.0
H789 H 0.51331 0.35739 0.51472 0.0
H790 H 0.17114 0.36287 0.54517 0.0
H791 H 0.29557 0.36254 0.54604 0.0
C792 C 0.83109 0.8792 0.99539 0.0
C793 C 0.79877 0.87596 0.0234 0.0
C794 C 0.90268 0.87971 0.99593 0.0
C795 C 0.06308 0.88011 0.05648 0.0
H796 H 0.14742 0.87368 0.96665 0.0
C797 C 0.35678 0.88661 0.04962 0.0
C798 C 0.38969 0.87902 0.02289 0.0
C799 C 0.28499 0.8864 0.05007 0.0
C800 C 0.12528 0.87535 0.99214 0.0
H801 H 0.81644 0.87022 0.07338 0.0
H802 H 0.94152 0.8705 0.07363 0.0
H803 H 0.02409 0.87224 0.96682 0.0
H804 H 0.37205 0.86578 0.9747 0.0
H805 H 0.24877 0.86469 0.97675 0.0
H806 H 0.16489 0.88259 0.08182 0.0
C807 C 0.91172 0.87313 0.05176 0.0
C808 C 0.05375 0.87474 0.9922 0.0
C809 C 0.83983 0.87279 0.05143 0.0
C810 C 0.34889 0.87141 0.99639 0.0
C811 C 0.2775 0.87101 0.99717 0.0
C812 C 0.13488 0.88053 0.05644 0.0
C813 C 0.94439 0.87668 0.02411 0.0
C814 C 1.02127 0.87716 0.02434 0.0
C815 C 0.2441 0.87852 0.02395 0.0
C816 C 0.16725 0.87817 0.02424 0.0
H817 H 0.80092 0.88149 0.97308 0.0
H818 H 0.92507 0.88269 0.97439 0.0
H819 H 0.0405 0.88221 0.08183 0.0
H820 H 0.38649 0.89268 0.07037 0.0
H821 H 0.26169 0.89251 0.07077 0.0
C822 C 0.22629 0.13175 0.04944 0.0
C823 C 0.25792 0.13457 0.02059 0.0
C824 C 0.15472 0.13124 0.04923 0.0
C825 C 0.99688 0.14287 0.01549 0.0
H826 H 0.90947 0.11421 0.02735 0.0
C827 C 0.70178 0.13743 0.99918 0.0
C828 C 0.66971 0.13057 0.01942 0.0
C829 C 0.77328 0.13775 0.99898 0.0
C830 C 0.93268 0.12238 0.02465 0.0
H831 H 0.23923 0.13979 0.96978 0.0
H832 H 0.11376 0.13941 0.97015 0.0
H833 H 0.03427 0.11549 0.02869 0.0
H834 H 0.68668 0.11859 0.05524 0.0
H835 H 0.81186 0.11945 0.05627 0.0
H836 H 0.89653 0.15004 0.01301 0.0
C837 C 0.14466 0.13726 0.99246 0.0
C838 C 1.00438 0.12305 0.02517 0.0
C839 C 0.21636 0.1375 0.9923 0.0
C840 C 0.71036 0.1239 0.03923 0.0
C841 C 0.7822 0.12437 0.0396 0.0
C842 C 0.92532 0.1423 0.01573 0.0
C843 C 0.11315 0.13394 0.02067 0.0
C844 C 0.03714 0.13328 0.02037 0.0
C845 C 0.81495 0.13135 0.01955 0.0
C846 C 0.89182 0.13201 0.02004 0.0
H847 H 0.25694 0.12979 0.0721 0.0
H848 H 0.1318 0.12882 0.07154 0.0
H849 H 1.02095 0.15091 0.01215 0.0
H850 H 0.67139 0.14243 0.983 0.0
H851 H 0.79558 0.14296 0.98231 0.0
C852 C 0.34039 0.12338 0.50182 0.0
C853 C 0.38145 0.13072 0.52884 0.0
C854 C 0.26857 0.12381 0.50142 0.0
C855 C 0.12749 0.14278 0.54196 0.0
H856 H 1.01451 0.1152 0.50209 0.0
C857 C 0.83579 0.13921 0.55972 0.0
C858 C 0.79372 0.13528 0.5282 0.0
C859 C 0.90738 0.1388 0.55945 0.0
C860 C 0.04554 0.12298 0.51315 0.0
H861 H 0.38025 0.14378 0.57768 0.0
H862 H 0.25601 0.14427 0.578 0.0
H863 H 0.13927 0.11386 0.50309 0.0
H864 H 0.79388 0.12828 0.47148 0.0
H865 H 0.91893 0.12708 0.47133 0.0
H866 H 0.03313 0.15172 0.55317 0.0
C867 C 0.27816 0.13852 0.55607 0.0
C868 C 0.11719 0.12225 0.51356 0.0
C869 C 0.34966 0.13822 0.55606 0.0
C870 C 0.82487 0.13114 0.49632 0.0
C871 C 0.89638 0.13048 0.4962 0.0
C872 C 0.05598 0.14342 0.54218 0.0
C873 C 0.23622 0.13145 0.52847 0.0
C874 C 0.15945 0.13216 0.52793 0.0
C875 C 0.93836 0.13428 0.52777 0.0
C876 C 1.01428 0.13355 0.52768 0.0
H877 H 0.36376 0.11757 0.48038 0.0
H878 H 0.23863 0.11834 0.47939 0.0
H879 H 0.15749 0.1507 0.55245 0.0
H880 H 0.8134 0.14245 0.58473 0.0
H881 H 0.93857 0.14178 0.58418 0.0
C882 C 0.71109 0.8887 0.54461 0.0
C883 C 0.67004 0.88257 0.51516 0.0
C884 C 0.78293 0.88818 0.54517 0.0
C885 C 0.92284 0.87037 0.49953 0.0
H886 H 0.03856 0.89656 0.54905 0.0
C887 C 0.21625 0.87303 0.48606 0.0
C888 C 0.25805 0.8765 0.51791 0.0
C889 C 0.14465 0.87369 0.48603 0.0
C890 C 1.00684 0.88915 0.5353 0.0
H891 H 0.67143 0.87169 0.46241 0.0
H892 H 0.79583 0.87103 0.46267 0.0
H893 H 0.91392 0.89827 0.54783 0.0
H894 H 0.25727 0.88284 0.57492 0.0
H895 H 0.1323 0.8843 0.57473 0.0
H896 H 1.0162 0.86142 0.48621 0.0
C897 C 0.77349 0.87587 0.48609 0.0
C898 C 0.93522 0.89009 0.5347 0.0
C899 C 0.70195 0.87629 0.48578 0.0
C900 C 0.22652 0.88033 0.54985 0.0
C901 C 0.155 0.88117 0.54975 0.0
C902 C 0.99433 0.86951 0.49968 0.0
C903 C 0.81531 0.88165 0.51602 0.0
C904 C 0.89199 0.88071 0.51681 0.0
C905 C 0.11324 0.87791 0.51782 0.0
C906 C 0.03718 0.87887 0.51763 0.0
H907 H 0.68765 0.89354 0.56773 0.0
H908 H 0.81287 0.89263 0.56892 0.0
H909 H 0.89187 0.86283 0.48619 0.0
H910 H 0.23888 0.87006 0.46097 0.0
H911 H 0.11385 0.87116 0.46098 0.0
C912 C 0.03703 0.55046 0.04518 0.0
C913 C 0.07829 0.55319 0.01944 0.0
C914 C 0.02451 0.53879 0.04704 0.0
C915 C 0.02404 0.50861 0.99397 0.0
H916 H 0.03195 0.4998 0.08617 0.0
C917 C 0.03228 0.46402 0.05577 0.0
C918 C 0.97772 0.45751 0.03492 0.0
C919 C 0.04391 0.47572 0.054 0.0
C920 C 0.02987 0.50211 0.06021 0.0
H921 H 0.13807 0.54576 0.97523 0.0
H922 H 0.11673 0.52539 0.9787 0.0
H923 H 0.05423 0.52014 0.08277 0.0
H924 H 0.89301 0.45815 0.99562 0.0
H925 H 0.91317 0.47861 0.99261 0.0
H926 H 1.00025 0.49055 0.97141 0.0
C927 C 0.09378 0.53229 0.99732 0.0
C928 C 0.04197 0.51378 0.05829 0.0
C929 C 0.10662 0.54396 0.99558 0.0
C930 C 0.93505 0.46297 0.01226 0.0
C931 C 0.94703 0.47464 0.01027 0.0
C932 C 1.01145 0.49695 0.99591 0.0
C933 C 0.05267 0.52957 0.02311 0.0
C934 C 0.03937 0.51717 0.02514 0.0
C935 C 1.00157 0.48115 0.03114 0.0
C936 C 1.01438 0.49356 0.02906 0.0
H937 H 1.01491 0.55735 0.06417 0.0
H938 H 0.9921 0.537 0.06701 0.0
H939 H 1.02105 0.51094 0.96804 0.0
H940 H 0.06578 0.46008 0.07367 0.0
H941 H 0.08671 0.48046 0.07019 0.0
C942 C 0.12148 0.46209 0.51505 0.0
C943 C 0.07913 0.4565 0.53471 0.0
C944 C 0.10945 0.47366 0.51168 0.0
C945 C 0.97427 0.49621 0.51965 0.0
H946 H 0.12756 0.51765 0.52326 0.0
C947 C 0.93741 0.54586 0.52696 0.0
C948 C 0.97732 0.55126 0.50571 0.0
C949 C 0.95025 0.53435 0.53076 0.0
C950 C 0.0842 0.51174 0.52184 0.0
H951 H 0.99172 0.45882 0.56689 0.0
H952 H 0.97103 0.479 0.56125 0.0
H953 H 0.14915 0.49752 0.52941 0.0
H954 H 0.0618 0.54867 0.47151 0.0
H955 H 0.08443 0.52866 0.47838 0.0
H956 H 0.90935 0.51045 0.51223 0.0
C957 C 1.01279 0.47437 0.54782 0.0
C958 C 0.09656 0.50019 0.52533 0.0
C959 C 0.02472 0.4628 0.55111 0.0
C960 C 0.03067 0.54487 0.48853 0.0
C961 C 0.04366 0.53338 0.49244 0.0
C962 C 0.96191 0.50777 0.51626 0.0
C963 C 0.05487 0.47995 0.52798 0.0
C964 C 0.04176 0.49227 0.52427 0.0
C965 C 1.00347 0.52796 0.51351 0.0
C966 C 1.01671 0.51568 0.5173 0.0
H967 H 0.16317 0.45744 0.50162 0.0
H968 H 0.14223 0.47761 0.49573 0.0
H969 H 0.93083 0.49031 0.51809 0.0
H970 H 0.89672 0.55057 0.5411 0.0
H971 H 0.91901 0.53051 0.54764 0.0
C972 C 0.41963 0.96427 0.02705 0.0
C973 C 0.47488 0.95696 0.03283 0.0
C974 C 0.43112 0.9759 0.02429 0.0
C975 C 0.56836 0.99934 0.04254 0.0
H976 H 0.44122 0.01455 0.98468 0.0
C977 C 0.6187 0.04407 0.00306 0.0
C978 C 0.57202 0.05278 0.01654 0.0
C979 C 0.60663 0.0323 0.00399 0.0
C980 C 0.47702 0.01037 0.0009 0.0
H981 H 0.58618 0.95645 0.04041 0.0
H982 H 0.60607 0.97619 0.03278 0.0
H983 H 0.42158 0.99407 0.98736 0.0
H984 H 0.4757 0.05567 0.04179 0.0
H985 H 0.45335 0.03508 0.04133 0.0
H986 H 0.62507 0.01562 0.05465 0.0
C987 C 0.55349 0.97313 0.03163 0.0
C988 C 0.4656 0.99866 0.00278 0.0
C989 C 0.54198 0.96162 0.03524 0.0
C990 C 0.51225 0.04929 0.0303 0.0
C991 C 0.49948 0.0375 0.03038 0.0
C992 C 0.58056 0.01094 0.03992 0.0
C993 C 0.49829 0.98052 0.02648 0.0
C994 C 0.51087 0.99297 0.02384 0.0
C995 C 0.54687 0.02894 0.01757 0.0
C996 C 0.53479 0.01656 0.01929 0.0
H997 H 0.3672 0.96104 0.02448 0.0
H998 H 0.38696 0.98128 0.0209 0.0
H999 H 0.60366 0.99547 0.05977 0.0
H1000 H 0.66454 0.04628 0.99155 0.0
H1001 H 0.64369 0.0258 0.99378 0.0
C1002 C 0.52355 0.04708 0.49188 0.0
C1003 C 0.47366 0.05377 0.51113 0.0
C1004 C 0.53547 0.0355 0.49519 0.0
C1005 C 0.51025 0.01469 0.55444 0.0
H1006 H 0.54097 0.99115 0.47019 0.0
C1007 C 0.52136 0.96526 0.5568 0.0
C1008 C 0.57182 0.95866 0.53775 0.0
C1009 C 0.50874 0.97681 0.55333 0.0
C1010 C 0.53322 0.99764 0.49405 0.0
H1011 H 0.39798 0.05351 0.54946 0.0
H1012 H 0.41774 0.03327 0.55465 0.0
H1013 H 0.52088 0.01138 0.46483 0.0
H1014 H 0.64766 0.95901 0.49957 0.0
H1015 H 0.62663 0.9792 0.49408 0.0
H1016 H 0.5226 1.00094 0.58366 0.0
C1017 C 0.44815 0.03701 0.53721 0.0
C1018 C 0.52173 0.00925 0.49098 0.0
C1019 C 0.43621 0.04859 0.5339 0.0
C1020 C 0.60902 0.96388 0.51498 0.0
C1021 C 0.59636 0.97542 0.51149 0.0
C1022 C 0.52172 1.00308 0.55751 0.0
C1023 C 0.49783 0.0303 0.51784 0.0
C1024 C 0.51014 0.01793 0.52114 0.0
C1025 C 0.54621 0.98205 0.53071 0.0
C1026 C 0.53342 0.9944 0.52736 0.0
H1027 H 0.55293 0.05073 0.47385 0.0
H1028 H 0.5747 0.03065 0.48019 0.0
H1029 H 0.50257 0.02117 0.57831 0.0
H1030 H 0.49213 0.96157 0.57481 0.0
H1031 H 0.46919 0.9816 0.56821 0.0
C1032 C 0.10339 0.29012 0.00517 0.0
C1033 C 0.15044 0.29721 0.99296 0.0
C1034 C 0.12456 0.27975 0.01534 0.0
C1035 C 0.24778 0.25659 0.99514 0.0
H1036 H 0.19217 0.24727 0.08015 0.0
C1037 C 0.31048 0.21067 0.02315 0.0
C1038 C 0.25963 0.20503 0.03795 0.0
C1039 C 0.30496 0.22252 0.02144 0.0
C1040 C 0.20751 0.24966 0.05606 0.0
H1041 H 0.25657 0.2992 0.98241 0.0
H1042 H 0.29353 0.28083 0.99944 0.0
H1043 H 0.16786 0.26699 0.07077 0.0
H1044 H 0.16406 0.2077 0.06363 0.0
H1045 H 0.15266 0.22805 0.059 0.0
H1046 H 0.28426 0.23916 0.97931 0.0
C1047 C 0.24043 0.28338 0.00143 0.0
C1048 C 0.19395 0.261 0.05087 0.0
C1049 C 0.21947 0.29389 0.9919 0.0
C1050 C 0.20369 0.21164 0.05145 0.0
C1051 C 0.19776 0.22343 0.04936 0.0
C1052 C 0.26043 0.24519 1.00003 0.0
C1053 C 0.19297 0.27615 0.01288 0.0
C1054 C 0.21318 0.26453 0.02015 0.0
C1055 C 0.24807 0.22905 0.03413 0.0
C1056 C 0.23956 0.24149 0.03032 0.0
H1057 H 0.04992 0.29252 0.0063 0.0
H1058 H 0.08679 0.27431 0.02381 0.0
H1059 H 0.26249 0.25904 0.971 0.0
H1060 H 0.35402 0.20588 0.01213 0.0
H1061 H 0.34534 0.22654 0.01 0.0
C1062 C 0.60254 0.78895 0.99705 0.0
C1063 C 0.6521 0.7965 0.98885 0.0
C1064 C 0.6222 0.77862 0.00794 0.0
C1065 C 0.75057 0.75628 0.99491 0.0
H1066 H 0.68293 0.74668 0.07697 0.0
C1067 C 0.81347 0.71068 0.02531 0.0
C1068 C 0.76151 0.70482 0.03866 0.0
C1069 C 0.80701 0.72249 0.02326 0.0
C1070 C 0.70162 0.74912 0.05366 0.0
H1071 H 0.76078 0.79934 0.98594 0.0
H1072 H 0.79525 0.781 0.00401 0.0
H1073 H 0.65772 0.76621 0.06622 0.0
H1074 H 0.66292 0.70711 0.06151 0.0
H1075 H 0.6498 0.72732 0.05596 0.0
H1076 H 0.79113 0.73907 0.98093 0.0
C1077 C 0.74137 0.78319 0.00247 0.0
C1078 C 0.68755 0.76037 0.04773 0.0
C1079 C 0.72177 0.79366 0.99233 0.0
C1080 C 0.7035 0.71119 0.0504 0.0
C1081 C 0.69654 0.72293 0.04783 0.0
C1082 C 0.76356 0.74495 0.00041 0.0
C1083 C 0.69167 0.77553 0.01007 0.0
C1084 C 0.71132 0.764 0.01812 0.0
C1085 C 0.74797 0.72876 0.03402 0.0
C1086 C 0.73853 0.74114 0.02963 0.0
H1087 H 0.54851 0.79098 0.99456 0.0
H1088 H 0.58287 0.77283 0.01343 0.0
H1089 H 0.76888 0.75883 0.97164 0.0
H1090 H 0.85866 0.70609 0.01565 0.0
H1091 H 0.84836 0.72668 0.01304 0.0
C1092 C 0.2221 0.71391 0.54747 0.0
C1093 C 0.15396 0.71119 0.53395 0.0
C1094 C 0.25334 0.72433 0.54356 0.0
C1095 C 0.2377 0.74858 0.49419 0.0
H1096 H 0.33479 0.7667 0.57948 0.0
C1097 C 0.32577 0.79629 0.50165 0.0
C1098 C 0.39376 0.79898 0.51551 0.0
C1099 C 0.29395 0.78592 0.50558 0.0
C1100 C 0.30826 0.76172 0.55535 0.0
H1101 H 0.0667 0.71679 0.50372 0.0
H1102 H 0.12089 0.73495 0.49697 0.0
H1103 H 0.28942 0.74726 0.57999 0.0
H1104 H 0.48008 0.79337 0.54638 0.0
H1105 H 0.42504 0.7753 0.55306 0.0
H1106 H 0.25664 0.76303 0.46953 0.0
C1107 C 0.15036 0.72909 0.51061 0.0
C1108 C 0.28257 0.75055 0.55559 0.0
C1109 C 0.11915 0.71872 0.51464 0.0
C1110 C 0.42779 0.79147 0.53516 0.0
C1111 C 0.39605 0.78114 0.53917 0.0
C1112 C 0.26344 0.75975 0.49395 0.0
C1113 C 0.21714 0.73218 0.52586 0.0
C1114 C 0.24702 0.74384 0.525 0.0
C1115 C 0.32944 0.77808 0.52361 0.0
C1116 C 0.29908 0.76646 0.52452 0.0
H1117 H 0.24999 0.70829 0.56263 0.0
H1118 H 0.30529 0.72638 0.55511 0.0
H1119 H 0.21113 0.7436 0.47008 0.0
H1120 H 0.29845 0.8019 0.48623 0.0
H1121 H 0.24214 0.7839 0.49379 0.0
C1122 C 0.85563 0.29358 0.48498 0.0
C1123 C 0.79319 0.29957 0.48658 0.0
C1124 C 0.86059 0.28257 0.49417 0.0
C1125 C 0.77852 0.26264 0.54255 0.0
H1126 H 0.85152 0.23786 0.4725 0.0
C1127 C 0.73888 0.21378 0.54591 0.0
C1128 C 0.79158 0.20589 0.53541 0.0
C1129 C 0.74267 0.2254 0.54173 0.0
C1130 C 0.83205 0.24467 0.49272 0.0
H1131 H 0.68825 0.29908 0.50082 0.0
H1132 H 0.69716 0.27996 0.51743 0.0
H1133 H 0.85477 0.25801 0.46414 0.0
H1134 H 0.88959 0.20415 0.51194 0.0
H1135 H 0.8975 0.22447 0.50597 0.0
H1136 H 0.75618 0.24939 0.57135 0.0
C1137 C 0.74209 0.2837 0.50883 0.0
C1138 C 0.83388 0.25624 0.48786 0.0
C1139 C 0.73685 0.29461 0.49913 0.0
C1140 C 0.84837 0.20998 0.52077 0.0
C1141 C 0.85245 0.22163 0.51686 0.0
C1142 C 0.77737 0.2511 0.54765 0.0
C1143 C 0.80354 0.27744 0.5057 0.0
C1144 C 0.80644 0.26533 0.5125 0.0
C1145 C 0.7996 0.22951 0.52722 0.0
C1146 C 0.80338 0.24191 0.52259 0.0
H1147 H 0.89975 0.2972 0.47528 0.0
H1148 H 0.90877 0.27798 0.4918 0.0
H1149 H 0.75757 0.26949 0.56218 0.0
H1150 H 0.69475 0.21104 0.55776 0.0
H1151 H 0.7004 0.23112 0.54954 0.0
C1152 C 1.00584 0.37952 0.13598 0.0
C1153 C 0.07354 0.37876 0.12617 0.0
C1154 C 0.99117 0.3784 0.1702 0.0
C1155 C 0.06997 0.36912 0.25208 0.0
H1156 H 0.91962 0.38666 0.29639 0.0
C1157 C 0.03418 0.37983 0.40381 0.0
C1158 C 0.97145 0.37602 0.41343 0.0
C1159 C 0.04503 0.37926 0.368 0.0
C1160 C 0.96141 0.38166 0.28415 0.0
H1161 H 0.17934 0.37652 0.14406 0.0
H1162 H 0.15489 0.37527 0.20441 0.0
H1163 H 0.9424 0.38776 0.23565 0.0
H1164 H 0.87076 0.36871 0.39351 0.0
H1165 H 0.88886 0.3682 0.33059 0.0
H1166 H 0.0908 0.36362 0.30176 0.0
C1167 C 0.11227 0.37621 0.18558 0.0
C1168 C 0.97437 0.3822 0.24922 0.0
C1169 C 0.1266 0.37704 0.15111 0.0
C1170 C 0.91959 0.37167 0.38666 0.0
C1171 C 0.92982 0.3714 0.35085 0.0
C1172 C 0.0579 0.36881 0.28728 0.0
C1173 C 0.04424 0.37681 0.19567 0.0
C1174 C 0.02905 0.37597 0.23264 0.0
C1175 C 0.99271 0.37517 0.34127 0.0
C1176 C 1.00362 0.37509 0.30358 0.0
H1177 H 0.96411 0.38072 0.1169 0.0
H1178 H 0.93805 0.37866 0.17645 0.0
H1179 H 0.11141 0.36395 0.24018 0.0
H1180 H 0.0751 0.38313 0.42401 0.0
H1181 H 0.09384 0.38224 0.36118 0.0
C1182 C 0.04402 0.62818 0.14583 0.0
C1183 C 1.00233 0.6362 0.13172 0.0
C1184 C 0.05045 0.62854 0.18246 0.0
C1185 C 1.02016 0.62593 0.25611 0.0
H1186 H 0.02275 0.65506 0.32614 0.0
C1187 C 1.00582 0.626 0.40518 0.0
C1188 C 0.04709 0.63421 0.42977 0.0
C1189 C 0.99754 0.62677 0.3693 0.0
C1190 C 0.02267 0.64684 0.30697 0.0
H1191 H 0.93587 0.6511 0.1452 0.0
H1192 H 0.94573 0.65157 0.2091 0.0
H1193 H 1.01837 0.65555 0.26295 0.0
H1194 H 0.11115 0.64981 0.4359 0.0
H1195 H 0.09816 0.65098 0.3733 0.0
H1196 H 0.02716 0.61721 0.29994 0.0
C1197 C 0.97448 0.6451 0.19191 0.0
C1198 C 1.01926 0.64712 0.27065 0.0
C1199 C 0.96862 0.64481 0.15522 0.0
C1200 C 0.07875 0.64335 0.41775 0.0
C1201 C 0.071 0.64406 0.38178 0.0
C1202 C 0.02412 0.62565 0.29234 0.0
C1203 C 1.01474 0.63686 0.20596 0.0
C1204 C 1.01817 0.63666 0.24472 0.0
C1205 C 0.03084 0.63571 0.35698 0.0
C1206 C 0.02542 0.63609 0.31832 0.0
H1207 H 0.07147 0.62152 0.12855 0.0
H1208 H 0.08335 0.62224 0.19231 0.0
H1209 H 1.01818 0.61768 0.23699 0.0
H1210 H 0.98006 0.61891 0.41357 0.0
H1211 H 0.965 0.62033 0.3512 0.0
C1212 C 0.05319 0.62876 0.91136 0.0
C1213 C 0.98663 0.6303 0.92253 0.0
C1214 C 0.06582 0.6291 0.87627 0.0
C1215 C 0.98607 0.63792 0.79423 0.0
H1216 H 0.12626 0.61798 0.74858 0.0
C1217 C 1.0138 0.62721 0.64185 0.0
C1218 C 0.07957 0.6291 0.63162 0.0
C1219 C 1.00319 0.62791 0.67777 0.0
C1220 C 0.08728 0.62364 0.76113 0.0
H1221 H 0.88067 0.63312 0.90626 0.0
H1222 H 0.90157 0.63314 0.84449 0.0
H1223 H 0.10564 0.6179 0.81027 0.0
H1224 H 0.18598 0.63301 0.65021 0.0
H1225 H 0.16788 0.63381 0.71316 0.0
H1226 H 0.96623 0.64323 0.74421 0.0
C1227 C 0.94485 0.63213 0.86285 0.0
C1228 C 0.07561 0.62367 0.79658 0.0
C1229 C 0.93258 0.63202 0.89813 0.0
C1230 C 0.13483 0.63154 0.65765 0.0
C1231 C 0.12451 0.63197 0.69348 0.0
C1232 C 0.99694 0.63771 0.75857 0.0
C1233 C 1.01174 0.63073 0.85141 0.0
C1234 C 0.02481 0.63081 0.81369 0.0
C1235 C 0.05855 0.63021 0.70385 0.0
C1236 C 0.04764 0.63058 0.74174 0.0
H1237 H 0.09567 0.62753 0.92999 0.0
H1238 H 0.11819 0.62823 0.86884 0.0
H1239 H 0.94759 0.64373 0.80656 0.0
H1240 H 0.97048 0.6254 0.62211 0.0
H1241 H 0.95194 0.62647 0.68513 0.0
C1242 C 0.04466 0.38267 0.64086 0.0
C1243 C 0.98696 0.37683 0.62107 0.0
C1244 C 0.05775 0.38234 0.67696 0.0
C1245 C 0.0492 0.386 0.75739 0.0
H1246 H 1.01326 0.35737 0.78998 0.0
C1247 C 0.03754 0.38549 0.90626 0.0
C1248 C 0.06683 0.37602 0.91931 0.0
C1249 C 0.03062 0.38529 0.86973 0.0
C1250 C 0.0242 0.36541 0.78132 0.0
H1251 H 0.89636 0.36642 0.62392 0.0
H1252 H 0.91906 0.36584 0.68669 0.0
H1253 H 0.99789 0.35755 0.72653 0.0
H1254 H 0.11113 0.35883 0.90376 0.0
H1255 H 0.09935 0.35854 0.83987 0.0
H1256 H 0.07625 0.39383 0.81208 0.0
C1257 C 0.9552 0.37045 0.67424 0.0
C1258 C 1.01462 0.36555 0.74496 0.0
C1259 C 0.94209 0.3708 0.63824 0.0
C1260 C 0.08828 0.36627 0.89473 0.0
C1261 C 0.08128 0.36608 0.85805 0.0
C1262 C 0.05871 0.38586 0.79373 0.0
C1263 C 1.01327 0.37618 0.69407 0.0
C1264 C 0.02641 0.37588 0.73257 0.0
C1265 C 0.05278 0.37564 0.84513 0.0
C1266 C 0.04568 0.37559 0.80622 0.0
H1267 H 0.08009 0.38739 0.62833 0.0
H1268 H 0.10322 0.38678 0.69136 0.0
H1269 H 0.05827 0.39413 0.74886 0.0
H1270 H 1.02003 0.39313 0.92424 0.0
H1271 H 1.00721 0.39271 0.86074 0.0
C1272 C 0.62956 0.87717 0.14986 0.0
C1273 C 0.5768 0.87972 0.12596 0.0
C1274 C 0.61673 0.87701 0.18506 0.0
C1275 C 0.48793 0.88659 0.2519 0.0
H1276 H 0.58696 0.86536 0.30247 0.0
C1277 C 0.41903 0.87807 0.38854 0.0
C1278 C 0.47349 0.88032 0.41506 0.0
C1279 C 0.43105 0.87757 0.35288 0.0
C1280 C 0.55912 0.87133 0.28857 0.0
H1281 H 0.46939 0.88389 0.11935 0.0
H1282 H 0.44574 0.88309 0.18012 0.0
H1283 H 0.60814 0.86516 0.24055 0.0
H1284 H 0.58286 0.88355 0.42566 0.0
H1285 H 0.60436 0.88233 0.36291 0.0
H1286 H 0.43736 0.89242 0.29985 0.0
C1287 C 0.49773 0.88164 0.17249 0.0
C1288 C 0.57151 0.87131 0.25319 0.0
C1289 C 0.51102 0.88205 0.13758 0.0
C1290 C 0.54019 0.88188 0.40551 0.0
C1291 C 0.55247 0.8811 0.36977 0.0
C1292 C 0.47461 0.88643 0.28699 0.0
C1293 C 0.55047 0.87919 0.19686 0.0
C1294 C 0.53645 0.87901 0.2344 0.0
C1295 C 0.49789 0.87906 0.34323 0.0
C1296 C 0.51043 0.87887 0.30568 0.0
H1297 H 0.68086 0.87544 0.14139 0.0
H1298 H 0.65908 0.87533 0.20306 0.0
H1299 H 0.4609 0.89283 0.2388 0.0
H1300 H 0.36719 0.87685 0.39549 0.0
H1301 H 0.38827 0.87595 0.33279 0.0
C1302 C 0.46086 0.14389 0.15017 0.0
C1303 C 0.49629 0.13551 0.12682 0.0
C1304 C 0.46563 0.14403 0.18675 0.0
C1305 C 0.51387 0.12499 0.25113 0.0
H1306 H 0.51263 0.15417 0.32071 0.0
C1307 C 0.57542 0.14329 0.41202 0.0
C1308 C 0.54632 0.13412 0.42506 0.0
C1309 C 0.56607 0.14368 0.37592 0.0
C1310 C 0.51365 0.14593 0.30168 0.0
H1311 H 0.56685 0.12103 0.12373 0.0
H1312 H 0.57703 0.12152 0.18741 0.0
H1313 H 0.50708 0.15457 0.25755 0.0
H1314 H 0.48281 0.11837 0.41046 0.0
H1315 H 0.46477 0.11923 0.34763 0.0
H1316 H 0.52357 0.11637 0.2952 0.0
C1317 C 0.54365 0.12775 0.17749 0.0
C1318 C 0.5095 0.14616 0.26536 0.0
C1319 C 0.53825 0.12752 0.14094 0.0
C1320 C 0.50642 0.12549 0.40125 0.0
C1321 C 0.49643 0.12596 0.36515 0.0
C1322 C 0.51873 0.12477 0.28742 0.0
C1323 C 0.50655 0.13587 0.20085 0.0
C1324 C 0.50992 0.13569 0.23959 0.0
C1325 C 0.52669 0.135 0.35194 0.0
C1326 C 0.51897 0.13524 0.31322 0.0
H1327 H 0.4277 0.15012 0.14011 0.0
H1328 H 0.43571 0.15034 0.20381 0.0
H1329 H 0.51303 0.11673 0.23211 0.0
H1330 H 0.6069 0.15005 0.42951 0.0
H1331 H 0.59124 0.15066 0.36674 0.0
C1332 C 0.54856 0.12959 0.90764 0.0
C1333 C 0.48167 0.13056 0.9187 0.0
C1334 C 0.56068 0.13038 0.8728 0.0
C1335 C 0.48149 0.12486 0.78276 0.0
H1336 H 0.61236 0.14746 0.7642 0.0
C1337 C 0.50924 0.13099 0.63993 0.0
C1338 C 0.57485 0.13333 0.63049 0.0
C1339 C 0.49759 0.13136 0.67553 0.0
C1340 C 0.5764 0.14097 0.7688 0.0
H1341 H 0.37489 0.13288 0.90258 0.0
H1342 H 0.39573 0.13382 0.84109 0.0
H1343 H 0.59422 0.14634 0.82564 0.0
H1344 H 0.67996 0.13788 0.65028 0.0
H1345 H 0.66079 0.13804 0.71243 0.0
H1346 H 0.46511 0.11909 0.72639 0.0
C1347 C 0.43877 0.13264 0.85944 0.0
C1348 C 0.56589 0.14038 0.80402 0.0
C1349 C 0.42689 0.13212 0.89445 0.0
C1350 C 0.62874 0.13615 0.65714 0.0
C1351 C 0.61749 0.13629 0.69273 0.0
C1352 C 0.49283 0.12528 0.74761 0.0
C1353 C 0.5058 0.13184 0.84838 0.0
C1354 C 0.51805 0.13237 0.81124 0.0
C1355 C 0.55181 0.1338 0.70241 0.0
C1356 C 0.54011 0.13339 0.74007 0.0
H1357 H 0.59146 0.12845 0.92613 0.0
H1358 H 0.61274 0.12969 0.86478 0.0
H1359 H 0.44486 0.11851 0.78771 0.0
H1360 H 0.46681 0.12892 0.61973 0.0
H1361 H 0.44595 0.12971 0.68189 0.0
C1362 C 0.55307 0.88419 0.63989 0.0
C1363 C 0.50905 0.87608 0.61657 0.0
C1364 C 0.56532 0.88343 0.67564 0.0
C1365 C 0.54698 0.88483 0.75356 0.0
H1366 H 0.55308 0.85507 0.78381 0.0
C1367 C 0.53202 0.88274 0.9005 0.0
C1368 C 0.57285 0.87462 0.9147 0.0
C1369 C 0.52568 0.88235 0.8639 0.0
C1370 C 0.55224 0.86346 0.77584 0.0
H1371 H 0.44431 0.86067 0.61246 0.0
H1372 H 0.46406 0.85955 0.67494 0.0
H1373 H 0.54354 0.85537 0.72039 0.0
H1374 H 0.63811 0.85956 0.90133 0.0
H1375 H 0.62836 0.85905 0.83727 0.0
H1376 H 0.55782 0.89294 0.80878 0.0
C1377 C 0.49036 0.86636 0.66553 0.0
C1378 C 0.54585 0.86363 0.73942 0.0
C1379 C 0.47868 0.86705 0.62966 0.0
C1380 C 0.60622 0.86594 0.89126 0.0
C1381 C 0.60036 0.86562 0.8545 0.0
C1382 C 0.55393 0.88466 0.78986 0.0
C1383 C 0.53328 0.87462 0.68911 0.0
C1384 C 0.54265 0.87433 0.7278 0.0
C1385 C 0.56057 0.87392 0.84041 0.0
C1386 C 0.55588 0.87398 0.80155 0.0
H1387 H 0.57804 0.89117 0.6306 0.0
H1388 H 0.59991 0.8898 0.69272 0.0
H1389 H 0.54376 0.89325 0.7458 0.0
H1390 H 0.50473 0.88945 0.91766 0.0
H1391 H 0.49312 0.88869 0.85404 0.0
loop_
_geom_bond_atom_site_label_1
_geom_bond_atom_site_label_2
_geom_bond_distance
_geom_bond_site_symmetry_2
_ccdc_geom_bond_type
Eu0 N29 2.600 1_454 S
Eu0 N35 2.562 1_455 S
Eu0 O44 2.462 . S
Eu0 O45 2.373 1_455 S
Eu0 O47 2.432 1_554 S
Eu0 O48 2.291 . S
Eu0 O52 2.335 . S
Eu0 O55 2.372 1_554 S
Eu0 C64 2.787 . S
C1 N2 1.365 . S
C1 C4 1.405 . S
C1 C8 1.448 . S
N2 C1 1.365 . S
N2 C5 1.319 . S
N2 Eu11 2.600 . S
C3 C5 1.397 . S
C3 C6 1.367 . S
C3 H23 0.931 . S
C4 C1 1.405 . S
C4 C6 1.403 . S
C4 C10 1.439 . S
C5 N2 1.319 . S
C5 C3 1.397 . S
C5 H16 0.930 . S
C6 C3 1.367 . S
C6 C4 1.403 . S
C6 H27 0.929 . S
C7 C8 1.430 . S
C7 C9 1.387 . S
C7 C13 1.404 . S
C8 C1 1.448 . S
C8 C7 1.430 . S
C8 N12 1.351 . S
C9 C7 1.387 . S
C9 C10 1.374 . S
C9 H24 0.931 . S
C10 C4 1.439 . S
C10 C9 1.374 . S
C10 H25 0.931 . S
Eu11 N2 2.600 . S
Eu11 N12 2.562 . S
Eu11 O46 2.335 1_455 S
Eu11 O49 2.372 . S
Eu11 O50 2.462 . S
Eu11 O51 2.373 . S
Eu11 O53 2.432 . S
Eu11 O54 2.291 1_554 S
Eu11 C75 2.787 . S
N12 C8 1.351 . S
N12 Eu11 2.562 . S
N12 C14 1.325 1_554 S
C13 C7 1.404 . S
C13 C15 1.366 1_554 S
C13 H21 0.930 . S
C14 N12 1.325 1_556 S
C14 C15 1.416 . S
C14 H20 0.929 . S
C15 C13 1.366 1_556 S
C15 C14 1.416 . S
C15 H17 0.930 . S
H16 C5 0.930 . S
H17 C15 0.930 . S
H18 C33 0.930 1_455 S
H19 C40 0.930 . S
H20 C14 0.929 . S
H21 C13 0.930 . S
H22 C36 0.929 . S
H23 C3 0.931 . S
H24 C9 0.931 . S
H25 C10 0.931 . S
H26 C31 0.931 . S
H27 C6 0.929 . S
H28 C39 0.930 . S
N29 Eu0 2.600 1_656 S
N29 C30 1.365 . S
N29 C33 1.319 . S
C30 N29 1.365 . S
C30 C32 1.405 . S
C30 C38 1.448 . S
C31 H26 0.931 . S
C31 C33 1.397 . S
C31 C34 1.367 . S
C32 C30 1.405 . S
C32 C34 1.403 . S
C32 C65 1.439 . S
C33 H18 0.930 1_655 S
C33 N29 1.319 . S
C33 C31 1.397 . S
C34 C31 1.367 . S
C34 C32 1.403 . S
C34 H41 0.929 . S
N35 Eu0 2.562 1_655 S
N35 C36 1.325 . S
N35 C38 1.351 1_554 S
C36 H22 0.929 . S
C36 N35 1.325 . S
C36 C40 1.416 . S
C37 C38 1.425 1_554 S
C37 C39 1.417 . S
C37 C66 1.379 1_554 S
C38 C30 1.448 . S
C38 N35 1.351 1_556 S
C38 C37 1.425 1_556 S
C39 H28 0.930 . S
C39 C37 1.417 . S
C39 C40 1.366 . S
C40 H19 0.930 . S
C40 C36 1.416 . S
C40 C39 1.366 . S
H41 C34 0.929 . S
H42 C65 0.931 . S
H43 C66 0.931 . S
O44 Eu0 2.462 . S
O44 C64 1.252 . S
O45 Eu0 2.373 1_655 S
O45 C56 1.249 . S
O46 Eu11 2.335 1_655 S
O46 C56 1.264 . S
O47 Eu0 2.432 1_556 S
O47 C64 1.268 1_556 S
O48 Eu0 2.291 . S
O48 C63 1.255 . S
O49 Eu11 2.372 . S
O49 C63 1.257 . S
O50 Eu11 2.462 . S
O50 C75 1.252 . S
O51 Eu11 2.373 . S
O51 C67 1.249 . S
O52 Eu0 2.335 . S
O52 C67 1.264 . S
O53 Eu11 2.432 . S
O53 C75 1.268 . S
O54 Eu11 2.291 1_556 S
O54 C74 1.255 . S
O55 Eu0 2.372 1_556 S
O55 C74 1.257 . S
C56 O45 1.249 . S
C56 O46 1.264 . S
C57 C60 1.382 1_554 S
C57 C62 1.390 . S
C57 C64 1.506 . S
C58 C59 1.398 . S
C58 C62 1.392 . S
C59 C58 1.398 . S
C59 C61 1.372 1_554 S
C59 H76 0.928 . S
C60 C57 1.382 1_556 S
C60 C61 1.390 . S
C60 H77 0.931 . S
C61 C59 1.372 1_556 S
C61 C60 1.390 . S
C61 H78 0.929 . S
C62 C57 1.390 . S
C62 C58 1.392 . S
C62 H79 0.930 . S
C63 O48 1.255 . S
C63 O49 1.257 . S
C64 Eu0 2.787 . S
C64 O44 1.252 . S
C64 O47 1.268 1_554 S
C64 C57 1.506 . S
C65 C32 1.439 . S
C65 H42 0.931 . S
C65 C66 1.374 . S
C66 C37 1.379 1_556 S
C66 H43 0.931 . S
C66 C65 1.374 . S
C67 O51 1.249 . S
C67 O52 1.264 . S
C68 C71 1.382 . S
C68 C72 1.390 . S
C68 C75 1.506 1_655 S
C69 C70 1.398 . S
C69 C72 1.392 . S
C70 C69 1.398 . S
C70 C73 1.372 . S
C70 H80 0.931 . S
C71 C68 1.382 . S
C71 C73 1.390 . S
C71 H81 0.931 . S
C72 C68 1.390 . S
C72 C69 1.392 . S
C72 H82 0.930 1_554 S
C73 C70 1.372 . S
C73 C71 1.390 . S
C73 H83 0.929 . S
C74 O54 1.255 . S
C74 O55 1.257 . S
C75 Eu11 2.787 . S
C75 O50 1.252 . S
C75 O53 1.268 . S
C75 C68 1.506 1_455 S
H76 C59 0.928 . S
H77 C60 0.931 . S
H78 C61 0.929 . S
H79 C62 0.930 . S
H80 C70 0.931 . S
H81 C71 0.931 . S
H82 C72 0.930 1_556 S
H83 C73 0.929 . S
Eu84 N113 2.600 1_654 S
Eu84 N119 2.562 1_655 S
Eu84 O128 2.462 . S
Eu84 O129 2.373 1_655 S
Eu84 O131 2.432 1_554 S
Eu84 O132 2.291 . S
Eu84 O136 2.335 . S
Eu84 O139 2.372 1_554 S
Eu84 C148 2.787 . S
C85 N86 1.365 . S
C85 C88 1.405 . S
C85 C92 1.448 . S
N86 C85 1.365 . S
N86 C89 1.319 . S
N86 Eu95 2.600 . S
C87 C89 1.397 . S
C87 C90 1.367 . S
C87 H107 0.931 . S
C88 C85 1.405 . S
C88 C90 1.403 . S
C88 C94 1.439 . S
C89 N86 1.319 . S
C89 C87 1.397 . S
C89 H100 0.930 . S
C90 C87 1.367 . S
C90 C88 1.403 . S
C90 H111 0.929 . S
C91 C92 1.430 . S
C91 C93 1.387 . S
C91 C97 1.404 1_554 S
C92 C85 1.448 . S
C92 C91 1.430 . S
C92 N96 1.351 1_554 S
C93 C91 1.387 . S
C93 C94 1.374 . S
C93 H108 0.931 . S
C94 C88 1.439 . S
C94 C93 1.374 . S
C94 H109 0.931 . S
Eu95 N86 2.600 . S
Eu95 N96 2.562 1_554 S
Eu95 O130 2.335 1_655 S
Eu95 O133 2.372 . S
Eu95 O134 2.462 1_554 S
Eu95 O135 2.373 . S
Eu95 O137 2.432 . S
Eu95 O138 2.291 1_554 S
Eu95 C159 2.787 . S
N96 C92 1.351 1_556 S
N96 Eu95 2.562 1_556 S
N96 C98 1.325 . S
C97 C91 1.404 1_556 S
C97 C99 1.366 . S
C97 H105 0.930 . S
C98 N96 1.325 . S
C98 C99 1.416 . S
C98 H104 0.929 . S
C99 C97 1.366 . S
C99 C98 1.416 . S
C99 H101 0.930 . S
H100 C89 0.930 . S
H101 C99 0.930 . S
H102 C117 0.930 1_655 S
H103 C124 0.930 . S
H104 C98 0.929 . S
H105 C97 0.930 . S
H106 C120 0.929 . S
H107 C87 0.931 . S
H108 C93 0.931 . S
H109 C94 0.931 . S
H110 C115 0.931 . S
H111 C90 0.929 . S
H112 C123 0.930 . S
N113 Eu84 2.600 1_456 S
N113 C114 1.365 . S
N113 C117 1.319 . S
C114 N113 1.365 . S
C114 C116 1.405 . S
C114 C122 1.448 1_556 S
C115 H110 0.931 . S
C115 C117 1.397 . S
C115 C118 1.367 . S
C116 C114 1.405 . S
C116 C118 1.403 . S
C116 C149 1.439 . S
C117 H102 0.930 1_455 S
C117 N113 1.319 . S
C117 C115 1.397 . S
C118 C115 1.367 . S
C118 C116 1.403 . S
C118 H125 0.929 . S
N119 Eu84 2.562 1_455 S
N119 C120 1.325 . S
N119 C122 1.351 . S
C120 H106 0.929 . S
C120 N119 1.325 . S
C120 C124 1.416 . S
C121 C122 1.430 . S
C121 C123 1.404 . S
C121 C150 1.387 . S
C122 C114 1.448 1_554 S
C122 N119 1.351 . S
C122 C121 1.430 . S
C123 H112 0.930 . S
C123 C121 1.404 . S
C123 C124 1.366 . S
C124 H103 0.930 . S
C124 C120 1.416 . S
C124 C123 1.366 . S
H125 C118 0.929 . S
H126 C149 0.931 . S
H127 C150 0.931 . S
O128 Eu84 2.462 . S
O128 C148 1.252 . S
O129 Eu84 2.373 1_455 S
O129 C140 1.249 . S
O130 Eu95 2.335 1_455 S
O130 C140 1.264 . S
O131 Eu84 2.432 1_556 S
O131 C148 1.268 1_556 S
O132 Eu84 2.291 . S
O132 C147 1.255 . S
O133 Eu95 2.372 . S
O133 C147 1.257 . S
O134 Eu95 2.462 1_556 S
O134 C159 1.252 1_556 S
O135 Eu95 2.373 . S
O135 C151 1.249 . S
O136 Eu84 2.335 . S
O136 C151 1.264 . S
O137 Eu95 2.432 . S
O137 C159 1.268 . S
O138 Eu95 2.291 1_556 S
O138 C158 1.255 . S
O139 Eu84 2.372 1_556 S
O139 C158 1.257 . S
C140 O129 1.249 . S
C140 O130 1.264 . S
C141 C144 1.382 . S
C141 C146 1.390 . S
C141 C148 1.506 . S
C142 C143 1.398 . S
C142 C146 1.392 . S
C143 C142 1.398 . S
C143 C145 1.372 . S
C143 H160 0.931 . S
C144 C141 1.382 . S
C144 C145 1.390 . S
C144 H161 0.931 1_554 S
C145 C143 1.372 . S
C145 C144 1.390 . S
C145 H162 0.929 1_554 S
C146 C141 1.390 . S
C146 C142 1.392 . S
C146 H163 0.930 . S
C147 O132 1.255 . S
C147 O133 1.257 . S
C148 Eu84 2.787 . S
C148 O128 1.252 . S
C148 O131 1.268 1_554 S
C148 C141 1.506 . S
C149 C116 1.439 . S
C149 H126 0.931 . S
C149 C150 1.374 1_556 S
C150 C121 1.387 . S
C150 H127 0.931 . S
C150 C149 1.374 1_554 S
C151 O135 1.249 . S
C151 O136 1.264 . S
C152 C155 1.382 . S
C152 C156 1.390 1_554 S
C152 C159 1.506 1_455 S
C153 C154 1.398 . S
C153 C156 1.392 . S
C154 C153 1.398 . S
C154 C157 1.372 1_556 S
C154 H164 0.931 . S
C155 C152 1.382 . S
C155 C157 1.390 . S
C155 H165 0.931 . S
C156 C152 1.390 1_556 S
C156 C153 1.392 . S
C156 H166 0.930 . S
C157 C154 1.372 1_554 S
C157 C155 1.390 . S
C157 H167 0.929 . S
C158 O138 1.255 . S
C158 O139 1.257 . S
C159 Eu95 2.787 . S
C159 O134 1.252 1_554 S
C159 O137 1.268 . S
C159 C152 1.506 1_655 S
H160 C143 0.931 . S
H161 C144 0.931 1_556 S
H162 C145 0.929 1_556 S
H163 C146 0.930 . S
H164 C154 0.931 . S
H165 C155 0.931 . S
H166 C156 0.930 . S
H167 C157 0.929 . S
Eu168 N197 2.600 1_455 S
Eu168 N203 2.562 1_455 S
Eu168 O212 2.462 . S
Eu168 O213 2.373 1_455 S
Eu168 O215 2.432 . S
Eu168 O216 2.291 . S
Eu168 O220 2.335 . S
Eu168 O223 2.372 . S
Eu168 C232 2.787 . S
C169 N170 1.365 . S
C169 C172 1.405 . S
C169 C176 1.448 . S
N170 C169 1.365 . S
N170 C173 1.319 . S
N170 Eu179 2.600 . S
C171 C173 1.397 . S
C171 C174 1.367 . S
C171 H191 0.931 . S
C172 C169 1.405 . S
C172 C174 1.403 . S
C172 C178 1.439 . S
C173 N170 1.319 . S
C173 C171 1.397 . S
C173 H184 0.930 . S
C174 C171 1.367 . S
C174 C172 1.403 . S
C174 H195 0.929 . S
C175 C176 1.430 . S
C175 C177 1.387 . S
C175 C181 1.404 . S
C176 C169 1.448 . S
C176 C175 1.430 . S
C176 N180 1.351 . S
C177 C175 1.387 . S
C177 C178 1.374 . S
C177 H192 0.931 . S
C178 C172 1.439 . S
C178 C177 1.374 . S
C178 H193 0.931 . S
Eu179 N170 2.600 . S
Eu179 N180 2.562 . S
Eu179 O214 2.335 1_455 S
Eu179 O217 2.372 . S
Eu179 O218 2.462 . S
Eu179 O219 2.373 . S
Eu179 O221 2.432 . S
Eu179 O222 2.291 . S
Eu179 C243 2.787 . S
N180 C176 1.351 . S
N180 Eu179 2.562 . S
N180 C182 1.325 . S
C181 C175 1.404 . S
C181 C183 1.366 . S
C181 H189 0.930 . S
C182 N180 1.325 . S
C182 C183 1.416 . S
C182 H188 0.929 . S
C183 C181 1.366 . S
C183 C182 1.416 . S
C183 H185 0.930 . S
H184 C173 0.930 . S
H185 C183 0.930 . S
H186 C201 0.930 1_455 S
H187 C208 0.930 . S
H188 C182 0.929 . S
H189 C181 0.930 . S
H190 C204 0.929 . S
H191 C171 0.931 . S
H192 C177 0.931 . S
H193 C178 0.931 . S
H194 C199 0.931 . S
H195 C174 0.929 . S
H196 C207 0.930 . S
N197 Eu168 2.600 1_655 S
N197 C198 1.365 . S
N197 C201 1.319 . S
C198 N197 1.365 . S
C198 C200 1.405 . S
C198 C206 1.448 . S
C199 H194 0.931 . S
C199 C201 1.397 . S
C199 C202 1.367 . S
C200 C198 1.405 . S
C200 C202 1.403 . S
C200 C233 1.439 . S
C201 H186 0.930 1_655 S
C201 N197 1.319 . S
C201 C199 1.397 . S
C202 C199 1.367 . S
C202 C200 1.403 . S
C202 H209 0.929 . S
N203 Eu168 2.562 1_655 S
N203 C204 1.325 . S
N203 C206 1.351 . S
C204 H190 0.929 . S
C204 N203 1.325 . S
C204 C208 1.416 . S
C205 C206 1.430 . S
C205 C207 1.404 . S
C205 C234 1.387 . S
C206 C198 1.448 . S
C206 N203 1.351 . S
C206 C205 1.430 . S
C207 H196 0.930 . S
C207 C205 1.404 . S
C207 C208 1.366 . S
C208 H187 0.930 . S
C208 C204 1.416 . S
C208 C207 1.366 . S
H209 C202 0.929 . S
H210 C233 0.931 . S
H211 C234 0.931 . S
O212 Eu168 2.462 . S
O212 C232 1.252 . S
O213 Eu168 2.373 1_655 S
O213 C224 1.249 . S
O214 Eu179 2.335 1_655 S
O214 C224 1.264 . S
O215 Eu168 2.432 . S
O215 C232 1.268 . S
O216 Eu168 2.291 . S
O216 C231 1.255 . S
O217 Eu179 2.372 . S
O217 C231 1.257 . S
O218 Eu179 2.462 . S
O218 C243 1.252 . S
O219 Eu179 2.373 . S
O219 C235 1.249 . S
O220 Eu168 2.335 . S
O220 C235 1.264 . S
O221 Eu179 2.432 . S
O221 C243 1.268 . S
O222 Eu179 2.291 . S
O222 C242 1.255 . S
O223 Eu168 2.372 . S
O223 C242 1.257 . S
C224 O213 1.249 . S
C224 O214 1.264 . S
C225 C228 1.382 . S
C225 C230 1.390 . S
C225 C232 1.506 . S
C226 C227 1.398 . S
C226 C230 1.392 . S
C227 C226 1.398 . S
C227 C229 1.372 . S
C227 H244 0.931 . S
C228 C225 1.382 . S
C228 C229 1.390 . S
C228 H245 0.931 . S
C229 C227 1.372 . S
C229 C228 1.390 . S
C229 H246 0.929 . S
C230 C225 1.390 . S
C230 C226 1.392 . S
C230 H247 0.930 . S
C231 O216 1.255 . S
C231 O217 1.257 . S
C232 Eu168 2.787 . S
C232 O212 1.252 . S
C232 O215 1.268 . S
C232 C225 1.506 . S
C233 C200 1.439 . S
C233 H210 0.931 . S
C233 C234 1.374 . S
C234 C205 1.387 . S
C234 H211 0.931 . S
C234 C233 1.374 . S
C235 O219 1.249 . S
C235 O220 1.264 . S
C236 C239 1.382 . S
C236 C240 1.390 . S
C236 C243 1.506 1_655 S
C237 C238 1.398 . S
C237 C240 1.392 . S
C238 C237 1.398 . S
C238 C241 1.372 . S
C238 H248 0.931 . S
C239 C236 1.382 . S
C239 C241 1.390 . S
C239 H249 0.931 . S
C240 C236 1.390 . S
C240 C237 1.392 . S
C240 H250 0.930 . S
C241 C238 1.372 . S
C241 C239 1.390 . S
C241 H251 0.929 . S
C242 O222 1.255 . S
C242 O223 1.257 . S
C243 Eu179 2.787 . S
C243 O218 1.252 . S
C243 O221 1.268 . S
C243 C236 1.506 1_455 S
H244 C227 0.931 . S
H245 C228 0.931 . S
H246 C229 0.929 . S
H247 C230 0.930 . S
H248 C238 0.931 . S
H249 C239 0.931 . S
H250 C240 0.930 . S
H251 C241 0.929 . S
Eu252 N281 2.600 . S
Eu252 N287 2.562 . S
Eu252 O296 2.462 . S
Eu252 O297 2.373 . S
Eu252 O299 2.432 . S
Eu252 O300 2.291 . S
Eu252 O304 2.335 1_655 S
Eu252 O307 2.372 . S
Eu252 C316 2.787 . S
C253 N254 1.365 . S
C253 C256 1.405 . S
C253 C260 1.448 . S
N254 C253 1.365 . S
N254 C257 1.319 . S
N254 Eu263 2.600 1_455 S
C255 C257 1.397 . S
C255 C258 1.367 . S
C255 H275 0.931 . S
C256 C253 1.405 . S
C256 C258 1.403 . S
C256 C262 1.439 . S
C257 N254 1.319 . S
C257 C255 1.397 . S
C257 H268 0.930 1_455 S
C258 C255 1.367 . S
C258 C256 1.403 . S
C258 H279 0.929 . S
C259 C260 1.430 . S
C259 C261 1.387 . S
C259 C265 1.404 . S
C260 C253 1.448 . S
C260 C259 1.430 . S
C260 N264 1.351 . S
C261 C259 1.387 . S
C261 C262 1.374 . S
C261 H276 0.931 . S
C262 C256 1.439 . S
C262 C261 1.374 . S
C262 H277 0.931 . S
Eu263 N254 2.600 1_655 S
Eu263 N264 2.562 1_655 S
Eu263 O298 2.335 . S
Eu263 O301 2.372 . S
Eu263 O302 2.462 . S
Eu263 O303 2.373 1_655 S
Eu263 O305 2.432 . S
Eu263 O306 2.291 . S
Eu263 C327 2.787 . S
N264 C260 1.351 . S
N264 Eu263 2.562 1_455 S
N264 C266 1.325 . S
C265 C259 1.404 . S
C265 C267 1.366 . S
C265 H273 0.930 . S
C266 N264 1.325 . S
C266 C267 1.416 . S
C266 H272 0.929 . S
C267 C265 1.366 . S
C267 C266 1.416 . S
C267 H269 0.930 . S
H268 C257 0.930 1_655 S
H269 C267 0.930 . S
H270 C285 0.930 . S
H271 C292 0.930 . S
H272 C266 0.929 . S
H273 C265 0.930 . S
H274 C288 0.929 . S
H275 C255 0.931 . S
H276 C261 0.931 . S
H277 C262 0.931 . S
H278 C283 0.931 . S
H279 C258 0.929 . S
H280 C291 0.930 . S
N281 Eu252 2.600 . S
N281 C282 1.365 . S
N281 C285 1.319 . S
C282 N281 1.365 . S
C282 C284 1.405 . S
C282 C290 1.448 . S
C283 H278 0.931 . S
C283 C285 1.397 . S
C283 C286 1.367 . S
C284 C282 1.405 . S
C284 C286 1.403 . S
C284 C317 1.439 . S
C285 H270 0.930 . S
C285 N281 1.319 . S
C285 C283 1.397 . S
C286 C283 1.367 . S
C286 C284 1.403 . S
C286 H293 0.929 . S
N287 Eu252 2.562 . S
N287 C288 1.325 . S
N287 C290 1.351 . S
C288 H274 0.929 . S
C288 N287 1.325 . S
C288 C292 1.416 . S
C289 C290 1.430 . S
C289 C291 1.404 . S
C289 C318 1.387 . S
C290 C282 1.448 . S
C290 N287 1.351 . S
C290 C289 1.430 . S
C291 H280 0.930 . S
C291 C289 1.404 . S
C291 C292 1.366 . S
C292 H271 0.930 . S
C292 C288 1.416 . S
C292 C291 1.366 . S
H293 C286 0.929 . S
H294 C317 0.931 . S
H295 C318 0.931 . S
O296 Eu252 2.462 . S
O296 C316 1.252 . S
O297 Eu252 2.373 . S
O297 C308 1.249 . S
O298 Eu263 2.335 . S
O298 C308 1.264 . S
O299 Eu252 2.432 . S
O299 C316 1.268 . S
O300 Eu252 2.291 . S
O300 C315 1.255 . S
O301 Eu263 2.372 . S
O301 C315 1.257 . S
O302 Eu263 2.462 . S
O302 C327 1.252 . S
O303 Eu263 2.373 1_455 S
O303 C319 1.249 . S
O304 Eu252 2.335 1_455 S
O304 C319 1.264 . S
O305 Eu263 2.432 . S
O305 C327 1.268 . S
O306 Eu263 2.291 . S
O306 C326 1.255 . S
O307 Eu252 2.372 . S
O307 C326 1.257 . S
C308 O297 1.249 . S
C308 O298 1.264 . S
C309 C312 1.382 . S
C309 C314 1.390 . S
C309 C316 1.506 1_455 S
C310 C311 1.398 . S
C310 C314 1.392 . S
C311 C310 1.398 . S
C311 C313 1.372 . S
C311 H328 0.931 . S
C312 C309 1.382 . S
C312 C313 1.390 . S
C312 H329 0.931 . S
C313 C311 1.372 . S
C313 C312 1.390 . S
C313 H330 0.929 . S
C314 C309 1.390 . S
C314 C310 1.392 . S
C314 H331 0.930 . S
C315 O300 1.255 . S
C315 O301 1.257 . S
C316 Eu252 2.787 . S
C316 O296 1.252 . S
C316 O299 1.268 . S
C316 C309 1.506 1_655 S
C317 C284 1.439 . S
C317 H294 0.931 . S
C317 C318 1.374 . S
C318 C289 1.387 . S
C318 H295 0.931 . S
C318 C317 1.374 . S
C319 O303 1.249 . S
C319 O304 1.264 . S
C320 C323 1.382 . S
C320 C324 1.390 . S
C320 C327 1.506 . S
C321 C322 1.398 . S
C321 C324 1.392 . S
C322 C321 1.398 . S
C322 C325 1.372 . S
C322 H332 0.931 . S
C323 C320 1.382 . S
C323 C325 1.390 . S
C323 H333 0.931 . S
C324 C320 1.390 . S
C324 C321 1.392 . S
C324 H334 0.930 . S
C325 C322 1.372 . S
C325 C323 1.390 . S
C325 H335 0.929 . S
C326 O306 1.255 . S
C326 O307 1.257 . S
C327 Eu263 2.787 . S
C327 O302 1.252 . S
C327 O305 1.268 . S
C327 C320 1.506 . S
H328 C311 0.931 . S
H329 C312 0.931 . S
H330 C313 0.929 . S
H331 C314 0.930 . S
H332 C322 0.931 . S
H333 C323 0.931 . S
H334 C324 0.930 . S
H335 C325 0.929 . S
Eu336 N365 2.600 1_554 S
Eu336 N371 2.562 . S
Eu336 O380 2.462 . S
Eu336 O381 2.373 . S
Eu336 O383 2.432 1_554 S
Eu336 O384 2.291 . S
Eu336 O388 2.335 . S
Eu336 O391 2.372 1_554 S
Eu336 C400 2.787 . S
C337 N338 1.365 . S
C337 C340 1.405 . S
C337 C344 1.448 . S
N338 C337 1.365 . S
N338 C341 1.319 . S
N338 Eu347 2.600 . S
C339 C341 1.397 . S
C339 C342 1.367 . S
C339 H359 0.931 . S
C340 C337 1.405 . S
C340 C342 1.403 . S
C340 C346 1.439 . S
C341 N338 1.319 . S
C341 C339 1.397 . S
C341 H352 0.930 . S
C342 C339 1.367 . S
C342 C340 1.403 . S
C342 H363 0.929 . S
C343 C344 1.430 . S
C343 C345 1.387 . S
C343 C349 1.404 . S
C344 C337 1.448 . S
C344 C343 1.430 . S
C344 N348 1.351 . S
C345 C343 1.387 . S
C345 C346 1.374 . S
C345 H360 0.931 . S
C346 C340 1.439 . S
C346 C345 1.374 . S
C346 H361 0.931 . S
Eu347 N338 2.600 . S
Eu347 N348 2.562 . S
Eu347 O382 2.335 . S
Eu347 O385 2.372 . S
Eu347 O386 2.462 . S
Eu347 O387 2.373 . S
Eu347 O389 2.432 . S
Eu347 O390 2.291 1_554 S
Eu347 C411 2.787 . S
N348 C344 1.351 . S
N348 Eu347 2.562 . S
N348 C350 1.325 1_554 S
C349 C343 1.404 . S
C349 C351 1.366 1_554 S
C349 H357 0.930 . S
C350 N348 1.325 1_556 S
C350 C351 1.416 . S
C350 H356 0.929 . S
C351 C349 1.366 1_556 S
C351 C350 1.416 . S
C351 H353 0.930 . S
H352 C341 0.930 . S
H353 C351 0.930 . S
H354 C369 0.930 . S
H355 C376 0.930 . S
H356 C350 0.929 . S
H357 C349 0.930 . S
H358 C372 0.929 . S
H359 C339 0.931 . S
H360 C345 0.931 . S
H361 C346 0.931 . S
H362 C367 0.931 . S
H363 C342 0.929 . S
H364 C375 0.930 . S
N365 Eu336 2.600 1_556 S
N365 C366 1.365 . S
N365 C369 1.319 . S
C366 N365 1.365 . S
C366 C368 1.405 . S
C366 C374 1.448 . S
C367 H362 0.931 . S
C367 C369 1.397 . S
C367 C370 1.367 . S
C368 C366 1.405 . S
C368 C370 1.403 . S
C368 C401 1.439 . S
C369 H354 0.930 . S
C369 N365 1.319 . S
C369 C367 1.397 . S
C370 C367 1.367 . S
C370 C368 1.403 . S
C370 H377 0.929 . S
N371 Eu336 2.562 . S
N371 C372 1.325 . S
N371 C374 1.351 1_554 S
C372 H358 0.929 . S
C372 N371 1.325 . S
C372 C376 1.416 . S
C373 C374 1.425 1_554 S
C373 C375 1.417 . S
C373 C402 1.379 1_554 S
C374 C366 1.448 . S
C374 N371 1.351 1_556 S
C374 C373 1.425 1_556 S
C375 H364 0.930 . S
C375 C373 1.417 . S
C375 C376 1.366 . S
C376 H355 0.930 . S
C376 C372 1.416 . S
C376 C375 1.366 . S
H377 C370 0.929 . S
H378 C401 0.931 . S
H379 C402 0.931 . S
O380 Eu336 2.462 . S
O380 C400 1.252 . S
O381 Eu336 2.373 . S
O381 C392 1.249 . S
O382 Eu347 2.335 . S
O382 C392 1.264 . S
O383 Eu336 2.432 1_556 S
O383 C400 1.268 1_556 S
O384 Eu336 2.291 . S
O384 C399 1.255 . S
O385 Eu347 2.372 . S
O385 C399 1.257 . S
O386 Eu347 2.462 . S
O386 C411 1.252 . S
O387 Eu347 2.373 . S
O387 C403 1.249 . S
O388 Eu336 2.335 . S
O388 C403 1.264 . S
O389 Eu347 2.432 . S
O389 C411 1.268 . S
O390 Eu347 2.291 1_556 S
O390 C410 1.255 . S
O391 Eu336 2.372 1_556 S
O391 C410 1.257 . S
C392 O381 1.249 . S
C392 O382 1.264 . S
C393 C396 1.382 1_554 S
C393 C398 1.390 . S
C393 C400 1.506 . S
C394 C395 1.398 . S
C394 C398 1.392 . S
C395 C394 1.398 . S
C395 C397 1.372 1_554 S
C395 H412 0.928 . S
C396 C393 1.382 1_556 S
C396 C397 1.390 . S
C396 H413 0.931 . S
C397 C395 1.372 1_556 S
C397 C396 1.390 . S
C397 H414 0.929 . S
C398 C393 1.390 . S
C398 C394 1.392 . S
C398 H415 0.930 . S
C399 O384 1.255 . S
C399 O385 1.257 . S
C400 Eu336 2.787 . S
C400 O380 1.252 . S
C400 O383 1.268 1_554 S
C400 C393 1.506 . S
C401 C368 1.439 . S
C401 H378 0.931 . S
C401 C402 1.374 . S
C402 C373 1.379 1_556 S
C402 H379 0.931 . S
C402 C401 1.374 . S
C403 O387 1.249 . S
C403 O388 1.264 . S
C404 C407 1.382 . S
C404 C408 1.390 . S
C404 C411 1.506 . S
C405 C406 1.398 . S
C405 C408 1.392 . S
C406 C405 1.398 . S
C406 C409 1.372 . S
C406 H416 0.931 . S
C407 C404 1.382 . S
C407 C409 1.390 . S
C407 H417 0.931 . S
C408 C404 1.390 . S
C408 C405 1.392 . S
C408 H418 0.930 1_554 S
C409 C406 1.372 . S
C409 C407 1.390 . S
C409 H419 0.929 . S
C410 O390 1.255 . S
C410 O391 1.257 . S
C411 Eu347 2.787 . S
C411 O386 1.252 . S
C411 O389 1.268 . S
C411 C404 1.506 . S
H412 C395 0.928 . S
H413 C396 0.931 . S
H414 C397 0.929 . S
H415 C398 0.930 . S
H416 C406 0.931 . S
H417 C407 0.931 . S
H418 C408 0.930 1_556 S
H419 C409 0.929 . S
Eu420 N449 2.600 1_554 S
Eu420 N455 2.562 . S
Eu420 O464 2.462 . S
Eu420 O465 2.373 . S
Eu420 O467 2.432 1_554 S
Eu420 O468 2.291 . S
Eu420 O472 2.335 . S
Eu420 O475 2.372 1_554 S
Eu420 C484 2.787 . S
C421 N422 1.365 . S
C421 C424 1.405 . S
C421 C428 1.448 . S
N422 C421 1.365 . S
N422 C425 1.319 . S
N422 Eu431 2.600 . S
C423 C425 1.397 . S
C423 C426 1.367 . S
C423 H443 0.931 . S
C424 C421 1.405 . S
C424 C426 1.403 . S
C424 C430 1.439 . S
C425 N422 1.319 . S
C425 C423 1.397 . S
C425 H436 0.930 . S
C426 C423 1.367 . S
C426 C424 1.403 . S
C426 H447 0.929 . S
C427 C428 1.430 . S
C427 C429 1.387 . S
C427 C433 1.404 1_554 S
C428 C421 1.448 . S
C428 C427 1.430 . S
C428 N432 1.351 1_554 S
C429 C427 1.387 . S
C429 C430 1.374 . S
C429 H444 0.931 . S
C430 C424 1.439 . S
C430 C429 1.374 . S
C430 H445 0.931 . S
Eu431 N422 2.600 . S
Eu431 N432 2.562 1_554 S
Eu431 O466 2.335 . S
Eu431 O469 2.372 . S
Eu431 O470 2.462 1_554 S
Eu431 O471 2.373 . S
Eu431 O473 2.432 . S
Eu431 O474 2.291 1_554 S
Eu431 C495 2.787 . S
N432 C428 1.351 1_556 S
N432 Eu431 2.562 1_556 S
N432 C434 1.325 . S
C433 C427 1.404 1_556 S
C433 C435 1.366 . S
C433 H441 0.930 . S
C434 N432 1.325 . S
C434 C435 1.416 . S
C434 H440 0.929 . S
C435 C433 1.366 . S
C435 C434 1.416 . S
C435 H437 0.930 . S
H436 C425 0.930 . S
H437 C435 0.930 . S
H438 C453 0.930 . S
H439 C460 0.930 . S
H440 C434 0.929 . S
H441 C433 0.930 . S
H442 C456 0.929 . S
H443 C423 0.931 . S
H444 C429 0.931 . S
H445 C430 0.931 . S
H446 C451 0.931 . S
H447 C426 0.929 . S
H448 C459 0.930 . S
N449 Eu420 2.600 1_556 S
N449 C450 1.365 . S
N449 C453 1.319 . S
C450 N449 1.365 . S
C450 C452 1.405 . S
C450 C458 1.448 1_556 S
C451 H446 0.931 . S
C451 C453 1.397 . S
C451 C454 1.367 . S
C452 C450 1.405 . S
C452 C454 1.403 . S
C452 C485 1.439 . S
C453 H438 0.930 . S
C453 N449 1.319 . S
C453 C451 1.397 . S
C454 C451 1.367 . S
C454 C452 1.403 . S
C454 H461 0.929 . S
N455 Eu420 2.562 . S
N455 C456 1.325 . S
N455 C458 1.351 . S
C456 H442 0.929 . S
C456 N455 1.325 . S
C456 C460 1.416 . S
C457 C458 1.430 . S
C457 C459 1.404 . S
C457 C486 1.387 . S
C458 C450 1.448 1_554 S
C458 N455 1.351 . S
C458 C457 1.430 . S
C459 H448 0.930 . S
C459 C457 1.404 . S
C459 C460 1.366 . S
C460 H439 0.930 . S
C460 C456 1.416 . S
C460 C459 1.366 . S
H461 C454 0.929 . S
H462 C485 0.931 . S
H463 C486 0.931 . S
O464 Eu420 2.462 . S
O464 C484 1.252 . S
O465 Eu420 2.373 . S
O465 C476 1.249 . S
O466 Eu431 2.335 . S
O466 C476 1.264 . S
O467 Eu420 2.432 1_556 S
O467 C484 1.268 1_556 S
O468 Eu420 2.291 . S
O468 C483 1.255 . S
O469 Eu431 2.372 . S
O469 C483 1.257 . S
O470 Eu431 2.462 1_556 S
O470 C495 1.252 1_556 S
O471 Eu431 2.373 . S
O471 C487 1.249 . S
O472 Eu420 2.335 . S
O472 C487 1.264 . S
O473 Eu431 2.432 . S
O473 C495 1.268 . S
O474 Eu431 2.291 1_556 S
O474 C494 1.255 . S
O475 Eu420 2.372 1_556 S
O475 C494 1.257 . S
C476 O465 1.249 . S
C476 O466 1.264 . S
C477 C480 1.382 . S
C477 C482 1.390 . S
C477 C484 1.506 . S
C478 C479 1.398 . S
C478 C482 1.392 . S
C479 C478 1.398 . S
C479 C481 1.372 . S
C479 H496 0.931 . S
C480 C477 1.382 . S
C480 C481 1.390 . S
C480 H497 0.931 1_554 S
C481 C479 1.372 . S
C481 C480 1.390 . S
C481 H498 0.929 1_554 S
C482 C477 1.390 . S
C482 C478 1.392 . S
C482 H499 0.930 . S
C483 O468 1.255 . S
C483 O469 1.257 . S
C484 Eu420 2.787 . S
C484 O464 1.252 . S
C484 O467 1.268 1_554 S
C484 C477 1.506 . S
C485 C452 1.439 . S
C485 H462 0.931 . S
C485 C486 1.374 1_556 S
C486 C457 1.387 . S
C486 H463 0.931 . S
C486 C485 1.374 1_554 S
C487 O471 1.249 . S
C487 O472 1.264 . S
C488 C491 1.382 . S
C488 C492 1.390 1_554 S
C488 C495 1.506 . S
C489 C490 1.398 . S
C489 C492 1.392 . S
C490 C489 1.398 . S
C490 C493 1.372 1_556 S
C490 H500 0.931 . S
C491 C488 1.382 . S
C491 C493 1.390 . S
C491 H501 0.931 . S
C492 C488 1.390 1_556 S
C492 C489 1.392 . S
C492 H502 0.930 . S
C493 C490 1.372 1_554 S
C493 C491 1.390 . S
C493 H503 0.929 . S
C494 O474 1.255 . S
C494 O475 1.257 . S
C495 Eu431 2.787 . S
C495 O470 1.252 1_554 S
C495 O473 1.268 . S
C495 C488 1.506 . S
H496 C479 0.931 . S
H497 C480 0.931 1_556 S
H498 C481 0.929 1_556 S
H499 C482 0.930 . S
H500 C490 0.931 . S
H501 C491 0.931 . S
H502 C492 0.930 . S
H503 C493 0.929 . S
Eu504 N533 2.600 . S
Eu504 N539 2.562 . S
Eu504 O548 2.462 . S
Eu504 O549 2.373 . S
Eu504 O551 2.432 . S
Eu504 O552 2.291 . S
Eu504 O556 2.335 . S
Eu504 O559 2.372 . S
Eu504 C568 2.787 . S
C505 N506 1.365 . S
C505 C508 1.405 . S
C505 C512 1.448 . S
N506 C505 1.365 . S
N506 C509 1.319 . S
N506 Eu515 2.600 . S
C507 C509 1.397 . S
C507 C510 1.367 . S
C507 H527 0.931 . S
C508 C505 1.405 . S
C508 C510 1.403 . S
C508 C514 1.439 . S
C509 N506 1.319 . S
C509 C507 1.397 . S
C509 H520 0.930 . S
C510 C507 1.367 . S
C510 C508 1.403 . S
C510 H531 0.929 . S
C511 C512 1.430 . S
C511 C513 1.387 . S
C511 C517 1.404 . S
C512 C505 1.448 . S
C512 C511 1.430 . S
C512 N516 1.351 . S
C513 C511 1.387 . S
C513 C514 1.374 . S
C513 H528 0.931 . S
C514 C508 1.439 . S
C514 C513 1.374 . S
C514 H529 0.931 . S
Eu515 N506 2.600 . S
Eu515 N516 2.562 . S
Eu515 O550 2.335 . S
Eu515 O553 2.372 . S
Eu515 O554 2.462 . S
Eu515 O555 2.373 . S
Eu515 O557 2.432 . S
Eu515 O558 2.291 . S
Eu515 C579 2.787 . S
N516 C512 1.351 . S
N516 Eu515 2.562 . S
N516 C518 1.325 . S
C517 C511 1.404 . S
C517 C519 1.366 . S
C517 H525 0.930 . S
C518 N516 1.325 . S
C518 C519 1.416 . S
C518 H524 0.929 . S
C519 C517 1.366 . S
C519 C518 1.416 . S
C519 H521 0.930 . S
H520 C509 0.930 . S
H521 C519 0.930 . S
H522 C537 0.930 . S
H523 C544 0.930 . S
H524 C518 0.929 . S
H525 C517 0.930 . S
H526 C540 0.929 . S
H527 C507 0.931 . S
H528 C513 0.931 . S
H529 C514 0.931 . S
H530 C535 0.931 . S
H531 C510 0.929 . S
H532 C543 0.930 . S
N533 Eu504 2.600 . S
N533 C534 1.365 . S
N533 C537 1.319 . S
C534 N533 1.365 . S
C534 C536 1.405 . S
C534 C542 1.448 . S
C535 H530 0.931 . S
C535 C537 1.397 . S
C535 C538 1.367 . S
C536 C534 1.405 . S
C536 C538 1.403 . S
C536 C569 1.439 . S
C537 H522 0.930 . S
C537 N533 1.319 . S
C537 C535 1.397 . S
C538 C535 1.367 . S
C538 C536 1.403 . S
C538 H545 0.929 . S
N539 Eu504 2.562 . S
N539 C540 1.325 . S
N539 C542 1.351 . S
C540 H526 0.929 . S
C540 N539 1.325 . S
C540 C544 1.416 . S
C541 C542 1.430 . S
C541 C543 1.404 . S
C541 C570 1.387 . S
C542 C534 1.448 . S
C542 N539 1.351 . S
C542 C541 1.430 . S
C543 H532 0.930 . S
C543 C541 1.404 . S
C543 C544 1.366 . S
C544 H523 0.930 . S
C544 C540 1.416 . S
C544 C543 1.366 . S
H545 C538 0.929 . S
H546 C569 0.931 . S
H547 C570 0.931 . S
O548 Eu504 2.462 . S
O548 C568 1.252 . S
O549 Eu504 2.373 . S
O549 C560 1.249 . S
O550 Eu515 2.335 . S
O550 C560 1.264 . S
O551 Eu504 2.432 . S
O551 C568 1.268 . S
O552 Eu504 2.291 . S
O552 C567 1.255 . S
O553 Eu515 2.372 . S
O553 C567 1.257 . S
O554 Eu515 2.462 . S
O554 C579 1.252 . S
O555 Eu515 2.373 . S
O555 C571 1.249 . S
O556 Eu504 2.335 . S
O556 C571 1.264 . S
O557 Eu515 2.432 . S
O557 C579 1.268 . S
O558 Eu515 2.291 . S
O558 C578 1.255 . S
O559 Eu504 2.372 . S
O559 C578 1.257 . S
C560 O549 1.249 . S
C560 O550 1.264 . S
C561 C564 1.382 . S
C561 C566 1.390 . S
C561 C568 1.506 . S
C562 C563 1.398 . S
C562 C566 1.392 . S
C563 C562 1.398 . S
C563 C565 1.372 . S
C563 H580 0.931 . S
C564 C561 1.382 . S
C564 C565 1.390 . S
C564 H581 0.931 . S
C565 C563 1.372 . S
C565 C564 1.390 . S
C565 H582 0.929 . S
C566 C561 1.390 . S
C566 C562 1.392 . S
C566 H583 0.930 . S
C567 O552 1.255 . S
C567 O553 1.257 . S
C568 Eu504 2.787 . S
C568 O548 1.252 . S
C568 O551 1.268 . S
C568 C561 1.506 . S
C569 C536 1.439 . S
C569 H546 0.931 . S
C569 C570 1.374 . S
C570 C541 1.387 . S
C570 H547 0.931 . S
C570 C569 1.374 . S
C571 O555 1.249 . S
C571 O556 1.264 . S
C572 C575 1.382 . S
C572 C576 1.390 . S
C572 C579 1.506 . S
C573 C574 1.398 . S
C573 C576 1.392 . S
C574 C573 1.398 . S
C574 C577 1.372 . S
C574 H584 0.931 . S
C575 C572 1.382 . S
C575 C577 1.390 . S
C575 H585 0.931 . S
C576 C572 1.390 . S
C576 C573 1.392 . S
C576 H586 0.930 . S
C577 C574 1.372 . S
C577 C575 1.390 . S
C577 H587 0.929 . S
C578 O558 1.255 . S
C578 O559 1.257 . S
C579 Eu515 2.787 . S
C579 O554 1.252 . S
C579 O557 1.268 . S
C579 C572 1.506 . S
H580 C563 0.931 . S
H581 C564 0.931 . S
H582 C565 0.929 . S
H583 C566 0.930 . S
H584 C574 0.931 . S
H585 C575 0.931 . S
H586 C576 0.930 . S
H587 C577 0.929 . S
Eu588 N617 2.600 . S
Eu588 N623 2.562 . S
Eu588 O632 2.462 . S
Eu588 O633 2.373 . S
Eu588 O635 2.432 . S
Eu588 O636 2.291 . S
Eu588 O640 2.335 . S
Eu588 O643 2.372 . S
Eu588 C652 2.787 . S
C589 N590 1.365 . S
C589 C592 1.405 . S
C589 C596 1.448 . S
N590 C589 1.365 . S
N590 C593 1.319 . S
N590 Eu599 2.600 . S
C591 C593 1.397 . S
C591 C594 1.367 . S
C591 H611 0.931 . S
C592 C589 1.405 . S
C592 C594 1.403 . S
C592 C598 1.439 . S
C593 N590 1.319 . S
C593 C591 1.397 . S
C593 H604 0.930 . S
C594 C591 1.367 . S
C594 C592 1.403 . S
C594 H615 0.929 . S
C595 C596 1.430 . S
C595 C597 1.387 . S
C595 C601 1.404 . S
C596 C589 1.448 . S
C596 C595 1.430 . S
C596 N600 1.351 . S
C597 C595 1.387 . S
C597 C598 1.374 . S
C597 H612 0.931 . S
C598 C592 1.439 . S
C598 C597 1.374 . S
C598 H613 0.931 . S
Eu599 N590 2.600 . S
Eu599 N600 2.562 . S
Eu599 O634 2.335 . S
Eu599 O637 2.372 . S
Eu599 O638 2.462 . S
Eu599 O639 2.373 . S
Eu599 O641 2.432 . S
Eu599 O642 2.291 . S
Eu599 C663 2.787 . S
N600 C596 1.351 . S
N600 Eu599 2.562 . S
N600 C602 1.325 . S
C601 C595 1.404 . S
C601 C603 1.366 . S
C601 H609 0.930 . S
C602 N600 1.325 . S
C602 C603 1.416 . S
C602 H608 0.929 . S
C603 C601 1.366 . S
C603 C602 1.416 . S
C603 H605 0.930 . S
H604 C593 0.930 . S
H605 C603 0.930 . S
H606 C621 0.930 . S
H607 C628 0.930 . S
H608 C602 0.929 . S
H609 C601 0.930 . S
H610 C624 0.929 . S
H611 C591 0.931 . S
H612 C597 0.931 . S
H613 C598 0.931 . S
H614 C619 0.931 . S
H615 C594 0.929 . S
H616 C627 0.930 . S
N617 Eu588 2.600 . S
N617 C618 1.365 . S
N617 C621 1.319 . S
C618 N617 1.365 . S
C618 C620 1.405 . S
C618 C626 1.448 . S
C619 H614 0.931 . S
C619 C621 1.397 . S
C619 C622 1.367 . S
C620 C618 1.405 . S
C620 C622 1.403 . S
C620 C653 1.439 . S
C621 H606 0.930 . S
C621 N617 1.319 . S
C621 C619 1.397 . S
C622 C619 1.367 . S
C622 C620 1.403 . S
C622 H629 0.929 . S
N623 Eu588 2.562 . S
N623 C624 1.325 . S
N623 C626 1.351 . S
C624 H610 0.929 . S
C624 N623 1.325 . S
C624 C628 1.416 . S
C625 C626 1.430 . S
C625 C627 1.404 . S
C625 C654 1.387 . S
C626 C618 1.448 . S
C626 N623 1.351 . S
C626 C625 1.430 . S
C627 H616 0.930 . S
C627 C625 1.404 . S
C627 C628 1.366 . S
C628 H607 0.930 . S
C628 C624 1.416 . S
C628 C627 1.366 . S
H629 C622 0.929 . S
H630 C653 0.931 . S
H631 C654 0.931 . S
O632 Eu588 2.462 . S
O632 C652 1.252 . S
O633 Eu588 2.373 . S
O633 C644 1.249 . S
O634 Eu599 2.335 . S
O634 C644 1.264 . S
O635 Eu588 2.432 . S
O635 C652 1.268 . S
O636 Eu588 2.291 . S
O636 C651 1.255 . S
O637 Eu599 2.372 . S
O637 C651 1.257 . S
O638 Eu599 2.462 . S
O638 C663 1.252 . S
O639 Eu599 2.373 . S
O639 C655 1.249 . S
O640 Eu588 2.335 . S
O640 C655 1.264 . S
O641 Eu599 2.432 . S
O641 C663 1.268 . S
O642 Eu599 2.291 . S
O642 C662 1.255 . S
O643 Eu588 2.372 . S
O643 C662 1.257 . S
C644 O633 1.249 . S
C644 O634 1.264 . S
C645 C648 1.382 . S
C645 C650 1.390 . S
C645 C652 1.506 . S
C646 C647 1.398 . S
C646 C650 1.392 . S
C647 C646 1.398 . S
C647 C649 1.372 . S
C647 H664 0.931 . S
C648 C645 1.382 . S
C648 C649 1.390 . S
C648 H665 0.931 . S
C649 C647 1.372 . S
C649 C648 1.390 . S
C649 H666 0.929 . S
C650 C645 1.390 . S
C650 C646 1.392 . S
C650 H667 0.930 . S
C651 O636 1.255 . S
C651 O637 1.257 . S
C652 Eu588 2.787 . S
C652 O632 1.252 . S
C652 O635 1.268 . S
C652 C645 1.506 . S
C653 C620 1.439 . S
C653 H630 0.931 . S
C653 C654 1.374 . S
C654 C625 1.387 . S
C654 H631 0.931 . S
C654 C653 1.374 . S
C655 O639 1.249 . S
C655 O640 1.264 . S
C656 C659 1.382 . S
C656 C660 1.390 . S
C656 C663 1.506 . S
C657 C658 1.398 . S
C657 C660 1.392 . S
C658 C657 1.398 . S
C658 C661 1.372 . S
C658 H668 0.931 . S
C659 C656 1.382 . S
C659 C661 1.390 . S
C659 H669 0.931 . S
C660 C656 1.390 . S
C660 C657 1.392 . S
C660 H670 0.930 . S
C661 C658 1.372 . S
C661 C659 1.390 . S
C661 H671 0.929 . S
C662 O642 1.255 . S
C662 O643 1.257 . S
C663 Eu599 2.787 . S
C663 O638 1.252 . S
C663 O641 1.268 . S
C663 C656 1.506 . S
H664 C647 0.931 . S
H665 C648 0.931 . S
H666 C649 0.929 . S
H667 C650 0.930 . S
H668 C658 0.931 . S
H669 C659 0.931 . S
H670 C660 0.930 . S
H671 C661 0.929 . S
C672 C673 1.349 . S
C672 C674 1.327 . S
C672 H697 0.950 . S
C673 C672 1.349 . S
C673 C689 1.343 1_554 S
C674 C672 1.327 . S
C674 C693 1.429 . S
C674 H698 0.950 . S
C675 C692 1.574 . S
C675 C694 1.368 1_556 S
C675 H699 0.949 . S
H676 C680 0.949 . S
C677 C678 1.349 1_556 S
C677 C679 1.327 . S
C677 H700 0.950 . S
C678 C677 1.349 1_554 S
C678 C690 1.349 . S
C679 C677 1.327 . S
C679 C695 1.429 1_556 S
C679 H701 0.950 . S
C680 H676 0.949 . S
C680 C688 1.574 . S
C680 C696 1.368 . S
H681 C689 0.955 . S
H682 C687 0.950 . S
H683 C688 0.949 . S
H684 C690 0.950 . S
H685 C691 0.950 . S
H686 C692 0.949 . S
C687 H682 0.950 . S
C687 C689 1.328 . S
C687 C693 1.429 1_556 S
C688 C680 1.574 . S
C688 H683 0.949 . S
C688 C694 1.368 . S
C689 C673 1.343 1_556 S
C689 H681 0.955 . S
C689 C687 1.328 . S
C690 C678 1.349 . S
C690 H684 0.950 . S
C690 C691 1.327 . S
C691 H685 0.950 . S
C691 C690 1.327 . S
C691 C695 1.429 . S
C692 C675 1.574 . S
C692 H686 0.949 . S
C692 C696 1.368 1_556 S
C693 C674 1.429 . S
C693 C687 1.429 1_554 S
C693 C694 1.523 . S
C694 C675 1.368 1_554 S
C694 C688 1.368 . S
C694 C693 1.523 . S
C695 C679 1.429 1_554 S
C695 C691 1.429 . S
C695 C696 1.523 . S
C696 C680 1.368 . S
C696 C692 1.368 1_554 S
C696 C695 1.523 . S
H697 C672 0.950 . S
H698 C674 0.950 . S
H699 C675 0.949 . S
H700 C677 0.950 . S
H701 C679 0.950 . S
C702 C703 1.349 1_556 S
C702 C704 1.327 . S
C702 H727 0.950 . S
C703 C702 1.349 1_554 S
C703 C719 1.349 . S
C704 C702 1.327 . S
C704 C723 1.429 1_556 S
C704 H728 0.950 . S
C705 C722 1.574 . S
C705 C724 1.368 . S
C705 H729 0.949 . S
H706 C710 0.949 . S
C707 C708 1.349 . S
C707 C709 1.327 . S
C707 H730 0.950 . S
C708 C707 1.349 . S
C708 C720 1.349 1_554 S
C709 C707 1.327 . S
C709 C725 1.429 . S
C709 H731 0.950 . S
C710 H706 0.949 . S
C710 C718 1.574 . S
C710 C726 1.368 1_556 S
H711 C719 0.950 . S
H712 C717 0.950 . S
H713 C718 0.949 . S
H714 C720 0.950 . S
H715 C721 0.950 . S
H716 C722 0.949 . S
C717 H712 0.950 . S
C717 C719 1.327 . S
C717 C723 1.429 . S
C718 C710 1.574 . S
C718 H713 0.949 . S
C718 C724 1.368 1_556 S
C719 C703 1.349 . S
C719 H711 0.950 . S
C719 C717 1.327 . S
C720 C708 1.349 1_556 S
C720 H714 0.950 . S
C720 C721 1.327 . S
C721 H715 0.950 . S
C721 C720 1.327 . S
C721 C725 1.429 1_556 S
C722 C705 1.574 . S
C722 H716 0.949 . S
C722 C726 1.368 . S
C723 C704 1.429 1_554 S
C723 C717 1.429 . S
C723 C724 1.523 . S
C724 C705 1.368 . S
C724 C718 1.368 1_554 S
C724 C723 1.523 . S
C725 C709 1.429 . S
C725 C721 1.429 1_554 S
C725 C726 1.523 . S
C726 C710 1.368 1_554 S
C726 C722 1.368 . S
C726 C725 1.523 . S
H727 C702 0.950 . S
H728 C704 0.950 . S
H729 C705 0.949 . S
H730 C707 0.950 . S
H731 C709 0.950 . S
C732 C733 1.349 . S
C732 C734 1.327 . S
C732 H757 0.950 . S
C733 C732 1.349 . S
C733 C749 1.349 . S
C734 C732 1.327 . S
C734 C753 1.429 . S
C734 H758 0.950 . S
C735 C752 1.574 . S
C735 C754 1.368 . S
C735 H759 0.949 . S
H736 C740 0.949 . S
C737 C738 1.349 . S
C737 C739 1.327 . S
C737 H760 0.950 . S
C738 C737 1.349 . S
C738 C750 1.349 . S
C739 C737 1.327 . S
C739 C755 1.429 . S
C739 H761 0.950 . S
C740 H736 0.949 . S
C740 C748 1.574 . S
C740 C756 1.368 . S
H741 C749 0.950 . S
H742 C747 0.950 . S
H743 C748 0.949 . S
H744 C750 0.950 . S
H745 C751 0.950 . S
H746 C752 0.949 . S
C747 H742 0.950 . S
C747 C749 1.327 . S
C747 C753 1.429 . S
C748 C740 1.574 . S
C748 H743 0.949 . S
C748 C754 1.368 . S
C749 C733 1.349 . S
C749 H741 0.950 . S
C749 C747 1.327 . S
C750 C738 1.349 . S
C750 H744 0.950 . S
C750 C751 1.327 . S
C751 H745 0.950 . S
C751 C750 1.327 . S
C751 C755 1.429 . S
C752 C735 1.574 . S
C752 H746 0.949 . S
C752 C756 1.368 . S
C753 C734 1.429 . S
C753 C747 1.429 . S
C753 C754 1.523 . S
C754 C735 1.368 . S
C754 C748 1.368 . S
C754 C753 1.523 . S
C755 C739 1.429 . S
C755 C751 1.429 . S
C755 C756 1.523 . S
C756 C740 1.368 . S
C756 C752 1.368 . S
C756 C755 1.523 . S
H757 C732 0.950 . S
H758 C734 0.950 . S
H759 C735 0.949 . S
H760 C737 0.950 . S
H761 C739 0.950 . S
C762 C763 1.349 . S
C762 C764 1.327 . S
C762 H787 0.950 . S
C763 C762 1.349 . S
C763 C779 1.349 . S
C764 C762 1.327 . S
C764 C783 1.429 . S
C764 H788 0.950 . S
C765 C782 1.574 . S
C765 C784 1.368 . S
C765 H789 0.949 . S
H766 C770 0.949 . S
C767 C768 1.349 . S
C767 C769 1.327 . S
C767 H790 0.950 . S
C768 C767 1.349 . S
C768 C780 1.349 . S
C769 C767 1.327 . S
C769 C785 1.429 . S
C769 H791 0.950 . S
C770 H766 0.949 . S
C770 C778 1.574 . S
C770 C786 1.368 . S
H771 C779 0.950 . S
H772 C777 0.950 . S
H773 C778 0.949 . S
H774 C780 0.950 . S
H775 C781 0.950 . S
H776 C782 0.949 . S
C777 H772 0.950 . S
C777 C779 1.327 . S
C777 C783 1.429 . S
C778 C770 1.574 . S
C778 H773 0.949 . S
C778 C784 1.368 . S
C779 C763 1.349 . S
C779 H771 0.950 . S
C779 C777 1.327 . S
C780 C768 1.349 . S
C780 H774 0.950 . S
C780 C781 1.327 . S
C781 H775 0.950 . S
C781 C780 1.327 . S
C781 C785 1.429 . S
C782 C765 1.574 . S
C782 H776 0.949 . S
C782 C786 1.368 . S
C783 C764 1.429 . S
C783 C777 1.429 . S
C783 C784 1.523 . S
C784 C765 1.368 . S
C784 C778 1.368 . S
C784 C783 1.523 . S
C785 C769 1.429 . S
C785 C781 1.429 . S
C785 C786 1.523 . S
C786 C770 1.368 . S
C786 C782 1.368 . S
C786 C785 1.523 . S
H787 C762 0.950 . S
H788 C764 0.950 . S
H789 C765 0.949 . S
H790 C767 0.950 . S
H791 C769 0.950 . S
C792 C793 1.349 1_556 S
C792 C794 1.327 . S
C792 H817 0.950 . S
C793 C792 1.349 1_554 S
C793 C809 1.349 . S
C794 C792 1.327 . S
C794 C813 1.429 1_556 S
C794 H818 0.950 . S
C795 C812 1.574 . S
C795 C814 1.368 1_455 S
C795 H819 0.949 . S
H796 C800 0.949 . S
C797 C798 1.349 . S
C797 C799 1.327 . S
C797 H820 0.950 . S
C798 C797 1.349 . S
C798 C810 1.349 1_554 S
C799 C797 1.327 . S
C799 C815 1.429 . S
C799 H821 0.950 . S
C800 H796 0.949 . S
C800 C808 1.574 . S
C800 C816 1.368 1_556 S
H801 C809 0.950 . S
H802 C807 0.950 . S
H803 C808 0.949 1_655 S
H804 C810 0.950 . S
H805 C811 0.950 . S
H806 C812 0.949 . S
C807 H802 0.950 . S
C807 C809 1.327 . S
C807 C813 1.429 . S
C808 C800 1.574 . S
C808 H803 0.949 1_455 S
C808 C814 1.368 1_456 S
C809 C793 1.349 . S
C809 H801 0.950 . S
C809 C807 1.327 . S
C810 C798 1.349 1_556 S
C810 H804 0.950 . S
C810 C811 1.327 . S
C811 H805 0.950 . S
C811 C810 1.327 . S
C811 C815 1.429 1_556 S
C812 C795 1.574 . S
C812 H806 0.949 . S
C812 C816 1.368 . S
C813 C794 1.429 1_554 S
C813 C807 1.429 . S
C813 C814 1.523 . S
C814 C795 1.368 1_655 S
C814 C808 1.368 1_654 S
C814 C813 1.523 . S
C815 C799 1.429 . S
C815 C811 1.429 1_554 S
C815 C816 1.523 . S
C816 C800 1.368 1_554 S
C816 C812 1.368 . S
C816 C815 1.523 . S
H817 C792 0.950 . S
H818 C794 0.950 . S
H819 C795 0.949 . S
H820 C797 0.950 . S
H821 C799 0.950 . S
C822 C823 1.349 . S
C822 C824 1.327 . S
C822 H847 0.950 . S
C823 C822 1.349 . S
C823 C839 1.333 1_554 S
C824 C822 1.327 . S
C824 C843 1.429 . S
C824 H848 0.950 . S
C825 C842 1.574 . S
C825 C844 1.368 1_655 S
C825 H849 0.949 1_554 S
H826 C830 0.949 . S
C827 C828 1.349 . S
C827 C829 1.327 . S
C827 H850 0.950 1_554 S
C828 C827 1.349 . S
C828 C840 1.349 . S
C829 C827 1.327 . S
C829 C845 1.429 . S
C829 H851 0.950 1_554 S
C830 H826 0.949 . S
C830 C838 1.574 . S
C830 C846 1.368 . S
H831 C839 0.969 . S
H832 C837 0.951 . S
H833 C838 0.949 1_455 S
H834 C840 0.950 . S
H835 C841 0.950 . S
H836 C842 0.949 1_556 S
C837 H832 0.951 . S
C837 C839 1.325 . S
C837 C843 1.426 1_556 S
C838 C830 1.574 . S
C838 H833 0.949 1_655 S
C838 C844 1.368 1_655 S
C839 C823 1.333 1_556 S
C839 H831 0.969 . S
C839 C837 1.325 . S
C840 C828 1.349 . S
C840 H834 0.950 . S
C840 C841 1.327 . S
C841 H835 0.950 . S
C841 C840 1.327 . S
C841 C845 1.429 . S
C842 C825 1.574 . S
C842 H836 0.949 1_554 S
C842 C846 1.368 . S
C843 C824 1.429 . S
C843 C837 1.426 1_554 S
C843 C844 1.523 . S
C844 C825 1.368 1_455 S
C844 C838 1.368 1_455 S
C844 C843 1.523 . S
C845 C829 1.429 . S
C845 C841 1.429 . S
C845 C846 1.523 . S
C846 C830 1.368 . S
C846 C842 1.368 . S
C846 C845 1.523 . S
H847 C822 0.950 . S
H848 C824 0.950 . S
H849 C825 0.949 1_556 S
H850 C827 0.950 1_556 S
H851 C829 0.950 1_556 S
C852 C853 1.349 . S
C852 C854 1.327 . S
C852 H877 0.950 . S
C853 C852 1.349 . S
C853 C869 1.349 . S
C854 C852 1.327 . S
C854 C873 1.429 . S
C854 H878 0.950 . S
C855 C872 1.574 . S
C855 C874 1.368 . S
C855 H879 0.949 . S
H856 C860 0.949 1_655 S
C857 C858 1.349 . S
C857 C859 1.327 . S
C857 H880 0.950 . S
C858 C857 1.349 . S
C858 C870 1.349 . S
C859 C857 1.327 . S
C859 C875 1.429 . S
C859 H881 0.950 . S
C860 H856 0.949 1_455 S
C860 C868 1.574 . S
C860 C876 1.368 1_455 S
H861 C869 0.950 . S
H862 C867 0.950 . S
H863 C868 0.949 . S
H864 C870 0.950 . S
H865 C871 0.950 . S
H866 C872 0.949 . S
C867 H862 0.950 . S
C867 C869 1.327 . S
C867 C873 1.429 . S
C868 C860 1.574 . S
C868 H863 0.949 . S
C868 C874 1.368 . S
C869 C853 1.349 . S
C869 H861 0.950 . S
C869 C867 1.327 . S
C870 C858 1.349 . S
C870 H864 0.950 . S
C870 C871 1.327 . S
C871 H865 0.950 . S
C871 C870 1.327 . S
C871 C875 1.429 . S
C872 C855 1.574 . S
C872 H866 0.949 . S
C872 C876 1.368 1_455 S
C873 C854 1.429 . S
C873 C867 1.429 . S
C873 C874 1.523 . S
C874 C855 1.368 . S
C874 C868 1.368 . S
C874 C873 1.523 . S
C875 C859 1.429 . S
C875 C871 1.429 . S
C875 C876 1.523 . S
C876 C860 1.368 1_655 S
C876 C872 1.368 1_655 S
C876 C875 1.523 . S
H877 C852 0.950 . S
H878 C854 0.950 . S
H879 C855 0.949 . S
H880 C857 0.950 . S
H881 C859 0.950 . S
C882 C883 1.349 . S
C882 C884 1.327 . S
C882 H907 0.950 . S
C883 C882 1.349 . S
C883 C899 1.349 . S
C884 C882 1.327 . S
C884 C903 1.429 . S
C884 H908 0.950 . S
C885 C902 1.574 . S
C885 C904 1.368 . S
C885 H909 0.949 . S
H886 C890 0.949 1_455 S
C887 C888 1.349 . S
C887 C889 1.327 . S
C887 H910 0.950 . S
C888 C887 1.349 . S
C888 C900 1.349 . S
C889 C887 1.327 . S
C889 C905 1.429 . S
C889 H911 0.950 . S
C890 H886 0.949 1_655 S
C890 C898 1.574 . S
C890 C906 1.368 1_655 S
H891 C899 0.950 . S
H892 C897 0.950 . S
H893 C898 0.949 . S
H894 C900 0.950 . S
H895 C901 0.950 . S
H896 C902 0.949 . S
C897 H892 0.950 . S
C897 C899 1.327 . S
C897 C903 1.429 . S
C898 C890 1.574 . S
C898 H893 0.949 . S
C898 C904 1.368 . S
C899 C883 1.349 . S
C899 H891 0.950 . S
C899 C897 1.327 . S
C900 C888 1.349 . S
C900 H894 0.950 . S
C900 C901 1.327 . S
C901 H895 0.950 . S
C901 C900 1.327 . S
C901 C905 1.429 . S
C902 C885 1.574 . S
C902 H896 0.949 . S
C902 C906 1.368 1_655 S
C903 C884 1.429 . S
C903 C897 1.429 . S
C903 C904 1.523 . S
C904 C885 1.368 . S
C904 C898 1.368 . S
C904 C903 1.523 . S
C905 C889 1.429 . S
C905 C901 1.429 . S
C905 C906 1.523 . S
C906 C890 1.368 1_455 S
C906 C902 1.368 1_455 S
C906 C905 1.523 . S
H907 C882 0.950 . S
H908 C884 0.950 . S
H909 C885 0.949 . S
H910 C887 0.950 . S
H911 C889 0.950 . S
C912 C913 1.349 1_655 S
C912 C914 1.327 . S
C912 H937 0.950 . S
C913 C912 1.349 1_455 S
C913 C929 1.349 . S
C914 C912 1.327 . S
C914 C933 1.429 1_655 S
C914 H938 0.950 . S
C915 C932 1.574 . S
C915 C934 1.368 . S
C915 H939 0.949 . S
H916 C920 0.949 . S
C917 C918 1.349 1_455 S
C917 C919 1.327 . S
C917 H940 0.950 . S
C918 C917 1.349 1_655 S
C918 C930 1.349 . S
C919 C917 1.327 . S
C919 C935 1.429 1_455 S
C919 H941 0.950 . S
C920 H916 0.949 . S
C920 C928 1.574 . S
C920 C936 1.368 . S
H921 C929 0.950 . S
H922 C927 0.950 . S
H923 C928 0.949 . S
H924 C930 0.950 1_554 S
H925 C931 0.950 1_554 S
H926 C932 0.949 . S
C927 H922 0.950 . S
C927 C929 1.327 . S
C927 C933 1.429 . S
C928 C920 1.574 . S
C928 H923 0.949 . S
C928 C934 1.368 1_655 S
C929 C913 1.349 . S
C929 H921 0.950 . S
C929 C927 1.327 . S
C930 C918 1.349 . S
C930 H924 0.950 1_556 S
C930 C931 1.327 . S
C931 H925 0.950 1_556 S
C931 C930 1.327 . S
C931 C935 1.429 . S
C932 C915 1.574 . S
C932 H926 0.949 . S
C932 C936 1.368 1_455 S
C933 C914 1.429 1_455 S
C933 C927 1.429 . S
C933 C934 1.523 . S
C934 C915 1.368 . S
C934 C928 1.368 1_455 S
C934 C933 1.523 . S
C935 C919 1.429 1_655 S
C935 C931 1.429 . S
C935 C936 1.523 . S
C936 C920 1.368 . S
C936 C932 1.368 1_655 S
C936 C935 1.523 . S
H937 C912 0.950 . S
H938 C914 0.950 . S
H939 C915 0.949 . S
H940 C917 0.950 . S
H941 C919 0.950 . S
C942 C943 1.349 . S
C942 C944 1.327 . S
C942 H967 0.950 . S
C943 C942 1.349 . S
C943 C959 1.349 . S
C944 C942 1.327 . S
C944 C963 1.429 . S
C944 H968 0.950 . S
C945 C962 1.574 . S
C945 C964 1.368 1_655 S
C945 H969 0.949 . S
H946 C950 0.949 . S
C947 C948 1.349 . S
C947 C949 1.327 . S
C947 H970 0.950 . S
C948 C947 1.349 . S
C948 C960 1.349 . S
C949 C947 1.327 . S
C949 C965 1.429 . S
C949 H971 0.950 . S
C950 H946 0.949 . S
C950 C958 1.574 . S
C950 C966 1.368 1_455 S
H951 C959 0.950 1_655 S
H952 C957 0.958 . S
H953 C958 0.949 . S
H954 C960 0.950 1_455 S
H955 C961 0.957 . S
H956 C962 0.949 . S
C957 H952 0.958 . S
C957 C959 1.324 1_655 S
C957 C963 1.424 1_655 S
C958 C950 1.574 . S
C958 H953 0.949 . S
C958 C964 1.368 . S
C959 C943 1.349 . S
C959 H951 0.950 1_455 S
C959 C957 1.324 1_455 S
C960 C948 1.349 . S
C960 H954 0.950 1_655 S
C960 C961 1.324 1_655 S
C961 H955 0.957 . S
C961 C960 1.324 1_455 S
C961 C965 1.424 1_455 S
C962 C945 1.574 . S
C962 H956 0.949 . S
C962 C966 1.368 . S
C963 C944 1.429 . S
C963 C957 1.424 1_455 S
C963 C964 1.523 . S
C964 C945 1.368 1_455 S
C964 C958 1.368 . S
C964 C963 1.523 . S
C965 C949 1.429 . S
C965 C961 1.424 1_655 S
C965 C966 1.523 . S
C966 C950 1.368 1_655 S
C966 C962 1.368 . S
C966 C965 1.523 . S
H967 C942 0.950 . S
H968 C944 0.950 . S
H969 C945 0.949 . S
H970 C947 0.950 . S
H971 C949 0.950 . S
C972 C973 1.349 . S
C972 C974 1.327 . S
C972 H997 0.950 . S
C973 C972 1.349 . S
C973 C989 1.349 1_556 S
C974 C972 1.327 . S
C974 C993 1.429 . S
C974 H998 0.950 . S
C975 C992 1.574 1_565 S
C975 C994 1.368 . S
C975 H999 0.949 1_556 S
H976 C980 0.949 . S
C977 C978 1.349 . S
C977 C979 1.327 . S
C977 H1000 0.950 . S
C978 C977 1.349 . S
C978 C990 1.349 . S
C979 C977 1.327 . S
C979 C995 1.429 . S
C979 H1001 0.950 . S
C980 H976 0.949 . S
C980 C988 1.574 1_545 S
C980 C996 1.368 . S
H981 C989 0.950 . S
H982 C987 0.950 . S
H983 C988 0.949 . S
H984 C990 0.950 . S
H985 C991 0.950 . S
H986 C992 0.950 . S
C987 H982 0.950 . S
C987 C989 1.327 . S
C987 C993 1.429 1_554 S
C988 C980 1.574 1_565 S
C988 H983 0.949 . S
C988 C994 1.368 . S
C989 C973 1.349 1_554 S
C989 H981 0.950 . S
C989 C987 1.327 . S
C990 C978 1.349 . S
C990 H984 0.950 . S
C990 C991 1.327 . S
C991 H985 0.950 . S
C991 C990 1.327 . S
C991 C995 1.429 . S
C992 C975 1.574 1_545 S
C992 H986 0.950 . S
C992 C996 1.368 . S
C993 C974 1.429 . S
C993 C987 1.429 1_556 S
C993 C994 1.523 . S
C994 C975 1.368 . S
C994 C988 1.368 . S
C994 C993 1.523 . S
C995 C979 1.429 . S
C995 C991 1.429 . S
C995 C996 1.523 . S
C996 C980 1.368 . S
C996 C992 1.368 . S
C996 C995 1.523 . S
H997 C972 0.950 . S
H998 C974 0.950 . S
H999 C975 0.949 1_554 S
H1000 C977 0.950 . S
H1001 C979 0.950 . S
C1002 C1003 1.349 . S
C1002 C1004 1.327 . S
C1002 H1027 0.950 . S
C1003 C1002 1.349 . S
C1003 C1019 1.349 . S
C1004 C1002 1.327 . S
C1004 C1023 1.429 . S
C1004 H1028 0.950 . S
C1005 C1022 1.574 1_545 S
C1005 C1024 1.368 . S
C1005 H1029 0.949 . S
H1006 C1010 0.949 . S
C1007 C1008 1.349 . S
C1007 C1009 1.327 . S
C1007 H1030 0.950 . S
C1008 C1007 1.349 . S
C1008 C1020 1.349 . S
C1009 C1007 1.327 . S
C1009 C1025 1.429 . S
C1009 H1031 0.950 . S
C1010 H1006 0.949 . S
C1010 C1018 1.574 1_565 S
C1010 C1026 1.368 . S
H1011 C1019 0.950 . S
H1012 C1017 0.950 . S
H1013 C1018 0.949 . S
H1014 C1020 0.950 . S
H1015 C1021 0.950 . S
H1016 C1022 0.949 . S
C1017 H1012 0.950 . S
C1017 C1019 1.327 . S
C1017 C1023 1.429 . S
C1018 C1010 1.574 1_545 S
C1018 H1013 0.949 . S
C1018 C1024 1.368 . S
C1019 C1003 1.349 . S
C1019 H1011 0.950 . S
C1019 C1017 1.327 . S
C1020 C1008 1.349 . S
C1020 H1014 0.950 . S
C1020 C1021 1.327 . S
C1021 H1015 0.950 . S
C1021 C1020 1.327 . S
C1021 C1025 1.429 . S
C1022 C1005 1.574 1_565 S
C1022 H1016 0.949 . S
C1022 C1026 1.368 . S
C1023 C1004 1.429 . S
C1023 C1017 1.429 . S
C1023 C1024 1.523 . S
C1024 C1005 1.368 . S
C1024 C1018 1.368 . S
C1024 C1023 1.523 . S
C1025 C1009 1.429 . S
C1025 C1021 1.429 . S
C1025 C1026 1.523 . S
C1026 C1010 1.368 . S
C1026 C1022 1.368 . S
C1026 C1025 1.523 . S
H1027 C1002 0.950 . S
H1028 C1004 0.950 . S
H1029 C1005 0.949 . S
H1030 C1007 0.950 . S
H1031 C1009 0.950 . S
C1032 C1033 1.349 . S
C1032 C1034 1.327 . S
C1032 H1057 0.950 . S
C1033 C1032 1.349 . S
C1033 C1049 1.349 . S
C1034 C1032 1.327 . S
C1034 C1053 1.429 . S
C1034 H1058 0.950 . S
C1035 C1052 1.574 . S
C1035 C1054 1.368 . S
C1035 H1059 0.949 . S
H1036 C1040 0.949 . S
C1037 C1038 1.349 . S
C1037 C1039 1.327 . S
C1037 H1060 0.950 . S
C1038 C1037 1.349 . S
C1038 C1050 1.349 . S
C1039 C1037 1.327 . S
C1039 C1055 1.429 . S
C1039 H1061 0.950 . S
C1040 H1036 0.949 . S
C1040 C1048 1.574 . S
C1040 C1056 1.368 . S
H1041 C1049 0.950 . S
H1042 C1047 0.950 . S
H1043 C1048 0.949 . S
H1044 C1050 0.950 . S
H1045 C1051 0.950 . S
H1046 C1052 0.949 . S
C1047 H1042 0.950 . S
C1047 C1049 1.327 . S
C1047 C1053 1.429 . S
C1048 C1040 1.574 . S
C1048 H1043 0.949 . S
C1048 C1054 1.368 . S
C1049 C1033 1.349 . S
C1049 H1041 0.950 . S
C1049 C1047 1.327 . S
C1050 C1038 1.349 . S
C1050 H1044 0.950 . S
C1050 C1051 1.327 . S
C1051 H1045 0.950 . S
C1051 C1050 1.327 . S
C1051 C1055 1.429 . S
C1052 C1035 1.574 . S
C1052 H1046 0.949 . S
C1052 C1056 1.368 . S
C1053 C1034 1.429 . S
C1053 C1047 1.429 . S
C1053 C1054 1.523 . S
C1054 C1035 1.368 . S
C1054 C1048 1.368 . S
C1054 C1053 1.523 . S
C1055 C1039 1.429 . S
C1055 C1051 1.429 . S
C1055 C1056 1.523 . S
C1056 C1040 1.368 . S
C1056 C1052 1.368 . S
C1056 C1055 1.523 . S
H1057 C1032 0.950 . S
H1058 C1034 0.950 . S
H1059 C1035 0.949 . S
H1060 C1037 0.950 . S
H1061 C1039 0.950 . S
C1062 C1063 1.349 . S
C1062 C1064 1.327 . S
C1062 H1087 0.950 . S
C1063 C1062 1.349 . S
C1063 C1079 1.349 . S
C1064 C1062 1.327 . S
C1064 C1083 1.429 . S
C1064 H1088 0.950 . S
C1065 C1082 1.574 . S
C1065 C1084 1.368 . S
C1065 H1089 0.949 . S
H1066 C1070 0.949 . S
C1067 C1068 1.349 . S
C1067 C1069 1.327 . S
C1067 H1090 0.950 . S
C1068 C1067 1.349 . S
C1068 C1080 1.349 . S
C1069 C1067 1.327 . S
C1069 C1085 1.429 . S
C1069 H1091 0.950 . S
C1070 H1066 0.949 . S
C1070 C1078 1.574 . S
C1070 C1086 1.368 . S
H1071 C1079 0.950 . S
H1072 C1077 0.950 . S
H1073 C1078 0.949 . S
H1074 C1080 0.950 . S
H1075 C1081 0.950 . S
H1076 C1082 0.949 . S
C1077 H1072 0.950 . S
C1077 C1079 1.327 . S
C1077 C1083 1.429 . S
C1078 C1070 1.574 . S
C1078 H1073 0.949 . S
C1078 C1084 1.368 . S
C1079 C1063 1.349 . S
C1079 H1071 0.950 . S
C1079 C1077 1.327 . S
C1080 C1068 1.349 . S
C1080 H1074 0.950 . S
C1080 C1081 1.327 . S
C1081 H1075 0.950 . S
C1081 C1080 1.327 . S
C1081 C1085 1.429 . S
C1082 C1065 1.574 . S
C1082 H1076 0.949 . S
C1082 C1086 1.368 . S
C1083 C1064 1.429 . S
C1083 C1077 1.429 . S
C1083 C1084 1.523 . S
C1084 C1065 1.368 . S
C1084 C1078 1.368 . S
C1084 C1083 1.523 . S
C1085 C1069 1.429 . S
C1085 C1081 1.429 . S
C1085 C1086 1.523 . S
C1086 C1070 1.368 . S
C1086 C1082 1.368 . S
C1086 C1085 1.523 . S
H1087 C1062 0.950 . S
H1088 C1064 0.950 . S
H1089 C1065 0.949 . S
H1090 C1067 0.950 . S
H1091 C1069 0.950 . S
C1092 C1093 1.349 . S
C1092 C1094 1.327 . S
C1092 H1117 0.950 . S
C1093 C1092 1.349 . S
C1093 C1109 1.349 . S
C1094 C1092 1.327 . S
C1094 C1113 1.429 . S
C1094 H1118 0.950 . S
C1095 C1112 1.574 . S
C1095 C1114 1.368 . S
C1095 H1119 0.949 . S
H1096 C1100 0.949 . S
C1097 C1098 1.349 . S
C1097 C1099 1.327 . S
C1097 H1120 0.950 . S
C1098 C1097 1.349 . S
C1098 C1110 1.349 . S
C1099 C1097 1.327 . S
C1099 C1115 1.429 . S
C1099 H1121 0.950 . S
C1100 H1096 0.949 . S
C1100 C1108 1.574 . S
C1100 C1116 1.368 . S
H1101 C1109 0.950 . S
H1102 C1107 0.950 . S
H1103 C1108 0.949 . S
H1104 C1110 0.950 . S
H1105 C1111 0.950 . S
H1106 C1112 0.949 . S
C1107 H1102 0.950 . S
C1107 C1109 1.327 . S
C1107 C1113 1.429 . S
C1108 C1100 1.574 . S
C1108 H1103 0.949 . S
C1108 C1114 1.368 . S
C1109 C1093 1.349 . S
C1109 H1101 0.950 . S
C1109 C1107 1.327 . S
C1110 C1098 1.349 . S
C1110 H1104 0.950 . S
C1110 C1111 1.327 . S
C1111 H1105 0.950 . S
C1111 C1110 1.327 . S
C1111 C1115 1.429 . S
C1112 C1095 1.574 . S
C1112 H1106 0.949 . S
C1112 C1116 1.368 . S
C1113 C1094 1.429 . S
C1113 C1107 1.429 . S
C1113 C1114 1.523 . S
C1114 C1095 1.368 . S
C1114 C1108 1.368 . S
C1114 C1113 1.523 . S
C1115 C1099 1.429 . S
C1115 C1111 1.429 . S
C1115 C1116 1.523 . S
C1116 C1100 1.368 . S
C1116 C1112 1.368 . S
C1116 C1115 1.523 . S
H1117 C1092 0.950 . S
H1118 C1094 0.950 . S
H1119 C1095 0.949 . S
H1120 C1097 0.950 . S
H1121 C1099 0.950 . S
C1122 C1123 1.349 . S
C1122 C1124 1.327 . S
C1122 H1147 0.950 . S
C1123 C1122 1.349 . S
C1123 C1139 1.349 . S
C1124 C1122 1.327 . S
C1124 C1143 1.429 . S
C1124 H1148 0.950 . S
C1125 C1142 1.574 . S
C1125 C1144 1.368 . S
C1125 H1149 0.949 . S
H1126 C1130 0.949 . S
C1127 C1128 1.349 . S
C1127 C1129 1.327 . S
C1127 H1150 0.950 . S
C1128 C1127 1.349 . S
C1128 C1140 1.349 . S
C1129 C1127 1.327 . S
C1129 C1145 1.429 . S
C1129 H1151 0.950 . S
C1130 H1126 0.949 . S
C1130 C1138 1.574 . S
C1130 C1146 1.368 . S
H1131 C1139 0.950 . S
H1132 C1137 0.950 . S
H1133 C1138 0.949 . S
H1134 C1140 0.950 . S
H1135 C1141 0.950 . S
H1136 C1142 0.949 . S
C1137 H1132 0.950 . S
C1137 C1139 1.327 . S
C1137 C1143 1.429 . S
C1138 C1130 1.574 . S
C1138 H1133 0.949 . S
C1138 C1144 1.368 . S
C1139 C1123 1.349 . S
C1139 H1131 0.950 . S
C1139 C1137 1.327 . S
C1140 C1128 1.349 . S
C1140 H1134 0.950 . S
C1140 C1141 1.327 . S
C1141 H1135 0.950 . S
C1141 C1140 1.327 . S
C1141 C1145 1.429 . S
C1142 C1125 1.574 . S
C1142 H1136 0.949 . S
C1142 C1146 1.368 . S
C1143 C1124 1.429 . S
C1143 C1137 1.429 . S
C1143 C1144 1.523 . S
C1144 C1125 1.368 . S
C1144 C1138 1.368 . S
C1144 C1143 1.523 . S
C1145 C1129 1.429 . S
C1145 C1141 1.429 . S
C1145 C1146 1.523 . S
C1146 C1130 1.368 . S
C1146 C1142 1.368 . S
C1146 C1145 1.523 . S
H1147 C1122 0.950 . S
H1148 C1124 0.950 . S
H1149 C1125 0.949 . S
H1150 C1127 0.950 . S
H1151 C1129 0.950 . S
C1152 C1153 1.349 . S
C1152 C1154 1.327 . S
C1152 H1177 0.950 . S
C1153 C1152 1.349 . S
C1153 C1169 1.349 . S
C1154 C1152 1.327 . S
C1154 C1173 1.429 . S
C1154 H1178 0.950 1_455 S
C1155 C1172 1.574 . S
C1155 C1174 1.368 . S
C1155 H1179 0.949 . S
H1156 C1160 0.949 . S
C1157 C1158 1.349 . S
C1157 C1159 1.327 . S
C1157 H1180 0.950 . S
C1158 C1157 1.349 . S
C1158 C1170 1.349 . S
C1159 C1157 1.327 . S
C1159 C1175 1.429 . S
C1159 H1181 0.950 1_655 S
C1160 H1156 0.949 . S
C1160 C1168 1.574 . S
C1160 C1176 1.368 . S
H1161 C1169 0.950 . S
H1162 C1167 0.950 . S
H1163 C1168 0.949 . S
H1164 C1170 0.950 . S
H1165 C1171 0.950 . S
H1166 C1172 0.949 . S
C1167 H1162 0.950 . S
C1167 C1169 1.327 . S
C1167 C1173 1.429 . S
C1168 C1160 1.574 . S
C1168 H1163 0.949 . S
C1168 C1174 1.368 1_655 S
C1169 C1153 1.349 . S
C1169 H1161 0.950 . S
C1169 C1167 1.327 . S
C1170 C1158 1.349 . S
C1170 H1164 0.950 . S
C1170 C1171 1.327 . S
C1171 H1165 0.950 . S
C1171 C1170 1.327 . S
C1171 C1175 1.429 . S
C1172 C1155 1.574 . S
C1172 H1166 0.949 . S
C1172 C1176 1.368 1_455 S
C1173 C1154 1.429 . S
C1173 C1167 1.429 . S
C1173 C1174 1.523 . S
C1174 C1155 1.368 . S
C1174 C1168 1.368 1_455 S
C1174 C1173 1.523 . S
C1175 C1159 1.429 . S
C1175 C1171 1.429 . S
C1175 C1176 1.523 . S
C1176 C1160 1.368 . S
C1176 C1172 1.368 1_655 S
C1176 C1175 1.523 . S
H1177 C1152 0.950 . S
H1178 C1154 0.950 1_655 S
H1179 C1155 0.949 . S
H1180 C1157 0.950 . S
H1181 C1159 0.950 1_455 S
C1182 C1183 1.349 . S
C1182 C1184 1.327 . S
C1182 H1207 0.950 . S
C1183 C1182 1.349 . S
C1183 C1199 1.349 . S
C1184 C1182 1.327 . S
C1184 C1203 1.429 . S
C1184 H1208 0.950 1_655 S
C1185 C1202 1.574 . S
C1185 C1204 1.368 . S
C1185 H1209 0.949 . S
H1186 C1190 0.949 . S
C1187 C1188 1.349 . S
C1187 C1189 1.327 . S
C1187 H1210 0.950 . S
C1188 C1187 1.349 . S
C1188 C1200 1.349 . S
C1189 C1187 1.327 . S
C1189 C1205 1.429 . S
C1189 H1211 0.950 1_455 S
C1190 H1186 0.949 . S
C1190 C1198 1.574 . S
C1190 C1206 1.368 . S
H1191 C1199 0.950 . S
H1192 C1197 0.950 . S
H1193 C1198 0.949 . S
H1194 C1200 0.950 . S
H1195 C1201 0.950 . S
H1196 C1202 0.949 . S
C1197 H1192 0.950 . S
C1197 C1199 1.327 . S
C1197 C1203 1.429 . S
C1198 C1190 1.574 . S
C1198 H1193 0.949 . S
C1198 C1204 1.368 1_455 S
C1199 C1183 1.349 . S
C1199 H1191 0.950 . S
C1199 C1197 1.327 . S
C1200 C1188 1.349 . S
C1200 H1194 0.950 . S
C1200 C1201 1.327 . S
C1201 H1195 0.950 . S
C1201 C1200 1.327 . S
C1201 C1205 1.429 . S
C1202 C1185 1.574 . S
C1202 H1196 0.949 . S
C1202 C1206 1.368 1_655 S
C1203 C1184 1.429 . S
C1203 C1197 1.429 . S
C1203 C1204 1.523 . S
C1204 C1185 1.368 . S
C1204 C1198 1.368 1_655 S
C1204 C1203 1.523 . S
C1205 C1189 1.429 . S
C1205 C1201 1.429 . S
C1205 C1206 1.523 . S
C1206 C1190 1.368 . S
C1206 C1202 1.368 1_455 S
C1206 C1205 1.523 . S
H1207 C1182 0.950 . S
H1208 C1184 0.950 1_455 S
H1209 C1185 0.949 . S
H1210 C1187 0.950 . S
H1211 C1189 0.950 1_655 S
C1212 C1213 1.349 1_455 S
C1212 C1214 1.327 . S
C1212 H1237 0.950 . S
C1213 C1212 1.349 1_655 S
C1213 C1229 1.349 . S
C1214 C1212 1.327 . S
C1214 C1233 1.429 1_455 S
C1214 H1238 0.950 . S
C1215 C1232 1.574 . S
C1215 C1234 1.368 . S
C1215 H1239 0.949 . S
H1216 C1220 0.949 . S
C1217 C1218 1.357 . S
C1217 C1219 1.325 1_455 S
C1217 H1240 0.945 1_455 S
C1218 C1217 1.357 . S
C1218 C1230 1.349 . S
C1219 C1217 1.325 1_655 S
C1219 C1235 1.429 1_655 S
C1219 H1241 0.950 . S
C1220 H1216 0.949 . S
C1220 C1228 1.574 . S
C1220 C1236 1.368 . S
H1221 C1229 0.950 . S
H1222 C1227 0.950 . S
H1223 C1228 0.949 . S
H1224 C1230 0.950 . S
H1225 C1231 0.950 . S
H1226 C1232 0.949 . S
C1227 H1222 0.950 . S
C1227 C1229 1.327 . S
C1227 C1233 1.429 . S
C1228 C1220 1.574 . S
C1228 H1223 0.949 . S
C1228 C1234 1.368 1_455 S
C1229 C1213 1.349 . S
C1229 H1221 0.950 . S
C1229 C1227 1.327 . S
C1230 C1218 1.349 . S
C1230 H1224 0.950 . S
C1230 C1231 1.327 . S
C1231 H1225 0.950 . S
C1231 C1230 1.327 . S
C1231 C1235 1.429 . S
C1232 C1215 1.574 . S
C1232 H1226 0.949 . S
C1232 C1236 1.368 1_655 S
C1233 C1214 1.429 1_655 S
C1233 C1227 1.429 . S
C1233 C1234 1.523 . S
C1234 C1215 1.368 . S
C1234 C1228 1.368 1_655 S
C1234 C1233 1.523 . S
C1235 C1219 1.429 1_455 S
C1235 C1231 1.429 . S
C1235 C1236 1.523 . S
C1236 C1220 1.368 . S
C1236 C1232 1.368 1_455 S
C1236 C1235 1.523 . S
H1237 C1212 0.950 . S
H1238 C1214 0.950 . S
H1239 C1215 0.949 . S
H1240 C1217 0.945 1_655 S
H1241 C1219 0.950 . S
C1242 C1243 1.349 . S
C1242 C1244 1.327 . S
C1242 H1267 0.950 . S
C1243 C1242 1.349 . S
C1243 C1259 1.349 . S
C1244 C1242 1.327 . S
C1244 C1263 1.429 . S
C1244 H1268 0.950 1_655 S
C1245 C1262 1.574 . S
C1245 C1264 1.368 . S
C1245 H1269 0.949 . S
H1246 C1250 0.949 . S
C1247 C1248 1.349 . S
C1247 C1249 1.327 . S
C1247 H1270 0.950 . S
C1248 C1247 1.349 . S
C1248 C1260 1.349 . S
C1249 C1247 1.327 . S
C1249 C1265 1.429 . S
C1249 H1271 0.950 1_455 S
C1250 H1246 0.949 . S
C1250 C1258 1.574 . S
C1250 C1266 1.368 . S
H1251 C1259 0.950 . S
H1252 C1257 0.950 . S
H1253 C1258 0.949 . S
H1254 C1260 0.950 . S
H1255 C1261 0.950 . S
H1256 C1262 0.949 . S
C1257 H1252 0.950 . S
C1257 C1259 1.327 . S
C1257 C1263 1.429 . S
C1258 C1250 1.574 . S
C1258 H1253 0.949 . S
C1258 C1264 1.368 1_455 S
C1259 C1243 1.349 . S
C1259 H1251 0.950 . S
C1259 C1257 1.327 . S
C1260 C1248 1.349 . S
C1260 H1254 0.950 . S
C1260 C1261 1.327 . S
C1261 H1255 0.950 . S
C1261 C1260 1.327 . S
C1261 C1265 1.429 . S
C1262 C1245 1.574 . S
C1262 H1256 0.949 . S
C1262 C1266 1.368 1_655 S
C1263 C1244 1.429 . S
C1263 C1257 1.429 . S
C1263 C1264 1.523 . S
C1264 C1245 1.368 . S
C1264 C1258 1.368 1_655 S
C1264 C1263 1.523 . S
C1265 C1249 1.429 . S
C1265 C1261 1.429 . S
C1265 C1266 1.523 . S
C1266 C1250 1.368 . S
C1266 C1262 1.368 1_455 S
C1266 C1265 1.523 . S
H1267 C1242 0.950 . S
H1268 C1244 0.950 1_455 S
H1269 C1245 0.949 . S
H1270 C1247 0.950 . S
H1271 C1249 0.950 1_655 S
C1272 C1273 1.349 . S
C1272 C1274 1.327 . S
C1272 H1297 0.950 . S
C1273 C1272 1.349 . S
C1273 C1289 1.349 . S
C1274 C1272 1.327 . S
C1274 C1293 1.429 . S
C1274 H1298 0.950 . S
C1275 C1292 1.574 . S
C1275 C1294 1.368 . S
C1275 H1299 0.949 . S
H1276 C1280 0.949 . S
C1277 C1278 1.349 . S
C1277 C1279 1.327 . S
C1277 H1300 0.950 . S
C1278 C1277 1.349 . S
C1278 C1290 1.349 . S
C1279 C1277 1.327 . S
C1279 C1295 1.429 . S
C1279 H1301 0.950 . S
C1280 H1276 0.949 . S
C1280 C1288 1.574 . S
C1280 C1296 1.368 . S
H1281 C1289 0.950 . S
H1282 C1287 0.950 . S
H1283 C1288 0.949 . S
H1284 C1290 0.950 . S
H1285 C1291 0.950 . S
H1286 C1292 0.949 . S
C1287 H1282 0.950 . S
C1287 C1289 1.327 . S
C1287 C1293 1.429 . S
C1288 C1280 1.574 . S
C1288 H1283 0.949 . S
C1288 C1294 1.368 . S
C1289 C1273 1.349 . S
C1289 H1281 0.950 . S
C1289 C1287 1.327 . S
C1290 C1278 1.349 . S
C1290 H1284 0.950 . S
C1290 C1291 1.327 . S
C1291 H1285 0.950 . S
C1291 C1290 1.327 . S
C1291 C1295 1.429 . S
C1292 C1275 1.574 . S
C1292 H1286 0.949 . S
C1292 C1296 1.368 . S
C1293 C1274 1.429 . S
C1293 C1287 1.429 . S
C1293 C1294 1.523 . S
C1294 C1275 1.368 . S
C1294 C1288 1.368 . S
C1294 C1293 1.523 . S
C1295 C1279 1.429 . S
C1295 C1291 1.429 . S
C1295 C1296 1.523 . S
C1296 C1280 1.368 . S
C1296 C1292 1.368 . S
C1296 C1295 1.523 . S
H1297 C1272 0.950 . S
H1298 C1274 0.950 . S
H1299 C1275 0.949 . S
H1300 C1277 0.950 . S
H1301 C1279 0.950 . S
C1302 C1303 1.349 . S
C1302 C1304 1.327 . S
C1302 H1327 0.950 . S
C1303 C1302 1.349 . S
C1303 C1319 1.349 . S
C1304 C1302 1.327 . S
C1304 C1323 1.429 . S
C1304 H1328 0.950 . S
C1305 C1322 1.574 . S
C1305 C1324 1.368 . S
C1305 H1329 0.949 . S
H1306 C1310 0.949 . S
C1307 C1308 1.349 . S
C1307 C1309 1.327 . S
C1307 H1330 0.950 . S
C1308 C1307 1.349 . S
C1308 C1320 1.349 . S
C1309 C1307 1.327 . S
C1309 C1325 1.429 . S
C1309 H1331 0.950 . S
C1310 H1306 0.949 . S
C1310 C1318 1.574 . S
C1310 C1326 1.368 . S
H1311 C1319 0.950 . S
H1312 C1317 0.950 . S
H1313 C1318 0.949 . S
H1314 C1320 0.950 . S
H1315 C1321 0.950 . S
H1316 C1322 0.949 . S
C1317 H1312 0.950 . S
C1317 C1319 1.327 . S
C1317 C1323 1.429 . S
C1318 C1310 1.574 . S
C1318 H1313 0.949 . S
C1318 C1324 1.368 . S
C1319 C1303 1.349 . S
C1319 H1311 0.950 . S
C1319 C1317 1.327 . S
C1320 C1308 1.349 . S
C1320 H1314 0.950 . S
C1320 C1321 1.327 . S
C1321 H1315 0.950 . S
C1321 C1320 1.327 . S
C1321 C1325 1.429 . S
C1322 C1305 1.574 . S
C1322 H1316 0.949 . S
C1322 C1326 1.368 . S
C1323 C1304 1.429 . S
C1323 C1317 1.429 . S
C1323 C1324 1.523 . S
C1324 C1305 1.368 . S
C1324 C1318 1.368 . S
C1324 C1323 1.523 . S
C1325 C1309 1.429 . S
C1325 C1321 1.429 . S
C1325 C1326 1.523 . S
C1326 C1310 1.368 . S
C1326 C1322 1.368 . S
C1326 C1325 1.523 . S
H1327 C1302 0.950 . S
H1328 C1304 0.950 . S
H1329 C1305 0.949 . S
H1330 C1307 0.950 . S
H1331 C1309 0.950 . S
C1332 C1333 1.349 . S
C1332 C1334 1.327 . S
C1332 H1357 0.950 . S
C1333 C1332 1.349 . S
C1333 C1349 1.349 . S
C1334 C1332 1.327 . S
C1334 C1353 1.429 . S
C1334 H1358 0.950 . S
C1335 C1352 1.574 . S
C1335 C1354 1.368 . S
C1335 H1359 0.949 . S
H1336 C1340 0.949 . S
C1337 C1338 1.349 . S
C1337 C1339 1.327 . S
C1337 H1360 0.950 . S
C1338 C1337 1.349 . S
C1338 C1350 1.349 . S
C1339 C1337 1.327 . S
C1339 C1355 1.429 . S
C1339 H1361 0.950 . S
C1340 H1336 0.949 . S
C1340 C1348 1.574 . S
C1340 C1356 1.368 . S
H1341 C1349 0.950 . S
H1342 C1347 0.950 . S
H1343 C1348 0.949 . S
H1344 C1350 0.950 . S
H1345 C1351 0.950 . S
H1346 C1352 0.949 . S
C1347 H1342 0.950 . S
C1347 C1349 1.327 . S
C1347 C1353 1.429 . S
C1348 C1340 1.574 . S
C1348 H1343 0.949 . S
C1348 C1354 1.368 . S
C1349 C1333 1.349 . S
C1349 H1341 0.950 . S
C1349 C1347 1.327 . S
C1350 C1338 1.349 . S
C1350 H1344 0.950 . S
C1350 C1351 1.327 . S
C1351 H1345 0.950 . S
C1351 C1350 1.327 . S
C1351 C1355 1.429 . S
C1352 C1335 1.574 . S
C1352 H1346 0.949 . S
C1352 C1356 1.368 . S
C1353 C1334 1.429 . S
C1353 C1347 1.429 . S
C1353 C1354 1.523 . S
C1354 C1335 1.368 . S
C1354 C1348 1.368 . S
C1354 C1353 1.523 . S
C1355 C1339 1.429 . S
C1355 C1351 1.429 . S
C1355 C1356 1.523 . S
C1356 C1340 1.368 . S
C1356 C1352 1.368 . S
C1356 C1355 1.523 . S
H1357 C1332 0.950 . S
H1358 C1334 0.950 . S
H1359 C1335 0.949 . S
H1360 C1337 0.950 . S
H1361 C1339 0.950 . S
C1362 C1363 1.349 . S
C1362 C1364 1.327 . S
C1362 H1387 0.950 . S
C1363 C1362 1.349 . S
C1363 C1379 1.349 . S
C1364 C1362 1.327 . S
C1364 C1383 1.429 . S
C1364 H1388 0.950 . S
C1365 C1382 1.574 . S
C1365 C1384 1.368 . S
C1365 H1389 0.949 . S
H1366 C1370 0.949 . S
C1367 C1368 1.349 . S
C1367 C1369 1.327 . S
C1367 H1390 0.950 . S
C1368 C1367 1.349 . S
C1368 C1380 1.349 . S
C1369 C1367 1.327 . S
C1369 C1385 1.429 . S
C1369 H1391 0.950 . S
C1370 H1366 0.949 . S
C1370 C1378 1.574 . S
C1370 C1386 1.368 . S
H1371 C1379 0.950 . S
H1372 C1377 0.950 . S
H1373 C1378 0.949 . S
H1374 C1380 0.950 . S
H1375 C1381 0.950 . S
H1376 C1382 0.949 . S
C1377 H1372 0.950 . S
C1377 C1379 1.327 . S
C1377 C1383 1.429 . S
C1378 C1370 1.574 . S
C1378 H1373 0.949 . S
C1378 C1384 1.368 . S
C1379 C1363 1.349 . S
C1379 H1371 0.950 . S
C1379 C1377 1.327 . S
C1380 C1368 1.349 . S
C1380 H1374 0.950 . S
C1380 C1381 1.327 . S
C1381 H1375 0.950 . S
C1381 C1380 1.327 . S
C1381 C1385 1.429 . S
C1382 C1365 1.574 . S
C1382 H1376 0.949 . S
C1382 C1386 1.368 . S
C1383 C1364 1.429 . S
C1383 C1377 1.429 . S
C1383 C1384 1.523 . S
C1384 C1365 1.368 . S
C1384 C1378 1.368 . S
C1384 C1383 1.523 . S
C1385 C1369 1.429 . S
C1385 C1381 1.429 . S
C1385 C1386 1.523 . S
C1386 C1370 1.368 . S
C1386 C1382 1.368 . S
C1386 C1385 1.523 . S
H1387 C1362 0.950 . S
H1388 C1364 0.950 . S
H1389 C1365 0.949 . S
H1390 C1367 0.950 . S
H1391 C1369 0.950 . S
C673 C67 1.970 . S
C678 C56 1.970 . S
C703 C140 1.965 . S
C708 C151 1.965 . S
C733 C224 1.961 . S
C738 C235 1.961 . S
C763 C308 1.961 . S
C768 C319 1.961 . S
C793 C403 1.970 . S
C798 C392 1.970 . S
C823 C487 1.965 . S
C828 C476 1.965 . S
C853 C560 1.961 . S
C858 C571 1.961 . S
C883 C655 1.961 . S
C888 C644 1.961 . S
C913 C153 1.897 . S
C918 C69 2.154 1_556 S
C943 C310 1.877 . S
C948 C237 1.877 . S
C973 C405 2.154 1_556 S
C978 C489 1.896 . S
C1003 C573 1.877 . S
C1008 C646 1.877 . S
C1033 C58 1.719 . S
C1038 C478 1.501 . S
C1063 C394 1.719 . S
C1068 C142 1.501 . S
C1093 C226 1.440 . S
C1098 C657 1.440 . S
C1123 C321 1.440 . S
C1128 C562 1.440 . S
C1153 C63 1.642 . S
C1158 C315 1.686 . S
C1183 C147 1.509 . S
C1188 C231 1.570 . S
C1213 C158 1.698 . S
C1218 C242 1.756 . S
C1243 C326 1.485 . S
C1248 C74 1.503 . S
C1273 C399 1.642 . S
C1278 C651 1.687 . S
C1303 C483 1.509 . S
C1308 C567 1.569 . S
C1333 C494 1.699 . S
C1338 C578 1.757 . S
C1363 C662 1.484 . S
C1368 C410 1.502 . S
