# Generated by pormake.
# Topology snk, (6)-cn, num edge types: 1
# Building blocks:
#     Node 0, Type 0, BuildingBlock: GEDQOX_clean_sbu_0, # of connection points: 6
#     Node 1, Type 0, BuildingBlock: GEDQOX_clean_sbu_0, # of connection points: 6
#     Node 2, Type 0, BuildingBlock: GEDQOX_clean_sbu_0, # of connection points: 6
#     Node 3, Type 0, BuildingBlock: GEDQOX_clean_sbu_0, # of connection points: 6
#     Node 4, Type 0, BuildingBlock: GEDQOX_clean_sbu_0, # of connection points: 6
#     Node 5, Type 0, BuildingBlock: GEDQOX_clean_sbu_0, # of connection points: 6
#     Node 6, Type 0, BuildingBlock: GEDQOX_clean_sbu_0, # of connection points: 6
#     Node 7, Type 0, BuildingBlock: GEDQOX_clean_sbu_0, # of connection points: 6
#     Edge 8, Type (0, 0), BuildingBlock: TEMPAE_clean_linker_10, # of connection points: 2
#     Edge 9, Type (0, 0), BuildingBlock: TEMPAE_clean_linker_10, # of connection points: 2
#     Edge 10, Type (0, 0), BuildingBlock: TEMPAE_clean_linker_10, # of connection points: 2
#     Edge 11, Type (0, 0), BuildingBlock: TEMPAE_clean_linker_10, # of connection points: 2
#     Edge 12, Type (0, 0), BuildingBlock: TEMPAE_clean_linker_10, # of connection points: 2
#     Edge 13, Type (0, 0), BuildingBlock: TEMPAE_clean_linker_10, # of connection points: 2
#     Edge 14, Type (0, 0), BuildingBlock: TEMPAE_clean_linker_10, # of connection points: 2
#     Edge 15, Type (0, 0), BuildingBlock: TEMPAE_clean_linker_10, # of connection points: 2
#     Edge 16, Type (0, 0), BuildingBlock: TEMPAE_clean_linker_10, # of connection points: 2
#     Edge 17, Type (0, 0), BuildingBlock: TEMPAE_clean_linker_10, # of connection points: 2
#     Edge 18, Type (0, 0), BuildingBlock: TEMPAE_clean_linker_10, # of connection points: 2
#     Edge 19, Type (0, 0), BuildingBlock: TEMPAE_clean_linker_10, # of connection points: 2
#     Edge 20, Type (0, 0), BuildingBlock: TEMPAE_clean_linker_10, # of connection points: 2
#     Edge 21, Type (0, 0), BuildingBlock: TEMPAE_clean_linker_10, # of connection points: 2
#     Edge 22, Type (0, 0), BuildingBlock: TEMPAE_clean_linker_10, # of connection points: 2
#     Edge 23, Type (0, 0), BuildingBlock: TEMPAE_clean_linker_10, # of connection points: 2
#     Edge 24, Type (0, 0), BuildingBlock: TEMPAE_clean_linker_10, # of connection points: 2
#     Edge 25, Type (0, 0), BuildingBlock: TEMPAE_clean_linker_10, # of connection points: 2
#     Edge 26, Type (0, 0), BuildingBlock: TEMPAE_clean_linker_10, # of connection points: 2
#     Edge 27, Type (0, 0), BuildingBlock: TEMPAE_clean_linker_10, # of connection points: 2
#     Edge 28, Type (0, 0), BuildingBlock: TEMPAE_clean_linker_10, # of connection points: 2
#     Edge 29, Type (0, 0), BuildingBlock: TEMPAE_clean_linker_10, # of connection points: 2
#     Edge 30, Type (0, 0), BuildingBlock: TEMPAE_clean_linker_10, # of connection points: 2
#     Edge 31, Type (0, 0), BuildingBlock: TEMPAE_clean_linker_10, # of connection points: 2
# Relax obj value: 0.116
# Max RMSD: 0.184
# Mean RMSD: 0.184
data_MOF--net-snk--node1-GEDQOX_clean_sbu_0--edge1-TEMPAE_clean_linker_10
_symmetry_space_group_name_H-M    P1
_symmetry_Int_Tables_number       1
_symmetry_cell_setting            triclinic
loop_
_symmetry_equiv_pos_as_xyz
'x, y, z'
_cell_length_a     57.638996
_cell_length_b     57.651003
_cell_length_c     15.855541
_cell_angle_alpha  89.847148
_cell_angle_beta   90.030699
_cell_angle_gamma 89.934401
loop_
_atom_site_label
_atom_site_type_symbol
_atom_site_fract_x
_atom_site_fract_y
_atom_site_fract_z
_atom_type_partial_charge
Nd0 Nd 0.02695 0.03294 0.51598 0.0
Nd1 Nd 0.9922 0.98616 0.52029 0.0
C2 C 0.04419 0.07558 0.5038 0.0
C3 C 0.06498 0.08928 0.47757 0.0
C4 C 0.06975 0.09388 0.39201 0.0
C5 C 0.08814 0.10852 0.36865 0.0
C6 C 0.10224 0.11912 0.43011 0.0
C7 C 0.09759 0.11425 0.5156 0.0
C8 C 0.07922 0.09962 0.53891 0.0
C9 C 0.05172 0.99125 0.5194 0.0
C10 C 0.01028 1.00784 0.33938 0.0
C11 C 0.97521 0.94345 0.53085 0.0
C12 C 0.955 0.92959 0.5611 0.0
C13 C 0.95848 0.91178 0.62053 0.0
C14 C 0.94013 0.89729 0.6453 0.0
C15 C 0.91778 0.9001 0.61078 0.0
C16 C 0.91426 0.91815 0.552 0.0
C17 C 0.9326 0.93271 0.52751 0.0
C18 C 0.96751 0.02785 0.51428 0.0
C19 C 1.00728 0.01212 0.69831 0.0
O20 O 0.03162 0.06581 0.44487 0.0
O21 O 0.04562 0.06293 0.57251 0.0
O22 O 0.06146 0.01157 0.51596 0.0
O23 O 0.03013 0.99432 0.51687 0.0
O24 O 0.01635 0.02735 0.37757 0.0
O25 O 1.0045 0.98865 0.38117 0.0
O26 O 0.98915 0.95234 0.58764 0.0
O27 O 0.97223 0.95706 0.46521 0.0
O28 O 0.95772 1.00752 0.5159 0.0
O29 O 0.98908 0.02475 0.51863 0.0
O30 O 0.99891 0.99334 0.66088 0.0
O31 O 0.01619 0.0301 0.65655 0.0
H32 H 0.059 0.08652 0.34285 0.0
H33 H 0.09092 0.11201 0.30229 0.0
H34 H 0.10821 0.12173 0.56487 0.0
H35 H 0.07593 0.09669 0.60535 0.0
H36 H 0.97558 0.90875 0.6468 0.0
H37 H 0.94363 0.88347 0.68995 0.0
H38 H 0.89726 0.92111 0.52492 0.0
H39 H 0.92924 0.94621 0.48149 0.0
Nd40 Nd 0.23503 0.77658 0.77881 0.0
Nd41 Nd 0.28193 0.74203 0.78359 0.0
C42 C 0.19226 0.79356 0.76611 0.0
C43 C 0.17845 0.81378 0.73533 0.0
C44 C 0.16072 0.81022 0.67584 0.0
C45 C 0.14639 0.82858 0.64961 0.0
C46 C 0.14928 0.85105 0.68256 0.0
C47 C 0.16722 0.85464 0.74162 0.0
C48 C 0.18162 0.83627 0.76765 0.0
C49 C 0.2766 0.80154 0.77995 0.0
C50 C 0.26027 0.76002 0.60223 0.0
C51 C 0.32469 0.72509 0.79451 0.0
C52 C 0.33843 0.70493 0.82607 0.0
C53 C 0.3564 0.70855 0.88457 0.0
C54 C 0.37075 0.69018 0.9106 0.0
C55 C 0.36763 0.66766 0.87831 0.0
C56 C 0.34941 0.664 0.82054 0.0
C57 C 0.335 0.68236 0.79479 0.0
C58 C 0.24046 0.71703 0.77999 0.0
C59 C 0.25598 0.75728 0.96143 0.0
O60 O 0.20161 0.77994 0.70943 0.0
O61 O 0.20544 0.79627 0.83285 0.0
O62 O 0.2562 0.81117 0.77641 0.0
O63 O 0.27366 0.77992 0.77891 0.0
O64 O 0.24079 0.76631 0.64032 0.0
O65 O 0.27939 0.75403 0.64401 0.0
O66 O 0.31584 0.73931 0.85044 0.0
O67 O 0.31106 0.7219 0.7292 0.0
O68 O 0.2609 0.70744 0.78191 0.0
O69 O 0.24329 0.73866 0.78254 0.0
O70 O 0.27481 0.74896 0.924 0.0
O71 O 0.23793 0.76606 0.91968 0.0
H72 H 0.15767 0.79306 0.65049 0.0
H73 H 0.13265 0.82499 0.60492 0.0
H74 H 0.17024 0.87173 0.76759 0.0
H75 H 0.19508 0.83967 0.81365 0.0
H76 H 0.35965 0.72577 0.9091 0.0
H77 H 0.3847 0.69378 0.95441 0.0
H78 H 0.34623 0.64687 0.79518 0.0
H79 H 0.32135 0.67889 0.74961 0.0
Nd80 Nd 0.4915 0.9872 1.01622 0.0
Nd81 Nd 0.52692 0.03353 1.02064 0.0
C82 C 0.47388 0.94471 1.00601 0.0
C83 C 0.45371 0.93086 0.97517 0.0
C84 C 0.45733 0.91291 0.91674 0.0
C85 C 0.43905 0.89832 0.89206 0.0
C86 C 0.41659 0.90115 0.92561 0.0
C87 C 0.41293 0.91938 0.98325 0.0
C88 C 0.43121 0.93402 1.00769 0.0
C89 C 0.46731 0.02919 1.01995 0.0
C90 C 0.50718 0.01302 0.83822 0.0
C91 C 0.54474 0.07594 0.03293 0.0
C92 C 0.56518 0.08946 0.06334 0.0
C93 C 0.56198 0.10692 0.12401 0.0
C94 C 0.5805 0.12104 0.14964 0.0
C95 C 0.60283 0.11824 0.11494 0.0
C96 C 0.60606 0.10056 0.0547 0.0
C97 C 0.58752 0.08637 0.02925 0.0
C98 C 0.55113 0.9915 1.01968 0.0
C99 C 0.50974 1.0086 0.19741 0.0
O100 O 0.48825 0.9533 0.94991 0.0
O101 O 0.47073 0.95849 0.07076 0.0
O102 O 0.45731 1.00898 1.01836 0.0
O103 O 0.48888 0.02589 1.01674 0.0
O104 O 0.49844 0.99437 0.87572 0.0
O105 O 0.51639 0.03083 0.87979 0.0
O106 O 0.53093 0.06687 0.08975 0.0
O107 O 0.54721 0.06271 0.96631 0.0
O108 O 0.5611 0.0117 0.02337 0.0
O109 O 0.52955 0.99483 1.02056 0.0
O110 O 0.51641 0.02794 0.15907 0.0
O111 O 0.50344 0.98959 0.15585 0.0
H112 H 0.4745 0.90982 0.89131 0.0
H113 H 0.44269 0.88439 0.84834 0.0
H114 H 0.39586 0.92239 1.00959 0.0
H115 H 0.42772 0.94762 0.05296 0.0
H116 H 0.54494 0.10994 0.15072 0.0
H117 H 0.57716 0.13459 0.19524 0.0
H118 H 0.62301 0.0976 0.02728 0.0
H119 H 0.59066 0.07314 0.98224 0.0
Nd120 Nd 0.28306 0.24511 0.28019 0.0
Nd121 Nd 0.24031 0.27548 0.27391 0.0
C122 C 0.3242 0.22429 0.26469 0.0
C123 C 0.33758 0.20467 0.22709 0.0
C124 C 0.35595 0.20923 0.17105 0.0
C125 C 0.37069 0.19135 0.14359 0.0
C126 C 0.36762 0.16838 0.17209 0.0
C127 C 0.34885 0.16376 0.22649 0.0
C128 C 0.33406 0.18161 0.25363 0.0
C129 C 0.24208 0.22093 0.30348 0.0
C130 C 0.25873 0.25639 0.0959 0.0
C131 C 0.19914 0.29625 0.29024 0.0
C132 C 0.18481 0.31431 0.33249 0.0
C133 C 0.1618 0.30911 0.35455 0.0
C134 C 0.14674 0.32649 0.38363 0.0
C135 C 0.15429 0.34962 0.39148 0.0
C136 C 0.17765 0.35463 0.37218 0.0
C137 C 0.1927 0.33721 0.34283 0.0
C138 C 0.28144 0.29956 0.25048 0.0
C139 C 0.26436 0.26394 0.4569 0.0
O140 O 0.31748 0.24143 0.21616 0.0
O141 O 0.30919 0.21957 0.32399 0.0
O142 O 0.26152 0.21607 0.34039 0.0
O143 O 0.24488 0.23714 0.25044 0.0
O144 O 0.27788 0.25048 0.13662 0.0
O145 O 0.23991 0.26305 0.13672 0.0
O146 O 0.20491 0.27752 0.33194 0.0
O147 O 0.21533 0.30307 0.23833 0.0
O148 O 0.26203 0.30444 0.21358 0.0
O149 O 0.2785 0.28346 0.30375 0.0
O150 O 0.24478 0.26788 0.41614 0.0
O151 O 0.28373 0.25958 0.41537 0.0
H152 H 0.35937 0.22683 0.15037 0.0
H153 H 0.38501 0.19568 0.10232 0.0
H154 H 0.34564 0.14628 0.24875 0.0
H155 H 0.3202 0.17737 0.29708 0.0
H156 H 0.1552 0.29165 0.34681 0.0
H157 H 0.12905 0.32181 0.39902 0.0
H158 H 0.1841 0.37221 0.37661 0.0
H159 H 0.2103 0.34183 0.32586 0.0
Nd160 Nd 0.73907 0.27708 0.26789 0.0
Nd161 Nd 0.78349 0.24332 0.26681 0.0
C162 C 0.69757 0.29712 0.2541 0.0
C163 C 0.68252 0.31501 0.21453 0.0
C164 C 0.65852 0.31108 0.21084 0.0
C165 C 0.64331 0.32854 0.18346 0.0
C166 C 0.65172 0.35044 0.15873 0.0
C167 C 0.67592 0.35408 0.15962 0.0
C168 C 0.69116 0.33659 0.1876 0.0
C169 C 0.78131 0.29844 0.29543 0.0
C170 C 0.76312 0.26305 0.08501 0.0
C171 C 0.82609 0.2257 0.27659 0.0
C172 C 0.83988 0.20553 0.3081 0.0
C173 C 0.85765 0.2091 0.36746 0.0
C174 C 0.87218 0.19079 0.39288 0.0
C175 C 0.86947 0.16838 0.35914 0.0
C176 C 0.85144 0.16476 0.30053 0.0
C177 C 0.83685 0.18306 0.27535 0.0
C178 C 0.74254 0.21737 0.2705 0.0
C179 C 0.75852 0.25752 0.44478 0.0
O180 O 0.70372 0.27897 0.20995 0.0
O181 O 0.71378 0.30407 0.30593 0.0
O182 O 0.76174 0.30531 0.32724 0.0
O183 O 0.77795 0.28192 0.24417 0.0
O184 O 0.74641 0.27435 0.12516 0.0
O185 O 0.77968 0.25133 0.12481 0.0
O186 O 0.81763 0.24023 0.33216 0.0
O187 O 0.81214 0.22246 0.21236 0.0
O188 O 0.76314 0.20825 0.27141 0.0
O189 O 0.74492 0.23904 0.27137 0.0
O190 O 0.77845 0.25375 0.40577 0.0
O191 O 0.73912 0.26162 0.40228 0.0
H192 H 0.65142 0.29462 0.23148 0.0
H193 H 0.62487 0.32493 0.18252 0.0
H194 H 0.68305 0.37074 0.14164 0.0
H195 H 0.7096 0.34012 0.19025 0.0
H196 H 0.86064 0.22624 0.39309 0.0
H197 H 0.88597 0.19439 0.43735 0.0
H198 H 0.84854 0.14771 0.27404 0.0
H199 H 0.8234 0.17961 0.22936 0.0
Nd200 Nd 0.78239 0.7434 0.76124 0.0
Nd201 Nd 0.73521 0.77791 0.76508 0.0
C202 C 0.8255 0.72712 0.75154 0.0
C203 C 0.83996 0.70729 0.72302 0.0
C204 C 0.86318 0.71129 0.70073 0.0
C205 C 0.87772 0.69291 0.67704 0.0
C206 C 0.86941 0.66995 0.67485 0.0
C207 C 0.84594 0.66604 0.69589 0.0
C208 C 0.83138 0.6845 0.71984 0.0
C209 C 0.74095 0.71841 0.76106 0.0
C210 C 0.75718 0.75996 0.58436 0.0
C211 C 0.69232 0.79469 0.7734 0.0
C212 C 0.67808 0.81471 0.80226 0.0
C213 C 0.68134 0.82517 0.88143 0.0
C214 C 0.66683 0.8434 0.90787 0.0
C215 C 0.64872 0.85165 0.85579 0.0
C216 C 0.64568 0.84112 0.77645 0.0
C217 C 0.66014 0.82294 0.75021 0.0
C218 C 0.7768 0.8027 0.76098 0.0
C219 C 0.76098 0.76256 0.94341 0.0
O220 O 0.81606 0.74028 0.69339 0.0
O221 O 0.81194 0.72393 0.81697 0.0
O222 O 0.76136 0.7088 0.75744 0.0
O223 O 0.74378 0.74004 0.7608 0.0
O224 O 0.77673 0.75386 0.62264 0.0
O225 O 0.73798 0.76574 0.62595 0.0
O226 O 0.70134 0.78092 0.83079 0.0
O227 O 0.70604 0.79797 0.7085 0.0
O228 O 0.75644 0.81247 0.76184 0.0
O229 O 0.77374 0.78114 0.765 0.0
O230 O 0.74218 0.77093 0.90567 0.0
O231 O 0.77907 0.75378 0.90202 0.0
H232 H 0.87018 0.72872 0.70239 0.0
H233 H 0.8955 0.69674 0.66008 0.0
H234 H 0.83892 0.64863 0.69577 0.0
H235 H 0.81353 0.68093 0.73674 0.0
H236 H 0.69504 0.81922 0.92301 0.0
H237 H 0.66997 0.8512 0.96886 0.0
H238 H 0.6318 0.84665 0.73491 0.0
H239 H 0.6571 0.81508 0.6892 0.0
Nd240 Nd 0.52734 0.53314 0.02408 0.0
Nd241 Nd 0.49449 0.48783 0.02363 0.0
C242 C 0.54628 0.57506 1.0091 0.0
C243 C 0.56627 0.58903 0.97864 0.0
C244 C 0.57565 0.58654 0.89727 0.0
C245 C 0.59381 0.60102 0.86987 0.0
C246 C 0.603 0.61832 0.92315 0.0
C247 C 0.59351 0.6206 1.00454 0.0
C248 C 0.57545 0.60617 0.03175 0.0
C249 C 0.55005 0.49141 0.04819 0.0
C250 C 0.51278 0.50912 0.84149 0.0
C251 C 0.47758 0.445 0.03291 0.0
C252 C 0.45749 0.43092 0.06309 0.0
C253 C 0.45296 0.42744 0.14948 0.0
C254 C 0.43493 0.41268 0.17588 0.0
C255 C 0.42103 0.40089 0.11667 0.0
C256 C 0.42547 0.40468 0.03036 0.0
C257 C 0.44345 0.41939 1.00408 0.0
C258 C 0.46794 0.52843 0.02833 0.0
C259 C 0.50829 0.51299 0.20082 0.0
O260 O 0.53187 0.56629 0.95384 0.0
O261 O 0.54961 0.56146 0.07414 0.0
O262 O 0.55716 0.51117 0.07738 0.0
O263 O 0.53284 0.49447 0.99966 0.0
O264 O 0.52321 0.52639 0.88146 0.0
O265 O 0.50221 0.49186 0.88149 0.0
O266 O 0.49186 0.45375 0.08884 0.0
O267 O 0.4742 0.45882 0.96829 0.0
O268 O 0.45907 0.50775 0.02912 0.0
O269 O 0.48959 0.52626 0.0286 0.0
O270 O 0.50538 0.4929 0.16208 0.0
O271 O 0.51153 0.53249 0.15796 0.0
H272 H 0.56891 0.5735 0.85477 0.0
H273 H 0.60079 0.59851 0.80717 0.0
H274 H 0.59972 0.63388 0.04706 0.0
H275 H 0.56839 0.60863 0.09442 0.0
H276 H 0.46353 0.43585 0.19687 0.0
H277 H 0.43226 0.4101 0.24283 0.0
H278 H 0.41498 0.39631 0.98267 0.0
H279 H 0.44656 0.42153 0.93712 0.0
Nd280 Nd 0.99466 0.48782 0.53461 0.0
Nd281 Nd 0.02584 0.5295 0.52646 0.0
C282 C 0.97225 0.44747 0.52053 0.0
C283 C 0.95514 0.43255 0.47562 0.0
C284 C 0.96047 0.40909 0.4616 0.0
C285 C 0.94358 0.39365 0.43144 0.0
C286 C 0.92079 0.40123 0.41442 0.0
C287 C 0.91573 0.42498 0.42554 0.0
C288 C 0.93265 0.44042 0.45596 0.0
C289 C 0.97182 0.52954 0.56001 0.0
C290 C 1.00599 0.5115 0.35069 0.0
C291 C 0.04784 0.57006 0.54011 0.0
C292 C 0.06729 0.58365 0.57803 0.0
C293 C 0.06251 0.6019 0.63421 0.0
C294 C 0.08018 0.61696 0.66123 0.0
C295 C 0.10313 0.61434 0.63214 0.0
C296 C 0.10798 0.59568 0.57765 0.0
C297 C 0.09035 0.58059 0.55093 0.0
C298 C 0.0489 0.48786 0.50232 0.0
C299 C 0.01445 0.5057 0.71197 0.0
O300 O 0.99268 0.4512 0.4873 0.0
O301 O 0.96449 0.46531 0.56243 0.0
O302 O 0.96739 0.51049 0.60002 0.0
O303 O 0.98727 0.52617 0.50465 0.0
O304 O 1.0017 0.49204 0.39183 0.0
O305 O 0.01095 0.53072 0.39192 0.0
O306 O 0.03003 0.56432 0.58687 0.0
O307 O 0.05282 0.55428 0.48395 0.0
O308 O 0.05352 0.50697 0.46285 0.0
O309 O 0.03329 0.49122 0.55715 0.0
O310 O 0.02103 0.52452 0.67058 0.0
O311 O 1.00698 0.48712 0.67183 0.0
H312 H 0.97758 0.40247 0.47672 0.0
H313 H 0.94832 0.37564 0.42256 0.0
H314 H 0.8984 0.43152 0.41401 0.0
H315 H 0.92787 0.45835 0.46665 0.0
H316 H 0.04491 0.60502 0.65526 0.0
H317 H 0.07565 0.63118 0.70255 0.0
H318 H 0.12546 0.59281 0.55491 0.0
H319 H 0.09476 0.56688 0.5072 0.0
C320 C 0.13561 0.13075 0.33515 0.0
C321 C 0.12152 0.13534 0.40553 0.0
C322 C 0.15421 0.14545 0.3132 0.0
C323 C 0.15901 0.16535 0.36261 0.0
C324 C 0.14454 0.17039 0.43248 0.0
C325 C 0.12606 0.15541 0.45296 0.0
C326 C 0.16918 0.13929 0.23846 0.0
C327 C 0.1489 0.19138 0.48694 0.0
C328 C 0.22126 0.18769 0.37044 0.0
C329 C 0.2206 0.20697 0.31618 0.0
C330 C 0.20147 0.17405 0.38534 0.0
C331 C 0.18021 0.17979 0.34554 0.0
C332 C 0.17937 0.1993 0.29067 0.0
C333 C 0.19958 0.21264 0.27648 0.0
C334 C 0.20334 0.15348 0.44415 0.0
C335 C 0.15708 0.20615 0.24734 0.0
H336 H 0.13251 0.11526 0.29829 0.0
H337 H 0.11509 0.15948 0.50642 0.0
H338 H 0.17062 0.15433 0.19499 0.0
H339 H 0.18697 0.135 0.26032 0.0
H340 H 0.16225 0.12425 0.20282 0.0
H341 H 0.13527 0.19374 0.53571 0.0
H342 H 0.16593 0.18961 0.519 0.0
H343 H 0.14968 0.20726 0.44737 0.0
H344 H 0.23738 0.18317 0.40165 0.0
H345 H 0.1989 0.22757 0.23483 0.0
H346 H 0.19819 0.1374 0.41071 0.0
H347 H 0.19129 0.15568 0.49806 0.0
H348 H 0.22119 0.15112 0.46926 0.0
H349 H 0.15069 0.19157 0.20815 0.0
H350 H 0.15923 0.22168 0.20649 0.0
H351 H 0.14352 0.20986 0.29509 0.0
C352 C 0.08888 0.96936 0.53439 0.0
C353 C 0.06453 0.96919 0.53495 0.0
C354 C 0.10184 0.94949 0.55551 0.0
C355 C 0.09027 0.92875 0.57849 0.0
C356 C 0.06562 0.92829 0.57744 0.0
C357 C 0.05306 0.94849 0.5554 0.0
C358 C 0.12801 0.95088 0.55498 0.0
C359 C 0.05252 0.90663 0.6015 0.0
C360 C 0.12644 0.87303 0.57171 0.0
C361 C 0.13352 0.87055 0.65614 0.0
C362 C 0.11192 0.89146 0.54596 0.0
C363 C 0.10413 0.90793 0.60588 0.0
C364 C 0.11086 0.9053 0.69141 0.0
C365 C 0.12544 0.88676 0.71537 0.0
C366 C 0.10538 0.89361 0.45408 0.0
C367 C 0.10295 0.92232 0.75766 0.0
H368 H 0.09792 0.98527 0.51855 0.0
H369 H 0.03428 0.94823 0.55605 0.0
H370 H 0.13479 0.94788 0.6196 0.0
H371 H 0.13532 0.93712 0.51401 0.0
H372 H 0.13438 0.96797 0.53231 0.0
H373 H 0.03346 0.90877 0.59449 0.0
H374 H 0.05825 0.89187 0.56184 0.0
H375 H 0.0564 0.902 0.668 0.0
H376 H 0.13269 0.86083 0.52506 0.0
H377 H 0.1304 0.88487 0.78097 0.0
H378 H 0.11282 0.90979 0.42751 0.0
H379 H 0.08625 0.89482 0.44739 0.0
H380 H 0.11168 0.8787 0.41616 0.0
H381 H 0.10994 0.9398 0.74317 0.0
H382 H 0.10868 0.91726 0.82203 0.0
H383 H 0.08374 0.9237 0.75721 0.0
C384 C 0.2983 0.83889 0.7901 0.0
C385 C 0.29865 0.81456 0.7931 0.0
C386 C 0.31817 0.85209 0.80865 0.0
C387 C 0.3391 0.8408 0.8315 0.0
C388 C 0.33973 0.81616 0.83294 0.0
C389 C 0.31952 0.80334 0.81346 0.0
C390 C 0.31657 0.87823 0.80552 0.0
C391 C 0.36159 0.80334 0.85701 0.0
C392 C 0.39452 0.8773 0.81818 0.0
C393 C 0.39721 0.885 0.90172 0.0
C394 C 0.37614 0.86248 0.79486 0.0
C395 C 0.35993 0.85497 0.85637 0.0
C396 C 0.3628 0.8623 0.94105 0.0
C397 C 0.38127 0.87718 0.96255 0.0
C398 C 0.37375 0.85531 0.7038 0.0
C399 C 0.34608 0.85471 1.00898 0.0
H400 H 0.28226 0.84774 0.77432 0.0
H401 H 0.31993 0.78458 0.81601 0.0
H402 H 0.31974 0.88548 0.86925 0.0
H403 H 0.33012 0.88533 0.76305 0.0
H404 H 0.29935 0.88436 0.78315 0.0
H405 H 0.35957 0.78423 0.85195 0.0
H406 H 0.37615 0.80889 0.81598 0.0
H407 H 0.36643 0.80766 0.92285 0.0
H408 H 0.40652 0.88332 0.7703 0.0
H409 H 0.38332 0.88258 0.02753 0.0
H410 H 0.35742 0.86249 0.67733 0.0
H411 H 0.37266 0.83614 0.69909 0.0
H412 H 0.38848 0.86143 0.66451 0.0
H413 H 0.32849 0.86152 0.99481 0.0
H414 H 0.35133 0.86088 0.07249 0.0
H415 H 0.34485 0.83551 1.01044 0.0
C416 C 0.46606 0.07187 0.05734 0.0
C417 C 0.45465 0.05141 0.03384 0.0
C418 C 0.45341 0.09214 0.07761 0.0
C419 C 0.42877 0.092 0.07357 0.0
C420 C 0.41733 0.07152 0.04732 0.0
C421 C 0.43035 0.05157 0.02826 0.0
C422 C 0.46636 0.1135 0.10554 0.0
C423 C 0.3912 0.07045 0.04127 0.0
C424 C 0.39154 0.13285 0.20658 0.0
C425 C 0.38418 0.14945 0.14718 0.0
C426 C 0.40666 0.11465 0.18417 0.0
C427 C 0.4147 0.11274 0.09997 0.0
C428 C 0.40774 0.12969 0.04003 0.0
C429 C 0.39268 0.1478 0.0643 0.0
C430 C 0.41364 0.09713 0.25046 0.0
C431 C 0.41569 0.12831 0.94951 0.0
H432 H 0.4848 0.07186 0.06206 0.0
H433 H 0.42137 0.03586 1.00991 0.0
H434 H 0.46116 0.12864 0.06652 0.0
H435 H 0.4618 0.11757 0.17185 0.0
H436 H 0.48548 0.11127 0.10114 0.0
H437 H 0.385 0.05362 1.01586 0.0
H438 H 0.38346 0.07301 0.10463 0.0
H439 H 0.38467 0.0846 1.00005 0.0
H440 H 0.38553 0.13412 0.27115 0.0
H441 H 0.38706 0.16037 1.0176 0.0
H442 H 0.43282 0.09558 0.25313 0.0
H443 H 0.40669 0.07981 0.23364 0.0
H444 H 0.40715 0.10181 0.31416 0.0
H445 H 0.43487 0.12691 0.94664 0.0
H446 H 0.41014 0.14364 0.91196 0.0
H447 H 0.40848 0.11248 0.91976 0.0
C448 C 0.88263 0.87598 0.57405 0.0
C449 C 0.89831 0.88412 0.63506 0.0
C450 C 0.86401 0.86134 0.59598 0.0
C451 C 0.86075 0.85462 0.68124 0.0
C452 C 0.87673 0.86243 0.74294 0.0
C453 C 0.89528 0.87699 0.71919 0.0
C454 C 0.84754 0.85338 0.5279 0.0
C455 C 0.87389 0.8559 0.8346 0.0
C456 C 0.79877 0.83974 0.74589 0.0
C457 C 0.79892 0.8154 0.74621 0.0
C458 C 0.81881 0.85258 0.72666 0.0
C459 C 0.8397 0.84088 0.70642 0.0
C460 C 0.84011 0.81624 0.70811 0.0
C461 C 0.81973 0.8038 0.72834 0.0
C462 C 0.81748 0.87875 0.72647 0.0
C463 C 0.86192 0.80302 0.68676 0.0
H464 H 0.88498 0.88098 0.50868 0.0
H465 H 0.9071 0.88327 0.7671 0.0
H466 H 0.84608 0.83419 0.52878 0.0
H467 H 0.82997 0.8605 0.53994 0.0
H468 H 0.85317 0.85897 0.46401 0.0
H469 H 0.88853 0.86213 0.87407 0.0
H470 H 0.85754 0.86344 0.85932 0.0
H471 H 0.87257 0.83679 0.84135 0.0
H472 H 0.78277 0.84886 0.75984 0.0
H473 H 0.81998 0.78503 0.72851 0.0
H474 H 0.82104 0.88546 0.66213 0.0
H475 H 0.8309 0.88603 0.76901 0.0
H476 H 0.80022 0.88522 0.74689 0.0
H477 H 0.86705 0.8068 0.62071 0.0
H478 H 0.85968 0.78398 0.69398 0.0
H479 H 0.87639 0.80873 0.7279 0.0
C480 C 0.96632 0.07066 0.47886 0.0
C481 C 0.95479 0.04994 0.4986 0.0
C482 C 0.95379 0.09097 0.45782 0.0
C483 C 0.92913 0.09059 0.45706 0.0
C484 C 0.91752 0.06979 0.479 0.0
C485 C 0.93044 0.04982 0.49912 0.0
C486 C 0.96691 0.11269 0.43467 0.0
C487 C 0.89135 0.06846 0.47973 0.0
C488 C 0.89285 0.14618 0.46801 0.0
C489 C 0.88554 0.14897 0.38396 0.0
C490 C 0.90753 0.12773 0.49226 0.0
C491 C 0.91528 0.11156 0.43117 0.0
C492 C 0.90838 0.11455 0.34598 0.0
C493 C 0.89363 0.1331 0.32354 0.0
C494 C 0.91425 0.12519 0.58383 0.0
C495 C 0.91624 0.09787 0.27852 0.0
H496 H 0.98511 0.07087 0.47812 0.0
H497 H 0.92136 0.0339 0.51444 0.0
H498 H 0.96298 0.11758 0.36846 0.0
H499 H 0.96127 0.12731 0.47516 0.0
H500 H 0.98598 0.11047 0.44133 0.0
H501 H 0.88494 0.05127 0.50124 0.0
H502 H 0.88412 0.08201 0.5218 0.0
H503 H 0.88451 0.07183 0.41544 0.0
H504 H 0.88661 0.15813 0.51553 0.0
H505 H 0.88851 0.13523 0.25821 0.0
H506 H 0.93338 0.1239 0.58998 0.0
H507 H 0.90681 0.10892 0.60971 0.0
H508 H 0.90806 0.13995 0.62271 0.0
H509 H 0.93544 0.09643 0.27878 0.0
H510 H 0.91049 0.10328 0.21454 0.0
H511 H 0.9092 0.08033 0.29181 0.0
C512 C 0.69967 0.21503 0.23741 0.0
C513 C 0.72073 0.204 0.25663 0.0
C514 C 0.67967 0.20207 0.21655 0.0
C515 C 0.68067 0.17745 0.21546 0.0
C516 C 0.70177 0.1663 0.23725 0.0
C517 C 0.72146 0.17966 0.25717 0.0
C518 C 0.65763 0.21475 0.19367 0.0
C519 C 0.70374 0.14018 0.23778 0.0
C520 C 0.62532 0.14074 0.22504 0.0
C521 C 0.6225 0.13385 0.14061 0.0
C522 C 0.6438 0.15523 0.24997 0.0
C523 C 0.66 0.16322 0.18924 0.0
C524 C 0.65708 0.15661 0.10378 0.0
C525 C 0.63849 0.14206 0.08065 0.0
C526 C 0.64624 0.16164 0.34178 0.0
C527 C 0.67378 0.16475 0.03665 0.0
H528 H 0.69896 0.23378 0.23672 0.0
H529 H 0.73764 0.17095 0.27201 0.0
H530 H 0.65288 0.21087 0.12736 0.0
H531 H 0.64313 0.20867 0.234 0.0
H532 H 0.65936 0.23384 0.20072 0.0
H533 H 0.72104 0.13413 0.25963 0.0
H534 H 0.69028 0.13258 0.27944 0.0
H535 H 0.70069 0.13338 0.17333 0.0
H536 H 0.61331 0.13439 0.27229 0.0
H537 H 0.63636 0.13727 1.01506 0.0
H538 H 0.64701 0.18076 0.34863 0.0
H539 H 0.66273 0.15451 0.3671 0.0
H540 H 0.63167 0.15495 0.38067 0.0
H541 H 0.67479 0.18397 0.03665 0.0
H542 H 0.66866 0.15889 0.97261 0.0
H543 H 0.69144 0.15808 0.05052 0.0
C544 C 0.62571 0.88815 0.82574 0.0
C545 C 0.6331 0.87112 0.8835 0.0
C546 C 0.61115 0.90657 0.8505 0.0
C547 C 0.60366 0.90825 0.93544 0.0
C548 C 0.61081 0.89102 0.99395 0.0
C549 C 0.62539 0.87275 0.96743 0.0
C550 C 0.60416 0.92455 0.78587 0.0
C551 C 0.60329 0.89205 0.08502 0.0
C552 C 0.58814 0.96913 1.01111 0.0
C553 C 0.56383 0.9693 1.00587 0.0
C554 C 0.60114 0.94926 0.99077 0.0
C555 C 0.58967 0.92886 0.96373 0.0
C556 C 0.56503 0.92871 0.96042 0.0
C557 C 0.55241 0.9489 0.9818 0.0
C558 C 0.62729 0.95033 0.99602 0.0
C559 C 0.55203 0.90743 0.93188 0.0
H560 H 0.63172 0.88739 0.76107 0.0
H561 H 0.63061 0.85959 1.01254 0.0
H562 H 0.585 0.92633 0.7842 0.0
H563 H 0.61137 0.94169 0.80371 0.0
H564 H 0.61037 0.92016 0.72154 0.0
H565 H 0.60943 0.87683 0.12192 0.0
H566 H 0.61018 0.90804 0.11471 0.0
H567 H 0.5841 0.89291 0.08902 0.0
H568 H 0.59714 0.9848 0.02981 0.0
H569 H 0.53367 0.94891 0.97736 0.0
H570 H 0.63486 0.94807 0.93224 0.0
H571 H 0.63394 0.936 0.03613 0.0
H572 H 0.63352 0.96705 1.02223 0.0
H573 H 0.55634 0.90369 0.86509 0.0
H574 H 0.53293 0.90958 0.9374 0.0
H575 H 0.55743 0.89213 0.96969 0.0
C576 C 0.62311 0.6427 0.8118 0.0
C577 C 0.62233 0.63398 0.89467 0.0
C578 C 0.64113 0.65756 0.785 0.0
C579 C 0.65891 0.66397 0.8422 0.0
C580 C 0.65813 0.65538 0.92599 0.0
C581 C 0.64 0.64052 0.95098 0.0
C582 C 0.64125 0.66623 0.69511 0.0
C583 C 0.6767 0.6616 0.98918 0.0
C584 C 0.71904 0.68113 0.7635 0.0
C585 C 0.71896 0.70532 0.77333 0.0
C586 C 0.6994 0.66767 0.78278 0.0
C587 C 0.67907 0.67854 0.81369 0.0
C588 C 0.67864 0.70308 0.82147 0.0
C589 C 0.69856 0.71618 0.80083 0.0
C590 C 0.70071 0.64166 0.77252 0.0
C591 C 0.65743 0.71542 0.85448 0.0
H592 H 0.60947 0.63812 0.76789 0.0
H593 H 0.6399 0.63369 1.0147 0.0
H594 H 0.64172 0.68546 0.69407 0.0
H595 H 0.65711 0.66002 0.6625 0.0
H596 H 0.62583 0.66031 0.65908 0.0
H597 H 0.67304 0.65445 0.05292 0.0
H598 H 0.69371 0.65482 0.96767 0.0
H599 H 0.67831 0.68073 0.99401 0.0
H600 H 0.73472 0.67259 0.74207 0.0
H601 H 0.69842 0.73482 0.80895 0.0
H602 H 0.68601 0.63544 0.73346 0.0
H603 H 0.69925 0.63314 0.83512 0.0
H604 H 0.7172 0.63602 0.74265 0.0
H605 H 0.64186 0.71023 0.81802 0.0
H606 H 0.65923 0.73459 0.8513 0.0
H607 H 0.6544 0.71033 0.9211 0.0
C608 C 0.63975 0.38458 0.0678 0.0
C609 C 0.63521 0.36962 0.13588 0.0
C610 C 0.62473 0.40318 0.04814 0.0
C611 C 0.60473 0.40719 0.09817 0.0
C612 C 0.59982 0.39187 0.1659 0.0
C613 C 0.61502 0.37333 0.18372 0.0
C614 C 0.6306 0.4189 0.97499 0.0
C615 C 0.57892 0.39556 0.22167 0.0
C616 C 0.58263 0.46939 0.11433 0.0
C617 C 0.56323 0.46941 0.06072 0.0
C618 C 0.59611 0.44935 0.12681 0.0
C619 C 0.59019 0.42855 0.08473 0.0
C620 C 0.57046 0.42833 0.03095 0.0
C621 C 0.55718 0.44876 1.01964 0.0
C622 C 0.61681 0.45051 0.18513 0.0
C623 C 0.56347 0.40655 0.98502 0.0
H624 H 0.65509 0.38175 0.02971 0.0
H625 H 0.61143 0.36212 0.2371 0.0
H626 H 0.61546 0.4206 0.93217 0.0
H627 H 0.63473 0.43651 0.99871 0.0
H628 H 0.64566 0.41244 0.93814 0.0
H629 H 0.57652 0.38119 0.26767 0.0
H630 H 0.58091 0.41201 0.25711 0.0
H631 H 0.56298 0.39716 0.18285 0.0
H632 H 0.58741 0.48522 0.14672 0.0
H633 H 0.5422 0.44861 0.97829 0.0
H634 H 0.63286 0.44608 0.15005 0.0
H635 H 0.61491 0.43761 0.2367 0.0
H636 H 0.61902 0.46796 0.21359 0.0
H637 H 0.57782 0.40079 0.9434 0.0
H638 H 0.54763 0.4091 0.94613 0.0
H639 H 0.56023 0.39237 0.03095 0.0
C640 C 0.90081 0.36228 0.42735 0.0
C641 C 0.90217 0.38431 0.3892 0.0
C642 C 0.88266 0.34674 0.40839 0.0
C643 C 0.86525 0.3532 0.3496 0.0
C644 C 0.86689 0.37509 0.30895 0.0
C645 C 0.8852 0.39033 0.32928 0.0
C646 C 0.88163 0.32374 0.4539 0.0
C647 C 0.84887 0.38274 0.24557 0.0
C648 C 0.82334 0.30744 0.2606 0.0
C649 C 0.80352 0.3111 0.31017 0.0
C650 C 0.84366 0.3208 0.27287 0.0
C651 C 0.84424 0.3381 0.33659 0.0
C652 C 0.8244 0.34134 0.38795 0.0
C653 C 0.80441 0.32792 0.37398 0.0
C654 C 0.86437 0.31671 0.21671 0.0
C655 C 0.82414 0.35925 0.45729 0.0
H656 H 0.91354 0.35743 0.47451 0.0
H657 H 0.88616 0.40707 0.2983 0.0
H658 H 0.86639 0.32346 0.49661 0.0
H659 H 0.87939 0.30939 0.40815 0.0
H660 H 0.89748 0.32036 0.49192 0.0
H661 H 0.8535 0.39941 0.21462 0.0
H662 H 0.84666 0.3693 0.19627 0.0
H663 H 0.83188 0.38487 0.27748 0.0
H664 H 0.82283 0.29447 0.21126 0.0
H665 H 0.78927 0.33078 0.41316 0.0
H666 H 0.87993 0.31287 0.25553 0.0
H667 H 0.86815 0.33266 0.1799 0.0
H668 H 0.86153 0.30216 0.17213 0.0
H669 H 0.83864 0.35605 0.50185 0.0
H670 H 0.80761 0.35919 0.4933 0.0
H671 H 0.8267 0.3768 0.42997 0.0
C672 C 0.9083 0.64967 0.68215 0.0
C673 C 0.88532 0.65022 0.65234 0.0
C674 C 0.92331 0.63106 0.66341 0.0
C675 C 0.91532 0.61237 0.61331 0.0
C676 C 0.89229 0.613 0.58171 0.0
C677 C 0.87761 0.6318 0.6017 0.0
C678 C 0.94758 0.6311 0.6993 0.0
C679 C 0.88301 0.59357 0.52779 0.0
C680 C 0.95947 0.57006 0.51686 0.0
C681 C 0.9582 0.55124 0.57294 0.0
C682 C 0.94565 0.59008 0.5289 0.0
C683 C 0.93042 0.59143 0.59917 0.0
C684 C 0.92948 0.57258 0.65655 0.0
C685 C 0.94323 0.5528 0.64255 0.0
C686 C 0.94716 0.60969 0.46597 0.0
C687 C 0.91383 0.57323 0.73288 0.0
H688 H 0.91445 0.66357 0.7222 0.0
H689 H 0.86006 0.63211 0.57719 0.0
H690 H 0.9496 0.61645 0.74426 0.0
H691 H 0.96048 0.62854 0.64827 0.0
H692 H 0.95167 0.6475 0.73276 0.0
H693 H 0.86525 0.59722 0.50394 0.0
H694 H 0.89465 0.59059 0.47318 0.0
H695 H 0.88256 0.57725 0.56499 0.0
H696 H 0.97098 0.56901 0.46296 0.0
H697 H 0.94224 0.53843 0.68663 0.0
H698 H 0.95221 0.62595 0.49839 0.0
H699 H 0.9299 0.61271 0.43695 0.0
H700 H 0.95991 0.60611 0.41509 0.0
H701 H 0.918 0.58855 0.77224 0.0
H702 H 0.91547 0.55739 0.77249 0.0
H703 H 0.89548 0.575 0.71263 0.0
C704 C 0.30252 0.33231 0.18145 0.0
C705 C 0.30295 0.31348 0.23781 0.0
C706 C 0.32234 0.34588 0.16634 0.0
C707 C 0.3434 0.34058 0.20826 0.0
C708 C 0.34401 0.32157 0.26547 0.0
C709 C 0.32378 0.30825 0.27963 0.0
C710 C 0.32072 0.36588 0.10484 0.0
C711 C 0.36607 0.31524 0.31129 0.0
C712 C 0.39785 0.36395 0.09999 0.0
C713 C 0.40206 0.38465 0.14417 0.0
C714 C 0.37943 0.34907 0.12211 0.0
C715 C 0.36468 0.35485 0.19043 0.0
C716 C 0.36923 0.37533 0.23697 0.0
C717 C 0.38778 0.38992 0.21339 0.0
C718 C 0.37536 0.32746 0.07067 0.0
C719 C 0.35399 0.38225 0.31008 0.0
H720 H 0.28655 0.33649 0.14859 0.0
H721 H 0.32429 0.29369 0.323 0.0
H722 H 0.3257 0.38227 0.1365 0.0
H723 H 0.33303 0.36317 0.052 0.0
H724 H 0.303 0.36796 0.07834 0.0
H725 H 0.36369 0.30022 0.35447 0.0
H726 H 0.37985 0.31092 0.26506 0.0
H727 H 0.3723 0.33027 0.34847 0.0
H728 H 0.40898 0.35934 0.04757 0.0
H729 H 0.39063 0.40588 0.24778 0.0
H730 H 0.35851 0.32887 0.03711 0.0
H731 H 0.37434 0.31205 0.11255 0.0
H732 H 0.38925 0.32453 1.02331 0.0
H733 H 0.33632 0.38644 0.2867 0.0
H734 H 0.36087 0.39758 0.34422 0.0
H735 H 0.35228 0.36763 0.35528 0.0
C736 C 0.46533 0.57123 0.99599 0.0
C737 C 0.45441 0.55018 1.01579 0.0
C738 C 0.45222 0.59124 0.97635 0.0
C739 C 0.4276 0.59024 0.9771 0.0
C740 C 0.41659 0.56915 0.99961 0.0
C741 C 0.43009 0.54944 1.01827 0.0
C742 C 0.46471 0.61329 0.95255 0.0
C743 C 0.39048 0.56721 1.00204 0.0
C744 C 0.39088 0.64555 0.98764 0.0
C745 C 0.38352 0.64818 0.9036 0.0
C746 C 0.40554 0.62712 1.01218 0.0
C747 C 0.41322 0.61085 0.95135 0.0
C748 C 0.40617 0.61362 0.86623 0.0
C749 C 0.39143 0.63213 0.84353 0.0
C750 C 0.41243 0.62479 0.10366 0.0
C751 C 0.414 0.59684 0.79904 0.0
H752 H 0.4841 0.5719 0.9937 0.0
H753 H 0.42152 0.53324 0.03361 0.0
H754 H 0.46051 0.61799 0.88637 0.0
H755 H 0.45877 0.6278 0.99296 0.0
H756 H 0.48384 0.61159 0.95868 0.0
H757 H 0.38459 0.54995 0.02478 0.0
H758 H 0.38311 0.58074 0.04384 0.0
H759 H 0.38328 0.57016 0.93799 0.0
H760 H 0.38476 0.65766 0.03485 0.0
H761 H 0.38624 0.63416 0.77822 0.0
H762 H 0.43159 0.62399 0.10944 0.0
H763 H 0.40545 0.60834 0.12978 0.0
H764 H 0.40593 0.63941 0.14257 0.0
H765 H 0.43322 0.5958 0.79806 0.0
H766 H 0.40782 0.6019 0.73521 0.0
H767 H 0.40739 0.57921 0.81363 0.0
C768 C 0.19774 0.71484 0.74303 0.0
C769 C 0.21851 0.7039 0.76664 0.0
C770 C 0.17772 0.70174 0.72333 0.0
C771 C 0.17843 0.67712 0.72802 0.0
C772 C 0.19922 0.66615 0.75433 0.0
C773 C 0.21891 0.67961 0.77285 0.0
C774 C 0.15602 0.71421 0.69532 0.0
C775 C 0.20091 0.64006 0.76105 0.0
C776 C 0.12343 0.63992 0.73905 0.0
C777 C 0.12179 0.63128 0.6564 0.0
C778 C 0.14127 0.65537 0.76265 0.0
C779 C 0.15795 0.66258 0.7023 0.0
C780 C 0.15604 0.65438 0.61834 0.0
C781 C 0.13812 0.63889 0.59658 0.0
C782 C 0.14265 0.66347 0.85294 0.0
C783 C 0.17327 0.66161 0.55161 0.0
H784 H 0.19732 0.73357 0.7378 0.0
H785 H 0.23485 0.67098 0.79126 0.0
H786 H 0.15193 0.70946 0.62919 0.0
H787 H 0.14107 0.70876 0.73467 0.0
H788 H 0.15782 0.73336 0.69917 0.0
H789 H 0.21793 0.63425 0.78636 0.0
H790 H 0.18698 0.6333 0.80265 0.0
H791 H 0.19839 0.63219 0.69793 0.0
H792 H 0.11109 0.63412 0.7861 0.0
H793 H 0.13684 0.63278 0.53217 0.0
H794 H 0.14361 0.68267 0.85528 0.0
H795 H 0.15871 0.65663 0.88262 0.0
H796 H 0.12752 0.65766 0.89088 0.0
H797 H 0.17437 0.68081 0.54835 0.0
H798 H 0.16863 0.65492 0.48817 0.0
H799 H 0.19078 0.65505 0.56841 0.0
C800 C 0.14449 0.38665 0.46951 0.0
C801 C 0.13763 0.36854 0.41587 0.0
C802 C 0.12931 0.40507 0.48934 0.0
C803 C 0.10664 0.40562 0.45448 0.0
C804 C 0.09943 0.38714 0.40183 0.0
C805 C 0.11493 0.36891 0.38332 0.0
C806 C 0.13775 0.42427 0.54608 0.0
C807 C 0.07558 0.38702 0.36249 0.0
C808 C 0.06109 0.4473 0.54591 0.0
C809 C 0.06285 0.4663 0.49078 0.0
C810 C 0.07517 0.42741 0.53515 0.0
C811 C 0.09123 0.4264 0.46728 0.0
C812 C 0.09269 0.44544 0.41087 0.0
C813 C 0.07861 0.46505 0.42345 0.0
C814 C 0.07304 0.40757 0.59684 0.0
C815 C 0.10927 0.44517 0.33711 0.0
H816 H 0.16182 0.38647 0.49606 0.0
H817 H 0.10943 0.35526 0.34093 0.0
H818 H 0.1387 0.44074 0.50992 0.0
H819 H 0.12534 0.427 0.5986 0.0
H820 H 0.15517 0.42053 0.573 0.0
H821 H 0.07195 0.37065 0.32814 0.0
H822 H 0.0621 0.38944 0.41162 0.0
H823 H 0.07398 0.40172 0.31751 0.0
H824 H 0.04895 0.44811 0.598 0.0
H825 H 0.07999 0.47956 0.38009 0.0
H826 H 0.08996 0.40455 0.62848 0.0
H827 H 0.06851 0.3914 0.56287 0.0
H828 H 0.05966 0.41088 0.64577 0.0
H829 H 0.12736 0.4434 0.36021 0.0
H830 H 0.10804 0.46117 0.29814 0.0
H831 H 0.10565 0.43 0.29629 0.0
C832 C 0.98859 1.00276 0.83724 0.0
C833 C 1.00714 0.01253 0.79222 0.0
C834 C 0.98859 1.00208 0.92611 0.0
C835 C 1.00801 0.01056 0.97146 0.0
C836 C 0.02691 0.02022 0.92608 0.0
C837 C 0.02606 0.02148 0.83725 0.0
C838 C 0.96769 0.99242 0.97148 0.0
C839 C 0.04828 0.02881 0.9713 0.0
C840 C 1.00194 0.02807 0.20277 0.0
C841 C 1.00938 1.00804 0.2455 0.0
C842 C 1.00097 0.02894 0.11408 0.0
C843 C 1.00842 0.00959 0.06621 0.0
C844 C 0.01621 0.98937 0.10913 0.0
C845 C 0.01618 0.98868 0.19817 0.0
C846 C 0.99175 0.05054 0.07165 0.0
C847 C 0.02497 0.96859 0.06095 0.0
H848 H 0.97389 0.99587 0.80281 0.0
H849 H 0.04059 0.02874 0.80279 0.0
H850 H 0.97271 0.97687 1.00857 0.0
H851 H 0.96088 1.00543 1.01663 0.0
H852 H 0.95355 0.98753 0.92735 0.0
H853 H 0.06185 0.03501 0.92693 0.0
H854 H 0.04363 0.04323 1.01426 0.0
H855 H 0.05568 0.01469 1.01073 0.0
H856 H 0.99643 0.04303 0.23898 0.0
H857 H 0.02211 0.97322 0.23079 0.0
H858 H 0.97718 0.04599 0.02898 0.0
H859 H 1.00549 0.05856 0.03233 0.0
H860 H 0.98554 0.06362 0.11779 0.0
H861 H 0.01099 0.96156 1.02038 0.0
H862 H 0.03121 0.95454 0.1034 0.0
H863 H 0.03941 0.97386 1.01879 0.0
C864 C 0.24004 0.75183 0.46584 0.0
C865 C 0.26009 0.75915 0.50839 0.0
C866 C 0.23918 0.75093 0.37718 0.0
C867 C 0.25856 0.75832 0.32917 0.0
C868 C 0.2788 0.76598 0.3719 0.0
C869 C 0.27948 0.76589 0.46093 0.0
C870 C 0.21755 0.74184 0.33492 0.0
C871 C 0.29961 0.77467 0.32355 0.0
C872 C 0.26532 0.73854 0.10037 0.0
C873 C 0.25558 0.75713 0.0553 0.0
C874 C 0.26602 0.73851 0.18921 0.0
C875 C 0.25759 0.75796 0.23446 0.0
C876 C 0.24796 0.77691 0.18903 0.0
C877 C 0.24668 0.77608 0.10023 0.0
C878 C 0.27563 0.71756 0.23467 0.0
C879 C 0.23943 0.7983 0.23416 0.0
H880 H 0.22507 0.74638 0.50217 0.0
H881 H 0.29495 0.77173 0.49344 0.0
H882 H 0.20958 0.75563 0.29554 0.0
H883 H 0.22207 0.72727 0.29233 0.0
H884 H 0.20444 0.73568 0.38117 0.0
H885 H 0.31367 0.78082 0.36587 0.0
H886 H 0.30661 0.76068 0.28298 0.0
H887 H 0.29437 0.78916 0.28137 0.0
H888 H 0.27217 0.72381 0.06599 0.0
H889 H 0.23944 0.79064 0.0657 0.0
H890 H 0.2626 0.71078 0.27993 0.0
H891 H 0.29119 0.7225 0.27163 0.0
H892 H 0.28051 0.70342 0.1906 0.0
H893 H 0.22498 0.79372 0.27723 0.0
H894 H 0.23328 0.81192 0.18974 0.0
H895 H 0.25357 0.80561 0.27347 0.0
C896 C 0.48785 1.00499 0.6996 0.0
C897 C 0.50703 0.01349 0.74439 0.0
C898 C 0.48777 1.00431 0.61076 0.0
C899 C 0.50772 0.01141 0.56528 0.0
C900 C 0.52726 0.01976 0.61046 0.0
C901 C 0.52651 0.02111 0.69925 0.0
C902 C 0.46623 0.99614 0.56557 0.0
C903 C 0.54916 0.02683 0.56508 0.0
C904 C 0.51434 0.98905 0.33901 0.0
C905 C 0.50884 1.00882 0.29131 0.0
C906 C 0.51441 0.98971 0.42804 0.0
C907 C 0.50803 0.01041 0.47057 0.0
C908 C 0.5019 0.03023 0.42236 0.0
C909 C 0.50276 0.0293 0.33371 0.0
C910 C 0.52171 0.96837 0.47663 0.0
C911 C 0.49421 0.05242 0.4644 0.0
H912 H 0.47272 0.99913 0.73422 0.0
H913 H 0.5415 0.02736 0.73362 0.0
H914 H 0.46032 0.00959 0.52018 0.0
H915 H 0.47014 0.98028 0.52878 0.0
H916 H 0.4518 0.99224 0.6098 0.0
H917 H 0.56315 0.03206 0.60935 0.0
H918 H 0.55554 0.01223 0.52593 0.0
H919 H 0.54553 0.04154 0.52184 0.0
H920 H 0.5192 0.97323 0.3067 0.0
H921 H 0.49825 0.0446 0.29728 0.0
H922 H 0.50729 0.96235 0.5174 0.0
H923 H 0.53651 0.97262 0.51863 0.0
H924 H 0.52691 0.95392 0.43446 0.0
H925 H 0.47937 0.04889 0.50711 0.0
H926 H 0.48893 0.0659 0.41803 0.0
H927 H 0.50849 0.05944 0.50362 0.0
C928 C 0.24815 0.2749 0.95821 0.0
C929 C 0.2589 0.2567 1.00226 0.0
C930 C 0.24965 0.27654 0.86974 0.0
C931 C 0.26141 0.25906 0.82365 0.0
C932 C 0.2718 0.24032 0.86793 0.0
C933 C 0.27085 0.23964 0.95673 0.0
C934 C 0.23901 0.29723 0.82573 0.0
C935 C 0.28373 0.22085 0.82147 0.0
C936 C 0.24474 0.25319 0.59172 0.0
C937 C 0.26395 0.26291 0.55049 0.0
C938 C 0.24397 0.25133 0.68015 0.0
C939 C 0.26247 0.26022 0.72919 0.0
C940 C 0.2818 0.27039 0.68778 0.0
C941 C 0.28252 0.27118 0.59887 0.0
C942 C 0.22342 0.23959 0.721 0.0
C943 C 0.30155 0.2808 0.73744 0.0
H944 H 0.23923 0.28833 0.99331 0.0
H945 H 0.27917 0.22555 0.99061 0.0
H946 H 0.25235 0.30618 0.78709 0.0
H947 H 0.22512 0.29147 0.78219 0.0
H948 H 0.2315 0.30989 0.87085 0.0
H949 H 0.29003 0.20703 0.8648 0.0
H950 H 0.27159 0.21301 0.7753 0.0
H951 H 0.29871 0.2277 0.7854 0.0
H952 H 0.23047 0.24647 0.55449 0.0
H953 H 0.29736 0.27878 0.5672 0.0
H954 H 0.21394 0.25211 0.76127 0.0
H955 H 0.22946 0.22526 0.7625 0.0
H956 H 0.21112 0.2324 0.67387 0.0
H957 H 0.29478 0.29424 0.781 0.0
H958 H 0.31488 0.2888 0.69605 0.0
H959 H 0.30999 0.26726 0.77668 0.0
C960 C 0.75361 0.28162 0.9454 0.0
C961 C 0.7628 0.26287 0.9911 0.0
C962 C 0.75264 0.28127 0.85655 0.0
C963 C 0.76033 0.26136 0.81218 0.0
C964 C 0.76931 0.24224 0.85827 0.0
C965 C 0.77078 0.24338 0.94684 0.0
C966 C 0.74363 0.30232 0.81012 0.0
C967 C 0.77713 0.22043 0.81406 0.0
C968 C 0.73888 0.25253 0.58579 0.0
C969 C 0.75855 0.25854 0.53859 0.0
C970 C 0.73923 0.25316 0.67477 0.0
C971 C 0.7595 0.26068 0.7176 0.0
C972 C 0.77921 0.26728 0.66987 0.0
C973 C 0.7786 0.2658 0.58135 0.0
C974 C 0.71805 0.2454 0.72303 0.0
C975 C 0.80095 0.27604 0.71229 0.0
H976 H 0.74745 0.29676 0.97913 0.0
H977 H 0.77759 0.22868 0.98173 0.0
H978 H 0.757 0.30874 0.76545 0.0
H979 H 0.72814 0.29763 0.77236 0.0
H980 H 0.73887 0.31664 0.85359 0.0
H981 H 0.78269 0.20671 0.85908 0.0
H982 H 0.76281 0.21354 0.7746 0.0
H983 H 0.79182 0.22438 0.77128 0.0
H984 H 0.72337 0.24684 0.5532 0.0
H985 H 0.79379 0.27079 0.54534 0.0
H986 H 0.71151 0.25976 0.76287 0.0
H987 H 0.72269 0.23087 0.76592 0.0
H988 H 0.70383 0.23962 0.68066 0.0
H989 H 0.79671 0.29093 0.75373 0.0
H990 H 0.81434 0.28161 0.66613 0.0
H991 H 0.80845 0.26224 0.75287 0.0
C992 C 0.73791 0.75393 0.44332 0.0
C993 C 0.7573 0.76079 0.49049 0.0
C994 C 0.7385 0.75384 0.35429 0.0
C995 C 0.75866 0.76162 0.31124 0.0
C996 C 0.77804 0.76913 0.35893 0.0
C997 C 0.77727 0.76823 0.44763 0.0
C998 C 0.7177 0.74502 0.3063 0.0
C999 C 0.79957 0.77834 0.3163 0.0
C1000 C 0.77041 0.74383 0.08264 0.0
C1001 C 0.76137 0.7627 0.0373 0.0
C1002 C 0.76923 0.74303 0.17147 0.0
C1003 C 0.75953 0.76195 0.2165 0.0
C1004 C 0.75094 0.78132 0.17083 0.0
C1005 C 0.75155 0.78126 0.08198 0.0
C1006 C 0.77794 0.72171 0.21707 0.0
C1007 C 0.74125 0.80224 0.21583 0.0
H1008 H 0.7225 0.74801 0.47607 0.0
H1009 H 0.79224 0.77378 0.48373 0.0
H1010 H 0.71059 0.75896 0.26547 0.0
H1011 H 0.72298 0.73055 0.26441 0.0
H1012 H 0.70371 0.73881 0.34888 0.0
H1013 H 0.81268 0.7846 0.36231 0.0
H1014 H 0.8076 0.76458 0.2772 0.0
H1015 H 0.79493 0.79287 0.27338 0.0
H1016 H 0.77772 0.7293 0.04842 0.0
H1017 H 0.74459 0.79593 0.04729 0.0
H1018 H 0.76388 0.71435 0.25675 0.0
H1019 H 0.79241 0.7264 0.25983 0.0
H1020 H 0.7841 0.7081 0.17293 0.0
H1021 H 0.72579 0.79722 0.2532 0.0
H1022 H 0.73621 0.81631 0.17144 0.0
H1023 H 0.75431 0.80914 0.26069 0.0
C1024 C 0.49363 0.50032 0.70293 0.0
C1025 C 0.51254 0.50947 0.74755 0.0
C1026 C 0.49252 0.50164 0.61426 0.0
C1027 C 0.51111 0.5117 0.5685 0.0
C1028 C 0.53045 0.52061 0.61328 0.0
C1029 C 0.53074 0.51974 0.70213 0.0
C1030 C 0.47129 0.49251 0.56959 0.0
C1031 C 0.55098 0.5308 0.56729 0.0
C1032 C 0.51731 0.49351 0.33823 0.0
C1033 C 0.50907 0.51309 0.29468 0.0
C1034 C 0.51849 0.49304 0.42686 0.0
C1035 C 0.51057 0.51236 0.47384 0.0
C1036 C 0.50201 0.53214 0.43019 0.0
C1037 C 0.50172 0.53241 0.34116 0.0
C1038 C 0.5284 0.47187 0.47018 0.0
C1039 C 0.49281 0.55286 0.47758 0.0
H1040 H 0.47934 0.49264 0.73758 0.0
H1041 H 0.54544 0.52679 0.73612 0.0
H1042 H 0.46362 0.50633 0.52942 0.0
H1043 H 0.47619 0.47799 0.52742 0.0
H1044 H 0.45784 0.48625 0.61433 0.0
H1045 H 0.56488 0.53652 0.6111 0.0
H1046 H 0.55833 0.51777 0.52334 0.0
H1047 H 0.54539 0.54589 0.5288 0.0
H1048 H 0.52328 0.4786 0.30277 0.0
H1049 H 0.49523 0.54754 0.30794 0.0
H1050 H 0.51497 0.46366 0.5104 0.0
H1051 H 0.54294 0.47699 0.5121 0.0
H1052 H 0.53485 0.45877 0.42459 0.0
H1053 H 0.4785 0.54738 0.52001 0.0
H1054 H 0.48624 0.56663 0.43461 0.0
H1055 H 0.50664 0.56032 0.51781 0.0
C1056 C 0.99519 0.49626 0.84904 0.0
C1057 C 0.01397 0.50606 0.80559 0.0
C1058 C 0.99344 0.49786 0.9374 0.0
C1059 C 0.01136 0.50874 0.98406 0.0
C1060 C 0.03065 0.51822 0.9404 0.0
C1061 C 0.03146 0.51721 0.85161 0.0
C1062 C 0.97218 0.48824 0.98068 0.0
C1063 C 0.05055 0.52918 0.98753 0.0
C1064 C 0.99966 0.53007 0.20858 0.0
C1065 C 1.00698 0.51106 0.25709 0.0
C1066 C 1.00066 0.52946 0.1197 0.0
C1067 C 0.01008 0.50975 0.07848 0.0
C1068 C 0.018 0.49076 0.12767 0.0
C1069 C 0.01595 0.49148 0.21602 0.0
C1070 C 0.9913 0.54976 0.06986 0.0
C1071 C 0.02891 0.46975 0.08704 0.0
H1072 H 0.98143 0.48798 0.81354 0.0
H1073 H 0.046 0.52482 0.81817 0.0
H1074 H 0.9772 0.47402 0.02424 0.0
H1075 H 0.96383 0.50196 1.01918 0.0
H1076 H 0.95924 0.48144 0.93511 0.0
H1077 H 0.06469 0.5349 0.94467 0.0
H1078 H 0.04432 0.54442 0.02356 0.0
H1079 H 0.0578 0.51664 0.03382 0.0
H1080 H 0.99269 0.54521 0.24011 0.0
H1081 H 0.02197 0.47687 0.25333 0.0
H1082 H 0.97767 0.54372 0.02563 0.0
H1083 H 1.00531 0.55759 0.03132 0.0
H1084 H 0.98382 0.5634 0.11108 0.0
H1085 H 0.01606 0.46092 0.04617 0.0
H1086 H 0.03543 0.45707 0.13432 0.0
H1087 H 0.04358 0.47517 0.04618 0.0
loop_
_geom_bond_atom_site_label_1
_geom_bond_atom_site_label_2
_geom_bond_distance
_geom_bond_site_symmetry_2
_ccdc_geom_bond_type
Nd0 C2 2.836 . S
Nd0 O20 2.500 . S
Nd0 O21 2.492 . S
Nd0 O22 2.487 1_545 S
Nd0 O23 2.682 1_545 S
Nd0 O24 2.410 . S
Nd0 O29 2.414 1_455 S
Nd0 O31 2.424 . S
Nd1 C11 2.836 . S
Nd1 O23 2.414 1_655 S
Nd1 O25 2.424 . S
Nd1 O26 2.500 . S
Nd1 O27 2.492 . S
Nd1 O28 2.487 1_565 S
Nd1 O29 2.682 1_565 S
Nd1 O30 2.410 . S
C2 Nd0 2.836 . S
C2 C3 1.498 . S
C2 O20 1.258 . S
C2 O21 1.239 . S
C3 C2 1.498 . S
C3 C4 1.366 . S
C3 C8 1.407 . S
C4 C3 1.366 . S
C4 C5 1.392 . S
C4 H32 0.930 . S
C5 C4 1.392 . S
C5 C6 1.398 . S
C5 H33 0.929 . S
C6 C5 1.398 . S
C6 C7 1.352 . S
C7 C6 1.352 . S
C7 C8 1.384 . S
C7 H34 0.930 . S
C8 C3 1.407 . S
C8 C7 1.384 . S
C8 H35 0.929 . S
C9 O22 1.241 . S
C9 O23 1.273 . S
C10 O24 1.251 . S
C10 O25 1.268 1_445 S
C11 Nd1 2.836 . S
C11 C12 1.498 . S
C11 O26 1.258 . S
C11 O27 1.239 . S
C12 C11 1.498 . S
C12 C13 1.366 . S
C12 C17 1.407 . S
C13 C12 1.366 . S
C13 C14 1.392 . S
C13 H36 0.930 . S
C14 C13 1.392 . S
C14 C15 1.398 . S
C14 H37 0.929 . S
C15 C14 1.398 . S
C15 C16 1.352 . S
C16 C15 1.352 . S
C16 C17 1.384 . S
C16 H38 0.930 . S
C17 C12 1.407 . S
C17 C16 1.384 . S
C17 H39 0.929 . S
C18 O28 1.241 . S
C18 O29 1.273 . S
C19 O30 1.251 . S
C19 O31 1.268 1_665 S
O20 Nd0 2.500 . S
O20 C2 1.258 . S
O21 Nd0 2.492 . S
O21 C2 1.239 . S
O22 Nd0 2.487 1_565 S
O22 C9 1.241 . S
O23 Nd0 2.682 1_565 S
O23 Nd1 2.414 1_455 S
O23 C9 1.273 . S
O24 Nd0 2.410 . S
O24 C10 1.251 . S
O25 Nd1 2.424 . S
O25 C10 1.268 1_665 S
O26 Nd1 2.500 . S
O26 C11 1.258 . S
O27 Nd1 2.492 . S
O27 C11 1.239 . S
O28 Nd1 2.487 1_545 S
O28 C18 1.241 . S
O29 Nd0 2.414 1_655 S
O29 Nd1 2.682 1_545 S
O29 C18 1.273 . S
O30 Nd1 2.410 . S
O30 C19 1.251 . S
O31 Nd0 2.424 . S
O31 C19 1.268 1_445 S
H32 C4 0.930 . S
H33 C5 0.929 . S
H34 C7 0.930 . S
H35 C8 0.929 . S
H36 C13 0.930 . S
H37 C14 0.929 . S
H38 C16 0.930 . S
H39 C17 0.929 . S
Nd40 C42 2.836 . S
Nd40 O60 2.500 . S
Nd40 O61 2.492 . S
Nd40 O62 2.487 . S
Nd40 O63 2.682 . S
Nd40 O64 2.410 . S
Nd40 O69 2.414 . S
Nd40 O71 2.424 . S
Nd41 C51 2.836 . S
Nd41 O63 2.414 . S
Nd41 O65 2.424 . S
Nd41 O66 2.500 . S
Nd41 O67 2.492 . S
Nd41 O68 2.487 . S
Nd41 O69 2.682 . S
Nd41 O70 2.410 . S
C42 Nd40 2.836 . S
C42 C43 1.498 . S
C42 O60 1.258 . S
C42 O61 1.239 . S
C43 C42 1.498 . S
C43 C44 1.366 . S
C43 C48 1.407 . S
C44 C43 1.366 . S
C44 C45 1.392 . S
C44 H72 0.930 . S
C45 C44 1.392 . S
C45 C46 1.398 . S
C45 H73 0.929 . S
C46 C45 1.398 . S
C46 C47 1.352 . S
C47 C46 1.352 . S
C47 C48 1.384 . S
C47 H74 0.930 . S
C48 C43 1.407 . S
C48 C47 1.384 . S
C48 H75 0.929 . S
C49 O62 1.241 . S
C49 O63 1.273 . S
C50 O64 1.251 . S
C50 O65 1.268 . S
C51 Nd41 2.836 . S
C51 C52 1.498 . S
C51 O66 1.258 . S
C51 O67 1.239 . S
C52 C51 1.498 . S
C52 C53 1.366 . S
C52 C57 1.407 . S
C53 C52 1.366 . S
C53 C54 1.392 . S
C53 H76 0.930 . S
C54 C53 1.392 . S
C54 C55 1.398 . S
C54 H77 0.923 1_556 S
C55 C54 1.398 . S
C55 C56 1.352 . S
C56 C55 1.352 . S
C56 C57 1.384 . S
C56 H78 0.930 . S
C57 C52 1.407 . S
C57 C56 1.384 . S
C57 H79 0.929 . S
C58 O68 1.241 . S
C58 O69 1.273 . S
C59 O70 1.251 . S
C59 O71 1.268 . S
O60 Nd40 2.500 . S
O60 C42 1.258 . S
O61 Nd40 2.492 . S
O61 C42 1.239 . S
O62 Nd40 2.487 . S
O62 C49 1.241 . S
O63 Nd40 2.682 . S
O63 Nd41 2.414 . S
O63 C49 1.273 . S
O64 Nd40 2.410 . S
O64 C50 1.251 . S
O65 Nd41 2.424 . S
O65 C50 1.268 . S
O66 Nd41 2.500 . S
O66 C51 1.258 . S
O67 Nd41 2.492 . S
O67 C51 1.239 . S
O68 Nd41 2.487 . S
O68 C58 1.241 . S
O69 Nd40 2.414 . S
O69 Nd41 2.682 . S
O69 C58 1.273 . S
O70 Nd41 2.410 . S
O70 C59 1.251 . S
O71 Nd40 2.424 . S
O71 C59 1.268 . S
H72 C44 0.930 . S
H73 C45 0.929 . S
H74 C47 0.930 . S
H75 C48 0.929 . S
H76 C53 0.930 . S
H77 C54 0.923 1_554 S
H78 C56 0.930 . S
H79 C57 0.929 . S
Nd80 C82 2.836 1_554 S
Nd80 O100 2.500 1_554 S
Nd80 O101 2.492 1_554 S
Nd80 O102 2.487 1_565 S
Nd80 O103 2.682 1_565 S
Nd80 O104 2.410 1_554 S
Nd80 O109 2.414 1_554 S
Nd80 O111 2.424 . S
Nd81 C91 2.836 1_556 S
Nd81 O103 2.414 1_556 S
Nd81 O105 2.424 . S
Nd81 O106 2.500 1_556 S
Nd81 O107 2.492 1_556 S
Nd81 O108 2.487 1_545 S
Nd81 O109 2.682 1_545 S
Nd81 O110 2.410 1_556 S
C82 Nd80 2.836 1_556 S
C82 C83 1.498 . S
C82 O100 1.258 . S
C82 O101 1.239 . S
C83 C82 1.498 . S
C83 C84 1.366 . S
C83 C88 1.407 . S
C84 C83 1.366 . S
C84 C85 1.392 . S
C84 H112 0.930 . S
C85 C84 1.392 . S
C85 C86 1.398 . S
C85 H113 0.929 . S
C86 C85 1.398 . S
C86 C87 1.352 . S
C87 C86 1.352 . S
C87 C88 1.384 . S
C87 H114 0.930 . S
C88 C83 1.407 . S
C88 C87 1.384 . S
C88 H115 0.929 . S
C89 O102 1.241 . S
C89 O103 1.273 . S
C90 O104 1.251 . S
C90 O105 1.268 1_565 S
C91 Nd81 2.836 1_554 S
C91 C92 1.498 . S
C91 O106 1.258 . S
C91 O107 1.239 . S
C92 C91 1.498 . S
C92 C93 1.366 . S
C92 C97 1.407 . S
C93 C92 1.366 . S
C93 C94 1.392 . S
C93 H116 0.930 . S
C94 C93 1.392 . S
C94 C95 1.398 . S
C94 H117 0.929 . S
C95 C94 1.398 . S
C95 C96 1.352 . S
C96 C95 1.352 . S
C96 C97 1.384 . S
C96 H118 0.930 . S
C97 C92 1.407 . S
C97 C96 1.384 . S
C97 H119 0.929 . S
C98 O108 1.241 . S
C98 O109 1.273 . S
C99 O110 1.251 . S
C99 O111 1.268 1_545 S
O100 Nd80 2.500 1_556 S
O100 C82 1.258 . S
O101 Nd80 2.492 1_556 S
O101 C82 1.239 . S
O102 Nd80 2.487 1_545 S
O102 C89 1.241 . S
O103 Nd80 2.682 1_545 S
O103 Nd81 2.414 1_554 S
O103 C89 1.273 . S
O104 Nd80 2.410 1_556 S
O104 C90 1.251 . S
O105 Nd81 2.424 . S
O105 C90 1.268 1_545 S
O106 Nd81 2.500 1_554 S
O106 C91 1.258 . S
O107 Nd81 2.492 1_554 S
O107 C91 1.239 . S
O108 Nd81 2.487 1_565 S
O108 C98 1.241 . S
O109 Nd80 2.414 1_556 S
O109 Nd81 2.682 1_565 S
O109 C98 1.273 . S
O110 Nd81 2.410 1_554 S
O110 C99 1.251 . S
O111 Nd80 2.424 . S
O111 C99 1.268 1_565 S
H112 C84 0.930 . S
H113 C85 0.929 . S
H114 C87 0.930 . S
H115 C88 0.929 . S
H116 C93 0.930 . S
H117 C94 0.929 . S
H118 C96 0.930 . S
H119 C97 0.929 . S
Nd120 C122 2.836 . S
Nd120 O140 2.500 . S
Nd120 O141 2.492 . S
Nd120 O142 2.487 . S
Nd120 O143 2.682 . S
Nd120 O144 2.410 . S
Nd120 O149 2.414 . S
Nd120 O151 2.424 . S
Nd121 C131 2.836 . S
Nd121 O143 2.414 . S
Nd121 O145 2.424 . S
Nd121 O146 2.500 . S
Nd121 O147 2.492 . S
Nd121 O148 2.487 . S
Nd121 O149 2.682 . S
Nd121 O150 2.410 . S
C122 Nd120 2.836 . S
C122 C123 1.498 . S
C122 O140 1.258 . S
C122 O141 1.239 . S
C123 C122 1.498 . S
C123 C124 1.366 . S
C123 C128 1.407 . S
C124 C123 1.366 . S
C124 C125 1.392 . S
C124 H152 0.930 . S
C125 C124 1.392 . S
C125 C126 1.398 . S
C125 H153 0.923 1_554 S
C126 C125 1.398 . S
C126 C127 1.352 . S
C127 C126 1.352 . S
C127 C128 1.384 . S
C127 H154 0.930 . S
C128 C123 1.407 . S
C128 C127 1.384 . S
C128 H155 0.929 . S
C129 O142 1.241 . S
C129 O143 1.273 . S
C130 O144 1.251 . S
C130 O145 1.268 . S
C131 Nd121 2.836 . S
C131 C132 1.498 . S
C131 O146 1.258 . S
C131 O147 1.239 . S
C132 C131 1.498 . S
C132 C133 1.366 . S
C132 C137 1.407 . S
C133 C132 1.366 . S
C133 C134 1.392 . S
C133 H156 0.930 . S
C134 C133 1.392 . S
C134 C135 1.398 . S
C134 H157 0.929 . S
C135 C134 1.398 . S
C135 C136 1.352 . S
C136 C135 1.352 . S
C136 C137 1.384 . S
C136 H158 0.930 . S
C137 C132 1.407 . S
C137 C136 1.384 . S
C137 H159 0.929 . S
C138 O148 1.241 . S
C138 O149 1.273 . S
C139 O150 1.251 . S
C139 O151 1.268 . S
O140 Nd120 2.500 . S
O140 C122 1.258 . S
O141 Nd120 2.492 . S
O141 C122 1.239 . S
O142 Nd120 2.487 . S
O142 C129 1.241 . S
O143 Nd120 2.682 . S
O143 Nd121 2.414 . S
O143 C129 1.273 . S
O144 Nd120 2.410 . S
O144 C130 1.251 . S
O145 Nd121 2.424 . S
O145 C130 1.268 . S
O146 Nd121 2.500 . S
O146 C131 1.258 . S
O147 Nd121 2.492 . S
O147 C131 1.239 . S
O148 Nd121 2.487 . S
O148 C138 1.241 . S
O149 Nd120 2.414 . S
O149 Nd121 2.682 . S
O149 C138 1.273 . S
O150 Nd121 2.410 . S
O150 C139 1.251 . S
O151 Nd120 2.424 . S
O151 C139 1.268 . S
H152 C124 0.930 . S
H153 C125 0.923 1_556 S
H154 C127 0.930 . S
H155 C128 0.929 . S
H156 C133 0.930 . S
H157 C134 0.929 . S
H158 C136 0.930 . S
H159 C137 0.929 . S
Nd160 C162 2.836 . S
Nd160 O180 2.500 . S
Nd160 O181 2.492 . S
Nd160 O182 2.487 . S
Nd160 O183 2.682 . S
Nd160 O184 2.410 . S
Nd160 O189 2.414 . S
Nd160 O191 2.424 . S
Nd161 C171 2.836 . S
Nd161 O183 2.414 . S
Nd161 O185 2.424 . S
Nd161 O186 2.500 . S
Nd161 O187 2.492 . S
Nd161 O188 2.487 . S
Nd161 O189 2.682 . S
Nd161 O190 2.410 . S
C162 Nd160 2.836 . S
C162 C163 1.498 . S
C162 O180 1.258 . S
C162 O181 1.239 . S
C163 C162 1.498 . S
C163 C164 1.366 . S
C163 C168 1.407 . S
C164 C163 1.366 . S
C164 C165 1.392 . S
C164 H192 0.930 . S
C165 C164 1.392 . S
C165 C166 1.398 . S
C165 H193 0.923 1_554 S
C166 C165 1.398 . S
C166 C167 1.352 . S
C167 C166 1.352 . S
C167 C168 1.384 . S
C167 H194 0.930 . S
C168 C163 1.407 . S
C168 C167 1.384 . S
C168 H195 0.929 . S
C169 O182 1.241 . S
C169 O183 1.273 . S
C170 O184 1.251 . S
C170 O185 1.268 . S
C171 Nd161 2.836 . S
C171 C172 1.498 . S
C171 O186 1.258 . S
C171 O187 1.239 . S
C172 C171 1.498 . S
C172 C173 1.366 . S
C172 C177 1.407 . S
C173 C172 1.366 . S
C173 C174 1.392 . S
C173 H196 0.930 . S
C174 C173 1.392 . S
C174 C175 1.398 . S
C174 H197 0.929 . S
C175 C174 1.398 . S
C175 C176 1.352 . S
C176 C175 1.352 . S
C176 C177 1.384 . S
C176 H198 0.930 . S
C177 C172 1.407 . S
C177 C176 1.384 . S
C177 H199 0.929 . S
C178 O188 1.241 . S
C178 O189 1.273 . S
C179 O190 1.251 . S
C179 O191 1.268 . S
O180 Nd160 2.500 . S
O180 C162 1.258 . S
O181 Nd160 2.492 . S
O181 C162 1.239 . S
O182 Nd160 2.487 . S
O182 C169 1.241 . S
O183 Nd160 2.682 . S
O183 Nd161 2.414 . S
O183 C169 1.273 . S
O184 Nd160 2.410 . S
O184 C170 1.251 . S
O185 Nd161 2.424 . S
O185 C170 1.268 . S
O186 Nd161 2.500 . S
O186 C171 1.258 . S
O187 Nd161 2.492 . S
O187 C171 1.239 . S
O188 Nd161 2.487 . S
O188 C178 1.241 . S
O189 Nd160 2.414 . S
O189 Nd161 2.682 . S
O189 C178 1.273 . S
O190 Nd161 2.410 . S
O190 C179 1.251 . S
O191 Nd160 2.424 . S
O191 C179 1.268 . S
H192 C164 0.930 . S
H193 C165 0.923 1_556 S
H194 C167 0.930 . S
H195 C168 0.929 . S
H196 C173 0.930 . S
H197 C174 0.929 . S
H198 C176 0.930 . S
H199 C177 0.929 . S
Nd200 C202 2.836 . S
Nd200 O220 2.500 . S
Nd200 O221 2.492 . S
Nd200 O222 2.487 . S
Nd200 O223 2.682 . S
Nd200 O224 2.410 . S
Nd200 O229 2.414 . S
Nd200 O231 2.424 . S
Nd201 C211 2.836 . S
Nd201 O223 2.414 . S
Nd201 O225 2.424 . S
Nd201 O226 2.500 . S
Nd201 O227 2.492 . S
Nd201 O228 2.487 . S
Nd201 O229 2.682 . S
Nd201 O230 2.410 . S
C202 Nd200 2.836 . S
C202 C203 1.498 . S
C202 O220 1.258 . S
C202 O221 1.239 . S
C203 C202 1.498 . S
C203 C204 1.366 . S
C203 C208 1.407 . S
C204 C203 1.366 . S
C204 C205 1.392 . S
C204 H232 0.930 . S
C205 C204 1.392 . S
C205 C206 1.398 . S
C205 H233 0.929 . S
C206 C205 1.398 . S
C206 C207 1.352 . S
C207 C206 1.352 . S
C207 C208 1.384 . S
C207 H234 0.930 . S
C208 C203 1.407 . S
C208 C207 1.384 . S
C208 H235 0.929 . S
C209 O222 1.241 . S
C209 O223 1.273 . S
C210 O224 1.251 . S
C210 O225 1.268 . S
C211 Nd201 2.836 . S
C211 C212 1.498 . S
C211 O226 1.258 . S
C211 O227 1.239 . S
C212 C211 1.498 . S
C212 C213 1.366 . S
C212 C217 1.407 . S
C213 C212 1.366 . S
C213 C214 1.392 . S
C213 H236 0.930 . S
C214 C213 1.392 . S
C214 C215 1.398 . S
C214 H237 0.923 1_556 S
C215 C214 1.398 . S
C215 C216 1.352 . S
C216 C215 1.352 . S
C216 C217 1.384 . S
C216 H238 0.930 . S
C217 C212 1.407 . S
C217 C216 1.384 . S
C217 H239 0.929 . S
C218 O228 1.241 . S
C218 O229 1.273 . S
C219 O230 1.251 . S
C219 O231 1.268 . S
O220 Nd200 2.500 . S
O220 C202 1.258 . S
O221 Nd200 2.492 . S
O221 C202 1.239 . S
O222 Nd200 2.487 . S
O222 C209 1.241 . S
O223 Nd200 2.682 . S
O223 Nd201 2.414 . S
O223 C209 1.273 . S
O224 Nd200 2.410 . S
O224 C210 1.251 . S
O225 Nd201 2.424 . S
O225 C210 1.268 . S
O226 Nd201 2.500 . S
O226 C211 1.258 . S
O227 Nd201 2.492 . S
O227 C211 1.239 . S
O228 Nd201 2.487 . S
O228 C218 1.241 . S
O229 Nd200 2.414 . S
O229 Nd201 2.682 . S
O229 C218 1.273 . S
O230 Nd201 2.410 . S
O230 C219 1.251 . S
O231 Nd200 2.424 . S
O231 C219 1.268 . S
H232 C204 0.930 . S
H233 C205 0.929 . S
H234 C207 0.930 . S
H235 C208 0.929 . S
H236 C213 0.930 . S
H237 C214 0.923 1_554 S
H238 C216 0.930 . S
H239 C217 0.929 . S
Nd240 C242 2.836 1_554 S
Nd240 O260 2.500 1_554 S
Nd240 O261 2.492 1_554 S
Nd240 O262 2.487 . S
Nd240 O263 2.682 . S
Nd240 O264 2.410 1_554 S
Nd240 O269 2.414 1_554 S
Nd240 O271 2.424 . S
Nd241 C251 2.836 1_556 S
Nd241 O263 2.414 1_556 S
Nd241 O265 2.424 . S
Nd241 O266 2.500 1_556 S
Nd241 O267 2.492 1_556 S
Nd241 O268 2.487 . S
Nd241 O269 2.682 . S
Nd241 O270 2.410 1_556 S
C242 Nd240 2.836 1_556 S
C242 C243 1.498 . S
C242 O260 1.258 . S
C242 O261 1.239 . S
C243 C242 1.498 . S
C243 C244 1.366 . S
C243 C248 1.407 . S
C244 C243 1.366 . S
C244 C245 1.392 . S
C244 H272 0.930 . S
C245 C244 1.392 . S
C245 C246 1.398 . S
C245 H273 0.929 . S
C246 C245 1.398 . S
C246 C247 1.352 . S
C247 C246 1.352 . S
C247 C248 1.384 . S
C247 H274 0.930 . S
C248 C243 1.407 . S
C248 C247 1.384 . S
C248 H275 0.929 . S
C249 O262 1.241 . S
C249 O263 1.273 . S
C250 O264 1.251 . S
C250 O265 1.268 . S
C251 Nd241 2.836 1_554 S
C251 C252 1.498 . S
C251 O266 1.258 . S
C251 O267 1.239 . S
C252 C251 1.498 . S
C252 C253 1.366 . S
C252 C257 1.407 . S
C253 C252 1.366 . S
C253 C254 1.392 . S
C253 H276 0.930 . S
C254 C253 1.392 . S
C254 C255 1.398 . S
C254 H277 0.929 . S
C255 C254 1.398 . S
C255 C256 1.352 . S
C256 C255 1.352 . S
C256 C257 1.384 . S
C256 H278 0.930 . S
C257 C252 1.407 . S
C257 C256 1.384 . S
C257 H279 0.929 . S
C258 O268 1.241 . S
C258 O269 1.273 . S
C259 O270 1.251 . S
C259 O271 1.268 . S
O260 Nd240 2.500 1_556 S
O260 C242 1.258 . S
O261 Nd240 2.492 1_556 S
O261 C242 1.239 . S
O262 Nd240 2.487 . S
O262 C249 1.241 . S
O263 Nd240 2.682 . S
O263 Nd241 2.414 1_554 S
O263 C249 1.273 . S
O264 Nd240 2.410 1_556 S
O264 C250 1.251 . S
O265 Nd241 2.424 . S
O265 C250 1.268 . S
O266 Nd241 2.500 1_554 S
O266 C251 1.258 . S
O267 Nd241 2.492 1_554 S
O267 C251 1.239 . S
O268 Nd241 2.487 . S
O268 C258 1.241 . S
O269 Nd240 2.414 1_556 S
O269 Nd241 2.682 . S
O269 C258 1.273 . S
O270 Nd241 2.410 1_554 S
O270 C259 1.251 . S
O271 Nd240 2.424 . S
O271 C259 1.268 . S
H272 C244 0.930 . S
H273 C245 0.929 . S
H274 C247 0.930 . S
H275 C248 0.929 . S
H276 C253 0.930 . S
H277 C254 0.929 . S
H278 C256 0.930 . S
H279 C257 0.929 . S
Nd280 C282 2.836 . S
Nd280 O300 2.500 . S
Nd280 O301 2.492 . S
Nd280 O302 2.487 . S
Nd280 O303 2.682 . S
Nd280 O304 2.410 . S
Nd280 O309 2.414 1_655 S
Nd280 O311 2.424 . S
Nd281 C291 2.836 . S
Nd281 O303 2.414 1_455 S
Nd281 O305 2.424 . S
Nd281 O306 2.500 . S
Nd281 O307 2.492 . S
Nd281 O308 2.487 . S
Nd281 O309 2.682 . S
Nd281 O310 2.410 . S
C282 Nd280 2.836 . S
C282 C283 1.498 . S
C282 O300 1.258 . S
C282 O301 1.239 . S
C283 C282 1.498 . S
C283 C284 1.366 . S
C283 C288 1.407 . S
C284 C283 1.366 . S
C284 C285 1.392 . S
C284 H312 0.930 . S
C285 C284 1.392 . S
C285 C286 1.398 . S
C285 H313 0.929 . S
C286 C285 1.398 . S
C286 C287 1.352 . S
C287 C286 1.352 . S
C287 C288 1.384 . S
C287 H314 0.930 . S
C288 C283 1.407 . S
C288 C287 1.384 . S
C288 H315 0.929 . S
C289 O302 1.241 . S
C289 O303 1.273 . S
C290 O304 1.251 . S
C290 O305 1.268 1_655 S
C291 Nd281 2.836 . S
C291 C292 1.498 . S
C291 O306 1.258 . S
C291 O307 1.239 . S
C292 C291 1.498 . S
C292 C293 1.366 . S
C292 C297 1.407 . S
C293 C292 1.366 . S
C293 C294 1.392 . S
C293 H316 0.930 . S
C294 C293 1.392 . S
C294 C295 1.398 . S
C294 H317 0.929 . S
C295 C294 1.398 . S
C295 C296 1.352 . S
C296 C295 1.352 . S
C296 C297 1.384 . S
C296 H318 0.930 . S
C297 C292 1.407 . S
C297 C296 1.384 . S
C297 H319 0.929 . S
C298 O308 1.241 . S
C298 O309 1.273 . S
C299 O310 1.251 . S
C299 O311 1.268 1_455 S
O300 Nd280 2.500 . S
O300 C282 1.258 . S
O301 Nd280 2.492 . S
O301 C282 1.239 . S
O302 Nd280 2.487 . S
O302 C289 1.241 . S
O303 Nd280 2.682 . S
O303 Nd281 2.414 1_655 S
O303 C289 1.273 . S
O304 Nd280 2.410 . S
O304 C290 1.251 . S
O305 Nd281 2.424 . S
O305 C290 1.268 1_455 S
O306 Nd281 2.500 . S
O306 C291 1.258 . S
O307 Nd281 2.492 . S
O307 C291 1.239 . S
O308 Nd281 2.487 . S
O308 C298 1.241 . S
O309 Nd280 2.414 1_455 S
O309 Nd281 2.682 . S
O309 C298 1.273 . S
O310 Nd281 2.410 . S
O310 C299 1.251 . S
O311 Nd280 2.424 . S
O311 C299 1.268 1_655 S
H312 C284 0.930 . S
H313 C285 0.929 . S
H314 C287 0.930 . S
H315 C288 0.929 . S
H316 C293 0.930 . S
H317 C294 0.929 . S
H318 C296 0.930 . S
H319 C297 0.929 . S
C320 C321 1.391 . S
C320 C322 1.394 . S
C320 H336 0.931 . S
C321 C320 1.391 . S
C321 C325 1.376 . S
C322 C320 1.394 . S
C322 C323 1.369 . S
C322 C326 1.531 . S
C323 C322 1.369 . S
C323 C324 1.410 . S
C323 C331 1.503 . S
C324 C323 1.410 . S
C324 C325 1.392 . S
C324 C327 1.511 . S
C325 C321 1.376 . S
C325 C324 1.392 . S
C325 H337 0.929 . S
C326 C322 1.531 . S
C326 H338 0.960 . S
C326 H339 0.962 . S
C326 H340 0.960 . S
C327 C324 1.511 . S
C327 H341 0.961 . S
C327 H342 0.961 . S
C327 H343 0.961 . S
C328 C329 1.370 . S
C328 C330 1.363 . S
C328 H344 0.931 . S
C329 C328 1.370 . S
C329 C333 1.408 . S
C330 C328 1.363 . S
C330 C331 1.370 . S
C330 C334 1.524 . S
C331 C323 1.503 . S
C331 C330 1.370 . S
C331 C332 1.403 . S
C332 C331 1.403 . S
C332 C333 1.404 . S
C332 C335 1.539 . S
C333 C329 1.408 . S
C333 C332 1.404 . S
C333 H345 0.930 . S
C334 C330 1.524 . S
C334 H346 0.956 . S
C334 H347 0.961 . S
C334 H348 0.961 . S
C335 C332 1.539 . S
C335 H349 0.958 . S
C335 H350 0.961 . S
C335 H351 0.960 . S
H336 C320 0.931 . S
H337 C325 0.929 . S
H338 C326 0.960 . S
H339 C326 0.962 . S
H340 C326 0.960 . S
H341 C327 0.961 . S
H342 C327 0.961 . S
H343 C327 0.961 . S
H344 C328 0.931 . S
H345 C333 0.930 . S
H346 C334 0.956 . S
H347 C334 0.961 . S
H348 C334 0.961 . S
H349 C335 0.958 . S
H350 C335 0.961 . S
H351 C335 0.960 . S
C352 C353 1.391 . S
C352 C354 1.394 . S
C352 H368 0.931 . S
C353 C352 1.391 . S
C353 C357 1.376 . S
C354 C352 1.394 . S
C354 C355 1.369 . S
C354 C358 1.531 . S
C355 C354 1.369 . S
C355 C356 1.410 . S
C355 C363 1.503 . S
C356 C355 1.410 . S
C356 C357 1.392 . S
C356 C359 1.511 . S
C357 C353 1.376 . S
C357 C356 1.392 . S
C357 H369 0.929 . S
C358 C354 1.531 . S
C358 H370 0.960 . S
C358 H371 0.962 . S
C358 H372 0.960 . S
C359 C356 1.511 . S
C359 H373 0.961 . S
C359 H374 0.961 . S
C359 H375 0.961 . S
C360 C361 1.370 . S
C360 C362 1.363 . S
C360 H376 0.931 . S
C361 C360 1.370 . S
C361 C365 1.408 . S
C362 C360 1.363 . S
C362 C363 1.370 . S
C362 C366 1.524 . S
C363 C355 1.503 . S
C363 C362 1.370 . S
C363 C364 1.403 . S
C364 C363 1.403 . S
C364 C365 1.404 . S
C364 C367 1.539 . S
C365 C361 1.408 . S
C365 C364 1.404 . S
C365 H377 0.930 . S
C366 C362 1.524 . S
C366 H378 0.956 . S
C366 H379 0.961 . S
C366 H380 0.961 . S
C367 C364 1.539 . S
C367 H381 0.958 . S
C367 H382 0.961 . S
C367 H383 0.960 . S
H368 C352 0.931 . S
H369 C357 0.929 . S
H370 C358 0.960 . S
H371 C358 0.962 . S
H372 C358 0.960 . S
H373 C359 0.961 . S
H374 C359 0.961 . S
H375 C359 0.961 . S
H376 C360 0.931 . S
H377 C365 0.930 . S
H378 C366 0.956 . S
H379 C366 0.961 . S
H380 C366 0.961 . S
H381 C367 0.958 . S
H382 C367 0.961 . S
H383 C367 0.960 . S
C384 C385 1.391 . S
C384 C386 1.394 . S
C384 H400 0.931 . S
C385 C384 1.391 . S
C385 C389 1.376 . S
C386 C384 1.394 . S
C386 C387 1.369 . S
C386 C390 1.531 . S
C387 C386 1.369 . S
C387 C388 1.410 . S
C387 C395 1.503 . S
C388 C387 1.410 . S
C388 C389 1.392 . S
C388 C391 1.511 . S
C389 C385 1.376 . S
C389 C388 1.392 . S
C389 H401 0.929 . S
C390 C386 1.531 . S
C390 H402 0.960 . S
C390 H403 0.962 . S
C390 H404 0.960 . S
C391 C388 1.511 . S
C391 H405 0.961 . S
C391 H406 0.961 . S
C391 H407 0.961 . S
C392 C393 1.370 . S
C392 C394 1.363 . S
C392 H408 0.931 . S
C393 C392 1.370 . S
C393 C397 1.408 . S
C394 C392 1.363 . S
C394 C395 1.370 . S
C394 C398 1.524 . S
C395 C387 1.503 . S
C395 C394 1.370 . S
C395 C396 1.403 . S
C396 C395 1.403 . S
C396 C397 1.404 . S
C396 C399 1.539 . S
C397 C393 1.408 . S
C397 C396 1.404 . S
C397 H409 0.930 . S
C398 C394 1.524 . S
C398 H410 0.956 . S
C398 H411 0.961 . S
C398 H412 0.961 . S
C399 C396 1.539 . S
C399 H413 0.958 . S
C399 H414 0.961 . S
C399 H415 0.960 . S
H400 C384 0.931 . S
H401 C389 0.929 . S
H402 C390 0.960 . S
H403 C390 0.962 . S
H404 C390 0.960 . S
H405 C391 0.961 . S
H406 C391 0.961 . S
H407 C391 0.961 . S
H408 C392 0.931 . S
H409 C397 0.930 . S
H410 C398 0.956 . S
H411 C398 0.961 . S
H412 C398 0.961 . S
H413 C399 0.958 . S
H414 C399 0.961 . S
H415 C399 0.960 . S
C416 C417 1.391 . S
C416 C418 1.393 1_554 S
C416 H432 0.932 . S
C417 C416 1.391 . S
C417 C421 1.376 . S
C418 C416 1.393 1_556 S
C418 C419 1.369 1_556 S
C418 C422 1.531 . S
C419 C418 1.369 1_554 S
C419 C420 1.410 . S
C419 C427 1.503 . S
C420 C419 1.410 . S
C420 C421 1.392 . S
C420 C423 1.511 . S
C421 C417 1.376 . S
C421 C420 1.392 . S
C421 H433 0.929 . S
C422 C418 1.531 . S
C422 H434 0.960 . S
C422 H435 0.962 1_556 S
C422 H436 0.960 . S
C423 C420 1.511 . S
C423 H437 0.961 . S
C423 H438 0.961 . S
C423 H439 0.961 1_554 S
C424 C425 1.370 . S
C424 C426 1.363 . S
C424 H440 0.931 . S
C425 C424 1.370 . S
C425 C429 1.408 1_554 S
C426 C424 1.363 . S
C426 C427 1.370 . S
C426 C430 1.524 . S
C427 C419 1.503 . S
C427 C426 1.370 . S
C427 C428 1.403 1_554 S
C428 C427 1.403 1_556 S
C428 C429 1.404 . S
C428 C431 1.539 . S
C429 C425 1.408 1_556 S
C429 C428 1.404 . S
C429 H441 0.930 . S
C430 C426 1.524 . S
C430 H442 0.956 . S
C430 H443 0.961 . S
C430 H444 0.961 . S
C431 C428 1.539 . S
C431 H445 0.958 . S
C431 H446 0.961 . S
C431 H447 0.960 . S
H432 C416 0.932 . S
H433 C421 0.929 . S
H434 C422 0.960 . S
H435 C422 0.962 1_554 S
H436 C422 0.960 . S
H437 C423 0.961 . S
H438 C423 0.961 . S
H439 C423 0.961 1_556 S
H440 C424 0.931 . S
H441 C429 0.930 . S
H442 C430 0.956 . S
H443 C430 0.961 . S
H444 C430 0.961 . S
H445 C431 0.958 . S
H446 C431 0.961 . S
H447 C431 0.960 . S
C448 C449 1.391 . S
C448 C450 1.394 . S
C448 H464 0.931 . S
C449 C448 1.391 . S
C449 C453 1.376 . S
C450 C448 1.394 . S
C450 C451 1.369 . S
C450 C454 1.531 . S
C451 C450 1.369 . S
C451 C452 1.410 . S
C451 C459 1.503 . S
C452 C451 1.410 . S
C452 C453 1.392 . S
C452 C455 1.511 . S
C453 C449 1.376 . S
C453 C452 1.392 . S
C453 H465 0.929 . S
C454 C450 1.531 . S
C454 H466 0.960 . S
C454 H467 0.962 . S
C454 H468 0.960 . S
C455 C452 1.511 . S
C455 H469 0.961 . S
C455 H470 0.961 . S
C455 H471 0.961 . S
C456 C457 1.370 . S
C456 C458 1.363 . S
C456 H472 0.931 . S
C457 C456 1.370 . S
C457 C461 1.408 . S
C458 C456 1.363 . S
C458 C459 1.370 . S
C458 C462 1.524 . S
C459 C451 1.503 . S
C459 C458 1.370 . S
C459 C460 1.403 . S
C460 C459 1.403 . S
C460 C461 1.404 . S
C460 C463 1.539 . S
C461 C457 1.408 . S
C461 C460 1.404 . S
C461 H473 0.930 . S
C462 C458 1.524 . S
C462 H474 0.956 . S
C462 H475 0.961 . S
C462 H476 0.961 . S
C463 C460 1.539 . S
C463 H477 0.958 . S
C463 H478 0.961 . S
C463 H479 0.960 . S
H464 C448 0.931 . S
H465 C453 0.929 . S
H466 C454 0.960 . S
H467 C454 0.962 . S
H468 C454 0.960 . S
H469 C455 0.961 . S
H470 C455 0.961 . S
H471 C455 0.961 . S
H472 C456 0.931 . S
H473 C461 0.930 . S
H474 C462 0.956 . S
H475 C462 0.961 . S
H476 C462 0.961 . S
H477 C463 0.958 . S
H478 C463 0.961 . S
H479 C463 0.960 . S
C480 C481 1.391 . S
C480 C482 1.394 . S
C480 H496 0.931 . S
C481 C480 1.391 . S
C481 C485 1.376 . S
C482 C480 1.394 . S
C482 C483 1.369 . S
C482 C486 1.531 . S
C483 C482 1.369 . S
C483 C484 1.410 . S
C483 C491 1.503 . S
C484 C483 1.410 . S
C484 C485 1.392 . S
C484 C487 1.511 . S
C485 C481 1.376 . S
C485 C484 1.392 . S
C485 H497 0.929 . S
C486 C482 1.531 . S
C486 H498 0.960 . S
C486 H499 0.962 . S
C486 H500 0.960 . S
C487 C484 1.511 . S
C487 H501 0.961 . S
C487 H502 0.961 . S
C487 H503 0.961 . S
C488 C489 1.370 . S
C488 C490 1.363 . S
C488 H504 0.931 . S
C489 C488 1.370 . S
C489 C493 1.408 . S
C490 C488 1.363 . S
C490 C491 1.370 . S
C490 C494 1.524 . S
C491 C483 1.503 . S
C491 C490 1.370 . S
C491 C492 1.403 . S
C492 C491 1.403 . S
C492 C493 1.404 . S
C492 C495 1.539 . S
C493 C489 1.408 . S
C493 C492 1.404 . S
C493 H505 0.930 . S
C494 C490 1.524 . S
C494 H506 0.956 . S
C494 H507 0.961 . S
C494 H508 0.961 . S
C495 C492 1.539 . S
C495 H509 0.958 . S
C495 H510 0.961 . S
C495 H511 0.960 . S
H496 C480 0.931 . S
H497 C485 0.929 . S
H498 C486 0.960 . S
H499 C486 0.962 . S
H500 C486 0.960 . S
H501 C487 0.961 . S
H502 C487 0.961 . S
H503 C487 0.961 . S
H504 C488 0.931 . S
H505 C493 0.930 . S
H506 C494 0.956 . S
H507 C494 0.961 . S
H508 C494 0.961 . S
H509 C495 0.958 . S
H510 C495 0.961 . S
H511 C495 0.960 . S
C512 C513 1.391 . S
C512 C514 1.394 . S
C512 H528 0.931 . S
C513 C512 1.391 . S
C513 C517 1.376 . S
C514 C512 1.394 . S
C514 C515 1.369 . S
C514 C518 1.531 . S
C515 C514 1.369 . S
C515 C516 1.410 . S
C515 C523 1.503 . S
C516 C515 1.410 . S
C516 C517 1.392 . S
C516 C519 1.511 . S
C517 C513 1.376 . S
C517 C516 1.392 . S
C517 H529 0.929 . S
C518 C514 1.531 . S
C518 H530 0.960 . S
C518 H531 0.962 . S
C518 H532 0.960 . S
C519 C516 1.511 . S
C519 H533 0.961 . S
C519 H534 0.961 . S
C519 H535 0.961 . S
C520 C521 1.370 . S
C520 C522 1.363 . S
C520 H536 0.931 . S
C521 C520 1.370 . S
C521 C525 1.408 . S
C522 C520 1.363 . S
C522 C523 1.370 . S
C522 C526 1.524 . S
C523 C515 1.503 . S
C523 C522 1.370 . S
C523 C524 1.403 . S
C524 C523 1.403 . S
C524 C525 1.404 . S
C524 C527 1.539 . S
C525 C521 1.408 . S
C525 C524 1.404 . S
C525 H537 0.930 . S
C526 C522 1.524 . S
C526 H538 0.956 . S
C526 H539 0.961 . S
C526 H540 0.961 . S
C527 C524 1.539 . S
C527 H541 0.958 . S
C527 H542 0.961 . S
C527 H543 0.960 . S
H528 C512 0.931 . S
H529 C517 0.929 . S
H530 C518 0.960 . S
H531 C518 0.962 . S
H532 C518 0.960 . S
H533 C519 0.961 . S
H534 C519 0.961 . S
H535 C519 0.961 . S
H536 C520 0.931 . S
H537 C525 0.930 . S
H538 C526 0.956 . S
H539 C526 0.961 . S
H540 C526 0.961 . S
H541 C527 0.958 . S
H542 C527 0.961 . S
H543 C527 0.960 . S
C544 C545 1.391 . S
C544 C546 1.394 . S
C544 H560 0.931 . S
C545 C544 1.391 . S
C545 C549 1.376 . S
C546 C544 1.394 . S
C546 C547 1.369 . S
C546 C550 1.531 . S
C547 C546 1.369 . S
C547 C548 1.410 . S
C547 C555 1.503 . S
C548 C547 1.410 . S
C548 C549 1.392 . S
C548 C551 1.511 . S
C549 C545 1.376 . S
C549 C548 1.392 . S
C549 H561 0.929 . S
C550 C546 1.531 . S
C550 H562 0.960 . S
C550 H563 0.962 . S
C550 H564 0.960 . S
C551 C548 1.511 . S
C551 H565 0.961 1_556 S
C551 H566 0.961 . S
C551 H567 0.961 . S
C552 C553 1.370 1_554 S
C552 C554 1.363 . S
C552 H568 0.931 . S
C553 C552 1.370 1_556 S
C553 C557 1.408 . S
C554 C552 1.363 . S
C554 C555 1.370 1_554 S
C554 C558 1.524 . S
C555 C547 1.503 . S
C555 C554 1.370 1_556 S
C555 C556 1.403 . S
C556 C555 1.403 . S
C556 C557 1.404 . S
C556 C559 1.539 . S
C557 C553 1.408 . S
C557 C556 1.404 . S
C557 H569 0.930 . S
C558 C554 1.524 . S
C558 H570 0.956 . S
C558 H571 0.961 . S
C558 H572 0.961 . S
C559 C556 1.539 . S
C559 H573 0.958 . S
C559 H574 0.961 . S
C559 H575 0.960 . S
H560 C544 0.931 . S
H561 C549 0.929 . S
H562 C550 0.960 . S
H563 C550 0.962 . S
H564 C550 0.960 . S
H565 C551 0.961 1_554 S
H566 C551 0.961 . S
H567 C551 0.961 . S
H568 C552 0.931 . S
H569 C557 0.930 . S
H570 C558 0.956 . S
H571 C558 0.961 . S
H572 C558 0.961 . S
H573 C559 0.958 . S
H574 C559 0.961 . S
H575 C559 0.960 . S
C576 C577 1.391 . S
C576 C578 1.394 . S
C576 H592 0.931 . S
C577 C576 1.391 . S
C577 C581 1.376 . S
C578 C576 1.394 . S
C578 C579 1.369 . S
C578 C582 1.531 . S
C579 C578 1.369 . S
C579 C580 1.410 . S
C579 C587 1.503 . S
C580 C579 1.410 . S
C580 C581 1.392 . S
C580 C583 1.511 . S
C581 C577 1.376 . S
C581 C580 1.392 . S
C581 H593 0.929 . S
C582 C578 1.531 . S
C582 H594 0.960 . S
C582 H595 0.962 . S
C582 H596 0.960 . S
C583 C580 1.511 . S
C583 H597 0.961 . S
C583 H598 0.961 . S
C583 H599 0.961 . S
C584 C585 1.370 . S
C584 C586 1.363 . S
C584 H600 0.931 . S
C585 C584 1.370 . S
C585 C589 1.408 . S
C586 C584 1.363 . S
C586 C587 1.370 . S
C586 C590 1.524 . S
C587 C579 1.503 . S
C587 C586 1.370 . S
C587 C588 1.403 . S
C588 C587 1.403 . S
C588 C589 1.404 . S
C588 C591 1.539 . S
C589 C585 1.408 . S
C589 C588 1.404 . S
C589 H601 0.930 . S
C590 C586 1.524 . S
C590 H602 0.956 . S
C590 H603 0.961 . S
C590 H604 0.961 . S
C591 C588 1.539 . S
C591 H605 0.958 . S
C591 H606 0.961 . S
C591 H607 0.960 . S
H592 C576 0.931 . S
H593 C581 0.929 . S
H594 C582 0.960 . S
H595 C582 0.962 . S
H596 C582 0.960 . S
H597 C583 0.961 . S
H598 C583 0.961 . S
H599 C583 0.961 . S
H600 C584 0.931 . S
H601 C589 0.930 . S
H602 C590 0.956 . S
H603 C590 0.961 . S
H604 C590 0.961 . S
H605 C591 0.958 . S
H606 C591 0.961 . S
H607 C591 0.960 . S
C608 C609 1.391 1_556 S
C608 C610 1.394 . S
C608 H624 0.931 . S
C609 C608 1.391 1_554 S
C609 C613 1.376 . S
C610 C608 1.394 . S
C610 C611 1.369 1_556 S
C610 C614 1.531 . S
C611 C610 1.369 1_554 S
C611 C612 1.410 . S
C611 C619 1.503 . S
C612 C611 1.410 . S
C612 C613 1.392 . S
C612 C615 1.511 . S
C613 C609 1.376 . S
C613 C612 1.392 . S
C613 H625 0.929 . S
C614 C610 1.531 . S
C614 H626 0.960 . S
C614 H627 0.962 . S
C614 H628 0.960 . S
C615 C612 1.511 . S
C615 H629 0.961 . S
C615 H630 0.961 . S
C615 H631 0.961 . S
C616 C617 1.370 . S
C616 C618 1.363 . S
C616 H632 0.931 . S
C617 C616 1.370 . S
C617 C621 1.408 1_554 S
C618 C616 1.363 . S
C618 C619 1.370 . S
C618 C622 1.524 . S
C619 C611 1.503 . S
C619 C618 1.370 . S
C619 C620 1.403 1_554 S
C620 C619 1.403 1_556 S
C620 C621 1.404 . S
C620 C623 1.539 . S
C621 C617 1.408 1_556 S
C621 C620 1.404 . S
C621 H633 0.930 . S
C622 C618 1.524 . S
C622 H634 0.956 . S
C622 H635 0.961 . S
C622 H636 0.961 . S
C623 C620 1.539 . S
C623 H637 0.958 . S
C623 H638 0.961 . S
C623 H639 0.960 . S
H624 C608 0.931 . S
H625 C613 0.929 . S
H626 C614 0.960 . S
H627 C614 0.962 . S
H628 C614 0.960 . S
H629 C615 0.961 . S
H630 C615 0.961 . S
H631 C615 0.961 . S
H632 C616 0.931 . S
H633 C621 0.930 . S
H634 C622 0.956 . S
H635 C622 0.961 . S
H636 C622 0.961 . S
H637 C623 0.958 . S
H638 C623 0.961 . S
H639 C623 0.960 . S
C640 C641 1.391 . S
C640 C642 1.394 . S
C640 H656 0.931 . S
C641 C640 1.391 . S
C641 C645 1.376 . S
C642 C640 1.394 . S
C642 C643 1.369 . S
C642 C646 1.531 . S
C643 C642 1.369 . S
C643 C644 1.410 . S
C643 C651 1.503 . S
C644 C643 1.410 . S
C644 C645 1.392 . S
C644 C647 1.511 . S
C645 C641 1.376 . S
C645 C644 1.392 . S
C645 H657 0.929 . S
C646 C642 1.531 . S
C646 H658 0.960 . S
C646 H659 0.962 . S
C646 H660 0.960 . S
C647 C644 1.511 . S
C647 H661 0.961 . S
C647 H662 0.961 . S
C647 H663 0.961 . S
C648 C649 1.370 . S
C648 C650 1.363 . S
C648 H664 0.931 . S
C649 C648 1.370 . S
C649 C653 1.408 . S
C650 C648 1.363 . S
C650 C651 1.370 . S
C650 C654 1.524 . S
C651 C643 1.503 . S
C651 C650 1.370 . S
C651 C652 1.403 . S
C652 C651 1.403 . S
C652 C653 1.404 . S
C652 C655 1.539 . S
C653 C649 1.408 . S
C653 C652 1.404 . S
C653 H665 0.930 . S
C654 C650 1.524 . S
C654 H666 0.956 . S
C654 H667 0.961 . S
C654 H668 0.961 . S
C655 C652 1.539 . S
C655 H669 0.958 . S
C655 H670 0.961 . S
C655 H671 0.960 . S
H656 C640 0.931 . S
H657 C645 0.929 . S
H658 C646 0.960 . S
H659 C646 0.962 . S
H660 C646 0.960 . S
H661 C647 0.961 . S
H662 C647 0.961 . S
H663 C647 0.961 . S
H664 C648 0.931 . S
H665 C653 0.930 . S
H666 C654 0.956 . S
H667 C654 0.961 . S
H668 C654 0.961 . S
H669 C655 0.958 . S
H670 C655 0.961 . S
H671 C655 0.960 . S
C672 C673 1.391 . S
C672 C674 1.394 . S
C672 H688 0.931 . S
C673 C672 1.391 . S
C673 C677 1.376 . S
C674 C672 1.394 . S
C674 C675 1.369 . S
C674 C678 1.531 . S
C675 C674 1.369 . S
C675 C676 1.410 . S
C675 C683 1.503 . S
C676 C675 1.410 . S
C676 C677 1.392 . S
C676 C679 1.511 . S
C677 C673 1.376 . S
C677 C676 1.392 . S
C677 H689 0.929 . S
C678 C674 1.531 . S
C678 H690 0.960 . S
C678 H691 0.962 . S
C678 H692 0.960 . S
C679 C676 1.511 . S
C679 H693 0.961 . S
C679 H694 0.961 . S
C679 H695 0.961 . S
C680 C681 1.370 . S
C680 C682 1.363 . S
C680 H696 0.931 . S
C681 C680 1.370 . S
C681 C685 1.408 . S
C682 C680 1.363 . S
C682 C683 1.370 . S
C682 C686 1.524 . S
C683 C675 1.503 . S
C683 C682 1.370 . S
C683 C684 1.403 . S
C684 C683 1.403 . S
C684 C685 1.404 . S
C684 C687 1.539 . S
C685 C681 1.408 . S
C685 C684 1.404 . S
C685 H697 0.930 . S
C686 C682 1.524 . S
C686 H698 0.956 . S
C686 H699 0.961 . S
C686 H700 0.961 . S
C687 C684 1.539 . S
C687 H701 0.958 . S
C687 H702 0.961 . S
C687 H703 0.960 . S
H688 C672 0.931 . S
H689 C677 0.929 . S
H690 C678 0.960 . S
H691 C678 0.962 . S
H692 C678 0.960 . S
H693 C679 0.961 . S
H694 C679 0.961 . S
H695 C679 0.961 . S
H696 C680 0.931 . S
H697 C685 0.930 . S
H698 C686 0.956 . S
H699 C686 0.961 . S
H700 C686 0.961 . S
H701 C687 0.958 . S
H702 C687 0.961 . S
H703 C687 0.960 . S
C704 C705 1.391 . S
C704 C706 1.394 . S
C704 H720 0.931 . S
C705 C704 1.391 . S
C705 C709 1.376 . S
C706 C704 1.394 . S
C706 C707 1.369 . S
C706 C710 1.531 . S
C707 C706 1.369 . S
C707 C708 1.410 . S
C707 C715 1.503 . S
C708 C707 1.410 . S
C708 C709 1.392 . S
C708 C711 1.511 . S
C709 C705 1.376 . S
C709 C708 1.392 . S
C709 H721 0.929 . S
C710 C706 1.531 . S
C710 H722 0.960 . S
C710 H723 0.962 . S
C710 H724 0.960 . S
C711 C708 1.511 . S
C711 H725 0.961 . S
C711 H726 0.961 . S
C711 H727 0.961 . S
C712 C713 1.370 . S
C712 C714 1.363 . S
C712 H728 0.931 . S
C713 C712 1.370 . S
C713 C717 1.408 . S
C714 C712 1.363 . S
C714 C715 1.370 . S
C714 C718 1.524 . S
C715 C707 1.503 . S
C715 C714 1.370 . S
C715 C716 1.403 . S
C716 C715 1.403 . S
C716 C717 1.404 . S
C716 C719 1.539 . S
C717 C713 1.408 . S
C717 C716 1.404 . S
C717 H729 0.930 . S
C718 C714 1.524 . S
C718 H730 0.956 . S
C718 H731 0.961 . S
C718 H732 0.961 . S
C719 C716 1.539 . S
C719 H733 0.958 . S
C719 H734 0.961 . S
C719 H735 0.960 . S
H720 C704 0.931 . S
H721 C709 0.929 . S
H722 C710 0.960 . S
H723 C710 0.962 . S
H724 C710 0.960 . S
H725 C711 0.961 . S
H726 C711 0.961 . S
H727 C711 0.961 . S
H728 C712 0.931 . S
H729 C717 0.930 . S
H730 C718 0.956 . S
H731 C718 0.961 . S
H732 C718 0.961 . S
H733 C719 0.958 . S
H734 C719 0.961 . S
H735 C719 0.960 . S
C736 C737 1.391 . S
C736 C738 1.394 . S
C736 H752 0.931 . S
C737 C736 1.391 . S
C737 C741 1.376 1_556 S
C738 C736 1.394 . S
C738 C739 1.369 . S
C738 C742 1.531 . S
C739 C738 1.369 . S
C739 C740 1.410 1_556 S
C739 C747 1.503 . S
C740 C739 1.410 1_554 S
C740 C741 1.392 . S
C740 C743 1.511 . S
C741 C737 1.376 1_554 S
C741 C740 1.392 . S
C741 H753 0.929 . S
C742 C738 1.531 . S
C742 H754 0.960 . S
C742 H755 0.962 . S
C742 H756 0.960 . S
C743 C740 1.511 . S
C743 H757 0.961 . S
C743 H758 0.961 . S
C743 H759 0.961 . S
C744 C745 1.370 1_554 S
C744 C746 1.363 . S
C744 H760 0.931 . S
C745 C744 1.370 1_556 S
C745 C749 1.408 . S
C746 C744 1.363 . S
C746 C747 1.370 1_554 S
C746 C750 1.524 . S
C747 C739 1.503 . S
C747 C746 1.370 1_556 S
C747 C748 1.403 . S
C748 C747 1.403 . S
C748 C749 1.404 . S
C748 C751 1.539 . S
C749 C745 1.408 . S
C749 C748 1.404 . S
C749 H761 0.930 . S
C750 C746 1.524 . S
C750 H762 0.956 . S
C750 H763 0.961 . S
C750 H764 0.961 . S
C751 C748 1.539 . S
C751 H765 0.958 . S
C751 H766 0.961 . S
C751 H767 0.960 . S
H752 C736 0.931 . S
H753 C741 0.929 . S
H754 C742 0.960 . S
H755 C742 0.962 . S
H756 C742 0.960 . S
H757 C743 0.961 . S
H758 C743 0.961 . S
H759 C743 0.961 . S
H760 C744 0.931 . S
H761 C749 0.930 . S
H762 C750 0.956 . S
H763 C750 0.961 . S
H764 C750 0.961 . S
H765 C751 0.958 . S
H766 C751 0.961 . S
H767 C751 0.960 . S
C768 C769 1.391 . S
C768 C770 1.394 . S
C768 H784 0.931 . S
C769 C768 1.391 . S
C769 C773 1.376 . S
C770 C768 1.394 . S
C770 C771 1.369 . S
C770 C774 1.531 . S
C771 C770 1.369 . S
C771 C772 1.410 . S
C771 C779 1.503 . S
C772 C771 1.410 . S
C772 C773 1.392 . S
C772 C775 1.511 . S
C773 C769 1.376 . S
C773 C772 1.392 . S
C773 H785 0.929 . S
C774 C770 1.531 . S
C774 H786 0.960 . S
C774 H787 0.962 . S
C774 H788 0.960 . S
C775 C772 1.511 . S
C775 H789 0.961 . S
C775 H790 0.961 . S
C775 H791 0.961 . S
C776 C777 1.370 . S
C776 C778 1.363 . S
C776 H792 0.931 . S
C777 C776 1.370 . S
C777 C781 1.408 . S
C778 C776 1.363 . S
C778 C779 1.370 . S
C778 C782 1.524 . S
C779 C771 1.503 . S
C779 C778 1.370 . S
C779 C780 1.403 . S
C780 C779 1.403 . S
C780 C781 1.404 . S
C780 C783 1.539 . S
C781 C777 1.408 . S
C781 C780 1.404 . S
C781 H793 0.930 . S
C782 C778 1.524 . S
C782 H794 0.956 . S
C782 H795 0.961 . S
C782 H796 0.961 . S
C783 C780 1.539 . S
C783 H797 0.958 . S
C783 H798 0.961 . S
C783 H799 0.960 . S
H784 C768 0.931 . S
H785 C773 0.929 . S
H786 C774 0.960 . S
H787 C774 0.962 . S
H788 C774 0.960 . S
H789 C775 0.961 . S
H790 C775 0.961 . S
H791 C775 0.961 . S
H792 C776 0.931 . S
H793 C781 0.930 . S
H794 C782 0.956 . S
H795 C782 0.961 . S
H796 C782 0.961 . S
H797 C783 0.958 . S
H798 C783 0.961 . S
H799 C783 0.960 . S
C800 C801 1.391 . S
C800 C802 1.394 . S
C800 H816 0.931 . S
C801 C800 1.391 . S
C801 C805 1.376 . S
C802 C800 1.394 . S
C802 C803 1.369 . S
C802 C806 1.531 . S
C803 C802 1.369 . S
C803 C804 1.410 . S
C803 C811 1.503 . S
C804 C803 1.410 . S
C804 C805 1.392 . S
C804 C807 1.511 . S
C805 C801 1.376 . S
C805 C804 1.392 . S
C805 H817 0.929 . S
C806 C802 1.531 . S
C806 H818 0.960 . S
C806 H819 0.962 . S
C806 H820 0.960 . S
C807 C804 1.511 . S
C807 H821 0.961 . S
C807 H822 0.961 . S
C807 H823 0.961 . S
C808 C809 1.370 . S
C808 C810 1.363 . S
C808 H824 0.931 . S
C809 C808 1.370 . S
C809 C813 1.408 . S
C810 C808 1.363 . S
C810 C811 1.370 . S
C810 C814 1.524 . S
C811 C803 1.503 . S
C811 C810 1.370 . S
C811 C812 1.403 . S
C812 C811 1.403 . S
C812 C813 1.404 . S
C812 C815 1.539 . S
C813 C809 1.408 . S
C813 C812 1.404 . S
C813 H825 0.930 . S
C814 C810 1.524 . S
C814 H826 0.956 . S
C814 H827 0.961 . S
C814 H828 0.961 . S
C815 C812 1.539 . S
C815 H829 0.958 . S
C815 H830 0.961 . S
C815 H831 0.960 . S
H816 C800 0.931 . S
H817 C805 0.929 . S
H818 C806 0.960 . S
H819 C806 0.962 . S
H820 C806 0.960 . S
H821 C807 0.961 . S
H822 C807 0.961 . S
H823 C807 0.961 . S
H824 C808 0.931 . S
H825 C813 0.930 . S
H826 C814 0.956 . S
H827 C814 0.961 . S
H828 C814 0.961 . S
H829 C815 0.958 . S
H830 C815 0.961 . S
H831 C815 0.960 . S
C832 C833 1.391 . S
C832 C834 1.394 . S
C832 H848 0.931 . S
C833 C832 1.391 . S
C833 C837 1.376 1_665 S
C834 C832 1.394 . S
C834 C835 1.369 1_655 S
C834 C838 1.531 . S
C835 C834 1.369 1_455 S
C835 C836 1.410 1_565 S
C835 C843 1.503 1_556 S
C836 C835 1.410 1_545 S
C836 C837 1.392 . S
C836 C839 1.511 . S
C837 C833 1.376 1_445 S
C837 C836 1.392 . S
C837 H849 0.929 . S
C838 C834 1.531 . S
C838 H850 0.960 1_556 S
C838 H851 0.962 . S
C838 H852 0.960 . S
C839 C836 1.511 . S
C839 H853 0.961 . S
C839 H854 0.961 . S
C839 H855 0.961 . S
C840 C841 1.370 1_655 S
C840 C842 1.363 . S
C840 H856 0.931 . S
C841 C840 1.370 1_455 S
C841 C845 1.408 1_545 S
C842 C840 1.363 . S
C842 C843 1.370 1_645 S
C842 C846 1.524 . S
C843 C835 1.503 1_554 S
C843 C842 1.370 1_465 S
C843 C844 1.403 . S
C844 C843 1.403 . S
C844 C845 1.404 . S
C844 C847 1.539 . S
C845 C841 1.408 1_565 S
C845 C844 1.404 . S
C845 H857 0.930 . S
C846 C842 1.524 . S
C846 H858 0.956 . S
C846 H859 0.961 1_554 S
C846 H860 0.961 . S
C847 C844 1.539 . S
C847 H861 0.958 . S
C847 H862 0.961 . S
C847 H863 0.960 1_554 S
H848 C832 0.931 . S
H849 C837 0.929 . S
H850 C838 0.960 1_554 S
H851 C838 0.962 . S
H852 C838 0.960 . S
H853 C839 0.961 . S
H854 C839 0.961 . S
H855 C839 0.961 . S
H856 C840 0.931 . S
H857 C845 0.930 . S
H858 C846 0.956 . S
H859 C846 0.961 1_556 S
H860 C846 0.961 . S
H861 C847 0.958 . S
H862 C847 0.961 . S
H863 C847 0.960 1_556 S
C864 C865 1.391 . S
C864 C866 1.394 . S
C864 H880 0.931 . S
C865 C864 1.391 . S
C865 C869 1.376 . S
C866 C864 1.394 . S
C866 C867 1.369 . S
C866 C870 1.531 . S
C867 C866 1.369 . S
C867 C868 1.410 . S
C867 C875 1.503 . S
C868 C867 1.410 . S
C868 C869 1.392 . S
C868 C871 1.511 . S
C869 C865 1.376 . S
C869 C868 1.392 . S
C869 H881 0.929 . S
C870 C866 1.531 . S
C870 H882 0.960 . S
C870 H883 0.962 . S
C870 H884 0.960 . S
C871 C868 1.511 . S
C871 H885 0.961 . S
C871 H886 0.961 . S
C871 H887 0.961 . S
C872 C873 1.370 . S
C872 C874 1.363 . S
C872 H888 0.931 . S
C873 C872 1.370 . S
C873 C877 1.408 . S
C874 C872 1.363 . S
C874 C875 1.370 . S
C874 C878 1.524 . S
C875 C867 1.503 . S
C875 C874 1.370 . S
C875 C876 1.403 . S
C876 C875 1.403 . S
C876 C877 1.404 . S
C876 C879 1.539 . S
C877 C873 1.408 . S
C877 C876 1.404 . S
C877 H889 0.930 . S
C878 C874 1.524 . S
C878 H890 0.956 . S
C878 H891 0.961 . S
C878 H892 0.961 . S
C879 C876 1.539 . S
C879 H893 0.958 . S
C879 H894 0.961 . S
C879 H895 0.960 . S
H880 C864 0.931 . S
H881 C869 0.929 . S
H882 C870 0.960 . S
H883 C870 0.962 . S
H884 C870 0.960 . S
H885 C871 0.961 . S
H886 C871 0.961 . S
H887 C871 0.961 . S
H888 C872 0.931 . S
H889 C877 0.930 . S
H890 C878 0.956 . S
H891 C878 0.961 . S
H892 C878 0.961 . S
H893 C879 0.958 . S
H894 C879 0.961 . S
H895 C879 0.960 . S
C896 C897 1.391 1_545 S
C896 C898 1.394 . S
C896 H912 0.931 . S
C897 C896 1.391 1_565 S
C897 C901 1.376 . S
C898 C896 1.394 . S
C898 C899 1.369 . S
C898 C902 1.531 . S
C899 C898 1.369 . S
C899 C900 1.410 1_545 S
C899 C907 1.503 . S
C900 C899 1.410 1_565 S
C900 C901 1.392 . S
C900 C903 1.511 . S
C901 C897 1.376 . S
C901 C900 1.392 . S
C901 H913 0.929 . S
C902 C898 1.531 . S
C902 H914 0.960 . S
C902 H915 0.962 . S
C902 H916 0.960 . S
C903 C900 1.511 . S
C903 H917 0.961 . S
C903 H918 0.961 . S
C903 H919 0.961 . S
C904 C905 1.370 1_565 S
C904 C906 1.363 . S
C904 H920 0.931 . S
C905 C904 1.370 1_545 S
C905 C909 1.408 . S
C906 C904 1.363 . S
C906 C907 1.370 1_565 S
C906 C910 1.524 . S
C907 C899 1.503 . S
C907 C906 1.370 1_545 S
C907 C908 1.403 . S
C908 C907 1.403 . S
C908 C909 1.404 . S
C908 C911 1.539 . S
C909 C905 1.408 . S
C909 C908 1.404 . S
C909 H921 0.930 . S
C910 C906 1.524 . S
C910 H922 0.956 . S
C910 H923 0.961 . S
C910 H924 0.961 . S
C911 C908 1.539 . S
C911 H925 0.958 . S
C911 H926 0.961 . S
C911 H927 0.960 . S
H912 C896 0.931 . S
H913 C901 0.929 . S
H914 C902 0.960 . S
H915 C902 0.962 . S
H916 C902 0.960 . S
H917 C903 0.961 . S
H918 C903 0.961 . S
H919 C903 0.961 . S
H920 C904 0.931 . S
H921 C909 0.930 . S
H922 C910 0.956 . S
H923 C910 0.961 . S
H924 C910 0.961 . S
H925 C911 0.958 . S
H926 C911 0.961 . S
H927 C911 0.960 . S
C928 C929 1.391 . S
C928 C930 1.394 . S
C928 H944 0.931 . S
C929 C928 1.391 . S
C929 C933 1.376 . S
C930 C928 1.394 . S
C930 C931 1.369 . S
C930 C934 1.531 . S
C931 C930 1.369 . S
C931 C932 1.410 . S
C931 C939 1.503 . S
C932 C931 1.410 . S
C932 C933 1.392 . S
C932 C935 1.511 . S
C933 C929 1.376 . S
C933 C932 1.392 . S
C933 H945 0.929 . S
C934 C930 1.531 . S
C934 H946 0.960 . S
C934 H947 0.962 . S
C934 H948 0.960 . S
C935 C932 1.511 . S
C935 H949 0.961 . S
C935 H950 0.961 . S
C935 H951 0.961 . S
C936 C937 1.370 . S
C936 C938 1.363 . S
C936 H952 0.931 . S
C937 C936 1.370 . S
C937 C941 1.408 . S
C938 C936 1.363 . S
C938 C939 1.370 . S
C938 C942 1.524 . S
C939 C931 1.503 . S
C939 C938 1.370 . S
C939 C940 1.403 . S
C940 C939 1.403 . S
C940 C941 1.404 . S
C940 C943 1.539 . S
C941 C937 1.408 . S
C941 C940 1.404 . S
C941 H953 0.930 . S
C942 C938 1.524 . S
C942 H954 0.956 . S
C942 H955 0.961 . S
C942 H956 0.961 . S
C943 C940 1.539 . S
C943 H957 0.958 . S
C943 H958 0.961 . S
C943 H959 0.960 . S
H944 C928 0.931 . S
H945 C933 0.929 . S
H946 C934 0.960 . S
H947 C934 0.962 . S
H948 C934 0.960 . S
H949 C935 0.961 . S
H950 C935 0.961 . S
H951 C935 0.961 . S
H952 C936 0.931 . S
H953 C941 0.930 . S
H954 C942 0.956 . S
H955 C942 0.961 . S
H956 C942 0.961 . S
H957 C943 0.958 . S
H958 C943 0.961 . S
H959 C943 0.960 . S
C960 C961 1.391 . S
C960 C962 1.394 . S
C960 H976 0.931 . S
C961 C960 1.391 . S
C961 C965 1.376 . S
C962 C960 1.394 . S
C962 C963 1.369 . S
C962 C966 1.531 . S
C963 C962 1.369 . S
C963 C964 1.410 . S
C963 C971 1.503 . S
C964 C963 1.410 . S
C964 C965 1.392 . S
C964 C967 1.511 . S
C965 C961 1.376 . S
C965 C964 1.392 . S
C965 H977 0.929 . S
C966 C962 1.531 . S
C966 H978 0.960 . S
C966 H979 0.962 . S
C966 H980 0.960 . S
C967 C964 1.511 . S
C967 H981 0.961 . S
C967 H982 0.961 . S
C967 H983 0.961 . S
C968 C969 1.370 . S
C968 C970 1.363 . S
C968 H984 0.931 . S
C969 C968 1.370 . S
C969 C973 1.408 . S
C970 C968 1.363 . S
C970 C971 1.370 . S
C970 C974 1.524 . S
C971 C963 1.503 . S
C971 C970 1.370 . S
C971 C972 1.403 . S
C972 C971 1.403 . S
C972 C973 1.404 . S
C972 C975 1.539 . S
C973 C969 1.408 . S
C973 C972 1.404 . S
C973 H985 0.930 . S
C974 C970 1.524 . S
C974 H986 0.956 . S
C974 H987 0.961 . S
C974 H988 0.961 . S
C975 C972 1.539 . S
C975 H989 0.958 . S
C975 H990 0.961 . S
C975 H991 0.960 . S
H976 C960 0.931 . S
H977 C965 0.929 . S
H978 C966 0.960 . S
H979 C966 0.962 . S
H980 C966 0.960 . S
H981 C967 0.961 . S
H982 C967 0.961 . S
H983 C967 0.961 . S
H984 C968 0.931 . S
H985 C973 0.930 . S
H986 C974 0.956 . S
H987 C974 0.961 . S
H988 C974 0.961 . S
H989 C975 0.958 . S
H990 C975 0.961 . S
H991 C975 0.960 . S
C992 C993 1.391 . S
C992 C994 1.394 . S
C992 H1008 0.931 . S
C993 C992 1.391 . S
C993 C997 1.376 . S
C994 C992 1.394 . S
C994 C995 1.369 . S
C994 C998 1.531 . S
C995 C994 1.369 . S
C995 C996 1.410 . S
C995 C1003 1.503 . S
C996 C995 1.410 . S
C996 C997 1.392 . S
C996 C999 1.511 . S
C997 C993 1.376 . S
C997 C996 1.392 . S
C997 H1009 0.929 . S
C998 C994 1.531 . S
C998 H1010 0.960 . S
C998 H1011 0.962 . S
C998 H1012 0.960 . S
C999 C996 1.511 . S
C999 H1013 0.961 . S
C999 H1014 0.961 . S
C999 H1015 0.961 . S
C1000 C1001 1.370 . S
C1000 C1002 1.363 . S
C1000 H1016 0.931 . S
C1001 C1000 1.370 . S
C1001 C1005 1.408 . S
C1002 C1000 1.363 . S
C1002 C1003 1.370 . S
C1002 C1006 1.524 . S
C1003 C995 1.503 . S
C1003 C1002 1.370 . S
C1003 C1004 1.403 . S
C1004 C1003 1.403 . S
C1004 C1005 1.404 . S
C1004 C1007 1.539 . S
C1005 C1001 1.408 . S
C1005 C1004 1.404 . S
C1005 H1017 0.930 . S
C1006 C1002 1.524 . S
C1006 H1018 0.956 . S
C1006 H1019 0.961 . S
C1006 H1020 0.961 . S
C1007 C1004 1.539 . S
C1007 H1021 0.958 . S
C1007 H1022 0.961 . S
C1007 H1023 0.960 . S
H1008 C992 0.931 . S
H1009 C997 0.929 . S
H1010 C998 0.960 . S
H1011 C998 0.962 . S
H1012 C998 0.960 . S
H1013 C999 0.961 . S
H1014 C999 0.961 . S
H1015 C999 0.961 . S
H1016 C1000 0.931 . S
H1017 C1005 0.930 . S
H1018 C1006 0.956 . S
H1019 C1006 0.961 . S
H1020 C1006 0.961 . S
H1021 C1007 0.958 . S
H1022 C1007 0.961 . S
H1023 C1007 0.960 . S
C1024 C1025 1.391 . S
C1024 C1026 1.394 . S
C1024 H1040 0.931 . S
C1025 C1024 1.391 . S
C1025 C1029 1.376 . S
C1026 C1024 1.394 . S
C1026 C1027 1.369 . S
C1026 C1030 1.531 . S
C1027 C1026 1.369 . S
C1027 C1028 1.410 . S
C1027 C1035 1.503 . S
C1028 C1027 1.410 . S
C1028 C1029 1.392 . S
C1028 C1031 1.511 . S
C1029 C1025 1.376 . S
C1029 C1028 1.392 . S
C1029 H1041 0.929 . S
C1030 C1026 1.531 . S
C1030 H1042 0.960 . S
C1030 H1043 0.962 . S
C1030 H1044 0.960 . S
C1031 C1028 1.511 . S
C1031 H1045 0.961 . S
C1031 H1046 0.961 . S
C1031 H1047 0.961 . S
C1032 C1033 1.370 . S
C1032 C1034 1.363 . S
C1032 H1048 0.931 . S
C1033 C1032 1.370 . S
C1033 C1037 1.408 . S
C1034 C1032 1.363 . S
C1034 C1035 1.370 . S
C1034 C1038 1.524 . S
C1035 C1027 1.503 . S
C1035 C1034 1.370 . S
C1035 C1036 1.403 . S
C1036 C1035 1.403 . S
C1036 C1037 1.404 . S
C1036 C1039 1.539 . S
C1037 C1033 1.408 . S
C1037 C1036 1.404 . S
C1037 H1049 0.930 . S
C1038 C1034 1.524 . S
C1038 H1050 0.956 . S
C1038 H1051 0.961 . S
C1038 H1052 0.961 . S
C1039 C1036 1.539 . S
C1039 H1053 0.958 . S
C1039 H1054 0.961 . S
C1039 H1055 0.960 . S
H1040 C1024 0.931 . S
H1041 C1029 0.929 . S
H1042 C1030 0.960 . S
H1043 C1030 0.962 . S
H1044 C1030 0.960 . S
H1045 C1031 0.961 . S
H1046 C1031 0.961 . S
H1047 C1031 0.961 . S
H1048 C1032 0.931 . S
H1049 C1037 0.930 . S
H1050 C1038 0.956 . S
H1051 C1038 0.961 . S
H1052 C1038 0.961 . S
H1053 C1039 0.958 . S
H1054 C1039 0.961 . S
H1055 C1039 0.960 . S
C1056 C1057 1.391 1_655 S
C1056 C1058 1.394 . S
C1056 H1072 0.931 . S
C1057 C1056 1.391 1_455 S
C1057 C1061 1.376 . S
C1058 C1056 1.394 . S
C1058 C1059 1.369 1_655 S
C1058 C1062 1.531 . S
C1059 C1058 1.369 1_455 S
C1059 C1060 1.410 . S
C1059 C1067 1.513 1_556 S
C1060 C1059 1.410 . S
C1060 C1061 1.392 . S
C1060 C1063 1.511 . S
C1061 C1057 1.376 . S
C1061 C1060 1.392 . S
C1061 H1073 0.929 . S
C1062 C1058 1.531 . S
C1062 H1074 0.960 . S
C1062 H1075 0.962 . S
C1062 H1076 0.960 . S
C1063 C1060 1.511 . S
C1063 H1077 0.961 . S
C1063 H1078 0.961 1_556 S
C1063 H1079 0.961 . S
C1064 C1065 1.370 . S
C1064 C1066 1.363 . S
C1064 H1080 0.931 . S
C1065 C1064 1.370 . S
C1065 C1069 1.408 1_655 S
C1066 C1064 1.363 . S
C1066 C1067 1.337 1_655 S
C1066 C1070 1.524 . S
C1067 C1059 1.513 1_554 S
C1067 C1066 1.337 1_455 S
C1067 C1068 1.428 . S
C1068 C1067 1.428 . S
C1068 C1069 1.404 . S
C1068 C1071 1.539 . S
C1069 C1065 1.408 1_455 S
C1069 C1068 1.404 . S
C1069 H1081 0.930 . S
C1070 C1066 1.524 . S
C1070 H1082 0.956 1_554 S
C1070 H1083 0.957 1_554 S
C1070 H1084 0.961 . S
C1071 C1068 1.539 . S
C1071 H1085 0.958 . S
C1071 H1086 0.961 . S
C1071 H1087 0.960 . S
H1072 C1056 0.931 . S
H1073 C1061 0.929 . S
H1074 C1062 0.960 . S
H1075 C1062 0.962 . S
H1076 C1062 0.960 . S
H1077 C1063 0.961 . S
H1078 C1063 0.961 1_554 S
H1079 C1063 0.961 . S
H1080 C1064 0.931 . S
H1081 C1069 0.930 . S
H1082 C1070 0.956 1_556 S
H1083 C1070 0.957 1_556 S
H1084 C1070 0.961 . S
H1085 C1071 0.958 . S
H1086 C1071 0.961 . S
H1087 C1071 0.960 . S
C321 C6 1.642 . S
C329 C129 1.675 . S
C353 C9 1.676 . S
C361 C46 1.655 . S
C385 C49 1.680 . S
C393 C86 1.658 . S
C417 C89 1.656 . S
C425 C126 1.674 . S
C449 C15 1.646 . S
C457 C218 1.684 . S
C481 C18 1.667 . S
C489 C175 1.653 . S
C513 C178 1.683 . S
C521 C95 1.652 . S
C545 C215 1.634 . S
C553 C98 1.678 . S
C577 C246 1.634 . S
C585 C209 1.672 . S
C609 C166 1.683 . S
C617 C249 1.677 . S
C641 C286 1.634 . S
C649 C169 1.674 . S
C673 C206 1.636 . S
C681 C289 1.666 . S
C705 C138 1.675 . S
C713 C255 1.674 . S
C737 C258 1.653 . S
C745 C55 1.657 . S
C769 C58 1.663 . S
C777 C295 1.653 . S
C801 C135 1.634 . S
C809 C298 1.669 . S
C833 C19 2.139 . S
C841 C10 2.133 . S
C865 C50 2.137 . S
C873 C59 2.134 1_554 S
C897 C90 2.111 . S
C905 C99 2.143 . S
C929 C130 2.130 1_556 S
C937 C139 2.134 . S
C961 C170 2.125 1_556 S
C969 C179 2.139 . S
C993 C210 2.122 . S
C1001 C219 2.138 1_554 S
C1025 C250 2.150 . S
C1033 C259 2.127 . S
C1057 C299 2.125 . S
C1065 C290 2.136 . S
