# Generated by pormake.
# Topology uol, (4)-cn, num edge types: 1
# Building blocks:
#     Node 0, Type 0, BuildingBlock: GALJAG_clean_sbu_0, # of connection points: 4
#     Node 1, Type 0, BuildingBlock: GALJAG_clean_sbu_0, # of connection points: 4
#     Node 2, Type 0, BuildingBlock: GALJAG_clean_sbu_0, # of connection points: 4
#     Node 3, Type 0, BuildingBlock: GALJAG_clean_sbu_0, # of connection points: 4
#     Node 4, Type 0, BuildingBlock: GALJAG_clean_sbu_0, # of connection points: 4
#     Node 5, Type 0, BuildingBlock: GALJAG_clean_sbu_0, # of connection points: 4
#     Node 6, Type 0, BuildingBlock: GALJAG_clean_sbu_0, # of connection points: 4
#     Node 7, Type 0, BuildingBlock: GALJAG_clean_sbu_0, # of connection points: 4
#     Node 8, Type 0, BuildingBlock: GALJAG_clean_sbu_0, # of connection points: 4
#     Node 9, Type 0, BuildingBlock: GALJAG_clean_sbu_0, # of connection points: 4
#     Node 10, Type 0, BuildingBlock: GALJAG_clean_sbu_0, # of connection points: 4
#     Node 11, Type 0, BuildingBlock: GALJAG_clean_sbu_0, # of connection points: 4
#     Edge 12, Type (0, 0), BuildingBlock: XIVTED_clean_linker_0, # of connection points: 2
#     Edge 13, Type (0, 0), BuildingBlock: XIVTED_clean_linker_0, # of connection points: 2
#     Edge 14, Type (0, 0), BuildingBlock: XIVTED_clean_linker_0, # of connection points: 2
#     Edge 15, Type (0, 0), BuildingBlock: XIVTED_clean_linker_0, # of connection points: 2
#     Edge 16, Type (0, 0), BuildingBlock: XIVTED_clean_linker_0, # of connection points: 2
#     Edge 17, Type (0, 0), BuildingBlock: XIVTED_clean_linker_0, # of connection points: 2
#     Edge 18, Type (0, 0), BuildingBlock: XIVTED_clean_linker_0, # of connection points: 2
#     Edge 19, Type (0, 0), BuildingBlock: XIVTED_clean_linker_0, # of connection points: 2
#     Edge 20, Type (0, 0), BuildingBlock: XIVTED_clean_linker_0, # of connection points: 2
#     Edge 21, Type (0, 0), BuildingBlock: XIVTED_clean_linker_0, # of connection points: 2
#     Edge 22, Type (0, 0), BuildingBlock: XIVTED_clean_linker_0, # of connection points: 2
#     Edge 23, Type (0, 0), BuildingBlock: XIVTED_clean_linker_0, # of connection points: 2
#     Edge 24, Type (0, 0), BuildingBlock: XIVTED_clean_linker_0, # of connection points: 2
#     Edge 25, Type (0, 0), BuildingBlock: XIVTED_clean_linker_0, # of connection points: 2
#     Edge 26, Type (0, 0), BuildingBlock: XIVTED_clean_linker_0, # of connection points: 2
#     Edge 27, Type (0, 0), BuildingBlock: XIVTED_clean_linker_0, # of connection points: 2
#     Edge 28, Type (0, 0), BuildingBlock: XIVTED_clean_linker_0, # of connection points: 2
#     Edge 29, Type (0, 0), BuildingBlock: XIVTED_clean_linker_0, # of connection points: 2
#     Edge 30, Type (0, 0), BuildingBlock: XIVTED_clean_linker_0, # of connection points: 2
#     Edge 31, Type (0, 0), BuildingBlock: XIVTED_clean_linker_0, # of connection points: 2
#     Edge 32, Type (0, 0), BuildingBlock: XIVTED_clean_linker_0, # of connection points: 2
#     Edge 33, Type (0, 0), BuildingBlock: XIVTED_clean_linker_0, # of connection points: 2
#     Edge 34, Type (0, 0), BuildingBlock: XIVTED_clean_linker_0, # of connection points: 2
#     Edge 35, Type (0, 0), BuildingBlock: XIVTED_clean_linker_0, # of connection points: 2
# Relax obj value: 0.121
# Max RMSD: 0.117
# Mean RMSD: 0.117
data_MOF--net-uol--node1-GALJAG_clean_sbu_0--edge1-XIVTED_clean_linker_0
_symmetry_space_group_name_H-M    P1
_symmetry_Int_Tables_number       1
_symmetry_cell_setting            triclinic
loop_
_symmetry_equiv_pos_as_xyz
'x, y, z'
_cell_length_a     34.571816
_cell_length_b     34.581159
_cell_length_c     59.956884
_cell_angle_alpha  89.935642
_cell_angle_beta   90.02129
_cell_angle_gamma 119.9979
loop_
_atom_site_label
_atom_site_type_symbol
_atom_site_fract_x
_atom_site_fract_y
_atom_site_fract_z
_atom_type_partial_charge
In0 In 0.18575 0.37636 0.08856 0.0
O1 O 0.12862 0.30743 0.09827 0.0
O2 O 0.11259 0.35791 0.09104 0.0
C3 C 0.21123 0.35521 0.05003 0.0
C4 C 0.19823 0.46005 0.08733 0.0
C5 C 0.23447 0.36766 0.12156 0.0
O6 O 0.17204 0.3324 0.0576 0.0
O7 O 0.23679 0.38889 0.06158 0.0
O8 O 0.24762 0.37567 0.10162 0.0
O9 O 0.19731 0.3651 0.12498 0.0
C10 C 0.09884 0.31832 0.09735 0.0
O11 O 0.20359 0.44301 0.10481 0.0
O12 O 0.18714 0.43516 0.0704 0.0
In13 In 0.80888 0.16639 0.24251 0.0
O14 O 0.75633 0.0937 0.24953 0.0
O15 O 0.82273 0.11563 0.25993 0.0
C16 C 0.84668 0.17995 0.20153 0.0
C17 C 0.73664 0.17711 0.24127 0.0
C18 C 0.869 0.22224 0.27268 0.0
O19 O 0.84181 0.1487 0.21419 0.0
O20 O 0.8313 0.2034 0.20924 0.0
O21 O 0.83029 0.19183 0.27802 0.0
O22 O 0.8769 0.22553 0.25202 0.0
C23 C 0.78277 0.08421 0.25933 0.0
O24 O 0.77255 0.20485 0.25074 0.0
O25 O 0.73766 0.14485 0.23209 0.0
In26 In 0.63776 0.81139 0.41544 0.0
O27 O 0.66491 0.76324 0.41773 0.0
O28 O 0.69469 0.82108 0.43822 0.0
C29 C 0.66696 0.84817 0.37451 0.0
C30 C 0.55436 0.73947 0.41511 0.0
C31 C 0.63912 0.87093 0.44511 0.0
O32 O 0.69274 0.8491 0.3896 0.0
O33 O 0.62623 0.82751 0.37976 0.0
O34 O 0.62774 0.8313 0.45032 0.0
O35 O 0.64865 0.88024 0.42479 0.0
C36 C 0.69334 0.78528 0.4326 0.0
O37 O 0.56119 0.77887 0.41575 0.0
O38 O 0.58924 0.73664 0.41418 0.0
In39 In 0.81724 0.63004 0.58545 0.0
O40 O 0.77538 0.55348 0.58854 0.0
O41 O 0.84386 0.58251 0.58011 0.0
C42 C 0.75772 0.63157 0.61408 0.0
C43 C 0.89782 0.68521 0.6039 0.0
C44 C 0.80999 0.66098 0.54501 0.0
O45 O 0.78468 0.61875 0.61977 0.0
O46 O 0.75995 0.64237 0.59381 0.0
O47 O 0.83711 0.68545 0.55975 0.0
O48 O 0.78715 0.62035 0.55034 0.0
C49 C 0.80769 0.54739 0.58435 0.0
O50 O 0.89255 0.65817 0.58851 0.0
O51 O 0.8627 0.68512 0.60964 0.0
In52 In 0.19294 0.82243 0.75 0.0
O53 O 0.25116 0.8924 0.757 0.0
O54 O 0.18632 0.8788 0.76616 0.0
C55 C 0.14852 0.81201 0.7113 0.0
C56 C 0.26215 0.80781 0.74483 0.0
C57 C 0.13431 0.76586 0.78054 0.0
O58 O 0.15539 0.84203 0.72525 0.0
O59 O 0.16508 0.78804 0.71657 0.0
O60 O 0.17089 0.79969 0.78583 0.0
O61 O 0.12795 0.75966 0.75984 0.0
C62 C 0.22759 0.90664 0.7658 0.0
O63 O 0.23215 0.7875 0.75932 0.0
O64 O 0.25655 0.83448 0.73272 0.0
In65 In 0.37096 0.19031 0.91606 0.0
O66 O 0.31898 0.21253 0.92131 0.0
O67 O 0.37108 0.23229 0.94506 0.0
C68 C 0.34896 0.15186 0.8755 0.0
C69 C 0.45407 0.25844 0.90854 0.0
C70 C 0.3452 0.11718 0.94177 0.0
O71 O 0.3281 0.16909 0.88452 0.0
O72 O 0.38147 0.15526 0.88667 0.0
O73 O 0.3852 0.14861 0.94113 0.0
O74 O 0.31875 0.12282 0.9296 0.0
C75 C 0.33664 0.23326 0.93915 0.0
O76 O 0.44613 0.2265 0.92153 0.0
O77 O 0.42014 0.25544 0.89894 0.0
In78 In 0.63581 0.82112 0.75038 0.0
O79 O 0.55921 0.77905 0.75349 0.0
O80 O 0.5884 0.84832 0.74691 0.0
C81 C 0.63951 0.76066 0.72313 0.0
C82 C 0.69136 0.90196 0.73241 0.0
C83 C 0.66257 0.81425 0.79201 0.0
O84 O 0.61925 0.78118 0.71782 0.0
O85 O 0.65712 0.77011 0.7422 0.0
O86 O 0.68863 0.8414 0.77765 0.0
O87 O 0.6225 0.7918 0.78573 0.0
C88 C 0.55314 0.81158 0.74985 0.0
O89 O 0.66738 0.89707 0.74925 0.0
O90 O 0.68833 0.86633 0.72511 0.0
In91 In 0.81244 0.63133 0.91322 0.0
O92 O 0.82247 0.69378 0.89523 0.0
O93 O 0.76046 0.6541 0.91156 0.0
C94 C 0.84191 0.6468 0.95572 0.0
C95 C 0.74282 0.54711 0.90958 0.0
C96 C 0.88293 0.64344 0.88813 0.0
O97 O 0.82791 0.66996 0.94607 0.0
O98 O 0.83971 0.61529 0.94416 0.0
O99 O 0.84323 0.61511 0.88315 0.0
O100 O 0.88691 0.66494 0.9057 0.0
C101 C 0.78425 0.68788 0.89962 0.0
O102 O 0.75636 0.5743 0.89351 0.0
O103 O 0.76462 0.56218 0.9274 0.0
In104 In 0.16288 0.8068 0.08194 0.0
O105 O 0.10118 0.80914 0.07031 0.0
O106 O 0.09369 0.74545 0.07661 0.0
C107 C 0.17728 0.85409 0.12002 0.0
C108 C 0.18227 0.74062 0.08542 0.0
C109 C 0.21476 0.86431 0.04971 0.0
O110 O 0.14818 0.84916 0.10589 0.0
O111 O 0.1984 0.83423 0.11529 0.0
O112 O 0.227 0.86864 0.0698 0.0
O113 O 0.17727 0.83049 0.04588 0.0
C114 C 0.07574 0.76741 0.07001 0.0
O115 O 0.19317 0.76611 0.06866 0.0
O116 O 0.16195 0.7488 0.10056 0.0
In117 In 0.36921 0.17709 0.25234 0.0
O118 O 0.44535 0.21425 0.24766 0.0
O119 O 0.41317 0.14608 0.25728 0.0
C120 C 0.35398 0.23518 0.22934 0.0
C121 C 0.31587 0.10129 0.22965 0.0
C122 C 0.35192 0.19327 0.29419 0.0
O123 O 0.38726 0.23037 0.22533 0.0
O124 O 0.32907 0.2111 0.24493 0.0
O125 O 0.3249 0.15898 0.28338 0.0
O126 O 0.38838 0.21792 0.28433 0.0
C127 C 0.44926 0.18077 0.25232 0.0
O128 O 0.32439 0.10084 0.25011 0.0
O129 O 0.33405 0.13951 0.2209 0.0
In130 In 0.18845 0.37521 0.41052 0.0
O131 O 0.22768 0.4508 0.40524 0.0
O132 O 0.25385 0.4221 0.42783 0.0
C133 C 0.12168 0.35172 0.38072 0.0
C134 C 0.22916 0.3327 0.39317 0.0
C135 C 0.14343 0.35906 0.44928 0.0
O136 O 0.15636 0.38982 0.38044 0.0
O137 O 0.12126 0.32587 0.39564 0.0
O138 O 0.1645 0.33925 0.44407 0.0
O139 O 0.14666 0.38795 0.43537 0.0
C140 C 0.259 0.45691 0.41826 0.0
O141 O 0.2017 0.31635 0.40909 0.0
O142 O 0.23554 0.36974 0.3861 0.0
In143 In 0.81559 0.1863 0.58211 0.0
O144 O 0.77477 0.22183 0.5834 0.0
O145 O 0.84159 0.25651 0.59539 0.0
C146 C 0.76062 0.11568 0.5563 0.0
C147 C 0.89109 0.22491 0.55739 0.0
C148 C 0.8067 0.14731 0.62222 0.0
O149 O 0.7618 0.15265 0.55498 0.0
O150 O 0.78661 0.11441 0.57059 0.0
O151 O 0.83997 0.15837 0.60968 0.0
O152 O 0.77858 0.15734 0.61486 0.0
C153 C 0.80633 0.25758 0.59131 0.0
O154 O 0.88965 0.20868 0.57644 0.0
O155 O 0.85468 0.22106 0.55089 0.0
H156 H 0.17152 0.68743 0.12138 0.0
H157 H 0.20054 0.50879 0.05096 0.0
H158 H 0.21094 0.70712 0.05215 0.0
H159 H 0.20394 0.512 0.12289 0.0
H160 H 0.20167 0.58011 0.05082 0.0
H161 H 0.18048 0.62155 0.12225 0.0
C162 C 0.18231 0.67802 0.10641 0.0
C163 C 0.19035 0.70261 0.08664 0.0
C164 C 0.20254 0.5654 0.06663 0.0
C165 C 0.20023 0.62719 0.08744 0.0
C166 C 0.20179 0.52467 0.06672 0.0
C167 C 0.20201 0.50448 0.08697 0.0
C168 C 0.20281 0.58569 0.08696 0.0
C169 C 0.20375 0.5265 0.10691 0.0
C170 C 0.18753 0.64052 0.10692 0.0
C171 C 0.20437 0.68905 0.06773 0.0
N172 N 0.20364 0.56574 0.10642 0.0
N173 N 0.20846 0.65199 0.06854 0.0
H174 H 0.72785 0.24877 0.2536 0.0
H175 H 0.46202 0.10927 0.2534 0.0
H176 H 0.65203 0.11231 0.23101 0.0
H177 H 0.5339 0.25304 0.24858 0.0
H178 H 0.5326 0.1096 0.25028 0.0
H179 H 0.6581 0.25112 0.25633 0.0
C180 C 0.69658 0.21942 0.24914 0.0
C181 C 0.69563 0.1803 0.24204 0.0
C182 C 0.53296 0.14109 0.24989 0.0
C183 C 0.61611 0.18254 0.24546 0.0
C184 C 0.49273 0.14095 0.25178 0.0
C185 C 0.49215 0.1812 0.25119 0.0
C186 C 0.57307 0.1818 0.2477 0.0
C187 C 0.53294 0.22127 0.24903 0.0
C188 C 0.65691 0.22081 0.25067 0.0
C189 C 0.65429 0.1432 0.23647 0.0
N190 N 0.57189 0.22061 0.24745 0.0
N191 N 0.61617 0.14512 0.23848 0.0
H192 H 0.47285 0.73407 0.40968 0.0
H193 H 0.33556 0.47411 0.43955 0.0
H194 H 0.53386 0.65403 0.42343 0.0
H195 H 0.27718 0.53844 0.40178 0.0
H196 H 0.4066 0.54424 0.43993 0.0
H197 H 0.3989 0.66637 0.41212 0.0
C198 C 0.47065 0.70231 0.41322 0.0
C199 C 0.50944 0.69952 0.41626 0.0
C200 C 0.37819 0.5431 0.43166 0.0
C201 C 0.42547 0.62258 0.41941 0.0
C202 C 0.33755 0.50315 0.43155 0.0
C203 C 0.3005 0.50042 0.42051 0.0
C204 C 0.38179 0.58078 0.42084 0.0
C205 C 0.30504 0.53912 0.41039 0.0
C206 C 0.42857 0.66381 0.41459 0.0
C207 C 0.50482 0.65764 0.42084 0.0
N208 N 0.34506 0.57781 0.41076 0.0
N209 N 0.46364 0.62089 0.42237 0.0
H210 H 0.73263 0.46452 0.58836 0.0
H211 H 0.87379 0.34035 0.60251 0.0
H212 H 0.87629 0.53024 0.58377 0.0
H213 H 0.73433 0.26938 0.58436 0.0
H214 H 0.87256 0.41024 0.60176 0.0
H215 H 0.73015 0.39244 0.59195 0.0
C216 C 0.76356 0.46375 0.58805 0.0
C217 C 0.80471 0.50332 0.58568 0.0
C218 C 0.84213 0.37937 0.59804 0.0
C219 C 0.80217 0.42155 0.59014 0.0
C220 C 0.84273 0.33941 0.59861 0.0
C221 C 0.80415 0.29903 0.59338 0.0
C222 C 0.80259 0.37906 0.59235 0.0
C223 C 0.76485 0.29985 0.58843 0.0
C224 C 0.76212 0.42272 0.59011 0.0
C225 C 0.84382 0.50054 0.58544 0.0
N226 N 0.76507 0.33932 0.58797 0.0
N227 N 0.84158 0.46044 0.58775 0.0
H228 H 0.47192 0.74072 0.76232 0.0
H229 H 0.33581 0.85718 0.71919 0.0
H230 H 0.53316 0.87311 0.734 0.0
H231 H 0.28088 0.74984 0.76727 0.0
H232 H 0.40541 0.85525 0.71931 0.0
H233 H 0.3987 0.73613 0.7597 0.0
C234 C 0.46992 0.7687 0.75552 0.0
C235 C 0.50858 0.80743 0.74846 0.0
C236 C 0.37807 0.83196 0.72976 0.0
C237 C 0.42541 0.80219 0.74517 0.0
C238 C 0.33825 0.83289 0.72962 0.0
C239 C 0.30264 0.8038 0.74334 0.0
C240 C 0.38231 0.8015 0.7436 0.0
C241 C 0.30767 0.77299 0.75652 0.0
C242 C 0.42826 0.76609 0.75407 0.0
C243 C 0.50423 0.84273 0.73976 0.0
N244 N 0.34689 0.77268 0.75637 0.0
N245 N 0.46343 0.8392 0.7383 0.0
H246 H 0.48137 0.3273 0.87884 0.0
H247 H 0.71351 0.47942 0.94004 0.0
H248 H 0.52878 0.27971 0.933 0.0
H249 H 0.68222 0.51232 0.87558 0.0
H250 H 0.64544 0.40644 0.93809 0.0
H251 H 0.55425 0.39568 0.87745 0.0
C252 C 0.50727 0.3311 0.89031 0.0
C253 C 0.49903 0.29792 0.90612 0.0
C254 C 0.65364 0.42947 0.92429 0.0
C255 C 0.5822 0.37618 0.90481 0.0
C256 C 0.69241 0.47115 0.92542 0.0
C257 C 0.70336 0.50196 0.90798 0.0
C258 C 0.62531 0.41876 0.90571 0.0
C259 C 0.67495 0.48952 0.8894 0.0
C260 C 0.54885 0.37009 0.8895 0.0
C261 C 0.53374 0.3045 0.92055 0.0
N262 N 0.63699 0.449 0.88884 0.0
N263 N 0.57368 0.34307 0.91971 0.0
H264 H 0.28721 0.25373 0.23673 0.0
H265 H 0.31375 0.3685 0.1178 0.0
H266 H 0.3942 0.28094 0.19096 0.0
H267 H 0.20966 0.34417 0.16493 0.0
H268 H 0.34847 0.34394 0.14576 0.0
H269 H 0.26315 0.29396 0.21218 0.0
C270 C 0.30592 0.26858 0.22159 0.0
C271 C 0.34252 0.26367 0.21576 0.0
C272 C 0.3183 0.34441 0.15007 0.0
C273 C 0.31492 0.30953 0.18743 0.0
C274 C 0.2985 0.35848 0.13413 0.0
C275 C 0.25858 0.35799 0.13902 0.0
C276 C 0.29787 0.32955 0.171 0.0
C277 C 0.2403 0.34482 0.16043 0.0
C278 C 0.29215 0.29156 0.20756 0.0
C279 C 0.36568 0.28379 0.19602 0.0
N280 N 0.25987 0.33075 0.17556 0.0
N281 N 0.3512 0.30549 0.18243 0.0
H282 H 0.86315 0.21201 0.31788 0.0
H283 H 0.11968 0.39143 0.34133 0.0
H284 H 0.95423 0.29104 0.26551 0.0
H285 H 0.03778 0.28079 0.38485 0.0
H286 H 0.05636 0.36523 0.31537 0.0
H287 H 0.92379 0.24832 0.3449 0.0
C288 C 0.89577 0.23746 0.31211 0.0
C289 C 0.90379 0.24828 0.2894 0.0
C290 C 0.05235 0.34692 0.33067 0.0
C291 C 0.97338 0.28977 0.32022 0.0
C292 C 0.08834 0.36185 0.34546 0.0
C293 C 0.08397 0.338 0.36514 0.0
C294 C 0.01169 0.30837 0.33586 0.0
C295 C 0.0427 0.29993 0.36976 0.0
C296 C 0.93043 0.25799 0.32752 0.0
C297 C 0.94673 0.28155 0.28287 0.0
N298 N 0.00818 0.28634 0.35525 0.0
N299 N 0.98007 0.301 0.2982 0.0
H300 H 0.73805 0.02898 0.56245 0.0
H301 H 0.65908 0.95722 0.43799 0.0
H302 H 0.72167 0.11575 0.51646 0.0
H303 H 0.63559 0.86235 0.49042 0.0
H304 H 0.68044 0.01567 0.46619 0.0
H305 H 0.69941 0.96729 0.53626 0.0
C306 C 0.72592 0.0349 0.54689 0.0
C307 C 0.73326 0.07751 0.54152 0.0
C308 C 0.66997 0.98192 0.47152 0.0
C309 C 0.68951 0.00722 0.51131 0.0
C310 C 0.65782 0.94857 0.45545 0.0
C311 C 0.64592 0.90499 0.4619 0.0
C312 C 0.67085 0.97166 0.49413 0.0
C313 C 0.64474 0.89556 0.48472 0.0
C314 C 0.70374 0.99965 0.53197 0.0
C315 C 0.71667 0.08334 0.5212 0.0
N316 N 0.65767 0.92876 0.49999 0.0
N317 N 0.69609 0.04869 0.50665 0.0
H318 H 0.7526 0.61771 0.65914 0.0
H319 H 0.6144 0.74341 0.6793 0.0
H320 H 0.69985 0.66223 0.60605 0.0
H321 H 0.67995 0.71165 0.73151 0.0
H322 H 0.63413 0.70227 0.65278 0.0
H323 H 0.71472 0.64003 0.68629 0.0
C324 C 0.7325 0.63158 0.65318 0.0
C325 C 0.72975 0.6386 0.63034 0.0
C326 C 0.64377 0.70388 0.67009 0.0
C327 C 0.68666 0.6646 0.66129 0.0
C328 C 0.63242 0.72727 0.68523 0.0
C329 C 0.64601 0.73133 0.70756 0.0
C330 C 0.66886 0.68446 0.67736 0.0
C331 C 0.66917 0.70968 0.71439 0.0
C332 C 0.71099 0.64446 0.66869 0.0
C333 C 0.70313 0.65656 0.62354 0.0
N334 N 0.6802 0.68751 0.69931 0.0
N335 N 0.68298 0.66938 0.63896 0.0
H336 H 0.97108 0.69796 0.89757 0.0
H337 H 0.05076 0.6947 0.77307 0.0
H338 H 0.88273 0.61191 0.84615 0.0
H339 H 0.13875 0.77609 0.82579 0.0
H340 H 0.99053 0.65754 0.80037 0.0
H341 H 0.03432 0.72059 0.87246 0.0
C342 C 0.96506 0.6835 0.88103 0.0
C343 C 0.92158 0.65335 0.87384 0.0
C344 C 0.02315 0.68314 0.80601 0.0
C345 C 0.99385 0.6794 0.84488 0.0
C346 C 0.05757 0.70429 0.79045 0.0
C347 C 0.09968 0.73881 0.79716 0.0
C348 C 0.03088 0.6968 0.82842 0.0
C349 C 0.10671 0.74985 0.81987 0.0
C350 C 0.0012 0.69643 0.86669 0.0
C351 C 0.91573 0.63543 0.8523 0.0
N352 N 0.07254 0.72923 0.83464 0.0
N353 N 0.95144 0.64911 0.83847 0.0
H354 H 0.29612 0.94091 0.05353 0.0
H355 H 0.26573 0.03977 0.93937 0.0
H356 H 0.18999 0.86508 0.00667 0.0
H357 H 0.38932 0.10375 0.97634 0.0
H358 H 0.23804 0.97534 0.96409 0.0
H359 H 0.33209 0.00062 0.02572 0.0
C360 C 0.28071 0.93661 0.03731 0.0
C361 C 0.23986 0.89818 0.03243 0.0
C362 C 0.27138 0.00325 0.96674 0.0
C363 C 0.2804 0.96634 0.00075 0.0
C364 C 0.28714 0.04013 0.95267 0.0
C365 C 0.32976 0.0772 0.95592 0.0
C366 C 0.29815 0.00359 0.98445 0.0
C367 C 0.3562 0.07579 0.97332 0.0
C368 C 0.30122 0.97066 0.02146 0.0
C369 C 0.22134 0.89424 0.01117 0.0
N370 N 0.33976 0.03972 0.98712 0.0
N371 N 0.24149 0.92809 0.99622 0.0
H372 H 0.16309 0.28585 0.02109 0.0
H373 H 0.38007 0.29702 0.97054 0.0
H374 H 0.29658 0.3933 0.03466 0.0
H375 H 0.25165 0.22079 0.93869 0.0
H376 H 0.34886 0.33082 0.99497 0.0
H377 H 0.19314 0.2597 0.9913 0.0
C378 C 0.1986 0.3042 0.01763 0.0
C379 C 0.22746 0.3416 0.03044 0.0
C380 C 0.32751 0.30703 0.98252 0.0
C381 C 0.26194 0.31167 0.99674 0.0
C382 C 0.34528 0.28761 0.96862 0.0
C383 C 0.31831 0.25599 0.95266 0.0
C384 C 0.28216 0.29419 0.98076 0.0
C385 C 0.27352 0.24513 0.9508 0.0
C386 C 0.21568 0.28931 0.00064 0.0
C387 C 0.27314 0.3642 0.02527 0.0
N388 N 0.2566 0.26381 0.96492 0.0
N389 N 0.28901 0.34858 0.00901 0.0
H390 H 0.86222 0.24624 0.17187 0.0
H391 H 0.06276 0.23352 0.11395 0.0
H392 H 0.89237 0.14118 0.18424 0.0
H393 H 0.03164 0.33783 0.10129 0.0
H394 H 0.99283 0.19224 0.13469 0.0
H395 H 0.91598 0.2731 0.14121 0.0
C396 C 0.87966 0.22839 0.1679 0.0
C397 C 0.87328 0.19178 0.18079 0.0
C398 C 0.00093 0.22383 0.12709 0.0
C399 C 0.93528 0.22265 0.14589 0.0
C400 C 0.04081 0.24736 0.11519 0.0
C401 C 0.05328 0.28943 0.10615 0.0
C402 C 0.97351 0.24269 0.13011 0.0
C403 C 0.0235 0.30567 0.10817 0.0
C404 C 0.91042 0.24379 0.15041 0.0
C405 C 0.89656 0.16977 0.17483 0.0
N406 N 0.9853 0.28257 0.1202 0.0
N407 N 0.92699 0.18591 0.15801 0.0
H408 H 0.83274 0.05809 0.28365 0.0
H409 H 0.61821 0.85526 0.3404 0.0
H410 H 0.69735 0.01435 0.26323 0.0
H411 H 0.75364 0.89971 0.36102 0.0
H412 H 0.64691 0.90602 0.30848 0.0
H413 H 0.80497 0.99328 0.30832 0.0
C414 C 0.79721 0.03446 0.2841 0.0
C415 C 0.76725 0.04183 0.27155 0.0
C416 C 0.67038 0.9043 0.31982 0.0
C417 C 0.73514 0.96785 0.29994 0.0
C418 C 0.65399 0.87524 0.33803 0.0
C419 C 0.6836 0.87364 0.3535 0.0
C420 C 0.71671 0.93212 0.31715 0.0
C421 C 0.72963 0.90014 0.34957 0.0
C422 C 0.78134 0.99751 0.29824 0.0
C423 C 0.72159 0.01009 0.27274 0.0
N424 N 0.74477 0.92865 0.33193 0.0
N425 N 0.70687 0.97476 0.28689 0.0
H426 H 0.85098 0.74824 0.53203 0.0
H427 H 0.6832 0.70163 0.43043 0.0
H428 H 0.75056 0.61609 0.51134 0.0
H429 H 0.7618 0.82993 0.46202 0.0
H430 H 0.71903 0.67125 0.45445 0.0
H431 H 0.83016 0.77967 0.50089 0.0
C432 C 0.82496 0.72577 0.52074 0.0
C433 C 0.80208 0.6795 0.52441 0.0
C434 C 0.72881 0.70618 0.4559 0.0
C435 C 0.77792 0.71531 0.4888 0.0
C436 C 0.70855 0.72358 0.44214 0.0
C437 C 0.71928 0.76825 0.44441 0.0
C438 C 0.76018 0.73376 0.4719 0.0
C439 C 0.75229 0.79521 0.45986 0.0
C440 C 0.813 0.74376 0.503 0.0
C441 C 0.7688 0.65198 0.50919 0.0
N442 N 0.77134 0.77747 0.47313 0.0
N443 N 0.7574 0.67034 0.49215 0.0
H444 H 0.09755 0.84938 0.70054 0.0
H445 H 0.97381 0.67993 0.59989 0.0
H446 H 0.1323 0.75231 0.67775 0.0
H447 H 0.91907 0.75076 0.63483 0.0
H448 H 0.04123 0.71814 0.62285 0.0
H449 H 0.04144 0.82552 0.67097 0.0
C450 C 0.09384 0.82352 0.6891 0.0
C451 C 0.11925 0.80244 0.69171 0.0
C452 C 0.01464 0.72564 0.62532 0.0
C453 C 0.05513 0.77495 0.65795 0.0
C454 C 0.97626 0.70399 0.61218 0.0
C455 C 0.94069 0.71192 0.61564 0.0
C456 C 0.01752 0.75561 0.64191 0.0
C457 C 0.94559 0.74342 0.63176 0.0
C458 C 0.0617 0.80981 0.67229 0.0
C459 C 0.11313 0.76917 0.67642 0.0
N460 N 0.98319 0.76394 0.6444 0.0
N461 N 0.08145 0.75621 0.66027 0.0
H462 H 0.26935 0.1216 0.8537 0.0
H463 H 0.31595 0.9681 0.77091 0.0
H464 H 0.39385 0.12127 0.85045 0.0
H465 H 0.18401 0.94488 0.78612 0.0
H466 H 0.34793 0.03574 0.79366 0.0
H467 H 0.24094 0.06834 0.82269 0.0
C468 C 0.29096 0.11093 0.8462 0.0
C469 C 0.33382 0.12543 0.85477 0.0
C470 C 0.312 0.01612 0.79182 0.0
C471 C 0.30161 0.06464 0.81945 0.0
C472 C 0.29372 0.97758 0.77879 0.0
C473 C 0.24724 0.95059 0.77686 0.0
C474 C 0.28359 0.0278 0.80297 0.0
C475 C 0.22003 0.96457 0.78734 0.0
C476 C 0.27468 0.08041 0.8286 0.0
C477 C 0.36044 0.11056 0.84447 0.0
N478 N 0.2386 0.00204 0.80012 0.0
N479 N 0.34379 0.08074 0.82746 0.0
H480 H 0.61404 0.75249 0.82418 0.0
H481 H 0.83168 0.76614 0.87682 0.0
H482 H 0.74843 0.85384 0.80723 0.0
H483 H 0.69812 0.67159 0.89856 0.0
H484 H 0.8018 0.80482 0.85494 0.0
H485 H 0.64363 0.72864 0.85504 0.0
C486 C 0.64971 0.77026 0.82721 0.0
C487 C 0.67888 0.80485 0.81297 0.0
C488 C 0.77899 0.77599 0.86472 0.0
C489 C 0.71302 0.7774 0.84804 0.0
C490 C 0.79608 0.7539 0.87724 0.0
C491 C 0.76727 0.71534 0.88933 0.0
C492 C 0.73264 0.75907 0.86402 0.0
C493 C 0.72147 0.7011 0.88938 0.0
C494 C 0.66661 0.75656 0.8448 0.0
C495 C 0.72476 0.82676 0.81768 0.0
N496 N 0.70547 0.72259 0.87663 0.0
N497 N 0.74044 0.81229 0.83462 0.0
H498 H 0.86856 0.59851 0.98088 0.0
H499 H 0.0299 0.80775 0.05502 0.0
H500 H 0.867 0.72247 0.98025 0.0
H501 H 0.02048 0.67893 0.06075 0.0
H502 H 0.96302 0.77426 0.03166 0.0
H503 H 0.91643 0.62393 0.01381 0.0
C504 C 0.87775 0.63083 0.9879 0.0
C505 C 0.86428 0.65868 0.97767 0.0
C506 C 0.9751 0.75312 0.03831 0.0
C507 C 0.91962 0.68832 0.01521 0.0
C508 C 0.01326 0.77223 0.05169 0.0
C509 C 0.03106 0.74617 0.05958 0.0
C510 C 0.95492 0.70773 0.03258 0.0
C511 C 0.00806 0.70031 0.05486 0.0
C512 C 0.90511 0.64536 0.00672 0.0
C513 C 0.8769 0.70008 0.98754 0.0
N514 N 0.97158 0.68268 0.04138 0.0
N515 N 0.90445 0.71395 0.00557 0.0
H516 H 0.15235 0.91631 0.12744 0.0
H517 H 0.29712 0.01573 0.23832 0.0
H518 H 0.22938 0.86168 0.15604 0.0
H519 H 0.27229 0.09479 0.19094 0.0
H520 H 0.25651 0.95035 0.21388 0.0
H521 H 0.17985 0.97314 0.15672 0.0
C522 C 0.17447 0.91583 0.1401 0.0
C523 C 0.18897 0.88455 0.13924 0.0
C524 C 0.25969 0.98199 0.20903 0.0
C525 C 0.2203 0.94924 0.17274 0.0
C526 C 0.28259 0.01911 0.22295 0.0
C527 C 0.28822 0.06062 0.2165 0.0
C528 C 0.24164 0.98646 0.18884 0.0
C529 C 0.26897 0.06342 0.19641 0.0
C530 C 0.19028 0.94836 0.15671 0.0
C531 C 0.21772 0.88549 0.15604 0.0
N532 N 0.2465 0.02683 0.1833 0.0
N533 N 0.23263 0.91749 0.17211 0.0
H534 H 0.27383 0.1485 0.31793 0.0
H535 H 0.30655 0.37156 0.36969 0.0
H536 H 0.39987 0.27197 0.31642 0.0
H537 H 0.20324 0.24356 0.39369 0.0
H538 H 0.34124 0.33463 0.35037 0.0
H539 H 0.24737 0.18039 0.34656 0.0
C540 C 0.29626 0.18193 0.32397 0.0
C541 C 0.33891 0.20784 0.3146 0.0
C542 C 0.31129 0.31455 0.36007 0.0
C543 C 0.30862 0.24466 0.34691 0.0
C544 C 0.29135 0.33561 0.37099 0.0
C545 C 0.25185 0.31047 0.38313 0.0
C546 C 0.29108 0.26784 0.36085 0.0
C547 C 0.2337 0.26405 0.38444 0.0
C548 C 0.28112 0.20011 0.34027 0.0
C549 C 0.36661 0.25093 0.32304 0.0
N550 N 0.25308 0.24404 0.3731 0.0
N551 N 0.35071 0.26826 0.33842 0.0
H552 H 0.08826 0.39089 0.46051 0.0
H553 H 0.9687 0.22196 0.56188 0.0
H554 H 0.12831 0.29671 0.48165 0.0
H555 H 0.90657 0.27983 0.52202 0.0
H556 H 0.03534 0.25924 0.53792 0.0
H557 H 0.03022 0.36174 0.48906 0.0
C558 C 0.08525 0.36447 0.47138 0.0
C559 C 0.11287 0.34588 0.46858 0.0
C560 C 0.00709 0.2638 0.53455 0.0
C561 C 0.04627 0.31222 0.50122 0.0
C562 C 0.96921 0.24266 0.54818 0.0
C563 C 0.93206 0.24764 0.54378 0.0
C564 C 0.0079 0.29062 0.51674 0.0
C565 C 0.93434 0.27481 0.52588 0.0
C566 C 0.05194 0.34769 0.48759 0.0
C567 C 0.10751 0.31177 0.48319 0.0
N568 N 0.97162 0.29534 0.51306 0.0
N569 N 0.07458 0.29578 0.49885 0.0
H570 H 0.68427 0.97687 0.7368 0.0
H571 H 0.85129 0.10485 0.63581 0.0
H572 H 0.75596 0.92439 0.70077 0.0
H573 H 0.74303 0.12655 0.65437 0.0
H574 H 0.83027 0.05065 0.66619 0.0
H575 H 0.71938 0.0437 0.71314 0.0
C576 C 0.70802 0.97979 0.72419 0.0
C577 C 0.71701 0.94496 0.72058 0.0
C578 C 0.81151 0.06773 0.66377 0.0
C579 C 0.75719 0.0211 0.69361 0.0
C580 C 0.82359 0.09881 0.64652 0.0
C581 C 0.79856 0.11988 0.64246 0.0
C582 C 0.77447 0.05804 0.67719 0.0
C583 C 0.76297 0.11074 0.65684 0.0
C584 C 0.72781 0.01777 0.71064 0.0
C585 C 0.74788 0.95035 0.70397 0.0
N586 N 0.7518 0.08029 0.67351 0.0
N587 N 0.76674 0.98763 0.69103 0.0
loop_
_geom_bond_atom_site_label_1
_geom_bond_atom_site_label_2
_geom_bond_distance
_geom_bond_site_symmetry_2
_ccdc_geom_bond_type
In0 O1 2.294 . S
In0 O2 2.326 . S
In0 O6 2.266 . S
In0 O7 2.326 . S
In0 O8 2.266 . S
In0 O9 2.326 . S
In0 O11 2.294 . S
In0 O12 2.326 . S
O1 In0 2.294 . S
O1 C10 1.240 . S
O2 In0 2.326 . S
O2 C10 1.252 . S
C3 O6 1.252 . S
C3 O7 1.260 . S
C4 O11 1.240 . S
C4 O12 1.252 . S
C5 O8 1.252 . S
C5 O9 1.260 . S
O6 In0 2.266 . S
O6 C3 1.252 . S
O7 In0 2.326 . S
O7 C3 1.260 . S
O8 In0 2.266 . S
O8 C5 1.252 . S
O9 In0 2.326 . S
O9 C5 1.260 . S
C10 O1 1.240 . S
C10 O2 1.252 . S
O11 In0 2.294 . S
O11 C4 1.240 . S
O12 In0 2.326 . S
O12 C4 1.252 . S
In13 O14 2.294 . S
In13 O15 2.326 . S
In13 O19 2.266 . S
In13 O20 2.326 . S
In13 O21 2.266 . S
In13 O22 2.326 . S
In13 O24 2.294 . S
In13 O25 2.326 . S
O14 In13 2.294 . S
O14 C23 1.240 . S
O15 In13 2.326 . S
O15 C23 1.252 . S
C16 O19 1.252 . S
C16 O20 1.260 . S
C17 O24 1.240 . S
C17 O25 1.252 . S
C18 O21 1.252 . S
C18 O22 1.260 . S
O19 In13 2.266 . S
O19 C16 1.252 . S
O20 In13 2.326 . S
O20 C16 1.260 . S
O21 In13 2.266 . S
O21 C18 1.252 . S
O22 In13 2.326 . S
O22 C18 1.260 . S
C23 O14 1.240 . S
C23 O15 1.252 . S
O24 In13 2.294 . S
O24 C17 1.240 . S
O25 In13 2.326 . S
O25 C17 1.252 . S
In26 O27 2.294 . S
In26 O28 2.326 . S
In26 O32 2.266 . S
In26 O33 2.326 . S
In26 O34 2.266 . S
In26 O35 2.326 . S
In26 O37 2.294 . S
In26 O38 2.326 . S
O27 In26 2.294 . S
O27 C36 1.240 . S
O28 In26 2.326 . S
O28 C36 1.252 . S
C29 O32 1.252 . S
C29 O33 1.260 . S
C30 O37 1.240 . S
C30 O38 1.252 . S
C31 O34 1.252 . S
C31 O35 1.260 . S
O32 In26 2.266 . S
O32 C29 1.252 . S
O33 In26 2.326 . S
O33 C29 1.260 . S
O34 In26 2.266 . S
O34 C31 1.252 . S
O35 In26 2.326 . S
O35 C31 1.260 . S
C36 O27 1.240 . S
C36 O28 1.252 . S
O37 In26 2.294 . S
O37 C30 1.240 . S
O38 In26 2.326 . S
O38 C30 1.252 . S
In39 O40 2.294 . S
In39 O41 2.326 . S
In39 O45 2.266 . S
In39 O46 2.326 . S
In39 O47 2.266 . S
In39 O48 2.326 . S
In39 O50 2.294 . S
In39 O51 2.326 . S
O40 In39 2.294 . S
O40 C49 1.240 . S
O41 In39 2.326 . S
O41 C49 1.252 . S
C42 O45 1.252 . S
C42 O46 1.260 . S
C43 O50 1.240 . S
C43 O51 1.252 . S
C44 O47 1.252 . S
C44 O48 1.260 . S
O45 In39 2.266 . S
O45 C42 1.252 . S
O46 In39 2.326 . S
O46 C42 1.260 . S
O47 In39 2.266 . S
O47 C44 1.252 . S
O48 In39 2.326 . S
O48 C44 1.260 . S
C49 O40 1.240 . S
C49 O41 1.252 . S
O50 In39 2.294 . S
O50 C43 1.240 . S
O51 In39 2.326 . S
O51 C43 1.252 . S
In52 O53 2.294 . S
In52 O54 2.326 . S
In52 O58 2.266 . S
In52 O59 2.326 . S
In52 O60 2.266 . S
In52 O61 2.326 . S
In52 O63 2.294 . S
In52 O64 2.326 . S
O53 In52 2.294 . S
O53 C62 1.240 . S
O54 In52 2.326 . S
O54 C62 1.252 . S
C55 O58 1.252 . S
C55 O59 1.260 . S
C56 O63 1.240 . S
C56 O64 1.252 . S
C57 O60 1.252 . S
C57 O61 1.260 . S
O58 In52 2.266 . S
O58 C55 1.252 . S
O59 In52 2.326 . S
O59 C55 1.260 . S
O60 In52 2.266 . S
O60 C57 1.252 . S
O61 In52 2.326 . S
O61 C57 1.260 . S
C62 O53 1.240 . S
C62 O54 1.252 . S
O63 In52 2.294 . S
O63 C56 1.240 . S
O64 In52 2.326 . S
O64 C56 1.252 . S
In65 O66 2.294 . S
In65 O67 2.326 . S
In65 O71 2.266 . S
In65 O72 2.326 . S
In65 O73 2.266 . S
In65 O74 2.326 . S
In65 O76 2.294 . S
In65 O77 2.326 . S
O66 In65 2.294 . S
O66 C75 1.240 . S
O67 In65 2.326 . S
O67 C75 1.252 . S
C68 O71 1.252 . S
C68 O72 1.260 . S
C69 O76 1.240 . S
C69 O77 1.252 . S
C70 O73 1.252 . S
C70 O74 1.260 . S
O71 In65 2.266 . S
O71 C68 1.252 . S
O72 In65 2.326 . S
O72 C68 1.260 . S
O73 In65 2.266 . S
O73 C70 1.252 . S
O74 In65 2.326 . S
O74 C70 1.260 . S
C75 O66 1.240 . S
C75 O67 1.252 . S
O76 In65 2.294 . S
O76 C69 1.240 . S
O77 In65 2.326 . S
O77 C69 1.252 . S
In78 O79 2.294 . S
In78 O80 2.326 . S
In78 O84 2.266 . S
In78 O85 2.326 . S
In78 O86 2.266 . S
In78 O87 2.326 . S
In78 O89 2.294 . S
In78 O90 2.326 . S
O79 In78 2.294 . S
O79 C88 1.240 . S
O80 In78 2.326 . S
O80 C88 1.252 . S
C81 O84 1.252 . S
C81 O85 1.260 . S
C82 O89 1.240 . S
C82 O90 1.252 . S
C83 O86 1.252 . S
C83 O87 1.260 . S
O84 In78 2.266 . S
O84 C81 1.252 . S
O85 In78 2.326 . S
O85 C81 1.260 . S
O86 In78 2.266 . S
O86 C83 1.252 . S
O87 In78 2.326 . S
O87 C83 1.260 . S
C88 O79 1.240 . S
C88 O80 1.252 . S
O89 In78 2.294 . S
O89 C82 1.240 . S
O90 In78 2.326 . S
O90 C82 1.252 . S
In91 O92 2.294 . S
In91 O93 2.326 . S
In91 O97 2.266 . S
In91 O98 2.326 . S
In91 O99 2.266 . S
In91 O100 2.326 . S
In91 O102 2.294 . S
In91 O103 2.326 . S
O92 In91 2.294 . S
O92 C101 1.240 . S
O93 In91 2.326 . S
O93 C101 1.252 . S
C94 O97 1.252 . S
C94 O98 1.260 . S
C95 O102 1.240 . S
C95 O103 1.252 . S
C96 O99 1.252 . S
C96 O100 1.260 . S
O97 In91 2.266 . S
O97 C94 1.252 . S
O98 In91 2.326 . S
O98 C94 1.260 . S
O99 In91 2.266 . S
O99 C96 1.252 . S
O100 In91 2.326 . S
O100 C96 1.260 . S
C101 O92 1.240 . S
C101 O93 1.252 . S
O102 In91 2.294 . S
O102 C95 1.240 . S
O103 In91 2.326 . S
O103 C95 1.252 . S
In104 O105 2.294 . S
In104 O106 2.326 . S
In104 O110 2.266 . S
In104 O111 2.326 . S
In104 O112 2.266 . S
In104 O113 2.326 . S
In104 O115 2.294 . S
In104 O116 2.326 . S
O105 In104 2.294 . S
O105 C114 1.240 . S
O106 In104 2.326 . S
O106 C114 1.252 . S
C107 O110 1.252 . S
C107 O111 1.260 . S
C108 O115 1.240 . S
C108 O116 1.252 . S
C109 O112 1.252 . S
C109 O113 1.260 . S
O110 In104 2.266 . S
O110 C107 1.252 . S
O111 In104 2.326 . S
O111 C107 1.260 . S
O112 In104 2.266 . S
O112 C109 1.252 . S
O113 In104 2.326 . S
O113 C109 1.260 . S
C114 O105 1.240 . S
C114 O106 1.252 . S
O115 In104 2.294 . S
O115 C108 1.240 . S
O116 In104 2.326 . S
O116 C108 1.252 . S
In117 O118 2.294 . S
In117 O119 2.326 . S
In117 O123 2.266 . S
In117 O124 2.326 . S
In117 O125 2.266 . S
In117 O126 2.326 . S
In117 O128 2.294 . S
In117 O129 2.326 . S
O118 In117 2.294 . S
O118 C127 1.240 . S
O119 In117 2.326 . S
O119 C127 1.252 . S
C120 O123 1.252 . S
C120 O124 1.260 . S
C121 O128 1.240 . S
C121 O129 1.252 . S
C122 O125 1.252 . S
C122 O126 1.260 . S
O123 In117 2.266 . S
O123 C120 1.252 . S
O124 In117 2.326 . S
O124 C120 1.260 . S
O125 In117 2.266 . S
O125 C122 1.252 . S
O126 In117 2.326 . S
O126 C122 1.260 . S
C127 O118 1.240 . S
C127 O119 1.252 . S
O128 In117 2.294 . S
O128 C121 1.240 . S
O129 In117 2.326 . S
O129 C121 1.252 . S
In130 O131 2.294 . S
In130 O132 2.326 . S
In130 O136 2.266 . S
In130 O137 2.326 . S
In130 O138 2.266 . S
In130 O139 2.326 . S
In130 O141 2.294 . S
In130 O142 2.326 . S
O131 In130 2.294 . S
O131 C140 1.240 . S
O132 In130 2.326 . S
O132 C140 1.252 . S
C133 O136 1.252 . S
C133 O137 1.260 . S
C134 O141 1.240 . S
C134 O142 1.252 . S
C135 O138 1.252 . S
C135 O139 1.260 . S
O136 In130 2.266 . S
O136 C133 1.252 . S
O137 In130 2.326 . S
O137 C133 1.260 . S
O138 In130 2.266 . S
O138 C135 1.252 . S
O139 In130 2.326 . S
O139 C135 1.260 . S
C140 O131 1.240 . S
C140 O132 1.252 . S
O141 In130 2.294 . S
O141 C134 1.240 . S
O142 In130 2.326 . S
O142 C134 1.252 . S
In143 O144 2.294 . S
In143 O145 2.326 . S
In143 O149 2.266 . S
In143 O150 2.326 . S
In143 O151 2.266 . S
In143 O152 2.326 . S
In143 O154 2.294 . S
In143 O155 2.326 . S
O144 In143 2.294 . S
O144 C153 1.240 . S
O145 In143 2.326 . S
O145 C153 1.252 . S
C146 O149 1.252 . S
C146 O150 1.260 . S
C147 O154 1.240 . S
C147 O155 1.252 . S
C148 O151 1.252 . S
C148 O152 1.260 . S
O149 In143 2.266 . S
O149 C146 1.252 . S
O150 In143 2.326 . S
O150 C146 1.260 . S
O151 In143 2.266 . S
O151 C148 1.252 . S
O152 In143 2.326 . S
O152 C148 1.260 . S
C153 O144 1.240 . S
C153 O145 1.252 . S
O154 In143 2.294 . S
O154 C147 1.240 . S
O155 In143 2.326 . S
O155 C147 1.252 . S
H156 C162 0.930 . S
H157 C166 0.930 . S
H158 C171 0.929 . S
H159 C169 0.929 . S
H160 C164 0.929 . S
H161 C170 0.929 . S
C162 H156 0.930 . S
C162 C163 1.367 . S
C162 C170 1.378 . S
C163 C162 1.367 . S
C163 C171 1.433 . S
C164 H160 0.929 . S
C164 C166 1.378 . S
C164 C168 1.350 . S
C165 C168 1.463 . S
C165 C170 1.350 . S
C165 N173 1.427 . S
C166 H157 0.930 . S
C166 C164 1.378 . S
C166 C167 1.367 . S
C167 C166 1.367 . S
C167 C169 1.433 . S
C168 C164 1.350 . S
C168 C165 1.463 . S
C168 N172 1.427 . S
C169 H159 0.929 . S
C169 C167 1.433 . S
C169 N172 1.384 . S
C170 H161 0.929 . S
C170 C162 1.378 . S
C170 C165 1.350 . S
C171 H158 0.929 . S
C171 C163 1.433 . S
C171 N173 1.384 . S
N172 C168 1.427 . S
N172 C169 1.384 . S
N173 C165 1.427 . S
N173 C171 1.384 . S
H174 C180 0.930 . S
H175 C184 0.930 . S
H176 C189 0.929 . S
H177 C187 0.929 . S
H178 C182 0.929 . S
H179 C188 0.929 . S
C180 H174 0.930 . S
C180 C181 1.367 . S
C180 C188 1.378 . S
C181 C180 1.367 . S
C181 C189 1.433 . S
C182 H178 0.929 . S
C182 C184 1.378 . S
C182 C186 1.350 . S
C183 C186 1.463 . S
C183 C188 1.350 . S
C183 N191 1.427 . S
C184 H175 0.930 . S
C184 C182 1.378 . S
C184 C185 1.367 . S
C185 C184 1.367 . S
C185 C187 1.433 . S
C186 C182 1.350 . S
C186 C183 1.463 . S
C186 N190 1.427 . S
C187 H177 0.929 . S
C187 C185 1.433 . S
C187 N190 1.384 . S
C188 H179 0.929 . S
C188 C180 1.378 . S
C188 C183 1.350 . S
C189 H176 0.929 . S
C189 C181 1.433 . S
C189 N191 1.384 . S
N190 C186 1.427 . S
N190 C187 1.384 . S
N191 C183 1.427 . S
N191 C189 1.384 . S
H192 C198 0.930 . S
H193 C202 0.930 . S
H194 C207 0.929 . S
H195 C205 0.929 . S
H196 C200 0.929 . S
H197 C206 0.929 . S
C198 H192 0.930 . S
C198 C199 1.367 . S
C198 C206 1.378 . S
C199 C198 1.367 . S
C199 C207 1.433 . S
C200 H196 0.929 . S
C200 C202 1.378 . S
C200 C204 1.350 . S
C201 C204 1.463 . S
C201 C206 1.350 . S
C201 N209 1.427 . S
C202 H193 0.930 . S
C202 C200 1.378 . S
C202 C203 1.367 . S
C203 C202 1.367 . S
C203 C205 1.433 . S
C204 C200 1.350 . S
C204 C201 1.463 . S
C204 N208 1.427 . S
C205 H195 0.929 . S
C205 C203 1.433 . S
C205 N208 1.384 . S
C206 H197 0.929 . S
C206 C198 1.378 . S
C206 C201 1.350 . S
C207 H194 0.929 . S
C207 C199 1.433 . S
C207 N209 1.384 . S
N208 C204 1.427 . S
N208 C205 1.384 . S
N209 C201 1.427 . S
N209 C207 1.384 . S
H210 C216 0.930 . S
H211 C220 0.930 . S
H212 C225 0.929 . S
H213 C223 0.929 . S
H214 C218 0.929 . S
H215 C224 0.929 . S
C216 H210 0.930 . S
C216 C217 1.367 . S
C216 C224 1.378 . S
C217 C216 1.367 . S
C217 C225 1.433 . S
C218 H214 0.929 . S
C218 C220 1.378 . S
C218 C222 1.350 . S
C219 C222 1.463 . S
C219 C224 1.350 . S
C219 N227 1.427 . S
C220 H211 0.930 . S
C220 C218 1.378 . S
C220 C221 1.367 . S
C221 C220 1.367 . S
C221 C223 1.433 . S
C222 C218 1.350 . S
C222 C219 1.463 . S
C222 N226 1.427 . S
C223 H213 0.929 . S
C223 C221 1.433 . S
C223 N226 1.384 . S
C224 H215 0.929 . S
C224 C216 1.378 . S
C224 C219 1.350 . S
C225 H212 0.929 . S
C225 C217 1.433 . S
C225 N227 1.384 . S
N226 C222 1.427 . S
N226 C223 1.384 . S
N227 C219 1.427 . S
N227 C225 1.384 . S
H228 C234 0.930 . S
H229 C238 0.930 . S
H230 C243 0.929 . S
H231 C241 0.929 . S
H232 C236 0.929 . S
H233 C242 0.929 . S
C234 H228 0.930 . S
C234 C235 1.367 . S
C234 C242 1.378 . S
C235 C234 1.367 . S
C235 C243 1.433 . S
C236 H232 0.929 . S
C236 C238 1.378 . S
C236 C240 1.350 . S
C237 C240 1.463 . S
C237 C242 1.350 . S
C237 N245 1.427 . S
C238 H229 0.930 . S
C238 C236 1.378 . S
C238 C239 1.367 . S
C239 C238 1.367 . S
C239 C241 1.433 . S
C240 C236 1.350 . S
C240 C237 1.463 . S
C240 N244 1.427 . S
C241 H231 0.929 . S
C241 C239 1.433 . S
C241 N244 1.384 . S
C242 H233 0.929 . S
C242 C234 1.378 . S
C242 C237 1.350 . S
C243 H230 0.929 . S
C243 C235 1.433 . S
C243 N245 1.384 . S
N244 C240 1.427 . S
N244 C241 1.384 . S
N245 C237 1.427 . S
N245 C243 1.384 . S
H246 C252 0.930 . S
H247 C256 0.930 . S
H248 C261 0.929 . S
H249 C259 0.929 . S
H250 C254 0.929 . S
H251 C260 0.929 . S
C252 H246 0.930 . S
C252 C253 1.367 . S
C252 C260 1.378 . S
C253 C252 1.367 . S
C253 C261 1.433 . S
C254 H250 0.929 . S
C254 C256 1.378 . S
C254 C258 1.350 . S
C255 C258 1.463 . S
C255 C260 1.350 . S
C255 N263 1.427 . S
C256 H247 0.930 . S
C256 C254 1.378 . S
C256 C257 1.367 . S
C257 C256 1.367 . S
C257 C259 1.433 . S
C258 C254 1.350 . S
C258 C255 1.463 . S
C258 N262 1.427 . S
C259 H249 0.929 . S
C259 C257 1.433 . S
C259 N262 1.384 . S
C260 H251 0.929 . S
C260 C252 1.378 . S
C260 C255 1.350 . S
C261 H248 0.929 . S
C261 C253 1.433 . S
C261 N263 1.384 . S
N262 C258 1.427 . S
N262 C259 1.384 . S
N263 C255 1.427 . S
N263 C261 1.384 . S
H264 C270 0.930 . S
H265 C274 0.930 . S
H266 C279 0.929 . S
H267 C277 0.929 . S
H268 C272 0.929 . S
H269 C278 0.929 . S
C270 H264 0.930 . S
C270 C271 1.367 . S
C270 C278 1.378 . S
C271 C270 1.367 . S
C271 C279 1.433 . S
C272 H268 0.929 . S
C272 C274 1.378 . S
C272 C276 1.350 . S
C273 C276 1.463 . S
C273 C278 1.350 . S
C273 N281 1.427 . S
C274 H265 0.930 . S
C274 C272 1.378 . S
C274 C275 1.367 . S
C275 C274 1.367 . S
C275 C277 1.433 . S
C276 C272 1.350 . S
C276 C273 1.463 . S
C276 N280 1.427 . S
C277 H267 0.929 . S
C277 C275 1.433 . S
C277 N280 1.384 . S
C278 H269 0.929 . S
C278 C270 1.378 . S
C278 C273 1.350 . S
C279 H266 0.929 . S
C279 C271 1.433 . S
C279 N281 1.384 . S
N280 C276 1.427 . S
N280 C277 1.384 . S
N281 C273 1.427 . S
N281 C279 1.384 . S
H282 C288 0.930 . S
H283 C292 0.930 . S
H284 C297 0.929 . S
H285 C295 0.929 . S
H286 C290 0.929 . S
H287 C296 0.929 . S
C288 H282 0.930 . S
C288 C289 1.367 . S
C288 C296 1.378 . S
C289 C288 1.367 . S
C289 C297 1.433 . S
C290 H286 0.929 . S
C290 C292 1.378 . S
C290 C294 1.350 . S
C291 C294 1.463 1_655 S
C291 C296 1.350 . S
C291 N299 1.427 . S
C292 H283 0.930 . S
C292 C290 1.378 . S
C292 C293 1.367 . S
C293 C292 1.367 . S
C293 C295 1.433 . S
C294 C290 1.350 . S
C294 C291 1.463 1_455 S
C294 N298 1.427 . S
C295 H285 0.929 . S
C295 C293 1.433 . S
C295 N298 1.384 . S
C296 H287 0.929 . S
C296 C288 1.378 . S
C296 C291 1.350 . S
C297 H284 0.929 . S
C297 C289 1.433 . S
C297 N299 1.384 . S
N298 C294 1.427 . S
N298 C295 1.384 . S
N299 C291 1.427 . S
N299 C297 1.384 . S
H300 C306 0.930 . S
H301 C310 0.930 . S
H302 C315 0.929 . S
H303 C313 0.929 . S
H304 C308 0.929 1_545 S
H305 C314 0.929 1_565 S
C306 H300 0.930 . S
C306 C307 1.367 . S
C306 C314 1.378 . S
C307 C306 1.367 . S
C307 C315 1.433 . S
C308 H304 0.929 1_565 S
C308 C310 1.378 . S
C308 C312 1.350 . S
C309 C312 1.463 1_545 S
C309 C314 1.350 . S
C309 N317 1.427 . S
C310 H301 0.930 . S
C310 C308 1.378 . S
C310 C311 1.367 . S
C311 C310 1.367 . S
C311 C313 1.433 . S
C312 C308 1.350 . S
C312 C309 1.463 1_565 S
C312 N316 1.427 . S
C313 H303 0.929 . S
C313 C311 1.433 . S
C313 N316 1.384 . S
C314 H305 0.929 1_545 S
C314 C306 1.378 . S
C314 C309 1.350 . S
C315 H302 0.929 . S
C315 C307 1.433 . S
C315 N317 1.384 . S
N316 C312 1.427 . S
N316 C313 1.384 . S
N317 C309 1.427 . S
N317 C315 1.384 . S
H318 C324 0.930 . S
H319 C328 0.930 . S
H320 C333 0.929 . S
H321 C331 0.929 . S
H322 C326 0.929 . S
H323 C332 0.929 . S
C324 H318 0.930 . S
C324 C325 1.367 . S
C324 C332 1.378 . S
C325 C324 1.367 . S
C325 C333 1.433 . S
C326 H322 0.929 . S
C326 C328 1.378 . S
C326 C330 1.350 . S
C327 C330 1.463 . S
C327 C332 1.350 . S
C327 N335 1.427 . S
C328 H319 0.930 . S
C328 C326 1.378 . S
C328 C329 1.367 . S
C329 C328 1.367 . S
C329 C331 1.433 . S
C330 C326 1.350 . S
C330 C327 1.463 . S
C330 N334 1.427 . S
C331 H321 0.929 . S
C331 C329 1.433 . S
C331 N334 1.384 . S
C332 H323 0.929 . S
C332 C324 1.378 . S
C332 C327 1.350 . S
C333 H320 0.929 . S
C333 C325 1.433 . S
C333 N335 1.384 . S
N334 C330 1.427 . S
N334 C331 1.384 . S
N335 C327 1.427 . S
N335 C333 1.384 . S
H336 C342 0.930 . S
H337 C346 0.930 . S
H338 C351 0.929 . S
H339 C349 0.929 . S
H340 C344 0.929 1_655 S
H341 C350 0.929 1_455 S
C342 H336 0.930 . S
C342 C343 1.367 . S
C342 C350 1.378 . S
C343 C342 1.367 . S
C343 C351 1.433 . S
C344 H340 0.929 1_455 S
C344 C346 1.378 . S
C344 C348 1.350 . S
C345 C348 1.463 1_655 S
C345 C350 1.350 . S
C345 N353 1.427 . S
C346 H337 0.930 . S
C346 C344 1.378 . S
C346 C347 1.367 . S
C347 C346 1.367 . S
C347 C349 1.433 . S
C348 C344 1.350 . S
C348 C345 1.463 1_455 S
C348 N352 1.427 . S
C349 H339 0.929 . S
C349 C347 1.433 . S
C349 N352 1.384 . S
C350 H341 0.929 1_655 S
C350 C342 1.378 . S
C350 C345 1.350 . S
C351 H338 0.929 . S
C351 C343 1.433 . S
C351 N353 1.384 . S
N352 C348 1.427 . S
N352 C349 1.384 . S
N353 C345 1.427 . S
N353 C351 1.384 . S
H354 C360 0.930 . S
H355 C364 0.930 . S
H356 C369 0.929 . S
H357 C367 0.929 . S
H358 C362 0.927 1_565 S
H359 C368 0.927 1_545 S
C360 H354 0.930 . S
C360 C361 1.367 . S
C360 C368 1.378 . S
C361 C360 1.367 . S
C361 C369 1.433 . S
C362 H358 0.927 1_545 S
C362 C364 1.378 . S
C362 C366 1.350 . S
C363 C366 1.463 1_564 S
C363 C368 1.350 . S
C363 N371 1.424 1_554 S
C364 H355 0.930 . S
C364 C362 1.378 . S
C364 C365 1.367 . S
C365 C364 1.367 . S
C365 C367 1.433 . S
C366 C362 1.350 . S
C366 C363 1.463 1_546 S
C366 N370 1.424 1_556 S
C367 H357 0.929 . S
C367 C365 1.433 . S
C367 N370 1.377 1_556 S
C368 H359 0.927 1_565 S
C368 C360 1.378 . S
C368 C363 1.350 . S
C369 H356 0.929 . S
C369 C361 1.433 . S
C369 N371 1.377 1_554 S
N370 C366 1.424 1_554 S
N370 C367 1.377 1_554 S
N371 C363 1.424 1_556 S
N371 C369 1.377 1_556 S
H372 C378 0.930 . S
H373 C382 0.930 . S
H374 C387 0.929 . S
H375 C385 0.929 . S
H376 C380 0.929 . S
H377 C386 0.929 . S
C378 H372 0.930 . S
C378 C379 1.367 . S
C378 C386 1.378 . S
C379 C378 1.367 . S
C379 C387 1.433 . S
C380 H376 0.929 . S
C380 C382 1.378 1_554 S
C380 C384 1.350 . S
C381 C384 1.463 . S
C381 C386 1.350 . S
C381 N389 1.427 . S
C382 H373 0.930 . S
C382 C380 1.378 1_556 S
C382 C383 1.367 . S
C383 C382 1.367 . S
C383 C385 1.433 . S
C384 C380 1.350 . S
C384 C381 1.463 . S
C384 N388 1.427 1_554 S
C385 H375 0.929 . S
C385 C383 1.433 . S
C385 N388 1.384 . S
C386 H377 0.929 . S
C386 C378 1.378 . S
C386 C381 1.350 . S
C387 H374 0.929 . S
C387 C379 1.433 . S
C387 N389 1.384 . S
N388 C384 1.427 1_556 S
N388 C385 1.384 . S
N389 C381 1.427 . S
N389 C387 1.384 . S
H390 C396 0.930 . S
H391 C400 0.930 . S
H392 C405 0.929 . S
H393 C403 0.929 . S
H394 C398 0.929 . S
H395 C404 0.929 . S
C396 H390 0.930 . S
C396 C397 1.367 . S
C396 C404 1.378 . S
C397 C396 1.367 . S
C397 C405 1.433 . S
C398 H394 0.929 . S
C398 C400 1.378 . S
C398 C402 1.350 1_455 S
C399 C402 1.463 . S
C399 C404 1.350 . S
C399 N407 1.427 . S
C400 H391 0.930 . S
C400 C398 1.378 . S
C400 C401 1.367 . S
C401 C400 1.367 . S
C401 C403 1.433 . S
C402 C398 1.350 1_655 S
C402 C399 1.463 . S
C402 N406 1.428 1_655 S
C403 H393 0.929 . S
C403 C401 1.433 . S
C403 N406 1.384 . S
C404 H395 0.929 . S
C404 C396 1.378 . S
C404 C399 1.350 . S
C405 H392 0.929 . S
C405 C397 1.433 . S
C405 N407 1.384 . S
N406 C402 1.428 1_455 S
N406 C403 1.384 . S
N407 C399 1.427 . S
N407 C405 1.384 . S
H408 C414 0.930 . S
H409 C418 0.930 . S
H410 C423 0.929 . S
H411 C421 0.929 . S
H412 C416 0.929 . S
H413 C422 0.929 . S
C414 H408 0.930 . S
C414 C415 1.367 . S
C414 C422 1.378 . S
C415 C414 1.367 . S
C415 C423 1.433 . S
C416 H412 0.929 . S
C416 C418 1.378 . S
C416 C420 1.350 . S
C417 C420 1.463 . S
C417 C422 1.350 1_565 S
C417 N425 1.427 . S
C418 H409 0.930 . S
C418 C416 1.378 . S
C418 C419 1.367 . S
C419 C418 1.367 . S
C419 C421 1.433 . S
C420 C416 1.350 . S
C420 C417 1.463 . S
C420 N424 1.427 . S
C421 H411 0.929 . S
C421 C419 1.433 . S
C421 N424 1.384 . S
C422 H413 0.929 . S
C422 C414 1.378 . S
C422 C417 1.350 1_545 S
C423 H410 0.929 . S
C423 C415 1.433 . S
C423 N425 1.384 1_545 S
N424 C420 1.427 . S
N424 C421 1.384 . S
N425 C417 1.427 . S
N425 C423 1.384 1_565 S
H426 C432 0.930 . S
H427 C436 0.930 . S
H428 C441 0.929 . S
H429 C439 0.929 . S
H430 C434 0.929 . S
H431 C440 0.929 . S
C432 H426 0.930 . S
C432 C433 1.367 . S
C432 C440 1.378 . S
C433 C432 1.367 . S
C433 C441 1.433 . S
C434 H430 0.929 . S
C434 C436 1.378 . S
C434 C438 1.350 . S
C435 C438 1.463 . S
C435 C440 1.350 . S
C435 N443 1.427 . S
C436 H427 0.930 . S
C436 C434 1.378 . S
C436 C437 1.367 . S
C437 C436 1.367 . S
C437 C439 1.433 . S
C438 C434 1.350 . S
C438 C435 1.463 . S
C438 N442 1.427 . S
C439 H429 0.929 . S
C439 C437 1.433 . S
C439 N442 1.384 . S
C440 H431 0.929 . S
C440 C432 1.378 . S
C440 C435 1.350 . S
C441 H428 0.929 . S
C441 C433 1.433 . S
C441 N443 1.384 . S
N442 C438 1.427 . S
N442 C439 1.384 . S
N443 C435 1.427 . S
N443 C441 1.384 . S
H444 C450 0.930 . S
H445 C454 0.930 . S
H446 C459 0.929 . S
H447 C457 0.929 . S
H448 C452 0.929 . S
H449 C458 0.929 . S
C450 H444 0.930 . S
C450 C451 1.367 . S
C450 C458 1.378 . S
C451 C450 1.367 . S
C451 C459 1.433 . S
C452 H448 0.929 . S
C452 C454 1.378 1_455 S
C452 C456 1.350 . S
C453 C456 1.463 . S
C453 C458 1.350 . S
C453 N461 1.427 . S
C454 H445 0.930 . S
C454 C452 1.378 1_655 S
C454 C455 1.367 . S
C455 C454 1.367 . S
C455 C457 1.433 . S
C456 C452 1.350 . S
C456 C453 1.463 . S
C456 N460 1.427 1_455 S
C457 H447 0.929 . S
C457 C455 1.433 . S
C457 N460 1.384 . S
C458 H449 0.929 . S
C458 C450 1.378 . S
C458 C453 1.350 . S
C459 H446 0.929 . S
C459 C451 1.433 . S
C459 N461 1.384 . S
N460 C456 1.427 1_655 S
N460 C457 1.384 . S
N461 C453 1.427 . S
N461 C459 1.384 . S
H462 C468 0.930 . S
H463 C472 0.930 . S
H464 C477 0.929 . S
H465 C475 0.929 . S
H466 C470 0.929 . S
H467 C476 0.929 . S
C468 H462 0.930 . S
C468 C469 1.367 . S
C468 C476 1.378 . S
C469 C468 1.367 . S
C469 C477 1.433 . S
C470 H466 0.929 . S
C470 C472 1.378 1_545 S
C470 C474 1.350 . S
C471 C474 1.463 . S
C471 C476 1.350 . S
C471 N479 1.427 . S
C472 H463 0.930 . S
C472 C470 1.378 1_565 S
C472 C473 1.367 . S
C473 C472 1.367 . S
C473 C475 1.433 . S
C474 C470 1.350 . S
C474 C471 1.463 . S
C474 N478 1.427 1_545 S
C475 H465 0.929 . S
C475 C473 1.433 . S
C475 N478 1.384 . S
C476 H467 0.929 . S
C476 C468 1.378 . S
C476 C471 1.350 . S
C477 H464 0.929 . S
C477 C469 1.433 . S
C477 N479 1.384 . S
N478 C474 1.427 1_565 S
N478 C475 1.384 . S
N479 C471 1.427 . S
N479 C477 1.384 . S
H480 C486 0.930 . S
H481 C490 0.930 . S
H482 C495 0.929 . S
H483 C493 0.929 . S
H484 C488 0.929 . S
H485 C494 0.929 . S
C486 H480 0.930 . S
C486 C487 1.367 . S
C486 C494 1.378 . S
C487 C486 1.367 . S
C487 C495 1.433 . S
C488 H484 0.929 . S
C488 C490 1.378 . S
C488 C492 1.350 . S
C489 C492 1.463 . S
C489 C494 1.350 . S
C489 N497 1.427 . S
C490 H481 0.930 . S
C490 C488 1.378 . S
C490 C491 1.367 . S
C491 C490 1.367 . S
C491 C493 1.433 . S
C492 C488 1.350 . S
C492 C489 1.463 . S
C492 N496 1.427 . S
C493 H483 0.929 . S
C493 C491 1.433 . S
C493 N496 1.384 . S
C494 H485 0.929 . S
C494 C486 1.378 . S
C494 C489 1.350 . S
C495 H482 0.929 . S
C495 C487 1.433 . S
C495 N497 1.384 . S
N496 C492 1.427 . S
N496 C493 1.384 . S
N497 C489 1.427 . S
N497 C495 1.384 . S
H498 C504 0.930 . S
H499 C508 0.930 . S
H500 C513 0.929 . S
H501 C511 0.929 . S
H502 C506 0.929 1_655 S
H503 C512 0.929 . S
C504 H498 0.930 . S
C504 C505 1.367 . S
C504 C512 1.378 . S
C505 C504 1.367 . S
C505 C513 1.433 . S
C506 H502 0.929 1_455 S
C506 C508 1.378 . S
C506 C510 1.350 1_454 S
C507 C510 1.463 . S
C507 C512 1.350 . S
C507 N515 1.427 . S
C508 H499 0.930 . S
C508 C506 1.378 . S
C508 C509 1.367 . S
C509 C508 1.367 . S
C509 C511 1.433 . S
C510 C506 1.350 1_656 S
C510 C507 1.463 . S
C510 N514 1.427 1_655 S
C511 H501 0.929 . S
C511 C509 1.433 . S
C511 N514 1.384 1_554 S
C512 H503 0.929 . S
C512 C504 1.378 . S
C512 C507 1.350 . S
C513 H500 0.929 . S
C513 C505 1.433 . S
C513 N515 1.384 . S
N514 C510 1.427 1_455 S
N514 C511 1.384 1_556 S
N515 C507 1.427 . S
N515 C513 1.384 . S
H516 C522 0.930 . S
H517 C526 0.930 . S
H518 C531 0.929 . S
H519 C529 0.929 . S
H520 C524 0.929 . S
H521 C530 0.929 . S
C522 H516 0.930 . S
C522 C523 1.367 . S
C522 C530 1.378 . S
C523 C522 1.367 . S
C523 C531 1.433 . S
C524 H520 0.929 . S
C524 C526 1.378 1_565 S
C524 C528 1.350 . S
C525 C528 1.463 . S
C525 C530 1.350 . S
C525 N533 1.427 . S
C526 H517 0.930 . S
C526 C524 1.378 1_545 S
C526 C527 1.367 . S
C527 C526 1.367 . S
C527 C529 1.433 . S
C528 C524 1.350 . S
C528 C525 1.463 . S
C528 N532 1.427 1_565 S
C529 H519 0.929 . S
C529 C527 1.433 . S
C529 N532 1.384 . S
C530 H521 0.929 . S
C530 C522 1.378 . S
C530 C525 1.350 . S
C531 H518 0.929 . S
C531 C523 1.433 . S
C531 N533 1.384 . S
N532 C528 1.427 1_545 S
N532 C529 1.384 . S
N533 C525 1.427 . S
N533 C531 1.384 . S
H534 C540 0.930 . S
H535 C544 0.930 . S
H536 C549 0.929 . S
H537 C547 0.929 . S
H538 C542 0.929 . S
H539 C548 0.929 . S
C540 H534 0.930 . S
C540 C541 1.367 . S
C540 C548 1.378 . S
C541 C540 1.367 . S
C541 C549 1.433 . S
C542 H538 0.929 . S
C542 C544 1.378 . S
C542 C546 1.350 . S
C543 C546 1.463 . S
C543 C548 1.350 . S
C543 N551 1.427 . S
C544 H535 0.930 . S
C544 C542 1.378 . S
C544 C545 1.367 . S
C545 C544 1.367 . S
C545 C547 1.433 . S
C546 C542 1.350 . S
C546 C543 1.463 . S
C546 N550 1.427 . S
C547 H537 0.929 . S
C547 C545 1.433 . S
C547 N550 1.384 . S
C548 H539 0.929 . S
C548 C540 1.378 . S
C548 C543 1.350 . S
C549 H536 0.929 . S
C549 C541 1.433 . S
C549 N551 1.384 . S
N550 C546 1.427 . S
N550 C547 1.384 . S
N551 C543 1.427 . S
N551 C549 1.384 . S
H552 C558 0.930 . S
H553 C562 0.930 . S
H554 C567 0.929 . S
H555 C565 0.929 . S
H556 C560 0.929 . S
H557 C566 0.929 . S
C558 H552 0.930 . S
C558 C559 1.367 . S
C558 C566 1.378 . S
C559 C558 1.367 . S
C559 C567 1.433 . S
C560 H556 0.929 . S
C560 C562 1.378 1_455 S
C560 C564 1.350 . S
C561 C564 1.463 . S
C561 C566 1.350 . S
C561 N569 1.427 . S
C562 H553 0.930 . S
C562 C560 1.378 1_655 S
C562 C563 1.367 . S
C563 C562 1.367 . S
C563 C565 1.433 . S
C564 C560 1.350 . S
C564 C561 1.463 . S
C564 N568 1.427 1_455 S
C565 H555 0.929 . S
C565 C563 1.433 . S
C565 N568 1.384 . S
C566 H557 0.929 . S
C566 C558 1.378 . S
C566 C561 1.350 . S
C567 H554 0.929 . S
C567 C559 1.433 . S
C567 N569 1.384 . S
N568 C564 1.427 1_655 S
N568 C565 1.384 . S
N569 C561 1.427 . S
N569 C567 1.384 . S
H570 C576 0.930 . S
H571 C580 0.930 . S
H572 C585 0.929 . S
H573 C583 0.929 . S
H574 C578 0.929 . S
H575 C584 0.929 . S
C576 H570 0.930 . S
C576 C577 1.367 . S
C576 C584 1.378 1_565 S
C577 C576 1.367 . S
C577 C585 1.433 . S
C578 H574 0.929 . S
C578 C580 1.378 . S
C578 C582 1.350 . S
C579 C582 1.463 . S
C579 C584 1.350 . S
C579 N587 1.427 1_545 S
C580 H571 0.930 . S
C580 C578 1.378 . S
C580 C581 1.367 . S
C581 C580 1.367 . S
C581 C583 1.433 . S
C582 C578 1.350 . S
C582 C579 1.463 . S
C582 N586 1.427 . S
C583 H573 0.929 . S
C583 C581 1.433 . S
C583 N586 1.384 . S
C584 H575 0.929 . S
C584 C576 1.378 1_545 S
C584 C579 1.350 . S
C585 H572 0.929 . S
C585 C577 1.433 . S
C585 N587 1.384 . S
N586 C582 1.427 . S
N586 C583 1.384 . S
N587 C579 1.427 1_565 S
N587 C585 1.384 . S
C163 C108 1.242 . S
C167 C4 1.243 . S
C181 C17 1.243 . S
C185 C127 1.241 . S
C199 C30 1.241 . S
C203 C140 1.239 . S
C217 C49 1.241 . S
C221 C153 1.239 . S
C235 C88 1.242 . S
C239 C56 1.240 . S
C253 C69 1.241 . S
C257 C95 1.242 . S
C271 C120 1.001 . S
C275 C5 1.009 . S
C289 C18 1.005 . S
C293 C133 1.007 . S
C307 C146 1.003 . S
C311 C31 1.006 . S
C325 C42 1.007 . S
C329 C81 1.006 . S
C343 C96 1.003 . S
C347 C57 1.006 . S
C361 C109 1.007 . S
C365 C70 1.002 . S
C379 C3 1.587 . S
C383 C75 1.593 . S
C397 C16 1.584 . S
C401 C10 1.588 . S
C415 C23 1.588 . S
C419 C29 1.585 . S
C433 C44 1.581 . S
C437 C36 1.594 . S
C451 C55 1.581 . S
C455 C43 1.593 . S
C469 C68 1.582 . S
C473 C62 1.594 . S
C487 C83 1.581 . S
C491 C101 1.591 . S
C505 C94 1.581 . S
C509 C114 1.590 . S
C523 C107 1.582 . S
C527 C121 1.594 . S
C541 C122 1.588 . S
C545 C134 1.589 . S
C559 C135 1.580 . S
C563 C147 1.592 . S
C577 C82 1.594 . S
C581 C148 1.581 . S
