# Generated by pormake.
# Topology wje, (4)-cn, num edge types: 1
# Building blocks:
#     Node 0, Type 0, BuildingBlock: UXUYUI_clean_sbu_0, # of connection points: 4
#     Node 1, Type 0, BuildingBlock: UXUYUI_clean_sbu_0, # of connection points: 4
#     Node 2, Type 0, BuildingBlock: UXUYUI_clean_sbu_0, # of connection points: 4
#     Node 3, Type 0, BuildingBlock: UXUYUI_clean_sbu_0, # of connection points: 4
#     Node 4, Type 0, BuildingBlock: UXUYUI_clean_sbu_0, # of connection points: 4
#     Node 5, Type 0, BuildingBlock: UXUYUI_clean_sbu_0, # of connection points: 4
#     Node 6, Type 0, BuildingBlock: UXUYUI_clean_sbu_0, # of connection points: 4
#     Node 7, Type 0, BuildingBlock: UXUYUI_clean_sbu_0, # of connection points: 4
#     Node 8, Type 0, BuildingBlock: UXUYUI_clean_sbu_0, # of connection points: 4
#     Node 9, Type 0, BuildingBlock: UXUYUI_clean_sbu_0, # of connection points: 4
#     Node 10, Type 0, BuildingBlock: UXUYUI_clean_sbu_0, # of connection points: 4
#     Node 11, Type 0, BuildingBlock: UXUYUI_clean_sbu_0, # of connection points: 4
#     Edge 12, Type (0, 0), BuildingBlock: AJUNOK_clean_linker_0, # of connection points: 2
#     Edge 13, Type (0, 0), BuildingBlock: AJUNOK_clean_linker_0, # of connection points: 2
#     Edge 14, Type (0, 0), BuildingBlock: AJUNOK_clean_linker_0, # of connection points: 2
#     Edge 15, Type (0, 0), BuildingBlock: AJUNOK_clean_linker_0, # of connection points: 2
#     Edge 16, Type (0, 0), BuildingBlock: AJUNOK_clean_linker_0, # of connection points: 2
#     Edge 17, Type (0, 0), BuildingBlock: AJUNOK_clean_linker_0, # of connection points: 2
#     Edge 18, Type (0, 0), BuildingBlock: AJUNOK_clean_linker_0, # of connection points: 2
#     Edge 19, Type (0, 0), BuildingBlock: AJUNOK_clean_linker_0, # of connection points: 2
#     Edge 20, Type (0, 0), BuildingBlock: AJUNOK_clean_linker_0, # of connection points: 2
#     Edge 21, Type (0, 0), BuildingBlock: AJUNOK_clean_linker_0, # of connection points: 2
#     Edge 22, Type (0, 0), BuildingBlock: AJUNOK_clean_linker_0, # of connection points: 2
#     Edge 23, Type (0, 0), BuildingBlock: AJUNOK_clean_linker_0, # of connection points: 2
#     Edge 24, Type (0, 0), BuildingBlock: AJUNOK_clean_linker_0, # of connection points: 2
#     Edge 25, Type (0, 0), BuildingBlock: AJUNOK_clean_linker_0, # of connection points: 2
#     Edge 26, Type (0, 0), BuildingBlock: AJUNOK_clean_linker_0, # of connection points: 2
#     Edge 27, Type (0, 0), BuildingBlock: AJUNOK_clean_linker_0, # of connection points: 2
#     Edge 28, Type (0, 0), BuildingBlock: AJUNOK_clean_linker_0, # of connection points: 2
#     Edge 29, Type (0, 0), BuildingBlock: AJUNOK_clean_linker_0, # of connection points: 2
#     Edge 30, Type (0, 0), BuildingBlock: AJUNOK_clean_linker_0, # of connection points: 2
#     Edge 31, Type (0, 0), BuildingBlock: AJUNOK_clean_linker_0, # of connection points: 2
#     Edge 32, Type (0, 0), BuildingBlock: AJUNOK_clean_linker_0, # of connection points: 2
#     Edge 33, Type (0, 0), BuildingBlock: AJUNOK_clean_linker_0, # of connection points: 2
#     Edge 34, Type (0, 0), BuildingBlock: AJUNOK_clean_linker_0, # of connection points: 2
#     Edge 35, Type (0, 0), BuildingBlock: AJUNOK_clean_linker_0, # of connection points: 2
# Relax obj value: 0.245
# Max RMSD: 0.179
# Mean RMSD: 0.178
data_MOF--net-wje--node1-UXUYUI_clean_sbu_0--edge1-AJUNOK_clean_linker_0
_symmetry_space_group_name_H-M    P1
_symmetry_Int_Tables_number       1
_symmetry_cell_setting            triclinic
loop_
_symmetry_equiv_pos_as_xyz
'x, y, z'
_cell_length_a     50.970616
_cell_length_b     50.988261
_cell_length_c     40.175546
_cell_angle_alpha  89.995906
_cell_angle_beta   90.013294
_cell_angle_gamma 120.02061
loop_
_atom_site_label
_atom_site_type_symbol
_atom_site_fract_x
_atom_site_fract_y
_atom_site_fract_z
_atom_type_partial_charge
Li0 Li 0.36163 0.01136 0.26777 0.0
Li1 Li 0.3425 0.02875 0.31584 0.0
Li2 Li 0.30673 0.99006 0.2788 0.0
Li3 Li 0.33459 0.04111 0.26069 0.0
C4 C 0.32468 0.9615 0.32208 0.0
N5 N 0.2953 0.90532 0.35241 0.0
C6 C 0.30739 0.957 0.35077 0.0
C7 C 0.32698 0.93738 0.3088 0.0
C8 C 0.29273 0.92845 0.36574 0.0
C9 C 0.31198 0.90917 0.32452 0.0
C10 C 0.39701 0.07312 0.30372 0.0
C11 C 0.41605 0.11253 0.34531 0.0
N12 N 0.44189 0.11103 0.34753 0.0
C13 C 0.42383 0.07209 0.30629 0.0
C14 C 0.39315 0.09364 0.32324 0.0
C15 C 0.44622 0.0914 0.32862 0.0
C16 C 0.4107 0.01862 0.22695 0.0
N17 N 0.39458 0.00569 0.25514 0.0
C18 C 0.42984 0.99014 0.27155 0.0
C19 C 0.40354 0.99151 0.27723 0.0
C20 C 0.44747 1.00408 0.24324 0.0
C21 C 0.43744 0.01811 0.22048 0.0
H22 H 0.40335 0.03024 0.21012 0.0
H23 H 0.39096 0.98237 0.30002 0.0
C24 C 0.32573 0.03616 0.37993 0.0
N25 N 0.34824 0.03586 0.36212 0.0
C26 C 0.32355 0.0307 0.41411 0.0
C27 C 0.369 0.02698 0.41124 0.0
C28 C 0.37012 0.03215 0.37703 0.0
C29 C 0.34475 0.02493 0.42978 0.0
H30 H 0.30798 0.03791 0.36722 0.0
H31 H 0.38696 0.03072 0.362 0.0
C32 C 0.31211 0.97934 0.21608 0.0
N33 N 0.27819 0.92824 0.17782 0.0
C34 C 0.28348 0.97247 0.20458 0.0
C35 C 0.32356 0.96032 0.20799 0.0
C36 C 0.26665 0.94649 0.18533 0.0
C37 C 0.30606 0.93458 0.18862 0.0
C38 C 0.29015 0.04016 0.29139 0.0
C39 C 0.26588 0.02839 0.26904 0.0
C40 C 0.29974 0.06831 0.30626 0.0
C41 C 0.25182 0.0452 0.2616 0.0
C42 C 0.28512 0.08444 0.29812 0.0
N43 N 0.26169 0.07267 0.27612 0.0
C44 C 0.24889 0.95492 0.30519 0.0
C45 C 0.26383 0.92535 0.27365 0.0
C46 C 0.22423 0.9289 0.31822 0.0
N47 N 0.26853 0.95283 0.28391 0.0
C48 C 0.2394 0.89865 0.28621 0.0
C49 C 0.21986 0.90032 0.30972 0.0
H50 H 0.25337 0.97682 0.31385 0.0
H51 H 0.28018 0.92404 0.25771 0.0
C52 C 0.35026 0.10147 0.2449 0.0
N53 N 0.33383 0.07231 0.23425 0.0
C54 C 0.34883 0.12465 0.22797 0.0
C55 C 0.31435 0.08766 0.18858 0.0
C56 C 0.31632 0.06511 0.20643 0.0
C57 C 0.3304 0.11783 0.19963 0.0
H58 H 0.36414 0.1067 0.26691 0.0
H59 H 0.30346 0.04178 0.19842 0.0
O60 O 0.33876 0.98916 0.30666 0.0
O61 O 0.37468 0.05418 0.2822 0.0
O62 O 0.32894 1.00465 0.23495 0.0
O63 O 0.30488 0.02451 0.29806 0.0
H64 H 0.30487 0.97517 0.3611 0.0
H65 H 0.33977 0.94027 0.28626 0.0
H66 H 0.27919 0.92465 0.38787 0.0
H67 H 0.31343 0.89027 0.31442 0.0
H68 H 0.41324 0.12834 0.36075 0.0
H69 H 0.42742 0.05661 0.29124 0.0
H70 H 0.37248 0.09461 0.32182 0.0
H71 H 0.46705 0.09077 0.33091 0.0
H72 H 0.43708 0.97949 0.28989 0.0
H73 H 0.45044 0.02902 0.19831 0.0
H74 H 0.30458 0.02927 0.42783 0.0
H75 H 0.38554 0.02236 0.4226 0.0
H76 H 0.27428 0.98693 0.21063 0.0
H77 H 0.34565 0.96527 0.2167 0.0
H78 H 0.2444 0.94082 0.17639 0.0
H79 H 0.31459 0.9196 0.18224 0.0
H80 H 0.25819 0.00664 0.25733 0.0
H81 H 0.31852 0.07778 0.32355 0.0
H82 H 0.23315 0.03646 0.24417 0.0
H83 H 0.29248 0.10638 0.30919 0.0
H84 H 0.20933 0.93119 0.33571 0.0
H85 H 0.23687 0.87702 0.2791 0.0
H86 H 0.36204 0.14771 0.23693 0.0
H87 H 0.29992 0.0815 0.16681 0.0
Li88 Li 0.36488 0.36074 0.59327 0.0
Li89 Li 0.33011 0.34356 0.6426 0.0
Li90 Li 0.33043 0.30659 0.60595 0.0
Li91 Li 0.30755 0.33541 0.58806 0.0
C92 C 0.37839 0.3229 0.64453 0.0
N93 N 0.40405 0.28988 0.66794 0.0
C94 C 0.37036 0.30917 0.67585 0.0
C95 C 0.39958 0.31998 0.62519 0.0
C96 C 0.38355 0.29252 0.68721 0.0
C97 C 0.41229 0.30319 0.63747 0.0
C98 C 0.33959 0.39746 0.63007 0.0
C99 C 0.31784 0.41726 0.669 0.0
N100 N 0.34576 0.44175 0.67421 0.0
C101 C 0.36805 0.42287 0.63569 0.0
C102 C 0.31424 0.39466 0.64673 0.0
C103 C 0.3707 0.445 0.65813 0.0
C104 C 0.40527 0.41202 0.55443 0.0
N105 N 0.40339 0.39309 0.57935 0.0
C106 C 0.45568 0.42549 0.59281 0.0
C107 C 0.42792 0.39922 0.5983 0.0
C108 C 0.45818 0.44589 0.56786 0.0
C109 C 0.43261 0.43879 0.54829 0.0
H110 H 0.3852 0.407 0.54033 0.0
H111 H 0.4256 0.38451 0.6188 0.0
C112 C 0.30613 0.32837 0.70671 0.0
N113 N 0.32955 0.35002 0.68875 0.0
C114 C 0.30868 0.32707 0.74115 0.0
C115 C 0.35878 0.37124 0.73805 0.0
C116 C 0.3554 0.37151 0.7036 0.0
C117 C 0.33554 0.34827 0.75701 0.0
H118 H 0.28638 0.31087 0.6941 0.0
H119 H 0.37419 0.3875 0.6885 0.0
C120 C 0.34287 0.3101 0.54133 0.0
N121 N 0.35496 0.27445 0.49952 0.0
C122 C 0.31924 0.28241 0.52989 0.0
C123 C 0.37261 0.31974 0.53143 0.0
C124 C 0.32583 0.26468 0.5088 0.0
C125 C 0.37826 0.30137 0.51029 0.0
C126 C 0.26467 0.28996 0.6217 0.0
C127 C 0.25177 0.26247 0.60446 0.0
C128 C 0.24604 0.30036 0.63452 0.0
C129 C 0.22038 0.24593 0.60011 0.0
C130 C 0.21475 0.28319 0.62957 0.0
N131 N 0.20268 0.25657 0.61261 0.0
C132 C 0.30981 0.25287 0.63914 0.0
C133 C 0.34272 0.25614 0.59571 0.0
C134 C 0.30782 0.22625 0.65086 0.0
N135 N 0.32695 0.26731 0.612 0.0
C136 C 0.34127 0.22931 0.60663 0.0
C137 C 0.3236 0.21404 0.6346 0.0
H138 H 0.29867 0.26278 0.65278 0.0
H139 H 0.35743 0.26858 0.57526 0.0
C140 C 0.27132 0.35983 0.56503 0.0
N141 N 0.27528 0.33541 0.56293 0.0
C142 C 0.24718 0.35992 0.54853 0.0
C143 C 0.23155 0.30973 0.52795 0.0
C144 C 0.25626 0.31082 0.5444 0.0
C145 C 0.22675 0.33457 0.52974 0.0
H146 H 0.28684 0.37926 0.57964 0.0
H147 H 0.25988 0.29173 0.54289 0.0
O148 O 0.36499 0.33846 0.6325 0.0
O149 O 0.33657 0.3753 0.6086 0.0
O150 O 0.33689 0.32797 0.56163 0.0
O151 O 0.2954 0.30669 0.62588 0.0
H152 H 0.35381 0.31095 0.69104 0.0
H153 H 0.40577 0.33016 0.60073 0.0
H154 H 0.37738 0.28158 0.71129 0.0
H155 H 0.42857 0.30056 0.62268 0.0
H156 H 0.29844 0.41531 0.68219 0.0
H157 H 0.38793 0.42542 0.62307 0.0
H158 H 0.29207 0.37513 0.64267 0.0
H159 H 0.39261 0.46474 0.66283 0.0
H160 H 0.4746 0.43054 0.60906 0.0
H161 H 0.4336 0.45413 0.52904 0.0
H162 H 0.29037 0.309 0.7551 0.0
H163 H 0.38 0.38761 0.74946 0.0
H164 H 0.29612 0.2746 0.53741 0.0
H165 H 0.39113 0.34118 0.53999 0.0
H166 H 0.3078 0.24314 0.49985 0.0
H167 H 0.40118 0.3085 0.50247 0.0
H168 H 0.26586 0.25418 0.59414 0.0
H169 H 0.25564 0.32152 0.64801 0.0
H170 H 0.2101 0.22471 0.58666 0.0
H171 H 0.20007 0.29105 0.6392 0.0
H172 H 0.29486 0.21591 0.67322 0.0
H173 H 0.35416 0.22083 0.59368 0.0
H174 H 0.24457 0.37968 0.55043 0.0
H175 H 0.21606 0.28937 0.51454 0.0
Li176 Li 1.00197 0.35844 0.92976 0.0
Li177 Li 0.99403 0.32857 0.97943 0.0
Li178 Li 0.02949 0.33179 0.94067 0.0
Li179 Li 0.97472 0.30093 0.92685 0.0
C180 C 0.03487 0.39107 0.98225 0.0
N181 N 0.04158 0.44222 0.01408 0.0
C182 C 0.00958 0.3917 0.99467 0.0
C183 C 0.06365 0.41655 0.98619 0.0
C184 C 0.0134 0.41772 0.01064 0.0
C185 C 0.06656 0.44216 0.00231 0.0
C186 C 0.93516 0.31667 0.96641 0.0
C187 C 0.88959 0.27455 0.98879 0.0
N188 N 0.88021 0.29398 0.99892 0.0
C189 C 0.92492 0.33618 0.97682 0.0
C190 C 0.91726 0.28559 0.97229 0.0
C191 C 0.89716 0.32429 0.99333 0.0
C192 C 0.97641 0.3942 0.91022 0.0
N193 N 1.00291 0.39409 0.9135 0.0
C194 C 0.03137 0.44781 0.90641 0.0
C195 C 0.03012 0.42 0.91057 0.0
C196 C 1.00437 0.44883 0.90508 0.0
C197 C 0.97662 0.42151 0.90579 0.0
H198 H 0.95511 0.37327 0.91279 0.0
H199 H 0.05085 0.41928 0.91345 0.0
C200 C 0.01941 0.34128 0.04105 0.0
N201 N 0.99133 0.32784 0.02711 0.0
C202 C 0.02295 0.34232 0.07536 0.0
C203 C 0.96845 0.31551 0.08109 0.0
C204 C 0.96593 0.31502 0.04632 0.0
C205 C 0.99734 0.32926 0.09588 0.0
H206 H 0.03929 0.35073 0.02538 0.0
H207 H 0.94382 0.30408 0.03489 0.0
C208 C 0.02994 0.33194 0.87774 0.0
N209 N 0.07472 0.33151 0.8395 0.0
C210 C 0.0261 0.30461 0.86544 0.0
C211 C 0.05648 0.35906 0.8706 0.0
C212 C 0.04903 0.30487 0.84613 0.0
C213 C 0.07887 0.35836 0.85122 0.0
C214 C 0.99615 0.27741 0.98846 0.0
C215 C 0.02166 0.28581 0.00837 0.0
C216 C 0.96874 0.25156 0.99658 0.0
C217 C 0.01912 0.26861 0.03652 0.0
C218 C 0.96712 0.23493 0.0249 0.0
N219 N 0.99212 0.24375 0.04416 0.0
C220 C 0.09178 0.35885 0.9521 0.0
C221 C 0.06846 0.30667 0.93866 0.0
C222 C 0.11754 0.35879 0.96378 0.0
N223 N 0.06753 0.33282 0.94103 0.0
C224 C 0.094 0.30567 0.94979 0.0
C225 C 0.11834 0.3317 0.96387 0.0
H226 H 0.09032 0.37917 0.95397 0.0
H227 H 0.04854 0.28609 0.93063 0.0
C228 C 0.92151 0.2698 0.8884 0.0
N229 N 0.94345 0.26654 0.90384 0.0
C230 C 0.89786 0.24538 0.87164 0.0
C231 C 0.91989 0.21467 0.88671 0.0
C232 C 0.9431 0.2397 0.90331 0.0
C233 C 0.89689 0.21737 0.8705 0.0
H234 H 0.92235 0.29142 0.88926 0.0
H235 H 0.96078 0.2377 0.9159 0.0
O236 O 0.03155 0.36616 0.96535 0.0
O237 O 0.96216 0.32788 0.94984 0.0
O238 O 0.00824 0.33205 0.89757 0.0
O239 O 0.99806 0.29428 0.96107 0.0
H240 H 0.98723 0.37236 0.99206 0.0
H241 H 0.08356 0.41681 0.97658 0.0
H242 H 0.99394 0.41843 0.02026 0.0
H243 H 0.08868 0.46205 0.00534 0.0
H244 H 0.8756 0.25055 0.99357 0.0
H245 H 0.9382 0.36028 0.97219 0.0
H246 H 0.92465 0.27013 0.96435 0.0
H247 H 0.88904 0.33915 0.00161 0.0
H248 H 0.0532 0.46842 0.90559 0.0
H249 H 0.95535 0.42144 0.90491 0.0
H250 H 0.0456 0.35321 0.08575 0.0
H251 H 0.94813 0.30474 0.09617 0.0
H252 H 1.00576 0.28342 0.871 0.0
H253 H 0.05984 0.38035 0.88022 0.0
H254 H 0.04644 0.28389 0.83651 0.0
H255 H 0.0996 0.37915 0.84559 0.0
H256 H 0.04308 0.30572 0.00256 0.0
H257 H 0.94892 0.2443 0.98114 0.0
H258 H 0.03859 0.27509 0.05234 0.0
H259 H 0.946 0.21496 0.03155 0.0
H260 H 0.13613 0.37941 0.97397 0.0
H261 H 0.0939 0.28438 0.94945 0.0
H262 H 0.88065 0.24845 0.85939 0.0
H263 H 0.91971 0.19335 0.88693 0.0
Li264 Li 0.64816 0.99927 0.26854 0.0
Li265 Li 0.66634 0.9816 0.31709 0.0
Li266 Li 0.70265 0.01944 0.28017 0.0
Li267 Li 0.67389 0.96808 0.26211 0.0
C268 C 0.68617 0.05025 0.32036 0.0
N269 N 0.71834 0.1085 0.34527 0.0
C270 C 0.70089 0.05567 0.35109 0.0
C271 C 0.68774 0.07446 0.30236 0.0
C272 C 0.71706 0.08528 0.36323 0.0
C273 C 0.70411 0.10374 0.31538 0.0
C274 C 0.61204 0.93758 0.30528 0.0
C275 C 0.59295 0.89744 0.34599 0.0
N276 N 0.56791 0.90015 0.35 0.0
C277 C 0.58608 0.93991 0.30972 0.0
C278 C 0.61547 0.91611 0.32345 0.0
C279 C 0.56404 0.92079 0.33247 0.0
C280 C 0.59729 0.98919 0.22948 0.0
N281 N 0.61566 0.00542 0.25517 0.0
C282 C 0.58325 0.02527 0.2686 0.0
C283 C 0.60919 0.0233 0.27457 0.0
C284 C 0.56348 0.00827 0.24277 0.0
C285 C 0.57081 0.99017 0.2229 0.0
H286 H 0.60261 0.97459 0.21495 0.0
H287 H 0.62346 0.03504 0.29561 0.0
C288 C 0.68299 0.97365 0.38095 0.0
N289 N 0.66071 0.97463 0.3634 0.0
C290 C 0.68528 0.97863 0.41525 0.0
C291 C 0.64048 0.98347 0.41295 0.0
C292 C 0.63922 0.97871 0.37865 0.0
C293 C 0.66455 0.98485 0.4314 0.0
H294 H 0.70041 0.9715 0.36799 0.0
H295 H 0.62245 0.98051 0.36388 0.0
C296 C 0.69759 0.0295 0.21634 0.0
N297 N 0.73122 0.07883 0.17557 0.0
C298 C 0.72569 0.03528 0.20421 0.0
C299 C 0.68653 0.04873 0.20764 0.0
C300 C 0.74237 0.06036 0.18366 0.0
C301 C 0.70389 0.07357 0.18702 0.0
C302 C 0.71927 0.97004 0.29289 0.0
C303 C 0.74508 0.98392 0.27277 0.0
C304 C 0.70956 0.94116 0.30579 0.0
C305 C 0.76063 0.96851 0.26563 0.0
C306 C 0.7257 0.92646 0.29801 0.0
N307 N 0.75067 0.94032 0.27825 0.0
C308 C 0.75787 0.0529 0.3111 0.0
C309 C 0.75085 0.08296 0.27111 0.0
C310 C 0.78396 0.07808 0.32305 0.0
N311 N 0.74168 0.05564 0.28577 0.0
C312 C 0.77704 0.10889 0.2823 0.0
C313 C 0.7936 0.10667 0.30909 0.0
H314 H 0.74968 0.03134 0.32336 0.0
H315 H 0.73716 0.08507 0.25197 0.0
C316 C 0.65307 0.90706 0.2425 0.0
N317 N 0.67399 0.93641 0.23591 0.0
C318 C 0.6532 0.88353 0.22474 0.0
C319 C 0.6963 0.92076 0.19353 0.0
C320 C 0.69528 0.94358 0.21183 0.0
C321 C 0.67497 0.89022 0.19979 0.0
H322 H 0.63629 0.90187 0.26162 0.0
H323 H 0.71178 0.96702 0.20713 0.0
O324 O 0.67092 0.02151 0.30761 0.0
O325 O 0.63407 0.95635 0.28343 0.0
O326 O 0.68075 0.0049 0.23618 0.0
O327 O 0.70329 0.98443 0.29945 0.0
H328 H 0.70021 0.0373 0.36523 0.0
H329 H 0.67686 0.07074 0.27832 0.0
H330 H 0.7287 0.08981 0.38687 0.0
H331 H 0.70569 0.12271 0.30161 0.0
H332 H 0.5954 0.88085 0.36035 0.0
H333 H 0.58298 0.95635 0.29591 0.0
H334 H 0.63551 0.91415 0.3205 0.0
H335 H 0.54388 0.9224 0.33623 0.0
H336 H 0.57797 0.03886 0.285 0.0
H337 H 0.55592 0.97652 0.20297 0.0
H338 H 0.70426 0.97966 0.42856 0.0
H339 H 0.62369 0.98754 0.42461 0.0
H340 H 0.73467 0.02074 0.21081 0.0
H341 H 0.66481 0.04457 0.21674 0.0
H342 H 0.76421 0.06519 0.17421 0.0
H343 H 0.69565 0.08868 0.18014 0.0
H344 H 0.75283 0.00622 0.26249 0.0
H345 H 0.68964 0.93012 0.32141 0.0
H346 H 0.78054 0.9789 0.24995 0.0
H347 H 0.71833 0.90402 0.30764 0.0
H348 H 0.79578 0.07538 0.344 0.0
H349 H 0.78389 0.13048 0.27056 0.0
H350 H 0.63627 0.86032 0.23028 0.0
H351 H 0.71389 0.92695 0.17504 0.0
Li352 Li 0.69605 0.66844 0.64763 0.0
Li353 Li 0.66045 0.64975 0.59872 0.0
Li354 Li 0.71755 0.67701 0.59272 0.0
Li355 Li 0.6935 0.70431 0.61088 0.0
C356 C 0.68727 0.61463 0.63512 0.0
N357 N 0.68132 0.57028 0.67906 0.0
C358 C 0.65929 0.58816 0.63901 0.0
C359 C 0.71228 0.61842 0.65338 0.0
C360 C 0.65673 0.56603 0.66139 0.0
C361 C 0.7088 0.59578 0.67554 0.0
C362 C 0.6456 0.68611 0.65066 0.0
C363 C 0.60767 0.701 0.64619 0.0
N364 N 0.61762 0.71652 0.67531 0.0
C365 C 0.65535 0.70207 0.68064 0.0
C366 C 0.62153 0.68548 0.6333 0.0
C367 C 0.64096 0.71736 0.69264 0.0
C368 C 0.71996 0.68542 0.71168 0.0
N369 N 0.69736 0.66261 0.69395 0.0
C370 C 0.66869 0.64074 0.74343 0.0
C371 C 0.67226 0.64018 0.70904 0.0
C372 C 0.69087 0.66498 0.76209 0.0
C373 C 0.71713 0.68707 0.74605 0.0
H374 H 0.73906 0.70358 0.69887 0.0
H375 H 0.65402 0.62316 0.69412 0.0
C376 C 0.62042 0.60051 0.55718 0.0
N377 N 0.62232 0.61668 0.58491 0.0
C378 C 0.5936 0.57356 0.54994 0.0
C379 C 0.57103 0.58103 0.5993 0.0
C380 C 0.59827 0.60763 0.60571 0.0
C381 C 0.56866 0.56328 0.57151 0.0
H382 H 0.64006 0.60798 0.54136 0.0
H383 H 0.60064 0.62037 0.62812 0.0
C384 C 0.76015 0.72224 0.62473 0.0
N385 N 0.82166 0.75419 0.61207 0.0
C386 C 0.77247 0.74834 0.60505 0.0
C387 C 0.77913 0.71254 0.63821 0.0
C388 C 0.80362 0.76416 0.59892 0.0
C389 C 0.81016 0.72894 0.63142 0.0
C390 C 0.67895 0.6997 0.54721 0.0
C391 C 0.70097 0.7283 0.53595 0.0
C392 C 0.64867 0.68817 0.53812 0.0
C393 C 0.69227 0.74501 0.51586 0.0
C394 C 0.64088 0.70557 0.51796 0.0
N395 N 0.66266 0.73339 0.50736 0.0
C396 C 0.75834 0.65719 0.57252 0.0
C397 C 0.76495 0.7007 0.54396 0.0
C398 C 0.78272 0.65827 0.55532 0.0
N399 N 0.75005 0.67833 0.56677 0.0
C400 C 0.78962 0.70278 0.52637 0.0
C401 C 0.79879 0.68132 0.53188 0.0
H402 H 0.74612 0.63953 0.59061 0.0
H403 H 0.75805 0.71732 0.53985 0.0
C404 C 0.71487 0.76025 0.64053 0.0
N405 N 0.69503 0.74275 0.61644 0.0
C406 C 0.71518 0.78614 0.65213 0.0
C407 C 0.67473 0.77616 0.61383 0.0
C408 C 0.67523 0.75032 0.60283 0.0
C409 C 0.6946 0.79413 0.63923 0.0
H410 H 0.72954 0.75331 0.6521 0.0
H411 H 0.65881 0.73562 0.5847 0.0
O412 O 0.69016 0.63677 0.61366 0.0
O413 O 0.66003 0.67179 0.63797 0.0
O414 O 0.7296 0.70603 0.63037 0.0
O415 O 0.68702 0.68288 0.56668 0.0
H416 H 0.6397 0.58473 0.62502 0.0
H417 H 0.73407 0.63877 0.65074 0.0
H418 H 0.63519 0.54548 0.66473 0.0
H419 H 0.72792 0.59851 0.68998 0.0
H420 H 0.58915 0.70089 0.63292 0.0
H421 H 0.67412 0.70303 0.69425 0.0
H422 H 0.61395 0.67357 0.60985 0.0
H423 H 0.64842 0.73 0.71566 0.0
H424 H 0.64788 0.62365 0.75495 0.0
H425 H 0.73457 0.70616 0.75973 0.0
H426 H 0.59255 0.5606 0.52813 0.0
H427 H 0.55244 0.57369 0.61672 0.0
H428 H 0.75808 0.75609 0.5943 0.0
H429 H 0.76997 0.69244 0.65355 0.0
H430 H 0.81344 0.78429 0.58356 0.0
H431 H 0.82509 0.72158 0.64151 0.0
H432 H 0.72448 0.73761 0.54286 0.0
H433 H 0.63134 0.66608 0.5466 0.0
H434 H 0.70904 0.76724 0.50709 0.0
H435 H 0.61752 0.69697 0.51079 0.0
H436 H 0.78884 0.64112 0.56021 0.0
H437 H 0.80171 0.72134 0.50912 0.0
H438 H 0.7306 0.79913 0.67201 0.0
H439 H 0.65864 0.7817 0.60302 0.0
Li440 Li 0.00877 0.65501 0.93238 0.0
Li441 Li 0.02572 0.69182 0.98013 0.0
Li442 Li 0.98841 0.68946 0.94177 0.0
Li443 Li 0.04002 0.71185 0.92502 0.0
C444 C 0.95715 0.64186 0.98218 0.0
N445 N 0.89812 0.61357 0.00493 0.0
C446 C 0.95004 0.65173 0.01149 0.0
C447 C 0.93433 0.61746 0.96458 0.0
C448 C 0.92002 0.63717 0.02252 0.0
C449 C 0.9046 0.60347 0.97648 0.0
C450 C 0.07006 0.68136 0.97038 0.0
C451 C 0.1086 0.70277 0.01289 0.0
N452 N 0.10713 0.67554 0.01643 0.0
C453 C 0.06911 0.65365 0.97425 0.0
C454 C 0.09014 0.7062 0.98966 0.0
C455 C 0.08797 0.65114 0.99772 0.0
C456 C 0.01164 0.61004 0.89185 0.0
N457 N 1.00242 0.61589 0.92131 0.0
C458 C 0.99064 0.56743 0.94257 0.0
C459 C 0.99154 0.59507 0.94624 0.0
C460 C 1.00106 0.56116 0.91298 0.0
C461 C 0.01089 0.58245 0.88701 0.0
H462 H 0.02061 0.6272 0.87264 0.0
H463 H 0.98488 0.60053 0.96961 0.0
C464 C 0.03445 0.71765 0.04383 0.0
N465 N 0.0319 0.69358 0.02654 0.0
C466 C 0.03094 0.71595 0.07836 0.0
C467 C 0.02349 0.66524 0.07656 0.0
C468 C 0.02702 0.66786 0.04209 0.0
C469 C 0.0244 0.68911 0.09493 0.0
H470 H 0.03729 0.73738 0.03063 0.0
H471 H 0.02418 0.64877 0.02751 0.0
C472 C 0.97945 0.67378 0.87825 0.0
N473 N 0.9308 0.65843 0.83649 0.0
C474 C 0.97435 0.69629 0.86531 0.0
C475 C 0.95989 0.64347 0.86986 0.0
C476 C 0.94959 0.68806 0.84429 0.0
C477 C 0.93541 0.63617 0.84871 0.0
C478 C 0.0375 0.75577 0.95365 0.0
C479 C 0.02391 0.76716 0.93235 0.0
C480 C 0.06626 0.77527 0.9667 0.0
C481 C 0.03949 0.79792 0.92416 0.0
C482 C 0.08115 0.80586 0.95782 0.0
N483 N 0.06757 0.81645 0.9369 0.0
C484 C 0.95393 0.71115 0.97035 0.0
C485 C 0.92462 0.67235 0.93165 0.0
C486 C 0.92826 0.71141 0.98174 0.0
N487 N 0.95179 0.69164 0.946 0.0
C488 C 0.89823 0.67203 0.94218 0.0
C489 C 0.8998 0.69129 0.96813 0.0
H490 H 0.9754 0.72545 0.98242 0.0
H491 H 0.92302 0.65613 0.91334 0.0
C492 C 0.10146 0.75181 0.90845 0.0
N493 N 0.07256 0.74335 0.8995 0.0
C494 C 0.12599 0.77584 0.89232 0.0
C495 C 0.09073 0.78174 0.85738 0.0
C496 C 0.06682 0.75753 0.87421 0.0
C497 C 0.12079 0.79144 0.86671 0.0
H498 H 0.10551 0.74006 0.92836 0.0
H499 H 0.04369 0.75043 0.8675 0.0
O500 O 0.98622 0.6564 0.9704 0.0
O501 O 0.05148 0.68417 0.94782 0.0
O502 O 1.00371 0.68137 0.89861 0.0
O503 O 0.02299 0.72555 0.96116 0.0
H504 H 0.96742 0.6707 0.0253 0.0
H505 H 0.93947 0.60967 0.94175 0.0
H506 H 0.91413 0.64472 0.045 0.0
H507 H 0.88665 0.5847 0.963 0.0
H508 H 0.12405 0.72175 0.02817 0.0
H509 H 0.05408 0.63429 0.95927 0.0
H510 H 0.09113 0.72778 0.98708 0.0
H511 H 0.08738 0.6298 0.00104 0.0
H512 H 0.98263 0.55143 0.96301 0.0
H513 H 0.01914 0.57834 0.86387 0.0
H514 H 0.03171 0.73478 0.09172 0.0
H515 H 0.01908 0.6444 0.08857 0.0
H516 H 0.98923 0.71984 0.87159 0.0
H517 H 0.96348 0.62576 0.87965 0.0
H518 H 0.94529 0.70523 0.8342 0.0
H519 H 0.92004 0.61281 0.84206 0.0
H520 H 1.00168 0.75237 0.922 0.0
H521 H 0.0771 0.76681 0.98322 0.0
H522 H 0.02932 0.80702 0.90755 0.0
H523 H 0.10352 0.82117 0.9675 0.0
H524 H 0.93053 0.72636 0.00207 0.0
H525 H 0.87681 0.65643 0.93061 0.0
H526 H 0.1488 0.78206 0.89974 0.0
H527 H 0.08576 0.79314 0.83772 0.0
Li528 Li 0.03509 0.701 0.39417 0.0
Li529 Li 0.97937 0.679 0.40703 0.0
Li530 Li 1.00387 0.6468 0.40255 0.0
Li531 Li 0.99786 0.67022 0.35396 0.0
C532 C 0.03186 0.70046 0.45786 0.0
N533 N 0.07243 0.74461 0.50054 0.0
C534 C 0.02429 0.72033 0.47333 0.0
C535 C 0.05998 0.70294 0.46414 0.0
C536 C 0.04514 0.74251 0.49484 0.0
C537 C 0.08021 0.72546 0.48577 0.0
C538 C 1.00181 0.72329 0.34617 0.0
C539 C 0.97093 0.73262 0.30791 0.0
N540 N 0.99588 0.75006 0.28906 0.0
C541 C 0.02718 0.74142 0.32652 0.0
C542 C 0.97345 0.71887 0.33687 0.0
C543 C 0.02369 0.75471 0.29769 0.0
C544 C 0.09518 0.73585 0.37366 0.0
N545 N 0.07405 0.73708 0.39322 0.0
C546 C 0.10331 0.79126 0.39426 0.0
C547 C 0.07783 0.76404 0.40408 0.0
C548 C 0.12472 0.79058 0.37274 0.0
C549 C 0.12082 0.76239 0.36323 0.0
H550 H 0.09113 0.71442 0.36399 0.0
H551 H 0.06008 0.76453 0.41832 0.0
C552 C 0.93105 0.66045 0.45168 0.0
N553 N 0.94901 0.68328 0.43054 0.0
C554 C 0.90732 0.66093 0.46858 0.0
C555 C 0.92115 0.70862 0.44197 0.0
C556 C 0.94481 0.70734 0.42574 0.0
C557 C 0.90187 0.68504 0.46349 0.0
H558 H 0.93491 0.64159 0.45499 0.0
H559 H 0.95964 0.7254 0.40912 0.0
C560 C 0.0444 0.64894 0.36212 0.0
N561 N 0.06462 0.60827 0.35277 0.0
C562 C 0.02947 0.62483 0.33986 0.0
C563 C 0.06973 0.65244 0.37951 0.0
C564 C 0.04 0.6045 0.33551 0.0
C565 C 0.07958 0.63164 0.37444 0.0
C566 C 0.94097 0.6264 0.36069 0.0
C567 C 0.93941 0.60505 0.3377 0.0
C568 C 0.91798 0.63379 0.36125 0.0
C569 C 0.91494 0.59151 0.3157 0.0
C570 C 0.89388 0.61973 0.33885 0.0
N571 N 0.89287 0.59906 0.31672 0.0
C572 C 0.02409 0.61027 0.43742 0.0
C573 C 0.97952 0.58411 0.40489 0.0
C574 C 0.02498 0.58347 0.44209 0.0
N575 N 1.00213 0.61024 0.41805 0.0
C576 C 0.97965 0.55702 0.40872 0.0
C577 C 1.0031 0.55672 0.42659 0.0
H578 H 0.04187 0.63134 0.44759 0.0
H579 H 0.96209 0.58451 0.39012 0.0
C580 C 0.02265 0.67789 0.29163 0.0
N581 N 0.99548 0.6696 0.30612 0.0
C582 C 0.02604 0.68076 0.2573 0.0
C583 C 0.97358 0.6675 0.25276 0.0
C584 C 0.97115 0.66476 0.28746 0.0
C585 C 1.00137 0.67557 0.23737 0.0
H586 H 0.04212 0.68302 0.30679 0.0
H587 H 0.95016 0.65969 0.29941 0.0
O588 O 0.01204 0.67901 0.43622 0.0
O589 O 1.00461 0.70937 0.37393 0.0
O590 O 0.03391 0.66864 0.36737 0.0
O591 O 0.96458 0.63967 0.38277 0.0
H592 H 1.00265 0.71876 0.46862 0.0
H593 H 0.06624 0.68787 0.45213 0.0
H594 H 0.03964 0.75811 0.50694 0.0
H595 H 0.10213 0.72777 0.49074 0.0
H596 H 0.94909 0.72925 0.3003 0.0
H597 H 0.04925 0.74488 0.33318 0.0
H598 H 0.95352 0.70457 0.35155 0.0
H599 H 0.04309 0.76862 0.28212 0.0
H600 H 0.10521 0.81258 0.40162 0.0
H601 H 0.13675 0.7609 0.34659 0.0
H602 H 0.89295 0.64229 0.4849 0.0
H603 H 0.91802 0.72787 0.43784 0.0
H604 H 0.00986 0.62176 0.32619 0.0
H605 H 0.08134 0.67072 0.39718 0.0
H606 H 0.02857 0.58567 0.31847 0.0
H607 H 0.099 0.63395 0.38791 0.0
H608 H 0.95701 0.59916 0.33656 0.0
H609 H 0.91869 0.65024 0.37869 0.0
H610 H 0.91355 0.57506 0.29773 0.0
H611 H 0.876 0.6253 0.33902 0.0
H612 H 0.04342 0.58398 0.45603 0.0
H613 H 0.96221 0.53668 0.39674 0.0
H614 H 0.04789 0.68714 0.24643 0.0
H615 H 0.95422 0.66413 0.23825 0.0
Li616 Li 0.32546 0.02007 0.71837 0.0
Li617 Li 0.30292 0.96877 0.73634 0.0
Li618 Li 0.35982 0.99985 0.72939 0.0
Li619 Li 0.32346 0.98207 0.68125 0.0
C620 C 0.34124 0.03027 0.78192 0.0
N621 N 0.35751 0.07986 0.82244 0.0
C622 C 0.3191 0.03624 0.79421 0.0
C623 C 0.37163 0.04944 0.79032 0.0
C624 C 0.3278 0.06146 0.81463 0.0
C625 C 0.3794 0.07441 0.81083 0.0
C626 C 0.25923 0.9705 0.70614 0.0
C627 C 0.20931 0.9267 0.70136 0.0
N628 N 0.19826 0.94027 0.72165 0.0
C629 C 0.24738 0.98409 0.7268 0.0
C630 C 0.24006 0.94166 0.69314 0.0
C631 C 0.21648 0.96842 0.73437 0.0
C632 C 0.30314 0.05365 0.68874 0.0
N633 N 0.32278 0.0564 0.71326 0.0
C634 C 0.34122 0.10976 0.71666 0.0
C635 C 0.34165 0.08381 0.72739 0.0
C636 C 0.32129 0.10743 0.69112 0.0
C637 C 0.30203 0.07885 0.67729 0.0
H638 H 0.28935 0.03207 0.67669 0.0
H639 H 0.35812 0.08595 0.74567 0.0
C640 C 0.26144 0.90776 0.75467 0.0
N641 N 0.27111 0.93716 0.76253 0.0
C642 C 0.23723 0.88428 0.77186 0.0
C643 C 0.2335 0.92164 0.80529 0.0
C644 C 0.25782 0.94441 0.78747 0.0
C645 C 0.22291 0.89106 0.79758 0.0
H646 H 0.27234 0.90251 0.73483 0.0
H647 H 0.26572 0.9679 0.79312 0.0
C648 C 0.37214 0.05058 0.6774 0.0
N649 N 0.39773 0.10861 0.65203 0.0
C650 C 0.36183 0.0558 0.64724 0.0
C651 C 0.39554 0.07485 0.69459 0.0
C652 C 0.37502 0.08532 0.63487 0.0
C653 C 0.4082 0.10403 0.68133 0.0
C654 C 0.33401 0.93822 0.69269 0.0
C655 C 0.36229 0.94052 0.68825 0.0
C656 C 0.30913 0.9169 0.67433 0.0
C657 C 0.36524 0.92156 0.66531 0.0
C658 C 0.31302 0.89839 0.6516 0.0
N659 N 0.34076 0.90108 0.64759 0.0
C660 C 0.40195 0.99107 0.76801 0.0
C661 C 0.4222 0.02295 0.72088 0.0
C662 C 0.42952 0.99188 0.77333 0.0
N663 N 0.39875 0.00617 0.74184 0.0
C664 C 0.45013 0.02464 0.72547 0.0
C665 C 0.45394 0.00847 0.75152 0.0
H666 H 0.38268 0.97725 0.78379 0.0
H667 H 0.41885 0.03393 0.69965 0.0
C668 C 0.29781 0.97242 0.61755 0.0
N669 N 0.32172 0.97473 0.63499 0.0
C670 C 0.29977 0.97623 0.58307 0.0
C671 C 0.35026 0.9831 0.58511 0.0
C672 C 0.34742 0.97936 0.61957 0.0
C673 C 0.3266 0.98252 0.56658 0.0
H674 H 0.27821 0.97003 0.63064 0.0
H675 H 0.36649 0.98231 0.63425 0.0
O676 O 0.33319 0.00554 0.76219 0.0
O677 O 0.28957 0.98512 0.69924 0.0
O678 O 0.35889 0.02197 0.69043 0.0
O679 O 0.33074 0.95687 0.71471 0.0
H680 H 0.29551 0.02175 0.78784 0.0
H681 H 0.38905 0.04513 0.78108 0.0
H682 H 0.31093 0.06644 0.8242 0.0
H683 H 0.40284 0.08947 0.81748 0.0
H684 H 0.19424 0.90427 0.69168 0.0
H685 H 0.26193 0.00636 0.73717 0.0
H686 H 0.24889 0.93081 0.67716 0.0
H687 H 0.20702 0.97858 0.75048 0.0
H688 H 0.35672 0.1315 0.72771 0.0
H689 H 0.28708 0.07614 0.65678 0.0
H690 H 0.22986 0.86102 0.76522 0.0
H691 H 0.22274 0.92792 0.82446 0.0
H692 H 0.34353 0.03736 0.63377 0.0
H693 H 0.40349 0.07128 0.71821 0.0
H694 H 0.36712 0.08972 0.61169 0.0
H695 H 0.42618 0.12305 0.69447 0.0
H696 H 0.3818 0.95679 0.70224 0.0
H697 H 0.28715 0.91499 0.6772 0.0
H698 H 0.38701 0.92315 0.66156 0.0
H699 H 0.294 0.88194 0.63707 0.0
H700 H 0.43117 0.97846 0.79324 0.0
H701 H 0.46832 0.03772 0.70809 0.0
H702 H 0.28134 0.97642 0.56988 0.0
H703 H 0.37132 0.98796 0.5733 0.0
Li704 Li 0.30952 0.32845 0.05227 0.0
Li705 Li 0.33078 0.29728 0.06904 0.0
Li706 Li 0.36284 0.35276 0.06268 0.0
Li707 Li 0.34153 0.32192 0.01245 0.0
C708 C 0.30933 0.33061 0.1169 0.0
N709 N 0.26736 0.3319 0.15931 0.0
C710 C 0.29039 0.30519 0.13606 0.0
C711 C 0.30715 0.35678 0.11951 0.0
C712 C 0.26927 0.30628 0.15732 0.0
C713 C 0.28571 0.35695 0.14102 0.0
C714 C 0.27196 0.27205 0.03114 0.0
C715 C 0.22411 0.25345 0.00289 0.0
N716 N 0.20943 0.23776 0.0307 0.0
C717 C 0.2564 0.25565 0.0594 0.0
C718 C 0.25572 0.27081 0.00257 0.0
C719 C 0.22479 0.23844 0.05868 0.0
C720 C 0.27508 0.34849 0.02009 0.0
N721 N 0.27384 0.33249 0.04774 0.0
C722 C 0.22122 0.31658 0.05475 0.0
C723 C 0.24766 0.31701 0.06546 0.0
C724 C 0.22184 0.3319 0.0254 0.0
C725 C 0.24934 0.34845 0.00845 0.0
H726 H 0.29573 0.36019 0.00588 0.0
H727 H 0.24676 0.30368 0.08678 0.0
C728 C 0.34222 0.26886 0.12268 0.0
N729 N 0.32726 0.26323 0.09319 0.0
C730 C 0.34189 0.24525 0.14073 0.0
C731 C 0.31079 0.21039 0.09774 0.0
C732 C 0.31178 0.23471 0.08045 0.0
C733 C 0.32591 0.21547 0.12839 0.0
H734 H 0.35478 0.29184 0.13194 0.0
H735 H 0.30044 0.23088 0.0567 0.0
C736 C 0.36067 0.38882 0.01773 0.0
N737 N 0.39973 0.44934 0.0043 0.0
C738 C 0.38443 0.39733 0.99514 0.0
C739 C 0.35662 0.41105 0.0333 0.0
C740 C 0.40396 0.42805 0.98871 0.0
C741 C 0.37667 0.44154 0.02625 0.0
C742 C 0.3806 0.30156 0.03459 0.0
C743 C 0.40974 0.30756 0.04277 0.0
C744 C 0.36118 0.27529 0.01687 0.0
C745 C 0.41902 0.28717 0.03297 0.0
C746 C 0.3713 0.25545 0.00755 0.0
N747 N 0.39977 0.26175 0.01572 0.0
C748 C 0.39891 0.40821 0.09931 0.0
C749 C 0.42445 0.39456 0.05971 0.0
C750 C 0.42542 0.43586 0.10522 0.0
N751 N 0.39888 0.38847 0.07653 0.0
C752 C 0.4513 0.42186 0.06472 0.0
C753 C 0.45194 0.44319 0.08731 0.0
H754 H 0.37821 0.40289 0.11219 0.0
H755 H 0.42365 0.37865 0.04138 0.0
C756 C 0.3252 0.32885 0.95177 0.0
N757 N 0.34488 0.32139 0.96563 0.0
C758 C 0.32536 0.33346 0.91771 0.0
C759 C 0.36576 0.32189 0.9122 0.0
C760 C 0.36504 0.31779 0.94678 0.0
C761 C 0.34606 0.3304 0.89761 0.0
H762 H 0.30987 0.3321 0.96749 0.0
H763 H 0.38102 0.31264 0.9585 0.0
O764 O 0.33019 0.33 0.09605 0.0
O765 O 0.30287 0.28954 0.03165 0.0
O766 O 0.34188 0.35892 0.02522 0.0
O767 O 0.37108 0.32108 0.04461 0.0
H768 H 0.292 0.28485 0.13455 0.0
H769 H 0.32168 0.37664 0.10485 0.0
H770 H 0.25438 0.28674 0.17223 0.0
H771 H 0.28362 0.37698 0.14313 0.0
H772 H 0.21125 0.25247 0.98103 0.0
H773 H 0.26855 0.25648 0.08179 0.0
H774 H 0.26732 0.28323 0.98043 0.0
H775 H 0.21247 0.22578 0.08045 0.0
H776 H 0.20027 0.30328 0.06831 0.0
H777 H 0.25076 0.36069 0.98584 0.0
H778 H 0.35455 0.25038 0.16377 0.0
H779 H 0.29827 0.18782 0.08729 0.0
H780 H 0.38806 0.38043 0.98309 0.0
H781 H 0.33833 0.4048 0.05086 0.0
H782 H 0.42257 0.43499 0.97146 0.0
H783 H 0.37394 0.459 0.03828 0.0
H784 H 0.42498 0.32772 0.05665 0.0
H785 H 0.33854 0.27021 0.01032 0.0
H786 H 0.44152 0.29153 0.03913 0.0
H787 H 0.35651 0.23504 0.99383 0.0
H788 H 0.42507 0.45144 0.12328 0.0
H789 H 0.47109 0.42668 0.05014 0.0
H790 H 0.30965 0.33968 0.90719 0.0
H791 H 0.38203 0.31939 0.8972 0.0
Li792 Li 0.04007 0.32911 0.41007 0.0
Li793 Li 0.98804 0.30145 0.39238 0.0
Li794 Li 0.02363 0.33464 0.35346 0.0
Li795 Li 0.00852 0.35525 0.40276 0.0
C796 C 0.04457 0.29347 0.36206 0.0
N797 N 0.08967 0.28314 0.33896 0.0
C798 C 0.04006 0.26409 0.36157 0.0
C799 C 0.07193 0.31756 0.35061 0.0
C800 C 0.06316 0.25934 0.34986 0.0
C801 C 0.09447 0.3119 0.33907 0.0
C802 C 0.98235 0.30462 0.45754 0.0
C803 C 0.93949 0.29174 0.49308 0.0
N804 N 0.93866 0.26549 0.50153 0.0
C805 C 0.98126 0.27766 0.46671 0.0
C806 C 0.96144 0.31185 0.47086 0.0
C807 C 0.9589 0.2581 0.48892 0.0
C808 C 0.09506 0.35646 0.44721 0.0
N809 N 0.07243 0.32972 0.43513 0.0
C810 C 0.09761 0.30375 0.45488 0.0
C811 C 0.07295 0.3035 0.43933 0.0
C812 C 0.12167 0.33114 0.46678 0.0
C813 C 0.11997 0.35766 0.46339 0.0
H814 H 0.09398 0.37694 0.44379 0.0
H815 H 0.0544 0.28242 0.43017 0.0
C816 C 0.92504 0.2531 0.40525 0.0
N817 N 0.95168 0.26229 0.38897 0.0
C818 C 0.89862 0.22698 0.39491 0.0
C819 C 0.9277 0.21984 0.35211 0.0
C820 C 0.9534 0.24588 0.36323 0.0
C821 C 0.89968 0.21043 0.36743 0.0
H822 H 0.92376 0.26684 0.4249 0.0
H823 H 0.97445 0.25401 0.34988 0.0
C824 C 0.07157 0.39413 0.37219 0.0
N825 N 0.11477 0.44912 0.34594 0.0
C826 C 0.06321 0.41465 0.36022 0.0
C827 C 0.102 0.40175 0.37111 0.0
C828 C 0.08534 0.44228 0.34696 0.0
C829 C 0.12347 0.4296 0.35765 0.0
C830 C 0.95521 0.31648 0.35456 0.0
C831 C 0.94718 0.30131 0.32402 0.0
C832 C 0.93265 0.31532 0.37535 0.0
C833 C 0.91665 0.28499 0.3149 0.0
C834 C 0.90239 0.29885 0.36527 0.0
N835 N 0.89508 0.28412 0.33554 0.0
C836 C 0.02337 0.31309 0.28929 0.0
C837 C 0.03216 0.36332 0.29069 0.0
C838 C 0.01956 0.31188 0.25486 0.0
N839 N 0.02929 0.33845 0.30651 0.0
C840 C 0.02856 0.36312 0.25622 0.0
C841 C 0.02131 0.33682 0.23806 0.0
H842 H 0.01947 0.29297 0.30241 0.0
H843 H 0.03539 0.38264 0.30492 0.0
C844 C 0.02248 0.40921 0.4387 0.0
N845 N 1.0041 0.38899 0.41537 0.0
C846 C 0.02275 0.43663 0.44316 0.0
C847 C 0.98441 0.42119 0.4005 0.0
C848 C 0.98501 0.39432 0.39672 0.0
C849 C 1.00414 0.44319 0.42317 0.0
H850 H 0.03793 0.4047 0.4527 0.0
H851 H 0.97132 0.37844 0.37764 0.0
O852 O 0.02229 0.29844 0.37411 0.0
O853 O 1.00414 0.32414 0.43607 0.0
O854 O 0.05031 0.36719 0.3859 0.0
O855 O 0.98494 0.33201 0.36428 0.0
H856 H 0.01901 0.24519 0.37043 0.0
H857 H 0.07564 0.34031 0.35038 0.0
H858 H 0.06002 0.23673 0.34948 0.0
H859 H 0.11577 0.33035 0.33016 0.0
H860 H 0.92308 0.29695 0.50355 0.0
H861 H 0.99741 0.27187 0.45662 0.0
H862 H 0.96214 0.33274 0.46403 0.0
H863 H 0.95764 0.23706 0.49614 0.0
H864 H 0.09791 0.28276 0.45756 0.0
H865 H 0.13809 0.37918 0.47237 0.0
H866 H 0.87751 0.22025 0.40773 0.0
H867 H 0.92951 0.20798 0.33065 0.0
H868 H 0.03981 0.40917 0.36072 0.0
H869 H 0.10903 0.38637 0.38063 0.0
H870 H 0.07912 0.45827 0.33744 0.0
H871 H 0.14707 0.43573 0.35658 0.0
H872 H 0.96428 0.30185 0.30767 0.0
H873 H 0.93841 0.32655 0.3993 0.0
H874 H 0.91011 0.27297 0.29145 0.0
H875 H 0.88469 0.29758 0.38121 0.0
H876 H 0.01365 0.29107 0.24177 0.0
H877 H 0.03045 0.38295 0.24405 0.0
H878 H 0.03832 0.45307 0.46087 0.0
H879 H 0.96934 0.42514 0.385 0.0
Li880 Li 0.71616 0.04024 0.73862 0.0
Li881 Li 0.69216 0.98817 0.72067 0.0
Li882 Li 0.69297 0.02439 0.6837 0.0
Li883 Li 0.65845 0.00854 0.73255 0.0
C884 C 0.75534 0.02551 0.71043 0.0
N885 N 0.80963 0.03027 0.72963 0.0
C886 C 0.75702 0.01153 0.7396 0.0
C887 C 0.78132 0.04198 0.69102 0.0
C888 C 0.78464 0.01415 0.74888 0.0
C889 C 0.80855 0.04412 0.70115 0.0
C890 C 0.67619 0.98103 0.78795 0.0
C891 C 0.63577 0.93666 0.81429 0.0
N892 N 0.65616 0.93595 0.83558 0.0
C893 C 0.69667 0.98016 0.81045 0.0
C894 C 0.64543 0.95936 0.79016 0.0
C895 C 0.68612 0.95707 0.8342 0.0
C896 C 0.74711 0.07262 0.79733 0.0
N897 N 0.74864 0.07195 0.76356 0.0
C898 C 0.79779 0.11638 0.76394 0.0
C899 C 0.77327 0.09328 0.74674 0.0
C900 C 0.79701 0.11759 0.79883 0.0
C901 C 0.77112 0.09545 0.81554 0.0
H902 H 0.72729 0.05535 0.81012 0.0
H903 H 0.77394 0.09229 0.7199 0.0
C904 C 0.71009 0.95267 0.68782 0.0
N905 N 0.69509 0.95197 0.71611 0.0
C906 C 0.71062 0.92703 0.67698 0.0
C907 C 0.68063 0.89998 0.72487 0.0
C908 C 0.68079 0.9264 0.73497 0.0
C909 C 0.6953 0.90005 0.69517 0.0
H910 H 0.7204 0.97283 0.67258 0.0
H911 H 0.66844 0.92598 0.75696 0.0
C912 C 0.68703 0.07162 0.69583 0.0
N913 N 0.68601 0.1129 0.6521 0.0
C914 C 0.6597 0.07058 0.68858 0.0
C915 C 0.71384 0.09369 0.68097 0.0
C916 C 0.65967 0.09166 0.66638 0.0
C917 C 0.71285 0.11434 0.65887 0.0
C918 C 0.64559 0.95656 0.68006 0.0
C919 C 0.65437 0.95284 0.64822 0.0
C920 C 0.62495 0.93102 0.69809 0.0
C921 C 0.6426 0.9237 0.63514 0.0
C922 C 0.61371 0.90226 0.68415 0.0
N923 N 0.62272 0.89921 0.65324 0.0
C924 C 0.7171 0.03315 0.61947 0.0
C925 C 0.66879 0.02927 0.62274 0.0
C926 C 0.71434 0.02931 0.58502 0.0
N927 N 0.69414 0.03226 0.63755 0.0
C928 C 0.66529 0.02579 0.58828 0.0
C929 C 0.68781 0.02473 0.56926 0.0
H930 H 0.73642 0.03437 0.63204 0.0
H931 H 0.6503 0.02717 0.63787 0.0
C932 C 0.61916 0.0246 0.76593 0.0
N933 N 0.62024 1.00362 0.74597 0.0
C934 C 0.59179 0.02433 0.77064 0.0
C935 C 0.56704 0.98006 0.73547 0.0
C936 C 0.59485 0.98141 0.73112 0.0
C937 C 0.56533 1.00213 0.75478 0.0
H938 H 0.63986 0.04253 0.7767 0.0
H939 H 0.59637 0.96552 0.71463 0.0
O940 O 0.72865 0.0238 0.70117 0.0
O941 O 0.68603 1.0036 0.76467 0.0
O942 O 0.68749 0.05092 0.71708 0.0
O943 O 0.65764 0.98492 0.69374 0.0
H944 H 0.7372 0.99871 0.75482 0.0
H945 H 0.78055 0.05325 0.66854 0.0
H946 H 0.7862 1.00338 0.77141 0.0
H947 H 0.82884 0.05686 0.68641 0.0
H948 H 0.61205 0.91963 0.81611 0.0
H949 H 0.72044 0.99723 0.80977 0.0
H950 H 0.62918 0.96005 0.77349 0.0
H951 H 0.70175 0.95602 0.85164 0.0
H952 H 0.81702 0.13334 0.75002 0.0
H953 H 0.76963 0.09559 0.84243 0.0
H954 H 0.72189 0.92797 0.65378 0.0
H955 H 0.66882 0.87965 0.7398 0.0
H956 H 0.63871 0.05354 0.69972 0.0
H957 H 0.73512 0.09464 0.68615 0.0
H958 H 0.63868 0.09107 0.66043 0.0
H959 H 0.73341 0.13145 0.64705 0.0
H960 H 0.67048 0.97211 0.63389 0.0
H961 H 0.61802 0.93326 0.72283 0.0
H962 H 0.64941 0.92054 0.61065 0.0
H963 H 0.59796 0.88233 0.698 0.0
H964 H 0.73204 0.02841 0.57103 0.0
H965 H 0.6443 0.02175 0.57695 0.0
H966 H 0.59174 0.04225 0.78505 0.0
H967 H 0.54723 0.96251 0.72283 0.0
Li968 Li 0.67393 0.71034 0.06833 0.0
Li969 Li 0.70322 0.68796 0.05189 0.0
Li970 Li 0.66747 0.68909 0.0136 0.0
Li971 Li 0.64855 0.65347 0.06239 0.0
C972 C 0.71946 0.75378 0.03832 0.0
N973 N 0.74931 0.81478 0.05357 0.0
C974 C 0.74435 0.76591 0.05982 0.0
C975 C 0.70992 0.77269 0.02431 0.0
C976 C 0.75913 0.79681 0.06726 0.0
C977 C 0.72525 0.80347 0.03243 0.0
C978 C 0.69694 0.67305 0.11587 0.0
C979 C 0.70275 0.63547 0.14626 0.0
N980 N 0.7298 0.65764 0.15822 0.0
C981 C 0.72476 0.69548 0.12854 0.0
C982 C 0.68578 0.6428 0.12483 0.0
C983 C 0.74105 0.68722 0.14989 0.0
C984 C 0.65447 0.75234 0.0841 0.0
N985 N 0.67346 0.74224 0.09368 0.0
C986 C 0.69346 0.77915 0.13736 0.0
C987 C 0.69256 0.75492 0.11998 0.0
C988 C 0.67457 0.79048 0.12753 0.0
C989 C 0.65464 0.77651 0.10073 0.0
H990 H 0.63932 0.74179 0.06335 0.0
H991 H 0.70744 0.74653 0.12716 0.0
C992 C 0.75889 0.70948 0.02222 0.0
N993 N 0.74235 0.69083 0.04757 0.0
C994 C 0.78494 0.70999 0.01079 0.0
C995 C 0.77748 0.67275 0.05242 0.0
C996 C 0.75126 0.67276 0.06295 0.0
C997 C 0.79428 0.69105 0.02543 0.0
H998 H 0.75094 0.72283 0.00945 0.0
H999 H 0.73733 0.6572 0.08213 0.0
C1000 C 0.61265 0.67821 0.02392 0.0
N1001 N 0.56876 0.67036 0.97822 0.0
C1002 C 0.58655 0.64989 0.02022 0.0
C1003 C 0.61632 0.70258 0.0045 0.0
C1004 C 0.56464 0.64638 0.99696 0.0
C1005 C 0.59392 0.69813 0.98148 0.0
C1006 C 0.68758 0.64044 0.0122 0.0
C1007 C 0.70291 0.64963 0.98181 0.0
C1008 C 0.68874 0.61783 0.03073 0.0
C1009 C 0.71929 0.63614 0.97053 0.0
C1010 C 0.70535 0.60487 0.01857 0.0
N1011 N 0.72018 0.61423 0.989 0.0
C1012 C 0.68499 0.71308 0.9495 0.0
C1013 C 0.64128 0.6642 0.95191 0.0
C1014 C 0.6876 0.71007 0.91531 0.0
N1015 N 0.66257 0.68996 0.96706 0.0
C1016 C 0.64287 0.66037 0.91773 0.0
C1017 C 0.66706 0.68295 0.8993 0.0
H1018 H 0.70224 0.7328 0.96241 0.0
H1019 H 0.62437 0.64577 0.96671 0.0
C1020 C 0.59759 0.61207 0.10114 0.0
N1021 N 0.61605 0.61471 0.07534 0.0
C1022 C 0.57123 0.58439 0.10737 0.0
C1023 C 0.58402 0.56257 0.06112 0.0
C1024 C 0.60983 0.59067 0.05552 0.0
C1025 C 0.56406 0.55934 0.0869 0.0
H1026 H 0.60278 0.63173 0.1161 0.0
H1027 H 0.62424 0.59357 0.0345 0.0
O1028 O 0.70407 0.72341 0.03166 0.0
O1029 O 0.68047 0.68068 0.09526 0.0
O1030 O 0.63452 0.68204 0.04633 0.0
O1031 O 0.67211 0.65399 0.02414 0.0
H1032 H 0.75198 0.75155 0.07091 0.0
H1033 H 0.69067 0.76364 0.00765 0.0
H1034 H 0.77831 0.80648 0.08402 0.0
H1035 H 0.71796 0.81834 0.022 0.0
H1036 H 0.69443 0.61215 0.15334 0.0
H1037 H 0.73381 0.71897 0.12177 0.0
H1038 H 0.66428 0.62516 0.11532 0.0
H1039 H 0.76266 0.70431 0.15977 0.0
H1040 H 0.70913 0.78926 0.15791 0.0
H1041 H 0.63919 0.78406 0.09283 0.0
H1042 H 0.79692 0.72418 0.98969 0.0
H1043 H 0.7841 0.6581 0.06479 0.0
H1044 H 0.58322 0.63077 0.03505 0.0
H1045 H 0.63648 0.72457 0.00679 0.0
H1046 H 0.54438 0.62457 0.99379 0.0
H1047 H 0.59658 0.71675 0.96614 0.0
H1048 H 0.70253 0.66728 0.96727 0.0
H1049 H 0.67736 0.61073 0.05452 0.0
H1050 H 0.73141 0.64317 0.94716 0.0
H1051 H 0.70662 0.5875 0.03276 0.0
H1052 H 0.70666 0.72794 0.90202 0.0
H1053 H 0.62623 0.63938 0.90616 0.0
H1054 H 0.55637 0.58269 0.12754 0.0
H1055 H 0.57903 0.54388 0.04455 0.0
C1056 C 0.33261 0.14569 0.14713 0.0
C1057 C 0.32804 0.14215 0.18176 0.0
C1058 C 0.33156 0.1692 0.13005 0.0
C1059 C 0.32578 0.19003 0.1469 0.0
H1060 H 0.33768 0.13056 0.13324 0.0
H1061 H 0.33595 0.17145 0.10352 0.0
S1062 S 0.30885 0.18844 0.23699 0.0
N1063 N 0.31533 0.16004 0.23191 0.0
N1064 N 0.31309 0.20398 0.19987 0.0
C1065 C 0.32031 0.18616 0.18139 0.0
C1066 C 0.32149 0.16231 0.19878 0.0
C1067 C 0.18311 0.34457 0.52954 0.0
C1068 C 0.20027 0.33386 0.51286 0.0
C1069 C 0.1579 0.34386 0.51444 0.0
C1070 C 0.14863 0.33209 0.48221 0.0
H1071 H 0.18892 0.35319 0.55471 0.0
H1072 H 0.14526 0.35212 0.52828 0.0
S1073 S 0.18689 0.30363 0.42659 0.0
N1074 N 0.20712 0.31309 0.46117 0.0
N1075 N 0.15926 0.31098 0.43336 0.0
C1076 C 0.16565 0.32165 0.46506 0.0
C1077 C 0.19154 0.3227 0.48023 0.0
C1078 C 0.81747 0.15927 0.8414 0.0
C1079 C 0.8228 0.1422 0.81761 0.0
C1080 C 0.8415 0.1834 0.85842 0.0
C1081 C 0.87181 0.1912 0.85263 0.0
H1082 H 0.79456 0.15432 0.84644 0.0
H1083 H 0.8363 0.19601 0.87634 0.0
S1084 S 0.8979 0.15308 0.79355 0.0
N1085 N 0.86064 0.13429 0.78982 0.0
N1086 N 0.90575 0.17974 0.82152 0.0
C1087 C 0.87742 0.17404 0.82926 0.0
C1088 C 0.85297 0.14959 0.81179 0.0
C1089 C 0.67368 0.8164 0.18036 0.0
C1090 C 0.67539 0.8165 0.14539 0.0
C1091 C 0.67356 0.84027 0.19768 0.0
C1092 C 0.67547 0.86536 0.18076 0.0
H1093 H 0.67194 0.79748 0.19445 0.0
H1094 H 0.67216 0.83915 0.2246 0.0
S1095 S 0.68116 0.87696 0.08925 0.0
N1096 N 0.67986 0.84422 0.09449 0.0
N1097 N 0.67915 0.88878 0.12693 0.0
C1098 C 0.67751 0.86588 0.1458 0.0
C1099 C 0.67752 0.84153 0.12817 0.0
C1100 C 0.87183 0.68017 0.51495 0.0
C1101 C 0.87598 0.68522 0.48043 0.0
C1102 C 0.84704 0.67922 0.53133 0.0
C1103 C 0.82524 0.68309 0.51384 0.0
H1104 H 0.88798 0.67706 0.52947 0.0
H1105 H 0.84502 0.67558 0.55799 0.0
S1106 S 0.82464 0.69488 0.4227 0.0
N1107 N 0.85568 0.69304 0.42906 0.0
N1108 N 0.80889 0.69085 0.45966 0.0
C1109 C 0.82906 0.68799 0.47923 0.0
C1110 C 0.85443 0.68913 0.4626 0.0
C1111 C 0.17285 0.84256 0.7981 0.0
C1112 C 0.19683 0.86627 0.81583 0.0
C1113 C 0.14817 0.81874 0.81468 0.0
C1114 C 0.14663 0.81751 0.84966 0.0
H1115 H 0.17308 0.8425 0.77113 0.0
H1116 H 0.13039 0.80087 0.79998 0.0
S1117 S 0.20325 0.87415 0.90775 0.0
N1118 N 0.21735 0.88701 0.8704 0.0
N1119 N 0.17081 0.84257 0.90149 0.0
C1120 C 0.17031 0.8412 0.86769 0.0
C1121 C 0.19538 0.8655 0.85082 0.0
C1122 C 0.47876 0.97874 0.24069 0.0
C1123 C 0.47706 0.00542 0.23898 0.0
C1124 C 0.5068 0.97977 0.24025 0.0
C1125 C 0.53417 0.00757 0.23867 0.0
H1126 H 0.45825 0.95695 0.24302 0.0
H1127 H 0.50711 0.95876 0.24257 0.0
S1128 S 0.54207 0.08375 0.23267 0.0
N1129 N 0.50513 0.06032 0.23458 0.0
N1130 N 0.55781 0.06225 0.234 0.0
C1131 C 0.53276 0.03432 0.2361 0.0
C1132 C 0.50421 0.03325 0.23614 0.0
C1133 C 0.5121 0.53095 0.56764 0.0
C1134 C 0.54084 0.53337 0.5666 0.0
C1135 C 0.48545 0.50261 0.56642 0.0
C1136 C 0.48654 0.47561 0.56459 0.0
H1137 H 0.51023 0.55112 0.57005 0.0
H1138 H 0.46385 0.50179 0.56832 0.0
S1139 S 0.556 0.46958 0.55996 0.0
N1140 N 0.56873 0.50634 0.56259 0.0
N1141 N 0.51867 0.45314 0.56026 0.0
C1142 C 0.5151 0.47776 0.5626 0.0
C1143 C 0.54222 0.50661 0.56355 0.0
C1144 C 0.98845 0.51246 0.88421 0.0
C1145 C 1.00318 0.53326 0.91018 0.0
C1146 C 0.98908 0.48523 0.88242 0.0
C1147 C 1.00501 0.47825 0.90614 0.0
H1148 H 0.97579 0.51696 0.86564 0.0
H1149 H 0.97701 0.46951 0.86242 0.0
S1150 S 0.04798 0.52562 0.97839 0.0
N1151 N 0.03465 0.54536 0.95962 0.0
N1152 N 0.03591 0.4944 0.95622 0.0
C1153 C 0.02026 0.49916 0.93183 0.0
C1154 C 0.01933 0.5266 0.93386 0.0
C1155 C 1.00418 0.51355 0.45568 0.0
C1156 C 1.00587 0.52915 0.42616 0.0
C1157 C 1.00432 0.48601 0.45477 0.0
C1158 C 1.00624 0.47335 0.42432 0.0
H1159 H 1.00183 0.52221 0.47943 0.0
H1160 H 1.00203 0.47414 0.4779 0.0
S1161 S 0.01567 0.508 0.34073 0.0
N1162 N 0.01239 0.5316 0.3662 0.0
N1163 N 0.01325 0.48041 0.36443 0.0
C1164 C 0.00946 0.48966 0.39489 0.0
C1165 C 0.00913 0.51742 0.39583 0.0
C1166 C 0.52109 1.00019 0.72542 0.0
C1167 C 0.53677 1.00347 0.75539 0.0
C1168 C 0.4945 1.00182 0.72462 0.0
C1169 C 0.48235 0.00694 0.75373 0.0
H1170 H 0.52965 0.99667 0.70216 0.0
H1171 H 0.48323 0.99881 0.70089 0.0
S1172 S 0.51446 0.01698 0.83877 0.0
N1173 N 0.53788 0.01161 0.81513 0.0
N1174 N 0.48819 0.01549 0.81349 0.0
C1175 C 0.49769 0.01023 0.78395 0.0
C1176 C 0.52486 0.00846 0.78479 0.0
C1177 C 0.50841 0.47494 0.09329 0.0
C1178 C 0.48001 0.47322 0.09087 0.0
C1179 C 0.53545 0.50292 0.09313 0.0
C1180 C 0.53517 0.53029 0.09084 0.0
H1181 H 0.50977 0.45444 0.09473 0.0
H1182 H 0.5568 0.50314 0.09427 0.0
S1183 S 0.46711 0.53845 0.08322 0.0
N1184 N 0.45344 0.50152 0.0856 0.0
N1185 N 0.50429 0.55408 0.08591 0.0
C1186 C 0.50701 0.52901 0.08922 0.0
C1187 C 0.47944 0.50051 0.08912 0.0
C1188 C 0.15344 0.82062 0.32275 0.0
C1189 C 0.14939 0.8188 0.35755 0.0
C1190 C 0.17627 0.84695 0.3075 0.0
C1191 C 0.1959 0.87255 0.32642 0.0
H1192 H 0.13855 0.80162 0.3071 0.0
H1193 H 0.17828 0.84741 0.28063 0.0
S1194 S 0.19647 0.87856 0.41859 0.0
N1195 N 0.16789 0.84432 0.41059 0.0
N1196 N 0.21097 0.89375 0.38206 0.0
C1197 C 0.1924 0.87087 0.3613 0.0
C1198 C 0.1691 0.84406 0.37681 0.0
C1199 C 0.34949 0.18574 0.65374 0.0
C1200 C 0.32252 0.1863 0.64799 0.0
C1201 C 0.34899 0.16043 0.66832 0.0
C1202 C 0.32149 0.13469 0.67753 0.0
H1203 H 0.37118 0.2052 0.64742 0.0
H1204 H 0.37026 0.16085 0.67196 0.0
S1205 S 0.24461 0.12467 0.66756 0.0
N1206 N 0.26755 0.15862 0.6521 0.0
N1207 N 0.26668 0.11154 0.68022 0.0
C1208 C 0.2944 0.13499 0.67189 0.0
C1209 C 0.2949 0.16065 0.65699 0.0
C1210 C 0.18609 0.32088 0.97777 0.0
C1211 C 0.19399 0.32989 0.01116 0.0
C1212 C 0.16117 0.32083 0.96278 0.0
C1213 C 0.14362 0.3303 0.98049 0.0
H1214 H 0.19944 0.31401 0.96305 0.0
H1215 H 0.15607 0.31407 0.93695 0.0
S1216 S 0.1539 0.35465 0.06885 0.0
N1217 N 0.18156 0.34738 0.06175 0.0
N1218 N 0.13487 0.34753 0.03357 0.0
C1219 C 0.15087 0.33874 0.01406 0.0
C1220 C 0.17599 0.33842 0.02943 0.0
C1221 C 0.87211 0.1574 0.34527 0.0
C1222 C 0.87187 0.18408 0.35361 0.0
C1223 C 0.84691 0.13276 0.33054 0.0
C1224 C 0.8204 0.13378 0.32338 0.0
H1225 H 0.89199 0.15549 0.35023 0.0
H1226 H 0.84827 0.11277 0.32452 0.0
S1227 S 0.80801 0.19833 0.3403 0.0
N1228 N 0.84294 0.21021 0.35321 0.0
N1229 N 0.79522 0.16355 0.32636 0.0
C1230 C 0.81976 0.16028 0.33166 0.0
C1231 C 0.8455 0.18544 0.34666 0.0
C1232 C 0.72104 0.84839 0.6573 0.0
C1233 C 0.69383 0.82078 0.65311 0.0
C1234 C 0.72129 0.87364 0.67143 0.0
C1235 C 0.69437 0.87227 0.68223 0.0
H1236 H 0.74236 0.85058 0.64934 0.0
H1237 H 0.7428 0.89445 0.67396 0.0
S1238 S 0.6171 0.80525 0.6773 0.0
N1239 N 0.63926 0.79339 0.66149 0.0
N1240 N 0.63968 0.84108 0.68754 0.0
C1241 C 0.66699 0.84478 0.67838 0.0
C1242 C 0.66672 0.81904 0.66385 0.0
C1243 C 0.84739 0.71742 0.00332 0.0
C1244 C 0.82097 0.69019 0.0116 0.0
C1245 C 0.87241 0.71746 0.98883 0.0
C1246 C 0.87217 0.69026 0.982 0.0
H1247 H 0.84883 0.739 0.00819 0.0
H1248 H 0.89212 0.73906 0.98282 0.0
S1249 S 0.80859 0.61268 0.99885 0.0
N1250 N 0.79587 0.63516 0.01126 0.0
N1251 N 0.84338 0.63526 0.98524 0.0
C1252 C 0.84595 0.66281 0.99022 0.0
C1253 C 0.82032 0.66277 0.00483 0.0
C1254 C 0.36228 0.02899 0.48861 0.0
C1255 C 0.33986 0.01371 0.46439 0.0
C1256 C 0.35797 0.01839 0.52147 0.0
C1257 C 0.33124 0.99193 0.53111 0.0
H1258 H 0.38305 0.04952 0.48221 0.0
H1259 H 0.37545 0.03141 0.53961 0.0
S1260 S 0.26719 0.942 0.47578 0.0
N1261 N 0.29098 0.96987 0.45138 0.0
N1262 N 0.28303 0.94961 0.51304 0.0
C1263 C 0.30904 0.97601 0.50678 0.0
C1264 C 0.31333 0.98696 0.47343 0.0
C1265 C 0.33979 0.31311 0.83856 0.0
C1266 C 0.34672 0.33639 0.86158 0.0
C1267 C 0.33635 0.31723 0.80467 0.0
C1268 C 0.3401 0.34488 0.79275 0.0
H1269 H 0.33599 0.29129 0.84696 0.0
H1270 H 0.33055 0.29862 0.78766 0.0
S1271 S 0.35995 0.4133 0.8429 0.0
N1272 N 0.35836 0.3883 0.87019 0.0
N1273 N 0.35215 0.39612 0.80638 0.0
C1274 C 0.34801 0.36862 0.8154 0.0
C1275 C 0.35121 0.36433 0.84988 0.0
C1276 C 0.02794 0.32366 0.17995 0.0
C1277 C 0.01431 0.33468 0.20201 0.0
C1278 C 0.0217 0.32133 0.14582 0.0
C1279 C 1.00147 0.32978 0.13244 0.0
H1280 H 0.0439 0.31719 0.18909 0.0
H1281 H 0.03296 0.31298 0.1297 0.0
S1282 S 0.95868 0.35857 0.17981 0.0
N1283 N 0.97856 0.35278 0.20835 0.0
N1284 N 0.96735 0.349 0.14393 0.0
C1285 C 0.9872 0.34025 0.15426 0.0
C1286 C 0.99358 0.34267 0.18909 0.0
C1287 C 0.67701 0.97959 0.49048 0.0
C1288 C 0.66959 0.99503 0.46663 0.0
C1289 C 0.68322 0.98963 0.52353 0.0
C1290 C 0.68214 0.0154 0.53394 0.0
H1291 H 0.67788 0.9595 0.48358 0.0
H1292 H 0.68852 0.97688 0.5412 0.0
S1293 S 0.66599 0.06513 0.48106 0.0
N1294 N 0.66324 0.0385 0.4555 0.0
N1295 N 0.67416 0.05676 0.51794 0.0
C1296 C 0.6749 0.03114 0.51048 0.0
C1297 C 0.66882 0.02111 0.47674 0.0
C1298 C 0.67967 0.70006 0.84006 0.0
C1299 C 0.67235 0.67751 0.86427 0.0
C1300 C 0.68597 0.6959 0.80717 0.0
C1301 C 0.68511 0.66902 0.79727 0.0
H1302 H 0.68036 0.72102 0.84655 0.0
H1303 H 0.69116 0.7137 0.7892 0.0
S1304 S 0.6694 0.60394 0.85135 0.0
N1305 N 0.66638 0.628 0.87637 0.0
N1306 N 0.67753 0.62004 0.81425 0.0
C1307 C 0.67802 0.64637 0.82114 0.0
C1308 C 0.67182 0.65065 0.85471 0.0
C1309 C 0.03085 0.70511 0.18767 0.0
C1310 C 1.00541 0.6793 0.20079 0.0
C1311 C 0.03667 0.70825 0.15341 0.0
C1312 C 0.01735 0.68563 0.13101 0.0
H1313 H 0.04655 0.72295 0.20408 0.0
H1314 H 0.05675 0.72827 0.14447 0.0
S1315 S 0.94679 0.61449 0.15239 0.0
N1316 N 0.96027 0.63116 0.18861 0.0
N1317 N 0.9708 0.63737 0.12405 0.0
C1318 C 0.9914 0.66007 0.14367 0.0
C1319 C 0.98547 0.65688 0.17858 0.0
loop_
_geom_bond_atom_site_label_1
_geom_bond_atom_site_label_2
_geom_bond_distance
_geom_bond_site_symmetry_2
_ccdc_geom_bond_type
Li0 N17 1.990 . S
Li0 O60 1.956 . S
Li0 O61 1.970 1_565 S
Li0 O62 1.961 . S
Li1 N25 1.990 . S
Li1 O60 1.970 1_545 S
Li1 O61 1.956 . S
Li1 O63 1.961 . S
Li2 N47 1.990 . S
Li2 O60 1.961 . S
Li2 O62 1.956 . S
Li2 O63 1.970 1_565 S
Li3 N53 1.990 . S
Li3 O61 1.961 . S
Li3 O62 1.970 1_545 S
Li3 O63 1.956 . S
C4 C6 1.348 . S
C4 C7 1.356 . S
C4 O60 1.325 . S
N5 C8 1.314 . S
N5 C9 1.279 . S
C6 C4 1.348 . S
C6 C8 1.353 . S
C6 H64 0.929 . S
C7 C4 1.356 . S
C7 C9 1.358 . S
C7 H65 0.930 . S
C8 N5 1.314 . S
C8 C6 1.353 . S
C8 H66 0.930 . S
C9 N5 1.279 . S
C9 C7 1.358 . S
C9 H67 0.930 . S
C10 C13 1.348 . S
C10 C14 1.356 . S
C10 O61 1.325 . S
C11 N12 1.279 . S
C11 C14 1.358 . S
C11 H68 0.930 . S
N12 C11 1.279 . S
N12 C15 1.314 . S
C13 C10 1.348 . S
C13 C15 1.353 . S
C13 H69 0.929 . S
C14 C10 1.356 . S
C14 C11 1.358 . S
C14 H70 0.930 . S
C15 N12 1.314 . S
C15 C13 1.353 . S
C15 H71 0.930 . S
C16 N17 1.314 1_545 S
C16 C21 1.353 . S
C16 H22 0.930 . S
N17 Li0 1.990 . S
N17 C16 1.314 1_565 S
N17 C19 1.279 . S
C18 C19 1.358 . S
C18 C20 1.356 . S
C18 H72 0.930 . S
C19 N17 1.279 . S
C19 C18 1.358 . S
C19 H23 0.930 . S
C20 C18 1.356 . S
C20 C21 1.348 1_565 S
C21 C16 1.353 . S
C21 C20 1.348 1_545 S
C21 H73 0.929 . S
H22 C16 0.930 . S
H23 C19 0.930 . S
C24 N25 1.314 . S
C24 C26 1.353 . S
C24 H30 0.930 1_545 S
N25 Li1 1.990 . S
N25 C24 1.314 . S
N25 C28 1.279 . S
C26 C24 1.353 . S
C26 C29 1.348 . S
C26 H74 0.929 . S
C27 C28 1.358 . S
C27 C29 1.356 . S
C27 H75 0.930 . S
C28 N25 1.279 . S
C28 C27 1.358 . S
C28 H31 0.930 . S
C29 C26 1.348 . S
C29 C27 1.356 . S
H30 C24 0.930 1_565 S
H31 C28 0.930 . S
C32 C34 1.348 . S
C32 C35 1.356 . S
C32 O62 1.325 . S
N33 C36 1.314 . S
N33 C37 1.279 . S
C34 C32 1.348 . S
C34 C36 1.353 . S
C34 H76 0.929 1_565 S
C35 C32 1.356 . S
C35 C37 1.358 . S
C35 H77 0.930 . S
C36 N33 1.314 . S
C36 C34 1.353 . S
C36 H78 0.930 . S
C37 N33 1.279 . S
C37 C35 1.358 . S
C37 H79 0.930 . S
C38 C39 1.348 1_545 S
C38 C40 1.356 . S
C38 O63 1.325 . S
C39 C38 1.348 1_565 S
C39 C41 1.353 . S
C39 H80 0.929 . S
C40 C38 1.356 . S
C40 C42 1.358 . S
C40 H81 0.930 . S
C41 C39 1.353 . S
C41 N43 1.314 1_565 S
C41 H82 0.930 . S
C42 C40 1.358 . S
C42 N43 1.279 . S
C42 H83 0.930 . S
N43 C41 1.314 1_545 S
N43 C42 1.279 . S
C44 C46 1.353 . S
C44 N47 1.314 . S
C44 H50 0.930 . S
C45 N47 1.279 . S
C45 C48 1.358 . S
C45 H51 0.930 . S
C46 C44 1.353 . S
C46 C49 1.348 . S
C46 H84 0.929 . S
N47 Li2 1.990 . S
N47 C44 1.314 . S
N47 C45 1.279 . S
C48 C45 1.358 . S
C48 C49 1.356 . S
C48 H85 0.930 . S
C49 C46 1.348 . S
C49 C48 1.356 . S
H50 C44 0.930 . S
H51 C45 0.930 . S
C52 N53 1.314 . S
C52 C54 1.353 . S
C52 H58 0.930 . S
N53 Li3 1.990 . S
N53 C52 1.314 . S
N53 C56 1.279 . S
C54 C52 1.353 . S
C54 C57 1.348 . S
C54 H86 0.929 . S
C55 C56 1.358 . S
C55 C57 1.356 . S
C55 H87 0.930 . S
C56 N53 1.279 . S
C56 C55 1.358 . S
C56 H59 0.930 . S
C57 C54 1.348 . S
C57 C55 1.356 . S
H58 C52 0.930 . S
H59 C56 0.930 . S
O60 Li0 1.956 . S
O60 Li1 1.970 1_565 S
O60 Li2 1.961 . S
O60 C4 1.325 . S
O61 Li0 1.970 1_545 S
O61 Li1 1.956 . S
O61 Li3 1.961 . S
O61 C10 1.325 . S
O62 Li0 1.961 . S
O62 Li2 1.956 . S
O62 Li3 1.970 1_565 S
O62 C32 1.325 . S
O63 Li1 1.961 . S
O63 Li2 1.970 1_545 S
O63 Li3 1.956 . S
O63 C38 1.325 . S
H64 C6 0.929 . S
H65 C7 0.930 . S
H66 C8 0.930 . S
H67 C9 0.930 . S
H68 C11 0.930 . S
H69 C13 0.929 . S
H70 C14 0.930 . S
H71 C15 0.930 . S
H72 C18 0.930 . S
H73 C21 0.929 . S
H74 C26 0.929 . S
H75 C27 0.930 . S
H76 C34 0.929 1_545 S
H77 C35 0.930 . S
H78 C36 0.930 . S
H79 C37 0.930 . S
H80 C39 0.929 . S
H81 C40 0.930 . S
H82 C41 0.930 . S
H83 C42 0.930 . S
H84 C46 0.929 . S
H85 C48 0.930 . S
H86 C54 0.929 . S
H87 C55 0.930 . S
Li88 N105 1.990 . S
Li88 O148 1.956 . S
Li88 O149 1.970 . S
Li88 O150 1.961 . S
Li89 N113 1.990 . S
Li89 O148 1.970 . S
Li89 O149 1.956 . S
Li89 O151 1.961 . S
Li90 N135 1.990 . S
Li90 O148 1.961 . S
Li90 O150 1.956 . S
Li90 O151 1.970 . S
Li91 N141 1.990 . S
Li91 O149 1.961 . S
Li91 O150 1.970 . S
Li91 O151 1.956 . S
C92 C94 1.348 . S
C92 C95 1.356 . S
C92 O148 1.325 . S
N93 C96 1.314 . S
N93 C97 1.279 . S
C94 C92 1.348 . S
C94 C96 1.353 . S
C94 H152 0.929 . S
C95 C92 1.356 . S
C95 C97 1.358 . S
C95 H153 0.930 . S
C96 N93 1.314 . S
C96 C94 1.353 . S
C96 H154 0.930 . S
C97 N93 1.279 . S
C97 C95 1.358 . S
C97 H155 0.930 . S
C98 C101 1.348 . S
C98 C102 1.356 . S
C98 O149 1.325 . S
C99 N100 1.279 . S
C99 C102 1.358 . S
C99 H156 0.930 . S
N100 C99 1.279 . S
N100 C103 1.314 . S
C101 C98 1.348 . S
C101 C103 1.353 . S
C101 H157 0.929 . S
C102 C98 1.356 . S
C102 C99 1.358 . S
C102 H158 0.930 . S
C103 N100 1.314 . S
C103 C101 1.353 . S
C103 H159 0.930 . S
C104 N105 1.314 . S
C104 C109 1.353 . S
C104 H110 0.930 . S
N105 Li88 1.990 . S
N105 C104 1.314 . S
N105 C107 1.279 . S
C106 C107 1.358 . S
C106 C108 1.356 . S
C106 H160 0.930 . S
C107 N105 1.279 . S
C107 C106 1.358 . S
C107 H111 0.930 . S
C108 C106 1.356 . S
C108 C109 1.348 . S
C109 C104 1.353 . S
C109 C108 1.348 . S
C109 H161 0.929 . S
H110 C104 0.930 . S
H111 C107 0.930 . S
C112 N113 1.314 . S
C112 C114 1.353 . S
C112 H118 0.930 . S
N113 Li89 1.990 . S
N113 C112 1.314 . S
N113 C116 1.279 . S
C114 C112 1.353 . S
C114 C117 1.348 . S
C114 H162 0.929 . S
C115 C116 1.358 . S
C115 C117 1.356 . S
C115 H163 0.930 . S
C116 N113 1.279 . S
C116 C115 1.358 . S
C116 H119 0.930 . S
C117 C114 1.348 . S
C117 C115 1.356 . S
H118 C112 0.930 . S
H119 C116 0.930 . S
C120 C122 1.348 . S
C120 C123 1.356 . S
C120 O150 1.325 . S
N121 C124 1.314 . S
N121 C125 1.279 . S
C122 C120 1.348 . S
C122 C124 1.353 . S
C122 H164 0.929 . S
C123 C120 1.356 . S
C123 C125 1.358 . S
C123 H165 0.930 . S
C124 N121 1.314 . S
C124 C122 1.353 . S
C124 H166 0.930 . S
C125 N121 1.279 . S
C125 C123 1.358 . S
C125 H167 0.930 . S
C126 C127 1.348 . S
C126 C128 1.356 . S
C126 O151 1.325 . S
C127 C126 1.348 . S
C127 C129 1.353 . S
C127 H168 0.929 . S
C128 C126 1.356 . S
C128 C130 1.358 . S
C128 H169 0.930 . S
C129 C127 1.353 . S
C129 N131 1.314 . S
C129 H170 0.930 . S
C130 C128 1.358 . S
C130 N131 1.279 . S
C130 H171 0.930 . S
N131 C129 1.314 . S
N131 C130 1.279 . S
C132 C134 1.353 . S
C132 N135 1.314 . S
C132 H138 0.930 . S
C133 N135 1.279 . S
C133 C136 1.358 . S
C133 H139 0.930 . S
C134 C132 1.353 . S
C134 C137 1.348 . S
C134 H172 0.929 . S
N135 Li90 1.990 . S
N135 C132 1.314 . S
N135 C133 1.279 . S
C136 C133 1.358 . S
C136 C137 1.356 . S
C136 H173 0.930 . S
C137 C134 1.348 . S
C137 C136 1.356 . S
H138 C132 0.930 . S
H139 C133 0.930 . S
C140 N141 1.314 . S
C140 C142 1.353 . S
C140 H146 0.930 . S
N141 Li91 1.990 . S
N141 C140 1.314 . S
N141 C144 1.279 . S
C142 C140 1.353 . S
C142 C145 1.348 . S
C142 H174 0.929 . S
C143 C144 1.358 . S
C143 C145 1.356 . S
C143 H175 0.930 . S
C144 N141 1.279 . S
C144 C143 1.358 . S
C144 H147 0.930 . S
C145 C142 1.348 . S
C145 C143 1.356 . S
H146 C140 0.930 . S
H147 C144 0.930 . S
O148 Li88 1.956 . S
O148 Li89 1.970 . S
O148 Li90 1.961 . S
O148 C92 1.325 . S
O149 Li88 1.970 . S
O149 Li89 1.956 . S
O149 Li91 1.961 . S
O149 C98 1.325 . S
O150 Li88 1.961 . S
O150 Li90 1.956 . S
O150 Li91 1.970 . S
O150 C120 1.325 . S
O151 Li89 1.961 . S
O151 Li90 1.970 . S
O151 Li91 1.956 . S
O151 C126 1.325 . S
H152 C94 0.929 . S
H153 C95 0.930 . S
H154 C96 0.930 . S
H155 C97 0.930 . S
H156 C99 0.930 . S
H157 C101 0.929 . S
H158 C102 0.930 . S
H159 C103 0.930 . S
H160 C106 0.930 . S
H161 C109 0.929 . S
H162 C114 0.929 . S
H163 C115 0.930 . S
H164 C122 0.929 . S
H165 C123 0.930 . S
H166 C124 0.930 . S
H167 C125 0.930 . S
H168 C127 0.929 . S
H169 C128 0.930 . S
H170 C129 0.930 . S
H171 C130 0.930 . S
H172 C134 0.929 . S
H173 C136 0.930 . S
H174 C142 0.929 . S
H175 C143 0.930 . S
Li176 N193 1.990 . S
Li176 O236 1.956 . S
Li176 O237 1.970 1_455 S
Li176 O238 1.961 . S
Li177 N201 1.990 1_556 S
Li177 O236 1.970 1_655 S
Li177 O237 1.956 . S
Li177 O239 1.961 . S
Li178 N223 1.990 . S
Li178 O236 1.961 . S
Li178 O238 1.956 . S
Li178 O239 1.970 1_455 S
Li179 N229 1.990 . S
Li179 O237 1.961 . S
Li179 O238 1.970 1_655 S
Li179 O239 1.956 . S
C180 C182 1.373 . S
C180 C183 1.345 1_554 S
C180 O236 1.311 1_554 S
N181 C184 1.314 . S
N181 C185 1.279 . S
C182 C180 1.373 . S
C182 C184 1.353 . S
C182 H240 0.929 . S
C183 C180 1.345 1_556 S
C183 C185 1.358 1_556 S
C183 H241 0.930 . S
C184 N181 1.314 . S
C184 C182 1.353 . S
C184 H242 0.930 . S
C185 N181 1.279 . S
C185 C183 1.358 1_554 S
C185 H243 0.930 1_554 S
C186 C189 1.348 . S
C186 C190 1.356 . S
C186 O237 1.325 . S
C187 N188 1.279 . S
C187 C190 1.358 . S
C187 H244 0.930 . S
N188 C187 1.279 . S
N188 C191 1.314 . S
C189 C186 1.348 . S
C189 C191 1.353 . S
C189 H245 0.929 . S
C190 C186 1.356 . S
C190 C187 1.358 . S
C190 H246 0.930 . S
C191 N188 1.314 . S
C191 C189 1.353 . S
C191 H247 0.930 . S
C192 N193 1.314 1_655 S
C192 C197 1.353 . S
C192 H198 0.930 . S
N193 Li176 1.990 . S
N193 C192 1.314 1_455 S
N193 C195 1.279 . S
C194 C195 1.358 . S
C194 C196 1.356 . S
C194 H248 0.930 . S
C195 N193 1.279 . S
C195 C194 1.358 . S
C195 H199 0.930 . S
C196 C194 1.356 . S
C196 C197 1.348 1_455 S
C197 C192 1.353 . S
C197 C196 1.348 1_655 S
C197 H249 0.929 . S
H198 C192 0.930 . S
H199 C195 0.930 . S
C200 N201 1.314 . S
C200 C202 1.353 . S
C200 H206 0.930 1_655 S
N201 Li177 1.990 1_554 S
N201 C200 1.314 . S
N201 C204 1.279 . S
C202 C200 1.353 . S
C202 C205 1.348 . S
C202 H250 0.929 . S
C203 C204 1.358 . S
C203 C205 1.356 . S
C203 H251 0.930 . S
C204 N201 1.279 . S
C204 C203 1.358 . S
C204 H207 0.930 . S
C205 C202 1.348 . S
C205 C203 1.356 . S
H206 C200 0.930 1_455 S
H207 C204 0.930 . S
C208 C210 1.348 . S
C208 C211 1.356 . S
C208 O238 1.325 . S
N209 C212 1.314 . S
N209 C213 1.279 . S
C210 C208 1.348 . S
C210 C212 1.353 . S
C210 H252 0.929 1_455 S
C211 C208 1.356 . S
C211 C213 1.358 . S
C211 H253 0.930 . S
C212 N209 1.314 . S
C212 C210 1.353 . S
C212 H254 0.930 . S
C213 N209 1.279 . S
C213 C211 1.358 . S
C213 H255 0.930 . S
C214 C215 1.348 1_655 S
C214 C216 1.356 . S
C214 O239 1.325 . S
C215 C214 1.348 1_455 S
C215 C217 1.353 . S
C215 H256 0.929 . S
C216 C214 1.356 . S
C216 C218 1.358 1_556 S
C216 H257 0.930 1_556 S
C217 C215 1.353 . S
C217 N219 1.314 1_455 S
C217 H258 0.930 . S
C218 C216 1.358 1_554 S
C218 N219 1.279 1_554 S
C218 H259 0.930 . S
N219 C217 1.314 1_655 S
N219 C218 1.279 1_556 S
C220 C222 1.353 . S
C220 N223 1.314 . S
C220 H226 0.930 . S
C221 N223 1.279 . S
C221 C224 1.358 . S
C221 H227 0.930 . S
C222 C220 1.353 . S
C222 C225 1.348 . S
C222 H260 0.929 . S
N223 Li178 1.990 . S
N223 C220 1.314 . S
N223 C221 1.279 . S
C224 C221 1.358 . S
C224 C225 1.356 . S
C224 H261 0.930 . S
C225 C222 1.348 . S
C225 C224 1.356 . S
H226 C220 0.930 . S
H227 C221 0.930 . S
C228 N229 1.314 . S
C228 C230 1.353 . S
C228 H234 0.930 . S
N229 Li179 1.990 . S
N229 C228 1.314 . S
N229 C232 1.279 . S
C230 C228 1.353 . S
C230 C233 1.348 . S
C230 H262 0.929 . S
C231 C232 1.358 . S
C231 C233 1.356 . S
C231 H263 0.930 . S
C232 N229 1.279 . S
C232 C231 1.358 . S
C232 H235 0.930 . S
C233 C230 1.348 . S
C233 C231 1.356 . S
H234 C228 0.930 . S
H235 C232 0.930 . S
O236 Li176 1.956 . S
O236 Li177 1.970 1_455 S
O236 Li178 1.961 . S
O236 C180 1.311 1_556 S
O237 Li176 1.970 1_655 S
O237 Li177 1.956 . S
O237 Li179 1.961 . S
O237 C186 1.325 . S
O238 Li176 1.961 . S
O238 Li178 1.956 . S
O238 Li179 1.970 1_455 S
O238 C208 1.325 . S
O239 Li177 1.961 . S
O239 Li178 1.970 1_655 S
O239 Li179 1.956 . S
O239 C214 1.325 . S
H240 C182 0.929 . S
H241 C183 0.930 . S
H242 C184 0.930 . S
H243 C185 0.930 1_556 S
H244 C187 0.930 . S
H245 C189 0.929 . S
H246 C190 0.930 . S
H247 C191 0.930 . S
H248 C194 0.930 . S
H249 C197 0.929 . S
H250 C202 0.929 . S
H251 C203 0.930 . S
H252 C210 0.929 1_655 S
H253 C211 0.930 . S
H254 C212 0.930 . S
H255 C213 0.930 . S
H256 C215 0.929 . S
H257 C216 0.930 1_554 S
H258 C217 0.930 . S
H259 C218 0.930 . S
H260 C222 0.929 . S
H261 C224 0.930 . S
H262 C230 0.929 . S
H263 C231 0.930 . S
Li264 N281 1.990 . S
Li264 O324 1.956 . S
Li264 O325 1.970 1_545 S
Li264 O326 1.961 . S
Li265 N289 1.990 . S
Li265 O324 1.970 1_565 S
Li265 O325 1.956 . S
Li265 O327 1.961 . S
Li266 N311 1.990 . S
Li266 O324 1.961 . S
Li266 O326 1.956 . S
Li266 O327 1.970 1_545 S
Li267 N317 1.990 . S
Li267 O325 1.961 . S
Li267 O326 1.970 1_565 S
Li267 O327 1.956 . S
C268 C270 1.348 . S
C268 C271 1.356 . S
C268 O324 1.325 . S
N269 C272 1.314 . S
N269 C273 1.279 . S
C270 C268 1.348 . S
C270 C272 1.353 . S
C270 H328 0.929 . S
C271 C268 1.356 . S
C271 C273 1.358 . S
C271 H329 0.930 . S
C272 N269 1.314 . S
C272 C270 1.353 . S
C272 H330 0.930 . S
C273 N269 1.279 . S
C273 C271 1.358 . S
C273 H331 0.930 . S
C274 C277 1.348 . S
C274 C278 1.356 . S
C274 O325 1.325 . S
C275 N276 1.279 . S
C275 C278 1.358 . S
C275 H332 0.930 . S
N276 C275 1.279 . S
N276 C279 1.314 . S
C277 C274 1.348 . S
C277 C279 1.353 . S
C277 H333 0.929 . S
C278 C274 1.356 . S
C278 C275 1.358 . S
C278 H334 0.930 . S
C279 N276 1.314 . S
C279 C277 1.353 . S
C279 H335 0.930 . S
C280 N281 1.314 1_565 S
C280 C285 1.353 . S
C280 H286 0.930 . S
N281 Li264 1.990 . S
N281 C280 1.314 1_545 S
N281 C283 1.279 . S
C282 C283 1.358 . S
C282 C284 1.356 . S
C282 H336 0.930 . S
C283 N281 1.279 . S
C283 C282 1.358 . S
C283 H287 0.930 . S
C284 C282 1.356 . S
C284 C285 1.348 1_545 S
C285 C280 1.353 . S
C285 C284 1.348 1_565 S
C285 H337 0.929 . S
H286 C280 0.930 . S
H287 C283 0.930 . S
C288 N289 1.314 . S
C288 C290 1.353 . S
C288 H294 0.930 1_565 S
N289 Li265 1.990 . S
N289 C288 1.314 . S
N289 C292 1.279 . S
C290 C288 1.353 . S
C290 C293 1.348 . S
C290 H338 0.929 . S
C291 C292 1.358 . S
C291 C293 1.356 . S
C291 H339 0.930 . S
C292 N289 1.279 . S
C292 C291 1.358 . S
C292 H295 0.930 . S
C293 C290 1.348 . S
C293 C291 1.356 . S
H294 C288 0.930 1_545 S
H295 C292 0.930 . S
C296 C298 1.348 . S
C296 C299 1.356 . S
C296 O326 1.325 . S
N297 C300 1.314 . S
N297 C301 1.279 . S
C298 C296 1.348 . S
C298 C300 1.353 . S
C298 H340 0.929 1_545 S
C299 C296 1.356 . S
C299 C301 1.358 . S
C299 H341 0.930 . S
C300 N297 1.314 . S
C300 C298 1.353 . S
C300 H342 0.930 . S
C301 N297 1.279 . S
C301 C299 1.358 . S
C301 H343 0.930 . S
C302 C303 1.348 1_565 S
C302 C304 1.356 . S
C302 O327 1.325 . S
C303 C302 1.348 1_545 S
C303 C305 1.353 . S
C303 H344 0.929 . S
C304 C302 1.356 . S
C304 C306 1.358 . S
C304 H345 0.930 . S
C305 C303 1.353 . S
C305 N307 1.314 1_545 S
C305 H346 0.930 . S
C306 C304 1.358 . S
C306 N307 1.279 . S
C306 H347 0.930 . S
N307 C305 1.314 1_565 S
N307 C306 1.279 . S
C308 C310 1.353 . S
C308 N311 1.314 . S
C308 H314 0.930 . S
C309 N311 1.279 . S
C309 C312 1.358 . S
C309 H315 0.930 . S
C310 C308 1.353 . S
C310 C313 1.348 . S
C310 H348 0.929 . S
N311 Li266 1.990 . S
N311 C308 1.314 . S
N311 C309 1.279 . S
C312 C309 1.358 . S
C312 C313 1.356 . S
C312 H349 0.930 . S
C313 C310 1.348 . S
C313 C312 1.356 . S
H314 C308 0.930 . S
H315 C309 0.930 . S
C316 N317 1.314 . S
C316 C318 1.353 . S
C316 H322 0.930 . S
N317 Li267 1.990 . S
N317 C316 1.314 . S
N317 C320 1.279 . S
C318 C316 1.353 . S
C318 C321 1.348 . S
C318 H350 0.929 . S
C319 C320 1.358 . S
C319 C321 1.356 . S
C319 H351 0.930 . S
C320 N317 1.279 . S
C320 C319 1.358 . S
C320 H323 0.930 . S
C321 C318 1.348 . S
C321 C319 1.356 . S
H322 C316 0.930 . S
H323 C320 0.930 . S
O324 Li264 1.956 . S
O324 Li265 1.970 1_545 S
O324 Li266 1.961 . S
O324 C268 1.325 . S
O325 Li264 1.970 1_565 S
O325 Li265 1.956 . S
O325 Li267 1.961 . S
O325 C274 1.325 . S
O326 Li264 1.961 . S
O326 Li266 1.956 . S
O326 Li267 1.970 1_545 S
O326 C296 1.325 . S
O327 Li265 1.961 . S
O327 Li266 1.970 1_565 S
O327 Li267 1.956 . S
O327 C302 1.325 . S
H328 C270 0.929 . S
H329 C271 0.930 . S
H330 C272 0.930 . S
H331 C273 0.930 . S
H332 C275 0.930 . S
H333 C277 0.929 . S
H334 C278 0.930 . S
H335 C279 0.930 . S
H336 C282 0.930 . S
H337 C285 0.929 . S
H338 C290 0.929 . S
H339 C291 0.930 . S
H340 C298 0.929 1_565 S
H341 C299 0.930 . S
H342 C300 0.930 . S
H343 C301 0.930 . S
H344 C303 0.929 . S
H345 C304 0.930 . S
H346 C305 0.930 . S
H347 C306 0.930 . S
H348 C310 0.929 . S
H349 C312 0.930 . S
H350 C318 0.929 . S
H351 C319 0.930 . S
Li352 N369 1.990 . S
Li352 O412 1.956 . S
Li352 O413 1.970 . S
Li352 O414 1.961 . S
Li353 N377 1.990 . S
Li353 O412 1.970 . S
Li353 O413 1.956 . S
Li353 O415 1.961 . S
Li354 N399 1.990 . S
Li354 O412 1.961 . S
Li354 O414 1.956 . S
Li354 O415 1.970 . S
Li355 N405 1.990 . S
Li355 O413 1.961 . S
Li355 O414 1.970 . S
Li355 O415 1.956 . S
C356 C358 1.348 . S
C356 C359 1.356 . S
C356 O412 1.325 . S
N357 C360 1.314 . S
N357 C361 1.279 . S
C358 C356 1.348 . S
C358 C360 1.353 . S
C358 H416 0.929 . S
C359 C356 1.356 . S
C359 C361 1.358 . S
C359 H417 0.930 . S
C360 N357 1.314 . S
C360 C358 1.353 . S
C360 H418 0.930 . S
C361 N357 1.279 . S
C361 C359 1.358 . S
C361 H419 0.930 . S
C362 C365 1.348 . S
C362 C366 1.356 . S
C362 O413 1.325 . S
C363 N364 1.279 . S
C363 C366 1.358 . S
C363 H420 0.930 . S
N364 C363 1.279 . S
N364 C367 1.314 . S
C365 C362 1.348 . S
C365 C367 1.353 . S
C365 H421 0.929 . S
C366 C362 1.356 . S
C366 C363 1.358 . S
C366 H422 0.930 . S
C367 N364 1.314 . S
C367 C365 1.353 . S
C367 H423 0.930 . S
C368 N369 1.314 . S
C368 C373 1.353 . S
C368 H374 0.930 . S
N369 Li352 1.990 . S
N369 C368 1.314 . S
N369 C371 1.279 . S
C370 C371 1.358 . S
C370 C372 1.356 . S
C370 H424 0.930 . S
C371 N369 1.279 . S
C371 C370 1.358 . S
C371 H375 0.930 . S
C372 C370 1.356 . S
C372 C373 1.348 . S
C373 C368 1.353 . S
C373 C372 1.348 . S
C373 H425 0.929 . S
H374 C368 0.930 . S
H375 C371 0.930 . S
C376 N377 1.314 . S
C376 C378 1.353 . S
C376 H382 0.930 . S
N377 Li353 1.990 . S
N377 C376 1.314 . S
N377 C380 1.279 . S
C378 C376 1.353 . S
C378 C381 1.348 . S
C378 H426 0.929 . S
C379 C380 1.358 . S
C379 C381 1.356 . S
C379 H427 0.930 . S
C380 N377 1.279 . S
C380 C379 1.358 . S
C380 H383 0.930 . S
C381 C378 1.348 . S
C381 C379 1.356 . S
H382 C376 0.930 . S
H383 C380 0.930 . S
C384 C386 1.348 . S
C384 C387 1.356 . S
C384 O414 1.325 . S
N385 C388 1.314 . S
N385 C389 1.279 . S
C386 C384 1.348 . S
C386 C388 1.353 . S
C386 H428 0.929 . S
C387 C384 1.356 . S
C387 C389 1.358 . S
C387 H429 0.930 . S
C388 N385 1.314 . S
C388 C386 1.353 . S
C388 H430 0.930 . S
C389 N385 1.279 . S
C389 C387 1.358 . S
C389 H431 0.930 . S
C390 C391 1.348 . S
C390 C392 1.356 . S
C390 O415 1.325 . S
C391 C390 1.348 . S
C391 C393 1.353 . S
C391 H432 0.929 . S
C392 C390 1.356 . S
C392 C394 1.358 . S
C392 H433 0.930 . S
C393 C391 1.353 . S
C393 N395 1.314 . S
C393 H434 0.930 . S
C394 C392 1.358 . S
C394 N395 1.279 . S
C394 H435 0.930 . S
N395 C393 1.314 . S
N395 C394 1.279 . S
C396 C398 1.353 . S
C396 N399 1.314 . S
C396 H402 0.930 . S
C397 N399 1.279 . S
C397 C400 1.358 . S
C397 H403 0.930 . S
C398 C396 1.353 . S
C398 C401 1.348 . S
C398 H436 0.929 . S
N399 Li354 1.990 . S
N399 C396 1.314 . S
N399 C397 1.279 . S
C400 C397 1.358 . S
C400 C401 1.356 . S
C400 H437 0.930 . S
C401 C398 1.348 . S
C401 C400 1.356 . S
H402 C396 0.930 . S
H403 C397 0.930 . S
C404 N405 1.314 . S
C404 C406 1.353 . S
C404 H410 0.930 . S
N405 Li355 1.990 . S
N405 C404 1.314 . S
N405 C408 1.279 . S
C406 C404 1.353 . S
C406 C409 1.348 . S
C406 H438 0.929 . S
C407 C408 1.358 . S
C407 C409 1.356 . S
C407 H439 0.930 . S
C408 N405 1.279 . S
C408 C407 1.358 . S
C408 H411 0.930 . S
C409 C406 1.348 . S
C409 C407 1.356 . S
H410 C404 0.930 . S
H411 C408 0.930 . S
O412 Li352 1.956 . S
O412 Li353 1.970 . S
O412 Li354 1.961 . S
O412 C356 1.325 . S
O413 Li352 1.970 . S
O413 Li353 1.956 . S
O413 Li355 1.961 . S
O413 C362 1.325 . S
O414 Li352 1.961 . S
O414 Li354 1.956 . S
O414 Li355 1.970 . S
O414 C384 1.325 . S
O415 Li353 1.961 . S
O415 Li354 1.970 . S
O415 Li355 1.956 . S
O415 C390 1.325 . S
H416 C358 0.929 . S
H417 C359 0.930 . S
H418 C360 0.930 . S
H419 C361 0.930 . S
H420 C363 0.930 . S
H421 C365 0.929 . S
H422 C366 0.930 . S
H423 C367 0.930 . S
H424 C370 0.930 . S
H425 C373 0.929 . S
H426 C378 0.929 . S
H427 C379 0.930 . S
H428 C386 0.929 . S
H429 C387 0.930 . S
H430 C388 0.930 . S
H431 C389 0.930 . S
H432 C391 0.929 . S
H433 C392 0.930 . S
H434 C393 0.930 . S
H435 C394 0.930 . S
H436 C398 0.929 . S
H437 C400 0.930 . S
H438 C406 0.929 . S
H439 C407 0.930 . S
Li440 N457 1.990 . S
Li440 O500 1.956 . S
Li440 O501 1.970 1_655 S
Li440 O502 1.961 . S
Li441 N465 1.990 1_556 S
Li441 O500 1.970 1_455 S
Li441 O501 1.956 . S
Li441 O503 1.961 . S
Li442 N487 1.990 . S
Li442 O500 1.961 . S
Li442 O502 1.956 . S
Li442 O503 1.970 1_655 S
Li443 N493 1.990 . S
Li443 O501 1.961 . S
Li443 O502 1.970 1_455 S
Li443 O503 1.956 . S
C444 C446 1.373 . S
C444 C447 1.345 1_554 S
C444 O500 1.311 1_554 S
N445 C448 1.314 . S
N445 C449 1.279 . S
C446 C444 1.373 . S
C446 C448 1.353 . S
C446 H504 0.929 . S
C447 C444 1.345 1_556 S
C447 C449 1.358 1_556 S
C447 H505 0.930 . S
C448 N445 1.314 . S
C448 C446 1.353 . S
C448 H506 0.930 . S
C449 N445 1.279 . S
C449 C447 1.358 1_554 S
C449 H507 0.930 1_554 S
C450 C453 1.348 . S
C450 C454 1.356 . S
C450 O501 1.325 . S
C451 N452 1.279 . S
C451 C454 1.358 . S
C451 H508 0.930 . S
N452 C451 1.279 . S
N452 C455 1.314 . S
C453 C450 1.348 . S
C453 C455 1.353 . S
C453 H509 0.929 . S
C454 C450 1.356 . S
C454 C451 1.358 . S
C454 H510 0.930 . S
C455 N452 1.314 . S
C455 C453 1.353 . S
C455 H511 0.930 . S
C456 N457 1.314 1_455 S
C456 C461 1.353 . S
C456 H462 0.930 . S
N457 Li440 1.990 . S
N457 C456 1.314 1_655 S
N457 C459 1.279 . S
C458 C459 1.358 . S
C458 C460 1.356 . S
C458 H512 0.930 . S
C459 N457 1.279 . S
C459 C458 1.358 . S
C459 H463 0.930 . S
C460 C458 1.356 . S
C460 C461 1.348 1_655 S
C461 C456 1.353 . S
C461 C460 1.348 1_455 S
C461 H513 0.929 . S
H462 C456 0.930 . S
H463 C459 0.930 . S
C464 N465 1.314 . S
C464 C466 1.353 . S
C464 H470 0.930 1_455 S
N465 Li441 1.990 1_554 S
N465 C464 1.314 . S
N465 C468 1.279 . S
C466 C464 1.353 . S
C466 C469 1.348 . S
C466 H514 0.929 . S
C467 C468 1.358 . S
C467 C469 1.356 . S
C467 H515 0.930 . S
C468 N465 1.279 . S
C468 C467 1.358 . S
C468 H471 0.930 . S
C469 C466 1.348 . S
C469 C467 1.356 . S
H470 C464 0.930 1_655 S
H471 C468 0.930 . S
C472 C474 1.348 . S
C472 C475 1.356 . S
C472 O502 1.325 . S
N473 C476 1.314 . S
N473 C477 1.279 . S
C474 C472 1.348 . S
C474 C476 1.353 . S
C474 H516 0.929 1_655 S
C475 C472 1.356 . S
C475 C477 1.358 . S
C475 H517 0.930 . S
C476 N473 1.314 . S
C476 C474 1.353 . S
C476 H518 0.930 . S
C477 N473 1.279 . S
C477 C475 1.358 . S
C477 H519 0.930 . S
C478 C479 1.348 1_455 S
C478 C480 1.356 . S
C478 O503 1.325 . S
C479 C478 1.348 1_655 S
C479 C481 1.353 . S
C479 H520 0.929 . S
C480 C478 1.356 . S
C480 C482 1.358 1_556 S
C480 H521 0.930 1_556 S
C481 C479 1.353 . S
C481 N483 1.314 1_655 S
C481 H522 0.930 . S
C482 C480 1.358 1_554 S
C482 N483 1.279 1_554 S
C482 H523 0.930 . S
N483 C481 1.314 1_455 S
N483 C482 1.279 1_556 S
C484 C486 1.353 . S
C484 N487 1.314 . S
C484 H490 0.930 . S
C485 N487 1.279 . S
C485 C488 1.358 . S
C485 H491 0.930 . S
C486 C484 1.353 . S
C486 C489 1.348 . S
C486 H524 0.929 . S
N487 Li442 1.990 . S
N487 C484 1.314 . S
N487 C485 1.279 . S
C488 C485 1.358 . S
C488 C489 1.356 . S
C488 H525 0.930 . S
C489 C486 1.348 . S
C489 C488 1.356 . S
H490 C484 0.930 . S
H491 C485 0.930 . S
C492 N493 1.314 . S
C492 C494 1.353 . S
C492 H498 0.930 . S
N493 Li443 1.990 . S
N493 C492 1.314 . S
N493 C496 1.279 . S
C494 C492 1.353 . S
C494 C497 1.348 . S
C494 H526 0.929 . S
C495 C496 1.358 . S
C495 C497 1.356 . S
C495 H527 0.930 . S
C496 N493 1.279 . S
C496 C495 1.358 . S
C496 H499 0.930 . S
C497 C494 1.348 . S
C497 C495 1.356 . S
H498 C492 0.930 . S
H499 C496 0.930 . S
O500 Li440 1.956 . S
O500 Li441 1.970 1_655 S
O500 Li442 1.961 . S
O500 C444 1.311 1_556 S
O501 Li440 1.970 1_455 S
O501 Li441 1.956 . S
O501 Li443 1.961 . S
O501 C450 1.325 . S
O502 Li440 1.961 . S
O502 Li442 1.956 . S
O502 Li443 1.970 1_655 S
O502 C472 1.325 . S
O503 Li441 1.961 . S
O503 Li442 1.970 1_455 S
O503 Li443 1.956 . S
O503 C478 1.325 . S
H504 C446 0.929 . S
H505 C447 0.930 . S
H506 C448 0.930 . S
H507 C449 0.930 1_556 S
H508 C451 0.930 . S
H509 C453 0.929 . S
H510 C454 0.930 . S
H511 C455 0.930 . S
H512 C458 0.930 . S
H513 C461 0.929 . S
H514 C466 0.929 . S
H515 C467 0.930 . S
H516 C474 0.929 1_455 S
H517 C475 0.930 . S
H518 C476 0.930 . S
H519 C477 0.930 . S
H520 C479 0.929 . S
H521 C480 0.930 1_554 S
H522 C481 0.930 . S
H523 C482 0.930 . S
H524 C486 0.929 . S
H525 C488 0.930 . S
H526 C494 0.929 . S
H527 C495 0.930 . S
Li528 N545 1.990 . S
Li528 O588 1.956 . S
Li528 O589 1.970 1_455 S
Li528 O590 1.961 . S
Li529 N553 1.990 . S
Li529 O588 1.970 1_655 S
Li529 O589 1.956 . S
Li529 O591 1.961 . S
Li530 N575 1.990 . S
Li530 O588 1.961 . S
Li530 O590 1.956 . S
Li530 O591 1.970 1_455 S
Li531 N581 1.990 . S
Li531 O589 1.961 . S
Li531 O590 1.970 1_655 S
Li531 O591 1.956 . S
C532 C534 1.348 . S
C532 C535 1.356 . S
C532 O588 1.325 . S
N533 C536 1.314 . S
N533 C537 1.279 . S
C534 C532 1.348 . S
C534 C536 1.353 . S
C534 H592 0.929 1_455 S
C535 C532 1.356 . S
C535 C537 1.358 . S
C535 H593 0.930 . S
C536 N533 1.314 . S
C536 C534 1.353 . S
C536 H594 0.930 . S
C537 N533 1.279 . S
C537 C535 1.358 . S
C537 H595 0.930 . S
C538 C541 1.348 1_655 S
C538 C542 1.356 . S
C538 O589 1.325 . S
C539 N540 1.279 . S
C539 C542 1.358 . S
C539 H596 0.930 . S
N540 C539 1.279 . S
N540 C543 1.314 1_655 S
C541 C538 1.348 1_455 S
C541 C543 1.353 . S
C541 H597 0.929 . S
C542 C538 1.356 . S
C542 C539 1.358 . S
C542 H598 0.930 . S
C543 N540 1.314 1_455 S
C543 C541 1.353 . S
C543 H599 0.930 . S
C544 N545 1.314 . S
C544 C549 1.353 . S
C544 H550 0.930 . S
N545 Li528 1.990 . S
N545 C544 1.314 . S
N545 C547 1.279 . S
C546 C547 1.358 . S
C546 C548 1.356 . S
C546 H600 0.930 . S
C547 N545 1.279 . S
C547 C546 1.358 . S
C547 H551 0.930 . S
C548 C546 1.356 . S
C548 C549 1.348 . S
C549 C544 1.353 . S
C549 C548 1.348 . S
C549 H601 0.929 . S
H550 C544 0.930 . S
H551 C547 0.930 . S
C552 N553 1.314 . S
C552 C554 1.353 . S
C552 H558 0.930 . S
N553 Li529 1.990 . S
N553 C552 1.314 . S
N553 C556 1.279 . S
C554 C552 1.353 . S
C554 C557 1.348 . S
C554 H602 0.929 . S
C555 C556 1.358 . S
C555 C557 1.356 . S
C555 H603 0.930 . S
C556 N553 1.279 . S
C556 C555 1.358 . S
C556 H559 0.930 . S
C557 C554 1.348 . S
C557 C555 1.356 . S
H558 C552 0.930 . S
H559 C556 0.930 . S
C560 C562 1.348 . S
C560 C563 1.356 . S
C560 O590 1.325 . S
N561 C564 1.314 . S
N561 C565 1.279 . S
C562 C560 1.348 . S
C562 C564 1.353 . S
C562 H604 0.929 . S
C563 C560 1.356 . S
C563 C565 1.358 . S
C563 H605 0.930 . S
C564 N561 1.314 . S
C564 C562 1.353 . S
C564 H606 0.930 . S
C565 N561 1.279 . S
C565 C563 1.358 . S
C565 H607 0.930 . S
C566 C567 1.348 . S
C566 C568 1.356 . S
C566 O591 1.325 . S
C567 C566 1.348 . S
C567 C569 1.353 . S
C567 H608 0.929 . S
C568 C566 1.356 . S
C568 C570 1.358 . S
C568 H609 0.930 . S
C569 C567 1.353 . S
C569 N571 1.314 . S
C569 H610 0.930 . S
C570 C568 1.358 . S
C570 N571 1.279 . S
C570 H611 0.930 . S
N571 C569 1.314 . S
N571 C570 1.279 . S
C572 C574 1.353 . S
C572 N575 1.314 1_655 S
C572 H578 0.930 . S
C573 N575 1.279 . S
C573 C576 1.358 . S
C573 H579 0.930 . S
C574 C572 1.353 . S
C574 C577 1.348 1_655 S
C574 H612 0.929 . S
N575 Li530 1.990 . S
N575 C572 1.314 1_455 S
N575 C573 1.279 . S
C576 C573 1.358 . S
C576 C577 1.356 . S
C576 H613 0.930 . S
C577 C574 1.348 1_455 S
C577 C576 1.356 . S
H578 C572 0.930 . S
H579 C573 0.930 . S
C580 N581 1.314 . S
C580 C582 1.353 . S
C580 H586 0.930 1_655 S
N581 Li531 1.990 . S
N581 C580 1.314 . S
N581 C584 1.279 . S
C582 C580 1.353 . S
C582 C585 1.348 . S
C582 H614 0.929 . S
C583 C584 1.358 . S
C583 C585 1.356 . S
C583 H615 0.930 . S
C584 N581 1.279 . S
C584 C583 1.358 . S
C584 H587 0.930 . S
C585 C582 1.348 . S
C585 C583 1.356 . S
H586 C580 0.930 1_455 S
H587 C584 0.930 . S
O588 Li528 1.956 . S
O588 Li529 1.970 1_455 S
O588 Li530 1.961 . S
O588 C532 1.325 . S
O589 Li528 1.970 1_655 S
O589 Li529 1.956 . S
O589 Li531 1.961 . S
O589 C538 1.325 . S
O590 Li528 1.961 . S
O590 Li530 1.956 . S
O590 Li531 1.970 1_455 S
O590 C560 1.325 . S
O591 Li529 1.961 . S
O591 Li530 1.970 1_655 S
O591 Li531 1.956 . S
O591 C566 1.325 . S
H592 C534 0.929 1_655 S
H593 C535 0.930 . S
H594 C536 0.930 . S
H595 C537 0.930 . S
H596 C539 0.930 . S
H597 C541 0.929 . S
H598 C542 0.930 . S
H599 C543 0.930 . S
H600 C546 0.930 . S
H601 C549 0.929 . S
H602 C554 0.929 . S
H603 C555 0.930 . S
H604 C562 0.929 . S
H605 C563 0.930 . S
H606 C564 0.930 . S
H607 C565 0.930 . S
H608 C567 0.929 . S
H609 C568 0.930 . S
H610 C569 0.930 . S
H611 C570 0.930 . S
H612 C574 0.929 . S
H613 C576 0.930 . S
H614 C582 0.929 . S
H615 C583 0.930 . S
Li616 N633 1.990 . S
Li616 O676 1.956 . S
Li616 O677 1.970 1_545 S
Li616 O678 1.961 . S
Li617 N641 1.990 . S
Li617 O676 1.970 1_565 S
Li617 O677 1.956 . S
Li617 O679 1.961 . S
Li618 N663 1.990 . S
Li618 O676 1.961 . S
Li618 O678 1.956 . S
Li618 O679 1.970 1_545 S
Li619 N669 1.990 . S
Li619 O677 1.961 . S
Li619 O678 1.970 1_565 S
Li619 O679 1.956 . S
C620 C622 1.348 . S
C620 C623 1.356 . S
C620 O676 1.325 . S
N621 C624 1.314 . S
N621 C625 1.279 . S
C622 C620 1.348 . S
C622 C624 1.353 . S
C622 H680 0.929 1_545 S
C623 C620 1.356 . S
C623 C625 1.358 . S
C623 H681 0.930 . S
C624 N621 1.314 . S
C624 C622 1.353 . S
C624 H682 0.930 . S
C625 N621 1.279 . S
C625 C623 1.358 . S
C625 H683 0.930 . S
C626 C629 1.348 1_565 S
C626 C630 1.356 . S
C626 O677 1.325 . S
C627 N628 1.279 . S
C627 C630 1.358 . S
C627 H684 0.930 . S
N628 C627 1.279 . S
N628 C631 1.314 1_565 S
C629 C626 1.348 1_545 S
C629 C631 1.353 . S
C629 H685 0.929 . S
C630 C626 1.356 . S
C630 C627 1.358 . S
C630 H686 0.930 . S
C631 N628 1.314 1_545 S
C631 C629 1.353 . S
C631 H687 0.930 . S
C632 N633 1.314 . S
C632 C637 1.353 . S
C632 H638 0.930 . S
N633 Li616 1.990 . S
N633 C632 1.314 . S
N633 C635 1.279 . S
C634 C635 1.358 . S
C634 C636 1.356 . S
C634 H688 0.930 . S
C635 N633 1.279 . S
C635 C634 1.358 . S
C635 H639 0.930 . S
C636 C634 1.356 . S
C636 C637 1.348 . S
C637 C632 1.353 . S
C637 C636 1.348 . S
C637 H689 0.929 . S
H638 C632 0.930 . S
H639 C635 0.930 . S
C640 N641 1.314 . S
C640 C642 1.353 . S
C640 H646 0.930 . S
N641 Li617 1.990 . S
N641 C640 1.314 . S
N641 C644 1.279 . S
C642 C640 1.353 . S
C642 C645 1.348 . S
C642 H690 0.929 . S
C643 C644 1.358 . S
C643 C645 1.356 . S
C643 H691 0.930 . S
C644 N641 1.279 . S
C644 C643 1.358 . S
C644 H647 0.930 . S
C645 C642 1.348 . S
C645 C643 1.356 . S
H646 C640 0.930 . S
H647 C644 0.930 . S
C648 C650 1.348 . S
C648 C651 1.356 . S
C648 O678 1.325 . S
N649 C652 1.314 . S
N649 C653 1.279 . S
C650 C648 1.348 . S
C650 C652 1.353 . S
C650 H692 0.929 . S
C651 C648 1.356 . S
C651 C653 1.358 . S
C651 H693 0.930 . S
C652 N649 1.314 . S
C652 C650 1.353 . S
C652 H694 0.930 . S
C653 N649 1.279 . S
C653 C651 1.358 . S
C653 H695 0.930 . S
C654 C655 1.348 . S
C654 C656 1.356 . S
C654 O679 1.325 . S
C655 C654 1.348 . S
C655 C657 1.353 . S
C655 H696 0.929 . S
C656 C654 1.356 . S
C656 C658 1.358 . S
C656 H697 0.930 . S
C657 C655 1.353 . S
C657 N659 1.314 . S
C657 H698 0.930 . S
C658 C656 1.358 . S
C658 N659 1.279 . S
C658 H699 0.930 . S
N659 C657 1.314 . S
N659 C658 1.279 . S
C660 C662 1.353 . S
C660 N663 1.314 1_565 S
C660 H666 0.930 . S
C661 N663 1.279 . S
C661 C664 1.358 . S
C661 H667 0.930 . S
C662 C660 1.353 . S
C662 C665 1.348 1_565 S
C662 H700 0.929 . S
N663 Li618 1.990 . S
N663 C660 1.314 1_545 S
N663 C661 1.279 . S
C664 C661 1.358 . S
C664 C665 1.356 . S
C664 H701 0.930 . S
C665 C662 1.348 1_545 S
C665 C664 1.356 . S
H666 C660 0.930 . S
H667 C661 0.930 . S
C668 N669 1.314 . S
C668 C670 1.353 . S
C668 H674 0.930 1_565 S
N669 Li619 1.990 . S
N669 C668 1.314 . S
N669 C672 1.279 . S
C670 C668 1.353 . S
C670 C673 1.348 . S
C670 H702 0.929 . S
C671 C672 1.358 . S
C671 C673 1.356 . S
C671 H703 0.930 . S
C672 N669 1.279 . S
C672 C671 1.358 . S
C672 H675 0.930 . S
C673 C670 1.348 . S
C673 C671 1.356 . S
H674 C668 0.930 1_545 S
H675 C672 0.930 . S
O676 Li616 1.956 . S
O676 Li617 1.970 1_545 S
O676 Li618 1.961 . S
O676 C620 1.325 . S
O677 Li616 1.970 1_565 S
O677 Li617 1.956 . S
O677 Li619 1.961 . S
O677 C626 1.325 . S
O678 Li616 1.961 . S
O678 Li618 1.956 . S
O678 Li619 1.970 1_545 S
O678 C648 1.325 . S
O679 Li617 1.961 . S
O679 Li618 1.970 1_565 S
O679 Li619 1.956 . S
O679 C654 1.325 . S
H680 C622 0.929 1_565 S
H681 C623 0.930 . S
H682 C624 0.930 . S
H683 C625 0.930 . S
H684 C627 0.930 . S
H685 C629 0.929 . S
H686 C630 0.930 . S
H687 C631 0.930 . S
H688 C634 0.930 . S
H689 C637 0.929 . S
H690 C642 0.929 . S
H691 C643 0.930 . S
H692 C650 0.929 . S
H693 C651 0.930 . S
H694 C652 0.930 . S
H695 C653 0.930 . S
H696 C655 0.929 . S
H697 C656 0.930 . S
H698 C657 0.930 . S
H699 C658 0.930 . S
H700 C662 0.929 . S
H701 C664 0.930 . S
H702 C670 0.929 . S
H703 C671 0.930 . S
Li704 N721 1.990 . S
Li704 O764 1.956 . S
Li704 O765 1.970 . S
Li704 O766 1.961 . S
Li705 N729 1.990 . S
Li705 O764 1.970 . S
Li705 O765 1.956 . S
Li705 O767 1.961 . S
Li706 N751 1.990 . S
Li706 O764 1.961 . S
Li706 O766 1.956 . S
Li706 O767 1.970 . S
Li707 N757 1.990 1_554 S
Li707 O765 1.961 . S
Li707 O766 1.970 . S
Li707 O767 1.956 . S
C708 C710 1.348 . S
C708 C711 1.356 . S
C708 O764 1.325 . S
N709 C712 1.314 . S
N709 C713 1.279 . S
C710 C708 1.348 . S
C710 C712 1.353 . S
C710 H768 0.929 . S
C711 C708 1.356 . S
C711 C713 1.358 . S
C711 H769 0.930 . S
C712 N709 1.314 . S
C712 C710 1.353 . S
C712 H770 0.930 . S
C713 N709 1.279 . S
C713 C711 1.358 . S
C713 H771 0.930 . S
C714 C717 1.348 . S
C714 C718 1.356 . S
C714 O765 1.325 . S
C715 N716 1.279 1_556 S
C715 C718 1.358 1_556 S
C715 H772 0.930 . S
N716 C715 1.279 1_554 S
N716 C719 1.314 . S
C717 C714 1.348 . S
C717 C719 1.353 . S
C717 H773 0.929 . S
C718 C714 1.356 . S
C718 C715 1.358 1_554 S
C718 H774 0.930 1_554 S
C719 N716 1.314 . S
C719 C717 1.353 . S
C719 H775 0.930 . S
C720 N721 1.314 . S
C720 C725 1.353 . S
C720 H726 0.930 . S
N721 Li704 1.990 . S
N721 C720 1.314 . S
N721 C723 1.279 . S
C722 C723 1.358 . S
C722 C724 1.356 . S
C722 H776 0.930 . S
C723 N721 1.279 . S
C723 C722 1.358 . S
C723 H727 0.930 . S
C724 C722 1.356 . S
C724 C725 1.348 . S
C725 C720 1.353 . S
C725 C724 1.348 . S
C725 H777 0.929 . S
H726 C720 0.930 . S
H727 C723 0.930 . S
C728 N729 1.314 . S
C728 C730 1.353 . S
C728 H734 0.930 . S
N729 Li705 1.990 . S
N729 C728 1.314 . S
N729 C732 1.279 . S
C730 C728 1.353 . S
C730 C733 1.348 . S
C730 H778 0.929 . S
C731 C732 1.358 . S
C731 C733 1.356 . S
C731 H779 0.930 . S
C732 N729 1.279 . S
C732 C731 1.358 . S
C732 H735 0.930 . S
C733 C730 1.348 . S
C733 C731 1.356 . S
H734 C728 0.930 . S
H735 C732 0.930 . S
C736 C738 1.349 1_554 S
C736 C739 1.355 . S
C736 O766 1.324 . S
N737 C740 1.314 . S
N737 C741 1.279 . S
C738 C736 1.349 1_556 S
C738 C740 1.353 . S
C738 H780 0.929 . S
C739 C736 1.355 . S
C739 C741 1.358 1_554 S
C739 H781 0.930 . S
C740 N737 1.314 . S
C740 C738 1.353 . S
C740 H782 0.930 . S
C741 N737 1.279 . S
C741 C739 1.358 1_556 S
C741 H783 0.930 1_556 S
C742 C743 1.348 . S
C742 C744 1.356 . S
C742 O767 1.325 . S
C743 C742 1.348 . S
C743 C745 1.353 . S
C743 H784 0.929 . S
C744 C742 1.356 . S
C744 C746 1.358 . S
C744 H785 0.930 . S
C745 C743 1.353 . S
C745 N747 1.314 . S
C745 H786 0.930 . S
C746 C744 1.358 . S
C746 N747 1.279 . S
C746 H787 0.930 . S
N747 C745 1.314 . S
N747 C746 1.279 . S
C748 C750 1.353 . S
C748 N751 1.314 . S
C748 H754 0.930 . S
C749 N751 1.279 . S
C749 C752 1.358 . S
C749 H755 0.930 . S
C750 C748 1.353 . S
C750 C753 1.348 . S
C750 H788 0.929 . S
N751 Li706 1.990 . S
N751 C748 1.314 . S
N751 C749 1.279 . S
C752 C749 1.358 . S
C752 C753 1.356 . S
C752 H789 0.930 . S
C753 C750 1.348 . S
C753 C752 1.356 . S
H754 C748 0.930 . S
H755 C749 0.930 . S
C756 N757 1.314 . S
C756 C758 1.353 . S
C756 H762 0.930 . S
N757 Li707 1.990 1_556 S
N757 C756 1.314 . S
N757 C760 1.279 . S
C758 C756 1.353 . S
C758 C761 1.348 . S
C758 H790 0.929 . S
C759 C760 1.358 . S
C759 C761 1.356 . S
C759 H791 0.930 . S
C760 N757 1.279 . S
C760 C759 1.358 . S
C760 H763 0.930 . S
C761 C758 1.348 . S
C761 C759 1.356 . S
H762 C756 0.930 . S
H763 C760 0.930 . S
O764 Li704 1.956 . S
O764 Li705 1.970 . S
O764 Li706 1.961 . S
O764 C708 1.325 . S
O765 Li704 1.970 . S
O765 Li705 1.956 . S
O765 Li707 1.961 . S
O765 C714 1.325 . S
O766 Li704 1.961 . S
O766 Li706 1.956 . S
O766 Li707 1.970 . S
O766 C736 1.324 . S
O767 Li705 1.961 . S
O767 Li706 1.970 . S
O767 Li707 1.956 . S
O767 C742 1.325 . S
H768 C710 0.929 . S
H769 C711 0.930 . S
H770 C712 0.930 . S
H771 C713 0.930 . S
H772 C715 0.930 . S
H773 C717 0.929 . S
H774 C718 0.930 1_556 S
H775 C719 0.930 . S
H776 C722 0.930 . S
H777 C725 0.929 . S
H778 C730 0.929 . S
H779 C731 0.930 . S
H780 C738 0.929 . S
H781 C739 0.930 . S
H782 C740 0.930 . S
H783 C741 0.930 1_554 S
H784 C743 0.929 . S
H785 C744 0.930 . S
H786 C745 0.930 . S
H787 C746 0.930 . S
H788 C750 0.929 . S
H789 C752 0.930 . S
H790 C758 0.929 . S
H791 C759 0.930 . S
Li792 N809 1.990 . S
Li792 O852 1.956 . S
Li792 O853 1.970 1_455 S
Li792 O854 1.961 . S
Li793 N817 1.990 . S
Li793 O852 1.970 1_655 S
Li793 O853 1.956 . S
Li793 O855 1.961 . S
Li794 N839 1.990 . S
Li794 O852 1.961 . S
Li794 O854 1.956 . S
Li794 O855 1.970 1_455 S
Li795 N845 1.990 . S
Li795 O853 1.961 . S
Li795 O854 1.970 1_655 S
Li795 O855 1.956 . S
C796 C798 1.348 1_455 S
C796 C799 1.356 . S
C796 O852 1.325 . S
N797 C800 1.314 1_455 S
N797 C801 1.279 . S
C798 C796 1.348 1_655 S
C798 C800 1.353 . S
C798 H856 0.929 . S
C799 C796 1.356 . S
C799 C801 1.358 . S
C799 H857 0.930 . S
C800 N797 1.314 1_655 S
C800 C798 1.353 . S
C800 H858 0.930 . S
C801 N797 1.279 . S
C801 C799 1.358 . S
C801 H859 0.930 . S
C802 C805 1.348 . S
C802 C806 1.356 . S
C802 O853 1.325 . S
C803 N804 1.279 . S
C803 C806 1.358 . S
C803 H860 0.930 . S
N804 C803 1.279 . S
N804 C807 1.314 . S
C805 C802 1.348 . S
C805 C807 1.353 . S
C805 H861 0.929 1_655 S
C806 C802 1.356 . S
C806 C803 1.358 . S
C806 H862 0.930 . S
C807 N804 1.314 . S
C807 C805 1.353 . S
C807 H863 0.930 . S
C808 N809 1.314 . S
C808 C813 1.353 . S
C808 H814 0.930 . S
N809 Li792 1.990 . S
N809 C808 1.314 . S
N809 C811 1.279 . S
C810 C811 1.358 . S
C810 C812 1.356 . S
C810 H864 0.930 . S
C811 N809 1.279 . S
C811 C810 1.358 . S
C811 H815 0.930 . S
C812 C810 1.356 . S
C812 C813 1.348 . S
C813 C808 1.353 . S
C813 C812 1.348 . S
C813 H865 0.929 . S
H814 C808 0.930 . S
H815 C811 0.930 . S
C816 N817 1.314 . S
C816 C818 1.353 . S
C816 H822 0.930 . S
N817 Li793 1.990 . S
N817 C816 1.314 . S
N817 C820 1.279 . S
C818 C816 1.353 . S
C818 C821 1.348 . S
C818 H866 0.929 . S
C819 C820 1.358 . S
C819 C821 1.356 . S
C819 H867 0.930 . S
C820 N817 1.279 . S
C820 C819 1.358 . S
C820 H823 0.930 . S
C821 C818 1.348 . S
C821 C819 1.356 . S
H822 C816 0.930 . S
H823 C820 0.930 . S
C824 C826 1.348 . S
C824 C827 1.356 . S
C824 O854 1.325 . S
N825 C828 1.314 . S
N825 C829 1.279 . S
C826 C824 1.348 . S
C826 C828 1.353 . S
C826 H868 0.929 . S
C827 C824 1.356 . S
C827 C829 1.358 . S
C827 H869 0.930 . S
C828 N825 1.314 . S
C828 C826 1.353 . S
C828 H870 0.930 . S
C829 N825 1.279 . S
C829 C827 1.358 . S
C829 H871 0.930 . S
C830 C831 1.348 . S
C830 C832 1.356 . S
C830 O855 1.325 . S
C831 C830 1.348 . S
C831 C833 1.353 . S
C831 H872 0.929 . S
C832 C830 1.356 . S
C832 C834 1.358 . S
C832 H873 0.930 . S
C833 C831 1.353 . S
C833 N835 1.314 . S
C833 H874 0.930 . S
C834 C832 1.358 . S
C834 N835 1.279 . S
C834 H875 0.930 . S
N835 C833 1.314 . S
N835 C834 1.279 . S
C836 C838 1.353 . S
C836 N839 1.314 . S
C836 H842 0.930 1_455 S
C837 N839 1.279 . S
C837 C840 1.358 . S
C837 H843 0.930 . S
C838 C836 1.353 . S
C838 C841 1.348 . S
C838 H876 0.929 . S
N839 Li794 1.990 . S
N839 C836 1.314 . S
N839 C837 1.279 . S
C840 C837 1.358 . S
C840 C841 1.356 . S
C840 H877 0.930 . S
C841 C838 1.348 . S
C841 C840 1.356 . S
H842 C836 0.930 1_655 S
H843 C837 0.930 . S
C844 N845 1.314 1_455 S
C844 C846 1.353 . S
C844 H850 0.930 . S
N845 Li795 1.990 . S
N845 C844 1.314 1_655 S
N845 C848 1.279 . S
C846 C844 1.353 . S
C846 C849 1.348 1_455 S
C846 H878 0.929 . S
C847 C848 1.358 . S
C847 C849 1.356 . S
C847 H879 0.930 . S
C848 N845 1.279 . S
C848 C847 1.358 . S
C848 H851 0.930 . S
C849 C846 1.348 1_655 S
C849 C847 1.356 . S
H850 C844 0.930 . S
H851 C848 0.930 . S
O852 Li792 1.956 . S
O852 Li793 1.970 1_455 S
O852 Li794 1.961 . S
O852 C796 1.325 . S
O853 Li792 1.970 1_655 S
O853 Li793 1.956 . S
O853 Li795 1.961 . S
O853 C802 1.325 . S
O854 Li792 1.961 . S
O854 Li794 1.956 . S
O854 Li795 1.970 1_455 S
O854 C824 1.325 . S
O855 Li793 1.961 . S
O855 Li794 1.970 1_655 S
O855 Li795 1.956 . S
O855 C830 1.325 . S
H856 C798 0.929 . S
H857 C799 0.930 . S
H858 C800 0.930 . S
H859 C801 0.930 . S
H860 C803 0.930 . S
H861 C805 0.929 1_455 S
H862 C806 0.930 . S
H863 C807 0.930 . S
H864 C810 0.930 . S
H865 C813 0.929 . S
H866 C818 0.929 . S
H867 C819 0.930 . S
H868 C826 0.929 . S
H869 C827 0.930 . S
H870 C828 0.930 . S
H871 C829 0.930 . S
H872 C831 0.929 . S
H873 C832 0.930 . S
H874 C833 0.930 . S
H875 C834 0.930 . S
H876 C838 0.929 . S
H877 C840 0.930 . S
H878 C846 0.929 . S
H879 C847 0.930 . S
Li880 N897 1.990 . S
Li880 O940 1.956 . S
Li880 O941 1.970 1_545 S
Li880 O942 1.961 . S
Li881 N905 1.990 . S
Li881 O940 1.970 1_565 S
Li881 O941 1.956 . S
Li881 O943 1.961 . S
Li882 N927 1.990 . S
Li882 O940 1.961 . S
Li882 O942 1.956 . S
Li882 O943 1.970 1_545 S
Li883 N933 1.990 . S
Li883 O941 1.961 . S
Li883 O942 1.970 1_565 S
Li883 O943 1.956 . S
C884 C886 1.348 1_545 S
C884 C887 1.356 . S
C884 O940 1.325 . S
N885 C888 1.314 1_545 S
N885 C889 1.279 . S
C886 C884 1.348 1_565 S
C886 C888 1.353 . S
C886 H944 0.929 . S
C887 C884 1.356 . S
C887 C889 1.358 . S
C887 H945 0.930 . S
C888 N885 1.314 1_565 S
C888 C886 1.353 . S
C888 H946 0.930 . S
C889 N885 1.279 . S
C889 C887 1.358 . S
C889 H947 0.930 . S
C890 C893 1.348 . S
C890 C894 1.356 . S
C890 O941 1.325 . S
C891 N892 1.279 . S
C891 C894 1.358 . S
C891 H948 0.930 . S
N892 C891 1.279 . S
N892 C895 1.314 . S
C893 C890 1.348 . S
C893 C895 1.353 . S
C893 H949 0.929 1_565 S
C894 C890 1.356 . S
C894 C891 1.358 . S
C894 H950 0.930 . S
C895 N892 1.314 . S
C895 C893 1.353 . S
C895 H951 0.930 . S
C896 N897 1.314 . S
C896 C901 1.353 . S
C896 H902 0.930 . S
N897 Li880 1.990 . S
N897 C896 1.314 . S
N897 C899 1.279 . S
C898 C899 1.358 . S
C898 C900 1.356 . S
C898 H952 0.930 . S
C899 N897 1.279 . S
C899 C898 1.358 . S
C899 H903 0.930 . S
C900 C898 1.356 . S
C900 C901 1.348 . S
C901 C896 1.353 . S
C901 C900 1.348 . S
C901 H953 0.929 . S
H902 C896 0.930 . S
H903 C899 0.930 . S
C904 N905 1.314 . S
C904 C906 1.353 . S
C904 H910 0.930 . S
N905 Li881 1.990 . S
N905 C904 1.314 . S
N905 C908 1.279 . S
C906 C904 1.353 . S
C906 C909 1.348 . S
C906 H954 0.929 . S
C907 C908 1.358 . S
C907 C909 1.356 . S
C907 H955 0.930 . S
C908 N905 1.279 . S
C908 C907 1.358 . S
C908 H911 0.930 . S
C909 C906 1.348 . S
C909 C907 1.356 . S
H910 C904 0.930 . S
H911 C908 0.930 . S
C912 C914 1.348 . S
C912 C915 1.356 . S
C912 O942 1.325 . S
N913 C916 1.314 . S
N913 C917 1.279 . S
C914 C912 1.348 . S
C914 C916 1.353 . S
C914 H956 0.929 . S
C915 C912 1.356 . S
C915 C917 1.358 . S
C915 H957 0.930 . S
C916 N913 1.314 . S
C916 C914 1.353 . S
C916 H958 0.930 . S
C917 N913 1.279 . S
C917 C915 1.358 . S
C917 H959 0.930 . S
C918 C919 1.348 . S
C918 C920 1.356 . S
C918 O943 1.325 . S
C919 C918 1.348 . S
C919 C921 1.353 . S
C919 H960 0.929 . S
C920 C918 1.356 . S
C920 C922 1.358 . S
C920 H961 0.930 . S
C921 C919 1.353 . S
C921 N923 1.314 . S
C921 H962 0.930 . S
C922 C920 1.358 . S
C922 N923 1.279 . S
C922 H963 0.930 . S
N923 C921 1.314 . S
N923 C922 1.279 . S
C924 C926 1.353 . S
C924 N927 1.314 . S
C924 H930 0.930 1_545 S
C925 N927 1.279 . S
C925 C928 1.358 . S
C925 H931 0.930 . S
C926 C924 1.353 . S
C926 C929 1.348 . S
C926 H964 0.929 . S
N927 Li882 1.990 . S
N927 C924 1.314 . S
N927 C925 1.279 . S
C928 C925 1.358 . S
C928 C929 1.356 . S
C928 H965 0.930 . S
C929 C926 1.348 . S
C929 C928 1.356 . S
H930 C924 0.930 1_565 S
H931 C925 0.930 . S
C932 N933 1.314 1_545 S
C932 C934 1.353 . S
C932 H938 0.930 . S
N933 Li883 1.990 . S
N933 C932 1.314 1_565 S
N933 C936 1.279 . S
C934 C932 1.353 . S
C934 C937 1.348 1_545 S
C934 H966 0.929 . S
C935 C936 1.358 . S
C935 C937 1.356 . S
C935 H967 0.930 . S
C936 N933 1.279 . S
C936 C935 1.358 . S
C936 H939 0.930 . S
C937 C934 1.348 1_565 S
C937 C935 1.356 . S
H938 C932 0.930 . S
H939 C936 0.930 . S
O940 Li880 1.956 . S
O940 Li881 1.970 1_545 S
O940 Li882 1.961 . S
O940 C884 1.325 . S
O941 Li880 1.970 1_565 S
O941 Li881 1.956 . S
O941 Li883 1.961 . S
O941 C890 1.325 . S
O942 Li880 1.961 . S
O942 Li882 1.956 . S
O942 Li883 1.970 1_545 S
O942 C912 1.325 . S
O943 Li881 1.961 . S
O943 Li882 1.970 1_565 S
O943 Li883 1.956 . S
O943 C918 1.325 . S
H944 C886 0.929 . S
H945 C887 0.930 . S
H946 C888 0.930 . S
H947 C889 0.930 . S
H948 C891 0.930 . S
H949 C893 0.929 1_545 S
H950 C894 0.930 . S
H951 C895 0.930 . S
H952 C898 0.930 . S
H953 C901 0.929 . S
H954 C906 0.929 . S
H955 C907 0.930 . S
H956 C914 0.929 . S
H957 C915 0.930 . S
H958 C916 0.930 . S
H959 C917 0.930 . S
H960 C919 0.929 . S
H961 C920 0.930 . S
H962 C921 0.930 . S
H963 C922 0.930 . S
H964 C926 0.929 . S
H965 C928 0.930 . S
H966 C934 0.929 . S
H967 C935 0.930 . S
Li968 N985 1.990 . S
Li968 O1028 1.956 . S
Li968 O1029 1.970 . S
Li968 O1030 1.961 . S
Li969 N993 1.990 . S
Li969 O1028 1.970 . S
Li969 O1029 1.956 . S
Li969 O1031 1.961 . S
Li970 N1015 1.990 1_554 S
Li970 O1028 1.961 . S
Li970 O1030 1.956 . S
Li970 O1031 1.970 . S
Li971 N1021 1.990 . S
Li971 O1029 1.961 . S
Li971 O1030 1.970 . S
Li971 O1031 1.956 . S
C972 C974 1.348 . S
C972 C975 1.356 . S
C972 O1028 1.325 . S
N973 C976 1.314 . S
N973 C977 1.279 1_554 S
C974 C972 1.348 . S
C974 C976 1.353 . S
C974 H1032 0.929 . S
C975 C972 1.356 . S
C975 C977 1.358 1_554 S
C975 H1033 0.930 1_554 S
C976 N973 1.314 . S
C976 C974 1.353 . S
C976 H1034 0.930 . S
C977 N973 1.279 1_556 S
C977 C975 1.358 1_556 S
C977 H1035 0.930 . S
C978 C981 1.348 . S
C978 C982 1.356 . S
C978 O1029 1.325 . S
C979 N980 1.279 . S
C979 C982 1.358 . S
C979 H1036 0.930 . S
N980 C979 1.279 . S
N980 C983 1.314 . S
C981 C978 1.348 . S
C981 C983 1.353 . S
C981 H1037 0.929 . S
C982 C978 1.356 . S
C982 C979 1.358 . S
C982 H1038 0.930 . S
C983 N980 1.314 . S
C983 C981 1.353 . S
C983 H1039 0.930 . S
C984 N985 1.314 . S
C984 C989 1.353 . S
C984 H990 0.930 . S
N985 Li968 1.990 . S
N985 C984 1.314 . S
N985 C987 1.279 . S
C986 C987 1.358 . S
C986 C988 1.356 . S
C986 H1040 0.930 . S
C987 N985 1.279 . S
C987 C986 1.358 . S
C987 H991 0.930 . S
C988 C986 1.356 . S
C988 C989 1.348 . S
C989 C984 1.353 . S
C989 C988 1.348 . S
C989 H1041 0.929 . S
H990 C984 0.930 . S
H991 C987 0.930 . S
C992 N993 1.314 . S
C992 C994 1.353 . S
C992 H998 0.930 . S
N993 Li969 1.990 . S
N993 C992 1.314 . S
N993 C996 1.279 . S
C994 C992 1.353 . S
C994 C997 1.348 . S
C994 H1042 0.929 . S
C995 C996 1.358 . S
C995 C997 1.356 . S
C995 H1043 0.930 . S
C996 N993 1.279 . S
C996 C995 1.358 . S
C996 H999 0.930 . S
C997 C994 1.348 . S
C997 C995 1.356 . S
H998 C992 0.930 . S
H999 C996 0.930 . S
C1000 C1002 1.348 . S
C1000 C1003 1.356 . S
C1000 O1030 1.325 . S
N1001 C1004 1.314 . S
N1001 C1005 1.279 . S
C1002 C1000 1.348 . S
C1002 C1004 1.353 . S
C1002 H1044 0.929 . S
C1003 C1000 1.356 . S
C1003 C1005 1.358 . S
C1003 H1045 0.930 . S
C1004 N1001 1.314 . S
C1004 C1002 1.353 . S
C1004 H1046 0.930 . S
C1005 N1001 1.279 . S
C1005 C1003 1.358 . S
C1005 H1047 0.930 . S
C1006 C1007 1.349 1_554 S
C1006 C1008 1.355 . S
C1006 O1031 1.324 . S
C1007 C1006 1.349 1_556 S
C1007 C1009 1.353 . S
C1007 H1048 0.929 . S
C1008 C1006 1.355 . S
C1008 C1010 1.358 1_554 S
C1008 H1049 0.930 . S
C1009 C1007 1.353 . S
C1009 N1011 1.314 . S
C1009 H1050 0.930 . S
C1010 C1008 1.358 1_556 S
C1010 N1011 1.279 . S
C1010 H1051 0.930 1_556 S
N1011 C1009 1.314 . S
N1011 C1010 1.279 . S
C1012 C1014 1.353 . S
C1012 N1015 1.314 . S
C1012 H1018 0.930 . S
C1013 N1015 1.279 . S
C1013 C1016 1.358 . S
C1013 H1019 0.930 . S
C1014 C1012 1.353 . S
C1014 C1017 1.348 . S
C1014 H1052 0.929 . S
N1015 Li970 1.990 1_556 S
N1015 C1012 1.314 . S
N1015 C1013 1.279 . S
C1016 C1013 1.358 . S
C1016 C1017 1.356 . S
C1016 H1053 0.930 . S
C1017 C1014 1.348 . S
C1017 C1016 1.356 . S
H1018 C1012 0.930 . S
H1019 C1013 0.930 . S
C1020 N1021 1.314 . S
C1020 C1022 1.353 . S
C1020 H1026 0.930 . S
N1021 Li971 1.990 . S
N1021 C1020 1.314 . S
N1021 C1024 1.279 . S
C1022 C1020 1.353 . S
C1022 C1025 1.348 . S
C1022 H1054 0.929 . S
C1023 C1024 1.358 . S
C1023 C1025 1.356 . S
C1023 H1055 0.930 . S
C1024 N1021 1.279 . S
C1024 C1023 1.358 . S
C1024 H1027 0.930 . S
C1025 C1022 1.348 . S
C1025 C1023 1.356 . S
H1026 C1020 0.930 . S
H1027 C1024 0.930 . S
O1028 Li968 1.956 . S
O1028 Li969 1.970 . S
O1028 Li970 1.961 . S
O1028 C972 1.325 . S
O1029 Li968 1.970 . S
O1029 Li969 1.956 . S
O1029 Li971 1.961 . S
O1029 C978 1.325 . S
O1030 Li968 1.961 . S
O1030 Li970 1.956 . S
O1030 Li971 1.970 . S
O1030 C1000 1.325 . S
O1031 Li969 1.961 . S
O1031 Li970 1.970 . S
O1031 Li971 1.956 . S
O1031 C1006 1.324 . S
H1032 C974 0.929 . S
H1033 C975 0.930 1_556 S
H1034 C976 0.930 . S
H1035 C977 0.930 . S
H1036 C979 0.930 . S
H1037 C981 0.929 . S
H1038 C982 0.930 . S
H1039 C983 0.930 . S
H1040 C986 0.930 . S
H1041 C989 0.929 . S
H1042 C994 0.929 . S
H1043 C995 0.930 . S
H1044 C1002 0.929 . S
H1045 C1003 0.930 . S
H1046 C1004 0.930 . S
H1047 C1005 0.930 . S
H1048 C1007 0.929 . S
H1049 C1008 0.930 . S
H1050 C1009 0.930 . S
H1051 C1010 0.930 1_554 S
H1052 C1014 0.929 . S
H1053 C1016 0.930 . S
H1054 C1022 0.929 . S
H1055 C1023 0.930 . S
C1056 C1057 1.369 . S
C1056 C1058 1.419 . S
C1056 H1060 0.930 . S
C1057 C1056 1.369 . S
C1057 C1066 1.429 . S
C1058 C1056 1.419 . S
C1058 C1059 1.363 . S
C1058 H1061 0.929 . S
C1059 C1058 1.363 . S
C1059 C1065 1.428 . S
H1060 C1056 0.930 . S
H1061 C1058 0.929 . S
S1062 N1063 1.613 . S
S1062 N1064 1.610 . S
N1063 S1062 1.613 . S
N1063 C1066 1.350 . S
N1064 S1062 1.610 . S
N1064 C1065 1.351 . S
C1065 C1059 1.428 . S
C1065 N1064 1.351 . S
C1065 C1066 1.434 . S
C1066 C1057 1.429 . S
C1066 N1063 1.350 . S
C1066 C1065 1.434 . S
C1067 C1068 1.369 . S
C1067 C1069 1.419 . S
C1067 H1071 0.930 . S
C1068 C1067 1.369 . S
C1068 C1077 1.429 . S
C1069 C1067 1.419 . S
C1069 C1070 1.363 . S
C1069 H1072 0.929 . S
C1070 C1069 1.363 . S
C1070 C1076 1.428 . S
H1071 C1067 0.930 . S
H1072 C1069 0.929 . S
S1073 N1074 1.613 . S
S1073 N1075 1.610 . S
N1074 S1073 1.613 . S
N1074 C1077 1.350 . S
N1075 S1073 1.610 . S
N1075 C1076 1.351 . S
C1076 C1070 1.428 . S
C1076 N1075 1.351 . S
C1076 C1077 1.434 . S
C1077 C1068 1.429 . S
C1077 N1074 1.350 . S
C1077 C1076 1.434 . S
C1078 C1079 1.369 . S
C1078 C1080 1.419 . S
C1078 H1082 0.930 . S
C1079 C1078 1.369 . S
C1079 C1088 1.429 . S
C1080 C1078 1.419 . S
C1080 C1081 1.363 . S
C1080 H1083 0.929 . S
C1081 C1080 1.363 . S
C1081 C1087 1.428 . S
H1082 C1078 0.930 . S
H1083 C1080 0.929 . S
S1084 N1085 1.613 . S
S1084 N1086 1.610 . S
N1085 S1084 1.613 . S
N1085 C1088 1.350 . S
N1086 S1084 1.610 . S
N1086 C1087 1.351 . S
C1087 C1081 1.428 . S
C1087 N1086 1.351 . S
C1087 C1088 1.434 . S
C1088 C1079 1.429 . S
C1088 N1085 1.350 . S
C1088 C1087 1.434 . S
C1089 C1090 1.369 . S
C1089 C1091 1.419 . S
C1089 H1093 0.930 . S
C1090 C1089 1.369 . S
C1090 C1099 1.429 . S
C1091 C1089 1.419 . S
C1091 C1092 1.363 . S
C1091 H1094 0.929 . S
C1092 C1091 1.363 . S
C1092 C1098 1.428 . S
H1093 C1089 0.930 . S
H1094 C1091 0.929 . S
S1095 N1096 1.613 . S
S1095 N1097 1.610 . S
N1096 S1095 1.613 . S
N1096 C1099 1.350 . S
N1097 S1095 1.610 . S
N1097 C1098 1.351 . S
C1098 C1092 1.428 . S
C1098 N1097 1.351 . S
C1098 C1099 1.434 . S
C1099 C1090 1.429 . S
C1099 N1096 1.350 . S
C1099 C1098 1.434 . S
C1100 C1101 1.369 . S
C1100 C1102 1.419 . S
C1100 H1104 0.930 . S
C1101 C1100 1.369 . S
C1101 C1110 1.429 . S
C1102 C1100 1.419 . S
C1102 C1103 1.363 . S
C1102 H1105 0.929 . S
C1103 C1102 1.363 . S
C1103 C1109 1.428 . S
H1104 C1100 0.930 . S
H1105 C1102 0.929 . S
S1106 N1107 1.613 . S
S1106 N1108 1.610 . S
N1107 S1106 1.613 . S
N1107 C1110 1.350 . S
N1108 S1106 1.610 . S
N1108 C1109 1.351 . S
C1109 C1103 1.428 . S
C1109 N1108 1.351 . S
C1109 C1110 1.434 . S
C1110 C1101 1.429 . S
C1110 N1107 1.350 . S
C1110 C1109 1.434 . S
C1111 C1112 1.369 . S
C1111 C1113 1.419 . S
C1111 H1115 0.930 . S
C1112 C1111 1.369 . S
C1112 C1121 1.429 . S
C1113 C1111 1.419 . S
C1113 C1114 1.363 . S
C1113 H1116 0.929 . S
C1114 C1113 1.363 . S
C1114 C1120 1.428 . S
H1115 C1111 0.930 . S
H1116 C1113 0.929 . S
S1117 N1118 1.613 . S
S1117 N1119 1.610 . S
N1118 S1117 1.613 . S
N1118 C1121 1.350 . S
N1119 S1117 1.610 . S
N1119 C1120 1.351 . S
C1120 C1114 1.428 . S
C1120 N1119 1.351 . S
C1120 C1121 1.434 . S
C1121 C1112 1.429 . S
C1121 N1118 1.350 . S
C1121 C1120 1.434 . S
C1122 C1123 1.369 . S
C1122 C1124 1.419 . S
C1122 H1126 0.930 . S
C1123 C1122 1.369 . S
C1123 C1132 1.429 1_565 S
C1124 C1122 1.419 . S
C1124 C1125 1.363 1_565 S
C1124 H1127 0.929 . S
C1125 C1124 1.363 1_545 S
C1125 C1131 1.428 . S
H1126 C1122 0.930 . S
H1127 C1124 0.929 . S
S1128 N1129 1.613 . S
S1128 N1130 1.610 . S
N1129 S1128 1.613 . S
N1129 C1132 1.350 . S
N1130 S1128 1.610 . S
N1130 C1131 1.351 . S
C1131 C1125 1.428 . S
C1131 N1130 1.351 . S
C1131 C1132 1.434 . S
C1132 C1123 1.429 1_545 S
C1132 N1129 1.350 . S
C1132 C1131 1.434 . S
C1133 C1134 1.369 . S
C1133 C1135 1.419 . S
C1133 H1137 0.930 . S
C1134 C1133 1.369 . S
C1134 C1143 1.429 . S
C1135 C1133 1.419 . S
C1135 C1136 1.363 . S
C1135 H1138 0.929 . S
C1136 C1135 1.363 . S
C1136 C1142 1.428 . S
H1137 C1133 0.930 . S
H1138 C1135 0.929 . S
S1139 N1140 1.613 . S
S1139 N1141 1.610 . S
N1140 S1139 1.613 . S
N1140 C1143 1.350 . S
N1141 S1139 1.610 . S
N1141 C1142 1.351 . S
C1142 C1136 1.428 . S
C1142 N1141 1.351 . S
C1142 C1143 1.434 . S
C1143 C1134 1.429 . S
C1143 N1140 1.350 . S
C1143 C1142 1.434 . S
C1144 C1145 1.369 . S
C1144 C1146 1.419 1_655 S
C1144 H1148 0.930 . S
C1145 C1144 1.369 . S
C1145 C1154 1.429 . S
C1146 C1144 1.419 1_455 S
C1146 C1147 1.363 . S
C1146 H1149 0.929 . S
C1147 C1146 1.363 . S
C1147 C1153 1.428 . S
H1148 C1144 0.930 . S
H1149 C1146 0.929 . S
S1150 N1151 1.596 1_454 S
S1150 N1152 1.593 1_554 S
N1151 S1150 1.596 1_656 S
N1151 C1154 1.350 . S
N1152 S1150 1.593 1_556 S
N1152 C1153 1.351 . S
C1153 C1147 1.428 . S
C1153 N1152 1.351 . S
C1153 C1154 1.434 1_455 S
C1154 C1145 1.429 . S
C1154 N1151 1.350 . S
C1154 C1153 1.434 1_655 S
C1155 C1156 1.369 1_655 S
C1155 C1157 1.419 . S
C1155 H1159 0.930 . S
C1156 C1155 1.369 1_455 S
C1156 C1165 1.429 . S
C1157 C1155 1.419 . S
C1157 C1158 1.363 . S
C1157 H1160 0.929 . S
C1158 C1157 1.363 . S
C1158 C1164 1.428 1_655 S
H1159 C1155 0.930 . S
H1160 C1157 0.929 . S
S1161 N1162 1.613 . S
S1161 N1163 1.610 . S
N1162 S1161 1.613 . S
N1162 C1165 1.350 . S
N1163 S1161 1.610 . S
N1163 C1164 1.351 . S
C1164 C1158 1.428 1_455 S
C1164 N1163 1.351 . S
C1164 C1165 1.434 . S
C1165 C1156 1.429 . S
C1165 N1162 1.350 . S
C1165 C1164 1.434 . S
C1166 C1167 1.369 . S
C1166 C1168 1.419 1_565 S
C1166 H1170 0.930 . S
C1167 C1166 1.369 . S
C1167 C1176 1.429 . S
C1168 C1166 1.419 1_545 S
C1168 C1169 1.363 . S
C1168 H1171 0.929 . S
C1169 C1168 1.363 . S
C1169 C1175 1.428 . S
H1170 C1166 0.930 . S
H1171 C1168 0.929 . S
S1172 N1173 1.613 . S
S1172 N1174 1.610 1_565 S
N1173 S1172 1.613 . S
N1173 C1176 1.350 . S
N1174 S1172 1.610 1_545 S
N1174 C1175 1.351 . S
C1175 C1169 1.428 . S
C1175 N1174 1.351 . S
C1175 C1176 1.434 1_545 S
C1176 C1167 1.429 . S
C1176 N1173 1.350 . S
C1176 C1175 1.434 1_565 S
C1177 C1178 1.369 . S
C1177 C1179 1.419 . S
C1177 H1181 0.930 . S
C1178 C1177 1.369 . S
C1178 C1187 1.429 . S
C1179 C1177 1.419 . S
C1179 C1180 1.363 . S
C1179 H1182 0.929 . S
C1180 C1179 1.363 . S
C1180 C1186 1.428 . S
H1181 C1177 0.930 . S
H1182 C1179 0.929 . S
S1183 N1184 1.613 . S
S1183 N1185 1.610 . S
N1184 S1183 1.613 . S
N1184 C1187 1.350 . S
N1185 S1183 1.610 . S
N1185 C1186 1.351 . S
C1186 C1180 1.428 . S
C1186 N1185 1.351 . S
C1186 C1187 1.434 . S
C1187 C1178 1.429 . S
C1187 N1184 1.350 . S
C1187 C1186 1.434 . S
C1188 C1189 1.369 . S
C1188 C1190 1.419 . S
C1188 H1192 0.930 . S
C1189 C1188 1.369 . S
C1189 C1198 1.429 . S
C1190 C1188 1.419 . S
C1190 C1191 1.363 . S
C1190 H1193 0.929 . S
C1191 C1190 1.363 . S
C1191 C1197 1.428 . S
H1192 C1188 0.930 . S
H1193 C1190 0.929 . S
S1194 N1195 1.613 . S
S1194 N1196 1.610 . S
N1195 S1194 1.613 . S
N1195 C1198 1.350 . S
N1196 S1194 1.610 . S
N1196 C1197 1.351 . S
C1197 C1191 1.428 . S
C1197 N1196 1.351 . S
C1197 C1198 1.434 . S
C1198 C1189 1.429 . S
C1198 N1195 1.350 . S
C1198 C1197 1.434 . S
C1199 C1200 1.369 . S
C1199 C1201 1.419 . S
C1199 H1203 0.930 . S
C1200 C1199 1.369 . S
C1200 C1209 1.429 . S
C1201 C1199 1.419 . S
C1201 C1202 1.363 . S
C1201 H1204 0.929 . S
C1202 C1201 1.363 . S
C1202 C1208 1.428 . S
H1203 C1199 0.930 . S
H1204 C1201 0.929 . S
S1205 N1206 1.613 . S
S1205 N1207 1.610 . S
N1206 S1205 1.613 . S
N1206 C1209 1.350 . S
N1207 S1205 1.610 . S
N1207 C1208 1.351 . S
C1208 C1202 1.428 . S
C1208 N1207 1.351 . S
C1208 C1209 1.434 . S
C1209 C1200 1.429 . S
C1209 N1206 1.350 . S
C1209 C1208 1.434 . S
C1210 C1211 1.369 . S
C1210 C1212 1.419 1_554 S
C1210 H1214 0.930 . S
C1211 C1210 1.369 . S
C1211 C1220 1.429 . S
C1212 C1210 1.419 1_556 S
C1212 C1213 1.363 . S
C1212 H1215 0.929 . S
C1213 C1212 1.363 . S
C1213 C1219 1.428 . S
H1214 C1210 0.930 . S
H1215 C1212 0.929 . S
S1216 N1217 1.613 . S
S1216 N1218 1.610 1_554 S
N1217 S1216 1.613 . S
N1217 C1220 1.350 . S
N1218 S1216 1.610 1_556 S
N1218 C1219 1.351 . S
C1219 C1213 1.428 . S
C1219 N1218 1.351 . S
C1219 C1220 1.434 1_556 S
C1220 C1211 1.429 . S
C1220 N1217 1.350 . S
C1220 C1219 1.434 1_554 S
C1221 C1222 1.369 . S
C1221 C1223 1.419 . S
C1221 H1225 0.930 . S
C1222 C1221 1.369 . S
C1222 C1231 1.429 . S
C1223 C1221 1.419 . S
C1223 C1224 1.363 . S
C1223 H1226 0.929 . S
C1224 C1223 1.363 . S
C1224 C1230 1.428 . S
H1225 C1221 0.930 . S
H1226 C1223 0.929 . S
S1227 N1228 1.613 . S
S1227 N1229 1.610 . S
N1228 S1227 1.613 . S
N1228 C1231 1.350 . S
N1229 S1227 1.610 . S
N1229 C1230 1.351 . S
C1230 C1224 1.428 . S
C1230 N1229 1.351 . S
C1230 C1231 1.434 . S
C1231 C1222 1.429 . S
C1231 N1228 1.350 . S
C1231 C1230 1.434 . S
C1232 C1233 1.369 . S
C1232 C1234 1.419 . S
C1232 H1236 0.930 . S
C1233 C1232 1.369 . S
C1233 C1242 1.429 . S
C1234 C1232 1.419 . S
C1234 C1235 1.363 . S
C1234 H1237 0.929 . S
C1235 C1234 1.363 . S
C1235 C1241 1.428 . S
H1236 C1232 0.930 . S
H1237 C1234 0.929 . S
S1238 N1239 1.613 . S
S1238 N1240 1.610 . S
N1239 S1238 1.613 . S
N1239 C1242 1.350 . S
N1240 S1238 1.610 . S
N1240 C1241 1.351 . S
C1241 C1235 1.428 . S
C1241 N1240 1.351 . S
C1241 C1242 1.434 . S
C1242 C1233 1.429 . S
C1242 N1239 1.350 . S
C1242 C1241 1.434 . S
C1243 C1244 1.369 . S
C1243 C1245 1.419 1_554 S
C1243 H1247 0.930 . S
C1244 C1243 1.369 . S
C1244 C1253 1.429 . S
C1245 C1243 1.419 1_556 S
C1245 C1246 1.363 . S
C1245 H1248 0.929 . S
C1246 C1245 1.363 . S
C1246 C1252 1.428 . S
H1247 C1243 0.930 . S
H1248 C1245 0.929 . S
S1249 N1250 1.613 1_556 S
S1249 N1251 1.610 . S
N1250 S1249 1.613 1_554 S
N1250 C1253 1.350 . S
N1251 S1249 1.610 . S
N1251 C1252 1.351 . S
C1252 C1246 1.428 . S
C1252 N1251 1.351 . S
C1252 C1253 1.434 1_556 S
C1253 C1244 1.429 . S
C1253 N1250 1.350 . S
C1253 C1252 1.434 1_554 S
C1254 C1255 1.369 . S
C1254 C1256 1.419 . S
C1254 H1258 0.930 . S
C1255 C1254 1.369 . S
C1255 C1264 1.429 1_545 S
C1256 C1254 1.419 . S
C1256 C1257 1.363 1_545 S
C1256 H1259 0.929 . S
C1257 C1256 1.363 1_565 S
C1257 C1263 1.428 . S
H1258 C1254 0.930 . S
H1259 C1256 0.929 . S
S1260 N1261 1.613 . S
S1260 N1262 1.610 . S
N1261 S1260 1.613 . S
N1261 C1264 1.350 . S
N1262 S1260 1.610 . S
N1262 C1263 1.351 . S
C1263 C1257 1.428 . S
C1263 N1262 1.351 . S
C1263 C1264 1.434 . S
C1264 C1255 1.429 1_565 S
C1264 N1261 1.350 . S
C1264 C1263 1.434 . S
C1265 C1266 1.369 . S
C1265 C1267 1.419 . S
C1265 H1269 0.930 . S
C1266 C1265 1.369 . S
C1266 C1275 1.429 . S
C1267 C1265 1.419 . S
C1267 C1268 1.363 . S
C1267 H1270 0.929 . S
C1268 C1267 1.363 . S
C1268 C1274 1.428 . S
H1269 C1265 0.930 . S
H1270 C1267 0.929 . S
S1271 N1272 1.613 . S
S1271 N1273 1.610 . S
N1272 S1271 1.613 . S
N1272 C1275 1.350 . S
N1273 S1271 1.610 . S
N1273 C1274 1.351 . S
C1274 C1268 1.428 . S
C1274 N1273 1.351 . S
C1274 C1275 1.434 . S
C1275 C1266 1.429 . S
C1275 N1272 1.350 . S
C1275 C1274 1.434 . S
C1276 C1277 1.369 . S
C1276 C1278 1.419 1_455 S
C1276 H1280 0.930 . S
C1277 C1276 1.369 . S
C1277 C1286 1.429 . S
C1278 C1276 1.419 1_655 S
C1278 C1279 1.363 . S
C1278 H1281 0.929 . S
C1279 C1278 1.363 . S
C1279 C1285 1.428 . S
H1280 C1276 0.930 . S
H1281 C1278 0.929 . S
S1282 N1283 1.613 . S
S1282 N1284 1.611 . S
N1283 S1282 1.613 . S
N1283 C1286 1.350 . S
N1284 S1282 1.611 . S
N1284 C1285 1.351 1_455 S
C1285 C1279 1.428 . S
C1285 N1284 1.351 1_655 S
C1285 C1286 1.434 1_655 S
C1286 C1277 1.429 . S
C1286 N1283 1.350 . S
C1286 C1285 1.434 1_455 S
C1287 C1288 1.369 . S
C1287 C1289 1.419 . S
C1287 H1291 0.930 . S
C1288 C1287 1.369 . S
C1288 C1297 1.429 1_565 S
C1289 C1287 1.419 . S
C1289 C1290 1.363 1_565 S
C1289 H1292 0.929 . S
C1290 C1289 1.363 1_545 S
C1290 C1296 1.428 . S
H1291 C1287 0.930 . S
H1292 C1289 0.929 . S
S1293 N1294 1.613 . S
S1293 N1295 1.610 . S
N1294 S1293 1.613 . S
N1294 C1297 1.350 . S
N1295 S1293 1.610 . S
N1295 C1296 1.351 . S
C1296 C1290 1.428 . S
C1296 N1295 1.351 . S
C1296 C1297 1.434 . S
C1297 C1288 1.429 1_545 S
C1297 N1294 1.350 . S
C1297 C1296 1.434 . S
C1298 C1299 1.369 . S
C1298 C1300 1.419 . S
C1298 H1302 0.930 . S
C1299 C1298 1.369 . S
C1299 C1308 1.429 . S
C1300 C1298 1.419 . S
C1300 C1301 1.363 . S
C1300 H1303 0.929 . S
C1301 C1300 1.363 . S
C1301 C1307 1.428 . S
H1302 C1298 0.930 . S
H1303 C1300 0.929 . S
S1304 N1305 1.613 . S
S1304 N1306 1.610 . S
N1305 S1304 1.613 . S
N1305 C1308 1.350 . S
N1306 S1304 1.610 . S
N1306 C1307 1.351 . S
C1307 C1301 1.428 . S
C1307 N1306 1.351 . S
C1307 C1308 1.434 . S
C1308 C1299 1.429 . S
C1308 N1305 1.350 . S
C1308 C1307 1.434 . S
C1309 C1310 1.369 . S
C1309 C1311 1.419 1_655 S
C1309 H1313 0.930 . S
C1310 C1309 1.369 . S
C1310 C1319 1.429 . S
C1311 C1309 1.419 1_455 S
C1311 C1312 1.363 . S
C1311 H1314 0.929 . S
C1312 C1311 1.363 . S
C1312 C1318 1.428 . S
H1313 C1309 0.930 . S
H1314 C1311 0.929 . S
S1315 N1316 1.613 . S
S1315 N1317 1.610 1_655 S
N1316 S1315 1.613 . S
N1316 C1319 1.350 . S
N1317 S1315 1.610 1_455 S
N1317 C1318 1.351 . S
C1318 C1312 1.428 . S
C1318 N1317 1.351 . S
C1318 C1319 1.434 1_455 S
C1319 C1310 1.429 . S
C1319 N1316 1.350 . S
C1319 C1318 1.434 1_655 S
C1057 C57 1.864 . S
C1059 C733 1.861 . S
C1068 C145 1.866 . S
C1070 C812 1.860 . S
C1079 C900 1.818 . S
C1081 C233 1.813 . S
C1090 C988 1.863 . S
C1092 C321 1.861 . S
C1101 C557 1.864 . S
C1103 C401 1.861 . S
C1112 C645 1.818 . S
C1114 C497 1.812 . S
C1123 C20 1.587 . S
C1125 C284 1.594 . S
C1134 C381 1.590 . S
C1136 C108 1.593 . S
C1145 C460 1.538 . S
C1147 C196 1.533 . S
C1156 C577 1.588 . S
C1158 C849 1.590 . S
C1167 C937 1.543 . S
C1169 C665 1.536 . S
C1178 C753 1.592 . S
C1180 C1025 1.588 . S
C1189 C548 1.968 . S
C1191 C49 1.960 . S
C1200 C137 1.946 . S
C1202 C636 1.939 . S
C1211 C724 1.946 . S
C1213 C225 1.939 . S
C1222 C821 1.956 . S
C1224 C313 1.969 . S
C1233 C409 1.947 . S
C1235 C909 1.938 . S
C1244 C997 1.936 . S
C1246 C489 1.947 . S
C1255 C29 1.206 . S
C1257 C673 1.220 . S
C1266 C761 1.160 . S
C1268 C117 1.173 . S
C1277 C841 1.214 . S
C1279 C205 1.211 . S
C1288 C293 1.203 . S
C1290 C929 1.221 . S
C1299 C1017 1.161 . S
C1301 C372 1.173 . S
C1310 C585 1.212 . S
C1312 C469 1.213 . S
