# Generated by pormake.
# Topology uoj, (4)-cn, num edge types: 1
# Building blocks:
#     Node 0, Type 0, BuildingBlock: KUFVIS_clean_sbu_0, # of connection points: 4
#     Node 1, Type 0, BuildingBlock: KUFVIS_clean_sbu_0, # of connection points: 4
#     Node 2, Type 0, BuildingBlock: KUFVIS_clean_sbu_0, # of connection points: 4
#     Node 3, Type 0, BuildingBlock: KUFVIS_clean_sbu_0, # of connection points: 4
#     Node 4, Type 0, BuildingBlock: KUFVIS_clean_sbu_0, # of connection points: 4
#     Node 5, Type 0, BuildingBlock: KUFVIS_clean_sbu_0, # of connection points: 4
#     Node 6, Type 0, BuildingBlock: KUFVIS_clean_sbu_0, # of connection points: 4
#     Node 7, Type 0, BuildingBlock: KUFVIS_clean_sbu_0, # of connection points: 4
#     Edge 8, Type (0, 0), BuildingBlock: TEMPAE_clean_linker_10, # of connection points: 2
#     Edge 9, Type (0, 0), BuildingBlock: TEMPAE_clean_linker_10, # of connection points: 2
#     Edge 10, Type (0, 0), BuildingBlock: TEMPAE_clean_linker_10, # of connection points: 2
#     Edge 11, Type (0, 0), BuildingBlock: TEMPAE_clean_linker_10, # of connection points: 2
#     Edge 12, Type (0, 0), BuildingBlock: TEMPAE_clean_linker_10, # of connection points: 2
#     Edge 13, Type (0, 0), BuildingBlock: TEMPAE_clean_linker_10, # of connection points: 2
#     Edge 14, Type (0, 0), BuildingBlock: TEMPAE_clean_linker_10, # of connection points: 2
#     Edge 15, Type (0, 0), BuildingBlock: TEMPAE_clean_linker_10, # of connection points: 2
#     Edge 16, Type (0, 0), BuildingBlock: TEMPAE_clean_linker_10, # of connection points: 2
#     Edge 17, Type (0, 0), BuildingBlock: TEMPAE_clean_linker_10, # of connection points: 2
#     Edge 18, Type (0, 0), BuildingBlock: TEMPAE_clean_linker_10, # of connection points: 2
#     Edge 19, Type (0, 0), BuildingBlock: TEMPAE_clean_linker_10, # of connection points: 2
#     Edge 20, Type (0, 0), BuildingBlock: TEMPAE_clean_linker_10, # of connection points: 2
#     Edge 21, Type (0, 0), BuildingBlock: TEMPAE_clean_linker_10, # of connection points: 2
#     Edge 22, Type (0, 0), BuildingBlock: TEMPAE_clean_linker_10, # of connection points: 2
#     Edge 23, Type (0, 0), BuildingBlock: TEMPAE_clean_linker_10, # of connection points: 2
# Relax obj value: 0.138
# Max RMSD: 0.160
# Mean RMSD: 0.160
data_MOF--net-uoj--node1-KUFVIS_clean_sbu_0--edge1-TEMPAE_clean_linker_10
_symmetry_space_group_name_H-M    P1
_symmetry_Int_Tables_number       1
_symmetry_cell_setting            triclinic
loop_
_symmetry_equiv_pos_as_xyz
'x, y, z'
_cell_length_a     33.182934
_cell_length_b     33.07157
_cell_length_c     36.121723
_cell_angle_alpha  90.037265
_cell_angle_beta   89.962419
_cell_angle_gamma 89.884065
loop_
_atom_site_label
_atom_site_type_symbol
_atom_site_fract_x
_atom_site_fract_y
_atom_site_fract_z
_atom_type_partial_charge
Mn0 Mn 0.07702 0.29597 0.42801 0.0
Mn1 Mn 0.05883 0.31064 0.51934 0.0
C2 C 0.04781 0.35549 0.4468 0.0
C3 C 0.11911 0.29714 0.37666 0.0
C4 C 0.00515 0.26085 0.46974 0.0
O5 O 0.10933 0.25181 0.45244 0.0
O6 O 0.09763 0.26514 0.51253 0.0
C7 C 0.13989 0.33889 0.54145 0.0
N8 N 0.09928 0.34464 0.54027 0.0
C9 C 0.10401 0.4043 0.57814 0.0
C10 C 0.14592 0.399 0.57988 0.0
C11 C 0.16395 0.36628 0.56127 0.0
C12 C 0.08168 0.37624 0.55769 0.0
H13 H 0.15372 0.31348 0.52755 0.0
C14 C 0.11392 0.24423 0.48669 0.0
O15 O 0.0888 0.27256 0.37861 0.0
O16 O 0.12597 0.32014 0.40513 0.0
N17 N 0.02193 0.35308 0.5316 0.0
C18 C 0.98157 0.35539 0.52496 0.0
C19 C 0.95917 0.38734 0.54034 0.0
C20 C 0.97828 0.41593 0.5631 0.0
C21 C 0.01977 0.41271 0.5698 0.0
C22 C 0.0406 0.38048 0.55342 0.0
H23 H 0.96666 0.33303 0.50804 0.0
O24 O 0.0456 0.34342 0.41268 0.0
O25 O 0.06923 0.33315 0.46939 0.0
O26 O 0.02491 0.26596 0.4399 0.0
O27 O 0.01528 0.27579 0.50092 0.0
C28 C 0.04141 0.44053 0.59163 0.0
C29 C 0.08354 0.43645 0.59564 0.0
H30 H 0.16456 0.41996 0.59526 0.0
H31 H 0.19627 0.36203 0.56244 0.0
H32 H 0.92717 0.38969 0.53499 0.0
H33 H 0.96084 0.4403 0.57521 0.0
H34 H 0.0261 0.46572 0.60474 0.0
H35 H 0.09997 0.4585 0.61185 0.0
Mn36 Mn 0.29782 0.9145 0.57455 0.0
Mn37 Mn 0.31766 0.93216 0.48456 0.0
C38 C 0.35675 0.94572 0.55832 0.0
C39 C 0.2986 0.8756 0.6281 0.0
C40 C 0.26745 0.98794 0.53022 0.0
O41 O 0.25918 0.87692 0.54938 0.0
O42 O 0.26762 0.89959 0.49135 0.0
C43 C 0.33631 0.84653 0.46677 0.0
N44 N 0.34668 0.88636 0.46603 0.0
C45 C 0.40601 0.87187 0.43001 0.0
C46 C 0.39585 0.83074 0.43023 0.0
C47 C 0.36099 0.818 0.44892 0.0
C48 C 0.38058 0.89881 0.44876 0.0
H49 H 0.30938 0.83655 0.48073 0.0
C50 C 0.24928 0.87818 0.51551 0.0
O51 O 0.27191 0.90383 0.6232 0.0
O52 O 0.32387 0.86893 0.60132 0.0
N53 N 0.3643 0.96279 0.4712 0.0
C54 C 0.37065 0.00331 0.4746 0.0
C55 C 0.4043 0.02092 0.4575 0.0
C56 C 0.43063 0.99686 0.43642 0.0
C57 C 0.42346 0.95529 0.43313 0.0
C58 C 0.38946 0.93942 0.45085 0.0
H59 H 0.35016 0.02199 0.49022 0.0
O60 O 0.34127 0.9503 0.59105 0.0
O61 O 0.33764 0.92191 0.53531 0.0
O62 O 0.26448 0.964 0.55783 0.0
O63 O 0.28899 0.9806 0.50174 0.0
C64 C 0.44884 0.92894 0.41313 0.0
C65 C 0.44035 0.88719 0.41189 0.0
H66 H 0.41464 0.80868 0.41624 0.0
H67 H 0.35298 0.78629 0.4493 0.0
H68 H 0.4097 0.05305 0.46022 0.0
H69 H 0.45632 0.01055 0.42294 0.0
H70 H 0.47529 0.94036 0.39906 0.0
H71 H 0.46043 0.86714 0.39692 0.0
Mn72 Mn 0.92247 0.69994 0.42455 0.0
Mn73 Mn 0.93027 0.68296 0.51669 0.0
C74 C 0.94407 0.63765 0.44439 0.0
C75 C 0.88492 0.70341 0.37054 0.0
C76 C 0.9922 0.72907 0.47207 0.0
O77 O 0.89349 0.74751 0.44742 0.0
O78 O 0.89421 0.73016 0.50763 0.0
C79 C 0.84634 0.65806 0.53211 0.0
N80 N 0.88664 0.65054 0.53393 0.0
C81 C 0.87591 0.59079 0.57054 0.0
C82 C 0.83425 0.5979 0.56917 0.0
C83 C 0.8194 0.63156 0.54967 0.0
C84 C 0.90121 0.61801 0.55219 0.0
H85 H 0.83495 0.6842 0.51753 0.0
C86 C 0.88411 0.75373 0.4811 0.0
O87 O 0.91792 0.72387 0.3745 0.0
O88 O 0.87261 0.68209 0.39852 0.0
N89 N 0.96407 0.63875 0.53095 0.0
C90 C 0.00477 0.63478 0.52744 0.0
C91 C 0.02434 0.60187 0.54424 0.0
C92 C 0.00202 0.57401 0.56521 0.0
C93 C 0.9602 0.57886 0.56862 0.0
C94 C 0.94232 0.61202 0.55098 0.0
H95 H 0.02214 0.6566 0.51198 0.0
O96 O 0.94949 0.64943 0.41053 0.0
O97 O 0.92317 0.66185 0.46582 0.0
O98 O 0.97638 0.72386 0.44034 0.0
O99 O 0.97685 0.71622 0.50223 0.0
C100 C 0.93547 0.55183 0.58841 0.0
C101 C 0.89332 0.55765 0.58918 0.0
H102 H 0.81339 0.57765 0.58283 0.0
H103 H 0.78729 0.63721 0.54845 0.0
H104 H 0.05661 0.59824 0.54142 0.0
H105 H 0.01726 0.54896 0.57852 0.0
H106 H 0.94847 0.52595 0.6024 0.0
H107 H 0.87455 0.5362 0.60384 0.0
Mn108 Mn 0.69773 0.08402 0.56265 0.0
Mn109 Mn 0.67419 0.06479 0.47377 0.0
C110 C 0.63884 0.05142 0.54921 0.0
C111 C 0.69749 0.12394 0.61562 0.0
C112 C 0.72774 0.01058 0.51781 0.0
O113 O 0.73465 0.12177 0.5356 0.0
O114 O 0.72383 0.09849 0.47807 0.0
C115 C 0.65268 0.14961 0.45576 0.0
N116 N 0.64316 0.10956 0.45607 0.0
C117 C 0.58145 0.12212 0.42305 0.0
C118 C 0.59068 0.16346 0.42222 0.0
C119 C 0.62634 0.17728 0.43886 0.0
C120 C 0.6086 0.09606 0.44071 0.0
H121 H 0.6802 0.16038 0.46817 0.0
C122 C 0.743 0.12031 0.50137 0.0
O123 O 0.72487 0.09639 0.61051 0.0
O124 O 0.67161 0.12957 0.58921 0.0
N125 N 0.62763 0.03286 0.46306 0.0
C126 C 0.62218 0.99236 0.46778 0.0
C127 C 0.5877 0.97378 0.45307 0.0
C128 C 0.55964 0.99685 0.43301 0.0
C129 C 0.56591 0.03843 0.42841 0.0
C130 C 0.60074 0.0553 0.4438 0.0
H131 H 0.64389 0.97445 0.48278 0.0
O132 O 0.65585 0.04776 0.58135 0.0
O133 O 0.65643 0.07519 0.52516 0.0
O134 O 0.73117 0.03468 0.54535 0.0
O135 O 0.70495 0.01747 0.4901 0.0
C136 C 0.53878 0.06388 0.40946 0.0
C137 C 0.54635 0.10575 0.40708 0.0
H138 H 0.57057 0.18486 0.409 0.0
H139 H 0.63365 0.20915 0.43843 0.0
H140 H 0.58294 0.94169 0.45689 0.0
H141 H 0.53327 0.98241 0.42143 0.0
H142 H 0.51169 0.05168 0.39709 0.0
H143 H 0.52492 0.12511 0.39299 0.0
Mn144 Mn 0.41306 0.79566 0.93619 0.0
Mn145 Mn 0.43607 0.81262 0.0261 0.0
C146 C 0.44764 0.85308 0.95211 0.0
C147 C 0.3706 0.79934 0.88518 0.0
C148 C 0.48412 0.75683 0.97736 0.0
O149 O 0.3763 0.75697 0.96291 0.0
O150 O 0.39598 0.76819 0.02163 0.0
C151 C 0.35654 0.84454 0.04928 0.0
N152 N 0.39726 0.84877 0.04694 0.0
C153 C 0.39533 0.91026 0.08254 0.0
C154 C 0.35335 0.90651 0.08546 0.0
C155 C 0.33386 0.87363 0.06857 0.0
C156 C 0.41625 0.88053 0.06268 0.0
H157 H 0.34155 0.81906 0.03666 0.0
C158 C 0.37495 0.74949 0.9974 0.0
O159 O 0.3981 0.77157 0.88778 0.0
O160 O 0.36662 0.82406 0.9129 0.0
N161 N 0.47452 0.85421 0.03602 0.0
C162 C 0.51472 0.85479 0.02837 0.0
C163 C 0.53851 0.88652 0.04209 0.0
C164 C 0.5209 0.91674 0.06421 0.0
C165 C 0.4795 0.91538 0.07186 0.0
C166 C 0.45728 0.8832 0.05721 0.0
H167 H 0.52847 0.83119 0.01195 0.0
O168 O 0.44901 0.83877 0.91867 0.0
O169 O 0.42492 0.83377 0.97584 0.0
O170 O 0.46217 0.76049 0.94862 0.0
O171 O 0.4778 0.77564 0.00762 0.0
C172 C 0.4593 0.94489 0.0931 0.0
C173 C 0.4172 0.94247 0.09825 0.0
H174 H 0.33578 0.92881 0.10043 0.0
H175 H 0.30147 0.87059 0.07063 0.0
H176 H 0.57043 0.88745 0.036 0.0
H177 H 0.53943 0.94089 0.07512 0.0
H178 H 0.47569 0.97005 0.10493 0.0
H179 H 0.4019 0.9658 0.11397 0.0
Mn180 Mn 0.79541 0.57797 0.0687 0.0
Mn181 Mn 0.81694 0.56211 0.97852 0.0
C182 C 0.85697 0.55158 0.05263 0.0
C183 C 0.79218 0.61666 0.12232 0.0
C184 C 0.77054 0.50276 0.02387 0.0
O185 O 0.75311 0.61152 0.04344 0.0
O186 O 0.76497 0.59195 0.98487 0.0
C187 C 0.83098 0.64858 0.96124 0.0
N188 N 0.84362 0.60937 0.9605 0.0
C189 C 0.90295 0.62716 0.92587 0.0
C190 C 0.89047 0.6677 0.92609 0.0
C191 C 0.85445 0.67847 0.94406 0.0
C192 C 0.87858 0.59882 0.9439 0.0
H193 H 0.80316 0.65698 0.97471 0.0
C194 C 0.74426 0.61079 0.0093 0.0
O195 O 0.76895 0.58564 0.11739 0.0
O196 O 0.81627 0.62635 0.0954 0.0
N197 N 0.86537 0.53396 0.96567 0.0
C198 C 0.8738 0.49379 0.96895 0.0
C199 C 0.9087 0.47801 0.95235 0.0
C200 C 0.9342 0.50353 0.93199 0.0
C201 C 0.9249 0.54472 0.92888 0.0
C202 C 0.88965 0.55871 0.94595 0.0
H203 H 0.85404 0.47398 0.98413 0.0
O204 O 0.84205 0.54655 0.08548 0.0
O205 O 0.83591 0.57358 0.02945 0.0
O206 O 0.76709 0.52566 0.05217 0.0
O207 O 0.79066 0.51215 0.99505 0.0
C208 C 0.94939 0.5725 0.90972 0.0
C209 C 0.93861 0.61377 0.90852 0.0
H210 H 0.90835 0.6908 0.91265 0.0
H211 H 0.84466 0.70971 0.94443 0.0
H212 H 0.91574 0.44617 0.95493 0.0
H213 H 0.96089 0.49125 0.91894 0.0
H214 H 0.97691 0.56255 0.89635 0.0
H215 H 0.95797 0.63495 0.89419 0.0
Mn216 Mn 0.5765 0.19642 0.92339 0.0
Mn217 Mn 0.56168 0.18164 0.01504 0.0
C218 C 0.54896 0.1365 0.9428 0.0
C219 C 0.61828 0.19548 0.8718 0.0
C220 C 0.50646 0.23215 0.967 0.0
O221 O 0.60845 0.24111 0.94735 0.0
O222 O 0.60175 0.22569 0.00769 0.0
C223 C 0.64227 0.15031 0.03537 0.0
N224 N 0.60148 0.14602 0.03487 0.0
C225 C 0.60512 0.08591 0.0722 0.0
C226 C 0.6472 0.08969 0.07322 0.0
C227 C 0.66586 0.1219 0.05453 0.0
C228 C 0.58327 0.1149 0.05234 0.0
H229 H 0.65659 0.17535 0.02142 0.0
C230 C 0.61588 0.24741 0.9814 0.0
O231 O 0.58744 0.21959 0.87368 0.0
O232 O 0.62562 0.1728 0.90033 0.0
N233 N 0.52376 0.14036 0.02747 0.0
C234 C 0.48323 0.13957 0.02154 0.0
C235 C 0.46008 0.10857 0.03739 0.0
C236 C 0.47872 0.07924 0.05973 0.0
C237 C 0.5205 0.08061 0.06533 0.0
C238 C 0.54201 0.1121 0.04869 0.0
H239 H 0.46866 0.16255 0.00502 0.0
O240 O 0.54569 0.1483 0.90868 0.0
O241 O 0.57036 0.15941 0.96481 0.0
O242 O 0.524 0.22567 0.93619 0.0
O243 O 0.51872 0.21828 0.99794 0.0
C244 C 0.5417 0.05186 0.08656 0.0
C245 C 0.58401 0.05438 0.08983 0.0
H246 H 0.66549 0.06795 0.0881 0.0
H247 H 0.69832 0.12498 0.05514 0.0
H248 H 0.42787 0.10759 0.03283 0.0
H249 H 0.46066 0.05581 0.07244 0.0
H250 H 0.52588 0.02723 0.09987 0.0
H251 H 0.60005 0.03162 0.10559 0.0
Mn252 Mn 0.19798 0.41431 0.06953 0.0
Mn253 Mn 0.18113 0.43548 0.97917 0.0
C254 C 0.13978 0.44711 0.05288 0.0
C255 C 0.19574 0.37231 0.12098 0.0
C256 C 0.23355 0.48676 0.02788 0.0
O257 O 0.23838 0.37851 0.04356 0.0
O258 O 0.22701 0.39715 0.98465 0.0
C259 C 0.15313 0.35392 0.9574 0.0
N260 N 0.14718 0.39464 0.95873 0.0
C261 C 0.08697 0.38946 0.92201 0.0
C262 C 0.09249 0.34745 0.9201 0.0
C263 C 0.12558 0.32958 0.93809 0.0
C264 C 0.11512 0.41205 0.94206 0.0
H265 H 0.17881 0.34019 0.97081 0.0
C266 C 0.24626 0.377 0.00915 0.0
O267 O 0.22226 0.4009 0.11819 0.0
O268 O 0.17145 0.367 0.09322 0.0
N269 N 0.13826 0.47215 0.96788 0.0
C270 C 0.13605 0.51271 0.97425 0.0
C271 C 0.10407 0.53506 0.95902 0.0
C272 C 0.07537 0.51568 0.93663 0.0
C273 C 0.07842 0.47397 0.93028 0.0
C274 C 0.11069 0.45322 0.94648 0.0
H275 H 0.15859 0.52785 0.99075 0.0
O276 O 0.1535 0.44898 0.08645 0.0
O277 O 0.15989 0.42452 0.02947 0.0
O278 O 0.23084 0.46481 0.05676 0.0
O279 O 0.21569 0.47922 0.99744 0.0
C280 C 0.05058 0.45209 0.90873 0.0
C281 C 0.05462 0.40981 0.90489 0.0
H282 H 0.07145 0.32862 0.90503 0.0
H283 H 0.13 0.29718 0.93682 0.0
H284 H 0.10184 0.56724 0.9641 0.0
H285 H 0.0511 0.5331 0.92445 0.0
H286 H 0.02558 0.46738 0.89549 0.0
H287 H 0.03256 0.39321 0.88888 0.0
C288 C 0.15091 0.34201 0.16833 0.0
C289 C 0.18999 0.35087 0.15629 0.0
C290 C 0.14378 0.32911 0.2047 0.0
C291 C 0.17677 0.32349 0.22909 0.0
C292 C 0.21658 0.32932 0.21606 0.0
C293 C 0.22269 0.34388 0.17997 0.0
C294 C 0.10078 0.32429 0.21772 0.0
C295 C 0.25258 0.32188 0.24066 0.0
C296 C 0.1519 0.34131 0.33015 0.0
C297 C 0.14105 0.30242 0.34158 0.0
C298 C 0.1651 0.3484 0.29385 0.0
C299 C 0.16898 0.31547 0.26896 0.0
C300 C 0.16127 0.27566 0.28143 0.0
C301 C 0.14645 0.26969 0.31744 0.0
C302 C 0.17196 0.39145 0.28143 0.0
C303 C 0.16684 0.23962 0.25628 0.0
H304 H 0.12561 0.34784 0.1501 0.0
H305 H 0.25296 0.35058 0.17052 0.0
H306 H 0.09623 0.29379 0.2297 0.0
H307 H 0.09431 0.34665 0.23989 0.0
H308 H 0.07866 0.32873 0.19501 0.0
H309 H 0.28113 0.32078 0.22461 0.0
H310 H 0.25496 0.34649 0.2614 0.0
H311 H 0.24909 0.29304 0.25602 0.0
H312 H 0.1473 0.36665 0.34876 0.0
H313 H 0.13823 0.23954 0.32644 0.0
H314 H 0.1496 0.39952 0.2598 0.0
H315 H 0.20231 0.39464 0.26896 0.0
H316 H 0.16915 0.41342 0.30458 0.0
H317 H 0.14205 0.23867 0.23572 0.0
H318 H 0.16673 0.21071 0.27195 0.0
H319 H 0.19559 0.24201 0.24073 0.0
C320 C 0.27001 0.85081 0.68792 0.0
C321 C 0.30317 0.85565 0.66431 0.0
C322 C 0.27516 0.83662 0.72427 0.0
C323 C 0.31455 0.82886 0.73759 0.0
C324 C 0.34795 0.83255 0.71337 0.0
C325 C 0.34172 0.84519 0.6768 0.0
C326 C 0.23868 0.83135 0.74875 0.0
C327 C 0.39057 0.82558 0.72667 0.0
C328 C 0.34015 0.84529 0.83862 0.0
C329 C 0.34896 0.80583 0.85008 0.0
C330 C 0.32723 0.8531 0.80237 0.0
C331 C 0.32164 0.82044 0.77749 0.0
C332 C 0.32727 0.78025 0.78998 0.0
C333 C 0.34174 0.77345 0.82597 0.0
C334 C 0.32259 0.89646 0.78994 0.0
C335 C 0.31997 0.74457 0.7648 0.0
H336 H 0.24013 0.85868 0.67813 0.0
H337 H 0.36742 0.84928 0.65863 0.0
H338 H 0.24042 0.80224 0.76395 0.0
H339 H 0.23769 0.85591 0.76965 0.0
H340 H 0.21017 0.83216 0.73266 0.0
H341 H 0.41309 0.82896 0.70412 0.0
H342 H 0.39784 0.84753 0.74894 0.0
H343 H 0.39361 0.79485 0.7386 0.0
H344 H 0.34609 0.87037 0.85718 0.0
H345 H 0.34834 0.74287 0.83497 0.0
H346 H 0.29263 0.90124 0.77711 0.0
H347 H 0.34565 0.90339 0.7686 0.0
H348 H 0.32609 0.91822 0.81316 0.0
H349 H 0.29141 0.74853 0.74923 0.0
H350 H 0.3186 0.71569 0.78044 0.0
H351 H 0.34472 0.7423 0.74426 0.0
C352 C 0.825 0.70396 0.32856 0.0
C353 C 0.86648 0.69899 0.33387 0.0
C354 C 0.80764 0.69682 0.29364 0.0
C355 C 0.83214 0.68223 0.26435 0.0
C356 C 0.87416 0.67753 0.26981 0.0
C357 C 0.8909 0.68691 0.3043 0.0
C358 C 0.76311 0.70409 0.28834 0.0
C359 C 0.90122 0.66055 0.2399 0.0
C360 C 0.79043 0.61265 0.19077 0.0
C361 C 0.79524 0.63618 0.15886 0.0
C362 C 0.80045 0.62798 0.22572 0.0
C363 C 0.81402 0.66841 0.22892 0.0
C364 C 0.81548 0.69339 0.1971 0.0
C365 C 0.80702 0.67665 0.16219 0.0
C366 C 0.79981 0.59982 0.25863 0.0
C367 C 0.82793 0.73716 0.19965 0.0
H368 H 0.8063 0.71352 0.35159 0.0
H369 H 0.92296 0.68272 0.30877 0.0
H370 H 0.75752 0.72026 0.26191 0.0
H371 H 0.7471 0.67474 0.28685 0.0
H372 H 0.74995 0.72199 0.31142 0.0
H373 H 0.93314 0.65822 0.24893 0.0
H374 H 0.89066 0.62997 0.23179 0.0
H375 H 0.89992 0.67989 0.21488 0.0
H376 H 0.78159 0.58123 0.18815 0.0
H377 H 0.81037 0.69494 0.13749 0.0
H378 H 0.78263 0.61344 0.28182 0.0
H379 H 0.83108 0.59473 0.26852 0.0
H380 H 0.78624 0.57003 0.25185 0.0
H381 H 0.81363 0.75192 0.22395 0.0
H382 H 0.81971 0.75426 0.17428 0.0
H383 H 0.86105 0.73909 0.20334 0.0
C384 C 0.64648 0.22325 0.81305 0.0
C385 C 0.64071 0.19044 0.83694 0.0
C386 C 0.66252 0.21743 0.77744 0.0
C387 C 0.67099 0.17767 0.76504 0.0
C388 C 0.66674 0.14469 0.78976 0.0
C389 C 0.65239 0.15165 0.82572 0.0
C390 C 0.66847 0.25355 0.75253 0.0
C391 C 0.6742 0.10168 0.77737 0.0
C392 C 0.65302 0.15222 0.66426 0.0
C393 C 0.69209 0.14357 0.65191 0.0
C394 C 0.64592 0.16443 0.70081 0.0
C395 C 0.67892 0.1697 0.72518 0.0
C396 C 0.71874 0.16381 0.71204 0.0
C397 C 0.72483 0.14983 0.67569 0.0
C398 C 0.60289 0.16917 0.71391 0.0
C399 C 0.75475 0.17092 0.73667 0.0
H400 H 0.63771 0.25333 0.82194 0.0
H401 H 0.64758 0.12625 0.84417 0.0
H402 H 0.69746 0.2511 0.73733 0.0
H403 H 0.64398 0.25471 0.73169 0.0
H404 H 0.66814 0.28237 0.76835 0.0
H405 H 0.67148 0.07973 0.80051 0.0
H406 H 0.65205 0.09342 0.75564 0.0
H407 H 0.70465 0.09869 0.76505 0.0
H408 H 0.62764 0.14699 0.64598 0.0
H409 H 0.7551 0.14332 0.66602 0.0
H410 H 0.59808 0.19984 0.72551 0.0
H411 H 0.59669 0.14713 0.73636 0.0
H412 H 0.58072 0.16426 0.69133 0.0
H413 H 0.75115 0.19952 0.75243 0.0
H414 H 0.78325 0.17228 0.72057 0.0
H415 H 0.75731 0.146 0.75706 0.0
C416 C 0.20556 0.02875 0.54302 0.0
C417 C 0.24566 0.0267 0.53112 0.0
C418 C 0.18356 0.06493 0.5398 0.0
C419 C 0.20263 0.09977 0.52519 0.0
C420 C 0.24386 0.0983 0.51538 0.0
C421 C 0.26471 0.06164 0.51806 0.0
C422 C 0.13945 0.06525 0.55 0.0
C423 C 0.26553 0.13496 0.50043 0.0
C424 C 0.14206 0.17649 0.47104 0.0
C425 C 0.1372 0.20777 0.4969 0.0
C426 C 0.1623 0.14078 0.48037 0.0
C427 C 0.17877 0.13646 0.51627 0.0
C428 C 0.17417 0.16791 0.54255 0.0
C429 C 0.15308 0.20314 0.53264 0.0
C430 C 0.16625 0.10774 0.45166 0.0
C431 C 0.19204 0.16456 0.58085 0.0
H432 H 0.19089 0.00163 0.55309 0.0
H433 H 0.29594 0.06024 0.50953 0.0
H434 H 0.13248 0.09137 0.56819 0.0
H435 H 0.12105 0.06867 0.52454 0.0
H436 H 0.13019 0.037 0.56427 0.0
H437 H 0.29856 0.12998 0.4982 0.0
H438 H 0.25373 0.14242 0.47252 0.0
H439 H 0.26003 0.16158 0.51846 0.0
H440 H 0.12939 0.17958 0.44352 0.0
H441 H 0.14943 0.22725 0.55273 0.0
H442 H 0.1545 0.07882 0.46283 0.0
H443 H 0.19849 0.10293 0.44476 0.0
H444 H 0.14977 0.11497 0.42573 0.0
H445 H 0.1807 0.13698 0.59483 0.0
H446 H 0.18483 0.19124 0.59836 0.0
H447 H 0.22528 0.16158 0.57884 0.0
C448 C 0.18676 0.87064 0.47835 0.0
C449 C 0.21426 0.85443 0.50373 0.0
C450 C 0.15107 0.85008 0.46983 0.0
C451 C 0.14356 0.81202 0.48633 0.0
C452 C 0.17242 0.79456 0.51036 0.0
C453 C 0.20721 0.81635 0.51926 0.0
C454 C 0.12047 0.87004 0.44484 0.0
C455 C 0.16591 0.75352 0.52766 0.0
C456 C 0.03666 0.77802 0.50396 0.0
C457 C 0.03027 0.75139 0.47444 0.0
C458 C 0.07303 0.79897 0.50737 0.0
C459 C 0.10408 0.79205 0.48123 0.0
C460 C 0.09775 0.7652 0.45128 0.0
C461 C 0.06052 0.74555 0.44792 0.0
C462 C 0.07834 0.82819 0.53917 0.0
C463 C 0.13064 0.75635 0.42352 0.0
H464 H 0.19227 0.90027 0.46656 0.0
H465 H 0.22885 0.80372 0.53858 0.0
H466 H 0.11133 0.84915 0.42237 0.0
H467 H 0.09299 0.87744 0.46103 0.0
H468 H 0.13214 0.89833 0.43224 0.0
H469 H 0.19323 0.74234 0.54221 0.0
H470 H 0.14083 0.75522 0.54793 0.0
H471 H 0.15725 0.73115 0.5062 0.0
H472 H 0.01298 0.78273 0.52423 0.0
H473 H 0.05549 0.72463 0.42527 0.0
H474 H 0.08796 0.85816 0.52861 0.0
H475 H 0.10234 0.8171 0.55798 0.0
H476 H 0.05022 0.83217 0.55549 0.0
H477 H 0.14126 0.78479 0.41057 0.0
H478 H 0.12049 0.73545 0.40133 0.0
H479 H 0.15687 0.74256 0.43784 0.0
C480 C 0.73578 0.93918 0.49749 0.0
C481 C 0.75052 0.97217 0.51776 0.0
C482 C 0.75736 0.90293 0.49526 0.0
C483 C 0.79515 0.89978 0.51307 0.0
C484 C 0.80993 0.93258 0.53432 0.0
C485 C 0.78716 0.96838 0.53674 0.0
C486 C 0.74021 0.86841 0.47284 0.0
C487 C 0.85045 0.93043 0.55317 0.0
C488 C 0.83829 0.79387 0.52225 0.0
C489 C 0.8619 0.79118 0.49013 0.0
C490 C 0.81705 0.82947 0.5307 0.0
C491 C 0.82021 0.86322 0.5068 0.0
C492 C 0.84498 0.86102 0.47497 0.0
C493 C 0.8652 0.8249 0.46683 0.0
C494 C 0.79028 0.83054 0.5645 0.0
C495 C 0.84954 0.89657 0.44906 0.0
H496 H 0.70732 0.9417 0.48304 0.0
H497 H 0.7987 0.99385 0.55236 0.0
H498 H 0.75922 0.86311 0.44803 0.0
H499 H 0.7404 0.84013 0.48935 0.0
H500 H 0.70887 0.87448 0.46354 0.0
H501 H 0.8563 0.95733 0.5708 0.0
H502 H 0.8525 0.90289 0.57057 0.0
H503 H 0.87458 0.92831 0.53196 0.0
H504 H 0.83571 0.76786 0.54035 0.0
H505 H 0.88395 0.82321 0.44228 0.0
H506 H 0.75839 0.8341 0.55585 0.0
H507 H 0.79787 0.85695 0.58209 0.0
H508 H 0.79297 0.80262 0.58141 0.0
H509 H 0.82029 0.90307 0.43542 0.0
H510 H 0.87249 0.89098 0.42723 0.0
H511 H 0.85825 0.92401 0.4648 0.0
C512 C 0.80591 0.12481 0.46441 0.0
C513 C 0.77826 0.14301 0.48854 0.0
C514 C 0.84285 0.14345 0.45661 0.0
C515 C 0.85148 0.18155 0.47257 0.0
C516 C 0.82232 0.20125 0.49484 0.0
C517 C 0.78623 0.18137 0.5031 0.0
C518 C 0.87362 0.12114 0.43349 0.0
C519 C 0.83003 0.24243 0.51147 0.0
C520 C 0.95795 0.21128 0.49715 0.0
C521 C 0.96759 0.23765 0.46825 0.0
C522 C 0.92088 0.19125 0.49781 0.0
C523 C 0.89241 0.19895 0.46949 0.0
C524 C 0.90232 0.22504 0.43982 0.0
C525 C 0.94021 0.24373 0.43929 0.0
C526 C 0.91178 0.16276 0.5294 0.0
C527 C 0.87228 0.23472 0.40973 0.0
H528 H 0.7997 0.09492 0.45346 0.0
H529 H 0.76453 0.19545 0.52153 0.0
H530 H 0.8862 0.14119 0.4118 0.0
H531 H 0.89905 0.11151 0.4514 0.0
H532 H 0.86071 0.09389 0.42 0.0
H533 H 0.8024 0.25572 0.52395 0.0
H534 H 0.85332 0.23992 0.53337 0.0
H535 H 0.84166 0.26349 0.4901 0.0
H536 H 0.97942 0.2065 0.51936 0.0
H537 H 0.94772 0.26455 0.41716 0.0
H538 H 0.90087 0.13335 0.51856 0.0
H539 H 0.88747 0.17565 0.54693 0.0
H540 H 0.93857 0.15718 0.54712 0.0
H541 H 0.86008 0.20652 0.39751 0.0
H542 H 0.8857 0.25328 0.38727 0.0
H543 H 0.84647 0.25158 0.42179 0.0
C544 C 0.28546 0.5327 0.0027 0.0
C545 C 0.25677 0.52425 0.02993 0.0
C546 C 0.30496 0.57018 0.00184 0.0
C547 C 0.29419 0.60025 0.02801 0.0
C548 C 0.26555 0.59153 0.05594 0.0
C549 C 0.24754 0.55321 0.0569 0.0
C550 C 0.33623 0.57794 0.97229 0.0
C551 C 0.2525 0.62323 0.08357 0.0
C552 C 0.3665 0.68814 0.03616 0.0
C553 C 0.35091 0.71464 0.00951 0.0
C554 C 0.34752 0.65121 0.04359 0.0
C555 C 0.31157 0.64132 0.02463 0.0
C556 C 0.29425 0.66932 0.99959 0.0
C557 C 0.31456 0.70544 0.99182 0.0
C558 C 0.36743 0.62168 0.06973 0.0
C559 C 0.25527 0.66032 0.97969 0.0
H560 H 0.29236 0.51004 0.98191 0.0
H561 H 0.22476 0.54655 0.07754 0.0
H562 H 0.32491 0.60108 0.95265 0.0
H563 H 0.36423 0.58996 0.98494 0.0
H564 H 0.34382 0.55016 0.95641 0.0
H565 H 0.23178 0.61084 0.10488 0.0
H566 H 0.27907 0.63649 0.09764 0.0
H567 H 0.23691 0.64821 0.06885 0.0
H568 H 0.39491 0.69513 0.04952 0.0
H569 H 0.30246 0.72614 0.97136 0.0
H570 H 0.37871 0.59527 0.0538 0.0
H571 H 0.3454 0.61016 0.09024 0.0
H572 H 0.39317 0.63543 0.08479 0.0
H573 H 0.26028 0.63595 0.95907 0.0
H574 H 0.24324 0.68727 0.965 0.0
H575 H 0.23217 0.64943 0.99953 0.0
C576 C 0.69962 0.67093 0.01108 0.0
C577 C 0.70762 0.6321 0.99759 0.0
C578 C 0.66326 0.69046 0.00279 0.0
C579 C 0.63374 0.66991 0.98167 0.0
C580 C 0.64212 0.63097 0.96725 0.0
C581 C 0.6794 0.61272 0.97494 0.0
C582 C 0.6559 0.73249 0.01776 0.0
C583 C 0.61096 0.60771 0.94556 0.0
C584 C 0.52844 0.70495 0.0054 0.0
C585 C 0.51974 0.73056 0.97566 0.0
C586 C 0.56452 0.68298 0.00646 0.0
C587 C 0.59305 0.68798 0.97766 0.0
C588 C 0.58381 0.71294 0.94696 0.0
C589 C 0.54682 0.73358 0.94608 0.0
C590 C 0.57277 0.65576 0.03916 0.0
C591 C 0.6139 0.71977 0.91625 0.0
H592 H 0.72177 0.68589 0.02837 0.0
H593 H 0.68569 0.58246 0.96484 0.0
H594 H 0.64482 0.7527 0.99544 0.0
H595 H 0.63228 0.73144 0.03949 0.0
H596 H 0.68353 0.74592 0.02996 0.0
H597 H 0.62337 0.57928 0.93371 0.0
H598 H 0.58534 0.59997 0.96399 0.0
H599 H 0.59875 0.62647 0.92272 0.0
H600 H 0.50719 0.70256 0.02813 0.0
H601 H 0.54004 0.75381 0.92329 0.0
H602 H 0.597 0.66901 0.05645 0.0
H603 H 0.58338 0.62568 0.02959 0.0
H604 H 0.54565 0.65153 0.05678 0.0
H605 H 0.63997 0.737 0.92721 0.0
H606 H 0.60068 0.73693 0.89276 0.0
H607 H 0.62565 0.69053 0.90572 0.0
C608 C 0.76765 0.43028 0.00584 0.0
C609 C 0.75002 0.46332 0.024 0.0
C610 C 0.74744 0.39332 0.00306 0.0
C611 C 0.70815 0.38974 0.01786 0.0
C612 C 0.69066 0.4226 0.03731 0.0
C613 C 0.7121 0.45897 0.04056 0.0
C614 C 0.76749 0.35868 0.98286 0.0
C615 C 0.64846 0.42012 0.05278 0.0
C616 C 0.64095 0.31636 0.9668 0.0
C617 C 0.64015 0.28324 0.99099 0.0
C618 C 0.66222 0.35149 0.97575 0.0
C619 C 0.68397 0.35325 0.00938 0.0
C620 C 0.6836 0.31986 0.03388 0.0
C621 C 0.66126 0.28529 0.02456 0.0
C622 C 0.66139 0.38674 0.94914 0.0
C623 C 0.70719 0.32047 0.06959 0.0
H624 H 0.79717 0.43341 0.99342 0.0
H625 H 0.69842 0.4846 0.0545 0.0
H626 H 0.76519 0.33045 0.99929 0.0
H627 H 0.7519 0.35335 0.95614 0.0
H628 H 0.7998 0.36475 0.97705 0.0
H629 H 0.64064 0.44692 0.06992 0.0
H630 H 0.62656 0.41801 0.02966 0.0
H631 H 0.64493 0.39251 0.06987 0.0
H632 H 0.62421 0.31516 0.94105 0.0
H633 H 0.66075 0.25969 0.04328 0.0
H634 H 0.69223 0.39277 0.93867 0.0
H635 H 0.65095 0.41445 0.96361 0.0
H636 H 0.64134 0.38118 0.92506 0.0
H637 H 0.73971 0.32467 0.06352 0.0
H638 H 0.70342 0.29217 0.08576 0.0
H639 H 0.69749 0.34639 0.08696 0.0
C640 C 0.46322 0.28581 0.99374 0.0
C641 C 0.46887 0.25548 0.96725 0.0
C642 C 0.4262 0.30588 0.99685 0.0
C643 C 0.39376 0.29415 0.97378 0.0
C644 C 0.39954 0.26382 0.94659 0.0
C645 C 0.4374 0.24519 0.94327 0.0
C646 C 0.42154 0.33892 0.02544 0.0
C647 C 0.36533 0.2498 0.92226 0.0
C648 C 0.29209 0.31773 0.01615 0.0
C649 C 0.28134 0.35303 0.99718 0.0
C650 C 0.3276 0.29687 0.00724 0.0
C651 C 0.35345 0.31253 0.97955 0.0
C652 C 0.34217 0.34758 0.95963 0.0
C653 C 0.30588 0.36714 0.96837 0.0
C654 C 0.33815 0.25891 0.02838 0.0
C655 C 0.36944 0.36573 0.9306 0.0
H656 H 0.4878 0.29363 0.01217 0.0
H657 H 0.44187 0.22122 0.92317 0.0
H658 H 0.40882 0.36655 0.01249 0.0
H659 H 0.40017 0.3291 0.04726 0.0
H660 H 0.45064 0.34678 0.03879 0.0
H661 H 0.37534 0.22738 0.90125 0.0
H662 H 0.34159 0.23577 0.93966 0.0
H663 H 0.35136 0.27587 0.90782 0.0
H664 H 0.27291 0.30668 0.03824 0.0
H665 H 0.29773 0.39469 0.95392 0.0
H666 H 0.36448 0.26471 0.0465 0.0
H667 H 0.34672 0.23435 0.00894 0.0
H668 H 0.31278 0.24827 0.04591 0.0
H669 H 0.39742 0.37688 0.94395 0.0
H670 H 0.35494 0.39133 0.91579 0.0
H671 H 0.37846 0.34251 0.91003 0.0
C672 C -0.00358 0.58542 0.43796 0.0
C673 C 0.96041 0.59785 0.4548 0.0
C674 C 0.00955 0.54535 0.44013 0.0
C675 C 0.98784 0.51762 0.46227 0.0
C676 C 0.95232 0.53037 0.48071 0.0
C677 C 0.93794 0.56995 0.4752 0.0
C678 C 0.04507 0.53228 0.41666 0.0
C679 C 0.92965 0.50231 0.50618 0.0
C680 C 0.99503 0.4069 0.43699 0.0
C681 C 0.02979 0.39491 0.45607 0.0
C682 C 0.98092 0.44671 0.43889 0.0
C683 C 0.00035 0.47452 0.46271 0.0
C684 C 0.03455 0.46213 0.48326 0.0
C685 C 0.05001 0.42293 0.47826 0.0
C686 C 0.94727 0.4596 0.41321 0.0
C687 C 0.05481 0.49026 0.51035 0.0
H688 H 0.01324 0.6067 0.42116 0.0
H689 H 0.90884 0.57874 0.48612 0.0
H690 H 0.07097 0.52405 0.43447 0.0
H691 H 0.03712 0.50514 0.40012 0.0
H692 H 0.05505 0.55643 0.39737 0.0
H693 H 0.90144 0.51617 0.51686 0.0
H694 H 0.92202 0.47353 0.49221 0.0
H695 H 0.94939 0.49445 0.52986 0.0
H696 H 0.98011 0.38556 0.41879 0.0
H697 H 0.07832 0.41452 0.49098 0.0
H698 H 0.95699 0.48597 0.39646 0.0
H699 H 0.92044 0.46909 0.42928 0.0
H700 H 0.93806 0.43501 0.39405 0.0
H701 H 0.06328 0.5192 0.49711 0.0
H702 H 0.08223 0.47664 0.52281 0.0
H703 H 0.03312 0.49775 0.53266 0.0
C704 C 0.56851 0.0551 0.52503 0.0
C705 C 0.59836 0.03429 0.54456 0.0
C706 C 0.52907 0.04009 0.52326 0.0
C707 C 0.5187 0.00551 0.5443 0.0
C708 C 0.54829 0.98598 0.56614 0.0
C709 C 0.58805 -0.00023 0.56489 0.0
C710 C 0.49887 0.06095 0.49855 0.0
C711 C 0.53769 0.95201 0.59239 0.0
C712 C 0.40871 0.99742 0.57048 0.0
C713 C 0.39706 0.96243 0.55146 0.0
C714 C 0.44844 0.01132 0.56895 0.0
C715 C 0.47646 0.99128 0.54574 0.0
C716 C 0.46473 0.95612 0.52613 0.0
C717 C 0.42555 0.94112 0.53062 0.0
C718 C 0.46076 0.04613 0.59361 0.0
C719 C 0.49326 0.93468 0.50011 0.0
H720 H 0.57588 0.08335 0.51155 0.0
H721 H 0.61089 0.9845 0.58122 0.0
H722 H 0.49113 0.04026 0.47557 0.0
H723 H 0.47049 0.06773 0.51343 0.0
H724 H 0.51082 0.08949 0.48668 0.0
H725 H 0.56327 0.94375 0.61073 0.0
H726 H 0.51168 0.9609 0.60998 0.0
H727 H 0.52871 0.92469 0.57671 0.0
H728 H 0.38702 0.01311 0.5878 0.0
H729 H 0.41727 0.91258 0.51809 0.0
H730 H 0.46835 0.07298 0.57669 0.0
H731 H 0.48808 0.03793 0.60969 0.0
H732 H 0.43655 0.05484 0.61334 0.0
H733 H 0.50057 0.95526 0.47691 0.0
H734 H 0.48013 0.90645 0.48867 0.0
H735 H 0.52209 0.92713 0.51387 0.0
C736 C 0.49745 0.08365 0.93487 0.0
C737 C 0.53266 0.09662 0.95258 0.0
C738 C 0.48465 0.04349 0.93743 0.0
C739 C 0.50625 0.01623 0.96022 0.0
C740 C 0.54116 0.02949 0.97915 0.0
C741 C 0.55494 0.06917 0.97374 0.0
C742 C 0.4494 0.02984 0.91407 0.0
C743 C 0.56383 0.00184 0.00503 0.0
C744 C 0.44537 0.92197 0.98033 0.0
C745 C 0.46546 0.8931 0.95885 0.0
C746 C 0.46024 0.9615 0.98338 0.0
C747 C 0.4938 0.97322 0.96172 0.0
C748 C 0.51313 0.94452 0.93862 0.0
C749 C 0.49946 0.90452 0.93841 0.0
C750 C 0.44017 0.99062 0.00974 0.0
C751 C 0.54637 0.95655 0.91221 0.0
H752 H 0.48092 0.10459 0.91743 0.0
H753 H 0.58356 0.07841 0.98529 0.0
H754 H 0.45823 0.00329 0.89705 0.0
H755 H 0.42402 0.02033 0.93198 0.0
H756 H 0.4384 0.05404 0.89527 0.0
H757 H 0.59135 0.01626 0.01642 0.0
H758 H 0.54366 0.99339 0.0282 0.0
H759 H 0.57265 0.97338 0.99102 0.0
H760 H 0.41752 0.91392 0.99403 0.0
H761 H 0.51419 0.88249 0.92071 0.0
H762 H 0.43135 0.019 0.99561 0.0
H763 H 0.46216 -0.00111 0.03151 0.0
H764 H 0.41302 0.97746 0.02304 0.0
H765 H 0.53562 0.98119 0.89381 0.0
H766 H 0.55663 0.93088 0.8947 0.0
H767 H 0.5727 0.96833 0.92763 0.0
C768 C 0.08883 0.50005 0.06502 0.0
C769 C 0.10018 0.46535 0.04532 0.0
C770 C 0.04919 0.51451 0.06387 0.0
C771 C 0.02086 0.49526 0.0405 0.0
C772 C 0.03251 0.4608 0.01975 0.0
C773 C 0.07163 0.44525 0.02372 0.0
C774 C 0.03709 0.54849 0.08964 0.0
C775 C 0.00381 0.44036 0.99338 0.0
C776 C 0.90996 0.50073 0.06423 0.0
C777 C 0.89777 0.53579 0.04554 0.0
C778 C 0.95005 0.48769 0.06331 0.0
C779 C 0.97815 0.50867 0.04101 0.0
C780 C 0.9659 0.54375 0.02148 0.0
C781 C 0.92615 0.5579 0.02536 0.0
C782 C 0.96256 0.45267 0.08768 0.0
C783 C 0.99448 0.56595 0.99618 0.0
H784 H 0.1106 0.51478 0.08287 0.0
H785 H 0.07964 0.41694 0.01057 0.0
H786 H 0.02639 0.57499 0.07369 0.0
H787 H 0.01177 0.53854 0.10754 0.0
H788 H 0.06234 0.55837 0.10767 0.0
H789 H 0.0168 0.41243 0.9811 0.0
H790 H 0.97504 0.43258 0.00714 0.0
H791 H -0.00348 0.46173 0.9708 0.0
H792 H 0.88833 0.4843 0.08094 0.0
H793 H 0.91739 0.58637 0.01296 0.0
H794 H 0.98934 0.46104 0.1044 0.0
H795 H 0.97105 0.42625 0.07048 0.0
H796 H 0.93812 0.44322 0.10681 0.0
H797 H 0.9811 0.59425 0.98507 0.0
H798 H 0.00239 0.54584 0.97274 0.0
H799 H 0.02303 0.57348 0.01042 0.0
loop_
_geom_bond_atom_site_label_1
_geom_bond_atom_site_label_2
_geom_bond_distance
_geom_bond_site_symmetry_2
_ccdc_geom_bond_type
Mn0 O5 2.095 . S
Mn0 O15 2.162 . S
Mn0 O16 2.297 . S
Mn0 O24 2.385 . S
Mn0 O25 2.209 . S
Mn0 O26 2.094 . S
Mn1 O6 2.121 . S
Mn1 N8 2.257 . S
Mn1 N17 2.282 . S
Mn1 O25 2.215 . S
Mn1 O27 2.117 . S
C2 O24 1.234 . S
C2 O25 1.283 . S
C3 O15 1.281 . S
C3 O16 1.236 . S
C4 O26 1.240 1_655 S
C4 O27 1.264 1_655 S
O5 Mn0 2.095 . S
O5 C14 1.250 . S
O6 Mn1 2.121 . S
O6 C14 1.258 . S
C7 N8 1.326 . S
C7 C11 1.460 . S
C7 H13 0.929 . S
N8 Mn1 2.257 . S
N8 C7 1.326 . S
N8 C12 1.362 . S
C9 C10 1.258 . S
C9 C12 1.431 . S
C9 C29 1.449 . S
C10 C9 1.258 . S
C10 C11 1.477 . S
C10 H30 0.931 . S
C11 C7 1.460 . S
C11 C10 1.477 . S
C11 H31 0.930 . S
C12 N8 1.362 . S
C12 C9 1.431 . S
C12 C22 1.476 . S
H13 C7 0.929 . S
C14 O5 1.250 . S
C14 O6 1.258 . S
O15 Mn0 2.162 . S
O15 C3 1.281 . S
O16 Mn0 2.297 . S
O16 C3 1.236 . S
N17 Mn1 2.282 . S
N17 C18 1.328 1_455 S
N17 C22 1.318 . S
C18 N17 1.328 1_655 S
C18 C19 1.457 . S
C18 H23 0.929 . S
C19 C18 1.457 . S
C19 C20 1.291 . S
C19 H32 0.931 . S
C20 C19 1.291 . S
C20 C21 1.373 1_655 S
C20 H33 0.929 . S
C21 C20 1.373 1_455 S
C21 C22 1.396 . S
C21 C28 1.403 . S
C22 C12 1.476 . S
C22 N17 1.318 . S
C22 C21 1.396 . S
H23 C18 0.929 . S
O24 Mn0 2.385 . S
O24 C2 1.234 . S
O25 Mn0 2.209 . S
O25 Mn1 2.215 . S
O25 C2 1.283 . S
O26 Mn0 2.094 . S
O26 C4 1.240 1_455 S
O27 Mn1 2.117 . S
O27 C4 1.264 1_455 S
C28 C21 1.403 . S
C28 C29 1.399 . S
C28 H34 0.929 . S
C29 C9 1.449 . S
C29 C28 1.399 . S
C29 H35 0.930 . S
H30 C10 0.931 . S
H31 C11 0.930 . S
H32 C19 0.931 . S
H33 C20 0.929 . S
H34 C28 0.929 . S
H35 C29 0.930 . S
Mn36 O41 2.095 . S
Mn36 O51 2.162 . S
Mn36 O52 2.297 . S
Mn36 O60 2.385 . S
Mn36 O61 2.209 . S
Mn36 O62 2.094 . S
Mn37 O42 2.121 . S
Mn37 N44 2.257 . S
Mn37 N53 2.282 . S
Mn37 O61 2.215 . S
Mn37 O63 2.117 . S
C38 O60 1.234 . S
C38 O61 1.283 . S
C39 O51 1.281 . S
C39 O52 1.236 . S
C40 O62 1.240 1_545 S
C40 O63 1.264 1_545 S
O41 Mn36 2.095 . S
O41 C50 1.250 . S
O42 Mn37 2.121 . S
O42 C50 1.258 . S
C43 N44 1.326 . S
C43 C47 1.460 . S
C43 H49 0.929 . S
N44 Mn37 2.257 . S
N44 C43 1.326 . S
N44 C48 1.362 . S
C45 C46 1.258 . S
C45 C48 1.431 . S
C45 C65 1.449 . S
C46 C45 1.258 . S
C46 C47 1.477 . S
C46 H66 0.931 . S
C47 C43 1.460 . S
C47 C46 1.477 . S
C47 H67 0.930 . S
C48 N44 1.362 . S
C48 C45 1.431 . S
C48 C58 1.476 . S
H49 C43 0.929 . S
C50 O41 1.250 . S
C50 O42 1.258 . S
O51 Mn36 2.162 . S
O51 C39 1.281 . S
O52 Mn36 2.297 . S
O52 C39 1.236 . S
N53 Mn37 2.282 . S
N53 C54 1.328 1_565 S
N53 C58 1.318 . S
C54 N53 1.328 1_545 S
C54 C55 1.457 . S
C54 H59 0.929 . S
C55 C54 1.457 . S
C55 C56 1.291 . S
C55 H68 0.931 . S
C56 C55 1.291 . S
C56 C57 1.373 1_545 S
C56 H69 0.929 . S
C57 C56 1.373 1_565 S
C57 C58 1.396 . S
C57 C64 1.403 . S
C58 C48 1.476 . S
C58 N53 1.318 . S
C58 C57 1.396 . S
H59 C54 0.929 . S
O60 Mn36 2.385 . S
O60 C38 1.234 . S
O61 Mn36 2.209 . S
O61 Mn37 2.215 . S
O61 C38 1.283 . S
O62 Mn36 2.094 . S
O62 C40 1.240 1_565 S
O63 Mn37 2.117 . S
O63 C40 1.264 1_565 S
C64 C57 1.403 . S
C64 C65 1.399 . S
C64 H70 0.929 . S
C65 C45 1.449 . S
C65 C64 1.399 . S
C65 H71 0.930 . S
H66 C46 0.931 . S
H67 C47 0.930 . S
H68 C55 0.931 . S
H69 C56 0.929 . S
H70 C64 0.929 . S
H71 C65 0.930 . S
Mn72 O77 2.095 . S
Mn72 O87 2.162 . S
Mn72 O88 2.297 . S
Mn72 O96 2.385 . S
Mn72 O97 2.209 . S
Mn72 O98 2.094 . S
Mn73 O78 2.121 . S
Mn73 N80 2.257 . S
Mn73 N89 2.282 . S
Mn73 O97 2.215 . S
Mn73 O99 2.117 . S
C74 O96 1.234 . S
C74 O97 1.283 . S
C75 O87 1.281 . S
C75 O88 1.236 . S
C76 O98 1.240 1_455 S
C76 O99 1.264 1_455 S
O77 Mn72 2.095 . S
O77 C86 1.250 . S
O78 Mn73 2.121 . S
O78 C86 1.258 . S
C79 N80 1.326 . S
C79 C83 1.460 . S
C79 H85 0.929 . S
N80 Mn73 2.257 . S
N80 C79 1.326 . S
N80 C84 1.362 . S
C81 C82 1.258 . S
C81 C84 1.431 . S
C81 C101 1.449 . S
C82 C81 1.258 . S
C82 C83 1.477 . S
C82 H102 0.931 . S
C83 C79 1.460 . S
C83 C82 1.477 . S
C83 H103 0.930 . S
C84 N80 1.362 . S
C84 C81 1.431 . S
C84 C94 1.476 . S
H85 C79 0.929 . S
C86 O77 1.250 . S
C86 O78 1.258 . S
O87 Mn72 2.162 . S
O87 C75 1.281 . S
O88 Mn72 2.297 . S
O88 C75 1.236 . S
N89 Mn73 2.282 . S
N89 C90 1.328 1_655 S
N89 C94 1.318 . S
C90 N89 1.328 1_455 S
C90 C91 1.457 . S
C90 H95 0.929 . S
C91 C90 1.457 . S
C91 C92 1.291 . S
C91 H104 0.931 . S
C92 C91 1.291 . S
C92 C93 1.373 1_455 S
C92 H105 0.929 . S
C93 C92 1.373 1_655 S
C93 C94 1.396 . S
C93 C100 1.403 . S
C94 C84 1.476 . S
C94 N89 1.318 . S
C94 C93 1.396 . S
H95 C90 0.929 . S
O96 Mn72 2.385 . S
O96 C74 1.234 . S
O97 Mn72 2.209 . S
O97 Mn73 2.215 . S
O97 C74 1.283 . S
O98 Mn72 2.094 . S
O98 C76 1.240 1_655 S
O99 Mn73 2.117 . S
O99 C76 1.264 1_655 S
C100 C93 1.403 . S
C100 C101 1.399 . S
C100 H106 0.929 . S
C101 C81 1.449 . S
C101 C100 1.399 . S
C101 H107 0.930 . S
H102 C82 0.931 . S
H103 C83 0.930 . S
H104 C91 0.931 . S
H105 C92 0.929 . S
H106 C100 0.929 . S
H107 C101 0.930 . S
Mn108 O113 2.095 . S
Mn108 O123 2.162 . S
Mn108 O124 2.297 . S
Mn108 O132 2.385 . S
Mn108 O133 2.209 . S
Mn108 O134 2.094 . S
Mn109 O114 2.121 . S
Mn109 N116 2.257 . S
Mn109 N125 2.282 . S
Mn109 O133 2.215 . S
Mn109 O135 2.117 . S
C110 O132 1.234 . S
C110 O133 1.283 . S
C111 O123 1.281 . S
C111 O124 1.236 . S
C112 O134 1.240 1_565 S
C112 O135 1.264 1_565 S
O113 Mn108 2.095 . S
O113 C122 1.250 . S
O114 Mn109 2.121 . S
O114 C122 1.258 . S
C115 N116 1.326 . S
C115 C119 1.460 . S
C115 H121 0.929 . S
N116 Mn109 2.257 . S
N116 C115 1.326 . S
N116 C120 1.362 . S
C117 C118 1.258 . S
C117 C120 1.431 . S
C117 C137 1.449 . S
C118 C117 1.258 . S
C118 C119 1.477 . S
C118 H138 0.931 . S
C119 C115 1.460 . S
C119 C118 1.477 . S
C119 H139 0.930 . S
C120 N116 1.362 . S
C120 C117 1.431 . S
C120 C130 1.476 . S
H121 C115 0.929 . S
C122 O113 1.250 . S
C122 O114 1.258 . S
O123 Mn108 2.162 . S
O123 C111 1.281 . S
O124 Mn108 2.297 . S
O124 C111 1.236 . S
N125 Mn109 2.282 . S
N125 C126 1.328 1_545 S
N125 C130 1.318 . S
C126 N125 1.328 1_565 S
C126 C127 1.457 . S
C126 H131 0.929 . S
C127 C126 1.457 . S
C127 C128 1.291 . S
C127 H140 0.931 . S
C128 C127 1.291 . S
C128 C129 1.373 1_565 S
C128 H141 0.929 . S
C129 C128 1.373 1_545 S
C129 C130 1.396 . S
C129 C136 1.403 . S
C130 C120 1.476 . S
C130 N125 1.318 . S
C130 C129 1.396 . S
H131 C126 0.929 . S
O132 Mn108 2.385 . S
O132 C110 1.234 . S
O133 Mn108 2.209 . S
O133 Mn109 2.215 . S
O133 C110 1.283 . S
O134 Mn108 2.094 . S
O134 C112 1.240 1_545 S
O135 Mn109 2.117 . S
O135 C112 1.264 1_545 S
C136 C129 1.403 . S
C136 C137 1.399 . S
C136 H142 0.929 . S
C137 C117 1.449 . S
C137 C136 1.399 . S
C137 H143 0.930 . S
H138 C118 0.931 . S
H139 C119 0.930 . S
H140 C127 0.931 . S
H141 C128 0.929 . S
H142 C136 0.929 . S
H143 C137 0.930 . S
Mn144 O149 2.095 . S
Mn144 O159 2.162 . S
Mn144 O160 2.297 . S
Mn144 O168 2.385 . S
Mn144 O169 2.209 . S
Mn144 O170 2.094 . S
Mn145 O150 2.121 . S
Mn145 N152 2.257 . S
Mn145 N161 2.282 . S
Mn145 O169 2.215 1_554 S
Mn145 O171 2.117 . S
C146 O168 1.234 . S
C146 O169 1.283 . S
C147 O159 1.281 . S
C147 O160 1.236 . S
C148 O170 1.240 . S
C148 O171 1.264 1_556 S
O149 Mn144 2.095 . S
O149 C158 1.250 . S
O150 Mn145 2.121 . S
O150 C158 1.258 1_554 S
C151 N152 1.326 . S
C151 C155 1.460 . S
C151 H157 0.929 . S
N152 Mn145 2.257 . S
N152 C151 1.326 . S
N152 C156 1.362 . S
C153 C154 1.258 . S
C153 C156 1.431 . S
C153 C173 1.449 . S
C154 C153 1.258 . S
C154 C155 1.477 . S
C154 H174 0.931 . S
C155 C151 1.460 . S
C155 C154 1.477 . S
C155 H175 0.930 . S
C156 N152 1.362 . S
C156 C153 1.431 . S
C156 C166 1.476 . S
H157 C151 0.929 . S
C158 O149 1.250 . S
C158 O150 1.258 1_556 S
O159 Mn144 2.162 . S
O159 C147 1.281 . S
O160 Mn144 2.297 . S
O160 C147 1.236 . S
N161 Mn145 2.282 . S
N161 C162 1.328 . S
N161 C166 1.318 . S
C162 N161 1.328 . S
C162 C163 1.457 . S
C162 H167 0.929 . S
C163 C162 1.457 . S
C163 C164 1.291 . S
C163 H176 0.931 . S
C164 C163 1.291 . S
C164 C165 1.373 . S
C164 H177 0.929 . S
C165 C164 1.373 . S
C165 C166 1.396 . S
C165 C172 1.403 . S
C166 C156 1.476 . S
C166 N161 1.318 . S
C166 C165 1.396 . S
H167 C162 0.929 . S
O168 Mn144 2.385 . S
O168 C146 1.234 . S
O169 Mn144 2.209 . S
O169 Mn145 2.215 1_556 S
O169 C146 1.283 . S
O170 Mn144 2.094 . S
O170 C148 1.240 . S
O171 Mn145 2.117 . S
O171 C148 1.264 1_554 S
C172 C165 1.403 . S
C172 C173 1.399 . S
C172 H178 0.929 . S
C173 C153 1.449 . S
C173 C172 1.399 . S
C173 H179 0.930 . S
H174 C154 0.931 . S
H175 C155 0.930 . S
H176 C163 0.931 . S
H177 C164 0.929 . S
H178 C172 0.929 . S
H179 C173 0.930 . S
Mn180 O185 2.095 . S
Mn180 O195 2.162 . S
Mn180 O196 2.297 . S
Mn180 O204 2.385 . S
Mn180 O205 2.209 . S
Mn180 O206 2.094 . S
Mn181 O186 2.121 . S
Mn181 N188 2.257 . S
Mn181 N197 2.282 . S
Mn181 O205 2.215 1_556 S
Mn181 O207 2.117 . S
C182 O204 1.234 . S
C182 O205 1.283 . S
C183 O195 1.281 . S
C183 O196 1.236 . S
C184 O206 1.240 . S
C184 O207 1.264 1_554 S
O185 Mn180 2.095 . S
O185 C194 1.250 . S
O186 Mn181 2.121 . S
O186 C194 1.258 1_556 S
C187 N188 1.326 . S
C187 C191 1.460 . S
C187 H193 0.929 . S
N188 Mn181 2.257 . S
N188 C187 1.326 . S
N188 C192 1.362 . S
C189 C190 1.258 . S
C189 C192 1.431 . S
C189 C209 1.449 . S
C190 C189 1.258 . S
C190 C191 1.477 . S
C190 H210 0.931 . S
C191 C187 1.460 . S
C191 C190 1.477 . S
C191 H211 0.930 . S
C192 N188 1.362 . S
C192 C189 1.431 . S
C192 C202 1.476 . S
H193 C187 0.929 . S
C194 O185 1.250 . S
C194 O186 1.258 1_554 S
O195 Mn180 2.162 . S
O195 C183 1.281 . S
O196 Mn180 2.297 . S
O196 C183 1.236 . S
N197 Mn181 2.282 . S
N197 C198 1.328 . S
N197 C202 1.318 . S
C198 N197 1.328 . S
C198 C199 1.457 . S
C198 H203 0.929 . S
C199 C198 1.457 . S
C199 C200 1.291 . S
C199 H212 0.931 . S
C200 C199 1.291 . S
C200 C201 1.373 . S
C200 H213 0.929 . S
C201 C200 1.373 . S
C201 C202 1.396 . S
C201 C208 1.403 . S
C202 C192 1.476 . S
C202 N197 1.318 . S
C202 C201 1.396 . S
H203 C198 0.929 . S
O204 Mn180 2.385 . S
O204 C182 1.234 . S
O205 Mn180 2.209 . S
O205 Mn181 2.215 1_554 S
O205 C182 1.283 . S
O206 Mn180 2.094 . S
O206 C184 1.240 . S
O207 Mn181 2.117 . S
O207 C184 1.264 1_556 S
C208 C201 1.403 . S
C208 C209 1.399 . S
C208 H214 0.929 . S
C209 C189 1.449 . S
C209 C208 1.399 . S
C209 H215 0.930 . S
H210 C190 0.931 . S
H211 C191 0.930 . S
H212 C199 0.931 . S
H213 C200 0.929 . S
H214 C208 0.929 . S
H215 C209 0.930 . S
Mn216 O221 2.095 . S
Mn216 O231 2.162 . S
Mn216 O232 2.297 . S
Mn216 O240 2.385 . S
Mn216 O241 2.209 . S
Mn216 O242 2.094 . S
Mn217 O222 2.121 . S
Mn217 N224 2.257 . S
Mn217 N233 2.282 . S
Mn217 O241 2.215 1_554 S
Mn217 O243 2.117 . S
C218 O240 1.234 . S
C218 O241 1.283 . S
C219 O231 1.281 . S
C219 O232 1.236 . S
C220 O242 1.240 . S
C220 O243 1.264 1_556 S
O221 Mn216 2.095 . S
O221 C230 1.250 . S
O222 Mn217 2.121 . S
O222 C230 1.258 1_554 S
C223 N224 1.326 . S
C223 C227 1.460 . S
C223 H229 0.929 . S
N224 Mn217 2.257 . S
N224 C223 1.326 . S
N224 C228 1.362 . S
C225 C226 1.258 . S
C225 C228 1.431 . S
C225 C245 1.449 . S
C226 C225 1.258 . S
C226 C227 1.477 . S
C226 H246 0.931 . S
C227 C223 1.460 . S
C227 C226 1.477 . S
C227 H247 0.930 . S
C228 N224 1.362 . S
C228 C225 1.431 . S
C228 C238 1.476 . S
H229 C223 0.929 . S
C230 O221 1.250 . S
C230 O222 1.258 1_556 S
O231 Mn216 2.162 . S
O231 C219 1.281 . S
O232 Mn216 2.297 . S
O232 C219 1.236 . S
N233 Mn217 2.282 . S
N233 C234 1.328 . S
N233 C238 1.318 . S
C234 N233 1.328 . S
C234 C235 1.457 . S
C234 H239 0.929 . S
C235 C234 1.457 . S
C235 C236 1.291 . S
C235 H248 0.931 . S
C236 C235 1.291 . S
C236 C237 1.373 . S
C236 H249 0.929 . S
C237 C236 1.373 . S
C237 C238 1.396 . S
C237 C244 1.403 . S
C238 C228 1.476 . S
C238 N233 1.318 . S
C238 C237 1.396 . S
H239 C234 0.929 . S
O240 Mn216 2.385 . S
O240 C218 1.234 . S
O241 Mn216 2.209 . S
O241 Mn217 2.215 1_556 S
O241 C218 1.283 . S
O242 Mn216 2.094 . S
O242 C220 1.240 . S
O243 Mn217 2.117 . S
O243 C220 1.264 1_554 S
C244 C237 1.403 . S
C244 C245 1.399 . S
C244 H250 0.929 . S
C245 C225 1.449 . S
C245 C244 1.399 . S
C245 H251 0.930 . S
H246 C226 0.931 . S
H247 C227 0.930 . S
H248 C235 0.931 . S
H249 C236 0.929 . S
H250 C244 0.929 . S
H251 C245 0.930 . S
Mn252 O257 2.095 . S
Mn252 O267 2.162 . S
Mn252 O268 2.297 . S
Mn252 O276 2.385 . S
Mn252 O277 2.209 . S
Mn252 O278 2.094 . S
Mn253 O258 2.121 . S
Mn253 N260 2.257 . S
Mn253 N269 2.282 . S
Mn253 O277 2.215 1_556 S
Mn253 O279 2.117 . S
C254 O276 1.234 . S
C254 O277 1.283 . S
C255 O267 1.281 . S
C255 O268 1.236 . S
C256 O278 1.240 . S
C256 O279 1.264 1_554 S
O257 Mn252 2.095 . S
O257 C266 1.250 . S
O258 Mn253 2.121 . S
O258 C266 1.258 1_556 S
C259 N260 1.326 . S
C259 C263 1.460 . S
C259 H265 0.929 . S
N260 Mn253 2.257 . S
N260 C259 1.326 . S
N260 C264 1.362 . S
C261 C262 1.258 . S
C261 C264 1.431 . S
C261 C281 1.449 . S
C262 C261 1.258 . S
C262 C263 1.477 . S
C262 H282 0.931 . S
C263 C259 1.460 . S
C263 C262 1.477 . S
C263 H283 0.930 . S
C264 N260 1.362 . S
C264 C261 1.431 . S
C264 C274 1.476 . S
H265 C259 0.929 . S
C266 O257 1.250 . S
C266 O258 1.258 1_554 S
O267 Mn252 2.162 . S
O267 C255 1.281 . S
O268 Mn252 2.297 . S
O268 C255 1.236 . S
N269 Mn253 2.282 . S
N269 C270 1.328 . S
N269 C274 1.318 . S
C270 N269 1.328 . S
C270 C271 1.457 . S
C270 H275 0.929 . S
C271 C270 1.457 . S
C271 C272 1.291 . S
C271 H284 0.931 . S
C272 C271 1.291 . S
C272 C273 1.373 . S
C272 H285 0.929 . S
C273 C272 1.373 . S
C273 C274 1.396 . S
C273 C280 1.403 . S
C274 C264 1.476 . S
C274 N269 1.318 . S
C274 C273 1.396 . S
H275 C270 0.929 . S
O276 Mn252 2.385 . S
O276 C254 1.234 . S
O277 Mn252 2.209 . S
O277 Mn253 2.215 1_554 S
O277 C254 1.283 . S
O278 Mn252 2.094 . S
O278 C256 1.240 . S
O279 Mn253 2.117 . S
O279 C256 1.264 1_556 S
C280 C273 1.403 . S
C280 C281 1.399 . S
C280 H286 0.929 . S
C281 C261 1.449 . S
C281 C280 1.399 . S
C281 H287 0.930 . S
H282 C262 0.931 . S
H283 C263 0.930 . S
H284 C271 0.931 . S
H285 C272 0.929 . S
H286 C280 0.929 . S
H287 C281 0.930 . S
C288 C289 1.391 . S
C288 C290 1.394 . S
C288 H304 0.931 . S
C289 C288 1.391 . S
C289 C293 1.376 . S
C290 C288 1.394 . S
C290 C291 1.369 . S
C290 C294 1.531 . S
C291 C290 1.369 . S
C291 C292 1.410 . S
C291 C299 1.503 . S
C292 C291 1.410 . S
C292 C293 1.392 . S
C292 C295 1.511 . S
C293 C289 1.376 . S
C293 C292 1.392 . S
C293 H305 0.929 . S
C294 C290 1.531 . S
C294 H306 0.960 . S
C294 H307 0.962 . S
C294 H308 0.960 . S
C295 C292 1.511 . S
C295 H309 0.961 . S
C295 H310 0.961 . S
C295 H311 0.961 . S
C296 C297 1.370 . S
C296 C298 1.363 . S
C296 H312 0.931 . S
C297 C296 1.370 . S
C297 C301 1.408 . S
C298 C296 1.363 . S
C298 C299 1.370 . S
C298 C302 1.524 . S
C299 C291 1.503 . S
C299 C298 1.370 . S
C299 C300 1.403 . S
C300 C299 1.403 . S
C300 C301 1.404 . S
C300 C303 1.539 . S
C301 C297 1.408 . S
C301 C300 1.404 . S
C301 H313 0.930 . S
C302 C298 1.524 . S
C302 H314 0.956 . S
C302 H315 0.961 . S
C302 H316 0.961 . S
C303 C300 1.539 . S
C303 H317 0.958 . S
C303 H318 0.961 . S
C303 H319 0.960 . S
H304 C288 0.931 . S
H305 C293 0.929 . S
H306 C294 0.960 . S
H307 C294 0.962 . S
H308 C294 0.960 . S
H309 C295 0.961 . S
H310 C295 0.961 . S
H311 C295 0.961 . S
H312 C296 0.931 . S
H313 C301 0.930 . S
H314 C302 0.956 . S
H315 C302 0.961 . S
H316 C302 0.961 . S
H317 C303 0.958 . S
H318 C303 0.961 . S
H319 C303 0.960 . S
C320 C321 1.391 . S
C320 C322 1.394 . S
C320 H336 0.931 . S
C321 C320 1.391 . S
C321 C325 1.376 . S
C322 C320 1.394 . S
C322 C323 1.369 . S
C322 C326 1.531 . S
C323 C322 1.369 . S
C323 C324 1.410 . S
C323 C331 1.503 . S
C324 C323 1.410 . S
C324 C325 1.392 . S
C324 C327 1.511 . S
C325 C321 1.376 . S
C325 C324 1.392 . S
C325 H337 0.929 . S
C326 C322 1.531 . S
C326 H338 0.960 . S
C326 H339 0.962 . S
C326 H340 0.960 . S
C327 C324 1.511 . S
C327 H341 0.961 . S
C327 H342 0.961 . S
C327 H343 0.961 . S
C328 C329 1.370 . S
C328 C330 1.363 . S
C328 H344 0.931 . S
C329 C328 1.370 . S
C329 C333 1.408 . S
C330 C328 1.363 . S
C330 C331 1.370 . S
C330 C334 1.524 . S
C331 C323 1.503 . S
C331 C330 1.370 . S
C331 C332 1.403 . S
C332 C331 1.403 . S
C332 C333 1.404 . S
C332 C335 1.539 . S
C333 C329 1.408 . S
C333 C332 1.404 . S
C333 H345 0.930 . S
C334 C330 1.524 . S
C334 H346 0.956 . S
C334 H347 0.961 . S
C334 H348 0.961 . S
C335 C332 1.539 . S
C335 H349 0.958 . S
C335 H350 0.961 . S
C335 H351 0.960 . S
H336 C320 0.931 . S
H337 C325 0.929 . S
H338 C326 0.960 . S
H339 C326 0.962 . S
H340 C326 0.960 . S
H341 C327 0.961 . S
H342 C327 0.961 . S
H343 C327 0.961 . S
H344 C328 0.931 . S
H345 C333 0.930 . S
H346 C334 0.956 . S
H347 C334 0.961 . S
H348 C334 0.961 . S
H349 C335 0.958 . S
H350 C335 0.961 . S
H351 C335 0.960 . S
C352 C353 1.391 . S
C352 C354 1.394 . S
C352 H368 0.931 . S
C353 C352 1.391 . S
C353 C357 1.376 . S
C354 C352 1.394 . S
C354 C355 1.369 . S
C354 C358 1.531 . S
C355 C354 1.369 . S
C355 C356 1.410 . S
C355 C363 1.503 . S
C356 C355 1.410 . S
C356 C357 1.392 . S
C356 C359 1.511 . S
C357 C353 1.376 . S
C357 C356 1.392 . S
C357 H369 0.929 . S
C358 C354 1.531 . S
C358 H370 0.960 . S
C358 H371 0.962 . S
C358 H372 0.960 . S
C359 C356 1.511 . S
C359 H373 0.961 . S
C359 H374 0.961 . S
C359 H375 0.961 . S
C360 C361 1.370 . S
C360 C362 1.363 . S
C360 H376 0.931 . S
C361 C360 1.370 . S
C361 C365 1.408 . S
C362 C360 1.363 . S
C362 C363 1.370 . S
C362 C366 1.524 . S
C363 C355 1.503 . S
C363 C362 1.370 . S
C363 C364 1.403 . S
C364 C363 1.403 . S
C364 C365 1.404 . S
C364 C367 1.539 . S
C365 C361 1.408 . S
C365 C364 1.404 . S
C365 H377 0.930 . S
C366 C362 1.524 . S
C366 H378 0.956 . S
C366 H379 0.961 . S
C366 H380 0.961 . S
C367 C364 1.539 . S
C367 H381 0.958 . S
C367 H382 0.961 . S
C367 H383 0.960 . S
H368 C352 0.931 . S
H369 C357 0.929 . S
H370 C358 0.960 . S
H371 C358 0.962 . S
H372 C358 0.960 . S
H373 C359 0.961 . S
H374 C359 0.961 . S
H375 C359 0.961 . S
H376 C360 0.931 . S
H377 C365 0.930 . S
H378 C366 0.956 . S
H379 C366 0.961 . S
H380 C366 0.961 . S
H381 C367 0.958 . S
H382 C367 0.961 . S
H383 C367 0.960 . S
C384 C385 1.391 . S
C384 C386 1.394 . S
C384 H400 0.931 . S
C385 C384 1.391 . S
C385 C389 1.376 . S
C386 C384 1.394 . S
C386 C387 1.369 . S
C386 C390 1.531 . S
C387 C386 1.369 . S
C387 C388 1.410 . S
C387 C395 1.503 . S
C388 C387 1.410 . S
C388 C389 1.392 . S
C388 C391 1.511 . S
C389 C385 1.376 . S
C389 C388 1.392 . S
C389 H401 0.929 . S
C390 C386 1.531 . S
C390 H402 0.960 . S
C390 H403 0.962 . S
C390 H404 0.960 . S
C391 C388 1.511 . S
C391 H405 0.961 . S
C391 H406 0.961 . S
C391 H407 0.961 . S
C392 C393 1.370 . S
C392 C394 1.363 . S
C392 H408 0.931 . S
C393 C392 1.370 . S
C393 C397 1.408 . S
C394 C392 1.363 . S
C394 C395 1.370 . S
C394 C398 1.524 . S
C395 C387 1.503 . S
C395 C394 1.370 . S
C395 C396 1.403 . S
C396 C395 1.403 . S
C396 C397 1.404 . S
C396 C399 1.539 . S
C397 C393 1.408 . S
C397 C396 1.404 . S
C397 H409 0.930 . S
C398 C394 1.524 . S
C398 H410 0.956 . S
C398 H411 0.961 . S
C398 H412 0.961 . S
C399 C396 1.539 . S
C399 H413 0.958 . S
C399 H414 0.961 . S
C399 H415 0.960 . S
H400 C384 0.931 . S
H401 C389 0.929 . S
H402 C390 0.960 . S
H403 C390 0.962 . S
H404 C390 0.960 . S
H405 C391 0.961 . S
H406 C391 0.961 . S
H407 C391 0.961 . S
H408 C392 0.931 . S
H409 C397 0.930 . S
H410 C398 0.956 . S
H411 C398 0.961 . S
H412 C398 0.961 . S
H413 C399 0.958 . S
H414 C399 0.961 . S
H415 C399 0.960 . S
C416 C417 1.391 . S
C416 C418 1.394 . S
C416 H432 0.931 . S
C417 C416 1.391 . S
C417 C421 1.376 . S
C418 C416 1.394 . S
C418 C419 1.369 . S
C418 C422 1.531 . S
C419 C418 1.369 . S
C419 C420 1.410 . S
C419 C427 1.503 . S
C420 C419 1.410 . S
C420 C421 1.392 . S
C420 C423 1.511 . S
C421 C417 1.376 . S
C421 C420 1.392 . S
C421 H433 0.929 . S
C422 C418 1.531 . S
C422 H434 0.960 . S
C422 H435 0.962 . S
C422 H436 0.960 . S
C423 C420 1.511 . S
C423 H437 0.961 . S
C423 H438 0.961 . S
C423 H439 0.961 . S
C424 C425 1.370 . S
C424 C426 1.363 . S
C424 H440 0.931 . S
C425 C424 1.370 . S
C425 C429 1.408 . S
C426 C424 1.363 . S
C426 C427 1.370 . S
C426 C430 1.524 . S
C427 C419 1.503 . S
C427 C426 1.370 . S
C427 C428 1.403 . S
C428 C427 1.403 . S
C428 C429 1.404 . S
C428 C431 1.539 . S
C429 C425 1.408 . S
C429 C428 1.404 . S
C429 H441 0.930 . S
C430 C426 1.524 . S
C430 H442 0.956 . S
C430 H443 0.961 . S
C430 H444 0.961 . S
C431 C428 1.539 . S
C431 H445 0.958 . S
C431 H446 0.961 . S
C431 H447 0.960 . S
H432 C416 0.931 . S
H433 C421 0.929 . S
H434 C422 0.960 . S
H435 C422 0.962 . S
H436 C422 0.960 . S
H437 C423 0.961 . S
H438 C423 0.961 . S
H439 C423 0.961 . S
H440 C424 0.931 . S
H441 C429 0.930 . S
H442 C430 0.956 . S
H443 C430 0.961 . S
H444 C430 0.961 . S
H445 C431 0.958 . S
H446 C431 0.961 . S
H447 C431 0.960 . S
C448 C449 1.391 . S
C448 C450 1.394 . S
C448 H464 0.931 . S
C449 C448 1.391 . S
C449 C453 1.376 . S
C450 C448 1.394 . S
C450 C451 1.369 . S
C450 C454 1.531 . S
C451 C450 1.369 . S
C451 C452 1.410 . S
C451 C459 1.503 . S
C452 C451 1.410 . S
C452 C453 1.392 . S
C452 C455 1.511 . S
C453 C449 1.376 . S
C453 C452 1.392 . S
C453 H465 0.929 . S
C454 C450 1.531 . S
C454 H466 0.960 . S
C454 H467 0.962 . S
C454 H468 0.960 . S
C455 C452 1.511 . S
C455 H469 0.961 . S
C455 H470 0.961 . S
C455 H471 0.961 . S
C456 C457 1.370 . S
C456 C458 1.363 . S
C456 H472 0.931 . S
C457 C456 1.370 . S
C457 C461 1.408 . S
C458 C456 1.363 . S
C458 C459 1.370 . S
C458 C462 1.524 . S
C459 C451 1.503 . S
C459 C458 1.370 . S
C459 C460 1.403 . S
C460 C459 1.403 . S
C460 C461 1.404 . S
C460 C463 1.539 . S
C461 C457 1.408 . S
C461 C460 1.404 . S
C461 H473 0.930 . S
C462 C458 1.524 . S
C462 H474 0.956 . S
C462 H475 0.961 . S
C462 H476 0.961 . S
C463 C460 1.539 . S
C463 H477 0.958 . S
C463 H478 0.961 . S
C463 H479 0.960 . S
H464 C448 0.931 . S
H465 C453 0.929 . S
H466 C454 0.960 . S
H467 C454 0.962 . S
H468 C454 0.960 . S
H469 C455 0.961 . S
H470 C455 0.961 . S
H471 C455 0.961 . S
H472 C456 0.931 . S
H473 C461 0.930 . S
H474 C462 0.956 . S
H475 C462 0.961 . S
H476 C462 0.961 . S
H477 C463 0.958 . S
H478 C463 0.961 . S
H479 C463 0.960 . S
C480 C481 1.391 . S
C480 C482 1.394 . S
C480 H496 0.931 . S
C481 C480 1.391 . S
C481 C485 1.376 . S
C482 C480 1.394 . S
C482 C483 1.369 . S
C482 C486 1.531 . S
C483 C482 1.369 . S
C483 C484 1.410 . S
C483 C491 1.503 . S
C484 C483 1.410 . S
C484 C485 1.392 . S
C484 C487 1.511 . S
C485 C481 1.376 . S
C485 C484 1.392 . S
C485 H497 0.929 . S
C486 C482 1.531 . S
C486 H498 0.960 . S
C486 H499 0.962 . S
C486 H500 0.960 . S
C487 C484 1.511 . S
C487 H501 0.961 . S
C487 H502 0.961 . S
C487 H503 0.961 . S
C488 C489 1.370 . S
C488 C490 1.363 . S
C488 H504 0.931 . S
C489 C488 1.370 . S
C489 C493 1.408 . S
C490 C488 1.363 . S
C490 C491 1.370 . S
C490 C494 1.524 . S
C491 C483 1.503 . S
C491 C490 1.370 . S
C491 C492 1.403 . S
C492 C491 1.403 . S
C492 C493 1.404 . S
C492 C495 1.539 . S
C493 C489 1.408 . S
C493 C492 1.404 . S
C493 H505 0.930 . S
C494 C490 1.524 . S
C494 H506 0.956 . S
C494 H507 0.961 . S
C494 H508 0.961 . S
C495 C492 1.539 . S
C495 H509 0.958 . S
C495 H510 0.961 . S
C495 H511 0.960 . S
H496 C480 0.931 . S
H497 C485 0.929 . S
H498 C486 0.960 . S
H499 C486 0.962 . S
H500 C486 0.960 . S
H501 C487 0.961 . S
H502 C487 0.961 . S
H503 C487 0.961 . S
H504 C488 0.931 . S
H505 C493 0.930 . S
H506 C494 0.956 . S
H507 C494 0.961 . S
H508 C494 0.961 . S
H509 C495 0.958 . S
H510 C495 0.961 . S
H511 C495 0.960 . S
C512 C513 1.391 . S
C512 C514 1.394 . S
C512 H528 0.931 . S
C513 C512 1.391 . S
C513 C517 1.376 . S
C514 C512 1.394 . S
C514 C515 1.369 . S
C514 C518 1.531 . S
C515 C514 1.369 . S
C515 C516 1.410 . S
C515 C523 1.503 . S
C516 C515 1.410 . S
C516 C517 1.392 . S
C516 C519 1.511 . S
C517 C513 1.376 . S
C517 C516 1.392 . S
C517 H529 0.929 . S
C518 C514 1.531 . S
C518 H530 0.960 . S
C518 H531 0.962 . S
C518 H532 0.960 . S
C519 C516 1.511 . S
C519 H533 0.961 . S
C519 H534 0.961 . S
C519 H535 0.961 . S
C520 C521 1.370 . S
C520 C522 1.363 . S
C520 H536 0.931 . S
C521 C520 1.370 . S
C521 C525 1.408 . S
C522 C520 1.363 . S
C522 C523 1.370 . S
C522 C526 1.524 . S
C523 C515 1.503 . S
C523 C522 1.370 . S
C523 C524 1.403 . S
C524 C523 1.403 . S
C524 C525 1.404 . S
C524 C527 1.539 . S
C525 C521 1.408 . S
C525 C524 1.404 . S
C525 H537 0.930 . S
C526 C522 1.524 . S
C526 H538 0.956 . S
C526 H539 0.961 . S
C526 H540 0.961 . S
C527 C524 1.539 . S
C527 H541 0.958 . S
C527 H542 0.961 . S
C527 H543 0.960 . S
H528 C512 0.931 . S
H529 C517 0.929 . S
H530 C518 0.960 . S
H531 C518 0.962 . S
H532 C518 0.960 . S
H533 C519 0.961 . S
H534 C519 0.961 . S
H535 C519 0.961 . S
H536 C520 0.931 . S
H537 C525 0.930 . S
H538 C526 0.956 . S
H539 C526 0.961 . S
H540 C526 0.961 . S
H541 C527 0.958 . S
H542 C527 0.961 . S
H543 C527 0.960 . S
C544 C545 1.391 1_556 S
C544 C546 1.394 . S
C544 H560 0.931 . S
C545 C544 1.391 1_554 S
C545 C549 1.376 . S
C546 C544 1.394 . S
C546 C547 1.369 . S
C546 C550 1.531 . S
C547 C546 1.369 . S
C547 C548 1.410 1_556 S
C547 C555 1.503 . S
C548 C547 1.410 1_554 S
C548 C549 1.392 . S
C548 C551 1.511 . S
C549 C545 1.376 . S
C549 C548 1.392 . S
C549 H561 0.929 . S
C550 C546 1.531 . S
C550 H562 0.960 . S
C550 H563 0.962 . S
C550 H564 0.960 . S
C551 C548 1.511 . S
C551 H565 0.961 . S
C551 H566 0.961 . S
C551 H567 0.961 . S
C552 C553 1.370 1_554 S
C552 C554 1.363 . S
C552 H568 0.931 . S
C553 C552 1.370 1_556 S
C553 C557 1.408 . S
C554 C552 1.363 . S
C554 C555 1.370 1_554 S
C554 C558 1.524 . S
C555 C547 1.503 . S
C555 C554 1.370 1_556 S
C555 C556 1.403 . S
C556 C555 1.403 . S
C556 C557 1.404 . S
C556 C559 1.539 . S
C557 C553 1.408 . S
C557 C556 1.404 . S
C557 H569 0.930 . S
C558 C554 1.524 . S
C558 H570 0.956 . S
C558 H571 0.961 . S
C558 H572 0.961 . S
C559 C556 1.539 . S
C559 H573 0.958 . S
C559 H574 0.961 . S
C559 H575 0.960 . S
H560 C544 0.931 . S
H561 C549 0.929 . S
H562 C550 0.960 . S
H563 C550 0.962 . S
H564 C550 0.960 . S
H565 C551 0.961 . S
H566 C551 0.961 . S
H567 C551 0.961 . S
H568 C552 0.931 . S
H569 C557 0.930 . S
H570 C558 0.956 . S
H571 C558 0.961 . S
H572 C558 0.961 . S
H573 C559 0.958 . S
H574 C559 0.961 . S
H575 C559 0.960 . S
C576 C577 1.389 1_556 S
C576 C578 1.397 . S
C576 H592 0.930 1_556 S
C577 C576 1.389 1_554 S
C577 C581 1.376 . S
C578 C576 1.397 . S
C578 C579 1.369 . S
C578 C582 1.531 . S
C579 C578 1.369 . S
C579 C580 1.410 . S
C579 C587 1.503 . S
C580 C579 1.410 . S
C580 C581 1.392 1_556 S
C580 C583 1.511 . S
C581 C577 1.376 . S
C581 C580 1.392 1_554 S
C581 H593 0.929 . S
C582 C578 1.531 . S
C582 H594 0.960 . S
C582 H595 0.962 1_556 S
C582 H596 0.960 . S
C583 C580 1.511 . S
C583 H597 0.961 1_556 S
C583 H598 0.960 . S
C583 H599 0.961 . S
C584 C585 1.370 1_554 S
C584 C586 1.363 . S
C584 H600 0.931 . S
C585 C584 1.370 1_556 S
C585 C589 1.408 . S
C586 C584 1.363 . S
C586 C587 1.370 1_554 S
C586 C590 1.524 . S
C587 C579 1.503 . S
C587 C586 1.370 1_556 S
C587 C588 1.403 . S
C588 C587 1.403 . S
C588 C589 1.404 . S
C588 C591 1.539 . S
C589 C585 1.408 . S
C589 C588 1.404 . S
C589 H601 0.930 . S
C590 C586 1.524 . S
C590 H602 0.956 . S
C590 H603 0.961 . S
C590 H604 0.961 . S
C591 C588 1.539 . S
C591 H605 0.958 . S
C591 H606 0.961 . S
C591 H607 0.960 . S
H592 C576 0.930 1_554 S
H593 C581 0.929 . S
H594 C582 0.960 . S
H595 C582 0.962 1_554 S
H596 C582 0.960 . S
H597 C583 0.961 1_554 S
H598 C583 0.960 . S
H599 C583 0.961 . S
H600 C584 0.931 . S
H601 C589 0.930 . S
H602 C590 0.956 . S
H603 C590 0.961 . S
H604 C590 0.961 . S
H605 C591 0.958 . S
H606 C591 0.961 . S
H607 C591 0.960 . S
C608 C609 1.391 . S
C608 C610 1.394 . S
C608 H624 0.931 . S
C609 C608 1.391 . S
C609 C613 1.376 . S
C610 C608 1.394 . S
C610 C611 1.369 . S
C610 C614 1.531 . S
C611 C610 1.369 . S
C611 C612 1.410 . S
C611 C619 1.503 . S
C612 C611 1.410 . S
C612 C613 1.392 . S
C612 C615 1.511 . S
C613 C609 1.376 . S
C613 C612 1.392 . S
C613 H625 0.929 . S
C614 C610 1.531 . S
C614 H626 0.960 . S
C614 H627 0.962 1_554 S
C614 H628 0.960 . S
C615 C612 1.511 . S
C615 H629 0.961 . S
C615 H630 0.961 . S
C615 H631 0.961 . S
C616 C617 1.370 . S
C616 C618 1.363 . S
C616 H632 0.931 . S
C617 C616 1.370 . S
C617 C621 1.408 1_556 S
C618 C616 1.363 . S
C618 C619 1.370 1_556 S
C618 C622 1.524 . S
C619 C611 1.503 . S
C619 C618 1.370 1_554 S
C619 C620 1.403 . S
C620 C619 1.403 . S
C620 C621 1.404 . S
C620 C623 1.539 . S
C621 C617 1.408 1_554 S
C621 C620 1.404 . S
C621 H633 0.930 . S
C622 C618 1.524 . S
C622 H634 0.956 . S
C622 H635 0.961 . S
C622 H636 0.961 . S
C623 C620 1.539 . S
C623 H637 0.958 . S
C623 H638 0.961 . S
C623 H639 0.960 . S
H624 C608 0.931 . S
H625 C613 0.929 . S
H626 C614 0.960 . S
H627 C614 0.962 1_556 S
H628 C614 0.960 . S
H629 C615 0.961 . S
H630 C615 0.961 . S
H631 C615 0.961 . S
H632 C616 0.931 . S
H633 C621 0.930 . S
H634 C622 0.956 . S
H635 C622 0.961 . S
H636 C622 0.961 . S
H637 C623 0.958 . S
H638 C623 0.961 . S
H639 C623 0.960 . S
C640 C641 1.391 . S
C640 C642 1.394 . S
C640 H656 0.931 1_556 S
C641 C640 1.391 . S
C641 C645 1.376 . S
C642 C640 1.394 . S
C642 C643 1.369 . S
C642 C646 1.531 1_556 S
C643 C642 1.369 . S
C643 C644 1.410 . S
C643 C651 1.503 . S
C644 C643 1.410 . S
C644 C645 1.392 . S
C644 C647 1.511 . S
C645 C641 1.376 . S
C645 C644 1.392 . S
C645 H657 0.929 . S
C646 C642 1.531 1_554 S
C646 H658 0.959 1_554 S
C646 H659 0.962 . S
C646 H660 0.960 . S
C647 C644 1.511 . S
C647 H661 0.961 . S
C647 H662 0.961 . S
C647 H663 0.961 . S
C648 C649 1.370 . S
C648 C650 1.363 . S
C648 H664 0.931 . S
C649 C648 1.370 . S
C649 C653 1.408 1_554 S
C650 C648 1.363 . S
C650 C651 1.370 1_554 S
C650 C654 1.524 . S
C651 C643 1.503 . S
C651 C650 1.370 1_556 S
C651 C652 1.403 . S
C652 C651 1.403 . S
C652 C653 1.404 . S
C652 C655 1.539 . S
C653 C649 1.408 1_556 S
C653 C652 1.404 . S
C653 H665 0.930 . S
C654 C650 1.524 . S
C654 H666 0.956 . S
C654 H667 0.961 . S
C654 H668 0.961 . S
C655 C652 1.539 . S
C655 H669 0.958 . S
C655 H670 0.961 . S
C655 H671 0.960 . S
H656 C640 0.931 1_554 S
H657 C645 0.929 . S
H658 C646 0.959 1_556 S
H659 C646 0.962 . S
H660 C646 0.960 . S
H661 C647 0.961 . S
H662 C647 0.961 . S
H663 C647 0.961 . S
H664 C648 0.931 . S
H665 C653 0.930 . S
H666 C654 0.956 . S
H667 C654 0.961 . S
H668 C654 0.961 . S
H669 C655 0.958 . S
H670 C655 0.961 . S
H671 C655 0.960 . S
C672 C673 1.391 . S
C672 C674 1.394 . S
C672 H688 0.931 . S
C673 C672 1.391 . S
C673 C677 1.376 . S
C674 C672 1.394 . S
C674 C675 1.369 . S
C674 C678 1.531 . S
C675 C674 1.369 . S
C675 C676 1.410 . S
C675 C683 1.503 1_655 S
C676 C675 1.410 . S
C676 C677 1.392 . S
C676 C679 1.511 1_655 S
C677 C673 1.376 . S
C677 C676 1.392 . S
C677 H689 0.929 . S
C678 C674 1.531 . S
C678 H690 0.960 1_655 S
C678 H691 0.962 . S
C678 H692 0.960 . S
C679 C676 1.511 1_455 S
C679 H693 0.961 . S
C679 H694 0.961 . S
C679 H695 0.961 . S
C680 C681 1.370 . S
C680 C682 1.363 1_455 S
C680 H696 0.931 1_455 S
C681 C680 1.370 . S
C681 C685 1.408 . S
C682 C680 1.363 1_655 S
C682 C683 1.370 1_655 S
C682 C686 1.524 . S
C683 C675 1.503 1_455 S
C683 C682 1.370 1_455 S
C683 C684 1.403 . S
C684 C683 1.403 . S
C684 C685 1.404 . S
C684 C687 1.539 . S
C685 C681 1.408 . S
C685 C684 1.404 . S
C685 H697 0.930 . S
C686 C682 1.524 . S
C686 H698 0.956 . S
C686 H699 0.961 . S
C686 H700 0.961 . S
C687 C684 1.539 . S
C687 H701 0.958 . S
C687 H702 0.961 . S
C687 H703 0.960 . S
H688 C672 0.931 . S
H689 C677 0.929 . S
H690 C678 0.960 1_455 S
H691 C678 0.962 . S
H692 C678 0.960 . S
H693 C679 0.961 . S
H694 C679 0.961 . S
H695 C679 0.961 . S
H696 C680 0.931 1_655 S
H697 C685 0.930 . S
H698 C686 0.956 . S
H699 C686 0.961 . S
H700 C686 0.961 . S
H701 C687 0.958 . S
H702 C687 0.961 . S
H703 C687 0.960 . S
C704 C705 1.391 . S
C704 C706 1.394 . S
C704 H720 0.931 . S
C705 C704 1.391 . S
C705 C709 1.376 . S
C706 C704 1.394 . S
C706 C707 1.369 . S
C706 C710 1.531 . S
C707 C706 1.369 . S
C707 C708 1.410 . S
C707 C715 1.503 1_545 S
C708 C707 1.410 . S
C708 C709 1.393 . S
C708 C711 1.510 1_545 S
C709 C705 1.376 . S
C709 C708 1.393 . S
C709 H721 0.929 . S
C710 C706 1.531 . S
C710 H722 0.960 . S
C710 H723 0.962 . S
C710 H724 0.960 . S
C711 C708 1.510 1_565 S
C711 H725 0.961 . S
C711 H726 0.961 . S
C711 H727 0.961 . S
C712 C713 1.370 . S
C712 C714 1.363 1_565 S
C712 H728 0.931 1_565 S
C713 C712 1.370 . S
C713 C717 1.408 . S
C714 C712 1.363 1_545 S
C714 C715 1.370 1_545 S
C714 C718 1.524 . S
C715 C707 1.503 1_565 S
C715 C714 1.370 1_565 S
C715 C716 1.403 . S
C716 C715 1.403 . S
C716 C717 1.404 . S
C716 C719 1.539 . S
C717 C713 1.408 . S
C717 C716 1.404 . S
C717 H729 0.930 . S
C718 C714 1.524 . S
C718 H730 0.956 . S
C718 H731 0.961 . S
C718 H732 0.961 . S
C719 C716 1.539 . S
C719 H733 0.958 . S
C719 H734 0.961 . S
C719 H735 0.960 . S
H720 C704 0.931 . S
H721 C709 0.929 . S
H722 C710 0.960 . S
H723 C710 0.962 . S
H724 C710 0.960 . S
H725 C711 0.961 . S
H726 C711 0.961 . S
H727 C711 0.961 . S
H728 C712 0.931 1_545 S
H729 C717 0.930 . S
H730 C718 0.956 . S
H731 C718 0.961 . S
H732 C718 0.961 . S
H733 C719 0.958 . S
H734 C719 0.961 . S
H735 C719 0.960 . S
C736 C737 1.391 . S
C736 C738 1.394 . S
C736 H752 0.931 . S
C737 C736 1.391 . S
C737 C741 1.376 . S
C738 C736 1.394 . S
C738 C739 1.369 . S
C738 C742 1.531 . S
C739 C738 1.369 . S
C739 C740 1.410 . S
C739 C747 1.503 1_545 S
C740 C739 1.410 . S
C740 C741 1.392 . S
C740 C743 1.511 1_545 S
C741 C737 1.376 . S
C741 C740 1.392 . S
C741 H753 0.929 . S
C742 C738 1.531 . S
C742 H754 0.960 . S
C742 H755 0.962 1_556 S
C742 H756 0.960 . S
C743 C740 1.511 1_565 S
C743 H757 0.961 . S
C743 H758 0.961 . S
C743 H759 0.961 . S
C744 C745 1.370 1_554 S
C744 C746 1.363 . S
C744 H760 0.931 . S
C745 C744 1.370 1_556 S
C745 C749 1.408 . S
C746 C744 1.363 . S
C746 C747 1.370 1_554 S
C746 C750 1.524 . S
C747 C739 1.503 1_565 S
C747 C746 1.370 1_556 S
C747 C748 1.403 . S
C748 C747 1.403 . S
C748 C749 1.404 . S
C748 C751 1.539 . S
C749 C745 1.408 . S
C749 C748 1.404 . S
C749 H761 0.930 . S
C750 C746 1.524 . S
C750 H762 0.956 1_565 S
C750 H763 0.961 . S
C750 H764 0.961 . S
C751 C748 1.539 . S
C751 H765 0.958 . S
C751 H766 0.961 . S
C751 H767 0.960 . S
H752 C736 0.931 . S
H753 C741 0.929 . S
H754 C742 0.960 . S
H755 C742 0.962 1_554 S
H756 C742 0.960 . S
H757 C743 0.961 . S
H758 C743 0.961 . S
H759 C743 0.961 . S
H760 C744 0.931 . S
H761 C749 0.930 . S
H762 C750 0.956 1_545 S
H763 C750 0.961 . S
H764 C750 0.961 . S
H765 C751 0.958 . S
H766 C751 0.961 . S
H767 C751 0.960 . S
C768 C769 1.391 . S
C768 C770 1.394 . S
C768 H784 0.931 . S
C769 C768 1.391 . S
C769 C773 1.376 . S
C770 C768 1.394 . S
C770 C771 1.369 . S
C770 C774 1.531 1_554 S
C771 C770 1.369 . S
C771 C772 1.410 . S
C771 C779 1.503 1_455 S
C772 C771 1.410 . S
C772 C773 1.392 . S
C772 C775 1.511 1_455 S
C773 C769 1.376 . S
C773 C772 1.392 . S
C773 H785 0.929 . S
C774 C770 1.531 1_556 S
C774 H786 0.960 . S
C774 H787 0.962 1_556 S
C774 H788 0.960 . S
C775 C772 1.511 1_655 S
C775 H789 0.961 . S
C775 H790 0.961 . S
C775 H791 0.961 1_554 S
C776 C777 1.370 . S
C776 C778 1.363 . S
C776 H792 0.931 . S
C777 C776 1.370 . S
C777 C781 1.408 1_554 S
C778 C776 1.363 . S
C778 C779 1.370 . S
C778 C782 1.524 . S
C779 C771 1.503 1_655 S
C779 C778 1.370 . S
C779 C780 1.403 1_554 S
C780 C779 1.403 1_556 S
C780 C781 1.404 . S
C780 C783 1.539 . S
C781 C777 1.408 1_556 S
C781 C780 1.404 . S
C781 H793 0.930 . S
C782 C778 1.524 . S
C782 H794 0.956 1_655 S
C782 H795 0.961 . S
C782 H796 0.961 . S
C783 C780 1.539 . S
C783 H797 0.958 . S
C783 H798 0.961 . S
C783 H799 0.960 . S
H784 C768 0.931 . S
H785 C773 0.929 . S
H786 C774 0.960 . S
H787 C774 0.962 1_554 S
H788 C774 0.960 . S
H789 C775 0.961 . S
H790 C775 0.961 . S
H791 C775 0.961 1_556 S
H792 C776 0.931 . S
H793 C781 0.930 . S
H794 C782 0.956 1_455 S
H795 C782 0.961 . S
H796 C782 0.961 . S
H797 C783 0.958 . S
H798 C783 0.961 . S
H799 C783 0.960 . S
C289 C255 1.548 . S
C297 C3 1.545 . S
C321 C39 1.548 . S
C329 C147 1.543 . S
C353 C75 1.537 . S
C361 C183 1.548 . S
C385 C219 1.547 . S
C393 C111 1.545 . S
C417 C40 1.446 . S
C425 C14 1.400 . S
C449 C50 1.394 . S
C457 C76 1.450 . S
C481 C112 1.449 . S
C489 C86 1.389 . S
C513 C122 1.384 . S
C521 C4 1.451 . S
C545 C256 1.444 . S
C553 C158 1.409 . S
C577 C194 1.380 . S
C585 C148 1.452 . S
C609 C184 1.448 . S
C617 C230 1.390 . S
C641 C220 1.450 . S
C649 C266 1.389 . S
C673 C74 0.853 . S
C681 C2 0.922 . S
C705 C110 0.885 . S
C713 C38 0.928 . S
C737 C218 0.859 . S
C745 C146 0.886 . S
C769 C254 0.958 . S
C777 C182 0.918 . S
