# Generated by pormake.
# Topology wiv, (6)-cn, num edge types: 1
# Building blocks:
#     Node 0, Type 0, BuildingBlock: VOLQOD_clean_sbu_1, # of connection points: 6
#     Node 1, Type 0, BuildingBlock: VOLQOD_clean_sbu_1, # of connection points: 6
#     Node 2, Type 0, BuildingBlock: VOLQOD_clean_sbu_1, # of connection points: 6
#     Node 3, Type 0, BuildingBlock: VOLQOD_clean_sbu_1, # of connection points: 6
#     Node 4, Type 0, BuildingBlock: VOLQOD_clean_sbu_1, # of connection points: 6
#     Node 5, Type 0, BuildingBlock: VOLQOD_clean_sbu_1, # of connection points: 6
#     Node 6, Type 0, BuildingBlock: VOLQOD_clean_sbu_1, # of connection points: 6
#     Node 7, Type 0, BuildingBlock: VOLQOD_clean_sbu_1, # of connection points: 6
#     Node 8, Type 0, BuildingBlock: VOLQOD_clean_sbu_1, # of connection points: 6
#     Node 9, Type 0, BuildingBlock: VOLQOD_clean_sbu_1, # of connection points: 6
#     Node 10, Type 0, BuildingBlock: VOLQOD_clean_sbu_1, # of connection points: 6
#     Node 11, Type 0, BuildingBlock: VOLQOD_clean_sbu_1, # of connection points: 6
#     Node 12, Type 0, BuildingBlock: VOLQOD_clean_sbu_1, # of connection points: 6
#     Node 13, Type 0, BuildingBlock: VOLQOD_clean_sbu_1, # of connection points: 6
#     Node 14, Type 0, BuildingBlock: VOLQOD_clean_sbu_1, # of connection points: 6
#     Node 15, Type 0, BuildingBlock: VOLQOD_clean_sbu_1, # of connection points: 6
#     Edge 16, Type (0, 0), BuildingBlock: KIFKEQ_clean_linker_1, # of connection points: 2
#     Edge 17, Type (0, 0), BuildingBlock: KIFKEQ_clean_linker_1, # of connection points: 2
#     Edge 18, Type (0, 0), BuildingBlock: KIFKEQ_clean_linker_1, # of connection points: 2
#     Edge 19, Type (0, 0), BuildingBlock: KIFKEQ_clean_linker_1, # of connection points: 2
#     Edge 20, Type (0, 0), BuildingBlock: KIFKEQ_clean_linker_1, # of connection points: 2
#     Edge 21, Type (0, 0), BuildingBlock: KIFKEQ_clean_linker_1, # of connection points: 2
#     Edge 22, Type (0, 0), BuildingBlock: KIFKEQ_clean_linker_1, # of connection points: 2
#     Edge 23, Type (0, 0), BuildingBlock: KIFKEQ_clean_linker_1, # of connection points: 2
#     Edge 24, Type (0, 0), BuildingBlock: KIFKEQ_clean_linker_1, # of connection points: 2
#     Edge 25, Type (0, 0), BuildingBlock: KIFKEQ_clean_linker_1, # of connection points: 2
#     Edge 26, Type (0, 0), BuildingBlock: KIFKEQ_clean_linker_1, # of connection points: 2
#     Edge 27, Type (0, 0), BuildingBlock: KIFKEQ_clean_linker_1, # of connection points: 2
#     Edge 28, Type (0, 0), BuildingBlock: KIFKEQ_clean_linker_1, # of connection points: 2
#     Edge 29, Type (0, 0), BuildingBlock: KIFKEQ_clean_linker_1, # of connection points: 2
#     Edge 30, Type (0, 0), BuildingBlock: KIFKEQ_clean_linker_1, # of connection points: 2
#     Edge 31, Type (0, 0), BuildingBlock: KIFKEQ_clean_linker_1, # of connection points: 2
#     Edge 32, Type (0, 0), BuildingBlock: KIFKEQ_clean_linker_1, # of connection points: 2
#     Edge 33, Type (0, 0), BuildingBlock: KIFKEQ_clean_linker_1, # of connection points: 2
#     Edge 34, Type (0, 0), BuildingBlock: KIFKEQ_clean_linker_1, # of connection points: 2
#     Edge 35, Type (0, 0), BuildingBlock: KIFKEQ_clean_linker_1, # of connection points: 2
#     Edge 36, Type (0, 0), BuildingBlock: KIFKEQ_clean_linker_1, # of connection points: 2
#     Edge 37, Type (0, 0), BuildingBlock: KIFKEQ_clean_linker_1, # of connection points: 2
#     Edge 38, Type (0, 0), BuildingBlock: KIFKEQ_clean_linker_1, # of connection points: 2
#     Edge 39, Type (0, 0), BuildingBlock: KIFKEQ_clean_linker_1, # of connection points: 2
#     Edge 40, Type (0, 0), BuildingBlock: KIFKEQ_clean_linker_1, # of connection points: 2
#     Edge 41, Type (0, 0), BuildingBlock: KIFKEQ_clean_linker_1, # of connection points: 2
#     Edge 42, Type (0, 0), BuildingBlock: KIFKEQ_clean_linker_1, # of connection points: 2
#     Edge 43, Type (0, 0), BuildingBlock: KIFKEQ_clean_linker_1, # of connection points: 2
#     Edge 44, Type (0, 0), BuildingBlock: KIFKEQ_clean_linker_1, # of connection points: 2
#     Edge 45, Type (0, 0), BuildingBlock: KIFKEQ_clean_linker_1, # of connection points: 2
#     Edge 46, Type (0, 0), BuildingBlock: KIFKEQ_clean_linker_1, # of connection points: 2
#     Edge 47, Type (0, 0), BuildingBlock: KIFKEQ_clean_linker_1, # of connection points: 2
#     Edge 48, Type (0, 0), BuildingBlock: KIFKEQ_clean_linker_1, # of connection points: 2
#     Edge 49, Type (0, 0), BuildingBlock: KIFKEQ_clean_linker_1, # of connection points: 2
#     Edge 50, Type (0, 0), BuildingBlock: KIFKEQ_clean_linker_1, # of connection points: 2
#     Edge 51, Type (0, 0), BuildingBlock: KIFKEQ_clean_linker_1, # of connection points: 2
#     Edge 52, Type (0, 0), BuildingBlock: KIFKEQ_clean_linker_1, # of connection points: 2
#     Edge 53, Type (0, 0), BuildingBlock: KIFKEQ_clean_linker_1, # of connection points: 2
#     Edge 54, Type (0, 0), BuildingBlock: KIFKEQ_clean_linker_1, # of connection points: 2
#     Edge 55, Type (0, 0), BuildingBlock: KIFKEQ_clean_linker_1, # of connection points: 2
#     Edge 56, Type (0, 0), BuildingBlock: KIFKEQ_clean_linker_1, # of connection points: 2
#     Edge 57, Type (0, 0), BuildingBlock: KIFKEQ_clean_linker_1, # of connection points: 2
#     Edge 58, Type (0, 0), BuildingBlock: KIFKEQ_clean_linker_1, # of connection points: 2
#     Edge 59, Type (0, 0), BuildingBlock: KIFKEQ_clean_linker_1, # of connection points: 2
#     Edge 60, Type (0, 0), BuildingBlock: KIFKEQ_clean_linker_1, # of connection points: 2
#     Edge 61, Type (0, 0), BuildingBlock: KIFKEQ_clean_linker_1, # of connection points: 2
#     Edge 62, Type (0, 0), BuildingBlock: KIFKEQ_clean_linker_1, # of connection points: 2
#     Edge 63, Type (0, 0), BuildingBlock: KIFKEQ_clean_linker_1, # of connection points: 2
# Relax obj value: 0.188
# Max RMSD: 0.161
# Mean RMSD: 0.158
data_MOF--net-wiv--node1-VOLQOD_clean_sbu_1--edge1-KIFKEQ_clean_linker_1
_symmetry_space_group_name_H-M    P1
_symmetry_Int_Tables_number       1
_symmetry_cell_setting            triclinic
loop_
_symmetry_equiv_pos_as_xyz
'x, y, z'
_cell_length_a     65.469999
_cell_length_b     65.870354
_cell_length_c     16.434296
_cell_angle_alpha  90.07536
_cell_angle_beta   90.016882
_cell_angle_gamma 89.980557
loop_
_atom_site_label
_atom_site_type_symbol
_atom_site_fract_x
_atom_site_fract_y
_atom_site_fract_z
_atom_type_partial_charge
O0 O 0.35721 0.12797 0.9682 0.0
Zn1 Zn 0.36198 0.13444 0.08613 0.0
O2 O 0.34336 0.11895 0.1516 0.0
Zn3 Zn 0.31951 0.13516 0.178 0.0
Zn4 Zn 0.33367 0.09555 0.09433 0.0
Zn5 Zn 0.35782 0.10975 0.24453 0.0
O6 O 0.31345 0.13273 0.29755 0.0
O7 O 0.3409 0.11563 0.34055 0.0
O8 O 0.35548 0.16377 0.09895 0.0
O9 O 0.32426 0.16463 0.15221 0.0
O10 O 0.29551 0.12522 0.11276 0.0
O11 O 0.3033 0.09263 0.10023 0.0
O12 O 0.34736 0.06989 0.12819 0.0
O13 O 0.39118 0.13119 0.12337 0.0
O14 O 0.36285 0.07977 0.2414 0.0
O15 O 0.38547 0.12253 0.25202 0.0
C16 C 0.34665 0.1139 0.9356 0.0
C17 C 0.32386 0.12431 0.35359 0.0
C18 C 0.2907 0.1072 0.09196 0.0
C19 C 0.33988 0.17356 0.12318 0.0
C20 C 0.35826 0.06601 0.19027 0.0
C21 C 0.39752 0.1284 0.19593 0.0
O22 O 0.33799 0.10029 0.97792 0.0
O23 O 0.09042 0.59929 0.02064 0.0
Zn24 Zn 0.09141 0.60052 0.89816 0.0
O25 O 0.1111 0.62092 0.86276 0.0
Zn26 Zn 0.09627 0.64459 0.82174 0.0
Zn27 Zn 0.12848 0.6283 0.95212 0.0
Zn28 Zn 0.12903 0.60999 0.78083 0.0
O29 O 0.10064 0.64752 0.70101 0.0
O30 O 0.12289 0.62277 0.67522 0.0
O31 O 0.06314 0.60793 0.86227 0.0
O32 O 0.06606 0.64052 0.8304 0.0
O33 O 0.10375 0.67008 0.88384 0.0
O34 O 0.12621 0.65785 0.97264 0.0
O35 O 0.15805 0.62267 0.9347 0.0
O36 O 0.09845 0.57298 0.85169 0.0
O37 O 0.15882 0.61374 0.80501 0.0
O38 O 0.12418 0.58032 0.76866 0.0
C39 C 0.10357 0.60498 0.07284 0.0
C40 C 0.11156 0.63728 0.65172 0.0
C41 C 0.1161 0.67257 0.94302 0.0
C42 C 0.05518 0.62477 0.84143 0.0
C43 C 0.16798 0.61795 0.87111 0.0
C44 C 0.11186 0.56758 0.79975 0.0
O45 O 0.11941 0.61493 0.05311 0.0
O46 O 0.62433 0.8539 -0.00594 0.0
Zn47 Zn 0.62341 0.8532 0.11603 0.0
O48 O 0.64088 0.87419 0.15879 0.0
Zn49 Zn 0.66694 0.86174 0.19013 0.0
Zn50 Zn 0.64432 0.89471 0.07668 0.0
Zn51 Zn 0.62763 0.88704 0.24888 0.0
O52 O 0.671 0.86422 0.31188 0.0
O53 O 0.64234 0.88 0.34945 0.0
O54 O 0.63371 0.82613 0.1486 0.0
O55 O 0.66683 0.83139 0.16938 0.0
O56 O 0.69015 0.87417 0.12588 0.0
O57 O 0.6738 0.89674 0.04916 0.0
O58 O 0.63439 0.92231 0.10993 0.0
O59 O 0.59464 0.85566 0.15734 0.0
O60 O 0.62659 0.91719 0.23933 0.0
O61 O 0.59861 0.87808 0.25727 0.0
C62 C 0.62654 0.86892 0.94629 0.0
C63 C 0.65925 0.87152 0.36631 0.0
C64 C 0.69016 0.88784 0.07091 0.0
C65 C 0.65164 0.81949 0.16166 0.0
C66 C 0.6286 0.92899 0.1788 0.0
C67 C 0.58746 0.86603 0.21618 0.0
O68 O 0.63134 0.88644 0.97255 0.0
O69 O 0.90879 0.37877 -0.00313 0.0
Zn70 Zn 0.9081 0.37862 0.87476 0.0
O71 O 0.88809 0.35909 0.8358 0.0
Zn72 Zn 0.90244 0.33495 0.79668 0.0
Zn73 Zn 0.86971 0.35235 0.92259 0.0
Zn74 Zn 0.87155 0.37093 0.75158 0.0
O75 O 0.89801 0.33141 0.67644 0.0
O76 O 0.8776 0.35747 0.64728 0.0
O77 O 0.93614 0.37088 0.83854 0.0
O78 O 0.93275 0.33841 0.80498 0.0
O79 O 0.89412 0.30996 0.85961 0.0
O80 O 0.8706 0.32268 0.94284 0.0
O81 O 0.84064 0.35941 0.90117 0.0
O82 O 0.9019 0.40667 0.83269 0.0
O83 O 0.84147 0.36894 0.77225 0.0
O84 O 0.87777 0.4004 0.741 0.0
C85 C 0.89494 0.37388 0.04734 0.0
C86 C 0.88795 0.34205 0.62581 0.0
C87 C 0.8809 0.30777 0.91582 0.0
C88 C 0.94384 0.354 0.81666 0.0
C89 C 0.83155 0.365 0.83674 0.0
C90 C 0.88964 0.41269 0.77753 0.0
O91 O 0.87853 0.36521 0.02531 0.0
O92 O 0.37768 0.36014 0.23875 0.0
Zn93 Zn 0.3812 0.35688 0.11764 0.0
O94 O 0.36526 0.37776 0.06534 0.0
Zn95 Zn 0.33864 0.36713 0.03261 0.0
Zn96 Zn 0.3626 0.39922 0.14374 0.0
Zn97 Zn 0.38002 0.38826 0.97539 0.0
O98 O 0.33335 0.3725 0.91265 0.0
O99 O 0.36405 0.38395 0.87603 0.0
O100 O 0.36974 0.32991 0.08842 0.0
O101 O 0.33819 0.33672 0.04588 0.0
O102 O 0.31661 0.37868 0.10538 0.0
O103 O 0.33407 0.39988 0.18477 0.0
O104 O 0.37026 0.42642 0.10028 0.0
O105 O 0.41063 0.35724 0.0803 0.0
O106 O 0.38429 0.41823 0.98214 0.0
O107 O 0.40711 0.375 0.96618 0.0
C108 C 0.37813 0.37676 0.27826 0.0
C109 C 0.34591 0.37865 0.85878 0.0
C110 C 0.3175 0.39113 0.16484 0.0
C111 C 0.3522 0.32416 0.06446 0.0
C112 C 0.37926 0.43144 0.03483 0.0
C113 C 0.41782 0.36405 0.01356 0.0
O114 O 0.37948 0.39359 0.24114 0.0
O115 O 0.39504 0.62131 0.69172 0.0
Zn116 Zn 0.39683 0.61621 0.81238 0.0
O117 O 0.37753 0.63407 0.86563 0.0
Zn118 Zn 0.39182 0.65764 0.90704 0.0
Zn119 Zn 0.35842 0.6416 0.78368 0.0
Zn120 Zn 0.3622 0.6202 0.94642 0.0
O121 O 0.38356 0.66287 0.02277 0.0
O122 O 0.36657 0.63434 0.05081 0.0
O123 O 0.42518 0.62268 0.84833 0.0
O124 O 0.42207 0.65237 0.91098 0.0
O125 O 0.38678 0.68168 0.834 0.0
O126 O 0.36483 0.66926 0.74326 0.0
O127 O 0.32934 0.64021 0.81786 0.0
O128 O 0.39146 0.58719 0.84412 0.0
O129 O 0.3319 0.62067 0.92664 0.0
O130 O 0.37096 0.59127 0.95111 0.0
C131 C 0.37823 0.62274 0.65333 0.0
C132 C 0.37417 0.6513 0.07227 0.0
C133 C 0.37612 0.68356 0.76946 0.0
C134 C 0.43299 0.63761 0.88632 0.0
C135 C 0.32109 0.63008 0.87464 0.0
C136 C 0.38167 0.58 0.9047 0.0
O137 O 0.36147 0.62268 0.69174 0.0
O138 O 0.6187 0.63163 0.26341 0.0
Zn139 Zn 0.61734 0.63469 0.14305 0.0
O140 O 0.63457 0.61443 0.09417 0.0
Zn141 Zn 0.66098 0.62667 0.06587 0.0
Zn142 Zn 0.63766 0.59241 0.1708 0.0
Zn143 Zn 0.62094 0.60404 0.00029 0.0
O144 O 0.66603 0.62483 0.94439 0.0
O145 O 0.63622 0.61213 0.90277 0.0
O146 O 0.62824 0.66218 0.11998 0.0
O147 O 0.66091 0.65679 0.09042 0.0
O148 O 0.68368 0.61375 0.13132 0.0
O149 O 0.66696 0.59009 0.20097 0.0
O150 O 0.62847 0.56547 0.12646 0.0
O151 O 0.58838 0.63363 0.10208 0.0
O152 O 0.61924 0.57381 0.00112 0.0
O153 O 0.59254 0.61472 -0.00848 0.0
C154 C 0.62084 0.61604 0.30814 0.0
C155 C 0.65379 0.6194 0.88819 0.0
C156 C 0.68337 0.59942 0.18344 0.0
C157 C 0.64611 0.66878 0.10529 0.0
C158 C 0.62213 0.56053 0.05595 0.0
C159 C 0.58137 0.62567 0.0372 0.0
O160 O 0.62454 0.59865 0.27769 0.0
O161 O 0.60129 0.37879 0.67417 0.0
Zn162 Zn 0.60141 0.37882 0.79613 0.0
O163 O 0.62148 0.35958 0.83673 0.0
Zn164 Zn 0.60726 0.33572 0.879 0.0
Zn165 Zn 0.6395 0.35192 0.7495 0.0
Zn166 Zn 0.63817 0.37217 0.91893 0.0
O167 O 0.61398 0.33136 -0.00323 0.0
O168 O 0.63339 0.35833 0.02356 0.0
O169 O 0.57334 0.3712 0.8318 0.0
O170 O 0.57701 0.34006 0.88048 0.0
O171 O 0.61276 0.31102 0.80999 0.0
O172 O 0.63568 0.32271 0.72211 0.0
O173 O 0.66898 0.35661 0.77311 0.0
O174 O 0.60675 0.40691 0.83922 0.0
O175 O 0.66812 0.37081 0.89511 0.0
O176 O 0.63089 0.40144 0.93164 0.0
C177 C 0.61577 0.3748 0.62519 0.0
C178 C 0.62411 0.34235 0.04606 0.0
C179 C 0.62452 0.30843 0.74909 0.0
C180 C 0.56582 0.35517 0.86258 0.0
C181 C 0.67807 0.36431 0.83404 0.0
C182 C 0.61857 0.41331 0.89526 0.0
O183 O 0.63233 0.36666 0.64869 0.0
O184 O 0.86805 0.63435 0.47871 0.0
Zn185 Zn 0.86995 0.63542 0.60051 0.0
O186 O 0.85233 0.61505 0.64595 0.0
Zn187 Zn 0.82615 0.62768 0.67433 0.0
Zn188 Zn 0.84931 0.59387 0.56604 0.0
Zn189 Zn 0.86539 0.60342 0.73879 0.0
O190 O 0.8211 0.62543 0.79591 0.0
O191 O 0.84969 0.61018 0.83718 0.0
O192 O 0.86012 0.66271 0.63327 0.0
O193 O 0.82684 0.658 0.65306 0.0
O194 O 0.80337 0.61502 0.60785 0.0
O195 O 0.81991 0.59104 0.53874 0.0
O196 O 0.86004 0.56689 0.60264 0.0
O197 O 0.89894 0.63258 0.64021 0.0
O198 O 0.86797 0.57328 0.73119 0.0
O199 O 0.89378 0.61388 0.75054 0.0
C200 C 0.86571 0.61912 0.43193 0.0
C201 C 0.83253 0.61838 0.85192 0.0
C202 C 0.80355 0.60048 0.5564 0.0
C203 C 0.84227 0.66963 0.64584 0.0
C204 C 0.86626 0.56097 0.67198 0.0
C205 C 0.90549 0.62432 0.70526 0.0
O206 O 0.86172 0.60158 0.45994 0.0
O207 O 0.58508 0.11153 0.49066 0.0
Zn208 Zn 0.58504 0.11153 0.36864 0.0
O209 O 0.60437 0.13147 0.32802 0.0
Zn210 Zn 0.589 0.15527 0.2913 0.0
Zn211 Zn 0.62324 0.13855 0.41291 0.0
Zn212 Zn 0.62081 0.11999 0.24233 0.0
O213 O 0.59293 0.1591 0.17096 0.0
O214 O 0.6139 0.1336 0.13929 0.0
O215 O 0.55649 0.11841 0.33546 0.0
O216 O 0.55867 0.15092 0.30155 0.0
O217 O 0.59718 0.18043 0.35452 0.0
O218 O 0.62208 0.16821 0.43244 0.0
O219 O 0.65234 0.1318 0.38953 0.0
O220 O 0.5918 0.08368 0.32619 0.0
O221 O 0.65108 0.12247 0.2604 0.0
O222 O 0.61513 0.09033 0.23173 0.0
C223 C 0.59899 0.11691 0.54014 0.0
C224 C 0.6031 0.14884 0.11931 0.0
C225 C 0.6111 0.1829 0.40793 0.0
C226 C 0.54812 0.13502 0.31435 0.0
C227 C 0.66125 0.12645 0.32435 0.0
C228 C 0.60382 0.07784 0.26982 0.0
O229 O 0.61511 0.12588 0.51678 0.0
O230 O 0.12681 0.35466 0.42454 0.0
Zn231 Zn 0.12604 0.34978 0.54365 0.0
O232 O 0.14497 0.36772 0.59791 0.0
Zn233 Zn 0.17023 0.35294 0.62444 0.0
Zn234 Zn 0.15032 0.39069 0.52791 0.0
Zn235 Zn 0.13207 0.37792 0.69384 0.0
O236 O 0.17542 0.35329 0.74578 0.0
O237 O 0.14774 0.36962 0.78988 0.0
O238 O 0.13534 0.32137 0.55509 0.0
O239 O 0.16771 0.32307 0.59494 0.0
O240 O 0.19412 0.36562 0.56504 0.0
O241 O 0.18026 0.39365 0.51357 0.0
O242 O 0.139 0.41707 0.57011 0.0
O243 O 0.09751 0.35135 0.58906 0.0
O244 O 0.12959 0.40806 0.69436 0.0
O245 O 0.10386 0.36727 0.7053 0.0
C246 C 0.13315 0.36946 0.38199 0.0
C247 C 0.16444 0.36042 0.80293 0.0
C248 C 0.19566 0.38229 0.52596 0.0
C249 C 0.15225 0.31284 0.57159 0.0
C250 C 0.132 0.42157 0.64009 0.0
C251 C 0.09169 0.35789 0.65822 0.0
O252 O 0.14091 0.38518 0.41459 0.0
O253 O 0.40261 0.88701 0.53602 0.0
Zn254 Zn 0.40235 0.88572 0.41423 0.0
O255 O 0.3823 0.86591 0.37641 0.0
Zn256 Zn 0.39651 0.84222 0.33211 0.0
Zn257 Zn 0.36496 0.85836 0.46561 0.0
Zn258 Zn 0.36455 0.87766 0.29594 0.0
O259 O 0.391 0.83918 0.21281 0.0
O260 O 0.37009 0.86515 0.18925 0.0
O261 O 0.43064 0.87768 0.38183 0.0
O262 O 0.42683 0.84616 0.33601 0.0
O263 O 0.3896 0.81681 0.39477 0.0
O264 O 0.36908 0.82921 0.49036 0.0
O265 O 0.33516 0.86232 0.4453 0.0
O266 O 0.39625 0.9135 0.3689 0.0
O267 O 0.33475 0.87435 0.31983 0.0
O268 O 0.37007 0.9072 0.28661 0.0
C269 C 0.3887 0.88248 0.58669 0.0
C270 C 0.38045 0.85005 0.16467 0.0
C271 C 0.37876 0.81448 0.45849 0.0
C272 C 0.43808 0.86123 0.35417 0.0
C273 C 0.3254 0.86844 0.38323 0.0
C274 C 0.38282 0.91947 0.31811 0.0
O275 O 0.37259 0.87313 0.56566 0.0
O276 O 0.87385 0.86002 0.78388 0.0
Zn277 Zn 0.87688 0.8553 0.66399 0.0
O278 O 0.86043 0.87531 0.60904 0.0
Zn279 Zn 0.8342 0.86337 0.57729 0.0
Zn280 Zn 0.85665 0.89775 0.6828 0.0
Zn281 Zn 0.87513 0.88545 0.51801 0.0
O282 O 0.82907 0.86805 0.45718 0.0
O283 O 0.85998 0.87869 0.41862 0.0
O284 O 0.86593 0.82776 0.64131 0.0
O285 O 0.83463 0.83291 0.59312 0.0
O286 O 0.8115 0.87478 0.64756 0.0
O287 O 0.82788 0.89813 0.72043 0.0
O288 O 0.86343 0.92489 0.6348 0.0
O289 O 0.90622 0.85564 0.62608 0.0
O290 O 0.87709 0.91561 0.51745 0.0
O291 O 0.90348 0.87468 0.5149 0.0
C292 C 0.87303 0.87681 0.82211 0.0
C293 C 0.84181 0.87325 0.40239 0.0
C294 C 0.81172 0.88835 0.70301 0.0
C295 C 0.84885 0.82104 0.61618 0.0
C296 C 0.87173 0.92935 0.56723 0.0
C297 C 0.91398 0.86366 0.56271 0.0
O298 O 0.87247 0.89361 0.78424 0.0
O299 O 0.89178 0.10841 0.16461 0.0
Zn300 Zn 0.89205 0.10904 0.28645 0.0
O301 O 0.87207 0.1286 0.32695 0.0
Zn302 Zn 0.88674 0.15202 0.37118 0.0
Zn303 Zn 0.85421 0.1369 0.23996 0.0
Zn304 Zn 0.8547 0.11633 0.40776 0.0
O305 O 0.87969 0.15629 0.48843 0.0
O306 O 0.85939 0.12989 0.51319 0.0
O307 O 0.9205 0.11645 0.32006 0.0
O308 O 0.91692 0.14702 0.37492 0.0
O309 O 0.88172 0.17706 0.30383 0.0
O310 O 0.85823 0.16623 0.21631 0.0
O311 O 0.82449 0.13236 0.26101 0.0
O312 O 0.88647 0.08119 0.33158 0.0
O313 O 0.82477 0.11813 0.38272 0.0
O314 O 0.86155 0.08702 0.42038 0.0
C315 C 0.87767 0.11337 0.11538 0.0
C316 C 0.86907 0.14554 0.53677 0.0
C317 C 0.86971 0.18018 0.24414 0.0
C318 C 0.92805 0.1321 0.35395 0.0
C319 C 0.81508 0.12476 0.32127 0.0
C320 C 0.87413 0.07502 0.38613 0.0
O321 O 0.8617 0.1227 0.13833 0.0
O322 O 0.10976 0.12454 0.76146 0.0
Zn323 Zn 0.10999 0.12758 0.64068 0.0
O324 O 0.12726 0.10649 0.595 0.0
Zn325 Zn 0.15314 0.11865 0.55972 0.0
Zn326 Zn 0.13224 0.08561 0.67532 0.0
Zn327 Zn 0.11306 0.09364 0.50682 0.0
O328 O 0.15743 0.11415 0.43967 0.0
O329 O 0.12799 0.09937 0.40544 0.0
O330 O 0.12146 0.1551 0.61871 0.0
O331 O 0.15267 0.14903 0.5725 0.0
O332 O 0.17666 0.10858 0.62819 0.0
O333 O 0.16155 0.08589 0.70779 0.0
O334 O 0.12537 0.05743 0.6376 0.0
O335 O 0.08139 0.12695 0.59464 0.0
O336 O 0.11129 0.06356 0.5176 0.0
O337 O 0.08452 0.10384 0.4969 0.0
C338 C 0.11201 0.10905 0.80672 0.0
C339 C 0.14529 0.10675 0.3869 0.0
C340 C 0.17735 0.09568 0.68588 0.0
C341 C 0.13877 0.16137 0.59431 0.0
C342 C 0.11686 0.05123 0.57264 0.0
C343 C 0.07389 0.11675 0.53591 0.0
O344 O 0.11753 0.09194 0.7782 0.0
O345 O 0.09699 0.86737 0.20622 0.0
Zn346 Zn 0.09621 0.86839 0.32774 0.0
O347 O 0.11588 0.84945 0.37306 0.0
Zn348 Zn 0.10136 0.82549 0.41249 0.0
Zn349 Zn 0.13506 0.84196 0.28968 0.0
Zn350 Zn 0.13125 0.86227 0.45864 0.0
O351 O 0.10814 0.82003 0.52932 0.0
O352 O 0.12672 0.84726 0.5608 0.0
O353 O 0.06778 0.86101 0.36076 0.0
O354 O 0.07118 0.83038 0.41531 0.0
O355 O 0.10709 0.80119 0.34133 0.0
O356 O 0.13252 0.81253 0.26419 0.0
O357 O 0.16404 0.84805 0.31726 0.0
O358 O 0.10147 0.89675 0.36869 0.0
O359 O 0.16149 0.86277 0.43791 0.0
O360 O 0.12218 0.89101 0.47354 0.0
C361 C 0.11185 0.8632 0.15939 0.0
C362 C 0.11796 0.83077 0.58041 0.0
C363 C 0.12042 0.79844 0.28587 0.0
C364 C 0.06015 0.84535 0.39414 0.0
C365 C 0.17224 0.85651 0.37856 0.0
C366 C 0.11123 0.90295 0.43107 0.0
O367 O 0.12842 0.85568 0.18592 0.0
H368 H 0.40835 0.95055 0.36362 0.0
H369 H 0.35434 0.93734 0.22136 0.0
H370 H 0.40534 0.98639 0.3272 0.0
H371 H 0.3511 0.97289 0.18724 0.0
H372 H 0.37426 0.05013 0.32991 0.0
H373 H 0.38262 0.01475 0.35692 0.0
H374 H 0.36695 -0.00072 0.10895 0.0
H375 H 0.35796 0.0345 0.08265 0.0
C376 C 0.39588 0.95526 0.32466 0.0
C377 C 0.38159 0.9411 0.29548 0.0
C378 C 0.39413 0.97577 0.30405 0.0
C379 C 0.37804 0.98243 0.25405 0.0
C380 C 0.36391 0.9682 0.22449 0.0
C381 C 0.36569 0.9478 0.24471 0.0
C382 C 0.37278 0.0392 0.28097 0.0
C383 C 0.36516 0.04502 0.20452 0.0
C384 C 0.3777 0.01896 0.29632 0.0
C385 C 0.37524 0.00421 0.23529 0.0
C386 C 0.36859 0.01024 0.15769 0.0
C387 C 0.36349 0.03042 0.14258 0.0
H388 H 0.9236 0.6106 0.84393 0.0
H389 H 0.93649 0.64246 0.61972 0.0
H390 H 0.95949 0.61208 0.88038 0.0
H391 H 0.97266 0.6436 0.6561 0.0
H392 H 0.03312 0.6573 0.78656 0.0
H393 H -0.00334 0.65855 0.7565 0.0
H394 H 0.99071 0.59589 0.83014 0.0
H395 H 0.02699 0.59466 0.86145 0.0
C396 C 0.93408 0.61794 0.80233 0.0
C397 C 0.9272 0.62627 0.7285 0.0
C398 C 0.95467 0.6187 0.8232 0.0
C399 C 0.96887 0.62778 0.77078 0.0
C400 C 0.96199 0.63662 0.69794 0.0
C401 C 0.94132 0.63588 0.67695 0.0
C402 C 0.02402 0.64382 0.79687 0.0
C403 C 0.03296 0.62587 0.82646 0.0
C404 C 0.00317 0.64452 0.77912 0.0
C405 C 0.99088 0.62733 0.79096 0.0
C406 C -0.00022 0.60947 0.8214 0.0
C407 C 0.02059 0.60874 0.83896 0.0
H408 H 0.62717 0.95825 0.06092 0.0
H409 H 0.61901 0.94891 0.31934 0.0
H410 H 0.61905 -0.00589 0.07814 0.0
H411 H 0.61143 0.98477 0.33662 0.0
H412 H 0.58146 0.04642 0.33274 0.0
H413 H 0.58586 0.01027 0.30598 0.0
H414 H 0.63473 0.02382 0.13789 0.0
H415 H 0.63003 0.05985 0.16274 0.0
C416 C 0.62373 0.96385 0.12139 0.0
C417 C 0.62381 0.95074 0.18879 0.0
C418 C 0.61912 0.98439 0.13125 0.0
C419 C 0.61458 0.99225 0.20872 0.0
C420 C 0.61453 0.97911 0.27595 0.0
C421 C 0.61905 0.95858 0.26609 0.0
C422 C 0.59302 0.04169 0.28956 0.0
C423 C 0.60546 0.05601 0.25026 0.0
C424 C 0.59561 0.02098 0.27456 0.0
C425 C 0.61072 0.01421 0.22019 0.0
C426 C 0.62279 0.02856 0.17937 0.0
C427 C 0.62016 0.04923 0.19408 0.0
H428 H 0.96512 0.32233 0.7498 0.0
H429 H 0.97253 0.38313 0.84521 0.0
H430 H 0.00134 0.32145 0.71467 0.0
H431 H 0.0085 0.38228 0.80907 0.0
H432 H 0.05977 0.3416 0.57178 0.0
H433 H 0.02415 0.33901 0.61499 0.0
H434 H 0.04009 0.36467 0.84856 0.0
H435 H 0.07541 0.36757 0.80561 0.0
C436 C 0.97447 0.33543 0.76379 0.0
C437 C 0.96595 0.35282 0.80024 0.0
C438 C 0.99515 0.33496 0.74314 0.0
C439 C 0.00767 0.35179 0.75909 0.0
C440 C -0.00076 0.36899 0.79695 0.0
C441 C 0.97861 0.3695 0.81727 0.0
C442 C 0.05567 0.34657 0.63247 0.0
C443 C 0.07037 0.35501 0.68484 0.0
C444 C 0.03533 0.34497 0.65733 0.0
C445 C 0.02939 0.35179 0.73486 0.0
C446 C 0.0442 0.35961 0.78798 0.0
C447 C 0.06445 0.36121 0.76328 0.0
H448 H 0.38891 0.44871 0.88898 0.0
H449 H 0.3778 0.46302 0.14199 0.0
H450 H 0.3912 0.48476 0.85797 0.0
H451 H 0.38079 0.49902 0.11145 0.0
H452 H 0.35769 0.55872 0.00919 0.0
H453 H 0.35948 0.5229 0.04154 0.0
H454 H 0.41035 0.51587 0.87623 0.0
H455 H 0.40819 0.55186 0.84173 0.0
C456 C 0.38732 0.45954 0.93822 0.0
C457 C 0.38291 0.45307 0.01773 0.0
C458 C 0.38874 0.4802 0.92049 0.0
C459 C 0.38593 0.49473 0.9821 0.0
C460 C 0.38255 0.48818 0.06234 0.0
C461 C 0.38093 0.46757 0.07991 0.0
C462 C 0.3693 0.54959 0.9797 0.0
C463 C 0.38281 0.55813 0.92289 0.0
C464 C 0.37043 0.52906 -0.00119 0.0
C465 C 0.38521 0.5166 0.96213 0.0
C466 C 0.39871 0.52508 0.90506 0.0
C467 C 0.39749 0.54568 0.88542 0.0
H468 H 0.5507 0.6428 0.12791 0.0
H469 H 0.56356 0.61653 0.89211 0.0
H470 H 0.51493 0.64695 0.08901 0.0
H471 H 0.52814 0.62117 0.85285 0.0
H472 H 0.46016 0.60742 0.85238 0.0
H473 H 0.49602 0.60584 0.88854 0.0
H474 H 0.49199 0.66545 -0.00245 0.0
H475 H 0.45574 0.66688 0.96308 0.0
C476 C 0.54595 0.63808 0.06765 0.0
C477 C 0.5599 0.62912 0.01348 0.0
C478 C 0.52551 0.64058 0.0452 0.0
C479 C 0.51871 0.63423 0.96809 0.0
C480 C 0.53282 0.62583 0.91328 0.0
C481 C 0.55315 0.62323 0.93578 0.0
C482 C 0.46688 0.62028 0.88368 0.0
C483 C 0.45507 0.63729 0.90482 0.0
C484 C 0.4875 0.6194 0.90405 0.0
C485 C 0.49685 0.63556 0.94564 0.0
C486 C 0.48513 0.65268 0.96622 0.0
C487 C 0.46442 0.65355 0.94601 0.0
H488 H 0.62514 0.52774 0.15745 0.0
H489 H 0.61223 0.54436 0.90812 0.0
H490 H 0.62244 0.49198 0.12083 0.0
H491 H 0.61009 0.50869 0.8714 0.0
H492 H 0.5916 0.44253 0.84525 0.0
H493 H 0.59028 0.47795 0.88831 0.0
H494 H 0.64277 0.4682 0.04298 0.0
H495 H 0.64381 0.4328 0.00178 0.0
C496 C 0.62166 0.52379 0.09497 0.0
C497 C 0.61904 0.5389 0.03563 0.0
C498 C 0.62022 0.50331 0.07392 0.0
C499 C 0.61622 0.49753 -0.0069 0.0
C500 C 0.61299 0.51265 0.93434 0.0
C501 C 0.61434 0.53311 0.9554 0.0
C502 C 0.60284 0.44795 0.88848 0.0
C503 C 0.61783 0.43485 0.91997 0.0
C504 C 0.60211 0.46825 0.913 0.0
C505 C 0.61638 0.47584 0.96924 0.0
C506 C 0.63132 0.46272 0.00071 0.0
C507 C 0.63202 0.44245 0.9765 0.0
H508 H 0.44882 0.34869 0.10792 0.0
H509 H 0.43478 0.36937 0.86452 0.0
H510 H 0.48467 0.3446 0.06875 0.0
H511 H 0.47021 0.36494 0.82564 0.0
H512 H 0.53716 0.38368 0.82574 0.0
H513 H 0.50124 0.38363 0.86203 0.0
H514 H 0.50843 0.32518 0.97753 0.0
H515 H 0.54469 0.32529 0.9423 0.0
C516 C 0.45332 0.3521 0.04601 0.0
C517 C 0.43907 0.35967 -0.01026 0.0
C518 C 0.47378 0.34968 0.02353 0.0
C519 C 0.48021 0.35473 0.94449 0.0
C520 C 0.46575 0.36136 0.88746 0.0
C521 C 0.44544 0.36385 0.90984 0.0
C522 C 0.53113 0.37074 0.85849 0.0
C523 C 0.54378 0.35448 0.88102 0.0
C524 C 0.51051 0.37067 0.87893 0.0
C525 C 0.50206 0.35434 0.92226 0.0
C526 C 0.51462 0.338 0.94456 0.0
C527 C 0.53532 0.33804 0.92388 0.0
H528 H 0.8639 0.4307 0.66913 0.0
H529 H 0.91256 0.44397 0.83919 0.0
H530 H 0.8601 0.46661 0.64103 0.0
H531 H 0.90905 0.48009 0.80912 0.0
H532 H 0.87637 0.54227 0.8146 0.0
H533 H 0.88403 0.50655 0.8359 0.0
H534 H 0.8767 0.49531 0.57838 0.0
H535 H 0.86849 0.53098 0.55717 0.0
C536 C 0.87398 0.44125 0.69988 0.0
C537 C 0.88845 0.43446 0.75689 0.0
C538 C 0.87188 0.46186 0.68322 0.0
C539 C 0.88427 0.47618 0.72286 0.0
C540 C 0.89911 0.4694 0.77841 0.0
C541 C 0.90118 0.44873 0.79533 0.0
C542 C 0.87646 0.53221 0.76241 0.0
C543 C 0.87164 0.53943 0.68427 0.0
C544 C 0.88102 0.51176 0.77458 0.0
C545 C 0.88094 0.49812 0.70885 0.0
C546 C 0.87659 0.50542 0.63041 0.0
C547 C 0.87193 0.52586 0.61826 0.0
H548 H 0.52032 0.10597 0.35556 0.0
H549 H 0.52539 0.16514 0.24357 0.0
H550 H 0.48379 0.10588 0.32841 0.0
H551 H 0.48866 0.16503 0.21702 0.0
H552 H 0.42802 0.14233 0.09608 0.0
H553 H 0.46435 0.14534 0.12807 0.0
H554 H 0.45262 0.12432 0.37242 0.0
H555 H 0.41649 0.12113 0.34081 0.0
C556 C 0.51363 0.11902 0.32562 0.0
C557 C 0.52577 0.13555 0.30166 0.0
C558 C 0.49268 0.11901 0.31048 0.0
C559 C 0.48341 0.13546 0.27066 0.0
C560 C 0.49547 0.15209 0.24724 0.0
C561 C 0.51645 0.15218 0.26295 0.0
C562 C 0.43318 0.13845 0.15673 0.0
C563 C 0.41936 0.13134 0.21565 0.0
C564 C 0.45395 0.14029 0.17513 0.0
C565 C 0.46128 0.13495 0.25257 0.0
C566 C 0.44741 0.12829 0.3119 0.0
C567 C 0.42669 0.12655 0.29375 0.0
H568 H 0.08707 0.53581 0.84327 0.0
H569 H 0.13996 0.5508 0.69757 0.0
H570 H 0.0899 0.50045 0.79993 0.0
H571 H 0.143 0.51559 0.65619 0.0
H572 H 0.11929 0.43672 0.78617 0.0
H573 H 0.11289 0.47196 0.82173 0.0
H574 H 0.12629 0.48987 0.57457 0.0
H575 H 0.13323 0.45459 0.53917 0.0
C576 C 0.0993 0.53158 0.80224 0.0
C577 C 0.1133 0.54612 0.77407 0.0
C578 C 0.10095 0.51134 0.7776 0.0
C579 C 0.11664 0.50526 0.72446 0.0
C580 C 0.13053 0.51984 0.696 0.0
C581 C 0.12886 0.54003 0.72038 0.0
C582 C 0.12078 0.44813 0.73915 0.0
C583 C 0.12696 0.44286 0.65994 0.0
C584 C 0.11695 0.46833 0.7595 0.0
C585 C 0.11915 0.48369 0.70106 0.0
C586 C 0.12477 0.47838 0.62125 0.0
C587 C 0.12867 0.45816 0.6009 0.0
H588 H 0.56352 0.89516 0.28285 0.0
H589 H 0.56251 0.83319 0.19704 0.0
H590 H 0.5276 0.8929 0.31779 0.0
H591 H 0.52672 0.83033 0.23688 0.0
H592 H 0.45747 0.83979 0.23571 0.0
H593 H 0.49372 0.84028 0.20295 0.0
H594 H 0.50475 0.87945 0.41009 0.0
H595 H 0.46831 0.87996 0.43894 0.0
C596 C 0.5556 0.88094 0.27252 0.0
C597 C 0.56571 0.86435 0.23726 0.0
C598 C 0.53503 0.87955 0.29325 0.0
C599 C 0.5242 0.86135 0.28104 0.0
C600 C 0.53444 0.84468 0.24607 0.0
C601 C 0.55495 0.84625 0.22355 0.0
C602 C 0.46774 0.84838 0.27434 0.0
C603 C 0.46018 0.85997 0.33936 0.0
C604 C 0.48855 0.84859 0.25594 0.0
C605 C 0.50225 0.86005 0.30337 0.0
C606 C 0.49464 0.87092 0.3707 0.0
C607 C 0.47379 0.8711 0.38779 0.0
H608 H 0.86518 0.96308 0.661 0.0
H609 H 0.88389 0.94418 0.42014 0.0
H610 H 0.86728 -0.00153 0.61878 0.0
H611 H 0.88539 0.97944 0.37754 0.0
H612 H 0.90243 0.04599 0.34705 0.0
H613 H 0.90369 0.01098 0.39488 0.0
H614 H 0.84802 0.02067 0.53089 0.0
H615 H 0.84704 0.05567 0.48514 0.0
C616 C 0.86978 0.96646 0.59918 0.0
C617 C 0.87426 0.95082 0.54385 0.0
C618 C 0.87087 0.98672 0.57486 0.0
C619 C 0.87635 0.99172 0.49463 0.0
C620 C 0.88135 0.9761 0.44 0.0
C621 C 0.88037 0.95587 0.46439 0.0
C622 C 0.89046 0.04062 0.38706 0.0
C623 C 0.87465 0.05361 0.41231 0.0
C624 C 0.89116 0.02057 0.41433 0.0
C625 C 0.87601 0.0131 0.46701 0.0
C626 C 0.86015 0.02607 0.49168 0.0
C627 C 0.8595 0.0461 0.46485 0.0
H628 H 0.05084 0.15114 0.5521 0.0
H629 H 0.04885 0.08946 0.46316 0.0
H630 H 0.01615 0.1567 0.50226 0.0
H631 H 0.01397 0.09448 0.41771 0.0
H632 H 0.9589 0.11221 0.27659 0.0
H633 H 0.99453 0.11012 0.31786 0.0
H634 H 0.98171 0.14908 0.52388 0.0
H635 H 0.94639 0.15208 0.47929 0.0
C636 C 0.04284 0.1387 0.52292 0.0
C637 C 0.05251 0.11992 0.51108 0.0
C638 C 0.02295 0.14184 0.49452 0.0
C639 C 0.01224 0.1261 0.45512 0.0
C640 C 0.02187 0.10716 0.44544 0.0
C641 C 0.04183 0.10419 0.47226 0.0
C642 C 0.96382 0.12051 0.33008 0.0
C643 C 0.94993 0.13225 0.37488 0.0
C644 C 0.98419 0.11918 0.35432 0.0
C645 C 0.99101 0.12915 0.42514 0.0
C646 C 0.97715 0.14137 0.46858 0.0
C647 C 0.95686 0.14304 0.44324 0.0
H648 H 0.10244 0.93543 0.33438 0.0
H649 H 0.11737 0.91895 0.58166 0.0
H650 H 0.10266 0.97115 0.37254 0.0
H651 H 0.11651 0.95452 0.62116 0.0
H652 H 0.13836 0.02011 0.64035 0.0
H653 H 0.13579 0.98417 0.60788 0.0
H654 H 0.08574 -0.00305 0.4437 0.0
H655 H 0.08913 0.033 0.47312 0.0
C656 C 0.10545 0.93946 0.39718 0.0
C657 C 0.11006 0.92447 0.45489 0.0
C658 C 0.10545 0.95993 0.41932 0.0
C659 C 0.10967 0.96579 0.50003 0.0
C660 C 0.11365 0.95065 0.55813 0.0
C661 C 0.11403 0.93024 0.53563 0.0
C662 C 0.12672 0.01518 0.59781 0.0
C663 C 0.11404 0.02932 0.55883 0.0
C664 C 0.12515 -0.00545 0.57943 0.0
C665 C 0.1106 0.9876 0.52278 0.0
C666 C 0.09743 0.00176 0.48613 0.0
C667 C 0.09927 0.02242 0.5034 0.0
H668 H 0.02944 0.86364 0.31075 0.0
H669 H 0.04176 0.82722 0.52338 0.0
H670 H 0.99377 0.86634 0.35053 0.0
H671 H 0.00636 0.83095 0.56656 0.0
H672 H 0.93688 0.82978 0.59242 0.0
H673 H 0.97181 0.82325 0.54688 0.0
H674 H 0.97461 0.88385 0.44595 0.0
H675 H 0.93953 0.88971 0.48696 0.0
C676 C 0.02445 0.85623 0.36611 0.0
C677 C 0.03828 0.8453 0.41419 0.0
C678 C 0.00406 0.85792 0.3895 0.0
C679 C -0.0028 0.84921 0.46276 0.0
C680 C 0.01099 0.8377 0.50946 0.0
C681 C 0.0313 0.83561 0.48493 0.0
C682 C 0.94511 0.84165 0.56073 0.0
C683 C 0.93557 0.86017 0.5426 0.0
C684 C 0.96511 0.83796 0.53474 0.0
C685 C 0.97601 0.85292 0.49162 0.0
C686 C 0.96655 0.87171 0.47647 0.0
C687 C 0.94649 0.87518 0.50077 0.0
H688 H 0.37266 0.19811 0.13785 0.0
H689 H 0.3077 0.19883 0.09258 0.0
H690 H 0.37403 0.23459 0.11962 0.0
H691 H 0.30914 0.23546 0.06898 0.0
H692 H 0.31795 0.30437 0.11448 0.0
H693 H 0.31372 0.26768 0.12877 0.0
H694 H 0.37284 0.25851 0.01659 0.0
H695 H 0.37746 0.29505 0.0081 0.0
C696 C 0.35868 0.20615 0.12325 0.0
C697 C 0.34011 0.19576 0.11618 0.0
C698 C 0.35947 0.22704 0.11188 0.0
C699 C 0.34177 0.23797 0.09097 0.0
C700 C 0.32305 0.22756 0.08544 0.0
C701 C 0.3222 0.20662 0.09874 0.0
C702 C 0.32986 0.29437 0.09224 0.0
C703 C 0.34812 0.30233 0.06119 0.0
C704 C 0.32745 0.27339 0.10013 0.0
C705 C 0.34313 0.26011 0.07541 0.0
C706 C 0.36077 0.26826 0.03906 0.0
C707 C 0.36337 0.28915 0.03329 0.0
H708 H 0.29774 0.6103 -0.01228 0.0
H709 H 0.29357 0.64598 0.76751 0.0
H710 H 0.26069 0.60619 -0.01241 0.0
H711 H 0.25665 0.64204 0.76826 0.0
H712 H 0.19449 0.61186 0.74487 0.0
H713 H 0.23163 0.61424 0.74793 0.0
H714 H 0.22957 0.62734 0.00542 0.0
H715 H 0.19248 0.62472 0.00296 0.0
C716 C 0.28894 0.61736 0.93964 0.0
C717 C 0.29861 0.62844 0.87755 0.0
C718 C 0.26774 0.61505 0.93973 0.0
C719 C 0.25585 0.62368 0.87759 0.0
C720 C 0.26549 0.63494 0.81616 0.0
C721 C 0.28663 0.63733 0.81619 0.0
C722 C 0.20195 0.61511 0.80226 0.0
C723 C 0.19052 0.6182 0.87356 0.0
C724 C 0.2232 0.61659 0.80387 0.0
C725 C 0.23343 0.62111 0.87681 0.0
C726 C 0.22207 0.62369 0.94849 0.0
C727 C 0.20083 0.62229 0.94688 0.0
H728 H 0.68359 0.79688 0.10333 0.0
H729 H 0.62576 0.7925 0.22826 0.0
H730 H 0.68442 0.75977 0.08883 0.0
H731 H 0.62692 0.75576 0.21711 0.0
H732 H 0.61785 0.69811 0.08207 0.0
H733 H 0.62185 0.73439 0.10007 0.0
H734 H 0.68579 0.72597 0.15632 0.0
H735 H 0.68187 0.68926 0.13556 0.0
C736 C 0.67137 0.78792 0.12944 0.0
C737 C 0.65443 0.79741 0.16557 0.0
C738 C 0.67183 0.76675 0.12122 0.0
C739 C 0.65546 0.75494 0.14994 0.0
C740 C 0.63942 0.7645 0.19192 0.0
C741 C 0.63881 0.7855 0.19884 0.0
C742 C 0.63281 0.70396 0.09786 0.0
C743 C 0.64948 0.69087 0.10853 0.0
C744 C 0.63508 0.72474 0.10874 0.0
C745 C 0.65402 0.73296 0.1318 0.0
C746 C 0.671 0.72002 0.1389 0.0
C747 C 0.66876 0.69907 0.12706 0.0
H748 H 0.80667 0.37624 0.71086 0.0
H749 H 0.80556 0.35711 0.96257 0.0
H750 H 0.76946 0.37757 0.71013 0.0
H751 H 0.76844 0.35809 0.96106 0.0
H752 H 0.70278 0.38033 0.95186 0.0
H753 H 0.73995 0.38214 0.95172 0.0
H754 H 0.74137 0.35291 0.71626 0.0
H755 H 0.70424 0.35141 0.71541 0.0
C756 C 0.79852 0.37234 0.76599 0.0
C757 C 0.80907 0.3665 0.83667 0.0
C758 C 0.77722 0.37302 0.76542 0.0
C759 C 0.76609 0.36788 0.83548 0.0
C760 C 0.77663 0.36237 0.90647 0.0
C761 C 0.7979 0.36168 0.90708 0.0
C762 C 0.71101 0.37434 0.89995 0.0
C763 C 0.70056 0.36566 0.83377 0.0
C764 C 0.73228 0.37532 0.90004 0.0
C765 C 0.74352 0.36765 0.83402 0.0
C766 C 0.73308 0.35918 0.7675 0.0
C767 C 0.71182 0.3582 0.76736 0.0
H768 H 0.86774 0.69567 0.72061 0.0
H769 H 0.81158 0.69319 0.58338 0.0
H770 H 0.86706 0.73249 0.71588 0.0
H771 H 0.81135 0.73039 0.5746 0.0
H772 H 0.81284 0.80001 0.63043 0.0
H773 H 0.80887 0.76314 0.6438 0.0
H774 H 0.87395 0.75576 0.60981 0.0
H775 H 0.87791 0.79222 0.60007 0.0
C776 C 0.8552 0.70311 0.68959 0.0
C777 C 0.83986 0.69173 0.65146 0.0
C778 C 0.85487 0.72418 0.68623 0.0
C779 C 0.83947 0.73435 0.64275 0.0
C780 C 0.82343 0.72299 0.6084 0.0
C781 C 0.82356 0.70176 0.61327 0.0
C782 C 0.8262 0.79039 0.62539 0.0
C783 C 0.84572 0.79891 0.61549 0.0
C784 C 0.82394 0.76933 0.63294 0.0
C785 C 0.84115 0.75656 0.6298 0.0
C786 C 0.86046 0.76518 0.61548 0.0
C787 C 0.86273 0.78608 0.60923 0.0
H788 H 0.78978 0.10921 0.43796 0.0
H789 H 0.78931 0.13815 0.20186 0.0
H790 H 0.75259 0.10833 0.43712 0.0
H791 H 0.75212 0.13758 0.20198 0.0
H792 H 0.68592 0.1157 0.19673 0.0
H793 H 0.72315 0.11402 0.19512 0.0
H794 H 0.72471 0.13283 0.447 0.0
H795 H 0.68761 0.13416 0.44932 0.0
C796 C 0.78177 0.1154 0.38592 0.0
C797 C 0.79252 0.12382 0.32012 0.0
C798 C 0.76046 0.11496 0.38564 0.0
C799 C 0.74945 0.12294 0.31961 0.0
C800 C 0.76019 0.1311 0.25331 0.0
C801 C 0.7815 0.13154 0.25355 0.0
C802 C 0.69421 0.11941 0.25183 0.0
C803 C 0.68379 0.12509 0.3231 0.0
C804 C 0.71552 0.11854 0.25076 0.0
C805 C 0.72683 0.12329 0.32094 0.0
C806 C 0.71641 0.1288 0.39229 0.0
C807 C 0.69513 0.12969 0.39338 0.0
H808 H 0.12561 0.28814 0.49306 0.0
H809 H 0.18109 0.28699 0.63588 0.0
H810 H 0.12428 0.25137 0.49561 0.0
H811 H 0.17957 0.24976 0.63873 0.0
H812 H 0.17462 0.18103 0.5577 0.0
H813 H 0.18008 0.21773 0.54725 0.0
H814 H 0.11703 0.22807 0.61223 0.0
H815 H 0.11146 0.19175 0.62221 0.0
C816 C 0.13761 0.28003 0.5247 0.0
C817 C 0.15327 0.29049 0.56554 0.0
C818 C 0.1368 0.25896 0.5262 0.0
C819 C 0.15159 0.2478 0.56865 0.0
C820 C 0.16796 0.25808 0.60567 0.0
C821 C 0.1688 0.27933 0.60414 0.0
C822 C 0.16195 0.19117 0.56983 0.0
C823 C 0.14256 0.18346 0.59022 0.0
C824 C 0.16513 0.21213 0.56421 0.0
C825 C 0.14893 0.22565 0.57809 0.0
C826 C 0.1297 0.21794 0.59985 0.0
C827 C 0.12655 0.19712 0.60595 0.0
H828 H 0.29939 0.87912 0.26036 0.0
H829 H 0.30037 0.85729 0.50847 0.0
H830 H 0.26222 0.8775 0.26057 0.0
H831 H 0.26322 0.85539 0.50791 0.0
H832 H 0.19556 0.87292 0.50035 0.0
H833 H 0.23257 0.87725 0.50211 0.0
H834 H 0.23649 0.85025 0.26292 0.0
H835 H 0.1996 0.84617 0.26032 0.0
C836 C 0.2917 0.87402 0.31496 0.0
C837 C 0.30285 0.86824 0.38426 0.0
C838 C 0.27042 0.873 0.3149 0.0
C839 C 0.25986 0.86623 0.38413 0.0
C840 C 0.27096 0.86085 0.45396 0.0
C841 C 0.29224 0.86183 0.45402 0.0
C842 C 0.20432 0.86794 0.44809 0.0
C843 C 0.19463 0.85918 0.38025 0.0
C844 C 0.2255 0.87036 0.44927 0.0
C845 C 0.23738 0.86413 0.38258 0.0
C846 C 0.22769 0.85546 0.3147 0.0
C847 C 0.20656 0.853 0.31355 0.0
H848 H 0.21078 0.1206 0.6854 0.0
H849 H 0.18537 0.06786 0.80478 0.0
H850 H 0.23766 0.12214 0.78799 0.0
H851 H 0.21212 0.06963 0.90759 0.0
H852 H 0.27623 0.07121 0.0316 0.0
H853 H 0.24977 0.06675 0.92869 0.0
H854 H 0.2369 0.13102 0.93648 0.0
H855 H 0.2634 0.13562 0.03877 0.0
C856 C 0.21113 0.10911 0.73248 0.0
C857 C 0.19583 0.09422 0.73727 0.0
C858 C 0.22637 0.11016 0.79178 0.0
C859 C 0.22668 0.09626 0.85658 0.0
C860 C 0.2122 0.08058 0.85845 0.0
C861 C 0.19689 0.07959 0.79947 0.0
C862 C 0.26751 0.08435 0.01253 0.0
C863 C 0.27205 0.10381 0.04306 0.0
C864 C 0.25241 0.08178 0.95339 0.0
C865 C 0.24162 0.09861 0.92346 0.0
C866 C 0.24536 0.11786 0.95712 0.0
C867 C 0.26036 0.12043 0.01652 0.0
H868 H 0.14797 0.68627 0.03303 0.0
H869 H 0.088 0.70332 0.94667 0.0
H870 H 0.14924 0.71676 0.11668 0.0
H871 H 0.08935 0.73402 0.03094 0.0
H872 H 0.09039 0.76969 0.27573 0.0
H873 H 0.08968 0.74004 0.18604 0.0
H874 H 0.15014 0.75479 0.09953 0.0
H875 H 0.15097 0.78431 0.18885 0.0
C876 C 0.13516 0.69669 0.03116 0.0
C877 C 0.11785 0.69243 -0.01642 0.0
C878 C 0.13593 0.71414 0.07893 0.0
C879 C 0.11932 0.72757 0.08068 0.0
C880 C 0.10224 0.7237 0.03122 0.0
C881 C 0.10157 0.70631 0.98245 0.0
C882 C 0.10362 0.76644 0.23835 0.0
C883 C 0.12075 0.77929 0.2394 0.0
C884 C 0.10309 0.74966 0.18637 0.0
C885 C 0.11977 0.74533 0.13548 0.0
C886 C 0.1371 0.75782 0.13827 0.0
C887 C 0.13755 0.77469 0.18945 0.0
H888 H 0.69301 0.9078 0.92645 0.0
H889 H 0.72944 0.87612 0.10564 0.0
H890 H 0.72253 0.90991 0.83704 0.0
H891 H 0.75915 0.87862 0.01566 0.0
H892 H 0.81071 0.90512 0.85424 0.0
H893 H 0.78171 0.90722 0.94669 0.0
H894 H 0.74287 0.88048 0.76337 0.0
H895 H 0.77202 0.87799 0.67054 0.0
C896 C 0.70739 0.90161 0.94757 0.0
C897 C 0.70887 0.89168 0.02317 0.0
C898 C 0.72422 0.90273 0.89595 0.0
C899 C 0.74293 0.89427 0.91942 0.0
C900 C 0.74479 0.88527 -0.00348 0.0
C901 C 0.72783 0.88384 0.04783 0.0
C902 C 0.79595 0.8999 0.83305 0.0
C903 C 0.79361 0.8914 0.75494 0.0
C904 C 0.77943 0.901 0.8863 0.0
C905 C 0.76019 0.89399 0.86194 0.0
C906 C 0.75762 0.88609 0.78312 0.0
C907 C 0.77425 0.88463 0.73021 0.0
H908 H 0.90823 0.27643 0.9238 0.0
H909 H 0.84776 0.29474 2e-05 0.0
H910 H 0.90512 0.24552 0.00556 0.0
H911 H 0.84472 0.26396 0.08107 0.0
H912 H 0.84083 0.19545 0.14211 0.0
H913 H 0.84331 0.22575 0.05771 0.0
H914 H 0.90248 0.23901 0.16102 0.0
H915 H 0.90006 0.20864 0.24598 0.0
C916 C 0.89419 0.2737 0.9569 0.0
C917 C 0.87826 0.28797 0.95581 0.0
C918 C 0.89251 0.25617 0.00421 0.0
C919 C 0.87476 0.25255 0.04994 0.0
C920 C 0.85854 0.26642 0.04619 0.0
C921 C 0.86031 0.28402 -7e-05 0.0
C922 C 0.85429 0.20493 0.14745 0.0
C923 C 0.87026 0.1997 0.20066 0.0
C924 C 0.85569 0.22223 0.09915 0.0
C925 C 0.87316 0.2345 0.10249 0.0
C926 C 0.88897 0.22957 0.15673 0.0
C927 C 0.88747 0.21236 0.20592 0.0
H928 H 0.31759 0.40271 0.32363 0.0
H929 H 0.2773 0.38455 0.12813 0.0
H930 H 0.2888 0.40285 0.41794 0.0
H931 H 0.24839 0.38527 0.22271 0.0
H932 H 0.20078 0.40976 0.40429 0.0
H933 H 0.23072 0.41434 0.31864 0.0
H934 H 0.26398 0.37101 0.46405 0.0
H935 H 0.23376 0.36591 0.54974 0.0
C936 C 0.30253 0.39913 0.30044 0.0
C937 C 0.29965 0.39361 0.21845 0.0
C938 C 0.28616 0.3991 0.35459 0.0
C939 C 0.26656 0.39404 0.32719 0.0
C940 C 0.26346 0.3893 0.24476 0.0
C941 C 0.27993 0.38887 0.19088 0.0
C942 C 0.21454 0.40142 0.41924 0.0
C943 C 0.21487 0.38733 0.48363 0.0
C944 C 0.23159 0.40401 0.36979 0.0
C945 C 0.24942 0.39291 0.38476 0.0
C946 C 0.25029 0.37973 0.45177 0.0
C947 C 0.23305 0.37682 0.50055 0.0
H948 H 0.3906 0.72041 0.81922 0.0
H949 H 0.36438 0.68928 0.61211 0.0
H950 H 0.3919 0.75178 0.74028 0.0
H951 H 0.36574 0.72065 0.53365 0.0
H952 H 0.39274 0.77768 0.40295 0.0
H953 H 0.39291 0.74542 0.47708 0.0
H954 H 0.36397 0.77465 0.6822 0.0
H955 H 0.36368 0.80664 0.6092 0.0
C956 C 0.38518 0.72026 0.75694 0.0
C957 C 0.37722 0.70248 0.72211 0.0
C958 C 0.38588 0.73817 0.71196 0.0
C959 C 0.37886 0.73852 0.63119 0.0
C960 C 0.37134 0.72067 0.59569 0.0
C961 C 0.37041 0.70282 0.6409 0.0
C962 C 0.38635 0.77716 0.46371 0.0
C963 C 0.37821 0.79469 0.50016 0.0
C964 C 0.38642 0.75875 0.50589 0.0
C965 C 0.37861 0.75772 0.58537 0.0
C966 C 0.37034 0.77516 0.62138 0.0
C967 C 0.37005 0.79343 0.57915 0.0
H968 H 0.6846 0.58047 0.33029 0.0
H969 H 0.72313 0.60985 0.15197 0.0
H970 H 0.71347 0.57814 0.42334 0.0
H971 H 0.75216 0.60705 0.24538 0.0
H972 H 0.80192 0.58015 0.41241 0.0
H973 H 0.77295 0.57726 0.32027 0.0
H974 H 0.73474 0.60831 0.49442 0.0
H975 H 0.7639 0.61168 0.58699 0.0
C976 C 0.69932 0.58604 0.31015 0.0
C977 C 0.70161 0.59538 0.23366 0.0
C978 C 0.71575 0.58481 0.3638 0.0
C979 C 0.73486 0.59251 0.34138 0.0
C980 C 0.73749 0.60096 0.26363 0.0
C981 C 0.72093 0.60256 0.21037 0.0
C982 C 0.78729 0.5861 0.43199 0.0
C983 C 0.78519 0.59621 0.50709 0.0
C984 C 0.77079 0.58453 0.37883 0.0
C985 C 0.7518 0.59266 0.40035 0.0
C986 C 0.74933 0.60188 0.47688 0.0
C987 C 0.76597 0.60381 0.52965 0.0
H988 H 0.64536 0.19674 0.48223 0.0
H989 H 0.58306 0.2134 0.42612 0.0
H990 H 0.64895 0.22712 0.56544 0.0
H991 H 0.58674 0.24398 0.50997 0.0
H992 H 0.59487 0.27924 0.75327 0.0
H993 H 0.59178 0.24968 0.66401 0.0
H994 H 0.64898 0.26525 0.54923 0.0
H995 H 0.65216 0.29472 0.6381 0.0
C996 C 0.63251 0.20705 0.48689 0.0
C997 C 0.6139 0.20271 0.44797 0.0
C998 C 0.6346 0.22444 0.53439 0.0
C999 C 0.61807 0.23772 0.54459 0.0
C1000 C 0.59963 0.23378 0.50368 0.0
C1001 C 0.5976 0.21645 0.45513 0.0
C1002 C 0.60691 0.27619 0.70975 0.0
C1003 C 0.62377 0.28927 0.70275 0.0
C1004 C 0.605 0.25945 0.65806 0.0
C1005 C 0.62004 0.25539 0.59934 0.0
C1006 C 0.63719 0.26808 0.59407 0.0
C1007 C 0.63899 0.28491 0.64501 0.0
H1008 H 0.31524 0.09161 0.44277 0.0
H1009 H 0.31828 0.15698 0.45136 0.0
H1010 H 0.31692 0.09014 0.59004 0.0
H1011 H 0.31969 0.15572 0.60039 0.0
H1012 H 0.36211 0.13944 0.81947 0.0
H1013 H 0.34931 0.14403 0.68122 0.0
H1014 H 0.30373 0.09774 0.72284 0.0
H1015 H 0.31688 0.09253 0.85876 0.0
C1016 C 0.31522 0.1057 0.47699 0.0
C1017 C 0.31666 0.12438 0.43705 0.0
C1018 C 0.31623 0.10491 0.56122 0.0
C1019 C 0.31886 0.12283 0.60635 0.0
C1020 C 0.31804 0.14169 0.56654 0.0
C1021 C 0.31691 0.14246 0.48182 0.0
C1022 C 0.34953 0.1301 0.79861 0.0
C1023 C 0.34079 0.1154 0.84949 0.0
C1024 C 0.34193 0.13301 0.72021 0.0
C1025 C 0.32535 0.12139 0.69191 0.0
C1026 C 0.31657 0.10682 0.74301 0.0
C1027 C 0.32429 0.10373 0.82066 0.0
H1028 H 0.07513 0.63752 0.57443 0.0
H1029 H 0.14022 0.63876 0.53398 0.0
H1030 H 0.06973 0.62686 0.43366 0.0
H1031 H 0.13494 0.6293 0.39233 0.0
H1032 H 0.12646 0.58768 0.19003 0.0
H1033 H 0.1261 0.59761 0.33283 0.0
H1034 H 0.0717 0.63338 0.29045 0.0
H1035 H 0.07153 0.62228 0.1486 0.0
C1036 C 0.08818 0.63649 0.53405 0.0
C1037 C 0.10809 0.63888 0.56425 0.0
C1038 C 0.08512 0.63017 0.45381 0.0
C1039 C 0.10196 0.62648 0.40289 0.0
C1040 C 0.1217 0.63115 0.43115 0.0
C1041 C 0.12475 0.63702 0.51152 0.0
C1042 C 0.11392 0.59684 0.2126 0.0
C1043 C 0.09896 0.60415 0.15943 0.0
C1044 C 0.11394 0.60295 0.29363 0.0
C1045 C 0.09935 0.61698 0.32193 0.0
C1046 C 0.08322 0.62269 0.27037 0.0
C1047 C 0.08297 0.61617 0.18949 0.0
H1048 H 0.66939 0.89937 0.47931 0.0
H1049 H 0.6556 0.83596 0.44485 0.0
H1050 H 0.6619 0.89623 0.62407 0.0
H1051 H 0.64695 0.83287 0.58881 0.0
H1052 H 0.64198 0.83555 0.87091 0.0
H1053 H 0.65497 0.83425 0.73177 0.0
H1054 H 0.62892 0.89346 0.68561 0.0
H1055 H 0.61679 0.89506 0.82533 0.0
C1056 C 0.66556 0.88458 0.50378 0.0
C1057 C 0.66322 0.86786 0.45213 0.0
C1058 C 0.66082 0.88284 0.58601 0.0
C1059 C 0.65308 0.86448 0.61702 0.0
C1060 C 0.65277 0.84722 0.5667 0.0
C1061 C 0.65791 0.84891 0.48455 0.0
C1062 C 0.63854 0.84799 0.83008 0.0
C1063 C 0.62848 0.86546 0.85852 0.0
C1064 C 0.64617 0.84734 0.75075 0.0
C1065 C 0.6436 0.86405 0.69872 0.0
C1066 C 0.63189 0.88069 0.72535 0.0
C1067 C 0.62458 0.88147 0.80471 0.0
H1068 H 0.92715 0.35662 0.12247 0.0
H1069 H 0.87129 0.38963 0.16575 0.0
H1070 H 0.92719 0.34497 0.26351 0.0
H1071 H 0.87183 0.37914 0.30772 0.0
H1072 H 0.85916 0.33852 0.50945 0.0
H1073 H 0.864 0.34714 0.36674 0.0
H1074 H 0.92916 0.35173 0.40668 0.0
H1075 H 0.92423 0.34182 0.54845 0.0
C1076 C 0.91549 0.36221 0.16358 0.0
C1077 C 0.89921 0.37395 0.13427 0.0
C1078 C 0.91536 0.35538 0.24393 0.0
C1079 C 0.89908 0.36051 0.2957 0.0
C1080 C 0.88411 0.37421 0.26822 0.0
C1081 C 0.88401 0.38063 0.18772 0.0
C1082 C 0.87454 0.34046 0.48639 0.0
C1083 C 0.89133 0.3395 0.53887 0.0
C1084 C 0.87733 0.34585 0.40544 0.0
C1085 C 0.89689 0.35098 0.37657 0.0
C1086 C 0.91391 0.34804 0.42733 0.0
C1087 C 0.91112 0.34217 0.50813 0.0
H1088 H 0.35748 0.40717 0.3519 0.0
H1089 H 0.38084 0.34668 0.39308 0.0
H1090 H 0.34163 0.40704 0.48462 0.0
H1091 H 0.36609 0.34709 0.52989 0.0
H1092 H 0.33227 0.34784 0.76226 0.0
H1093 H 0.33601 0.34694 0.61375 0.0
H1094 H 0.35341 0.41033 0.617 0.0
H1095 H 0.34896 0.41114 0.76286 0.0
C1096 C 0.35968 0.39399 0.39031 0.0
C1097 C 0.37086 0.3771 0.36295 0.0
C1098 C 0.35044 0.39388 0.46638 0.0
C1099 C 0.35268 0.37714 0.51834 0.0
C1100 C 0.36377 0.36013 0.49089 0.0
C1101 C 0.37258 0.36002 0.41336 0.0
C1102 C 0.33583 0.36173 0.73003 0.0
C1103 C 0.3403 0.37957 0.77295 0.0
C1104 C 0.33838 0.36116 0.6455 0.0
C1105 C 0.34544 0.37843 0.60364 0.0
C1106 C 0.34782 0.39675 0.6466 0.0
C1107 C 0.34523 0.39729 0.73038 0.0
H1108 H 0.3424 0.64557 0.17276 0.0
H1109 H 0.40466 0.66708 0.16544 0.0
H1110 H 0.34409 0.6434 0.31971 0.0
H1111 H 0.40642 0.66511 0.31433 0.0
H1112 H 0.40806 0.61937 0.53716 0.0
H1113 H 0.40727 0.63367 0.39964 0.0
H1114 H 0.34815 0.66015 0.44941 0.0
H1115 H 0.3485 0.64532 0.58398 0.0
C1116 C 0.3562 0.65056 0.2033 0.0
C1117 C 0.37346 0.65629 0.15866 0.0
C1118 C 0.35719 0.64938 0.28741 0.0
C1119 C 0.37551 0.65382 0.32813 0.0
C1120 C 0.39223 0.66136 0.28393 0.0
C1121 C 0.39115 0.66272 0.19925 0.0
C1122 C 0.39491 0.62815 0.51814 0.0
C1123 C 0.37809 0.63065 0.56996 0.0
C1124 C 0.3946 0.63664 0.4403 0.0
C1125 C 0.37759 0.64796 0.41413 0.0
C1126 C 0.36129 0.65123 0.46765 0.0
C1127 C 0.36143 0.64251 0.54437 0.0
H1128 H 0.64438 0.65312 0.80633 0.0
H1129 H 0.67093 0.59361 0.78003 0.0
H1130 H 0.63671 0.65391 0.66164 0.0
H1131 H 0.66433 0.59462 0.63376 0.0
H1132 H 0.61951 0.58727 0.42713 0.0
H1133 H 0.63259 0.59053 0.56507 0.0
H1134 H 0.64521 0.65408 0.5224 0.0
H1135 H 0.63124 0.65102 0.38603 0.0
C1136 C 0.64969 0.64075 0.76822 0.0
C1137 C 0.65838 0.6234 0.8032 0.0
C1138 C 0.64514 0.64108 0.68544 0.0
C1139 C 0.64937 0.62406 0.63663 0.0
C1140 C 0.6603 0.6077 0.6704 0.0
C1141 C 0.66456 0.60728 0.75353 0.0
C1142 C 0.62465 0.60202 0.44797 0.0
C1143 C 0.62429 0.61887 0.3959 0.0
C1144 C 0.63255 0.60382 0.52638 0.0
C1145 C 0.64052 0.62244 0.55393 0.0
C1146 C 0.63924 0.63952 0.5031 0.0
C1147 C 0.63106 0.63778 0.42509 0.0
H1148 H 0.58469 0.35615 0.54859 0.0
H1149 H 0.63946 0.39104 0.50771 0.0
H1150 H 0.58569 0.34406 0.40849 0.0
H1151 H 0.63981 0.38026 0.36595 0.0
H1152 H 0.65374 0.34108 0.16026 0.0
H1153 H 0.64897 0.34957 0.30325 0.0
H1154 H 0.58345 0.34966 0.26771 0.0
H1155 H 0.58843 0.3397 0.12633 0.0
C1156 C 0.59631 0.36206 0.50806 0.0
C1157 C 0.61199 0.3745 0.53793 0.0
C1158 C 0.59703 0.35497 0.42811 0.0
C1159 C 0.61325 0.36061 0.37692 0.0
C1160 C 0.62761 0.37491 0.40491 0.0
C1161 C 0.62717 0.38153 0.48526 0.0
C1162 C 0.63837 0.34199 0.18448 0.0
C1163 C 0.62145 0.33971 0.13334 0.0
C1164 C 0.63558 0.34734 0.26559 0.0
C1165 C 0.61584 0.35117 0.29585 0.0
C1166 C 0.59885 0.34696 0.2463 0.0
C1167 C 0.60167 0.34106 0.16557 0.0
H1168 H 0.82021 0.59072 0.96215 0.0
H1169 H 0.83697 0.65353 0.93274 0.0
H1170 H 0.8271 0.59309 0.10772 0.0
H1171 H 0.84503 0.65582 0.07734 0.0
H1172 H 0.85083 0.65285 0.35706 0.0
H1173 H 0.83709 0.65459 0.21924 0.0
H1174 H 0.85969 0.59401 0.172 0.0
H1175 H 0.87256 0.59202 0.31051 0.0
C1176 C 0.82451 0.60526 -0.01215 0.0
C1177 C 0.82788 0.622 0.93734 0.0
C1178 C 0.82894 0.60655 0.07062 0.0
C1179 C 0.83736 0.62444 0.10339 0.0
C1180 C 0.83865 0.64181 0.05407 0.0
C1181 C 0.83384 0.64059 0.97145 0.0
C1182 C 0.85329 0.64013 0.31638 0.0
C1183 C 0.86272 0.62227 0.34425 0.0
C1184 C 0.84524 0.64105 0.23773 0.0
C1185 C 0.84672 0.6242 0.18552 0.0
C1186 C 0.85755 0.60696 0.21177 0.0
C1187 C 0.86531 0.60594 0.29051 0.0
H1188 H 0.62432 0.10414 0.65881 0.0
H1189 H 0.56549 0.13161 0.6156 0.0
H1190 H 0.62294 0.11491 0.80041 0.0
H1191 H 0.5645 0.14356 0.7563 0.0
H1192 H 0.56703 0.14621 0.04162 0.0
H1193 H 0.56313 0.1365 0.89907 0.0
H1194 H 0.62757 0.1474 0.86055 0.0
H1195 H 0.6315 0.15578 0.00409 0.0
C1196 C 0.61084 0.112 0.68066 0.0
C1197 C 0.595 0.11704 0.62732 0.0
C1198 C 0.61022 0.11859 0.76096 0.0
C1199 C 0.594 0.13083 0.7884 0.0
C1200 C 0.57727 0.13431 0.73672 0.0
C1201 C 0.57771 0.1273 0.65657 0.0
C1202 C 0.58012 0.1473 0.00147 0.0
C1203 C 0.59955 0.15167 0.03273 0.0
C1204 C 0.57795 0.14155 0.92019 0.0
C1205 C 0.5952 0.14044 0.86955 0.0
C1206 C 0.61416 0.14729 0.8991 0.0
C1207 C 0.61638 0.15255 0.98053 0.0
H1208 H 0.13781 0.33345 0.30412 0.0
H1209 H 0.13736 0.39829 0.26429 0.0
H1210 H 0.15159 0.32819 0.16884 0.0
H1211 H 0.14997 0.393 0.12656 0.0
H1212 H 0.18578 0.38375 0.90827 0.0
H1213 H 0.17978 0.38405 0.05497 0.0
H1214 H 0.14379 0.32923 0.03135 0.0
H1215 H 0.15103 0.32847 0.88668 0.0
C1216 C 0.14 0.34656 0.26532 0.0
C1217 C 0.13643 0.36631 0.29448 0.0
C1218 C 0.14808 0.34354 0.18787 0.0
C1219 C 0.15232 0.36017 0.13727 0.0
C1220 C 0.14761 0.37987 0.16496 0.0
C1221 C 0.13995 0.38291 0.24313 0.0
C1222 C 0.17767 0.37119 0.93588 0.0
C1223 C 0.16904 0.35597 0.88747 0.0
C1224 C 0.17375 0.37159 0.01928 0.0
C1225 C 0.16068 0.35706 0.05443 0.0
C1226 C 0.15393 0.34065 0.00673 0.0
C1227 C 0.1582 0.34008 0.92383 0.0
H1228 H 0.41659 0.84942 0.08669 0.0
H1229 H 0.35141 0.84896 0.0482 0.0
H1230 H 0.42185 0.86026 0.94648 0.0
H1231 H 0.35652 0.85839 0.9065 0.0
H1232 H 0.36509 0.89943 0.70287 0.0
H1233 H 0.3652 0.88955 0.8456 0.0
H1234 H 0.42011 0.85434 0.80505 0.0
H1235 H 0.42062 0.86556 0.66384 0.0
C1236 C 0.40348 0.85063 0.04668 0.0
C1237 C 0.38361 0.84843 0.07726 0.0
C1238 C 0.40645 0.85704 0.96673 0.0
C1239 C 0.38955 0.86093 0.91635 0.0
C1240 C 0.36981 0.85642 0.94493 0.0
C1241 C 0.36685 0.85053 0.02524 0.0
C1242 C 0.37767 0.89041 0.72595 0.0
C1243 C 0.39288 0.88329 0.67352 0.0
C1244 C 0.37751 0.88431 0.80688 0.0
C1245 C 0.39218 0.87043 0.83559 0.0
C1246 C 0.40852 0.86492 0.78475 0.0
C1247 C 0.40896 0.8715 0.70417 0.0
H1248 H 0.8316 0.84172 0.30345 0.0
H1249 H 0.84095 0.90648 0.31037 0.0
H1250 H 0.83535 0.84215 0.15498 0.0
H1251 H 0.84543 0.90706 0.16437 0.0
H1252 H 0.84985 0.90512 0.89742 0.0
H1253 H 0.83439 0.9031 0.0308 0.0
H1254 H 0.86553 0.84617 0.07394 0.0
H1255 H 0.87999 0.84758 0.93698 0.0
C1256 C 0.83352 0.85611 0.27255 0.0
C1257 C 0.83593 0.87409 0.31709 0.0
C1258 C 0.83608 0.85635 0.18809 0.0
C1259 C 0.84117 0.87456 0.14808 0.0
C1260 C 0.8414 0.89278 0.19266 0.0
C1261 C 0.83878 0.89251 0.27643 0.0
C1262 C 0.85364 0.89227 0.93568 0.0
C1263 C 0.86653 0.8767 0.90763 0.0
C1264 C 0.84462 0.89104 0.012 0.0
C1265 C 0.84871 0.8745 0.06319 0.0
C1266 C 0.86171 0.85894 0.03537 0.0
C1267 C 0.87036 0.85992 0.95779 0.0
H1268 H 0.90892 0.13132 0.03822 0.0
H1269 H 0.85386 0.09675 -0.00103 0.0
H1270 H 0.90789 0.1431 0.89791 0.0
H1271 H 0.8535 0.10714 0.85682 0.0
H1272 H 0.9048 0.14786 0.61683 0.0
H1273 H 0.90988 0.13759 0.75757 0.0
H1274 H 0.84439 0.13769 0.79394 0.0
H1275 H 0.83951 0.14645 0.65136 0.0
C1276 C 0.89725 0.12538 -0.00208 0.0
C1277 C 0.88149 0.11315 0.02828 0.0
C1278 C 0.89651 0.13228 0.91784 0.0
C1279 C 0.88019 0.12665 0.86702 0.0
C1280 C 0.86577 0.11249 0.89549 0.0
C1281 C 0.86622 0.10608 0.97603 0.0
C1282 C 0.89158 0.14641 0.65611 0.0
C1283 C 0.87178 0.14785 0.62418 0.0
C1284 C 0.89446 0.14033 0.73649 0.0
C1285 C 0.87752 0.13606 0.78608 0.0
C1286 C 0.85775 0.13995 0.75619 0.0
C1287 C 0.8549 0.14546 0.67536 0.0
H1288 H 0.12697 0.14204 0.88452 0.0
H1289 H 0.10277 0.08194 0.92542 0.0
H1290 H 0.14027 0.1428 0.02255 0.0
H1291 H 0.11487 0.0831 0.06538 0.0
H1292 H 0.15417 0.07776 0.27657 0.0
H1293 H 0.14653 0.08028 0.1317 0.0
H1294 H 0.1335 0.14429 0.16207 0.0
H1295 H 0.14261 0.14178 0.30527 0.0
C1296 C 0.12375 0.12934 0.92432 0.0
C1297 C 0.11389 0.1119 0.89472 0.0
C1298 C 0.13154 0.12969 0.00322 0.0
C1299 C 0.1292 0.11276 0.05424 0.0
C1300 C 0.11771 0.09607 0.02653 0.0
C1301 C 0.11034 0.09554 0.94712 0.0
C1302 C 0.15076 0.0925 0.25074 0.0
C1303 C 0.14915 0.10962 0.3007 0.0
C1304 C 0.14587 0.09392 0.16852 0.0
C1305 C 0.13862 0.11233 0.13609 0.0
C1306 C 0.13897 0.12987 0.18492 0.0
C1307 C 0.14437 0.12852 0.26676 0.0
H1308 H 0.08253 0.8288 0.66187 0.0
H1309 H 0.14792 0.82652 0.69203 0.0
H1310 H 0.07855 0.83791 0.80451 0.0
H1311 H 0.14408 0.83405 0.83637 0.0
H1312 H 0.13698 0.87667 0.04095 0.0
H1313 H 0.13695 0.86502 0.90036 0.0
H1314 H 0.08078 0.83217 0.94468 0.0
H1315 H 0.08024 0.84516 0.0835 0.0
C1316 C 0.09594 0.82909 0.70055 0.0
C1317 C 0.11551 0.82705 0.66701 0.0
C1318 C 0.09371 0.8345 0.78207 0.0
C1319 C 0.11107 0.83749 0.83101 0.0
C1320 C 0.13047 0.83276 0.79928 0.0
C1321 C 0.1327 0.82795 0.71736 0.0
C1322 C 0.12426 0.86765 0.01917 0.0
C1323 C 0.10855 0.86191 0.07192 0.0
C1324 C 0.12445 0.86052 0.93952 0.0
C1325 C 0.10927 0.84698 0.91229 0.0
C1326 C 0.09274 0.84248 0.9637 0.0
C1327 C 0.09229 0.85009 0.04288 0.0
loop_
_geom_bond_atom_site_label_1
_geom_bond_atom_site_label_2
_geom_bond_distance
_geom_bond_site_symmetry_2
_ccdc_geom_bond_type
O0 Zn1 1.953 1_556 S
O0 C16 1.225 . S
Zn1 O0 1.953 1_554 S
Zn1 O2 1.949 . S
Zn1 O8 1.919 . S
Zn1 O13 1.924 . S
O2 Zn1 1.949 . S
O2 Zn3 1.923 . S
O2 Zn4 1.950 . S
O2 Zn5 1.945 . S
Zn3 O2 1.923 . S
Zn3 O6 1.933 . S
Zn3 O9 1.941 . S
Zn3 O10 1.965 . S
Zn4 O2 1.950 . S
Zn4 O11 1.938 . S
Zn4 O12 1.906 . S
Zn4 O22 1.953 1_554 S
Zn5 O2 1.945 . S
Zn5 O7 1.932 . S
Zn5 O14 1.977 . S
Zn5 O15 1.910 . S
O6 Zn3 1.933 . S
O6 C17 1.226 . S
O7 Zn5 1.932 . S
O7 C17 1.307 . S
O8 Zn1 1.919 . S
O8 C19 1.253 . S
O9 Zn3 1.941 . S
O9 C19 1.283 . S
O10 Zn3 1.965 . S
O10 C18 1.303 . S
O11 Zn4 1.938 . S
O11 C18 1.247 . S
O12 Zn4 1.906 . S
O12 C20 1.304 . S
O13 Zn1 1.924 . S
O13 C21 1.311 . S
O14 Zn5 1.977 . S
O14 C20 1.272 . S
O15 Zn5 1.910 . S
O15 C21 1.231 . S
C16 O0 1.225 . S
C16 O22 1.298 . S
C17 O6 1.226 . S
C17 O7 1.307 . S
C18 O10 1.303 . S
C18 O11 1.247 . S
C19 O8 1.253 . S
C19 O9 1.283 . S
C20 O12 1.304 . S
C20 O14 1.272 . S
C21 O13 1.311 . S
C21 O15 1.231 . S
O22 Zn4 1.953 1_556 S
O22 C16 1.298 . S
O23 Zn24 1.953 1_554 S
O23 C39 1.225 . S
Zn24 O23 1.953 1_556 S
Zn24 O25 1.949 . S
Zn24 O31 1.919 . S
Zn24 O36 1.924 . S
O25 Zn24 1.949 . S
O25 Zn26 1.923 . S
O25 Zn27 1.950 . S
O25 Zn28 1.945 . S
Zn26 O25 1.923 . S
Zn26 O29 1.933 . S
Zn26 O32 1.941 . S
Zn26 O33 1.965 . S
Zn27 O25 1.950 . S
Zn27 O34 1.938 . S
Zn27 O35 1.906 . S
Zn27 O45 1.953 1_556 S
Zn28 O25 1.945 . S
Zn28 O30 1.932 . S
Zn28 O37 1.977 . S
Zn28 O38 1.910 . S
O29 Zn26 1.933 . S
O29 C40 1.226 . S
O30 Zn28 1.932 . S
O30 C40 1.307 . S
O31 Zn24 1.919 . S
O31 C42 1.253 . S
O32 Zn26 1.941 . S
O32 C42 1.283 . S
O33 Zn26 1.965 . S
O33 C41 1.303 . S
O34 Zn27 1.938 . S
O34 C41 1.247 . S
O35 Zn27 1.906 . S
O35 C43 1.304 . S
O36 Zn24 1.924 . S
O36 C44 1.311 . S
O37 Zn28 1.977 . S
O37 C43 1.272 . S
O38 Zn28 1.910 . S
O38 C44 1.231 . S
C39 O23 1.225 . S
C39 O45 1.298 . S
C40 O29 1.226 . S
C40 O30 1.307 . S
C41 O33 1.303 . S
C41 O34 1.247 . S
C42 O31 1.253 . S
C42 O32 1.283 . S
C43 O35 1.304 . S
C43 O37 1.272 . S
C44 O36 1.311 . S
C44 O38 1.231 . S
O45 Zn27 1.953 1_554 S
O45 C39 1.298 . S
O46 Zn47 1.953 1_556 S
O46 C62 1.225 . S
Zn47 O46 1.953 1_554 S
Zn47 O48 1.949 . S
Zn47 O54 1.919 . S
Zn47 O59 1.924 . S
O48 Zn47 1.949 . S
O48 Zn49 1.923 . S
O48 Zn50 1.950 . S
O48 Zn51 1.945 . S
Zn49 O48 1.923 . S
Zn49 O52 1.933 . S
Zn49 O55 1.941 . S
Zn49 O56 1.965 . S
Zn50 O48 1.950 . S
Zn50 O57 1.938 . S
Zn50 O58 1.906 . S
Zn50 O68 1.953 1_554 S
Zn51 O48 1.945 . S
Zn51 O53 1.932 . S
Zn51 O60 1.977 . S
Zn51 O61 1.910 . S
O52 Zn49 1.933 . S
O52 C63 1.226 . S
O53 Zn51 1.932 . S
O53 C63 1.307 . S
O54 Zn47 1.919 . S
O54 C65 1.253 . S
O55 Zn49 1.941 . S
O55 C65 1.283 . S
O56 Zn49 1.965 . S
O56 C64 1.303 . S
O57 Zn50 1.938 . S
O57 C64 1.247 . S
O58 Zn50 1.906 . S
O58 C66 1.304 . S
O59 Zn47 1.924 . S
O59 C67 1.311 . S
O60 Zn51 1.977 . S
O60 C66 1.272 . S
O61 Zn51 1.910 . S
O61 C67 1.231 . S
C62 O46 1.225 . S
C62 O68 1.298 . S
C63 O52 1.226 . S
C63 O53 1.307 . S
C64 O56 1.303 . S
C64 O57 1.247 . S
C65 O54 1.253 . S
C65 O55 1.283 . S
C66 O58 1.304 . S
C66 O60 1.272 . S
C67 O59 1.311 . S
C67 O61 1.231 . S
O68 Zn50 1.953 1_556 S
O68 C62 1.298 . S
O69 Zn70 1.953 1_554 S
O69 C85 1.225 . S
Zn70 O69 1.953 1_556 S
Zn70 O71 1.949 . S
Zn70 O77 1.919 . S
Zn70 O82 1.924 . S
O71 Zn70 1.949 . S
O71 Zn72 1.923 . S
O71 Zn73 1.950 . S
O71 Zn74 1.945 . S
Zn72 O71 1.923 . S
Zn72 O75 1.933 . S
Zn72 O78 1.941 . S
Zn72 O79 1.965 . S
Zn73 O71 1.950 . S
Zn73 O80 1.938 . S
Zn73 O81 1.906 . S
Zn73 O91 1.953 1_556 S
Zn74 O71 1.945 . S
Zn74 O76 1.932 . S
Zn74 O83 1.977 . S
Zn74 O84 1.910 . S
O75 Zn72 1.933 . S
O75 C86 1.226 . S
O76 Zn74 1.932 . S
O76 C86 1.307 . S
O77 Zn70 1.919 . S
O77 C88 1.253 . S
O78 Zn72 1.941 . S
O78 C88 1.283 . S
O79 Zn72 1.965 . S
O79 C87 1.303 . S
O80 Zn73 1.938 . S
O80 C87 1.247 . S
O81 Zn73 1.906 . S
O81 C89 1.304 . S
O82 Zn70 1.924 . S
O82 C90 1.311 . S
O83 Zn74 1.977 . S
O83 C89 1.272 . S
O84 Zn74 1.910 . S
O84 C90 1.231 . S
C85 O69 1.225 . S
C85 O91 1.298 . S
C86 O75 1.226 . S
C86 O76 1.307 . S
C87 O79 1.303 . S
C87 O80 1.247 . S
C88 O77 1.253 . S
C88 O78 1.283 . S
C89 O81 1.304 . S
C89 O83 1.272 . S
C90 O82 1.311 . S
C90 O84 1.231 . S
O91 Zn73 1.953 1_554 S
O91 C85 1.298 . S
O92 Zn93 1.953 . S
O92 C108 1.225 . S
Zn93 O92 1.953 . S
Zn93 O94 1.949 . S
Zn93 O100 1.919 . S
Zn93 O105 1.924 . S
O94 Zn93 1.949 . S
O94 Zn95 1.923 . S
O94 Zn96 1.950 . S
O94 Zn97 1.945 . S
Zn95 O94 1.923 . S
Zn95 O98 1.933 1_554 S
Zn95 O101 1.941 . S
Zn95 O102 1.965 . S
Zn96 O94 1.950 . S
Zn96 O103 1.938 . S
Zn96 O104 1.906 . S
Zn96 O114 1.953 . S
Zn97 O94 1.945 . S
Zn97 O99 1.932 1_554 S
Zn97 O106 1.977 . S
Zn97 O107 1.910 . S
O98 Zn95 1.933 1_556 S
O98 C109 1.226 . S
O99 Zn97 1.932 1_556 S
O99 C109 1.307 . S
O100 Zn93 1.919 . S
O100 C111 1.253 . S
O101 Zn95 1.941 . S
O101 C111 1.283 . S
O102 Zn95 1.965 . S
O102 C110 1.303 . S
O103 Zn96 1.938 . S
O103 C110 1.247 . S
O104 Zn96 1.906 . S
O104 C112 1.304 . S
O105 Zn93 1.924 . S
O105 C113 1.311 . S
O106 Zn97 1.977 . S
O106 C112 1.272 . S
O107 Zn97 1.910 . S
O107 C113 1.231 . S
C108 O92 1.225 . S
C108 O114 1.298 . S
C109 O98 1.226 . S
C109 O99 1.307 . S
C110 O102 1.303 . S
C110 O103 1.247 . S
C111 O100 1.253 . S
C111 O101 1.283 . S
C112 O104 1.304 . S
C112 O106 1.272 . S
C113 O105 1.311 . S
C113 O107 1.231 . S
O114 Zn96 1.953 . S
O114 C108 1.298 . S
O115 Zn116 1.953 . S
O115 C131 1.225 . S
Zn116 O115 1.953 . S
Zn116 O117 1.949 . S
Zn116 O123 1.919 . S
Zn116 O128 1.924 . S
O117 Zn116 1.949 . S
O117 Zn118 1.923 . S
O117 Zn119 1.950 . S
O117 Zn120 1.945 . S
Zn118 O117 1.923 . S
Zn118 O121 1.933 1_556 S
Zn118 O124 1.941 . S
Zn118 O125 1.965 . S
Zn119 O117 1.950 . S
Zn119 O126 1.938 . S
Zn119 O127 1.906 . S
Zn119 O137 1.953 . S
Zn120 O117 1.945 . S
Zn120 O122 1.932 1_556 S
Zn120 O129 1.977 . S
Zn120 O130 1.910 . S
O121 Zn118 1.933 1_554 S
O121 C132 1.226 . S
O122 Zn120 1.932 1_554 S
O122 C132 1.307 . S
O123 Zn116 1.919 . S
O123 C134 1.253 . S
O124 Zn118 1.941 . S
O124 C134 1.283 . S
O125 Zn118 1.965 . S
O125 C133 1.303 . S
O126 Zn119 1.938 . S
O126 C133 1.247 . S
O127 Zn119 1.906 . S
O127 C135 1.304 . S
O128 Zn116 1.924 . S
O128 C136 1.311 . S
O129 Zn120 1.977 . S
O129 C135 1.272 . S
O130 Zn120 1.910 . S
O130 C136 1.231 . S
C131 O115 1.225 . S
C131 O137 1.298 . S
C132 O121 1.226 . S
C132 O122 1.307 . S
C133 O125 1.303 . S
C133 O126 1.247 . S
C134 O123 1.253 . S
C134 O124 1.283 . S
C135 O127 1.304 . S
C135 O129 1.272 . S
C136 O128 1.311 . S
C136 O130 1.231 . S
O137 Zn119 1.953 . S
O137 C131 1.298 . S
O138 Zn139 1.953 . S
O138 C154 1.225 . S
Zn139 O138 1.953 . S
Zn139 O140 1.949 . S
Zn139 O146 1.919 . S
Zn139 O151 1.924 . S
O140 Zn139 1.949 . S
O140 Zn141 1.923 . S
O140 Zn142 1.950 . S
O140 Zn143 1.945 . S
Zn141 O140 1.923 . S
Zn141 O144 1.933 1_554 S
Zn141 O147 1.941 . S
Zn141 O148 1.965 . S
Zn142 O140 1.950 . S
Zn142 O149 1.938 . S
Zn142 O150 1.906 . S
Zn142 O160 1.953 . S
Zn143 O140 1.945 . S
Zn143 O145 1.932 1_554 S
Zn143 O152 1.977 . S
Zn143 O153 1.910 . S
O144 Zn141 1.933 1_556 S
O144 C155 1.226 . S
O145 Zn143 1.932 1_556 S
O145 C155 1.307 . S
O146 Zn139 1.919 . S
O146 C157 1.253 . S
O147 Zn141 1.941 . S
O147 C157 1.283 . S
O148 Zn141 1.965 . S
O148 C156 1.303 . S
O149 Zn142 1.938 . S
O149 C156 1.247 . S
O150 Zn142 1.906 . S
O150 C158 1.304 . S
O151 Zn139 1.924 . S
O151 C159 1.311 . S
O152 Zn143 1.977 . S
O152 C158 1.272 . S
O153 Zn143 1.910 . S
O153 C159 1.231 . S
C154 O138 1.225 . S
C154 O160 1.298 . S
C155 O144 1.226 . S
C155 O145 1.307 . S
C156 O148 1.303 . S
C156 O149 1.247 . S
C157 O146 1.253 . S
C157 O147 1.283 . S
C158 O150 1.304 . S
C158 O152 1.272 . S
C159 O151 1.311 . S
C159 O153 1.231 . S
O160 Zn142 1.953 . S
O160 C154 1.298 . S
O161 Zn162 1.953 . S
O161 C177 1.225 . S
Zn162 O161 1.953 . S
Zn162 O163 1.949 . S
Zn162 O169 1.919 . S
Zn162 O174 1.924 . S
O163 Zn162 1.949 . S
O163 Zn164 1.923 . S
O163 Zn165 1.950 . S
O163 Zn166 1.945 . S
Zn164 O163 1.923 . S
Zn164 O167 1.933 1_556 S
Zn164 O170 1.941 . S
Zn164 O171 1.965 . S
Zn165 O163 1.950 . S
Zn165 O172 1.938 . S
Zn165 O173 1.906 . S
Zn165 O183 1.953 . S
Zn166 O163 1.945 . S
Zn166 O168 1.932 1_556 S
Zn166 O175 1.977 . S
Zn166 O176 1.910 . S
O167 Zn164 1.933 1_554 S
O167 C178 1.226 . S
O168 Zn166 1.932 1_554 S
O168 C178 1.307 . S
O169 Zn162 1.919 . S
O169 C180 1.253 . S
O170 Zn164 1.941 . S
O170 C180 1.283 . S
O171 Zn164 1.965 . S
O171 C179 1.303 . S
O172 Zn165 1.938 . S
O172 C179 1.247 . S
O173 Zn165 1.906 . S
O173 C181 1.304 . S
O174 Zn162 1.924 . S
O174 C182 1.311 . S
O175 Zn166 1.977 . S
O175 C181 1.272 . S
O176 Zn166 1.910 . S
O176 C182 1.231 . S
C177 O161 1.225 . S
C177 O183 1.298 . S
C178 O167 1.226 . S
C178 O168 1.307 . S
C179 O171 1.303 . S
C179 O172 1.247 . S
C180 O169 1.253 . S
C180 O170 1.283 . S
C181 O173 1.304 . S
C181 O175 1.272 . S
C182 O174 1.311 . S
C182 O176 1.231 . S
O183 Zn165 1.953 . S
O183 C177 1.298 . S
O184 Zn185 1.953 . S
O184 C200 1.225 . S
Zn185 O184 1.953 . S
Zn185 O186 1.949 . S
Zn185 O192 1.919 . S
Zn185 O197 1.924 . S
O186 Zn185 1.949 . S
O186 Zn187 1.923 . S
O186 Zn188 1.950 . S
O186 Zn189 1.945 . S
Zn187 O186 1.923 . S
Zn187 O190 1.933 . S
Zn187 O193 1.941 . S
Zn187 O194 1.965 . S
Zn188 O186 1.950 . S
Zn188 O195 1.938 . S
Zn188 O196 1.906 . S
Zn188 O206 1.953 . S
Zn189 O186 1.945 . S
Zn189 O191 1.932 . S
Zn189 O198 1.977 . S
Zn189 O199 1.910 . S
O190 Zn187 1.933 . S
O190 C201 1.226 . S
O191 Zn189 1.932 . S
O191 C201 1.307 . S
O192 Zn185 1.919 . S
O192 C203 1.253 . S
O193 Zn187 1.941 . S
O193 C203 1.283 . S
O194 Zn187 1.965 . S
O194 C202 1.303 . S
O195 Zn188 1.938 . S
O195 C202 1.247 . S
O196 Zn188 1.906 . S
O196 C204 1.304 . S
O197 Zn185 1.924 . S
O197 C205 1.311 . S
O198 Zn189 1.977 . S
O198 C204 1.272 . S
O199 Zn189 1.910 . S
O199 C205 1.231 . S
C200 O184 1.225 . S
C200 O206 1.298 . S
C201 O190 1.226 . S
C201 O191 1.307 . S
C202 O194 1.303 . S
C202 O195 1.247 . S
C203 O192 1.253 . S
C203 O193 1.283 . S
C204 O196 1.304 . S
C204 O198 1.272 . S
C205 O197 1.311 . S
C205 O199 1.231 . S
O206 Zn188 1.953 . S
O206 C200 1.298 . S
O207 Zn208 1.953 . S
O207 C223 1.225 . S
Zn208 O207 1.953 . S
Zn208 O209 1.949 . S
Zn208 O215 1.919 . S
Zn208 O220 1.924 . S
O209 Zn208 1.949 . S
O209 Zn210 1.923 . S
O209 Zn211 1.950 . S
O209 Zn212 1.945 . S
Zn210 O209 1.923 . S
Zn210 O213 1.933 . S
Zn210 O216 1.941 . S
Zn210 O217 1.965 . S
Zn211 O209 1.950 . S
Zn211 O218 1.938 . S
Zn211 O219 1.906 . S
Zn211 O229 1.953 . S
Zn212 O209 1.945 . S
Zn212 O214 1.932 . S
Zn212 O221 1.977 . S
Zn212 O222 1.910 . S
O213 Zn210 1.933 . S
O213 C224 1.226 . S
O214 Zn212 1.932 . S
O214 C224 1.307 . S
O215 Zn208 1.919 . S
O215 C226 1.253 . S
O216 Zn210 1.941 . S
O216 C226 1.283 . S
O217 Zn210 1.965 . S
O217 C225 1.303 . S
O218 Zn211 1.938 . S
O218 C225 1.247 . S
O219 Zn211 1.906 . S
O219 C227 1.304 . S
O220 Zn208 1.924 . S
O220 C228 1.311 . S
O221 Zn212 1.977 . S
O221 C227 1.272 . S
O222 Zn212 1.910 . S
O222 C228 1.231 . S
C223 O207 1.225 . S
C223 O229 1.298 . S
C224 O213 1.226 . S
C224 O214 1.307 . S
C225 O217 1.303 . S
C225 O218 1.247 . S
C226 O215 1.253 . S
C226 O216 1.283 . S
C227 O219 1.304 . S
C227 O221 1.272 . S
C228 O220 1.311 . S
C228 O222 1.231 . S
O229 Zn211 1.953 . S
O229 C223 1.298 . S
O230 Zn231 1.953 . S
O230 C246 1.225 . S
Zn231 O230 1.953 . S
Zn231 O232 1.949 . S
Zn231 O238 1.919 . S
Zn231 O243 1.924 . S
O232 Zn231 1.949 . S
O232 Zn233 1.923 . S
O232 Zn234 1.950 . S
O232 Zn235 1.945 . S
Zn233 O232 1.923 . S
Zn233 O236 1.933 . S
Zn233 O239 1.941 . S
Zn233 O240 1.965 . S
Zn234 O232 1.950 . S
Zn234 O241 1.938 . S
Zn234 O242 1.906 . S
Zn234 O252 1.953 . S
Zn235 O232 1.945 . S
Zn235 O237 1.932 . S
Zn235 O244 1.977 . S
Zn235 O245 1.910 . S
O236 Zn233 1.933 . S
O236 C247 1.226 . S
O237 Zn235 1.932 . S
O237 C247 1.307 . S
O238 Zn231 1.919 . S
O238 C249 1.253 . S
O239 Zn233 1.941 . S
O239 C249 1.283 . S
O240 Zn233 1.965 . S
O240 C248 1.303 . S
O241 Zn234 1.938 . S
O241 C248 1.247 . S
O242 Zn234 1.906 . S
O242 C250 1.304 . S
O243 Zn231 1.924 . S
O243 C251 1.311 . S
O244 Zn235 1.977 . S
O244 C250 1.272 . S
O245 Zn235 1.910 . S
O245 C251 1.231 . S
C246 O230 1.225 . S
C246 O252 1.298 . S
C247 O236 1.226 . S
C247 O237 1.307 . S
C248 O240 1.303 . S
C248 O241 1.247 . S
C249 O238 1.253 . S
C249 O239 1.283 . S
C250 O242 1.304 . S
C250 O244 1.272 . S
C251 O243 1.311 . S
C251 O245 1.231 . S
O252 Zn234 1.953 . S
O252 C246 1.298 . S
O253 Zn254 1.953 . S
O253 C269 1.225 . S
Zn254 O253 1.953 . S
Zn254 O255 1.949 . S
Zn254 O261 1.919 . S
Zn254 O266 1.924 . S
O255 Zn254 1.949 . S
O255 Zn256 1.923 . S
O255 Zn257 1.950 . S
O255 Zn258 1.945 . S
Zn256 O255 1.923 . S
Zn256 O259 1.933 . S
Zn256 O262 1.941 . S
Zn256 O263 1.965 . S
Zn257 O255 1.950 . S
Zn257 O264 1.938 . S
Zn257 O265 1.906 . S
Zn257 O275 1.953 . S
Zn258 O255 1.945 . S
Zn258 O260 1.932 . S
Zn258 O267 1.977 . S
Zn258 O268 1.910 . S
O259 Zn256 1.933 . S
O259 C270 1.226 . S
O260 Zn258 1.932 . S
O260 C270 1.307 . S
O261 Zn254 1.919 . S
O261 C272 1.253 . S
O262 Zn256 1.941 . S
O262 C272 1.283 . S
O263 Zn256 1.965 . S
O263 C271 1.303 . S
O264 Zn257 1.938 . S
O264 C271 1.247 . S
O265 Zn257 1.906 . S
O265 C273 1.304 . S
O266 Zn254 1.924 . S
O266 C274 1.311 . S
O267 Zn258 1.977 . S
O267 C273 1.272 . S
O268 Zn258 1.910 . S
O268 C274 1.231 . S
C269 O253 1.225 . S
C269 O275 1.298 . S
C270 O259 1.226 . S
C270 O260 1.307 . S
C271 O263 1.303 . S
C271 O264 1.247 . S
C272 O261 1.253 . S
C272 O262 1.283 . S
C273 O265 1.304 . S
C273 O267 1.272 . S
C274 O266 1.311 . S
C274 O268 1.231 . S
O275 Zn257 1.953 . S
O275 C269 1.298 . S
O276 Zn277 1.953 . S
O276 C292 1.225 . S
Zn277 O276 1.953 . S
Zn277 O278 1.949 . S
Zn277 O284 1.919 . S
Zn277 O289 1.924 . S
O278 Zn277 1.949 . S
O278 Zn279 1.923 . S
O278 Zn280 1.950 . S
O278 Zn281 1.945 . S
Zn279 O278 1.923 . S
Zn279 O282 1.933 . S
Zn279 O285 1.941 . S
Zn279 O286 1.965 . S
Zn280 O278 1.950 . S
Zn280 O287 1.938 . S
Zn280 O288 1.906 . S
Zn280 O298 1.953 . S
Zn281 O278 1.945 . S
Zn281 O283 1.932 . S
Zn281 O290 1.977 . S
Zn281 O291 1.910 . S
O282 Zn279 1.933 . S
O282 C293 1.226 . S
O283 Zn281 1.932 . S
O283 C293 1.307 . S
O284 Zn277 1.919 . S
O284 C295 1.253 . S
O285 Zn279 1.941 . S
O285 C295 1.283 . S
O286 Zn279 1.965 . S
O286 C294 1.303 . S
O287 Zn280 1.938 . S
O287 C294 1.247 . S
O288 Zn280 1.906 . S
O288 C296 1.304 . S
O289 Zn277 1.924 . S
O289 C297 1.311 . S
O290 Zn281 1.977 . S
O290 C296 1.272 . S
O291 Zn281 1.910 . S
O291 C297 1.231 . S
C292 O276 1.225 . S
C292 O298 1.298 . S
C293 O282 1.226 . S
C293 O283 1.307 . S
C294 O286 1.303 . S
C294 O287 1.247 . S
C295 O284 1.253 . S
C295 O285 1.283 . S
C296 O288 1.304 . S
C296 O290 1.272 . S
C297 O289 1.311 . S
C297 O291 1.231 . S
O298 Zn280 1.953 . S
O298 C292 1.298 . S
O299 Zn300 1.953 . S
O299 C315 1.225 . S
Zn300 O299 1.953 . S
Zn300 O301 1.949 . S
Zn300 O307 1.919 . S
Zn300 O312 1.924 . S
O301 Zn300 1.949 . S
O301 Zn302 1.923 . S
O301 Zn303 1.950 . S
O301 Zn304 1.945 . S
Zn302 O301 1.923 . S
Zn302 O305 1.933 . S
Zn302 O308 1.941 . S
Zn302 O309 1.965 . S
Zn303 O301 1.950 . S
Zn303 O310 1.938 . S
Zn303 O311 1.906 . S
Zn303 O321 1.953 . S
Zn304 O301 1.945 . S
Zn304 O306 1.932 . S
Zn304 O313 1.977 . S
Zn304 O314 1.910 . S
O305 Zn302 1.933 . S
O305 C316 1.226 . S
O306 Zn304 1.932 . S
O306 C316 1.307 . S
O307 Zn300 1.919 . S
O307 C318 1.253 . S
O308 Zn302 1.941 . S
O308 C318 1.283 . S
O309 Zn302 1.965 . S
O309 C317 1.303 . S
O310 Zn303 1.938 . S
O310 C317 1.247 . S
O311 Zn303 1.906 . S
O311 C319 1.304 . S
O312 Zn300 1.924 . S
O312 C320 1.311 . S
O313 Zn304 1.977 . S
O313 C319 1.272 . S
O314 Zn304 1.910 . S
O314 C320 1.231 . S
C315 O299 1.225 . S
C315 O321 1.298 . S
C316 O305 1.226 . S
C316 O306 1.307 . S
C317 O309 1.303 . S
C317 O310 1.247 . S
C318 O307 1.253 . S
C318 O308 1.283 . S
C319 O311 1.304 . S
C319 O313 1.272 . S
C320 O312 1.311 . S
C320 O314 1.231 . S
O321 Zn303 1.953 . S
O321 C315 1.298 . S
O322 Zn323 1.953 . S
O322 C338 1.225 . S
Zn323 O322 1.953 . S
Zn323 O324 1.949 . S
Zn323 O330 1.919 . S
Zn323 O335 1.924 . S
O324 Zn323 1.949 . S
O324 Zn325 1.923 . S
O324 Zn326 1.950 . S
O324 Zn327 1.945 . S
Zn325 O324 1.923 . S
Zn325 O328 1.933 . S
Zn325 O331 1.941 . S
Zn325 O332 1.965 . S
Zn326 O324 1.950 . S
Zn326 O333 1.938 . S
Zn326 O334 1.906 . S
Zn326 O344 1.953 . S
Zn327 O324 1.945 . S
Zn327 O329 1.932 . S
Zn327 O336 1.977 . S
Zn327 O337 1.910 . S
O328 Zn325 1.933 . S
O328 C339 1.226 . S
O329 Zn327 1.932 . S
O329 C339 1.307 . S
O330 Zn323 1.919 . S
O330 C341 1.253 . S
O331 Zn325 1.941 . S
O331 C341 1.283 . S
O332 Zn325 1.965 . S
O332 C340 1.303 . S
O333 Zn326 1.938 . S
O333 C340 1.247 . S
O334 Zn326 1.906 . S
O334 C342 1.304 . S
O335 Zn323 1.924 . S
O335 C343 1.311 . S
O336 Zn327 1.977 . S
O336 C342 1.272 . S
O337 Zn327 1.910 . S
O337 C343 1.231 . S
C338 O322 1.225 . S
C338 O344 1.298 . S
C339 O328 1.226 . S
C339 O329 1.307 . S
C340 O332 1.303 . S
C340 O333 1.247 . S
C341 O330 1.253 . S
C341 O331 1.283 . S
C342 O334 1.304 . S
C342 O336 1.272 . S
C343 O335 1.311 . S
C343 O337 1.231 . S
O344 Zn326 1.953 . S
O344 C338 1.298 . S
O345 Zn346 1.953 . S
O345 C361 1.225 . S
Zn346 O345 1.953 . S
Zn346 O347 1.949 . S
Zn346 O353 1.919 . S
Zn346 O358 1.924 . S
O347 Zn346 1.949 . S
O347 Zn348 1.923 . S
O347 Zn349 1.950 . S
O347 Zn350 1.945 . S
Zn348 O347 1.923 . S
Zn348 O351 1.933 . S
Zn348 O354 1.941 . S
Zn348 O355 1.965 . S
Zn349 O347 1.950 . S
Zn349 O356 1.938 . S
Zn349 O357 1.906 . S
Zn349 O367 1.953 . S
Zn350 O347 1.945 . S
Zn350 O352 1.932 . S
Zn350 O359 1.977 . S
Zn350 O360 1.910 . S
O351 Zn348 1.933 . S
O351 C362 1.226 . S
O352 Zn350 1.932 . S
O352 C362 1.307 . S
O353 Zn346 1.919 . S
O353 C364 1.253 . S
O354 Zn348 1.941 . S
O354 C364 1.283 . S
O355 Zn348 1.965 . S
O355 C363 1.303 . S
O356 Zn349 1.938 . S
O356 C363 1.247 . S
O357 Zn349 1.906 . S
O357 C365 1.304 . S
O358 Zn346 1.924 . S
O358 C366 1.311 . S
O359 Zn350 1.977 . S
O359 C365 1.272 . S
O360 Zn350 1.910 . S
O360 C366 1.231 . S
C361 O345 1.225 . S
C361 O367 1.298 . S
C362 O351 1.226 . S
C362 O352 1.307 . S
C363 O355 1.303 . S
C363 O356 1.247 . S
C364 O353 1.253 . S
C364 O354 1.283 . S
C365 O357 1.304 . S
C365 O359 1.272 . S
C366 O358 1.311 . S
C366 O360 1.231 . S
O367 Zn349 1.953 . S
O367 C361 1.298 . S
H368 C376 0.950 . S
H369 C381 0.950 . S
H370 C378 0.950 . S
H371 C380 0.950 . S
H372 C382 0.950 . S
H373 C384 0.950 . S
H374 C386 0.950 . S
H375 C387 0.950 . S
C376 H368 0.950 . S
C376 C377 1.386 . S
C376 C378 1.391 . S
C377 C376 1.386 . S
C377 C381 1.393 . S
C378 H370 0.950 . S
C378 C376 1.391 . S
C378 C379 1.400 . S
C379 C378 1.400 . S
C379 C380 1.398 . S
C379 C385 1.491 1_565 S
C380 H371 0.950 . S
C380 C379 1.398 . S
C380 C381 1.391 . S
C381 H369 0.950 . S
C381 C377 1.393 . S
C381 C380 1.391 . S
C382 H372 0.950 . S
C382 C383 1.386 . S
C382 C384 1.391 . S
C383 C382 1.386 . S
C383 C387 1.393 . S
C384 H373 0.950 . S
C384 C382 1.391 . S
C384 C385 1.400 . S
C385 C379 1.491 1_545 S
C385 C384 1.400 . S
C385 C386 1.398 . S
C386 H374 0.950 . S
C386 C385 1.398 . S
C386 C387 1.391 . S
C387 H375 0.950 . S
C387 C383 1.393 . S
C387 C386 1.391 . S
H388 C396 0.950 . S
H389 C401 0.950 . S
H390 C398 0.950 . S
H391 C400 0.950 . S
H392 C402 0.950 . S
H393 C404 0.965 . S
H394 C406 0.950 . S
H395 C407 0.950 . S
C396 H388 0.950 . S
C396 C397 1.386 . S
C396 C398 1.391 . S
C397 C396 1.386 . S
C397 C401 1.393 . S
C398 H390 0.950 . S
C398 C396 1.391 . S
C398 C399 1.400 . S
C399 C398 1.400 . S
C399 C400 1.398 . S
C399 C405 1.491 1_655 S
C400 H391 0.950 . S
C400 C399 1.398 . S
C400 C401 1.391 . S
C401 H389 0.950 . S
C401 C397 1.393 . S
C401 C400 1.391 . S
C402 H392 0.950 . S
C402 C403 1.386 . S
C402 C404 1.391 . S
C403 C402 1.386 . S
C403 C407 1.393 . S
C404 H393 0.965 . S
C404 C402 1.391 . S
C404 C405 1.400 . S
C405 C399 1.491 1_455 S
C405 C404 1.400 . S
C405 C406 1.398 . S
C406 H394 0.950 . S
C406 C405 1.398 . S
C406 C407 1.391 . S
C407 H395 0.950 . S
C407 C403 1.393 . S
C407 C406 1.391 . S
H408 C416 0.950 . S
H409 C421 0.950 . S
H410 C418 0.950 . S
H411 C420 0.950 . S
H412 C422 0.950 . S
H413 C424 0.950 . S
H414 C426 0.950 . S
H415 C427 0.950 . S
C416 H408 0.950 . S
C416 C417 1.386 . S
C416 C418 1.391 . S
C417 C416 1.386 . S
C417 C421 1.393 . S
C418 H410 0.950 . S
C418 C416 1.391 . S
C418 C419 1.400 . S
C419 C418 1.400 . S
C419 C420 1.398 . S
C419 C425 1.491 1_565 S
C420 H411 0.950 . S
C420 C419 1.398 . S
C420 C421 1.391 . S
C421 H409 0.950 . S
C421 C417 1.393 . S
C421 C420 1.391 . S
C422 H412 0.950 . S
C422 C423 1.386 . S
C422 C424 1.391 . S
C423 C422 1.386 . S
C423 C427 1.393 . S
C424 H413 0.950 . S
C424 C422 1.391 . S
C424 C425 1.400 . S
C425 C419 1.491 1_545 S
C425 C424 1.400 . S
C425 C426 1.398 . S
C426 H414 0.950 . S
C426 C425 1.398 . S
C426 C427 1.391 . S
C427 H415 0.950 . S
C427 C423 1.393 . S
C427 C426 1.391 . S
H428 C436 0.950 . S
H429 C441 0.950 . S
H430 C438 0.950 1_455 S
H431 C440 0.950 . S
H432 C442 0.950 . S
H433 C444 0.950 . S
H434 C446 0.950 . S
H435 C447 0.950 . S
C436 H428 0.950 . S
C436 C437 1.386 . S
C436 C438 1.391 . S
C437 C436 1.386 . S
C437 C441 1.393 . S
C438 H430 0.950 1_655 S
C438 C436 1.391 . S
C438 C439 1.400 . S
C439 C438 1.400 . S
C439 C440 1.398 . S
C439 C445 1.491 1_655 S
C440 H431 0.950 . S
C440 C439 1.398 . S
C440 C441 1.391 . S
C441 H429 0.950 . S
C441 C437 1.393 . S
C441 C440 1.391 . S
C442 H432 0.950 . S
C442 C443 1.386 . S
C442 C444 1.391 . S
C443 C442 1.386 . S
C443 C447 1.393 . S
C444 H433 0.950 . S
C444 C442 1.391 . S
C444 C445 1.400 . S
C445 C439 1.491 1_455 S
C445 C444 1.400 . S
C445 C446 1.398 . S
C446 H434 0.950 . S
C446 C445 1.398 . S
C446 C447 1.391 . S
C447 H435 0.950 . S
C447 C443 1.393 . S
C447 C446 1.391 . S
H448 C456 0.950 . S
H449 C461 0.950 . S
H450 C458 0.950 . S
H451 C460 0.950 . S
H452 C462 0.950 . S
H453 C464 0.950 1_554 S
H454 C466 0.950 . S
H455 C467 0.950 . S
C456 H448 0.950 . S
C456 C457 1.386 1_556 S
C456 C458 1.391 . S
C457 C456 1.386 1_554 S
C457 C461 1.393 . S
C458 H450 0.950 . S
C458 C456 1.391 . S
C458 C459 1.400 . S
C459 C458 1.400 . S
C459 C460 1.398 1_556 S
C459 C465 1.491 . S
C460 H451 0.950 . S
C460 C459 1.398 1_554 S
C460 C461 1.391 . S
C461 H449 0.950 . S
C461 C457 1.393 . S
C461 C460 1.391 . S
C462 H452 0.950 . S
C462 C463 1.386 . S
C462 C464 1.391 . S
C463 C462 1.386 . S
C463 C467 1.393 . S
C464 H453 0.950 1_556 S
C464 C462 1.391 . S
C464 C465 1.400 . S
C465 C459 1.491 . S
C465 C464 1.400 . S
C465 C466 1.398 . S
C466 H454 0.950 . S
C466 C465 1.398 . S
C466 C467 1.391 . S
C467 H455 0.950 . S
C467 C463 1.393 . S
C467 C466 1.391 . S
H468 C476 0.950 . S
H469 C481 0.950 1_556 S
H470 C478 0.950 . S
H471 C480 0.950 . S
H472 C482 0.950 . S
H473 C484 0.950 . S
H474 C486 0.950 . S
H475 C487 0.950 . S
C476 H468 0.950 . S
C476 C477 1.386 . S
C476 C478 1.391 . S
C477 C476 1.386 . S
C477 C481 1.393 . S
C478 H470 0.950 . S
C478 C476 1.391 . S
C478 C479 1.400 . S
C479 C478 1.400 . S
C479 C480 1.398 1_554 S
C479 C485 1.491 . S
C480 H471 0.950 . S
C480 C479 1.398 1_556 S
C480 C481 1.391 1_556 S
C481 H469 0.950 1_554 S
C481 C477 1.393 . S
C481 C480 1.391 1_554 S
C482 H472 0.950 . S
C482 C483 1.386 . S
C482 C484 1.391 . S
C483 C482 1.386 . S
C483 C487 1.393 1_556 S
C484 H473 0.950 . S
C484 C482 1.391 . S
C484 C485 1.400 1_556 S
C485 C479 1.491 . S
C485 C484 1.400 1_554 S
C485 C486 1.398 . S
C486 H474 0.950 . S
C486 C485 1.398 . S
C486 C487 1.391 . S
C487 H475 0.950 . S
C487 C483 1.393 1_554 S
C487 C486 1.391 . S
H488 C496 0.950 . S
H489 C501 0.950 . S
H490 C498 0.950 . S
H491 C500 0.950 . S
H492 C502 0.950 . S
H493 C504 0.950 . S
H494 C506 0.950 1_554 S
H495 C507 0.950 . S
C496 H488 0.950 . S
C496 C497 1.386 . S
C496 C498 1.391 . S
C497 C496 1.386 . S
C497 C501 1.393 1_554 S
C498 H490 0.950 . S
C498 C496 1.391 . S
C498 C499 1.400 1_554 S
C499 C498 1.400 1_556 S
C499 C500 1.398 . S
C499 C505 1.491 . S
C500 H491 0.950 . S
C500 C499 1.398 . S
C500 C501 1.391 . S
C501 H489 0.950 . S
C501 C497 1.393 1_556 S
C501 C500 1.391 . S
C502 H492 0.950 . S
C502 C503 1.386 . S
C502 C504 1.391 . S
C503 C502 1.386 . S
C503 C507 1.393 . S
C504 H493 0.950 . S
C504 C502 1.391 . S
C504 C505 1.400 . S
C505 C499 1.491 . S
C505 C504 1.400 . S
C505 C506 1.398 . S
C506 H494 0.950 1_556 S
C506 C505 1.398 . S
C506 C507 1.391 . S
C507 H495 0.950 . S
C507 C503 1.393 . S
C507 C506 1.391 . S
H508 C516 0.950 . S
H509 C521 0.950 . S
H510 C518 0.950 . S
H511 C520 0.950 . S
H512 C522 0.950 . S
H513 C524 0.950 . S
H514 C526 0.951 . S
H515 C527 0.950 . S
C516 H508 0.950 . S
C516 C517 1.386 . S
C516 C518 1.391 . S
C517 C516 1.386 . S
C517 C521 1.393 . S
C518 H510 0.950 . S
C518 C516 1.391 . S
C518 C519 1.400 . S
C519 C518 1.400 . S
C519 C520 1.398 . S
C519 C525 1.491 . S
C520 H511 0.950 . S
C520 C519 1.398 . S
C520 C521 1.391 . S
C521 H509 0.950 . S
C521 C517 1.393 . S
C521 C520 1.391 . S
C522 H512 0.950 . S
C522 C523 1.386 . S
C522 C524 1.391 . S
C523 C522 1.386 . S
C523 C527 1.393 . S
C524 H513 0.950 . S
C524 C522 1.391 . S
C524 C525 1.400 1_556 S
C525 C519 1.491 . S
C525 C524 1.400 1_554 S
C525 C526 1.399 . S
C526 H514 0.951 . S
C526 C525 1.399 . S
C526 C527 1.389 1_554 S
C527 H515 0.950 . S
C527 C523 1.393 . S
C527 C526 1.389 1_556 S
H528 C536 0.950 . S
H529 C541 0.950 . S
H530 C538 0.950 . S
H531 C540 0.950 . S
H532 C542 0.950 . S
H533 C544 0.950 . S
H534 C546 0.950 . S
H535 C547 0.950 . S
C536 H528 0.950 . S
C536 C537 1.386 . S
C536 C538 1.391 . S
C537 C536 1.386 . S
C537 C541 1.393 . S
C538 H530 0.950 . S
C538 C536 1.391 . S
C538 C539 1.400 . S
C539 C538 1.400 . S
C539 C540 1.398 . S
C539 C545 1.491 . S
C540 H531 0.950 . S
C540 C539 1.398 . S
C540 C541 1.391 . S
C541 H529 0.950 . S
C541 C537 1.393 . S
C541 C540 1.391 . S
C542 H532 0.950 . S
C542 C543 1.386 . S
C542 C544 1.391 . S
C543 C542 1.386 . S
C543 C547 1.393 . S
C544 H533 0.950 . S
C544 C542 1.391 . S
C544 C545 1.400 . S
C545 C539 1.491 . S
C545 C544 1.400 . S
C545 C546 1.398 . S
C546 H534 0.950 . S
C546 C545 1.398 . S
C546 C547 1.391 . S
C547 H535 0.950 . S
C547 C543 1.393 . S
C547 C546 1.391 . S
H548 C556 0.950 . S
H549 C561 0.950 . S
H550 C558 0.950 . S
H551 C560 0.950 . S
H552 C562 0.950 . S
H553 C564 0.950 . S
H554 C566 0.950 . S
H555 C567 0.950 . S
C556 H548 0.950 . S
C556 C557 1.386 . S
C556 C558 1.391 . S
C557 C556 1.386 . S
C557 C561 1.393 . S
C558 H550 0.950 . S
C558 C556 1.391 . S
C558 C559 1.400 . S
C559 C558 1.400 . S
C559 C560 1.398 . S
C559 C565 1.491 . S
C560 H551 0.950 . S
C560 C559 1.398 . S
C560 C561 1.391 . S
C561 H549 0.950 . S
C561 C557 1.393 . S
C561 C560 1.391 . S
C562 H552 0.950 . S
C562 C563 1.386 . S
C562 C564 1.391 . S
C563 C562 1.386 . S
C563 C567 1.393 . S
C564 H553 0.950 . S
C564 C562 1.391 . S
C564 C565 1.400 . S
C565 C559 1.491 . S
C565 C564 1.400 . S
C565 C566 1.398 . S
C566 H554 0.950 . S
C566 C565 1.398 . S
C566 C567 1.391 . S
C567 H555 0.950 . S
C567 C563 1.393 . S
C567 C566 1.391 . S
H568 C576 0.950 . S
H569 C581 0.950 . S
H570 C578 0.950 . S
H571 C580 0.950 . S
H572 C582 0.950 . S
H573 C584 0.950 . S
H574 C586 0.950 . S
H575 C587 0.950 . S
C576 H568 0.950 . S
C576 C577 1.386 . S
C576 C578 1.391 . S
C577 C576 1.386 . S
C577 C581 1.393 . S
C578 H570 0.950 . S
C578 C576 1.391 . S
C578 C579 1.400 . S
C579 C578 1.400 . S
C579 C580 1.398 . S
C579 C585 1.491 . S
C580 H571 0.950 . S
C580 C579 1.398 . S
C580 C581 1.391 . S
C581 H569 0.950 . S
C581 C577 1.393 . S
C581 C580 1.391 . S
C582 H572 0.950 . S
C582 C583 1.386 . S
C582 C584 1.391 . S
C583 C582 1.386 . S
C583 C587 1.393 . S
C584 H573 0.950 . S
C584 C582 1.391 . S
C584 C585 1.400 . S
C585 C579 1.491 . S
C585 C584 1.400 . S
C585 C586 1.398 . S
C586 H574 0.950 . S
C586 C585 1.398 . S
C586 C587 1.391 . S
C587 H575 0.950 . S
C587 C583 1.393 . S
C587 C586 1.391 . S
H588 C596 0.950 . S
H589 C601 0.950 . S
H590 C598 0.950 . S
H591 C600 0.950 . S
H592 C602 0.950 . S
H593 C604 0.950 . S
H594 C606 0.950 . S
H595 C607 0.950 . S
C596 H588 0.950 . S
C596 C597 1.386 . S
C596 C598 1.391 . S
C597 C596 1.386 . S
C597 C601 1.393 . S
C598 H590 0.950 . S
C598 C596 1.391 . S
C598 C599 1.400 . S
C599 C598 1.400 . S
C599 C600 1.398 . S
C599 C605 1.491 . S
C600 H591 0.950 . S
C600 C599 1.398 . S
C600 C601 1.391 . S
C601 H589 0.950 . S
C601 C597 1.393 . S
C601 C600 1.391 . S
C602 H592 0.950 . S
C602 C603 1.386 . S
C602 C604 1.391 . S
C603 C602 1.386 . S
C603 C607 1.393 . S
C604 H593 0.950 . S
C604 C602 1.391 . S
C604 C605 1.400 . S
C605 C599 1.491 . S
C605 C604 1.400 . S
C605 C606 1.398 . S
C606 H594 0.950 . S
C606 C605 1.398 . S
C606 C607 1.391 . S
C607 H595 0.950 . S
C607 C603 1.393 . S
C607 C606 1.391 . S
H608 C616 0.950 . S
H609 C621 0.950 . S
H610 C618 0.976 . S
H611 C620 0.950 . S
H612 C622 0.950 . S
H613 C624 0.950 . S
H614 C626 0.950 . S
H615 C627 0.950 . S
C616 H608 0.950 . S
C616 C617 1.386 . S
C616 C618 1.391 . S
C617 C616 1.386 . S
C617 C621 1.393 . S
C618 H610 0.976 . S
C618 C616 1.391 . S
C618 C619 1.400 . S
C619 C618 1.400 . S
C619 C620 1.398 . S
C619 C625 1.491 1_565 S
C620 H611 0.950 . S
C620 C619 1.398 . S
C620 C621 1.391 . S
C621 H609 0.950 . S
C621 C617 1.393 . S
C621 C620 1.391 . S
C622 H612 0.950 . S
C622 C623 1.386 . S
C622 C624 1.391 . S
C623 C622 1.386 . S
C623 C627 1.393 . S
C624 H613 0.950 . S
C624 C622 1.391 . S
C624 C625 1.400 . S
C625 C619 1.491 1_545 S
C625 C624 1.400 . S
C625 C626 1.398 . S
C626 H614 0.950 . S
C626 C625 1.398 . S
C626 C627 1.391 . S
C627 H615 0.950 . S
C627 C623 1.393 . S
C627 C626 1.391 . S
H628 C636 0.950 . S
H629 C641 0.950 . S
H630 C638 0.950 . S
H631 C640 0.950 . S
H632 C642 0.950 . S
H633 C644 0.950 . S
H634 C646 0.950 . S
H635 C647 0.950 . S
C636 H628 0.950 . S
C636 C637 1.386 . S
C636 C638 1.391 . S
C637 C636 1.386 . S
C637 C641 1.393 . S
C638 H630 0.950 . S
C638 C636 1.391 . S
C638 C639 1.400 . S
C639 C638 1.400 . S
C639 C640 1.398 . S
C639 C645 1.491 1_455 S
C640 H631 0.950 . S
C640 C639 1.398 . S
C640 C641 1.391 . S
C641 H629 0.950 . S
C641 C637 1.393 . S
C641 C640 1.391 . S
C642 H632 0.950 . S
C642 C643 1.386 . S
C642 C644 1.391 . S
C643 C642 1.386 . S
C643 C647 1.393 . S
C644 H633 0.950 . S
C644 C642 1.391 . S
C644 C645 1.400 . S
C645 C639 1.491 1_655 S
C645 C644 1.400 . S
C645 C646 1.398 . S
C646 H634 0.950 . S
C646 C645 1.398 . S
C646 C647 1.391 . S
C647 H635 0.950 . S
C647 C643 1.393 . S
C647 C646 1.391 . S
H648 C656 0.950 . S
H649 C661 0.950 . S
H650 C658 0.950 . S
H651 C660 0.950 . S
H652 C662 0.950 . S
H653 C664 0.992 . S
H654 C666 0.950 . S
H655 C667 0.950 . S
C656 H648 0.950 . S
C656 C657 1.386 . S
C656 C658 1.391 . S
C657 C656 1.386 . S
C657 C661 1.393 . S
C658 H650 0.950 . S
C658 C656 1.391 . S
C658 C659 1.400 . S
C659 C658 1.400 . S
C659 C660 1.398 . S
C659 C665 1.491 1_565 S
C660 H651 0.950 . S
C660 C659 1.398 . S
C660 C661 1.391 . S
C661 H649 0.950 . S
C661 C657 1.393 . S
C661 C660 1.391 . S
C662 H652 0.950 . S
C662 C663 1.386 . S
C662 C664 1.391 . S
C663 C662 1.386 . S
C663 C667 1.393 . S
C664 H653 0.992 . S
C664 C662 1.391 . S
C664 C665 1.400 . S
C665 C659 1.491 1_545 S
C665 C664 1.400 . S
C665 C666 1.398 . S
C666 H654 0.950 . S
C666 C665 1.398 . S
C666 C667 1.391 . S
C667 H655 0.950 . S
C667 C663 1.393 . S
C667 C666 1.391 . S
H668 C676 0.950 . S
H669 C681 0.950 . S
H670 C678 0.950 . S
H671 C680 0.950 . S
H672 C682 0.950 . S
H673 C684 0.950 . S
H674 C686 0.950 . S
H675 C687 0.950 . S
C676 H668 0.950 . S
C676 C677 1.386 . S
C676 C678 1.391 . S
C677 C676 1.386 . S
C677 C681 1.393 . S
C678 H670 0.950 . S
C678 C676 1.391 . S
C678 C679 1.400 . S
C679 C678 1.400 . S
C679 C680 1.398 . S
C679 C685 1.491 1_455 S
C680 H671 0.950 . S
C680 C679 1.398 . S
C680 C681 1.391 . S
C681 H669 0.950 . S
C681 C677 1.393 . S
C681 C680 1.391 . S
C682 H672 0.950 . S
C682 C683 1.386 . S
C682 C684 1.391 . S
C683 C682 1.386 . S
C683 C687 1.393 . S
C684 H673 0.950 . S
C684 C682 1.391 . S
C684 C685 1.400 . S
C685 C679 1.491 1_655 S
C685 C684 1.400 . S
C685 C686 1.398 . S
C686 H674 0.950 . S
C686 C685 1.398 . S
C686 C687 1.391 . S
C687 H675 0.950 . S
C687 C683 1.393 . S
C687 C686 1.391 . S
H688 C696 0.950 . S
H689 C701 0.950 . S
H690 C698 0.950 . S
H691 C700 0.950 . S
H692 C702 0.950 . S
H693 C704 0.950 . S
H694 C706 0.950 . S
H695 C707 0.950 . S
C696 H688 0.950 . S
C696 C697 1.386 . S
C696 C698 1.391 . S
C697 C696 1.386 . S
C697 C701 1.393 . S
C698 H690 0.950 . S
C698 C696 1.391 . S
C698 C699 1.400 . S
C699 C698 1.400 . S
C699 C700 1.398 . S
C699 C705 1.491 . S
C700 H691 0.950 . S
C700 C699 1.398 . S
C700 C701 1.391 . S
C701 H689 0.950 . S
C701 C697 1.393 . S
C701 C700 1.391 . S
C702 H692 0.950 . S
C702 C703 1.386 . S
C702 C704 1.391 . S
C703 C702 1.386 . S
C703 C707 1.393 . S
C704 H693 0.950 . S
C704 C702 1.391 . S
C704 C705 1.400 . S
C705 C699 1.491 . S
C705 C704 1.400 . S
C705 C706 1.398 . S
C706 H694 0.950 . S
C706 C705 1.398 . S
C706 C707 1.391 . S
C707 H695 0.950 . S
C707 C703 1.393 . S
C707 C706 1.391 . S
H708 C716 0.950 1_554 S
H709 C721 0.950 . S
H710 C718 0.950 1_554 S
H711 C720 0.950 . S
H712 C722 0.950 . S
H713 C724 0.950 . S
H714 C726 0.950 . S
H715 C727 0.950 . S
C716 H708 0.950 1_556 S
C716 C717 1.386 . S
C716 C718 1.391 . S
C717 C716 1.386 . S
C717 C721 1.393 . S
C718 H710 0.950 1_556 S
C718 C716 1.391 . S
C718 C719 1.400 . S
C719 C718 1.400 . S
C719 C720 1.398 . S
C719 C725 1.491 . S
C720 H711 0.950 . S
C720 C719 1.398 . S
C720 C721 1.391 . S
C721 H709 0.950 . S
C721 C717 1.393 . S
C721 C720 1.391 . S
C722 H712 0.950 . S
C722 C723 1.386 . S
C722 C724 1.391 . S
C723 C722 1.386 . S
C723 C727 1.393 . S
C724 H713 0.950 . S
C724 C722 1.391 . S
C724 C725 1.400 . S
C725 C719 1.491 . S
C725 C724 1.400 . S
C725 C726 1.398 . S
C726 H714 0.950 . S
C726 C725 1.398 . S
C726 C727 1.391 . S
C727 H715 0.950 . S
C727 C723 1.393 . S
C727 C726 1.391 . S
H728 C736 0.950 . S
H729 C741 0.950 . S
H730 C738 0.950 . S
H731 C740 0.950 . S
H732 C742 0.950 . S
H733 C744 0.950 . S
H734 C746 0.950 1_556 S
H735 C747 0.950 1_556 S
C736 H728 0.950 . S
C736 C737 1.386 . S
C736 C738 1.391 . S
C737 C736 1.386 . S
C737 C741 1.393 . S
C738 H730 0.950 . S
C738 C736 1.391 . S
C738 C739 1.400 . S
C739 C738 1.400 . S
C739 C740 1.398 . S
C739 C745 1.491 . S
C740 H731 0.950 . S
C740 C739 1.398 . S
C740 C741 1.391 . S
C741 H729 0.950 . S
C741 C737 1.393 . S
C741 C740 1.391 . S
C742 H732 0.950 . S
C742 C743 1.386 . S
C742 C744 1.391 . S
C743 C742 1.386 . S
C743 C747 1.393 . S
C744 H733 0.950 . S
C744 C742 1.391 . S
C744 C745 1.400 . S
C745 C739 1.491 . S
C745 C744 1.400 . S
C745 C746 1.398 . S
C746 H734 0.950 1_554 S
C746 C745 1.398 . S
C746 C747 1.391 . S
C747 H735 0.950 1_554 S
C747 C743 1.393 . S
C747 C746 1.391 . S
H748 C756 0.950 . S
H749 C761 0.950 . S
H750 C758 0.950 . S
H751 C760 0.950 . S
H752 C762 0.950 1_554 S
H753 C764 0.950 . S
H754 C766 0.950 . S
H755 C767 0.950 . S
C756 H748 0.950 . S
C756 C757 1.386 . S
C756 C758 1.391 . S
C757 C756 1.386 . S
C757 C761 1.393 . S
C758 H750 0.950 . S
C758 C756 1.391 . S
C758 C759 1.400 . S
C759 C758 1.400 . S
C759 C760 1.398 . S
C759 C765 1.491 . S
C760 H751 0.950 . S
C760 C759 1.398 . S
C760 C761 1.391 . S
C761 H749 0.950 . S
C761 C757 1.393 . S
C761 C760 1.391 . S
C762 H752 0.950 1_556 S
C762 C763 1.386 . S
C762 C764 1.391 . S
C763 C762 1.386 . S
C763 C767 1.393 . S
C764 H753 0.950 . S
C764 C762 1.391 . S
C764 C765 1.400 . S
C765 C759 1.491 . S
C765 C764 1.400 . S
C765 C766 1.398 . S
C766 H754 0.950 . S
C766 C765 1.398 . S
C766 C767 1.391 . S
C767 H755 0.950 . S
C767 C763 1.393 . S
C767 C766 1.391 . S
H768 C776 0.950 . S
H769 C781 0.950 . S
H770 C778 0.950 . S
H771 C780 0.950 . S
H772 C782 0.950 . S
H773 C784 0.950 . S
H774 C786 0.950 . S
H775 C787 0.950 . S
C776 H768 0.950 . S
C776 C777 1.386 . S
C776 C778 1.391 . S
C777 C776 1.386 . S
C777 C781 1.393 . S
C778 H770 0.950 . S
C778 C776 1.391 . S
C778 C779 1.400 . S
C779 C778 1.400 . S
C779 C780 1.398 . S
C779 C785 1.491 . S
C780 H771 0.950 . S
C780 C779 1.398 . S
C780 C781 1.391 . S
C781 H769 0.950 . S
C781 C777 1.393 . S
C781 C780 1.391 . S
C782 H772 0.950 . S
C782 C783 1.386 . S
C782 C784 1.391 . S
C783 C782 1.386 . S
C783 C787 1.393 . S
C784 H773 0.950 . S
C784 C782 1.391 . S
C784 C785 1.400 . S
C785 C779 1.491 . S
C785 C784 1.400 . S
C785 C786 1.398 . S
C786 H774 0.950 . S
C786 C785 1.398 . S
C786 C787 1.391 . S
C787 H775 0.950 . S
C787 C783 1.393 . S
C787 C786 1.391 . S
H788 C796 0.950 . S
H789 C801 0.950 . S
H790 C798 0.950 . S
H791 C800 0.950 . S
H792 C802 0.950 . S
H793 C804 0.950 . S
H794 C806 0.950 . S
H795 C807 0.950 . S
C796 H788 0.950 . S
C796 C797 1.386 . S
C796 C798 1.391 . S
C797 C796 1.386 . S
C797 C801 1.393 . S
C798 H790 0.950 . S
C798 C796 1.391 . S
C798 C799 1.400 . S
C799 C798 1.400 . S
C799 C800 1.398 . S
C799 C805 1.491 . S
C800 H791 0.950 . S
C800 C799 1.398 . S
C800 C801 1.391 . S
C801 H789 0.950 . S
C801 C797 1.393 . S
C801 C800 1.391 . S
C802 H792 0.950 . S
C802 C803 1.386 . S
C802 C804 1.391 . S
C803 C802 1.386 . S
C803 C807 1.393 . S
C804 H793 0.950 . S
C804 C802 1.391 . S
C804 C805 1.400 . S
C805 C799 1.491 . S
C805 C804 1.400 . S
C805 C806 1.398 . S
C806 H794 0.950 . S
C806 C805 1.398 . S
C806 C807 1.391 . S
C807 H795 0.950 . S
C807 C803 1.393 . S
C807 C806 1.391 . S
H808 C816 0.950 . S
H809 C821 0.950 . S
H810 C818 0.950 . S
H811 C820 0.950 . S
H812 C822 0.950 . S
H813 C824 0.950 . S
H814 C826 0.950 . S
H815 C827 0.950 . S
C816 H808 0.950 . S
C816 C817 1.386 . S
C816 C818 1.391 . S
C817 C816 1.386 . S
C817 C821 1.393 . S
C818 H810 0.950 . S
C818 C816 1.391 . S
C818 C819 1.400 . S
C819 C818 1.400 . S
C819 C820 1.398 . S
C819 C825 1.491 . S
C820 H811 0.950 . S
C820 C819 1.398 . S
C820 C821 1.391 . S
C821 H809 0.950 . S
C821 C817 1.393 . S
C821 C820 1.391 . S
C822 H812 0.950 . S
C822 C823 1.386 . S
C822 C824 1.391 . S
C823 C822 1.386 . S
C823 C827 1.393 . S
C824 H813 0.950 . S
C824 C822 1.391 . S
C824 C825 1.400 . S
C825 C819 1.491 . S
C825 C824 1.400 . S
C825 C826 1.398 . S
C826 H814 0.950 . S
C826 C825 1.398 . S
C826 C827 1.391 . S
C827 H815 0.950 . S
C827 C823 1.393 . S
C827 C826 1.391 . S
H828 C836 0.950 . S
H829 C841 0.950 . S
H830 C838 0.950 . S
H831 C840 0.950 . S
H832 C842 0.950 . S
H833 C844 0.950 . S
H834 C846 0.950 . S
H835 C847 0.950 . S
C836 H828 0.950 . S
C836 C837 1.386 . S
C836 C838 1.391 . S
C837 C836 1.386 . S
C837 C841 1.393 . S
C838 H830 0.950 . S
C838 C836 1.391 . S
C838 C839 1.400 . S
C839 C838 1.400 . S
C839 C840 1.398 . S
C839 C845 1.491 . S
C840 H831 0.950 . S
C840 C839 1.398 . S
C840 C841 1.391 . S
C841 H829 0.950 . S
C841 C837 1.393 . S
C841 C840 1.391 . S
C842 H832 0.950 . S
C842 C843 1.386 . S
C842 C844 1.391 . S
C843 C842 1.386 . S
C843 C847 1.393 . S
C844 H833 0.950 . S
C844 C842 1.391 . S
C844 C845 1.400 . S
C845 C839 1.491 . S
C845 C844 1.400 . S
C845 C846 1.398 . S
C846 H834 0.950 . S
C846 C845 1.398 . S
C846 C847 1.391 . S
C847 H835 0.950 . S
C847 C843 1.393 . S
C847 C846 1.391 . S
H848 C856 0.950 . S
H849 C861 0.950 . S
H850 C858 0.950 . S
H851 C860 0.950 . S
H852 C862 0.950 . S
H853 C864 0.950 . S
H854 C866 0.950 . S
H855 C867 0.950 . S
C856 H848 0.950 . S
C856 C857 1.386 . S
C856 C858 1.391 . S
C857 C856 1.386 . S
C857 C861 1.393 . S
C858 H850 0.950 . S
C858 C856 1.391 . S
C858 C859 1.400 . S
C859 C858 1.400 . S
C859 C860 1.398 . S
C859 C865 1.491 . S
C860 H851 0.950 . S
C860 C859 1.398 . S
C860 C861 1.391 . S
C861 H849 0.950 . S
C861 C857 1.393 . S
C861 C860 1.391 . S
C862 H852 0.950 . S
C862 C863 1.386 . S
C862 C864 1.391 1_554 S
C863 C862 1.386 . S
C863 C867 1.393 1_554 S
C864 H853 0.950 . S
C864 C862 1.391 1_556 S
C864 C865 1.400 . S
C865 C859 1.491 . S
C865 C864 1.400 . S
C865 C866 1.398 . S
C866 H854 0.950 . S
C866 C865 1.398 . S
C866 C867 1.391 . S
C867 H855 0.950 . S
C867 C863 1.393 1_556 S
C867 C866 1.391 . S
H868 C876 0.950 . S
H869 C881 0.948 1_556 S
H870 C878 0.950 . S
H871 C880 0.950 . S
H872 C882 0.950 . S
H873 C884 0.950 . S
H874 C886 0.950 . S
H875 C887 0.950 . S
C876 H868 0.950 . S
C876 C877 1.386 1_554 S
C876 C878 1.391 . S
C877 C876 1.386 1_556 S
C877 C881 1.393 1_556 S
C878 H870 0.950 . S
C878 C876 1.391 . S
C878 C879 1.400 . S
C879 C878 1.400 . S
C879 C880 1.398 . S
C879 C885 1.491 . S
C880 H871 0.950 . S
C880 C879 1.398 . S
C880 C881 1.392 . S
C881 H869 0.948 1_554 S
C881 C877 1.393 1_554 S
C881 C880 1.392 . S
C882 H872 0.950 . S
C882 C883 1.386 . S
C882 C884 1.391 . S
C883 C882 1.386 . S
C883 C887 1.393 . S
C884 H873 0.950 . S
C884 C882 1.391 . S
C884 C885 1.400 . S
C885 C879 1.491 . S
C885 C884 1.400 . S
C885 C886 1.398 . S
C886 H874 0.950 . S
C886 C885 1.398 . S
C886 C887 1.391 . S
C887 H875 0.950 . S
C887 C883 1.393 . S
C887 C886 1.391 . S
H888 C896 0.950 . S
H889 C901 0.950 . S
H890 C898 0.950 . S
H891 C900 0.950 1_554 S
H892 C902 0.950 . S
H893 C904 0.950 . S
H894 C906 0.950 . S
H895 C907 0.950 . S
C896 H888 0.950 . S
C896 C897 1.386 1_556 S
C896 C898 1.391 . S
C897 C896 1.386 1_554 S
C897 C901 1.393 . S
C898 H890 0.950 . S
C898 C896 1.391 . S
C898 C899 1.400 . S
C899 C898 1.400 . S
C899 C900 1.398 . S
C899 C905 1.491 . S
C900 H891 0.950 1_556 S
C900 C899 1.398 . S
C900 C901 1.391 1_556 S
C901 H889 0.950 . S
C901 C897 1.393 . S
C901 C900 1.391 1_554 S
C902 H892 0.950 . S
C902 C903 1.386 . S
C902 C904 1.391 . S
C903 C902 1.386 . S
C903 C907 1.393 . S
C904 H893 0.950 . S
C904 C902 1.391 . S
C904 C905 1.400 . S
C905 C899 1.491 . S
C905 C904 1.400 . S
C905 C906 1.398 . S
C906 H894 0.950 . S
C906 C905 1.398 . S
C906 C907 1.391 . S
C907 H895 0.950 . S
C907 C903 1.393 . S
C907 C906 1.391 . S
H908 C916 0.950 . S
H909 C921 0.950 . S
H910 C918 0.950 . S
H911 C920 0.950 . S
H912 C922 0.950 . S
H913 C924 0.950 . S
H914 C926 0.950 . S
H915 C927 0.950 . S
C916 H908 0.950 . S
C916 C917 1.386 . S
C916 C918 1.391 . S
C917 C916 1.386 . S
C917 C921 1.393 1_554 S
C918 H910 0.950 . S
C918 C916 1.391 . S
C918 C919 1.400 . S
C919 C918 1.400 . S
C919 C920 1.398 . S
C919 C925 1.491 . S
C920 H911 0.950 . S
C920 C919 1.398 . S
C920 C921 1.391 1_554 S
C921 H909 0.950 . S
C921 C917 1.393 1_556 S
C921 C920 1.391 1_556 S
C922 H912 0.950 . S
C922 C923 1.386 . S
C922 C924 1.391 . S
C923 C922 1.386 . S
C923 C927 1.393 . S
C924 H913 0.950 . S
C924 C922 1.391 . S
C924 C925 1.400 . S
C925 C919 1.491 . S
C925 C924 1.400 . S
C925 C926 1.398 . S
C926 H914 0.950 . S
C926 C925 1.398 . S
C926 C927 1.391 . S
C927 H915 0.950 . S
C927 C923 1.393 . S
C927 C926 1.391 . S
H928 C936 0.950 . S
H929 C941 0.950 . S
H930 C938 0.950 . S
H931 C940 0.950 . S
H932 C942 0.950 . S
H933 C944 0.950 . S
H934 C946 0.950 . S
H935 C947 0.950 . S
C936 H928 0.950 . S
C936 C937 1.386 . S
C936 C938 1.391 . S
C937 C936 1.386 . S
C937 C941 1.393 . S
C938 H930 0.950 . S
C938 C936 1.391 . S
C938 C939 1.400 . S
C939 C938 1.400 . S
C939 C940 1.398 . S
C939 C945 1.491 . S
C940 H931 0.950 . S
C940 C939 1.398 . S
C940 C941 1.391 . S
C941 H929 0.950 . S
C941 C937 1.393 . S
C941 C940 1.391 . S
C942 H932 0.950 . S
C942 C943 1.386 . S
C942 C944 1.391 . S
C943 C942 1.386 . S
C943 C947 1.393 . S
C944 H933 0.950 . S
C944 C942 1.391 . S
C944 C945 1.400 . S
C945 C939 1.491 . S
C945 C944 1.400 . S
C945 C946 1.398 . S
C946 H934 0.950 . S
C946 C945 1.398 . S
C946 C947 1.391 . S
C947 H935 0.950 . S
C947 C943 1.393 . S
C947 C946 1.391 . S
H948 C956 0.950 . S
H949 C961 0.950 . S
H950 C958 0.950 . S
H951 C960 0.950 . S
H952 C962 0.950 . S
H953 C964 0.950 . S
H954 C966 0.950 . S
H955 C967 0.950 . S
C956 H948 0.950 . S
C956 C957 1.386 . S
C956 C958 1.391 . S
C957 C956 1.386 . S
C957 C961 1.393 . S
C958 H950 0.950 . S
C958 C956 1.391 . S
C958 C959 1.400 . S
C959 C958 1.400 . S
C959 C960 1.398 . S
C959 C965 1.491 . S
C960 H951 0.950 . S
C960 C959 1.398 . S
C960 C961 1.391 . S
C961 H949 0.950 . S
C961 C957 1.393 . S
C961 C960 1.391 . S
C962 H952 0.950 . S
C962 C963 1.386 . S
C962 C964 1.391 . S
C963 C962 1.386 . S
C963 C967 1.393 . S
C964 H953 0.950 . S
C964 C962 1.391 . S
C964 C965 1.400 . S
C965 C959 1.491 . S
C965 C964 1.400 . S
C965 C966 1.398 . S
C966 H954 0.950 . S
C966 C965 1.398 . S
C966 C967 1.391 . S
C967 H955 0.950 . S
C967 C963 1.393 . S
C967 C966 1.391 . S
H968 C976 0.950 . S
H969 C981 0.950 . S
H970 C978 0.950 . S
H971 C980 0.950 . S
H972 C982 0.950 . S
H973 C984 0.950 . S
H974 C986 0.950 . S
H975 C987 0.950 . S
C976 H968 0.950 . S
C976 C977 1.386 . S
C976 C978 1.391 . S
C977 C976 1.386 . S
C977 C981 1.393 . S
C978 H970 0.950 . S
C978 C976 1.391 . S
C978 C979 1.400 . S
C979 C978 1.400 . S
C979 C980 1.398 . S
C979 C985 1.491 . S
C980 H971 0.950 . S
C980 C979 1.398 . S
C980 C981 1.391 . S
C981 H969 0.950 . S
C981 C977 1.393 . S
C981 C980 1.391 . S
C982 H972 0.950 . S
C982 C983 1.386 . S
C982 C984 1.391 . S
C983 C982 1.386 . S
C983 C987 1.393 . S
C984 H973 0.950 . S
C984 C982 1.391 . S
C984 C985 1.400 . S
C985 C979 1.491 . S
C985 C984 1.400 . S
C985 C986 1.398 . S
C986 H974 0.950 . S
C986 C985 1.398 . S
C986 C987 1.391 . S
C987 H975 0.950 . S
C987 C983 1.393 . S
C987 C986 1.391 . S
H988 C996 0.950 . S
H989 C1001 0.950 . S
H990 C998 0.950 . S
H991 C1000 0.950 . S
H992 C1002 0.950 . S
H993 C1004 0.950 . S
H994 C1006 0.950 . S
H995 C1007 0.950 . S
C996 H988 0.950 . S
C996 C997 1.386 . S
C996 C998 1.391 . S
C997 C996 1.386 . S
C997 C1001 1.393 . S
C998 H990 0.950 . S
C998 C996 1.391 . S
C998 C999 1.400 . S
C999 C998 1.400 . S
C999 C1000 1.398 . S
C999 C1005 1.491 . S
C1000 H991 0.950 . S
C1000 C999 1.398 . S
C1000 C1001 1.391 . S
C1001 H989 0.950 . S
C1001 C997 1.393 . S
C1001 C1000 1.391 . S
C1002 H992 0.950 . S
C1002 C1003 1.386 . S
C1002 C1004 1.391 . S
C1003 C1002 1.386 . S
C1003 C1007 1.393 . S
C1004 H993 0.950 . S
C1004 C1002 1.391 . S
C1004 C1005 1.400 . S
C1005 C999 1.491 . S
C1005 C1004 1.400 . S
C1005 C1006 1.398 . S
C1006 H994 0.950 . S
C1006 C1005 1.398 . S
C1006 C1007 1.391 . S
C1007 H995 0.950 . S
C1007 C1003 1.393 . S
C1007 C1006 1.391 . S
H1008 C1016 0.950 . S
H1009 C1021 0.950 . S
H1010 C1018 0.950 . S
H1011 C1020 0.950 . S
H1012 C1022 0.950 . S
H1013 C1024 0.950 . S
H1014 C1026 0.950 . S
H1015 C1027 0.950 . S
C1016 H1008 0.950 . S
C1016 C1017 1.386 . S
C1016 C1018 1.391 . S
C1017 C1016 1.386 . S
C1017 C1021 1.393 . S
C1018 H1010 0.950 . S
C1018 C1016 1.391 . S
C1018 C1019 1.400 . S
C1019 C1018 1.400 . S
C1019 C1020 1.398 . S
C1019 C1025 1.491 . S
C1020 H1011 0.950 . S
C1020 C1019 1.398 . S
C1020 C1021 1.391 . S
C1021 H1009 0.950 . S
C1021 C1017 1.393 . S
C1021 C1020 1.391 . S
C1022 H1012 0.950 . S
C1022 C1023 1.386 . S
C1022 C1024 1.391 . S
C1023 C1022 1.386 . S
C1023 C1027 1.393 . S
C1024 H1013 0.950 . S
C1024 C1022 1.391 . S
C1024 C1025 1.400 . S
C1025 C1019 1.491 . S
C1025 C1024 1.400 . S
C1025 C1026 1.398 . S
C1026 H1014 0.950 . S
C1026 C1025 1.398 . S
C1026 C1027 1.391 . S
C1027 H1015 0.950 . S
C1027 C1023 1.393 . S
C1027 C1026 1.391 . S
H1028 C1036 0.950 . S
H1029 C1041 0.950 . S
H1030 C1038 0.950 . S
H1031 C1040 0.950 . S
H1032 C1042 0.950 . S
H1033 C1044 0.950 . S
H1034 C1046 0.950 . S
H1035 C1047 0.950 . S
C1036 H1028 0.950 . S
C1036 C1037 1.386 . S
C1036 C1038 1.391 . S
C1037 C1036 1.386 . S
C1037 C1041 1.393 . S
C1038 H1030 0.950 . S
C1038 C1036 1.391 . S
C1038 C1039 1.400 . S
C1039 C1038 1.400 . S
C1039 C1040 1.398 . S
C1039 C1045 1.491 . S
C1040 H1031 0.950 . S
C1040 C1039 1.398 . S
C1040 C1041 1.391 . S
C1041 H1029 0.950 . S
C1041 C1037 1.393 . S
C1041 C1040 1.391 . S
C1042 H1032 0.950 . S
C1042 C1043 1.386 . S
C1042 C1044 1.391 . S
C1043 C1042 1.386 . S
C1043 C1047 1.393 . S
C1044 H1033 0.950 . S
C1044 C1042 1.391 . S
C1044 C1045 1.400 . S
C1045 C1039 1.491 . S
C1045 C1044 1.400 . S
C1045 C1046 1.398 . S
C1046 H1034 0.950 . S
C1046 C1045 1.398 . S
C1046 C1047 1.391 . S
C1047 H1035 0.950 . S
C1047 C1043 1.393 . S
C1047 C1046 1.391 . S
H1048 C1056 0.950 . S
H1049 C1061 0.950 . S
H1050 C1058 0.950 . S
H1051 C1060 0.950 . S
H1052 C1062 0.950 . S
H1053 C1064 0.950 . S
H1054 C1066 0.950 . S
H1055 C1067 0.950 . S
C1056 H1048 0.950 . S
C1056 C1057 1.386 . S
C1056 C1058 1.391 . S
C1057 C1056 1.386 . S
C1057 C1061 1.393 . S
C1058 H1050 0.950 . S
C1058 C1056 1.391 . S
C1058 C1059 1.400 . S
C1059 C1058 1.400 . S
C1059 C1060 1.398 . S
C1059 C1065 1.491 . S
C1060 H1051 0.950 . S
C1060 C1059 1.398 . S
C1060 C1061 1.391 . S
C1061 H1049 0.950 . S
C1061 C1057 1.393 . S
C1061 C1060 1.391 . S
C1062 H1052 0.950 . S
C1062 C1063 1.386 . S
C1062 C1064 1.391 . S
C1063 C1062 1.386 . S
C1063 C1067 1.393 . S
C1064 H1053 0.950 . S
C1064 C1062 1.391 . S
C1064 C1065 1.400 . S
C1065 C1059 1.491 . S
C1065 C1064 1.400 . S
C1065 C1066 1.398 . S
C1066 H1054 0.950 . S
C1066 C1065 1.398 . S
C1066 C1067 1.391 . S
C1067 H1055 0.950 . S
C1067 C1063 1.393 . S
C1067 C1066 1.391 . S
H1068 C1076 0.950 . S
H1069 C1081 0.950 . S
H1070 C1078 0.950 . S
H1071 C1080 0.950 . S
H1072 C1082 0.950 . S
H1073 C1084 0.950 . S
H1074 C1086 0.950 . S
H1075 C1087 0.950 . S
C1076 H1068 0.950 . S
C1076 C1077 1.386 . S
C1076 C1078 1.391 . S
C1077 C1076 1.386 . S
C1077 C1081 1.393 . S
C1078 H1070 0.950 . S
C1078 C1076 1.391 . S
C1078 C1079 1.400 . S
C1079 C1078 1.400 . S
C1079 C1080 1.398 . S
C1079 C1085 1.491 . S
C1080 H1071 0.950 . S
C1080 C1079 1.398 . S
C1080 C1081 1.391 . S
C1081 H1069 0.950 . S
C1081 C1077 1.393 . S
C1081 C1080 1.391 . S
C1082 H1072 0.950 . S
C1082 C1083 1.386 . S
C1082 C1084 1.391 . S
C1083 C1082 1.386 . S
C1083 C1087 1.393 . S
C1084 H1073 0.950 . S
C1084 C1082 1.391 . S
C1084 C1085 1.400 . S
C1085 C1079 1.491 . S
C1085 C1084 1.400 . S
C1085 C1086 1.398 . S
C1086 H1074 0.950 . S
C1086 C1085 1.398 . S
C1086 C1087 1.391 . S
C1087 H1075 0.950 . S
C1087 C1083 1.393 . S
C1087 C1086 1.391 . S
H1088 C1096 0.950 . S
H1089 C1101 0.950 . S
H1090 C1098 0.950 . S
H1091 C1100 0.950 . S
H1092 C1102 0.950 . S
H1093 C1104 0.950 . S
H1094 C1106 0.950 . S
H1095 C1107 0.950 . S
C1096 H1088 0.950 . S
C1096 C1097 1.386 . S
C1096 C1098 1.391 . S
C1097 C1096 1.386 . S
C1097 C1101 1.393 . S
C1098 H1090 0.950 . S
C1098 C1096 1.391 . S
C1098 C1099 1.400 . S
C1099 C1098 1.400 . S
C1099 C1100 1.398 . S
C1099 C1105 1.491 . S
C1100 H1091 0.950 . S
C1100 C1099 1.398 . S
C1100 C1101 1.391 . S
C1101 H1089 0.950 . S
C1101 C1097 1.393 . S
C1101 C1100 1.391 . S
C1102 H1092 0.950 . S
C1102 C1103 1.386 . S
C1102 C1104 1.391 . S
C1103 C1102 1.386 . S
C1103 C1107 1.393 . S
C1104 H1093 0.950 . S
C1104 C1102 1.391 . S
C1104 C1105 1.400 . S
C1105 C1099 1.491 . S
C1105 C1104 1.400 . S
C1105 C1106 1.398 . S
C1106 H1094 0.950 . S
C1106 C1105 1.398 . S
C1106 C1107 1.391 . S
C1107 H1095 0.950 . S
C1107 C1103 1.393 . S
C1107 C1106 1.391 . S
H1108 C1116 0.950 . S
H1109 C1121 0.950 . S
H1110 C1118 0.950 . S
H1111 C1120 0.950 . S
H1112 C1122 0.950 . S
H1113 C1124 0.950 . S
H1114 C1126 0.950 . S
H1115 C1127 0.950 . S
C1116 H1108 0.950 . S
C1116 C1117 1.386 . S
C1116 C1118 1.391 . S
C1117 C1116 1.386 . S
C1117 C1121 1.393 . S
C1118 H1110 0.950 . S
C1118 C1116 1.391 . S
C1118 C1119 1.400 . S
C1119 C1118 1.400 . S
C1119 C1120 1.398 . S
C1119 C1125 1.491 . S
C1120 H1111 0.950 . S
C1120 C1119 1.398 . S
C1120 C1121 1.391 . S
C1121 H1109 0.950 . S
C1121 C1117 1.393 . S
C1121 C1120 1.391 . S
C1122 H1112 0.950 . S
C1122 C1123 1.386 . S
C1122 C1124 1.391 . S
C1123 C1122 1.386 . S
C1123 C1127 1.393 . S
C1124 H1113 0.950 . S
C1124 C1122 1.391 . S
C1124 C1125 1.400 . S
C1125 C1119 1.491 . S
C1125 C1124 1.400 . S
C1125 C1126 1.398 . S
C1126 H1114 0.950 . S
C1126 C1125 1.398 . S
C1126 C1127 1.391 . S
C1127 H1115 0.950 . S
C1127 C1123 1.393 . S
C1127 C1126 1.391 . S
H1128 C1136 0.950 . S
H1129 C1141 0.950 . S
H1130 C1138 0.950 . S
H1131 C1140 0.950 . S
H1132 C1142 0.950 . S
H1133 C1144 0.950 . S
H1134 C1146 0.950 . S
H1135 C1147 0.950 . S
C1136 H1128 0.950 . S
C1136 C1137 1.386 . S
C1136 C1138 1.391 . S
C1137 C1136 1.386 . S
C1137 C1141 1.393 . S
C1138 H1130 0.950 . S
C1138 C1136 1.391 . S
C1138 C1139 1.400 . S
C1139 C1138 1.400 . S
C1139 C1140 1.398 . S
C1139 C1145 1.491 . S
C1140 H1131 0.950 . S
C1140 C1139 1.398 . S
C1140 C1141 1.391 . S
C1141 H1129 0.950 . S
C1141 C1137 1.393 . S
C1141 C1140 1.391 . S
C1142 H1132 0.950 . S
C1142 C1143 1.386 . S
C1142 C1144 1.391 . S
C1143 C1142 1.386 . S
C1143 C1147 1.393 . S
C1144 H1133 0.950 . S
C1144 C1142 1.391 . S
C1144 C1145 1.400 . S
C1145 C1139 1.491 . S
C1145 C1144 1.400 . S
C1145 C1146 1.398 . S
C1146 H1134 0.950 . S
C1146 C1145 1.398 . S
C1146 C1147 1.391 . S
C1147 H1135 0.950 . S
C1147 C1143 1.393 . S
C1147 C1146 1.391 . S
H1148 C1156 0.950 . S
H1149 C1161 0.950 . S
H1150 C1158 0.950 . S
H1151 C1160 0.950 . S
H1152 C1162 0.950 . S
H1153 C1164 0.950 . S
H1154 C1166 0.950 . S
H1155 C1167 0.950 . S
C1156 H1148 0.950 . S
C1156 C1157 1.386 . S
C1156 C1158 1.391 . S
C1157 C1156 1.386 . S
C1157 C1161 1.393 . S
C1158 H1150 0.950 . S
C1158 C1156 1.391 . S
C1158 C1159 1.400 . S
C1159 C1158 1.400 . S
C1159 C1160 1.398 . S
C1159 C1165 1.491 . S
C1160 H1151 0.950 . S
C1160 C1159 1.398 . S
C1160 C1161 1.391 . S
C1161 H1149 0.950 . S
C1161 C1157 1.393 . S
C1161 C1160 1.391 . S
C1162 H1152 0.950 . S
C1162 C1163 1.386 . S
C1162 C1164 1.391 . S
C1163 C1162 1.386 . S
C1163 C1167 1.393 . S
C1164 H1153 0.950 . S
C1164 C1162 1.391 . S
C1164 C1165 1.400 . S
C1165 C1159 1.491 . S
C1165 C1164 1.400 . S
C1165 C1166 1.398 . S
C1166 H1154 0.950 . S
C1166 C1165 1.398 . S
C1166 C1167 1.391 . S
C1167 H1155 0.950 . S
C1167 C1163 1.393 . S
C1167 C1166 1.391 . S
H1168 C1176 0.950 . S
H1169 C1181 0.950 . S
H1170 C1178 0.950 . S
H1171 C1180 0.950 . S
H1172 C1182 0.950 . S
H1173 C1184 0.950 . S
H1174 C1186 0.950 . S
H1175 C1187 0.950 . S
C1176 H1168 0.950 . S
C1176 C1177 1.386 . S
C1176 C1178 1.391 1_556 S
C1177 C1176 1.386 . S
C1177 C1181 1.393 . S
C1178 H1170 0.950 . S
C1178 C1176 1.391 1_554 S
C1178 C1179 1.400 . S
C1179 C1178 1.400 . S
C1179 C1180 1.398 . S
C1179 C1185 1.491 . S
C1180 H1171 0.950 . S
C1180 C1179 1.398 . S
C1180 C1181 1.391 1_554 S
C1181 H1169 0.950 . S
C1181 C1177 1.393 . S
C1181 C1180 1.391 1_556 S
C1182 H1172 0.950 . S
C1182 C1183 1.386 . S
C1182 C1184 1.391 . S
C1183 C1182 1.386 . S
C1183 C1187 1.393 . S
C1184 H1173 0.950 . S
C1184 C1182 1.391 . S
C1184 C1185 1.400 . S
C1185 C1179 1.491 . S
C1185 C1184 1.400 . S
C1185 C1186 1.398 . S
C1186 H1174 0.950 . S
C1186 C1185 1.398 . S
C1186 C1187 1.391 . S
C1187 H1175 0.950 . S
C1187 C1183 1.393 . S
C1187 C1186 1.391 . S
H1188 C1196 0.950 . S
H1189 C1201 0.950 . S
H1190 C1198 0.950 . S
H1191 C1200 0.950 . S
H1192 C1202 0.950 . S
H1193 C1204 0.950 . S
H1194 C1206 0.950 . S
H1195 C1207 0.950 . S
C1196 H1188 0.950 . S
C1196 C1197 1.386 . S
C1196 C1198 1.391 . S
C1197 C1196 1.386 . S
C1197 C1201 1.393 . S
C1198 H1190 0.950 . S
C1198 C1196 1.391 . S
C1198 C1199 1.400 . S
C1199 C1198 1.400 . S
C1199 C1200 1.398 . S
C1199 C1205 1.491 . S
C1200 H1191 0.950 . S
C1200 C1199 1.398 . S
C1200 C1201 1.391 . S
C1201 H1189 0.950 . S
C1201 C1197 1.393 . S
C1201 C1200 1.391 . S
C1202 H1192 0.950 . S
C1202 C1203 1.386 . S
C1202 C1204 1.391 1_554 S
C1203 C1202 1.386 . S
C1203 C1207 1.393 . S
C1204 H1193 0.950 . S
C1204 C1202 1.391 1_556 S
C1204 C1205 1.400 . S
C1205 C1199 1.491 . S
C1205 C1204 1.400 . S
C1205 C1206 1.398 . S
C1206 H1194 0.950 . S
C1206 C1205 1.398 . S
C1206 C1207 1.391 1_556 S
C1207 H1195 0.950 . S
C1207 C1203 1.393 . S
C1207 C1206 1.391 1_554 S
H1208 C1216 0.950 . S
H1209 C1221 0.950 . S
H1210 C1218 0.950 . S
H1211 C1220 0.950 . S
H1212 C1222 0.950 . S
H1213 C1224 0.950 . S
H1214 C1226 0.950 . S
H1215 C1227 0.950 . S
C1216 H1208 0.950 . S
C1216 C1217 1.386 . S
C1216 C1218 1.391 . S
C1217 C1216 1.386 . S
C1217 C1221 1.393 . S
C1218 H1210 0.950 . S
C1218 C1216 1.391 . S
C1218 C1219 1.400 . S
C1219 C1218 1.400 . S
C1219 C1220 1.398 . S
C1219 C1225 1.491 . S
C1220 H1211 0.950 . S
C1220 C1219 1.398 . S
C1220 C1221 1.391 . S
C1221 H1209 0.950 . S
C1221 C1217 1.393 . S
C1221 C1220 1.391 . S
C1222 H1212 0.950 . S
C1222 C1223 1.386 . S
C1222 C1224 1.391 1_556 S
C1223 C1222 1.386 . S
C1223 C1227 1.393 . S
C1224 H1213 0.950 . S
C1224 C1222 1.391 1_554 S
C1224 C1225 1.400 . S
C1225 C1219 1.491 . S
C1225 C1224 1.400 . S
C1225 C1226 1.398 . S
C1226 H1214 0.950 . S
C1226 C1225 1.398 . S
C1226 C1227 1.391 1_554 S
C1227 H1215 0.950 . S
C1227 C1223 1.393 . S
C1227 C1226 1.391 1_556 S
H1228 C1236 0.950 . S
H1229 C1241 0.950 . S
H1230 C1238 0.950 . S
H1231 C1240 0.950 . S
H1232 C1242 0.950 . S
H1233 C1244 0.950 . S
H1234 C1246 0.950 . S
H1235 C1247 0.950 . S
C1236 H1228 0.950 . S
C1236 C1237 1.386 . S
C1236 C1238 1.391 1_554 S
C1237 C1236 1.386 . S
C1237 C1241 1.393 . S
C1238 H1230 0.950 . S
C1238 C1236 1.391 1_556 S
C1238 C1239 1.400 . S
C1239 C1238 1.400 . S
C1239 C1240 1.398 . S
C1239 C1245 1.491 . S
C1240 H1231 0.950 . S
C1240 C1239 1.398 . S
C1240 C1241 1.391 1_556 S
C1241 H1229 0.950 . S
C1241 C1237 1.393 . S
C1241 C1240 1.391 1_554 S
C1242 H1232 0.950 . S
C1242 C1243 1.386 . S
C1242 C1244 1.391 . S
C1243 C1242 1.386 . S
C1243 C1247 1.393 . S
C1244 H1233 0.950 . S
C1244 C1242 1.391 . S
C1244 C1245 1.400 . S
C1245 C1239 1.491 . S
C1245 C1244 1.400 . S
C1245 C1246 1.398 . S
C1246 H1234 0.950 . S
C1246 C1245 1.398 . S
C1246 C1247 1.391 . S
C1247 H1235 0.950 . S
C1247 C1243 1.393 . S
C1247 C1246 1.391 . S
H1248 C1256 0.950 . S
H1249 C1261 0.950 . S
H1250 C1258 0.950 . S
H1251 C1260 0.950 . S
H1252 C1262 0.950 . S
H1253 C1264 0.950 . S
H1254 C1266 0.950 . S
H1255 C1267 0.950 . S
C1256 H1248 0.950 . S
C1256 C1257 1.386 . S
C1256 C1258 1.391 . S
C1257 C1256 1.386 . S
C1257 C1261 1.393 . S
C1258 H1250 0.950 . S
C1258 C1256 1.391 . S
C1258 C1259 1.400 . S
C1259 C1258 1.400 . S
C1259 C1260 1.398 . S
C1259 C1265 1.491 . S
C1260 H1251 0.950 . S
C1260 C1259 1.398 . S
C1260 C1261 1.391 . S
C1261 H1249 0.950 . S
C1261 C1257 1.393 . S
C1261 C1260 1.391 . S
C1262 H1252 0.950 . S
C1262 C1263 1.386 . S
C1262 C1264 1.391 1_556 S
C1263 C1262 1.386 . S
C1263 C1267 1.393 . S
C1264 H1253 0.950 . S
C1264 C1262 1.391 1_554 S
C1264 C1265 1.400 . S
C1265 C1259 1.491 . S
C1265 C1264 1.400 . S
C1265 C1266 1.398 . S
C1266 H1254 0.950 . S
C1266 C1265 1.398 . S
C1266 C1267 1.391 1_554 S
C1267 H1255 0.950 . S
C1267 C1263 1.393 . S
C1267 C1266 1.391 1_556 S
H1268 C1276 0.950 . S
H1269 C1281 0.950 . S
H1270 C1278 0.950 . S
H1271 C1280 0.950 . S
H1272 C1282 0.950 . S
H1273 C1284 0.950 . S
H1274 C1286 0.950 . S
H1275 C1287 0.950 . S
C1276 H1268 0.950 . S
C1276 C1277 1.386 . S
C1276 C1278 1.391 1_554 S
C1277 C1276 1.386 . S
C1277 C1281 1.393 . S
C1278 H1270 0.950 . S
C1278 C1276 1.391 1_556 S
C1278 C1279 1.400 . S
C1279 C1278 1.400 . S
C1279 C1280 1.398 . S
C1279 C1285 1.491 . S
C1280 H1271 0.950 . S
C1280 C1279 1.398 . S
C1280 C1281 1.391 1_556 S
C1281 H1269 0.950 . S
C1281 C1277 1.393 . S
C1281 C1280 1.391 1_554 S
C1282 H1272 0.950 . S
C1282 C1283 1.386 . S
C1282 C1284 1.391 . S
C1283 C1282 1.386 . S
C1283 C1287 1.393 . S
C1284 H1273 0.950 . S
C1284 C1282 1.391 . S
C1284 C1285 1.400 . S
C1285 C1279 1.491 . S
C1285 C1284 1.400 . S
C1285 C1286 1.398 . S
C1286 H1274 0.950 . S
C1286 C1285 1.398 . S
C1286 C1287 1.391 . S
C1287 H1275 0.950 . S
C1287 C1283 1.393 . S
C1287 C1286 1.391 . S
H1288 C1296 0.950 . S
H1289 C1301 0.950 . S
H1290 C1298 0.950 . S
H1291 C1300 0.950 . S
H1292 C1302 0.950 . S
H1293 C1304 0.950 . S
H1294 C1306 0.950 . S
H1295 C1307 0.950 . S
C1296 H1288 0.950 . S
C1296 C1297 1.386 . S
C1296 C1298 1.391 1_556 S
C1297 C1296 1.386 . S
C1297 C1301 1.393 . S
C1298 H1290 0.950 . S
C1298 C1296 1.391 1_554 S
C1298 C1299 1.400 . S
C1299 C1298 1.400 . S
C1299 C1300 1.398 . S
C1299 C1305 1.491 . S
C1300 H1291 0.950 . S
C1300 C1299 1.398 . S
C1300 C1301 1.391 1_554 S
C1301 H1289 0.950 . S
C1301 C1297 1.393 . S
C1301 C1300 1.391 1_556 S
C1302 H1292 0.950 . S
C1302 C1303 1.386 . S
C1302 C1304 1.391 . S
C1303 C1302 1.386 . S
C1303 C1307 1.393 . S
C1304 H1293 0.950 . S
C1304 C1302 1.391 . S
C1304 C1305 1.400 . S
C1305 C1299 1.491 . S
C1305 C1304 1.400 . S
C1305 C1306 1.398 . S
C1306 H1294 0.950 . S
C1306 C1305 1.398 . S
C1306 C1307 1.391 . S
C1307 H1295 0.950 . S
C1307 C1303 1.393 . S
C1307 C1306 1.391 . S
H1308 C1316 0.950 . S
H1309 C1321 0.950 . S
H1310 C1318 0.950 . S
H1311 C1320 0.950 . S
H1312 C1322 0.950 . S
H1313 C1324 0.950 . S
H1314 C1326 0.950 . S
H1315 C1327 0.950 . S
C1316 H1308 0.950 . S
C1316 C1317 1.386 . S
C1316 C1318 1.391 . S
C1317 C1316 1.386 . S
C1317 C1321 1.393 . S
C1318 H1310 0.950 . S
C1318 C1316 1.391 . S
C1318 C1319 1.400 . S
C1319 C1318 1.400 . S
C1319 C1320 1.398 . S
C1319 C1325 1.491 . S
C1320 H1311 0.950 . S
C1320 C1319 1.398 . S
C1320 C1321 1.391 . S
C1321 H1309 0.950 . S
C1321 C1317 1.393 . S
C1321 C1320 1.391 . S
C1322 H1312 0.950 . S
C1322 C1323 1.386 . S
C1322 C1324 1.391 1_554 S
C1323 C1322 1.386 . S
C1323 C1327 1.393 . S
C1324 H1313 0.950 . S
C1324 C1322 1.391 1_556 S
C1324 C1325 1.400 . S
C1325 C1319 1.491 . S
C1325 C1324 1.400 . S
C1325 C1326 1.398 . S
C1326 H1314 0.950 . S
C1326 C1325 1.398 . S
C1326 C1327 1.391 1_556 S
C1327 H1315 0.950 . S
C1327 C1323 1.393 . S
C1327 C1326 1.391 1_554 S
C377 C274 1.471 . S
C383 C20 1.515 . S
C397 C205 1.481 . S
C403 C42 1.538 . S
C417 C66 1.518 . S
C423 C228 1.490 . S
C437 C88 1.543 . S
C443 C251 1.476 . S
C457 C112 1.529 . S
C463 C136 1.467 . S
C477 C159 1.468 . S
C483 C134 1.542 . S
C497 C158 1.514 . S
C503 C182 1.485 . S
C517 C113 1.464 . S
C523 C180 1.546 . S
C537 C90 1.486 . S
C543 C204 1.514 . S
C557 C226 1.537 . S
C563 C21 1.485 . S
C577 C44 1.474 . S
C583 C250 1.514 . S
C597 C67 1.491 . S
C603 C272 1.537 . S
C617 C296 1.513 . S
C623 C320 1.481 . S
C637 C343 1.462 . S
C643 C318 1.545 . S
C657 C366 1.473 . S
C663 C342 1.529 . S
C677 C364 1.537 . S
C683 C297 1.491 . S
C697 C19 1.239 . S
C703 C111 1.239 . S
C717 C135 1.347 . S
C723 C43 1.333 . S
C737 C65 1.260 . S
C743 C157 1.262 . S
C757 C89 1.338 . S
C763 C181 1.326 . S
C777 C203 1.241 . S
C783 C295 1.242 . S
C797 C319 1.348 . S
C803 C227 1.335 . S
C817 C249 1.242 . S
C823 C341 1.241 . S
C837 C273 1.347 . S
C843 C365 1.333 . S
C857 C340 1.662 . S
C863 C18 1.658 . S
C877 C41 1.703 . S
C883 C363 1.706 . S
C897 C64 1.655 . S
C903 C294 1.667 . S
C917 C87 1.698 1_554 S
C923 C317 1.709 . S
C937 C110 1.660 . S
C943 C248 1.664 . S
C957 C133 1.711 . S
C963 C271 1.698 . S
C977 C156 1.659 . S
C983 C202 1.664 . S
C997 C225 1.704 . S
C1003 C179 1.705 . S
C1017 C17 0.921 . S
C1023 C16 0.919 . S
C1037 C40 0.923 . S
C1043 C39 0.922 . S
C1057 C63 0.928 . S
C1063 C62 0.924 . S
C1077 C85 0.931 . S
C1083 C86 0.932 . S
C1097 C108 0.916 . S
C1103 C109 0.919 . S
C1117 C132 0.915 . S
C1123 C131 0.912 . S
C1137 C155 0.939 . S
C1143 C154 0.938 . S
C1157 C177 0.930 . S
C1163 C178 0.930 . S
C1177 C201 0.920 . S
C1183 C200 0.916 . S
C1197 C223 0.909 . S
C1203 C224 0.912 . S
C1217 C246 0.943 . S
C1223 C247 0.945 . S
C1237 C270 0.931 . S
C1243 C269 0.931 . S
C1257 C293 0.940 . S
C1263 C292 0.938 . S
C1277 C315 0.920 . S
C1283 C316 0.922 . S
C1297 C338 0.935 . S
C1303 C339 0.935 . S
C1317 C362 0.932 . S
C1323 C361 0.932 . S
