# Generated by pormake.
# Topology kag, (6)-cn, num edge types: 1
# Building blocks:
#     Node 0, Type 0, BuildingBlock: NUHQIS_clean_sbu_0, # of connection points: 6
#     Node 1, Type 0, BuildingBlock: NUHQIS_clean_sbu_0, # of connection points: 6
#     Node 2, Type 0, BuildingBlock: NUHQIS_clean_sbu_0, # of connection points: 6
#     Edge 3, Type (0, 0), BuildingBlock: MIFKUJ_clean_linker_0, # of connection points: 2
#     Edge 4, Type (0, 0), BuildingBlock: MIFKUJ_clean_linker_0, # of connection points: 2
#     Edge 5, Type (0, 0), BuildingBlock: MIFKUJ_clean_linker_0, # of connection points: 2
#     Edge 6, Type (0, 0), BuildingBlock: MIFKUJ_clean_linker_0, # of connection points: 2
#     Edge 7, Type (0, 0), BuildingBlock: MIFKUJ_clean_linker_0, # of connection points: 2
#     Edge 8, Type (0, 0), BuildingBlock: MIFKUJ_clean_linker_0, # of connection points: 2
#     Edge 9, Type (0, 0), BuildingBlock: MIFKUJ_clean_linker_0, # of connection points: 2
#     Edge 10, Type (0, 0), BuildingBlock: MIFKUJ_clean_linker_0, # of connection points: 2
#     Edge 11, Type (0, 0), BuildingBlock: MIFKUJ_clean_linker_0, # of connection points: 2
# Relax obj value: 0.054
# Max RMSD: 0.163
# Mean RMSD: 0.095
data_MOF--net-kag--node1-NUHQIS_clean_sbu_0--edge1-MIFKUJ_clean_linker_0
_symmetry_space_group_name_H-M    P1
_symmetry_Int_Tables_number       1
_symmetry_cell_setting            triclinic
loop_
_symmetry_equiv_pos_as_xyz
'x, y, z'
_cell_length_a     59.063255
_cell_length_b     40.523876
_cell_length_c     19.776889
_cell_angle_alpha  87.570204
_cell_angle_beta   96.30727
_cell_angle_gamma 121.49291
loop_
_atom_site_label
_atom_site_type_symbol
_atom_site_fract_x
_atom_site_fract_y
_atom_site_fract_z
_atom_type_partial_charge
Tb0 Tb 0.03568 0.49843 0.02247 0.0
Eu1 Eu 1.01918 0.56489 0.01455 0.0
C2 C 0.03211 0.53503 0.15352 0.0
C3 C 0.97511 0.47311 0.01699 0.0
C4 C 0.0779 0.45602 0.02558 0.0
C5 C 0.11799 0.45768 0.07573 0.0
C6 C 0.09252 0.45083 0.08145 0.0
C7 C 0.08907 0.46754 0.96328 0.0
C8 C 0.11445 0.47392 0.95733 0.0
C9 C 0.12926 0.46944 0.01372 0.0
C10 C 0.0521 0.452 0.03513 0.0
O11 O 0.04054 0.51957 0.91899 0.0
O12 O 1.01036 0.5393 0.90905 0.0
O13 O 0.06307 0.5989 0.00074 0.0
O14 O 0.07403 0.55309 0.03311 0.0
C15 C 1.02502 0.52895 0.88154 0.0
O16 O 1.01244 0.6075 0.95992 0.0
O17 O 1.00545 0.59679 0.06608 0.0
O18 O 0.0385 0.56668 0.11971 0.0
O19 O 1.0238 0.50248 0.12095 0.0
O20 O 0.99231 0.46509 -0.00286 0.0
O21 O 0.98231 0.50817 0.03666 0.0
C22 C 0.08076 0.58859 0.01573 0.0
O23 O 0.05294 0.47264 0.08514 0.0
O24 O 0.03764 0.45307 0.98112 0.0
C25 C 0.97795 0.61362 -0.00223 0.0
C26 C 0.92886 0.61082 0.98007 0.0
C27 C 0.93314 0.5869 0.94036 0.0
C28 C 0.95744 0.58814 0.94938 0.0
C29 C 0.97391 0.63781 0.03669 0.0
C30 C 0.94963 0.63637 0.02818 0.0
C31 C 1.00319 0.61425 0.01122 0.0
H32 H 0.12881 0.45351 0.11976 0.0
H33 H 0.08438 0.44209 0.13004 0.0
H34 H 0.07843 0.47223 0.91944 0.0
H35 H 0.12274 0.48315 0.90902 0.0
H36 H 0.91773 0.56713 0.90244 0.0
H37 H 0.96007 0.56895 0.91911 0.0
H38 H 0.9894 0.65736 0.0748 0.0
H39 H 0.94693 0.65459 0.0608 0.0
Tb40 Tb 0.55889 0.06313 0.9818 0.0
Eu41 Eu 0.49173 1.01454 0.96777 0.0
C42 C 0.52744 0.03774 0.11156 0.0
C43 C 0.52469 0.96965 0.97691 0.0
C44 C 0.63615 0.13451 -0.00468 0.0
C45 C 0.68008 0.16933 0.06066 0.0
C46 C 0.65302 0.13967 0.05516 0.0
C47 C 0.64689 0.16062 0.94204 0.0
C48 C 0.67391 0.19006 0.94737 0.0
C49 C 0.69107 0.19428 0.00607 0.0
C50 C 0.60939 0.09837 0.9834 0.0
O51 O 0.54337 0.03896 0.87913 0.0
O52 O 0.50505 0.04038 0.86631 0.0
O53 O 0.50503 0.07748 0.98461 0.0
O54 O 0.5498 0.10957 0.96805 0.0
C55 C 0.52466 0.04088 0.84016 0.0
O56 O 0.45319 0.97471 0.91131 0.0
O57 O 0.45442 1.00083 0.00614 0.0
O58 O 0.50622 1.0102 0.07582 0.0
O59 O 0.54788 0.06556 0.08245 0.0
O60 O 0.54701 1.00211 -0.00214 0.0
O61 O 0.50249 0.96903 0.95553 0.0
C62 C 0.52794 0.10972 0.9769 0.0
O63 O 0.59649 0.07917 0.03484 0.0
O64 O 0.59321 0.0969 0.93155 0.0
C65 C 0.41384 0.94099 0.97102 0.0
C66 C 0.36118 0.87863 0.9877 0.0
C67 C 0.37434 0.87915 0.93205 0.0
C68 C 0.40024 0.90996 0.92369 0.0
C69 C 0.40106 0.93984 0.02783 0.0
C70 C 0.37515 0.90907 0.03617 0.0
C71 C 0.43927 0.97668 0.95622 0.0
H72 H 0.69268 0.17146 0.10645 0.0
H73 H 0.64563 0.11968 0.09666 0.0
H74 H 0.63471 0.15733 0.89473 0.0
H75 H 0.68152 0.20903 0.90469 0.0
H76 H 0.3642 0.85657 0.89319 0.0
H77 H 0.40921 0.91013 0.87866 0.0
H78 H 0.41072 0.96341 0.06491 0.0
H79 H 0.3659 0.90948 0.0802 0.0
Tb80 Tb 0.49541 0.51574 0.9643 0.0
Eu81 Eu 0.56052 0.56683 0.98206 0.0
C82 C 0.52723 0.54184 0.8387 0.0
C83 C 0.52849 0.47266 0.97505 0.0
C84 C 0.4227 0.48416 0.955 0.0
C85 C 0.38452 0.48714 0.90328 0.0
C86 C 0.4066 0.48391 0.89706 0.0
C87 C 0.41645 0.48817 0.01958 0.0
C88 C 0.39421 0.49122 0.02585 0.0
C89 C 0.37779 0.49029 0.96774 0.0
C90 C 0.44501 0.47849 0.94632 0.0
O91 O 0.50705 0.53726 0.06909 0.0
O92 O 0.54711 0.54074 0.08353 0.0
O93 O 0.54835 0.60994 0.00074 0.0
O94 O 0.50523 0.57608 0.94998 0.0
C95 C 0.52673 0.53835 0.10903 0.0
O96 O 0.59902 0.60082 0.04353 0.0
O97 O 0.59753 0.5938 0.93476 0.0
O98 O 0.54579 0.57214 0.87461 0.0
O99 O 0.50929 0.51164 0.86937 0.0
O100 O 0.50649 0.47176 0.9863 0.0
O101 O 0.55035 0.50547 0.96289 0.0
C102 C 0.52626 0.60861 0.97592 0.0
O103 O 0.46041 0.4992 0.89979 0.0
O104 O 0.45864 0.47602 0.00083 0.0
C105 C 0.63521 0.60034 0.00278 0.0
C106 C 0.6811 0.59468 0.01287 0.0
C107 C 0.68081 0.62333 0.04996 0.0
C108 C 0.65812 0.62621 0.04467 0.0
C109 C 0.63491 0.57053 0.96817 0.0
C110 C 0.65768 0.56782 0.97296 0.0
C111 C 0.61269 0.60666 -0.00787 0.0
H112 H 0.37265 0.48702 0.85738 0.0
H113 H 0.41094 0.48079 0.8467 0.0
H114 H 0.42844 0.48835 0.06528 0.0
H115 H 0.38947 0.49322 0.0763 0.0
H116 H 0.69828 0.64397 0.08234 0.0
H117 H 0.6587 0.64928 0.07207 0.0
H118 H 0.61739 0.55003 0.93574 0.0
H119 H 0.6572 0.54559 0.94324 0.0
H120 H 1.01437 0.57277 0.79 0.0
H121 H 1.01606 0.57476 0.66688 0.0
H122 H 0.03564 0.48569 0.68024 0.0
H123 H 0.0356 0.48549 0.80384 0.0
H124 H 0.06412 0.53386 0.59703 0.0
H125 H 0.97046 0.47081 0.61766 0.0
H126 H 0.92943 0.46243 0.65595 0.0
H127 H 0.9435 0.56616 0.55385 0.0
H128 H 0.98481 0.57543 0.51566 0.0
H129 H 0.0301 0.48036 0.2429 0.0
H130 H 0.02919 0.4801 0.36649 0.0
H131 H 0.03291 0.58929 0.35738 0.0
H132 H 0.03418 0.59008 0.23391 0.0
H133 H 0.99257 0.53122 0.43607 0.0
H134 H 0.08666 0.59092 0.41391 0.0
H135 H 0.12569 0.59422 0.37262 0.0
H136 H 0.10757 0.48903 0.4756 0.0
H137 H 0.06818 0.4848 0.51669 0.0
C138 C 1.0189 0.55349 0.76654 0.0
C139 C 1.02474 0.52885 0.80653 0.0
C140 C 1.01971 0.55445 0.69595 0.0
C141 C 1.02546 0.52982 0.66345 0.0
C142 C 0.03117 0.50505 0.70362 0.0
C143 C 0.03104 0.50482 0.77437 0.0
C144 C 0.02618 0.53041 0.58803 0.0
C145 C 0.0482 0.53268 0.56209 0.0
C146 C 1.00574 0.52957 0.54167 0.0
C147 C 0.98087 0.52401 0.56438 0.0
C148 C 0.9649 0.49197 0.60377 0.0
C149 C 0.94158 0.48704 0.62539 0.0
C150 C 0.9339 0.5138 0.6075 0.0
C151 C 0.94949 0.54549 0.56776 0.0
C152 C 0.97285 0.55057 0.54606 0.0
C153 C 0.03082 0.5044 0.2672 0.0
C154 C 0.03229 0.53529 0.22856 0.0
C155 C 0.03034 0.50422 0.33782 0.0
C156 C 0.03104 0.53472 0.37109 0.0
C157 C 0.03234 0.56547 0.33267 0.0
C158 C 0.0332 0.56595 0.26217 0.0
C159 C 0.03029 0.53443 0.44596 0.0
C160 C 1.00833 0.53228 0.47149 0.0
C161 C 0.05047 0.53458 0.49184 0.0
C162 C 0.07433 0.53736 0.46784 0.0
C163 C 0.09088 0.56833 0.42731 0.0
C164 C 0.11309 0.5704 0.40402 0.0
C165 C 0.11907 0.5418 0.42133 0.0
C166 C 0.1029 0.51114 0.46216 0.0
C167 C 0.08064 0.50891 0.48552 0.0
H168 H 0.13627 0.54345 0.40323 0.0
H169 H 0.91585 0.50993 0.6243 0.0
H170 H 0.48519 0.99775 0.18706 0.0
H171 H 0.4855 0.99898 0.31065 0.0
H172 H 0.57067 0.07853 0.33048 0.0
H173 H 0.57056 0.0779 0.20643 0.0
H174 H 0.55116 1.01369 0.42407 0.0
H175 H 0.53438 0.11395 0.34298 0.0
H176 H 0.50993 0.13821 0.26952 0.0
H177 H 0.43764 0.05802 0.35702 0.0
H178 H 0.46153 1.03247 0.42978 0.0
H179 H 0.5678 0.06596 0.76964 0.0
H180 H 0.56878 0.06655 0.64651 0.0
H181 H 0.4834 1.01633 0.61827 0.0
H182 H 0.48261 1.01766 0.7416 0.0
H183 H 0.50319 0.06619 0.52695 0.0
H184 H 0.51569 0.96294 0.60255 0.0
H185 H 0.53611 0.93112 0.67125 0.0
H186 H 0.61112 1.00778 0.59237 0.0
H187 H 0.59122 0.04043 0.52386 0.0
C188 C 0.50404 1.01543 0.21758 0.0
C189 C 0.52786 0.03783 0.18676 0.0
C190 C 0.50415 1.01614 0.28824 0.0
C191 C 0.52808 0.03896 0.32965 0.0
C192 C 0.55199 0.06073 0.29935 0.0
C193 C 0.55186 0.06046 0.22848 0.0
C194 C 0.52798 0.04062 0.40449 0.0
C195 C 0.54103 1.02566 0.44684 0.0
C196 C 0.51391 0.05495 0.43375 0.0
C197 C 0.4997 0.07104 0.39137 0.0
C198 C 0.51323 0.10128 0.34622 0.0
C199 C 0.49947 0.11529 0.30472 0.0
C200 C 0.47224 0.09967 0.30854 0.0
C201 C 0.45873 0.07007 0.35405 0.0
C202 C 0.47237 0.05578 0.39541 0.0
C203 C 0.54923 0.05506 0.73716 0.0
C204 C 0.5251 0.04154 0.76533 0.0
C205 C 0.54978 0.05517 0.66663 0.0
C206 C 0.52608 0.04064 0.62263 0.0
C207 C 0.50198 1.02762 0.65082 0.0
C208 C 0.50152 1.02831 0.7214 0.0
C209 C 0.52645 0.03923 0.54741 0.0
C210 C 0.51341 0.05421 0.5047 0.0
C211 C 0.54 1.02402 0.51768 0.0
C212 C 0.55202 1.00438 0.55859 0.0
C213 C 0.53658 0.97319 0.60022 0.0
C214 C 0.54806 0.95498 0.63907 0.0
C215 C 0.57491 0.96749 0.63631 0.0
C216 C 0.59033 0.99817 0.59453 0.0
C217 C 0.57896 1.01651 0.55563 0.0
H218 H 0.58376 0.95336 0.66643 0.0
H219 H 0.4616 0.11051 0.27627 0.0
H220 H 0.56009 0.60018 0.75726 0.0
H221 H 0.55925 0.59871 0.63342 0.0
H222 H 0.49278 0.48081 0.6262 0.0
H223 H 0.49359 0.48189 0.74992 0.0
H224 H 0.5292 0.48939 0.54528 0.0
H225 H 0.48279 0.55394 0.58179 0.0
H226 H 0.47681 0.60329 0.63171 0.0
H227 H 0.54494 0.69327 0.54062 0.0
H228 H 0.55155 0.64444 0.49091 0.0
H229 H 0.48823 0.53461 0.18035 0.0
H230 H 0.48755 0.53407 0.30377 0.0
H231 H 0.56348 0.54128 0.33115 0.0
H232 H 0.5642 0.54136 0.20783 0.0
H233 H 0.51993 0.5859 0.4016 0.0
H234 H 0.56548 0.49104 0.47264 0.0
H235 H 0.56788 0.43833 0.42257 0.0
H236 H 0.49446 0.40263 0.29711 0.0
H237 H 0.49144 0.45475 0.3471 0.0
C238 C 0.54528 0.57392 0.72938 0.0
C239 C 0.52685 0.54119 0.76359 0.0
C240 C 0.54478 0.57317 0.65851 0.0
C241 C 0.52581 0.53974 0.6204 0.0
C242 C 0.5076 0.50691 0.6545 0.0
C243 C 0.50804 0.50765 0.72529 0.0
C244 C 0.52487 0.53896 0.54497 0.0
C245 C 0.52724 0.51054 0.51389 0.0
C246 C 0.52186 0.56615 0.5038 0.0
C247 C 0.51781 0.59555 0.53316 0.0
C248 C 0.49661 0.58427 0.57281 0.0
C249 C 0.49309 0.61214 0.60101 0.0
C250 C 0.51052 0.6514 0.58949 0.0
C251 C 0.53147 0.66285 0.54957 0.0
C252 C 0.5351 0.63509 0.52132 0.0
C253 C 0.50479 0.53599 0.21253 0.0
C254 C 0.52623 0.53789 0.184 0.0
C255 C 0.5044 0.53582 0.28317 0.0
C256 C 0.52535 0.53732 0.32684 0.0
C257 C 0.54689 0.53954 0.29854 0.0
C258 C 0.54731 0.5397 0.22791 0.0
C259 C 0.52467 0.53665 0.40192 0.0
C260 C 0.52201 0.56482 0.43297 0.0
C261 C 0.52697 0.50883 0.44296 0.0
C262 C 0.52841 0.47707 0.41313 0.0
C263 C 0.54981 0.47184 0.43455 0.0
C264 C 0.55128 0.44208 0.40616 0.0
C265 C 0.53139 0.41723 0.35652 0.0
C266 C 0.50992 0.42199 0.33536 0.0
C267 C 0.50833 0.45167 0.36365 0.0
H268 H 0.53258 0.39423 0.33456 0.0
H269 H 0.50777 0.67294 0.61138 0.0
H270 H 0.14478 0.44292 0.91456 0.0
H271 H 0.18861 0.45091 0.90916 0.0
H272 H 0.21848 0.51965 0.09436 0.0
H273 H 0.17459 0.5117 0.10009 0.0
H274 H 0.2547 0.54927 0.99096 0.0
H275 H 0.20215 0.43169 0.10943 0.0
H276 H 0.16228 0.36783 0.12591 0.0
H277 H 0.17203 0.32444 0.94385 0.0
H278 H 0.21175 0.38828 0.9257 0.0
H279 H 0.3706 0.53389 0.05623 0.0
H280 H 0.32968 0.53391 0.0668 0.0
H281 H 0.28884 0.44972 0.90268 0.0
H282 H 0.32911 0.44824 0.89388 0.0
H283 H 0.25873 0.42985 0.00251 0.0
H284 H 0.31061 0.54723 0.8817 0.0
H285 H 0.35008 0.61117 0.8631 0.0
H286 H 0.34168 0.65524 0.04632 0.0
H287 H 0.30235 0.59136 0.06654 0.0
C288 C 0.16078 0.46013 0.95362 0.0
C289 C 0.15626 0.47646 0.00799 0.0
C290 C 0.18575 0.46455 0.95064 0.0
C291 C 0.20668 0.48562 0.00166 0.0
C292 C 0.20255 0.50325 0.05459 0.0
C293 C 0.17748 0.49845 0.05805 0.0
C294 C 0.23238 0.48738 0.00139 0.0
C295 C 0.25574 0.52329 -0.00563 0.0
C296 C 0.23354 0.45337 0.00487 0.0
C297 C 0.20977 0.41487 0.01586 0.0
C298 C 0.19566 0.40863 0.07259 0.0
C299 C 0.17311 0.37242 0.08229 0.0
C300 C 0.16458 0.34213 0.03586 0.0
C301 C 0.17864 0.34796 0.97972 0.0
C302 C 0.20118 0.38414 0.96973 0.0
C303 C 0.35284 0.51518 0.02274 0.0
C304 C 0.35322 0.4912 0.97397 0.0
C305 C 0.32954 0.51554 0.02834 0.0
C306 C 0.30624 0.49216 0.98496 0.0
C307 C 0.30657 0.46813 0.93654 0.0
C308 C 0.32975 0.46761 0.93113 0.0
C309 C 0.2812 0.49174 0.99072 0.0
C310 C 0.25786 0.45597 -0.00085 0.0
C311 C 0.28013 0.52591 0.98822 0.0
C312 C 0.30372 0.56437 0.97604 0.0
C313 C 0.31731 0.57046 0.91833 0.0
C314 C 0.33964 0.60671 0.90744 0.0
C315 C 0.34844 0.63722 0.95362 0.0
C316 C 0.33487 0.63156 0.01067 0.0
C317 C 0.31255 0.59534 0.02185 0.0
H318 H 0.36573 0.66526 0.94511 0.0
H319 H 0.14712 0.31411 0.04347 0.0
H320 H 0.72379 0.2114 0.9052 0.0
H321 H 0.77189 0.2573 0.90924 0.0
H322 H 0.77353 0.28789 0.11659 0.0
H323 H 0.7252 0.24221 0.11265 0.0
H324 H 0.80318 0.35229 0.03939 0.0
H325 H 0.79562 0.22925 0.08327 0.0
H326 H 0.77918 0.16068 0.0593 0.0
H327 H 0.81401 0.19145 0.86987 0.0
H328 H 0.83034 0.26018 0.89228 0.0
H329 H 0.9427 0.46162 0.11433 0.0
H330 H 0.89559 0.41193 0.11693 0.0
H331 H 0.89572 0.3656 0.9245 0.0
H332 H 0.94359 0.41371 0.9248 0.0
H333 H 0.86456 0.30864 -0.00591 0.0
H334 H 0.87304 0.43099 0.94818 0.0
H335 H 0.89206 0.50008 0.97243 0.0
H336 H 0.85443 0.47197 0.15768 0.0
H337 H 0.83631 0.40259 0.13626 0.0
C338 C 0.73427 0.22813 0.95155 0.0
C339 C 0.72047 0.22306 0.00858 0.0
C340 C 0.7619 0.25417 0.95396 0.0
C341 C 0.77651 0.27592 0.01342 0.0
C342 C 0.76277 0.27141 0.07016 0.0
C343 C 0.73513 0.24509 0.06797 0.0
C344 C 0.80606 0.3033 0.01627 0.0
C345 C 0.81664 0.34267 0.03036 0.0
C346 C 0.82366 0.2911 0.00253 0.0
C347 C 0.81398 0.24981 0.98917 0.0
C348 C 0.79959 0.22136 0.03626 0.0
C349 C 0.79033 0.18247 0.023 0.0
C350 C 0.79549 0.1717 0.96302 0.0
C351 C 0.80999 0.19983 0.91626 0.0
C352 C 0.81928 0.23875 0.92925 0.0
C353 C 0.9327 0.44064 0.07283 0.0
C354 C 0.94675 0.44179 0.01899 0.0
C355 C 0.90564 0.41229 0.07406 0.0
C356 C 0.89154 0.38547 0.01979 0.0
C357 C 0.90586 0.38594 0.96687 0.0
C358 C 0.93324 0.41355 0.96686 0.0
C359 C 0.86188 0.35789 0.01734 0.0
C360 C 0.8512 0.31844 0.0031 0.0
C361 C 0.84411 0.37014 0.03 0.0
C362 C 0.85353 0.41158 0.04092 0.0
C363 C 0.86886 0.43951 -0.00579 0.0
C364 C 0.87958 0.47878 0.0076 0.0
C365 C 0.8744 0.49048 0.06653 0.0
C366 C 0.85845 0.46287 0.11211 0.0
C367 C 0.84806 0.42355 0.09953 0.0
H368 H 0.88278 0.52093 0.07697 0.0
H369 H 0.7883 0.14158 0.95285 0.0
H370 H 0.48484 0.89822 0.92368 0.0
H371 H 0.48457 0.83774 0.92279 0.0
H372 H 0.56336 0.89449 0.0312 0.0
H373 H 0.56406 0.95547 0.03036 0.0
H374 H 0.56195 0.84974 0.94022 0.0
H375 H 0.50184 0.82764 0.10565 0.0
H376 H 0.46285 0.82344 0.14908 0.0
H377 H 0.41051 0.73658 -0.00268 0.0
H378 H 0.44923 0.74069 0.95232 0.0
H379 H 0.5644 0.67992 0.0325 0.0
H380 H 0.56341 0.73939 0.03296 0.0
H381 H 0.48548 0.68096 0.92009 0.0
H382 H 0.48608 0.62087 0.92092 0.0
H383 H 0.48592 0.72598 0.01181 0.0
H384 H 0.54556 0.74793 0.84619 0.0
H385 H 0.58429 0.75149 0.80242 0.0
H386 H 0.63714 0.83814 0.95396 0.0
H387 H 0.59868 0.83474 -0.0008 0.0
C388 C 0.50216 0.89799 0.94764 0.0
C389 C 0.52444 0.93218 0.97739 0.0
C390 C 0.5019 0.86301 0.94747 0.0
C391 C 0.52374 0.86069 0.97803 0.0
C392 C 0.54611 0.89492 0.00729 0.0
C393 C 0.54648 0.93002 0.00697 0.0
C394 C 0.52353 0.82307 0.97848 0.0
C395 C 0.54542 0.82289 0.95693 0.0
C396 C 0.50177 0.78723 -0.00176 0.0
C397 C 0.47847 0.78478 0.02517 0.0
C398 C 0.48204 0.80787 0.08119 0.0
C399 C 0.45998 0.80548 0.10613 0.0
C400 C 0.43423 0.77985 0.07584 0.0
C401 C 0.43047 0.75648 0.02064 0.0
C402 C 0.45247 0.75883 -0.00458 0.0
C403 C 0.54698 0.67951 0.00757 0.0
C404 C 0.52538 0.64517 0.97629 0.0
C405 C 0.54651 0.7139 0.00754 0.0
C406 C 0.52458 0.71548 0.97544 0.0
C407 C 0.50278 0.68105 0.9451 0.0
C408 C 0.50316 0.6465 0.94542 0.0
C409 C 0.52439 0.75279 0.97393 0.0
C410 C 0.50244 0.75288 -0.00484 0.0
C411 C 0.54605 0.78855 0.95378 0.0
C412 C 0.56922 0.79082 0.92646 0.0
C413 C 0.56543 0.76756 0.87046 0.0
C414 C 0.58734 0.76958 0.84536 0.0
C415 C 0.61315 0.79496 0.87551 0.0
C416 C 0.61713 0.81846 0.93071 0.0
C417 C 0.59528 0.81653 0.95606 0.0
H418 H 0.63009 0.79647 0.85601 0.0
H419 H 0.41718 0.77803 0.09524 0.0
H420 H 0.91914 0.66974 0.98822 0.0
H421 H 0.87615 0.66422 -0.00792 0.0
H422 H 0.83592 0.54058 0.96217 0.0
H423 H 0.87873 0.546 0.9567 0.0
H424 H 0.80809 0.56697 0.89329 0.0
H425 H 0.84765 0.58041 0.12129 0.0
H426 H 0.88287 0.6096 0.2172 0.0
H427 H 0.88143 0.71448 0.19993 0.0
H428 H 0.84645 0.68611 0.10317 0.0
H429 H 0.68694 0.53162 0.01193 0.0
H430 H 0.72806 0.53163 0.00467 0.0
H431 H 0.77297 0.65642 0.00696 0.0
H432 H 0.73206 0.65681 0.0123 0.0
H433 H 0.79699 0.62493 0.09377 0.0
H434 H 0.75694 0.60851 0.86045 0.0
H435 H 0.7205 0.57561 0.76823 0.0
H436 H 0.72128 0.47082 0.80211 0.0
H437 H 0.7575 0.50298 0.89523 0.0
C438 C 0.90118 0.64133 0.98257 0.0
C439 C 0.90256 0.60812 0.9742 0.0
C440 C 0.87658 0.63823 0.98473 0.0
C441 C 0.85284 0.60185 0.97933 0.0
C442 C 0.85398 0.56893 0.96714 0.0
C443 C 0.87857 0.57208 0.96422 0.0
C444 C 0.82698 0.59813 0.98841 0.0
C445 C 0.80557 0.5792 0.93757 0.0
C446 C 0.82366 0.61412 0.04612 0.0
C447 C 0.84459 0.63125 0.10456 0.0
C448 C 0.85497 0.6098 0.13761 0.0
C449 C 0.87488 0.62618 0.19217 0.0
C450 C 0.88443 0.6639 0.21454 0.0
C451 C 0.87403 0.68528 0.18249 0.0
C452 C 0.85415 0.66906 0.12781 0.0
C453 C 0.70553 0.55908 0.01051 0.0
C454 C 0.70613 0.59422 0.01268 0.0
C455 C 0.72901 0.55901 0.0066 0.0
C456 C 0.75349 0.59404 0.00485 0.0
C457 C 0.75427 0.62908 0.00853 0.0
C458 C 0.73085 0.62921 0.012 0.0
C459 C 0.77837 0.59446 -0.00185 0.0
C460 C 0.79955 0.61263 0.04965 0.0
C461 C 0.78131 0.57722 0.94165 0.0
C462 C 0.75973 0.55803 0.88524 0.0
C463 C 0.7492 0.57837 0.84857 0.0
C464 C 0.72861 0.55987 0.79609 0.0
C465 C 0.71853 0.52112 0.77945 0.0
C466 C 0.72908 0.50082 0.81513 0.0
C467 C 0.74965 0.51917 0.86772 0.0
H468 H 0.70258 0.50685 0.7388 0.0
H469 H 0.89984 0.67654 0.2568 0.0
H470 H 0.12024 0.57614 0.98991 0.0
H471 H 0.16743 0.62394 0.9831 0.0
H472 H 0.15412 0.71502 0.03114 0.0
H473 H 0.10647 0.66734 0.03367 0.0
H474 H 0.18621 0.74032 0.94117 0.0
H475 H 0.18515 0.67329 0.15017 0.0
H476 H 0.17413 0.61568 0.21943 0.0
H477 H 0.21903 0.5887 0.0999 0.0
H478 H 0.23001 0.64584 0.02938 0.0
H479 H 0.32121 0.88626 0.02913 0.0
H480 H 0.27436 0.83636 0.03475 0.0
H481 H 0.28889 0.75092 0.96209 0.0
H482 H 0.33611 0.80057 0.95836 0.0
H483 H 0.25683 0.72208 0.06279 0.0
H484 H 0.25857 0.789 0.85601 0.0
H485 H 0.26931 0.84578 0.78474 0.0
H486 H 0.22311 0.87251 0.89962 0.0
H487 H 0.21239 0.81616 0.97222 0.0
C488 C 0.12738 0.60638 -0.0008 0.0
C489 C 0.10959 0.61789 0.01282 0.0
C490 C 0.15451 0.63378 -0.00423 0.0
C491 C 0.16481 0.67332 0.00834 0.0
C492 C 0.14693 0.68482 0.02145 0.0
C493 C 0.11963 0.6575 0.02309 0.0
C494 C 0.19399 0.70275 0.00677 0.0
C495 C 0.20155 0.73648 0.96882 0.0
C496 C 0.21437 0.6976 0.04087 0.0
C497 C 0.20821 0.66368 0.08417 0.0
C498 C 0.19257 0.65498 0.13851 0.0
C499 C 0.18633 0.62239 0.17796 0.0
C500 C 0.1958 0.59847 0.16393 0.0
C501 C 0.21165 0.60719 0.11063 0.0
C502 C 0.21792 0.6397 0.07097 0.0
C503 C 0.31462 0.85679 0.01522 0.0
C504 C 0.33263 0.84763 -0.00677 0.0
C505 C 0.28765 0.82827 0.01774 0.0
C506 C 0.27785 0.78982 -0.00208 0.0
C507 C 0.29584 0.78035 0.97735 0.0
C508 C 0.32286 0.8089 0.97474 0.0
C509 C 0.24885 0.75969 -0.00181 0.0
C510 C 0.24139 0.72588 0.03557 0.0
C511 C 0.22855 0.76474 0.9637 0.0
C512 C 0.23489 0.79856 0.91996 0.0
C513 C 0.25087 0.80715 0.86641 0.0
C514 C 0.25692 0.83923 0.82571 0.0
C515 C 0.24696 0.86279 0.83775 0.0
C516 C 0.23085 0.85426 0.89041 0.0
C517 C 0.22476 0.82223 0.93131 0.0
H518 H 0.25167 0.88761 0.80619 0.0
H519 H 0.1909 0.57321 0.19444 0.0
H520 H 0.5704 0.46277 0.9583 0.0
H521 H 0.57099 0.40288 0.9596 0.0
H522 H 0.48791 0.33773 -0.00561 0.0
H523 H 0.48733 0.39776 -0.00557 0.0
H524 H 0.51289 0.30974 0.07127 0.0
H525 H 0.51157 0.34023 0.83402 0.0
H526 H 0.52734 0.38135 0.73372 0.0
H527 H 0.60316 0.38974 0.77303 0.0
H528 H 0.58795 0.34906 0.87411 0.0
H529 H 0.48741 0.12215 -0.0036 0.0
H530 H 0.48833 0.18304 -0.0029 0.0
H531 H 0.57125 0.24536 0.96089 0.0
H532 H 0.57036 0.18417 0.95915 0.0
H533 H 0.54729 0.27548 0.88544 0.0
H534 H 0.5495 0.24603 0.1216 0.0
H535 H 0.53545 0.20803 0.22578 0.0
H536 H 0.45938 0.19913 0.19087 0.0
H537 H 0.47293 0.23691 0.08614 0.0
C538 C 0.55216 0.43578 0.96614 0.0
C539 C 0.52876 0.43556 0.97596 0.0
C540 C 0.55249 0.40123 0.96648 0.0
C541 C 0.52938 0.36508 0.97599 0.0
C542 C 0.50609 0.36486 0.9867 0.0
C543 C 0.50575 0.39944 0.98653 0.0
C544 C 0.52954 0.32777 0.97552 0.0
C545 C 0.52005 0.30211 0.02995 0.0
C546 C 0.53959 0.31769 0.923 0.0
C547 C 0.5487 0.3419 0.86199 0.0
C548 C 0.53166 0.35106 0.82152 0.0
C549 C 0.54049 0.37425 0.7645 0.0
C550 C 0.56626 0.38823 0.74711 0.0
C551 C 0.58322 0.37893 0.78661 0.0
C552 C 0.57449 0.35578 0.84373 0.0
C553 C 0.50596 0.14869 0.9887 0.0
C554 C 0.52884 0.14771 0.97789 0.0
C555 C 0.5065 0.18385 0.98954 0.0
C556 C 0.52997 0.2195 0.98004 0.0
C557 C 0.55281 0.21862 0.96857 0.0
C558 C 0.5523 0.18338 0.96778 0.0
C559 C 0.53048 0.25732 0.98104 0.0
C560 C 0.54009 0.28307 0.92673 0.0
C561 C 0.52064 0.26758 0.03381 0.0
C562 C 0.51214 0.24398 0.09569 0.0
C563 C 0.52968 0.23563 0.13576 0.0
C564 C 0.52182 0.21422 0.19501 0.0
C565 C 0.49651 0.2011 0.21485 0.0
C566 C 0.47897 0.20929 0.1754 0.0
C567 C 0.48674 0.23076 0.11615 0.0
H568 H 0.49054 0.18479 0.261 0.0
H569 H 0.57306 0.40619 0.70296 0.0
loop_
_geom_bond_atom_site_label_1
_geom_bond_atom_site_label_2
_geom_bond_distance
_geom_bond_site_symmetry_2
_ccdc_geom_bond_type
Tb0 C10 2.825 . S
Tb0 O11 2.347 1_554 S
Tb0 O14 2.366 . S
Tb0 O19 2.418 . S
Tb0 O20 2.384 1_455 S
Tb0 O23 2.479 . S
Tb0 O24 2.471 1_554 S
Eu1 O12 2.418 . S
Eu1 O13 2.384 1_655 S
Eu1 O16 2.479 . S
Eu1 O17 2.471 1_556 S
Eu1 O18 2.347 1_556 S
Eu1 O21 2.366 . S
Eu1 C31 2.825 . S
C2 O18 1.259 1_455 S
C2 O19 1.265 . S
C3 O20 1.255 1_556 S
C3 O21 1.265 . S
C4 C6 1.382 . S
C4 C7 1.371 1_554 S
C4 C10 1.507 . S
C5 C6 1.384 . S
C5 C9 1.387 1_554 S
C5 H32 0.930 . S
C6 C4 1.382 . S
C6 C5 1.384 . S
C6 H33 0.931 . S
C7 C4 1.371 1_556 S
C7 C8 1.390 . S
C7 H34 0.930 . S
C8 C7 1.390 . S
C8 C9 1.391 . S
C8 H35 0.930 . S
C9 C5 1.387 1_556 S
C9 C8 1.391 . S
C10 Tb0 2.825 . S
C10 C4 1.507 . S
C10 O23 1.238 . S
C10 O24 1.247 1_554 S
O11 Tb0 2.347 1_556 S
O11 C15 1.259 1_455 S
O12 Eu1 2.418 . S
O12 C15 1.265 . S
O13 Eu1 2.384 1_455 S
O13 C22 1.255 1_556 S
O14 Tb0 2.366 . S
O14 C22 1.265 . S
C15 O11 1.259 1_655 S
C15 O12 1.265 . S
O16 Eu1 2.479 . S
O16 C31 1.238 . S
O17 Eu1 2.471 1_554 S
O17 C31 1.247 1_554 S
O18 Eu1 2.347 1_554 S
O18 C2 1.259 1_655 S
O19 Tb0 2.418 . S
O19 C2 1.265 . S
O20 Tb0 2.384 1_655 S
O20 C3 1.255 1_554 S
O21 Eu1 2.366 . S
O21 C3 1.265 . S
C22 O13 1.255 1_554 S
C22 O14 1.265 . S
O23 Tb0 2.479 . S
O23 C10 1.238 . S
O24 Tb0 2.471 1_556 S
O24 C10 1.247 1_556 S
C25 C28 1.380 1_554 S
C25 C29 1.373 . S
C25 C31 1.507 1_554 S
C26 C27 1.387 1_554 S
C26 C30 1.391 . S
C27 C26 1.387 1_556 S
C27 C28 1.384 . S
C27 H36 0.930 . S
C28 C25 1.380 1_556 S
C28 C27 1.384 . S
C28 H37 0.931 . S
C29 C25 1.373 . S
C29 C30 1.390 . S
C29 H38 0.930 . S
C30 C26 1.391 . S
C30 C29 1.390 . S
C30 H39 0.930 . S
C31 Eu1 2.825 . S
C31 O16 1.238 . S
C31 O17 1.247 1_556 S
C31 C25 1.507 1_556 S
H32 C5 0.930 . S
H33 C6 0.931 . S
H34 C7 0.930 . S
H35 C8 0.930 . S
H36 C27 0.930 . S
H37 C28 0.931 . S
H38 C29 0.930 . S
H39 C30 0.930 . S
Tb40 C50 2.825 . S
Tb40 O51 2.347 1_554 S
Tb40 O54 2.366 . S
Tb40 O59 2.418 . S
Tb40 O60 2.384 1_545 S
Tb40 O63 2.479 . S
Tb40 O64 2.471 1_554 S
Eu41 O52 2.418 . S
Eu41 O53 2.384 1_565 S
Eu41 O56 2.479 . S
Eu41 O57 2.471 1_556 S
Eu41 O58 2.347 1_556 S
Eu41 O61 2.366 . S
Eu41 C71 2.825 . S
C42 O58 1.259 1_545 S
C42 O59 1.265 . S
C43 O60 1.253 1_556 S
C43 O61 1.267 . S
C44 C46 1.380 . S
C44 C47 1.374 1_554 S
C44 C50 1.507 . S
C45 C46 1.384 . S
C45 C49 1.387 1_554 S
C45 H72 0.930 . S
C46 C44 1.380 . S
C46 C45 1.384 . S
C46 H73 0.931 . S
C47 C44 1.374 1_556 S
C47 C48 1.390 . S
C47 H74 0.930 . S
C48 C47 1.390 . S
C48 C49 1.391 . S
C48 H75 0.930 . S
C49 C45 1.387 1_556 S
C49 C48 1.391 . S
C50 Tb40 2.825 . S
C50 C44 1.507 . S
C50 O63 1.238 . S
C50 O64 1.247 1_554 S
O51 Tb40 2.347 1_556 S
O51 C55 1.259 1_545 S
O52 Eu41 2.418 . S
O52 C55 1.265 . S
O53 Eu41 2.384 1_545 S
O53 C62 1.255 1_556 S
O54 Tb40 2.366 . S
O54 C62 1.265 . S
C55 O51 1.259 1_565 S
C55 O52 1.265 . S
O56 Eu41 2.479 . S
O56 C71 1.238 . S
O57 Eu41 2.471 1_554 S
O57 C71 1.247 1_554 S
O58 Eu41 2.347 1_554 S
O58 C42 1.259 1_565 S
O59 Tb40 2.418 . S
O59 C42 1.265 . S
O60 Tb40 2.384 1_565 S
O60 C43 1.253 1_554 S
O61 Eu41 2.366 . S
O61 C43 1.267 . S
C62 O53 1.255 1_554 S
C62 O54 1.265 . S
O63 Tb40 2.479 . S
O63 C50 1.238 . S
O64 Tb40 2.471 1_556 S
O64 C50 1.247 1_556 S
C65 C68 1.380 . S
C65 C69 1.374 1_556 S
C65 C71 1.507 . S
C66 C67 1.387 1_554 S
C66 C70 1.391 . S
C67 C66 1.387 1_556 S
C67 C68 1.384 . S
C67 H76 0.930 . S
C68 C65 1.380 . S
C68 C67 1.384 . S
C68 H77 0.931 . S
C69 C65 1.374 1_554 S
C69 C70 1.390 . S
C69 H78 0.930 . S
C70 C66 1.391 . S
C70 C69 1.390 . S
C70 H79 0.930 . S
C71 Eu41 2.825 . S
C71 O56 1.238 . S
C71 O57 1.247 1_556 S
C71 C65 1.507 . S
H72 C45 0.930 . S
H73 C46 0.931 . S
H74 C47 0.930 . S
H75 C48 0.930 . S
H76 C67 0.930 . S
H77 C68 0.931 . S
H78 C69 0.930 . S
H79 C70 0.930 . S
Tb80 C90 2.825 . S
Tb80 O91 2.347 1_556 S
Tb80 O94 2.366 . S
Tb80 O99 2.418 . S
Tb80 O100 2.384 . S
Tb80 O103 2.479 . S
Tb80 O104 2.471 1_556 S
Eu81 O92 2.418 . S
Eu81 O93 2.384 . S
Eu81 O96 2.479 . S
Eu81 O97 2.471 1_554 S
Eu81 O98 2.347 1_554 S
Eu81 O101 2.366 . S
Eu81 C111 2.825 . S
C82 O98 1.259 . S
C82 O99 1.265 . S
C83 O100 1.255 1_554 S
C83 O101 1.265 . S
C84 C86 1.380 . S
C84 C87 1.374 1_556 S
C84 C90 1.507 . S
C85 C86 1.384 . S
C85 C89 1.387 1_556 S
C85 H112 0.930 . S
C86 C84 1.380 . S
C86 C85 1.384 . S
C86 H113 0.931 . S
C87 C84 1.374 1_554 S
C87 C88 1.390 . S
C87 H114 0.930 . S
C88 C87 1.390 . S
C88 C89 1.391 . S
C88 H115 0.930 . S
C89 C85 1.387 1_554 S
C89 C88 1.391 . S
C90 Tb80 2.825 . S
C90 C84 1.507 . S
C90 O103 1.238 . S
C90 O104 1.247 1_556 S
O91 Tb80 2.347 1_554 S
O91 C95 1.259 . S
O92 Eu81 2.418 . S
O92 C95 1.265 . S
O93 Eu81 2.384 . S
O93 C102 1.255 1_554 S
O94 Tb80 2.366 . S
O94 C102 1.265 . S
C95 O91 1.259 . S
C95 O92 1.265 . S
O96 Eu81 2.479 . S
O96 C111 1.238 . S
O97 Eu81 2.471 1_556 S
O97 C111 1.247 1_556 S
O98 Eu81 2.347 1_556 S
O98 C82 1.259 . S
O99 Tb80 2.418 . S
O99 C82 1.265 . S
O100 Tb80 2.384 . S
O100 C83 1.255 1_556 S
O101 Eu81 2.366 . S
O101 C83 1.265 . S
C102 O93 1.255 1_556 S
C102 O94 1.265 . S
O103 Tb80 2.479 . S
O103 C90 1.238 . S
O104 Tb80 2.471 1_554 S
O104 C90 1.247 1_554 S
C105 C108 1.380 . S
C105 C109 1.374 1_554 S
C105 C111 1.507 . S
C106 C107 1.387 1_556 S
C106 C110 1.391 . S
C107 C106 1.387 1_554 S
C107 C108 1.384 . S
C107 H116 0.930 . S
C108 C105 1.380 . S
C108 C107 1.384 . S
C108 H117 0.931 . S
C109 C105 1.374 1_556 S
C109 C110 1.390 . S
C109 H118 0.930 . S
C110 C106 1.391 . S
C110 C109 1.390 . S
C110 H119 0.930 . S
C111 Eu81 2.825 . S
C111 O96 1.238 . S
C111 O97 1.247 1_554 S
C111 C105 1.507 . S
H112 C85 0.930 . S
H113 C86 0.931 . S
H114 C87 0.930 . S
H115 C88 0.930 . S
H116 C107 0.930 . S
H117 C108 0.931 . S
H118 C109 0.930 . S
H119 C110 0.930 . S
H120 C138 0.951 . S
H121 C140 0.951 . S
H122 C142 0.950 . S
H123 C143 0.950 . S
H124 C145 0.950 . S
H125 C148 0.950 . S
H126 C149 0.950 . S
H127 C151 0.950 . S
H128 C152 0.950 1_455 S
H129 C153 0.951 . S
H130 C155 0.951 . S
H131 C157 0.950 . S
H132 C158 0.950 . S
H133 C160 0.950 . S
H134 C163 0.950 . S
H135 C164 0.950 . S
H136 C166 0.950 . S
H137 C167 0.950 1_655 S
C138 H120 0.951 . S
C138 C139 1.365 1_455 S
C138 C140 1.388 . S
C139 C138 1.365 1_655 S
C139 C143 1.384 . S
C140 H121 0.951 . S
C140 C138 1.388 . S
C140 C141 1.367 1_455 S
C141 C140 1.367 1_655 S
C141 C142 1.415 . S
C141 C144 1.499 . S
C142 H122 0.950 . S
C142 C141 1.415 . S
C142 C143 1.374 . S
C143 H123 0.950 . S
C143 C139 1.384 . S
C143 C142 1.374 . S
C144 C141 1.499 . S
C144 C145 1.352 1_655 S
C144 C146 1.405 . S
C145 H124 0.950 . S
C145 C144 1.352 1_455 S
C145 C161 1.377 . S
C146 C144 1.405 . S
C146 C147 1.524 . S
C146 C160 1.377 . S
C147 C146 1.524 . S
C147 C148 1.397 . S
C147 C152 1.363 . S
C148 H125 0.950 . S
C148 C147 1.397 . S
C148 C149 1.334 . S
C149 H126 0.950 . S
C149 C148 1.334 . S
C149 C150 1.287 . S
C150 C149 1.287 . S
C150 C151 1.524 . S
C150 H169 0.913 . S
C151 H127 0.950 . S
C151 C150 1.524 . S
C151 C152 1.415 . S
C152 H128 0.950 1_655 S
C152 C147 1.363 . S
C152 C151 1.415 . S
C153 H129 0.951 . S
C153 C154 1.366 1_655 S
C153 C155 1.388 . S
C154 C153 1.366 1_455 S
C154 C158 1.385 . S
C155 H130 0.951 . S
C155 C153 1.388 . S
C155 C156 1.366 1_655 S
C156 C155 1.366 1_455 S
C156 C157 1.414 . S
C156 C159 1.499 . S
C157 H131 0.950 . S
C157 C156 1.414 . S
C157 C158 1.374 . S
C158 H132 0.950 . S
C158 C154 1.385 . S
C158 C157 1.374 . S
C159 C156 1.499 . S
C159 C160 1.373 1_455 S
C159 C161 1.389 . S
C160 H133 0.950 . S
C160 C146 1.377 . S
C160 C159 1.373 1_655 S
C161 C145 1.377 . S
C161 C159 1.389 . S
C161 C162 1.524 . S
C162 C161 1.524 . S
C162 C163 1.397 . S
C162 C167 1.363 . S
C163 H134 0.950 . S
C163 C162 1.397 . S
C163 C164 1.334 . S
C164 H135 0.950 . S
C164 C163 1.334 . S
C164 C165 1.287 . S
C165 C164 1.287 . S
C165 C166 1.524 . S
C165 H168 0.999 . S
C166 H136 0.950 . S
C166 C165 1.524 . S
C166 C167 1.415 . S
C167 H137 0.950 1_455 S
C167 C162 1.363 . S
C167 C166 1.415 . S
H168 C165 0.999 . S
H169 C150 0.913 . S
H170 C188 0.951 . S
H171 C190 0.951 . S
H172 C192 0.950 . S
H173 C193 0.950 . S
H174 C195 0.950 . S
H175 C198 0.950 . S
H176 C199 0.950 . S
H177 C201 0.950 . S
H178 C202 0.950 . S
H179 C203 0.951 . S
H180 C205 0.951 . S
H181 C207 0.950 . S
H182 C208 0.950 . S
H183 C210 0.950 . S
H184 C213 0.950 . S
H185 C214 0.950 . S
H186 C216 0.950 . S
H187 C217 0.950 . S
C188 H170 0.951 . S
C188 C189 1.366 . S
C188 C190 1.388 . S
C189 C188 1.366 . S
C189 C193 1.385 1_565 S
C190 H171 0.951 . S
C190 C188 1.388 . S
C190 C191 1.366 1_565 S
C191 C190 1.366 1_545 S
C191 C192 1.414 . S
C191 C194 1.499 . S
C192 H172 0.950 . S
C192 C191 1.414 . S
C192 C193 1.374 . S
C193 H173 0.950 . S
C193 C189 1.385 1_545 S
C193 C192 1.374 . S
C194 C191 1.499 . S
C194 C195 1.373 1_545 S
C194 C196 1.389 . S
C195 H174 0.950 . S
C195 C194 1.373 1_565 S
C195 C211 1.377 . S
C196 C194 1.389 . S
C196 C197 1.524 . S
C196 C210 1.377 . S
C197 C196 1.524 . S
C197 C198 1.397 . S
C197 C202 1.363 . S
C198 H175 0.950 . S
C198 C197 1.397 . S
C198 C199 1.334 . S
C199 H176 0.950 . S
C199 C198 1.334 . S
C199 C200 1.287 . S
C200 C199 1.287 . S
C200 C201 1.524 . S
C200 H219 0.913 . S
C201 H177 0.950 . S
C201 C200 1.524 . S
C201 C202 1.415 . S
C202 H178 0.950 . S
C202 C197 1.363 . S
C202 C201 1.415 . S
C203 H179 0.951 . S
C203 C204 1.366 . S
C203 C205 1.388 . S
C204 C203 1.366 . S
C204 C208 1.385 1_545 S
C205 H180 0.951 . S
C205 C203 1.388 . S
C205 C206 1.371 1_545 S
C206 C205 1.371 1_565 S
C206 C207 1.407 . S
C206 C209 1.500 . S
C207 H181 0.950 . S
C207 C206 1.407 . S
C207 C208 1.374 . S
C208 H182 0.950 . S
C208 C204 1.385 1_565 S
C208 C207 1.374 . S
C209 C206 1.500 . S
C209 C210 1.373 1_565 S
C209 C211 1.389 . S
C210 H183 0.950 . S
C210 C196 1.377 . S
C210 C209 1.373 1_545 S
C211 C195 1.377 . S
C211 C209 1.389 . S
C211 C212 1.524 . S
C212 C211 1.524 . S
C212 C213 1.397 . S
C212 C217 1.363 . S
C213 H184 0.950 . S
C213 C212 1.397 . S
C213 C214 1.334 . S
C214 H185 0.950 . S
C214 C213 1.334 . S
C214 C215 1.287 . S
C215 C214 1.287 . S
C215 C216 1.524 . S
C215 H218 0.999 . S
C216 H186 0.950 . S
C216 C215 1.524 . S
C216 C217 1.415 . S
C217 H187 0.950 . S
C217 C212 1.363 . S
C217 C216 1.415 . S
H218 C215 0.999 . S
H219 C200 0.913 . S
H220 C238 0.951 . S
H221 C240 0.951 . S
H222 C242 0.950 . S
H223 C243 0.950 . S
H224 C245 0.950 . S
H225 C248 0.950 . S
H226 C249 0.950 . S
H227 C251 0.950 . S
H228 C252 0.950 . S
H229 C253 0.951 . S
H230 C255 0.951 . S
H231 C257 0.950 . S
H232 C258 0.950 . S
H233 C260 0.950 . S
H234 C263 0.950 . S
H235 C264 0.950 . S
H236 C266 0.950 . S
H237 C267 0.950 . S
C238 H220 0.951 . S
C238 C239 1.366 . S
C238 C240 1.388 . S
C239 C238 1.366 . S
C239 C243 1.385 . S
C240 H221 0.951 . S
C240 C238 1.388 . S
C240 C241 1.366 . S
C241 C240 1.366 . S
C241 C242 1.414 . S
C241 C244 1.499 . S
C242 H222 0.950 . S
C242 C241 1.414 . S
C242 C243 1.374 . S
C243 H223 0.950 . S
C243 C239 1.385 . S
C243 C242 1.374 . S
C244 C241 1.499 . S
C244 C245 1.373 . S
C244 C246 1.389 . S
C245 H224 0.950 . S
C245 C244 1.373 . S
C245 C261 1.377 . S
C246 C244 1.389 . S
C246 C247 1.524 . S
C246 C260 1.377 . S
C247 C246 1.524 . S
C247 C248 1.397 . S
C247 C252 1.363 . S
C248 H225 0.950 . S
C248 C247 1.397 . S
C248 C249 1.334 . S
C249 H226 0.950 . S
C249 C248 1.334 . S
C249 C250 1.287 . S
C250 C249 1.287 . S
C250 C251 1.524 . S
C250 H269 0.913 . S
C251 H227 0.950 . S
C251 C250 1.524 . S
C251 C252 1.415 . S
C252 H228 0.950 . S
C252 C247 1.363 . S
C252 C251 1.415 . S
C253 H229 0.951 . S
C253 C254 1.366 . S
C253 C255 1.388 . S
C254 C253 1.366 . S
C254 C258 1.385 . S
C255 H230 0.951 . S
C255 C253 1.388 . S
C255 C256 1.366 . S
C256 C255 1.366 . S
C256 C257 1.414 . S
C256 C259 1.499 . S
C257 H231 0.950 . S
C257 C256 1.414 . S
C257 C258 1.374 . S
C258 H232 0.950 . S
C258 C254 1.385 . S
C258 C257 1.374 . S
C259 C256 1.499 . S
C259 C260 1.373 . S
C259 C261 1.389 . S
C260 H233 0.950 . S
C260 C246 1.377 . S
C260 C259 1.373 . S
C261 C245 1.377 . S
C261 C259 1.389 . S
C261 C262 1.524 . S
C262 C261 1.524 . S
C262 C263 1.397 . S
C262 C267 1.363 . S
C263 H234 0.950 . S
C263 C262 1.397 . S
C263 C264 1.334 . S
C264 H235 0.950 . S
C264 C263 1.334 . S
C264 C265 1.287 . S
C265 C264 1.287 . S
C265 C266 1.524 . S
C265 H268 0.999 . S
C266 H236 0.950 . S
C266 C265 1.524 . S
C266 C267 1.415 . S
C267 H237 0.950 . S
C267 C262 1.363 . S
C267 C266 1.415 . S
H268 C265 0.999 . S
H269 C250 0.913 . S
H270 C288 0.951 . S
H271 C290 0.951 . S
H272 C292 0.950 . S
H273 C293 0.950 . S
H274 C295 0.950 . S
H275 C298 0.950 . S
H276 C299 0.950 . S
H277 C301 0.950 . S
H278 C302 0.950 1_556 S
H279 C303 0.951 . S
H280 C305 0.951 . S
H281 C307 0.950 . S
H282 C308 0.950 . S
H283 C310 0.950 . S
H284 C313 0.950 . S
H285 C314 0.950 . S
H286 C316 0.950 . S
H287 C317 0.950 1_554 S
C288 H270 0.951 . S
C288 C289 1.366 . S
C288 C290 1.388 . S
C289 C288 1.366 . S
C289 C293 1.385 1_556 S
C290 H271 0.951 . S
C290 C288 1.388 . S
C290 C291 1.366 . S
C291 C290 1.366 . S
C291 C292 1.414 1_556 S
C291 C294 1.499 . S
C292 H272 0.950 . S
C292 C291 1.414 1_554 S
C292 C293 1.374 . S
C293 H273 0.950 . S
C293 C289 1.385 1_554 S
C293 C292 1.374 . S
C294 C291 1.499 . S
C294 C295 1.373 . S
C294 C296 1.389 1_556 S
C295 H274 0.950 . S
C295 C294 1.373 . S
C295 C311 1.377 . S
C296 C294 1.389 1_554 S
C296 C297 1.524 . S
C296 C310 1.377 . S
C297 C296 1.524 . S
C297 C298 1.397 . S
C297 C302 1.363 . S
C298 H275 0.950 . S
C298 C297 1.397 . S
C298 C299 1.334 . S
C299 H276 0.950 . S
C299 C298 1.334 . S
C299 C300 1.287 . S
C300 C299 1.287 . S
C300 C301 1.524 . S
C300 H319 0.913 . S
C301 H277 0.950 . S
C301 C300 1.524 . S
C301 C302 1.415 . S
C302 H278 0.950 1_554 S
C302 C297 1.363 . S
C302 C301 1.415 . S
C303 H279 0.951 . S
C303 C304 1.366 . S
C303 C305 1.388 . S
C304 C303 1.366 . S
C304 C308 1.385 1_554 S
C305 H280 0.951 . S
C305 C303 1.388 . S
C305 C306 1.366 . S
C306 C305 1.366 . S
C306 C307 1.414 1_554 S
C306 C309 1.499 1_554 S
C307 H281 0.950 . S
C307 C306 1.414 1_556 S
C307 C308 1.374 . S
C308 H282 0.950 . S
C308 C304 1.385 1_556 S
C308 C307 1.374 . S
C309 C306 1.499 1_556 S
C309 C310 1.373 1_556 S
C309 C311 1.389 . S
C310 H283 0.950 . S
C310 C296 1.377 . S
C310 C309 1.373 1_554 S
C311 C295 1.377 . S
C311 C309 1.389 . S
C311 C312 1.524 . S
C312 C311 1.524 . S
C312 C313 1.397 . S
C312 C317 1.363 . S
C313 H284 0.950 . S
C313 C312 1.397 . S
C313 C314 1.334 . S
C314 H285 0.950 . S
C314 C313 1.334 . S
C314 C315 1.287 . S
C315 C314 1.287 . S
C315 C316 1.524 . S
C315 H318 0.999 . S
C316 H286 0.950 . S
C316 C315 1.524 . S
C316 C317 1.415 . S
C317 H287 0.950 1_556 S
C317 C312 1.363 . S
C317 C316 1.415 . S
H318 C315 0.999 . S
H319 C300 0.913 . S
H320 C338 0.951 . S
H321 C340 0.951 . S
H322 C342 0.950 . S
H323 C343 0.950 . S
H324 C345 0.950 . S
H325 C348 0.941 1_554 S
H326 C349 0.950 . S
H327 C351 0.950 . S
H328 C352 0.950 . S
H329 C353 0.951 . S
H330 C355 0.951 . S
H331 C357 0.950 . S
H332 C358 0.950 . S
H333 C360 0.950 . S
H334 C363 0.950 1_556 S
H335 C364 0.950 . S
H336 C366 0.950 . S
H337 C367 0.950 . S
C338 H320 0.951 . S
C338 C339 1.366 . S
C338 C340 1.388 . S
C339 C338 1.366 . S
C339 C343 1.385 1_556 S
C340 H321 0.951 . S
C340 C338 1.388 . S
C340 C341 1.366 . S
C341 C340 1.366 . S
C341 C342 1.414 1_556 S
C341 C344 1.499 . S
C342 H322 0.950 . S
C342 C341 1.414 1_554 S
C342 C343 1.374 . S
C343 H323 0.950 . S
C343 C339 1.385 1_554 S
C343 C342 1.374 . S
C344 C341 1.499 . S
C344 C345 1.373 1_556 S
C344 C346 1.389 . S
C345 H324 0.950 . S
C345 C344 1.373 1_554 S
C345 C361 1.377 . S
C346 C344 1.389 . S
C346 C347 1.524 . S
C346 C360 1.377 . S
C347 C346 1.524 . S
C347 C348 1.397 . S
C347 C352 1.363 . S
C348 H325 0.941 1_556 S
C348 C347 1.397 . S
C348 C349 1.334 . S
C349 H326 0.950 . S
C349 C348 1.334 . S
C349 C350 1.287 . S
C350 C349 1.287 . S
C350 C351 1.524 . S
C350 H369 0.913 . S
C351 H327 0.950 . S
C351 C350 1.524 . S
C351 C352 1.415 . S
C352 H328 0.950 . S
C352 C347 1.363 . S
C352 C351 1.415 . S
C353 H329 0.951 . S
C353 C354 1.366 1_554 S
C353 C355 1.388 . S
C354 C353 1.366 1_556 S
C354 C358 1.385 . S
C355 H330 0.951 . S
C355 C353 1.388 . S
C355 C356 1.366 1_554 S
C356 C355 1.366 1_556 S
C356 C357 1.414 . S
C356 C359 1.499 . S
C357 H331 0.950 . S
C357 C356 1.414 . S
C357 C358 1.374 . S
C358 H332 0.950 . S
C358 C354 1.385 . S
C358 C357 1.374 . S
C359 C356 1.499 . S
C359 C360 1.373 . S
C359 C361 1.389 1_556 S
C360 H333 0.950 . S
C360 C346 1.377 . S
C360 C359 1.373 . S
C361 C345 1.377 . S
C361 C359 1.389 1_554 S
C361 C362 1.524 . S
C362 C361 1.524 . S
C362 C363 1.397 . S
C362 C367 1.363 . S
C363 H334 0.950 1_554 S
C363 C362 1.397 . S
C363 C364 1.334 . S
C364 H335 0.950 . S
C364 C363 1.334 . S
C364 C365 1.287 . S
C365 C364 1.287 . S
C365 C366 1.524 . S
C365 H368 0.999 . S
C366 H336 0.950 . S
C366 C365 1.524 . S
C366 C367 1.415 . S
C367 H337 0.950 . S
C367 C362 1.363 . S
C367 C366 1.415 . S
H368 C365 0.999 . S
H369 C350 0.913 . S
H370 C388 0.951 . S
H371 C390 0.951 . S
H372 C392 0.950 . S
H373 C393 0.950 . S
H374 C395 0.950 . S
H375 C398 0.950 . S
H376 C399 0.950 . S
H377 C401 0.950 . S
H378 C402 0.950 . S
H379 C403 0.951 . S
H380 C405 0.951 . S
H381 C407 0.950 . S
H382 C408 0.950 . S
H383 C410 0.950 . S
H384 C413 0.950 . S
H385 C414 0.950 . S
H386 C416 0.950 . S
H387 C417 0.950 . S
C388 H370 0.951 . S
C388 C389 1.366 . S
C388 C390 1.388 . S
C389 C388 1.366 . S
C389 C393 1.385 1_556 S
C390 H371 0.951 . S
C390 C388 1.388 . S
C390 C391 1.366 . S
C391 C390 1.366 . S
C391 C392 1.414 1_556 S
C391 C394 1.499 . S
C392 H372 0.950 . S
C392 C391 1.414 1_554 S
C392 C393 1.374 . S
C393 H373 0.950 . S
C393 C389 1.385 1_554 S
C393 C392 1.374 . S
C394 C391 1.499 . S
C394 C395 1.373 1_556 S
C394 C396 1.389 . S
C395 H374 0.950 . S
C395 C394 1.373 1_554 S
C395 C411 1.377 . S
C396 C394 1.389 . S
C396 C397 1.524 . S
C396 C410 1.377 . S
C397 C396 1.524 . S
C397 C398 1.397 . S
C397 C402 1.363 . S
C398 H375 0.950 . S
C398 C397 1.397 . S
C398 C399 1.334 . S
C399 H376 0.950 . S
C399 C398 1.334 . S
C399 C400 1.287 . S
C400 C399 1.287 . S
C400 C401 1.524 . S
C400 H419 0.913 . S
C401 H377 0.950 . S
C401 C400 1.524 . S
C401 C402 1.415 . S
C402 H378 0.950 . S
C402 C397 1.363 . S
C402 C401 1.415 . S
C403 H379 0.951 . S
C403 C404 1.366 1_554 S
C403 C405 1.388 . S
C404 C403 1.366 1_556 S
C404 C408 1.385 . S
C405 H380 0.951 . S
C405 C403 1.388 . S
C405 C406 1.366 1_554 S
C406 C405 1.366 1_556 S
C406 C407 1.414 . S
C406 C409 1.499 . S
C407 H381 0.950 . S
C407 C406 1.414 . S
C407 C408 1.374 . S
C408 H382 0.950 . S
C408 C404 1.385 . S
C408 C407 1.374 . S
C409 C406 1.499 . S
C409 C410 1.373 . S
C409 C411 1.389 1_556 S
C410 H383 0.950 . S
C410 C396 1.377 . S
C410 C409 1.373 . S
C411 C395 1.377 . S
C411 C409 1.389 1_554 S
C411 C412 1.524 . S
C412 C411 1.524 . S
C412 C413 1.397 . S
C412 C417 1.363 . S
C413 H384 0.950 . S
C413 C412 1.397 . S
C413 C414 1.334 . S
C414 H385 0.950 . S
C414 C413 1.334 . S
C414 C415 1.287 . S
C415 C414 1.287 . S
C415 C416 1.524 . S
C415 H418 0.999 . S
C416 H386 0.950 . S
C416 C415 1.524 . S
C416 C417 1.415 . S
C417 H387 0.950 . S
C417 C412 1.363 . S
C417 C416 1.415 . S
H418 C415 0.999 . S
H419 C400 0.913 . S
H420 C438 0.951 . S
H421 C440 0.951 . S
H422 C442 0.950 . S
H423 C443 0.950 . S
H424 C445 0.950 . S
H425 C448 0.950 . S
H426 C449 0.950 . S
H427 C451 0.950 . S
H428 C452 0.950 . S
H429 C453 0.951 . S
H430 C455 0.950 1_554 S
H431 C457 0.950 . S
H432 C458 0.950 . S
H433 C460 0.950 . S
H434 C463 0.950 . S
H435 C464 0.950 . S
H436 C466 0.950 . S
H437 C467 0.950 . S
C438 H420 0.951 . S
C438 C439 1.366 . S
C438 C440 1.388 . S
C439 C438 1.366 . S
C439 C443 1.385 . S
C440 H421 0.951 . S
C440 C438 1.388 . S
C440 C441 1.366 . S
C441 C440 1.366 . S
C441 C442 1.414 . S
C441 C444 1.499 . S
C442 H422 0.950 . S
C442 C441 1.414 . S
C442 C443 1.374 . S
C443 H423 0.950 . S
C443 C439 1.385 . S
C443 C442 1.374 . S
C444 C441 1.499 . S
C444 C445 1.373 1_554 S
C444 C446 1.389 . S
C445 H424 0.950 . S
C445 C444 1.373 1_556 S
C445 C461 1.377 . S
C446 C444 1.389 . S
C446 C447 1.524 . S
C446 C460 1.377 . S
C447 C446 1.524 . S
C447 C448 1.397 . S
C447 C452 1.363 . S
C448 H425 0.950 . S
C448 C447 1.397 . S
C448 C449 1.334 . S
C449 H426 0.950 . S
C449 C448 1.334 . S
C449 C450 1.287 . S
C450 C449 1.287 . S
C450 C451 1.524 . S
C450 H469 0.913 . S
C451 H427 0.950 . S
C451 C450 1.524 . S
C451 C452 1.415 . S
C452 H428 0.950 . S
C452 C447 1.363 . S
C452 C451 1.415 . S
C453 H429 0.951 . S
C453 C454 1.366 . S
C453 C455 1.388 . S
C454 C453 1.366 . S
C454 C458 1.385 . S
C455 H430 0.950 1_556 S
C455 C453 1.388 . S
C455 C456 1.366 . S
C456 C455 1.366 . S
C456 C457 1.414 . S
C456 C459 1.499 . S
C457 H431 0.950 . S
C457 C456 1.414 . S
C457 C458 1.374 . S
C458 H432 0.950 . S
C458 C454 1.385 . S
C458 C457 1.374 . S
C459 C456 1.499 . S
C459 C460 1.373 1_556 S
C459 C461 1.389 . S
C460 H433 0.950 . S
C460 C446 1.377 . S
C460 C459 1.373 1_554 S
C461 C445 1.377 . S
C461 C459 1.389 . S
C461 C462 1.524 . S
C462 C461 1.524 . S
C462 C463 1.397 . S
C462 C467 1.363 . S
C463 H434 0.950 . S
C463 C462 1.397 . S
C463 C464 1.334 . S
C464 H435 0.950 . S
C464 C463 1.334 . S
C464 C465 1.287 . S
C465 C464 1.287 . S
C465 C466 1.524 . S
C465 H468 0.999 . S
C466 H436 0.950 . S
C466 C465 1.524 . S
C466 C467 1.415 . S
C467 H437 0.950 . S
C467 C462 1.363 . S
C467 C466 1.415 . S
H468 C465 0.999 . S
H469 C450 0.913 . S
H470 C488 0.951 . S
H471 C490 0.951 . S
H472 C492 0.950 . S
H473 C493 0.950 . S
H474 C495 0.950 1_556 S
H475 C498 0.950 . S
H476 C499 0.950 . S
H477 C501 0.950 . S
H478 C502 0.950 1_556 S
H479 C503 0.951 . S
H480 C505 0.951 . S
H481 C507 0.950 . S
H482 C508 0.950 . S
H483 C510 0.950 . S
H484 C513 0.950 . S
H485 C514 0.950 . S
H486 C516 0.949 . S
H487 C517 0.950 . S
C488 H470 0.951 . S
C488 C489 1.366 1_556 S
C488 C490 1.388 . S
C489 C488 1.366 1_554 S
C489 C493 1.385 . S
C490 H471 0.951 . S
C490 C488 1.388 . S
C490 C491 1.366 1_556 S
C491 C490 1.366 1_554 S
C491 C492 1.414 . S
C491 C494 1.499 . S
C492 H472 0.950 . S
C492 C491 1.414 . S
C492 C493 1.374 . S
C493 H473 0.950 . S
C493 C489 1.385 . S
C493 C492 1.374 . S
C494 C491 1.499 . S
C494 C495 1.373 . S
C494 C496 1.389 . S
C495 H474 0.950 1_554 S
C495 C494 1.373 . S
C495 C511 1.377 1_554 S
C496 C494 1.389 . S
C496 C497 1.524 . S
C496 C510 1.377 . S
C497 C496 1.524 . S
C497 C498 1.397 . S
C497 C502 1.363 . S
C498 H475 0.950 . S
C498 C497 1.397 . S
C498 C499 1.334 . S
C499 H476 0.950 . S
C499 C498 1.334 . S
C499 C500 1.287 . S
C500 C499 1.287 . S
C500 C501 1.524 . S
C500 H519 0.913 . S
C501 H477 0.950 . S
C501 C500 1.524 . S
C501 C502 1.415 . S
C502 H478 0.950 1_554 S
C502 C497 1.363 . S
C502 C501 1.415 . S
C503 H479 0.951 . S
C503 C504 1.366 . S
C503 C505 1.388 . S
C504 C503 1.366 . S
C504 C508 1.385 1_554 S
C505 H480 0.951 . S
C505 C503 1.388 . S
C505 C506 1.366 . S
C506 C505 1.366 . S
C506 C507 1.414 1_554 S
C506 C509 1.499 . S
C507 H481 0.950 . S
C507 C506 1.414 1_556 S
C507 C508 1.374 . S
C508 H482 0.950 . S
C508 C504 1.385 1_556 S
C508 C507 1.374 . S
C509 C506 1.499 . S
C509 C510 1.373 . S
C509 C511 1.389 1_554 S
C510 H483 0.950 . S
C510 C496 1.377 . S
C510 C509 1.373 . S
C511 C495 1.377 1_556 S
C511 C509 1.389 1_556 S
C511 C512 1.524 . S
C512 C511 1.524 . S
C512 C513 1.397 . S
C512 C517 1.363 1_556 S
C513 H484 0.950 . S
C513 C512 1.397 . S
C513 C514 1.334 . S
C514 H485 0.950 . S
C514 C513 1.334 . S
C514 C515 1.287 . S
C515 C514 1.287 . S
C515 C516 1.524 . S
C515 H518 0.999 . S
C516 H486 0.949 . S
C516 C515 1.524 . S
C516 C517 1.415 1_556 S
C517 H487 0.950 . S
C517 C512 1.363 1_554 S
C517 C516 1.415 1_554 S
H518 C515 0.999 . S
H519 C500 0.913 . S
H520 C538 0.951 . S
H521 C540 0.951 . S
H522 C542 0.950 . S
H523 C543 0.950 . S
H524 C545 0.950 . S
H525 C548 0.950 . S
H526 C549 0.950 . S
H527 C551 0.950 . S
H528 C552 0.950 . S
H529 C553 0.951 . S
H530 C555 0.951 . S
H531 C557 0.950 . S
H532 C558 0.950 . S
H533 C560 0.950 . S
H534 C563 0.950 . S
H535 C564 0.950 . S
H536 C566 0.950 . S
H537 C567 0.950 . S
C538 H520 0.951 . S
C538 C539 1.366 1_556 S
C538 C540 1.388 . S
C539 C538 1.366 1_554 S
C539 C543 1.385 . S
C540 H521 0.951 . S
C540 C538 1.388 . S
C540 C541 1.366 1_556 S
C541 C540 1.366 1_554 S
C541 C542 1.414 . S
C541 C544 1.499 . S
C542 H522 0.950 . S
C542 C541 1.414 . S
C542 C543 1.374 . S
C543 H523 0.950 . S
C543 C539 1.385 . S
C543 C542 1.374 . S
C544 C541 1.499 . S
C544 C545 1.373 . S
C544 C546 1.389 1_554 S
C545 H524 0.950 . S
C545 C544 1.373 . S
C545 C561 1.377 . S
C546 C544 1.389 1_556 S
C546 C547 1.524 . S
C546 C560 1.377 . S
C547 C546 1.524 . S
C547 C548 1.397 . S
C547 C552 1.363 . S
C548 H525 0.950 . S
C548 C547 1.397 . S
C548 C549 1.334 . S
C549 H526 0.950 . S
C549 C548 1.334 . S
C549 C550 1.287 . S
C550 C549 1.287 . S
C550 C551 1.524 . S
C550 H569 0.913 . S
C551 H527 0.950 . S
C551 C550 1.524 . S
C551 C552 1.415 . S
C552 H528 0.950 . S
C552 C547 1.363 . S
C552 C551 1.415 . S
C553 H529 0.951 . S
C553 C554 1.366 . S
C553 C555 1.388 . S
C554 C553 1.366 . S
C554 C558 1.385 1_554 S
C555 H530 0.951 . S
C555 C553 1.388 . S
C555 C556 1.366 . S
C556 C555 1.366 . S
C556 C557 1.414 1_554 S
C556 C559 1.499 . S
C557 H531 0.950 . S
C557 C556 1.414 1_556 S
C557 C558 1.374 . S
C558 H532 0.950 . S
C558 C554 1.385 1_556 S
C558 C557 1.374 . S
C559 C556 1.499 . S
C559 C560 1.373 1_554 S
C559 C561 1.389 . S
C560 H533 0.950 . S
C560 C546 1.377 . S
C560 C559 1.373 1_556 S
C561 C545 1.377 . S
C561 C559 1.389 . S
C561 C562 1.524 . S
C562 C561 1.524 . S
C562 C563 1.397 . S
C562 C567 1.363 . S
C563 H534 0.950 . S
C563 C562 1.397 . S
C563 C564 1.334 . S
C564 H535 0.950 . S
C564 C563 1.334 . S
C564 C565 1.287 . S
C565 C564 1.287 . S
C565 C566 1.524 . S
C565 H568 0.999 . S
C566 H536 0.950 . S
C566 C565 1.524 . S
C566 C567 1.415 . S
C567 H537 0.950 . S
C567 C562 1.363 . S
C567 C566 1.415 . S
H568 C565 0.999 . S
H569 C550 0.913 . S
C139 C15 1.474 . S
C154 C2 1.471 . S
C189 C42 1.464 1_565 S
C204 C55 1.464 1_545 S
C239 C82 1.468 . S
C254 C95 1.468 . S
C289 C9 0.869 . S
C304 C89 0.865 . S
C339 C49 1.855 . S
C354 C3 1.909 . S
C389 C43 2.581 . S
C404 C102 2.601 . S
C439 C26 0.869 . S
C454 C106 0.865 . S
C489 C22 1.909 . S
C504 C66 1.855 . S
C539 C83 2.600 . S
C554 C62 2.580 . S
