# Generated by pormake.
# Topology vmf, (6)-cn, num edge types: 1
# Building blocks:
#     Node 0, Type 0, BuildingBlock: OJICUG_clean_sbu_0, # of connection points: 6
#     Node 1, Type 0, BuildingBlock: OJICUG_clean_sbu_0, # of connection points: 6
#     Node 2, Type 0, BuildingBlock: OJICUG_clean_sbu_0, # of connection points: 6
#     Node 3, Type 0, BuildingBlock: OJICUG_clean_sbu_0, # of connection points: 6
#     Node 4, Type 0, BuildingBlock: OJICUG_clean_sbu_0, # of connection points: 6
#     Node 5, Type 0, BuildingBlock: OJICUG_clean_sbu_0, # of connection points: 6
#     Node 6, Type 0, BuildingBlock: OJICUG_clean_sbu_0, # of connection points: 6
#     Node 7, Type 0, BuildingBlock: OJICUG_clean_sbu_0, # of connection points: 6
#     Edge 8, Type (0, 0), BuildingBlock: MIFKUJ_clean_linker_0, # of connection points: 2
#     Edge 9, Type (0, 0), BuildingBlock: MIFKUJ_clean_linker_0, # of connection points: 2
#     Edge 10, Type (0, 0), BuildingBlock: MIFKUJ_clean_linker_0, # of connection points: 2
#     Edge 11, Type (0, 0), BuildingBlock: MIFKUJ_clean_linker_0, # of connection points: 2
#     Edge 12, Type (0, 0), BuildingBlock: MIFKUJ_clean_linker_0, # of connection points: 2
#     Edge 13, Type (0, 0), BuildingBlock: MIFKUJ_clean_linker_0, # of connection points: 2
#     Edge 14, Type (0, 0), BuildingBlock: MIFKUJ_clean_linker_0, # of connection points: 2
#     Edge 15, Type (0, 0), BuildingBlock: MIFKUJ_clean_linker_0, # of connection points: 2
#     Edge 16, Type (0, 0), BuildingBlock: MIFKUJ_clean_linker_0, # of connection points: 2
#     Edge 17, Type (0, 0), BuildingBlock: MIFKUJ_clean_linker_0, # of connection points: 2
#     Edge 18, Type (0, 0), BuildingBlock: MIFKUJ_clean_linker_0, # of connection points: 2
#     Edge 19, Type (0, 0), BuildingBlock: MIFKUJ_clean_linker_0, # of connection points: 2
#     Edge 20, Type (0, 0), BuildingBlock: MIFKUJ_clean_linker_0, # of connection points: 2
#     Edge 21, Type (0, 0), BuildingBlock: MIFKUJ_clean_linker_0, # of connection points: 2
#     Edge 22, Type (0, 0), BuildingBlock: MIFKUJ_clean_linker_0, # of connection points: 2
#     Edge 23, Type (0, 0), BuildingBlock: MIFKUJ_clean_linker_0, # of connection points: 2
#     Edge 24, Type (0, 0), BuildingBlock: MIFKUJ_clean_linker_0, # of connection points: 2
#     Edge 25, Type (0, 0), BuildingBlock: MIFKUJ_clean_linker_0, # of connection points: 2
#     Edge 26, Type (0, 0), BuildingBlock: MIFKUJ_clean_linker_0, # of connection points: 2
#     Edge 27, Type (0, 0), BuildingBlock: MIFKUJ_clean_linker_0, # of connection points: 2
#     Edge 28, Type (0, 0), BuildingBlock: MIFKUJ_clean_linker_0, # of connection points: 2
#     Edge 29, Type (0, 0), BuildingBlock: MIFKUJ_clean_linker_0, # of connection points: 2
#     Edge 30, Type (0, 0), BuildingBlock: MIFKUJ_clean_linker_0, # of connection points: 2
#     Edge 31, Type (0, 0), BuildingBlock: MIFKUJ_clean_linker_0, # of connection points: 2
# Relax obj value: 0.306
# Max RMSD: 0.281
# Mean RMSD: 0.281
data_MOF--net-vmf--node1-OJICUG_clean_sbu_0--edge1-MIFKUJ_clean_linker_0
_symmetry_space_group_name_H-M    P1
_symmetry_Int_Tables_number       1
_symmetry_cell_setting            triclinic
loop_
_symmetry_equiv_pos_as_xyz
'x, y, z'
_cell_length_a     37.276523
_cell_length_b     55.63658
_cell_length_c     36.591217
_cell_angle_alpha  89.991757
_cell_angle_beta   99.399976
_cell_angle_gamma 90.033331
loop_
_atom_site_label
_atom_site_type_symbol
_atom_site_fract_x
_atom_site_fract_y
_atom_site_fract_z
_atom_type_partial_charge
Sc0 Sc 0.17736 0.32907 0.19292 0.0
Sc1 Sc 0.17837 0.27696 0.24657 0.0
Sc2 Sc 0.1185 0.32466 0.25859 0.0
O3 O 0.15803 0.31022 0.23288 0.0
C4 C 0.16381 0.37167 0.24755 0.0
C5 C 0.24979 0.3069 0.2348 0.0
C6 C 0.17348 0.30044 0.32524 0.0
C7 C 0.17752 0.27536 0.16095 0.0
C8 C 0.09183 0.33572 0.17191 0.0
C9 C 0.09508 0.26951 0.25472 0.0
O10 O 0.17735 0.36295 0.22085 0.0
O11 O 0.23385 0.28829 0.24475 0.0
O12 O 0.1482 0.31551 0.31371 0.0
O13 O 0.18115 0.29799 0.15914 0.0
O14 O 0.08513 0.33397 0.20504 0.0
O15 O 0.12582 0.26115 0.25024 0.0
O16 O 0.12359 0.33415 0.16383 0.0
O17 O 0.17262 0.26465 0.19036 0.0
O18 O 0.08901 0.2918 0.25717 0.0
O19 O 0.23264 0.32462 0.21853 0.0
O20 O 0.14261 0.35983 0.26456 0.0
O21 O 0.18663 0.28607 0.30391 0.0
Sc22 Sc 0.86244 0.32267 0.73141 0.0
Sc23 Sc 0.80045 0.27888 0.7514 0.0
Sc24 Sc 0.7927 0.33881 0.78012 0.0
O25 O 0.81837 0.31341 0.75423 0.0
C26 C 0.87699 0.34714 0.8115 0.0
C27 C 0.88456 0.26946 0.76026 0.0
C28 C 0.78785 0.29338 0.83209 0.0
C29 C 0.81883 0.28894 0.67015 0.0
C30 C 0.81505 0.37029 0.71558 0.0
C31 C 0.72619 0.30905 0.73753 0.0
O32 O 0.88879 0.33642 0.78491 0.0
O33 O 0.85374 0.2633 0.76761 0.0
O34 O 0.78746 0.3158 0.82577 0.0
O35 O 0.83768 0.30802 0.67788 0.0
O36 O 0.79324 0.36492 0.73743 0.0
O37 O 0.74464 0.29003 0.73495 0.0
O38 O 0.84273 0.35768 0.71267 0.0
O39 O 0.80603 0.27652 0.69423 0.0
O40 O 0.74004 0.32823 0.75248 0.0
O41 O 0.8899 0.2895 0.74563 0.0
O42 O 0.84337 0.35128 0.81141 0.0
O43 O 0.79311 0.27776 0.80825 0.0
Sc44 Sc 0.8726 0.66337 0.73117 0.0
Sc45 Sc 0.81262 0.70725 0.75498 0.0
Sc46 Sc 0.81121 0.6488 0.79114 0.0
O47 O 0.83195 0.67317 0.75894 0.0
C48 C 0.82445 0.61556 0.72487 0.0
C49 C 0.81859 0.69319 0.67135 0.0
C50 C 0.73984 0.67705 0.75676 0.0
C51 C 0.89556 0.71759 0.75206 0.0
C52 C 0.89699 0.64094 0.81177 0.0
C53 C 0.81557 0.69624 0.84031 0.0
O54 O 0.85116 0.62786 0.71778 0.0
O55 O 0.80761 0.70606 0.69603 0.0
O56 O 0.75582 0.65853 0.77166 0.0
O57 O 0.9007 0.69687 0.73958 0.0
O58 O 0.86435 0.63656 0.81564 0.0
O59 O 0.81568 0.71074 0.81354 0.0
O60 O 0.90522 0.65142 0.78315 0.0
O61 O 0.86554 0.72387 0.76114 0.0
O62 O 0.81388 0.67356 0.83638 0.0
O63 O 0.84189 0.67624 0.67873 0.0
O64 O 0.8056 0.6217 0.74917 0.0
O65 O 0.75681 0.69567 0.7489 0.0
Sc66 Sc 0.20109 0.66627 0.19987 0.0
Sc67 Sc 0.19765 0.71968 0.24871 0.0
Sc68 Sc 0.13488 0.67328 0.25732 0.0
O69 O 0.17781 0.68633 0.23556 0.0
C70 C 0.1167 0.65957 0.17068 0.0
C71 C 0.20247 0.71904 0.16477 0.0
C72 C 0.11264 0.72819 0.24693 0.0
C73 C 0.27068 0.68941 0.24437 0.0
C74 C 0.18092 0.62561 0.25486 0.0
C75 C 0.18614 0.69853 0.32641 0.0
O76 O 0.14961 0.66113 0.16596 0.0
O77 O 0.19374 0.73037 0.19208 0.0
O78 O 0.10502 0.70604 0.24787 0.0
O79 O 0.25458 0.67057 0.23074 0.0
O80 O 0.1587 0.63835 0.26925 0.0
O81 O 0.20309 0.71125 0.30597 0.0
O82 O 0.19686 0.63322 0.22903 0.0
O83 O 0.25362 0.7086 0.24975 0.0
O84 O 0.15945 0.68474 0.31361 0.0
O85 O 0.20875 0.69658 0.16548 0.0
O86 O 0.10676 0.66173 0.20242 0.0
O87 O 0.14498 0.73592 0.24905 0.0
Sc88 Sc 0.69945 0.84668 0.20692 0.0
Sc89 Sc 0.69598 0.78679 0.23613 0.0
Sc90 Sc 0.63073 0.82833 0.25649 0.0
O91 O 0.67544 0.82062 0.2334 0.0
C92 C 0.67547 0.87693 0.2729 0.0
C93 C 0.76845 0.81941 0.24727 0.0
C94 C 0.6801 0.79597 0.31786 0.0
C95 C 0.70437 0.80098 0.15496 0.0
C96 C 0.61479 0.85375 0.17642 0.0
C97 C 0.61128 0.77539 0.22661 0.0
O98 O 0.69469 0.87366 0.24775 0.0
O99 O 0.75159 0.79949 0.24722 0.0
O100 O 0.65477 0.81149 0.30917 0.0
O101 O 0.708 0.82323 0.16244 0.0
O102 O 0.6036 0.84468 0.20469 0.0
O103 O 0.64369 0.76894 0.22527 0.0
O104 O 0.64835 0.85614 0.17454 0.0
O105 O 0.69716 0.78545 0.1781 0.0
O106 O 0.60336 0.79607 0.23723 0.0
O107 O 0.75275 0.83892 0.23607 0.0
O108 O 0.65128 0.86215 0.27907 0.0
O109 O 0.69654 0.78586 0.29425 0.0
Sc110 Sc 0.37366 0.83085 0.73752 0.0
Sc111 Sc 0.31962 0.78735 0.77065 0.0
Sc112 Sc 0.31413 0.84775 0.79647 0.0
O113 O 0.33504 0.82178 0.76759 0.0
C114 C 0.39713 0.85705 0.81332 0.0
C115 C 0.40115 0.77825 0.76252 0.0
C116 C 0.33005 0.80546 0.85466 0.0
C117 C 0.3204 0.79713 0.68392 0.0
C118 C 0.32012 0.87632 0.72577 0.0
C119 C 0.24503 0.81399 0.77478 0.0
O120 O 0.40673 0.84325 0.78883 0.0
O121 O 0.37375 0.77271 0.77716 0.0
O122 O 0.32805 0.82774 0.84672 0.0
O123 O 0.34093 0.8158 0.68789 0.0
O124 O 0.29929 0.86907 0.74768 0.0
O125 O 0.2631 0.79652 0.76488 0.0
O126 O 0.35026 0.86607 0.72365 0.0
O127 O 0.31278 0.78471 0.71104 0.0
O128 O 0.2599 0.83326 0.78819 0.0
O129 O 0.4031 0.79783 0.74538 0.0
O130 O 0.36551 0.86614 0.80909 0.0
O131 O 0.32558 0.78886 0.83026 0.0
Sc132 Sc 0.35982 0.16709 0.7346 0.0
Sc133 Sc 0.30387 0.20942 0.7688 0.0
Sc134 Sc 0.30281 0.14891 0.79646 0.0
O135 O 0.32178 0.17521 0.76631 0.0
C136 C 0.31099 0.11932 0.72551 0.0
C137 C 0.30466 0.20039 0.68189 0.0
C138 C 0.23097 0.1795 0.77136 0.0
C139 C 0.38489 0.22024 0.75967 0.0
C140 C 0.38844 0.14055 0.81073 0.0
C141 C 0.31316 0.19277 0.85307 0.0
O142 O 0.33783 0.13189 0.71935 0.0
O143 O 0.29608 0.21209 0.7092 0.0
O144 O 0.24717 0.16031 0.78333 0.0
O145 O 0.38792 0.20051 0.74328 0.0
O146 O 0.3563 0.13455 0.81438 0.0
O147 O 0.31022 0.20907 0.82836 0.0
O148 O 0.39521 0.15341 0.78371 0.0
O149 O 0.35727 0.22555 0.77417 0.0
O150 O 0.31119 0.17048 0.84553 0.0
O151 O 0.32624 0.18231 0.68568 0.0
O152 O 0.29252 0.12466 0.75054 0.0
O153 O 0.24785 0.19832 0.76408 0.0
Sc154 Sc 0.69028 0.15409 0.21278 0.0
Sc155 Sc 0.68019 0.21139 0.24996 0.0
Sc156 Sc 0.61362 0.16673 0.25419 0.0
O157 O 0.6614 0.17741 0.23918 0.0
C158 C 0.60891 0.14707 0.1708 0.0
C159 C 0.70256 0.20338 0.17175 0.0
C160 C 0.59513 0.22092 0.2294 0.0
C161 C 0.7532 0.17944 0.26697 0.0
C162 C 0.65945 0.11866 0.26895 0.0
C163 C 0.65138 0.19721 0.32428 0.0
O164 O 0.64324 0.14646 0.17237 0.0
O165 O 0.69123 0.21696 0.19522 0.0
O166 O 0.58665 0.1995 0.23609 0.0
O167 O 0.73961 0.16073 0.25022 0.0
O168 O 0.63383 0.13238 0.27467 0.0
O169 O 0.67072 0.20941 0.30559 0.0
O170 O 0.68103 0.12402 0.24677 0.0
O171 O 0.73537 0.19892 0.26805 0.0
O172 O 0.62964 0.18057 0.31052 0.0
O173 O 0.70488 0.18073 0.1754 0.0
O174 O 0.59379 0.15279 0.19854 0.0
O175 O 0.62783 0.22821 0.23315 0.0
H176 H 0.52649 0.21108 0.19539 0.0
H177 H 0.47355 0.2371 0.19117 0.0
H178 H 0.54197 0.29563 0.23813 0.0
H179 H 0.59545 0.26939 0.24279 0.0
H180 H 0.48746 0.28689 0.27649 0.0
H181 H 0.49727 0.29828 0.14978 0.0
H182 H 0.50459 0.28644 0.08652 0.0
H183 H 0.40425 0.24708 0.07427 0.0
H184 H 0.3967 0.25812 0.13773 0.0
H185 H 0.29256 0.33901 0.20504 0.0
H186 H 0.35737 0.33555 0.20271 0.0
H187 H 0.36295 0.27138 0.26946 0.0
H188 H 0.298 0.27455 0.27195 0.0
H189 H 0.38635 0.29582 0.17112 0.0
H190 H 0.44803 0.26974 0.322 0.0
H191 H 0.4393 0.2799 0.38555 0.0
H192 H 0.39574 0.34869 0.34819 0.0
H193 H 0.40473 0.33912 0.28452 0.0
C194 C 0.53043 0.22965 0.20407 0.0
C195 C 0.56502 0.23816 0.21978 0.0
C196 C 0.50015 0.24456 0.20138 0.0
C197 C 0.50384 0.26832 0.21425 0.0
C198 C 0.53863 0.27735 0.22796 0.0
C199 C 0.56913 0.26241 0.23043 0.0
C200 C 0.4708 0.28232 0.21764 0.0
C201 C 0.46553 0.2892 0.25333 0.0
C202 C 0.44231 0.28547 0.18732 0.0
C203 C 0.44655 0.27897 0.14879 0.0
C204 C 0.47689 0.28694 0.13376 0.0
C205 C 0.48107 0.28036 0.09781 0.0
C206 C 0.45493 0.266 0.07641 0.0
C207 C 0.4245 0.2582 0.09089 0.0
C208 C 0.42025 0.26462 0.12687 0.0
C209 C 0.30761 0.32441 0.21994 0.0
C210 C 0.28995 0.30693 0.23851 0.0
C211 C 0.34466 0.32247 0.21845 0.0
C212 C 0.36482 0.30326 0.23589 0.0
C213 C 0.34781 0.28648 0.25606 0.0
C214 C 0.31067 0.28827 0.25735 0.0
C215 C 0.40263 0.29921 0.23004 0.0
C216 C 0.40864 0.29411 0.194 0.0
C217 C 0.43167 0.29752 0.25997 0.0
C218 C 0.42689 0.30363 0.29839 0.0
C219 C 0.43683 0.28711 0.32736 0.0
C220 C 0.43177 0.29275 0.36341 0.0
C221 C 0.41689 0.3149 0.37089 0.0
C222 C 0.40716 0.3315 0.34235 0.0
C223 C 0.41219 0.32596 0.30626 0.0
H224 H 0.41293 0.31921 0.3988 0.0
H225 H 0.45826 0.26091 0.04861 0.0
H226 H 0.67683 0.34496 0.74231 0.0
H227 H 0.6124 0.33952 0.74533 0.0
H228 H 0.62007 0.26492 0.7158 0.0
H229 H 0.68448 0.26997 0.71295 0.0
H230 H 0.54713 0.31927 0.70091 0.0
H231 H 0.59285 0.23395 0.78603 0.0
H232 H 0.65038 0.21802 0.82043 0.0
H233 H 0.6886 0.28983 0.84598 0.0
H234 H 0.63094 0.30618 0.81266 0.0
H235 H 0.42049 0.22894 0.70289 0.0
H236 H 0.47264 0.25508 0.70186 0.0
H237 H 0.46861 0.27729 0.81409 0.0
H238 H 0.41524 0.2511 0.81503 0.0
H239 H 0.53809 0.26027 0.80098 0.0
H240 H 0.45135 0.31883 0.75354 0.0
H241 H 0.39616 0.33513 0.7153 0.0
H242 H 0.43998 0.31939 0.61652 0.0
H243 H 0.49523 0.30265 0.6541 0.0
C244 C 0.66465 0.32754 0.73535 0.0
C245 C 0.68609 0.3077 0.72844 0.0
C246 C 0.62776 0.32454 0.73696 0.0
C247 C 0.61196 0.30172 0.73169 0.0
C248 C 0.63215 0.2826 0.7205 0.0
C249 C 0.66898 0.28554 0.71888 0.0
C250 C 0.57663 0.29681 0.74332 0.0
C251 C 0.54496 0.30658 0.72296 0.0
C252 C 0.57432 0.28105 0.77323 0.0
C253 C 0.60762 0.27129 0.7965 0.0
C254 C 0.6133 0.24634 0.7994 0.0
C255 C 0.64603 0.23724 0.81857 0.0
C256 C 0.67328 0.25291 0.83503 0.0
C257 C 0.66764 0.27772 0.83288 0.0
C258 C 0.63487 0.2869 0.81398 0.0
C259 C 0.43039 0.2396 0.72724 0.0
C260 C 0.4141 0.23796 0.75913 0.0
C261 C 0.46001 0.25465 0.72652 0.0
C262 C 0.47424 0.26821 0.75779 0.0
C263 C 0.45772 0.26703 0.78963 0.0
C264 C 0.42736 0.25219 0.79012 0.0
C265 C 0.50823 0.28176 0.75723 0.0
C266 C 0.54001 0.27357 0.7797 0.0
C267 C 0.51058 0.29927 0.72963 0.0
C268 C 0.47747 0.30942 0.70672 0.0
C269 C 0.44915 0.3187 0.72366 0.0
C270 C 0.41785 0.32804 0.70209 0.0
C271 C 0.41456 0.32829 0.66351 0.0
C272 C 0.44259 0.31922 0.64641 0.0
C273 C 0.47395 0.30984 0.66785 0.0
H274 H 0.3903 0.33552 0.64686 0.0
H275 H 0.69861 0.24583 0.84979 0.0
H276 H 0.4573 0.78092 0.72381 0.0
H277 H 0.50675 0.75268 0.72364 0.0
H278 H 0.46428 0.70817 0.80314 0.0
H279 H 0.4139 0.73666 0.80357 0.0
H280 H 0.54041 0.71737 0.81991 0.0
H281 H 0.45587 0.68664 0.72037 0.0
H282 H 0.40956 0.68831 0.66404 0.0
H283 H 0.48764 0.71916 0.60345 0.0
H284 H 0.53431 0.71805 0.65954 0.0
H285 H 0.69478 0.64872 0.79024 0.0
H286 H 0.63 0.65509 0.79103 0.0
H287 H 0.62967 0.71401 0.71436 0.0
H288 H 0.69438 0.7079 0.71347 0.0
H289 H 0.56677 0.68517 0.70056 0.0
H290 H 0.64464 0.72478 0.80344 0.0
H291 H 0.69096 0.72523 0.85992 0.0
H292 H 0.62441 0.67875 0.91445 0.0
H293 H 0.578 0.67763 0.85799 0.0
C294 C 0.45825 0.76519 0.74138 0.0
C295 C 0.43154 0.76105 0.7637 0.0
C296 C 0.48647 0.74895 0.741 0.0
C297 C 0.48873 0.72818 0.76286 0.0
C298 C 0.46265 0.72404 0.7858 0.0
C299 C 0.434 0.7403 0.786 0.0
C300 C 0.51955 0.71163 0.76214 0.0
C301 C 0.54575 0.7096 0.79413 0.0
C302 C 0.52647 0.70179 0.72834 0.0
C303 C 0.49862 0.70229 0.69427 0.0
C304 C 0.46314 0.69391 0.6951 0.0
C305 C 0.43681 0.69474 0.66319 0.0
C306 C 0.44564 0.70384 0.63019 0.0
C307 C 0.48085 0.71209 0.62902 0.0
C308 C 0.50728 0.71131 0.66086 0.0
C309 C 0.68075 0.66269 0.77287 0.0
C310 C 0.69977 0.67802 0.7521 0.0
C311 C 0.64379 0.66631 0.77348 0.0
C312 C 0.62532 0.68516 0.75309 0.0
C313 C 0.64358 0.69937 0.73032 0.0
C314 C 0.68057 0.69594 0.72997 0.0
C315 C 0.58808 0.69182 0.75793 0.0
C316 C 0.56082 0.69206 0.72666 0.0
C317 C 0.58022 0.70005 0.79238 0.0
C318 C 0.60815 0.70076 0.82628 0.0
C319 C 0.64007 0.71443 0.82732 0.0
C320 C 0.66631 0.71485 0.85934 0.0
C321 C 0.66072 0.7019 0.89065 0.0
C322 C 0.62878 0.68865 0.89009 0.0
C323 C 0.60253 0.68809 0.85808 0.0
H324 H 0.68109 0.70216 0.91535 0.0
H325 H 0.42521 0.70448 0.60552 0.0
H326 H 0.31749 0.65242 0.23605 0.0
H327 H 0.38203 0.65593 0.231 0.0
H328 H 0.37908 0.73145 0.25624 0.0
H329 H 0.31499 0.72828 0.26181 0.0
H330 H 0.3982 0.70777 0.17816 0.0
H331 H 0.42411 0.7135 0.3156 0.0
H332 H 0.42356 0.69578 0.37731 0.0
H333 H 0.48311 0.63467 0.34781 0.0
H334 H 0.48352 0.65194 0.2857 0.0
H335 H 0.54091 0.78635 0.20178 0.0
H336 H 0.48877 0.75994 0.19756 0.0
H337 H 0.55988 0.69914 0.22562 0.0
H338 H 0.61289 0.72601 0.23078 0.0
H339 H 0.5112 0.70068 0.26959 0.0
H340 H 0.50317 0.70357 0.14011 0.0
H341 H 0.50211 0.71936 0.07702 0.0
H342 H 0.4068 0.76077 0.08598 0.0
H343 H 0.40784 0.7459 0.14947 0.0
C344 C 0.33078 0.66966 0.24156 0.0
C345 C 0.31091 0.69014 0.24904 0.0
C346 C 0.36764 0.67156 0.2387 0.0
C347 C 0.38506 0.6939 0.2434 0.0
C348 C 0.36597 0.71402 0.25289 0.0
C349 C 0.32932 0.71214 0.25605 0.0
C350 C 0.42135 0.69739 0.23328 0.0
C351 C 0.42303 0.7062 0.19782 0.0
C352 C 0.45364 0.69407 0.25868 0.0
C353 C 0.45334 0.6838 0.29591 0.0
C354 C 0.43667 0.69615 0.32213 0.0
C355 C 0.4365 0.68623 0.35721 0.0
C356 C 0.45315 0.66406 0.36643 0.0
C357 C 0.47013 0.6518 0.34061 0.0
C358 C 0.47034 0.66165 0.30548 0.0
C359 C 0.54561 0.76729 0.20637 0.0
C360 C 0.58095 0.75827 0.2171 0.0
C361 C 0.51569 0.7521 0.2035 0.0
C362 C 0.52032 0.72746 0.21092 0.0
C363 C 0.55572 0.71809 0.21959 0.0
C364 C 0.58593 0.7334 0.2224 0.0
C365 C 0.48794 0.71278 0.21467 0.0
C366 C 0.48675 0.70164 0.249 0.0
C367 C 0.45589 0.7139 0.18788 0.0
C368 C 0.45571 0.72358 0.14985 0.0
C369 C 0.48223 0.71627 0.12888 0.0
C370 C 0.48161 0.72507 0.09297 0.0
C371 C 0.45444 0.74109 0.07752 0.0
C372 C 0.42787 0.74839 0.09799 0.0
C373 C 0.42848 0.73977 0.13398 0.0
H374 H 0.45396 0.74781 0.04968 0.0
H375 H 0.45301 0.65641 0.3936 0.0
H376 H 0.04178 0.71979 0.21878 0.0
H377 H 0.99018 0.74648 0.21948 0.0
H378 H 0.0623 0.80215 0.27001 0.0
H379 H 0.11459 0.77535 0.2693 0.0
H380 H 0.00396 0.79249 0.30744 0.0
H381 H 0.02165 0.81071 0.18408 0.0
H382 H 0.03163 0.80202 0.12042 0.0
H383 H 0.93039 0.76366 0.09907 0.0
H384 H 0.92005 0.77177 0.16271 0.0
H385 H 0.81574 0.85303 0.22859 0.0
H386 H 0.88153 0.84889 0.2328 0.0
H387 H 0.87787 0.78142 0.29008 0.0
H388 H 0.81197 0.78521 0.28566 0.0
H389 H 0.90964 0.80976 0.19846 0.0
H390 H 0.95998 0.7749 0.34775 0.0
H391 H 0.9483 0.78249 0.41115 0.0
H392 H 0.91258 0.85408 0.38016 0.0
H393 H 0.92455 0.84707 0.31673 0.0
C394 C 0.04681 0.73779 0.22969 0.0
C395 C 0.08222 0.74544 0.24419 0.0
C396 C 0.01729 0.75308 0.22983 0.0
C397 C 0.0225 0.77632 0.24455 0.0
C398 C 0.05785 0.78429 0.25836 0.0
C399 C 0.08761 0.76903 0.25782 0.0
C400 C 0.99039 0.79121 0.24794 0.0
C401 C 0.98352 0.79664 0.28362 0.0
C402 C 0.96399 0.79676 0.21674 0.0
C403 C 0.97014 0.79182 0.17831 0.0
C404 C 0.00163 0.80028 0.16591 0.0
C405 C 0.00733 0.79548 0.12978 0.0
C406 C 0.98166 0.7823 0.1057 0.0
C407 C 0.95024 0.77389 0.1177 0.0
C408 C 0.94442 0.77863 0.1538 0.0
C409 C 0.82899 0.83759 0.24296 0.0
C410 C 0.80858 0.81928 0.25645 0.0
C411 C 0.86658 0.83527 0.24524 0.0
C412 C 0.88444 0.81489 0.26172 0.0
C413 C 0.86455 0.7974 0.27752 0.0
C414 C 0.82689 0.79953 0.2748 0.0
C415 C 0.92264 0.81006 0.25799 0.0
C416 C 0.9305 0.80632 0.22223 0.0
C417 C 0.94977 0.8059 0.28909 0.0
C418 C 0.94301 0.81039 0.32738 0.0
C419 C 0.94986 0.79232 0.3545 0.0
C420 C 0.94313 0.79651 0.39044 0.0
C421 C 0.92964 0.81874 0.39966 0.0
C422 C 0.92293 0.83685 0.37296 0.0
C423 C 0.92962 0.83276 0.33699 0.0
H424 H 0.92442 0.82194 0.42749 0.0
H425 H 0.98611 0.77861 0.07774 0.0
H426 H 0.95633 0.71443 0.72053 0.0
H427 H 0.01057 0.73921 0.73266 0.0
H428 H 0.96028 0.78394 0.80614 0.0
H429 H 0.90502 0.75896 0.79407 0.0
H430 H 0.00525 0.80848 0.75359 0.0
H431 H 0.01315 0.74889 0.84901 0.0
H432 H 0.00635 0.70815 0.8734 0.0
H433 H 0.08328 0.68095 0.80827 0.0
H434 H 0.08992 0.72141 0.78277 0.0
H435 H 0.19791 0.84236 0.80618 0.0
H436 H 0.13392 0.83388 0.8094 0.0
H437 H 0.13903 0.77001 0.74366 0.0
H438 H 0.20249 0.77822 0.74019 0.0
H439 H 0.11376 0.76194 0.81024 0.0
H440 H 0.09569 0.81805 0.70618 0.0
H441 H 0.10137 0.85762 0.67727 0.0
H442 H 0.04423 0.8907 0.75687 0.0
H443 H 0.03864 0.85132 0.78656 0.0
C444 C 0.95646 0.72962 0.73908 0.0
C445 C 0.92653 0.73451 0.75679 0.0
C446 C 0.98748 0.74381 0.74584 0.0
C447 C 0.98944 0.76314 0.77058 0.0
C448 C 0.9591 0.76902 0.78696 0.0
C449 C 0.92771 0.75473 0.78011 0.0
C450 C 0.02462 0.77554 0.78081 0.0
C451 C 0.02896 0.79868 0.76697 0.0
C452 C 0.05537 0.76256 0.79803 0.0
C453 C 0.05198 0.73823 0.81392 0.0
C454 C 0.02847 0.73421 0.83972 0.0
C455 C 0.02465 0.71114 0.85376 0.0
C456 C 0.04443 0.69197 0.84244 0.0
C457 C 0.06804 0.69582 0.81706 0.0
C458 C 0.07186 0.71883 0.80282 0.0
C459 C 0.18521 0.82673 0.79188 0.0
C460 C 0.2054 0.81085 0.77314 0.0
C461 C 0.14871 0.82193 0.79384 0.0
C462 C 0.13199 0.80125 0.777 0.0
C463 C 0.15165 0.78596 0.75711 0.0
C464 C 0.18792 0.79071 0.75511 0.0
C465 C 0.09466 0.79437 0.78136 0.0
C466 C 0.09002 0.77219 0.79812 0.0
C467 C 0.06384 0.80824 0.76678 0.0
C468 C 0.0672 0.83183 0.74889 0.0
C469 C 0.08466 0.8338 0.71774 0.0
C470 C 0.08779 0.85618 0.70116 0.0
C471 C 0.0733 0.87668 0.71531 0.0
C472 C 0.05553 0.87482 0.746 0.0
C473 C 0.05236 0.85248 0.7627 0.0
H474 H 0.07574 0.89399 0.70243 0.0
H475 H 0.04152 0.67412 0.85329 0.0
H476 H 0.95474 0.27911 0.75438 0.0
H477 H 0.00448 0.25096 0.75586 0.0
H478 H 0.93587 0.19305 0.78154 0.0
H479 H 0.88471 0.22136 0.77943 0.0
H480 H 0.0161 0.19992 0.82553 0.0
H481 H 0.94747 0.18577 0.70594 0.0
H482 H 0.90944 0.19746 0.64704 0.0
H483 H 0.99692 0.24015 0.61882 0.0
H484 H 0.03528 0.22908 0.67783 0.0
H485 H 0.18561 0.14695 0.79702 0.0
H486 H 0.11985 0.15032 0.79496 0.0
H487 H 0.12001 0.21759 0.7363 0.0
H488 H 0.18539 0.21429 0.73783 0.0
H489 H 0.0631 0.19031 0.70707 0.0
H490 H 0.11993 0.21635 0.83119 0.0
H491 H 0.15563 0.21206 0.89386 0.0
H492 H 0.09083 0.15121 0.91434 0.0
H493 H 0.05462 0.15526 0.85179 0.0
C494 C 0.94992 0.26045 0.76055 0.0
C495 C 0.91548 0.25246 0.76634 0.0
C496 C 0.97849 0.24439 0.76133 0.0
C497 C 0.97351 0.21999 0.76815 0.0
C498 C 0.93991 0.21189 0.77591 0.0
C499 C 0.91088 0.22806 0.77481 0.0
C500 C 0.00417 0.20358 0.7663 0.0
C501 C 0.02591 0.19684 0.79958 0.0
C502 C 0.01697 0.20016 0.73239 0.0
C503 C 0.99426 0.20659 0.69644 0.0
C504 C 0.95855 0.19776 0.68729 0.0
C505 C 0.93693 0.20427 0.65386 0.0
C506 C 0.95075 0.21954 0.62922 0.0
C507 C 0.98626 0.22829 0.63792 0.0
C508 C 0.00799 0.22186 0.67134 0.0
C509 C 0.17158 0.16232 0.78326 0.0
C510 C 0.19083 0.18042 0.76768 0.0
C511 C 0.13402 0.16425 0.7823 0.0
C512 C 0.1151 0.18426 0.7657 0.0
C513 C 0.13407 0.20193 0.74916 0.0
C514 C 0.17152 0.20008 0.75021 0.0
C515 C 0.07584 0.1877 0.76652 0.0
C516 C 0.05267 0.19211 0.73294 0.0
C517 C 0.06187 0.18922 0.80019 0.0
C518 C 0.08497 0.18589 0.83675 0.0
C519 C 0.11361 0.20189 0.84893 0.0
C520 C 0.13376 0.1996 0.88449 0.0
C521 C 0.12548 0.18138 0.90807 0.0
C522 C 0.09719 0.16532 0.89605 0.0
C523 C 0.07681 0.16762 0.8606 0.0
H524 H 0.14097 0.17971 0.93567 0.0
H525 H 0.93394 0.2246 0.60339 0.0
H526 H 0.03779 0.27975 0.28887 0.0
H527 H 0.98805 0.25366 0.29849 0.0
H528 H 0.03407 0.19573 0.24302 0.0
H529 H 0.08502 0.22201 0.2334 0.0
H530 H 0.95729 0.2056 0.21815 0.0
H531 H 0.0375 0.18842 0.32967 0.0
H532 H 0.08151 0.19747 0.38591 0.0
H533 H 0.00089 0.23917 0.42883 0.0
H534 H 0.95653 0.23072 0.37259 0.0
H535 H 0.80291 0.14492 0.25686 0.0
H536 H 0.86862 0.15005 0.26406 0.0
H537 H 0.85959 0.21936 0.3144 0.0
H538 H 0.79364 0.21462 0.30702 0.0
H539 H 0.92504 0.19295 0.3432 0.0
H540 H 0.85182 0.21837 0.22756 0.0
H541 H 0.80622 0.21134 0.17179 0.0
H542 H 0.87391 0.15665 0.13599 0.0
H543 H 0.91945 0.16283 0.19227 0.0
C544 C 0.03756 0.26147 0.2786 0.0
C545 C 0.06529 0.25299 0.26011 0.0
C546 C 0.0092 0.24652 0.28447 0.0
C547 C 0.00768 0.22274 0.27187 0.0
C548 C 0.03507 0.21404 0.25318 0.0
C549 C 0.06404 0.22902 0.24772 0.0
C550 C 0.97596 0.20791 0.27693 0.0
C551 C 0.95072 0.20204 0.24546 0.0
C552 C 0.96717 0.20391 0.31265 0.0
C553 C 0.99368 0.20897 0.34676 0.0
C554 C 0.0292 0.19965 0.35097 0.0
C555 C 0.05421 0.20466 0.38288 0.0
C556 C 0.04401 0.2189 0.41091 0.0
C557 C 0.00875 0.22813 0.4071 0.0
C558 C 0.98363 0.22319 0.37523 0.0
C559 C 0.81485 0.16098 0.2705 0.0
C560 C 0.79286 0.17965 0.28057 0.0
C561 C 0.85248 0.16382 0.2746 0.0
C562 C 0.86871 0.18522 0.28915 0.0
C563 C 0.84741 0.20273 0.30298 0.0
C564 C 0.80969 0.20003 0.29856 0.0
C565 C 0.90631 0.19114 0.28447 0.0
C566 C 0.9323 0.19559 0.31595 0.0
C567 C 0.91572 0.19408 0.24875 0.0
C568 C 0.88874 0.19073 0.21448 0.0
C569 C 0.85677 0.20461 0.20807 0.0
C570 C 0.83088 0.20074 0.17641 0.0
C571 C 0.83701 0.18341 0.15051 0.0
C572 C 0.86909 0.16995 0.1562 0.0
C573 C 0.89491 0.17358 0.18804 0.0
H574 H 0.81709 0.18058 0.12586 0.0
H575 H 0.06342 0.22275 0.4356 0.0
H576 H 0.93911 0.32271 0.83946 0.0
H577 H 0.97141 0.32372 0.90336 0.0
H578 H 0.90288 0.3818 0.92835 0.0
H579 H 0.87004 0.38067 0.86463 0.0
H580 H 0.97802 0.38664 0.96206 0.0
H581 H 0.87985 0.33075 0.95396 0.0
H582 H 0.84098 0.29676 0.92939 0.0
H583 H 0.93244 0.24905 0.95021 0.0
H584 H 0.97208 0.28286 0.97482 0.0
H585 H 0.03456 0.3679 0.15849 0.0
H586 H 0.99271 0.37306 0.09927 0.0
H587 H 0.0419 0.31208 0.05401 0.0
H588 H 0.08323 0.30706 0.11231 0.0
H589 H 0.96904 0.31158 0.03334 0.0
H590 H 0.06787 0.36897 0.03793 0.0
H591 H 0.10553 0.40319 0.06432 0.0
H592 H 0.01107 0.44849 0.05096 0.0
H593 H 0.97275 0.41441 0.02494 0.0
C594 C 0.93157 0.33618 0.85819 0.0
C595 C 0.90198 0.35162 0.84687 0.0
C596 C 0.94983 0.33657 0.89485 0.0
C597 C 0.93922 0.35262 0.92077 0.0
C598 C 0.91144 0.36922 0.90889 0.0
C599 C 0.89277 0.36857 0.87241 0.0
C600 C 0.95553 0.35094 0.96065 0.0
C601 C 0.97563 0.37037 0.97784 0.0
C602 C 0.95246 0.32973 0.98128 0.0
C603 C 0.92901 0.3094 0.96583 0.0
C604 C 0.89179 0.31306 0.95292 0.0
C605 C 0.86957 0.29381 0.93909 0.0
C606 C 0.88419 0.27076 0.93804 0.0
C607 C 0.92113 0.26692 0.95095 0.0
C608 C 0.9435 0.28612 0.96492 0.0
C609 C 0.03568 0.35535 0.13608 0.0
C610 C 0.06201 0.33708 0.13989 0.0
C611 C 0.01208 0.35841 0.1022 0.0
C612 C 0.01441 0.34309 0.07198 0.0
C613 C 0.03949 0.32413 0.07675 0.0
C614 C 0.06312 0.32128 0.11012 0.0
C615 C 0.99243 0.34704 0.03461 0.0
C616 C 0.97116 0.32798 0.01777 0.0
C617 C 0.99439 0.36861 0.01442 0.0
C618 C 0.0174 0.38909 0.02995 0.0
C619 C 0.05509 0.38618 0.04092 0.0
C620 C 0.07656 0.40555 0.05575 0.0
C621 C 0.06068 0.42798 0.05943 0.0
C622 C 0.02331 0.43109 0.04818 0.0
C623 C 0.00171 0.41176 0.03338 0.0
H624 H 0.07735 0.44296 0.07091 0.0
H625 H 0.86687 0.25588 0.92736 0.0
H626 H 0.05356 0.63229 0.15759 0.0
H627 H 0.01377 0.62653 0.09723 0.0
H628 H 0.07974 0.67629 0.04672 0.0
H629 H 0.11915 0.68185 0.10597 0.0
H630 H 0.00691 0.68398 0.0238 0.0
H631 H 0.09236 0.61796 0.03757 0.0
H632 H 0.12255 0.58268 0.06959 0.0
H633 H 0.01975 0.54642 0.06077 0.0
H634 H 0.98885 0.58172 0.029 0.0
H635 H 0.96153 0.66507 0.83249 0.0
H636 H -0.00184 0.66565 0.89462 0.0
H637 H 0.93113 0.6099 0.92967 0.0
H638 H 0.89479 0.6089 0.86783 0.0
H639 H -0.00019 0.60405 0.96287 0.0
H640 H 0.91467 0.66896 0.94585 0.0
H641 H 0.88387 0.70465 0.91621 0.0
H642 H 0.98465 0.74352 0.93292 0.0
H643 H 0.01636 0.70784 0.9625 0.0
C644 C 0.05911 0.64217 0.13363 0.0
C645 C 0.08956 0.65737 0.1364 0.0
C646 C 0.03659 0.63879 0.09918 0.0
C647 C 0.04397 0.65087 0.06736 0.0
C648 C 0.07347 0.66677 0.07073 0.0
C649 C 0.09607 0.66984 0.10467 0.0
C650 C 0.02221 0.64673 0.03 0.0
C651 C 0.00554 0.66653 0.01039 0.0
C652 C 0.01978 0.6239 0.01272 0.0
C653 C 0.03826 0.60256 0.03134 0.0
C654 C 0.07616 0.60253 0.04271 0.0
C655 C 0.09341 0.58252 0.06079 0.0
C656 C 0.07309 0.56233 0.06738 0.0
C657 C 0.03546 0.56209 0.05573 0.0
C658 C 0.01806 0.58209 0.03766 0.0
C659 C 0.95534 0.65235 0.853 0.0
C660 C 0.92505 0.63702 0.84514 0.0
C661 C 0.97604 0.65293 0.88866 0.0
C662 C 0.96691 0.63825 0.91709 0.0
C663 C 0.93861 0.62155 0.9084 0.0
C664 C 0.91785 0.621 0.87291 0.0
C665 C 0.98505 0.64145 0.95631 0.0
C666 C 0.00095 0.62149 0.97628 0.0
C667 C 0.98675 0.66418 0.97404 0.0
C668 C 0.96796 0.68562 0.95597 0.0
C669 C 0.93038 0.68502 0.94285 0.0
C670 C 0.91272 0.70527 0.92606 0.0
C671 C 0.93223 0.72634 0.92241 0.0
C672 C 0.96954 0.72719 0.93569 0.0
C673 C 0.98739 0.70695 0.95251 0.0
H674 H 0.91839 0.74202 0.90948 0.0
H675 H 0.0865 0.54685 0.08142 0.0
H676 H 0.6304 0.87289 0.11221 0.0
H677 H 0.59151 0.87557 0.05269 0.0
H678 H 0.50051 0.85024 0.10126 0.0
H679 H 0.54028 0.84623 0.16145 0.0
H680 H 0.50007 0.82783 0.04038 0.0
H681 H 0.50883 0.91064 0.06944 0.0
H682 H 0.53786 0.94922 0.09001 0.0
H683 H 0.59734 0.94799 0.99895 0.0
H684 H 0.56907 0.90921 0.97811 0.0
H685 H 0.37505 0.86813 0.87844 0.0
H686 H 0.41073 0.86845 0.94047 0.0
H687 H 0.50772 0.85294 0.89499 0.0
H688 H 0.47166 0.85146 0.83221 0.0
H689 H 0.50177 0.89665 0.95449 0.0
H690 H 0.48644 0.81137 0.92685 0.0
H691 H 0.45157 0.77434 0.90951 0.0
H692 H 0.39689 0.78248 0.00331 0.0
H693 H 0.42985 0.8203 0.02001 0.0
C694 C 0.60201 0.86817 0.11071 0.0
C695 C 0.58865 0.8593 0.14201 0.0
C696 C 0.57958 0.8699 0.07636 0.0
C697 C 0.54275 0.86347 0.0722 0.0
C698 C 0.52882 0.85538 0.1036 0.0
C699 C 0.55153 0.85329 0.13816 0.0
C700 C 0.51986 0.86379 0.03455 0.0
C701 C 0.50002 0.84308 0.02191 0.0
C702 C 0.5199 0.88354 0.00999 0.0
C703 C 0.53702 0.90689 0.02238 0.0
C704 C 0.52831 0.9185 0.05395 0.0
C705 C 0.5446 0.94043 0.06563 0.0
C706 C 0.56948 0.95103 0.04584 0.0
C707 C 0.57807 0.93975 0.01427 0.0
C708 C 0.56189 0.9178 0.00248 0.0
C709 C 0.40405 0.865 0.88133 0.0
C710 C 0.42054 0.85995 0.85012 0.0
C711 C 0.42432 0.86504 0.91698 0.0
C712 C 0.46173 0.86055 0.92234 0.0
C713 C 0.47874 0.85632 0.89134 0.0
C714 C 0.4582 0.85558 0.85553 0.0
C715 C 0.48279 0.86062 0.96049 0.0
C716 C 0.50196 0.88149 0.97317 0.0
C717 C 0.48118 0.8413 0.98538 0.0
C718 C 0.46017 0.81903 0.97425 0.0
C719 C 0.46626 0.80568 0.9432 0.0
C720 C 0.44685 0.78448 0.93352 0.0
C721 C 0.42179 0.77615 0.95511 0.0
C722 C 0.41601 0.78906 0.98636 0.0
C723 C 0.4349 0.81046 0.99581 0.0
H724 H 0.40704 0.75963 0.94777 0.0
H725 H 0.58206 0.96801 0.05492 0.0
H726 H 0.63057 0.15126 0.10361 0.0
H727 H 0.59404 0.14785 0.04227 0.0
H728 H 0.49962 0.13094 0.09134 0.0
H729 H 0.53602 0.13499 0.15365 0.0
H730 H 0.52209 0.09929 0.02461 0.0
H731 H 0.49058 0.17888 0.06342 0.0
H732 H 0.50501 0.21929 0.08944 0.0
H733 H 0.56786 0.23425 0.00362 0.0
H734 H 0.55422 0.19376 0.97742 0.0
H735 H 0.3843 0.11037 0.86867 0.0
H736 H 0.42413 0.10913 0.92794 0.0
H737 H 0.49876 0.15741 0.88656 0.0
H738 H 0.45762 0.15974 0.82705 0.0
H739 H 0.48813 0.17282 0.95024 0.0
H740 H 0.51814 0.09543 0.90851 0.0
H741 H 0.50715 0.05483 0.88202 0.0
H742 H 0.4522 0.03483 0.97186 0.0
H743 H 0.46239 0.07543 0.99863 0.0
C744 C 0.6021 0.14658 0.10163 0.0
C745 C 0.58631 0.14324 0.13376 0.0
C746 C 0.58125 0.14476 0.06641 0.0
C747 C 0.5442 0.13918 0.06228 0.0
C748 C 0.52827 0.13525 0.09405 0.0
C749 C 0.54905 0.13758 0.12957 0.0
C750 C 0.52247 0.1379 0.0245 0.0
C751 C 0.51402 0.11531 0.00845 0.0
C752 C 0.51349 0.15883 0.00304 0.0
C753 C 0.52173 0.18318 0.01872 0.0
C754 C 0.5078 0.19068 0.05034 0.0
C755 C 0.51575 0.21363 0.06506 0.0
C756 C 0.53741 0.22931 0.04825 0.0
C757 C 0.55111 0.22208 0.01664 0.0
C758 C 0.54326 0.19914 0.00183 0.0
C759 C 0.40952 0.12041 0.87166 0.0
C760 C 0.41753 0.13526 0.84283 0.0
C761 C 0.43252 0.11955 0.90581 0.0
C762 C 0.46479 0.13303 0.91201 0.0
C763 C 0.47401 0.14685 0.88263 0.0
C764 C 0.45065 0.14795 0.84838 0.0
C765 C 0.48705 0.13403 0.94993 0.0
C766 C 0.49597 0.15665 0.96612 0.0
C767 C 0.49684 0.11305 0.97136 0.0
C768 C 0.49079 0.08856 0.95542 0.0
C769 C 0.50349 0.08243 0.92249 0.0
C770 C 0.49743 0.05941 0.90744 0.0
C771 C 0.47892 0.04228 0.9252 0.0
C772 C 0.46651 0.04812 0.95811 0.0
C773 C 0.47246 0.07113 0.97326 0.0
H774 H 0.47426 0.02446 0.91351 0.0
H775 H 0.54349 0.24707 0.05966 0.0
H776 H 0.23425 0.59528 0.24017 0.0
H777 H 0.23738 0.5519 0.24949 0.0
H778 H 0.14312 0.55471 0.30379 0.0
H779 H 0.13995 0.59832 0.29503 0.0
H780 H 0.19471 0.52028 0.33487 0.0
H781 H 0.13021 0.5435 0.21465 0.0
H782 H 0.12248 0.56477 0.15469 0.0
H783 H 0.21568 0.52827 0.12652 0.0
H784 H 0.22424 0.50702 0.1865 0.0
H785 H 0.12932 0.40059 0.2916 0.0
H786 H 0.13879 0.44361 0.30282 0.0
H787 H 0.22639 0.44295 0.23895 0.0
H788 H 0.2167 0.40015 0.22698 0.0
H789 H 0.17881 0.47655 0.21509 0.0
H790 H 0.24172 0.45141 0.33366 0.0
H791 H 0.24957 0.42989 0.39334 0.0
H792 H 0.16025 0.46913 0.4248 0.0
H793 H 0.15152 0.49065 0.36505 0.0
C794 C 0.21451 0.58678 0.25467 0.0
C795 C 0.18642 0.6002 0.26623 0.0
C796 C 0.2164 0.562 0.26003 0.0
C797 C 0.19005 0.55013 0.27666 0.0
C798 C 0.16361 0.5636 0.29076 0.0
C799 C 0.1618 0.58849 0.28562 0.0
C800 C 0.18783 0.52361 0.27551 0.0
C801 C 0.19092 0.51063 0.30875 0.0
C802 C 0.18335 0.51115 0.24137 0.0
C803 C 0.17807 0.52385 0.20521 0.0
C804 C 0.14921 0.54015 0.19578 0.0
C805 C 0.14465 0.55218 0.16178 0.0
C806 C 0.16865 0.54791 0.13688 0.0
C807 C 0.19716 0.53157 0.14587 0.0
C808 C 0.20186 0.51952 0.17984 0.0
C809 C 0.15096 0.40952 0.28039 0.0
C810 C 0.17198 0.397 0.25802 0.0
C811 C 0.15646 0.4341 0.28701 0.0
C812 C 0.18337 0.44646 0.2718 0.0
C813 C 0.20539 0.43376 0.25084 0.0
C814 C 0.19975 0.40929 0.24398 0.0
C815 C 0.18633 0.47296 0.27451 0.0
C816 C 0.18294 0.48604 0.24137 0.0
C817 C 0.19053 0.48537 0.30873 0.0
C818 C 0.19575 0.47248 0.34471 0.0
C819 C 0.22354 0.4553 0.35316 0.0
C820 C 0.2282 0.44313 0.38703 0.0
C821 C 0.20536 0.44809 0.4128 0.0
C822 C 0.17789 0.46528 0.40479 0.0
C823 C 0.1731 0.47749 0.37094 0.0
H824 H 0.20901 0.43865 0.43902 0.0
H825 H 0.16515 0.55722 0.1106 0.0
H826 H 0.8698 0.58767 0.69111 0.0
H827 H 0.85921 0.54627 0.66989 0.0
H828 H 0.74976 0.54977 0.69391 0.0
H829 H 0.7605 0.59089 0.71615 0.0
H830 H 0.78547 0.51453 0.72971 0.0
H831 H 0.76766 0.54164 0.6044 0.0
H832 H 0.78198 0.56381 0.55025 0.0
H833 H 0.88032 0.52308 0.55405 0.0
H834 H 0.8669 0.5009 0.6086 0.0
H835 H 0.75161 0.39494 0.69734 0.0
H836 H 0.74496 0.43684 0.67775 0.0
H837 H 0.85908 0.43994 0.67 0.0
H838 H 0.86587 0.39777 0.68887 0.0
H839 H 0.81489 0.47168 0.6194 0.0
H840 H 0.8383 0.45096 0.74993 0.0
H841 H 0.82614 0.4288 0.80502 0.0
H842 H 0.71873 0.4589 0.79171 0.0
H843 H 0.73009 0.48092 0.73612 0.0
C844 C 0.84321 0.5798 0.69105 0.0
C845 C 0.8162 0.59233 0.70593 0.0
C846 C 0.83709 0.55618 0.67864 0.0
C847 C 0.80367 0.54493 0.6803 0.0
C848 C 0.77579 0.55809 0.69253 0.0
C849 C 0.78203 0.58154 0.70538 0.0
C850 C 0.79981 0.51862 0.67526 0.0
C851 C 0.79097 0.5053 0.70509 0.0
C852 C 0.80826 0.50647 0.64372 0.0
C853 C 0.81638 0.51971 0.6108 0.0
C854 C 0.79249 0.53753 0.59389 0.0
C855 C 0.80042 0.55008 0.56308 0.0
C856 C 0.83207 0.54489 0.54876 0.0
C857 C 0.85582 0.52709 0.56518 0.0
C858 C 0.84803 0.5145 0.59602 0.0
C859 C 0.77508 0.40432 0.69043 0.0
C860 C 0.80947 0.39333 0.69556 0.0
C861 C 0.77116 0.42819 0.67898 0.0
C862 C 0.80168 0.44151 0.67319 0.0
C863 C 0.83524 0.4299 0.6744 0.0
C864 C 0.83911 0.40586 0.68544 0.0
C865 C 0.8002 0.46801 0.67361 0.0
C866 C 0.80852 0.48119 0.6434 0.0
C867 C 0.79153 0.48024 0.7049 0.0
C868 C 0.78488 0.46735 0.73867 0.0
C869 C 0.81201 0.45272 0.75862 0.0
C870 C 0.80527 0.44019 0.78993 0.0
C871 C 0.77164 0.44239 0.80179 0.0
C872 C 0.74473 0.45718 0.78244 0.0
C873 C 0.7513 0.46968 0.75103 0.0
H874 H 0.76647 0.43268 0.82604 0.0
H875 H 0.83816 0.55463 0.52491 0.0
H876 H 0.63383 0.8936 0.32276 0.0
H877 H 0.63347 0.93436 0.34756 0.0
H878 H 0.72496 0.95287 0.29458 0.0
H879 H 0.72592 0.91225 0.27007 0.0
H880 H 0.72634 0.97702 0.36105 0.0
H881 H 0.64056 0.95918 0.24765 0.0
H882 H 0.58921 0.93685 0.21203 0.0
H883 H 0.52086 0.95779 0.29032 0.0
H884 H 0.57203 0.98001 0.32664 0.0
H885 H 0.71408 0.08606 0.26844 0.0
H886 H 0.71814 0.04575 0.29434 0.0
H887 H 0.61945 0.0575 0.33911 0.0
H888 H 0.61481 0.098 0.31276 0.0
H889 H 0.61518 0.01815 0.29792 0.0
H890 H 0.6992 0.04774 0.39802 0.0
H891 H 0.75138 0.07098 0.42996 0.0
H892 H 0.82401 0.02934 0.37555 0.0
H893 H 0.77226 0.00608 0.34281 0.0
C894 C 0.65446 0.90615 0.3171 0.0
C895 C 0.67935 0.89984 0.29364 0.0
C896 C 0.65424 0.9294 0.33143 0.0
C897 C 0.67881 0.94665 0.32239 0.0
C898 C 0.70574 0.93979 0.30184 0.0
C899 C 0.706 0.9166 0.28753 0.0
C900 C 0.67316 0.97249 0.32867 0.0
C901 C 0.702 0.98613 0.3476 0.0
C902 C 0.64091 0.98417 0.31197 0.0
C903 C 0.61016 0.97095 0.29008 0.0
C904 C 0.61463 0.95887 0.25737 0.0
C905 C 0.58558 0.94626 0.23706 0.0
C906 C 0.55183 0.94583 0.24898 0.0
C907 C 0.54704 0.95808 0.28119 0.0
C908 C 0.57605 0.97068 0.30165 0.0
C909 C 0.69344 0.08028 0.28421 0.0
C910 C 0.66384 0.09517 0.28806 0.0
C911 C 0.69607 0.05728 0.29944 0.0
C912 C 0.66932 0.04872 0.31905 0.0
C913 C 0.6405 0.06385 0.32428 0.0
C914 C 0.63786 0.08694 0.30908 0.0
C915 C 0.66903 0.02297 0.32902 0.0
C916 C 0.63902 0.00924 0.31292 0.0
C917 C 0.70032 0.01133 0.34812 0.0
C918 C 0.73173 0.02517 0.36787 0.0
C919 C 0.72627 0.04362 0.39268 0.0
C920 C 0.75579 0.05679 0.41096 0.0
C921 C 0.79098 0.05164 0.40478 0.0
C922 C 0.79674 0.03328 0.38034 0.0
C923 C 0.76731 0.02006 0.36197 0.0
H924 H 0.8138 0.06186 0.41895 0.0
H925 H 0.52936 0.93606 0.23321 0.0
H926 H 0.26325 0.90674 0.72997 0.0
H927 H 0.25558 0.94748 0.70588 0.0
H928 H 0.3487 0.93846 0.65097 0.0
H929 H 0.35708 0.89771 0.67561 0.0
H930 H 0.35737 0.97558 0.69532 0.0
H931 H 0.26331 0.94978 0.60074 0.0
H932 H 0.20778 0.9282 0.57288 0.0
H933 H 0.14498 0.96931 0.63905 0.0
H934 H 0.2002 0.99091 0.66775 0.0
H935 H 0.34602 0.10008 0.67197 0.0
H936 H 0.34071 0.05899 0.64818 0.0
H937 H 0.25384 0.04525 0.71012 0.0
H938 H 0.25842 0.08629 0.73355 0.0
H939 H 0.24462 0.01979 0.64468 0.0
H940 H 0.34015 0.03564 0.74991 0.0
H941 H 0.39517 0.05637 0.78137 0.0
H942 H 0.45435 0.03246 0.69682 0.0
H943 H 0.39946 0.01185 0.6646 0.0
C944 C 0.28164 0.91315 0.71207 0.0
C945 C 0.31121 0.89909 0.70533 0.0
C946 C 0.27699 0.93645 0.69798 0.0
C947 C 0.30152 0.94603 0.67651 0.0
C948 C 0.32947 0.93142 0.6675 0.0
C949 C 0.33426 0.90814 0.68172 0.0
C950 C 0.30145 0.97221 0.66901 0.0
C951 C 0.333 0.98516 0.68307 0.0
C952 C 0.26945 0.98478 0.65382 0.0
C953 C 0.23601 0.97193 0.63651 0.0
C954 C 0.23771 0.95413 0.60954 0.0
C955 C 0.20627 0.9419 0.59356 0.0
C956 C 0.17288 0.94736 0.60421 0.0
C957 C 0.17086 0.9651 0.63081 0.0
C958 C 0.20223 0.97739 0.64689 0.0
C959 C 0.32518 0.08852 0.67986 0.0
C960 C 0.30324 0.09631 0.70542 0.0
C961 C 0.32214 0.06506 0.66613 0.0
C962 C 0.29735 0.049 0.67795 0.0
C963 C 0.27322 0.05736 0.70072 0.0
C964 C 0.2761 0.08082 0.71434 0.0
C965 C 0.3002 0.02284 0.67177 0.0
C966 C 0.26924 0.01002 0.65551 0.0
C967 C 0.33264 0.01024 0.68519 0.0
C968 C 0.36565 0.0225 0.70462 0.0
C969 C 0.36484 0.03496 0.73791 0.0
C970 C 0.39599 0.04667 0.75589 0.0
C971 C 0.4282 0.0458 0.74103 0.0
C972 C 0.42935 0.03317 0.70823 0.0
C973 C 0.39824 0.02148 0.6901 0.0
H974 H 0.45229 0.05486 0.755 0.0
H975 H 0.14857 0.93786 0.59181 0.0
H976 H 0.24031 0.22353 0.6614 0.0
H977 H 0.21717 0.24226 0.60189 0.0
H978 H 0.31081 0.21685 0.55804 0.0
H979 H 0.33413 0.19772 0.61782 0.0
H980 H 0.29629 0.26661 0.54634 0.0
H981 H 0.23264 0.19153 0.52907 0.0
H982 H 0.19356 0.15861 0.54476 0.0
H983 H 0.10501 0.20804 0.54396 0.0
H984 H 0.14377 0.24136 0.52886 0.0
H985 H 0.24156 0.28727 0.35587 0.0
H986 H 0.26238 0.27371 0.41881 0.0
H987 H 0.15892 0.29306 0.44878 0.0
H988 H 0.13741 0.30627 0.38473 0.0
H989 H 0.17675 0.24839 0.47002 0.0
H990 H 0.23896 0.32335 0.48489 0.0
H991 H 0.27754 0.35644 0.46876 0.0
H992 H 0.36804 0.30812 0.47431 0.0
H993 H 0.32989 0.27465 0.49005 0.0
C994 C 0.25584 0.22166 0.63899 0.0
C995 C 0.28912 0.20914 0.64433 0.0
C996 C 0.2425 0.23235 0.60495 0.0
C997 C 0.26224 0.23097 0.57553 0.0
C998 C 0.29516 0.21813 0.58044 0.0
C999 C 0.30832 0.20706 0.61446 0.0
C1000 C 0.24903 0.24383 0.54028 0.0
C1001 C 0.27038 0.26244 0.52934 0.0
C1002 C 0.21457 0.23899 0.51893 0.0
C1003 C 0.19128 0.21901 0.52829 0.0
C1004 C 0.20497 0.19544 0.53266 0.0
C1005 C 0.18284 0.17669 0.54135 0.0
C1006 C 0.14686 0.18124 0.54548 0.0
C1007 C 0.13291 0.20455 0.54084 0.0
C1008 C 0.15495 0.22337 0.5322 0.0
C1009 C 0.22341 0.28916 0.376 0.0
C1010 C 0.18776 0.29779 0.36528 0.0
C1011 C 0.23548 0.28149 0.41216 0.0
C1012 C 0.21238 0.28244 0.43878 0.0
C1013 C 0.17728 0.29218 0.42873 0.0
C1014 C 0.16511 0.29996 0.39226 0.0
C1015 C 0.22412 0.27115 0.47575 0.0
C1016 C 0.20252 0.25278 0.48711 0.0
C1017 C 0.25828 0.27632 0.4976 0.0
C1018 C 0.28145 0.29644 0.48841 0.0
C1019 C 0.26702 0.31974 0.48244 0.0
C1020 C 0.28883 0.33857 0.47342 0.0
C1021 C 0.3252 0.33437 0.47046 0.0
C1022 C 0.33986 0.31134 0.47662 0.0
C1023 C 0.31817 0.29244 0.48567 0.0
H1024 H 0.34203 0.34897 0.46343 0.0
H1025 H 0.12976 0.1667 0.55217 0.0
H1026 H 0.81949 0.24307 0.64689 0.0
H1027 H 0.79028 0.22697 0.58752 0.0
H1028 H 0.76559 0.29901 0.54743 0.0
H1029 H 0.79492 0.3153 0.60754 0.0
H1030 H 0.70529 0.26969 0.5396 0.0
H1031 H 0.82616 0.26486 0.51098 0.0
H1032 H 0.89117 0.25404 0.52268 0.0
H1033 H 0.8632 0.17936 0.52731 0.0
H1034 H 0.798 0.18974 0.51618 0.0
H1035 H 0.64303 0.241 0.35217 0.0
H1036 H 0.66904 0.25513 0.41376 0.0
H1037 H 0.69848 0.18234 0.44676 0.0
H1038 H 0.67269 0.16818 0.38423 0.0
H1039 H 0.75594 0.21104 0.45959 0.0
H1040 H 0.6359 0.21488 0.48768 0.0
H1041 H 0.57061 0.22485 0.47817 0.0
H1042 H 0.59618 0.30006 0.47667 0.0
H1043 H 0.66165 0.29055 0.48566 0.0
C1044 C 0.80873 0.25552 0.62505 0.0
C1045 C 0.80946 0.28041 0.63166 0.0
C1046 C 0.79205 0.24629 0.59112 0.0
C1047 C 0.77574 0.26177 0.56303 0.0
C1048 C 0.77807 0.28677 0.56881 0.0
C1049 C 0.79513 0.29607 0.60289 0.0
C1050 C 0.75361 0.25155 0.5292 0.0
C1051 C 0.71645 0.2572 0.52165 0.0
C1052 C 0.76792 0.23443 0.50686 0.0
C1053 C 0.80715 0.22811 0.51302 0.0
C1054 C 0.83385 0.24614 0.51473 0.0
C1055 C 0.87075 0.24008 0.52123 0.0
C1056 C 0.8813 0.21604 0.5258 0.0
C1057 C 0.85498 0.19798 0.52378 0.0
C1058 C 0.81805 0.20394 0.51732 0.0
C1059 C 0.6537 0.2279 0.37307 0.0
C1060 C 0.65557 0.20351 0.36375 0.0
C1061 C 0.66865 0.23599 0.4083 0.0
C1062 C 0.68572 0.21982 0.43503 0.0
C1063 C 0.68539 0.19513 0.42656 0.0
C1064 C 0.67024 0.18698 0.39109 0.0
C1065 C 0.7075 0.22929 0.46971 0.0
C1066 C 0.74465 0.22349 0.47751 0.0
C1067 C 0.69312 0.24614 0.49245 0.0
C1068 C 0.65373 0.25197 0.48707 0.0
C1069 C 0.62762 0.23354 0.48503 0.0
C1070 C 0.59057 0.23912 0.47979 0.0
C1071 C 0.57926 0.26307 0.47674 0.0
C1072 C 0.60499 0.28151 0.47902 0.0
C1073 C 0.64208 0.27604 0.48424 0.0
H1074 H 0.55056 0.26735 0.47268 0.0
H1075 H 0.90988 0.21139 0.53086 0.0
H1076 H 0.64035 0.79264 0.3753 0.0
H1077 H 0.66092 0.77424 0.43644 0.0
H1078 H 0.76805 0.76458 0.40853 0.0
H1079 H 0.74794 0.78261 0.34823 0.0
H1080 H 0.74308 0.72333 0.4334 0.0
H1081 H 0.75215 0.80685 0.47015 0.0
H1082 H 0.72886 0.84787 0.47641 0.0
H1083 H 0.65025 0.82062 0.53961 0.0
H1084 H 0.67278 0.77937 0.53329 0.0
H1085 H 0.8508 0.69358 0.6087 0.0
H1086 H 0.82421 0.70986 0.54776 0.0
H1087 H 0.72238 0.72128 0.58683 0.0
H1088 H 0.74892 0.70572 0.64741 0.0
H1089 H 0.74077 0.76053 0.55606 0.0
H1090 H 0.73304 0.67731 0.52225 0.0
H1091 H 0.75577 0.63613 0.51615 0.0
H1092 H 0.83038 0.66213 0.4474 0.0
H1093 H 0.80845 0.70354 0.45351 0.0
C1094 C 0.66841 0.787 0.38264 0.0
C1095 C 0.69238 0.78882 0.35687 0.0
C1096 C 0.68011 0.77641 0.41742 0.0
C1097 C 0.71596 0.76777 0.42683 0.0
C1098 C 0.74018 0.77075 0.40171 0.0
C1099 C 0.7286 0.78116 0.36726 0.0
C1100 C 0.72851 0.75479 0.46207 0.0
C1101 C 0.74284 0.73152 0.46027 0.0
C1102 C 0.72738 0.76523 0.49705 0.0
C1103 C 0.71386 0.79 0.50088 0.0
C1104 C 0.72969 0.80958 0.4851 0.0
C1105 C 0.71667 0.83288 0.48872 0.0
C1106 C 0.68802 0.83684 0.50829 0.0
C1107 C 0.6724 0.81752 0.52439 0.0
C1108 C 0.68529 0.79418 0.52082 0.0
C1109 C 0.82256 0.69909 0.60386 0.0
C1110 C 0.802 0.69856 0.63275 0.0
C1111 C 0.80736 0.70843 0.56913 0.0
C1112 C 0.77126 0.71693 0.56274 0.0
C1113 C 0.75033 0.71513 0.59113 0.0
C1114 C 0.76552 0.70612 0.6257 0.0
C1115 C 0.7557 0.72908 0.52748 0.0
C1116 C 0.7408 0.7522 0.52926 0.0
C1117 C 0.75616 0.71846 0.49246 0.0
C1118 C 0.76934 0.69357 0.48864 0.0
C1119 C 0.7545 0.67428 0.50607 0.0
C1120 C 0.7672 0.65089 0.50257 0.0
C1121 C 0.79456 0.64653 0.48148 0.0
C1122 C 0.80922 0.66554 0.46377 0.0
C1123 C 0.79664 0.68897 0.46721 0.0
H1124 H 0.80436 0.6284 0.47881 0.0
H1125 H 0.67799 0.85489 0.51107 0.0
H1126 H 0.34987 0.79799 0.61982 0.0
H1127 H 0.32436 0.77973 0.5602 0.0
H1128 H 0.22764 0.76008 0.60402 0.0
H1129 H 0.2538 0.77718 0.66381 0.0
H1130 H 0.24527 0.72417 0.56891 0.0
H1131 H 0.23117 0.80741 0.53827 0.0
H1132 H 0.24986 0.84966 0.53333 0.0
H1133 H 0.32604 0.82856 0.46308 0.0
H1134 H 0.30814 0.78613 0.468 0.0
H1135 H 0.1449 0.6987 0.38272 0.0
H1136 H 0.16483 0.71367 0.44625 0.0
H1137 H 0.27416 0.72132 0.42349 0.0
H1138 H 0.25478 0.70632 0.36092 0.0
H1139 H 0.24511 0.76391 0.44765 0.0
H1140 H 0.25756 0.67963 0.48116 0.0
H1141 H 0.23506 0.63822 0.48563 0.0
H1142 H 0.15579 0.6632 0.54975 0.0
H1143 H 0.17752 0.70484 0.54522 0.0
C1144 C 0.323 0.79006 0.61645 0.0
C1145 C 0.30386 0.789 0.64641 0.0
C1146 C 0.30833 0.77964 0.58235 0.0
C1147 C 0.2738 0.76861 0.57731 0.0
C1148 C 0.25436 0.76826 0.60707 0.0
C1149 C 0.26929 0.77817 0.64123 0.0
C1150 C 0.25835 0.75668 0.54163 0.0
C1151 C 0.24475 0.73309 0.54247 0.0
C1152 C 0.25776 0.76806 0.5069 0.0
C1153 C 0.26853 0.79356 0.50378 0.0
C1154 C 0.25209 0.81176 0.52198 0.0
C1155 C 0.26251 0.83574 0.51915 0.0
C1156 C 0.28918 0.84178 0.49798 0.0
C1157 C 0.30541 0.82385 0.47951 0.0
C1158 C 0.29511 0.79984 0.48227 0.0
C1159 C 0.17335 0.70284 0.39178 0.0
C1160 C 0.1982 0.70153 0.36678 0.0
C1161 C 0.18467 0.71156 0.42792 0.0
C1162 C 0.2209 0.71895 0.43933 0.0
C1163 C 0.24604 0.71603 0.41514 0.0
C1164 C 0.23489 0.70734 0.37941 0.0
C1165 C 0.23261 0.73149 0.47515 0.0
C1166 C 0.24543 0.75519 0.47423 0.0
C1167 C 0.23186 0.72039 0.50972 0.0
C1168 C 0.21888 0.69537 0.51248 0.0
C1169 C 0.2351 0.67632 0.49591 0.0
C1170 C 0.22254 0.6528 0.49852 0.0
C1171 C 0.19394 0.64809 0.51786 0.0
C1172 C 0.1779 0.66688 0.53472 0.0
C1173 C 0.19034 0.69044 0.53216 0.0
H1174 H 0.18425 0.62987 0.51985 0.0
H1175 H 0.29722 0.86036 0.49583 0.0
H1176 H 0.19515 0.22753 0.15996 0.0
H1177 H 0.22486 0.2076 0.11322 0.0
H1178 H 0.20913 0.271 0.04474 0.0
H1179 H 0.17927 0.29099 0.09079 0.0
H1180 H 0.2069 0.2001 0.03158 0.0
H1181 H 0.29472 0.28552 0.02838 0.0
H1182 H 0.31739 0.31919 0.0696 0.0
H1183 H 0.31395 0.2747 0.16484 0.0
H1184 H 0.29187 0.2406 0.12418 0.0
H1185 H 0.30327 0.23758 0.8804 0.0
H1186 H 0.2907 0.24688 0.9421 0.0
H1187 H 0.31456 0.17361 0.97616 0.0
H1188 H 0.32695 0.16397 0.91435 0.0
H1189 H 0.32065 0.24292 0.01666 0.0
H1190 H 0.23819 0.15584 0.01773 0.0
H1191 H 0.21466 0.12311 0.97489 0.0
H1192 H 0.20648 0.17177 0.88282 0.0
H1193 H 0.22827 0.20499 0.92525 0.0
C1194 C 0.19691 0.23694 0.13441 0.0
C1195 C 0.18553 0.26101 0.12936 0.0
C1196 C 0.21401 0.22555 0.10787 0.0
C1197 C 0.21988 0.23816 0.07624 0.0
C1198 C 0.20533 0.26123 0.06945 0.0
C1199 C 0.18822 0.27258 0.09576 0.0
C1200 C 0.2441 0.2285 0.05185 0.0
C1201 C 0.23222 0.20902 0.02883 0.0
C1202 C 0.27696 0.24039 0.0484 0.0
C1203 C 0.29128 0.26056 0.07318 0.0
C1204 C 0.29901 0.28286 0.05811 0.0
C1205 C 0.31172 0.30202 0.08137 0.0
C1206 C 0.31688 0.29911 0.11978 0.0
C1207 C 0.3097 0.27696 0.13506 0.0
C1208 C 0.29706 0.25771 0.11191 0.0
C1209 C 0.3069 0.22358 0.90124 0.0
C1210 C 0.3149 0.19986 0.89216 0.0
C1211 C 0.29993 0.22898 0.93659 0.0
C1212 C 0.30089 0.21075 0.96321 0.0
C1213 C 0.31316 0.18777 0.95565 0.0
C1214 C 0.32 0.18231 0.92026 0.0
C1215 C 0.28301 0.21492 0.99568 0.0
C1216 C 0.29596 0.23348 0.02015 0.0
C1217 C 0.25104 0.20224 0.00033 0.0
C1218 C 0.2356 0.18279 0.97466 0.0
C1219 C 0.23105 0.1596 0.98839 0.0
C1220 C 0.21791 0.14097 0.96418 0.0
C1221 C 0.20929 0.14533 0.92614 0.0
C1222 C 0.21338 0.16838 0.91227 0.0
C1223 C 0.22589 0.18715 0.93643 0.0
H1224 H 0.1993 0.13087 0.90743 0.0
H1225 H 0.32654 0.31403 0.13766 0.0
H1226 H 0.7424 0.18271 0.12388 0.0
H1227 H 0.7612 0.2011 0.06943 0.0
H1228 H 0.70893 0.26738 0.09203 0.0
H1229 H 0.68998 0.24924 0.14655 0.0
H1230 H 0.68763 0.25046 0.02117 0.0
H1231 H 0.79819 0.26632 0.10437 0.0
H1232 H 0.85245 0.25735 0.15055 0.0
H1233 H 0.89004 0.20802 0.07493 0.0
H1234 H 0.83585 0.21655 0.02834 0.0
H1235 H 0.76446 0.32049 0.88567 0.0
H1236 H 0.75107 0.3069 0.94529 0.0
H1237 H 0.77893 0.23431 0.91982 0.0
H1238 H 0.79328 0.2477 0.86018 0.0
H1239 H 0.81319 0.25692 0.99332 0.0
H1240 H 0.67681 0.22802 0.93905 0.0
H1241 H 0.61944 0.2364 0.89676 0.0
H1242 H 0.63345 0.31199 0.91812 0.0
H1243 H 0.69025 0.30391 0.96141 0.0
C1244 C 0.73495 0.20122 0.11731 0.0
C1245 C 0.7144 0.21448 0.13924 0.0
C1246 C 0.74607 0.21174 0.08649 0.0
C1247 C 0.73662 0.23557 0.07711 0.0
C1248 C 0.71656 0.24896 0.09914 0.0
C1249 C 0.7057 0.23855 0.13014 0.0
C1250 C 0.74467 0.24579 0.04236 0.0
C1251 C 0.71515 0.25225 0.01535 0.0
C1252 C 0.78053 0.24755 0.0347 0.0
C1253 C 0.81278 0.24195 0.06294 0.0
C1254 C 0.81785 0.2534 0.09768 0.0
C1255 C 0.84872 0.24851 0.12385 0.0
C1256 C 0.87475 0.23221 0.11561 0.0
C1257 C 0.86993 0.22072 0.08121 0.0
C1258 C 0.83917 0.22561 0.05488 0.0
C1259 C 0.76776 0.30162 0.89262 0.0
C1260 C 0.78006 0.28516 0.86823 0.0
C1261 C 0.75966 0.29389 0.9265 0.0
C1262 C 0.76332 0.26962 0.93628 0.0
C1263 C 0.77564 0.25311 0.91226 0.0
C1264 C 0.78386 0.2608 0.87834 0.0
C1265 C 0.75615 0.26168 0.97256 0.0
C1266 C 0.7858 0.25537 0.99957 0.0
C1267 C 0.72049 0.26019 0.98051 0.0
C1268 C 0.68809 0.26543 0.95263 0.0
C1269 C 0.66773 0.24643 0.93442 0.0
C1270 C 0.63514 0.25109 0.91064 0.0
C1271 C 0.62283 0.27471 0.90473 0.0
C1272 C 0.64308 0.29371 0.92263 0.0
C1273 C 0.67545 0.2891 0.9468 0.0
H1274 H 0.59768 0.27829 0.88619 0.0
H1275 H 0.89853 0.22835 0.13599 0.0
H1276 H 0.83108 0.7422 0.86386 0.0
H1277 H 0.81797 0.76042 0.921 0.0
H1278 H 0.78206 0.69174 0.95613 0.0
H1279 H 0.79551 0.6732 0.89951 0.0
H1280 H 0.72936 0.73059 0.94619 0.0
H1281 H 0.85043 0.71198 0.00607 0.0
H1282 H 0.91737 0.71151 0.01378 0.0
H1283 H 0.91941 0.78864 0.01547 0.0
H1284 H 0.85239 0.78961 0.00756 0.0
H1285 H 0.69027 0.7566 0.12437 0.0
H1286 H 0.71109 0.74066 0.06948 0.0
H1287 H 0.75714 0.80967 0.04956 0.0
H1288 H 0.73663 0.82585 0.10469 0.0
H1289 H 0.80596 0.77248 0.05054 0.0
H1290 H 0.68478 0.79093 0.99297 0.0
H1291 H 0.61779 0.79134 0.98405 0.0
H1292 H 0.61573 0.71435 0.97582 0.0
H1293 H 0.68273 0.71342 0.98559 0.0
C1294 C 0.82106 0.73088 0.88408 0.0
C1295 C 0.81371 0.70637 0.87699 0.0
C1296 C 0.81392 0.74127 0.91674 0.0
C1297 C 0.79902 0.72732 0.94235 0.0
C1298 C 0.79368 0.70264 0.93646 0.0
C1299 C 0.80132 0.69214 0.90412 0.0
C1300 C 0.78392 0.73911 0.97221 0.0
C1301 C 0.74601 0.73942 0.96944 0.0
C1302 C 0.80598 0.75137 0.00129 0.0
C1303 C 0.8463 0.75087 0.00576 0.0
C1304 C 0.86509 0.72886 0.00768 0.0
C1305 C 0.90307 0.72849 0.01223 0.0
C1306 C 0.92261 0.75002 0.01485 0.0
C1307 C 0.90421 0.77197 0.01324 0.0
C1308 C 0.86623 0.77244 0.00885 0.0
C1309 C 0.70436 0.76851 0.10806 0.0
C1310 C 0.71208 0.79242 0.11901 0.0
C1311 C 0.71611 0.7594 0.07666 0.0
C1312 C 0.73561 0.77405 0.0557 0.0
C1313 C 0.74215 0.79816 0.06562 0.0
C1314 C 0.73024 0.80736 0.09695 0.0
C1315 C 0.75123 0.76359 0.02495 0.0
C1316 C 0.78924 0.76365 0.02734 0.0
C1317 C 0.72924 0.75163 0.99539 0.0
C1318 C 0.68887 0.7521 0.99036 0.0
C1319 C 0.67008 0.77406 0.98974 0.0
C1320 C 0.63208 0.77439 0.98446 0.0
C1321 C 0.61251 0.75289 0.97947 0.0
C1322 C 0.63091 0.731 0.97978 0.0
C1323 C 0.66891 0.73056 0.98521 0.0
H1324 H 0.58309 0.75319 0.97529 0.0
H1325 H 0.952 0.74969 0.01829 0.0
H1326 H 0.20943 0.70145 0.09692 0.0
H1327 H 0.23649 0.72208 0.04935 0.0
H1328 H 0.24112 0.78796 0.11202 0.0
H1329 H 0.21387 0.76749 0.16002 0.0
H1330 H 0.22367 0.79239 0.03066 0.0
H1331 H 0.3109 0.75652 0.12687 0.0
H1332 H 0.33115 0.7223 0.16779 0.0
H1333 H 0.34512 0.67953 0.07348 0.0
H1334 H 0.32346 0.71317 0.03182 0.0
H1335 H 0.33991 0.83527 0.915 0.0
H1336 H 0.32822 0.82516 0.97683 0.0
H1337 H 0.31601 0.75051 0.94549 0.0
H1338 H 0.32761 0.7603 0.88364 0.0
H1339 H 0.34395 0.75686 0.02037 0.0
H1340 H 0.24408 0.78385 0.92723 0.0
H1341 H 0.21423 0.81251 0.88047 0.0
H1342 H 0.22009 0.86748 0.96363 0.0
H1343 H 0.25051 0.83918 0.01078 0.0
C1344 C 0.21544 0.72046 0.10028 0.0
C1345 C 0.21032 0.73274 0.13257 0.0
C1346 C 0.23084 0.73218 0.07308 0.0
C1347 C 0.2415 0.75627 0.07789 0.0
C1348 C 0.23326 0.76926 0.10822 0.0
C1349 C 0.21771 0.75753 0.13552 0.0
C1350 C 0.26468 0.76683 0.05323 0.0
C1351 C 0.25039 0.78516 0.02901 0.0
C1352 C 0.29924 0.75691 0.05096 0.0
C1353 C 0.31515 0.73734 0.07616 0.0
C1354 C 0.3181 0.73979 0.11481 0.0
C1355 C 0.32963 0.72044 0.13813 0.0
C1356 C 0.33915 0.69869 0.1232 0.0
C1357 C 0.33756 0.69635 0.08497 0.0
C1358 C 0.32556 0.71555 0.06148 0.0
C1359 C 0.33567 0.81659 0.92147 0.0
C1360 C 0.33325 0.79868 0.894 0.0
C1361 C 0.32916 0.81089 0.95686 0.0
C1362 C 0.32034 0.78725 0.96513 0.0
C1363 C 0.32247 0.76891 0.93934 0.0
C1364 C 0.32887 0.77458 0.90391 0.0
C1365 C 0.30267 0.78217 0.99739 0.0
C1366 C 0.3179 0.7648 0.02297 0.0
C1367 C 0.26863 0.79258 0.00049 0.0
C1368 C 0.24995 0.80953 0.97238 0.0
C1369 C 0.23923 0.80211 0.93546 0.0
C1370 C 0.22219 0.81827 0.9089 0.0
C1371 C 0.21538 0.84183 0.91905 0.0
C1372 C 0.22548 0.84924 0.9558 0.0
C1373 C 0.24262 0.83316 0.98245 0.0
H1374 H 0.20218 0.85432 0.89846 0.0
H1375 H 0.34794 0.68369 0.1413 0.0
loop_
_geom_bond_atom_site_label_1
_geom_bond_atom_site_label_2
_geom_bond_distance
_geom_bond_site_symmetry_2
_ccdc_geom_bond_type
Sc0 O3 2.025 . S
Sc0 O10 2.105 . S
Sc0 O13 2.105 . S
Sc0 O16 2.105 . S
Sc0 O19 2.105 . S
Sc1 O3 2.025 . S
Sc1 O11 2.105 . S
Sc1 O15 2.105 . S
Sc1 O17 2.105 . S
Sc1 O21 2.105 . S
Sc2 O3 2.025 . S
Sc2 O12 2.105 . S
Sc2 O14 2.105 . S
Sc2 O18 2.105 . S
Sc2 O20 2.105 . S
O3 Sc0 2.025 . S
O3 Sc1 2.025 . S
O3 Sc2 2.025 . S
C4 O10 1.268 . S
C4 O20 1.268 . S
C5 O11 1.268 . S
C5 O19 1.268 . S
C6 O12 1.268 . S
C6 O21 1.268 . S
C7 O13 1.268 . S
C7 O17 1.268 . S
C8 O14 1.268 . S
C8 O16 1.268 . S
C9 O15 1.268 . S
C9 O18 1.268 . S
O10 Sc0 2.105 . S
O10 C4 1.268 . S
O11 Sc1 2.105 . S
O11 C5 1.268 . S
O12 Sc2 2.105 . S
O12 C6 1.268 . S
O13 Sc0 2.105 . S
O13 C7 1.268 . S
O14 Sc2 2.105 . S
O14 C8 1.268 . S
O15 Sc1 2.105 . S
O15 C9 1.268 . S
O16 Sc0 2.105 . S
O16 C8 1.268 . S
O17 Sc1 2.105 . S
O17 C7 1.268 . S
O18 Sc2 2.105 . S
O18 C9 1.268 . S
O19 Sc0 2.105 . S
O19 C5 1.268 . S
O20 Sc2 2.105 . S
O20 C4 1.268 . S
O21 Sc1 2.105 . S
O21 C6 1.268 . S
Sc22 O25 2.025 . S
Sc22 O32 2.105 . S
Sc22 O35 2.105 . S
Sc22 O38 2.105 . S
Sc22 O41 2.105 . S
Sc23 O25 2.025 . S
Sc23 O33 2.105 . S
Sc23 O37 2.105 . S
Sc23 O39 2.105 . S
Sc23 O43 2.105 . S
Sc24 O25 2.025 . S
Sc24 O34 2.105 . S
Sc24 O36 2.105 . S
Sc24 O40 2.105 . S
Sc24 O42 2.105 . S
O25 Sc22 2.025 . S
O25 Sc23 2.025 . S
O25 Sc24 2.025 . S
C26 O32 1.268 . S
C26 O42 1.268 . S
C27 O33 1.268 . S
C27 O41 1.268 . S
C28 O34 1.268 . S
C28 O43 1.268 . S
C29 O35 1.268 . S
C29 O39 1.268 . S
C30 O36 1.268 . S
C30 O38 1.268 . S
C31 O37 1.268 . S
C31 O40 1.268 . S
O32 Sc22 2.105 . S
O32 C26 1.268 . S
O33 Sc23 2.105 . S
O33 C27 1.268 . S
O34 Sc24 2.105 . S
O34 C28 1.268 . S
O35 Sc22 2.105 . S
O35 C29 1.268 . S
O36 Sc24 2.105 . S
O36 C30 1.268 . S
O37 Sc23 2.105 . S
O37 C31 1.268 . S
O38 Sc22 2.105 . S
O38 C30 1.268 . S
O39 Sc23 2.105 . S
O39 C29 1.268 . S
O40 Sc24 2.105 . S
O40 C31 1.268 . S
O41 Sc22 2.105 . S
O41 C27 1.268 . S
O42 Sc24 2.105 . S
O42 C26 1.268 . S
O43 Sc23 2.105 . S
O43 C28 1.268 . S
Sc44 O47 2.025 . S
Sc44 O54 2.105 . S
Sc44 O57 2.105 . S
Sc44 O60 2.105 . S
Sc44 O63 2.105 . S
Sc45 O47 2.025 . S
Sc45 O55 2.105 . S
Sc45 O59 2.105 . S
Sc45 O61 2.105 . S
Sc45 O65 2.105 . S
Sc46 O47 2.025 . S
Sc46 O56 2.105 . S
Sc46 O58 2.105 . S
Sc46 O62 2.105 . S
Sc46 O64 2.105 . S
O47 Sc44 2.025 . S
O47 Sc45 2.025 . S
O47 Sc46 2.025 . S
C48 O54 1.268 . S
C48 O64 1.268 . S
C49 O55 1.268 . S
C49 O63 1.268 . S
C50 O56 1.268 . S
C50 O65 1.268 . S
C51 O57 1.268 . S
C51 O61 1.268 . S
C52 O58 1.268 . S
C52 O60 1.268 . S
C53 O59 1.268 . S
C53 O62 1.268 . S
O54 Sc44 2.105 . S
O54 C48 1.268 . S
O55 Sc45 2.105 . S
O55 C49 1.268 . S
O56 Sc46 2.105 . S
O56 C50 1.268 . S
O57 Sc44 2.105 . S
O57 C51 1.268 . S
O58 Sc46 2.105 . S
O58 C52 1.268 . S
O59 Sc45 2.105 . S
O59 C53 1.268 . S
O60 Sc44 2.105 . S
O60 C52 1.268 . S
O61 Sc45 2.105 . S
O61 C51 1.268 . S
O62 Sc46 2.105 . S
O62 C53 1.268 . S
O63 Sc44 2.105 . S
O63 C49 1.268 . S
O64 Sc46 2.105 . S
O64 C48 1.268 . S
O65 Sc45 2.105 . S
O65 C50 1.268 . S
Sc66 O69 2.025 . S
Sc66 O76 2.105 . S
Sc66 O79 2.105 . S
Sc66 O82 2.105 . S
Sc66 O85 2.105 . S
Sc67 O69 2.025 . S
Sc67 O77 2.105 . S
Sc67 O81 2.105 . S
Sc67 O83 2.105 . S
Sc67 O87 2.105 . S
Sc68 O69 2.025 . S
Sc68 O78 2.105 . S
Sc68 O80 2.105 . S
Sc68 O84 2.105 . S
Sc68 O86 2.105 . S
O69 Sc66 2.025 . S
O69 Sc67 2.025 . S
O69 Sc68 2.025 . S
C70 O76 1.268 . S
C70 O86 1.268 . S
C71 O77 1.268 . S
C71 O85 1.268 . S
C72 O78 1.268 . S
C72 O87 1.268 . S
C73 O79 1.268 . S
C73 O83 1.268 . S
C74 O80 1.268 . S
C74 O82 1.268 . S
C75 O81 1.268 . S
C75 O84 1.268 . S
O76 Sc66 2.105 . S
O76 C70 1.268 . S
O77 Sc67 2.105 . S
O77 C71 1.268 . S
O78 Sc68 2.105 . S
O78 C72 1.268 . S
O79 Sc66 2.105 . S
O79 C73 1.268 . S
O80 Sc68 2.105 . S
O80 C74 1.268 . S
O81 Sc67 2.105 . S
O81 C75 1.268 . S
O82 Sc66 2.105 . S
O82 C74 1.268 . S
O83 Sc67 2.105 . S
O83 C73 1.268 . S
O84 Sc68 2.105 . S
O84 C75 1.268 . S
O85 Sc66 2.105 . S
O85 C71 1.268 . S
O86 Sc68 2.105 . S
O86 C70 1.268 . S
O87 Sc67 2.105 . S
O87 C72 1.268 . S
Sc88 O91 2.025 . S
Sc88 O98 2.105 . S
Sc88 O101 2.105 . S
Sc88 O104 2.105 . S
Sc88 O107 2.105 . S
Sc89 O91 2.025 . S
Sc89 O99 2.105 . S
Sc89 O103 2.105 . S
Sc89 O105 2.105 . S
Sc89 O109 2.105 . S
Sc90 O91 2.025 . S
Sc90 O100 2.105 . S
Sc90 O102 2.105 . S
Sc90 O106 2.105 . S
Sc90 O108 2.105 . S
O91 Sc88 2.025 . S
O91 Sc89 2.025 . S
O91 Sc90 2.025 . S
C92 O98 1.268 . S
C92 O108 1.268 . S
C93 O99 1.268 . S
C93 O107 1.268 . S
C94 O100 1.268 . S
C94 O109 1.268 . S
C95 O101 1.268 . S
C95 O105 1.268 . S
C96 O102 1.268 . S
C96 O104 1.268 . S
C97 O103 1.268 . S
C97 O106 1.268 . S
O98 Sc88 2.105 . S
O98 C92 1.268 . S
O99 Sc89 2.105 . S
O99 C93 1.268 . S
O100 Sc90 2.105 . S
O100 C94 1.268 . S
O101 Sc88 2.105 . S
O101 C95 1.268 . S
O102 Sc90 2.105 . S
O102 C96 1.268 . S
O103 Sc89 2.105 . S
O103 C97 1.268 . S
O104 Sc88 2.105 . S
O104 C96 1.268 . S
O105 Sc89 2.105 . S
O105 C95 1.268 . S
O106 Sc90 2.105 . S
O106 C97 1.268 . S
O107 Sc88 2.105 . S
O107 C93 1.268 . S
O108 Sc90 2.105 . S
O108 C92 1.268 . S
O109 Sc89 2.105 . S
O109 C94 1.268 . S
Sc110 O113 2.025 . S
Sc110 O120 2.105 . S
Sc110 O123 2.105 . S
Sc110 O126 2.105 . S
Sc110 O129 2.105 . S
Sc111 O113 2.025 . S
Sc111 O121 2.105 . S
Sc111 O125 2.105 . S
Sc111 O127 2.105 . S
Sc111 O131 2.105 . S
Sc112 O113 2.025 . S
Sc112 O122 2.105 . S
Sc112 O124 2.105 . S
Sc112 O128 2.105 . S
Sc112 O130 2.105 . S
O113 Sc110 2.025 . S
O113 Sc111 2.025 . S
O113 Sc112 2.025 . S
C114 O120 1.268 . S
C114 O130 1.268 . S
C115 O121 1.268 . S
C115 O129 1.268 . S
C116 O122 1.268 . S
C116 O131 1.268 . S
C117 O123 1.268 . S
C117 O127 1.268 . S
C118 O124 1.268 . S
C118 O126 1.268 . S
C119 O125 1.268 . S
C119 O128 1.268 . S
O120 Sc110 2.105 . S
O120 C114 1.268 . S
O121 Sc111 2.105 . S
O121 C115 1.268 . S
O122 Sc112 2.105 . S
O122 C116 1.268 . S
O123 Sc110 2.105 . S
O123 C117 1.268 . S
O124 Sc112 2.105 . S
O124 C118 1.268 . S
O125 Sc111 2.105 . S
O125 C119 1.268 . S
O126 Sc110 2.105 . S
O126 C118 1.268 . S
O127 Sc111 2.105 . S
O127 C117 1.268 . S
O128 Sc112 2.105 . S
O128 C119 1.268 . S
O129 Sc110 2.105 . S
O129 C115 1.268 . S
O130 Sc112 2.105 . S
O130 C114 1.268 . S
O131 Sc111 2.105 . S
O131 C116 1.268 . S
Sc132 O135 2.025 . S
Sc132 O142 2.105 . S
Sc132 O145 2.105 . S
Sc132 O148 2.105 . S
Sc132 O151 2.105 . S
Sc133 O135 2.025 . S
Sc133 O143 2.105 . S
Sc133 O147 2.105 . S
Sc133 O149 2.105 . S
Sc133 O153 2.105 . S
Sc134 O135 2.025 . S
Sc134 O144 2.105 . S
Sc134 O146 2.105 . S
Sc134 O150 2.105 . S
Sc134 O152 2.105 . S
O135 Sc132 2.025 . S
O135 Sc133 2.025 . S
O135 Sc134 2.025 . S
C136 O142 1.268 . S
C136 O152 1.268 . S
C137 O143 1.268 . S
C137 O151 1.268 . S
C138 O144 1.268 . S
C138 O153 1.268 . S
C139 O145 1.268 . S
C139 O149 1.268 . S
C140 O146 1.268 . S
C140 O148 1.268 . S
C141 O147 1.268 . S
C141 O150 1.268 . S
O142 Sc132 2.105 . S
O142 C136 1.268 . S
O143 Sc133 2.105 . S
O143 C137 1.268 . S
O144 Sc134 2.105 . S
O144 C138 1.268 . S
O145 Sc132 2.105 . S
O145 C139 1.268 . S
O146 Sc134 2.105 . S
O146 C140 1.268 . S
O147 Sc133 2.105 . S
O147 C141 1.268 . S
O148 Sc132 2.105 . S
O148 C140 1.268 . S
O149 Sc133 2.105 . S
O149 C139 1.268 . S
O150 Sc134 2.105 . S
O150 C141 1.268 . S
O151 Sc132 2.105 . S
O151 C137 1.268 . S
O152 Sc134 2.105 . S
O152 C136 1.268 . S
O153 Sc133 2.105 . S
O153 C138 1.268 . S
Sc154 O157 2.025 . S
Sc154 O164 2.105 . S
Sc154 O167 2.105 . S
Sc154 O170 2.105 . S
Sc154 O173 2.105 . S
Sc155 O157 2.025 . S
Sc155 O165 2.105 . S
Sc155 O169 2.105 . S
Sc155 O171 2.105 . S
Sc155 O175 2.105 . S
Sc156 O157 2.025 . S
Sc156 O166 2.105 . S
Sc156 O168 2.105 . S
Sc156 O172 2.105 . S
Sc156 O174 2.105 . S
O157 Sc154 2.025 . S
O157 Sc155 2.025 . S
O157 Sc156 2.025 . S
C158 O164 1.268 . S
C158 O174 1.268 . S
C159 O165 1.268 . S
C159 O173 1.268 . S
C160 O166 1.268 . S
C160 O175 1.268 . S
C161 O167 1.268 . S
C161 O171 1.268 . S
C162 O168 1.268 . S
C162 O170 1.268 . S
C163 O169 1.268 . S
C163 O172 1.268 . S
O164 Sc154 2.105 . S
O164 C158 1.268 . S
O165 Sc155 2.105 . S
O165 C159 1.268 . S
O166 Sc156 2.105 . S
O166 C160 1.268 . S
O167 Sc154 2.105 . S
O167 C161 1.268 . S
O168 Sc156 2.105 . S
O168 C162 1.268 . S
O169 Sc155 2.105 . S
O169 C163 1.268 . S
O170 Sc154 2.105 . S
O170 C162 1.268 . S
O171 Sc155 2.105 . S
O171 C161 1.268 . S
O172 Sc156 2.105 . S
O172 C163 1.268 . S
O173 Sc154 2.105 . S
O173 C159 1.268 . S
O174 Sc156 2.105 . S
O174 C158 1.268 . S
O175 Sc155 2.105 . S
O175 C160 1.268 . S
H176 C194 0.951 . S
H177 C196 0.951 . S
H178 C198 0.950 . S
H179 C199 0.950 . S
H180 C201 0.950 . S
H181 C204 0.950 . S
H182 C205 0.950 . S
H183 C207 0.950 . S
H184 C208 0.950 . S
H185 C209 0.951 . S
H186 C211 0.951 . S
H187 C213 0.950 . S
H188 C214 0.950 . S
H189 C216 0.950 . S
H190 C219 0.950 . S
H191 C220 0.950 . S
H192 C222 0.950 . S
H193 C223 0.950 . S
C194 H176 0.951 . S
C194 C195 1.366 . S
C194 C196 1.388 . S
C195 C194 1.366 . S
C195 C199 1.385 . S
C196 H177 0.951 . S
C196 C194 1.388 . S
C196 C197 1.366 . S
C197 C196 1.366 . S
C197 C198 1.414 . S
C197 C200 1.499 . S
C198 H178 0.950 . S
C198 C197 1.414 . S
C198 C199 1.374 . S
C199 H179 0.950 . S
C199 C195 1.385 . S
C199 C198 1.374 . S
C200 C197 1.499 . S
C200 C201 1.373 . S
C200 C202 1.389 . S
C201 H180 0.950 . S
C201 C200 1.373 . S
C201 C217 1.377 . S
C202 C200 1.389 . S
C202 C203 1.524 . S
C202 C216 1.377 . S
C203 C202 1.524 . S
C203 C204 1.397 . S
C203 C208 1.363 . S
C204 H181 0.950 . S
C204 C203 1.397 . S
C204 C205 1.334 . S
C205 H182 0.950 . S
C205 C204 1.334 . S
C205 C206 1.287 . S
C206 C205 1.287 . S
C206 C207 1.524 . S
C206 H225 0.913 . S
C207 H183 0.950 . S
C207 C206 1.524 . S
C207 C208 1.415 . S
C208 H184 0.950 . S
C208 C203 1.363 . S
C208 C207 1.415 . S
C209 H185 0.951 . S
C209 C210 1.366 . S
C209 C211 1.388 . S
C210 C209 1.366 . S
C210 C214 1.385 . S
C211 H186 0.951 . S
C211 C209 1.388 . S
C211 C212 1.366 . S
C212 C211 1.366 . S
C212 C213 1.414 . S
C212 C215 1.499 . S
C213 H187 0.950 . S
C213 C212 1.414 . S
C213 C214 1.374 . S
C214 H188 0.950 . S
C214 C210 1.385 . S
C214 C213 1.374 . S
C215 C212 1.499 . S
C215 C216 1.373 . S
C215 C217 1.389 . S
C216 H189 0.950 . S
C216 C202 1.377 . S
C216 C215 1.373 . S
C217 C201 1.377 . S
C217 C215 1.389 . S
C217 C218 1.524 . S
C218 C217 1.524 . S
C218 C219 1.397 . S
C218 C223 1.363 . S
C219 H190 0.950 . S
C219 C218 1.397 . S
C219 C220 1.334 . S
C220 H191 0.950 . S
C220 C219 1.334 . S
C220 C221 1.287 . S
C221 C220 1.287 . S
C221 C222 1.524 . S
C221 H224 0.999 . S
C222 H192 0.950 . S
C222 C221 1.524 . S
C222 C223 1.415 . S
C223 H193 0.950 . S
C223 C218 1.363 . S
C223 C222 1.415 . S
H224 C221 0.999 . S
H225 C206 0.913 . S
H226 C244 0.951 . S
H227 C246 0.951 . S
H228 C248 0.950 . S
H229 C249 0.950 . S
H230 C251 0.950 . S
H231 C254 0.950 . S
H232 C255 0.950 . S
H233 C257 0.950 . S
H234 C258 0.950 . S
H235 C259 0.951 . S
H236 C261 0.951 . S
H237 C263 0.950 . S
H238 C264 0.950 . S
H239 C266 0.950 . S
H240 C269 0.950 . S
H241 C270 0.950 . S
H242 C272 0.950 . S
H243 C273 0.950 . S
C244 H226 0.951 . S
C244 C245 1.366 . S
C244 C246 1.388 . S
C245 C244 1.366 . S
C245 C249 1.385 . S
C246 H227 0.951 . S
C246 C244 1.388 . S
C246 C247 1.366 . S
C247 C246 1.366 . S
C247 C248 1.414 . S
C247 C250 1.499 . S
C248 H228 0.950 . S
C248 C247 1.414 . S
C248 C249 1.374 . S
C249 H229 0.950 . S
C249 C245 1.385 . S
C249 C248 1.374 . S
C250 C247 1.499 . S
C250 C251 1.373 . S
C250 C252 1.389 . S
C251 H230 0.950 . S
C251 C250 1.373 . S
C251 C267 1.377 . S
C252 C250 1.389 . S
C252 C253 1.524 . S
C252 C266 1.377 . S
C253 C252 1.524 . S
C253 C254 1.397 . S
C253 C258 1.363 . S
C254 H231 0.950 . S
C254 C253 1.397 . S
C254 C255 1.334 . S
C255 H232 0.950 . S
C255 C254 1.334 . S
C255 C256 1.287 . S
C256 C255 1.287 . S
C256 C257 1.524 . S
C256 H275 0.913 . S
C257 H233 0.950 . S
C257 C256 1.524 . S
C257 C258 1.415 . S
C258 H234 0.950 . S
C258 C253 1.363 . S
C258 C257 1.415 . S
C259 H235 0.951 . S
C259 C260 1.366 . S
C259 C261 1.388 . S
C260 C259 1.366 . S
C260 C264 1.385 . S
C261 H236 0.951 . S
C261 C259 1.388 . S
C261 C262 1.366 . S
C262 C261 1.366 . S
C262 C263 1.414 . S
C262 C265 1.499 . S
C263 H237 0.950 . S
C263 C262 1.414 . S
C263 C264 1.374 . S
C264 H238 0.950 . S
C264 C260 1.385 . S
C264 C263 1.374 . S
C265 C262 1.499 . S
C265 C266 1.373 . S
C265 C267 1.389 . S
C266 H239 0.950 . S
C266 C252 1.377 . S
C266 C265 1.373 . S
C267 C251 1.377 . S
C267 C265 1.389 . S
C267 C268 1.524 . S
C268 C267 1.524 . S
C268 C269 1.397 . S
C268 C273 1.363 . S
C269 H240 0.950 . S
C269 C268 1.397 . S
C269 C270 1.334 . S
C270 H241 0.950 . S
C270 C269 1.334 . S
C270 C271 1.287 . S
C271 C270 1.287 . S
C271 C272 1.524 . S
C271 H274 0.999 . S
C272 H242 0.950 . S
C272 C271 1.524 . S
C272 C273 1.415 . S
C273 H243 0.950 . S
C273 C268 1.363 . S
C273 C272 1.415 . S
H274 C271 0.999 . S
H275 C256 0.913 . S
H276 C294 0.951 . S
H277 C296 0.951 . S
H278 C298 0.950 . S
H279 C299 0.950 . S
H280 C301 0.950 . S
H281 C304 0.950 . S
H282 C305 0.950 . S
H283 C307 0.950 . S
H284 C308 0.950 . S
H285 C309 0.951 . S
H286 C311 0.951 . S
H287 C313 0.950 . S
H288 C314 0.950 . S
H289 C316 0.950 . S
H290 C319 0.950 . S
H291 C320 0.950 . S
H292 C322 0.950 . S
H293 C323 0.950 . S
C294 H276 0.951 . S
C294 C295 1.366 . S
C294 C296 1.388 . S
C295 C294 1.366 . S
C295 C299 1.385 . S
C296 H277 0.951 . S
C296 C294 1.388 . S
C296 C297 1.366 . S
C297 C296 1.366 . S
C297 C298 1.414 . S
C297 C300 1.499 . S
C298 H278 0.950 . S
C298 C297 1.414 . S
C298 C299 1.374 . S
C299 H279 0.950 . S
C299 C295 1.385 . S
C299 C298 1.374 . S
C300 C297 1.499 . S
C300 C301 1.373 . S
C300 C302 1.389 . S
C301 H280 0.950 . S
C301 C300 1.373 . S
C301 C317 1.377 . S
C302 C300 1.389 . S
C302 C303 1.524 . S
C302 C316 1.377 . S
C303 C302 1.524 . S
C303 C304 1.397 . S
C303 C308 1.363 . S
C304 H281 0.950 . S
C304 C303 1.397 . S
C304 C305 1.334 . S
C305 H282 0.950 . S
C305 C304 1.334 . S
C305 C306 1.287 . S
C306 C305 1.287 . S
C306 C307 1.524 . S
C306 H325 0.913 . S
C307 H283 0.950 . S
C307 C306 1.524 . S
C307 C308 1.415 . S
C308 H284 0.950 . S
C308 C303 1.363 . S
C308 C307 1.415 . S
C309 H285 0.951 . S
C309 C310 1.366 . S
C309 C311 1.388 . S
C310 C309 1.366 . S
C310 C314 1.385 . S
C311 H286 0.951 . S
C311 C309 1.388 . S
C311 C312 1.366 . S
C312 C311 1.366 . S
C312 C313 1.414 . S
C312 C315 1.499 . S
C313 H287 0.950 . S
C313 C312 1.414 . S
C313 C314 1.374 . S
C314 H288 0.950 . S
C314 C310 1.385 . S
C314 C313 1.374 . S
C315 C312 1.499 . S
C315 C316 1.373 . S
C315 C317 1.389 . S
C316 H289 0.950 . S
C316 C302 1.377 . S
C316 C315 1.373 . S
C317 C301 1.377 . S
C317 C315 1.389 . S
C317 C318 1.524 . S
C318 C317 1.524 . S
C318 C319 1.397 . S
C318 C323 1.363 . S
C319 H290 0.950 . S
C319 C318 1.397 . S
C319 C320 1.334 . S
C320 H291 0.950 . S
C320 C319 1.334 . S
C320 C321 1.287 . S
C321 C320 1.287 . S
C321 C322 1.524 . S
C321 H324 0.999 . S
C322 H292 0.950 . S
C322 C321 1.524 . S
C322 C323 1.415 . S
C323 H293 0.950 . S
C323 C318 1.363 . S
C323 C322 1.415 . S
H324 C321 0.999 . S
H325 C306 0.913 . S
H326 C344 0.951 . S
H327 C346 0.951 . S
H328 C348 0.950 . S
H329 C349 0.950 . S
H330 C351 0.950 . S
H331 C354 0.950 . S
H332 C355 0.950 . S
H333 C357 0.950 . S
H334 C358 0.950 . S
H335 C359 0.951 . S
H336 C361 0.951 . S
H337 C363 0.950 . S
H338 C364 0.950 . S
H339 C366 0.950 . S
H340 C369 0.950 . S
H341 C370 0.950 . S
H342 C372 0.950 . S
H343 C373 0.950 . S
C344 H326 0.951 . S
C344 C345 1.366 . S
C344 C346 1.388 . S
C345 C344 1.366 . S
C345 C349 1.385 . S
C346 H327 0.951 . S
C346 C344 1.388 . S
C346 C347 1.366 . S
C347 C346 1.366 . S
C347 C348 1.414 . S
C347 C350 1.499 . S
C348 H328 0.950 . S
C348 C347 1.414 . S
C348 C349 1.374 . S
C349 H329 0.950 . S
C349 C345 1.385 . S
C349 C348 1.374 . S
C350 C347 1.499 . S
C350 C351 1.373 . S
C350 C352 1.389 . S
C351 H330 0.950 . S
C351 C350 1.373 . S
C351 C367 1.377 . S
C352 C350 1.389 . S
C352 C353 1.524 . S
C352 C366 1.377 . S
C353 C352 1.524 . S
C353 C354 1.397 . S
C353 C358 1.363 . S
C354 H331 0.950 . S
C354 C353 1.397 . S
C354 C355 1.334 . S
C355 H332 0.950 . S
C355 C354 1.334 . S
C355 C356 1.287 . S
C356 C355 1.287 . S
C356 C357 1.524 . S
C356 H375 0.913 . S
C357 H333 0.950 . S
C357 C356 1.524 . S
C357 C358 1.415 . S
C358 H334 0.950 . S
C358 C353 1.363 . S
C358 C357 1.415 . S
C359 H335 0.951 . S
C359 C360 1.366 . S
C359 C361 1.388 . S
C360 C359 1.366 . S
C360 C364 1.385 . S
C361 H336 0.951 . S
C361 C359 1.388 . S
C361 C362 1.366 . S
C362 C361 1.366 . S
C362 C363 1.414 . S
C362 C365 1.499 . S
C363 H337 0.950 . S
C363 C362 1.414 . S
C363 C364 1.374 . S
C364 H338 0.950 . S
C364 C360 1.385 . S
C364 C363 1.374 . S
C365 C362 1.499 . S
C365 C366 1.373 . S
C365 C367 1.389 . S
C366 H339 0.950 . S
C366 C352 1.377 . S
C366 C365 1.373 . S
C367 C351 1.377 . S
C367 C365 1.389 . S
C367 C368 1.524 . S
C368 C367 1.524 . S
C368 C369 1.397 . S
C368 C373 1.363 . S
C369 H340 0.950 . S
C369 C368 1.397 . S
C369 C370 1.334 . S
C370 H341 0.950 . S
C370 C369 1.334 . S
C370 C371 1.287 . S
C371 C370 1.287 . S
C371 C372 1.524 . S
C371 H374 0.999 . S
C372 H342 0.950 . S
C372 C371 1.524 . S
C372 C373 1.415 . S
C373 H343 0.950 . S
C373 C368 1.363 . S
C373 C372 1.415 . S
H374 C371 0.999 . S
H375 C356 0.913 . S
H376 C394 0.951 . S
H377 C396 0.951 . S
H378 C398 0.950 . S
H379 C399 0.950 . S
H380 C401 0.940 1_455 S
H381 C404 0.950 . S
H382 C405 0.950 . S
H383 C407 0.950 . S
H384 C408 0.950 . S
H385 C409 0.951 . S
H386 C411 0.951 . S
H387 C413 0.950 . S
H388 C414 0.950 . S
H389 C416 0.950 . S
H390 C419 0.950 . S
H391 C420 0.950 . S
H392 C422 0.950 . S
H393 C423 0.950 . S
C394 H376 0.951 . S
C394 C395 1.366 . S
C394 C396 1.388 . S
C395 C394 1.366 . S
C395 C399 1.385 . S
C396 H377 0.951 . S
C396 C394 1.388 . S
C396 C397 1.366 . S
C397 C396 1.366 . S
C397 C398 1.414 . S
C397 C400 1.499 . S
C398 H378 0.950 . S
C398 C397 1.414 . S
C398 C399 1.374 . S
C399 H379 0.950 . S
C399 C395 1.385 . S
C399 C398 1.374 . S
C400 C397 1.499 . S
C400 C401 1.367 1_455 S
C400 C402 1.389 1_455 S
C401 H380 0.940 1_655 S
C401 C400 1.367 1_655 S
C401 C417 1.393 . S
C402 C400 1.389 1_655 S
C402 C403 1.524 . S
C402 C416 1.377 . S
C403 C402 1.524 . S
C403 C404 1.397 1_655 S
C403 C408 1.363 . S
C404 H381 0.950 . S
C404 C403 1.397 1_455 S
C404 C405 1.334 . S
C405 H382 0.950 . S
C405 C404 1.334 . S
C405 C406 1.287 . S
C406 C405 1.287 . S
C406 C407 1.524 1_455 S
C406 H425 0.913 . S
C407 H383 0.950 . S
C407 C406 1.524 1_655 S
C407 C408 1.415 . S
C408 H384 0.950 . S
C408 C403 1.363 . S
C408 C407 1.415 . S
C409 H385 0.951 . S
C409 C410 1.366 . S
C409 C411 1.388 . S
C410 C409 1.366 . S
C410 C414 1.385 . S
C411 H386 0.951 . S
C411 C409 1.388 . S
C411 C412 1.366 . S
C412 C411 1.366 . S
C412 C413 1.414 . S
C412 C415 1.499 . S
C413 H387 0.950 . S
C413 C412 1.414 . S
C413 C414 1.374 . S
C414 H388 0.950 . S
C414 C410 1.385 . S
C414 C413 1.374 . S
C415 C412 1.499 . S
C415 C416 1.373 . S
C415 C417 1.389 . S
C416 H389 0.950 . S
C416 C402 1.377 . S
C416 C415 1.373 . S
C417 C401 1.393 . S
C417 C415 1.389 . S
C417 C418 1.524 . S
C418 C417 1.524 . S
C418 C419 1.397 . S
C418 C423 1.363 . S
C419 H390 0.950 . S
C419 C418 1.397 . S
C419 C420 1.334 . S
C420 H391 0.950 . S
C420 C419 1.334 . S
C420 C421 1.287 . S
C421 C420 1.287 . S
C421 C422 1.524 . S
C421 H424 0.999 . S
C422 H392 0.950 . S
C422 C421 1.524 . S
C422 C423 1.415 . S
C423 H393 0.950 . S
C423 C418 1.363 . S
C423 C422 1.415 . S
H424 C421 0.999 . S
H425 C406 0.913 . S
H426 C444 0.951 . S
H427 C446 0.951 . S
H428 C448 0.950 . S
H429 C449 0.950 . S
H430 C451 0.950 . S
H431 C454 0.948 . S
H432 C455 0.950 . S
H433 C457 0.950 . S
H434 C458 0.950 . S
H435 C459 0.951 . S
H436 C461 0.951 . S
H437 C463 0.950 . S
H438 C464 0.950 . S
H439 C466 0.950 . S
H440 C469 0.950 . S
H441 C470 0.950 . S
H442 C472 0.950 1_655 S
H443 C473 0.950 1_655 S
C444 H426 0.951 . S
C444 C445 1.366 . S
C444 C446 1.388 . S
C445 C444 1.366 . S
C445 C449 1.385 . S
C446 H427 0.951 . S
C446 C444 1.388 . S
C446 C447 1.366 . S
C447 C446 1.366 . S
C447 C448 1.414 . S
C447 C450 1.499 . S
C448 H428 0.950 . S
C448 C447 1.414 . S
C448 C449 1.374 . S
C449 H429 0.950 . S
C449 C445 1.385 . S
C449 C448 1.374 . S
C450 C447 1.499 . S
C450 C451 1.373 . S
C450 C452 1.389 1_655 S
C451 H430 0.950 . S
C451 C450 1.373 . S
C451 C467 1.377 1_655 S
C452 C450 1.389 1_455 S
C452 C453 1.524 . S
C452 C466 1.377 . S
C453 C452 1.524 . S
C453 C454 1.398 1_455 S
C453 C458 1.363 . S
C454 H431 0.948 . S
C454 C453 1.398 1_655 S
C454 C455 1.334 . S
C455 H432 0.950 . S
C455 C454 1.334 . S
C455 C456 1.287 1_655 S
C456 C455 1.287 1_455 S
C456 C457 1.524 . S
C456 H475 0.913 . S
C457 H433 0.950 . S
C457 C456 1.524 . S
C457 C458 1.415 . S
C458 H434 0.950 . S
C458 C453 1.363 . S
C458 C457 1.415 . S
C459 H435 0.951 . S
C459 C460 1.366 . S
C459 C461 1.388 . S
C460 C459 1.366 . S
C460 C464 1.385 . S
C461 H436 0.951 . S
C461 C459 1.388 . S
C461 C462 1.366 . S
C462 C461 1.366 . S
C462 C463 1.414 . S
C462 C465 1.499 . S
C463 H437 0.950 . S
C463 C462 1.414 . S
C463 C464 1.374 . S
C464 H438 0.950 . S
C464 C460 1.385 . S
C464 C463 1.374 . S
C465 C462 1.499 . S
C465 C466 1.373 . S
C465 C467 1.389 . S
C466 H439 0.950 . S
C466 C452 1.377 . S
C466 C465 1.373 . S
C467 C451 1.377 1_455 S
C467 C465 1.389 . S
C467 C468 1.524 . S
C468 C467 1.524 . S
C468 C469 1.397 . S
C468 C473 1.363 . S
C469 H440 0.950 . S
C469 C468 1.397 . S
C469 C470 1.334 . S
C470 H441 0.950 . S
C470 C469 1.334 . S
C470 C471 1.287 . S
C471 C470 1.287 . S
C471 C472 1.524 . S
C471 H474 0.999 . S
C472 H442 0.950 1_455 S
C472 C471 1.524 . S
C472 C473 1.415 . S
C473 H443 0.950 1_455 S
C473 C468 1.363 . S
C473 C472 1.415 . S
H474 C471 0.999 . S
H475 C456 0.913 . S
H476 C494 0.951 . S
H477 C496 0.951 . S
H478 C498 0.950 . S
H479 C499 0.950 . S
H480 C501 0.950 1_655 S
H481 C504 0.950 . S
H482 C505 0.950 . S
H483 C507 0.954 . S
H484 C508 0.950 . S
H485 C509 0.951 . S
H486 C511 0.951 . S
H487 C513 0.950 . S
H488 C514 0.950 . S
H489 C516 0.950 . S
H490 C519 0.950 . S
H491 C520 0.950 . S
H492 C522 0.950 . S
H493 C523 0.950 . S
C494 H476 0.951 . S
C494 C495 1.366 . S
C494 C496 1.388 . S
C495 C494 1.366 . S
C495 C499 1.385 . S
C496 H477 0.951 . S
C496 C494 1.388 . S
C496 C497 1.366 . S
C497 C496 1.366 . S
C497 C498 1.414 . S
C497 C500 1.499 . S
C498 H478 0.950 . S
C498 C497 1.414 . S
C498 C499 1.374 . S
C499 H479 0.950 . S
C499 C495 1.385 . S
C499 C498 1.374 . S
C500 C497 1.499 . S
C500 C501 1.373 1_655 S
C500 C502 1.389 1_655 S
C501 H480 0.950 1_455 S
C501 C500 1.373 1_455 S
C501 C517 1.377 . S
C502 C500 1.389 1_455 S
C502 C503 1.524 1_455 S
C502 C516 1.377 . S
C503 C502 1.524 1_655 S
C503 C504 1.397 . S
C503 C508 1.363 1_655 S
C504 H481 0.950 . S
C504 C503 1.397 . S
C504 C505 1.334 . S
C505 H482 0.950 . S
C505 C504 1.334 . S
C505 C506 1.287 . S
C506 C505 1.287 . S
C506 C507 1.524 . S
C506 H525 0.913 . S
C507 H483 0.954 . S
C507 C506 1.524 . S
C507 C508 1.415 1_655 S
C508 H484 0.950 . S
C508 C503 1.363 1_455 S
C508 C507 1.415 1_455 S
C509 H485 0.951 . S
C509 C510 1.366 . S
C509 C511 1.388 . S
C510 C509 1.366 . S
C510 C514 1.385 . S
C511 H486 0.951 . S
C511 C509 1.388 . S
C511 C512 1.366 . S
C512 C511 1.366 . S
C512 C513 1.414 . S
C512 C515 1.499 . S
C513 H487 0.950 . S
C513 C512 1.414 . S
C513 C514 1.374 . S
C514 H488 0.950 . S
C514 C510 1.385 . S
C514 C513 1.374 . S
C515 C512 1.499 . S
C515 C516 1.373 . S
C515 C517 1.389 . S
C516 H489 0.950 . S
C516 C502 1.377 . S
C516 C515 1.373 . S
C517 C501 1.377 . S
C517 C515 1.389 . S
C517 C518 1.524 . S
C518 C517 1.524 . S
C518 C519 1.397 . S
C518 C523 1.363 . S
C519 H490 0.950 . S
C519 C518 1.397 . S
C519 C520 1.334 . S
C520 H491 0.950 . S
C520 C519 1.334 . S
C520 C521 1.287 . S
C521 C520 1.287 . S
C521 C522 1.524 . S
C521 H524 0.999 . S
C522 H492 0.950 . S
C522 C521 1.524 . S
C522 C523 1.415 . S
C523 H493 0.950 . S
C523 C518 1.363 . S
C523 C522 1.415 . S
H524 C521 0.999 . S
H525 C506 0.913 . S
H526 C544 0.951 . S
H527 C546 0.951 . S
H528 C548 0.950 . S
H529 C549 0.950 . S
H530 C551 0.950 1_455 S
H531 C554 0.950 . S
H532 C555 0.950 . S
H533 C557 0.950 . S
H534 C558 0.950 . S
H535 C559 0.951 . S
H536 C561 0.951 . S
H537 C563 0.950 . S
H538 C564 0.950 . S
H539 C566 0.950 . S
H540 C569 0.950 . S
H541 C570 0.950 . S
H542 C572 0.950 . S
H543 C573 0.950 . S
C544 H526 0.951 . S
C544 C545 1.366 . S
C544 C546 1.388 . S
C545 C544 1.366 . S
C545 C549 1.385 . S
C546 H527 0.951 . S
C546 C544 1.388 . S
C546 C547 1.366 . S
C547 C546 1.366 . S
C547 C548 1.414 . S
C547 C550 1.499 . S
C548 H528 0.950 . S
C548 C547 1.414 . S
C548 C549 1.374 . S
C549 H529 0.950 . S
C549 C545 1.385 . S
C549 C548 1.374 . S
C550 C547 1.499 . S
C550 C551 1.373 1_455 S
C550 C552 1.389 1_455 S
C551 H530 0.950 1_655 S
C551 C550 1.373 1_655 S
C551 C567 1.377 . S
C552 C550 1.389 1_655 S
C552 C553 1.517 1_655 S
C552 C566 1.377 . S
C553 C552 1.517 1_455 S
C553 C554 1.421 . S
C553 C558 1.345 1_455 S
C554 H531 0.950 . S
C554 C553 1.421 . S
C554 C555 1.334 . S
C555 H532 0.950 . S
C555 C554 1.334 . S
C555 C556 1.287 . S
C556 C555 1.287 . S
C556 C557 1.524 1_455 S
C556 H575 0.913 . S
C557 H533 0.950 . S
C557 C556 1.524 1_655 S
C557 C558 1.415 . S
C558 H534 0.950 . S
C558 C553 1.345 1_655 S
C558 C557 1.415 . S
C559 H535 0.951 . S
C559 C560 1.366 . S
C559 C561 1.388 . S
C560 C559 1.366 . S
C560 C564 1.385 . S
C561 H536 0.951 . S
C561 C559 1.388 . S
C561 C562 1.366 . S
C562 C561 1.366 . S
C562 C563 1.414 . S
C562 C565 1.499 . S
C563 H537 0.950 . S
C563 C562 1.414 . S
C563 C564 1.374 . S
C564 H538 0.950 . S
C564 C560 1.385 . S
C564 C563 1.374 . S
C565 C562 1.499 . S
C565 C566 1.373 . S
C565 C567 1.389 . S
C566 H539 0.950 . S
C566 C552 1.377 . S
C566 C565 1.373 . S
C567 C551 1.377 . S
C567 C565 1.389 . S
C567 C568 1.524 . S
C568 C567 1.524 . S
C568 C569 1.397 . S
C568 C573 1.363 . S
C569 H540 0.950 . S
C569 C568 1.397 . S
C569 C570 1.334 . S
C570 H541 0.950 . S
C570 C569 1.334 . S
C570 C571 1.287 . S
C571 C570 1.287 . S
C571 C572 1.524 . S
C571 H574 0.999 . S
C572 H542 0.950 . S
C572 C571 1.524 . S
C572 C573 1.415 . S
C573 H543 0.950 . S
C573 C568 1.363 . S
C573 C572 1.415 . S
H574 C571 0.999 . S
H575 C556 0.913 . S
H576 C594 0.951 . S
H577 C596 0.951 . S
H578 C598 0.950 . S
H579 C599 0.950 . S
H580 C601 0.950 . S
H581 C604 0.950 . S
H582 C605 0.950 . S
H583 C607 0.950 . S
H584 C608 0.950 . S
H585 C609 0.951 . S
H586 C611 0.951 . S
H587 C613 0.950 . S
H588 C614 0.950 . S
H589 C616 0.950 . S
H590 C619 0.950 . S
H591 C620 0.950 . S
H592 C622 0.950 . S
H593 C623 0.950 . S
C594 H576 0.951 . S
C594 C595 1.366 . S
C594 C596 1.388 . S
C595 C594 1.366 . S
C595 C599 1.385 . S
C596 H577 0.951 . S
C596 C594 1.388 . S
C596 C597 1.366 . S
C597 C596 1.366 . S
C597 C598 1.414 . S
C597 C600 1.499 . S
C598 H578 0.950 . S
C598 C597 1.414 . S
C598 C599 1.374 . S
C599 H579 0.950 . S
C599 C595 1.385 . S
C599 C598 1.374 . S
C600 C597 1.499 . S
C600 C601 1.373 . S
C600 C602 1.389 . S
C601 H580 0.950 . S
C601 C600 1.373 . S
C601 C617 1.377 1_656 S
C602 C600 1.389 . S
C602 C603 1.524 . S
C602 C616 1.377 1_656 S
C603 C602 1.524 . S
C603 C604 1.397 . S
C603 C608 1.363 . S
C604 H581 0.950 . S
C604 C603 1.397 . S
C604 C605 1.334 . S
C605 H582 0.950 . S
C605 C604 1.334 . S
C605 C606 1.287 . S
C606 C605 1.287 . S
C606 C607 1.524 . S
C606 H625 0.913 . S
C607 H583 0.950 . S
C607 C606 1.524 . S
C607 C608 1.415 . S
C608 H584 0.950 . S
C608 C603 1.363 . S
C608 C607 1.415 . S
C609 H585 0.951 . S
C609 C610 1.366 . S
C609 C611 1.388 . S
C610 C609 1.366 . S
C610 C614 1.385 . S
C611 H586 0.951 . S
C611 C609 1.388 . S
C611 C612 1.366 . S
C612 C611 1.366 . S
C612 C613 1.414 . S
C612 C615 1.499 . S
C613 H587 0.950 . S
C613 C612 1.414 . S
C613 C614 1.374 . S
C614 H588 0.950 . S
C614 C610 1.385 . S
C614 C613 1.374 . S
C615 C612 1.499 . S
C615 C616 1.373 . S
C615 C617 1.389 . S
C616 H589 0.950 . S
C616 C602 1.377 1_454 S
C616 C615 1.373 . S
C617 C601 1.377 1_454 S
C617 C615 1.389 . S
C617 C618 1.524 . S
C618 C617 1.524 . S
C618 C619 1.397 . S
C618 C623 1.363 . S
C619 H590 0.950 . S
C619 C618 1.397 . S
C619 C620 1.334 . S
C620 H591 0.950 . S
C620 C619 1.334 . S
C620 C621 1.287 . S
C621 C620 1.287 . S
C621 C622 1.524 . S
C621 H624 0.999 . S
C622 H592 0.950 . S
C622 C621 1.524 . S
C622 C623 1.415 . S
C623 H593 0.950 . S
C623 C618 1.363 . S
C623 C622 1.415 . S
H624 C621 0.999 . S
H625 C606 0.913 . S
H626 C644 0.951 . S
H627 C646 0.951 . S
H628 C648 0.950 . S
H629 C649 0.950 . S
H630 C651 0.950 . S
H631 C654 0.950 . S
H632 C655 0.950 . S
H633 C657 0.950 . S
H634 C658 0.950 . S
H635 C659 0.951 . S
H636 C661 0.951 . S
H637 C663 0.950 . S
H638 C664 0.950 . S
H639 C666 0.950 . S
H640 C669 0.950 . S
H641 C670 0.950 . S
H642 C672 0.950 . S
H643 C673 0.950 . S
C644 H626 0.951 . S
C644 C645 1.366 . S
C644 C646 1.388 . S
C645 C644 1.366 . S
C645 C649 1.385 . S
C646 H627 0.951 . S
C646 C644 1.388 . S
C646 C647 1.366 . S
C647 C646 1.366 . S
C647 C648 1.414 . S
C647 C650 1.499 . S
C648 H628 0.950 . S
C648 C647 1.414 . S
C648 C649 1.374 . S
C649 H629 0.950 . S
C649 C645 1.385 . S
C649 C648 1.374 . S
C650 C647 1.499 . S
C650 C651 1.373 . S
C650 C652 1.389 . S
C651 H630 0.950 . S
C651 C650 1.373 . S
C651 C667 1.377 1_454 S
C652 C650 1.389 . S
C652 C653 1.524 . S
C652 C666 1.377 1_454 S
C653 C652 1.524 . S
C653 C654 1.397 . S
C653 C658 1.363 1_455 S
C654 H631 0.950 . S
C654 C653 1.397 . S
C654 C655 1.334 . S
C655 H632 0.950 . S
C655 C654 1.334 . S
C655 C656 1.287 . S
C656 C655 1.287 . S
C656 C657 1.524 1_455 S
C656 H675 0.913 . S
C657 H633 0.950 . S
C657 C656 1.524 1_655 S
C657 C658 1.415 . S
C658 H634 0.950 . S
C658 C653 1.363 1_655 S
C658 C657 1.415 . S
C659 H635 0.951 . S
C659 C660 1.366 . S
C659 C661 1.388 . S
C660 C659 1.366 . S
C660 C664 1.385 . S
C661 H636 0.951 . S
C661 C659 1.388 . S
C661 C662 1.366 . S
C662 C661 1.366 . S
C662 C663 1.414 . S
C662 C665 1.499 . S
C663 H637 0.950 . S
C663 C662 1.414 . S
C663 C664 1.374 . S
C664 H638 0.950 . S
C664 C660 1.385 . S
C664 C663 1.374 . S
C665 C662 1.499 . S
C665 C666 1.373 . S
C665 C667 1.389 . S
C666 H639 0.950 . S
C666 C652 1.377 1_656 S
C666 C665 1.373 . S
C667 C651 1.377 1_656 S
C667 C665 1.389 . S
C667 C668 1.524 . S
C668 C667 1.524 . S
C668 C669 1.397 . S
C668 C673 1.363 1_655 S
C669 H640 0.950 . S
C669 C668 1.397 . S
C669 C670 1.334 . S
C670 H641 0.950 . S
C670 C669 1.334 . S
C670 C671 1.287 . S
C671 C670 1.287 . S
C671 C672 1.524 1_655 S
C671 H674 0.999 . S
C672 H642 0.950 . S
C672 C671 1.524 1_455 S
C672 C673 1.415 . S
C673 H643 0.950 . S
C673 C668 1.363 1_455 S
C673 C672 1.415 . S
H674 C671 0.999 . S
H675 C656 0.913 . S
H676 C694 0.951 . S
H677 C696 0.951 . S
H678 C698 0.950 . S
H679 C699 0.950 . S
H680 C701 0.950 . S
H681 C704 0.950 . S
H682 C705 0.950 . S
H683 C707 0.950 . S
H684 C708 0.950 . S
H685 C709 0.951 . S
H686 C711 0.951 . S
H687 C713 0.950 . S
H688 C714 0.950 . S
H689 C716 0.950 . S
H690 C719 0.950 . S
H691 C720 0.950 . S
H692 C722 0.950 . S
H693 C723 0.950 . S
C694 H676 0.951 . S
C694 C695 1.366 . S
C694 C696 1.388 . S
C695 C694 1.366 . S
C695 C699 1.385 . S
C696 H677 0.951 . S
C696 C694 1.388 . S
C696 C697 1.366 . S
C697 C696 1.366 . S
C697 C698 1.414 . S
C697 C700 1.499 . S
C698 H678 0.950 . S
C698 C697 1.414 . S
C698 C699 1.374 . S
C699 H679 0.950 . S
C699 C695 1.385 . S
C699 C698 1.374 . S
C700 C697 1.499 . S
C700 C701 1.373 . S
C700 C702 1.389 . S
C701 H680 0.950 . S
C701 C700 1.373 . S
C701 C717 1.377 1_554 S
C702 C700 1.389 . S
C702 C703 1.524 . S
C702 C716 1.377 1_554 S
C703 C702 1.524 . S
C703 C704 1.397 . S
C703 C708 1.363 1_554 S
C704 H681 0.950 . S
C704 C703 1.397 . S
C704 C705 1.334 . S
C705 H682 0.950 . S
C705 C704 1.334 . S
C705 C706 1.287 . S
C706 C705 1.287 . S
C706 C707 1.524 1_554 S
C706 H725 0.913 . S
C707 H683 0.950 . S
C707 C706 1.524 1_556 S
C707 C708 1.415 . S
C708 H684 0.950 . S
C708 C703 1.363 1_556 S
C708 C707 1.415 . S
C709 H685 0.951 . S
C709 C710 1.366 . S
C709 C711 1.388 . S
C710 C709 1.366 . S
C710 C714 1.385 . S
C711 H686 0.951 . S
C711 C709 1.388 . S
C711 C712 1.366 . S
C712 C711 1.366 . S
C712 C713 1.414 . S
C712 C715 1.499 . S
C713 H687 0.950 . S
C713 C712 1.414 . S
C713 C714 1.374 . S
C714 H688 0.950 . S
C714 C710 1.385 . S
C714 C713 1.374 . S
C715 C712 1.499 . S
C715 C716 1.373 . S
C715 C717 1.389 . S
C716 H689 0.950 . S
C716 C702 1.377 1_556 S
C716 C715 1.373 . S
C717 C701 1.377 1_556 S
C717 C715 1.389 . S
C717 C718 1.524 . S
C718 C717 1.524 . S
C718 C719 1.397 . S
C718 C723 1.363 1_556 S
C719 H690 0.950 . S
C719 C718 1.397 . S
C719 C720 1.334 . S
C720 H691 0.950 . S
C720 C719 1.334 . S
C720 C721 1.287 . S
C721 C720 1.287 . S
C721 C722 1.524 1_556 S
C721 H724 0.999 . S
C722 H692 0.950 . S
C722 C721 1.524 1_554 S
C722 C723 1.415 . S
C723 H693 0.950 . S
C723 C718 1.363 1_554 S
C723 C722 1.415 . S
H724 C721 0.999 . S
H725 C706 0.913 . S
H726 C744 0.951 . S
H727 C746 0.951 . S
H728 C748 0.950 . S
H729 C749 0.950 . S
H730 C751 0.950 . S
H731 C754 0.950 . S
H732 C755 0.950 . S
H733 C757 0.950 . S
H734 C758 0.950 1_556 S
H735 C759 0.951 . S
H736 C761 0.951 . S
H737 C763 0.950 . S
H738 C764 0.950 . S
H739 C766 0.950 . S
H740 C769 0.950 . S
H741 C770 0.950 . S
H742 C772 0.950 . S
H743 C773 0.950 1_554 S
C744 H726 0.951 . S
C744 C745 1.366 . S
C744 C746 1.388 . S
C745 C744 1.366 . S
C745 C749 1.385 . S
C746 H727 0.951 . S
C746 C744 1.388 . S
C746 C747 1.366 . S
C747 C746 1.366 . S
C747 C748 1.414 . S
C747 C750 1.499 . S
C748 H728 0.950 . S
C748 C747 1.414 . S
C748 C749 1.374 . S
C749 H729 0.950 . S
C749 C745 1.385 . S
C749 C748 1.374 . S
C750 C747 1.499 . S
C750 C751 1.373 . S
C750 C752 1.389 . S
C751 H730 0.950 . S
C751 C750 1.373 . S
C751 C767 1.377 1_554 S
C752 C750 1.389 . S
C752 C753 1.524 . S
C752 C766 1.377 1_554 S
C753 C752 1.524 . S
C753 C754 1.397 . S
C753 C758 1.363 . S
C754 H731 0.950 . S
C754 C753 1.397 . S
C754 C755 1.334 . S
C755 H732 0.950 . S
C755 C754 1.334 . S
C755 C756 1.287 . S
C756 C755 1.287 . S
C756 C757 1.524 . S
C756 H775 0.913 . S
C757 H733 0.950 . S
C757 C756 1.524 . S
C757 C758 1.415 . S
C758 H734 0.950 1_554 S
C758 C753 1.363 . S
C758 C757 1.415 . S
C759 H735 0.951 . S
C759 C760 1.366 . S
C759 C761 1.388 . S
C760 C759 1.366 . S
C760 C764 1.385 . S
C761 H736 0.951 . S
C761 C759 1.388 . S
C761 C762 1.366 . S
C762 C761 1.366 . S
C762 C763 1.414 . S
C762 C765 1.499 . S
C763 H737 0.950 . S
C763 C762 1.414 . S
C763 C764 1.374 . S
C764 H738 0.950 . S
C764 C760 1.385 . S
C764 C763 1.374 . S
C765 C762 1.499 . S
C765 C766 1.373 . S
C765 C767 1.389 . S
C766 H739 0.950 . S
C766 C752 1.377 1_556 S
C766 C765 1.373 . S
C767 C751 1.377 1_556 S
C767 C765 1.389 . S
C767 C768 1.524 . S
C768 C767 1.524 . S
C768 C769 1.397 . S
C768 C773 1.363 . S
C769 H740 0.950 . S
C769 C768 1.397 . S
C769 C770 1.334 . S
C770 H741 0.950 . S
C770 C769 1.334 . S
C770 C771 1.287 . S
C771 C770 1.287 . S
C771 C772 1.524 . S
C771 H774 0.999 . S
C772 H742 0.950 . S
C772 C771 1.524 . S
C772 C773 1.415 . S
C773 H743 0.950 1_556 S
C773 C768 1.363 . S
C773 C772 1.415 . S
H774 C771 0.999 . S
H775 C756 0.913 . S
H776 C794 0.951 . S
H777 C796 0.951 . S
H778 C798 0.950 . S
H779 C799 0.950 . S
H780 C801 0.950 . S
H781 C804 0.950 . S
H782 C805 0.950 . S
H783 C807 0.950 . S
H784 C808 0.950 . S
H785 C809 0.951 . S
H786 C811 0.951 . S
H787 C813 0.950 . S
H788 C814 0.950 . S
H789 C816 0.950 . S
H790 C819 0.950 . S
H791 C820 0.950 . S
H792 C822 0.950 . S
H793 C823 0.950 . S
C794 H776 0.951 . S
C794 C795 1.366 . S
C794 C796 1.388 . S
C795 C794 1.366 . S
C795 C799 1.385 . S
C796 H777 0.951 . S
C796 C794 1.388 . S
C796 C797 1.366 . S
C797 C796 1.366 . S
C797 C798 1.414 . S
C797 C800 1.499 . S
C798 H778 0.950 . S
C798 C797 1.414 . S
C798 C799 1.374 . S
C799 H779 0.950 . S
C799 C795 1.385 . S
C799 C798 1.374 . S
C800 C797 1.499 . S
C800 C801 1.373 . S
C800 C802 1.389 . S
C801 H780 0.950 . S
C801 C800 1.373 . S
C801 C817 1.377 . S
C802 C800 1.389 . S
C802 C803 1.524 . S
C802 C816 1.377 . S
C803 C802 1.524 . S
C803 C804 1.397 . S
C803 C808 1.363 . S
C804 H781 0.950 . S
C804 C803 1.397 . S
C804 C805 1.334 . S
C805 H782 0.950 . S
C805 C804 1.334 . S
C805 C806 1.287 . S
C806 C805 1.287 . S
C806 C807 1.524 . S
C806 H825 0.913 . S
C807 H783 0.950 . S
C807 C806 1.524 . S
C807 C808 1.415 . S
C808 H784 0.950 . S
C808 C803 1.363 . S
C808 C807 1.415 . S
C809 H785 0.951 . S
C809 C810 1.366 . S
C809 C811 1.388 . S
C810 C809 1.366 . S
C810 C814 1.385 . S
C811 H786 0.951 . S
C811 C809 1.388 . S
C811 C812 1.366 . S
C812 C811 1.366 . S
C812 C813 1.414 . S
C812 C815 1.499 . S
C813 H787 0.950 . S
C813 C812 1.414 . S
C813 C814 1.374 . S
C814 H788 0.950 . S
C814 C810 1.385 . S
C814 C813 1.374 . S
C815 C812 1.499 . S
C815 C816 1.373 . S
C815 C817 1.389 . S
C816 H789 0.950 . S
C816 C802 1.377 . S
C816 C815 1.373 . S
C817 C801 1.377 . S
C817 C815 1.389 . S
C817 C818 1.524 . S
C818 C817 1.524 . S
C818 C819 1.397 . S
C818 C823 1.363 . S
C819 H790 0.950 . S
C819 C818 1.397 . S
C819 C820 1.334 . S
C820 H791 0.950 . S
C820 C819 1.334 . S
C820 C821 1.287 . S
C821 C820 1.287 . S
C821 C822 1.524 . S
C821 H824 0.999 . S
C822 H792 0.950 . S
C822 C821 1.524 . S
C822 C823 1.415 . S
C823 H793 0.950 . S
C823 C818 1.363 . S
C823 C822 1.415 . S
H824 C821 0.999 . S
H825 C806 0.913 . S
H826 C844 0.951 . S
H827 C846 0.951 . S
H828 C848 0.950 . S
H829 C849 0.950 . S
H830 C851 0.950 . S
H831 C854 0.950 . S
H832 C855 0.950 . S
H833 C857 0.950 . S
H834 C858 0.950 . S
H835 C859 0.951 . S
H836 C861 0.951 . S
H837 C863 0.950 . S
H838 C864 0.950 . S
H839 C866 0.950 . S
H840 C869 0.950 . S
H841 C870 0.950 . S
H842 C872 0.950 . S
H843 C873 0.950 . S
C844 H826 0.951 . S
C844 C845 1.366 . S
C844 C846 1.388 . S
C845 C844 1.366 . S
C845 C849 1.385 . S
C846 H827 0.951 . S
C846 C844 1.388 . S
C846 C847 1.366 . S
C847 C846 1.366 . S
C847 C848 1.414 . S
C847 C850 1.499 . S
C848 H828 0.950 . S
C848 C847 1.414 . S
C848 C849 1.374 . S
C849 H829 0.950 . S
C849 C845 1.385 . S
C849 C848 1.374 . S
C850 C847 1.499 . S
C850 C851 1.373 . S
C850 C852 1.389 . S
C851 H830 0.950 . S
C851 C850 1.373 . S
C851 C867 1.377 . S
C852 C850 1.389 . S
C852 C853 1.524 . S
C852 C866 1.377 . S
C853 C852 1.524 . S
C853 C854 1.397 . S
C853 C858 1.363 . S
C854 H831 0.950 . S
C854 C853 1.397 . S
C854 C855 1.334 . S
C855 H832 0.950 . S
C855 C854 1.334 . S
C855 C856 1.287 . S
C856 C855 1.287 . S
C856 C857 1.524 . S
C856 H875 0.913 . S
C857 H833 0.950 . S
C857 C856 1.524 . S
C857 C858 1.415 . S
C858 H834 0.950 . S
C858 C853 1.363 . S
C858 C857 1.415 . S
C859 H835 0.951 . S
C859 C860 1.366 . S
C859 C861 1.388 . S
C860 C859 1.366 . S
C860 C864 1.385 . S
C861 H836 0.951 . S
C861 C859 1.388 . S
C861 C862 1.366 . S
C862 C861 1.366 . S
C862 C863 1.414 . S
C862 C865 1.499 . S
C863 H837 0.950 . S
C863 C862 1.414 . S
C863 C864 1.374 . S
C864 H838 0.950 . S
C864 C860 1.385 . S
C864 C863 1.374 . S
C865 C862 1.499 . S
C865 C866 1.373 . S
C865 C867 1.389 . S
C866 H839 0.950 . S
C866 C852 1.377 . S
C866 C865 1.373 . S
C867 C851 1.377 . S
C867 C865 1.389 . S
C867 C868 1.524 . S
C868 C867 1.524 . S
C868 C869 1.397 . S
C868 C873 1.363 . S
C869 H840 0.950 . S
C869 C868 1.397 . S
C869 C870 1.334 . S
C870 H841 0.950 . S
C870 C869 1.334 . S
C870 C871 1.287 . S
C871 C870 1.287 . S
C871 C872 1.524 . S
C871 H874 0.999 . S
C872 H842 0.950 . S
C872 C871 1.524 . S
C872 C873 1.415 . S
C873 H843 0.950 . S
C873 C868 1.363 . S
C873 C872 1.415 . S
H874 C871 0.999 . S
H875 C856 0.913 . S
H876 C894 0.951 . S
H877 C896 0.951 . S
H878 C898 0.950 . S
H879 C899 0.950 . S
H880 C901 0.950 . S
H881 C904 0.950 . S
H882 C905 0.950 . S
H883 C907 0.950 . S
H884 C908 0.950 . S
H885 C909 0.951 . S
H886 C911 0.951 . S
H887 C913 0.950 . S
H888 C914 0.950 . S
H889 C916 0.950 . S
H890 C919 0.950 . S
H891 C920 0.950 . S
H892 C922 0.950 . S
H893 C923 0.950 . S
C894 H876 0.951 . S
C894 C895 1.366 . S
C894 C896 1.388 . S
C895 C894 1.366 . S
C895 C899 1.385 . S
C896 H877 0.951 . S
C896 C894 1.388 . S
C896 C897 1.366 . S
C897 C896 1.366 . S
C897 C898 1.414 . S
C897 C900 1.499 . S
C898 H878 0.950 . S
C898 C897 1.414 . S
C898 C899 1.374 . S
C899 H879 0.950 . S
C899 C895 1.385 . S
C899 C898 1.374 . S
C900 C897 1.499 . S
C900 C901 1.373 . S
C900 C902 1.389 . S
C901 H880 0.950 . S
C901 C900 1.373 . S
C901 C917 1.377 1_565 S
C902 C900 1.389 . S
C902 C903 1.524 . S
C902 C916 1.377 1_565 S
C903 C902 1.524 . S
C903 C904 1.397 . S
C903 C908 1.363 . S
C904 H881 0.950 . S
C904 C903 1.397 . S
C904 C905 1.334 . S
C905 H882 0.950 . S
C905 C904 1.334 . S
C905 C906 1.287 . S
C906 C905 1.287 . S
C906 C907 1.524 . S
C906 H925 0.913 . S
C907 H883 0.950 . S
C907 C906 1.524 . S
C907 C908 1.415 . S
C908 H884 0.950 . S
C908 C903 1.363 . S
C908 C907 1.415 . S
C909 H885 0.951 . S
C909 C910 1.366 . S
C909 C911 1.388 . S
C910 C909 1.366 . S
C910 C914 1.385 . S
C911 H886 0.951 . S
C911 C909 1.388 . S
C911 C912 1.366 . S
C912 C911 1.366 . S
C912 C913 1.414 . S
C912 C915 1.499 . S
C913 H887 0.950 . S
C913 C912 1.414 . S
C913 C914 1.374 . S
C914 H888 0.950 . S
C914 C910 1.385 . S
C914 C913 1.374 . S
C915 C912 1.499 . S
C915 C916 1.373 . S
C915 C917 1.389 . S
C916 H889 0.950 . S
C916 C902 1.377 1_545 S
C916 C915 1.373 . S
C917 C901 1.377 1_545 S
C917 C915 1.389 . S
C917 C918 1.524 . S
C918 C917 1.524 . S
C918 C919 1.397 . S
C918 C923 1.363 . S
C919 H890 0.950 . S
C919 C918 1.397 . S
C919 C920 1.334 . S
C920 H891 0.950 . S
C920 C919 1.334 . S
C920 C921 1.287 . S
C921 C920 1.287 . S
C921 C922 1.524 . S
C921 H924 0.999 . S
C922 H892 0.950 . S
C922 C921 1.524 . S
C922 C923 1.415 . S
C923 H893 0.950 . S
C923 C918 1.363 . S
C923 C922 1.415 . S
H924 C921 0.999 . S
H925 C906 0.913 . S
H926 C944 0.951 . S
H927 C946 0.951 . S
H928 C948 0.950 . S
H929 C949 0.950 . S
H930 C951 0.950 . S
H931 C954 0.950 . S
H932 C955 0.950 . S
H933 C957 0.950 . S
H934 C958 0.950 . S
H935 C959 0.951 . S
H936 C961 0.951 . S
H937 C963 0.950 . S
H938 C964 0.950 . S
H939 C966 0.950 . S
H940 C969 0.950 . S
H941 C970 0.950 . S
H942 C972 0.950 . S
H943 C973 0.950 . S
C944 H926 0.951 . S
C944 C945 1.366 . S
C944 C946 1.388 . S
C945 C944 1.366 . S
C945 C949 1.385 . S
C946 H927 0.951 . S
C946 C944 1.388 . S
C946 C947 1.366 . S
C947 C946 1.366 . S
C947 C948 1.414 . S
C947 C950 1.499 . S
C948 H928 0.950 . S
C948 C947 1.414 . S
C948 C949 1.374 . S
C949 H929 0.950 . S
C949 C945 1.385 . S
C949 C948 1.374 . S
C950 C947 1.499 . S
C950 C951 1.373 . S
C950 C952 1.389 . S
C951 H930 0.950 . S
C951 C950 1.373 . S
C951 C967 1.377 1_565 S
C952 C950 1.389 . S
C952 C953 1.524 . S
C952 C966 1.377 1_565 S
C953 C952 1.524 . S
C953 C954 1.397 . S
C953 C958 1.363 . S
C954 H931 0.950 . S
C954 C953 1.397 . S
C954 C955 1.334 . S
C955 H932 0.950 . S
C955 C954 1.334 . S
C955 C956 1.287 . S
C956 C955 1.287 . S
C956 C957 1.524 . S
C956 H975 0.913 . S
C957 H933 0.950 . S
C957 C956 1.524 . S
C957 C958 1.415 . S
C958 H934 0.950 . S
C958 C953 1.363 . S
C958 C957 1.415 . S
C959 H935 0.951 . S
C959 C960 1.366 . S
C959 C961 1.388 . S
C960 C959 1.366 . S
C960 C964 1.385 . S
C961 H936 0.951 . S
C961 C959 1.388 . S
C961 C962 1.366 . S
C962 C961 1.366 . S
C962 C963 1.414 . S
C962 C965 1.499 . S
C963 H937 0.950 . S
C963 C962 1.414 . S
C963 C964 1.374 . S
C964 H938 0.950 . S
C964 C960 1.385 . S
C964 C963 1.374 . S
C965 C962 1.499 . S
C965 C966 1.373 . S
C965 C967 1.389 . S
C966 H939 0.950 . S
C966 C952 1.377 1_545 S
C966 C965 1.373 . S
C967 C951 1.377 1_545 S
C967 C965 1.389 . S
C967 C968 1.524 . S
C968 C967 1.524 . S
C968 C969 1.397 . S
C968 C973 1.363 . S
C969 H940 0.950 . S
C969 C968 1.397 . S
C969 C970 1.334 . S
C970 H941 0.950 . S
C970 C969 1.334 . S
C970 C971 1.287 . S
C971 C970 1.287 . S
C971 C972 1.524 . S
C971 H974 0.999 . S
C972 H942 0.950 . S
C972 C971 1.524 . S
C972 C973 1.415 . S
C973 H943 0.950 . S
C973 C968 1.363 . S
C973 C972 1.415 . S
H974 C971 0.999 . S
H975 C956 0.913 . S
H976 C994 0.951 . S
H977 C996 0.951 . S
H978 C998 0.950 . S
H979 C999 0.950 . S
H980 C1001 0.950 . S
H981 C1004 0.950 . S
H982 C1005 0.950 . S
H983 C1007 0.950 . S
H984 C1008 0.950 . S
H985 C1009 0.951 . S
H986 C1011 0.951 . S
H987 C1013 0.950 . S
H988 C1014 0.950 . S
H989 C1016 0.950 . S
H990 C1019 0.950 . S
H991 C1020 0.950 . S
H992 C1022 0.950 . S
H993 C1023 0.950 . S
C994 H976 0.951 . S
C994 C995 1.366 . S
C994 C996 1.388 . S
C995 C994 1.366 . S
C995 C999 1.385 . S
C996 H977 0.951 . S
C996 C994 1.388 . S
C996 C997 1.366 . S
C997 C996 1.366 . S
C997 C998 1.414 . S
C997 C1000 1.499 . S
C998 H978 0.950 . S
C998 C997 1.414 . S
C998 C999 1.374 . S
C999 H979 0.950 . S
C999 C995 1.385 . S
C999 C998 1.374 . S
C1000 C997 1.499 . S
C1000 C1001 1.373 . S
C1000 C1002 1.389 . S
C1001 H980 0.950 . S
C1001 C1000 1.373 . S
C1001 C1017 1.377 . S
C1002 C1000 1.389 . S
C1002 C1003 1.524 . S
C1002 C1016 1.377 . S
C1003 C1002 1.524 . S
C1003 C1004 1.397 . S
C1003 C1008 1.363 . S
C1004 H981 0.950 . S
C1004 C1003 1.397 . S
C1004 C1005 1.334 . S
C1005 H982 0.950 . S
C1005 C1004 1.334 . S
C1005 C1006 1.287 . S
C1006 C1005 1.287 . S
C1006 C1007 1.524 . S
C1006 H1025 0.913 . S
C1007 H983 0.950 . S
C1007 C1006 1.524 . S
C1007 C1008 1.415 . S
C1008 H984 0.950 . S
C1008 C1003 1.363 . S
C1008 C1007 1.415 . S
C1009 H985 0.951 . S
C1009 C1010 1.366 . S
C1009 C1011 1.388 . S
C1010 C1009 1.366 . S
C1010 C1014 1.385 . S
C1011 H986 0.951 . S
C1011 C1009 1.388 . S
C1011 C1012 1.366 . S
C1012 C1011 1.366 . S
C1012 C1013 1.414 . S
C1012 C1015 1.499 . S
C1013 H987 0.950 . S
C1013 C1012 1.414 . S
C1013 C1014 1.374 . S
C1014 H988 0.950 . S
C1014 C1010 1.385 . S
C1014 C1013 1.374 . S
C1015 C1012 1.499 . S
C1015 C1016 1.373 . S
C1015 C1017 1.389 . S
C1016 H989 0.950 . S
C1016 C1002 1.377 . S
C1016 C1015 1.373 . S
C1017 C1001 1.377 . S
C1017 C1015 1.389 . S
C1017 C1018 1.524 . S
C1018 C1017 1.524 . S
C1018 C1019 1.397 . S
C1018 C1023 1.363 . S
C1019 H990 0.950 . S
C1019 C1018 1.397 . S
C1019 C1020 1.334 . S
C1020 H991 0.950 . S
C1020 C1019 1.334 . S
C1020 C1021 1.287 . S
C1021 C1020 1.287 . S
C1021 C1022 1.524 . S
C1021 H1024 0.999 . S
C1022 H992 0.950 . S
C1022 C1021 1.524 . S
C1022 C1023 1.415 . S
C1023 H993 0.950 . S
C1023 C1018 1.363 . S
C1023 C1022 1.415 . S
H1024 C1021 0.999 . S
H1025 C1006 0.913 . S
H1026 C1044 0.951 . S
H1027 C1046 0.951 . S
H1028 C1048 0.950 . S
H1029 C1049 0.950 . S
H1030 C1051 0.950 . S
H1031 C1054 0.950 . S
H1032 C1055 0.950 . S
H1033 C1057 0.950 . S
H1034 C1058 0.950 . S
H1035 C1059 0.951 . S
H1036 C1061 0.951 . S
H1037 C1063 0.950 . S
H1038 C1064 0.950 . S
H1039 C1066 0.950 . S
H1040 C1069 0.950 . S
H1041 C1070 0.950 . S
H1042 C1072 0.950 . S
H1043 C1073 0.950 . S
C1044 H1026 0.951 . S
C1044 C1045 1.366 . S
C1044 C1046 1.388 . S
C1045 C1044 1.366 . S
C1045 C1049 1.385 . S
C1046 H1027 0.951 . S
C1046 C1044 1.388 . S
C1046 C1047 1.366 . S
C1047 C1046 1.366 . S
C1047 C1048 1.414 . S
C1047 C1050 1.499 . S
C1048 H1028 0.950 . S
C1048 C1047 1.414 . S
C1048 C1049 1.374 . S
C1049 H1029 0.950 . S
C1049 C1045 1.385 . S
C1049 C1048 1.374 . S
C1050 C1047 1.499 . S
C1050 C1051 1.373 . S
C1050 C1052 1.389 . S
C1051 H1030 0.950 . S
C1051 C1050 1.373 . S
C1051 C1067 1.377 . S
C1052 C1050 1.389 . S
C1052 C1053 1.524 . S
C1052 C1066 1.377 . S
C1053 C1052 1.524 . S
C1053 C1054 1.397 . S
C1053 C1058 1.363 . S
C1054 H1031 0.950 . S
C1054 C1053 1.397 . S
C1054 C1055 1.334 . S
C1055 H1032 0.950 . S
C1055 C1054 1.334 . S
C1055 C1056 1.287 . S
C1056 C1055 1.287 . S
C1056 C1057 1.524 . S
C1056 H1075 0.913 . S
C1057 H1033 0.950 . S
C1057 C1056 1.524 . S
C1057 C1058 1.415 . S
C1058 H1034 0.950 . S
C1058 C1053 1.363 . S
C1058 C1057 1.415 . S
C1059 H1035 0.951 . S
C1059 C1060 1.366 . S
C1059 C1061 1.388 . S
C1060 C1059 1.366 . S
C1060 C1064 1.385 . S
C1061 H1036 0.951 . S
C1061 C1059 1.388 . S
C1061 C1062 1.366 . S
C1062 C1061 1.366 . S
C1062 C1063 1.414 . S
C1062 C1065 1.499 . S
C1063 H1037 0.950 . S
C1063 C1062 1.414 . S
C1063 C1064 1.374 . S
C1064 H1038 0.950 . S
C1064 C1060 1.385 . S
C1064 C1063 1.374 . S
C1065 C1062 1.499 . S
C1065 C1066 1.373 . S
C1065 C1067 1.389 . S
C1066 H1039 0.950 . S
C1066 C1052 1.377 . S
C1066 C1065 1.373 . S
C1067 C1051 1.377 . S
C1067 C1065 1.389 . S
C1067 C1068 1.524 . S
C1068 C1067 1.524 . S
C1068 C1069 1.397 . S
C1068 C1073 1.363 . S
C1069 H1040 0.950 . S
C1069 C1068 1.397 . S
C1069 C1070 1.334 . S
C1070 H1041 0.950 . S
C1070 C1069 1.334 . S
C1070 C1071 1.287 . S
C1071 C1070 1.287 . S
C1071 C1072 1.524 . S
C1071 H1074 0.999 . S
C1072 H1042 0.950 . S
C1072 C1071 1.524 . S
C1072 C1073 1.415 . S
C1073 H1043 0.950 . S
C1073 C1068 1.363 . S
C1073 C1072 1.415 . S
H1074 C1071 0.999 . S
H1075 C1056 0.913 . S
H1076 C1094 0.951 . S
H1077 C1096 0.951 . S
H1078 C1098 0.950 . S
H1079 C1099 0.950 . S
H1080 C1101 0.950 . S
H1081 C1104 0.950 . S
H1082 C1105 0.950 . S
H1083 C1107 0.950 . S
H1084 C1108 0.950 . S
H1085 C1109 0.951 . S
H1086 C1111 0.951 . S
H1087 C1113 0.950 . S
H1088 C1114 0.950 . S
H1089 C1116 0.950 . S
H1090 C1119 0.950 . S
H1091 C1120 0.950 . S
H1092 C1122 0.950 . S
H1093 C1123 0.950 . S
C1094 H1076 0.951 . S
C1094 C1095 1.366 . S
C1094 C1096 1.388 . S
C1095 C1094 1.366 . S
C1095 C1099 1.385 . S
C1096 H1077 0.951 . S
C1096 C1094 1.388 . S
C1096 C1097 1.366 . S
C1097 C1096 1.366 . S
C1097 C1098 1.414 . S
C1097 C1100 1.499 . S
C1098 H1078 0.950 . S
C1098 C1097 1.414 . S
C1098 C1099 1.374 . S
C1099 H1079 0.950 . S
C1099 C1095 1.385 . S
C1099 C1098 1.374 . S
C1100 C1097 1.499 . S
C1100 C1101 1.373 . S
C1100 C1102 1.389 . S
C1101 H1080 0.950 . S
C1101 C1100 1.373 . S
C1101 C1117 1.377 . S
C1102 C1100 1.389 . S
C1102 C1103 1.524 . S
C1102 C1116 1.377 . S
C1103 C1102 1.524 . S
C1103 C1104 1.397 . S
C1103 C1108 1.363 . S
C1104 H1081 0.950 . S
C1104 C1103 1.397 . S
C1104 C1105 1.334 . S
C1105 H1082 0.950 . S
C1105 C1104 1.334 . S
C1105 C1106 1.287 . S
C1106 C1105 1.287 . S
C1106 C1107 1.524 . S
C1106 H1125 0.913 . S
C1107 H1083 0.950 . S
C1107 C1106 1.524 . S
C1107 C1108 1.415 . S
C1108 H1084 0.950 . S
C1108 C1103 1.363 . S
C1108 C1107 1.415 . S
C1109 H1085 0.951 . S
C1109 C1110 1.366 . S
C1109 C1111 1.388 . S
C1110 C1109 1.366 . S
C1110 C1114 1.385 . S
C1111 H1086 0.951 . S
C1111 C1109 1.388 . S
C1111 C1112 1.366 . S
C1112 C1111 1.366 . S
C1112 C1113 1.414 . S
C1112 C1115 1.499 . S
C1113 H1087 0.950 . S
C1113 C1112 1.414 . S
C1113 C1114 1.374 . S
C1114 H1088 0.950 . S
C1114 C1110 1.385 . S
C1114 C1113 1.374 . S
C1115 C1112 1.499 . S
C1115 C1116 1.373 . S
C1115 C1117 1.389 . S
C1116 H1089 0.950 . S
C1116 C1102 1.377 . S
C1116 C1115 1.373 . S
C1117 C1101 1.377 . S
C1117 C1115 1.389 . S
C1117 C1118 1.524 . S
C1118 C1117 1.524 . S
C1118 C1119 1.397 . S
C1118 C1123 1.363 . S
C1119 H1090 0.950 . S
C1119 C1118 1.397 . S
C1119 C1120 1.334 . S
C1120 H1091 0.950 . S
C1120 C1119 1.334 . S
C1120 C1121 1.287 . S
C1121 C1120 1.287 . S
C1121 C1122 1.524 . S
C1121 H1124 0.999 . S
C1122 H1092 0.950 . S
C1122 C1121 1.524 . S
C1122 C1123 1.415 . S
C1123 H1093 0.950 . S
C1123 C1118 1.363 . S
C1123 C1122 1.415 . S
H1124 C1121 0.999 . S
H1125 C1106 0.913 . S
H1126 C1144 0.951 . S
H1127 C1146 0.951 . S
H1128 C1148 0.950 . S
H1129 C1149 0.950 . S
H1130 C1151 0.950 . S
H1131 C1154 0.950 . S
H1132 C1155 0.950 . S
H1133 C1157 0.950 . S
H1134 C1158 0.950 . S
H1135 C1159 0.951 . S
H1136 C1161 0.951 . S
H1137 C1163 0.950 . S
H1138 C1164 0.950 . S
H1139 C1166 0.950 . S
H1140 C1169 0.950 . S
H1141 C1170 0.950 . S
H1142 C1172 0.950 . S
H1143 C1173 0.950 . S
C1144 H1126 0.951 . S
C1144 C1145 1.366 . S
C1144 C1146 1.388 . S
C1145 C1144 1.366 . S
C1145 C1149 1.385 . S
C1146 H1127 0.951 . S
C1146 C1144 1.388 . S
C1146 C1147 1.366 . S
C1147 C1146 1.366 . S
C1147 C1148 1.414 . S
C1147 C1150 1.499 . S
C1148 H1128 0.950 . S
C1148 C1147 1.414 . S
C1148 C1149 1.374 . S
C1149 H1129 0.950 . S
C1149 C1145 1.385 . S
C1149 C1148 1.374 . S
C1150 C1147 1.499 . S
C1150 C1151 1.373 . S
C1150 C1152 1.389 . S
C1151 H1130 0.950 . S
C1151 C1150 1.373 . S
C1151 C1167 1.377 . S
C1152 C1150 1.389 . S
C1152 C1153 1.524 . S
C1152 C1166 1.377 . S
C1153 C1152 1.524 . S
C1153 C1154 1.397 . S
C1153 C1158 1.363 . S
C1154 H1131 0.950 . S
C1154 C1153 1.397 . S
C1154 C1155 1.334 . S
C1155 H1132 0.950 . S
C1155 C1154 1.334 . S
C1155 C1156 1.287 . S
C1156 C1155 1.287 . S
C1156 C1157 1.524 . S
C1156 H1175 0.913 . S
C1157 H1133 0.950 . S
C1157 C1156 1.524 . S
C1157 C1158 1.415 . S
C1158 H1134 0.950 . S
C1158 C1153 1.363 . S
C1158 C1157 1.415 . S
C1159 H1135 0.951 . S
C1159 C1160 1.366 . S
C1159 C1161 1.388 . S
C1160 C1159 1.366 . S
C1160 C1164 1.385 . S
C1161 H1136 0.951 . S
C1161 C1159 1.388 . S
C1161 C1162 1.366 . S
C1162 C1161 1.366 . S
C1162 C1163 1.414 . S
C1162 C1165 1.499 . S
C1163 H1137 0.950 . S
C1163 C1162 1.414 . S
C1163 C1164 1.374 . S
C1164 H1138 0.950 . S
C1164 C1160 1.385 . S
C1164 C1163 1.374 . S
C1165 C1162 1.499 . S
C1165 C1166 1.373 . S
C1165 C1167 1.389 . S
C1166 H1139 0.950 . S
C1166 C1152 1.377 . S
C1166 C1165 1.373 . S
C1167 C1151 1.377 . S
C1167 C1165 1.389 . S
C1167 C1168 1.524 . S
C1168 C1167 1.524 . S
C1168 C1169 1.397 . S
C1168 C1173 1.363 . S
C1169 H1140 0.950 . S
C1169 C1168 1.397 . S
C1169 C1170 1.334 . S
C1170 H1141 0.950 . S
C1170 C1169 1.334 . S
C1170 C1171 1.287 . S
C1171 C1170 1.287 . S
C1171 C1172 1.524 . S
C1171 H1174 0.999 . S
C1172 H1142 0.950 . S
C1172 C1171 1.524 . S
C1172 C1173 1.415 . S
C1173 H1143 0.950 . S
C1173 C1168 1.363 . S
C1173 C1172 1.415 . S
H1174 C1171 0.999 . S
H1175 C1156 0.913 . S
H1176 C1194 0.951 . S
H1177 C1196 0.951 . S
H1178 C1198 0.950 . S
H1179 C1199 0.950 . S
H1180 C1201 0.950 . S
H1181 C1204 0.950 . S
H1182 C1205 0.950 . S
H1183 C1207 0.950 . S
H1184 C1208 0.950 1_556 S
H1185 C1209 0.951 . S
H1186 C1211 0.951 . S
H1187 C1213 0.950 . S
H1188 C1214 0.950 . S
H1189 C1216 0.950 . S
H1190 C1219 0.950 . S
H1191 C1220 0.950 . S
H1192 C1222 0.950 . S
H1193 C1223 0.950 1_554 S
C1194 H1176 0.951 . S
C1194 C1195 1.366 . S
C1194 C1196 1.388 . S
C1195 C1194 1.366 . S
C1195 C1199 1.385 . S
C1196 H1177 0.951 . S
C1196 C1194 1.388 . S
C1196 C1197 1.366 . S
C1197 C1196 1.366 . S
C1197 C1198 1.414 . S
C1197 C1200 1.499 . S
C1198 H1178 0.950 . S
C1198 C1197 1.414 . S
C1198 C1199 1.374 . S
C1199 H1179 0.950 . S
C1199 C1195 1.385 . S
C1199 C1198 1.374 . S
C1200 C1197 1.499 . S
C1200 C1201 1.373 . S
C1200 C1202 1.389 . S
C1201 H1180 0.950 . S
C1201 C1200 1.373 . S
C1201 C1217 1.377 1_554 S
C1202 C1200 1.389 . S
C1202 C1203 1.524 . S
C1202 C1216 1.377 1_554 S
C1203 C1202 1.524 . S
C1203 C1204 1.397 . S
C1203 C1208 1.363 . S
C1204 H1181 0.950 . S
C1204 C1203 1.397 . S
C1204 C1205 1.334 . S
C1205 H1182 0.950 . S
C1205 C1204 1.334 . S
C1205 C1206 1.287 . S
C1206 C1205 1.287 . S
C1206 C1207 1.524 . S
C1206 H1225 0.913 . S
C1207 H1183 0.950 . S
C1207 C1206 1.524 . S
C1207 C1208 1.415 . S
C1208 H1184 0.950 1_554 S
C1208 C1203 1.363 . S
C1208 C1207 1.415 . S
C1209 H1185 0.951 . S
C1209 C1210 1.366 . S
C1209 C1211 1.388 . S
C1210 C1209 1.366 . S
C1210 C1214 1.385 . S
C1211 H1186 0.951 . S
C1211 C1209 1.388 . S
C1211 C1212 1.366 . S
C1212 C1211 1.366 . S
C1212 C1213 1.414 . S
C1212 C1215 1.499 . S
C1213 H1187 0.950 . S
C1213 C1212 1.414 . S
C1213 C1214 1.374 . S
C1214 H1188 0.950 . S
C1214 C1210 1.385 . S
C1214 C1213 1.374 . S
C1215 C1212 1.499 . S
C1215 C1216 1.373 . S
C1215 C1217 1.389 . S
C1216 H1189 0.950 . S
C1216 C1202 1.377 1_556 S
C1216 C1215 1.373 . S
C1217 C1201 1.377 1_556 S
C1217 C1215 1.389 . S
C1217 C1218 1.524 . S
C1218 C1217 1.524 . S
C1218 C1219 1.397 . S
C1218 C1223 1.363 . S
C1219 H1190 0.950 . S
C1219 C1218 1.397 . S
C1219 C1220 1.334 . S
C1220 H1191 0.950 . S
C1220 C1219 1.334 . S
C1220 C1221 1.287 . S
C1221 C1220 1.287 . S
C1221 C1222 1.524 . S
C1221 H1224 0.999 . S
C1222 H1192 0.950 . S
C1222 C1221 1.524 . S
C1222 C1223 1.415 . S
C1223 H1193 0.950 1_556 S
C1223 C1218 1.363 . S
C1223 C1222 1.415 . S
H1224 C1221 0.999 . S
H1225 C1206 0.913 . S
H1226 C1244 0.951 . S
H1227 C1246 0.951 . S
H1228 C1248 0.950 . S
H1229 C1249 0.950 . S
H1230 C1251 0.950 . S
H1231 C1254 0.950 . S
H1232 C1255 0.950 . S
H1233 C1257 0.950 . S
H1234 C1258 0.950 . S
H1235 C1259 0.951 . S
H1236 C1261 0.951 . S
H1237 C1263 0.950 . S
H1238 C1264 0.950 . S
H1239 C1266 0.950 . S
H1240 C1269 0.950 . S
H1241 C1270 0.950 . S
H1242 C1272 0.950 . S
H1243 C1273 0.950 . S
C1244 H1226 0.951 . S
C1244 C1245 1.366 . S
C1244 C1246 1.388 . S
C1245 C1244 1.366 . S
C1245 C1249 1.385 . S
C1246 H1227 0.951 . S
C1246 C1244 1.388 . S
C1246 C1247 1.366 . S
C1247 C1246 1.366 . S
C1247 C1248 1.414 . S
C1247 C1250 1.499 . S
C1248 H1228 0.950 . S
C1248 C1247 1.414 . S
C1248 C1249 1.374 . S
C1249 H1229 0.950 . S
C1249 C1245 1.385 . S
C1249 C1248 1.374 . S
C1250 C1247 1.499 . S
C1250 C1251 1.373 . S
C1250 C1252 1.389 . S
C1251 H1230 0.950 . S
C1251 C1250 1.373 . S
C1251 C1267 1.377 1_554 S
C1252 C1250 1.389 . S
C1252 C1253 1.524 . S
C1252 C1266 1.377 1_554 S
C1253 C1252 1.524 . S
C1253 C1254 1.397 . S
C1253 C1258 1.363 . S
C1254 H1231 0.950 . S
C1254 C1253 1.397 . S
C1254 C1255 1.334 . S
C1255 H1232 0.950 . S
C1255 C1254 1.334 . S
C1255 C1256 1.287 . S
C1256 C1255 1.287 . S
C1256 C1257 1.524 . S
C1256 H1275 0.913 . S
C1257 H1233 0.950 . S
C1257 C1256 1.524 . S
C1257 C1258 1.415 . S
C1258 H1234 0.950 . S
C1258 C1253 1.363 . S
C1258 C1257 1.415 . S
C1259 H1235 0.951 . S
C1259 C1260 1.366 . S
C1259 C1261 1.388 . S
C1260 C1259 1.366 . S
C1260 C1264 1.385 . S
C1261 H1236 0.951 . S
C1261 C1259 1.388 . S
C1261 C1262 1.366 . S
C1262 C1261 1.366 . S
C1262 C1263 1.414 . S
C1262 C1265 1.499 . S
C1263 H1237 0.950 . S
C1263 C1262 1.414 . S
C1263 C1264 1.374 . S
C1264 H1238 0.950 . S
C1264 C1260 1.385 . S
C1264 C1263 1.374 . S
C1265 C1262 1.499 . S
C1265 C1266 1.373 . S
C1265 C1267 1.389 . S
C1266 H1239 0.950 . S
C1266 C1252 1.377 1_556 S
C1266 C1265 1.373 . S
C1267 C1251 1.377 1_556 S
C1267 C1265 1.389 . S
C1267 C1268 1.524 . S
C1268 C1267 1.524 . S
C1268 C1269 1.397 . S
C1268 C1273 1.363 . S
C1269 H1240 0.950 . S
C1269 C1268 1.397 . S
C1269 C1270 1.334 . S
C1270 H1241 0.950 . S
C1270 C1269 1.334 . S
C1270 C1271 1.287 . S
C1271 C1270 1.287 . S
C1271 C1272 1.524 . S
C1271 H1274 0.999 . S
C1272 H1242 0.950 . S
C1272 C1271 1.524 . S
C1272 C1273 1.415 . S
C1273 H1243 0.950 . S
C1273 C1268 1.363 . S
C1273 C1272 1.415 . S
H1274 C1271 0.999 . S
H1275 C1256 0.913 . S
H1276 C1294 0.951 . S
H1277 C1296 0.951 . S
H1278 C1298 0.950 . S
H1279 C1299 0.950 . S
H1280 C1301 0.950 . S
H1281 C1304 0.950 . S
H1282 C1305 0.950 . S
H1283 C1307 0.950 . S
H1284 C1308 0.950 1_554 S
H1285 C1309 0.951 . S
H1286 C1311 0.951 . S
H1287 C1313 0.950 . S
H1288 C1314 0.950 . S
H1289 C1316 0.950 . S
H1290 C1319 0.950 . S
H1291 C1320 0.950 . S
H1292 C1322 0.950 . S
H1293 C1323 0.950 1_556 S
C1294 H1276 0.951 . S
C1294 C1295 1.366 . S
C1294 C1296 1.388 . S
C1295 C1294 1.366 . S
C1295 C1299 1.385 . S
C1296 H1277 0.951 . S
C1296 C1294 1.388 . S
C1296 C1297 1.366 . S
C1297 C1296 1.366 . S
C1297 C1298 1.414 . S
C1297 C1300 1.499 . S
C1298 H1278 0.950 . S
C1298 C1297 1.414 . S
C1298 C1299 1.374 . S
C1299 H1279 0.950 . S
C1299 C1295 1.385 . S
C1299 C1298 1.374 . S
C1300 C1297 1.499 . S
C1300 C1301 1.373 . S
C1300 C1302 1.389 . S
C1301 H1280 0.950 . S
C1301 C1300 1.373 . S
C1301 C1317 1.377 1_556 S
C1302 C1300 1.389 . S
C1302 C1303 1.524 . S
C1302 C1316 1.377 1_556 S
C1303 C1302 1.524 . S
C1303 C1304 1.397 . S
C1303 C1308 1.363 . S
C1304 H1281 0.950 . S
C1304 C1303 1.397 . S
C1304 C1305 1.334 . S
C1305 H1282 0.950 . S
C1305 C1304 1.334 . S
C1305 C1306 1.287 . S
C1306 C1305 1.287 . S
C1306 C1307 1.524 . S
C1306 H1325 0.913 . S
C1307 H1283 0.950 . S
C1307 C1306 1.524 . S
C1307 C1308 1.415 . S
C1308 H1284 0.950 1_556 S
C1308 C1303 1.363 . S
C1308 C1307 1.415 . S
C1309 H1285 0.951 . S
C1309 C1310 1.366 . S
C1309 C1311 1.388 . S
C1310 C1309 1.366 . S
C1310 C1314 1.385 . S
C1311 H1286 0.951 . S
C1311 C1309 1.388 . S
C1311 C1312 1.366 . S
C1312 C1311 1.366 . S
C1312 C1313 1.414 . S
C1312 C1315 1.499 . S
C1313 H1287 0.950 . S
C1313 C1312 1.414 . S
C1313 C1314 1.374 . S
C1314 H1288 0.950 . S
C1314 C1310 1.385 . S
C1314 C1313 1.374 . S
C1315 C1312 1.499 . S
C1315 C1316 1.373 . S
C1315 C1317 1.389 . S
C1316 H1289 0.950 . S
C1316 C1302 1.377 1_554 S
C1316 C1315 1.373 . S
C1317 C1301 1.377 1_554 S
C1317 C1315 1.389 . S
C1317 C1318 1.524 . S
C1318 C1317 1.524 . S
C1318 C1319 1.397 . S
C1318 C1323 1.363 . S
C1319 H1290 0.950 . S
C1319 C1318 1.397 . S
C1319 C1320 1.334 . S
C1320 H1291 0.950 . S
C1320 C1319 1.334 . S
C1320 C1321 1.287 . S
C1321 C1320 1.287 . S
C1321 C1322 1.524 . S
C1321 H1324 0.999 . S
C1322 H1292 0.950 . S
C1322 C1321 1.524 . S
C1322 C1323 1.415 . S
C1323 H1293 0.950 1_554 S
C1323 C1318 1.363 . S
C1323 C1322 1.415 . S
H1324 C1321 0.999 . S
H1325 C1306 0.913 . S
H1326 C1344 0.951 . S
H1327 C1346 0.951 . S
H1328 C1348 0.950 . S
H1329 C1349 0.950 . S
H1330 C1351 0.950 . S
H1331 C1354 0.950 . S
H1332 C1355 0.950 . S
H1333 C1357 0.950 . S
H1334 C1358 0.950 1_556 S
H1335 C1359 0.951 . S
H1336 C1361 0.951 . S
H1337 C1363 0.950 . S
H1338 C1364 0.950 . S
H1339 C1366 0.950 . S
H1340 C1369 0.950 . S
H1341 C1370 0.950 . S
H1342 C1372 0.950 . S
H1343 C1373 0.950 1_554 S
C1344 H1326 0.951 . S
C1344 C1345 1.366 . S
C1344 C1346 1.388 . S
C1345 C1344 1.366 . S
C1345 C1349 1.385 . S
C1346 H1327 0.951 . S
C1346 C1344 1.388 . S
C1346 C1347 1.366 . S
C1347 C1346 1.366 . S
C1347 C1348 1.414 . S
C1347 C1350 1.499 . S
C1348 H1328 0.950 . S
C1348 C1347 1.414 . S
C1348 C1349 1.374 . S
C1349 H1329 0.950 . S
C1349 C1345 1.385 . S
C1349 C1348 1.374 . S
C1350 C1347 1.499 . S
C1350 C1351 1.373 . S
C1350 C1352 1.389 . S
C1351 H1330 0.950 . S
C1351 C1350 1.373 . S
C1351 C1367 1.377 1_554 S
C1352 C1350 1.389 . S
C1352 C1353 1.524 . S
C1352 C1366 1.377 1_554 S
C1353 C1352 1.524 . S
C1353 C1354 1.397 . S
C1353 C1358 1.363 . S
C1354 H1331 0.950 . S
C1354 C1353 1.397 . S
C1354 C1355 1.334 . S
C1355 H1332 0.950 . S
C1355 C1354 1.334 . S
C1355 C1356 1.287 . S
C1356 C1355 1.287 . S
C1356 C1357 1.524 . S
C1356 H1375 0.913 . S
C1357 H1333 0.950 . S
C1357 C1356 1.524 . S
C1357 C1358 1.415 . S
C1358 H1334 0.950 1_554 S
C1358 C1353 1.363 . S
C1358 C1357 1.415 . S
C1359 H1335 0.951 . S
C1359 C1360 1.366 . S
C1359 C1361 1.388 . S
C1360 C1359 1.366 . S
C1360 C1364 1.385 . S
C1361 H1336 0.951 . S
C1361 C1359 1.388 . S
C1361 C1362 1.366 . S
C1362 C1361 1.366 . S
C1362 C1363 1.414 . S
C1362 C1365 1.499 . S
C1363 H1337 0.950 . S
C1363 C1362 1.414 . S
C1363 C1364 1.374 . S
C1364 H1338 0.950 . S
C1364 C1360 1.385 . S
C1364 C1363 1.374 . S
C1365 C1362 1.499 . S
C1365 C1366 1.373 . S
C1365 C1367 1.389 . S
C1366 H1339 0.950 . S
C1366 C1352 1.377 1_556 S
C1366 C1365 1.373 . S
C1367 C1351 1.377 1_556 S
C1367 C1365 1.389 . S
C1367 C1368 1.524 . S
C1368 C1367 1.524 . S
C1368 C1369 1.397 . S
C1368 C1373 1.363 . S
C1369 H1340 0.950 . S
C1369 C1368 1.397 . S
C1369 C1370 1.334 . S
C1370 H1341 0.950 . S
C1370 C1369 1.334 . S
C1370 C1371 1.287 . S
C1371 C1370 1.287 . S
C1371 C1372 1.524 . S
C1371 H1374 0.999 . S
C1372 H1342 0.950 . S
C1372 C1371 1.524 . S
C1372 C1373 1.415 . S
C1373 H1343 0.950 1_556 S
C1373 C1368 1.363 . S
C1373 C1372 1.415 . S
H1374 C1371 0.999 . S
H1375 C1356 0.913 . S
C195 C160 1.178 . S
C210 C5 1.138 . S
C245 C31 1.139 . S
C260 C139 1.178 . S
C295 C115 1.178 . S
C310 C50 1.139 . S
C345 C73 1.138 . S
C360 C97 1.178 . S
C395 C72 1.178 . S
C410 C93 1.138 . S
C445 C51 1.178 . S
C460 C119 1.137 . S
C495 C27 1.178 . S
C510 C138 1.139 . S
C545 C9 1.179 . S
C560 C161 1.139 . S
C595 C26 1.847 . S
C610 C8 1.847 . S
C645 C70 1.847 . S
C660 C52 1.847 . S
C695 C96 1.847 . S
C710 C114 1.847 . S
C745 C158 1.847 . S
C760 C140 1.847 . S
C795 C74 1.409 . S
C810 C4 1.408 . S
C845 C48 1.409 . S
C860 C30 1.408 . S
C895 C92 1.409 . S
C910 C162 1.408 . S
C945 C118 1.408 . S
C960 C136 1.409 . S
C995 C137 1.793 . S
C1010 C6 1.793 . S
C1045 C29 1.794 . S
C1060 C163 1.794 . S
C1095 C94 1.793 . S
C1110 C49 1.793 . S
C1145 C117 1.793 . S
C1160 C75 1.793 . S
C1195 C7 0.559 . S
C1210 C141 0.559 . S
C1245 C159 0.559 . S
C1260 C28 0.559 . S
C1295 C53 0.557 . S
C1310 C95 0.557 . S
C1345 C71 0.560 . S
C1360 C116 0.560 . S
