# Generated by pormake.
# Topology ecv, (8)-cn, num edge types: 1
# Building blocks:
#     Node 0, Type 0, BuildingBlock: VETTIZ_charged_sbu_0, # of connection points: 8
#     Node 1, Type 0, BuildingBlock: VETTIZ_charged_sbu_0, # of connection points: 8
#     Node 2, Type 0, BuildingBlock: VETTIZ_charged_sbu_0, # of connection points: 8
#     Node 3, Type 0, BuildingBlock: VETTIZ_charged_sbu_0, # of connection points: 8
#     Node 4, Type 0, BuildingBlock: VETTIZ_charged_sbu_0, # of connection points: 8
#     Node 5, Type 0, BuildingBlock: VETTIZ_charged_sbu_0, # of connection points: 8
#     Node 6, Type 0, BuildingBlock: VETTIZ_charged_sbu_0, # of connection points: 8
#     Node 7, Type 0, BuildingBlock: VETTIZ_charged_sbu_0, # of connection points: 8
#     Node 8, Type 0, BuildingBlock: VETTIZ_charged_sbu_0, # of connection points: 8
#     Node 9, Type 0, BuildingBlock: VETTIZ_charged_sbu_0, # of connection points: 8
#     Node 10, Type 0, BuildingBlock: VETTIZ_charged_sbu_0, # of connection points: 8
#     Node 11, Type 0, BuildingBlock: VETTIZ_charged_sbu_0, # of connection points: 8
#     Node 12, Type 0, BuildingBlock: VETTIZ_charged_sbu_0, # of connection points: 8
#     Node 13, Type 0, BuildingBlock: VETTIZ_charged_sbu_0, # of connection points: 8
#     Node 14, Type 0, BuildingBlock: VETTIZ_charged_sbu_0, # of connection points: 8
#     Node 15, Type 0, BuildingBlock: VETTIZ_charged_sbu_0, # of connection points: 8
#     Edge 16, Type (0, 0), BuildingBlock: KIFKEQ_clean_linker_1, # of connection points: 2
#     Edge 17, Type (0, 0), BuildingBlock: KIFKEQ_clean_linker_1, # of connection points: 2
#     Edge 18, Type (0, 0), BuildingBlock: KIFKEQ_clean_linker_1, # of connection points: 2
#     Edge 19, Type (0, 0), BuildingBlock: KIFKEQ_clean_linker_1, # of connection points: 2
#     Edge 20, Type (0, 0), BuildingBlock: KIFKEQ_clean_linker_1, # of connection points: 2
#     Edge 21, Type (0, 0), BuildingBlock: KIFKEQ_clean_linker_1, # of connection points: 2
#     Edge 22, Type (0, 0), BuildingBlock: KIFKEQ_clean_linker_1, # of connection points: 2
#     Edge 23, Type (0, 0), BuildingBlock: KIFKEQ_clean_linker_1, # of connection points: 2
#     Edge 24, Type (0, 0), BuildingBlock: KIFKEQ_clean_linker_1, # of connection points: 2
#     Edge 25, Type (0, 0), BuildingBlock: KIFKEQ_clean_linker_1, # of connection points: 2
#     Edge 26, Type (0, 0), BuildingBlock: KIFKEQ_clean_linker_1, # of connection points: 2
#     Edge 27, Type (0, 0), BuildingBlock: KIFKEQ_clean_linker_1, # of connection points: 2
#     Edge 28, Type (0, 0), BuildingBlock: KIFKEQ_clean_linker_1, # of connection points: 2
#     Edge 29, Type (0, 0), BuildingBlock: KIFKEQ_clean_linker_1, # of connection points: 2
#     Edge 30, Type (0, 0), BuildingBlock: KIFKEQ_clean_linker_1, # of connection points: 2
#     Edge 31, Type (0, 0), BuildingBlock: KIFKEQ_clean_linker_1, # of connection points: 2
#     Edge 32, Type (0, 0), BuildingBlock: KIFKEQ_clean_linker_1, # of connection points: 2
#     Edge 33, Type (0, 0), BuildingBlock: KIFKEQ_clean_linker_1, # of connection points: 2
#     Edge 34, Type (0, 0), BuildingBlock: KIFKEQ_clean_linker_1, # of connection points: 2
#     Edge 35, Type (0, 0), BuildingBlock: KIFKEQ_clean_linker_1, # of connection points: 2
#     Edge 36, Type (0, 0), BuildingBlock: KIFKEQ_clean_linker_1, # of connection points: 2
#     Edge 37, Type (0, 0), BuildingBlock: KIFKEQ_clean_linker_1, # of connection points: 2
#     Edge 38, Type (0, 0), BuildingBlock: KIFKEQ_clean_linker_1, # of connection points: 2
#     Edge 39, Type (0, 0), BuildingBlock: KIFKEQ_clean_linker_1, # of connection points: 2
#     Edge 40, Type (0, 0), BuildingBlock: KIFKEQ_clean_linker_1, # of connection points: 2
#     Edge 41, Type (0, 0), BuildingBlock: KIFKEQ_clean_linker_1, # of connection points: 2
#     Edge 42, Type (0, 0), BuildingBlock: KIFKEQ_clean_linker_1, # of connection points: 2
#     Edge 43, Type (0, 0), BuildingBlock: KIFKEQ_clean_linker_1, # of connection points: 2
#     Edge 44, Type (0, 0), BuildingBlock: KIFKEQ_clean_linker_1, # of connection points: 2
#     Edge 45, Type (0, 0), BuildingBlock: KIFKEQ_clean_linker_1, # of connection points: 2
#     Edge 46, Type (0, 0), BuildingBlock: KIFKEQ_clean_linker_1, # of connection points: 2
#     Edge 47, Type (0, 0), BuildingBlock: KIFKEQ_clean_linker_1, # of connection points: 2
#     Edge 48, Type (0, 0), BuildingBlock: KIFKEQ_clean_linker_1, # of connection points: 2
#     Edge 49, Type (0, 0), BuildingBlock: KIFKEQ_clean_linker_1, # of connection points: 2
#     Edge 50, Type (0, 0), BuildingBlock: KIFKEQ_clean_linker_1, # of connection points: 2
#     Edge 51, Type (0, 0), BuildingBlock: KIFKEQ_clean_linker_1, # of connection points: 2
#     Edge 52, Type (0, 0), BuildingBlock: KIFKEQ_clean_linker_1, # of connection points: 2
#     Edge 53, Type (0, 0), BuildingBlock: KIFKEQ_clean_linker_1, # of connection points: 2
#     Edge 54, Type (0, 0), BuildingBlock: KIFKEQ_clean_linker_1, # of connection points: 2
#     Edge 55, Type (0, 0), BuildingBlock: KIFKEQ_clean_linker_1, # of connection points: 2
#     Edge 56, Type (0, 0), BuildingBlock: KIFKEQ_clean_linker_1, # of connection points: 2
#     Edge 57, Type (0, 0), BuildingBlock: KIFKEQ_clean_linker_1, # of connection points: 2
#     Edge 58, Type (0, 0), BuildingBlock: KIFKEQ_clean_linker_1, # of connection points: 2
#     Edge 59, Type (0, 0), BuildingBlock: KIFKEQ_clean_linker_1, # of connection points: 2
#     Edge 60, Type (0, 0), BuildingBlock: KIFKEQ_clean_linker_1, # of connection points: 2
#     Edge 61, Type (0, 0), BuildingBlock: KIFKEQ_clean_linker_1, # of connection points: 2
#     Edge 62, Type (0, 0), BuildingBlock: KIFKEQ_clean_linker_1, # of connection points: 2
#     Edge 63, Type (0, 0), BuildingBlock: KIFKEQ_clean_linker_1, # of connection points: 2
#     Edge 64, Type (0, 0), BuildingBlock: KIFKEQ_clean_linker_1, # of connection points: 2
#     Edge 65, Type (0, 0), BuildingBlock: KIFKEQ_clean_linker_1, # of connection points: 2
#     Edge 66, Type (0, 0), BuildingBlock: KIFKEQ_clean_linker_1, # of connection points: 2
#     Edge 67, Type (0, 0), BuildingBlock: KIFKEQ_clean_linker_1, # of connection points: 2
#     Edge 68, Type (0, 0), BuildingBlock: KIFKEQ_clean_linker_1, # of connection points: 2
#     Edge 69, Type (0, 0), BuildingBlock: KIFKEQ_clean_linker_1, # of connection points: 2
#     Edge 70, Type (0, 0), BuildingBlock: KIFKEQ_clean_linker_1, # of connection points: 2
#     Edge 71, Type (0, 0), BuildingBlock: KIFKEQ_clean_linker_1, # of connection points: 2
#     Edge 72, Type (0, 0), BuildingBlock: KIFKEQ_clean_linker_1, # of connection points: 2
#     Edge 73, Type (0, 0), BuildingBlock: KIFKEQ_clean_linker_1, # of connection points: 2
#     Edge 74, Type (0, 0), BuildingBlock: KIFKEQ_clean_linker_1, # of connection points: 2
#     Edge 75, Type (0, 0), BuildingBlock: KIFKEQ_clean_linker_1, # of connection points: 2
#     Edge 76, Type (0, 0), BuildingBlock: KIFKEQ_clean_linker_1, # of connection points: 2
#     Edge 77, Type (0, 0), BuildingBlock: KIFKEQ_clean_linker_1, # of connection points: 2
#     Edge 78, Type (0, 0), BuildingBlock: KIFKEQ_clean_linker_1, # of connection points: 2
#     Edge 79, Type (0, 0), BuildingBlock: KIFKEQ_clean_linker_1, # of connection points: 2
# Relax obj value: 0.130
# Max RMSD: 0.230
# Mean RMSD: 0.230
data_MOF--net-ecv--node1-VETTIZ_charged_sbu_0--edge1-KIFKEQ_clean_linker_1
_symmetry_space_group_name_H-M    P1
_symmetry_Int_Tables_number       1
_symmetry_cell_setting            triclinic
loop_
_symmetry_equiv_pos_as_xyz
'x, y, z'
_cell_length_a     21.68774
_cell_length_b     25.685434
_cell_length_c     108.28216
_cell_angle_alpha  89.200165
_cell_angle_beta   89.671991
_cell_angle_gamma 90.074074
loop_
_atom_site_label
_atom_site_type_symbol
_atom_site_fract_x
_atom_site_fract_y
_atom_site_fract_z
_atom_type_partial_charge
Fe0 Fe 0.1413 0.20594 0.45106 0.0
O1 O 0.14644 0.16153 0.46593 0.0
Fe2 Fe 0.11794 0.0833 0.46445 0.0
Fe3 Fe 0.10714 0.17914 0.48221 0.0
O4 O 0.14761 0.15695 0.46509 0.0
O5 O 0.07899 0.1009 0.48066 0.0
O6 O 0.07772 0.1056 0.48146 0.0
Fe7 Fe 0.0874 0.05899 0.49592 0.0
C8 C 0.19142 0.26896 0.47219 0.0
O9 O 0.07213 0.25163 0.45822 0.0
O10 O 0.02878 0.20632 0.47366 0.0
O11 O 0.03901 1.00672 0.4858 0.0
O12 O 0.08001 1.00849 0.46604 0.0
O13 O 0.03771 0.1053 0.45516 0.0
O14 O 0.07741 0.16287 0.44172 0.0
O15 O 0.0581 0.18333 0.4999 0.0
O16 O 0.01401 0.10206 0.50092 0.0
C17 C 0.03569 0.13054 0.44492 0.0
O18 O 0.16394 0.02014 0.49025 0.0
O19 O 0.19833 0.05712 0.47277 0.0
O20 O 0.19925 0.25039 0.46123 0.0
O21 O 0.15007 0.25336 0.48033 0.0
C22 C 0.0285 0.24431 0.46597 0.0
C23 C 0.01951 0.14884 0.50484 0.0
C24 C 0.18154 0.14483 0.50253 0.0
O25 O 0.1856 0.15578 0.49112 0.0
O26 O 0.14198 0.11092 0.50608 0.0
C27 C 0.0462 0.98832 0.47484 0.0
O28 O 0.165 0.07472 0.44762 0.0
O29 O 0.20558 0.15644 0.44356 0.0
C30 C 0.20431 0.02507 0.4818 0.0
C31 C 0.20224 0.1066 0.44183 0.0
Fe32 Fe 0.13201 0.20455 0.86371 0.0
O33 O 0.1009 0.19867 0.84633 0.0
Fe34 Fe 0.13671 0.07614 0.87383 0.0
Fe35 Fe 0.12273 0.24621 0.83252 0.0
O36 O 0.15533 0.13013 0.86126 0.0
O37 O 0.15398 0.12585 0.8602 0.0
O38 O 0.09868 0.19459 0.84542 0.0
Fe39 Fe 0.11768 0.11922 0.84321 0.0
C40 C 0.07464 0.30939 0.85486 0.0
O41 O 0.21817 0.22887 0.85805 0.0
O42 O 0.20165 0.2727 0.84042 0.0
O43 O 0.14992 0.04141 0.84348 0.0
O44 O 0.19157 0.03148 0.86311 0.0
O45 O 0.20414 0.11512 0.88323 0.0
O46 O 0.17136 0.20018 0.88172 0.0
O47 O 0.1715 0.1939 0.82149 0.0
O48 O 0.2013 0.13737 0.83542 0.0
C49 C 0.20478 0.16318 0.88675 0.0
O50 O 0.03326 0.09652 0.8503 0.0
O51 O 0.06485 0.0412 0.86497 0.0
O52 O 0.09989 0.28216 0.86375 0.0
O53 O 0.07642 0.29815 0.84326 0.0
C54 C 0.23483 0.26121 0.84968 0.0
C55 C 0.20204 0.15327 0.82431 0.0
C56 C 0.04167 0.16767 0.82104 0.0
O57 O 0.04786 0.21487 0.8248 0.0
O58 O 0.07225 0.12704 0.82543 0.0
C59 C 0.18674 0.01944 0.85157 0.0
O60 O 0.07513 0.12069 0.88341 0.0
O61 O 0.04584 0.18284 0.87026 0.0
C62 C 0.02465 0.05691 0.8573 0.0
C63 C 0.03507 0.15274 0.87946 0.0
Fe64 Fe 0.85144 0.90946 0.61489 0.0
O65 O 0.82251 0.84146 0.60839 0.0
Fe66 Fe 0.867 0.98035 0.58689 0.0
Fe67 Fe 0.83317 0.77503 0.61727 0.0
O68 O 0.88468 0.91956 0.59766 0.0
O69 O 0.88731 0.91613 0.59655 0.0
O70 O 0.82432 0.83849 0.60729 0.0
Fe71 Fe 0.85841 0.84782 0.59014 0.0
C72 C 0.94184 0.83857 0.62779 0.0
O73 O 0.81126 0.89024 0.6321 0.0
O74 O 0.77089 0.80839 0.62927 0.0
O75 O 0.77675 0.88175 0.58552 0.0
O76 O 0.8124 0.94228 0.57342 0.0
O77 O 0.79039 1.00295 0.5963 0.0
O78 O 0.76733 0.94325 0.6108 0.0
O79 O 0.77157 0.74877 0.60444 0.0
O80 O 0.81563 0.77563 0.58579 0.0
C81 C 0.75465 0.98377 0.60444 0.0
O82 O 0.90287 0.87172 0.57263 0.0
O83 O 0.93931 0.95356 0.57729 0.0
O84 O 0.93457 0.87696 0.62031 0.0
O85 O 0.90171 0.80234 0.62888 0.0
C86 C 0.7745 0.85193 0.63516 0.0
C87 C 0.77573 0.74874 0.59246 0.0
C88 C 0.9423 0.76457 0.59927 0.0
O89 O 0.89937 0.74487 0.60588 0.0
O90 O 0.93987 0.81075 0.59482 0.0
C91 C 0.77553 0.90405 0.57513 0.0
O92 O 0.91716 0.01793 0.60035 0.0
O93 O 0.88844 0.98229 0.61927 0.0
C94 C 0.93821 0.91302 0.5704 0.0
C95 C 0.91726 0.0164 0.61234 0.0
Fe96 Fe 0.90953 0.9085 0.23481 0.0
O97 O 0.93814 0.83472 0.23453 0.0
Fe98 Fe 0.87179 0.92959 0.20366 0.0
Fe99 Fe 0.9303 0.79033 0.24935 0.0
O100 O 0.86865 0.88846 0.21899 0.0
O101 O 0.86713 0.88349 0.21823 0.0
O102 O 0.93807 0.83027 0.23373 0.0
Fe103 Fe 0.8988 0.81055 0.21781 0.0
C104 C 0.99807 0.8822 0.25722 0.0
O105 O 0.83095 0.88672 0.24397 0.0
O106 O 0.8745 0.84354 0.25917 0.0
O107 O 0.84938 0.79984 0.20133 0.0
O108 O 0.80327 0.88001 0.19797 0.0
O109 O 0.81948 0.9791 0.21401 0.0
O110 O 0.86964 0.98395 0.23275 0.0
O111 O 0.85453 0.74944 0.24431 0.0
O112 O 0.81993 0.78337 0.2266 0.0
C113 C 0.83062 1.00133 0.22445 0.0
O114 O 0.97737 0.83395 0.20801 0.0
O115 O 0.92994 0.8823 0.19386 0.0
O116 O 0.95924 0.91573 0.25218 0.0
O117 O 0.00296 0.83467 0.25381 0.0
C118 C 0.83406 0.87621 0.25538 0.0
C119 C 0.81417 0.75289 0.23592 0.0
C120 C 0.97604 0.71906 0.22839 0.0
O121 O 0.98038 0.73742 0.23943 0.0
O122 O 0.94066 0.73714 0.21963 0.0
C123 C 0.80712 0.82994 0.19654 0.0
O124 O 0.9469 0.97272 0.20914 0.0
O125 O 0.98779 0.93235 0.22561 0.0
C126 C 0.97571 0.85507 0.19728 0.0
C127 C 0.99165 0.96411 0.21649 0.0
Fe128 Fe 0.13337 0.72369 0.96689 0.0
O129 O 0.17201 0.71983 0.98367 0.0
Fe130 Fe 0.10372 0.59386 0.96064 0.0
Fe131 Fe 0.16487 0.77375 0.99639 0.0
O132 O 0.10039 0.65364 0.97174 0.0
O133 O 0.10134 0.64978 0.97285 0.0
O134 O 0.17353 0.71583 0.98467 0.0
Fe135 Fe 0.14256 0.64506 0.98943 0.0
C136 C 0.20968 0.82329 0.97137 0.0
O137 O 0.05462 0.75942 0.97341 0.0
O138 O 0.08697 0.80704 0.98925 0.0
O139 O 0.0976 0.57199 0.99199 0.0
O140 O 0.04548 0.56018 0.97353 0.0
O141 O 0.04026 0.63758 0.95102 0.0
O142 O 0.08617 0.71863 0.95004 0.0
O143 O 0.11229 0.73089 1.00973 0.0
O144 O 0.06625 0.67723 0.99745 0.0
C145 C 0.04633 0.6842 0.94639 0.0
O146 O 0.2189 0.60951 0.98201 0.0
O147 O 0.17176 0.55376 0.96962 0.0
O148 O 0.17512 0.79625 0.96407 0.0
O149 O 0.21375 0.81671 0.98325 0.0
C150 C 0.0476 0.79633 0.98102 0.0
C151 C 0.07278 0.69462 1.00824 0.0
C152 C 0.23447 0.69127 1.00922 0.0
O153 O 0.23801 0.73539 1.0034 0.0
O154 O 0.19493 0.65404 1.00643 0.0
C155 C 0.05441 0.55098 0.98523 0.0
O156 O 0.16899 0.62668 0.94867 0.0
O157 O 0.212 0.6914 0.95901 0.0
C158 C 0.21699 0.56639 0.97637 0.0
C159 C 0.21227 0.65979 0.95002 0.0
Fe160 Fe 0.13264 0.64706 0.36541 0.0
O161 O 0.09718 0.65241 0.34836 0.0
Fe162 Fe 0.13997 0.51354 0.37052 0.0
Fe163 Fe 0.11485 0.70826 0.33621 0.0
O164 O 0.1552 0.57545 0.36007 0.0
O165 O 0.15302 0.572 0.35895 0.0
O166 O 0.09485 0.64894 0.34732 0.0
Fe167 Fe 0.11481 0.57674 0.34207 0.0
C168 C 0.07441 0.75575 0.3614 0.0
O169 O 0.21792 0.67563 0.35981 0.0
O170 O 0.19571 0.72941 0.344 0.0
O171 O 0.14814 0.5 0.33919 0.0
O172 O 0.19474 0.47732 0.35776 0.0
O173 O 0.20792 0.54695 0.38116 0.0
O174 O 0.17425 0.6316 0.38261 0.0
O175 O 0.16392 0.66317 0.323 0.0
O176 O 0.19762 0.60117 0.33506 0.0
C177 C 0.20812 0.59244 0.38625 0.0
O178 O 0.03146 0.54824 0.34859 0.0
O179 O 0.06833 0.48409 0.36056 0.0
O180 O 0.1023 0.72281 0.36868 0.0
O181 O 0.07135 0.7528 0.34946 0.0
C182 C 0.23213 0.712 0.35218 0.0
C183 C 0.19736 0.62263 0.3245 0.0
C184 C 0.03839 0.64024 0.32162 0.0
O185 O 0.03703 0.68093 0.32841 0.0
O186 O 0.06945 0.59766 0.32461 0.0
C187 C 0.18581 0.47204 0.34597 0.0
O188 O 0.07735 0.54948 0.38214 0.0
O189 O 0.04786 0.62143 0.37215 0.0
C190 C 0.02627 0.50365 0.35381 0.0
C191 C 0.03897 0.58638 0.38044 0.0
Fe192 Fe 0.86873 0.47214 0.12483 0.0
O193 O 0.87711 0.42274 0.11177 0.0
Fe194 Fe 0.89238 0.44671 0.09266 0.0
Fe195 Fe 0.90073 0.34787 0.11299 0.0
O196 O 0.89831 0.4314 0.11093 0.0
O197 O 0.89578 0.36936 0.09351 0.0
O198 O 0.9219 0.36628 0.09547 0.0
Fe199 Fe 0.92547 0.32091 0.08127 0.0
C200 C 0.98553 0.40692 0.13125 0.0
O201 O 0.81537 0.41403 0.13307 0.0
O202 O 0.86238 0.33592 0.13031 0.0
O203 O 0.86464 0.36032 0.07053 0.0
O204 O 0.87354 0.44787 0.07343 0.0
O205 O 0.79811 0.45834 0.09616 0.0
O206 O 0.7947 0.4983 0.11489 0.0
O207 O 0.82016 0.31665 0.1055 0.0
O208 O 0.8528 0.27486 0.08814 0.0
C209 C 0.77145 0.48686 0.10436 0.0
O210 O 0.99194 0.37524 0.07424 0.0
O211 O 0.9855 0.43967 0.08811 0.0
O212 O 0.94475 0.44184 0.13374 0.0
O213 O 0.98114 0.37489 0.12209 0.0
C214 C 0.8218 0.36513 0.13544 0.0
C215 C 0.81278 0.28333 0.0968 0.0
C216 C 0.97698 0.25854 0.10352 0.0
O217 O 0.93893 0.27482 0.1118 0.0
O218 O 0.98493 0.28034 0.09281 0.0
C219 C 0.85789 0.40761 0.06699 0.0
O220 O 0.90654 0.52578 0.09522 0.0
O221 O 0.92272 0.52778 0.11605 0.0
C222 C 0.00369 0.4227 0.07756 0.0
C223 C 0.93089 0.54563 0.10499 0.0
Fe224 Fe 0.86244 0.4323 0.73604 0.0
O225 O 0.88904 0.35811 0.73501 0.0
Fe226 Fe 0.83959 0.46391 0.70464 0.0
Fe227 Fe 0.87428 0.30883 0.74873 0.0
O228 O 0.82753 0.41791 0.71921 0.0
O229 O 0.82749 0.41356 0.71821 0.0
O230 O 0.8895 0.354 0.73406 0.0
Fe231 Fe 0.85711 0.34024 0.71711 0.0
C232 C 0.94044 0.39737 0.75934 0.0
O233 O 0.78078 0.41118 0.74435 0.0
O234 O 0.8169 0.35923 0.75884 0.0
O235 O 0.81488 0.33545 0.69964 0.0
O236 O 0.77492 0.41787 0.69639 0.0
O237 O 0.78211 0.50953 0.7147 0.0
O238 O 0.82473 0.50816 0.73431 0.0
O239 O 0.79965 0.27142 0.74158 0.0
O240 O 0.77438 0.31333 0.72412 0.0
C241 C 0.788 0.52697 0.7258 0.0
O242 O 0.94068 0.36341 0.70891 0.0
O243 O 0.90264 0.41982 0.69524 0.0
O244 O 0.90562 0.4334 0.7541 0.0
O245 O 0.94565 0.35053 0.75535 0.0
C246 C 0.78126 0.39643 0.7556 0.0
C247 C 0.76378 0.27935 0.73254 0.0
C248 C 0.92682 0.24439 0.72722 0.0
O249 O 0.92726 0.25892 0.7386 0.0
O250 O 0.89496 0.26553 0.71832 0.0
C251 C 0.77859 0.36857 0.69403 0.0
O252 O 0.90978 0.50508 0.71254 0.0
O253 O 0.94423 0.45717 0.72843 0.0
C254 C 0.94417 0.38799 0.69859 0.0
C255 C 0.95008 0.49455 0.72068 0.0
Fe256 Fe 0.64554 0.28173 0.95936 0.0
O257 O 0.65909 0.22187 0.97033 0.0
Fe258 Fe 0.63321 0.14766 0.96439 0.0
Fe259 Fe 0.62609 0.2173 0.98763 0.0
O260 O 0.66106 0.21852 0.96932 0.0
O261 O 0.60273 0.14246 0.98194 0.0
O262 O 0.6005 0.14587 0.9829 0.0
Fe263 Fe 0.62426 0.08691 0.99395 0.0
C264 C 0.70258 0.31894 0.9832 0.0
O265 O 0.57994 0.31335 0.97063 0.0
O266 O 0.54278 0.24895 0.98253 0.0
O267 O 0.57529 0.04224 0.98143 0.0
O268 O 0.59845 0.07281 0.96172 0.0
O269 O 0.5479 0.17621 0.95892 0.0
O270 O 0.57695 0.24855 0.94883 0.0
O271 O 0.58369 0.1978 1.0055 0.0
O272 O 0.55018 0.11373 1.00319 0.0
C273 C 0.53816 0.21203 0.95086 0.0
O274 O 0.70204 0.06462 0.98493 0.0
O275 O 0.719 0.11654 0.96849 0.0
O276 O 0.70713 0.31506 0.97127 0.0
O277 O 0.66472 0.29223 0.99031 0.0
C278 C 0.53916 0.29465 0.97791 0.0
C279 C 0.55205 0.15661 1.00919 0.0
C280 C 0.71297 0.17162 1.00365 0.0
O281 O 0.70992 0.18947 0.99282 0.0
O282 O 0.67776 0.13307 1.00635 0.0
C283 C 0.57249 0.04011 0.96944 0.0
O284 O 0.66944 0.16244 0.94664 0.0
O285 O 0.70692 0.24633 0.94754 0.0
C286 C 0.73529 0.08057 0.976 0.0
C287 C 0.70319 0.20094 0.94246 0.0
Fe288 Fe 0.58722 0.19127 0.37042 0.0
O289 O 0.59261 0.13846 0.3577 0.0
Fe290 Fe 0.6304 0.06579 0.36215 0.0
Fe291 Fe 0.62908 0.14892 0.34085 0.0
O292 O 0.5911 0.13448 0.35853 0.0
O293 O 0.67015 0.07717 0.34555 0.0
O294 O 0.67183 0.08182 0.34462 0.0
Fe295 Fe 0.66782 0.02572 0.3322 0.0
C296 C 0.53078 0.23405 0.34636 0.0
O297 O 0.65231 0.23875 0.36197 0.0
O298 O 0.7007 0.19215 0.34754 0.0
O299 O 0.72437 0.98591 0.34443 0.0
O300 O 0.67934 0.99585 0.36369 0.0
O301 O 0.70427 0.10134 0.37058 0.0
O302 O 0.65494 0.16031 0.38186 0.0
O303 O 0.67717 0.14836 0.32307 0.0
O304 O 0.73297 0.07246 0.32461 0.0
C305 C 0.70088 0.13028 0.38004 0.0
O306 O 0.5986 0.98217 0.33982 0.0
O307 O 0.55533 0.02709 0.35494 0.0
O308 O 0.52517 0.22304 0.35806 0.0
O309 O 0.57412 0.21677 0.33904 0.0
C310 C 0.69649 0.23219 0.35432 0.0
C311 C 0.72139 0.11677 0.31937 0.0
C312 C 0.56008 0.09439 0.32323 0.0
O313 O 0.55652 0.10733 0.33435 0.0
O314 O 0.60515 0.0652 0.32017 0.0
C315 C 0.71892 0.97494 0.35615 0.0
O316 O 0.5817 0.0623 0.37894 0.0
O317 O 0.5275 0.13972 0.3791 0.0
C318 C 0.55644 0.98817 0.34781 0.0
C319 C 0.5366 0.09179 0.38259 0.0
Fe320 Fe 0.41922 0.96059 0.12722 0.0
O321 O 0.42771 0.9137 0.11306 0.0
Fe322 Fe 0.38521 0.93717 0.0962 0.0
Fe323 Fe 0.39765 0.83997 0.11384 0.0
O324 O 0.42645 0.9186 0.11223 0.0
O325 O 0.3585 0.86298 0.09695 0.0
O326 O 0.3582 0.85886 0.09777 0.0
Fe327 Fe 0.36531 0.8187 0.0825 0.0
C328 C 0.48409 0.86248 0.13602 0.0
O329 O 0.36051 0.91264 0.13714 0.0
O330 O 0.31811 0.86109 0.12331 0.0
O331 O 0.29223 0.8628 0.07765 0.0
O332 O 0.33549 0.94406 0.07893 0.0
O333 O 0.30595 0.95781 0.10519 0.0
O334 O 0.34436 1.0023 0.12091 0.0
O335 O 0.35736 0.76566 0.11251 0.0
O336 O 0.31568 0.76585 0.09288 0.0
C337 C 0.30005 0.99045 0.11382 0.0
O338 O 0.42105 0.87159 0.07234 0.0
O339 O 0.46434 0.91772 0.08693 0.0
O340 O 0.48732 0.91254 0.13404 0.0
O341 O 0.44617 0.8308 0.13054 0.0
C342 C 0.31773 0.88203 0.1339 0.0
C343 C 0.32129 0.74731 0.104 0.0
C344 C 0.48259 0.78358 0.09604 0.0
O345 O 0.47706 0.81423 0.10516 0.0
O346 O 0.44138 0.77878 0.08788 0.0
C347 C 0.29656 0.91069 0.07411 0.0
O348 O 0.42251 1.01352 0.09779 0.0
O349 O 0.47163 1.0114 0.11672 0.0
C350 C 0.46174 0.90452 0.07571 0.0
C351 C 0.46029 0.03251 0.106 0.0
Fe352 Fe 0.36607 0.92964 0.73632 0.0
O353 O 0.38692 0.85479 0.73395 0.0
Fe354 Fe 0.33769 0.97001 0.70574 0.0
Fe355 Fe 0.37152 0.80309 0.7472 0.0
O356 O 0.32647 0.92121 0.71966 0.0
O357 O 0.32368 0.91678 0.7187 0.0
O358 O 0.38477 0.85063 0.73303 0.0
Fe359 Fe 0.34702 0.84243 0.7163 0.0
C360 C 0.44486 0.88419 0.75866 0.0
O361 O 0.2844 0.90938 0.74465 0.0
O362 O 0.31944 0.85359 0.75839 0.0
O363 O 0.30108 0.84472 0.69889 0.0
O364 O 0.26797 0.92971 0.69732 0.0
O365 O 0.28567 0.0154 0.7169 0.0
O366 O 0.33335 1.00742 0.73596 0.0
O367 O 0.29312 0.77194 0.74035 0.0
O368 O 0.26385 0.81745 0.72368 0.0
C369 C 0.29657 0.03039 0.72807 0.0
O370 O 0.43013 0.86387 0.70823 0.0
O371 O 0.39722 0.92598 0.69543 0.0
O372 O 0.41196 0.92333 0.7542 0.0
O373 O 0.44745 0.83928 0.7536 0.0
C374 C 0.28523 0.89247 0.7557 0.0
C375 C 0.25395 0.78319 0.73208 0.0
C376 C 0.41447 0.74175 0.72441 0.0
O377 O 0.4185 0.75353 0.73594 0.0
O378 O 0.3809 0.76578 0.71617 0.0
C379 C 0.26676 0.88141 0.69397 0.0
O380 O 0.41173 1.00577 0.71364 0.0
O381 O 0.44857 0.95382 0.72854 0.0
C382 C 0.43776 0.89321 0.69878 0.0
C383 C 0.45424 0.99242 0.72108 0.0
Fe384 Fe 0.63102 0.72058 0.45829 0.0
O385 O 0.64632 0.6702 0.4718 0.0
Fe386 Fe 0.62784 0.59171 0.46802 0.0
Fe387 Fe 0.60993 0.6749 0.48894 0.0
O388 O 0.64823 0.66634 0.47076 0.0
O389 O 0.59299 0.59595 0.48526 0.0
O390 O 0.59042 0.59997 0.48624 0.0
Fe391 Fe 0.61283 0.54665 0.49884 0.0
C392 C 0.67854 0.77606 0.48093 0.0
O393 O 0.55721 0.7534 0.46704 0.0
O394 O 0.52571 0.6993 0.48219 0.0
O395 O 0.5651 0.49726 0.48755 0.0
O396 O 0.59825 0.51413 0.46756 0.0
O397 O 0.54244 0.61116 0.46075 0.0
O398 O 0.57142 0.67614 0.44824 0.0
O399 O 0.56589 0.66477 0.50706 0.0
O400 O 0.53765 0.57805 0.50682 0.0
C401 C 0.53282 0.6413 0.45151 0.0
O402 O 0.6914 0.51929 0.49071 0.0
O403 O 0.71344 0.56921 0.47425 0.0
O404 O 0.68388 0.76513 0.46933 0.0
O405 O 0.64217 0.75274 0.48899 0.0
C406 C 0.51699 0.73788 0.47485 0.0
C407 C 0.53527 0.6239 0.51148 0.0
C408 C 0.69454 0.63846 0.5074 0.0
O409 O 0.69348 0.65467 0.4963 0.0
O410 O 0.66352 0.59769 0.51021 0.0
C411 C 0.56659 0.48809 0.47583 0.0
O412 O 0.67073 0.59741 0.45029 0.0
O413 O 0.70088 0.68325 0.44895 0.0
C414 C 0.72717 0.53329 0.48196 0.0
C415 C 0.70376 0.63523 0.44542 0.0
Fe416 Fe 0.62741 0.70982 0.86388 0.0
O417 O 0.58636 0.69511 0.84776 0.0
Fe418 Fe 0.655 0.58652 0.87581 0.0
Fe419 Fe 0.59346 0.74036 0.83292 0.0
O420 O 0.65704 0.63682 0.86212 0.0
O421 O 0.65687 0.63253 0.86112 0.0
O422 O 0.58541 0.69047 0.84684 0.0
Fe423 Fe 0.61507 0.61732 0.84501 0.0
C424 C 0.55449 0.80637 0.85511 0.0
O425 O 0.70656 0.73736 0.85525 0.0
O426 O 0.6708 0.77835 0.83851 0.0
O427 O 0.65923 0.54346 0.84559 0.0
O428 O 0.70968 0.54335 0.86449 0.0
O429 O 0.72247 0.63499 0.8824 0.0
O430 O 0.67767 0.71597 0.88034 0.0
O431 O 0.64577 0.69094 0.82163 0.0
O432 O 0.69179 0.64197 0.83543 0.0
C433 C 0.71996 0.68454 0.88449 0.0
O434 O 0.53862 0.58784 0.8541 0.0
O435 O 0.58361 0.54242 0.86931 0.0
O436 O 0.58931 0.78465 0.86344 0.0
O437 O 0.54623 0.79021 0.84399 0.0
C438 C 0.7119 0.77145 0.84666 0.0
C439 C 0.68537 0.65592 0.82424 0.0
C440 C 0.5234 0.65178 0.82363 0.0
O441 O 0.51997 0.69841 0.82779 0.0
O442 O 0.5624 0.61622 0.82783 0.0
C443 C 0.70134 0.52687 0.85336 0.0
O444 O 0.59355 0.62855 0.88645 0.0
O445 O 0.54881 0.6854 0.87367 0.0
C446 C 0.53909 0.55009 0.86189 0.0
C447 C 0.54941 0.65937 0.88382 0.0
Fe448 Fe 0.38393 0.46366 0.62187 0.0
O449 O 0.38538 0.40563 0.61038 0.0
Fe450 Fe 0.34767 0.4159 0.59261 0.0
Fe451 Fe 0.35237 0.33493 0.61444 0.0
O452 O 0.38385 0.40939 0.6095 0.0
O453 O 0.31214 0.34594 0.59669 0.0
O454 O 0.31369 0.34159 0.59769 0.0
Fe455 Fe 0.32361 0.28957 0.58451 0.0
C456 C 0.44266 0.36889 0.63455 0.0
O457 O 0.31847 0.42947 0.63356 0.0
O458 O 0.27462 0.36618 0.62274 0.0
O459 O 0.25393 0.33008 0.57672 0.0
O460 O 0.30098 0.4102 0.57487 0.0
O461 O 0.27145 0.4541 0.59918 0.0
O462 O 0.31524 0.50569 0.61315 0.0
O463 O 0.3103 0.26184 0.6163 0.0
O464 O 0.2708 0.24566 0.5969 0.0
C465 C 0.27214 0.49544 0.60557 0.0
O466 O 0.3821 0.33348 0.57229 0.0
O467 O 0.42516 0.38038 0.58624 0.0
O468 O 0.44778 0.41694 0.63077 0.0
O469 O 0.39971 0.33661 0.63126 0.0
C470 C 0.27532 0.39626 0.63204 0.0
C471 C 0.27489 0.23676 0.60873 0.0
C472 C 0.43779 0.26359 0.60025 0.0
O473 O 0.43167 0.30123 0.60765 0.0
O474 O 0.39787 0.25302 0.59216 0.0
C475 C 0.26085 0.37482 0.5713 0.0
O476 O 0.39515 0.48743 0.59041 0.0
O477 O 0.44371 0.49798 0.60922 0.0
C478 C 0.42362 0.3664 0.57519 0.0
C479 C 0.43743 0.50752 0.59747 0.0
Fe480 Fe 0.40294 0.41145 0.23804 0.0
O481 O 0.39877 0.33504 0.2354 0.0
Fe482 Fe 0.427 0.4544 0.20672 0.0
Fe483 Fe 0.3654 0.28022 0.24613 0.0
O484 O 0.39843 0.40578 0.21948 0.0
O485 O 0.42013 0.39757 0.21851 0.0
O486 O 0.37302 0.33301 0.23324 0.0
Fe487 Fe 0.3976 0.32343 0.21562 0.0
C488 C 0.43568 0.35744 0.26261 0.0
O489 O 0.30936 0.40247 0.24199 0.0
O490 O 0.29896 0.33091 0.25406 0.0
O491 O 0.31783 0.35381 0.20666 0.0
O492 O 0.35079 0.42914 0.19725 0.0
O493 O 0.37348 0.50446 0.21689 0.0
O494 O 0.38905 0.49137 0.23752 0.0
O495 O 0.30716 0.24752 0.2332 0.0
O496 O 0.35997 0.2498 0.2149 0.0
C497 C 0.36524 0.51647 0.22826 0.0
O498 O 0.43907 0.32057 0.19841 0.0
O499 O 0.47918 0.40233 0.19662 0.0
O500 O 0.42117 0.40135 0.25721 0.0
O501 O 0.42478 0.31242 0.25823 0.0
C502 C 0.28924 0.38009 0.25191 0.0
C503 C 0.3181 0.23122 0.2222 0.0
C504 C 0.48237 0.25185 0.23124 0.0
O505 O 0.43843 0.23751 0.2387 0.0
O506 O 0.47719 0.2894 0.22322 0.0
C507 C 0.31179 0.39151 0.19861 0.0
O508 O 0.5015 0.47451 0.21714 0.0
O509 O 0.49764 0.42562 0.23501 0.0
C510 C 0.47533 0.35447 0.19336 0.0
C511 C 0.52465 0.45774 0.22738 0.0
H512 H 0.19644 0.36812 0.46387 0.0
H513 H 0.29469 0.25359 0.48547 0.0
H514 H 0.28938 0.42109 0.4624 0.0
H515 H 0.3855 0.30852 0.48533 0.0
H516 H 0.56047 0.38251 0.47292 0.0
H517 H 0.46502 0.33167 0.47224 0.0
H518 H 0.35973 0.47485 0.47132 0.0
H519 H 0.45487 0.52426 0.47113 0.0
C520 C 0.2369 0.35603 0.46898 0.0
C521 C 0.23729 0.30827 0.4754 0.0
C522 C 0.29055 0.38605 0.46806 0.0
C523 C 0.34567 0.36904 0.47363 0.0
C524 C 0.34463 0.32255 0.48066 0.0
C525 C 0.29153 0.29194 0.48126 0.0
C526 C 0.51678 0.40253 0.47197 0.0
C527 C 0.51457 0.45692 0.47167 0.0
C528 C 0.46194 0.37372 0.47191 0.0
C529 C 0.40412 0.39904 0.47201 0.0
C530 C 0.4028 0.45365 0.47109 0.0
C531 C 0.45743 0.48214 0.47086 0.0
H532 H 0.95391 0.98227 0.45824 0.0
H533 H 0.04733 0.89755 0.48723 0.0
H534 H 0.86175 0.92898 0.46172 0.0
H535 H 0.9553 0.84614 0.49119 0.0
H536 H 0.78679 0.73964 0.4881 0.0
H537 H 0.88352 0.78451 0.48488 0.0
H538 H 0.78484 0.92804 0.47785 0.0
H539 H 0.68702 0.88163 0.48075 0.0
C540 C 0.95557 0.95047 0.46492 0.0
C541 C 0.00727 0.94347 0.47244 0.0
C542 C 0.90237 0.92114 0.46721 0.0
C543 C 0.90053 0.88478 0.47706 0.0
C544 C 0.95489 0.87395 0.48359 0.0
C545 C 0.00799 0.90282 0.48121 0.0
C546 C 0.78586 0.78151 0.48668 0.0
C547 C 0.72963 0.80776 0.48516 0.0
C548 C 0.8414 0.80707 0.48455 0.0
C549 C 0.84188 0.85957 0.48083 0.0
C550 C 0.78578 0.88711 0.48038 0.0
C551 C 0.72989 0.86118 0.48242 0.0
H552 H 0.29558 0.05656 0.84474 0.0
H553 H 0.19553 0.91383 0.85148 0.0
H554 H 0.39225 1.01165 0.84773 0.0
H555 H 0.29323 0.86725 0.85399 0.0
H556 H 0.46271 0.80875 0.87211 0.0
H557 H 0.37071 0.86275 0.86961 0.0
H558 H 0.46403 0.95185 0.84088 0.0
H559 H 0.55588 0.89979 0.84393 0.0
C560 C 0.29468 0.01461 0.84601 0.0
C561 C 0.2384 0.9881 0.8474 0.0
C562 C 0.35014 0.98897 0.84798 0.0
C563 C 0.35054 0.93605 0.85136 0.0
C564 C 0.29433 0.90844 0.85173 0.0
C565 C 0.2385 0.9345 0.8499 0.0
C566 C 0.46437 0.842 0.86584 0.0
C567 C 0.51595 0.85064 0.85825 0.0
C568 C 0.41123 0.87181 0.8641 0.0
C569 C 0.40929 0.91028 0.8547 0.0
C570 C 0.46361 0.92251 0.84815 0.0
C571 C 0.51666 0.8932 0.85001 0.0
H572 H 0.06709 0.40053 0.84241 0.0
H573 H 0.98417 0.31367 0.87254 0.0
H574 H 0.97406 0.45107 0.84 0.0
H575 H 0.89101 0.36681 0.87074 0.0
H576 H 0.70863 0.42159 0.85596 0.0
H577 H 0.80551 0.37338 0.85767 0.0
H578 H 0.90519 0.5119 0.84608 0.0
H579 H 0.80862 0.55786 0.8437 0.0
C580 C 0.02975 0.39412 0.84896 0.0
C581 C 0.03267 0.35287 0.8576 0.0
C582 C 0.97585 0.42296 0.84752 0.0
C583 C 0.92374 0.41226 0.85492 0.0
C584 C 0.92926 0.3749 0.86454 0.0
C585 C 0.98329 0.34536 0.86585 0.0
C586 C 0.75121 0.44038 0.85309 0.0
C587 C 0.75109 0.4927 0.84922 0.0
C588 C 0.807 0.41346 0.85446 0.0
C589 C 0.86383 0.43888 0.8523 0.0
C590 C 0.8629 0.49042 0.84771 0.0
C591 C 0.80725 0.51677 0.84613 0.0
H592 H 0.55964 0.49677 0.6004 0.0
H593 H 0.42452 0.59218 0.58179 0.0
H594 H 0.64146 0.55516 0.5934 0.0
H595 H 0.50711 0.65213 0.57491 0.0
H596 H 0.65506 0.76933 0.59347 0.0
H597 H 0.57082 0.70967 0.58941 0.0
H598 H 0.70068 0.59779 0.57525 0.0
H599 H 0.78566 0.65916 0.57901 0.0
C600 C 0.54771 0.53007 0.59464 0.0
C601 C 0.48586 0.5405 0.59176 0.0
C602 C 0.59467 0.56309 0.59047 0.0
C603 C 0.58084 0.60814 0.58356 0.0
C604 C 0.51907 0.61752 0.58019 0.0
C605 C 0.47189 0.58353 0.58415 0.0
C606 C 0.66527 0.73305 0.58889 0.0
C607 C 0.72661 0.71903 0.58639 0.0
C608 C 0.61695 0.69886 0.58654 0.0
C609 C 0.62907 0.64895 0.58206 0.0
C610 C 0.69009 0.63616 0.57869 0.0
C611 C 0.73863 0.6712 0.58078 0.0
H612 H 0.92855 0.11994 0.60783 0.0
H613 H 0.00659 0.99302 0.62902 0.0
H614 H 0.02085 0.17214 0.61152 0.0
H615 H 0.1003 0.0448 0.63229 0.0
H616 H 0.20752 0.24405 0.63002 0.0
H617 H 0.11666 0.19131 0.63572 0.0
H618 H 0.15191 0.09125 0.60484 0.0
H619 H 0.24095 0.14461 0.59887 0.0
C620 C 0.96433 0.10415 0.61373 0.0
C621 C 0.9606 0.05262 0.61817 0.0
C622 C 0.01704 0.13391 0.61582 0.0
C623 C 0.06721 0.11227 0.62218 0.0
C624 C 0.06166 0.06235 0.6275 0.0
C625 C 0.00811 0.03291 0.62566 0.0
C626 C 0.19692 0.20979 0.6247 0.0
C627 C 0.23097 0.19838 0.61398 0.0
C628 C 0.14508 0.17982 0.62797 0.0
C629 C 0.12804 0.13731 0.62074 0.0
C630 C 0.16484 0.12362 0.6106 0.0
C631 C 0.21555 0.15414 0.60718 0.0
H632 H 0.80941 0.05432 0.24628 0.0
H633 H 0.76977 0.05916 0.20726 0.0
H634 H 0.73083 0.12227 0.24961 0.0
H635 H 0.69475 0.12662 0.21045 0.0
H636 H 0.58542 0.26762 0.2169 0.0
H637 H 0.68056 0.21757 0.21692 0.0
H638 H 0.61148 0.12228 0.2471 0.0
H639 H 0.51598 0.17267 0.24722 0.0
C640 C 0.78417 0.06971 0.23848 0.0
C641 C 0.79371 0.04924 0.22666 0.0
C642 C 0.73965 0.10876 0.24034 0.0
C643 C 0.70601 0.12932 0.2303 0.0
C644 C 0.71969 0.11183 0.21839 0.0
C645 C 0.76267 0.07253 0.21661 0.0
C646 C 0.5904 0.23632 0.22363 0.0
C647 C 0.54217 0.22356 0.23188 0.0
C648 C 0.6452 0.20777 0.22367 0.0
C649 C 0.6534 0.16574 0.23196 0.0
C650 C 0.60675 0.15469 0.24067 0.0
C651 C 0.55167 0.18321 0.24062 0.0
H652 H 0.06429 0.72287 0.21057 0.0
H653 H 0.99461 0.62925 0.24095 0.0
H654 H 0.1612 0.67363 0.21102 0.0
H655 H 0.09067 0.5801 0.24142 0.0
H656 H 0.25303 0.47583 0.23047 0.0
H657 H 0.15466 0.52022 0.22905 0.0
H658 H 0.2494 0.66806 0.2266 0.0
H659 H 0.34913 0.62259 0.22824 0.0
C660 C 0.06875 0.69023 0.21695 0.0
C661 C 0.02187 0.679 0.22558 0.0
C662 C 0.12458 0.66295 0.21741 0.0
C663 C 0.13378 0.62374 0.22641 0.0
C664 C 0.08492 0.61009 0.23439 0.0
C665 C 0.02967 0.63769 0.23403 0.0
C666 C 0.25281 0.51796 0.23024 0.0
C667 C 0.30836 0.54608 0.23025 0.0
C668 C 0.19648 0.54333 0.2292 0.0
C669 C 0.19428 0.59756 0.22774 0.0
C670 C 0.24988 0.62608 0.22768 0.0
C671 C 0.3067 0.6004 0.22886 0.0
H672 H 0.54924 0.94233 0.97822 0.0
H673 H 0.49408 0.05309 0.95003 0.0
H674 H 0.45731 0.89031 0.97415 0.0
H675 H 0.40099 1.00137 0.94623 0.0
H676 H 0.28603 0.80829 0.95168 0.0
H677 H 0.37993 0.85874 0.94691 0.0
H678 H 0.32824 0.97102 0.97431 0.0
H679 H 0.23578 0.92023 0.97933 0.0
C680 C 0.51864 0.95453 0.97086 0.0
C681 C 0.52864 1.00178 0.96448 0.0
C682 C 0.46621 0.92478 0.96853 0.0
C683 C 0.42261 0.94206 0.95988 0.0
C684 C 0.4346 0.98714 0.95282 0.0
C685 C 0.48784 0.01653 0.95499 0.0
C686 C 0.29355 0.84491 0.95629 0.0
C687 C 0.25382 0.86062 0.96585 0.0
C688 C 0.34722 0.87348 0.95359 0.0
C689 C 0.36064 0.91857 0.96024 0.0
C690 C 0.31822 0.93655 0.96901 0.0
C691 C 0.26546 0.90762 0.97186 0.0
H692 H 0.79295 0.29907 0.99997 0.0
H693 H 0.71149 0.42131 0.97792 0.0
H694 H 0.87839 0.35704 1.00531 0.0
H695 H 0.79693 0.47854 0.98269 0.0
H696 H 0.94198 0.58255 0.99224 0.0
H697 H 0.85261 0.52833 0.99681 0.0
H698 H 0.96626 0.3909 0.99378 0.0
H699 H 0.0569 0.44626 0.99013 0.0
C700 C 0.79208 0.33907 0.99673 0.0
C701 C 0.74507 0.35635 0.98882 0.0
C702 C 0.84155 0.37198 0.99957 0.0
C703 C 0.84488 0.42262 0.99444 0.0
C704 C 0.79572 0.44036 0.98705 0.0
C705 C 0.74663 0.40756 0.98425 0.0
C706 C 0.94837 0.54086 0.99322 0.0
C707 C 0.00649 0.51856 0.99119 0.0
C708 C 0.89695 0.50965 0.99562 0.0
C709 C 0.90173 0.4551 0.99542 0.0
C710 C 0.96079 0.43274 0.99414 0.0
C711 C 0.01281 0.46432 0.99204 0.0
H712 H 0.53089 0.33322 0.33646 0.0
H713 H 0.41379 0.20168 0.34489 0.0
H714 H 0.43948 0.38633 0.33206 0.0
H715 H 0.32356 0.25178 0.33915 0.0
H716 H 0.18914 0.37283 0.35368 0.0
H717 H 0.2706 0.31138 0.35001 0.0
H718 H 0.34874 0.41467 0.32208 0.0
H719 H 0.26714 0.47808 0.32646 0.0
C720 C 0.48569 0.31526 0.33687 0.0
C721 C 0.47905 0.26361 0.34102 0.0
C722 C 0.43319 0.34543 0.33425 0.0
C723 C 0.37344 0.32391 0.33553 0.0
C724 C 0.36818 0.2706 0.33853 0.0
C725 C 0.42001 0.2415 0.34166 0.0
C726 C 0.22246 0.38156 0.34644 0.0
C727 C 0.22178 0.42994 0.34033 0.0
C728 C 0.26953 0.34611 0.34424 0.0
C729 C 0.31732 0.35778 0.33577 0.0
C730 C 0.31352 0.40458 0.32883 0.0
C731 C 0.26611 0.44053 0.33113 0.0
H732 H 0.76753 0.89114 0.34486 0.0
H733 H 0.77559 0.97788 0.37871 0.0
H734 H 0.85888 0.84234 0.35103 0.0
H735 H 0.86838 0.92879 0.38482 0.0
H736 H 0.99182 0.74413 0.38026 0.0
H737 H 0.90038 0.79908 0.38309 0.0
H738 H 0.97593 0.91188 0.3573 0.0
H739 H 0.06608 0.8567 0.35421 0.0
C740 C 0.78802 0.89888 0.35375 0.0
C741 C 0.76484 0.93843 0.36127 0.0
C742 C 0.84012 0.871 0.35727 0.0
C743 C 0.87032 0.88231 0.36832 0.0
C744 C 0.84531 0.91945 0.37629 0.0
C745 C 0.79236 0.94723 0.3728 0.0
C746 C 0.99024 0.78191 0.37571 0.0
C747 C 0.03542 0.79614 0.36692 0.0
C748 C 0.93801 0.81321 0.37732 0.0
C749 C 0.93157 0.85932 0.37036 0.0
C750 C 0.9804 0.87653 0.3628 0.0
C751 C 0.03187 0.84505 0.36104 0.0
H752 H 0.49395 0.10708 0.12215 0.0
H753 H 0.50395 0.06974 0.08366 0.0
H754 H 0.56963 0.17511 0.11911 0.0
H755 H 0.58767 0.1324 0.0807 0.0
H756 H 0.73626 0.25711 0.07774 0.0
H757 H 0.64053 0.20705 0.07903 0.0
H758 H 0.67024 0.1842 0.1183 0.0
H759 H 0.76122 0.23807 0.11699 0.0
C760 C 0.51331 0.11299 0.11298 0.0
C761 C 0.49571 0.08088 0.10322 0.0
C762 C 0.55803 0.15155 0.11125 0.0
C763 C 0.58895 0.15768 0.09983 0.0
C764 C 0.56683 0.12874 0.08976 0.0
C765 C 0.51947 0.09182 0.09142 0.0
C766 C 0.72146 0.24149 0.08662 0.0
C767 C 0.75586 0.25154 0.09727 0.0
C768 C 0.66659 0.21241 0.0874 0.0
C769 C 0.64586 0.1913 0.09881 0.0
C770 C 0.6819 0.20093 0.10937 0.0
C771 C 0.73517 0.23137 0.10864 0.0
H772 H 0.04226 0.50552 0.10149 0.0
H773 H 0.94878 0.6511 0.10731 0.0
H774 H 0.14148 0.54841 0.10314 0.0
H775 H 0.04938 0.69513 0.10902 0.0
H776 H 0.23849 0.74602 0.12295 0.0
H777 H 0.14148 0.69663 0.12322 0.0
H778 H 0.20371 0.61088 0.09145 0.0
H779 H 0.2997 0.65998 0.09126 0.0
C780 C 0.04317 0.54731 0.10261 0.0
C781 C 0.98811 0.57564 0.10355 0.0
C782 C 0.10004 0.57175 0.10376 0.0
C783 C 0.10336 0.62515 0.10617 0.0
C784 C 0.04816 0.65377 0.10722 0.0
C785 C 0.99078 0.62903 0.106 0.0
C786 C 0.23221 0.71503 0.11639 0.0
C787 C 0.27654 0.70627 0.10717 0.0
C788 C 0.17629 0.68761 0.11637 0.0
C789 C 0.16454 0.65062 0.1072 0.0
C790 C 0.2113 0.63904 0.09864 0.0
C791 C 0.26658 0.66671 0.0986 0.0
H792 H 0.42228 0.63591 0.72578 0.0
H793 H 0.52259 0.77574 0.71642 0.0
H794 H 0.51949 0.58792 0.72723 0.0
H795 H 0.61924 0.7297 0.7183 0.0
H796 H 0.78176 0.61849 0.71375 0.0
H797 H 0.68858 0.66943 0.7113 0.0
H798 H 0.60247 0.58087 0.74102 0.0
H799 H 0.69492 0.52737 0.7427 0.0
C800 C 0.46505 0.65561 0.72342 0.0
C801 C 0.4651 0.70874 0.72034 0.0
C802 C 0.52087 0.62875 0.72463 0.0
C803 C 0.57758 0.6551 0.72311 0.0
C804 C 0.5769 0.70766 0.71934 0.0
C805 C 0.5213 0.73401 0.71794 0.0
C806 C 0.74373 0.61153 0.7201 0.0
C807 C 0.74583 0.56973 0.72856 0.0
C808 C 0.68989 0.64037 0.71863 0.0
C809 C 0.63714 0.62853 0.72574 0.0
C810 C 0.64152 0.59001 0.7351 0.0
C811 C 0.69529 0.56048 0.73641 0.0
H812 H 0.93984 0.1421 0.73315 0.0
H813 H 0.03071 0.27381 0.71598 0.0
H814 H 0.03856 0.09758 0.73513 0.0
H815 H 0.1299 0.23283 0.71906 0.0
H816 H 0.29233 0.12132 0.71583 0.0
H817 H 0.20069 0.17371 0.71431 0.0
H818 H 0.12589 0.09545 0.74681 0.0
H819 H 0.21619 0.0391 0.74736 0.0
C820 C 0.98102 0.16059 0.72944 0.0
C821 C 0.97799 0.21039 0.72408 0.0
C822 C 0.03795 0.13611 0.73096 0.0
C823 C 0.09308 0.16203 0.72762 0.0
C824 C 0.08906 0.21098 0.72166 0.0
C825 C 0.032 0.23444 0.71972 0.0
C826 C 0.25727 0.11691 0.72295 0.0
C827 C 0.2608 0.076 0.73163 0.0
C828 C 0.2041 0.14683 0.72205 0.0
C829 C 0.15414 0.13765 0.73013 0.0
C830 C 0.16203 0.10194 0.74003 0.0
C831 C 0.21478 0.07078 0.74067 0.0
H832 H 0.30158 0.01615 0.4654 0.0
H833 H 0.22163 0.94509 0.4982 0.0
H834 H 0.37492 0.94428 0.46414 0.0
H835 H 0.29209 0.87293 0.49662 0.0
H836 H 0.46393 0.76995 0.49632 0.0
H837 H 0.39249 0.84257 0.4986 0.0
H838 H 0.37764 0.85558 0.45885 0.0
H839 H 0.45128 0.78473 0.45669 0.0
C840 C 0.29982 0.98552 0.47237 0.0
C841 C 0.2553 0.98648 0.48183 0.0
C842 C 0.34137 0.9439 0.47158 0.0
C843 C 0.33896 0.9021 0.48017 0.0
C844 C 0.29601 0.90435 0.48989 0.0
C845 C 0.25519 0.94601 0.49076 0.0
C846 C 0.444 0.78756 0.48811 0.0
C847 C 0.46274 0.7717 0.47634 0.0
C848 C 0.40334 0.82948 0.48939 0.0
C849 C 0.37992 0.85581 0.4789 0.0
C850 C 0.39607 0.83752 0.46713 0.0
C851 C 0.43737 0.79628 0.46588 0.0
H852 H 0.02332 0.33679 0.45326 0.0
H853 H 0.92895 0.24756 0.48178 0.0
H854 H 0.95679 0.41056 0.45719 0.0
H855 H 0.86048 0.32107 0.48538 0.0
H856 H 0.79051 0.47439 0.49867 0.0
H857 H 0.86364 0.40519 0.49431 0.0
H858 H 0.85572 0.44444 0.45539 0.0
H859 H 0.78419 0.51492 0.45986 0.0
C860 C 0.98761 0.33247 0.46023 0.0
C861 C 0.98181 0.28611 0.46725 0.0
C862 C 0.94927 0.37496 0.46247 0.0
C863 C 0.90368 0.37219 0.47171 0.0
C864 C 0.89615 0.32511 0.4784 0.0
C865 C 0.93491 0.28264 0.47623 0.0
C866 C 0.80552 0.46897 0.48922 0.0
C867 C 0.78148 0.50004 0.47961 0.0
C868 C 0.84675 0.42878 0.48669 0.0
C869 C 0.86448 0.41826 0.47446 0.0
C870 C 0.84325 0.45138 0.46492 0.0
C871 C 0.80243 0.49205 0.46748 0.0
H872 H 0.28797 0.28561 0.87165 0.0
H873 H 0.3034 0.31294 0.83229 0.0
H874 H 0.35996 0.35658 0.87524 0.0
H875 H 0.37698 0.38271 0.83583 0.0
H876 H 0.44128 0.54375 0.84593 0.0
H877 H 0.37201 0.46991 0.84332 0.0
H878 H 0.46238 0.38819 0.87331 0.0
H879 H 0.52955 0.46231 0.87626 0.0
C880 C 0.30833 0.30562 0.86375 0.0
C881 C 0.28974 0.29395 0.85169 0.0
C882 C 0.34938 0.34657 0.8658 0.0
C883 C 0.37315 0.3762 0.85582 0.0
C884 C 0.35799 0.36182 0.84374 0.0
C885 C 0.31655 0.32132 0.8417 0.0
C886 C 0.44564 0.51041 0.8521 0.0
C887 C 0.49123 0.50902 0.86125 0.0
C888 C 0.40651 0.46773 0.8505 0.0
C889 C 0.41236 0.42267 0.85797 0.0
C890 C 0.45632 0.42222 0.86742 0.0
C891 C 0.49504 0.46489 0.86908 0.0
H892 H 0.72892 0.85583 0.83145 0.0
H893 H 0.80969 0.77558 0.86277 0.0
H894 H 0.8 0.92729 0.83395 0.0
H895 H 0.88373 0.84645 0.86486 0.0
H896 H 0.96085 1.00293 0.87483 0.0
H897 H 0.88731 0.93273 0.87167 0.0
H898 H 0.90014 0.95872 0.83217 0.0
H899 H 0.97136 0.03073 0.83549 0.0
C900 C 0.76286 0.85274 0.83872 0.0
C901 C 0.76311 0.80984 0.84697 0.0
C902 C 0.80402 0.89397 0.84012 0.0
C903 C 0.84738 0.8933 0.8497 0.0
C904 C 0.8499 0.8491 0.85757 0.0
C905 C 0.808 0.80799 0.85627 0.0
C906 C 0.94667 0.99427 0.8655 0.0
C907 C 0.97134 0.02237 0.85541 0.0
C908 C 0.90535 0.95344 0.86365 0.0
C909 C 0.88855 0.93904 0.85165 0.0
C910 C 0.91147 0.96875 0.84157 0.0
C911 C 0.95208 1.01028 0.84344 0.0
H912 H 0.49042 0.20415 0.58258 0.0
H913 H 0.49969 0.23775 0.62148 0.0
H914 H 0.56213 0.13256 0.58543 0.0
H915 H 0.57005 0.16435 0.6245 0.0
H916 H 0.74678 0.06132 0.62076 0.0
H917 H 0.67043 0.13106 0.62063 0.0
H918 H 0.56434 0.04715 0.59365 0.0
H919 H 0.64273 0.97883 0.59347 0.0
C920 C 0.50819 0.19634 0.59175 0.0
C921 C 0.48937 0.22652 0.6018 0.0
C922 C 0.54861 0.1547 0.59343 0.0
C923 C 0.57067 0.14152 0.60526 0.0
C924 C 0.55396 0.17321 0.61526 0.0
C925 C 0.51392 0.21549 0.61353 0.0
C926 C 0.7058 0.05713 0.61517 0.0
C927 C 0.69972 0.01459 0.60729 0.0
C928 C 0.66219 0.09719 0.61503 0.0
C929 C 0.61171 0.09541 0.60695 0.0
C930 C 0.60347 0.05057 0.59976 0.0
C931 C 0.64752 1.01084 0.59981 0.0
H932 H 0.25493 0.58597 0.61811 0.0
H933 H 0.18282 0.49739 0.58772 0.0
H934 H 0.18046 0.65448 0.61389 0.0
H935 H 0.10894 0.56667 0.58339 0.0
H936 H 0.93509 0.66345 0.59348 0.0
H937 H 0.01788 0.60005 0.59342 0.0
H938 H 0.15043 0.72318 0.59906 0.0
H939 H 0.06616 0.78713 0.59931 0.0
C940 C 0.2233 0.58107 0.61051 0.0
C941 C 0.22453 0.53579 0.60334 0.0
C942 C 0.18113 0.62079 0.60799 0.0
C943 C 0.13912 0.61629 0.59824 0.0
C944 C 0.1405 0.57118 0.59102 0.0
C945 C 0.18266 0.53135 0.59354 0.0
C946 C 0.98211 0.67714 0.59444 0.0
C947 C 0.99443 0.73001 0.59648 0.0
C948 C 0.02963 0.64081 0.59434 0.0
C949 C 0.09071 0.65644 0.59635 0.0
C950 C 0.10361 0.70993 0.59764 0.0
C951 C 0.05571 0.74659 0.59764 0.0
H952 H 0.62528 0.47992 0.21341 0.0
H953 H 0.5456 0.5024 0.24953 0.0
H954 H 0.69436 0.55339 0.21654 0.0
H955 H 0.61364 0.57697 0.25261 0.0
H956 H 0.7796 0.69059 0.25537 0.0
H957 H 0.71689 0.61223 0.25465 0.0
H958 H 0.67317 0.64654 0.21652 0.0
H959 H 0.73758 0.72434 0.2171 0.0
C960 C 0.62431 0.49946 0.22222 0.0
C961 C 0.58035 0.48557 0.23124 0.0
C962 C 0.66284 0.54221 0.22391 0.0
C963 C 0.65785 0.57213 0.23463 0.0
C964 C 0.61829 0.55493 0.2442 0.0
C965 C 0.57991 0.51176 0.24253 0.0
C966 C 0.75586 0.68194 0.24687 0.0
C967 C 0.76433 0.71345 0.23623 0.0
C968 C 0.71992 0.6369 0.24647 0.0
C969 C 0.69144 0.62239 0.23545 0.0
C970 C 0.69618 0.65586 0.22506 0.0
C971 C 0.73223 0.70096 0.22545 0.0
H972 H 0.34396 0.12834 0.22265 0.0
H973 H 0.20405 0.23999 0.21265 0.0
H974 H 0.27141 0.05692 0.21895 0.0
H975 H 0.13119 0.16921 0.20902 0.0
H976 H 0.01949 0.03257 0.19771 0.0
H977 H 0.10616 0.09277 0.19646 0.0
H978 H 0.17826 0.02835 0.23048 0.0
H979 H 0.0921 0.96762 0.23171 0.0
C980 C 0.29803 0.13726 0.21935 0.0
C981 C 0.2791 0.18905 0.21782 0.0
C982 C 0.25651 0.09666 0.21733 0.0
C983 C 0.19559 0.1075 0.21375 0.0
C984 C 0.17799 0.15956 0.21162 0.0
C985 C 0.2194 0.20005 0.21372 0.0
C986 C 0.05418 0.03071 0.20486 0.0
C987 C 0.04825 0.99581 0.21493 0.0
C988 C 0.10378 0.06528 0.20413 0.0
C989 C 0.14862 0.06562 0.21343 0.0
C990 C 0.14468 0.02874 0.22312 0.0
C991 C 0.09502 0.99415 0.22386 0.0
H992 H 0.31274 0.56782 0.99296 0.0
H993 H 0.22804 0.47338 0.96493 0.0
H994 H 0.38701 0.49798 0.99705 0.0
H995 H 0.30161 0.40476 0.96897 0.0
H996 H 0.41648 0.27399 0.98197 0.0
H997 H 0.33487 0.33929 0.98454 0.0
H998 H 0.47267 0.46097 0.98504 0.0
H999 H 0.55314 0.3963 0.98266 0.0
C1000 C 0.31006 0.53246 0.98766 0.0
C1001 C 0.26472 0.52641 0.97857 0.0
C1002 C 0.35217 0.49238 0.99007 0.0
C1003 C 0.34939 0.44562 0.98346 0.0
C1004 C 0.30392 0.43969 0.97445 0.0
C1005 C 0.26227 0.47954 0.97202 0.0
C1006 C 0.42897 0.31455 0.98298 0.0
C1007 C 0.49054 0.33047 0.98187 0.0
C1008 C 0.38256 0.35187 0.98438 0.0
C1009 C 0.39753 0.40526 0.98482 0.0
C1010 C 0.45965 0.42027 0.98479 0.0
C1011 C 0.50565 0.38326 0.98329 0.0
H1012 H 0.99743 0.83105 0.95939 0.0
H1013 H 0.98456 0.84753 0.99889 0.0
H1014 H 0.92884 0.9055 0.95652 0.0
H1015 H 0.91367 0.91998 0.99618 0.0
H1016 H 0.83705 0.07654 0.99029 0.0
H1017 H 0.91376 1.00725 0.99051 0.0
H1018 H 0.83 0.94124 0.9581 0.0
H1019 H 0.75605 1.01283 0.95756 0.0
C1020 C 0.9782 0.84956 0.96746 0.0
C1021 C 0.99608 0.83339 0.97936 0.0
C1022 C 0.93915 0.89256 0.96583 0.0
C1023 C 0.91651 0.91991 0.9761 0.0
C1024 C 0.93179 0.90143 0.98801 0.0
C1025 C 0.9716 0.8592 0.98961 0.0
C1026 C 0.83707 0.04841 0.98292 0.0
C1027 C 0.79169 0.05042 0.97377 0.0
C1028 C 0.88 1.00788 0.98318 0.0
C1029 C 0.8772 0.96739 0.97454 0.0
C1030 C 0.83405 0.97153 0.9649 0.0
C1031 C 0.79187 1.01282 0.9645 0.0
H1032 H 0.28829 0.75024 0.37277 0.0
H1033 H 0.30641 0.73863 0.33321 0.0
H1034 H 0.37097 0.81596 0.37283 0.0
H1035 H 0.38711 0.80399 0.33316 0.0
H1036 H 0.55878 0.89467 0.33646 0.0
H1037 H 0.49021 0.82151 0.33925 0.0
H1038 H 0.38226 0.90852 0.36548 0.0
H1039 H 0.45338 0.9825 0.36303 0.0
C1040 C 0.31145 0.76045 0.36418 0.0
C1041 C 0.29168 0.73917 0.35299 0.0
C1042 C 0.35781 0.79867 0.36417 0.0
C1043 C 0.38527 0.81556 0.35299 0.0
C1044 C 0.36761 0.79166 0.34196 0.0
C1045 C 0.32144 0.75403 0.34197 0.0
C1046 C 0.52044 0.89879 0.34281 0.0
C1047 C 0.51114 0.94514 0.34936 0.0
C1048 C 0.48103 0.85649 0.34442 0.0
C1049 C 0.43041 0.85919 0.3525 0.0
C1050 C 0.42125 0.90507 0.35926 0.0
C1051 C 0.46143 0.94767 0.35773 0.0
H1052 H 0.03411 0.40193 0.34889 0.0
H1053 H 0.90253 0.5269 0.35237 0.0
H1054 H 0.95093 0.33937 0.34733 0.0
H1055 H 0.81775 0.46352 0.35066 0.0
H1056 H 0.70445 0.32259 0.36731 0.0
H1057 H 0.7793 0.39259 0.36469 0.0
H1058 H 0.86562 0.30936 0.33484 0.0
H1059 H 0.79146 0.23873 0.33755 0.0
C1060 C 0.98703 0.41604 0.34911 0.0
C1061 C 0.97448 0.46905 0.35087 0.0
C1062 C 0.93934 0.38021 0.34811 0.0
C1063 C 0.87775 0.39642 0.34891 0.0
C1064 C 0.86492 0.44994 0.35011 0.0
C1065 C 0.91313 0.48619 0.35099 0.0
C1066 C 0.73931 0.31911 0.36016 0.0
C1067 C 0.74241 0.27457 0.35276 0.0
C1068 C 0.78171 0.35965 0.35857 0.0
C1069 C 0.82822 0.35658 0.34954 0.0
C1070 C 0.83055 0.31262 0.34195 0.0
C1071 C 0.78819 0.27205 0.34354 0.0
H1072 H 0.56164 0.75602 0.11469 0.0
H1073 H 0.51721 0.7233 0.07671 0.0
H1074 H 0.62701 0.67881 0.11543 0.0
H1075 H 0.58056 0.64557 0.07759 0.0
H1076 H 0.74927 0.5346 0.08231 0.0
H1077 H 0.68278 0.61029 0.07937 0.0
H1078 H 0.60642 0.58582 0.11595 0.0
H1079 H 0.67419 0.51122 0.11897 0.0
C1080 C 0.56665 0.73297 0.10645 0.0
C1081 C 0.53346 0.74538 0.09573 0.0
C1082 C 0.60325 0.68825 0.10692 0.0
C1083 C 0.60738 0.65522 0.09667 0.0
C1084 C 0.57804 0.66991 0.08566 0.0
C1085 C 0.54167 0.71457 0.08518 0.0
C1086 C 0.71642 0.54419 0.0895 0.0
C1087 C 0.71688 0.51735 0.10088 0.0
C1088 C 0.67888 0.58794 0.08789 0.0
C1089 C 0.6409 0.60504 0.0976 0.0
C1090 C 0.63685 0.57473 0.10847 0.0
C1091 C 0.67465 0.53141 0.11012 0.0
H1092 H 0.27345 0.07091 0.12924 0.0
H1093 H 0.19462 0.97654 0.10052 0.0
H1094 H 0.18468 0.12856 0.12824 0.0
H1095 H 0.10536 0.03384 0.09975 0.0
H1096 H 0.00345 0.21577 0.12627 0.0
H1097 H 0.07118 0.14158 0.13062 0.0
H1098 H 0.10295 0.12354 0.09148 0.0
H1099 H 0.03542 0.19643 0.08713 0.0
C1100 C 0.23666 0.0618 0.1229 0.0
C1101 C 0.24186 0.01993 0.11473 0.0
C1102 C 0.18552 0.09462 0.12242 0.0
C1103 C 0.13867 0.08604 0.11379 0.0
C1104 C 0.14149 0.0418 0.10633 0.0
C1105 C 0.19262 1.00905 0.10678 0.0
C1106 C 0.02437 0.19545 0.11862 0.0
C1107 C 0.01469 0.21225 0.10637 0.0
C1108 C 0.06311 0.15315 0.12111 0.0
C1109 C 0.09201 0.12673 0.11139 0.0
C1110 C 0.08053 0.14256 0.09916 0.0
C1111 C 0.04244 0.18485 0.09668 0.0
H1112 H 0.48665 0.06873 0.70473 0.0
H1113 H 0.54082 0.99897 0.73957 0.0
H1114 H 0.55891 0.13879 0.70766 0.0
H1115 H 0.61675 0.06847 0.74221 0.0
H1116 H 0.69129 0.23156 0.75004 0.0
H1117 H 0.62059 0.15865 0.74699 0.0
H1118 H 0.66161 0.16358 0.70785 0.0
H1119 H 0.72995 0.23713 0.71096 0.0
C1120 C 0.51503 0.06771 0.71294 0.0
C1121 C 0.50736 0.0284 0.722 0.0
C1122 C 0.55701 0.10798 0.71457 0.0
C1123 C 0.59351 0.10979 0.72523 0.0
C1124 C 0.58838 0.06895 0.73401 0.0
C1125 C 0.5456 0.02863 0.73242 0.0
C1126 C 0.68379 0.21761 0.74077 0.0
C1127 C 0.71435 0.24096 0.73065 0.0
C1128 C 0.64417 0.17532 0.73903 0.0
C1129 C 0.63534 0.15494 0.72717 0.0
C1130 C 0.66596 0.17877 0.71708 0.0
C1131 C 0.70467 0.22141 0.7188 0.0
H1132 H 0.01783 0.54641 0.70329 0.0
H1133 H 0.98538 0.53353 0.74255 0.0
H1134 H 0.0855 0.6209 0.70652 0.0
H1135 H 0.04848 0.61013 0.74582 0.0
H1136 H 0.21843 0.71008 0.749 0.0
H1137 H 0.14656 0.64025 0.74621 0.0
H1138 H 0.08972 0.70882 0.71136 0.0
H1139 H 0.16659 0.77747 0.71373 0.0
C1140 C 0.02578 0.5595 0.71262 0.0
C1141 C 0.99779 0.53387 0.7227 0.0
C1142 C 0.06345 0.60276 0.71447 0.0
C1143 C 0.07231 0.62213 0.72643 0.0
C1144 C 0.04412 0.59595 0.7365 0.0
C1145 C 0.00804 0.55184 0.73467 0.0
C1146 C 0.19033 0.71086 0.74075 0.0
C1147 C 0.19919 0.74903 0.73147 0.0
C1148 C 0.14836 0.67067 0.7392 0.0
C1149 C 0.11253 0.66814 0.72847 0.0
C1150 C 0.11783 0.7086 0.71959 0.0
C1151 C 0.16111 0.74853 0.72103 0.0
H1152 H 0.22014 0.14768 0.41916 0.0
H1153 H 0.27718 0.02072 0.44296 0.0
H1154 H 0.299 0.12465 0.4042 0.0
H1155 H 0.35818 0.99784 0.42793 0.0
H1156 H 0.5444 0.06551 0.40704 0.0
H1157 H 0.45635 0.05096 0.42105 0.0
H1158 H 0.33323 0.05391 0.38984 0.0
H1159 H 0.42083 0.06947 0.376 0.0
C1160 C 0.24904 0.11414 0.42105 0.0
C1161 C 0.24308 0.0861 0.43218 0.0
C1162 C 0.29395 0.10069 0.41246 0.0
C1163 C 0.33464 0.05934 0.4149 0.0
C1164 C 0.32727 0.02983 0.42585 0.0
C1165 C 0.28103 0.04273 0.43439 0.0
C1166 C 0.49867 0.06101 0.40322 0.0
C1167 C 0.48871 0.06886 0.39055 0.0
C1168 C 0.44841 0.05253 0.41119 0.0
C1169 C 0.38799 0.05198 0.40651 0.0
C1170 C 0.37924 0.05471 0.39368 0.0
C1171 C 0.42919 0.0635 0.38577 0.0
H1172 H 0.81235 0.07935 0.37892 0.0
H1173 H 0.69948 0.17154 0.40328 0.0
H1174 H 0.8907 0.07209 0.39498 0.0
H1175 H 0.77788 0.1642 0.41928 0.0
H1176 H 0.91338 0.10381 0.44914 0.0
H1177 H 0.83079 0.09931 0.43365 0.0
H1178 H 0.96333 0.13361 0.40477 0.0
H1179 H 0.04465 0.13829 0.42003 0.0
C1180 C 0.80416 0.09814 0.38767 0.0
C1181 C 0.74964 0.12651 0.3897 0.0
C1182 C 0.84912 0.09393 0.3969 0.0
C1183 C 0.84058 0.11747 0.40846 0.0
C1184 C 0.78568 0.14506 0.41056 0.0
C1185 C 0.74101 0.14975 0.4013 0.0
C1186 C 0.92473 0.10969 0.43947 0.0
C1187 C 0.98549 0.12179 0.43585 0.0
C1188 C 0.87749 0.10749 0.43061 0.0
C1189 C 0.89042 0.11622 0.41795 0.0
C1190 C 0.95165 0.12624 0.41438 0.0
C1191 C 0.99828 0.12928 0.42318 0.0
H1192 H 0.44045 0.14327 0.95223 0.0
H1193 H 0.50879 0.27561 0.93122 0.0
H1194 H 0.35392 0.13611 0.93806 0.0
H1195 H 0.42365 0.26753 0.91689 0.0
H1196 H 0.24204 0.25883 0.89589 0.0
H1197 H 0.3158 0.27442 0.91255 0.0
H1198 H 0.33755 0.10841 0.91774 0.0
H1199 H 0.26369 0.09304 0.90167 0.0
C1200 C 0.43707 0.17094 0.94462 0.0
C1201 C 0.48228 0.20967 0.94286 0.0
C1202 C 0.38745 0.16672 0.93642 0.0
C1203 C 0.38171 0.20092 0.92617 0.0
C1204 C 0.42576 0.24077 0.9247 0.0
C1205 C 0.47514 0.24514 0.93292 0.0
C1206 C 0.26203 0.22578 0.90071 0.0
C1207 C 0.2467 0.17472 0.89731 0.0
C1208 C 0.30475 0.23464 0.91022 0.0
C1209 C 0.33294 0.19267 0.9166 0.0
C1210 C 0.31638 0.14186 0.9133 0.0
C1211 C 0.2741 0.13307 0.90389 0.0
H1212 H 0.76937 0.27376 0.92934 0.0
H1213 H 0.72315 0.10985 0.93 0.0
H1214 H 0.8397 0.25982 0.91224 0.0
H1215 H 0.7929 0.09627 0.91258 0.0
H1216 H 0.9438 0.22677 0.87729 0.0
H1217 H 0.85309 0.23658 0.89061 0.0
H1218 H 0.90413 0.09694 0.91077 0.0
H1219 H 0.99327 0.08678 0.89749 0.0
C1220 C 0.77351 0.23479 0.92575 0.0
C1221 C 0.74118 0.19276 0.93122 0.0
C1222 C 0.81345 0.22695 0.91581 0.0
C1223 C 0.82215 0.17692 0.91107 0.0
C1224 C 0.78775 0.13522 0.91614 0.0
C1225 C 0.74764 0.14306 0.9261 0.0
C1226 C 0.93521 0.19803 0.88449 0.0
C1227 C 0.97656 0.15675 0.88649 0.0
C1228 C 0.88334 0.20361 0.89213 0.0
C1229 C 0.87163 0.16771 0.90181 0.0
C1230 C 0.91129 0.12501 0.90334 0.0
C1231 C 0.96297 0.11959 0.89579 0.0
H1232 H 0.48592 0.96571 0.68285 0.0
H1233 H 0.51555 0.8096 0.69678 0.0
H1234 H 0.57268 0.95627 0.66873 0.0
H1235 H 0.60465 0.8009 0.68312 0.0
H1236 H 0.69543 0.77953 0.64511 0.0
H1237 H 0.62048 0.79055 0.6615 0.0
H1238 H 0.68264 0.94875 0.66642 0.0
H1239 H 0.75716 0.93828 0.64964 0.0
C1240 C 0.51159 0.92954 0.68304 0.0
C1241 C 0.49387 0.88833 0.69099 0.0
C1242 C 0.56189 0.92437 0.67503 0.0
C1243 C 0.59584 0.87782 0.67475 0.0
C1244 C 0.57921 0.83715 0.68298 0.0
C1245 C 0.52867 0.84231 0.69097 0.0
C1246 C 0.69368 0.81671 0.64969 0.0
C1247 C 0.73233 0.85816 0.64593 0.0
C1248 C 0.65082 0.82285 0.65922 0.0
C1249 C 0.64533 0.87053 0.66532 0.0
C1250 C 0.68507 0.91165 0.66182 0.0
C1251 C 0.72808 0.90554 0.65223 0.0
H1252 H 0.04435 0.90163 0.62701 0.0
H1253 H 0.96294 0.77421 0.64784 0.0
H1254 H 0.12742 0.9065 0.642 0.0
H1255 H 0.04551 0.77971 0.66297 0.0
H1256 H 0.22733 0.78551 0.68516 0.0
H1257 H 0.15455 0.77005 0.66824 0.0
H1258 H 0.13624 0.93604 0.66257 0.0
H1259 H 0.20849 0.9513 0.67893 0.0
C1260 C 0.04411 0.87456 0.63477 0.0
C1261 C 0.99613 0.8381 0.63625 0.0
C1262 C 0.09183 0.8774 0.64342 0.0
C1263 C 0.09302 0.84399 0.65387 0.0
C1264 C 0.04659 0.8059 0.65505 0.0
C1265 C 0.99889 0.80297 0.64636 0.0
C1266 C 0.20811 0.81856 0.68021 0.0
C1267 C 0.22411 0.86962 0.68352 0.0
C1268 C 0.16607 0.80976 0.67054 0.0
C1269 C 0.13958 0.8518 0.6639 0.0
C1270 C 0.15628 0.90254 0.66721 0.0
C1271 C 0.19764 0.91127 0.67679 0.0
H1272 H 0.68856 0.81698 0.20309 0.0
H1273 H 0.81642 0.79523 0.17298 0.0
H1274 H 0.60208 0.80733 0.18893 0.0
H1275 H 0.72972 0.78606 0.15868 0.0
H1276 H 0.54637 0.76918 0.13678 0.0
H1277 H 0.62228 0.74125 0.15238 0.0
H1278 H 0.58589 0.88099 0.1729 0.0
H1279 H 0.51236 0.90909 0.15737 0.0
C1280 C 0.69788 0.80786 0.19351 0.0
C1281 C 0.7586 0.80678 0.18904 0.0
C1282 C 0.64859 0.80251 0.18542 0.0
C1283 C 0.65937 0.79665 0.17271 0.0
C1284 C 0.72022 0.79014 0.16846 0.0
C1285 C 0.76974 0.79538 0.1766 0.0
C1286 C 0.55438 0.79338 0.14472 0.0
C1287 C 0.52431 0.84156 0.14582 0.0
C1288 C 0.59759 0.77746 0.1536 0.0
C1289 C 0.60948 0.8088 0.16387 0.0
C1290 C 0.57704 0.85567 0.16518 0.0
C1291 C 0.53536 0.87201 0.15623 0.0
H1292 H 0.09653 0.8244 0.2012 0.0
H1293 H 0.96958 0.87 0.17244 0.0
H1294 H 0.18024 0.82211 0.18584 0.0
H1295 H 0.05228 0.86852 0.15734 0.0
H1296 H 0.20561 0.83329 0.13039 0.0
H1297 H 0.12478 0.81631 0.14583 0.0
H1298 H 0.2377 0.88686 0.17376 0.0
H1299 H 0.31833 0.90258 0.15854 0.0
C1300 C 0.0863 0.83333 0.19163 0.0
C1301 C 0.02641 0.84792 0.18812 0.0
C1302 C 0.13427 0.83234 0.18282 0.0
C1303 C 0.12317 0.84536 0.17031 0.0
C1304 C 0.06269 0.85769 0.1668 0.0
C1305 C 0.0152 0.85905 0.17555 0.0
C1306 C 0.2134 0.84454 0.13984 0.0
C1307 C 0.26846 0.86955 0.14315 0.0
C1308 C 0.16697 0.83508 0.14871 0.0
C1309 C 0.1746 0.85021 0.16109 0.0
C1310 C 0.23035 0.87395 0.1644 0.0
C1311 C 0.27642 0.88354 0.15558 0.0
H1312 H 0.55791 0.64305 0.90869 0.0
H1313 H 0.42749 0.68923 0.88066 0.0
H1314 H 0.47724 0.6473 0.92439 0.0
H1315 H 0.34581 0.69262 0.89651 0.0
H1316 H 0.2103 0.62082 0.92658 0.0
H1317 H 0.28974 0.62623 0.91055 0.0
H1318 H 0.40686 0.71178 0.93515 0.0
H1319 H 0.32675 0.70709 0.95122 0.0
C1320 C 0.51195 0.6543 0.90585 0.0
C1321 C 0.49942 0.66556 0.89332 0.0
C1322 C 0.46565 0.65704 0.91492 0.0
C1323 C 0.4048 0.67022 0.91178 0.0
C1324 C 0.39209 0.68203 0.89927 0.0
C1325 C 0.43896 0.68035 0.89018 0.0
C1326 C 0.25293 0.64085 0.92863 0.0
C1327 C 0.26195 0.66317 0.94032 0.0
C1328 C 0.29836 0.64435 0.91935 0.0
C1329 C 0.35486 0.66951 0.92149 0.0
C1330 C 0.36406 0.69187 0.93317 0.0
C1331 C 0.31805 0.68923 0.9424 0.0
H1332 H 0.99 0.77744 0.94073 0.0
H1333 H 0.01137 0.61928 0.92843 0.0
H1334 H 0.9139 0.79334 0.92427 0.0
H1335 H 0.93715 0.63504 0.91215 0.0
H1336 H 0.83998 0.67579 0.87896 0.0
H1337 H 0.92672 0.69031 0.89272 0.0
H1338 H 0.80269 0.75285 0.92008 0.0
H1339 H 0.71544 0.73923 0.90604 0.0
C1340 C 0.97921 0.74654 0.9344 0.0
C1341 C 0.0061 0.69708 0.93586 0.0
C1342 C 0.93568 0.75553 0.92506 0.0
C1343 C 0.92005 0.71553 0.91691 0.0
C1344 C 0.9489 0.66685 0.91817 0.0
C1345 C 0.99108 0.65768 0.92756 0.0
C1346 C 0.83163 0.69417 0.88776 0.0
C1347 C 0.7714 0.70581 0.89158 0.0
C1348 C 0.88112 0.70248 0.89562 0.0
C1349 C 0.87116 0.72181 0.90752 0.0
C1350 C 0.81155 0.73807 0.91092 0.0
C1351 C 0.76174 0.73019 0.90294 0.0
H1352 H 0.22254 0.67918 0.40064 0.0
H1353 H 0.28858 0.52167 0.39633 0.0
H1354 H 0.29301 0.69063 0.41786 0.0
H1355 H 0.35978 0.53367 0.41325 0.0
H1356 H 0.45648 0.55587 0.44959 0.0
H1357 H 0.37127 0.54441 0.43516 0.0
H1358 H 0.40125 0.7004 0.42088 0.0
H1359 H 0.48408 0.71232 0.43551 0.0
C1360 C 0.25195 0.64697 0.40333 0.0
C1361 C 0.24984 0.5996 0.39698 0.0
C1362 C 0.29259 0.6536 0.41321 0.0
C1363 C 0.33233 0.6131 0.41697 0.0
C1364 C 0.32932 0.56548 0.41077 0.0
C1365 C 0.28868 0.55879 0.40094 0.0
C1366 C 0.4439 0.58798 0.44356 0.0
C1367 C 0.47733 0.63485 0.4437 0.0
C1368 C 0.39552 0.58129 0.43517 0.0
C1369 C 0.37947 0.62139 0.42676 0.0
C1370 C 0.41159 0.66884 0.42726 0.0
C1371 C 0.4597 0.67546 0.43561 0.0
H1372 H 0.76558 0.70631 0.43098 0.0
H1373 H 0.74304 0.54026 0.43623 0.0
H1374 H 0.84115 0.69168 0.41494 0.0
H1375 H 0.81874 0.52551 0.41972 0.0
H1376 H 0.01171 0.5244 0.4006 0.0
H1377 H 0.92757 0.5331 0.41538 0.0
H1378 H 0.85702 0.66395 0.39437 0.0
H1379 H 0.94208 0.65581 0.37967 0.0
C1380 C 0.77624 0.66642 0.42867 0.0
C1381 C 0.74784 0.62446 0.43505 0.0
C1382 C 0.81956 0.65806 0.41929 0.0
C1383 C 0.83631 0.60741 0.41588 0.0
C1384 C 0.80753 0.56517 0.42213 0.0
C1385 C 0.76372 0.57358 0.43156 0.0
C1386 C 0.97814 0.55492 0.39905 0.0
C1387 C 0.98451 0.58984 0.38895 0.0
C1388 C 0.92938 0.55966 0.40754 0.0
C1389 C 0.88529 0.59944 0.40621 0.0
C1390 C 0.89057 0.63338 0.39588 0.0
C1391 C 0.93942 0.62866 0.3874 0.0
H1392 H 0.55621 0.27286 0.19344 0.0
H1393 H 0.49183 0.40236 0.17128 0.0
H1394 H 0.64126 0.25927 0.17867 0.0
H1395 H 0.57496 0.38822 0.15647 0.0
H1396 H 0.70779 0.34041 0.12805 0.0
H1397 H 0.61823 0.32218 0.14125 0.0
H1398 H 0.73576 0.32068 0.17331 0.0
H1399 H 0.82557 0.33908 0.15998 0.0
C1400 C 0.55914 0.29718 0.18521 0.0
C1401 C 0.51755 0.33847 0.18341 0.0
C1402 C 0.6079 0.28971 0.17684 0.0
C1403 C 0.61461 0.32261 0.16641 0.0
C1404 C 0.57059 0.36182 0.16432 0.0
C1405 C 0.52305 0.37 0.17279 0.0
C1406 C 0.71459 0.33439 0.13788 0.0
C1407 C 0.77316 0.34086 0.14306 0.0
C1408 C 0.66345 0.32419 0.14542 0.0
C1409 C 0.66998 0.32042 0.15831 0.0
C1410 C 0.7295 0.3229 0.1634 0.0
C1411 C 0.78081 0.33341 0.15581 0.0
H1412 H 0.23301 0.31071 0.19203 0.0
H1413 H 0.27345 0.47263 0.18421 0.0
H1414 H 0.15646 0.31171 0.17531 0.0
H1415 H 0.20074 0.47287 0.16751 0.0
H1416 H 0.02256 0.48051 0.14738 0.0
H1417 H 0.09538 0.47304 0.164 0.0
H1418 H 0.14244 0.31759 0.15255 0.0
H1419 H 0.06577 0.3243 0.1359 0.0
C1420 C 0.22528 0.34655 0.18689 0.0
C1421 C 0.25948 0.39164 0.18961 0.0
C1422 C 0.18207 0.34693 0.17716 0.0
C1423 C 0.17196 0.39242 0.16998 0.0
C1424 C 0.20589 0.43727 0.17288 0.0
C1425 C 0.24827 0.437 0.18252 0.0
C1426 C 0.04842 0.4446 0.14825 0.0
C1427 C 0.03799 0.40309 0.14016 0.0
C1428 C 0.09084 0.44041 0.15785 0.0
C1429 C 0.12558 0.3948 0.1597 0.0
C1430 C 0.11623 0.35321 0.15151 0.0
C1431 C 0.07298 0.35734 0.14183 0.0
H1432 H 0.56104 0.36068 0.62767 0.0
H1433 H 0.43769 0.33296 0.65843 0.0
H1434 H 0.64944 0.34263 0.64087 0.0
H1435 H 0.52646 0.31691 0.67193 0.0
H1436 H 0.70041 0.28452 0.69354 0.0
H1437 H 0.62101 0.26802 0.67798 0.0
H1438 H 0.6887 0.39938 0.65647 0.0
H1439 H 0.76726 0.4149 0.67181 0.0
C1440 C 0.55311 0.34988 0.63727 0.0
C1441 C 0.4932 0.34884 0.64216 0.0
C1442 C 0.60354 0.33964 0.64482 0.0
C1443 C 0.59505 0.32937 0.6575 0.0
C1444 C 0.53454 0.32444 0.66219 0.0
C1445 C 0.48379 0.33392 0.65453 0.0
C1446 C 0.69929 0.30849 0.68527 0.0
C1447 C 0.73973 0.35086 0.68383 0.0
C1448 C 0.65356 0.29949 0.67644 0.0
C1449 C 0.64844 0.33241 0.66599 0.0
C1450 C 0.69171 0.37271 0.66427 0.0
C1451 C 0.73659 0.38188 0.6731 0.0
H1452 H 0.16777 0.33868 0.63175 0.0
H1453 H 0.27433 0.43941 0.65509 0.0
H1454 H 0.09118 0.32809 0.64827 0.0
H1455 H 0.19771 0.42904 0.6715 0.0
H1456 H 0.0687 0.36891 0.70254 0.0
H1457 H 0.15063 0.36577 0.68669 0.0
H1458 H 0.0137 0.38322 0.65815 0.0
H1459 H 0.93315 0.38639 0.67378 0.0
C1460 C 0.17499 0.3586 0.64037 0.0
C1461 C 0.22727 0.39028 0.64196 0.0
C1462 C 0.13097 0.35254 0.64987 0.0
C1463 C 0.13815 0.3776 0.66129 0.0
C1464 C 0.19089 0.40858 0.66294 0.0
C1465 C 0.23457 0.41501 0.65342 0.0
C1466 C 0.0563 0.3711 0.69287 0.0
C1467 C 0.99442 0.37816 0.68945 0.0
C1468 C 0.10317 0.36979 0.68378 0.0
C1469 C 0.08893 0.37446 0.67109 0.0
C1470 C 0.02667 0.37905 0.66776 0.0
C1471 C 0.98037 0.38116 0.67677 0.0
H1472 H 0.31055 0.40647 0.54871 0.0
H1473 H 0.14719 0.33991 0.56506 0.0
H1474 H 0.29978 0.34829 0.53093 0.0
H1475 H 0.13497 0.28324 0.54742 0.0
H1476 H 0.19791 0.13348 0.52776 0.0
H1477 H 0.20955 0.20354 0.54277 0.0
H1478 H 0.22786 0.31573 0.513 0.0
H1479 H 0.21336 0.24652 0.49829 0.0
C1480 C 0.27179 0.3803 0.54838 0.0
C1481 C 0.23309 0.37457 0.55874 0.0
C1482 C 0.26546 0.3469 0.53823 0.0
C1483 C 0.21874 0.30866 0.53821 0.0
C1484 C 0.17323 0.31041 0.54746 0.0
C1485 C 0.17933 0.34415 0.55741 0.0
C1486 C 0.20531 0.17294 0.52441 0.0
C1487 C 0.20359 0.18419 0.51166 0.0
C1488 C 0.21148 0.21319 0.53301 0.0
C1489 C 0.2183 0.26552 0.52907 0.0
C1490 C 0.22223 0.27609 0.51638 0.0
C1491 C 0.2145 0.23606 0.50786 0.0
H1492 H 0.05271 0.95242 0.56679 0.0
H1493 H 0.89393 0.90545 0.54636 0.0
H1494 H 0.06665 0.02688 0.55347 0.0
H1495 H 0.90794 0.9796 0.53228 0.0
H1496 H 0.90242 0.1345 0.51415 0.0
H1497 H 0.89144 0.06438 0.52924 0.0
H1498 H 0.08197 0.08673 0.53969 0.0
H1499 H 0.0879 0.16036 0.52567 0.0
C1500 C 0.02212 0.95661 0.55896 0.0
C1501 C 0.9688 0.92522 0.55832 0.0
C1502 C 0.0292 1.00088 0.55134 0.0
C1503 C 0.98553 1.01329 0.54214 0.0
C1504 C 0.93977 0.97512 0.53987 0.0
C1505 C 0.93206 0.93149 0.5478 0.0
C1506 C 0.94065 0.12655 0.52029 0.0
C1507 C 0.9984 0.15012 0.51791 0.0
C1508 C 0.93549 0.08397 0.52857 0.0
C1509 C 0.98742 0.06506 0.53508 0.0
C1510 C 0.04091 0.09675 0.5346 0.0
C1511 C 0.04466 0.14025 0.52659 0.0
H1512 H 0.31646 0.99437 0.75708 0.0
H1513 H 0.22312 0.87402 0.77787 0.0
H1514 H 0.29623 0.05637 0.77304 0.0
H1515 H 0.20274 0.93675 0.79442 0.0
H1516 H 0.2345 0.05046 0.8264 0.0
H1517 H 0.25147 0.98714 0.81029 0.0
H1518 H 0.21973 0.10734 0.78279 0.0
H1519 H 0.20509 0.17087 0.7991 0.0
C1520 C 0.28926 0.98152 0.76484 0.0
C1521 C 0.26883 0.92965 0.76575 0.0
C1522 C 0.2782 0.01727 0.7742 0.0
C1523 C 0.24678 1.00242 0.78505 0.0
C1524 C 0.2271 0.94998 0.7862 0.0
C1525 C 0.23827 0.91398 0.77668 0.0
C1526 C 0.2325 0.06368 0.81698 0.0
C1527 C 0.21927 0.11618 0.81423 0.0
C1528 C 0.24108 0.02697 0.80764 0.0
C1529 C 0.23668 0.04151 0.79512 0.0
C1530 C 0.22424 0.09434 0.79229 0.0
C1531 C 0.2158 0.13103 0.80169 0.0
H1532 H 0.0864 0.15938 0.79753 0.0
H1533 H 0.91909 0.18372 0.818 0.0
H1534 H 0.06208 0.23294 0.78413 0.0
H1535 H 0.89649 0.25978 0.80562 0.0
H1536 H 0.86461 0.39792 0.77943 0.0
H1537 H 0.87611 0.32141 0.79231 0.0
H1538 H 0.07112 0.31938 0.78358 0.0
H1539 H 0.05602 0.39241 0.76948 0.0
C1540 C 0.04278 0.17903 0.79885 0.0
C1541 C 0.00689 0.16774 0.80939 0.0
C1542 C 0.03011 0.22334 0.79152 0.0
C1543 C 0.98003 0.2565 0.79435 0.0
C1544 C 0.93706 0.23775 0.80321 0.0
C1545 C 0.94905 0.19239 0.81019 0.0
C1546 C 0.91031 0.3821 0.78055 0.0
C1547 C 0.9578 0.39834 0.7725 0.0
C1548 C 0.91704 0.33681 0.78786 0.0
C1549 C 0.97388 0.30997 0.78832 0.0
C1550 C 0.02515 0.33522 0.78273 0.0
C1551 C 0.01728 0.37939 0.77509 0.0
H1552 H 0.71825 0.742 0.50498 0.0
H1553 H 0.71012 0.62181 0.53281 0.0
H1554 H 0.73043 0.80747 0.5203 0.0
H1555 H 0.72569 0.68756 0.54871 0.0
H1556 H 0.69946 0.81949 0.57588 0.0
H1557 H 0.6834 0.75457 0.55999 0.0
H1558 H 0.78488 0.85214 0.5341 0.0
H1559 H 0.7955 0.91809 0.54997 0.0
C1560 C 0.7203 0.72925 0.51437 0.0
C1561 C 0.71234 0.67628 0.51738 0.0
C1562 C 0.72773 0.76729 0.52338 0.0
C1563 C 0.72892 0.75402 0.53601 0.0
C1564 C 0.72361 0.70037 0.53915 0.0
C1565 C 0.71532 0.6622 0.52999 0.0
C1566 C 0.71842 0.82668 0.56678 0.0
C1567 C 0.75303 0.87222 0.56448 0.0
C1568 C 0.70973 0.78913 0.55762 0.0
C1569 C 0.73505 0.79596 0.5457 0.0
C1570 C 0.76512 0.84399 0.54312 0.0
C1571 C 0.77258 0.88188 0.5523 0.0
H1572 H 0.76401 0.96272 0.2499 0.0
H1573 H 0.83739 0.87634 0.2809 0.0
H1574 H 0.7406 0.03563 0.26339 0.0
H1575 H 0.81734 0.95055 0.29423 0.0
H1576 H 0.84114 0.09877 0.31313 0.0
H1577 H 0.86241 0.03792 0.29664 0.0
H1578 H 0.6861 0.07406 0.28039 0.0
H1579 H 0.66804 0.13821 0.29664 0.0
C1580 C 0.77541 0.95917 0.25959 0.0
C1581 C 0.80616 0.9145 0.26414 0.0
C1582 C 0.76228 1.00135 0.26731 0.0
C1583 C 0.78049 1.00054 0.27974 0.0
C1584 C 0.80559 0.95386 0.28455 0.0
C1585 C 0.81702 0.9111 0.27691 0.0
C1586 C 0.80829 0.09607 0.30565 0.0
C1587 C 0.74974 0.11943 0.30682 0.0
C1588 C 0.81957 0.05953 0.29642 0.0
C1589 C 0.77386 0.04767 0.28773 0.0
C1590 C 0.72121 0.07987 0.2873 0.0
C1591 C 0.71041 0.1166 0.29662 0.0
H1592 H 0.1167 0.6442 0.30162 0.0
H1593 H 0.93016 0.67726 0.31244 0.0
H1594 H 0.11859 0.72066 0.28864 0.0
H1595 H 0.92877 0.75206 0.29879 0.0
H1596 H 0.93802 0.90508 0.27907 0.0
H1597 H 0.94148 0.83193 0.29348 0.0
H1598 H 0.12297 0.79379 0.27935 0.0
H1599 H 0.11667 0.86677 0.26534 0.0
C1600 C 0.07486 0.66676 0.30084 0.0
C1601 C 0.02442 0.65547 0.30863 0.0
C1602 C 0.07612 0.71245 0.2935 0.0
C1603 C 0.02562 0.74751 0.29324 0.0
C1604 C 0.97102 0.73004 0.29923 0.0
C1605 C 0.9705 0.68492 0.30674 0.0
C1606 C 0.97858 0.881 0.27928 0.0
C1607 C 0.02279 0.88699 0.26991 0.0
C1608 C 0.98027 0.83738 0.28731 0.0
C1609 C 0.0292 0.80078 0.28673 0.0
C1610 C 0.08136 0.81662 0.27967 0.0
C1611 C 0.07911 0.86084 0.27186 0.0
H1612 H 0.17829 0.89484 0.0656 0.0
H1613 H 0.35778 0.93715 0.0527 0.0
H1614 H 0.17308 0.82566 0.05074 0.0
H1615 H 0.35852 0.86459 1.03867 0.0
H1616 H 0.35129 0.72331 1.01443 0.0
H1617 H 0.35895 0.79613 1.02792 0.0
H1618 H 0.19232 0.74473 0.04672 0.0
H1619 H 0.18611 0.67213 1.03258 0.0
C1620 C 0.21659 0.89024 0.05924 0.0
C1621 C 0.27244 0.91657 0.06141 0.0
C1622 C 0.21516 0.84807 0.0511 0.0
C1623 C 0.26854 0.83342 0.04441 0.0
C1624 C 0.31782 0.86981 0.04427 0.0
C1625 C 0.31758 0.91268 0.05222 0.0
C1626 C 0.31757 0.72638 1.02182 0.0
C1627 C 0.26375 0.6956 1.02154 0.0
C1628 C 0.32052 0.77011 1.02942 0.0
C1629 C 0.27213 0.78159 1.03776 0.0
C1630 C 0.22717 0.742 1.0396 0.0
C1631 C 0.22405 0.69899 1.0317 0.0
H1632 H 0.01566 0.60003 1.00782 0.0
H1633 H 0.08468 0.7108 1.03357 0.0
H1634 H 0.00321 0.53537 1.0242 0.0
H1635 H 0.07473 0.64584 0.05022 0.0
H1636 H 0.00317 0.52924 0.07948 0.0
H1637 H 0.01558 0.59537 0.06363 0.0
H1638 H 0.05452 0.47606 1.037 0.0
H1639 H 0.04065 0.40922 0.0531 0.0
C1640 C 0.0287 0.61046 1.01699 0.0
C1641 C 0.05388 0.66004 1.01907 0.0
C1642 C 0.02214 0.573 1.0265 0.0
C1643 C 0.03994 0.58377 1.03869 0.0
C1644 C 0.0608 0.635 0.04103 0.0
C1645 C 0.06684 0.67262 1.03141 0.0
C1646 C 0.01604 0.51667 0.07038 0.0
C1647 C 0.02173 0.46309 0.06784 0.0
C1648 C 0.02294 0.55521 0.06112 0.0
C1649 C 0.03587 0.54208 0.0488 0.0
C1650 C 0.04341 0.48846 0.04626 0.0
C1651 C 0.03631 0.44974 0.05559 0.0
H1652 H 0.14243 0.53062 0.31846 0.0
H1653 H 0.28125 0.63778 0.30524 0.0
H1654 H 0.16314 0.47307 0.30162 0.0
H1655 H 0.30318 0.57912 0.28798 0.0
H1656 H 0.28919 0.48679 0.25241 0.0
H1657 H 0.26757 0.54469 0.26925 0.0
H1658 H 0.23048 0.41184 0.29301 0.0
H1659 H 0.2492 0.3536 0.27569 0.0
C1660 C 0.17856 0.54167 0.31212 0.0
C1661 C 0.21104 0.58872 0.31357 0.0
C1662 C 0.19051 0.50818 0.30229 0.0
C1663 C 0.23556 0.52028 0.29333 0.0
C1664 C 0.26774 0.56803 0.29458 0.0
C1665 C 0.25544 0.60184 0.30453 0.0
C1666 C 0.2743 0.46957 0.26103 0.0
C1667 C 0.26907 0.41497 0.26234 0.0
C1668 C 0.26334 0.50318 0.27091 0.0
C1669 C 0.24728 0.48372 0.28269 0.0
C1670 C 0.2417 0.42898 0.28409 0.0
C1671 C 0.2524 0.39523 0.2741 0.0
H1672 H 0.82212 0.17677 1.0168 0.0
H1673 H 0.65069 0.25869 1.01159 0.0
H1674 H 0.85708 0.24819 1.0301 0.0
H1675 H 0.68391 0.32694 1.02437 0.0
H1676 H 0.73788 0.40855 0.06059 0.0
H1677 H 0.70284 0.34823 0.04506 0.0
H1678 H 0.88693 0.34184 1.02979 0.0
H1679 H 0.92166 0.4023 0.04553 0.0
C1680 C 0.79107 0.2087 1.01869 0.0
C1681 C 0.73198 0.20964 1.01337 0.0
C1682 C 0.81141 0.25018 1.02615 0.0
C1683 C 0.7731 0.29363 1.02843 0.0
C1684 C 0.71435 0.29397 1.02319 0.0
C1685 C 0.69461 0.25327 1.01581 0.0
C1686 C 0.76998 0.39735 0.0534 0.0
C1687 C 0.83266 0.41039 0.0544 0.0
C1688 C 0.75031 0.36127 0.04463 0.0
C1689 C 0.79259 0.33818 1.0364 0.0
C1690 C 0.85344 0.35721 1.03623 0.0
C1691 C 0.87288 0.39362 0.04498 0.0
H1692 H 0.73432 0.55711 0.8263 0.0
H1693 H 0.68527 0.67345 0.79909 0.0
H1694 H 0.7549 0.49501 0.81004 0.0
H1695 H 0.70156 0.6108 0.7828 0.0
H1696 H 0.78416 0.50258 0.75467 0.0
H1697 H 0.76615 0.56433 0.77074 0.0
H1698 H 0.71485 0.43834 0.79562 0.0
H1699 H 0.73588 0.37584 0.7792 0.0
C1700 C 0.72825 0.56971 0.81684 0.0
C1701 C 0.70748 0.62056 0.81415 0.0
C1702 C 0.73902 0.53351 0.80742 0.0
C1703 C 0.72912 0.54669 0.79489 0.0
C1704 C 0.7106 0.59838 0.7922 0.0
C1705 C 0.70084 0.63471 0.80162 0.0
C1706 C 0.76743 0.48779 0.76338 0.0
C1707 C 0.76032 0.43388 0.76536 0.0
C1708 C 0.75715 0.52368 0.7728 0.0
C1709 C 0.73855 0.50734 0.78472 0.0
C1710 C 0.73 0.45316 0.78671 0.0
C1711 C 0.74111 0.41705 0.7772 0.0
H1712 H 0.62628 0.15699 1.02941 0.0
H1713 H 0.43971 0.12808 1.01791 0.0
H1714 H 0.6144 0.09222 0.04604 0.0
H1715 H 0.42746 0.06373 1.0345 0.0
H1716 H 0.45492 0.90134 0.05026 0.0
H1717 H 0.47378 0.97441 1.03602 0.0
H1718 H 0.56375 0.05824 0.06503 0.0
H1719 H 0.54152 0.98616 0.07948 0.0
C1720 C 0.58144 0.13928 1.03088 0.0
C1721 C 0.53397 0.14785 1.02227 0.0
C1722 C 0.57505 0.10109 0.04027 0.0
C1723 C 0.52085 0.07096 0.04127 0.0
C1724 C 0.47067 0.08476 1.03373 0.0
C1725 C 0.47697 0.123 1.02444 0.0
C1726 C 0.47807 0.93556 0.05366 0.0
C1727 C 0.49192 0.93963 0.06627 0.0
C1728 C 0.48888 0.97759 0.04549 0.0
C1729 C 0.51689 0.02377 0.04959 0.0
C1730 C 0.53953 0.02438 0.06171 0.0
C1731 C 0.5269 0.98292 0.06998 0.0
H1732 H 0.57534 0.10262 0.29764 0.0
H1733 H 0.47165 0.16657 0.32762 0.0
H1734 H 0.55237 0.18036 0.28495 0.0
H1735 H 0.44775 0.24364 0.31522 0.0
H1736 H 0.5552 0.34025 0.26831 0.0
H1737 H 0.58033 0.27129 0.28314 0.0
H1738 H 0.39805 0.28439 0.29905 0.0
H1739 H 0.37422 0.35381 0.28439 0.0
C1740 C 0.5487 0.13384 0.30161 0.0
C1741 C 0.53048 0.13087 0.31406 0.0
C1742 C 0.53528 0.17848 0.29436 0.0
C1743 C 0.50101 0.22033 0.29927 0.0
C1744 C 0.47602 0.21365 0.31118 0.0
C1745 C 0.48997 0.16943 0.31835 0.0
C1746 C 0.52203 0.33094 0.27554 0.0
C1747 C 0.46248 0.35269 0.27507 0.0
C1748 C 0.53555 0.2897 0.28375 0.0
C1749 C 0.49037 0.27001 0.29198 0.0
C1750 C 0.43416 0.29744 0.2928 0.0
C1751 C 0.42082 0.33867 0.28456 0.0
H1752 H 0.57856 0.63926 0.80093 0.0
H1753 H 0.4028 0.66759 0.81766 0.0
H1754 H 0.56251 0.71118 0.78655 0.0
H1755 H 0.38635 0.74092 0.80412 0.0
H1756 H 0.3683 0.88213 0.77881 0.0
H1757 H 0.37574 0.80692 0.79213 0.0
H1758 H 0.56981 0.79454 0.78296 0.0
H1759 H 0.55872 0.86655 0.76854 0.0
C1760 C 0.53555 0.66017 0.80132 0.0
C1761 C 0.49489 0.65069 0.81121 0.0
C1762 C 0.52697 0.70337 0.79335 0.0
C1763 C 0.47579 0.73714 0.79478 0.0
C1764 C 0.42844 0.71932 0.80284 0.0
C1765 C 0.43683 0.67517 0.81048 0.0
C1766 C 0.41298 0.86413 0.77986 0.0
C1767 C 0.46157 0.87863 0.77189 0.0
C1768 C 0.41737 0.81938 0.78746 0.0
C1769 C 0.47247 0.78988 0.78808 0.0
C1770 C 0.52479 0.81211 0.78216 0.0
C1771 C 0.51942 0.85585 0.77426 0.0
H1772 H 0.40583 0.3723 0.54978 0.0
H1773 H 0.50708 0.44439 0.57897 0.0
H1774 H 0.4255 0.44857 0.53641 0.0
H1775 H 0.52891 0.51935 0.56567 0.0
H1776 H 0.59691 0.62642 0.53321 0.0
H1777 H 0.57627 0.55964 0.54883 0.0
H1778 H 0.39418 0.53796 0.53382 0.0
H1779 H 0.41639 0.604 0.51804 0.0
C1780 C 0.43157 0.40472 0.5534 0.0
C1781 C 0.45041 0.40391 0.56579 0.0
C1782 C 0.44298 0.44867 0.54575 0.0
C1783 C 0.47588 0.49222 0.55014 0.0
C1784 C 0.50127 0.48813 0.56203 0.0
C1785 C 0.48877 0.44479 0.5697 0.0
C1786 C 0.55124 0.60976 0.53368 0.0
C1787 C 0.50904 0.62035 0.52415 0.0
C1788 C 0.53963 0.57013 0.54252 0.0
C1789 C 0.48447 0.5409 0.54228 0.0
C1790 C 0.43836 0.55761 0.53401 0.0
C1791 C 0.4502 0.59722 0.52521 0.0
loop_
_geom_bond_atom_site_label_1
_geom_bond_atom_site_label_2
_geom_bond_distance
_geom_bond_site_symmetry_2
_ccdc_geom_bond_type
Fe0 O1 1.886 . S
Fe0 O4 1.715 . S
Fe0 O9 2.077 . S
Fe0 O14 1.935 . S
Fe0 O20 2.077 . S
Fe0 O29 1.935 . S
O1 Fe0 1.886 . S
O1 Fe3 1.715 . S
Fe2 O4 1.886 . S
Fe2 O5 1.715 . S
Fe2 O12 1.935 . S
Fe2 O13 2.077 . S
Fe2 O19 1.935 . S
Fe2 O28 2.077 . S
Fe3 O1 1.715 . S
Fe3 O6 1.886 . S
Fe3 O10 1.935 . S
Fe3 O15 2.077 . S
Fe3 O21 1.935 . S
Fe3 O25 2.077 . S
O4 Fe0 1.715 . S
O4 Fe2 1.886 . S
O5 Fe2 1.715 . S
O5 Fe7 1.886 . S
O6 Fe3 1.886 . S
O6 Fe7 1.715 . S
Fe7 O5 1.886 . S
Fe7 O6 1.715 . S
Fe7 O11 2.079 . S
Fe7 O16 1.935 . S
Fe7 O18 2.077 . S
Fe7 O26 1.935 . S
C8 O20 1.381 . S
C8 O21 1.421 . S
O9 Fe0 2.077 . S
O9 C22 1.381 . S
O10 Fe3 1.935 . S
O10 C22 1.421 . S
O11 Fe7 2.079 . S
O11 C27 1.381 1_545 S
O12 Fe2 1.935 . S
O12 C27 1.421 1_545 S
O13 Fe2 2.077 . S
O13 C17 1.381 . S
O14 Fe0 1.935 . S
O14 C17 1.421 . S
O15 Fe3 2.077 . S
O15 C23 1.381 . S
O16 Fe7 1.935 . S
O16 C23 1.421 . S
C17 O13 1.381 . S
C17 O14 1.421 . S
O18 Fe7 2.077 . S
O18 C30 1.381 . S
O19 Fe2 1.935 . S
O19 C30 1.421 . S
O20 Fe0 2.077 . S
O20 C8 1.381 . S
O21 Fe3 1.935 . S
O21 C8 1.421 . S
C22 O9 1.381 . S
C22 O10 1.421 . S
C23 O15 1.381 . S
C23 O16 1.421 . S
C24 O25 1.381 . S
C24 O26 1.421 . S
O25 Fe3 2.077 . S
O25 C24 1.381 . S
O26 Fe7 1.935 . S
O26 C24 1.421 . S
C27 O11 1.381 1_565 S
C27 O12 1.421 1_565 S
O28 Fe2 2.077 . S
O28 C31 1.381 . S
O29 Fe0 1.935 . S
O29 C31 1.421 . S
C30 O18 1.381 . S
C30 O19 1.421 . S
C31 O28 1.381 . S
C31 O29 1.421 . S
Fe32 O33 1.886 . S
Fe32 O36 1.715 . S
Fe32 O41 2.077 . S
Fe32 O46 1.935 . S
Fe32 O52 2.077 . S
Fe32 O61 1.935 . S
O33 Fe32 1.886 . S
O33 Fe35 1.715 . S
Fe34 O36 1.886 . S
Fe34 O37 1.715 . S
Fe34 O44 1.935 . S
Fe34 O45 2.077 . S
Fe34 O51 1.935 . S
Fe34 O60 2.077 . S
Fe35 O33 1.715 . S
Fe35 O38 1.886 . S
Fe35 O42 1.935 . S
Fe35 O47 2.077 . S
Fe35 O53 1.935 . S
Fe35 O57 2.077 . S
O36 Fe32 1.715 . S
O36 Fe34 1.886 . S
O37 Fe34 1.715 . S
O37 Fe39 1.886 . S
O38 Fe35 1.886 . S
O38 Fe39 1.715 . S
Fe39 O37 1.886 . S
Fe39 O38 1.715 . S
Fe39 O43 2.079 . S
Fe39 O48 1.935 . S
Fe39 O50 2.077 . S
Fe39 O58 1.935 . S
C40 O52 1.381 . S
C40 O53 1.421 . S
O41 Fe32 2.077 . S
O41 C54 1.381 . S
O42 Fe35 1.935 . S
O42 C54 1.421 . S
O43 Fe39 2.079 . S
O43 C59 1.381 1_545 S
O44 Fe34 1.935 . S
O44 C59 1.421 1_545 S
O45 Fe34 2.077 . S
O45 C49 1.381 . S
O46 Fe32 1.935 . S
O46 C49 1.421 . S
O47 Fe35 2.077 . S
O47 C55 1.381 . S
O48 Fe39 1.935 . S
O48 C55 1.421 . S
C49 O45 1.381 . S
C49 O46 1.421 . S
O50 Fe39 2.077 . S
O50 C62 1.381 . S
O51 Fe34 1.935 . S
O51 C62 1.421 . S
O52 Fe32 2.077 . S
O52 C40 1.381 . S
O53 Fe35 1.935 . S
O53 C40 1.421 . S
C54 O41 1.381 . S
C54 O42 1.421 . S
C55 O47 1.381 . S
C55 O48 1.421 . S
C56 O57 1.381 . S
C56 O58 1.421 . S
O57 Fe35 2.077 . S
O57 C56 1.381 . S
O58 Fe39 1.935 . S
O58 C56 1.421 . S
C59 O43 1.381 1_565 S
C59 O44 1.421 1_565 S
O60 Fe34 2.077 . S
O60 C63 1.381 . S
O61 Fe32 1.935 . S
O61 C63 1.421 . S
C62 O50 1.381 . S
C62 O51 1.421 . S
C63 O60 1.381 . S
C63 O61 1.421 . S
Fe64 O65 1.886 . S
Fe64 O68 1.715 . S
Fe64 O73 2.077 . S
Fe64 O78 1.935 . S
Fe64 O84 2.077 . S
Fe64 O93 1.935 . S
O65 Fe64 1.886 . S
O65 Fe67 1.715 . S
Fe66 O68 1.886 . S
Fe66 O69 1.715 . S
Fe66 O76 1.935 . S
Fe66 O77 2.077 . S
Fe66 O83 1.935 . S
Fe66 O92 2.079 . S
Fe67 O65 1.715 . S
Fe67 O70 1.886 . S
Fe67 O74 1.935 . S
Fe67 O79 2.077 . S
Fe67 O85 1.935 . S
Fe67 O89 2.077 . S
O68 Fe64 1.715 . S
O68 Fe66 1.886 . S
O69 Fe66 1.715 . S
O69 Fe71 1.886 . S
O70 Fe67 1.886 . S
O70 Fe71 1.715 . S
Fe71 O69 1.886 . S
Fe71 O70 1.715 . S
Fe71 O75 2.077 . S
Fe71 O80 1.935 . S
Fe71 O82 2.077 . S
Fe71 O90 1.935 . S
C72 O84 1.381 . S
C72 O85 1.421 . S
O73 Fe64 2.077 . S
O73 C86 1.381 . S
O74 Fe67 1.935 . S
O74 C86 1.421 . S
O75 Fe71 2.077 . S
O75 C91 1.381 . S
O76 Fe66 1.935 . S
O76 C91 1.421 . S
O77 Fe66 2.077 . S
O77 C81 1.381 . S
O78 Fe64 1.935 . S
O78 C81 1.421 . S
O79 Fe67 2.077 . S
O79 C87 1.381 . S
O80 Fe71 1.935 . S
O80 C87 1.421 . S
C81 O77 1.381 . S
C81 O78 1.421 . S
O82 Fe71 2.077 . S
O82 C94 1.381 . S
O83 Fe66 1.935 . S
O83 C94 1.421 . S
O84 Fe64 2.077 . S
O84 C72 1.381 . S
O85 Fe67 1.935 . S
O85 C72 1.421 . S
C86 O73 1.381 . S
C86 O74 1.421 . S
C87 O79 1.381 . S
C87 O80 1.421 . S
C88 O89 1.381 . S
C88 O90 1.421 . S
O89 Fe67 2.077 . S
O89 C88 1.381 . S
O90 Fe71 1.935 . S
O90 C88 1.421 . S
C91 O75 1.381 . S
C91 O76 1.421 . S
O92 Fe66 2.079 . S
O92 C95 1.381 1_565 S
O93 Fe64 1.935 . S
O93 C95 1.421 1_565 S
C94 O82 1.381 . S
C94 O83 1.421 . S
C95 O92 1.381 1_545 S
C95 O93 1.421 1_545 S
Fe96 O97 1.886 . S
Fe96 O100 1.715 . S
Fe96 O105 2.077 . S
Fe96 O110 1.935 . S
Fe96 O116 2.077 . S
Fe96 O125 1.935 . S
O97 Fe96 1.886 . S
O97 Fe99 1.715 . S
Fe98 O100 1.886 . S
Fe98 O101 1.715 . S
Fe98 O108 1.935 . S
Fe98 O109 2.079 . S
Fe98 O115 1.935 . S
Fe98 O124 2.077 . S
Fe99 O97 1.715 . S
Fe99 O102 1.886 . S
Fe99 O106 1.935 . S
Fe99 O111 2.077 . S
Fe99 O117 1.935 . S
Fe99 O121 2.077 . S
O100 Fe96 1.715 . S
O100 Fe98 1.886 . S
O101 Fe98 1.715 . S
O101 Fe103 1.886 . S
O102 Fe99 1.886 . S
O102 Fe103 1.715 . S
Fe103 O101 1.886 . S
Fe103 O102 1.715 . S
Fe103 O107 2.077 . S
Fe103 O112 1.935 . S
Fe103 O114 2.077 . S
Fe103 O122 1.935 . S
C104 O116 1.381 . S
C104 O117 1.421 . S
O105 Fe96 2.077 . S
O105 C118 1.381 . S
O106 Fe99 1.935 . S
O106 C118 1.421 . S
O107 Fe103 2.077 . S
O107 C123 1.381 . S
O108 Fe98 1.935 . S
O108 C123 1.421 . S
O109 Fe98 2.079 . S
O109 C113 1.381 1_565 S
O110 Fe96 1.935 . S
O110 C113 1.421 1_565 S
O111 Fe99 2.077 . S
O111 C119 1.381 . S
O112 Fe103 1.935 . S
O112 C119 1.421 . S
C113 O109 1.381 1_545 S
C113 O110 1.421 1_545 S
O114 Fe103 2.077 . S
O114 C126 1.381 . S
O115 Fe98 1.935 . S
O115 C126 1.421 . S
O116 Fe96 2.077 . S
O116 C104 1.381 . S
O117 Fe99 1.935 . S
O117 C104 1.421 . S
C118 O105 1.381 . S
C118 O106 1.421 . S
C119 O111 1.381 . S
C119 O112 1.421 . S
C120 O121 1.381 . S
C120 O122 1.421 . S
O121 Fe99 2.077 . S
O121 C120 1.381 . S
O122 Fe103 1.935 . S
O122 C120 1.421 . S
C123 O107 1.381 . S
C123 O108 1.421 . S
O124 Fe98 2.077 . S
O124 C127 1.381 . S
O125 Fe96 1.935 . S
O125 C127 1.421 . S
C126 O114 1.381 . S
C126 O115 1.421 . S
C127 O124 1.381 . S
C127 O125 1.421 . S
Fe128 O129 1.886 . S
Fe128 O132 1.715 . S
Fe128 O137 2.077 . S
Fe128 O142 1.935 . S
Fe128 O148 2.077 . S
Fe128 O157 1.935 . S
O129 Fe128 1.886 . S
O129 Fe131 1.715 . S
Fe130 O132 1.886 . S
Fe130 O133 1.715 . S
Fe130 O140 1.935 . S
Fe130 O141 2.077 . S
Fe130 O147 1.935 . S
Fe130 O156 2.077 . S
Fe131 O129 1.715 . S
Fe131 O134 1.886 . S
Fe131 O138 1.935 . S
Fe131 O143 2.077 . S
Fe131 O149 1.935 . S
Fe131 O153 2.077 . S
O132 Fe128 1.715 . S
O132 Fe130 1.886 . S
O133 Fe130 1.715 . S
O133 Fe135 1.886 . S
O134 Fe131 1.886 . S
O134 Fe135 1.715 . S
Fe135 O133 1.886 . S
Fe135 O134 1.715 . S
Fe135 O139 2.077 . S
Fe135 O144 1.935 . S
Fe135 O146 2.077 . S
Fe135 O154 1.935 . S
C136 O148 1.381 . S
C136 O149 1.421 . S
O137 Fe128 2.077 . S
O137 C150 1.381 . S
O138 Fe131 1.935 . S
O138 C150 1.421 . S
O139 Fe135 2.077 . S
O139 C155 1.381 . S
O140 Fe130 1.935 . S
O140 C155 1.421 . S
O141 Fe130 2.077 . S
O141 C145 1.381 . S
O142 Fe128 1.935 . S
O142 C145 1.421 . S
O143 Fe131 2.077 . S
O143 C151 1.381 . S
O144 Fe135 1.935 . S
O144 C151 1.421 . S
C145 O141 1.381 . S
C145 O142 1.421 . S
O146 Fe135 2.077 . S
O146 C158 1.381 . S
O147 Fe130 1.935 . S
O147 C158 1.421 . S
O148 Fe128 2.077 . S
O148 C136 1.381 . S
O149 Fe131 1.935 . S
O149 C136 1.421 . S
C150 O137 1.381 . S
C150 O138 1.421 . S
C151 O143 1.381 . S
C151 O144 1.421 . S
C152 O153 1.381 . S
C152 O154 1.421 . S
O153 Fe131 2.077 . S
O153 C152 1.381 . S
O154 Fe135 1.935 . S
O154 C152 1.421 . S
C155 O139 1.381 . S
C155 O140 1.421 . S
O156 Fe130 2.077 . S
O156 C159 1.381 . S
O157 Fe128 1.935 . S
O157 C159 1.421 . S
C158 O146 1.381 . S
C158 O147 1.421 . S
C159 O156 1.381 . S
C159 O157 1.421 . S
Fe160 O161 1.886 . S
Fe160 O164 1.715 . S
Fe160 O169 2.077 . S
Fe160 O174 1.935 . S
Fe160 O180 2.077 . S
Fe160 O189 1.935 . S
O161 Fe160 1.886 . S
O161 Fe163 1.715 . S
Fe162 O164 1.886 . S
Fe162 O165 1.715 . S
Fe162 O172 1.935 . S
Fe162 O173 2.077 . S
Fe162 O179 1.935 . S
Fe162 O188 2.077 . S
Fe163 O161 1.715 . S
Fe163 O166 1.886 . S
Fe163 O170 1.935 . S
Fe163 O175 2.077 . S
Fe163 O181 1.935 . S
Fe163 O185 2.077 . S
O164 Fe160 1.715 . S
O164 Fe162 1.886 . S
O165 Fe162 1.715 . S
O165 Fe167 1.886 . S
O166 Fe163 1.886 . S
O166 Fe167 1.715 . S
Fe167 O165 1.886 . S
Fe167 O166 1.715 . S
Fe167 O171 2.077 . S
Fe167 O176 1.935 . S
Fe167 O178 2.077 . S
Fe167 O186 1.935 . S
C168 O180 1.381 . S
C168 O181 1.421 . S
O169 Fe160 2.077 . S
O169 C182 1.381 . S
O170 Fe163 1.935 . S
O170 C182 1.421 . S
O171 Fe167 2.077 . S
O171 C187 1.381 . S
O172 Fe162 1.935 . S
O172 C187 1.421 . S
O173 Fe162 2.077 . S
O173 C177 1.381 . S
O174 Fe160 1.935 . S
O174 C177 1.421 . S
O175 Fe163 2.077 . S
O175 C183 1.381 . S
O176 Fe167 1.935 . S
O176 C183 1.421 . S
C177 O173 1.381 . S
C177 O174 1.421 . S
O178 Fe167 2.077 . S
O178 C190 1.381 . S
O179 Fe162 1.935 . S
O179 C190 1.421 . S
O180 Fe160 2.077 . S
O180 C168 1.381 . S
O181 Fe163 1.935 . S
O181 C168 1.421 . S
C182 O169 1.381 . S
C182 O170 1.421 . S
C183 O175 1.381 . S
C183 O176 1.421 . S
C184 O185 1.381 . S
C184 O186 1.421 . S
O185 Fe163 2.077 . S
O185 C184 1.381 . S
O186 Fe167 1.935 . S
O186 C184 1.421 . S
C187 O171 1.381 . S
C187 O172 1.421 . S
O188 Fe162 2.077 . S
O188 C191 1.381 . S
O189 Fe160 1.935 . S
O189 C191 1.421 . S
C190 O178 1.381 . S
C190 O179 1.421 . S
C191 O188 1.381 . S
C191 O189 1.421 . S
Fe192 O193 1.886 . S
Fe192 O196 1.715 . S
Fe192 O201 2.077 . S
Fe192 O206 1.935 . S
Fe192 O212 2.077 . S
Fe192 O221 1.935 . S
O193 Fe192 1.886 . S
O193 Fe195 1.715 . S
Fe194 O196 1.886 . S
Fe194 O197 1.715 . S
Fe194 O204 1.935 . S
Fe194 O205 2.077 . S
Fe194 O211 1.935 . S
Fe194 O220 2.077 . S
Fe195 O193 1.715 . S
Fe195 O198 1.886 . S
Fe195 O202 1.935 . S
Fe195 O207 2.077 . S
Fe195 O213 1.935 . S
Fe195 O217 2.077 . S
O196 Fe192 1.715 . S
O196 Fe194 1.886 . S
O197 Fe194 1.715 . S
O197 Fe199 1.886 . S
O198 Fe195 1.886 . S
O198 Fe199 1.715 . S
Fe199 O197 1.886 . S
Fe199 O198 1.715 . S
Fe199 O203 2.077 . S
Fe199 O208 1.935 . S
Fe199 O210 2.077 . S
Fe199 O218 1.935 . S
C200 O212 1.381 . S
C200 O213 1.421 . S
O201 Fe192 2.077 . S
O201 C214 1.381 . S
O202 Fe195 1.935 . S
O202 C214 1.421 . S
O203 Fe199 2.077 . S
O203 C219 1.381 . S
O204 Fe194 1.935 . S
O204 C219 1.421 . S
O205 Fe194 2.077 . S
O205 C209 1.381 . S
O206 Fe192 1.935 . S
O206 C209 1.421 . S
O207 Fe195 2.077 . S
O207 C215 1.381 . S
O208 Fe199 1.935 . S
O208 C215 1.421 . S
C209 O205 1.381 . S
C209 O206 1.421 . S
O210 Fe199 2.077 . S
O210 C222 1.381 . S
O211 Fe194 1.935 . S
O211 C222 1.421 . S
O212 Fe192 2.077 . S
O212 C200 1.381 . S
O213 Fe195 1.935 . S
O213 C200 1.421 . S
C214 O201 1.381 . S
C214 O202 1.421 . S
C215 O207 1.381 . S
C215 O208 1.421 . S
C216 O217 1.381 . S
C216 O218 1.421 . S
O217 Fe195 2.077 . S
O217 C216 1.381 . S
O218 Fe199 1.935 . S
O218 C216 1.421 . S
C219 O203 1.381 . S
C219 O204 1.421 . S
O220 Fe194 2.077 . S
O220 C223 1.381 . S
O221 Fe192 1.935 . S
O221 C223 1.421 . S
C222 O210 1.381 . S
C222 O211 1.421 . S
C223 O220 1.381 . S
C223 O221 1.421 . S
Fe224 O225 1.886 . S
Fe224 O228 1.715 . S
Fe224 O233 2.077 . S
Fe224 O238 1.935 . S
Fe224 O244 2.077 . S
Fe224 O253 1.935 . S
O225 Fe224 1.886 . S
O225 Fe227 1.715 . S
Fe226 O228 1.886 . S
Fe226 O229 1.715 . S
Fe226 O236 1.935 . S
Fe226 O237 2.077 . S
Fe226 O243 1.935 . S
Fe226 O252 2.077 . S
Fe227 O225 1.715 . S
Fe227 O230 1.886 . S
Fe227 O234 1.935 . S
Fe227 O239 2.077 . S
Fe227 O245 1.935 . S
Fe227 O249 2.077 . S
O228 Fe224 1.715 . S
O228 Fe226 1.886 . S
O229 Fe226 1.715 . S
O229 Fe231 1.886 . S
O230 Fe227 1.886 . S
O230 Fe231 1.715 . S
Fe231 O229 1.886 . S
Fe231 O230 1.715 . S
Fe231 O235 2.077 . S
Fe231 O240 1.935 . S
Fe231 O242 2.077 . S
Fe231 O250 1.935 . S
C232 O244 1.381 . S
C232 O245 1.421 . S
O233 Fe224 2.077 . S
O233 C246 1.381 . S
O234 Fe227 1.935 . S
O234 C246 1.421 . S
O235 Fe231 2.077 . S
O235 C251 1.381 . S
O236 Fe226 1.935 . S
O236 C251 1.421 . S
O237 Fe226 2.077 . S
O237 C241 1.381 . S
O238 Fe224 1.935 . S
O238 C241 1.421 . S
O239 Fe227 2.077 . S
O239 C247 1.381 . S
O240 Fe231 1.935 . S
O240 C247 1.421 . S
C241 O237 1.381 . S
C241 O238 1.421 . S
O242 Fe231 2.077 . S
O242 C254 1.381 . S
O243 Fe226 1.935 . S
O243 C254 1.421 . S
O244 Fe224 2.077 . S
O244 C232 1.381 . S
O245 Fe227 1.935 . S
O245 C232 1.421 . S
C246 O233 1.381 . S
C246 O234 1.421 . S
C247 O239 1.381 . S
C247 O240 1.421 . S
C248 O249 1.381 . S
C248 O250 1.421 . S
O249 Fe227 2.077 . S
O249 C248 1.381 . S
O250 Fe231 1.935 . S
O250 C248 1.421 . S
C251 O235 1.381 . S
C251 O236 1.421 . S
O252 Fe226 2.077 . S
O252 C255 1.381 . S
O253 Fe224 1.935 . S
O253 C255 1.421 . S
C254 O242 1.381 . S
C254 O243 1.421 . S
C255 O252 1.381 . S
C255 O253 1.421 . S
Fe256 O257 1.886 . S
Fe256 O260 1.715 . S
Fe256 O265 2.077 . S
Fe256 O270 1.935 . S
Fe256 O276 2.077 . S
Fe256 O285 1.935 . S
O257 Fe256 1.886 . S
O257 Fe259 1.715 . S
Fe258 O260 1.886 . S
Fe258 O261 1.715 . S
Fe258 O268 1.935 . S
Fe258 O269 2.077 . S
Fe258 O275 1.935 . S
Fe258 O284 2.077 . S
Fe259 O257 1.715 . S
Fe259 O262 1.886 . S
Fe259 O266 1.935 . S
Fe259 O271 2.077 . S
Fe259 O277 1.935 . S
Fe259 O281 2.077 . S
O260 Fe256 1.715 . S
O260 Fe258 1.886 . S
O261 Fe258 1.715 . S
O261 Fe263 1.886 . S
O262 Fe259 1.886 . S
O262 Fe263 1.715 . S
Fe263 O261 1.886 . S
Fe263 O262 1.715 . S
Fe263 O267 2.079 . S
Fe263 O272 1.935 . S
Fe263 O274 2.077 . S
Fe263 O282 1.935 . S
C264 O276 1.381 . S
C264 O277 1.421 . S
O265 Fe256 2.077 . S
O265 C278 1.381 . S
O266 Fe259 1.935 . S
O266 C278 1.421 . S
O267 Fe263 2.079 . S
O267 C283 1.381 1_545 S
O268 Fe258 1.935 . S
O268 C283 1.421 1_545 S
O269 Fe258 2.077 . S
O269 C273 1.381 . S
O270 Fe256 1.935 . S
O270 C273 1.421 . S
O271 Fe259 2.077 . S
O271 C279 1.381 . S
O272 Fe263 1.935 . S
O272 C279 1.421 . S
C273 O269 1.381 . S
C273 O270 1.421 . S
O274 Fe263 2.077 . S
O274 C286 1.381 . S
O275 Fe258 1.935 . S
O275 C286 1.421 . S
O276 Fe256 2.077 . S
O276 C264 1.381 . S
O277 Fe259 1.935 . S
O277 C264 1.421 . S
C278 O265 1.381 . S
C278 O266 1.421 . S
C279 O271 1.381 . S
C279 O272 1.421 . S
C280 O281 1.381 . S
C280 O282 1.421 . S
O281 Fe259 2.077 . S
O281 C280 1.381 . S
O282 Fe263 1.935 . S
O282 C280 1.421 . S
C283 O267 1.381 1_565 S
C283 O268 1.421 1_565 S
O284 Fe258 2.077 . S
O284 C287 1.381 . S
O285 Fe256 1.935 . S
O285 C287 1.421 . S
C286 O274 1.381 . S
C286 O275 1.421 . S
C287 O284 1.381 . S
C287 O285 1.421 . S
Fe288 O289 1.886 . S
Fe288 O292 1.715 . S
Fe288 O297 2.077 . S
Fe288 O302 1.935 . S
Fe288 O308 2.077 . S
Fe288 O317 1.935 . S
O289 Fe288 1.886 . S
O289 Fe291 1.715 . S
Fe290 O292 1.886 . S
Fe290 O293 1.715 . S
Fe290 O300 1.935 . S
Fe290 O301 2.077 . S
Fe290 O307 1.935 . S
Fe290 O316 2.077 . S
Fe291 O289 1.715 . S
Fe291 O294 1.886 . S
Fe291 O298 1.935 . S
Fe291 O303 2.077 . S
Fe291 O309 1.935 . S
Fe291 O313 2.077 . S
O292 Fe288 1.715 . S
O292 Fe290 1.886 . S
O293 Fe290 1.715 . S
O293 Fe295 1.886 . S
O294 Fe291 1.886 . S
O294 Fe295 1.715 . S
Fe295 O293 1.886 . S
Fe295 O294 1.715 . S
Fe295 O299 2.079 . S
Fe295 O304 1.935 . S
Fe295 O306 2.077 . S
Fe295 O314 1.935 . S
C296 O308 1.381 . S
C296 O309 1.421 . S
O297 Fe288 2.077 . S
O297 C310 1.381 . S
O298 Fe291 1.935 . S
O298 C310 1.421 . S
O299 Fe295 2.079 . S
O299 C315 1.381 1_545 S
O300 Fe290 1.935 . S
O300 C315 1.421 1_545 S
O301 Fe290 2.077 . S
O301 C305 1.381 . S
O302 Fe288 1.935 . S
O302 C305 1.421 . S
O303 Fe291 2.077 . S
O303 C311 1.381 . S
O304 Fe295 1.935 . S
O304 C311 1.421 . S
C305 O301 1.381 . S
C305 O302 1.421 . S
O306 Fe295 2.077 . S
O306 C318 1.381 . S
O307 Fe290 1.935 . S
O307 C318 1.421 . S
O308 Fe288 2.077 . S
O308 C296 1.381 . S
O309 Fe291 1.935 . S
O309 C296 1.421 . S
C310 O297 1.381 . S
C310 O298 1.421 . S
C311 O303 1.381 . S
C311 O304 1.421 . S
C312 O313 1.381 . S
C312 O314 1.421 . S
O313 Fe291 2.077 . S
O313 C312 1.381 . S
O314 Fe295 1.935 . S
O314 C312 1.421 . S
C315 O299 1.381 1_565 S
C315 O300 1.421 1_565 S
O316 Fe290 2.077 . S
O316 C319 1.381 . S
O317 Fe288 1.935 . S
O317 C319 1.421 . S
C318 O306 1.381 . S
C318 O307 1.421 . S
C319 O316 1.381 . S
C319 O317 1.421 . S
Fe320 O321 1.886 . S
Fe320 O324 1.715 . S
Fe320 O329 2.077 . S
Fe320 O334 1.935 . S
Fe320 O340 2.077 . S
Fe320 O349 1.935 . S
O321 Fe320 1.886 . S
O321 Fe323 1.715 . S
Fe322 O324 1.886 . S
Fe322 O325 1.715 . S
Fe322 O332 1.935 . S
Fe322 O333 2.077 . S
Fe322 O339 1.935 . S
Fe322 O348 2.079 . S
Fe323 O321 1.715 . S
Fe323 O326 1.886 . S
Fe323 O330 1.935 . S
Fe323 O335 2.077 . S
Fe323 O341 1.935 . S
Fe323 O345 2.077 . S
O324 Fe320 1.715 . S
O324 Fe322 1.886 . S
O325 Fe322 1.715 . S
O325 Fe327 1.886 . S
O326 Fe323 1.886 . S
O326 Fe327 1.715 . S
Fe327 O325 1.886 . S
Fe327 O326 1.715 . S
Fe327 O331 2.077 . S
Fe327 O336 1.935 . S
Fe327 O338 2.077 . S
Fe327 O346 1.935 . S
C328 O340 1.381 . S
C328 O341 1.421 . S
O329 Fe320 2.077 . S
O329 C342 1.381 . S
O330 Fe323 1.935 . S
O330 C342 1.421 . S
O331 Fe327 2.077 . S
O331 C347 1.381 . S
O332 Fe322 1.935 . S
O332 C347 1.421 . S
O333 Fe322 2.077 . S
O333 C337 1.381 . S
O334 Fe320 1.935 . S
O334 C337 1.421 . S
O335 Fe323 2.077 . S
O335 C343 1.381 . S
O336 Fe327 1.935 . S
O336 C343 1.421 . S
C337 O333 1.381 . S
C337 O334 1.421 . S
O338 Fe327 2.077 . S
O338 C350 1.381 . S
O339 Fe322 1.935 . S
O339 C350 1.421 . S
O340 Fe320 2.077 . S
O340 C328 1.381 . S
O341 Fe323 1.935 . S
O341 C328 1.421 . S
C342 O329 1.381 . S
C342 O330 1.421 . S
C343 O335 1.381 . S
C343 O336 1.421 . S
C344 O345 1.381 . S
C344 O346 1.421 . S
O345 Fe323 2.077 . S
O345 C344 1.381 . S
O346 Fe327 1.935 . S
O346 C344 1.421 . S
C347 O331 1.381 . S
C347 O332 1.421 . S
O348 Fe322 2.079 . S
O348 C351 1.381 1_565 S
O349 Fe320 1.935 . S
O349 C351 1.421 1_565 S
C350 O338 1.381 . S
C350 O339 1.421 . S
C351 O348 1.381 1_545 S
C351 O349 1.421 1_545 S
Fe352 O353 1.886 . S
Fe352 O356 1.715 . S
Fe352 O361 2.077 . S
Fe352 O366 1.935 . S
Fe352 O372 2.077 . S
Fe352 O381 1.935 . S
O353 Fe352 1.886 . S
O353 Fe355 1.715 . S
Fe354 O356 1.886 . S
Fe354 O357 1.715 . S
Fe354 O364 1.935 . S
Fe354 O365 2.079 . S
Fe354 O371 1.935 . S
Fe354 O380 2.077 . S
Fe355 O353 1.715 . S
Fe355 O358 1.886 . S
Fe355 O362 1.935 . S
Fe355 O367 2.077 . S
Fe355 O373 1.935 . S
Fe355 O377 2.077 . S
O356 Fe352 1.715 . S
O356 Fe354 1.886 . S
O357 Fe354 1.715 . S
O357 Fe359 1.886 . S
O358 Fe355 1.886 . S
O358 Fe359 1.715 . S
Fe359 O357 1.886 . S
Fe359 O358 1.715 . S
Fe359 O363 2.077 . S
Fe359 O368 1.935 . S
Fe359 O370 2.077 . S
Fe359 O378 1.935 . S
C360 O372 1.381 . S
C360 O373 1.421 . S
O361 Fe352 2.077 . S
O361 C374 1.381 . S
O362 Fe355 1.935 . S
O362 C374 1.421 . S
O363 Fe359 2.077 . S
O363 C379 1.381 . S
O364 Fe354 1.935 . S
O364 C379 1.421 . S
O365 Fe354 2.079 . S
O365 C369 1.381 1_565 S
O366 Fe352 1.935 . S
O366 C369 1.421 1_565 S
O367 Fe355 2.077 . S
O367 C375 1.381 . S
O368 Fe359 1.935 . S
O368 C375 1.421 . S
C369 O365 1.381 1_545 S
C369 O366 1.421 1_545 S
O370 Fe359 2.077 . S
O370 C382 1.381 . S
O371 Fe354 1.935 . S
O371 C382 1.421 . S
O372 Fe352 2.077 . S
O372 C360 1.381 . S
O373 Fe355 1.935 . S
O373 C360 1.421 . S
C374 O361 1.381 . S
C374 O362 1.421 . S
C375 O367 1.381 . S
C375 O368 1.421 . S
C376 O377 1.381 . S
C376 O378 1.421 . S
O377 Fe355 2.077 . S
O377 C376 1.381 . S
O378 Fe359 1.935 . S
O378 C376 1.421 . S
C379 O363 1.381 . S
C379 O364 1.421 . S
O380 Fe354 2.077 . S
O380 C383 1.381 . S
O381 Fe352 1.935 . S
O381 C383 1.421 . S
C382 O370 1.381 . S
C382 O371 1.421 . S
C383 O380 1.381 . S
C383 O381 1.421 . S
Fe384 O385 1.886 . S
Fe384 O388 1.715 . S
Fe384 O393 2.077 . S
Fe384 O398 1.935 . S
Fe384 O404 2.077 . S
Fe384 O413 1.935 . S
O385 Fe384 1.886 . S
O385 Fe387 1.715 . S
Fe386 O388 1.886 . S
Fe386 O389 1.715 . S
Fe386 O396 1.935 . S
Fe386 O397 2.077 . S
Fe386 O403 1.935 . S
Fe386 O412 2.077 . S
Fe387 O385 1.715 . S
Fe387 O390 1.886 . S
Fe387 O394 1.935 . S
Fe387 O399 2.077 . S
Fe387 O405 1.935 . S
Fe387 O409 2.077 . S
O388 Fe384 1.715 . S
O388 Fe386 1.886 . S
O389 Fe386 1.715 . S
O389 Fe391 1.886 . S
O390 Fe387 1.886 . S
O390 Fe391 1.715 . S
Fe391 O389 1.886 . S
Fe391 O390 1.715 . S
Fe391 O395 2.077 . S
Fe391 O400 1.935 . S
Fe391 O402 2.077 . S
Fe391 O410 1.935 . S
C392 O404 1.381 . S
C392 O405 1.421 . S
O393 Fe384 2.077 . S
O393 C406 1.381 . S
O394 Fe387 1.935 . S
O394 C406 1.421 . S
O395 Fe391 2.077 . S
O395 C411 1.381 . S
O396 Fe386 1.935 . S
O396 C411 1.421 . S
O397 Fe386 2.077 . S
O397 C401 1.381 . S
O398 Fe384 1.935 . S
O398 C401 1.421 . S
O399 Fe387 2.077 . S
O399 C407 1.381 . S
O400 Fe391 1.935 . S
O400 C407 1.421 . S
C401 O397 1.381 . S
C401 O398 1.421 . S
O402 Fe391 2.077 . S
O402 C414 1.381 . S
O403 Fe386 1.935 . S
O403 C414 1.421 . S
O404 Fe384 2.077 . S
O404 C392 1.381 . S
O405 Fe387 1.935 . S
O405 C392 1.421 . S
C406 O393 1.381 . S
C406 O394 1.421 . S
C407 O399 1.381 . S
C407 O400 1.421 . S
C408 O409 1.381 . S
C408 O410 1.421 . S
O409 Fe387 2.077 . S
O409 C408 1.381 . S
O410 Fe391 1.935 . S
O410 C408 1.421 . S
C411 O395 1.381 . S
C411 O396 1.421 . S
O412 Fe386 2.077 . S
O412 C415 1.381 . S
O413 Fe384 1.935 . S
O413 C415 1.421 . S
C414 O402 1.381 . S
C414 O403 1.421 . S
C415 O412 1.381 . S
C415 O413 1.421 . S
Fe416 O417 1.886 . S
Fe416 O420 1.715 . S
Fe416 O425 2.077 . S
Fe416 O430 1.935 . S
Fe416 O436 2.077 . S
Fe416 O445 1.935 . S
O417 Fe416 1.886 . S
O417 Fe419 1.715 . S
Fe418 O420 1.886 . S
Fe418 O421 1.715 . S
Fe418 O428 1.935 . S
Fe418 O429 2.077 . S
Fe418 O435 1.935 . S
Fe418 O444 2.077 . S
Fe419 O417 1.715 . S
Fe419 O422 1.886 . S
Fe419 O426 1.935 . S
Fe419 O431 2.077 . S
Fe419 O437 1.935 . S
Fe419 O441 2.077 . S
O420 Fe416 1.715 . S
O420 Fe418 1.886 . S
O421 Fe418 1.715 . S
O421 Fe423 1.886 . S
O422 Fe419 1.886 . S
O422 Fe423 1.715 . S
Fe423 O421 1.886 . S
Fe423 O422 1.715 . S
Fe423 O427 2.077 . S
Fe423 O432 1.935 . S
Fe423 O434 2.077 . S
Fe423 O442 1.935 . S
C424 O436 1.381 . S
C424 O437 1.421 . S
O425 Fe416 2.077 . S
O425 C438 1.381 . S
O426 Fe419 1.935 . S
O426 C438 1.421 . S
O427 Fe423 2.077 . S
O427 C443 1.381 . S
O428 Fe418 1.935 . S
O428 C443 1.421 . S
O429 Fe418 2.077 . S
O429 C433 1.381 . S
O430 Fe416 1.935 . S
O430 C433 1.421 . S
O431 Fe419 2.077 . S
O431 C439 1.381 . S
O432 Fe423 1.935 . S
O432 C439 1.421 . S
C433 O429 1.381 . S
C433 O430 1.421 . S
O434 Fe423 2.077 . S
O434 C446 1.381 . S
O435 Fe418 1.935 . S
O435 C446 1.421 . S
O436 Fe416 2.077 . S
O436 C424 1.381 . S
O437 Fe419 1.935 . S
O437 C424 1.421 . S
C438 O425 1.381 . S
C438 O426 1.421 . S
C439 O431 1.381 . S
C439 O432 1.421 . S
C440 O441 1.381 . S
C440 O442 1.421 . S
O441 Fe419 2.077 . S
O441 C440 1.381 . S
O442 Fe423 1.935 . S
O442 C440 1.421 . S
C443 O427 1.381 . S
C443 O428 1.421 . S
O444 Fe418 2.077 . S
O444 C447 1.381 . S
O445 Fe416 1.935 . S
O445 C447 1.421 . S
C446 O434 1.381 . S
C446 O435 1.421 . S
C447 O444 1.381 . S
C447 O445 1.421 . S
Fe448 O449 1.886 . S
Fe448 O452 1.715 . S
Fe448 O457 2.077 . S
Fe448 O462 1.935 . S
Fe448 O468 2.077 . S
Fe448 O477 1.935 . S
O449 Fe448 1.886 . S
O449 Fe451 1.715 . S
Fe450 O452 1.886 . S
Fe450 O453 1.715 . S
Fe450 O460 1.935 . S
Fe450 O461 2.077 . S
Fe450 O467 1.935 . S
Fe450 O476 2.077 . S
Fe451 O449 1.715 . S
Fe451 O454 1.886 . S
Fe451 O458 1.935 . S
Fe451 O463 2.077 . S
Fe451 O469 1.935 . S
Fe451 O473 2.077 . S
O452 Fe448 1.715 . S
O452 Fe450 1.886 . S
O453 Fe450 1.715 . S
O453 Fe455 1.886 . S
O454 Fe451 1.886 . S
O454 Fe455 1.715 . S
Fe455 O453 1.886 . S
Fe455 O454 1.715 . S
Fe455 O459 2.077 . S
Fe455 O464 1.935 . S
Fe455 O466 2.077 . S
Fe455 O474 1.935 . S
C456 O468 1.381 . S
C456 O469 1.421 . S
O457 Fe448 2.077 . S
O457 C470 1.381 . S
O458 Fe451 1.935 . S
O458 C470 1.421 . S
O459 Fe455 2.077 . S
O459 C475 1.381 . S
O460 Fe450 1.935 . S
O460 C475 1.421 . S
O461 Fe450 2.077 . S
O461 C465 1.381 . S
O462 Fe448 1.935 . S
O462 C465 1.421 . S
O463 Fe451 2.077 . S
O463 C471 1.381 . S
O464 Fe455 1.935 . S
O464 C471 1.421 . S
C465 O461 1.381 . S
C465 O462 1.421 . S
O466 Fe455 2.077 . S
O466 C478 1.381 . S
O467 Fe450 1.935 . S
O467 C478 1.421 . S
O468 Fe448 2.077 . S
O468 C456 1.381 . S
O469 Fe451 1.935 . S
O469 C456 1.421 . S
C470 O457 1.381 . S
C470 O458 1.421 . S
C471 O463 1.381 . S
C471 O464 1.421 . S
C472 O473 1.381 . S
C472 O474 1.421 . S
O473 Fe451 2.077 . S
O473 C472 1.381 . S
O474 Fe455 1.935 . S
O474 C472 1.421 . S
C475 O459 1.381 . S
C475 O460 1.421 . S
O476 Fe450 2.077 . S
O476 C479 1.381 . S
O477 Fe448 1.935 . S
O477 C479 1.421 . S
C478 O466 1.381 . S
C478 O467 1.421 . S
C479 O476 1.381 . S
C479 O477 1.421 . S
Fe480 O481 1.886 . S
Fe480 O484 1.715 . S
Fe480 O489 2.077 . S
Fe480 O494 1.935 . S
Fe480 O500 2.077 . S
Fe480 O509 1.935 . S
O481 Fe480 1.886 . S
O481 Fe483 1.715 . S
Fe482 O484 1.886 . S
Fe482 O485 1.715 . S
Fe482 O492 1.935 . S
Fe482 O493 2.077 . S
Fe482 O499 1.935 . S
Fe482 O508 2.077 . S
Fe483 O481 1.715 . S
Fe483 O486 1.886 . S
Fe483 O490 1.935 . S
Fe483 O495 2.077 . S
Fe483 O501 1.935 . S
Fe483 O505 2.077 . S
O484 Fe480 1.715 . S
O484 Fe482 1.886 . S
O485 Fe482 1.715 . S
O485 Fe487 1.886 . S
O486 Fe483 1.886 . S
O486 Fe487 1.715 . S
Fe487 O485 1.886 . S
Fe487 O486 1.715 . S
Fe487 O491 2.077 . S
Fe487 O496 1.935 . S
Fe487 O498 2.077 . S
Fe487 O506 1.935 . S
C488 O500 1.381 . S
C488 O501 1.421 . S
O489 Fe480 2.077 . S
O489 C502 1.381 . S
O490 Fe483 1.935 . S
O490 C502 1.421 . S
O491 Fe487 2.077 . S
O491 C507 1.381 . S
O492 Fe482 1.935 . S
O492 C507 1.421 . S
O493 Fe482 2.077 . S
O493 C497 1.381 . S
O494 Fe480 1.935 . S
O494 C497 1.421 . S
O495 Fe483 2.077 . S
O495 C503 1.381 . S
O496 Fe487 1.935 . S
O496 C503 1.421 . S
C497 O493 1.381 . S
C497 O494 1.421 . S
O498 Fe487 2.077 . S
O498 C510 1.381 . S
O499 Fe482 1.935 . S
O499 C510 1.421 . S
O500 Fe480 2.077 . S
O500 C488 1.381 . S
O501 Fe483 1.935 . S
O501 C488 1.421 . S
C502 O489 1.381 . S
C502 O490 1.421 . S
C503 O495 1.381 . S
C503 O496 1.421 . S
C504 O505 1.381 . S
C504 O506 1.421 . S
O505 Fe483 2.077 . S
O505 C504 1.381 . S
O506 Fe487 1.935 . S
O506 C504 1.421 . S
C507 O491 1.381 . S
C507 O492 1.421 . S
O508 Fe482 2.077 . S
O508 C511 1.381 . S
O509 Fe480 1.935 . S
O509 C511 1.421 . S
C510 O498 1.381 . S
C510 O499 1.421 . S
C511 O508 1.381 . S
C511 O509 1.421 . S
H512 C520 0.950 . S
H513 C525 0.950 . S
H514 C522 0.950 . S
H515 C524 0.950 . S
H516 C526 0.950 . S
H517 C528 0.950 . S
H518 C530 0.950 . S
H519 C531 0.950 . S
C520 H512 0.950 . S
C520 C521 1.386 . S
C520 C522 1.391 . S
C521 C520 1.386 . S
C521 C525 1.393 . S
C522 H514 0.950 . S
C522 C520 1.391 . S
C522 C523 1.400 . S
C523 C522 1.400 . S
C523 C524 1.398 . S
C523 C529 1.491 . S
C524 H515 0.950 . S
C524 C523 1.398 . S
C524 C525 1.391 . S
C525 H513 0.950 . S
C525 C521 1.393 . S
C525 C524 1.391 . S
C526 H516 0.950 . S
C526 C527 1.386 . S
C526 C528 1.391 . S
C527 C526 1.386 . S
C527 C531 1.393 . S
C528 H517 0.950 . S
C528 C526 1.391 . S
C528 C529 1.400 . S
C529 C523 1.491 . S
C529 C528 1.400 . S
C529 C530 1.398 . S
C530 H518 0.950 . S
C530 C529 1.398 . S
C530 C531 1.391 . S
C531 H519 0.950 . S
C531 C527 1.393 . S
C531 C530 1.391 . S
H532 C540 0.950 . S
H533 C545 0.948 1_455 S
H534 C542 0.950 . S
H535 C544 0.950 . S
H536 C546 0.950 . S
H537 C548 0.950 . S
H538 C550 0.950 . S
H539 C551 0.950 . S
C540 H532 0.950 . S
C540 C541 1.386 1_655 S
C540 C542 1.391 . S
C541 C540 1.386 1_455 S
C541 C545 1.393 1_455 S
C542 H534 0.950 . S
C542 C540 1.391 . S
C542 C543 1.400 . S
C543 C542 1.400 . S
C543 C544 1.398 . S
C543 C549 1.491 . S
C544 H535 0.950 . S
C544 C543 1.398 . S
C544 C545 1.393 . S
C545 H533 0.948 1_655 S
C545 C541 1.393 1_655 S
C545 C544 1.393 . S
C546 H536 0.950 . S
C546 C547 1.386 . S
C546 C548 1.391 . S
C547 C546 1.386 . S
C547 C551 1.393 . S
C548 H537 0.950 . S
C548 C546 1.391 . S
C548 C549 1.400 . S
C549 C543 1.491 . S
C549 C548 1.400 . S
C549 C550 1.398 . S
C550 H538 0.950 . S
C550 C549 1.398 . S
C550 C551 1.391 . S
C551 H539 0.950 . S
C551 C547 1.393 . S
C551 C550 1.391 . S
H552 C560 0.950 1_545 S
H553 C565 0.950 . S
H554 C562 0.950 . S
H555 C564 0.950 . S
H556 C566 0.950 . S
H557 C568 0.950 . S
H558 C570 0.950 . S
H559 C571 0.950 . S
C560 H552 0.950 1_565 S
C560 C561 1.386 . S
C560 C562 1.391 . S
C561 C560 1.386 . S
C561 C565 1.393 . S
C562 H554 0.950 . S
C562 C560 1.391 . S
C562 C563 1.400 . S
C563 C562 1.400 . S
C563 C564 1.398 . S
C563 C569 1.491 . S
C564 H555 0.950 . S
C564 C563 1.398 . S
C564 C565 1.391 . S
C565 H553 0.950 . S
C565 C561 1.393 . S
C565 C564 1.391 . S
C566 H556 0.950 . S
C566 C567 1.386 . S
C566 C568 1.391 . S
C567 C566 1.386 . S
C567 C571 1.393 . S
C568 H557 0.950 . S
C568 C566 1.391 . S
C568 C569 1.400 . S
C569 C563 1.491 . S
C569 C568 1.400 . S
C569 C570 1.398 . S
C570 H558 0.950 . S
C570 C569 1.398 . S
C570 C571 1.391 . S
C571 H559 0.950 . S
C571 C567 1.393 . S
C571 C570 1.391 . S
H572 C580 0.945 1_455 S
H573 C585 0.950 . S
H574 C582 0.950 . S
H575 C584 0.950 . S
H576 C586 0.950 . S
H577 C588 0.950 . S
H578 C590 0.950 . S
H579 C591 0.950 . S
C580 H572 0.945 1_655 S
C580 C581 1.386 . S
C580 C582 1.396 . S
C581 C580 1.386 . S
C581 C585 1.403 . S
C582 H574 0.950 . S
C582 C580 1.396 . S
C582 C583 1.400 . S
C583 C582 1.400 . S
C583 C584 1.398 . S
C583 C589 1.491 . S
C584 H575 0.950 . S
C584 C583 1.398 . S
C584 C585 1.391 . S
C585 H573 0.950 . S
C585 C581 1.403 . S
C585 C584 1.391 . S
C586 H576 0.950 . S
C586 C587 1.386 . S
C586 C588 1.391 . S
C587 C586 1.386 . S
C587 C591 1.393 . S
C588 H577 0.950 . S
C588 C586 1.391 . S
C588 C589 1.400 . S
C589 C583 1.491 . S
C589 C588 1.400 . S
C589 C590 1.398 . S
C590 H578 0.950 . S
C590 C589 1.398 . S
C590 C591 1.391 . S
C591 H579 0.950 . S
C591 C587 1.393 . S
C591 C590 1.391 . S
H592 C600 0.950 . S
H593 C605 0.950 . S
H594 C602 0.950 . S
H595 C604 0.950 . S
H596 C606 0.950 . S
H597 C608 0.950 . S
H598 C610 0.950 . S
H599 C611 0.950 . S
C600 H592 0.950 . S
C600 C601 1.386 . S
C600 C602 1.391 . S
C601 C600 1.386 . S
C601 C605 1.393 . S
C602 H594 0.950 . S
C602 C600 1.391 . S
C602 C603 1.400 . S
C603 C602 1.400 . S
C603 C604 1.398 . S
C603 C609 1.491 . S
C604 H595 0.950 . S
C604 C603 1.398 . S
C604 C605 1.391 . S
C605 H593 0.950 . S
C605 C601 1.393 . S
C605 C604 1.391 . S
C606 H596 0.950 . S
C606 C607 1.386 . S
C606 C608 1.391 . S
C607 C606 1.386 . S
C607 C611 1.393 . S
C608 H597 0.950 . S
C608 C606 1.391 . S
C608 C609 1.400 . S
C609 C603 1.491 . S
C609 C608 1.400 . S
C609 C610 1.398 . S
C610 H598 0.950 . S
C610 C609 1.398 . S
C610 C611 1.391 . S
C611 H599 0.950 . S
C611 C607 1.393 . S
C611 C610 1.391 . S
H612 C620 0.950 . S
H613 C625 0.949 . S
H614 C622 0.950 . S
H615 C624 0.950 . S
H616 C626 0.950 . S
H617 C628 0.950 . S
H618 C630 0.950 . S
H619 C631 0.950 . S
C620 H612 0.950 . S
C620 C621 1.386 1_455 S
C620 C622 1.391 . S
C621 C620 1.386 1_655 S
C621 C625 1.393 . S
C622 H614 0.950 . S
C622 C620 1.391 . S
C622 C623 1.400 . S
C623 C622 1.400 . S
C623 C624 1.398 . S
C623 C629 1.491 . S
C624 H615 0.950 . S
C624 C623 1.398 . S
C624 C625 1.392 1_455 S
C625 H613 0.949 . S
C625 C621 1.393 . S
C625 C624 1.392 1_655 S
C626 H616 0.950 . S
C626 C627 1.386 . S
C626 C628 1.391 . S
C627 C626 1.386 . S
C627 C631 1.393 . S
C628 H617 0.950 . S
C628 C626 1.391 . S
C628 C629 1.400 . S
C629 C623 1.491 . S
C629 C628 1.400 . S
C629 C630 1.398 . S
C630 H618 0.950 . S
C630 C629 1.398 . S
C630 C631 1.391 . S
C631 H619 0.950 . S
C631 C627 1.393 . S
C631 C630 1.391 . S
H632 C640 0.950 . S
H633 C645 0.950 . S
H634 C642 0.950 . S
H635 C644 0.950 . S
H636 C646 0.950 . S
H637 C648 0.950 . S
H638 C650 0.950 . S
H639 C651 0.950 . S
C640 H632 0.950 . S
C640 C641 1.386 . S
C640 C642 1.391 . S
C641 C640 1.386 . S
C641 C645 1.393 . S
C642 H634 0.950 . S
C642 C640 1.391 . S
C642 C643 1.400 . S
C643 C642 1.400 . S
C643 C644 1.398 . S
C643 C649 1.491 . S
C644 H635 0.950 . S
C644 C643 1.398 . S
C644 C645 1.391 . S
C645 H633 0.950 . S
C645 C641 1.393 . S
C645 C644 1.391 . S
C646 H636 0.950 . S
C646 C647 1.386 . S
C646 C648 1.391 . S
C647 C646 1.386 . S
C647 C651 1.393 . S
C648 H637 0.950 . S
C648 C646 1.391 . S
C648 C649 1.400 . S
C649 C643 1.491 . S
C649 C648 1.400 . S
C649 C650 1.398 . S
C650 H638 0.950 . S
C650 C649 1.398 . S
C650 C651 1.391 . S
C651 H639 0.950 . S
C651 C647 1.393 . S
C651 C650 1.391 . S
H652 C660 0.950 . S
H653 C665 0.950 . S
H654 C662 0.950 . S
H655 C664 0.950 . S
H656 C666 0.950 . S
H657 C668 0.950 . S
H658 C670 0.950 . S
H659 C671 0.950 . S
C660 H652 0.950 . S
C660 C661 1.376 1_455 S
C660 C662 1.391 . S
C661 C660 1.376 1_655 S
C661 C665 1.395 . S
C662 H654 0.950 . S
C662 C660 1.391 . S
C662 C663 1.400 . S
C663 C662 1.400 . S
C663 C664 1.398 . S
C663 C669 1.491 . S
C664 H655 0.950 . S
C664 C663 1.398 . S
C664 C665 1.391 1_455 S
C665 H653 0.950 . S
C665 C661 1.395 . S
C665 C664 1.391 1_655 S
C666 H656 0.950 . S
C666 C667 1.386 . S
C666 C668 1.391 . S
C667 C666 1.386 . S
C667 C671 1.393 . S
C668 H657 0.950 . S
C668 C666 1.391 . S
C668 C669 1.400 . S
C669 C663 1.491 . S
C669 C668 1.400 . S
C669 C670 1.398 . S
C670 H658 0.950 . S
C670 C669 1.398 . S
C670 C671 1.391 . S
C671 H659 0.950 . S
C671 C667 1.393 . S
C671 C670 1.391 . S
H672 C680 0.950 . S
H673 C685 0.950 . S
H674 C682 0.950 . S
H675 C684 0.950 . S
H676 C686 0.950 . S
H677 C688 0.950 . S
H678 C690 0.950 . S
H679 C691 0.950 . S
C680 H672 0.950 . S
C680 C681 1.386 . S
C680 C682 1.391 . S
C681 C680 1.386 . S
C681 C685 1.393 . S
C682 H674 0.950 . S
C682 C680 1.391 . S
C682 C683 1.400 . S
C683 C682 1.400 . S
C683 C684 1.398 . S
C683 C689 1.491 . S
C684 H675 0.950 . S
C684 C683 1.398 . S
C684 C685 1.391 . S
C685 H673 0.950 . S
C685 C681 1.393 . S
C685 C684 1.391 . S
C686 H676 0.950 . S
C686 C687 1.386 . S
C686 C688 1.391 . S
C687 C686 1.386 . S
C687 C691 1.393 . S
C688 H677 0.950 . S
C688 C686 1.391 . S
C688 C689 1.400 . S
C689 C683 1.491 . S
C689 C688 1.400 . S
C689 C690 1.398 . S
C690 H678 0.950 . S
C690 C689 1.398 . S
C690 C691 1.391 . S
C691 H679 0.950 . S
C691 C687 1.393 . S
C691 C690 1.391 . S
H692 C700 0.950 . S
H693 C705 0.950 . S
H694 C702 0.950 . S
H695 C704 0.950 . S
H696 C706 0.950 . S
H697 C708 0.950 . S
H698 C710 0.950 . S
H699 C711 0.950 . S
C700 H692 0.950 . S
C700 C701 1.386 . S
C700 C702 1.391 . S
C701 C700 1.386 . S
C701 C705 1.393 . S
C702 H694 0.950 . S
C702 C700 1.391 . S
C702 C703 1.400 . S
C703 C702 1.400 . S
C703 C704 1.398 . S
C703 C709 1.491 . S
C704 H695 0.950 . S
C704 C703 1.398 . S
C704 C705 1.391 . S
C705 H693 0.950 . S
C705 C701 1.393 . S
C705 C704 1.391 . S
C706 H696 0.950 . S
C706 C707 1.386 1_655 S
C706 C708 1.391 . S
C707 C706 1.386 1_455 S
C707 C711 1.393 . S
C708 H697 0.950 . S
C708 C706 1.391 . S
C708 C709 1.400 . S
C709 C703 1.491 . S
C709 C708 1.400 . S
C709 C710 1.398 . S
C710 H698 0.950 . S
C710 C709 1.398 . S
C710 C711 1.391 1_655 S
C711 H699 0.950 . S
C711 C707 1.393 . S
C711 C710 1.391 1_455 S
H712 C720 0.950 . S
H713 C725 0.950 . S
H714 C722 0.950 . S
H715 C724 0.950 . S
H716 C726 0.950 . S
H717 C728 0.950 . S
H718 C730 0.950 . S
H719 C731 0.950 . S
C720 H712 0.950 . S
C720 C721 1.386 . S
C720 C722 1.391 . S
C721 C720 1.386 . S
C721 C725 1.393 . S
C722 H714 0.950 . S
C722 C720 1.391 . S
C722 C723 1.400 . S
C723 C722 1.400 . S
C723 C724 1.398 . S
C723 C729 1.491 . S
C724 H715 0.950 . S
C724 C723 1.398 . S
C724 C725 1.391 . S
C725 H713 0.950 . S
C725 C721 1.393 . S
C725 C724 1.391 . S
C726 H716 0.950 . S
C726 C727 1.386 . S
C726 C728 1.391 . S
C727 C726 1.386 . S
C727 C731 1.393 . S
C728 H717 0.950 . S
C728 C726 1.391 . S
C728 C729 1.400 . S
C729 C723 1.491 . S
C729 C728 1.400 . S
C729 C730 1.398 . S
C730 H718 0.950 . S
C730 C729 1.398 . S
C730 C731 1.391 . S
C731 H719 0.950 . S
C731 C727 1.393 . S
C731 C730 1.391 . S
H732 C740 0.950 . S
H733 C745 0.950 . S
H734 C742 0.950 . S
H735 C744 0.950 . S
H736 C746 0.950 . S
H737 C748 0.950 . S
H738 C750 0.950 . S
H739 C751 0.950 . S
C740 H732 0.950 . S
C740 C741 1.386 . S
C740 C742 1.391 . S
C741 C740 1.386 . S
C741 C745 1.393 . S
C742 H734 0.950 . S
C742 C740 1.391 . S
C742 C743 1.400 . S
C743 C742 1.400 . S
C743 C744 1.398 . S
C743 C749 1.491 . S
C744 H735 0.950 . S
C744 C743 1.398 . S
C744 C745 1.391 . S
C745 H733 0.950 . S
C745 C741 1.393 . S
C745 C744 1.391 . S
C746 H736 0.950 . S
C746 C747 1.394 . S
C746 C748 1.391 . S
C747 C746 1.394 . S
C747 C751 1.399 . S
C748 H737 0.950 . S
C748 C746 1.391 . S
C748 C749 1.400 . S
C749 C743 1.491 . S
C749 C748 1.400 . S
C749 C750 1.398 . S
C750 H738 0.950 . S
C750 C749 1.398 . S
C750 C751 1.391 . S
C751 H739 0.950 . S
C751 C747 1.399 . S
C751 C750 1.391 . S
H752 C760 0.950 . S
H753 C765 0.950 . S
H754 C762 0.950 . S
H755 C764 0.950 . S
H756 C766 0.950 . S
H757 C768 0.950 . S
H758 C770 0.950 . S
H759 C771 0.950 . S
C760 H752 0.950 . S
C760 C761 1.386 . S
C760 C762 1.391 . S
C761 C760 1.386 . S
C761 C765 1.393 . S
C762 H754 0.950 . S
C762 C760 1.391 . S
C762 C763 1.400 . S
C763 C762 1.400 . S
C763 C764 1.398 . S
C763 C769 1.491 . S
C764 H755 0.950 . S
C764 C763 1.398 . S
C764 C765 1.391 . S
C765 H753 0.950 . S
C765 C761 1.393 . S
C765 C764 1.391 . S
C766 H756 0.950 . S
C766 C767 1.386 . S
C766 C768 1.391 . S
C767 C766 1.386 . S
C767 C771 1.393 . S
C768 H757 0.950 . S
C768 C766 1.391 . S
C768 C769 1.400 . S
C769 C763 1.491 . S
C769 C768 1.400 . S
C769 C770 1.398 . S
C770 H758 0.950 . S
C770 C769 1.398 . S
C770 C771 1.391 . S
C771 H759 0.950 . S
C771 C767 1.393 . S
C771 C770 1.391 . S
H772 C780 0.950 . S
H773 C785 0.950 . S
H774 C782 0.950 . S
H775 C784 0.950 . S
H776 C786 0.950 . S
H777 C788 0.950 . S
H778 C790 0.950 . S
H779 C791 0.950 . S
C780 H772 0.950 . S
C780 C781 1.386 1_455 S
C780 C782 1.391 . S
C781 C780 1.386 1_655 S
C781 C785 1.393 . S
C782 H774 0.950 . S
C782 C780 1.391 . S
C782 C783 1.400 . S
C783 C782 1.400 . S
C783 C784 1.398 . S
C783 C789 1.491 . S
C784 H775 0.950 . S
C784 C783 1.398 . S
C784 C785 1.391 1_455 S
C785 H773 0.950 . S
C785 C781 1.393 . S
C785 C784 1.391 1_655 S
C786 H776 0.950 . S
C786 C787 1.386 . S
C786 C788 1.391 . S
C787 C786 1.386 . S
C787 C791 1.393 . S
C788 H777 0.950 . S
C788 C786 1.391 . S
C788 C789 1.400 . S
C789 C783 1.491 . S
C789 C788 1.400 . S
C789 C790 1.398 . S
C790 H778 0.950 . S
C790 C789 1.398 . S
C790 C791 1.391 . S
C791 H779 0.950 . S
C791 C787 1.393 . S
C791 C790 1.391 . S
H792 C800 0.950 . S
H793 C805 0.950 . S
H794 C802 0.950 . S
H795 C804 0.950 . S
H796 C806 0.950 . S
H797 C808 0.950 . S
H798 C810 0.950 . S
H799 C811 0.950 . S
C800 H792 0.950 . S
C800 C801 1.386 . S
C800 C802 1.391 . S
C801 C800 1.386 . S
C801 C805 1.393 . S
C802 H794 0.950 . S
C802 C800 1.391 . S
C802 C803 1.400 . S
C803 C802 1.400 . S
C803 C804 1.398 . S
C803 C809 1.491 . S
C804 H795 0.950 . S
C804 C803 1.398 . S
C804 C805 1.391 . S
C805 H793 0.950 . S
C805 C801 1.393 . S
C805 C804 1.391 . S
C806 H796 0.950 . S
C806 C807 1.386 . S
C806 C808 1.391 . S
C807 C806 1.386 . S
C807 C811 1.393 . S
C808 H797 0.950 . S
C808 C806 1.391 . S
C808 C809 1.400 . S
C809 C803 1.491 . S
C809 C808 1.400 . S
C809 C810 1.398 . S
C810 H798 0.950 . S
C810 C809 1.398 . S
C810 C811 1.391 . S
C811 H799 0.950 . S
C811 C807 1.393 . S
C811 C810 1.391 . S
H812 C820 0.950 . S
H813 C825 0.950 . S
H814 C822 0.950 . S
H815 C824 0.950 . S
H816 C826 0.950 . S
H817 C828 0.950 . S
H818 C830 0.950 . S
H819 C831 0.950 1_565 S
C820 H812 0.950 . S
C820 C821 1.385 1_655 S
C820 C822 1.391 1_655 S
C821 C820 1.385 1_455 S
C821 C825 1.401 . S
C822 H814 0.950 . S
C822 C820 1.391 1_455 S
C822 C823 1.400 . S
C823 C822 1.400 . S
C823 C824 1.398 . S
C823 C829 1.491 . S
C824 H815 0.950 . S
C824 C823 1.398 . S
C824 C825 1.391 . S
C825 H813 0.950 . S
C825 C821 1.401 . S
C825 C824 1.391 . S
C826 H816 0.950 . S
C826 C827 1.386 . S
C826 C828 1.391 . S
C827 C826 1.386 . S
C827 C831 1.393 . S
C828 H817 0.950 . S
C828 C826 1.391 . S
C828 C829 1.400 . S
C829 C823 1.491 . S
C829 C828 1.400 . S
C829 C830 1.398 . S
C830 H818 0.950 . S
C830 C829 1.398 . S
C830 C831 1.391 . S
C831 H819 0.950 1_545 S
C831 C827 1.393 . S
C831 C830 1.391 . S
H832 C840 0.950 . S
H833 C845 0.950 1_545 S
H834 C842 0.950 . S
H835 C844 0.950 . S
H836 C846 0.950 . S
H837 C848 0.950 . S
H838 C850 0.950 . S
H839 C851 0.950 . S
C840 H832 0.950 . S
C840 C841 1.386 . S
C840 C842 1.391 . S
C841 C840 1.386 . S
C841 C845 1.393 . S
C842 H834 0.950 . S
C842 C840 1.391 . S
C842 C843 1.400 . S
C843 C842 1.400 . S
C843 C844 1.398 . S
C843 C849 1.491 . S
C844 H835 0.950 . S
C844 C843 1.398 . S
C844 C845 1.391 . S
C845 H833 0.950 1_565 S
C845 C841 1.393 . S
C845 C844 1.391 . S
C846 H836 0.950 . S
C846 C847 1.386 . S
C846 C848 1.391 . S
C847 C846 1.386 . S
C847 C851 1.393 . S
C848 H837 0.950 . S
C848 C846 1.391 . S
C848 C849 1.400 . S
C849 C843 1.491 . S
C849 C848 1.400 . S
C849 C850 1.398 . S
C850 H838 0.950 . S
C850 C849 1.398 . S
C850 C851 1.391 . S
C851 H839 0.950 . S
C851 C847 1.393 . S
C851 C850 1.391 . S
H852 C860 0.950 . S
H853 C865 0.950 . S
H854 C862 0.950 . S
H855 C864 0.950 . S
H856 C866 0.950 . S
H857 C868 0.950 . S
H858 C870 0.950 . S
H859 C871 0.950 . S
C860 H852 0.950 . S
C860 C861 1.386 . S
C860 C862 1.391 . S
C861 C860 1.386 . S
C861 C865 1.393 . S
C862 H854 0.950 . S
C862 C860 1.391 . S
C862 C863 1.400 . S
C863 C862 1.400 . S
C863 C864 1.398 . S
C863 C869 1.491 . S
C864 H855 0.950 . S
C864 C863 1.398 . S
C864 C865 1.391 . S
C865 H853 0.950 . S
C865 C861 1.393 . S
C865 C864 1.391 . S
C866 H856 0.950 . S
C866 C867 1.386 . S
C866 C868 1.391 . S
C867 C866 1.386 . S
C867 C871 1.393 . S
C868 H857 0.950 . S
C868 C866 1.391 . S
C868 C869 1.400 . S
C869 C863 1.491 . S
C869 C868 1.400 . S
C869 C870 1.398 . S
C870 H858 0.950 . S
C870 C869 1.398 . S
C870 C871 1.391 . S
C871 H859 0.950 . S
C871 C867 1.393 . S
C871 C870 1.391 . S
H872 C880 0.950 . S
H873 C885 0.950 . S
H874 C882 0.950 . S
H875 C884 0.950 . S
H876 C886 0.950 . S
H877 C888 0.950 . S
H878 C890 0.950 . S
H879 C891 0.950 . S
C880 H872 0.950 . S
C880 C881 1.386 . S
C880 C882 1.391 . S
C881 C880 1.386 . S
C881 C885 1.393 . S
C882 H874 0.950 . S
C882 C880 1.391 . S
C882 C883 1.400 . S
C883 C882 1.400 . S
C883 C884 1.398 . S
C883 C889 1.491 . S
C884 H875 0.950 . S
C884 C883 1.398 . S
C884 C885 1.391 . S
C885 H873 0.950 . S
C885 C881 1.393 . S
C885 C884 1.391 . S
C886 H876 0.950 . S
C886 C887 1.386 . S
C886 C888 1.391 . S
C887 C886 1.386 . S
C887 C891 1.393 . S
C888 H877 0.950 . S
C888 C886 1.391 . S
C888 C889 1.400 . S
C889 C883 1.491 . S
C889 C888 1.400 . S
C889 C890 1.398 . S
C890 H878 0.950 . S
C890 C889 1.398 . S
C890 C891 1.391 . S
C891 H879 0.950 . S
C891 C887 1.393 . S
C891 C890 1.391 . S
H892 C900 0.950 . S
H893 C905 0.950 . S
H894 C902 0.950 . S
H895 C904 0.950 . S
H896 C906 0.950 1_545 S
H897 C908 0.950 . S
H898 C910 0.950 . S
H899 C911 0.950 1_455 S
C900 H892 0.950 . S
C900 C901 1.386 . S
C900 C902 1.391 . S
C901 C900 1.386 . S
C901 C905 1.393 . S
C902 H894 0.950 . S
C902 C900 1.391 . S
C902 C903 1.400 . S
C903 C902 1.400 . S
C903 C904 1.398 . S
C903 C909 1.491 . S
C904 H895 0.950 . S
C904 C903 1.398 . S
C904 C905 1.391 . S
C905 H893 0.950 . S
C905 C901 1.393 . S
C905 C904 1.391 . S
C906 H896 0.950 1_565 S
C906 C907 1.386 . S
C906 C908 1.391 . S
C907 C906 1.386 . S
C907 C911 1.393 . S
C908 H897 0.950 . S
C908 C906 1.391 . S
C908 C909 1.400 . S
C909 C903 1.491 . S
C909 C908 1.400 . S
C909 C910 1.398 . S
C910 H898 0.950 . S
C910 C909 1.398 . S
C910 C911 1.391 . S
C911 H899 0.950 1_655 S
C911 C907 1.393 . S
C911 C910 1.391 . S
H912 C920 0.950 . S
H913 C925 0.950 . S
H914 C922 0.950 . S
H915 C924 0.950 . S
H916 C926 0.950 . S
H917 C928 0.950 . S
H918 C930 0.950 . S
H919 C931 0.950 . S
C920 H912 0.950 . S
C920 C921 1.386 . S
C920 C922 1.391 . S
C921 C920 1.386 . S
C921 C925 1.393 . S
C922 H914 0.950 . S
C922 C920 1.391 . S
C922 C923 1.400 . S
C923 C922 1.400 . S
C923 C924 1.398 . S
C923 C929 1.491 . S
C924 H915 0.950 . S
C924 C923 1.398 . S
C924 C925 1.391 . S
C925 H913 0.950 . S
C925 C921 1.393 . S
C925 C924 1.391 . S
C926 H916 0.950 . S
C926 C927 1.386 . S
C926 C928 1.391 . S
C927 C926 1.386 . S
C927 C931 1.393 . S
C928 H917 0.950 . S
C928 C926 1.391 . S
C928 C929 1.400 . S
C929 C923 1.491 . S
C929 C928 1.400 . S
C929 C930 1.398 . S
C930 H918 0.950 . S
C930 C929 1.398 . S
C930 C931 1.391 . S
C931 H919 0.950 . S
C931 C927 1.393 . S
C931 C930 1.391 . S
H932 C940 0.950 . S
H933 C945 0.950 . S
H934 C942 0.950 . S
H935 C944 0.950 . S
H936 C946 0.950 . S
H937 C948 0.950 . S
H938 C950 0.950 . S
H939 C951 0.950 . S
C940 H932 0.950 . S
C940 C941 1.386 . S
C940 C942 1.391 . S
C941 C940 1.386 . S
C941 C945 1.393 . S
C942 H934 0.950 . S
C942 C940 1.391 . S
C942 C943 1.400 . S
C943 C942 1.400 . S
C943 C944 1.398 . S
C943 C949 1.491 . S
C944 H935 0.950 . S
C944 C943 1.398 . S
C944 C945 1.391 . S
C945 H933 0.950 . S
C945 C941 1.393 . S
C945 C944 1.391 . S
C946 H936 0.950 . S
C946 C947 1.386 . S
C946 C948 1.391 . S
C947 C946 1.386 . S
C947 C951 1.393 . S
C948 H937 0.950 . S
C948 C946 1.391 . S
C948 C949 1.400 . S
C949 C943 1.491 . S
C949 C948 1.400 . S
C949 C950 1.398 . S
C950 H938 0.950 . S
C950 C949 1.398 . S
C950 C951 1.391 . S
C951 H939 0.950 . S
C951 C947 1.393 . S
C951 C950 1.391 . S
H952 C960 0.950 . S
H953 C965 0.950 . S
H954 C962 0.950 . S
H955 C964 0.950 . S
H956 C966 0.950 . S
H957 C968 0.950 . S
H958 C970 0.950 . S
H959 C971 0.950 . S
C960 H952 0.950 . S
C960 C961 1.386 . S
C960 C962 1.391 . S
C961 C960 1.386 . S
C961 C965 1.393 . S
C962 H954 0.950 . S
C962 C960 1.391 . S
C962 C963 1.400 . S
C963 C962 1.400 . S
C963 C964 1.398 . S
C963 C969 1.491 . S
C964 H955 0.950 . S
C964 C963 1.398 . S
C964 C965 1.391 . S
C965 H953 0.950 . S
C965 C961 1.393 . S
C965 C964 1.391 . S
C966 H956 0.950 . S
C966 C967 1.386 . S
C966 C968 1.391 . S
C967 C966 1.386 . S
C967 C971 1.393 . S
C968 H957 0.950 . S
C968 C966 1.391 . S
C968 C969 1.400 . S
C969 C963 1.491 . S
C969 C968 1.400 . S
C969 C970 1.398 . S
C970 H958 0.950 . S
C970 C969 1.398 . S
C970 C971 1.391 . S
C971 H959 0.950 . S
C971 C967 1.393 . S
C971 C970 1.391 . S
H972 C980 0.950 . S
H973 C985 0.950 . S
H974 C982 0.950 . S
H975 C984 0.950 . S
H976 C986 0.950 1_655 S
H977 C988 0.950 . S
H978 C990 0.950 . S
H979 C991 0.950 1_565 S
C980 H972 0.950 . S
C980 C981 1.386 . S
C980 C982 1.391 . S
C981 C980 1.386 . S
C981 C985 1.393 . S
C982 H974 0.950 . S
C982 C980 1.391 . S
C982 C983 1.400 . S
C983 C982 1.400 . S
C983 C984 1.398 . S
C983 C989 1.491 . S
C984 H975 0.950 . S
C984 C983 1.398 . S
C984 C985 1.391 . S
C985 H973 0.950 . S
C985 C981 1.393 . S
C985 C984 1.391 . S
C986 H976 0.950 1_455 S
C986 C987 1.386 . S
C986 C988 1.391 . S
C987 C986 1.386 . S
C987 C991 1.393 . S
C988 H977 0.950 . S
C988 C986 1.391 . S
C988 C989 1.400 . S
C989 C983 1.491 . S
C989 C988 1.400 . S
C989 C990 1.398 . S
C990 H978 0.950 . S
C990 C989 1.398 . S
C990 C991 1.391 . S
C991 H979 0.950 1_545 S
C991 C987 1.393 . S
C991 C990 1.391 . S
H992 C1000 0.950 . S
H993 C1005 0.950 . S
H994 C1002 0.950 . S
H995 C1004 0.950 . S
H996 C1006 0.950 . S
H997 C1008 0.950 . S
H998 C1010 0.950 . S
H999 C1011 0.950 . S
C1000 H992 0.950 . S
C1000 C1001 1.386 . S
C1000 C1002 1.391 . S
C1001 C1000 1.386 . S
C1001 C1005 1.393 . S
C1002 H994 0.950 . S
C1002 C1000 1.391 . S
C1002 C1003 1.400 . S
C1003 C1002 1.400 . S
C1003 C1004 1.398 . S
C1003 C1009 1.491 . S
C1004 H995 0.950 . S
C1004 C1003 1.398 . S
C1004 C1005 1.391 . S
C1005 H993 0.950 . S
C1005 C1001 1.393 . S
C1005 C1004 1.391 . S
C1006 H996 0.950 . S
C1006 C1007 1.386 . S
C1006 C1008 1.391 . S
C1007 C1006 1.386 . S
C1007 C1011 1.393 . S
C1008 H997 0.950 . S
C1008 C1006 1.391 . S
C1008 C1009 1.400 . S
C1009 C1003 1.491 . S
C1009 C1008 1.400 . S
C1009 C1010 1.398 . S
C1010 H998 0.950 . S
C1010 C1009 1.398 . S
C1010 C1011 1.391 . S
C1011 H999 0.950 . S
C1011 C1007 1.393 . S
C1011 C1010 1.391 . S
H1012 C1020 0.950 . S
H1013 C1025 0.950 . S
H1014 C1022 0.950 . S
H1015 C1024 0.950 . S
H1016 C1026 0.950 . S
H1017 C1028 0.950 . S
H1018 C1030 0.950 . S
H1019 C1031 0.950 . S
C1020 H1012 0.950 . S
C1020 C1021 1.386 . S
C1020 C1022 1.391 . S
C1021 C1020 1.386 . S
C1021 C1025 1.393 . S
C1022 H1014 0.950 . S
C1022 C1020 1.391 . S
C1022 C1023 1.400 . S
C1023 C1022 1.400 . S
C1023 C1024 1.398 . S
C1023 C1029 1.491 . S
C1024 H1015 0.950 . S
C1024 C1023 1.398 . S
C1024 C1025 1.391 . S
C1025 H1013 0.950 . S
C1025 C1021 1.393 . S
C1025 C1024 1.391 . S
C1026 H1016 0.950 . S
C1026 C1027 1.386 . S
C1026 C1028 1.391 . S
C1027 C1026 1.386 . S
C1027 C1031 1.393 . S
C1028 H1017 0.950 . S
C1028 C1026 1.391 . S
C1028 C1029 1.400 . S
C1029 C1023 1.491 . S
C1029 C1028 1.400 . S
C1029 C1030 1.398 . S
C1030 H1018 0.950 . S
C1030 C1029 1.398 . S
C1030 C1031 1.391 . S
C1031 H1019 0.950 . S
C1031 C1027 1.393 . S
C1031 C1030 1.391 . S
H1032 C1040 0.950 . S
H1033 C1045 0.950 . S
H1034 C1042 0.950 . S
H1035 C1044 0.950 . S
H1036 C1046 0.950 . S
H1037 C1048 0.950 . S
H1038 C1050 0.950 . S
H1039 C1051 0.950 1_545 S
C1040 H1032 0.950 . S
C1040 C1041 1.386 . S
C1040 C1042 1.391 . S
C1041 C1040 1.386 . S
C1041 C1045 1.393 . S
C1042 H1034 0.950 . S
C1042 C1040 1.391 . S
C1042 C1043 1.400 . S
C1043 C1042 1.400 . S
C1043 C1044 1.398 . S
C1043 C1049 1.491 . S
C1044 H1035 0.950 . S
C1044 C1043 1.398 . S
C1044 C1045 1.391 . S
C1045 H1033 0.950 . S
C1045 C1041 1.393 . S
C1045 C1044 1.391 . S
C1046 H1036 0.950 . S
C1046 C1047 1.386 . S
C1046 C1048 1.391 . S
C1047 C1046 1.386 . S
C1047 C1051 1.393 . S
C1048 H1037 0.950 . S
C1048 C1046 1.391 . S
C1048 C1049 1.400 . S
C1049 C1043 1.491 . S
C1049 C1048 1.400 . S
C1049 C1050 1.398 . S
C1050 H1038 0.950 . S
C1050 C1049 1.398 . S
C1050 C1051 1.391 . S
C1051 H1039 0.950 1_565 S
C1051 C1047 1.393 . S
C1051 C1050 1.391 . S
H1052 C1060 0.950 1_455 S
H1053 C1065 0.950 . S
H1054 C1062 0.950 . S
H1055 C1064 0.950 . S
H1056 C1066 0.950 . S
H1057 C1068 0.950 . S
H1058 C1070 0.950 . S
H1059 C1071 0.950 . S
C1060 H1052 0.950 1_655 S
C1060 C1061 1.386 . S
C1060 C1062 1.391 . S
C1061 C1060 1.386 . S
C1061 C1065 1.393 . S
C1062 H1054 0.950 . S
C1062 C1060 1.391 . S
C1062 C1063 1.400 . S
C1063 C1062 1.400 . S
C1063 C1064 1.398 . S
C1063 C1069 1.491 . S
C1064 H1055 0.950 . S
C1064 C1063 1.398 . S
C1064 C1065 1.391 . S
C1065 H1053 0.950 . S
C1065 C1061 1.393 . S
C1065 C1064 1.391 . S
C1066 H1056 0.950 . S
C1066 C1067 1.386 . S
C1066 C1068 1.391 . S
C1067 C1066 1.386 . S
C1067 C1071 1.393 . S
C1068 H1057 0.950 . S
C1068 C1066 1.391 . S
C1068 C1069 1.400 . S
C1069 C1063 1.491 . S
C1069 C1068 1.400 . S
C1069 C1070 1.398 . S
C1070 H1058 0.950 . S
C1070 C1069 1.398 . S
C1070 C1071 1.391 . S
C1071 H1059 0.950 . S
C1071 C1067 1.393 . S
C1071 C1070 1.391 . S
H1072 C1080 0.950 . S
H1073 C1085 0.950 . S
H1074 C1082 0.950 . S
H1075 C1084 0.950 . S
H1076 C1086 0.950 . S
H1077 C1088 0.950 . S
H1078 C1090 0.950 . S
H1079 C1091 0.950 . S
C1080 H1072 0.950 . S
C1080 C1081 1.386 . S
C1080 C1082 1.391 . S
C1081 C1080 1.386 . S
C1081 C1085 1.393 . S
C1082 H1074 0.950 . S
C1082 C1080 1.391 . S
C1082 C1083 1.400 . S
C1083 C1082 1.400 . S
C1083 C1084 1.398 . S
C1083 C1089 1.491 . S
C1084 H1075 0.950 . S
C1084 C1083 1.398 . S
C1084 C1085 1.391 . S
C1085 H1073 0.950 . S
C1085 C1081 1.393 . S
C1085 C1084 1.391 . S
C1086 H1076 0.950 . S
C1086 C1087 1.386 . S
C1086 C1088 1.391 . S
C1087 C1086 1.386 . S
C1087 C1091 1.393 . S
C1088 H1077 0.950 . S
C1088 C1086 1.391 . S
C1088 C1089 1.400 . S
C1089 C1083 1.491 . S
C1089 C1088 1.400 . S
C1089 C1090 1.398 . S
C1090 H1078 0.950 . S
C1090 C1089 1.398 . S
C1090 C1091 1.391 . S
C1091 H1079 0.950 . S
C1091 C1087 1.393 . S
C1091 C1090 1.391 . S
H1092 C1100 0.950 . S
H1093 C1105 0.950 1_565 S
H1094 C1102 0.950 . S
H1095 C1104 0.950 . S
H1096 C1106 0.950 1_655 S
H1097 C1108 0.950 . S
H1098 C1110 0.950 . S
H1099 C1111 0.950 . S
C1100 H1092 0.950 . S
C1100 C1101 1.386 . S
C1100 C1102 1.391 . S
C1101 C1100 1.386 . S
C1101 C1105 1.393 . S
C1102 H1094 0.950 . S
C1102 C1100 1.391 . S
C1102 C1103 1.400 . S
C1103 C1102 1.400 . S
C1103 C1104 1.398 . S
C1103 C1109 1.491 . S
C1104 H1095 0.950 . S
C1104 C1103 1.398 . S
C1104 C1105 1.391 . S
C1105 H1093 0.950 1_545 S
C1105 C1101 1.393 . S
C1105 C1104 1.391 . S
C1106 H1096 0.950 1_455 S
C1106 C1107 1.386 . S
C1106 C1108 1.391 . S
C1107 C1106 1.386 . S
C1107 C1111 1.393 . S
C1108 H1097 0.950 . S
C1108 C1106 1.391 . S
C1108 C1109 1.400 . S
C1109 C1103 1.491 . S
C1109 C1108 1.400 . S
C1109 C1110 1.398 . S
C1110 H1098 0.950 . S
C1110 C1109 1.398 . S
C1110 C1111 1.391 . S
C1111 H1099 0.950 . S
C1111 C1107 1.393 . S
C1111 C1110 1.391 . S
H1112 C1120 0.950 . S
H1113 C1125 0.950 1_565 S
H1114 C1122 0.950 . S
H1115 C1124 0.950 . S
H1116 C1126 0.950 . S
H1117 C1128 0.950 . S
H1118 C1130 0.950 . S
H1119 C1131 0.950 . S
C1120 H1112 0.950 . S
C1120 C1121 1.386 . S
C1120 C1122 1.391 . S
C1121 C1120 1.386 . S
C1121 C1125 1.393 . S
C1122 H1114 0.950 . S
C1122 C1120 1.391 . S
C1122 C1123 1.400 . S
C1123 C1122 1.400 . S
C1123 C1124 1.398 . S
C1123 C1129 1.491 . S
C1124 H1115 0.950 . S
C1124 C1123 1.398 . S
C1124 C1125 1.391 . S
C1125 H1113 0.950 1_545 S
C1125 C1121 1.393 . S
C1125 C1124 1.391 . S
C1126 H1116 0.950 . S
C1126 C1127 1.386 . S
C1126 C1128 1.391 . S
C1127 C1126 1.386 . S
C1127 C1131 1.393 . S
C1128 H1117 0.950 . S
C1128 C1126 1.391 . S
C1128 C1129 1.400 . S
C1129 C1123 1.491 . S
C1129 C1128 1.400 . S
C1129 C1130 1.398 . S
C1130 H1118 0.950 . S
C1130 C1129 1.398 . S
C1130 C1131 1.391 . S
C1131 H1119 0.950 . S
C1131 C1127 1.393 . S
C1131 C1130 1.391 . S
H1132 C1140 0.950 . S
H1133 C1145 0.932 1_655 S
H1134 C1142 0.950 . S
H1135 C1144 0.950 . S
H1136 C1146 0.950 . S
H1137 C1148 0.950 . S
H1138 C1150 0.950 . S
H1139 C1151 0.950 . S
C1140 H1132 0.950 . S
C1140 C1141 1.386 . S
C1140 C1142 1.391 . S
C1141 C1140 1.386 . S
C1141 C1145 1.399 . S
C1142 H1134 0.950 . S
C1142 C1140 1.391 . S
C1142 C1143 1.400 . S
C1143 C1142 1.400 . S
C1143 C1144 1.398 . S
C1143 C1149 1.491 . S
C1144 H1135 0.950 . S
C1144 C1143 1.398 . S
C1144 C1145 1.403 . S
C1145 H1133 0.932 1_455 S
C1145 C1141 1.399 . S
C1145 C1144 1.403 . S
C1146 H1136 0.950 . S
C1146 C1147 1.386 . S
C1146 C1148 1.391 . S
C1147 C1146 1.386 . S
C1147 C1151 1.393 . S
C1148 H1137 0.950 . S
C1148 C1146 1.391 . S
C1148 C1149 1.400 . S
C1149 C1143 1.491 . S
C1149 C1148 1.400 . S
C1149 C1150 1.398 . S
C1150 H1138 0.950 . S
C1150 C1149 1.398 . S
C1150 C1151 1.391 . S
C1151 H1139 0.950 . S
C1151 C1147 1.393 . S
C1151 C1150 1.391 . S
H1152 C1160 0.950 . S
H1153 C1165 0.950 . S
H1154 C1162 0.950 . S
H1155 C1164 0.950 . S
H1156 C1166 0.950 . S
H1157 C1168 0.950 . S
H1158 C1170 0.950 . S
H1159 C1171 0.950 . S
C1160 H1152 0.950 . S
C1160 C1161 1.386 . S
C1160 C1162 1.391 . S
C1161 C1160 1.386 . S
C1161 C1165 1.393 . S
C1162 H1154 0.950 . S
C1162 C1160 1.391 . S
C1162 C1163 1.400 . S
C1163 C1162 1.400 . S
C1163 C1164 1.398 . S
C1163 C1169 1.491 . S
C1164 H1155 0.950 . S
C1164 C1163 1.398 . S
C1164 C1165 1.391 . S
C1165 H1153 0.950 . S
C1165 C1161 1.393 . S
C1165 C1164 1.391 . S
C1166 H1156 0.950 . S
C1166 C1167 1.386 . S
C1166 C1168 1.391 . S
C1167 C1166 1.386 . S
C1167 C1171 1.393 . S
C1168 H1157 0.950 . S
C1168 C1166 1.391 . S
C1168 C1169 1.400 . S
C1169 C1163 1.491 . S
C1169 C1168 1.400 . S
C1169 C1170 1.398 . S
C1170 H1158 0.950 . S
C1170 C1169 1.398 . S
C1170 C1171 1.391 . S
C1171 H1159 0.950 . S
C1171 C1167 1.393 . S
C1171 C1170 1.391 . S
H1172 C1180 0.950 . S
H1173 C1185 0.950 . S
H1174 C1182 0.950 . S
H1175 C1184 0.950 . S
H1176 C1186 0.950 . S
H1177 C1188 0.950 . S
H1178 C1190 0.950 . S
H1179 C1191 0.950 . S
C1180 H1172 0.950 . S
C1180 C1181 1.386 . S
C1180 C1182 1.391 . S
C1181 C1180 1.386 . S
C1181 C1185 1.393 . S
C1182 H1174 0.950 . S
C1182 C1180 1.391 . S
C1182 C1183 1.400 . S
C1183 C1182 1.400 . S
C1183 C1184 1.398 . S
C1183 C1189 1.491 . S
C1184 H1175 0.950 . S
C1184 C1183 1.398 . S
C1184 C1185 1.391 . S
C1185 H1173 0.950 . S
C1185 C1181 1.393 . S
C1185 C1184 1.391 . S
C1186 H1176 0.950 . S
C1186 C1187 1.386 . S
C1186 C1188 1.391 . S
C1187 C1186 1.386 . S
C1187 C1191 1.393 1_655 S
C1188 H1177 0.950 . S
C1188 C1186 1.391 . S
C1188 C1189 1.400 . S
C1189 C1183 1.491 . S
C1189 C1188 1.400 . S
C1189 C1190 1.398 . S
C1190 H1178 0.950 . S
C1190 C1189 1.398 . S
C1190 C1191 1.391 1_655 S
C1191 H1179 0.950 . S
C1191 C1187 1.393 1_455 S
C1191 C1190 1.391 1_455 S
H1192 C1200 0.950 . S
H1193 C1205 0.950 . S
H1194 C1202 0.950 . S
H1195 C1204 0.950 . S
H1196 C1206 0.950 . S
H1197 C1208 0.950 . S
H1198 C1210 0.950 . S
H1199 C1211 0.950 . S
C1200 H1192 0.950 . S
C1200 C1201 1.386 . S
C1200 C1202 1.391 . S
C1201 C1200 1.386 . S
C1201 C1205 1.393 . S
C1202 H1194 0.950 . S
C1202 C1200 1.391 . S
C1202 C1203 1.400 . S
C1203 C1202 1.400 . S
C1203 C1204 1.398 . S
C1203 C1209 1.491 . S
C1204 H1195 0.950 . S
C1204 C1203 1.398 . S
C1204 C1205 1.391 . S
C1205 H1193 0.950 . S
C1205 C1201 1.393 . S
C1205 C1204 1.391 . S
C1206 H1196 0.950 . S
C1206 C1207 1.386 . S
C1206 C1208 1.391 . S
C1207 C1206 1.386 . S
C1207 C1211 1.393 . S
C1208 H1197 0.950 . S
C1208 C1206 1.391 . S
C1208 C1209 1.400 . S
C1209 C1203 1.491 . S
C1209 C1208 1.400 . S
C1209 C1210 1.398 . S
C1210 H1198 0.950 . S
C1210 C1209 1.398 . S
C1210 C1211 1.391 . S
C1211 H1199 0.950 . S
C1211 C1207 1.393 . S
C1211 C1210 1.391 . S
H1212 C1220 0.950 . S
H1213 C1225 0.950 . S
H1214 C1222 0.950 . S
H1215 C1224 0.950 . S
H1216 C1226 0.950 . S
H1217 C1228 0.950 . S
H1218 C1230 0.950 . S
H1219 C1231 0.950 . S
C1220 H1212 0.950 . S
C1220 C1221 1.386 . S
C1220 C1222 1.391 . S
C1221 C1220 1.386 . S
C1221 C1225 1.393 . S
C1222 H1214 0.950 . S
C1222 C1220 1.391 . S
C1222 C1223 1.400 . S
C1223 C1222 1.400 . S
C1223 C1224 1.398 . S
C1223 C1229 1.491 . S
C1224 H1215 0.950 . S
C1224 C1223 1.398 . S
C1224 C1225 1.391 . S
C1225 H1213 0.950 . S
C1225 C1221 1.393 . S
C1225 C1224 1.391 . S
C1226 H1216 0.950 . S
C1226 C1227 1.386 . S
C1226 C1228 1.391 . S
C1227 C1226 1.386 . S
C1227 C1231 1.393 1_655 S
C1228 H1217 0.950 . S
C1228 C1226 1.391 . S
C1228 C1229 1.400 . S
C1229 C1223 1.491 . S
C1229 C1228 1.400 . S
C1229 C1230 1.398 . S
C1230 H1218 0.950 . S
C1230 C1229 1.398 . S
C1230 C1231 1.391 1_655 S
C1231 H1219 0.950 . S
C1231 C1227 1.393 1_455 S
C1231 C1230 1.391 1_455 S
H1232 C1240 0.950 . S
H1233 C1245 0.950 . S
H1234 C1242 0.950 . S
H1235 C1244 0.950 . S
H1236 C1246 0.950 . S
H1237 C1248 0.950 . S
H1238 C1250 0.950 . S
H1239 C1251 0.950 . S
C1240 H1232 0.950 . S
C1240 C1241 1.386 . S
C1240 C1242 1.391 . S
C1241 C1240 1.386 . S
C1241 C1245 1.393 . S
C1242 H1234 0.950 . S
C1242 C1240 1.391 . S
C1242 C1243 1.400 . S
C1243 C1242 1.400 . S
C1243 C1244 1.398 . S
C1243 C1249 1.491 . S
C1244 H1235 0.950 . S
C1244 C1243 1.398 . S
C1244 C1245 1.391 . S
C1245 H1233 0.950 . S
C1245 C1241 1.393 . S
C1245 C1244 1.391 . S
C1246 H1236 0.950 . S
C1246 C1247 1.386 . S
C1246 C1248 1.391 . S
C1247 C1246 1.386 . S
C1247 C1251 1.393 . S
C1248 H1237 0.950 . S
C1248 C1246 1.391 . S
C1248 C1249 1.400 . S
C1249 C1243 1.491 . S
C1249 C1248 1.400 . S
C1249 C1250 1.398 . S
C1250 H1238 0.950 . S
C1250 C1249 1.398 . S
C1250 C1251 1.391 . S
C1251 H1239 0.950 . S
C1251 C1247 1.393 . S
C1251 C1250 1.391 . S
H1252 C1260 0.950 . S
H1253 C1265 0.950 1_655 S
H1254 C1262 0.950 . S
H1255 C1264 0.950 . S
H1256 C1266 0.950 . S
H1257 C1268 0.950 . S
H1258 C1270 0.950 . S
H1259 C1271 0.950 . S
C1260 H1252 0.950 . S
C1260 C1261 1.386 . S
C1260 C1262 1.391 . S
C1261 C1260 1.386 . S
C1261 C1265 1.393 . S
C1262 H1254 0.950 . S
C1262 C1260 1.391 . S
C1262 C1263 1.400 . S
C1263 C1262 1.400 . S
C1263 C1264 1.398 . S
C1263 C1269 1.491 . S
C1264 H1255 0.950 . S
C1264 C1263 1.398 . S
C1264 C1265 1.391 . S
C1265 H1253 0.950 1_455 S
C1265 C1261 1.393 . S
C1265 C1264 1.391 . S
C1266 H1256 0.950 . S
C1266 C1267 1.386 . S
C1266 C1268 1.391 . S
C1267 C1266 1.386 . S
C1267 C1271 1.393 . S
C1268 H1257 0.950 . S
C1268 C1266 1.391 . S
C1268 C1269 1.400 . S
C1269 C1263 1.491 . S
C1269 C1268 1.400 . S
C1269 C1270 1.398 . S
C1270 H1258 0.950 . S
C1270 C1269 1.398 . S
C1270 C1271 1.391 . S
C1271 H1259 0.950 . S
C1271 C1267 1.393 . S
C1271 C1270 1.391 . S
H1272 C1280 0.950 . S
H1273 C1285 0.950 . S
H1274 C1282 0.950 . S
H1275 C1284 0.950 . S
H1276 C1286 0.950 . S
H1277 C1288 0.950 . S
H1278 C1290 0.950 . S
H1279 C1291 0.950 . S
C1280 H1272 0.950 . S
C1280 C1281 1.386 . S
C1280 C1282 1.391 . S
C1281 C1280 1.386 . S
C1281 C1285 1.393 . S
C1282 H1274 0.950 . S
C1282 C1280 1.391 . S
C1282 C1283 1.400 . S
C1283 C1282 1.400 . S
C1283 C1284 1.398 . S
C1283 C1289 1.491 . S
C1284 H1275 0.950 . S
C1284 C1283 1.398 . S
C1284 C1285 1.391 . S
C1285 H1273 0.950 . S
C1285 C1281 1.393 . S
C1285 C1284 1.391 . S
C1286 H1276 0.950 . S
C1286 C1287 1.386 . S
C1286 C1288 1.391 . S
C1287 C1286 1.386 . S
C1287 C1291 1.393 . S
C1288 H1277 0.950 . S
C1288 C1286 1.391 . S
C1288 C1289 1.400 . S
C1289 C1283 1.491 . S
C1289 C1288 1.400 . S
C1289 C1290 1.398 . S
C1290 H1278 0.950 . S
C1290 C1289 1.398 . S
C1290 C1291 1.391 . S
C1291 H1279 0.950 . S
C1291 C1287 1.393 . S
C1291 C1290 1.391 . S
H1292 C1300 0.950 . S
H1293 C1305 0.950 . S
H1294 C1302 0.950 . S
H1295 C1304 0.950 . S
H1296 C1306 0.950 . S
H1297 C1308 0.950 . S
H1298 C1310 0.950 . S
H1299 C1311 0.950 . S
C1300 H1292 0.950 . S
C1300 C1301 1.386 . S
C1300 C1302 1.391 . S
C1301 C1300 1.386 . S
C1301 C1305 1.393 1_455 S
C1302 H1294 0.950 . S
C1302 C1300 1.391 . S
C1302 C1303 1.400 . S
C1303 C1302 1.400 . S
C1303 C1304 1.398 . S
C1303 C1309 1.491 . S
C1304 H1295 0.950 . S
C1304 C1303 1.398 . S
C1304 C1305 1.391 1_455 S
C1305 H1293 0.950 . S
C1305 C1301 1.393 1_655 S
C1305 C1304 1.391 1_655 S
C1306 H1296 0.950 . S
C1306 C1307 1.386 . S
C1306 C1308 1.391 . S
C1307 C1306 1.386 . S
C1307 C1311 1.393 . S
C1308 H1297 0.950 . S
C1308 C1306 1.391 . S
C1308 C1309 1.400 . S
C1309 C1303 1.491 . S
C1309 C1308 1.400 . S
C1309 C1310 1.398 . S
C1310 H1298 0.950 . S
C1310 C1309 1.398 . S
C1310 C1311 1.391 . S
C1311 H1299 0.950 . S
C1311 C1307 1.393 . S
C1311 C1310 1.391 . S
H1312 C1320 0.950 . S
H1313 C1325 0.950 . S
H1314 C1322 0.950 . S
H1315 C1324 0.950 . S
H1316 C1326 0.950 . S
H1317 C1328 0.950 . S
H1318 C1330 0.950 . S
H1319 C1331 0.950 . S
C1320 H1312 0.950 . S
C1320 C1321 1.386 . S
C1320 C1322 1.391 . S
C1321 C1320 1.386 . S
C1321 C1325 1.393 . S
C1322 H1314 0.950 . S
C1322 C1320 1.391 . S
C1322 C1323 1.400 . S
C1323 C1322 1.400 . S
C1323 C1324 1.398 . S
C1323 C1329 1.491 . S
C1324 H1315 0.950 . S
C1324 C1323 1.398 . S
C1324 C1325 1.391 . S
C1325 H1313 0.950 . S
C1325 C1321 1.393 . S
C1325 C1324 1.391 . S
C1326 H1316 0.950 . S
C1326 C1327 1.386 . S
C1326 C1328 1.391 . S
C1327 C1326 1.386 . S
C1327 C1331 1.393 . S
C1328 H1317 0.950 . S
C1328 C1326 1.391 . S
C1328 C1329 1.400 . S
C1329 C1323 1.491 . S
C1329 C1328 1.400 . S
C1329 C1330 1.398 . S
C1330 H1318 0.950 . S
C1330 C1329 1.398 . S
C1330 C1331 1.391 . S
C1331 H1319 0.950 . S
C1331 C1327 1.393 . S
C1331 C1330 1.391 . S
H1332 C1340 0.950 . S
H1333 C1345 0.950 1_455 S
H1334 C1342 0.950 . S
H1335 C1344 0.950 . S
H1336 C1346 0.950 . S
H1337 C1348 0.950 . S
H1338 C1350 0.950 . S
H1339 C1351 0.950 . S
C1340 H1332 0.950 . S
C1340 C1341 1.386 . S
C1340 C1342 1.391 . S
C1341 C1340 1.386 . S
C1341 C1345 1.393 . S
C1342 H1334 0.950 . S
C1342 C1340 1.391 . S
C1342 C1343 1.400 . S
C1343 C1342 1.400 . S
C1343 C1344 1.398 . S
C1343 C1349 1.491 . S
C1344 H1335 0.950 . S
C1344 C1343 1.398 . S
C1344 C1345 1.391 . S
C1345 H1333 0.950 1_655 S
C1345 C1341 1.393 . S
C1345 C1344 1.391 . S
C1346 H1336 0.950 . S
C1346 C1347 1.386 . S
C1346 C1348 1.391 . S
C1347 C1346 1.386 . S
C1347 C1351 1.393 . S
C1348 H1337 0.950 . S
C1348 C1346 1.391 . S
C1348 C1349 1.400 . S
C1349 C1343 1.491 . S
C1349 C1348 1.400 . S
C1349 C1350 1.398 . S
C1350 H1338 0.950 . S
C1350 C1349 1.398 . S
C1350 C1351 1.391 . S
C1351 H1339 0.950 . S
C1351 C1347 1.393 . S
C1351 C1350 1.391 . S
H1352 C1360 0.950 . S
H1353 C1365 0.950 . S
H1354 C1362 0.950 . S
H1355 C1364 0.950 . S
H1356 C1366 0.950 . S
H1357 C1368 0.950 . S
H1358 C1370 0.950 . S
H1359 C1371 0.950 . S
C1360 H1352 0.950 . S
C1360 C1361 1.386 . S
C1360 C1362 1.391 . S
C1361 C1360 1.386 . S
C1361 C1365 1.393 . S
C1362 H1354 0.950 . S
C1362 C1360 1.391 . S
C1362 C1363 1.400 . S
C1363 C1362 1.400 . S
C1363 C1364 1.398 . S
C1363 C1369 1.491 . S
C1364 H1355 0.950 . S
C1364 C1363 1.398 . S
C1364 C1365 1.391 . S
C1365 H1353 0.950 . S
C1365 C1361 1.393 . S
C1365 C1364 1.391 . S
C1366 H1356 0.950 . S
C1366 C1367 1.386 . S
C1366 C1368 1.391 . S
C1367 C1366 1.386 . S
C1367 C1371 1.393 . S
C1368 H1357 0.950 . S
C1368 C1366 1.391 . S
C1368 C1369 1.400 . S
C1369 C1363 1.491 . S
C1369 C1368 1.400 . S
C1369 C1370 1.398 . S
C1370 H1358 0.950 . S
C1370 C1369 1.398 . S
C1370 C1371 1.391 . S
C1371 H1359 0.950 . S
C1371 C1367 1.393 . S
C1371 C1370 1.391 . S
H1372 C1380 0.950 . S
H1373 C1385 0.950 . S
H1374 C1382 0.950 . S
H1375 C1384 0.950 . S
H1376 C1386 0.950 1_455 S
H1377 C1388 0.950 . S
H1378 C1390 0.950 . S
H1379 C1391 0.950 . S
C1380 H1372 0.950 . S
C1380 C1381 1.386 . S
C1380 C1382 1.391 . S
C1381 C1380 1.386 . S
C1381 C1385 1.393 . S
C1382 H1374 0.950 . S
C1382 C1380 1.391 . S
C1382 C1383 1.400 . S
C1383 C1382 1.400 . S
C1383 C1384 1.398 . S
C1383 C1389 1.491 . S
C1384 H1375 0.950 . S
C1384 C1383 1.398 . S
C1384 C1385 1.391 . S
C1385 H1373 0.950 . S
C1385 C1381 1.393 . S
C1385 C1384 1.391 . S
C1386 H1376 0.950 1_655 S
C1386 C1387 1.386 . S
C1386 C1388 1.391 . S
C1387 C1386 1.386 . S
C1387 C1391 1.393 . S
C1388 H1377 0.950 . S
C1388 C1386 1.391 . S
C1388 C1389 1.400 . S
C1389 C1383 1.491 . S
C1389 C1388 1.400 . S
C1389 C1390 1.398 . S
C1390 H1378 0.950 . S
C1390 C1389 1.398 . S
C1390 C1391 1.391 . S
C1391 H1379 0.950 . S
C1391 C1387 1.393 . S
C1391 C1390 1.391 . S
H1392 C1400 0.950 . S
H1393 C1405 0.950 . S
H1394 C1402 0.950 . S
H1395 C1404 0.950 . S
H1396 C1406 0.950 . S
H1397 C1408 0.950 . S
H1398 C1410 0.950 . S
H1399 C1411 0.950 . S
C1400 H1392 0.950 . S
C1400 C1401 1.386 . S
C1400 C1402 1.391 . S
C1401 C1400 1.386 . S
C1401 C1405 1.393 . S
C1402 H1394 0.950 . S
C1402 C1400 1.391 . S
C1402 C1403 1.400 . S
C1403 C1402 1.400 . S
C1403 C1404 1.398 . S
C1403 C1409 1.491 . S
C1404 H1395 0.950 . S
C1404 C1403 1.398 . S
C1404 C1405 1.391 . S
C1405 H1393 0.950 . S
C1405 C1401 1.393 . S
C1405 C1404 1.391 . S
C1406 H1396 0.950 . S
C1406 C1407 1.386 . S
C1406 C1408 1.391 . S
C1407 C1406 1.386 . S
C1407 C1411 1.393 . S
C1408 H1397 0.950 . S
C1408 C1406 1.391 . S
C1408 C1409 1.400 . S
C1409 C1403 1.491 . S
C1409 C1408 1.400 . S
C1409 C1410 1.398 . S
C1410 H1398 0.950 . S
C1410 C1409 1.398 . S
C1410 C1411 1.391 . S
C1411 H1399 0.950 . S
C1411 C1407 1.393 . S
C1411 C1410 1.391 . S
H1412 C1420 0.950 . S
H1413 C1425 0.950 . S
H1414 C1422 0.950 . S
H1415 C1424 0.950 . S
H1416 C1426 0.950 1_655 S
H1417 C1428 0.950 . S
H1418 C1430 0.950 . S
H1419 C1431 0.950 . S
C1420 H1412 0.950 . S
C1420 C1421 1.386 . S
C1420 C1422 1.391 . S
C1421 C1420 1.386 . S
C1421 C1425 1.393 . S
C1422 H1414 0.950 . S
C1422 C1420 1.391 . S
C1422 C1423 1.400 . S
C1423 C1422 1.400 . S
C1423 C1424 1.398 . S
C1423 C1429 1.491 . S
C1424 H1415 0.950 . S
C1424 C1423 1.398 . S
C1424 C1425 1.391 . S
C1425 H1413 0.950 . S
C1425 C1421 1.393 . S
C1425 C1424 1.391 . S
C1426 H1416 0.950 1_455 S
C1426 C1427 1.386 . S
C1426 C1428 1.391 . S
C1427 C1426 1.386 . S
C1427 C1431 1.393 . S
C1428 H1417 0.950 . S
C1428 C1426 1.391 . S
C1428 C1429 1.400 . S
C1429 C1423 1.491 . S
C1429 C1428 1.400 . S
C1429 C1430 1.398 . S
C1430 H1418 0.950 . S
C1430 C1429 1.398 . S
C1430 C1431 1.391 . S
C1431 H1419 0.950 . S
C1431 C1427 1.393 . S
C1431 C1430 1.391 . S
H1432 C1440 0.950 . S
H1433 C1445 0.950 . S
H1434 C1442 0.950 . S
H1435 C1444 0.950 . S
H1436 C1446 0.950 . S
H1437 C1448 0.950 . S
H1438 C1450 0.950 . S
H1439 C1451 0.950 . S
C1440 H1432 0.950 . S
C1440 C1441 1.386 . S
C1440 C1442 1.391 . S
C1441 C1440 1.386 . S
C1441 C1445 1.393 . S
C1442 H1434 0.950 . S
C1442 C1440 1.391 . S
C1442 C1443 1.400 . S
C1443 C1442 1.400 . S
C1443 C1444 1.398 . S
C1443 C1449 1.491 . S
C1444 H1435 0.950 . S
C1444 C1443 1.398 . S
C1444 C1445 1.391 . S
C1445 H1433 0.950 . S
C1445 C1441 1.393 . S
C1445 C1444 1.391 . S
C1446 H1436 0.950 . S
C1446 C1447 1.386 . S
C1446 C1448 1.391 . S
C1447 C1446 1.386 . S
C1447 C1451 1.393 . S
C1448 H1437 0.950 . S
C1448 C1446 1.391 . S
C1448 C1449 1.400 . S
C1449 C1443 1.491 . S
C1449 C1448 1.400 . S
C1449 C1450 1.398 . S
C1450 H1438 0.950 . S
C1450 C1449 1.398 . S
C1450 C1451 1.391 . S
C1451 H1439 0.950 . S
C1451 C1447 1.393 . S
C1451 C1450 1.391 . S
H1452 C1460 0.950 . S
H1453 C1465 0.950 . S
H1454 C1462 0.950 . S
H1455 C1464 0.950 . S
H1456 C1466 0.950 . S
H1457 C1468 0.950 . S
H1458 C1470 0.950 . S
H1459 C1471 0.950 1_655 S
C1460 H1452 0.950 . S
C1460 C1461 1.386 . S
C1460 C1462 1.391 . S
C1461 C1460 1.386 . S
C1461 C1465 1.393 . S
C1462 H1454 0.950 . S
C1462 C1460 1.391 . S
C1462 C1463 1.400 . S
C1463 C1462 1.400 . S
C1463 C1464 1.398 . S
C1463 C1469 1.491 . S
C1464 H1455 0.950 . S
C1464 C1463 1.398 . S
C1464 C1465 1.391 . S
C1465 H1453 0.950 . S
C1465 C1461 1.393 . S
C1465 C1464 1.391 . S
C1466 H1456 0.950 . S
C1466 C1467 1.386 . S
C1466 C1468 1.391 . S
C1467 C1466 1.386 . S
C1467 C1471 1.393 . S
C1468 H1457 0.950 . S
C1468 C1466 1.391 . S
C1468 C1469 1.400 . S
C1469 C1463 1.491 . S
C1469 C1468 1.400 . S
C1469 C1470 1.398 . S
C1470 H1458 0.950 . S
C1470 C1469 1.398 . S
C1470 C1471 1.391 . S
C1471 H1459 0.950 1_455 S
C1471 C1467 1.393 . S
C1471 C1470 1.391 . S
H1472 C1480 0.950 . S
H1473 C1485 0.950 . S
H1474 C1482 0.950 . S
H1475 C1484 0.950 . S
H1476 C1486 0.950 . S
H1477 C1488 0.950 . S
H1478 C1490 0.950 . S
H1479 C1491 0.950 . S
C1480 H1472 0.950 . S
C1480 C1481 1.386 . S
C1480 C1482 1.391 . S
C1481 C1480 1.386 . S
C1481 C1485 1.393 . S
C1482 H1474 0.950 . S
C1482 C1480 1.391 . S
C1482 C1483 1.400 . S
C1483 C1482 1.400 . S
C1483 C1484 1.398 . S
C1483 C1489 1.491 . S
C1484 H1475 0.950 . S
C1484 C1483 1.398 . S
C1484 C1485 1.391 . S
C1485 H1473 0.950 . S
C1485 C1481 1.393 . S
C1485 C1484 1.391 . S
C1486 H1476 0.950 . S
C1486 C1487 1.386 . S
C1486 C1488 1.391 . S
C1487 C1486 1.386 . S
C1487 C1491 1.393 . S
C1488 H1477 0.950 . S
C1488 C1486 1.391 . S
C1488 C1489 1.400 . S
C1489 C1483 1.491 . S
C1489 C1488 1.400 . S
C1489 C1490 1.398 . S
C1490 H1478 0.950 . S
C1490 C1489 1.398 . S
C1490 C1491 1.391 . S
C1491 H1479 0.950 . S
C1491 C1487 1.393 . S
C1491 C1490 1.391 . S
H1492 C1500 0.950 . S
H1493 C1505 0.950 . S
H1494 C1502 0.950 1_545 S
H1495 C1504 0.950 . S
H1496 C1506 0.950 . S
H1497 C1508 0.950 1_565 S
H1498 C1510 0.950 . S
H1499 C1511 0.950 . S
C1500 H1492 0.950 . S
C1500 C1501 1.386 1_455 S
C1500 C1502 1.391 . S
C1501 C1500 1.386 1_655 S
C1501 C1505 1.393 . S
C1502 H1494 0.950 1_565 S
C1502 C1500 1.391 . S
C1502 C1503 1.394 1_455 S
C1503 C1502 1.394 1_655 S
C1503 C1504 1.405 . S
C1503 C1509 1.490 1_665 S
C1504 H1495 0.950 . S
C1504 C1503 1.405 . S
C1504 C1505 1.391 . S
C1505 H1493 0.950 . S
C1505 C1501 1.393 . S
C1505 C1504 1.391 . S
C1506 H1496 0.950 . S
C1506 C1507 1.386 1_655 S
C1506 C1508 1.391 . S
C1507 C1506 1.386 1_455 S
C1507 C1511 1.393 . S
C1508 H1497 0.950 1_545 S
C1508 C1506 1.391 . S
C1508 C1509 1.394 1_655 S
C1509 C1503 1.490 1_445 S
C1509 C1508 1.394 1_455 S
C1509 C1510 1.405 . S
C1510 H1498 0.950 . S
C1510 C1509 1.405 . S
C1510 C1511 1.391 . S
C1511 H1499 0.950 . S
C1511 C1507 1.393 . S
C1511 C1510 1.391 . S
H1512 C1520 0.950 . S
H1513 C1525 0.950 . S
H1514 C1522 0.950 . S
H1515 C1524 0.950 . S
H1516 C1526 0.950 . S
H1517 C1528 0.950 . S
H1518 C1530 0.950 . S
H1519 C1531 0.950 . S
C1520 H1512 0.950 . S
C1520 C1521 1.386 . S
C1520 C1522 1.391 . S
C1521 C1520 1.386 . S
C1521 C1525 1.393 . S
C1522 H1514 0.950 . S
C1522 C1520 1.391 . S
C1522 C1523 1.400 . S
C1523 C1522 1.400 . S
C1523 C1524 1.398 . S
C1523 C1529 1.491 1_565 S
C1524 H1515 0.950 . S
C1524 C1523 1.398 . S
C1524 C1525 1.391 . S
C1525 H1513 0.950 . S
C1525 C1521 1.393 . S
C1525 C1524 1.391 . S
C1526 H1516 0.950 . S
C1526 C1527 1.386 . S
C1526 C1528 1.391 . S
C1527 C1526 1.386 . S
C1527 C1531 1.393 . S
C1528 H1517 0.950 . S
C1528 C1526 1.391 . S
C1528 C1529 1.400 . S
C1529 C1523 1.491 1_545 S
C1529 C1528 1.400 . S
C1529 C1530 1.398 . S
C1530 H1518 0.950 . S
C1530 C1529 1.398 . S
C1530 C1531 1.391 . S
C1531 H1519 0.950 . S
C1531 C1527 1.393 . S
C1531 C1530 1.391 . S
H1532 C1540 0.950 . S
H1533 C1545 0.950 . S
H1534 C1542 0.950 . S
H1535 C1544 0.950 . S
H1536 C1546 0.950 . S
H1537 C1548 0.950 . S
H1538 C1550 0.950 . S
H1539 C1551 0.950 . S
C1540 H1532 0.950 . S
C1540 C1541 1.386 . S
C1540 C1542 1.391 . S
C1541 C1540 1.386 . S
C1541 C1545 1.393 1_455 S
C1542 H1534 0.950 . S
C1542 C1540 1.391 . S
C1542 C1543 1.406 . S
C1543 C1542 1.406 . S
C1543 C1544 1.393 1_455 S
C1543 C1549 1.490 1_455 S
C1544 H1535 0.950 . S
C1544 C1543 1.393 1_655 S
C1544 C1545 1.391 . S
C1545 H1533 0.950 . S
C1545 C1541 1.393 1_655 S
C1545 C1544 1.391 . S
C1546 H1536 0.950 . S
C1546 C1547 1.386 . S
C1546 C1548 1.391 . S
C1547 C1546 1.386 . S
C1547 C1551 1.393 1_655 S
C1548 H1537 0.950 . S
C1548 C1546 1.391 . S
C1548 C1549 1.406 . S
C1549 C1543 1.490 1_655 S
C1549 C1548 1.406 . S
C1549 C1550 1.393 1_655 S
C1550 H1538 0.950 . S
C1550 C1549 1.393 1_455 S
C1550 C1551 1.391 . S
C1551 H1539 0.950 . S
C1551 C1547 1.393 1_455 S
C1551 C1550 1.391 . S
H1552 C1560 0.950 . S
H1553 C1565 0.950 . S
H1554 C1562 0.950 . S
H1555 C1564 0.950 . S
H1556 C1566 0.950 . S
H1557 C1568 0.950 . S
H1558 C1570 0.950 . S
H1559 C1571 0.950 . S
C1560 H1552 0.950 . S
C1560 C1561 1.386 . S
C1560 C1562 1.391 . S
C1561 C1560 1.386 . S
C1561 C1565 1.393 . S
C1562 H1554 0.950 . S
C1562 C1560 1.391 . S
C1562 C1563 1.400 . S
C1563 C1562 1.400 . S
C1563 C1564 1.398 . S
C1563 C1569 1.491 . S
C1564 H1555 0.950 . S
C1564 C1563 1.398 . S
C1564 C1565 1.391 . S
C1565 H1553 0.950 . S
C1565 C1561 1.393 . S
C1565 C1564 1.391 . S
C1566 H1556 0.950 . S
C1566 C1567 1.386 . S
C1566 C1568 1.391 . S
C1567 C1566 1.386 . S
C1567 C1571 1.393 . S
C1568 H1557 0.950 . S
C1568 C1566 1.391 . S
C1568 C1569 1.400 . S
C1569 C1563 1.491 . S
C1569 C1568 1.400 . S
C1569 C1570 1.398 . S
C1570 H1558 0.950 . S
C1570 C1569 1.398 . S
C1570 C1571 1.391 . S
C1571 H1559 0.950 . S
C1571 C1567 1.393 . S
C1571 C1570 1.391 . S
H1572 C1580 0.950 . S
H1573 C1585 0.950 . S
H1574 C1582 0.950 1_545 S
H1575 C1584 0.950 . S
H1576 C1586 0.950 . S
H1577 C1588 0.950 1_565 S
H1578 C1590 0.950 . S
H1579 C1591 0.950 . S
C1580 H1572 0.950 . S
C1580 C1581 1.386 . S
C1580 C1582 1.391 . S
C1581 C1580 1.386 . S
C1581 C1585 1.393 . S
C1582 H1574 0.950 1_565 S
C1582 C1580 1.391 . S
C1582 C1583 1.400 . S
C1583 C1582 1.400 . S
C1583 C1584 1.398 . S
C1583 C1589 1.491 1_565 S
C1584 H1575 0.950 . S
C1584 C1583 1.398 . S
C1584 C1585 1.391 . S
C1585 H1573 0.950 . S
C1585 C1581 1.393 . S
C1585 C1584 1.391 . S
C1586 H1576 0.950 . S
C1586 C1587 1.386 . S
C1586 C1588 1.391 . S
C1587 C1586 1.386 . S
C1587 C1591 1.393 . S
C1588 H1577 0.950 1_545 S
C1588 C1586 1.391 . S
C1588 C1589 1.400 . S
C1589 C1583 1.491 1_545 S
C1589 C1588 1.400 . S
C1589 C1590 1.398 . S
C1590 H1578 0.950 . S
C1590 C1589 1.398 . S
C1590 C1591 1.391 . S
C1591 H1579 0.950 . S
C1591 C1587 1.393 . S
C1591 C1590 1.391 . S
H1592 C1600 0.950 . S
H1593 C1605 0.950 . S
H1594 C1602 0.950 . S
H1595 C1604 0.950 . S
H1596 C1606 0.950 . S
H1597 C1608 0.950 . S
H1598 C1610 0.950 . S
H1599 C1611 0.950 . S
C1600 H1592 0.950 . S
C1600 C1601 1.386 . S
C1600 C1602 1.391 . S
C1601 C1600 1.386 . S
C1601 C1605 1.393 1_455 S
C1602 H1594 0.950 . S
C1602 C1600 1.391 . S
C1602 C1603 1.401 1_455 S
C1603 C1602 1.401 1_655 S
C1603 C1604 1.397 . S
C1603 C1609 1.491 1_655 S
C1604 H1595 0.950 . S
C1604 C1603 1.397 . S
C1604 C1605 1.391 . S
C1605 H1593 0.950 . S
C1605 C1601 1.393 1_655 S
C1605 C1604 1.391 . S
C1606 H1596 0.950 . S
C1606 C1607 1.386 . S
C1606 C1608 1.391 . S
C1607 C1606 1.386 . S
C1607 C1611 1.393 1_655 S
C1608 H1597 0.950 . S
C1608 C1606 1.391 . S
C1608 C1609 1.401 1_655 S
C1609 C1603 1.491 1_455 S
C1609 C1608 1.401 1_455 S
C1609 C1610 1.397 . S
C1610 H1598 0.950 . S
C1610 C1609 1.397 . S
C1610 C1611 1.391 . S
C1611 H1599 0.950 . S
C1611 C1607 1.393 1_455 S
C1611 C1610 1.391 . S
H1612 C1620 0.950 . S
H1613 C1625 0.950 . S
H1614 C1622 0.950 . S
H1615 C1624 0.925 1_556 S
H1616 C1626 0.950 . S
H1617 C1628 0.950 . S
H1618 C1630 0.925 1_554 S
H1619 C1631 0.950 . S
C1620 H1612 0.950 . S
C1620 C1621 1.386 . S
C1620 C1622 1.391 . S
C1621 C1620 1.386 . S
C1621 C1625 1.393 . S
C1622 H1614 0.950 . S
C1622 C1620 1.391 . S
C1622 C1623 1.400 . S
C1623 C1622 1.400 . S
C1623 C1624 1.398 . S
C1623 C1629 1.491 1_554 S
C1624 H1615 0.925 1_554 S
C1624 C1623 1.398 . S
C1624 C1625 1.391 . S
C1625 H1613 0.950 . S
C1625 C1621 1.393 . S
C1625 C1624 1.391 . S
C1626 H1616 0.950 . S
C1626 C1627 1.386 . S
C1626 C1628 1.391 . S
C1627 C1626 1.386 . S
C1627 C1631 1.393 . S
C1628 H1617 0.950 . S
C1628 C1626 1.391 . S
C1628 C1629 1.400 . S
C1629 C1623 1.491 1_556 S
C1629 C1628 1.400 . S
C1629 C1630 1.398 . S
C1630 H1618 0.925 1_556 S
C1630 C1629 1.398 . S
C1630 C1631 1.391 . S
C1631 H1619 0.950 . S
C1631 C1627 1.393 . S
C1631 C1630 1.391 . S
H1632 C1640 0.950 . S
H1633 C1645 0.950 . S
H1634 C1642 0.950 . S
H1635 C1644 0.950 1_554 S
H1636 C1646 0.950 . S
H1637 C1648 0.950 . S
H1638 C1650 0.950 1_556 S
H1639 C1651 0.950 . S
C1640 H1632 0.950 . S
C1640 C1641 1.386 . S
C1640 C1642 1.391 . S
C1641 C1640 1.386 . S
C1641 C1645 1.393 1_455 S
C1642 H1634 0.950 . S
C1642 C1640 1.391 . S
C1642 C1643 1.400 . S
C1643 C1642 1.400 . S
C1643 C1644 1.398 1_455 S
C1643 C1649 1.491 1_456 S
C1644 H1635 0.950 1_556 S
C1644 C1643 1.398 1_655 S
C1644 C1645 1.391 . S
C1645 H1633 0.950 . S
C1645 C1641 1.393 1_655 S
C1645 C1644 1.391 . S
C1646 H1636 0.950 . S
C1646 C1647 1.386 . S
C1646 C1648 1.391 . S
C1647 C1646 1.386 . S
C1647 C1651 1.393 1_655 S
C1648 H1637 0.950 . S
C1648 C1646 1.391 . S
C1648 C1649 1.400 . S
C1649 C1643 1.491 1_654 S
C1649 C1648 1.400 . S
C1649 C1650 1.398 1_655 S
C1650 H1638 0.950 1_554 S
C1650 C1649 1.398 1_455 S
C1650 C1651 1.391 . S
C1651 H1639 0.950 . S
C1651 C1647 1.393 1_455 S
C1651 C1650 1.391 . S
H1652 C1660 0.950 . S
H1653 C1665 0.950 . S
H1654 C1662 0.950 . S
H1655 C1664 0.950 . S
H1656 C1666 0.950 . S
H1657 C1668 0.950 . S
H1658 C1670 0.950 . S
H1659 C1671 0.950 . S
C1660 H1652 0.950 . S
C1660 C1661 1.386 . S
C1660 C1662 1.391 . S
C1661 C1660 1.386 . S
C1661 C1665 1.393 . S
C1662 H1654 0.950 . S
C1662 C1660 1.391 . S
C1662 C1663 1.400 . S
C1663 C1662 1.400 . S
C1663 C1664 1.398 . S
C1663 C1669 1.491 . S
C1664 H1655 0.950 . S
C1664 C1663 1.398 . S
C1664 C1665 1.391 . S
C1665 H1653 0.950 . S
C1665 C1661 1.393 . S
C1665 C1664 1.391 . S
C1666 H1656 0.950 . S
C1666 C1667 1.386 . S
C1666 C1668 1.391 . S
C1667 C1666 1.386 . S
C1667 C1671 1.393 . S
C1668 H1657 0.950 . S
C1668 C1666 1.391 . S
C1668 C1669 1.400 . S
C1669 C1663 1.491 . S
C1669 C1668 1.400 . S
C1669 C1670 1.398 . S
C1670 H1658 0.950 . S
C1670 C1669 1.398 . S
C1670 C1671 1.391 . S
C1671 H1659 0.950 . S
C1671 C1667 1.393 . S
C1671 C1670 1.391 . S
H1672 C1680 0.950 . S
H1673 C1685 0.950 . S
H1674 C1682 0.933 1_554 S
H1675 C1684 0.950 . S
H1676 C1686 0.950 . S
H1677 C1688 0.933 1_556 S
H1678 C1690 0.950 . S
H1679 C1691 0.950 . S
C1680 H1672 0.950 . S
C1680 C1681 1.386 . S
C1680 C1682 1.391 . S
C1681 C1680 1.386 . S
C1681 C1685 1.393 . S
C1682 H1674 0.933 1_556 S
C1682 C1680 1.391 . S
C1682 C1683 1.400 . S
C1683 C1682 1.400 . S
C1683 C1684 1.398 . S
C1683 C1689 1.491 1_556 S
C1684 H1675 0.950 . S
C1684 C1683 1.398 . S
C1684 C1685 1.391 . S
C1685 H1673 0.950 . S
C1685 C1681 1.393 . S
C1685 C1684 1.391 . S
C1686 H1676 0.950 . S
C1686 C1687 1.386 . S
C1686 C1688 1.391 . S
C1687 C1686 1.386 . S
C1687 C1691 1.393 . S
C1688 H1677 0.933 1_554 S
C1688 C1686 1.391 . S
C1688 C1689 1.400 . S
C1689 C1683 1.491 1_554 S
C1689 C1688 1.400 . S
C1689 C1690 1.398 . S
C1690 H1678 0.950 . S
C1690 C1689 1.398 . S
C1690 C1691 1.391 . S
C1691 H1679 0.950 . S
C1691 C1687 1.393 . S
C1691 C1690 1.391 . S
H1692 C1700 0.950 . S
H1693 C1705 0.950 . S
H1694 C1702 0.950 . S
H1695 C1704 0.950 . S
H1696 C1706 0.950 . S
H1697 C1708 0.950 . S
H1698 C1710 0.950 . S
H1699 C1711 0.950 . S
C1700 H1692 0.950 . S
C1700 C1701 1.386 . S
C1700 C1702 1.391 . S
C1701 C1700 1.386 . S
C1701 C1705 1.393 . S
C1702 H1694 0.950 . S
C1702 C1700 1.391 . S
C1702 C1703 1.400 . S
C1703 C1702 1.400 . S
C1703 C1704 1.398 . S
C1703 C1709 1.491 . S
C1704 H1695 0.950 . S
C1704 C1703 1.398 . S
C1704 C1705 1.391 . S
C1705 H1693 0.950 . S
C1705 C1701 1.393 . S
C1705 C1704 1.391 . S
C1706 H1696 0.950 . S
C1706 C1707 1.386 . S
C1706 C1708 1.391 . S
C1707 C1706 1.386 . S
C1707 C1711 1.393 . S
C1708 H1697 0.950 . S
C1708 C1706 1.391 . S
C1708 C1709 1.400 . S
C1709 C1703 1.491 . S
C1709 C1708 1.400 . S
C1709 C1710 1.398 . S
C1710 H1698 0.950 . S
C1710 C1709 1.398 . S
C1710 C1711 1.391 . S
C1711 H1699 0.950 . S
C1711 C1707 1.393 . S
C1711 C1710 1.391 . S
H1712 C1720 0.950 . S
H1713 C1725 0.950 . S
H1714 C1722 0.950 . S
H1715 C1724 0.950 . S
H1716 C1726 0.950 . S
H1717 C1728 0.950 . S
H1718 C1730 0.950 . S
H1719 C1731 0.950 . S
C1720 H1712 0.950 . S
C1720 C1721 1.386 . S
C1720 C1722 1.391 . S
C1721 C1720 1.386 . S
C1721 C1725 1.393 . S
C1722 H1714 0.950 . S
C1722 C1720 1.391 . S
C1722 C1723 1.400 . S
C1723 C1722 1.400 . S
C1723 C1724 1.398 . S
C1723 C1729 1.491 1_546 S
C1724 H1715 0.950 . S
C1724 C1723 1.398 . S
C1724 C1725 1.391 . S
C1725 H1713 0.950 . S
C1725 C1721 1.393 . S
C1725 C1724 1.391 . S
C1726 H1716 0.950 . S
C1726 C1727 1.386 . S
C1726 C1728 1.391 . S
C1727 C1726 1.386 . S
C1727 C1731 1.393 . S
C1728 H1717 0.950 . S
C1728 C1726 1.391 . S
C1728 C1729 1.400 . S
C1729 C1723 1.491 1_564 S
C1729 C1728 1.400 . S
C1729 C1730 1.398 . S
C1730 H1718 0.950 . S
C1730 C1729 1.398 . S
C1730 C1731 1.391 . S
C1731 H1719 0.950 . S
C1731 C1727 1.393 . S
C1731 C1730 1.391 . S
H1732 C1740 0.950 . S
H1733 C1745 0.950 . S
H1734 C1742 0.950 . S
H1735 C1744 0.950 . S
H1736 C1746 0.950 . S
H1737 C1748 0.950 . S
H1738 C1750 0.950 . S
H1739 C1751 0.950 . S
C1740 H1732 0.950 . S
C1740 C1741 1.386 . S
C1740 C1742 1.391 . S
C1741 C1740 1.386 . S
C1741 C1745 1.393 . S
C1742 H1734 0.950 . S
C1742 C1740 1.391 . S
C1742 C1743 1.400 . S
C1743 C1742 1.400 . S
C1743 C1744 1.398 . S
C1743 C1749 1.491 . S
C1744 H1735 0.950 . S
C1744 C1743 1.398 . S
C1744 C1745 1.391 . S
C1745 H1733 0.950 . S
C1745 C1741 1.393 . S
C1745 C1744 1.391 . S
C1746 H1736 0.950 . S
C1746 C1747 1.386 . S
C1746 C1748 1.391 . S
C1747 C1746 1.386 . S
C1747 C1751 1.393 . S
C1748 H1737 0.950 . S
C1748 C1746 1.391 . S
C1748 C1749 1.400 . S
C1749 C1743 1.491 . S
C1749 C1748 1.400 . S
C1749 C1750 1.398 . S
C1750 H1738 0.950 . S
C1750 C1749 1.398 . S
C1750 C1751 1.391 . S
C1751 H1739 0.950 . S
C1751 C1747 1.393 . S
C1751 C1750 1.391 . S
H1752 C1760 0.950 . S
H1753 C1765 0.950 . S
H1754 C1762 0.950 . S
H1755 C1764 0.950 . S
H1756 C1766 0.950 . S
H1757 C1768 0.950 . S
H1758 C1770 0.950 . S
H1759 C1771 0.950 . S
C1760 H1752 0.950 . S
C1760 C1761 1.386 . S
C1760 C1762 1.391 . S
C1761 C1760 1.386 . S
C1761 C1765 1.393 . S
C1762 H1754 0.950 . S
C1762 C1760 1.391 . S
C1762 C1763 1.400 . S
C1763 C1762 1.400 . S
C1763 C1764 1.398 . S
C1763 C1769 1.491 . S
C1764 H1755 0.950 . S
C1764 C1763 1.398 . S
C1764 C1765 1.391 . S
C1765 H1753 0.950 . S
C1765 C1761 1.393 . S
C1765 C1764 1.391 . S
C1766 H1756 0.950 . S
C1766 C1767 1.386 . S
C1766 C1768 1.391 . S
C1767 C1766 1.386 . S
C1767 C1771 1.393 . S
C1768 H1757 0.950 . S
C1768 C1766 1.391 . S
C1768 C1769 1.400 . S
C1769 C1763 1.491 . S
C1769 C1768 1.400 . S
C1769 C1770 1.398 . S
C1770 H1758 0.950 . S
C1770 C1769 1.398 . S
C1770 C1771 1.391 . S
C1771 H1759 0.950 . S
C1771 C1767 1.393 . S
C1771 C1770 1.391 . S
H1772 C1780 0.950 . S
H1773 C1785 0.950 . S
H1774 C1782 0.950 . S
H1775 C1784 0.950 . S
H1776 C1786 0.950 . S
H1777 C1788 0.950 . S
H1778 C1790 0.950 . S
H1779 C1791 0.950 . S
C1780 H1772 0.950 . S
C1780 C1781 1.386 . S
C1780 C1782 1.391 . S
C1781 C1780 1.386 . S
C1781 C1785 1.393 . S
C1782 H1774 0.950 . S
C1782 C1780 1.391 . S
C1782 C1783 1.400 . S
C1783 C1782 1.400 . S
C1783 C1784 1.398 . S
C1783 C1789 1.491 . S
C1784 H1775 0.950 . S
C1784 C1783 1.398 . S
C1784 C1785 1.391 . S
C1785 H1773 0.950 . S
C1785 C1781 1.393 . S
C1785 C1784 1.391 . S
C1786 H1776 0.950 . S
C1786 C1787 1.386 . S
C1786 C1788 1.391 . S
C1787 C1786 1.386 . S
C1787 C1791 1.393 . S
C1788 H1777 0.950 . S
C1788 C1786 1.391 . S
C1788 C1789 1.400 . S
C1789 C1783 1.491 . S
C1789 C1788 1.400 . S
C1789 C1790 1.398 . S
C1790 H1778 0.950 . S
C1790 C1789 1.398 . S
C1790 C1791 1.391 . S
C1791 H1779 0.950 . S
C1791 C1787 1.393 . S
C1791 C1790 1.391 . S
C521 C8 1.347 . S
C527 C411 1.347 . S
C541 C27 1.342 . S
C547 C392 1.342 . S
C561 C59 1.346 . S
C567 C424 1.346 . S
C581 C40 1.338 1_655 S
C587 C443 1.349 . S
C601 C479 1.348 . S
C607 C87 1.348 . S
C621 C95 1.345 . S
C627 C471 1.345 . S
C641 C113 1.342 . S
C647 C504 1.342 . S
C661 C120 1.358 . S
C667 C497 1.349 . S
C681 C283 1.352 . S
C687 C136 1.352 . S
C701 C264 1.347 . S
C707 C155 1.347 . S
C721 C296 1.350 . S
C727 C187 1.350 . S
C741 C315 1.350 . S
C747 C168 1.335 1_655 S
C761 C351 1.351 . S
C767 C215 1.351 . S
C781 C223 1.348 . S
C787 C343 1.348 . S
C801 C376 1.349 . S
C807 C241 1.349 . S
C821 C248 1.340 1_455 S
C827 C369 1.348 . S
C841 C30 1.184 1_565 S
C847 C406 1.184 . S
C861 C22 1.188 1_655 S
C867 C414 1.188 . S
C881 C54 1.177 . S
C887 C446 1.177 . S
C901 C438 1.166 . S
C907 C62 1.166 1_665 S
C921 C472 1.191 . S
C927 C81 1.191 1_545 S
C941 C465 1.161 . S
C947 C88 1.161 1_455 S
C961 C511 1.169 . S
C967 C119 1.169 . S
C981 C503 1.176 . S
C987 C127 1.176 1_445 S
C1001 C158 1.162 . S
C1007 C278 1.162 . S
C1021 C150 1.192 1_655 S
C1027 C286 1.192 1_565 S
C1041 C182 1.188 . S
C1047 C318 1.188 1_565 S
C1061 C190 1.183 1_655 S
C1067 C310 1.183 . S
C1081 C344 1.160 . S
C1087 C209 1.160 . S
C1101 C337 1.189 1_545 S
C1107 C216 1.189 1_455 S
C1121 C383 1.164 1_545 S
C1127 C247 1.164 . S
C1141 C255 1.172 1_455 S
C1147 C375 1.172 . S
C1161 C31 1.632 . S
C1167 C319 1.633 . S
C1181 C305 1.614 . S
C1187 C17 1.621 1_655 S
C1201 C273 1.619 . S
C1207 C49 1.626 . S
C1221 C287 1.623 . S
C1227 C63 1.622 1_655 S
C1241 C382 1.630 . S
C1247 C86 1.633 . S
C1261 C72 1.614 1_455 S
C1267 C379 1.617 . S
C1281 C123 1.616 . S
C1287 C328 1.610 . S
C1301 C126 1.622 1_455 S
C1307 C342 1.623 . S
C1321 C447 1.631 . S
C1327 C159 1.631 . S
C1341 C145 1.610 1_655 S
C1347 C433 1.613 . S
C1361 C177 1.619 . S
C1367 C401 1.612 . S
C1381 C415 1.628 . S
C1387 C191 1.629 1_655 S
C1401 C510 1.618 . S
C1407 C214 1.619 . S
C1421 C507 1.632 . S
C1427 C200 1.630 1_455 S
C1441 C456 1.617 . S
C1447 C251 1.619 . S
C1461 C470 1.618 . S
C1467 C254 1.611 1_455 S
C1481 C475 1.721 . S
C1487 C24 1.721 . S
C1501 C94 1.686 . S
C1507 C23 1.686 . S
C1521 C374 1.737 . S
C1527 C55 1.668 . S
C1541 C56 1.751 . S
C1547 C232 1.688 . S
C1561 C408 1.721 . S
C1567 C91 1.721 . S
C1581 C118 1.756 . S
C1587 C311 1.693 . S
C1601 C184 1.756 . S
C1607 C104 1.693 . S
C1621 C347 1.749 . S
C1627 C152 1.749 . S
C1641 C151 1.658 . S
C1647 C222 1.658 . S
C1661 C183 1.667 . S
C1667 C502 1.730 . S
C1681 C280 1.746 . S
C1687 C219 1.746 . S
C1701 C439 1.681 . S
C1707 C246 1.743 . S
C1721 C279 1.687 . S
C1727 C350 1.687 . S
C1741 C312 1.755 . S
C1747 C488 1.689 . S
C1761 C440 1.752 . S
C1767 C360 1.690 . S
C1781 C478 1.655 . S
C1787 C407 1.655 . S
