# Generated by pormake.
# Topology zfr, (5)-cn, num edge types: 1
# Building blocks:
#     Node 0, Type 0, BuildingBlock: XOMCOT_clean_sbu_1, # of connection points: 5
#     Node 1, Type 0, BuildingBlock: XOMCOT_clean_sbu_1, # of connection points: 5
#     Node 2, Type 0, BuildingBlock: XOMCOT_clean_sbu_1, # of connection points: 5
#     Node 3, Type 0, BuildingBlock: XOMCOT_clean_sbu_1, # of connection points: 5
#     Node 4, Type 0, BuildingBlock: XOMCOT_clean_sbu_1, # of connection points: 5
#     Node 5, Type 0, BuildingBlock: XOMCOT_clean_sbu_1, # of connection points: 5
#     Node 6, Type 0, BuildingBlock: XOMCOT_clean_sbu_1, # of connection points: 5
#     Node 7, Type 0, BuildingBlock: XOMCOT_clean_sbu_1, # of connection points: 5
#     Edge 8, Type (0, 0), BuildingBlock: AJUNOK_clean_linker_0, # of connection points: 2
#     Edge 9, Type (0, 0), BuildingBlock: AJUNOK_clean_linker_0, # of connection points: 2
#     Edge 10, Type (0, 0), BuildingBlock: AJUNOK_clean_linker_0, # of connection points: 2
#     Edge 11, Type (0, 0), BuildingBlock: AJUNOK_clean_linker_0, # of connection points: 2
#     Edge 12, Type (0, 0), BuildingBlock: AJUNOK_clean_linker_0, # of connection points: 2
#     Edge 13, Type (0, 0), BuildingBlock: AJUNOK_clean_linker_0, # of connection points: 2
#     Edge 14, Type (0, 0), BuildingBlock: AJUNOK_clean_linker_0, # of connection points: 2
#     Edge 15, Type (0, 0), BuildingBlock: AJUNOK_clean_linker_0, # of connection points: 2
#     Edge 16, Type (0, 0), BuildingBlock: AJUNOK_clean_linker_0, # of connection points: 2
#     Edge 17, Type (0, 0), BuildingBlock: AJUNOK_clean_linker_0, # of connection points: 2
#     Edge 18, Type (0, 0), BuildingBlock: AJUNOK_clean_linker_0, # of connection points: 2
#     Edge 19, Type (0, 0), BuildingBlock: AJUNOK_clean_linker_0, # of connection points: 2
#     Edge 20, Type (0, 0), BuildingBlock: AJUNOK_clean_linker_0, # of connection points: 2
#     Edge 21, Type (0, 0), BuildingBlock: AJUNOK_clean_linker_0, # of connection points: 2
#     Edge 22, Type (0, 0), BuildingBlock: AJUNOK_clean_linker_0, # of connection points: 2
#     Edge 23, Type (0, 0), BuildingBlock: AJUNOK_clean_linker_0, # of connection points: 2
#     Edge 24, Type (0, 0), BuildingBlock: AJUNOK_clean_linker_0, # of connection points: 2
#     Edge 25, Type (0, 0), BuildingBlock: AJUNOK_clean_linker_0, # of connection points: 2
#     Edge 26, Type (0, 0), BuildingBlock: AJUNOK_clean_linker_0, # of connection points: 2
#     Edge 27, Type (0, 0), BuildingBlock: AJUNOK_clean_linker_0, # of connection points: 2
# Relax obj value: 0.198
# Max RMSD: 0.181
# Mean RMSD: 0.181
data_MOF--net-zfr--node1-XOMCOT_clean_sbu_1--edge1-AJUNOK_clean_linker_0
_symmetry_space_group_name_H-M    P1
_symmetry_Int_Tables_number       1
_symmetry_cell_setting            triclinic
loop_
_symmetry_equiv_pos_as_xyz
'x, y, z'
_cell_length_a     38.662939
_cell_length_b     38.669114
_cell_length_c     13.310609
_cell_angle_alpha  89.874815
_cell_angle_beta   90.100135
_cell_angle_gamma 89.786924
loop_
_atom_site_label
_atom_site_type_symbol
_atom_site_fract_x
_atom_site_fract_y
_atom_site_fract_z
_atom_type_partial_charge
C0 C 0.16186 0.3437 0.12857 0.0
C1 C 0.16438 0.3448 0.02526 0.0
N2 N 0.14313 0.32068 0.98671 0.0
N3 N 0.1387 0.31932 0.15514 0.0
C4 C 0.12895 0.30485 0.06702 0.0
H5 H 0.17468 0.36093 0.18028 0.0
Co6 Co 0.11819 0.31247 0.28165 0.0
C7 C 0.04316 0.29399 0.20972 0.0
O8 O 0.02533 0.29616 0.29336 0.0
N9 N 0.09828 0.30506 0.40935 0.0
C10 C 0.07835 0.27613 0.54205 0.0
C11 C 0.07931 0.27758 0.43863 0.0
C12 C 0.10891 0.31952 0.49668 0.0
N13 N 0.09715 0.30252 0.57853 0.0
O14 O 0.13448 0.26519 0.28308 0.0
H15 H 0.06972 0.25781 0.38862 0.0
H16 H 0.12813 0.33962 0.50069 0.0
O17 O 0.07565 0.29991 0.21016 0.0
C18 C 0.15971 0.26249 0.34476 0.0
O19 O 0.17132 0.29063 0.38823 0.0
N20 N 0.10538 0.35964 0.28525 0.0
C21 C 0.0987 0.43169 0.29454 0.0
C22 C 0.07354 0.41157 0.24604 0.0
C23 C 0.07738 0.37549 0.24195 0.0
C24 C 0.12988 0.3789 0.33267 0.0
C25 C 0.12693 0.41475 0.33905 0.0
H26 H 0.05835 0.36089 0.20117 0.0
H27 H 0.1526 0.36631 0.36324 0.0
H28 H 0.10992 0.28453 0.06101 0.0
H29 H 0.17966 0.36285 0.98191 0.0
H30 H 0.06661 0.25593 0.58674 0.0
H31 H 0.05181 0.42366 0.20819 0.0
H32 H 0.14707 0.42917 0.37685 0.0
C33 C 0.68387 0.17118 0.3516 0.0
C34 C 0.68383 0.17476 0.2483 0.0
N35 N 0.70014 0.14712 0.2093 0.0
N36 N 0.70009 0.1414 0.37655 0.0
C37 C 0.71024 0.12776 0.28806 0.0
H38 H 0.67122 0.18813 0.40473 0.0
Co39 Co 0.70247 0.12116 0.50366 0.0
C40 C 0.69981 0.04679 0.44218 0.0
O41 O 0.6758 0.04087 0.50987 0.0
N42 N 0.70595 0.10183 0.63366 0.0
C43 C 0.71991 0.07093 0.76967 0.0
C44 C 0.71929 0.07138 0.66626 0.0
C45 C 0.70084 0.12007 0.71903 0.0
N46 N 0.70827 0.10168 0.80214 0.0
O47 O 0.75038 0.13437 0.51544 0.0
H48 H 0.73002 0.05138 0.6192 0.0
H49 H 0.69279 0.14686 0.72077 0.0
O50 O 0.71439 0.07645 0.43911 0.0
C51 C 0.75008 0.16408 0.55718 0.0
O52 O 0.72005 0.17946 0.57025 0.0
N53 N 0.65404 0.11179 0.49631 0.0
C54 C 0.58176 0.1056 0.49284 0.0
C55 C 0.60194 0.09251 0.41392 0.0
C56 C 0.63799 0.0964 0.41627 0.0
C57 C 0.63439 0.12639 0.56999 0.0
C58 C 0.59856 0.12287 0.57115 0.0
H59 H 0.65284 0.08752 0.35273 0.0
H60 H 0.64606 0.14219 0.62674 0.0
H61 H 0.72335 0.1032 0.2799 0.0
H62 H 0.67096 0.1948 0.20515 0.0
H63 H 0.72975 0.05034 0.81714 0.0
H64 H 0.58997 0.08045 0.34934 0.0
H65 H 0.58406 0.13429 0.63232 0.0
C66 C 0.83409 0.69379 0.5828 0.0
C67 C 0.83045 0.69565 0.47961 0.0
N68 N 0.86182 0.70177 0.43979 0.0
N69 N 0.86763 0.69851 0.60739 0.0
C70 C 0.88368 0.70284 0.51826 0.0
H71 H 0.81369 0.68866 0.63616 0.0
Co72 Co 0.88749 0.69765 0.73591 0.0
C73 C 0.95093 0.7326 0.6495 0.0
O74 O 0.93984 0.76381 0.67133 0.0
N75 N 0.90671 0.69699 0.86384 0.0
C76 C 0.94077 0.69818 0.9984 0.0
C77 C 0.93998 0.69699 0.89489 0.0
C78 C 0.88793 0.69767 0.949 0.0
N79 N 0.9079 0.69869 0.03169 0.0
O80 O 0.87766 0.7464 0.75274 0.0
H81 H 0.96229 0.69632 0.84607 0.0
H82 H 0.85997 0.69791 0.95056 0.0
O83 O 0.93315 0.70633 0.67653 0.0
C84 C 0.84742 0.751 0.78875 0.0
O85 O 0.82732 0.72406 0.80123 0.0
N86 N 0.89418 0.64952 0.72542 0.0
C87 C 0.90188 0.57757 0.72801 0.0
C88 C 0.91851 0.59772 0.65485 0.0
C89 C 0.91382 0.63363 0.6539 0.0
C90 C 0.87669 0.6302 0.79429 0.0
C91 C 0.88046 0.59429 0.79769 0.0
H92 H 0.92548 0.64846 0.59473 0.0
H93 H 0.85961 0.6427 0.84722 0.0
H94 H 0.91122 0.70482 0.50912 0.0
H95 H 0.80675 0.69245 0.43729 0.0
H96 H 0.96365 0.69835 0.0454 0.0
H97 H 0.93513 0.58594 0.59911 0.0
H98 H 0.86637 0.5797 0.85371 0.0
C99 C 0.34317 0.84723 0.86447 0.0
C100 C 0.34416 0.84473 0.76117 0.0
N101 N 0.3206 0.86684 0.72258 0.0
N102 N 0.31943 0.8712 0.89086 0.0
C103 C 0.3052 0.88151 0.80276 0.0
H104 H 0.35996 0.83367 0.91633 0.0
Co105 Co 0.31248 0.89141 0.01746 0.0
C106 C 0.29664 0.96735 0.94627 0.0
O107 O 0.29939 0.98501 0.03003 0.0
N108 N 0.30487 0.91087 0.145 0.0
C109 C 0.27685 0.93247 0.27703 0.0
C110 C 0.27825 0.93127 0.17361 0.0
C111 C 0.31867 0.89943 0.23255 0.0
N112 N 0.30238 0.91234 0.31397 0.0
O113 O 0.26502 0.87659 0.01591 0.0
H114 H 0.25912 0.94207 0.12308 0.0
H115 H 0.33792 0.87924 0.23718 0.0
O116 O 0.30144 0.93464 0.94661 0.0
C117 C 0.26442 0.84784 0.06311 0.0
O118 O 0.29378 0.83473 0.09553 0.0
N119 N 0.35994 0.90241 0.02401 0.0
C120 C 0.4322 0.90451 0.03339 0.0
C121 C 0.41348 0.93105 0.98543 0.0
C122 C 0.3772 0.92946 0.98106 0.0
C123 C 0.37787 0.8769 0.07216 0.0
C124 C 0.41376 0.87774 0.07944 0.0
H125 H 0.36355 0.94931 0.94011 0.0
H126 H 0.36418 0.85486 0.10212 0.0
H127 H 0.28532 0.90116 0.79673 0.0
H128 H 0.36167 0.82876 0.7179 0.0
H129 H 0.25736 0.94552 0.32144 0.0
H130 H 0.42681 0.95208 0.94832 0.0
H131 H 0.42702 0.85701 0.1187 0.0
C132 C 0.16964 0.68103 0.40538 0.0
C133 C 0.17307 0.68065 0.50869 0.0
N134 N 0.14662 0.69885 0.54756 0.0
N135 N 0.14113 0.69938 0.38016 0.0
C136 C 0.12811 0.71037 0.4687 0.0
H137 H 0.18558 0.66702 0.35248 0.0
Co138 Co 0.1208 0.70229 0.25284 0.0
C139 C 0.04705 0.70661 0.32027 0.0
O140 O 0.03853 0.68074 0.26141 0.0
N141 N 0.1013 0.70611 0.12317 0.0
C142 C 0.07036 0.71972 0.987 0.0
C143 C 0.07081 0.71931 0.09038 0.0
C144 C 0.11944 0.70056 0.03788 0.0
N145 N 0.10106 0.70788 0.95462 0.0
O146 O 0.13801 0.74882 0.2365 0.0
H147 H 0.05073 0.73009 0.13697 0.0
H148 H 0.14604 0.69181 0.03646 0.0
O149 O 0.07769 0.71892 0.3169 0.0
C150 C 0.16788 0.7457 0.19653 0.0
O151 O 0.18121 0.71447 0.19014 0.0
N152 N 0.1076 0.6548 0.26415 0.0
C153 C 0.0995 0.58278 0.27715 0.0
C154 C 0.08765 0.60444 0.35436 0.0
C155 C 0.09242 0.64033 0.34709 0.0
C156 C 0.12017 0.63374 0.19057 0.0
C157 C 0.11574 0.59803 0.19437 0.0
H158 H 0.08469 0.6563 0.40952 0.0
H159 H 0.1354 0.64413 0.13037 0.0
H160 H 0.10434 0.72488 0.47691 0.0
H161 H 0.19199 0.66622 0.55193 0.0
H162 H 0.04976 0.72949 0.93943 0.0
H163 H 0.07619 0.59372 0.4217 0.0
H164 H 0.12601 0.58235 0.13394 0.0
C165 C 0.31291 0.17239 0.6516 0.0
C166 C 0.31519 0.17595 0.75462 0.0
N167 N 0.3185 0.14418 0.79625 0.0
N168 N 0.31493 0.13863 0.62814 0.0
C169 C 0.31911 0.12237 0.7173 0.0
H170 H 0.30955 0.19302 0.59741 0.0
Co171 Co 0.31105 0.11828 0.50172 0.0
C172 C 0.29899 0.04263 0.56499 0.0
O173 O 0.31458 0.02839 0.48769 0.0
N174 N 0.30709 0.09842 0.3732 0.0
C175 C 0.28521 0.07394 0.23569 0.0
C176 C 0.28374 0.07529 0.33918 0.0
C177 C 0.32177 0.11124 0.28882 0.0
N178 N 0.30909 0.09673 0.20469 0.0
O179 O 0.2634 0.13353 0.49262 0.0
H180 H 0.26474 0.06246 0.38547 0.0
H181 H 0.33905 0.13312 0.28775 0.0
O182 O 0.29664 0.07554 0.56985 0.0
C183 C 0.25943 0.15845 0.43041 0.0
O184 O 0.28672 0.17075 0.38417 0.0
N185 N 0.35843 0.10704 0.50683 0.0
C186 C 0.43066 0.10316 0.49912 0.0
C187 C 0.41145 0.07767 0.54936 0.0
C188 C 0.37527 0.08024 0.55325 0.0
C189 C 0.37689 0.13268 0.46194 0.0
C190 C 0.4128 0.131 0.45559 0.0
H191 H 0.36144 0.06136 0.59665 0.0
H192 H 0.36348 0.15494 0.43144 0.0
H193 H 0.3219 0.09474 0.72462 0.0
H194 H 0.31464 0.20023 0.79453 0.0
H195 H 0.26799 0.0597 0.18679 0.0
H196 H 0.42429 0.05658 0.58814 0.0
H197 H 0.42648 0.15158 0.41743 0.0
C198 C 0.83797 0.30946 0.91568 0.0
C199 C 0.83433 0.31143 0.01871 0.0
N200 N 0.86605 0.31452 0.0604 0.0
N201 N 0.87177 0.31141 0.89231 0.0
C202 C 0.88795 0.31529 0.98161 0.0
H203 H 0.81734 0.30643 0.86148 0.0
Co204 Co 0.89223 0.30784 0.76569 0.0
C205 C 0.968 0.29606 0.82857 0.0
O206 O 0.982 0.31189 0.75127 0.0
N207 N 0.91199 0.30407 0.63741 0.0
C208 C 0.93658 0.28208 0.50022 0.0
C209 C 0.93553 0.28093 0.60372 0.0
C210 C 0.89848 0.31815 0.55285 0.0
N211 N 0.91313 0.30547 0.46895 0.0
O212 O 0.87769 0.26032 0.75557 0.0
H213 H 0.94883 0.2622 0.65031 0.0
H214 H 0.87616 0.33504 0.55176 0.0
O215 O 0.93512 0.29353 0.83366 0.0
C216 C 0.85096 0.25841 0.69948 0.0
O217 O 0.83725 0.2871 0.66434 0.0
N218 N 0.90288 0.35526 0.77078 0.0
C219 C 0.90726 0.4272 0.75566 0.0
C220 C 0.93253 0.40827 0.80831 0.0
C221 C 0.92973 0.37218 0.81584 0.0
C222 C 0.87706 0.37363 0.72558 0.0
C223 C 0.87888 0.40945 0.71603 0.0
H224 H 0.94875 0.35848 0.85958 0.0
H225 H 0.85468 0.36022 0.69667 0.0
H226 H 0.91556 0.31803 0.98921 0.0
H227 H 0.81005 0.31083 0.05873 0.0
H228 H 0.95111 0.26497 0.4516 0.0
H229 H 0.95427 0.42122 0.84302 0.0
H230 H 0.85794 0.42319 0.67912 0.0
C231 C 0.68882 0.83573 0.16537 0.0
C232 C 0.68934 0.83137 0.26826 0.0
N233 N 0.70461 0.85924 0.30959 0.0
N234 N 0.70366 0.86618 0.14216 0.0
C235 C 0.71371 0.87943 0.23144 0.0
H236 H 0.6771 0.81854 0.11124 0.0
Co237 Co 0.70487 0.887 0.01544 0.0
C238 C 0.69943 0.96063 0.08337 0.0
O239 O 0.67373 0.96628 0.02067 0.0
N240 N 0.70744 0.90686 0.88629 0.0
C241 C 0.72105 0.93749 0.74978 0.0
C242 C 0.71919 0.93779 0.85332 0.0
C243 C 0.70388 0.88801 0.80156 0.0
N244 N 0.71101 0.90614 0.71784 0.0
O245 O 0.75333 0.8756 1.00314 0.0
H246 H 0.72787 0.95869 0.90051 0.0
H247 H 0.69768 0.86076 0.80127 0.0
O248 O 0.71533 0.93157 0.08161 0.0
C249 C 0.75573 0.84561 0.96377 0.0
O250 O 0.72726 0.82785 0.94945 0.0
N251 N 0.65585 0.8949 0.02311 0.0
C252 C 0.58333 0.89956 0.02916 0.0
C253 C 0.60343 0.91049 0.11089 0.0
C254 C 0.63959 0.90732 0.10707 0.0
C255 C 0.63626 0.88298 0.94517 0.0
C256 C 0.60036 0.88603 0.94526 0.0
H257 H 0.65444 0.91433 0.17252 0.0
H258 H 0.64792 0.86966 0.88332 0.0
H259 H 0.72562 0.90447 0.24035 0.0
H260 H 0.67862 0.80973 0.30918 0.0
H261 H 0.72977 0.95838 0.70193 0.0
H262 H 0.59129 0.92033 0.17835 0.0
H263 H 0.58599 0.87707 0.88046 0.0
C264 C 0.21441 0.18214 0.31541 0.0
C265 C 0.22607 0.17635 0.41445 0.0
C266 C 0.18981 0.20796 0.29332 0.0
C267 C 0.17665 0.2292 0.36969 0.0
H268 H 0.22598 0.16804 0.25385 0.0
H269 H 0.18341 0.21323 0.21548 0.0
S270 S 0.19528 0.22149 0.64246 0.0
N271 N 0.21965 0.1913 0.59027 0.0
N272 N 0.17389 0.24016 0.54931 0.0
C273 C 0.18597 0.22173 0.46982 0.0
C274 C 0.21057 0.19515 0.49221 0.0
C275 C 0.802 0.21972 0.73323 0.0
C276 C 0.83255 0.22586 0.67973 0.0
C277 C 0.77671 0.19737 0.6957 0.0
C278 C 0.78097 0.18019 0.60329 0.0
H279 H 0.79634 0.23446 0.80045 0.0
H280 H 0.7526 0.19524 0.73647 0.0
S281 S 0.85795 0.18523 0.43882 0.0
N282 N 0.86703 0.21136 0.53338 0.0
N283 N 0.81946 0.16871 0.46321 0.0
C284 C 0.81257 0.184 0.55272 0.0
C285 C 0.83835 0.20713 0.5908 0.0
C286 C 0.81126 0.80351 0.76855 0.0
C287 C 0.83497 0.7846 0.827 0.0
C288 C 0.78814 0.82697 0.8132 0.0
C289 C 0.78785 0.83224 0.91787 0.0
H290 H 0.80834 0.79777 0.68934 0.0
H291 H 0.7683 0.83874 0.76658 0.0
S292 S 0.84678 0.79121 0.10277 0.0
N293 N 0.8587 0.77473 0.99366 0.0
N294 N 0.81502 0.81864 0.07754 0.0
C295 C 0.81326 0.81564 0.976 0.0
C296 C 0.83689 0.7918 0.93045 0.0
C297 C 0.18656 0.80844 0.19026 0.0
C298 C 0.18685 0.7749 0.14914 0.0
C299 C 0.20963 0.83402 0.15508 0.0
C300 C 0.23293 0.82694 0.07638 0.0
H301 H 0.17025 0.8142 0.25419 0.0
H302 H 0.21094 0.85852 0.19419 0.0
S303 S 0.24062 0.74513 0.93447 0.0
N304 N 0.21035 0.73748 0.01885 0.0
N305 N 0.25262 0.78553 0.95284 0.0
C306 C 0.23146 0.79455 0.03006 0.0
C307 C 0.20864 0.76854 0.06629 0.0
C308 C 0.11453 0.27899 0.74483 0.0
C309 C 0.10813 0.30756 0.68143 0.0
C310 C 0.12634 0.28345 0.84391 0.0
C311 C 0.13248 0.31659 0.88328 0.0
H312 H 0.11096 0.25294 0.71721 0.0
H313 H 0.13101 0.26079 0.88997 0.0
S314 S 0.11625 0.39989 0.75203 0.0
N315 N 0.1065 0.37016 0.66786 0.0
N316 N 0.12877 0.37853 0.8534 0.0
C317 C 0.1256 0.34537 0.82133 0.0
C318 C 0.11344 0.34084 0.72069 0.0
C319 C 0.71578 0.15738 0.0323 0.0
C320 C 0.7007 0.13641 0.10627 0.0
C321 C 0.71816 0.14595 0.93246 0.0
C322 C 0.70554 0.11327 0.9042 0.0
H323 H 0.72638 0.18231 0.05241 0.0
H324 H 0.73046 0.16239 0.8774 0.0
S325 S 0.65868 0.05165 0.06681 0.0
N326 N 0.66973 0.08341 0.14294 0.0
N327 N 0.67424 0.062 0.95535 0.0
C328 C 0.68935 0.09275 0.97692 0.0
C329 C 0.68689 0.10434 0.07805 0.0
C330 C 0.86783 0.68028 0.16524 0.0
C331 C 0.89595 0.70057 0.13368 0.0
C332 C 0.85593 0.68157 0.26467 0.0
C333 C 0.87161 0.70341 0.33553 0.0
H334 H 0.85554 0.66269 0.11316 0.0
H335 H 0.83511 0.66459 0.28701 0.0
S336 S 0.94258 0.76556 0.28575 0.0
N337 N 0.93692 0.7454 0.1778 0.0
N338 N 0.91422 0.74856 0.364 0.0
C339 C 0.89872 0.725 0.30334 0.0
C340 C 0.91102 0.72336 0.20262 0.0
C341 C 0.27896 0.89695 0.48149 0.0
C342 C 0.30745 0.90173 0.41718 0.0
C343 C 0.28342 0.88518 0.58065 0.0
C344 C 0.31648 0.87751 0.61916 0.0
H345 H 0.25295 0.90173 0.45447 0.0
H346 H 0.2608 0.8817 0.62742 0.0
S347 S 0.39974 0.88963 0.48553 0.0
N348 N 0.37002 0.90051 0.40193 0.0
N349 N 0.37839 0.87834 0.58773 0.0
C350 C 0.34523 0.88294 0.55642 0.0
C351 C 0.3407 0.89503 0.45568 0.0
C352 C 0.1454 0.71708 0.82416 0.0
C353 C 0.11257 0.70492 0.85251 0.0
C354 C 0.15689 0.71443 0.72445 0.0
C355 C 0.13572 0.69972 0.65043 0.0
H356 H 0.16185 0.72934 0.87906 0.0
H357 H 0.18203 0.72459 0.70446 0.0
S358 S 0.04971 0.66002 0.6892 0.0
N359 N 0.06052 0.67501 0.80092 0.0
N360 N 0.08187 0.67026 0.61332 0.0
C361 C 0.10328 0.68667 0.67845 0.0
C362 C 0.09171 0.68927 0.77962 0.0
C363 C 0.32849 0.08927 0.03 0.0
C364 C 0.31304 0.10969 0.10421 0.0
C365 C 0.33153 0.10139 0.93092 0.0
C366 C 0.31826 0.13405 0.90144 0.0
H367 H 0.33831 0.06381 0.04898 0.0
H368 H 0.34415 0.08469 0.87712 0.0
S369 S 0.27398 0.19645 0.07092 0.0
N370 N 0.28463 0.1637 0.14458 0.0
N371 N 0.288 0.18597 0.95789 0.0
C372 C 0.30264 0.15462 0.97636 0.0
C373 C 0.30049 0.1425 0.07767 0.0
C374 C 0.92019 0.32537 0.29465 0.0
C375 C 0.90018 0.30919 0.36844 0.0
C376 C 0.90817 0.32825 0.19545 0.0
C377 C 0.87603 0.31419 0.16558 0.0
H378 H 0.94525 0.33587 0.31408 0.0
H379 H 0.92449 0.34141 0.14181 0.0
S380 S 0.81497 0.26768 0.33371 0.0
N381 N 0.8472 0.27903 0.40799 0.0
N382 N 0.82511 0.28231 0.22093 0.0
C383 C 0.85589 0.29779 0.24003 0.0
C384 C 0.86791 0.2957 0.34146 0.0
C385 C 0.73468 0.88893 0.4487 0.0
C386 C 0.70675 0.86883 0.41421 0.0
C387 C 0.73593 0.90121 0.54776 0.0
C388 C 0.70941 0.89362 0.6162 0.0
H389 H 0.75571 0.89532 0.39846 0.0
H390 H 0.7579 0.91648 0.57135 0.0
S391 S 0.62937 0.84446 0.56282 0.0
N392 N 0.65099 0.84366 0.45599 0.0
N393 N 0.65379 0.86619 0.64235 0.0
C394 C 0.68136 0.87364 0.58307 0.0
C395 C 0.67993 0.86134 0.48212 0.0
C396 C 0.03819 0.30796 0.02588 0.0
C397 C 0.02486 0.29109 0.11134 0.0
C398 C 0.02074 0.30752 0.93335 0.0
C399 C 0.98879 0.29059 0.92212 0.0
H400 H 0.06152 0.32316 0.03125 0.0
H401 H 0.03173 0.32205 0.87156 0.0
S402 S 0.94369 0.24039 0.12093 0.0
N403 N 0.97848 0.25559 0.17756 0.0
N404 N 0.94575 0.25427 1.00366 0.0
C405 C 0.97571 0.27252 1.00615 0.0
C406 C 0.99354 0.27311 0.10069 0.0
C407 C 0.67194 0.98568 0.23542 0.0
C408 C 0.70157 0.98209 0.17528 0.0
C409 C 0.67236 0.00541 0.32343 0.0
C410 C 0.7022 0.02332 0.35397 0.0
H411 H 0.64794 0.9734 0.21393 0.0
H412 H 0.64857 0.00762 0.36582 0.0
S413 S 0.78653 0.02305 0.22144 0.0
N414 N 0.76176 0.99767 0.15235 0.0
N415 N 0.76223 0.03641 0.31592 0.0
C416 C 0.73205 0.02021 0.29412 0.0
C417 C 0.73185 0.99914 0.20544 0.0
C418 C 0.00842 0.68764 0.45828 0.0
C419 C 0.02434 0.71491 0.40659 0.0
C420 C 0.98697 0.69376 0.54088 0.0
C421 C 0.97903 0.72749 0.57346 0.0
H422 H 0.01305 0.6611 0.43585 0.0
H423 H 0.97643 0.67157 0.57892 0.0
S424 S 0.0165 0.80803 0.46709 0.0
N425 N 0.03348 0.77685 0.39808 0.0
N426 N 0.99121 0.78878 0.54991 0.0
C427 C 0.99583 0.75511 0.52419 0.0
C428 C 0.01881 0.74871 0.44156 0.0
C429 C 0.31054 0.97219 0.76248 0.0
C430 C 0.29396 0.98581 0.84799 0.0
C431 C 0.31016 0.98969 0.66995 0.0
C432 C 0.29355 0.02195 0.65873 0.0
H433 H 0.32541 0.94853 0.76781 0.0
H434 H 0.32444 0.97843 0.60809 0.0
S435 S 0.2441 0.06785 0.85767 0.0
N436 N 0.25905 0.0328 0.91427 0.0
N437 N 0.25781 0.06559 0.7404 0.0
C438 C 0.27578 0.03533 0.74285 0.0
C439 C 0.27633 0.01747 0.83739 0.0
C440 C 0.12758 0.4886 0.26587 0.0
C441 C 0.09756 0.47023 0.29217 0.0
C442 C 0.12786 0.52476 0.26264 0.0
C443 C 0.09812 0.54433 0.28527 0.0
H444 H 0.15111 0.47488 0.24639 0.0
H445 H 0.15177 0.53752 0.2424 0.0
S446 S 0.01286 0.50899 0.36039 0.0
N447 N 0.03737 0.47439 0.34362 0.0
N448 N 0.03771 0.54261 0.33554 0.0
C449 C 0.06791 0.52642 0.31251 0.0
C450 C 0.06762 0.48937 0.31587 0.0
C451 C 0.52383 0.13356 0.51546 0.0
C452 C 0.54326 0.10386 0.49148 0.0
C453 C 0.48767 0.13285 0.51841 0.0
C454 C 0.4692 0.10244 0.49703 0.0
H455 H 0.53667 0.15776 0.53177 0.0
H456 H 0.47408 0.15638 0.53848 0.0
S457 S 0.50757 0.0176 0.42859 0.0
N458 N 0.54129 0.043 0.44629 0.0
N459 N 0.47307 0.0419 0.44906 0.0
C460 C 0.48819 0.07252 0.47233 0.0
C461 C 0.52521 0.07322 0.46965 0.0
C462 C 0.91222 0.52248 0.82396 0.0
C463 C 0.90601 0.53926 0.7315 0.0
C464 C 0.91395 0.48628 0.83071 0.0
C465 C 0.90925 0.46544 0.74537 0.0
H466 H 0.9154 0.53748 0.89198 0.0
H467 H 0.91783 0.4745 0.90381 0.0
S468 S 0.89425 0.49632 0.48472 0.0
N469 N 0.89629 0.53204 0.55218 0.0
N470 N 0.90018 0.46413 0.56469 0.0
C471 C 0.90413 0.48185 0.65203 0.0
C472 C 0.90242 0.51868 0.64508 0.0
C473 C 0.52695 0.93075 0.0601 0.0
C474 C 0.5448 0.90042 0.0324 0.0
C475 C 0.49055 0.93222 0.05892 0.0
C476 C 0.47073 0.90328 0.03106 0.0
H477 H 0.54122 0.95366 0.08139 0.0
H478 H 0.47783 0.956 0.08112 0.0
S479 S 0.50495 0.81761 0.95308 0.0
N480 N 0.53974 0.84057 0.97878 0.0
N481 N 0.4718 0.84367 0.97321 0.0
C482 C 0.48834 0.87287 1.00323 0.0
C483 C 0.52521 0.87134 1.00482 0.0
loop_
_geom_bond_atom_site_label_1
_geom_bond_atom_site_label_2
_geom_bond_distance
_geom_bond_site_symmetry_2
_ccdc_geom_bond_type
C0 C1 1.351 1_554 S
C0 N3 1.368 . S
C0 H5 0.931 . S
C1 C0 1.351 1_556 S
C1 N2 1.373 . S
C1 H29 0.930 . S
N2 C1 1.373 . S
N2 C4 1.340 . S
N3 C0 1.368 . S
N3 C4 1.321 1_554 S
N3 Co6 2.135 . S
C4 N2 1.340 . S
C4 N3 1.321 1_556 S
C4 H28 0.930 . S
H5 C0 0.931 . S
Co6 N3 2.135 . S
Co6 N9 2.121 . S
Co6 O14 2.055 . S
Co6 O17 2.039 . S
Co6 N20 2.140 . S
C7 O8 1.227 . S
C7 O17 1.265 . S
O8 C7 1.227 . S
N9 Co6 2.121 . S
N9 C11 1.375 . S
N9 C12 1.313 . S
C10 C11 1.338 . S
C10 N13 1.377 . S
C10 H30 0.930 . S
C11 N9 1.375 . S
C11 C10 1.338 . S
C11 H15 0.931 . S
C12 N9 1.313 . S
C12 N13 1.344 . S
C12 H16 0.930 . S
N13 C10 1.377 . S
N13 C12 1.344 . S
O14 Co6 2.055 . S
O14 C18 1.253 . S
H15 C11 0.931 . S
H16 C12 0.930 . S
O17 Co6 2.039 . S
O17 C7 1.265 . S
C18 O14 1.253 . S
C18 O19 1.227 . S
O19 C18 1.227 . S
N20 Co6 2.140 . S
N20 C23 1.346 . S
N20 C24 1.345 . S
C21 C22 1.387 . S
C21 C25 1.391 . S
C22 C21 1.387 . S
C22 C23 1.369 . S
C22 H31 0.929 . S
C23 N20 1.346 . S
C23 C22 1.369 . S
C23 H26 0.928 . S
C24 N20 1.345 . S
C24 C25 1.371 . S
C24 H27 0.931 . S
C25 C21 1.391 . S
C25 C24 1.371 . S
C25 H32 0.930 . S
H26 C23 0.928 . S
H27 C24 0.931 . S
H28 C4 0.930 . S
H29 C1 0.930 . S
H30 C10 0.930 . S
H31 C22 0.929 . S
H32 C25 0.930 . S
C33 C34 1.351 . S
C33 N36 1.368 . S
C33 H38 0.931 . S
C34 C33 1.351 . S
C34 N35 1.373 . S
C34 H62 0.930 . S
N35 C34 1.373 . S
N35 C37 1.340 . S
N36 C33 1.368 . S
N36 C37 1.321 . S
N36 Co39 2.135 . S
C37 N35 1.340 . S
C37 N36 1.321 . S
C37 H61 0.930 . S
H38 C33 0.931 . S
Co39 N36 2.135 . S
Co39 N42 2.121 . S
Co39 O47 2.055 . S
Co39 O50 2.039 . S
Co39 N53 2.140 . S
C40 O41 1.227 . S
C40 O50 1.265 . S
O41 C40 1.227 . S
N42 Co39 2.121 . S
N42 C44 1.375 . S
N42 C45 1.313 . S
C43 C44 1.338 . S
C43 N46 1.377 . S
C43 H63 0.930 . S
C44 N42 1.375 . S
C44 C43 1.338 . S
C44 H48 0.931 . S
C45 N42 1.313 . S
C45 N46 1.344 . S
C45 H49 0.930 . S
N46 C43 1.377 . S
N46 C45 1.344 . S
O47 Co39 2.055 . S
O47 C51 1.253 . S
H48 C44 0.931 . S
H49 C45 0.930 . S
O50 Co39 2.039 . S
O50 C40 1.265 . S
C51 O47 1.253 . S
C51 O52 1.227 . S
O52 C51 1.227 . S
N53 Co39 2.140 . S
N53 C56 1.346 . S
N53 C57 1.345 . S
C54 C55 1.387 . S
C54 C58 1.391 . S
C55 C54 1.387 . S
C55 C56 1.369 . S
C55 H64 0.929 . S
C56 N53 1.346 . S
C56 C55 1.369 . S
C56 H59 0.928 . S
C57 N53 1.345 . S
C57 C58 1.371 . S
C57 H60 0.931 . S
C58 C54 1.391 . S
C58 C57 1.371 . S
C58 H65 0.930 . S
H59 C56 0.928 . S
H60 C57 0.931 . S
H61 C37 0.930 . S
H62 C34 0.930 . S
H63 C43 0.930 . S
H64 C55 0.929 . S
H65 C58 0.930 . S
C66 C67 1.351 . S
C66 N69 1.368 . S
C66 H71 0.931 . S
C67 C66 1.351 . S
C67 N68 1.373 . S
C67 H95 0.930 . S
N68 C67 1.373 . S
N68 C70 1.340 . S
N69 C66 1.368 . S
N69 C70 1.321 . S
N69 Co72 2.135 . S
C70 N68 1.340 . S
C70 N69 1.321 . S
C70 H94 0.930 . S
H71 C66 0.931 . S
Co72 N69 2.135 . S
Co72 N75 2.121 . S
Co72 O80 2.055 . S
Co72 O83 2.039 . S
Co72 N86 2.140 . S
C73 O74 1.227 . S
C73 O83 1.265 . S
O74 C73 1.227 . S
N75 Co72 2.121 . S
N75 C77 1.375 . S
N75 C78 1.313 . S
C76 C77 1.338 . S
C76 N79 1.377 1_556 S
C76 H96 0.930 1_556 S
C77 N75 1.375 . S
C77 C76 1.338 . S
C77 H81 0.931 . S
C78 N75 1.313 . S
C78 N79 1.344 1_556 S
C78 H82 0.930 . S
N79 C76 1.377 1_554 S
N79 C78 1.344 1_554 S
O80 Co72 2.055 . S
O80 C84 1.253 . S
H81 C77 0.931 . S
H82 C78 0.930 . S
O83 Co72 2.039 . S
O83 C73 1.265 . S
C84 O80 1.253 . S
C84 O85 1.227 . S
O85 C84 1.227 . S
N86 Co72 2.140 . S
N86 C89 1.346 . S
N86 C90 1.345 . S
C87 C88 1.387 . S
C87 C91 1.391 . S
C88 C87 1.387 . S
C88 C89 1.369 . S
C88 H97 0.929 . S
C89 N86 1.346 . S
C89 C88 1.369 . S
C89 H92 0.928 . S
C90 N86 1.345 . S
C90 C91 1.371 . S
C90 H93 0.931 . S
C91 C87 1.391 . S
C91 C90 1.371 . S
C91 H98 0.930 . S
H92 C89 0.928 . S
H93 C90 0.931 . S
H94 C70 0.930 . S
H95 C67 0.930 . S
H96 C76 0.930 1_554 S
H97 C88 0.929 . S
H98 C91 0.930 . S
C99 C100 1.351 . S
C99 N102 1.368 . S
C99 H104 0.931 . S
C100 C99 1.351 . S
C100 N101 1.373 . S
C100 H128 0.930 . S
N101 C100 1.373 . S
N101 C103 1.340 . S
N102 C99 1.368 . S
N102 C103 1.321 . S
N102 Co105 2.135 . S
C103 N101 1.340 . S
C103 N102 1.321 . S
C103 H127 0.930 . S
H104 C99 0.931 . S
Co105 N102 2.135 . S
Co105 N108 2.121 1_556 S
Co105 O113 2.055 . S
Co105 O116 2.039 . S
Co105 N119 2.140 . S
C106 O107 1.227 . S
C106 O116 1.265 . S
O107 C106 1.227 . S
N108 Co105 2.121 1_554 S
N108 C110 1.375 . S
N108 C111 1.313 . S
C109 C110 1.338 . S
C109 N112 1.377 . S
C109 H129 0.930 . S
C110 N108 1.375 . S
C110 C109 1.338 . S
C110 H114 0.931 . S
C111 N108 1.313 . S
C111 N112 1.344 . S
C111 H115 0.930 . S
N112 C109 1.377 . S
N112 C111 1.344 . S
O113 Co105 2.055 . S
O113 C117 1.253 1_556 S
H114 C110 0.931 . S
H115 C111 0.930 . S
O116 Co105 2.039 . S
O116 C106 1.265 . S
C117 O113 1.253 1_554 S
C117 O118 1.227 . S
O118 C117 1.227 . S
N119 Co105 2.140 . S
N119 C122 1.346 . S
N119 C123 1.345 1_556 S
C120 C121 1.387 . S
C120 C124 1.391 1_556 S
C121 C120 1.387 . S
C121 C122 1.369 . S
C121 H130 0.929 . S
C122 N119 1.346 . S
C122 C121 1.369 . S
C122 H125 0.928 . S
C123 N119 1.345 1_554 S
C123 C124 1.371 . S
C123 H126 0.931 . S
C124 C120 1.391 1_554 S
C124 C123 1.371 . S
C124 H131 0.930 . S
H125 C122 0.928 . S
H126 C123 0.931 . S
H127 C103 0.930 . S
H128 C100 0.930 . S
H129 C109 0.930 . S
H130 C121 0.929 . S
H131 C124 0.930 . S
C132 C133 1.351 . S
C132 N135 1.368 . S
C132 H137 0.931 . S
C133 C132 1.351 . S
C133 N134 1.373 . S
C133 H161 0.930 . S
N134 C133 1.373 . S
N134 C136 1.340 . S
N135 C132 1.368 . S
N135 C136 1.321 . S
N135 Co138 2.135 . S
C136 N134 1.340 . S
C136 N135 1.321 . S
C136 H160 0.930 . S
H137 C132 0.931 . S
Co138 N135 2.135 . S
Co138 N141 2.121 . S
Co138 O146 2.055 . S
Co138 O149 2.039 . S
Co138 N152 2.140 . S
C139 O140 1.227 . S
C139 O149 1.265 . S
O140 C139 1.227 . S
N141 Co138 2.121 . S
N141 C143 1.375 . S
N141 C144 1.313 . S
C142 C143 1.338 . S
C142 N145 1.377 1_554 S
C142 H162 0.930 1_554 S
C143 N141 1.375 . S
C143 C142 1.338 . S
C143 H147 0.931 . S
C144 N141 1.313 . S
C144 N145 1.344 1_554 S
C144 H148 0.930 . S
N145 C142 1.377 1_556 S
N145 C144 1.344 1_556 S
O146 Co138 2.055 . S
O146 C150 1.253 . S
H147 C143 0.931 . S
H148 C144 0.930 . S
O149 Co138 2.039 . S
O149 C139 1.265 . S
C150 O146 1.253 . S
C150 O151 1.227 . S
O151 C150 1.227 . S
N152 Co138 2.140 . S
N152 C155 1.346 . S
N152 C156 1.345 . S
C153 C154 1.387 . S
C153 C157 1.391 . S
C154 C153 1.387 . S
C154 C155 1.369 . S
C154 H163 0.929 . S
C155 N152 1.346 . S
C155 C154 1.369 . S
C155 H158 0.928 . S
C156 N152 1.345 . S
C156 C157 1.371 . S
C156 H159 0.931 . S
C157 C153 1.391 . S
C157 C156 1.371 . S
C157 H164 0.930 . S
H158 C155 0.928 . S
H159 C156 0.931 . S
H160 C136 0.930 . S
H161 C133 0.930 . S
H162 C142 0.930 1_556 S
H163 C154 0.929 . S
H164 C157 0.930 . S
C165 C166 1.351 . S
C165 N168 1.368 . S
C165 H170 0.931 . S
C166 C165 1.351 . S
C166 N167 1.373 . S
C166 H194 0.930 . S
N167 C166 1.373 . S
N167 C169 1.340 . S
N168 C165 1.368 . S
N168 C169 1.321 . S
N168 Co171 2.135 . S
C169 N167 1.340 . S
C169 N168 1.321 . S
C169 H193 0.930 . S
H170 C165 0.931 . S
Co171 N168 2.135 . S
Co171 N174 2.121 . S
Co171 O179 2.055 . S
Co171 O182 2.039 . S
Co171 N185 2.140 . S
C172 O173 1.227 . S
C172 O182 1.265 . S
O173 C172 1.227 . S
N174 Co171 2.121 . S
N174 C176 1.375 . S
N174 C177 1.313 . S
C175 C176 1.338 . S
C175 N178 1.377 . S
C175 H195 0.930 . S
C176 N174 1.375 . S
C176 C175 1.338 . S
C176 H180 0.931 . S
C177 N174 1.313 . S
C177 N178 1.344 . S
C177 H181 0.930 . S
N178 C175 1.377 . S
N178 C177 1.344 . S
O179 Co171 2.055 . S
O179 C183 1.253 . S
H180 C176 0.931 . S
H181 C177 0.930 . S
O182 Co171 2.039 . S
O182 C172 1.265 . S
C183 O179 1.253 . S
C183 O184 1.227 . S
O184 C183 1.227 . S
N185 Co171 2.140 . S
N185 C188 1.346 . S
N185 C189 1.345 . S
C186 C187 1.387 . S
C186 C190 1.391 . S
C187 C186 1.387 . S
C187 C188 1.369 . S
C187 H196 0.929 . S
C188 N185 1.346 . S
C188 C187 1.369 . S
C188 H191 0.928 . S
C189 N185 1.345 . S
C189 C190 1.371 . S
C189 H192 0.931 . S
C190 C186 1.391 . S
C190 C189 1.371 . S
C190 H197 0.930 . S
H191 C188 0.928 . S
H192 C189 0.931 . S
H193 C169 0.930 . S
H194 C166 0.930 . S
H195 C175 0.930 . S
H196 C187 0.929 . S
H197 C190 0.930 . S
C198 C199 1.351 1_556 S
C198 N201 1.368 . S
C198 H203 0.931 . S
C199 C198 1.351 1_554 S
C199 N200 1.373 . S
C199 H227 0.930 . S
N200 C199 1.373 . S
N200 C202 1.340 . S
N201 C198 1.368 . S
N201 C202 1.321 1_556 S
N201 Co204 2.135 . S
C202 N200 1.340 . S
C202 N201 1.321 1_554 S
C202 H226 0.930 . S
H203 C198 0.931 . S
Co204 N201 2.135 . S
Co204 N207 2.121 . S
Co204 O212 2.055 . S
Co204 O215 2.039 . S
Co204 N218 2.140 . S
C205 O206 1.227 . S
C205 O215 1.265 . S
O206 C205 1.227 . S
N207 Co204 2.121 . S
N207 C209 1.375 . S
N207 C210 1.313 . S
C208 C209 1.338 . S
C208 N211 1.377 . S
C208 H228 0.930 . S
C209 N207 1.375 . S
C209 C208 1.338 . S
C209 H213 0.931 . S
C210 N207 1.313 . S
C210 N211 1.344 . S
C210 H214 0.930 . S
N211 C208 1.377 . S
N211 C210 1.344 . S
O212 Co204 2.055 . S
O212 C216 1.253 . S
H213 C209 0.931 . S
H214 C210 0.930 . S
O215 Co204 2.039 . S
O215 C205 1.265 . S
C216 O212 1.253 . S
C216 O217 1.227 . S
O217 C216 1.227 . S
N218 Co204 2.140 . S
N218 C221 1.346 . S
N218 C222 1.345 . S
C219 C220 1.387 . S
C219 C223 1.391 . S
C220 C219 1.387 . S
C220 C221 1.369 . S
C220 H229 0.929 . S
C221 N218 1.346 . S
C221 C220 1.369 . S
C221 H224 0.928 . S
C222 N218 1.345 . S
C222 C223 1.371 . S
C222 H225 0.931 . S
C223 C219 1.391 . S
C223 C222 1.371 . S
C223 H230 0.930 . S
H224 C221 0.928 . S
H225 C222 0.931 . S
H226 C202 0.930 . S
H227 C199 0.930 . S
H228 C208 0.930 . S
H229 C220 0.929 . S
H230 C223 0.930 . S
C231 C232 1.351 . S
C231 N234 1.368 . S
C231 H236 0.931 . S
C232 C231 1.351 . S
C232 N233 1.373 . S
C232 H260 0.930 . S
N233 C232 1.373 . S
N233 C235 1.340 . S
N234 C231 1.368 . S
N234 C235 1.321 . S
N234 Co237 2.135 . S
C235 N233 1.340 . S
C235 N234 1.321 . S
C235 H259 0.930 . S
H236 C231 0.931 . S
Co237 N234 2.135 . S
Co237 N240 2.121 1_554 S
Co237 O245 2.055 . S
Co237 O248 2.039 . S
Co237 N251 2.140 . S
C238 O239 1.227 . S
C238 O248 1.265 . S
O239 C238 1.227 . S
N240 Co237 2.121 1_556 S
N240 C242 1.375 . S
N240 C243 1.313 . S
C241 C242 1.338 . S
C241 N244 1.377 . S
C241 H261 0.930 . S
C242 N240 1.375 . S
C242 C241 1.338 . S
C242 H246 0.931 . S
C243 N240 1.313 . S
C243 N244 1.344 . S
C243 H247 0.930 . S
N244 C241 1.377 . S
N244 C243 1.344 . S
O245 Co237 2.055 . S
O245 C249 1.253 1_554 S
H246 C242 0.931 . S
H247 C243 0.930 . S
O248 Co237 2.039 . S
O248 C238 1.265 . S
C249 O245 1.253 1_556 S
C249 O250 1.227 . S
O250 C249 1.227 . S
N251 Co237 2.140 . S
N251 C254 1.346 . S
N251 C255 1.345 1_554 S
C252 C253 1.387 . S
C252 C256 1.391 1_554 S
C253 C252 1.387 . S
C253 C254 1.369 . S
C253 H262 0.929 . S
C254 N251 1.346 . S
C254 C253 1.369 . S
C254 H257 0.928 . S
C255 N251 1.345 1_556 S
C255 C256 1.371 . S
C255 H258 0.931 . S
C256 C252 1.391 1_556 S
C256 C255 1.371 . S
C256 H263 0.930 . S
H257 C254 0.928 . S
H258 C255 0.931 . S
H259 C235 0.930 . S
H260 C232 0.930 . S
H261 C241 0.930 . S
H262 C253 0.929 . S
H263 C256 0.930 . S
C264 C265 1.369 . S
C264 C266 1.419 . S
C264 H268 0.930 . S
C265 C264 1.369 . S
C265 C274 1.429 . S
C266 C264 1.419 . S
C266 C267 1.363 . S
C266 H269 0.929 . S
C267 C266 1.363 . S
C267 C273 1.428 . S
H268 C264 0.930 . S
H269 C266 0.929 . S
S270 N271 1.613 . S
S270 N272 1.610 . S
N271 S270 1.613 . S
N271 C274 1.350 . S
N272 S270 1.610 . S
N272 C273 1.351 . S
C273 C267 1.428 . S
C273 N272 1.351 . S
C273 C274 1.434 . S
C274 C265 1.429 . S
C274 N271 1.350 . S
C274 C273 1.434 . S
C275 C276 1.369 . S
C275 C277 1.419 . S
C275 H279 0.930 . S
C276 C275 1.369 . S
C276 C285 1.429 . S
C277 C275 1.419 . S
C277 C278 1.363 . S
C277 H280 0.929 . S
C278 C277 1.363 . S
C278 C284 1.428 . S
H279 C275 0.930 . S
H280 C277 0.929 . S
S281 N282 1.613 . S
S281 N283 1.610 . S
N282 S281 1.613 . S
N282 C285 1.350 . S
N283 S281 1.610 . S
N283 C284 1.351 . S
C284 C278 1.428 . S
C284 N283 1.351 . S
C284 C285 1.434 . S
C285 C276 1.429 . S
C285 N282 1.350 . S
C285 C284 1.434 . S
C286 C287 1.369 . S
C286 C288 1.419 . S
C286 H290 0.930 . S
C287 C286 1.369 . S
C287 C296 1.429 . S
C288 C286 1.419 . S
C288 C289 1.363 . S
C288 H291 0.929 . S
C289 C288 1.363 . S
C289 C295 1.428 . S
H290 C286 0.930 . S
H291 C288 0.929 . S
S292 N293 1.613 1_554 S
S292 N294 1.610 . S
N293 S292 1.613 1_556 S
N293 C296 1.350 . S
N294 S292 1.610 . S
N294 C295 1.351 1_554 S
C295 C289 1.428 . S
C295 N294 1.351 1_556 S
C295 C296 1.434 . S
C296 C287 1.429 . S
C296 N293 1.350 . S
C296 C295 1.434 . S
C297 C298 1.369 . S
C297 C299 1.419 . S
C297 H301 0.930 . S
C298 C297 1.369 . S
C298 C307 1.429 . S
C299 C297 1.419 . S
C299 C300 1.363 . S
C299 H302 0.929 . S
C300 C299 1.363 . S
C300 C306 1.428 . S
H301 C297 0.930 . S
H302 C299 0.929 . S
S303 N304 1.613 . S
S303 N305 1.610 . S
N304 S303 1.613 . S
N304 C307 1.350 . S
N305 S303 1.610 . S
N305 C306 1.351 . S
C306 C300 1.428 . S
C306 N305 1.351 . S
C306 C307 1.434 . S
C307 C298 1.429 . S
C307 N304 1.350 . S
C307 C306 1.434 . S
C308 C309 1.369 . S
C308 C310 1.419 . S
C308 H312 0.930 . S
C309 C308 1.369 . S
C309 C318 1.429 . S
C310 C308 1.419 . S
C310 C311 1.363 . S
C310 H313 0.929 . S
C311 C310 1.363 . S
C311 C317 1.428 . S
H312 C308 0.930 . S
H313 C310 0.929 . S
S314 N315 1.613 . S
S314 N316 1.610 . S
N315 S314 1.613 . S
N315 C318 1.350 . S
N316 S314 1.610 . S
N316 C317 1.351 . S
C317 C311 1.428 . S
C317 N316 1.351 . S
C317 C318 1.434 . S
C318 C309 1.429 . S
C318 N315 1.350 . S
C318 C317 1.434 . S
C319 C320 1.369 1_556 S
C319 C321 1.419 . S
C319 H323 0.930 . S
C320 C319 1.369 1_554 S
C320 C329 1.429 . S
C321 C319 1.419 . S
C321 C322 1.363 . S
C321 H324 0.929 . S
C322 C321 1.363 . S
C322 C328 1.428 . S
H323 C319 0.930 . S
H324 C321 0.929 . S
S325 N326 1.613 . S
S325 N327 1.610 1_554 S
N326 S325 1.613 . S
N326 C329 1.350 . S
N327 S325 1.610 1_556 S
N327 C328 1.351 . S
C328 C322 1.428 . S
C328 N327 1.351 . S
C328 C329 1.434 1_556 S
C329 C320 1.429 . S
C329 N326 1.350 . S
C329 C328 1.434 1_554 S
C330 C331 1.369 . S
C330 C332 1.419 . S
C330 H334 0.930 . S
C331 C330 1.369 . S
C331 C340 1.429 . S
C332 C330 1.419 . S
C332 C333 1.363 . S
C332 H335 0.929 . S
C333 C332 1.363 . S
C333 C339 1.428 . S
H334 C330 0.930 . S
H335 C332 0.929 . S
S336 N337 1.613 . S
S336 N338 1.610 . S
N337 S336 1.613 . S
N337 C340 1.350 . S
N338 S336 1.610 . S
N338 C339 1.351 . S
C339 C333 1.428 . S
C339 N338 1.351 . S
C339 C340 1.434 . S
C340 C331 1.429 . S
C340 N337 1.350 . S
C340 C339 1.434 . S
C341 C342 1.369 . S
C341 C343 1.419 . S
C341 H345 0.930 . S
C342 C341 1.369 . S
C342 C351 1.429 . S
C343 C341 1.419 . S
C343 C344 1.363 . S
C343 H346 0.929 . S
C344 C343 1.363 . S
C344 C350 1.428 . S
H345 C341 0.930 . S
H346 C343 0.929 . S
S347 N348 1.613 . S
S347 N349 1.610 . S
N348 S347 1.613 . S
N348 C351 1.350 . S
N349 S347 1.610 . S
N349 C350 1.351 . S
C350 C344 1.428 . S
C350 N349 1.351 . S
C350 C351 1.434 . S
C351 C342 1.429 . S
C351 N348 1.350 . S
C351 C350 1.434 . S
C352 C353 1.369 . S
C352 C354 1.419 . S
C352 H356 0.930 . S
C353 C352 1.369 . S
C353 C362 1.429 . S
C354 C352 1.419 . S
C354 C355 1.363 . S
C354 H357 0.929 . S
C355 C354 1.363 . S
C355 C361 1.428 . S
H356 C352 0.930 . S
H357 C354 0.929 . S
S358 N359 1.613 . S
S358 N360 1.610 . S
N359 S358 1.613 . S
N359 C362 1.350 . S
N360 S358 1.610 . S
N360 C361 1.351 . S
C361 C355 1.428 . S
C361 N360 1.351 . S
C361 C362 1.434 . S
C362 C353 1.429 . S
C362 N359 1.350 . S
C362 C361 1.434 . S
C363 C364 1.369 . S
C363 C365 1.422 . S
C363 H367 0.930 . S
C364 C363 1.369 . S
C364 C373 1.429 . S
C365 C363 1.422 . S
C365 C366 1.361 1_554 S
C365 H368 0.927 1_554 S
C366 C365 1.361 1_556 S
C366 C372 1.428 1_556 S
H367 C363 0.930 . S
H368 C365 0.927 1_556 S
S369 N370 1.613 . S
S369 N371 1.610 1_554 S
N370 S369 1.613 . S
N370 C373 1.350 . S
N371 S369 1.610 1_556 S
N371 C372 1.351 1_556 S
C372 C366 1.428 1_554 S
C372 N371 1.351 1_554 S
C372 C373 1.434 . S
C373 C364 1.429 . S
C373 N370 1.350 . S
C373 C372 1.434 . S
C374 C375 1.369 . S
C374 C376 1.419 . S
C374 H378 0.930 . S
C375 C374 1.369 . S
C375 C384 1.429 . S
C376 C374 1.419 . S
C376 C377 1.363 . S
C376 H379 0.929 . S
C377 C376 1.363 . S
C377 C383 1.428 . S
H378 C374 0.930 . S
H379 C376 0.929 . S
S380 N381 1.613 . S
S380 N382 1.610 . S
N381 S380 1.613 . S
N381 C384 1.350 . S
N382 S380 1.610 . S
N382 C383 1.351 . S
C383 C377 1.428 . S
C383 N382 1.351 . S
C383 C384 1.434 . S
C384 C375 1.429 . S
C384 N381 1.350 . S
C384 C383 1.434 . S
C385 C386 1.369 . S
C385 C387 1.419 . S
C385 H389 0.930 . S
C386 C385 1.369 . S
C386 C395 1.429 . S
C387 C385 1.419 . S
C387 C388 1.363 . S
C387 H390 0.929 . S
C388 C387 1.363 . S
C388 C394 1.428 . S
H389 C385 0.930 . S
H390 C387 0.929 . S
S391 N392 1.613 . S
S391 N393 1.610 . S
N392 S391 1.613 . S
N392 C395 1.350 . S
N393 S391 1.610 . S
N393 C394 1.351 . S
C394 C388 1.428 . S
C394 N393 1.351 . S
C394 C395 1.434 . S
C395 C386 1.429 . S
C395 N392 1.350 . S
C395 C394 1.434 . S
C396 C397 1.369 1_556 S
C396 C398 1.419 . S
C396 H400 0.930 . S
C397 C396 1.369 1_554 S
C397 C406 1.429 1_455 S
C398 C396 1.419 . S
C398 C399 1.363 1_455 S
C398 H401 0.929 . S
C399 C398 1.363 1_655 S
C399 C405 1.428 1_556 S
H400 C396 0.930 . S
H401 C398 0.929 . S
S402 N403 1.613 . S
S402 N404 1.610 . S
N403 S402 1.613 . S
N403 C406 1.350 . S
N404 S402 1.610 . S
N404 C405 1.351 . S
C405 C399 1.428 1_554 S
C405 N404 1.351 . S
C405 C406 1.434 . S
C406 C397 1.429 1_655 S
C406 N403 1.350 . S
C406 C405 1.434 . S
C407 C408 1.369 1_545 S
C407 C409 1.419 . S
C407 H411 0.930 . S
C408 C407 1.369 1_565 S
C408 C417 1.429 . S
C409 C407 1.419 . S
C409 C410 1.363 . S
C409 H412 0.929 . S
C410 C409 1.363 . S
C410 C416 1.428 1_545 S
H411 C407 0.930 . S
H412 C409 0.929 . S
S413 N414 1.613 . S
S413 N415 1.610 . S
N414 S413 1.613 . S
N414 C417 1.350 . S
N415 S413 1.610 . S
N415 C416 1.351 . S
C416 C410 1.428 1_565 S
C416 N415 1.351 . S
C416 C417 1.434 . S
C417 C408 1.429 . S
C417 N414 1.350 . S
C417 C416 1.434 . S
C418 C419 1.369 . S
C418 C420 1.419 . S
C418 H422 0.930 . S
C419 C418 1.369 . S
C419 C428 1.429 1_455 S
C420 C418 1.419 . S
C420 C421 1.363 1_455 S
C420 H423 0.929 . S
C421 C420 1.363 1_655 S
C421 C427 1.428 . S
H422 C418 0.930 . S
H423 C420 0.929 . S
S424 N425 1.613 . S
S424 N426 1.610 . S
N425 S424 1.613 . S
N425 C428 1.350 . S
N426 S424 1.610 . S
N426 C427 1.351 . S
C427 C421 1.428 . S
C427 N426 1.351 . S
C427 C428 1.434 . S
C428 C419 1.429 1_655 S
C428 N425 1.350 . S
C428 C427 1.434 . S
C429 C430 1.369 . S
C429 C431 1.419 . S
C429 H433 0.930 . S
C430 C429 1.369 . S
C430 C439 1.429 1_565 S
C431 C429 1.419 . S
C431 C432 1.363 1_565 S
C431 H434 0.929 . S
C432 C431 1.363 1_545 S
C432 C438 1.428 . S
H433 C429 0.930 . S
H434 C431 0.929 . S
S435 N436 1.613 . S
S435 N437 1.610 . S
N436 S435 1.613 . S
N436 C439 1.350 . S
N437 S435 1.610 . S
N437 C438 1.351 . S
C438 C432 1.428 . S
C438 N437 1.351 . S
C438 C439 1.434 . S
C439 C430 1.429 1_545 S
C439 N436 1.350 . S
C439 C438 1.434 . S
C440 C441 1.369 . S
C440 C442 1.419 . S
C440 H444 0.930 . S
C441 C440 1.369 . S
C441 C450 1.429 . S
C442 C440 1.419 . S
C442 C443 1.363 . S
C442 H445 0.929 . S
C443 C442 1.363 . S
C443 C449 1.428 . S
H444 C440 0.930 . S
H445 C442 0.929 . S
S446 N447 1.613 . S
S446 N448 1.610 . S
N447 S446 1.613 . S
N447 C450 1.350 . S
N448 S446 1.610 . S
N448 C449 1.351 . S
C449 C443 1.428 . S
C449 N448 1.351 . S
C449 C450 1.434 . S
C450 C441 1.429 . S
C450 N447 1.350 . S
C450 C449 1.434 . S
C451 C452 1.369 . S
C451 C453 1.419 . S
C451 H455 0.930 . S
C452 C451 1.369 . S
C452 C461 1.429 . S
C453 C451 1.419 . S
C453 C454 1.363 . S
C453 H456 0.929 . S
C454 C453 1.363 . S
C454 C460 1.428 . S
H455 C451 0.930 . S
H456 C453 0.929 . S
S457 N458 1.613 . S
S457 N459 1.610 . S
N458 S457 1.613 . S
N458 C461 1.350 . S
N459 S457 1.610 . S
N459 C460 1.351 . S
C460 C454 1.428 . S
C460 N459 1.351 . S
C460 C461 1.434 . S
C461 C452 1.429 . S
C461 N458 1.350 . S
C461 C460 1.434 . S
C462 C463 1.369 . S
C462 C464 1.419 . S
C462 H466 0.930 . S
C463 C462 1.369 . S
C463 C472 1.429 . S
C464 C462 1.419 . S
C464 C465 1.363 . S
C464 H467 0.929 . S
C465 C464 1.363 . S
C465 C471 1.428 . S
H466 C462 0.930 . S
H467 C464 0.929 . S
S468 N469 1.613 . S
S468 N470 1.610 . S
N469 S468 1.613 . S
N469 C472 1.350 . S
N470 S468 1.610 . S
N470 C471 1.351 . S
C471 C465 1.428 . S
C471 N470 1.351 . S
C471 C472 1.434 . S
C472 C463 1.429 . S
C472 N469 1.350 . S
C472 C471 1.434 . S
C473 C474 1.369 . S
C473 C475 1.419 . S
C473 H477 0.930 . S
C474 C473 1.369 . S
C474 C483 1.429 1_554 S
C475 C473 1.419 . S
C475 C476 1.363 1_554 S
C475 H478 0.929 . S
C476 C475 1.363 1_556 S
C476 C482 1.428 . S
H477 C473 0.930 . S
H478 C475 0.929 . S
S479 N480 1.613 . S
S479 N481 1.610 . S
N480 S479 1.613 . S
N480 C483 1.350 . S
N481 S479 1.610 . S
N481 C482 1.351 . S
C482 C476 1.428 . S
C482 N481 1.351 . S
C482 C483 1.434 . S
C483 C474 1.429 1_556 S
C483 N480 1.350 . S
C483 C482 1.434 . S
C265 C183 1.360 . S
C267 C18 1.353 . S
C276 C216 1.351 . S
C278 C51 1.359 . S
C287 C84 1.353 . S
C289 C249 1.358 . S
C298 C150 1.357 . S
C300 C117 1.355 . S
C309 N13 1.313 . S
C311 N2 1.317 . S
C320 N35 1.315 . S
C322 N46 1.315 . S
C331 N79 1.318 . S
C333 N68 1.313 . S
C342 N112 1.315 . S
C344 N101 1.315 . S
C353 N145 1.313 . S
C355 N134 1.317 . S
C364 N178 1.318 . S
C366 N167 1.313 . S
C375 N211 1.318 . S
C377 N200 1.313 . S
C386 N233 1.318 . S
C388 N244 1.313 . S
C397 C7 1.489 . S
C399 C205 1.483 . S
C408 C238 1.480 . S
C410 C40 1.488 . S
C419 C139 1.489 . S
C421 C73 1.483 . S
C430 C106 1.490 . S
C432 C172 1.481 . S
C441 C21 1.566 . S
C443 C153 1.568 . S
C452 C54 1.569 . S
C454 C186 1.567 . S
C463 C87 1.570 . S
C465 C219 1.568 . S
C474 C252 1.568 . S
C476 C120 1.570 . S
