# Generated by pormake.
# Topology gsi, (4)-cn, num edge types: 1
# Building blocks:
#     Node 0, Type 0, BuildingBlock: TATPOV_clean_sbu_0, # of connection points: 4
#     Node 1, Type 0, BuildingBlock: TATPOV_clean_sbu_0, # of connection points: 4
#     Node 2, Type 0, BuildingBlock: TATPOV_clean_sbu_0, # of connection points: 4
#     Node 3, Type 0, BuildingBlock: TATPOV_clean_sbu_0, # of connection points: 4
#     Node 4, Type 0, BuildingBlock: TATPOV_clean_sbu_0, # of connection points: 4
#     Node 5, Type 0, BuildingBlock: TATPOV_clean_sbu_0, # of connection points: 4
#     Node 6, Type 0, BuildingBlock: TATPOV_clean_sbu_0, # of connection points: 4
#     Node 7, Type 0, BuildingBlock: TATPOV_clean_sbu_0, # of connection points: 4
#     Node 8, Type 0, BuildingBlock: TATPOV_clean_sbu_0, # of connection points: 4
#     Node 9, Type 0, BuildingBlock: TATPOV_clean_sbu_0, # of connection points: 4
#     Node 10, Type 0, BuildingBlock: TATPOV_clean_sbu_0, # of connection points: 4
#     Node 11, Type 0, BuildingBlock: TATPOV_clean_sbu_0, # of connection points: 4
#     Node 12, Type 0, BuildingBlock: TATPOV_clean_sbu_0, # of connection points: 4
#     Node 13, Type 0, BuildingBlock: TATPOV_clean_sbu_0, # of connection points: 4
#     Node 14, Type 0, BuildingBlock: TATPOV_clean_sbu_0, # of connection points: 4
#     Node 15, Type 0, BuildingBlock: TATPOV_clean_sbu_0, # of connection points: 4
#     Edge 16, Type (0, 0), BuildingBlock: OJICUG_clean_linker_0, # of connection points: 2
#     Edge 17, Type (0, 0), BuildingBlock: OJICUG_clean_linker_0, # of connection points: 2
#     Edge 18, Type (0, 0), BuildingBlock: OJICUG_clean_linker_0, # of connection points: 2
#     Edge 19, Type (0, 0), BuildingBlock: OJICUG_clean_linker_0, # of connection points: 2
#     Edge 20, Type (0, 0), BuildingBlock: OJICUG_clean_linker_0, # of connection points: 2
#     Edge 21, Type (0, 0), BuildingBlock: OJICUG_clean_linker_0, # of connection points: 2
#     Edge 22, Type (0, 0), BuildingBlock: OJICUG_clean_linker_0, # of connection points: 2
#     Edge 23, Type (0, 0), BuildingBlock: OJICUG_clean_linker_0, # of connection points: 2
#     Edge 24, Type (0, 0), BuildingBlock: OJICUG_clean_linker_0, # of connection points: 2
#     Edge 25, Type (0, 0), BuildingBlock: OJICUG_clean_linker_0, # of connection points: 2
#     Edge 26, Type (0, 0), BuildingBlock: OJICUG_clean_linker_0, # of connection points: 2
#     Edge 27, Type (0, 0), BuildingBlock: OJICUG_clean_linker_0, # of connection points: 2
#     Edge 28, Type (0, 0), BuildingBlock: OJICUG_clean_linker_0, # of connection points: 2
#     Edge 29, Type (0, 0), BuildingBlock: OJICUG_clean_linker_0, # of connection points: 2
#     Edge 30, Type (0, 0), BuildingBlock: OJICUG_clean_linker_0, # of connection points: 2
#     Edge 31, Type (0, 0), BuildingBlock: OJICUG_clean_linker_0, # of connection points: 2
#     Edge 32, Type (0, 0), BuildingBlock: OJICUG_clean_linker_0, # of connection points: 2
#     Edge 33, Type (0, 0), BuildingBlock: OJICUG_clean_linker_0, # of connection points: 2
#     Edge 34, Type (0, 0), BuildingBlock: OJICUG_clean_linker_0, # of connection points: 2
#     Edge 35, Type (0, 0), BuildingBlock: OJICUG_clean_linker_0, # of connection points: 2
#     Edge 36, Type (0, 0), BuildingBlock: OJICUG_clean_linker_0, # of connection points: 2
#     Edge 37, Type (0, 0), BuildingBlock: OJICUG_clean_linker_0, # of connection points: 2
#     Edge 38, Type (0, 0), BuildingBlock: OJICUG_clean_linker_0, # of connection points: 2
#     Edge 39, Type (0, 0), BuildingBlock: OJICUG_clean_linker_0, # of connection points: 2
#     Edge 40, Type (0, 0), BuildingBlock: OJICUG_clean_linker_0, # of connection points: 2
#     Edge 41, Type (0, 0), BuildingBlock: OJICUG_clean_linker_0, # of connection points: 2
#     Edge 42, Type (0, 0), BuildingBlock: OJICUG_clean_linker_0, # of connection points: 2
#     Edge 43, Type (0, 0), BuildingBlock: OJICUG_clean_linker_0, # of connection points: 2
#     Edge 44, Type (0, 0), BuildingBlock: OJICUG_clean_linker_0, # of connection points: 2
#     Edge 45, Type (0, 0), BuildingBlock: OJICUG_clean_linker_0, # of connection points: 2
#     Edge 46, Type (0, 0), BuildingBlock: OJICUG_clean_linker_0, # of connection points: 2
#     Edge 47, Type (0, 0), BuildingBlock: OJICUG_clean_linker_0, # of connection points: 2
# Relax obj value: 0.038
# Max RMSD: 0.070
# Mean RMSD: 0.055
data_MOF--net-gsi--node1-TATPOV_clean_sbu_0--edge1-OJICUG_clean_linker_0
_symmetry_space_group_name_H-M    P1
_symmetry_Int_Tables_number       1
_symmetry_cell_setting            triclinic
loop_
_symmetry_equiv_pos_as_xyz
'x, y, z'
_cell_length_a     30.597012
_cell_length_b     32.48664
_cell_length_c     30.701623
_cell_angle_alpha  91.017773
_cell_angle_beta   89.249655
_cell_angle_gamma 94.480234
loop_
_atom_site_label
_atom_site_type_symbol
_atom_site_fract_x
_atom_site_fract_y
_atom_site_fract_z
_atom_type_partial_charge
Zn0 Zn 0.0823 0.11663 0.21575 0.0
Zn1 Zn 0.13741 0.10777 0.14837 0.0
O2 O 0.12626 0.0505 0.17657 0.0
O3 O 0.07902 0.05713 0.23045 0.0
O4 O 0.17524 0.09792 0.09499 0.0
O5 O 0.03816 0.13874 0.17684 0.0
O6 O 0.08777 0.14012 0.12426 0.0
C7 C 0.10375 0.03504 0.20849 0.0
C8 C 0.16809 0.16143 0.22486 0.0
O9 O 0.1756 0.14506 0.18787 0.0
O10 O 0.13084 0.15499 0.24319 0.0
C11 C 0.21676 0.10516 0.0932 0.0
O12 O 0.23785 0.11883 0.12819 0.0
C13 C 0.05032 0.14876 0.13871 0.0
Zn14 Zn 0.92718 0.31466 0.23174 0.0
Zn15 Zn 0.87735 0.33226 0.16201 0.0
O16 O 0.89923 0.38835 0.18898 0.0
O17 O 0.93806 0.37525 0.2463 0.0
O18 O 0.83805 0.34522 0.11268 0.0
O19 O 0.96604 0.28706 0.18823 0.0
O20 O 0.92175 0.29578 0.13361 0.0
C21 C 0.92179 0.40097 0.22196 0.0
C22 C 0.83709 0.281 0.23725 0.0
O23 O 0.83481 0.29935 0.20122 0.0
O24 O 0.87317 0.28205 0.25727 0.0
C25 C 0.84185 0.37812 0.09075 0.0
O26 O 0.87367 0.40641 0.09971 0.0
C27 C 0.95588 0.28141 0.14859 0.0
Zn28 Zn 0.24608 0.87581 0.346 0.0
Zn29 Zn 0.16921 0.84143 0.37636 0.0
O30 O 0.20402 0.85864 0.43236 0.0
O31 O 0.26258 0.89449 0.40659 0.0
O32 O 0.11052 0.81337 0.39581 0.0
O33 O 0.21384 0.91007 0.30591 0.0
O34 O 0.15103 0.88726 0.3361 0.0
C35 C 0.24 0.88055 0.43866 0.0
C36 C 0.23302 0.79151 0.32286 0.0
O37 O 0.19604 0.79582 0.34111 0.0
O38 O 0.26246 0.82109 0.32285 0.0
C39 C 0.10585 0.77492 0.40384 0.0
O40 O 0.14062 0.75361 0.40328 0.0
C41 C 0.17253 0.9098 0.30836 0.0
Zn42 Zn 0.8006 0.58701 0.32848 0.0
Zn43 Zn 0.8715 0.62341 0.36523 0.0
O44 O 0.8326 0.60685 0.41926 0.0
O45 O 0.77562 0.57336 0.38786 0.0
O46 O 0.92853 0.65184 0.38806 0.0
O47 O 0.83386 0.54814 0.2944 0.0
O48 O 0.89351 0.57489 0.32706 0.0
C49 C 0.79521 0.58649 0.42205 0.0
C50 C 0.81318 0.67063 0.3058 0.0
O51 O 0.8458 0.66995 0.33103 0.0
O52 O 0.78807 0.63849 0.29908 0.0
C53 C 0.93247 0.69015 0.39812 0.0
O54 O 0.89769 0.7114 0.39723 0.0
C55 C 0.87473 0.54923 0.29994 0.0
Zn56 Zn 0.42932 0.82002 0.73599 0.0
Zn57 Zn 0.38007 0.83687 0.66545 0.0
O58 O 0.40077 0.89347 0.69222 0.0
O59 O 0.43899 0.88086 0.75014 0.0
O60 O 0.34015 0.84831 0.61601 0.0
O61 O 0.46916 0.79291 0.69297 0.0
O62 O 0.42565 0.80121 0.63759 0.0
C63 C 0.42279 0.90637 0.72547 0.0
C64 C 0.33984 0.78511 0.7406 0.0
O65 O 0.33791 0.80341 0.70452 0.0
O66 O 0.3756 0.78661 0.7612 0.0
C67 C 0.33969 0.88214 0.59595 0.0
O68 O 0.3679 0.91316 0.60652 0.0
C69 C 0.45978 0.78726 0.65313 0.0
Zn70 Zn 0.894 0.81142 0.82521 0.0
Zn71 Zn 0.84356 0.81821 0.89399 0.0
O72 O 0.89746 0.78817 0.91533 0.0
O73 O 0.94215 0.79097 0.85845 0.0
O74 O 0.80482 0.82435 0.94804 0.0
O75 O 0.89618 0.8701 0.81013 0.0
O76 O 0.85036 0.87644 0.86537 0.0
C77 C 0.93412 0.78112 0.89746 0.0
C78 C 0.8111 0.76392 0.8181 0.0
O79 O 0.80464 0.77985 0.85553 0.0
O80 O 0.84731 0.77173 0.79829 0.0
C81 C 0.78685 0.79115 0.96392 0.0
O82 O 0.79581 0.75574 0.9459 0.0
C83 C 0.87169 0.89191 0.83262 0.0
Zn84 Zn 0.09704 0.64849 0.79219 0.0
Zn85 Zn 0.13978 0.6276 0.86445 0.0
O86 O 0.09029 0.65916 0.89126 0.0
O87 O 0.05038 0.66849 0.83349 0.0
O88 O 0.16935 0.60704 0.91715 0.0
O89 O 0.09261 0.58994 0.76857 0.0
O90 O 0.12168 0.57394 0.83073 0.0
C91 C 0.05617 0.67164 0.87425 0.0
C92 C 0.1855 0.68729 0.80012 0.0
O93 O 0.18644 0.66561 0.83416 0.0
O94 O 0.15104 0.68619 0.7775 0.0
C95 C 0.21049 0.60669 0.92241 0.0
O96 O 0.23761 0.62085 0.89169 0.0
C97 C 0.10513 0.5631 0.79397 0.0
Zn98 Zn 0.74743 0.06226 0.68544 0.0
Zn99 Zn 0.83142 0.09413 0.66691 0.0
O100 O 0.84068 0.04433 0.70541 0.0
O101 O 0.77339 0.02081 0.7233 0.0
O102 O 0.89182 0.12358 0.65886 0.0
O103 O 0.73955 0.05528 0.6204 0.0
O104 O 0.80578 0.08374 0.60578 0.0
C105 C 0.81444 0.01977 0.72704 0.0
C106 C 0.76464 0.14378 0.71745 0.0
O107 O 0.80201 0.1385 0.7007 0.0
O108 O 0.73374 0.11565 0.71459 0.0
C109 C 0.91059 0.13242 0.69492 0.0
O110 O 0.89115 0.11907 0.73098 0.0
C111 C 0.76846 0.06826 0.59291 0.0
Zn112 Zn 0.11344 0.308 0.77037 0.0
Zn113 Zn 0.12992 0.31864 0.68783 0.0
O114 O 0.07616 0.2748 0.68546 0.0
O115 O 0.069 0.26166 0.75537 0.0
O116 O 0.15277 0.32481 0.6255 0.0
O117 O 0.09647 0.36496 0.77844 0.0
O118 O 0.1172 0.37773 0.71073 0.0
C119 C 0.05752 0.25401 0.71642 0.0
C120 C 0.19858 0.29068 0.7525 0.0
O121 O 0.18441 0.29592 0.71437 0.0
O122 O 0.17445 0.29658 0.78534 0.0
C123 C 0.16459 0.2916 0.60787 0.0
O124 O 0.15666 0.25688 0.62892 0.0
C125 C 0.10354 0.39023 0.74787 0.0
Zn126 Zn 0.59488 0.14515 0.29218 0.0
Zn127 Zn 0.63759 0.12609 0.36519 0.0
O128 O 0.58763 0.15762 0.39122 0.0
O129 O 0.54796 0.16537 0.33288 0.0
O130 O 0.66749 0.10623 0.41804 0.0
O131 O 0.591 0.08627 0.26976 0.0
O132 O 0.62001 0.07187 0.33246 0.0
C133 C 0.55343 0.16935 0.37362 0.0
C134 C 0.68298 0.18474 0.29961 0.0
O135 O 0.68402 0.16383 0.3342 0.0
O136 O 0.64856 0.18293 0.27689 0.0
C137 C 0.70856 0.10377 0.42183 0.0
O138 O 0.73515 0.11555 0.3897 0.0
C139 C 0.60368 0.06014 0.29588 0.0
Zn140 Zn 0.58687 0.62152 0.71972 0.0
Zn141 Zn 0.64312 0.61439 0.65228 0.0
O142 O 0.63079 0.5558 0.67714 0.0
O143 O 0.58358 0.56124 0.7313 0.0
O144 O 0.68582 0.60875 0.602 0.0
O145 O 0.54438 0.64526 0.68 0.0
O146 O 0.59422 0.64732 0.62752 0.0
C147 C 0.60786 0.5395 0.70835 0.0
C148 C 0.67215 0.66521 0.73188 0.0
O149 O 0.67976 0.64976 0.69449 0.0
O150 O 0.63469 0.65876 0.74973 0.0
C151 C 0.68596 0.57738 0.57671 0.0
O152 O 0.65645 0.54629 0.58251 0.0
C153 C 0.55677 0.65587 0.64209 0.0
Zn154 Zn 0.75208 0.37728 0.83813 0.0
Zn155 Zn 0.67501 0.34148 0.86916 0.0
O156 O 0.70913 0.359 0.92514 0.0
O157 O 0.76838 0.39396 0.8996 0.0
O158 O 0.61986 0.30755 0.88808 0.0
O159 O 0.71669 0.4113 0.80028 0.0
O160 O 0.65421 0.3871 0.83029 0.0
C161 C 0.74542 0.3803 0.93159 0.0
C162 C 0.73986 0.29372 0.81375 0.0
O163 O 0.70351 0.29782 0.83323 0.0
O164 O 0.76914 0.32342 0.81289 0.0
C165 C 0.58221 0.32051 0.89495 0.0
O166 O 0.57746 0.36028 0.89293 0.0
C167 C 0.67532 0.4104 0.80294 0.0
Zn168 Zn 0.30296 0.09457 0.8309 0.0
Zn169 Zn 0.37573 0.13438 0.86131 0.0
O170 O 0.34108 0.11986 0.91825 0.0
O171 O 0.28069 0.08742 0.89252 0.0
O172 O 0.43112 0.16828 0.87997 0.0
O173 O 0.33673 0.05342 0.80036 0.0
O174 O 0.39818 0.08468 0.82548 0.0
C175 C 0.30316 0.10143 0.92463 0.0
C176 C 0.31283 0.1756 0.80064 0.0
O177 O 0.34609 0.17719 0.82526 0.0
O178 O 0.28843 0.14261 0.7965 0.0
C179 C 0.42828 0.20504 0.89428 0.0
O180 O 0.38923 0.21866 0.89981 0.0
C181 C 0.37804 0.05619 0.80252 0.0
Zn182 Zn 0.39033 0.30774 0.31808 0.0
Zn183 Zn 0.33911 0.31446 0.38753 0.0
O184 O 0.39269 0.28481 0.40977 0.0
O185 O 0.43726 0.28649 0.35273 0.0
O186 O 0.29981 0.32109 0.44104 0.0
O187 O 0.39264 0.36695 0.30445 0.0
O188 O 0.34689 0.37279 0.35985 0.0
C189 C 0.42923 0.27734 0.39196 0.0
C190 C 0.307 0.2609 0.31052 0.0
O191 O 0.30066 0.27636 0.34821 0.0
O192 O 0.34319 0.26881 0.29072 0.0
C193 C 0.27984 0.28855 0.45638 0.0
O194 O 0.2869 0.25275 0.4381 0.0
C195 C 0.36841 0.38863 0.32744 0.0
Zn196 Zn 0.24475 0.56401 0.1872 0.0
Zn197 Zn 0.32872 0.59716 0.17047 0.0
O198 O 0.33835 0.54611 0.20676 0.0
O199 O 0.27107 0.52176 0.22371 0.0
O200 O 0.38916 0.62684 0.16326 0.0
O201 O 0.23765 0.55863 0.12193 0.0
O202 O 0.30378 0.58809 0.10891 0.0
C203 C 0.31213 0.52072 0.22736 0.0
C204 C 0.26078 0.64438 0.22266 0.0
O205 O 0.29848 0.64 0.20609 0.0
O206 O 0.2301 0.61625 0.21813 0.0
C207 C 0.40877 0.63398 0.19918 0.0
O208 O 0.38979 0.6196 0.23506 0.0
C209 C 0.26687 0.57245 0.09517 0.0
Zn210 Zn 0.61483 0.80462 0.27703 0.0
Zn211 Zn 0.63276 0.8153 0.19417 0.0
O212 O 0.57887 0.77167 0.19096 0.0
O213 O 0.57015 0.75878 0.26083 0.0
O214 O 0.65675 0.82191 0.13225 0.0
O215 O 0.5984 0.86192 0.28424 0.0
O216 O 0.61919 0.87413 0.21641 0.0
C217 C 0.55933 0.7512 0.22167 0.0
C218 C 0.70033 0.78734 0.26037 0.0
O219 O 0.68688 0.793 0.22203 0.0
O220 O 0.67547 0.79265 0.2928 0.0
C221 C 0.67042 0.78934 0.11489 0.0
O222 O 0.66367 0.75443 0.13583 0.0
C223 C 0.60532 0.88688 0.25335 0.0
C224 C 0.24441 0.19478 0.22624 0.0
C225 C 0.20339 0.1871 0.24687 0.0
H226 H 0.30929 0.22385 0.2302 0.0
C227 C 0.19685 0.20347 0.28891 0.0
H228 H 0.25057 0.1826 0.19387 0.0
C229 C 0.23066 0.22709 0.30985 0.0
C230 C 0.27162 0.23485 0.2891 0.0
H231 H 0.16566 0.19798 0.30575 0.0
H232 H 0.22458 0.23941 0.3422 0.0
C233 C 0.27815 0.21838 0.24712 0.0
C234 C 0.79905 0.23481 0.29309 0.0
C235 C 0.79752 0.25764 0.25475 0.0
H236 H 0.76396 0.19381 0.33751 0.0
C237 C 0.75777 0.25724 0.23226 0.0
H238 H 0.82917 0.23453 0.31119 0.0
C239 C 0.7206 0.23401 0.24724 0.0
C240 C 0.72219 0.21058 0.28511 0.0
H241 H 0.75534 0.27457 0.20269 0.0
H242 H 0.69068 0.23416 0.22878 0.0
C243 C 0.7617 0.21148 0.30815 0.0
C244 C 0.21304 0.68628 0.26951 0.0
C245 C 0.25355 0.68179 0.24863 0.0
H246 H 0.1749 0.72439 0.30989 0.0
C247 C 0.28767 0.71296 0.25366 0.0
H248 H 0.18623 0.66263 0.26647 0.0
C249 C 0.28125 0.7482 0.27862 0.0
C250 C 0.24061 0.75296 0.29908 0.0
H251 H 0.31939 0.71028 0.23821 0.0
H252 H 0.30807 0.77188 0.28145 0.0
C253 C 0.20664 0.72155 0.29458 0.0
C254 C 0.78385 0.71036 0.2466 0.0
C255 C 0.79957 0.70949 0.28925 0.0
H256 H 0.74058 0.73743 0.2033 0.0
C257 C 0.79077 0.74113 0.31892 0.0
H258 H 0.79034 0.68603 0.22333 0.0
C259 C 0.76129 0.76985 0.30795 0.0
C260 C 0.74129 0.76757 0.26692 0.0
H261 H 0.80242 0.74074 0.35209 0.0
H262 H 0.75131 0.79147 0.33274 0.0
C263 C 0.75531 0.73969 0.23524 0.0
C264 C 0.30145 0.73797 0.79543 0.0
C265 C 0.30023 0.76126 0.75738 0.0
H266 H 0.26608 0.69624 0.83891 0.0
C267 C 0.26074 0.76085 0.73442 0.0
H268 H 0.33136 0.73767 0.81386 0.0
C269 C 0.22353 0.73722 0.74867 0.0
C270 C 0.22481 0.71336 0.78626 0.0
H271 H 0.25854 0.77853 0.70505 0.0
H272 H 0.19384 0.73743 0.72987 0.0
C273 C 0.26406 0.71422 0.80974 0.0
C274 C 0.70077 0.70688 0.7963 0.0
C275 C 0.70757 0.69016 0.75448 0.0
H276 H 0.72834 0.74316 0.84946 0.0
C277 C 0.74891 0.69711 0.73429 0.0
H278 H 0.66932 0.70192 0.81277 0.0
C279 C 0.78265 0.72057 0.75526 0.0
C280 C 0.77582 0.73763 0.7969 0.0
H281 H 0.75531 0.68454 0.70212 0.0
H282 H 0.81399 0.72556 0.73861 0.0
C283 C 0.73462 0.73039 0.81735 0.0
C284 C 0.71261 0.22343 0.78755 0.0
C285 C 0.74672 0.25492 0.79017 0.0
H286 H 0.69136 0.16369 0.76212 0.0
C287 C 0.78666 0.24965 0.76858 0.0
H288 H 0.68136 0.22665 0.80373 0.0
C289 C 0.79233 0.2136 0.74466 0.0
C290 C 0.75811 0.18222 0.74181 0.0
H291 H 0.81351 0.27342 0.76994 0.0
H292 H 0.82356 0.21039 0.72842 0.0
C293 C 0.71823 0.18743 0.76353 0.0
C294 C 0.25098 0.24028 0.72837 0.0
C295 C 0.23936 0.2706 0.75855 0.0
H296 H 0.28438 0.1853 0.7187 0.0
C297 C 0.26151 0.27523 0.79835 0.0
H298 H 0.23442 0.23616 0.69744 0.0
C299 C 0.29109 0.24683 0.80992 0.0
C300 C 0.29773 0.21309 0.78221 0.0
H301 H 0.25326 0.29868 0.82194 0.0
H302 H 0.30468 0.2486 0.84238 0.0
C303 C 0.27955 0.21123 0.74046 0.0
C304 C 0.10867 0.94939 0.28877 0.0
C305 C 0.14999 0.93582 0.27837 0.0
H306 H 0.06068 -0.00866 0.27376 0.0
C307 C 0.17125 0.94916 0.23967 0.0
H308 H 0.09127 0.93907 0.31804 0.0
C309 C 0.15348 -0.02164 0.21388 0.0
C310 C 0.11442 -0.00469 0.2267 0.0
H311 H 0.20267 0.93834 0.23021 0.0
H312 H 0.1722 -0.01007 0.18587 0.0
C313 C 0.09108 -0.02091 0.26322 0.0
C314 C 0.89765 0.47177 0.21319 0.0
C315 C 0.92187 0.44466 0.23637 0.0
H316 H 0.86409 0.52701 0.21566 0.0
C317 C 0.93914 0.45757 0.27718 0.0
H318 H 0.88444 0.46318 0.18145 0.0
C319 C 0.92775 0.49462 0.29664 0.0
C320 C 0.89887 0.51883 0.27551 0.0
H321 H 0.95839 0.43757 0.29567 0.0
H322 H 0.93805 0.50217 0.32964 0.0
C323 C 0.886 0.50838 0.23275 0.0
C324 C 0.30547 0.11617 1.00548 0.0
C325 C 0.28322 0.09888 0.96893 0.0
H326 H 0.30203 0.1315 0.07359 0.0
C327 C 0.24001 0.08131 0.97444 0.0
H328 H 0.33875 0.12992 1.00241 0.0
C329 C 0.21893 0.08248 1.01498 0.0
C330 C 0.24057 0.10098 0.0512 0.0
H331 H 0.22183 0.06755 0.94712 0.0
H332 H 0.18532 0.0695 1.01768 0.0
C333 C 0.28439 0.11708 0.04626 0.0
C334 C 0.776 0.3548 0.04628 0.0
C335 C 0.81298 0.38263 0.05308 0.0
H336 H 0.72477 0.33285 1.0028 0.0
C337 C 0.82364 0.41317 0.02208 0.0
H338 H 0.76661 0.33119 0.06983 0.0
C339 C 0.79978 0.41399 0.98367 0.0
C340 C 0.76441 0.38462 0.97566 0.0
H341 H 0.85168 0.43527 0.02647 0.0
H342 H 0.81017 0.43665 0.95943 0.0
C343 C 0.75176 0.35595 1.00805 0.0
C344 C 0.27492 0.85494 0.55187 0.0
C345 C 0.30973 0.88519 0.55888 0.0
H346 H 0.22453 0.83037 0.50866 0.0
C347 C 0.31716 0.91702 0.52871 0.0
H348 H 0.26804 0.83026 0.57482 0.0
C349 C 0.2924 0.91692 0.49079 0.0
C350 C 0.25926 0.88535 0.48255 0.0
H351 H 0.34347 0.94094 0.53329 0.0
H352 H 0.30042 0.94069 0.46704 0.0
C353 C 0.24969 0.85519 0.51419 0.0
C354 C 0.75265 0.60742 0.53615 0.0
C355 C 0.71729 0.57712 0.53945 0.0
H356 H 0.80587 0.63366 0.49672 0.0
C357 C 0.71097 0.54753 0.50578 0.0
H358 H 0.75864 0.63047 0.56175 0.0
C359 C 0.73778 0.54956 0.46859 0.0
C360 C 0.77196 0.58085 0.4644 0.0
H361 H 0.68426 0.52365 0.50735 0.0
H362 H 0.73092 0.5272 0.44248 0.0
C363 C 0.77994 0.60909 0.49909 0.0
C364 C 0.024 0.25498 0.11892 0.0
C365 C 0.97832 0.25013 0.12398 0.0
H366 H 0.08351 0.22457 0.11628 0.0
C367 C 0.95656 0.21067 0.11933 0.0
H368 H 0.04133 0.28516 0.12298 0.0
C369 C 0.98067 0.1759 0.11709 0.0
C370 C 0.02661 0.18056 0.11803 0.0
H371 H 0.92131 0.20631 0.12376 0.0
H372 H 0.96355 0.14558 0.11999 0.0
C373 C 0.04806 0.22025 0.11495 0.0
C374 C 0.01404 0.68935 0.40627 0.0
C375 C 0.97654 0.71168 0.40511 0.0
H376 H 0.08412 0.69172 0.40735 0.0
C377 C 0.98189 0.75508 0.40741 0.0
H378 H 0.01115 0.65591 0.40475 0.0
C379 C 0.02381 0.77568 0.40864 0.0
C380 C 0.06138 0.75336 0.40793 0.0
H381 H 0.95375 0.7733 0.40669 0.0
H382 H 0.02676 0.80913 0.40891 0.0
C383 C 0.05595 0.70994 0.40783 0.0
C384 C 0.48713 0.6827 0.61993 0.0
C385 C 0.53301 0.68793 0.62188 0.0
H386 H 0.42709 0.7121 0.62612 0.0
C387 C 0.5539 0.72795 0.62045 0.0
H388 H 0.47042 0.6521 0.62163 0.0
C389 C 0.52918 0.76222 0.62482 0.0
C390 C 0.48341 0.75665 0.62868 0.0
H391 H 0.58927 0.73268 0.62265 0.0
H392 H 0.54595 0.7925 0.63 0.0
C393 C 0.46239 0.71705 0.62259 0.0
C394 C 0.87522 -0.01878 0.75629 0.0
C395 C 0.83141 -0.00891 0.75834 0.0
H396 H 0.92288 0.94231 0.77949 0.0
C397 C 0.80348 -0.02684 0.79078 0.0
H398 H 0.89769 -0.00495 0.73217 0.0
C399 C 0.81817 0.9438 0.81862 0.0
C400 C 0.86087 0.93135 0.81406 0.0
H401 H 0.76976 -0.0191 0.79387 0.0
H402 H 0.79508 0.92868 0.84138 0.0
C403 C 0.88974 0.95139 0.78372 0.0
C404 C 0.0985 0.48907 0.81331 0.0
C405 C 0.10137 0.51907 0.78103 0.0
H406 H 0.09596 0.42527 0.82806 0.0
C407 C 0.10233 0.50653 0.73692 0.0
H408 H 0.09736 0.49781 0.84752 0.0
C409 C 0.10224 0.46452 0.72549 0.0
C410 C 0.10019 0.43456 0.75805 0.0
H411 H 0.10463 0.52921 0.71138 0.0
H412 H 0.10434 0.45558 0.69142 0.0
C413 C 0.09749 0.44739 0.80199 0.0
C414 C 0.71447 0.82838 0.05646 0.0
C415 C 0.69769 0.79072 0.07442 0.0
H416 H 0.75615 0.85826 1.00767 0.0
C417 C 0.70968 0.75369 0.05501 0.0
H418 H 0.70606 0.85748 0.07076 0.0
C419 C 0.73826 0.75413 1.01915 0.0
C420 C 0.75589 0.79163 1.00166 0.0
H421 H 0.69743 0.7241 0.06786 0.0
H422 H 0.74688 0.72485 1.00546 0.0
C423 C 0.74337 0.82883 1.02048 0.0
C424 C 0.2708 0.60373 0.9767 0.0
C425 C 0.22726 0.59304 0.96428 0.0
H426 H 0.31781 0.60541 0.028 0.0
C427 C 0.1988 0.57118 0.99345 0.0
H428 H 0.29357 0.62041 0.95479 0.0
C429 C 0.21275 0.56219 0.03502 0.0
C430 C 0.25539 0.57523 0.04864 0.0
H431 H 0.16524 0.56197 0.98463 0.0
H432 H 0.18932 0.54659 0.05711 0.0
C433 C 0.28471 0.59505 1.0186 0.0
C434 C 0.77018 0.09897 0.47429 0.0
C435 C 0.72601 0.08974 0.46323 0.0
H436 H 0.81861 0.0992 0.52417 0.0
C437 C 0.69774 0.06873 0.4932 0.0
H438 H 0.79281 0.11493 0.45171 0.0
C439 C 0.71258 0.0592 0.53427 0.0
C440 C 0.75595 0.07092 0.54663 0.0
H441 H 0.6637 0.0606 0.48538 0.0
H442 H 0.68931 0.04435 0.55703 0.0
C443 C 0.78499 0.08983 0.51575 0.0
C444 C 0.21012 0.32891 0.54935 0.0
C445 C 0.19128 0.29188 0.56707 0.0
H446 H 0.25324 0.35707 0.50068 0.0
C447 C 0.20082 0.25427 0.54719 0.0
H448 H 0.20363 0.35841 0.564 0.0
C449 C 0.22911 0.25349 0.51118 0.0
C450 C 0.24891 0.29031 0.49402 0.0
H451 H 0.18689 0.22514 0.55984 0.0
H452 H 0.23588 0.22379 0.49717 0.0
C453 C 0.23875 0.32812 0.51323 0.0
C454 C 0.03933 0.73652 0.91162 0.0
C455 C 0.02603 0.69553 0.90005 0.0
H456 H 0.01867 0.79751 0.92166 0.0
C457 C 0.98147 0.68192 0.90252 0.0
H458 H 0.0736 0.74765 0.90937 0.0
C459 C 0.95016 0.71013 0.91142 0.0
C460 C 0.96314 0.75239 0.916 0.0
H461 H 0.97063 0.65046 0.89328 0.0
H462 H 0.91579 0.69986 0.90798 0.0
C463 C 0.00795 0.76498 0.91911 0.0
C464 C 0.00717 0.19566 0.7431 0.0
C465 C 0.02219 0.22085 0.70835 0.0
H466 H 0.96113 0.14802 0.7658 0.0
C467 C 0.00227 0.21445 0.66748 0.0
H468 H 0.02198 0.19917 0.77494 0.0
C469 C 0.96686 0.18454 0.66219 0.0
C470 C 0.95096 0.16064 0.69769 0.0
H471 H 0.01322 0.23319 0.64001 0.0
H472 H 0.95113 0.18107 0.6308 0.0
C473 C 0.97216 0.16608 0.73784 0.0
C474 C 0.53518 0.23473 0.40893 0.0
C475 C 0.52269 0.19329 0.39856 0.0
H476 H 0.51337 0.29555 0.41653 0.0
C477 C 0.47828 0.1791 0.40074 0.0
H478 H 0.56932 0.24631 0.40681 0.0
C479 C 0.44635 0.20704 0.40807 0.0
C480 C 0.45862 0.24952 0.41146 0.0
H481 H 0.46806 0.14729 0.39234 0.0
H482 H 0.41217 0.19617 0.4044 0.0
C483 C 0.50321 0.26286 0.41488 0.0
C484 C 0.65578 0.48113 0.71055 0.0
C485 C 0.61755 0.49875 0.72478 0.0
H486 H 0.70418 0.43955 0.72467 0.0
C487 C 0.59441 0.48193 0.76115 0.0
H488 H 0.67426 0.49306 0.68256 0.0
C489 C 0.61166 0.45109 0.78541 0.0
C490 C 0.65244 0.43697 0.77381 0.0
H491 H 0.56459 0.49461 0.77272 0.0
H492 H 0.59463 0.44043 0.81476 0.0
C493 C 0.67322 0.45079 0.73504 0.0
C494 C 0.43063 0.00121 0.79875 0.0
C495 C 0.40129 0.02522 0.77802 0.0
H496 H 0.46108 0.94405 0.79786 0.0
C497 C 0.38684 0.01391 0.73596 0.0
H498 H 0.44199 0.00937 0.83128 0.0
C499 C 0.39775 -0.0231 0.7167 0.0
C500 C 0.42276 0.95018 0.73953 0.0
H501 H 0.36438 0.03228 0.71928 0.0
H502 H 0.38348 0.96778 0.68556 0.0
C503 C 0.44125 0.96375 0.77964 0.0
C504 C 0.46433 0.27614 0.90756 0.0
C505 C 0.46813 0.23378 0.89945 0.0
H506 H 0.49721 0.33669 0.91261 0.0
C507 C 0.51017 0.21987 0.89336 0.0
H508 H 0.43247 0.28796 0.9125 0.0
C509 C 0.54736 0.24786 0.89368 0.0
C510 C 0.54336 0.29046 0.89979 0.0
H511 H 0.51432 0.18746 0.88721 0.0
H512 H 0.57912 0.23616 0.88768 0.0
C513 C 0.50148 0.30416 0.90758 0.0
C514 C 0.30152 0.47269 0.28981 0.0
C515 C 0.32912 0.49088 0.25729 0.0
H516 H 0.29313 0.42698 0.33913 0.0
C517 C 0.37249 0.47997 0.25366 0.0
H518 H 0.26818 0.48121 0.29407 0.0
C519 C 0.38679 0.44889 0.2796 0.0
C520 C 0.35816 0.4287 0.31004 0.0
H521 H 0.39468 0.49396 0.22938 0.0
H522 H 0.4195 0.43911 0.27419 0.0
C523 C 0.31603 0.44213 0.31621 0.0
C524 C 0.6018 0.0026 0.24007 0.0
C525 C 0.60062 0.01591 0.28391 0.0
H526 H 0.60478 0.95097 0.19563 0.0
C527 C 0.5984 -0.01346 0.31684 0.0
H528 H 0.60362 0.02478 0.21405 0.0
C529 C 0.59827 0.94473 0.3064 0.0
C530 C 0.6012 0.9312 0.26272 0.0
H531 H 0.59713 -0.00411 0.35087 0.0
H532 H 0.59724 0.9231 0.33291 0.0
C533 C 0.60256 0.96049 0.22953 0.0
C534 C 0.50269 0.714 0.17247 0.0
C535 C 0.52335 0.71881 0.21313 0.0
H536 H 0.44998 0.6831 0.13583 0.0
C537 C 0.50803 0.69314 0.24739 0.0
H538 H 0.51381 0.73318 0.1454 0.0
C539 C 0.47198 0.66474 0.24196 0.0
C540 C 0.45001 0.66101 0.2021 0.0
H541 H 0.52339 0.69544 0.27902 0.0
H542 H 0.46075 0.6463 0.26957 0.0
C543 C 0.46623 0.6853 0.167 0.0
loop_
_geom_bond_atom_site_label_1
_geom_bond_atom_site_label_2
_geom_bond_distance
_geom_bond_site_symmetry_2
_ccdc_geom_bond_type
Zn0 O3 2.031 . S
Zn0 O5 2.049 . S
Zn0 O10 2.067 . S
Zn1 O2 1.962 . S
Zn1 O4 1.986 . S
Zn1 O6 1.996 . S
Zn1 O9 1.943 . S
O2 Zn1 1.962 . S
O2 C7 1.254 . S
O3 Zn0 2.031 . S
O3 C7 1.269 . S
O4 Zn1 1.986 . S
O4 C11 1.262 . S
O5 Zn0 2.049 . S
O5 C13 1.260 . S
O6 Zn1 1.996 . S
O6 C13 1.257 . S
C7 O2 1.254 . S
C7 O3 1.269 . S
C8 O9 1.249 . S
C8 O10 1.270 . S
O9 Zn1 1.943 . S
O9 C8 1.249 . S
O10 Zn0 2.067 . S
O10 C8 1.270 . S
C11 O4 1.262 . S
C11 O12 1.232 . S
O12 C11 1.232 . S
C13 O5 1.260 . S
C13 O6 1.257 . S
Zn14 O17 2.031 . S
Zn14 O19 2.049 . S
Zn14 O24 2.067 . S
Zn15 O16 1.962 . S
Zn15 O18 1.986 . S
Zn15 O20 1.996 . S
Zn15 O23 1.943 . S
O16 Zn15 1.962 . S
O16 C21 1.254 . S
O17 Zn14 2.031 . S
O17 C21 1.269 . S
O18 Zn15 1.986 . S
O18 C25 1.262 . S
O19 Zn14 2.049 . S
O19 C27 1.260 . S
O20 Zn15 1.996 . S
O20 C27 1.257 . S
C21 O16 1.254 . S
C21 O17 1.269 . S
C22 O23 1.249 . S
C22 O24 1.270 . S
O23 Zn15 1.943 . S
O23 C22 1.249 . S
O24 Zn14 2.067 . S
O24 C22 1.270 . S
C25 O18 1.262 . S
C25 O26 1.232 . S
O26 C25 1.232 . S
C27 O19 1.260 . S
C27 O20 1.257 . S
Zn28 O31 2.031 . S
Zn28 O33 2.049 . S
Zn28 O38 2.067 . S
Zn29 O30 1.962 . S
Zn29 O32 1.986 . S
Zn29 O34 1.996 . S
Zn29 O37 1.943 . S
O30 Zn29 1.962 . S
O30 C35 1.254 . S
O31 Zn28 2.031 . S
O31 C35 1.269 . S
O32 Zn29 1.986 . S
O32 C39 1.262 . S
O33 Zn28 2.049 . S
O33 C41 1.260 . S
O34 Zn29 1.996 . S
O34 C41 1.257 . S
C35 O30 1.254 . S
C35 O31 1.269 . S
C36 O37 1.249 . S
C36 O38 1.270 . S
O37 Zn29 1.943 . S
O37 C36 1.249 . S
O38 Zn28 2.067 . S
O38 C36 1.270 . S
C39 O32 1.262 . S
C39 O40 1.232 . S
O40 C39 1.232 . S
C41 O33 1.260 . S
C41 O34 1.257 . S
Zn42 O45 2.031 . S
Zn42 O47 2.049 . S
Zn42 O52 2.067 . S
Zn43 O44 1.962 . S
Zn43 O46 1.986 . S
Zn43 O48 1.996 . S
Zn43 O51 1.943 . S
O44 Zn43 1.962 . S
O44 C49 1.254 . S
O45 Zn42 2.031 . S
O45 C49 1.269 . S
O46 Zn43 1.986 . S
O46 C53 1.262 . S
O47 Zn42 2.049 . S
O47 C55 1.260 . S
O48 Zn43 1.996 . S
O48 C55 1.257 . S
C49 O44 1.254 . S
C49 O45 1.269 . S
C50 O51 1.249 . S
C50 O52 1.270 . S
O51 Zn43 1.943 . S
O51 C50 1.249 . S
O52 Zn42 2.067 . S
O52 C50 1.270 . S
C53 O46 1.262 . S
C53 O54 1.232 . S
O54 C53 1.232 . S
C55 O47 1.260 . S
C55 O48 1.257 . S
Zn56 O59 2.031 . S
Zn56 O61 2.049 . S
Zn56 O66 2.067 . S
Zn57 O58 1.962 . S
Zn57 O60 1.986 . S
Zn57 O62 1.996 . S
Zn57 O65 1.943 . S
O58 Zn57 1.962 . S
O58 C63 1.254 . S
O59 Zn56 2.031 . S
O59 C63 1.269 . S
O60 Zn57 1.986 . S
O60 C67 1.262 . S
O61 Zn56 2.049 . S
O61 C69 1.260 . S
O62 Zn57 1.996 . S
O62 C69 1.257 . S
C63 O58 1.254 . S
C63 O59 1.269 . S
C64 O65 1.249 . S
C64 O66 1.270 . S
O65 Zn57 1.943 . S
O65 C64 1.249 . S
O66 Zn56 2.067 . S
O66 C64 1.270 . S
C67 O60 1.262 . S
C67 O68 1.232 . S
O68 C67 1.232 . S
C69 O61 1.260 . S
C69 O62 1.257 . S
Zn70 O73 2.031 . S
Zn70 O75 2.049 . S
Zn70 O80 2.067 . S
Zn71 O72 1.962 . S
Zn71 O74 1.986 . S
Zn71 O76 1.996 . S
Zn71 O79 1.943 . S
O72 Zn71 1.962 . S
O72 C77 1.254 . S
O73 Zn70 2.031 . S
O73 C77 1.269 . S
O74 Zn71 1.986 . S
O74 C81 1.262 . S
O75 Zn70 2.049 . S
O75 C83 1.260 . S
O76 Zn71 1.996 . S
O76 C83 1.257 . S
C77 O72 1.254 . S
C77 O73 1.269 . S
C78 O79 1.249 . S
C78 O80 1.270 . S
O79 Zn71 1.943 . S
O79 C78 1.249 . S
O80 Zn70 2.067 . S
O80 C78 1.270 . S
C81 O74 1.262 . S
C81 O82 1.232 . S
O82 C81 1.232 . S
C83 O75 1.260 . S
C83 O76 1.257 . S
Zn84 O87 2.031 . S
Zn84 O89 2.049 . S
Zn84 O94 2.067 . S
Zn85 O86 1.962 . S
Zn85 O88 1.986 . S
Zn85 O90 1.996 . S
Zn85 O93 1.943 . S
O86 Zn85 1.962 . S
O86 C91 1.254 . S
O87 Zn84 2.031 . S
O87 C91 1.269 . S
O88 Zn85 1.986 . S
O88 C95 1.262 . S
O89 Zn84 2.049 . S
O89 C97 1.260 . S
O90 Zn85 1.996 . S
O90 C97 1.257 . S
C91 O86 1.254 . S
C91 O87 1.269 . S
C92 O93 1.249 . S
C92 O94 1.270 . S
O93 Zn85 1.943 . S
O93 C92 1.249 . S
O94 Zn84 2.067 . S
O94 C92 1.270 . S
C95 O88 1.262 . S
C95 O96 1.232 . S
O96 C95 1.232 . S
C97 O89 1.260 . S
C97 O90 1.257 . S
Zn98 O101 2.031 . S
Zn98 O103 2.049 . S
Zn98 O108 2.067 . S
Zn99 O100 1.962 . S
Zn99 O102 1.986 . S
Zn99 O104 1.996 . S
Zn99 O107 1.943 . S
O100 Zn99 1.962 . S
O100 C105 1.254 . S
O101 Zn98 2.031 . S
O101 C105 1.269 . S
O102 Zn99 1.986 . S
O102 C109 1.262 . S
O103 Zn98 2.049 . S
O103 C111 1.260 . S
O104 Zn99 1.996 . S
O104 C111 1.257 . S
C105 O100 1.254 . S
C105 O101 1.269 . S
C106 O107 1.249 . S
C106 O108 1.270 . S
O107 Zn99 1.943 . S
O107 C106 1.249 . S
O108 Zn98 2.067 . S
O108 C106 1.270 . S
C109 O102 1.262 . S
C109 O110 1.232 . S
O110 C109 1.232 . S
C111 O103 1.260 . S
C111 O104 1.257 . S
Zn112 O115 2.031 . S
Zn112 O117 2.049 . S
Zn112 O122 2.067 . S
Zn113 O114 1.962 . S
Zn113 O116 1.986 . S
Zn113 O118 1.996 . S
Zn113 O121 1.943 . S
O114 Zn113 1.962 . S
O114 C119 1.254 . S
O115 Zn112 2.031 . S
O115 C119 1.269 . S
O116 Zn113 1.986 . S
O116 C123 1.262 . S
O117 Zn112 2.049 . S
O117 C125 1.260 . S
O118 Zn113 1.996 . S
O118 C125 1.257 . S
C119 O114 1.254 . S
C119 O115 1.269 . S
C120 O121 1.249 . S
C120 O122 1.270 . S
O121 Zn113 1.943 . S
O121 C120 1.249 . S
O122 Zn112 2.067 . S
O122 C120 1.270 . S
C123 O116 1.262 . S
C123 O124 1.232 . S
O124 C123 1.232 . S
C125 O117 1.260 . S
C125 O118 1.257 . S
Zn126 O129 2.031 . S
Zn126 O131 2.049 . S
Zn126 O136 2.067 . S
Zn127 O128 1.962 . S
Zn127 O130 1.986 . S
Zn127 O132 1.996 . S
Zn127 O135 1.943 . S
O128 Zn127 1.962 . S
O128 C133 1.254 . S
O129 Zn126 2.031 . S
O129 C133 1.269 . S
O130 Zn127 1.986 . S
O130 C137 1.262 . S
O131 Zn126 2.049 . S
O131 C139 1.260 . S
O132 Zn127 1.996 . S
O132 C139 1.257 . S
C133 O128 1.254 . S
C133 O129 1.269 . S
C134 O135 1.249 . S
C134 O136 1.270 . S
O135 Zn127 1.943 . S
O135 C134 1.249 . S
O136 Zn126 2.067 . S
O136 C134 1.270 . S
C137 O130 1.262 . S
C137 O138 1.232 . S
O138 C137 1.232 . S
C139 O131 1.260 . S
C139 O132 1.257 . S
Zn140 O143 2.031 . S
Zn140 O145 2.049 . S
Zn140 O150 2.067 . S
Zn141 O142 1.962 . S
Zn141 O144 1.986 . S
Zn141 O146 1.996 . S
Zn141 O149 1.943 . S
O142 Zn141 1.962 . S
O142 C147 1.254 . S
O143 Zn140 2.031 . S
O143 C147 1.269 . S
O144 Zn141 1.986 . S
O144 C151 1.262 . S
O145 Zn140 2.049 . S
O145 C153 1.260 . S
O146 Zn141 1.996 . S
O146 C153 1.257 . S
C147 O142 1.254 . S
C147 O143 1.269 . S
C148 O149 1.249 . S
C148 O150 1.270 . S
O149 Zn141 1.943 . S
O149 C148 1.249 . S
O150 Zn140 2.067 . S
O150 C148 1.270 . S
C151 O144 1.262 . S
C151 O152 1.232 . S
O152 C151 1.232 . S
C153 O145 1.260 . S
C153 O146 1.257 . S
Zn154 O157 2.031 . S
Zn154 O159 2.049 . S
Zn154 O164 2.067 . S
Zn155 O156 1.962 . S
Zn155 O158 1.986 . S
Zn155 O160 1.996 . S
Zn155 O163 1.943 . S
O156 Zn155 1.962 . S
O156 C161 1.254 . S
O157 Zn154 2.031 . S
O157 C161 1.269 . S
O158 Zn155 1.986 . S
O158 C165 1.262 . S
O159 Zn154 2.049 . S
O159 C167 1.260 . S
O160 Zn155 1.996 . S
O160 C167 1.257 . S
C161 O156 1.254 . S
C161 O157 1.269 . S
C162 O163 1.249 . S
C162 O164 1.270 . S
O163 Zn155 1.943 . S
O163 C162 1.249 . S
O164 Zn154 2.067 . S
O164 C162 1.270 . S
C165 O158 1.262 . S
C165 O166 1.232 . S
O166 C165 1.232 . S
C167 O159 1.260 . S
C167 O160 1.257 . S
Zn168 O171 2.031 . S
Zn168 O173 2.049 . S
Zn168 O178 2.067 . S
Zn169 O170 1.962 . S
Zn169 O172 1.986 . S
Zn169 O174 1.996 . S
Zn169 O177 1.943 . S
O170 Zn169 1.962 . S
O170 C175 1.254 . S
O171 Zn168 2.031 . S
O171 C175 1.269 . S
O172 Zn169 1.986 . S
O172 C179 1.262 . S
O173 Zn168 2.049 . S
O173 C181 1.260 . S
O174 Zn169 1.996 . S
O174 C181 1.257 . S
C175 O170 1.254 . S
C175 O171 1.269 . S
C176 O177 1.249 . S
C176 O178 1.270 . S
O177 Zn169 1.943 . S
O177 C176 1.249 . S
O178 Zn168 2.067 . S
O178 C176 1.270 . S
C179 O172 1.262 . S
C179 O180 1.232 . S
O180 C179 1.232 . S
C181 O173 1.260 . S
C181 O174 1.257 . S
Zn182 O185 2.031 . S
Zn182 O187 2.049 . S
Zn182 O192 2.067 . S
Zn183 O184 1.962 . S
Zn183 O186 1.986 . S
Zn183 O188 1.996 . S
Zn183 O191 1.943 . S
O184 Zn183 1.962 . S
O184 C189 1.254 . S
O185 Zn182 2.031 . S
O185 C189 1.269 . S
O186 Zn183 1.986 . S
O186 C193 1.262 . S
O187 Zn182 2.049 . S
O187 C195 1.260 . S
O188 Zn183 1.996 . S
O188 C195 1.257 . S
C189 O184 1.254 . S
C189 O185 1.269 . S
C190 O191 1.249 . S
C190 O192 1.270 . S
O191 Zn183 1.943 . S
O191 C190 1.249 . S
O192 Zn182 2.067 . S
O192 C190 1.270 . S
C193 O186 1.262 . S
C193 O194 1.232 . S
O194 C193 1.232 . S
C195 O187 1.260 . S
C195 O188 1.257 . S
Zn196 O199 2.031 . S
Zn196 O201 2.049 . S
Zn196 O206 2.067 . S
Zn197 O198 1.962 . S
Zn197 O200 1.986 . S
Zn197 O202 1.996 . S
Zn197 O205 1.943 . S
O198 Zn197 1.962 . S
O198 C203 1.254 . S
O199 Zn196 2.031 . S
O199 C203 1.269 . S
O200 Zn197 1.986 . S
O200 C207 1.262 . S
O201 Zn196 2.049 . S
O201 C209 1.260 . S
O202 Zn197 1.996 . S
O202 C209 1.257 . S
C203 O198 1.254 . S
C203 O199 1.269 . S
C204 O205 1.249 . S
C204 O206 1.270 . S
O205 Zn197 1.943 . S
O205 C204 1.249 . S
O206 Zn196 2.067 . S
O206 C204 1.270 . S
C207 O200 1.262 . S
C207 O208 1.232 . S
O208 C207 1.232 . S
C209 O201 1.260 . S
C209 O202 1.257 . S
Zn210 O213 2.031 . S
Zn210 O215 2.049 . S
Zn210 O220 2.067 . S
Zn211 O212 1.962 . S
Zn211 O214 1.986 . S
Zn211 O216 1.996 . S
Zn211 O219 1.943 . S
O212 Zn211 1.962 . S
O212 C217 1.254 . S
O213 Zn210 2.031 . S
O213 C217 1.269 . S
O214 Zn211 1.986 . S
O214 C221 1.262 . S
O215 Zn210 2.049 . S
O215 C223 1.260 . S
O216 Zn211 1.996 . S
O216 C223 1.257 . S
C217 O212 1.254 . S
C217 O213 1.269 . S
C218 O219 1.249 . S
C218 O220 1.270 . S
O219 Zn211 1.943 . S
O219 C218 1.249 . S
O220 Zn210 2.067 . S
O220 C218 1.270 . S
C221 O214 1.262 . S
C221 O222 1.232 . S
O222 C221 1.232 . S
C223 O215 1.260 . S
C223 O216 1.257 . S
C224 C225 1.387 . S
C224 H228 0.950 . S
C224 C233 1.390 . S
C225 C224 1.387 . S
C225 C227 1.387 . S
H226 C233 0.950 . S
C227 C225 1.387 . S
C227 C229 1.390 . S
C227 H231 0.950 . S
H228 C224 0.950 . S
C229 C227 1.390 . S
C229 C230 1.387 . S
C229 H232 0.950 . S
C230 C229 1.387 . S
C230 C233 1.387 . S
H231 C227 0.950 . S
H232 C229 0.950 . S
C233 C224 1.390 . S
C233 H226 0.950 . S
C233 C230 1.387 . S
C234 C235 1.387 . S
C234 H238 0.950 . S
C234 C243 1.390 . S
C235 C234 1.387 . S
C235 C237 1.387 . S
H236 C243 0.950 . S
C237 C235 1.387 . S
C237 C239 1.390 . S
C237 H241 0.950 . S
H238 C234 0.950 . S
C239 C237 1.390 . S
C239 C240 1.387 . S
C239 H242 0.950 . S
C240 C239 1.387 . S
C240 C243 1.387 . S
H241 C237 0.950 . S
H242 C239 0.950 . S
C243 C234 1.390 . S
C243 H236 0.950 . S
C243 C240 1.387 . S
C244 C245 1.387 . S
C244 H248 0.950 . S
C244 C253 1.390 . S
C245 C244 1.387 . S
C245 C247 1.387 . S
H246 C253 0.950 . S
C247 C245 1.387 . S
C247 C249 1.390 . S
C247 H251 0.950 . S
H248 C244 0.950 . S
C249 C247 1.390 . S
C249 C250 1.387 . S
C249 H252 0.950 . S
C250 C249 1.387 . S
C250 C253 1.387 . S
H251 C247 0.950 . S
H252 C249 0.950 . S
C253 C244 1.390 . S
C253 H246 0.950 . S
C253 C250 1.387 . S
C254 C255 1.387 . S
C254 H258 0.950 . S
C254 C263 1.390 . S
C255 C254 1.387 . S
C255 C257 1.387 . S
H256 C263 0.950 . S
C257 C255 1.387 . S
C257 C259 1.390 . S
C257 H261 0.950 . S
H258 C254 0.950 . S
C259 C257 1.390 . S
C259 C260 1.387 . S
C259 H262 0.950 . S
C260 C259 1.387 . S
C260 C263 1.387 . S
H261 C257 0.950 . S
H262 C259 0.950 . S
C263 C254 1.390 . S
C263 H256 0.950 . S
C263 C260 1.387 . S
C264 C265 1.387 . S
C264 H268 0.950 . S
C264 C273 1.390 . S
C265 C264 1.387 . S
C265 C267 1.387 . S
H266 C273 0.950 . S
C267 C265 1.387 . S
C267 C269 1.390 . S
C267 H271 0.950 . S
H268 C264 0.950 . S
C269 C267 1.390 . S
C269 C270 1.387 . S
C269 H272 0.950 . S
C270 C269 1.387 . S
C270 C273 1.387 . S
H271 C267 0.950 . S
H272 C269 0.950 . S
C273 C264 1.390 . S
C273 H266 0.950 . S
C273 C270 1.387 . S
C274 C275 1.387 . S
C274 H278 0.950 . S
C274 C283 1.390 . S
C275 C274 1.387 . S
C275 C277 1.387 . S
H276 C283 0.950 . S
C277 C275 1.387 . S
C277 C279 1.390 . S
C277 H281 0.950 . S
H278 C274 0.950 . S
C279 C277 1.390 . S
C279 C280 1.387 . S
C279 H282 0.950 . S
C280 C279 1.387 . S
C280 C283 1.387 . S
H281 C277 0.950 . S
H282 C279 0.950 . S
C283 C274 1.390 . S
C283 H276 0.950 . S
C283 C280 1.387 . S
C284 C285 1.387 . S
C284 H288 0.950 . S
C284 C293 1.390 . S
C285 C284 1.387 . S
C285 C287 1.387 . S
H286 C293 0.950 . S
C287 C285 1.387 . S
C287 C289 1.390 . S
C287 H291 0.950 . S
H288 C284 0.950 . S
C289 C287 1.390 . S
C289 C290 1.387 . S
C289 H292 0.950 . S
C290 C289 1.387 . S
C290 C293 1.387 . S
H291 C287 0.950 . S
H292 C289 0.950 . S
C293 C284 1.390 . S
C293 H286 0.950 . S
C293 C290 1.387 . S
C294 C295 1.387 . S
C294 H298 0.950 . S
C294 C303 1.390 . S
C295 C294 1.387 . S
C295 C297 1.387 . S
H296 C303 0.950 . S
C297 C295 1.387 . S
C297 C299 1.390 . S
C297 H301 0.950 . S
H298 C294 0.950 . S
C299 C297 1.390 . S
C299 C300 1.387 . S
C299 H302 0.950 . S
C300 C299 1.387 . S
C300 C303 1.387 . S
H301 C297 0.950 . S
H302 C299 0.950 . S
C303 C294 1.390 . S
C303 H296 0.950 . S
C303 C300 1.387 . S
C304 C305 1.387 . S
C304 H308 0.950 . S
C304 C313 1.390 1_565 S
C305 C304 1.387 . S
C305 C307 1.387 . S
H306 C313 0.950 . S
C307 C305 1.387 . S
C307 C309 1.390 1_565 S
C307 H311 0.950 . S
H308 C304 0.950 . S
C309 C307 1.390 1_545 S
C309 C310 1.387 . S
C309 H312 0.950 . S
C310 C309 1.387 . S
C310 C313 1.387 . S
H311 C307 0.950 . S
H312 C309 0.950 . S
C313 C304 1.390 1_545 S
C313 H306 0.950 . S
C313 C310 1.387 . S
C314 C315 1.387 . S
C314 H318 0.950 . S
C314 C323 1.390 . S
C315 C314 1.387 . S
C315 C317 1.387 . S
H316 C323 0.950 . S
C317 C315 1.387 . S
C317 C319 1.390 . S
C317 H321 0.950 . S
H318 C314 0.950 . S
C319 C317 1.390 . S
C319 C320 1.387 . S
C319 H322 0.950 . S
C320 C319 1.387 . S
C320 C323 1.387 . S
H321 C317 0.950 . S
H322 C319 0.950 . S
C323 C314 1.390 . S
C323 H316 0.950 . S
C323 C320 1.387 . S
C324 C325 1.387 . S
C324 H328 0.950 . S
C324 C333 1.390 1_556 S
C325 C324 1.387 . S
C325 C327 1.387 . S
H326 C333 0.950 . S
C327 C325 1.387 . S
C327 C329 1.390 1_556 S
C327 H331 0.950 . S
H328 C324 0.950 . S
C329 C327 1.390 1_554 S
C329 C330 1.387 . S
C329 H332 0.950 . S
C330 C329 1.387 . S
C330 C333 1.387 . S
H331 C327 0.950 . S
H332 C329 0.950 . S
C333 C324 1.390 1_554 S
C333 H326 0.950 . S
C333 C330 1.387 . S
C334 C335 1.387 . S
C334 H338 0.950 . S
C334 C343 1.390 1_554 S
C335 C334 1.387 . S
C335 C337 1.387 . S
H336 C343 0.950 . S
C337 C335 1.387 . S
C337 C339 1.390 1_554 S
C337 H341 0.950 . S
H338 C334 0.950 . S
C339 C337 1.390 1_556 S
C339 C340 1.387 . S
C339 H342 0.950 . S
C340 C339 1.387 . S
C340 C343 1.387 . S
H341 C337 0.950 . S
H342 C339 0.950 . S
C343 C334 1.390 1_556 S
C343 H336 0.950 . S
C343 C340 1.387 . S
C344 C345 1.387 . S
C344 H348 0.950 . S
C344 C353 1.390 . S
C345 C344 1.387 . S
C345 C347 1.387 . S
H346 C353 0.950 . S
C347 C345 1.387 . S
C347 C349 1.390 . S
C347 H351 0.950 . S
H348 C344 0.950 . S
C349 C347 1.390 . S
C349 C350 1.387 . S
C349 H352 0.950 . S
C350 C349 1.387 . S
C350 C353 1.387 . S
H351 C347 0.950 . S
H352 C349 0.950 . S
C353 C344 1.390 . S
C353 H346 0.950 . S
C353 C350 1.387 . S
C354 C355 1.387 . S
C354 H358 0.950 . S
C354 C363 1.390 . S
C355 C354 1.387 . S
C355 C357 1.387 . S
H356 C363 0.950 . S
C357 C355 1.387 . S
C357 C359 1.390 . S
C357 H361 0.950 . S
H358 C354 0.950 . S
C359 C357 1.390 . S
C359 C360 1.387 . S
C359 H362 0.950 . S
C360 C359 1.387 . S
C360 C363 1.387 . S
H361 C357 0.950 . S
H362 C359 0.950 . S
C363 C354 1.390 . S
C363 H356 0.950 . S
C363 C360 1.387 . S
C364 C365 1.387 . S
C364 H368 0.950 . S
C364 C373 1.390 1_655 S
C365 C364 1.387 . S
C365 C367 1.387 . S
H366 C373 0.950 . S
C367 C365 1.387 . S
C367 C369 1.390 1_655 S
C367 H371 0.950 . S
H368 C364 0.950 . S
C369 C367 1.390 1_455 S
C369 C370 1.387 . S
C369 H372 0.950 . S
C370 C369 1.387 . S
C370 C373 1.387 . S
H371 C367 0.950 . S
H372 C369 0.950 . S
C373 C364 1.390 1_455 S
C373 H366 0.950 . S
C373 C370 1.387 . S
C374 C375 1.387 . S
C374 H378 0.950 . S
C374 C383 1.390 1_655 S
C375 C374 1.387 . S
C375 C377 1.387 . S
H376 C383 0.950 . S
C377 C375 1.387 . S
C377 C379 1.390 1_655 S
C377 H381 0.950 . S
H378 C374 0.950 . S
C379 C377 1.390 1_455 S
C379 C380 1.387 . S
C379 H382 0.950 . S
C380 C379 1.387 . S
C380 C383 1.387 . S
H381 C377 0.950 . S
H382 C379 0.950 . S
C383 C374 1.390 1_455 S
C383 H376 0.950 . S
C383 C380 1.387 . S
C384 C385 1.387 . S
C384 H388 0.950 . S
C384 C393 1.390 . S
C385 C384 1.387 . S
C385 C387 1.387 . S
H386 C393 0.950 . S
C387 C385 1.387 . S
C387 C389 1.390 . S
C387 H391 0.950 . S
H388 C384 0.950 . S
C389 C387 1.390 . S
C389 C390 1.387 . S
C389 H392 0.950 . S
C390 C389 1.387 . S
C390 C393 1.387 . S
H391 C387 0.950 . S
H392 C389 0.950 . S
C393 C384 1.390 . S
C393 H386 0.950 . S
C393 C390 1.387 . S
C394 C395 1.387 . S
C394 H398 0.950 . S
C394 C403 1.390 1_545 S
C395 C394 1.387 . S
C395 C397 1.387 . S
H396 C403 0.950 . S
C397 C395 1.387 . S
C397 C399 1.390 1_545 S
C397 H401 0.950 . S
H398 C394 0.950 . S
C399 C397 1.390 1_565 S
C399 C400 1.387 . S
C399 H402 0.950 . S
C400 C399 1.387 . S
C400 C403 1.387 . S
H401 C397 0.950 . S
H402 C399 0.950 . S
C403 C394 1.390 1_565 S
C403 H396 0.950 . S
C403 C400 1.387 . S
C404 C405 1.387 . S
C404 H408 0.950 . S
C404 C413 1.390 . S
C405 C404 1.387 . S
C405 C407 1.387 . S
H406 C413 0.950 . S
C407 C405 1.387 . S
C407 C409 1.390 . S
C407 H411 0.950 . S
H408 C404 0.950 . S
C409 C407 1.390 . S
C409 C410 1.387 . S
C409 H412 0.950 . S
C410 C409 1.387 . S
C410 C413 1.387 . S
H411 C407 0.950 . S
H412 C409 0.950 . S
C413 C404 1.390 . S
C413 H406 0.950 . S
C413 C410 1.387 . S
C414 C415 1.387 . S
C414 H418 0.950 . S
C414 C423 1.390 1_554 S
C415 C414 1.387 . S
C415 C417 1.387 . S
H416 C423 0.950 . S
C417 C415 1.387 . S
C417 C419 1.390 1_554 S
C417 H421 0.950 . S
H418 C414 0.950 . S
C419 C417 1.390 1_556 S
C419 C420 1.387 . S
C419 H422 0.950 . S
C420 C419 1.387 . S
C420 C423 1.387 . S
H421 C417 0.950 . S
H422 C419 0.950 . S
C423 C414 1.390 1_556 S
C423 H416 0.950 . S
C423 C420 1.387 . S
C424 C425 1.387 . S
C424 H428 0.950 . S
C424 C433 1.390 1_556 S
C425 C424 1.387 . S
C425 C427 1.387 . S
H426 C433 0.950 . S
C427 C425 1.387 . S
C427 C429 1.390 1_556 S
C427 H431 0.950 . S
H428 C424 0.950 . S
C429 C427 1.390 1_554 S
C429 C430 1.387 . S
C429 H432 0.950 . S
C430 C429 1.387 . S
C430 C433 1.387 . S
H431 C427 0.950 . S
H432 C429 0.950 . S
C433 C424 1.390 1_554 S
C433 H426 0.950 . S
C433 C430 1.387 . S
C434 C435 1.387 . S
C434 H438 0.950 . S
C434 C443 1.390 . S
C435 C434 1.387 . S
C435 C437 1.387 . S
H436 C443 0.950 . S
C437 C435 1.387 . S
C437 C439 1.390 . S
C437 H441 0.950 . S
H438 C434 0.950 . S
C439 C437 1.390 . S
C439 C440 1.387 . S
C439 H442 0.950 . S
C440 C439 1.387 . S
C440 C443 1.387 . S
H441 C437 0.950 . S
H442 C439 0.950 . S
C443 C434 1.390 . S
C443 H436 0.950 . S
C443 C440 1.387 . S
C444 C445 1.387 . S
C444 H448 0.950 . S
C444 C453 1.390 . S
C445 C444 1.387 . S
C445 C447 1.387 . S
H446 C453 0.950 . S
C447 C445 1.387 . S
C447 C449 1.390 . S
C447 H451 0.950 . S
H448 C444 0.950 . S
C449 C447 1.390 . S
C449 C450 1.387 . S
C449 H452 0.950 . S
C450 C449 1.387 . S
C450 C453 1.387 . S
H451 C447 0.950 . S
H452 C449 0.950 . S
C453 C444 1.390 . S
C453 H446 0.950 . S
C453 C450 1.387 . S
C454 C455 1.387 . S
C454 H458 0.950 . S
C454 C463 1.390 1_455 S
C455 C454 1.387 . S
C455 C457 1.387 . S
H456 C463 0.950 . S
C457 C455 1.387 . S
C457 C459 1.390 1_455 S
C457 H461 0.950 . S
H458 C454 0.950 . S
C459 C457 1.390 1_655 S
C459 C460 1.387 . S
C459 H462 0.950 . S
C460 C459 1.387 . S
C460 C463 1.387 . S
H461 C457 0.950 . S
H462 C459 0.950 . S
C463 C454 1.390 1_655 S
C463 H456 0.950 . S
C463 C460 1.387 . S
C464 C465 1.387 . S
C464 H468 0.950 . S
C464 C473 1.390 1_455 S
C465 C464 1.387 . S
C465 C467 1.387 . S
H466 C473 0.950 . S
C467 C465 1.387 . S
C467 C469 1.390 1_455 S
C467 H471 0.950 . S
H468 C464 0.950 . S
C469 C467 1.390 1_655 S
C469 C470 1.387 . S
C469 H472 0.950 . S
C470 C469 1.387 . S
C470 C473 1.387 . S
H471 C467 0.950 . S
H472 C469 0.950 . S
C473 C464 1.390 1_655 S
C473 H466 0.950 . S
C473 C470 1.387 . S
C474 C475 1.387 . S
C474 H478 0.950 . S
C474 C483 1.390 . S
C475 C474 1.387 . S
C475 C477 1.387 . S
H476 C483 0.950 . S
C477 C475 1.387 . S
C477 C479 1.390 . S
C477 H481 0.950 . S
H478 C474 0.950 . S
C479 C477 1.390 . S
C479 C480 1.387 . S
C479 H482 0.950 . S
C480 C479 1.387 . S
C480 C483 1.387 . S
H481 C477 0.950 . S
H482 C479 0.950 . S
C483 C474 1.390 . S
C483 H476 0.950 . S
C483 C480 1.387 . S
C484 C485 1.387 . S
C484 H488 0.950 . S
C484 C493 1.390 . S
C485 C484 1.387 . S
C485 C487 1.387 . S
H486 C493 0.950 . S
C487 C485 1.387 . S
C487 C489 1.390 . S
C487 H491 0.950 . S
H488 C484 0.950 . S
C489 C487 1.390 . S
C489 C490 1.387 . S
C489 H492 0.950 . S
C490 C489 1.387 . S
C490 C493 1.387 . S
H491 C487 0.950 . S
H492 C489 0.950 . S
C493 C484 1.390 . S
C493 H486 0.950 . S
C493 C490 1.387 . S
C494 C495 1.387 . S
C494 H498 0.950 . S
C494 C503 1.390 1_545 S
C495 C494 1.387 . S
C495 C497 1.387 1_545 S
H496 C503 0.950 . S
C497 C495 1.387 1_565 S
C497 C499 1.390 . S
C497 H501 0.950 . S
H498 C494 0.950 . S
C499 C497 1.390 . S
C499 C500 1.387 . S
C499 H502 0.950 . S
C500 C499 1.387 . S
C500 C503 1.387 . S
H501 C497 0.950 . S
H502 C499 0.950 . S
C503 C494 1.390 1_565 S
C503 H496 0.950 . S
C503 C500 1.387 . S
C504 C505 1.387 . S
C504 H508 0.950 . S
C504 C513 1.390 . S
C505 C504 1.387 . S
C505 C507 1.387 . S
H506 C513 0.950 . S
C507 C505 1.387 . S
C507 C509 1.390 . S
C507 H511 0.950 . S
H508 C504 0.950 . S
C509 C507 1.390 . S
C509 C510 1.387 . S
C509 H512 0.950 . S
C510 C509 1.387 . S
C510 C513 1.387 . S
H511 C507 0.950 . S
H512 C509 0.950 . S
C513 C504 1.390 . S
C513 H506 0.950 . S
C513 C510 1.387 . S
C514 C515 1.387 . S
C514 H518 0.950 . S
C514 C523 1.390 . S
C515 C514 1.387 . S
C515 C517 1.387 . S
H516 C523 0.950 . S
C517 C515 1.387 . S
C517 C519 1.390 . S
C517 H521 0.950 . S
H518 C514 0.950 . S
C519 C517 1.390 . S
C519 C520 1.387 . S
C519 H522 0.950 . S
C520 C519 1.387 . S
C520 C523 1.387 . S
H521 C517 0.950 . S
H522 C519 0.950 . S
C523 C514 1.390 . S
C523 H516 0.950 . S
C523 C520 1.387 . S
C524 C525 1.387 . S
C524 H528 0.950 . S
C524 C533 1.390 1_545 S
C525 C524 1.387 . S
C525 C527 1.387 . S
H526 C533 0.950 . S
C527 C525 1.387 . S
C527 C529 1.390 1_545 S
C527 H531 0.950 . S
H528 C524 0.950 . S
C529 C527 1.390 1_565 S
C529 C530 1.387 . S
C529 H532 0.950 . S
C530 C529 1.387 . S
C530 C533 1.387 . S
H531 C527 0.950 . S
H532 C529 0.950 . S
C533 C524 1.390 1_565 S
C533 H526 0.950 . S
C533 C530 1.387 . S
C534 C535 1.387 . S
C534 H538 0.950 . S
C534 C543 1.390 . S
C535 C534 1.387 . S
C535 C537 1.387 . S
H536 C543 0.950 . S
C537 C535 1.387 . S
C537 C539 1.390 . S
C537 H541 0.950 . S
H538 C534 0.950 . S
C539 C537 1.390 . S
C539 C540 1.387 . S
C539 H542 0.950 . S
C540 C539 1.387 . S
C540 C543 1.387 . S
H541 C537 0.950 . S
H542 C539 0.950 . S
C543 C534 1.390 . S
C543 H536 0.950 . S
C543 C540 1.387 . S
C225 C8 1.430 . S
C230 C190 1.422 . S
C235 C22 1.308 . S
C240 C134 1.293 . S
C245 C204 1.195 . S
C250 C36 1.199 . S
C255 C50 1.162 . S
C260 C218 1.159 . S
C265 C64 1.310 . S
C270 C92 1.294 . S
C275 C148 1.428 . S
C280 C78 1.423 . S
C285 C162 1.200 . S
C290 C106 1.196 . S
C295 C120 1.157 . S
C300 C176 1.160 . S
C305 C41 1.547 . S
C310 C7 1.639 . S
C315 C21 1.515 . S
C320 C55 1.453 . S
C325 C175 1.475 . S
C330 C11 1.481 . S
C335 C25 1.476 . S
C340 C161 1.470 . S
C345 C67 1.476 . S
C350 C35 1.470 . S
C355 C151 1.482 . S
C360 C49 1.476 . S
C365 C27 1.501 . S
C370 C13 1.505 . S
C375 C53 1.479 . S
C380 C39 1.478 . S
C385 C153 1.505 . S
C390 C69 1.501 . S
C395 C105 1.494 . S
C400 C83 1.350 . S
C405 C97 1.361 . S
C410 C125 1.353 . S
C415 C221 1.556 . S
C420 C81 1.557 . S
C425 C95 1.603 . S
C430 C209 1.466 . S
C435 C137 1.603 . S
C440 C111 1.466 . S
C445 C123 1.556 . S
C450 C193 1.557 . S
C455 C91 1.684 . S
C460 C77 1.684 . S
C465 C119 1.395 . S
C470 C109 1.392 . S
C475 C133 1.684 . S
C480 C189 1.683 . S
C485 C147 1.640 . S
C490 C167 1.547 . S
C495 C181 1.454 . S
C500 C63 1.514 . S
C505 C179 1.478 . S
C510 C165 1.476 . S
C515 C203 1.494 . S
C520 C195 1.346 . S
C525 C139 1.365 . S
C530 C223 1.357 . S
C535 C217 1.395 . S
C540 C207 1.393 . S
