# Generated by pormake.
# Topology wip, (6)-cn, num edge types: 1
# Building blocks:
#     Node 0, Type 0, BuildingBlock: HISSIN_clean_sbu_0, # of connection points: 6
#     Node 1, Type 0, BuildingBlock: HISSIN_clean_sbu_0, # of connection points: 6
#     Node 2, Type 0, BuildingBlock: HISSIN_clean_sbu_0, # of connection points: 6
#     Node 3, Type 0, BuildingBlock: HISSIN_clean_sbu_0, # of connection points: 6
#     Node 4, Type 0, BuildingBlock: HISSIN_clean_sbu_0, # of connection points: 6
#     Node 5, Type 0, BuildingBlock: HISSIN_clean_sbu_0, # of connection points: 6
#     Node 6, Type 0, BuildingBlock: HISSIN_clean_sbu_0, # of connection points: 6
#     Node 7, Type 0, BuildingBlock: HISSIN_clean_sbu_0, # of connection points: 6
#     Node 8, Type 0, BuildingBlock: HISSIN_clean_sbu_0, # of connection points: 6
#     Node 9, Type 0, BuildingBlock: HISSIN_clean_sbu_0, # of connection points: 6
#     Node 10, Type 0, BuildingBlock: HISSIN_clean_sbu_0, # of connection points: 6
#     Node 11, Type 0, BuildingBlock: HISSIN_clean_sbu_0, # of connection points: 6
#     Node 12, Type 0, BuildingBlock: HISSIN_clean_sbu_0, # of connection points: 6
#     Node 13, Type 0, BuildingBlock: HISSIN_clean_sbu_0, # of connection points: 6
#     Node 14, Type 0, BuildingBlock: HISSIN_clean_sbu_0, # of connection points: 6
#     Node 15, Type 0, BuildingBlock: HISSIN_clean_sbu_0, # of connection points: 6
#     Node 16, Type 0, BuildingBlock: HISSIN_clean_sbu_0, # of connection points: 6
#     Node 17, Type 0, BuildingBlock: HISSIN_clean_sbu_0, # of connection points: 6
#     Node 18, Type 0, BuildingBlock: HISSIN_clean_sbu_0, # of connection points: 6
#     Node 19, Type 0, BuildingBlock: HISSIN_clean_sbu_0, # of connection points: 6
#     Node 20, Type 0, BuildingBlock: HISSIN_clean_sbu_0, # of connection points: 6
#     Node 21, Type 0, BuildingBlock: HISSIN_clean_sbu_0, # of connection points: 6
#     Node 22, Type 0, BuildingBlock: HISSIN_clean_sbu_0, # of connection points: 6
#     Node 23, Type 0, BuildingBlock: HISSIN_clean_sbu_0, # of connection points: 6
#     Node 24, Type 0, BuildingBlock: HISSIN_clean_sbu_0, # of connection points: 6
#     Node 25, Type 0, BuildingBlock: HISSIN_clean_sbu_0, # of connection points: 6
#     Node 26, Type 0, BuildingBlock: HISSIN_clean_sbu_0, # of connection points: 6
#     Node 27, Type 0, BuildingBlock: HISSIN_clean_sbu_0, # of connection points: 6
#     Node 28, Type 0, BuildingBlock: HISSIN_clean_sbu_0, # of connection points: 6
#     Node 29, Type 0, BuildingBlock: HISSIN_clean_sbu_0, # of connection points: 6
#     Node 30, Type 0, BuildingBlock: HISSIN_clean_sbu_0, # of connection points: 6
#     Node 31, Type 0, BuildingBlock: HISSIN_clean_sbu_0, # of connection points: 6
#     Edge 32, Type (0, 0), BuildingBlock: AJUNOK_clean_linker_0, # of connection points: 2
#     Edge 33, Type (0, 0), BuildingBlock: AJUNOK_clean_linker_0, # of connection points: 2
#     Edge 34, Type (0, 0), BuildingBlock: AJUNOK_clean_linker_0, # of connection points: 2
#     Edge 35, Type (0, 0), BuildingBlock: AJUNOK_clean_linker_0, # of connection points: 2
#     Edge 36, Type (0, 0), BuildingBlock: AJUNOK_clean_linker_0, # of connection points: 2
#     Edge 37, Type (0, 0), BuildingBlock: AJUNOK_clean_linker_0, # of connection points: 2
#     Edge 38, Type (0, 0), BuildingBlock: AJUNOK_clean_linker_0, # of connection points: 2
#     Edge 39, Type (0, 0), BuildingBlock: AJUNOK_clean_linker_0, # of connection points: 2
#     Edge 40, Type (0, 0), BuildingBlock: AJUNOK_clean_linker_0, # of connection points: 2
#     Edge 41, Type (0, 0), BuildingBlock: AJUNOK_clean_linker_0, # of connection points: 2
#     Edge 42, Type (0, 0), BuildingBlock: AJUNOK_clean_linker_0, # of connection points: 2
#     Edge 43, Type (0, 0), BuildingBlock: AJUNOK_clean_linker_0, # of connection points: 2
#     Edge 44, Type (0, 0), BuildingBlock: AJUNOK_clean_linker_0, # of connection points: 2
#     Edge 45, Type (0, 0), BuildingBlock: AJUNOK_clean_linker_0, # of connection points: 2
#     Edge 46, Type (0, 0), BuildingBlock: AJUNOK_clean_linker_0, # of connection points: 2
#     Edge 47, Type (0, 0), BuildingBlock: AJUNOK_clean_linker_0, # of connection points: 2
#     Edge 48, Type (0, 0), BuildingBlock: AJUNOK_clean_linker_0, # of connection points: 2
#     Edge 49, Type (0, 0), BuildingBlock: AJUNOK_clean_linker_0, # of connection points: 2
#     Edge 50, Type (0, 0), BuildingBlock: AJUNOK_clean_linker_0, # of connection points: 2
#     Edge 51, Type (0, 0), BuildingBlock: AJUNOK_clean_linker_0, # of connection points: 2
#     Edge 52, Type (0, 0), BuildingBlock: AJUNOK_clean_linker_0, # of connection points: 2
#     Edge 53, Type (0, 0), BuildingBlock: AJUNOK_clean_linker_0, # of connection points: 2
#     Edge 54, Type (0, 0), BuildingBlock: AJUNOK_clean_linker_0, # of connection points: 2
#     Edge 55, Type (0, 0), BuildingBlock: AJUNOK_clean_linker_0, # of connection points: 2
#     Edge 56, Type (0, 0), BuildingBlock: AJUNOK_clean_linker_0, # of connection points: 2
#     Edge 57, Type (0, 0), BuildingBlock: AJUNOK_clean_linker_0, # of connection points: 2
#     Edge 58, Type (0, 0), BuildingBlock: AJUNOK_clean_linker_0, # of connection points: 2
#     Edge 59, Type (0, 0), BuildingBlock: AJUNOK_clean_linker_0, # of connection points: 2
#     Edge 60, Type (0, 0), BuildingBlock: AJUNOK_clean_linker_0, # of connection points: 2
#     Edge 61, Type (0, 0), BuildingBlock: AJUNOK_clean_linker_0, # of connection points: 2
#     Edge 62, Type (0, 0), BuildingBlock: AJUNOK_clean_linker_0, # of connection points: 2
#     Edge 63, Type (0, 0), BuildingBlock: AJUNOK_clean_linker_0, # of connection points: 2
#     Edge 64, Type (0, 0), BuildingBlock: AJUNOK_clean_linker_0, # of connection points: 2
#     Edge 65, Type (0, 0), BuildingBlock: AJUNOK_clean_linker_0, # of connection points: 2
#     Edge 66, Type (0, 0), BuildingBlock: AJUNOK_clean_linker_0, # of connection points: 2
#     Edge 67, Type (0, 0), BuildingBlock: AJUNOK_clean_linker_0, # of connection points: 2
#     Edge 68, Type (0, 0), BuildingBlock: AJUNOK_clean_linker_0, # of connection points: 2
#     Edge 69, Type (0, 0), BuildingBlock: AJUNOK_clean_linker_0, # of connection points: 2
#     Edge 70, Type (0, 0), BuildingBlock: AJUNOK_clean_linker_0, # of connection points: 2
#     Edge 71, Type (0, 0), BuildingBlock: AJUNOK_clean_linker_0, # of connection points: 2
#     Edge 72, Type (0, 0), BuildingBlock: AJUNOK_clean_linker_0, # of connection points: 2
#     Edge 73, Type (0, 0), BuildingBlock: AJUNOK_clean_linker_0, # of connection points: 2
#     Edge 74, Type (0, 0), BuildingBlock: AJUNOK_clean_linker_0, # of connection points: 2
#     Edge 75, Type (0, 0), BuildingBlock: AJUNOK_clean_linker_0, # of connection points: 2
#     Edge 76, Type (0, 0), BuildingBlock: AJUNOK_clean_linker_0, # of connection points: 2
#     Edge 77, Type (0, 0), BuildingBlock: AJUNOK_clean_linker_0, # of connection points: 2
#     Edge 78, Type (0, 0), BuildingBlock: AJUNOK_clean_linker_0, # of connection points: 2
#     Edge 79, Type (0, 0), BuildingBlock: AJUNOK_clean_linker_0, # of connection points: 2
#     Edge 80, Type (0, 0), BuildingBlock: AJUNOK_clean_linker_0, # of connection points: 2
#     Edge 81, Type (0, 0), BuildingBlock: AJUNOK_clean_linker_0, # of connection points: 2
#     Edge 82, Type (0, 0), BuildingBlock: AJUNOK_clean_linker_0, # of connection points: 2
#     Edge 83, Type (0, 0), BuildingBlock: AJUNOK_clean_linker_0, # of connection points: 2
#     Edge 84, Type (0, 0), BuildingBlock: AJUNOK_clean_linker_0, # of connection points: 2
#     Edge 85, Type (0, 0), BuildingBlock: AJUNOK_clean_linker_0, # of connection points: 2
#     Edge 86, Type (0, 0), BuildingBlock: AJUNOK_clean_linker_0, # of connection points: 2
#     Edge 87, Type (0, 0), BuildingBlock: AJUNOK_clean_linker_0, # of connection points: 2
#     Edge 88, Type (0, 0), BuildingBlock: AJUNOK_clean_linker_0, # of connection points: 2
#     Edge 89, Type (0, 0), BuildingBlock: AJUNOK_clean_linker_0, # of connection points: 2
#     Edge 90, Type (0, 0), BuildingBlock: AJUNOK_clean_linker_0, # of connection points: 2
#     Edge 91, Type (0, 0), BuildingBlock: AJUNOK_clean_linker_0, # of connection points: 2
#     Edge 92, Type (0, 0), BuildingBlock: AJUNOK_clean_linker_0, # of connection points: 2
#     Edge 93, Type (0, 0), BuildingBlock: AJUNOK_clean_linker_0, # of connection points: 2
#     Edge 94, Type (0, 0), BuildingBlock: AJUNOK_clean_linker_0, # of connection points: 2
#     Edge 95, Type (0, 0), BuildingBlock: AJUNOK_clean_linker_0, # of connection points: 2
#     Edge 96, Type (0, 0), BuildingBlock: AJUNOK_clean_linker_0, # of connection points: 2
#     Edge 97, Type (0, 0), BuildingBlock: AJUNOK_clean_linker_0, # of connection points: 2
#     Edge 98, Type (0, 0), BuildingBlock: AJUNOK_clean_linker_0, # of connection points: 2
#     Edge 99, Type (0, 0), BuildingBlock: AJUNOK_clean_linker_0, # of connection points: 2
#     Edge 100, Type (0, 0), BuildingBlock: AJUNOK_clean_linker_0, # of connection points: 2
#     Edge 101, Type (0, 0), BuildingBlock: AJUNOK_clean_linker_0, # of connection points: 2
#     Edge 102, Type (0, 0), BuildingBlock: AJUNOK_clean_linker_0, # of connection points: 2
#     Edge 103, Type (0, 0), BuildingBlock: AJUNOK_clean_linker_0, # of connection points: 2
#     Edge 104, Type (0, 0), BuildingBlock: AJUNOK_clean_linker_0, # of connection points: 2
#     Edge 105, Type (0, 0), BuildingBlock: AJUNOK_clean_linker_0, # of connection points: 2
#     Edge 106, Type (0, 0), BuildingBlock: AJUNOK_clean_linker_0, # of connection points: 2
#     Edge 107, Type (0, 0), BuildingBlock: AJUNOK_clean_linker_0, # of connection points: 2
#     Edge 108, Type (0, 0), BuildingBlock: AJUNOK_clean_linker_0, # of connection points: 2
#     Edge 109, Type (0, 0), BuildingBlock: AJUNOK_clean_linker_0, # of connection points: 2
#     Edge 110, Type (0, 0), BuildingBlock: AJUNOK_clean_linker_0, # of connection points: 2
#     Edge 111, Type (0, 0), BuildingBlock: AJUNOK_clean_linker_0, # of connection points: 2
#     Edge 112, Type (0, 0), BuildingBlock: AJUNOK_clean_linker_0, # of connection points: 2
#     Edge 113, Type (0, 0), BuildingBlock: AJUNOK_clean_linker_0, # of connection points: 2
#     Edge 114, Type (0, 0), BuildingBlock: AJUNOK_clean_linker_0, # of connection points: 2
#     Edge 115, Type (0, 0), BuildingBlock: AJUNOK_clean_linker_0, # of connection points: 2
#     Edge 116, Type (0, 0), BuildingBlock: AJUNOK_clean_linker_0, # of connection points: 2
#     Edge 117, Type (0, 0), BuildingBlock: AJUNOK_clean_linker_0, # of connection points: 2
#     Edge 118, Type (0, 0), BuildingBlock: AJUNOK_clean_linker_0, # of connection points: 2
#     Edge 119, Type (0, 0), BuildingBlock: AJUNOK_clean_linker_0, # of connection points: 2
#     Edge 120, Type (0, 0), BuildingBlock: AJUNOK_clean_linker_0, # of connection points: 2
#     Edge 121, Type (0, 0), BuildingBlock: AJUNOK_clean_linker_0, # of connection points: 2
#     Edge 122, Type (0, 0), BuildingBlock: AJUNOK_clean_linker_0, # of connection points: 2
#     Edge 123, Type (0, 0), BuildingBlock: AJUNOK_clean_linker_0, # of connection points: 2
#     Edge 124, Type (0, 0), BuildingBlock: AJUNOK_clean_linker_0, # of connection points: 2
#     Edge 125, Type (0, 0), BuildingBlock: AJUNOK_clean_linker_0, # of connection points: 2
#     Edge 126, Type (0, 0), BuildingBlock: AJUNOK_clean_linker_0, # of connection points: 2
#     Edge 127, Type (0, 0), BuildingBlock: AJUNOK_clean_linker_0, # of connection points: 2
# Relax obj value: 0.598
# Max RMSD: 0.229
# Mean RMSD: 0.229
data_MOF--net-wip--node1-HISSIN_clean_sbu_0--edge1-AJUNOK_clean_linker_0
_symmetry_space_group_name_H-M    P1
_symmetry_Int_Tables_number       1
_symmetry_cell_setting            triclinic
loop_
_symmetry_equiv_pos_as_xyz
'x, y, z'
_cell_length_a     48.1892
_cell_length_b     48.110983
_cell_length_c     26.045233
_cell_angle_alpha  90.201316
_cell_angle_beta   89.941029
_cell_angle_gamma 89.97177
loop_
_atom_site_label
_atom_site_type_symbol
_atom_site_fract_x
_atom_site_fract_y
_atom_site_fract_z
_atom_type_partial_charge
Eu0 Eu 0.07148 0.41692 0.18033 0.0
Eu1 Eu 0.10712 0.46551 0.22448 0.0
C2 C 0.04237 0.47464 0.20542 0.0
C3 C 0.03103 0.39181 0.06827 0.0
C4 C 0.01578 0.41685 0.06728 0.0
C5 C 0.01545 0.38286 0.98034 0.0
C6 C 0.00018 0.42452 1.02386 0.0
C7 C 0.03089 0.37509 1.02397 0.0
C8 C -0.00064 0.40747 0.9798 0.0
C9 C 0.0474 0.38377 0.11491 0.0
O10 O 0.07866 0.45284 0.2936 0.0
O11 O 0.05207 0.41734 0.25858 0.0
C12 C 0.05867 0.43363 0.29759 0.0
O13 O 0.0991 0.39448 0.24326 0.0
O14 O 0.11179 0.50824 0.25034 0.0
O15 O 0.14825 0.48377 0.23176 0.0
O16 O 0.12434 0.43132 0.27462 0.0
C17 C 0.11635 0.4053 0.27853 0.0
O18 O 0.07574 0.45136 0.11938 0.0
O19 O 0.11903 0.46228 0.139 0.0
O20 O 0.06698 0.48616 0.20388 0.0
O21 O 0.07418 0.38879 0.11377 0.0
O22 O 0.03642 0.39058 0.15914 0.0
O23 O 0.0389 0.44801 0.1977 0.0
C24 C 0.15238 0.51657 0.29868 0.0
C25 C 0.17985 0.50866 0.3094 0.0
C26 C 0.14705 0.53277 0.38607 0.0
C27 C 0.19007 0.51094 0.35925 0.0
C28 C 0.13693 0.5307 0.3363 0.0
C29 C 0.17277 0.5209 0.39859 0.0
C30 C 0.13887 0.50702 0.25127 0.0
C31 C 0.099 0.46297 0.1051 0.0
H32 H 0.01574 0.43054 0.10039 0.0
H33 H 0.01632 0.36956 0.94678 0.0
H34 H 0.98831 0.44362 1.02527 0.0
H35 H 0.04277 0.35598 1.02302 0.0
H36 H 0.19257 0.4986 0.28045 0.0
H37 H 0.1334 0.54086 0.41565 0.0
H38 H 0.21031 0.50236 0.368 0.0
H39 H 0.11605 0.53794 0.32864 0.0
Eu40 Eu 0.83312 0.82628 0.4208 0.0
Eu41 Eu 0.77632 0.85292 0.4676 0.0
C42 C 0.77791 0.79047 0.43488 0.0
C43 C 0.86223 0.78368 0.3156 0.0
C44 C 0.83694 0.76893 0.31457 0.0
C45 C 0.87352 0.7628 0.23233 0.0
C46 C 0.83008 0.7513 0.27331 0.0
C47 C 0.88047 0.78034 0.27393 0.0
C48 C 0.84821 0.74795 0.23133 0.0
C49 C 0.86903 0.80233 0.36013 0.0
O50 O 0.79218 0.82321 0.53103 0.0
O51 O 0.83466 0.8082 0.49971 0.0
C52 C 0.81589 0.80933 0.53643 0.0
O53 O 0.85053 0.85702 0.48415 0.0
O54 O 0.73418 0.84903 0.49714 0.0
O55 O 0.75213 0.88997 0.4859 0.0
O56 O 0.80908 0.87252 0.51769 0.0
C57 C 0.83622 0.87042 0.52099 0.0
O58 O 0.80155 0.83306 0.35574 0.0
O59 O 0.77707 0.86952 0.3855 0.0
O60 O 0.76404 0.8135 0.42829 0.0
O61 O 0.86241 0.82869 0.35594 0.0
O62 O 0.86229 0.79259 0.40511 0.0
O63 O 0.80497 0.7906 0.43508 0.0
C64 C 0.72915 0.882 0.56278 0.0
C65 C 0.74355 0.86564 0.59822 0.0
C66 C 0.71883 0.91534 0.63046 0.0
C67 C 0.74644 0.87437 0.64847 0.0
C68 C 0.71638 0.90672 0.57915 0.0
C69 C 0.73451 0.89946 0.66519 0.0
C70 C 0.73263 0.87552 0.50827 0.0
C71 C 0.78376 0.85318 0.34697 0.0
H72 H 0.82218 0.77121 0.34561 0.0
H73 H 0.88808 0.76079 0.20083 0.0
H74 H 0.81012 0.74098 0.27362 0.0
H75 H 0.90006 0.79135 0.27341 0.0
H76 H 0.75403 0.84675 0.58653 0.0
H77 H 0.70909 0.93457 0.64252 0.0
H78 H 0.7592 0.86189 0.67372 0.0
H79 H 0.70555 0.91981 0.55197 0.0
Eu80 Eu 0.4178 0.57582 0.68377 0.0
Eu81 Eu 0.39192 0.52564 0.75164 0.0
C82 C 0.44871 0.51635 0.69843 0.0
C83 C 0.45318 0.60196 0.56701 0.0
C84 C 0.45509 0.57393 0.55182 0.0
C85 C 0.48314 0.61441 0.49541 0.0
C86 C 0.47112 0.56616 0.50925 0.0
C87 C 0.46717 0.62216 0.53825 0.0
C88 C 0.48571 0.58625 0.48098 0.0
C89 C 0.43994 0.60916 0.61656 0.0
O90 O 0.43089 0.5418 0.79312 0.0
O91 O 0.4379 0.58523 0.7603 0.0
C92 C 0.44279 0.56644 0.79559 0.0
O93 O 0.39389 0.59875 0.74968 0.0
O94 O 0.39666 0.49207 0.80765 0.0
O95 O 0.35672 0.51117 0.79821 0.0
O96 O 0.36412 0.56362 0.75892 0.0
C97 C 0.37304 0.58778 0.77557 0.0
O98 O 0.39708 0.54518 0.62499 0.0
O99 O 0.38148 0.50765 0.6715 0.0
O100 O 0.4243 0.50498 0.70425 0.0
O101 O 0.41305 0.60546 0.62043 0.0
O102 O 0.45318 0.5994 0.65617 0.0
O103 O 0.45111 0.54329 0.6919 0.0
C104 C 0.37668 0.51101 0.88071 0.0
C105 C 0.39238 0.54188 0.87669 0.0
C106 C 0.40705 0.52283 1.01651 0.0
C107 C 0.40924 0.56074 0.9206 0.0
C108 C 0.37507 0.49254 0.93523 0.0
C109 C 0.40765 0.55421 0.98467 0.0
C110 C 0.37306 0.49792 0.82977 0.0
C111 C 0.38679 0.5195 0.62642 0.0
H112 H 0.44482 0.5579 0.57388 0.0
H113 H 0.49412 0.63037 0.47435 0.0
H114 H 0.4722 0.54441 0.49857 0.0
H115 H 0.4664 0.64381 0.54973 0.0
H116 H 0.39158 0.55119 0.83978 0.0
H117 H 0.41237 0.51873 1.05626 0.0
H118 H 0.41726 0.58073 0.90879 0.0
H119 H 0.366 0.47169 0.93557 0.0
Eu120 Eu 0.66483 0.16581 0.93164 0.0
Eu121 Eu 0.71768 0.13708 0.98207 0.0
C122 C 0.71798 0.20203 0.96128 0.0
C123 C 0.63773 0.20354 0.8186 0.0
C124 C 0.66484 0.21402 0.81275 0.0
C125 C 0.62556 0.22598 0.73742 0.0
C126 C 0.67231 0.22998 0.7698 0.0
C127 C 0.61817 0.20969 0.78032 0.0
C128 C 0.65276 0.23656 0.73151 0.0
C129 C 0.63032 0.1868 0.86506 0.0
O130 O 0.69924 0.16437 1.04848 0.0
O131 O 0.66057 0.1843 1.01055 0.0
C132 C 0.67686 0.18081 1.05076 0.0
O133 O 0.64502 0.13595 0.99339 0.0
O134 O 0.75582 0.13504 1.02738 0.0
O135 O 0.74404 0.10044 0.97892 0.0
O136 O 0.68405 0.11398 1.02355 0.0
C137 C 0.65747 0.11949 1.02779 0.0
O138 O 0.7002 0.16345 0.87245 0.0
O139 O 0.71788 0.12313 0.8975 0.0
O140 O 0.73319 0.17938 0.96035 0.0
O141 O 0.63761 0.16049 0.86465 0.0
O142 O 0.63602 0.1986 0.90904 0.0
O143 O 0.69153 0.20169 0.95063 0.0
C144 C 0.76297 0.08995 1.05971 0.0
C145 C 0.74478 0.0672 0.06499 0.0
C146 C 0.77465 0.08642 0.14968 0.0
C147 C 0.73988 0.0559 0.11329 0.0
C148 C 0.77965 0.09777 0.10138 0.0
C149 C 0.75292 0.06735 0.15624 0.0
C150 C 0.76019 0.10894 1.01586 0.0
C151 C 0.71506 0.14158 0.86115 0.0
H152 H 0.68039 0.20997 0.84166 0.0
H153 H 0.6098 0.23056 0.70908 0.0
H154 H 0.69361 0.23685 0.76641 0.0
H155 H 0.5971 0.20207 0.78371 0.0
H156 H 0.73206 0.06019 1.03328 0.0
H157 H 0.78488 0.09547 0.18279 0.0
H158 H 0.72326 0.04105 0.11817 0.0
H159 H 0.79412 0.1149 0.09797 0.0
Eu160 Eu 0.07426 0.57897 0.83654 0.0
Eu161 Eu 0.09889 0.5237 0.78762 0.0
C162 C 0.0363 0.52552 0.81966 0.0
C163 C 0.03733 0.60845 0.94767 0.0
C164 C 0.02635 0.58151 0.95373 0.0
C165 C 0.01542 0.62135 1.02908 0.0
C166 C 0.01043 0.57447 0.99699 0.0
C167 C 0.03154 0.62835 0.98576 0.0
C168 C 0.00484 0.59416 1.03569 0.0
C169 C 0.05422 0.61526 0.90111 0.0
O170 O 0.06852 0.53996 0.72507 0.0
O171 O 0.0551 0.58275 0.75797 0.0
C172 C 0.05499 0.56404 0.72076 0.0
O173 O 0.10534 0.59626 0.77376 0.0
O174 O 0.0969 0.48344 0.74883 0.0
O175 O 0.13545 0.49763 0.783 0.0
O176 O 0.11802 0.55531 0.73449 0.0
C177 C 0.11658 0.58253 0.73379 0.0
O178 O 0.07828 0.54547 0.89956 0.0
O179 O 0.11623 0.52452 0.86983 0.0
O180 O 0.05892 0.51059 0.82374 0.0
O181 O 0.08034 0.60752 0.90164 0.0
O182 O 0.0424 0.60927 0.85738 0.0
O183 O 0.03733 0.55258 0.82226 0.0
C184 C 0.13852 0.47658 0.70205 0.0
C185 C 0.16606 0.4861 0.69704 0.0
C186 C 0.13527 0.47277 0.60957 0.0
C187 C 0.17739 0.49053 0.64861 0.0
C188 C 0.12381 0.4685 0.65796 0.0
C189 C 0.16155 0.48495 0.60493 0.0
C190 C 0.12383 0.4801 0.75122 0.0
C191 C 0.09927 0.52886 0.90837 0.0
H192 H 0.03002 0.56576 0.9248 0.0
H193 H 0.01104 0.63736 1.05725 0.0
H194 H 0.00282 0.55338 1.00046 0.0
H195 H 0.03938 0.64934 0.98198 0.0
H196 H 0.17817 0.49206 0.73034 0.0
H197 H 0.12295 0.46823 0.57577 0.0
H198 H 0.19795 0.49943 0.64528 0.0
H199 H 0.10273 0.4608 0.66064 0.0
Eu200 Eu 0.67334 0.82441 0.07678 0.0
Eu201 Eu 0.72567 0.8548 1.03212 0.0
C202 C 0.72915 0.79013 1.05842 0.0
C203 C 0.64295 0.79206 0.19459 0.0
C204 C 0.66459 0.80107 0.22709 0.0
C205 C 0.63471 0.75367 0.25457 0.0
C206 C 0.67154 0.78633 0.27195 0.0
C207 C 0.62799 0.76824 0.20928 0.0
C208 C 0.65693 0.76218 0.28617 0.0
C209 C 0.63756 0.80586 0.14376 0.0
O210 O 0.71067 0.82616 0.96493 0.0
O211 O 0.67313 0.80272 1.00061 0.0
C212 C 0.69019 0.80742 0.96193 0.0
O213 O 0.65437 0.85226 1.00992 0.0
O214 O 0.76727 0.85735 0.99892 0.0
O215 O 0.7486 0.8936 1.03431 0.0
O216 O 0.69373 0.87371 0.98024 0.0
C217 C 0.66729 0.86794 0.97452 0.0
O218 O 0.70755 0.82841 0.13773 0.0
O219 O 0.72004 0.87054 0.11461 0.0
O220 O 0.74261 0.81384 1.05864 0.0
O221 O 0.644 0.8323 0.13961 0.0
O222 O 0.64503 0.79173 0.10306 0.0
O223 O 0.70216 0.78898 1.06403 0.0
C224 C 0.77801 0.90124 0.96348 0.0
C225 C 0.76386 0.92602 0.95159 0.0
C226 C 0.79885 0.90144 0.87916 0.0
C227 C 0.76522 0.93671 0.902 0.0
C228 C 0.79768 0.89079 0.92876 0.0
C229 C 0.77992 0.92209 0.86422 0.0
C230 C 0.76937 0.88408 1.00731 0.0
C231 C 0.7191 0.85187 0.15069 0.0
H232 H 0.67648 0.81941 0.21763 0.0
H233 H 0.62294 0.73523 0.26419 0.0
H234 H 0.68837 0.79394 0.29566 0.0
H235 H 0.61135 0.76057 0.18519 0.0
H236 H 0.74945 0.93541 0.97848 0.0
H237 H 0.81094 0.89038 0.85052 0.0
H238 H 0.75136 0.95348 0.89157 0.0
H239 H 0.80968 0.8724 0.93783 0.0
Eu240 Eu 0.41784 0.41139 0.34447 0.0
Eu241 Eu 0.3763 0.45617 0.29551 0.0
C242 C 0.44006 0.4717 0.30686 0.0
C243 C 0.46456 0.38689 0.44841 0.0
C244 C 0.46962 0.41489 0.46138 0.0
C245 C 0.48949 0.37313 0.52575 0.0
C246 C 0.4849 0.42191 0.50534 0.0
C247 C 0.47444 0.36608 0.48129 0.0
C248 C 0.4953 0.40113 0.53786 0.0
C249 C 0.4502 0.3799 0.39945 0.0
O250 O 0.40636 0.44557 0.22777 0.0
O251 O 0.43424 0.41151 0.2636 0.0
C252 C 0.42673 0.42682 0.22415 0.0
O253 O 0.39503 0.38682 0.27822 0.0
O254 O 0.35943 0.49768 0.28467 0.0
O255 O 0.33652 0.46216 0.25679 0.0
O256 O 0.35753 0.4147 0.27306 0.0
C257 C 0.37209 0.39418 0.25333 0.0
O258 O 0.39911 0.43341 0.41616 0.0
O259 O 0.37512 0.46915 0.381 0.0
O260 O 0.41685 0.47655 0.28249 0.0
O261 O 0.42305 0.37782 0.40078 0.0
O262 O 0.45869 0.39414 0.35989 0.0
O263 O 0.44308 0.4509 0.33908 0.0
C264 C 0.33928 0.50066 0.203 0.0
C265 C 0.31584 0.498 0.17127 0.0
C266 C 0.36522 0.51948 0.13212 0.0
C267 C 0.3173 0.50576 0.11952 0.0
C268 C 0.3639 0.51161 0.18293 0.0
C269 C 0.34237 0.51579 0.09958 0.0
C270 C 0.33956 0.489 0.25475 0.0
C271 C 0.38595 0.45733 0.42191 0.0
H272 H 0.46201 0.43143 0.43704 0.0
H273 H 0.49705 0.35664 0.55025 0.0
H274 H 0.48839 0.44365 0.51414 0.0
H275 H 0.47081 0.34438 0.47231 0.0
H276 H 0.29682 0.48928 0.18613 0.0
H277 H 0.384 0.52926 0.11873 0.0
H278 H 0.29915 0.50381 0.09527 0.0
H279 H 0.38239 0.5139 0.20622 0.0
Eu280 Eu 0.82424 0.17044 0.58641 0.0
Eu281 Eu 0.76885 0.14301 0.54146 0.0
C282 C 0.76835 0.20515 0.57573 0.0
C283 C 0.85254 0.20997 0.69611 0.0
C284 C 0.84164 0.23713 0.69131 0.0
C285 C 0.84577 0.2142 0.78919 0.0
C286 C 0.83316 0.25256 0.73461 0.0
C287 C 0.8544 0.19879 0.74587 0.0
C288 C 0.83525 0.24151 0.78443 0.0
C289 C 0.8596 0.19278 0.64933 0.0
O290 O 0.78285 0.17381 0.47731 0.0
O291 O 0.82441 0.19081 0.50914 0.0
C292 C 0.80545 0.1897 0.47273 0.0
O293 O 0.84205 0.14072 0.52129 0.0
O294 O 0.72607 0.14555 0.51553 0.0
O295 O 0.74544 0.10518 0.52598 0.0
O296 O 0.80082 0.12513 0.48796 0.0
C297 C 0.82784 0.12765 0.48394 0.0
O298 O 0.79269 0.16381 0.65169 0.0
O299 O 0.77251 0.12502 0.62268 0.0
O300 O 0.7557 0.18151 0.58296 0.0
O301 O 0.85358 0.16616 0.65062 0.0
O302 O 0.85344 0.20369 0.60492 0.0
O303 O 0.79543 0.2061 0.57518 0.0
C304 C 0.71677 0.11065 0.45493 0.0
C305 C 0.72579 0.12701 0.41381 0.0
C306 C 0.70198 0.07486 0.39502 0.0
C307 C 0.72332 0.11728 0.36395 0.0
C308 C 0.7044 0.08473 0.44541 0.0
C309 C 0.71175 0.09102 0.35407 0.0
C310 C 0.72436 0.11881 0.5071 0.0
C311 C 0.77726 0.14201 0.66118 0.0
H312 H 0.83941 0.24655 0.65385 0.0
H313 H 0.84707 0.20447 0.82653 0.0
H314 H 0.82528 0.27342 0.72904 0.0
H315 H 0.86217 0.17788 0.7513 0.0
H316 H 0.73613 0.14672 0.42023 0.0
H317 H 0.69343 0.05436 0.38813 0.0
H318 H 0.73204 0.12971 0.33329 0.0
H319 H 0.69784 0.07166 0.47696 0.0
Eu320 Eu 0.89016 0.52829 0.28272 0.0
Eu321 Eu 0.91961 0.58162 0.33442 0.0
C322 C 0.8776 0.58883 0.23088 0.0
C323 C 0.84468 0.48033 0.20334 0.0
C324 C 0.82716 0.50132 0.18483 0.0
C325 C 0.83373 0.452 0.12907 0.0
C326 C 0.81408 0.49817 0.13767 0.0
C327 C 0.8468 0.45511 0.17658 0.0
C328 C 0.81858 0.47419 0.10805 0.0
C329 C 0.86252 0.48566 0.24774 0.0
O330 O 0.91214 0.54994 0.39909 0.0
O331 O 0.87628 0.52568 0.36688 0.0
C332 C 0.89224 0.53177 0.4061 0.0
O333 O 0.92917 0.51157 0.3172 0.0
O334 O 0.915 0.61084 0.39922 0.0
O335 O 0.95357 0.60915 0.35665 0.0
O336 O 0.95413 0.55179 0.32225 0.0
C337 C 0.9529 0.52479 0.31774 0.0
O338 O 0.92103 0.54371 0.2201 0.0
O339 O 0.94152 0.58216 0.25853 0.0
O340 O 0.8935 0.60129 0.26649 0.0
O341 O 0.88884 0.4897 0.23803 0.0
O342 O 0.85271 0.50341 0.28115 0.0
O343 O 0.86969 0.56291 0.2378 0.0
C344 C 0.95745 0.60838 0.44772 0.0
C345 C 0.97308 0.58357 0.44947 0.0
C346 C 0.97223 0.61775 0.53615 0.0
C347 C 0.98836 0.5762 0.49341 0.0
C348 C 0.95698 0.62519 0.49196 0.0
C349 C 0.98859 0.59332 0.53739 0.0
C350 C 0.94173 0.61611 0.39996 0.0
C351 C 0.93877 0.56503 0.21922 0.0
H352 H 0.82512 0.52098 0.2049 0.0
H353 H 0.83766 0.43341 0.10658 0.0
H354 H 0.80318 0.51583 0.12191 0.0
H355 H 0.86005 0.43861 0.19068 0.0
H356 H 0.97371 0.56984 0.41648 0.0
H357 H 0.97103 0.63114 0.56955 0.0
H358 H 0.00052 0.55727 0.49248 0.0
H359 H 0.94486 0.64415 0.49237 0.0
Eu360 Eu 0.21926 0.13958 1.0425 0.0
Eu361 Eu 0.16468 0.16669 0.08725 0.0
C362 C 0.16074 0.12285 0.98582 0.0
C363 C 0.26989 0.11296 0.95184 0.0
C364 C 0.25465 0.12945 0.91805 0.0
C365 C 0.28545 0.08473 0.88016 0.0
C366 C 0.25338 0.12286 0.86666 0.0
C367 C 0.28584 0.09084 0.93284 0.0
C368 C 0.26853 0.10033 0.84683 0.0
C369 C 0.26385 0.11622 1.00632 0.0
O370 O 0.19867 0.16261 0.14932 0.0
O371 O 0.21552 0.12195 0.12374 0.0
C372 C 0.21253 0.14005 0.1609 0.0
O373 O 0.23295 0.18083 0.07334 0.0
O374 O 0.13732 0.1617 0.1544 0.0
O375 O 0.13485 0.19898 0.10819 0.0
O376 O 0.19131 0.20331 0.07119 0.0
C377 C 0.21833 0.20359 0.06851 0.0
O378 O 0.20313 0.16863 0.97691 0.0
O379 O 0.16142 0.18533 1.00864 0.0
O380 O 0.14669 0.13584 1.02368 0.0
O381 O 0.26311 0.14194 1.02231 0.0
O382 O 0.24222 0.10212 1.02153 0.0
O383 O 0.18784 0.121 0.98886 0.0
C384 C 0.13791 0.20566 0.19876 0.0
C385 C 0.15973 0.22519 0.19538 0.0
C386 C 0.13245 0.21904 0.28908 0.0
C387 C 0.1675 0.24162 0.23786 0.0
C388 C 0.1246 0.20264 0.24644 0.0
C389 C 0.15378 0.23914 0.28536 0.0
C390 C 0.13011 0.18802 0.15318 0.0
C391 C 0.17983 0.18338 0.97131 0.0
H392 H 0.24183 0.14625 0.93192 0.0
H393 H 0.2972 0.06711 0.86599 0.0
H394 H 0.23868 0.13434 0.8436 0.0
H395 H 0.29736 0.0776 0.95877 0.0
H396 H 0.17086 0.22789 0.15963 0.0
H397 H 0.12185 0.21578 0.32523 0.0
H398 H 0.184 0.25668 0.23316 0.0
H399 H 0.10813 0.18752 0.25084 0.0
Eu400 Eu 0.60188 0.46251 0.80058 0.0
Eu401 Eu 0.57027 0.41119 0.84343 0.0
C402 C 0.61635 0.40319 0.74531 0.0
C403 C 0.64279 0.50641 0.7169 0.0
C404 C 0.67077 0.49918 0.70866 0.0
C405 C 0.63322 0.49861 0.62702 0.0
C406 C 0.67942 0.49002 0.66043 0.0
C407 C 0.62457 0.50775 0.67489 0.0
C408 C 0.66018 0.48845 0.62047 0.0
C409 C 0.63123 0.50391 0.76868 0.0
O410 O 0.57276 0.44594 0.90418 0.0
O411 O 0.61515 0.45973 0.88478 0.0
C412 C 0.59533 0.45873 0.91885 0.0
O413 O 0.56 0.48027 0.81977 0.0
O414 O 0.57301 0.38424 0.91147 0.0
O415 O 0.53649 0.38286 0.863 0.0
O416 O 0.53554 0.43973 0.82479 0.0
C417 C 0.53654 0.4665 0.81678 0.0
O418 O 0.57522 0.44761 0.73139 0.0
O419 O 0.55181 0.40975 0.76487 0.0
O420 O 0.6004 0.39075 0.781 0.0
O421 O 0.60417 0.505 0.77227 0.0
O422 O 0.64169 0.48334 0.79497 0.0
O423 O 0.62129 0.42996 0.74908 0.0
C424 C 0.52841 0.38572 0.95367 0.0
C425 C 0.50652 0.40506 0.94832 0.0
C426 C 0.51659 0.38268 1.04515 0.0
C427 C 0.48979 0.41282 0.99047 0.0
C428 C 0.53326 0.37483 1.00289 0.0
C429 C 0.49445 0.40179 1.03981 0.0
C430 C 0.54655 0.37783 0.90862 0.0
C431 C 0.55722 0.42672 0.72653 0.0
H432 H 0.68523 0.49818 0.74044 0.0
H433 H 0.61859 0.49846 0.59545 0.0
H434 H 0.70061 0.4831 0.65487 0.0
H435 H 0.60299 0.51352 0.67965 0.0
H436 H 0.50216 0.41424 0.91128 0.0
H437 H 0.52122 0.37384 0.08234 0.0
H438 H 0.47279 0.42709 0.98397 0.0
H439 H 0.55005 0.36021 1.00878 0.0
Eu440 Eu 0.27414 0.85589 0.54285 0.0
Eu441 Eu 0.32727 0.82502 0.58459 0.0
C442 C 0.33294 0.86799 0.48341 0.0
C443 C 0.22254 0.88968 0.45865 0.0
C444 C 0.23082 0.87175 0.4191 0.0
C445 C 0.20774 0.92356 0.3956 0.0
C446 C 0.22815 0.87978 0.36847 0.0
C447 C 0.21045 0.9154 0.44688 0.0
C448 C 0.21707 0.90593 0.35608 0.0
C449 C 0.23084 0.88308 0.51102 0.0
O450 O 0.29446 0.82973 0.64839 0.0
O451 O 0.27803 0.87106 0.62602 0.0
C452 C 0.28067 0.85211 0.66155 0.0
O453 O 0.25765 0.81509 0.57041 0.0
O454 O 0.35589 0.82937 0.6499 0.0
O455 O 0.35632 0.79178 0.60363 0.0
O456 O 0.29805 0.79008 0.57249 0.0
C457 C 0.27109 0.79147 0.56828 0.0
O458 O 0.2875 0.82689 0.47487 0.0
O459 O 0.32575 0.80375 0.50787 0.0
O460 O 0.34646 0.85301 0.51884 0.0
O461 O 0.23037 0.8567 0.5226 0.0
O462 O 0.25367 0.89524 0.52601 0.0
O463 O 0.30655 0.87359 0.49025 0.0
C464 C 0.3545 0.78579 0.69455 0.0
C465 C 0.33431 0.76456 0.69126 0.0
C466 C 0.35785 0.7763 0.78663 0.0
C467 C 0.32637 0.74918 0.73476 0.0
C468 C 0.36591 0.7916 0.74303 0.0
C469 C 0.33827 0.75449 0.78314 0.0
C470 C 0.3621 0.8028 0.64831 0.0
C471 C 0.30794 0.80825 0.47037 0.0
H472 H 0.241 0.85218 0.42728 0.0
H473 H 0.19952 0.94396 0.38689 0.0
H474 H 0.23678 0.86622 0.33924 0.0
H475 H 0.20445 0.92965 0.47723 0.0
H476 H 0.32451 0.75976 0.65491 0.0
H477 H 0.3669 0.78176 0.82333 0.0
H478 H 0.3112 0.73276 0.73025 0.0
H479 H 0.38096 0.80816 0.74732 0.0
Eu480 Eu 0.88886 0.47494 0.72724 0.0
Eu481 Eu 0.91731 0.41985 0.67873 0.0
C482 C 0.8723 0.41473 0.77885 0.0
C483 C 0.84578 0.52363 0.80697 0.0
C484 C 0.81963 0.51084 0.81223 0.0
C485 C 0.84651 0.53248 0.89824 0.0
C486 C 0.80834 0.50673 0.86081 0.0
C487 C 0.85785 0.53659 0.84971 0.0
C488 C 0.82312 0.51536 0.90421 0.0
C489 C 0.86257 0.51875 0.7606 0.0
O490 O 0.91044 0.45137 0.61303 0.0
O491 O 0.87375 0.47486 0.64404 0.0
C492 C 0.89002 0.46889 0.60521 0.0
O493 O 0.92793 0.48928 0.68977 0.0
O494 O 0.9154 0.39022 0.61404 0.0
O495 O 0.95225 0.39248 0.66114 0.0
O496 O 0.95204 0.44888 0.6944 0.0
C497 C 0.95135 0.47598 0.69521 0.0
O498 O 0.91886 0.45982 0.79124 0.0
O499 O 0.93474 0.41766 0.75882 0.0
O500 O 0.88695 0.40135 0.74218 0.0
O501 O 0.88917 0.51479 0.76776 0.0
O502 O 0.85216 0.50096 0.72794 0.0
O503 O 0.86794 0.44167 0.77487 0.0
C504 C 0.95966 0.39238 0.57089 0.0
C505 C 0.97268 0.41861 0.56788 0.0
C506 C 0.9806 0.38094 0.48756 0.0
C507 C 0.9895 0.42583 0.52568 0.0
C508 C 0.96388 0.37365 0.53006 0.0
C509 C 0.99384 0.40714 0.48469 0.0
C510 C 0.94211 0.385 0.61674 0.0
C511 C 0.93327 0.43629 0.79609 0.0
H512 H 0.80921 0.50154 0.7796 0.0
H513 H 0.85777 0.53999 0.93151 0.0
H514 H 0.78979 0.49428 0.86442 0.0
H515 H 0.87753 0.54733 0.84642 0.0
H516 H 0.96978 0.43373 0.59829 0.0
H517 H 0.98335 0.36591 0.45693 0.0
H518 H -0.00135 0.44637 0.5247 0.0
H519 H 0.95423 0.35333 0.53096 0.0
Eu520 Eu 0.27235 0.13405 0.47918 0.0
Eu521 Eu 0.32408 0.16619 0.43224 0.0
C522 C 0.33257 0.12373 0.53453 0.0
C523 C 0.22414 0.08348 0.54865 0.0
C524 C 0.24155 0.06153 0.56369 0.0
C525 C 0.20265 0.08293 0.63232 0.0
C526 C 0.24238 0.05362 0.61502 0.0
C527 C 0.20258 0.09179 0.58144 0.0
C528 C 0.22523 0.06727 0.65037 0.0
C529 C 0.23158 0.10097 0.50455 0.0
O530 O 0.29103 0.16186 0.36961 0.0
O531 O 0.2758 0.12055 0.39436 0.0
C532 C 0.27714 0.13944 0.35831 0.0
O533 O 0.25268 0.17298 0.45055 0.0
O534 O 0.35198 0.16426 0.36545 0.0
O535 O 0.35184 0.20074 0.41438 0.0
O536 O 0.29238 0.19907 0.44523 0.0
C537 C 0.26539 0.19701 0.44915 0.0
O538 O 0.28462 0.16602 0.5435 0.0
O539 O 0.32362 0.18722 0.50866 0.0
O540 O 0.34454 0.13589 0.49359 0.0
O541 O 0.23107 0.1279 0.51217 0.0
O542 O 0.25351 0.09316 0.47869 0.0
O543 O 0.3055 0.12039 0.53557 0.0
C544 C 0.34997 0.20876 0.32448 0.0
C545 C 0.32318 0.22051 0.32193 0.0
C546 C 0.36029 0.23072 0.24201 0.0
C547 C 0.31507 0.23717 0.28023 0.0
C548 C 0.36844 0.21413 0.28396 0.0
C549 C 0.33347 0.24258 0.23946 0.0
C550 C 0.35803 0.1908 0.36905 0.0
C551 C 0.30581 0.18401 0.54656 0.0
H552 H 0.25676 0.05298 0.53756 0.0
H553 H 0.18849 0.09276 0.65919 0.0
H554 H 0.25921 0.04046 0.62796 0.0
H555 H 0.18796 0.10768 0.56981 0.0
H556 H 0.30829 0.21661 0.35216 0.0
H557 H 0.37508 0.23436 0.21144 0.0
H558 H 0.2941 0.24527 0.27939 0.0
H559 H 0.38915 0.2054 0.28459 0.0
Eu560 Eu 0.60004 0.52086 0.23464 0.0
Eu561 Eu 0.57256 0.57423 0.18707 0.0
C562 C 0.6143 0.58001 0.291 0.0
C563 C 0.63736 0.46579 0.31344 0.0
C564 C 0.66605 0.46743 0.32251 0.0
C565 C 0.63009 0.45239 0.40192 0.0
C566 C 0.67645 0.46325 0.37177 0.0
C567 C 0.61967 0.45666 0.3528 0.0
C568 C 0.65825 0.45721 0.41223 0.0
C569 C 0.62598 0.47629 0.26492 0.0
O570 O 0.57451 0.53968 0.12659 0.0
O571 O 0.61515 0.52282 0.15096 0.0
C572 C 0.59636 0.52492 0.11497 0.0
O573 O 0.55814 0.50559 0.20932 0.0
O574 O 0.58059 0.60173 0.12145 0.0
O575 O 0.54209 0.60542 0.16415 0.0
O576 O 0.53564 0.54725 0.20039 0.0
C577 C 0.5352 0.52034 0.20792 0.0
O578 O 0.57061 0.53644 0.29887 0.0
O579 O 0.55177 0.57641 0.26353 0.0
O580 O 0.60244 0.59259 0.25059 0.0
O581 O 0.59898 0.47806 0.26136 0.0
O582 O 0.63846 0.49808 0.24599 0.0
O583 O 0.61712 0.55281 0.29078 0.0
C584 C 0.53858 0.60544 0.07281 0.0
C585 C 0.51804 0.58461 0.07146 0.0
C586 C 0.52941 0.61404 0.98163 0.0
C587 C 0.50338 0.57865 1.02614 0.0
C588 C 0.54401 0.62014 1.02729 0.0
C589 C 0.50907 0.59293 0.98013 0.0
C590 C 0.55487 0.61071 0.12094 0.0
C591 C 0.55406 0.5586 0.30165 0.0
H592 H 0.68018 0.47385 0.29241 0.0
H593 H 0.61567 0.44784 0.43273 0.0
H594 H 0.69828 0.46689 0.3791 0.0
H595 H 0.59753 0.45466 0.34672 0.0
H596 H 0.5133 0.5727 0.10559 0.0
H597 H 0.53445 0.62552 0.94718 0.0
H598 H 0.48739 0.56287 1.0274 0.0
H599 H 0.55978 0.63617 1.02686 0.0
Eu600 Eu 0.21952 0.86098 0.98042 0.0
Eu601 Eu 0.16826 0.82788 0.93313 0.0
C602 C 0.15823 0.8724 1.03119 0.0
C603 C 0.2675 0.90786 1.05773 0.0
C604 C 0.25575 0.93409 0.06808 0.0
C605 C 0.27878 0.90307 0.14755 0.0
C606 C 0.25233 0.94285 0.11881 0.0
C607 C 0.28168 0.89397 0.09707 0.0
C608 C 0.26124 0.92562 0.1586 0.0
C609 C 0.26037 0.89294 1.01002 0.0
O610 O 0.20217 0.8314 0.8721 0.0
O611 O 0.21763 0.87316 0.89485 0.0
C612 C 0.21627 0.85354 0.85983 0.0
O613 O 0.23857 0.82114 0.95393 0.0
O614 O 0.14075 0.8301 0.86594 0.0
O615 O 0.14108 0.79313 0.91344 0.0
O616 O 0.19898 0.79483 0.95064 0.0
C617 C 0.22588 0.79713 0.95595 0.0
O618 O 0.20618 0.83075 1.04632 0.0
O619 O 0.16688 0.80964 1.01227 0.0
O620 O 0.14684 0.85933 0.99075 0.0
O621 O 0.26118 0.86577 1.0118 0.0
O622 O 0.23831 0.90192 0.98599 0.0
O623 O 0.18526 0.87568 1.03366 0.0
C624 C 0.14275 0.78602 0.82253 0.0
C625 C 0.16427 0.76613 0.8251 0.0
C626 C 0.13712 0.77391 0.73172 0.0
C627 C 0.17174 0.75005 0.78189 0.0
C628 C 0.12955 0.78988 0.77501 0.0
C629 C 0.15802 0.75333 0.73457 0.0
C630 C 0.13506 0.80345 0.86842 0.0
C631 C 0.18452 0.81347 1.05043 0.0
H632 H 0.24617 0.94611 1.03781 0.0
H633 H 0.28645 0.88996 0.1782 0.0
H634 H 0.2395 0.96084 0.12687 0.0
H635 H 0.29209 0.87437 0.08986 0.0
H636 H 0.1754 0.76289 0.86069 0.0
H637 H 0.12663 0.77787 0.69576 0.0
H638 H 0.18798 0.73464 0.78587 0.0
H639 H 0.11337 0.80537 0.77125 0.0
Eu640 Eu 0.57462 0.9124 0.67515 0.0
Eu641 Eu 0.60259 0.96794 0.7229 0.0
C642 C 0.53937 0.96751 0.69384 0.0
C643 C 0.53314 0.88392 0.56788 0.0
C644 C 0.52003 0.91008 0.56514 0.0
C645 C 0.51215 0.87238 0.48492 0.0
C646 C 0.50329 0.91731 0.52304 0.0
C647 C 0.52892 0.86513 0.52725 0.0
C648 C 0.49904 0.89865 0.48197 0.0
C649 C 0.55116 0.87689 0.61294 0.0
O650 O 0.57448 0.95174 0.78877 0.0
O651 O 0.55595 0.91119 0.75452 0.0
C652 C 0.55856 0.92916 0.79272 0.0
O653 O 0.606 0.89409 0.73567 0.0
O654 O 0.60143 0.00851 0.76087 0.0
O655 O 0.63918 0.99411 0.72403 0.0
O656 O 0.62375 0.93471 0.76978 0.0
C657 C 0.62076 0.90752 0.77166 0.0
O658 O 0.58001 0.94491 0.61115 0.0
O659 O 0.61812 0.96628 0.64006 0.0
O660 O 0.56237 0.98161 0.68828 0.0
O661 O 0.5775 0.88354 0.60959 0.0
O662 O 0.54096 0.88349 0.65779 0.0
O663 O 0.5394 0.94046 0.69168 0.0
C664 C 0.64419 0.02108 0.79906 0.0
C665 C 0.67065 0.00957 0.80761 0.0
C666 C 0.64353 0.0383 0.88645 0.0
C667 C 0.68226 0.01045 0.85645 0.0
C668 C 0.63183 0.03738 0.83758 0.0
C669 C 0.66756 0.0229 0.8968 0.0
C670 C 0.62793 0.01297 0.75362 0.0
C671 C 0.60097 0.96155 0.6021 0.0
H672 H 0.52302 0.92523 0.59545 0.0
H673 H 0.50938 0.85728 0.45444 0.0
H674 H 0.49445 0.93798 0.52201 0.0
H675 H 0.53864 0.84484 0.52811 0.0
H676 H 0.68116 -0.00245 0.7782 0.0
H677 H 0.63191 0.0479 0.91745 0.0
H678 H 0.70082 -0.00159 0.86407 0.0
H679 H 0.61181 0.04707 0.83144 0.0
Eu680 Eu 0.32394 0.31935 0.93743 0.0
Eu681 Eu 0.27759 0.35874 0.9827 0.0
C682 C 0.26267 0.29533 0.9587 0.0
C683 C 0.34814 0.27792 0.82539 0.0
C684 C 0.32688 0.25771 0.82598 0.0
C685 C 0.35256 0.27001 0.73284 0.0
C686 C 0.31893 0.24356 0.78091 0.0
C687 C 0.36062 0.28405 0.77799 0.0
C688 C 0.33193 0.24914 0.73364 0.0
C689 C 0.35626 0.29338 0.87337 0.0
O690 O 0.28859 0.32862 1.05036 0.0
O691 O 0.32043 0.29838 1.01337 0.0
C692 C 0.30541 0.30649 1.05301 0.0
O693 O 0.34735 0.34262 1.00476 0.0
O694 O 0.23888 0.3699 1.02126 0.0
O695 O 0.26296 0.40144 0.98173 0.0
O696 O 0.31431 0.37439 1.02855 0.0
C697 C 0.33822 0.36219 1.03727 0.0
O698 O 0.29117 0.32465 0.87443 0.0
O699 O 0.27643 0.36714 0.89526 0.0
O700 O 0.25285 0.32047 0.96593 0.0
O701 O 0.35339 0.32056 0.87292 0.0
O702 O 0.34808 0.28258 0.91687 0.0
O703 O 0.28882 0.29035 0.94836 0.0
C704 C 0.23931 0.41483 1.05655 0.0
C705 C 0.26313 0.42435 0.08209 0.0
C706 C 0.21072 0.43201 0.12623 0.0
C707 C 0.26083 0.43627 0.13061 0.0
C708 C 0.21302 0.42014 0.07743 0.0
C709 C 0.23477 0.43838 0.15434 0.0
C710 C 0.24196 0.39641 1.01202 0.0
C711 C 0.27739 0.34691 0.86137 0.0
H712 H 0.31636 0.25269 0.86145 0.0
H713 H 0.36256 0.27559 0.69709 0.0
H714 H 0.30297 0.22777 0.78335 0.0
H715 H 0.37661 0.29982 0.77577 0.0
H716 H 0.28364 0.42061 0.06645 0.0
H717 H 0.19045 0.43349 0.14408 0.0
H718 H 0.27966 0.44078 0.15181 0.0
H719 H 0.19445 0.41315 1.05784 0.0
Eu720 Eu 0.91668 0.07778 0.18205 0.0
Eu721 Eu 0.88417 0.02553 0.22708 0.0
C722 C 0.94831 0.02064 0.20194 0.0
C723 C 0.9583 0.10475 0.07369 0.0
C724 C 0.98164 0.08712 0.07825 0.0
C725 C 0.96672 0.10599 0.981 0.0
C726 C -0.00252 0.07943 1.03502 0.0
C727 C 0.95097 0.11383 1.0243 0.0
C728 C 0.99054 0.08903 0.98569 0.0
C729 C 0.94081 0.11212 0.11963 0.0
O730 O 0.91293 0.03968 0.29446 0.0
O731 O 0.93551 0.07803 0.2607 0.0
C732 C 0.93091 0.06071 0.29894 0.0
O733 O 0.88759 0.09823 0.24467 0.0
O734 O 0.88015 0.98599 0.2676 0.0
O735 O 0.84566 0.00229 0.22367 0.0
O736 O 0.86378 0.05981 0.2729 0.0
C737 C 0.87042 0.08614 0.27835 0.0
O738 O 0.91269 0.04486 0.11821 0.0
O739 O 0.8722 0.0264 0.14157 0.0
O740 O 0.92435 0.0079 0.19888 0.0
O741 O 0.91416 0.1066 0.11682 0.0
O742 O 0.95106 0.10567 0.16447 0.0
O743 O 0.95032 0.0476 0.19743 0.0
C744 C 0.83496 0.97944 0.30093 0.0
C745 C 0.81064 0.99547 0.30634 0.0
C746 C 0.8305 0.96476 0.38928 0.0
C747 C 0.79776 -0.00221 0.35406 0.0
C748 C 0.84342 0.96238 0.34157 0.0
C749 C 0.80913 0.98421 0.39647 0.0
C750 C 0.85371 0.98378 0.25699 0.0
C751 C 0.89123 0.02954 0.10607 0.0
H752 H 0.98776 0.07912 0.11537 0.0
H753 H 0.96005 0.11311 0.94362 0.0
H754 H 0.01548 0.06629 1.04043 0.0
H755 H 0.93287 0.12686 1.01905 0.0
H756 H 0.80307 0.00833 0.2753 0.0
H757 H 0.83958 0.95422 0.42193 0.0
H758 H 0.78114 0.01269 0.35911 0.0
H759 H 0.86172 0.94942 0.33799 0.0
Eu760 Eu 0.16916 0.6709 0.43384 0.0
Eu761 Eu 0.21945 0.63623 0.48357 0.0
C762 C 0.22913 0.69908 0.45623 0.0
C763 C 0.14463 0.71355 0.32303 0.0
C764 C 0.16563 0.73399 0.32555 0.0
C765 C 0.13915 0.72482 0.2319 0.0
C766 C 0.17293 0.7499 0.28222 0.0
C767 C 0.13176 0.70901 0.27533 0.0
C768 C 0.15951 0.74594 0.23473 0.0
C769 C 0.13682 0.6966 0.36938 0.0
O770 O 0.20567 0.6677 0.54751 0.0
O771 O 0.16758 0.6901 0.51195 0.0
C772 C 0.18457 0.68571 0.55068 0.0
O773 O 0.14652 0.64172 0.49361 0.0
O774 O 0.25544 0.62804 0.53253 0.0
O775 O 0.24014 0.59614 0.48075 0.0
O776 O 0.18382 0.6196 0.53018 0.0
C777 C 0.15746 0.62598 0.5309 0.0
O778 O 0.20222 0.66547 0.37193 0.0
O779 O 0.22099 0.62518 0.39697 0.0
O780 O 0.24119 0.67476 0.45947 0.0
O781 O 0.14123 0.66968 0.36701 0.0
O782 O 0.14375 0.70689 0.4141 0.0
O783 O 0.20232 0.70206 0.4495 0.0
C784 C 0.25099 0.58257 0.56448 0.0
C785 C 0.22505 0.56962 0.57046 0.0
C786 C 0.2636 0.56763 0.65012 0.0
C787 C 0.21803 0.55699 0.61649 0.0
C788 C 0.27065 0.58062 0.60391 0.0
C789 C 0.23678 0.55667 0.65725 0.0
C790 C 0.25529 0.60154 0.52109 0.0
C791 C 0.21779 0.64404 0.36104 0.0
H792 H 0.17641 0.73785 0.36128 0.0
H793 H 0.12888 0.72036 0.19586 0.0
H794 H 0.18874 0.76574 0.28626 0.0
H795 H 0.11592 0.69317 0.27157 0.0
H796 H 0.20935 0.57097 0.54095 0.0
H797 H 0.27828 0.56826 0.68157 0.0
H798 H 0.19719 0.54938 0.62198 0.0
H799 H 0.29065 0.59069 0.60026 0.0
Eu800 Eu 0.57333 0.07537 0.33497 0.0
Eu801 Eu 0.60518 0.02317 0.29085 0.0
C802 C 0.54105 0.0188 0.31657 0.0
C803 C 0.5343 0.1024 0.44565 0.0
C804 C 0.52511 0.07481 0.45196 0.0
C805 C 0.51263 0.11382 0.52797 0.0
C806 C 0.51023 0.06673 0.49584 0.0
C807 C 0.52774 0.12186 0.48406 0.0
C808 C 0.50394 0.08599 0.5349 0.0
C809 C 0.55041 0.11026 0.3988 0.0
O810 O 0.57716 0.03756 0.22291 0.0
O811 O 0.55336 0.07522 0.25721 0.0
C812 C 0.55868 0.05813 0.21873 0.0
O813 O 0.60168 0.09497 0.2703 0.0
O814 O 0.60609 0.98046 0.26326 0.0
O815 O 0.64462 0.00195 0.28001 0.0
O816 O 0.62434 0.0559 0.24139 0.0
C817 C 0.61798 0.08217 0.23575 0.0
O818 O 0.57916 0.04198 0.3975 0.0
O819 O 0.62083 0.02736 0.3732 0.0
O820 O 0.56503 0.0062 0.32038 0.0
O821 O 0.57709 0.10474 0.39937 0.0
O822 O 0.53905 0.10298 0.35529 0.0
O823 O 0.53908 0.0458 0.32002 0.0
C824 C 0.64301 0.97584 0.20437 0.0
C825 C 0.67112 0.98041 0.1925 0.0
C826 C 0.63193 0.97623 0.11393 0.0
C827 C 0.67937 0.98395 0.14158 0.0
C828 C 0.62376 0.97249 0.16443 0.0
C829 C 0.65962 0.98259 0.10218 0.0
C830 C 0.633 0.98084 0.25682 0.0
C831 C 0.60226 0.02931 0.40955 0.0
H832 H 0.52945 0.05934 0.42281 0.0
H833 H 0.50759 0.12951 0.55637 0.0
H834 H 0.50402 0.04519 0.49952 0.0
H835 H 0.53422 0.1433 0.48011 0.0
H836 H 0.6863 0.98321 0.22274 0.0
H837 H 0.61613 0.97583 0.08437 0.0
H838 H 0.70082 0.98889 0.13314 0.0
H839 H 0.60192 0.96912 0.17211 0.0
Eu840 Eu 0.16635 0.3213 0.58514 0.0
Eu841 Eu 0.21841 0.35295 0.53999 0.0
C842 C 0.22301 0.28882 0.56301 0.0
C843 C 0.13944 0.28141 0.69654 0.0
C844 C 0.16198 0.26262 0.69593 0.0
C845 C 0.13153 0.26865 0.78641 0.0
C846 C 0.16885 0.24677 0.73953 0.0
C847 C 0.12454 0.28439 0.74264 0.0
C848 C 0.15352 0.24915 0.78545 0.0
C849 C 0.13221 0.29823 0.64978 0.0
O850 O 0.20407 0.32383 0.4726 0.0
O851 O 0.16496 0.30246 0.50651 0.0
C852 C 0.18231 0.30669 0.46813 0.0
O853 O 0.1459 0.35014 0.52126 0.0
O854 O 0.25953 0.3567 0.50556 0.0
O855 O 0.23912 0.39299 0.53761 0.0
O856 O 0.18509 0.37085 0.48922 0.0
C857 C 0.15855 0.36516 0.48457 0.0
O858 O 0.20001 0.32449 0.64759 0.0
O859 O 0.2168 0.3657 0.6254 0.0
O860 O 0.2363 0.31251 0.5657 0.0
O861 O 0.13798 0.32492 0.65115 0.0
O862 O 0.1387 0.28713 0.60548 0.0
O863 O 0.19607 0.28719 0.56833 0.0
C864 C 0.26555 0.39965 0.46271 0.0
C865 C 0.25496 0.42676 0.45693 0.0
C866 C 0.27574 0.39815 0.37188 0.0
C867 C 0.25233 0.43827 0.40808 0.0
C868 C 0.27798 0.38646 0.42045 0.0
C869 C 0.26078 0.42292 0.36515 0.0
C870 C 0.2598 0.3838 0.50984 0.0
C871 C 0.21449 0.3464 0.66052 0.0
H872 H 0.17435 0.26004 0.6615 0.0
H873 H 0.11973 0.27198 0.82127 0.0
H874 H 0.18596 0.23223 0.73689 0.0
H875 H 0.10746 0.29899 0.74493 0.0
H876 H 0.2464 0.438 0.4894 0.0
H877 H 0.28328 0.38652 0.33898 0.0
H878 H 0.24145 0.45781 0.40356 0.0
H879 H 0.28729 0.36605 0.42406 0.0
Eu880 Eu 0.91666 0.91668 0.83265 0.0
Eu881 Eu 0.8865 0.96928 0.78741 0.0
C882 C 0.95049 0.97294 0.81448 0.0
C883 C 0.95403 0.88971 0.94597 0.0
C884 C 0.97313 0.91192 0.94482 0.0
C885 C 0.96528 0.88371 1.03709 0.0
C886 C 0.9882 0.91974 0.9888 0.0
C887 C 0.95027 0.87577 0.99283 0.0
C888 C 0.98447 0.90593 1.03596 0.0
C889 C 0.93754 0.88216 0.89892 0.0
O890 O 0.91565 0.95409 0.72106 0.0
O891 O 0.93799 0.91591 0.75617 0.0
C892 C 0.93373 0.93305 0.71753 0.0
O893 O 0.88848 0.89694 0.76718 0.0
O894 O 0.88509 0.01165 0.75855 0.0
O895 O 0.84672 0.98961 0.7749 0.0
O896 O 0.86847 0.9366 0.73572 0.0
C897 C 0.87342 0.90993 0.73113 0.0
O898 O 0.91307 0.95074 0.89472 0.0
O899 O 0.87202 0.96744 0.87144 0.0
O900 O 0.92701 0.98667 0.814 0.0
O901 O 0.91115 0.88899 0.89898 0.0
O902 O 0.9493 0.88759 0.8548 0.0
O903 O 0.95149 0.94592 0.81944 0.0
C904 C 0.84808 0.01615 0.70065 0.0
C905 C 0.82104 0.02609 0.69252 0.0
C906 C 0.85324 0.00778 0.60973 0.0
C907 C 0.80995 0.02645 0.64288 0.0
C908 C 0.86411 0.00715 0.65888 0.0
C909 C 0.82611 0.01726 0.60139 0.0
C910 C 0.85814 0.01102 0.75262 0.0
C911 C 0.89097 0.96508 0.90713 0.0
H912 H 0.9765 0.92338 0.90968 0.0
H913 H 0.96159 0.87256 0.07249 0.0
H914 H 0.00317 0.9364 0.98541 0.0
H915 H 0.93558 0.85879 0.99536 0.0
H916 H 0.80824 0.03255 0.72464 0.0
H917 H 0.86578 -2e-05 0.57822 0.0
H918 H 0.78884 0.03349 0.63696 0.0
H919 H 0.88473 -0.00135 0.66432 0.0
Eu920 Eu 0.32567 0.67254 0.08384 0.0
Eu921 Eu 0.27159 0.64311 1.03654 0.0
C922 C 0.26895 0.70601 0.06923 0.0
C923 C 0.35213 0.7123 0.19493 0.0
C924 C 0.32704 0.72747 0.19599 0.0
C925 C 0.3608 0.72841 0.28284 0.0
C926 C 0.31904 0.74298 0.23953 0.0
C927 C 0.36891 0.71304 0.239 0.0
C928 C 0.3356 0.74351 0.284 0.0
C929 C 0.36006 0.69558 0.14825 0.0
O930 O 0.28723 0.67275 0.97158 0.0
O931 O 0.32706 0.69226 1.0064 0.0
C932 C 0.30958 0.6891 0.96794 0.0
O933 O 0.3446 0.64354 1.01879 0.0
O934 O 0.23124 0.64268 0.99857 0.0
O935 O 0.24797 0.60478 1.03124 0.0
O936 O 0.30472 0.62346 0.98758 0.0
C937 C 0.33139 0.62833 0.98296 0.0
O938 O 0.29316 0.66711 0.14743 0.0
O939 O 0.27322 0.62786 0.1203 0.0
O940 O 0.25535 0.68251 0.07054 0.0
O941 O 0.35445 0.66886 0.1491 0.0
O942 O 0.35354 0.70663 0.10413 0.0
O943 O 0.29601 0.70697 0.07034 0.0
C944 C 0.22394 0.60067 0.95466 0.0
C945 C 0.24355 0.60301 0.91527 0.0
C946 C 0.19844 0.5667 0.90422 0.0
C947 C 0.24079 0.58722 0.87094 0.0
C948 C 0.20138 0.58244 0.94926 0.0
C949 C 0.21844 0.56881 0.8653 0.0
C950 C 0.2287 0.61572 1.00253 0.0
C951 C 0.27761 0.64558 0.1578 0.0
H952 H 0.31338 0.72722 0.16306 0.0
H953 H 0.37445 0.72864 0.31583 0.0
H954 H 0.29953 0.75415 0.2387 0.0
H955 H 0.38832 0.70168 0.23964 0.0
H956 H 0.26111 0.61693 0.91897 0.0
H957 H 0.18075 0.55302 0.89974 0.0
H958 H 0.25592 0.58972 0.84048 0.0
H959 H 0.18623 0.58032 0.97976 0.0
Eu960 Eu 0.39259 0.01974 0.78722 0.0
Eu961 Eu 0.422 0.07403 0.83524 0.0
C962 C 0.37932 0.07971 0.73337 0.0
C963 C 0.34853 0.96929 0.70933 0.0
C964 C 0.32027 0.97641 0.70545 0.0
C965 C 0.34869 0.95675 0.61918 0.0
C966 C 0.30698 0.97565 0.658 0.0
C967 C 0.36208 0.95773 0.66655 0.0
C968 C 0.3217 0.96737 0.61417 0.0
C969 C 0.36423 0.97678 0.75591 0.0
O970 O 0.41654 0.04174 0.89875 0.0
O971 O 0.37723 0.02238 0.87097 0.0
C972 C 0.3951 0.02598 0.90845 0.0
O973 O 0.43116 0.004 0.8243 0.0
O974 O 0.41907 0.10268 0.90113 0.0
O975 O 0.45581 0.10269 0.85329 0.0
O976 O 0.45635 0.04391 0.82149 0.0
C977 C 0.45496 0.01678 0.82005 0.0
O978 O 0.42372 0.03368 0.72368 0.0
O979 O 0.44194 0.07449 0.75756 0.0
O980 O 0.39077 0.09261 0.7741 0.0
O981 O 0.39128 0.97847 0.75198 0.0
O982 O 0.35377 -0.00274 0.78281 0.0
O983 O 0.37703 0.05254 0.73257 0.0
C984 C 0.46326 0.102 0.94361 0.0
C985 C 0.47835 0.07687 0.94458 0.0
C986 C 0.48122 0.1121 1.02967 0.0
C987 C 0.4947 0.06952 0.9872 0.0
C988 C 0.46494 0.11952 0.98679 0.0
C989 C 0.49644 0.08695 1.03064 0.0
C990 C 0.44548 0.10914 0.89817 0.0
C991 C 0.44024 0.05592 0.72031 0.0
H992 H 0.30901 0.98463 0.73819 0.0
H993 H 0.36038 0.95032 0.5856 0.0
H994 H 0.28611 0.98385 0.65473 0.0
H995 H 0.38362 0.95139 0.6687 0.0
H996 H 0.47733 0.06263 0.91237 0.0
H997 H 0.48198 0.12618 1.06216 0.0
H998 H 0.50543 0.04976 0.98651 0.0
H999 H 0.45354 0.13893 0.98752 0.0
Eu1000 Eu 0.7155 0.64211 0.52612 0.0
Eu1001 Eu 0.67588 0.6709 0.58177 0.0
C1002 C 0.65251 0.64227 0.48116 0.0
C1003 C 0.73555 0.59589 0.41551 0.0
C1004 C 0.72756 0.56824 0.41041 0.0
C1005 C 0.71314 0.60779 0.33275 0.0
C1006 C 0.71006 0.56036 0.37081 0.0
C1007 C 0.732 0.61414 0.37397 0.0
C1008 C 0.70104 0.58019 0.33558 0.0
C1009 C 0.74168 0.60665 0.46731 0.0
O1010 O 0.70793 0.66544 0.64595 0.0
O1011 O 0.7341 0.63305 0.60704 0.0
C1012 C 0.72834 0.64752 0.64891 0.0
O1013 O 0.74162 0.67906 0.54368 0.0
O1014 O 0.64977 0.66257 0.6493 0.0
O1015 O 0.64238 0.69928 0.60353 0.0
O1016 O 0.70632 0.70534 0.57524 0.0
C1017 C 0.73142 0.70324 0.55683 0.0
O1018 O 0.70385 0.67513 0.46564 0.0
O1019 O 0.66927 0.69709 0.51053 0.0
O1020 O 0.66777 0.63481 0.5214 0.0
O1021 O 0.74799 0.63294 0.47046 0.0
O1022 O 0.72409 0.59927 0.50312 0.0
O1023 O 0.66751 0.6332 0.52091 0.0
C1024 C 0.64617 0.70604 0.69376 0.0
C1025 C 0.66977 0.72333 0.69224 0.0
C1026 C 0.63775 0.72267 0.78144 0.0
C1027 C 0.6772 0.74007 0.73433 0.0
C1028 C 0.63028 0.70585 0.73905 0.0
C1029 C 0.66127 0.74022 0.77964 0.0
C1030 C 0.63941 0.68778 0.64862 0.0
C1031 C 0.68443 0.69462 0.46854 0.0
H1032 H 0.73331 0.55326 0.43941 0.0
H1033 H 0.69589 0.6344 0.2558 0.0
H1034 H 0.70276 0.53913 0.36843 0.0
H1035 H 0.74236 0.63406 0.37628 0.0
H1036 H 0.68277 0.72377 0.6584 0.0
H1037 H 0.62495 0.72208 0.81561 0.0
H1038 H 0.69585 0.75253 0.73164 0.0
H1039 H 0.61217 0.69262 0.74179 0.0
Eu1040 Eu 0.09479 0.97439 0.28687 0.0
Eu1041 Eu 0.0712 0.9169 0.3356 0.0
C1042 C 0.1131 0.91516 0.23223 0.0
C1043 C 0.13412 0.02786 0.20897 0.0
C1044 C 0.16332 0.02642 0.21058 0.0
C1045 C 0.13627 0.03289 0.1167 0.0
C1046 C 0.17863 0.02595 0.16521 0.0
C1047 C 0.12088 0.03285 0.16195 0.0
C1048 C 0.16494 0.02778 0.11807 0.0
C1049 C 0.11798 0.02008 0.25472 0.0
O1050 O 0.07919 0.94771 0.40196 0.0
O1051 O 0.11339 0.97325 0.36737 0.0
C1052 C 0.099 0.96606 0.40788 0.0
O1053 O 0.05624 0.98569 0.32986 0.0
O1054 O 0.07573 0.88737 0.3995 0.0
O1055 O 0.03816 0.88751 0.35442 0.0
O1056 O 0.03471 0.94403 0.32405 0.0
C1057 C 0.03357 0.97104 0.32477 0.0
O1058 O 0.06378 0.95843 0.22574 0.0
O1059 O 0.05176 0.9148 0.25653 0.0
O1060 O 0.10239 0.90084 0.2719 0.0
O1061 O 0.09151 0.01476 0.24881 0.0
O1062 O 0.13017 0.00191 0.28419 0.0
O1063 O 0.11407 0.9425 0.23361 0.0
C1064 C 0.03225 0.88849 0.44484 0.0
C1065 C 0.02143 0.9156 0.45011 0.0
C1066 C 0.0098 0.87688 0.52653 0.0
C1067 C 0.005 0.92323 0.4926 0.0
C1068 C 0.02624 0.86922 0.48373 0.0
C1069 C -0.00128 0.90401 0.53155 0.0
C1070 C 0.04927 0.88094 0.3984 0.0
C1071 C 0.05065 0.93419 0.22067 0.0
H1072 H 0.17412 0.02325 0.24656 0.0
H1073 H 0.12542 0.03422 0.08036 0.0
H1074 H 0.20075 0.02199 0.16672 0.0
H1075 H 0.0985 0.03455 0.15959 0.0
H1076 H 0.02569 0.9311 0.4212 0.0
H1077 H 0.00553 0.86141 0.55558 0.0
H1078 H -0.00237 0.94445 0.4953 0.0
H1079 H 0.03417 0.8482 0.48102 0.0
Eu1080 Eu 0.77176 0.36065 1.02744 0.0
Eu1081 Eu 0.82039 0.32802 0.08434 0.0
C1082 C 0.83389 0.37139 0.98707 0.0
C1083 C 0.74043 0.42005 0.95905 0.0
C1084 C 0.76672 0.43252 0.95568 0.0
C1085 C 0.73083 0.43374 0.87174 0.0
C1086 C 0.77589 0.44297 0.90899 0.0
C1087 C 0.72163 0.42304 0.91848 0.0
C1088 C 0.75886 0.44095 0.86574 0.0
C1089 C 0.73631 0.39747 0.99577 0.0
O1090 O 0.7983 0.35413 0.1472 0.0
O1091 O 0.75644 0.35325 0.10988 0.0
C1092 C 0.77109 0.35456 0.1522 0.0
O1093 O 0.75337 0.31892 1.0293 0.0
O1094 O 0.85227 0.32697 0.14502 0.0
O1095 O 0.84018 0.28911 0.1065 0.0
O1096 O 0.7832 0.29972 0.08861 0.0
C1097 C 0.76133 0.29849 1.05871 0.0
O1098 O 0.78736 0.33179 0.96208 0.0
O1099 O 0.81871 0.30549 1.00836 0.0
O1100 O 0.8431 0.34995 1.01469 0.0
O1101 O 0.73837 0.37256 0.97572 0.0
O1102 O 0.74996 0.39982 1.03897 0.0
O1103 O 0.81079 0.38349 1.00213 0.0
C1104 C 0.84523 0.28596 0.19634 0.0
C1105 C 0.8173 0.28309 0.21173 0.0
C1106 C 0.85865 0.25848 0.27123 0.0
C1107 C 0.81012 0.26787 0.25594 0.0
C1108 C 0.86579 0.27347 0.22671 0.0
C1109 C 0.83068 0.25534 0.28649 0.0
C1110 C 0.85239 0.29973 0.14656 0.0
C1111 C 0.80546 0.3109 0.96524 0.0
H1112 H 0.78154 0.43083 0.98673 0.0
H1113 H 0.71739 0.43203 0.83853 0.0
H1114 H 0.7975 0.44858 0.90485 0.0
H1115 H 0.70121 0.41368 0.92054 0.0
H1116 H 0.80091 0.29233 0.18906 0.0
H1117 H 0.87506 0.24889 0.29335 0.0
H1118 H 0.78845 0.26612 0.26651 0.0
H1119 H 0.88741 0.27494 0.2156 0.0
Eu1120 Eu 0.38886 0.96398 0.22593 0.0
Eu1121 Eu 0.42063 0.9116 0.1776 0.0
C1122 C 0.37506 0.90331 0.27491 0.0
C1123 C 0.34345 0.00816 0.30999 0.0
C1124 C 0.31782 0.9945 0.31636 0.0
C1125 C 0.34369 0.01934 0.40067 0.0
C1126 C 0.30596 0.99217 0.365 0.0
C1127 C 0.35546 0.0218 0.35209 0.0
C1128 C 0.31942 0.00361 0.4078 0.0
C1129 C 0.35943 0.005 0.26204 0.0
O1130 O 0.41574 0.94564 0.11639 0.0
O1131 O 0.37539 0.96389 0.14141 0.0
C1132 C 0.39405 0.96086 0.10533 0.0
O1133 O 0.42956 0.98151 0.19979 0.0
O1134 O 0.4174 0.88308 0.11172 0.0
O1135 O 0.45516 0.8844 0.15652 0.0
O1136 O 0.45455 0.94119 0.1939 0.0
C1137 C 0.45325 0.96804 0.20068 0.0
O1138 O 0.41683 0.94783 0.29233 0.0
O1139 O 0.44038 0.91064 0.25563 0.0
O1140 O 0.39214 0.89114 0.24096 0.0
O1141 O 0.38642 0.00359 0.26679 0.0
O1142 O 0.34992 0.98665 0.2295 0.0
O1143 O 0.36838 0.92959 0.26994 0.0
C1144 C 0.46062 0.88501 0.06607 0.0
C1145 C 0.46863 0.9128 1.05809 0.0
C1146 C 0.48534 0.87273 0.98694 0.0
C1147 C 0.48433 0.92056 1.01493 0.0
C1148 C 0.46917 0.86504 1.02988 0.0
C1149 C 0.49333 0.90068 0.97869 0.0
C1150 C 0.44404 0.87734 0.11269 0.0
C1151 C 0.43522 0.92712 0.29513 0.0
H1152 H 0.30776 0.98409 0.28448 0.0
H1153 H 0.35485 0.02794 0.43313 0.0
H1154 H 0.28717 0.98007 0.36964 0.0
H1155 H 0.37503 0.03269 0.3482 0.0
H1156 H 0.46285 0.92869 0.08551 0.0
H1157 H 0.49185 0.85661 0.96042 0.0
H1158 H 0.48906 0.94233 1.00983 0.0
H1159 H 0.46355 0.84343 1.03498 0.0
Eu1160 Eu 0.79335 0.63085 0.97565 0.0
Eu1161 Eu 0.83555 0.67292 0.92483 0.0
C1162 C 0.85452 0.62735 1.01221 0.0
C1163 C 0.76235 0.58858 0.07423 0.0
C1164 C 0.76503 0.56274 0.09778 0.0
C1165 C 0.7509 0.60959 0.15551 0.0
C1166 C 0.75863 0.55996 0.1497 0.0
C1167 C 0.75771 0.6123 0.10424 0.0
C1168 C 0.7485 0.583 0.17762 0.0
C1169 C 0.76595 0.59152 1.01913 0.0
O1170 O 0.81661 0.64884 0.85562 0.0
O1171 O 0.77693 0.63423 0.89313 0.0
C1172 C 0.79049 0.64081 0.85109 0.0
O1173 O 0.77259 0.67074 0.99189 0.0
O1174 O 0.86834 0.68036 0.86748 0.0
O1175 O 0.84984 0.71482 0.90893 0.0
O1176 O 0.79337 0.69366 0.92524 0.0
C1177 C 0.77519 0.69268 0.96295 0.0
O1178 O 0.80601 0.65873 1.04509 0.0
O1179 O 0.83285 0.69171 1.00407 0.0
O1180 O 0.86057 0.65186 0.99204 0.0
O1181 O 0.75385 0.61312 0.99882 0.0
O1182 O 0.79132 0.58818 1.00321 0.0
O1183 O 0.83603 0.61291 0.98691 0.0
C1184 C 0.85684 0.72167 0.81963 0.0
C1185 C 0.83723 0.7435 0.81911 0.0
C1186 C 0.86131 0.72672 0.72663 0.0
C1187 C 0.8299 0.75677 0.77321 0.0
C1188 C 0.86868 0.71341 0.77264 0.0
C1189 C 0.84204 0.74882 0.72637 0.0
C1190 C 0.86419 0.70732 0.86876 0.0
C1191 C 0.82104 0.68203 1.04605 0.0
H1192 H 0.77105 0.54471 0.07567 0.0
H1193 H 0.74469 0.62832 0.17529 0.0
H1194 H 0.75956 0.53943 0.16636 0.0
H1195 H 0.75761 0.63289 0.08749 0.0
H1196 H 0.82747 0.75054 0.85428 0.0
H1197 H 0.8707 0.71964 0.69113 0.0
H1198 H 0.81512 0.77373 0.77458 0.0
H1199 H 0.88363 0.69659 0.77141 0.0
Eu1200 Eu 0.10433 0.02255 0.73782 0.0
Eu1201 Eu 0.07233 0.0755 0.68286 0.0
C1202 C 0.11844 0.08488 0.77684 0.0
C1203 C 0.15141 0.98007 0.82481 0.0
C1204 C 0.17669 0.99453 0.82886 0.0
C1205 C 0.15477 0.96728 0.91436 0.0
C1206 C 0.19009 0.9965 0.87615 0.0
C1207 C 0.14159 0.96498 0.86702 0.0
C1208 C 0.17824 0.98437 0.91988 0.0
C1209 C 0.13359 0.98301 0.77935 0.0
O1210 O 0.09077 0.05004 0.61593 0.0
O1211 O 0.10854 0.01106 0.65286 0.0
C1212 C 0.10126 0.02484 0.61152 0.0
O1213 O 0.06669 0.00385 0.70304 0.0
O1214 O 0.07134 0.10772 0.62286 0.0
O1215 O 0.03379 0.09668 0.66314 0.0
O1216 O 0.04027 0.04293 0.69539 0.0
C1217 C 0.04264 0.01617 0.70226 0.0
O1218 O 0.07373 0.0382 0.80026 0.0
O1219 O 0.05506 0.07772 0.76293 0.0
O1220 O 0.09816 0.09635 0.74918 0.0
O1221 O 0.10718 0.98686 0.78861 0.0
O1222 O 0.14277 -0.00098 0.7426 0.0
O1223 O 0.12872 0.0608 0.76179 0.0
C1224 C 0.02951 0.10124 0.57344 0.0
C1225 C 0.02682 0.07326 0.55796 0.0
C1226 C 7e-05 0.11423 0.50081 0.0
C1227 C 0.01089 0.06584 0.51469 0.0
C1228 C 0.01602 0.12163 0.54414 0.0
C1229 C -0.00309 0.08616 0.48562 0.0
C1230 C 0.04411 0.10849 0.62249 0.0
C1231 C 0.05756 0.06065 0.80217 0.0
H1232 H 0.18514 0.00591 0.79662 0.0
H1233 H 0.14489 0.95795 0.94746 0.0
H1234 H 0.20835 0.00951 0.87952 0.0
H1235 H 0.12243 0.95327 0.8645 0.0
H1236 H 0.03676 0.05697 0.57988 0.0
H1237 H 0.9897 0.13055 0.47968 0.0
H1238 H 0.00975 0.04413 0.50382 0.0
H1239 H 0.01739 0.1433 0.55529 0.0
Eu1240 Eu 0.72011 0.34767 0.48053 0.0
Eu1241 Eu 0.66359 0.32219 0.43283 0.0
C1242 C 0.66069 0.36422 0.53743 0.0
C1243 C 0.77345 0.37797 0.56882 0.0
C1244 C 0.76016 0.36646 0.61158 0.0
C1245 C 0.79638 0.41151 0.62402 0.0
C1246 C 0.76484 0.37741 0.66013 0.0
C1247 C 0.79186 0.40029 0.57516 0.0
C1248 C 0.7827 0.4002 0.66664 0.0
C1249 C 0.76558 0.36876 0.51748 0.0
O1250 O 0.69441 0.33037 0.36622 0.0
O1251 O 0.72089 0.36478 0.39837 0.0
C1252 C 0.71322 0.34976 0.35859 0.0
O1253 O 0.73213 0.30912 0.4378 0.0
O1254 O 0.63452 0.3264 0.36786 0.0
O1255 O 0.63405 0.28924 0.41422 0.0
O1256 O 0.69145 0.28601 0.44308 0.0
C1257 C 0.71845 0.28589 0.44309 0.0
O1258 O 0.70405 0.31777 0.54348 0.0
O1259 O 0.66305 0.30054 0.50938 0.0
O1260 O 0.64638 0.35092 0.50034 0.0
O1261 O 0.76151 0.34204 0.512 0.0
O1262 O 0.74613 0.38367 0.49601 0.0
O1263 O 0.68766 0.36775 0.53189 0.0
C1264 C 0.63467 0.28222 0.32317 0.0
C1265 C 0.65156 0.25828 0.32735 0.0
C1266 C 0.63251 0.27339 0.23035 0.0
C1267 C 0.65852 0.24208 0.28399 0.0
C1268 C 0.62543 0.28957 0.27383 0.0
C1269 C 0.64895 0.24912 0.23462 0.0
C1270 C 0.62802 0.29993 0.36963 0.0
C1271 C 0.68132 0.30215 0.54701 0.0
H1272 H 0.74538 0.34966 0.60721 0.0
H1273 H 0.81001 0.42925 0.62844 0.0
H1274 H 0.75347 0.36887 0.69235 0.0
H1275 H 0.80193 0.40959 0.54222 0.0
H1276 H 0.65955 0.25194 0.36435 0.0
H1277 H 0.62542 0.28031 0.19311 0.0
H1278 H 0.67115 0.2237 0.28938 0.0
H1279 H 0.61291 0.30805 0.26872 0.0
C1280 C 0.17214 0.53187 0.49193 0.0
C1281 C 0.1776 0.51279 0.45227 0.0
C1282 C 0.1684 0.52275 0.5423 0.0
C1283 C 0.17081 0.49451 0.55461 0.0
H1284 H 0.16872 0.55363 0.48335 0.0
H1285 H 0.16168 0.53758 0.57103 0.0
S1286 S 0.18424 0.43644 0.46573 0.0
N1287 N 0.18461 0.46424 0.42894 0.0
N1288 N 0.17902 0.44767 0.52476 0.0
C1289 C 0.17747 0.47544 0.51617 0.0
C1290 C 0.18076 0.4845 0.46468 0.0
C1291 C 0.75384 0.89326 0.80341 0.0
C1292 C 0.76671 0.91885 0.81381 0.0
C1293 C 0.74069 0.88841 0.75691 0.0
C1294 C 0.74044 0.90867 0.71827 0.0
H1295 H 0.75407 0.87668 0.8315 0.0
H1296 H 0.73204 0.86798 0.75 0.0
S1297 S 0.76581 0.9812 0.73127 0.0
N1298 N 0.77429 0.96635 0.78619 0.0
N1299 N 0.75011 0.957 0.69675 0.0
C1300 C 0.75092 0.93531 0.72991 0.0
C1301 C 0.76411 0.94039 0.77813 0.0
C1302 C 0.36269 0.57227 1.01864 0.0
C1303 C 0.37874 0.56108 0.97914 0.0
C1304 C 0.34344 0.55649 1.04655 0.0
C1305 C 0.34452 0.52721 1.0478 0.0
H1306 H 0.36672 0.59337 1.0307 0.0
H1307 H 0.33232 0.56736 0.07681 0.0
S1308 S 0.41375 0.47733 0.98348 0.0
N1309 N 0.41233 0.51353 0.93995 0.0
N1310 N 0.37784 0.48552 1.02198 0.0
C1311 C 0.36043 0.51337 1.01042 0.0
C1312 C 0.37573 0.53441 0.96379 0.0
C1313 C 0.72977 0.05562 0.29281 0.0
C1314 C 0.7139 0.0798 0.30159 0.0
C1315 C 0.74145 0.05034 0.2444 0.0
C1316 C 0.73705 0.06896 0.20401 0.0
H1317 H 0.7354 0.04223 0.32449 0.0
H1318 H 0.75528 0.03277 0.23945 0.0
S1319 S 0.69359 0.13254 0.20542 0.0
N1320 N 0.69122 0.12006 0.26424 0.0
N1321 N 0.71357 0.11049 0.1737 0.0
C1322 C 0.71902 0.09156 0.21107 0.0
C1323 C 0.7071 0.09678 0.25981 0.0
C1324 C 0.84039 0.47519 1.02305 0.0
C1325 C 0.81586 0.47675 1.05201 0.0
C1326 C 0.84195 0.48712 0.97465 0.0
C1327 C 0.81908 0.50102 0.95339 0.0
H1328 H 0.85926 0.46681 1.03948 0.0
H1329 H 0.86162 0.48634 0.95445 0.0
S1330 S 0.748 0.5036 1.00725 0.0
N1331 N 0.76668 0.4881 1.05207 0.0
N1332 N 0.7697 0.51078 0.95993 0.0
C1333 C 0.79356 0.50005 0.97923 0.0
C1334 C 0.79195 0.48785 1.02895 0.0
C1335 C 0.25765 0.06312 0.78255 0.0
C1336 C 0.26296 0.09137 0.79345 0.0
C1337 C 0.24526 0.05507 0.73614 0.0
C1338 C 0.23755 0.07511 0.6999 0.0
H1339 H 0.26142 0.0473 0.81119 0.0
H1340 H 0.24093 0.03328 0.72924 0.0
S1341 S 0.25069 0.15109 0.70624 0.0
N1342 N 0.26301 0.13877 0.76068 0.0
N1343 N 0.23905 0.12376 0.67469 0.0
C1344 C 0.24451 0.10309 0.70878 0.0
C1345 C 0.2575 0.11118 0.75517 0.0
C1346 C 0.65978 0.44302 0.50399 0.0
C1347 C 0.66663 0.46232 0.46564 0.0
C1348 C 0.65998 0.45091 0.55572 0.0
C1349 C 0.66794 0.47781 0.57022 0.0
H1350 H 0.65201 0.42263 0.49367 0.0
H1351 H 0.65159 0.43688 0.58403 0.0
S1352 S 0.68487 0.53618 0.48601 0.0
N1353 N 0.67969 0.50993 0.44628 0.0
N1354 N 0.68171 0.52366 0.54427 0.0
C1355 C 0.67609 0.49668 0.53295 0.0
C1356 C 0.67515 0.48913 0.48032 0.0
C1357 C 0.23474 0.94025 0.29258 0.0
C1358 C 0.21982 0.91564 0.30268 0.0
C1359 C 0.24718 0.94456 0.24453 0.0
C1360 C 0.24476 0.92438 0.20588 0.0
H1361 H 0.23923 0.95482 0.32327 0.0
H1362 H 0.26021 0.96263 0.23881 0.0
S1363 S 0.20392 0.85921 0.21031 0.0
N1364 N 0.1997 0.87336 0.26758 0.0
N1365 N 0.22331 0.88123 0.17775 0.0
C1366 C 0.22735 0.90139 0.21374 0.0
C1367 C 0.21461 0.89716 0.26206 0.0
C1368 C 0.67867 0.01657 1.03949 0.0
C1369 C 0.66679 0.99039 1.04931 0.0
C1370 C 0.68044 0.02688 0.98936 0.0
C1371 C 0.67041 0.01109 0.94812 0.0
H1372 H 0.68477 0.02989 0.07097 0.0
H1373 H 0.68838 0.04765 0.98305 0.0
S1374 S 0.63536 0.94277 0.95425 0.0
N1375 N 0.64462 0.94932 1.01394 0.0
N1376 N 0.64682 0.96916 0.92 0.0
C1377 C 0.65888 0.98481 0.95736 0.0
C1378 C 0.6574 0.97428 1.00797 0.0
C1379 C 0.2476 0.4593 0.23892 0.0
C1380 C 0.23407 0.43832 0.21075 0.0
C1381 C 0.2552 0.45498 0.29026 0.0
C1382 C 0.24962 0.42946 0.31413 0.0
H1383 H 0.25362 0.47843 0.22028 0.0
H1384 H 0.2668 0.47095 0.31032 0.0
S1385 S 0.21148 0.36949 0.259 0.0
N1386 N 0.2131 0.39234 0.21201 0.0
N1387 N 0.22682 0.38449 0.30847 0.0
C1388 C 0.23403 0.40937 0.28769 0.0
C1389 C 0.2263 0.41376 0.2359 0.0
C1390 C 0.79094 0.98666 0.48633 0.0
C1391 C 0.80725 -0.00229 0.44676 0.0
C1392 C 0.79461 0.99584 0.53707 0.0
C1393 C 0.81509 0.01568 0.549 0.0
H1394 H 0.77668 0.96977 0.47854 0.0
H1395 H 0.78318 0.98566 0.56749 0.0
S1396 S 0.86204 0.0513 0.45817 0.0
N1397 N 0.84319 0.03039 0.42191 0.0
N1398 N 0.85026 0.04732 0.51719 0.0
C1399 C 0.82992 0.02822 0.50906 0.0
C1400 C 0.82605 0.01916 0.45781 0.0
C1401 C 0.20281 0.56495 0.72733 0.0
C1402 C 0.22647 0.55064 0.70937 0.0
C1403 C 0.1973 0.56703 0.77984 0.0
C1404 C 0.2153 0.55488 0.81554 0.0
H1405 H 0.19019 0.5771 0.70132 0.0
H1406 H 0.18102 0.581 0.79259 0.0
S1407 S 0.27455 0.50826 0.78732 0.0
N1408 N 0.264 0.51898 0.73038 0.0
N1409 N 0.25349 0.5229 0.82964 0.0
C1410 C 0.23634 0.53711 0.79777 0.0
C1411 C 0.24208 0.53509 0.74435 0.0
C1412 C 0.31066 0.95738 0.52256 0.0
C1413 C 0.31251 0.97647 0.5632 0.0
C1414 C 0.30994 0.96663 0.47172 0.0
C1415 C 0.31146 0.99517 0.46018 0.0
H1416 H 0.31176 0.93525 0.52998 0.0
H1417 H 0.31078 0.95131 0.44129 0.0
S1418 S 0.31477 0.05316 0.55354 0.0
N1419 N 0.3142 0.02494 0.58923 0.0
N1420 N 0.3125 0.04235 0.4935 0.0
C1421 C 0.31117 0.01442 0.50072 0.0
C1422 C 0.3118 0.00503 0.55236 0.0
C1423 C 0.71439 0.55364 0.22787 0.0
C1424 C 0.72907 0.57904 0.22116 0.0
C1425 C 0.69181 0.55073 0.26222 0.0
C1426 C 0.68245 0.5729 0.29281 0.0
H1427 H 0.72002 0.53522 0.20648 0.0
H1428 H 0.68321 0.53027 0.26863 0.0
S1429 S 0.70592 0.65615 0.31714 0.0
N1430 N 0.73325 0.63094 0.26831 0.0
N1431 N 0.67263 0.62601 0.30919 0.0
C1432 C 0.68136 0.59848 0.2707 0.0
C1433 C 0.71738 0.60191 0.24547 0.0
C1434 C 0.17995 0.03533 1.02833 0.0
C1435 C 0.17838 0.01784 0.07102 0.0
C1436 C 0.18343 0.02416 0.97922 0.0
C1437 C 0.18511 0.99524 0.97135 0.0
H1438 H 0.17599 0.05741 1.03242 0.0
H1439 H 0.18161 0.03802 0.94691 0.0
S1440 S 0.18495 0.94121 0.07209 0.0
N1441 N 0.18125 0.97074 0.10375 0.0
N1442 N 0.18792 0.94968 1.01093 0.0
C1443 C 0.18612 0.97781 1.01437 0.0
C1444 C 0.18273 0.98919 0.06445 0.0
C1445 C 0.77487 0.44075 0.72426 0.0
C1446 C 0.78447 0.41333 0.71754 0.0
C1447 C 0.76839 0.45092 0.77335 0.0
C1448 C 0.77195 0.43403 0.81656 0.0
H1449 H 0.7701 0.4535 0.69122 0.0
H1450 H 0.75904 0.4713 0.77724 0.0
S1451 S 0.79788 0.36148 0.81914 0.0
N1452 N 0.79888 0.3703 0.75799 0.0
N1453 N 0.78665 0.38927 0.85011 0.0
C1454 C 0.7834 0.40735 0.8105 0.0
C1455 C 0.78979 0.39703 0.76089 0.0
C1456 C 0.16327 0.38452 0.39303 0.0
C1457 C 0.14554 0.37363 0.43195 0.0
C1458 C 0.15381 0.39316 0.34393 0.0
C1459 C 0.12609 0.39004 0.32756 0.0
H1460 H 0.18522 0.38698 0.40046 0.0
H1461 H 0.16859 0.40298 0.31846 0.0
S1462 S 0.07026 0.36074 0.41047 0.0
N1463 N 0.09792 0.35955 0.44796 0.0
N1464 N 0.08069 0.37387 0.3551 0.0
C1465 C 0.10805 0.37793 0.36464 0.0
C1466 C 0.11756 0.37005 0.41616 0.0
C1467 C 0.87859 0.87687 0.65074 0.0
C1468 C 0.86341 0.89695 0.67971 0.0
C1469 C 0.87126 0.86926 0.59878 0.0
C1470 C 0.84854 0.88153 0.57221 0.0
H1471 H 0.8967 0.86735 0.66783 0.0
H1472 H 0.88332 0.85334 0.57965 0.0
S1473 S 0.80279 0.93615 0.62855 0.0
N1474 N 0.82445 0.92887 0.67549 0.0
N1475 N 0.812 0.916 0.58025 0.0
C1476 C 0.8338 0.90193 0.60072 0.0
C1477 C 0.84081 0.90919 0.6532 0.0
C1478 C 0.36658 0.63032 0.90556 0.0
C1479 C 0.34473 0.61703 0.9327 0.0
C1480 C 0.37512 0.62176 0.85484 0.0
C1481 C 0.36225 0.59944 0.82774 0.0
H1482 H 0.37698 0.6478 0.9232 0.0
H1483 H 0.39222 0.63264 0.83695 0.0
S1484 S 0.30643 0.55523 0.88348 0.0
N1485 N 0.31242 0.57843 0.92873 0.0
N1486 N 0.32732 0.56333 0.83571 0.0
C1487 C 0.34079 0.58581 0.8552 0.0
C1488 C 0.33244 0.59425 0.90648 0.0
C1489 C 0.65838 0.08958 0.10821 0.0
C1490 C 0.64395 0.10937 0.07815 0.0
C1491 C 0.6504 0.08244 0.15879 0.0
C1492 C 0.62752 0.09474 0.18437 0.0
H1493 H 0.67674 0.07955 0.09288 0.0
H1494 H 0.66269 0.06683 0.17826 0.0
S1495 S 0.57983 0.14537 0.12251 0.0
N1496 N 0.60365 0.13976 0.07787 0.0
N1497 N 0.58866 0.12621 0.17248 0.0
C1498 C 0.61216 0.11403 0.15463 0.0
C1499 C 0.62028 0.12127 0.10219 0.0
C1500 C 0.14023 0.62058 0.67713 0.0
C1501 C 0.12422 0.59615 0.68185 0.0
C1502 C 0.14943 0.6306 0.62825 0.0
C1503 C 0.14212 0.6179 0.58059 0.0
H1504 H 0.14703 0.63126 0.71154 0.0
H1505 H 0.16346 0.64807 0.62812 0.0
S1506 S 0.09978 0.55381 0.57002 0.0
N1507 N 0.10162 0.55944 0.6325 0.0
N1508 N 0.11736 0.57928 0.5428 0.0
C1509 C 0.12547 0.59401 0.58474 0.0
C1510 C 0.11691 0.58313 0.63436 0.0
C1511 C 0.61939 0.87431 0.85127 0.0
C1512 C 0.63369 0.89352 0.81929 0.0
C1513 C 0.62944 0.86641 0.90131 0.0
C1514 C 0.65431 0.8774 0.9227 0.0
H1515 H 0.59968 0.86604 0.83844 0.0
H1516 H 0.61754 0.85156 0.92335 0.0
S1517 S 0.69895 0.92937 0.85557 0.0
N1518 N 0.67393 0.92327 0.81417 0.0
N1519 N 0.69247 0.90927 0.90523 0.0
C1520 C 0.66878 0.89628 0.89017 0.0
C1521 C 0.65857 0.90416 0.83995 0.0
C1522 C 0.36721 0.35702 0.17861 0.0
C1523 C 0.36597 0.3849 0.19701 0.0
C1524 C 0.36032 0.34958 0.12636 0.0
C1525 C 0.35242 0.36961 0.08887 0.0
H1526 H 0.37256 0.34062 0.20516 0.0
H1527 H 0.36009 0.32778 0.11596 0.0
S1528 S 0.35053 0.44537 0.11303 0.0
N1529 N 0.35874 0.43246 0.16951 0.0
N1530 N 0.3469 0.41867 0.07404 0.0
C1531 C 0.35266 0.39733 0.10628 0.0
C1532 C 0.35914 0.40485 0.15901 0.0
C1533 C 0.86647 0.12504 0.41185 0.0
C1534 C 0.84019 0.11714 0.43204 0.0
C1535 C 0.87574 0.11677 0.36132 0.0
C1536 C 0.85918 0.10041 0.32748 0.0
H1537 H 0.88007 0.13776 0.43516 0.0
H1538 H 0.89647 0.12256 0.34938 0.0
S1539 S 0.78875 0.07421 0.35932 0.0
N1540 N 0.79805 0.09139 0.41127 0.0
N1541 N 0.81493 0.07717 0.31904 0.0
C1542 C 0.83293 0.09283 0.34703 0.0
C1543 C 0.82363 0.10086 0.39793 0.0
C1544 C 0.85589 0.5853 0.14064 0.0
C1545 C 0.87076 0.60151 0.17724 0.0
C1546 C 0.85172 0.59355 0.08868 0.0
C1547 C 0.86199 0.61881 0.06824 0.0
H1548 H 0.84747 0.56536 0.15181 0.0
H1549 H 0.84003 0.57963 0.06413 0.0
S1550 S 0.9012 0.67063 0.14641 0.0
N1551 N 0.89525 0.64527 0.18767 0.0
N1552 N 0.8871 0.66084 0.0914 0.0
C1553 C 0.87652 0.63569 0.10434 0.0
C1554 C 0.88093 0.62714 0.1578 0.0
C1555 C 0.11271 0.11295 0.86319 0.0
C1556 C 0.12928 0.09716 0.82831 0.0
C1557 C 0.12184 0.12033 0.91424 0.0
C1558 C 0.14823 0.11245 0.93387 0.0
H1559 H 0.09217 0.11928 0.85142 0.0
H1560 H 0.10814 0.13263 0.93819 0.0
S1561 S 0.20037 0.07194 0.85776 0.0
N1562 N 0.17391 0.07479 0.81824 0.0
N1563 N 0.19092 0.08817 0.91072 0.0
C1564 C 0.16492 0.09694 0.89861 0.0
C1565 C 0.15561 0.0895 0.84737 0.0
C1566 C 0.62127 0.36681 0.60881 0.0
C1567 C 0.64831 0.37372 0.59055 0.0
C1568 C 0.61147 0.37432 0.65957 0.0
C1569 C 0.62806 0.38906 0.69592 0.0
H1570 H 0.60739 0.35552 0.58365 0.0
H1571 H 0.59024 0.36936 0.66963 0.0
S1572 S 0.70017 0.41272 0.66994 0.0
N1573 N 0.69133 0.39649 0.61655 0.0
N1574 N 0.67298 0.41038 0.70811 0.0
C1575 C 0.65497 0.39582 0.67822 0.0
C1576 C 0.66501 0.38812 0.62734 0.0
C1577 C 0.37174 0.8689 0.4116 0.0
C1578 C 0.34496 0.87643 0.43012 0.0
C1579 C 0.38106 0.87551 0.36042 0.0
C1580 C 0.36398 0.88955 0.3242 0.0
H1581 H 0.3858 0.85801 0.43692 0.0
H1582 H 0.40222 0.87049 0.34989 0.0
S1583 S 0.29204 0.91326 0.35019 0.0
N1584 N 0.30158 0.89868 0.40447 0.0
N1585 N 0.3188 0.91005 0.31135 0.0
C1586 C 0.33723 0.89654 0.34192 0.0
C1587 C 0.32787 0.89027 0.39345 0.0
C1588 C 0.85115 0.41892 0.8698 0.0
C1589 C 0.86273 0.40155 0.83079 0.0
C1590 C 0.84358 0.40924 0.91966 0.0
C1591 C 0.84711 0.38139 0.93563 0.0
H1592 H 0.84771 0.44075 0.86208 0.0
H1593 H 0.83456 0.42402 0.94628 0.0
S1594 S 0.87565 0.32606 0.84987 0.0
N1595 N 0.8767 0.35403 0.81326 0.0
N1596 N 0.86315 0.33618 0.90606 0.0
C1597 C 0.85901 0.36364 0.89756 0.0
C1598 C 0.86654 0.37351 0.84603 0.0
C1599 C 0.3683 0.09417 0.58666 0.0
C1600 C 0.34823 0.11559 0.58449 0.0
C1601 C 0.37845 0.08348 0.63446 0.0
C1602 C 0.3706 0.09445 0.68333 0.0
H1603 H 0.37498 0.0843 0.55132 0.0
H1604 H 0.39231 0.06585 0.63308 0.0
S1605 S 0.32084 0.15203 0.70076 0.0
N1606 N 0.32094 0.14676 0.63808 0.0
N1607 N 0.34294 0.12952 0.72508 0.0
C1608 C 0.35196 0.11677 0.68162 0.0
C1609 C 0.3402 0.12647 0.63337 0.0
C1610 C 0.63791 0.58211 0.38114 0.0
C1611 C 0.62322 0.59572 0.3406 0.0
C1612 C 0.64746 0.59622 0.42651 0.0
C1613 C 0.64211 0.62466 0.43537 0.0
H1614 H 0.64284 0.56024 0.3773 0.0
H1615 H 0.65924 0.5849 0.45463 0.0
S1616 S 0.60174 0.66986 0.34664 0.0
N1617 N 0.60217 0.63957 0.31666 0.0
N1618 N 0.61902 0.66525 0.40066 0.0
C1619 C 0.62619 0.63803 0.39673 0.0
C1620 C 0.61683 0.6239 0.35039 0.0
C1621 C 0.14762 0.86741 0.12762 0.0
C1622 C 0.14197 0.88068 0.07998 0.0
C1623 C 0.13713 0.8771 0.17595 0.0
C1624 C 0.12158 0.90183 0.18032 0.0
H1625 H 0.16117 0.8496 0.12792 0.0
H1626 H 0.14244 0.86582 0.21045 0.0
S1627 S 0.09979 0.94484 0.06807 0.0
N1628 N 0.11797 0.91949 1.04141 0.0
N1629 N 0.10002 0.93879 0.13046 0.0
C1630 C 0.11532 0.91511 0.13273 0.0
C1631 C 0.12504 0.90448 0.08346 0.0
C1632 C 0.97304 0.48644 0.26676 0.0
C1633 C 0.97717 0.51085 0.29547 0.0
C1634 C 0.99364 0.47622 0.23444 0.0
C1635 C 0.01943 0.48966 0.23016 0.0
H1636 H 0.95337 0.47557 0.26751 0.0
H1637 H 0.98939 0.45721 0.21344 0.0
S1638 S 0.04129 0.55359 0.29962 0.0
N1639 N 0.00927 0.5478 0.31929 0.0
N1640 N 0.04827 0.52845 0.25836 0.0
C1641 C 0.02403 0.514 0.25905 0.0
C1642 C 0.00296 0.52444 0.29215 0.0
C1643 C 0.78113 0.74517 0.47919 0.0
C1644 C 0.7645 0.76731 0.46184 0.0
C1645 C 0.77104 0.72592 0.51429 0.0
C1646 C 0.74385 0.72784 0.53309 0.0
H1647 H 0.80241 0.74287 0.46642 0.0
H1648 H 0.7844 0.70885 0.52545 0.0
S1649 S 0.69132 0.78128 0.49834 0.0
N1650 N 0.71908 0.78944 0.46461 0.0
N1651 N 0.70022 0.75371 0.53193 0.0
C1652 C 0.72697 0.75003 0.51651 0.0
C1653 C 0.73713 0.7694 0.48001 0.0
C1654 C 0.51583 0.5062 0.76938 0.0
C1655 C 0.51299 0.47925 0.78935 0.0
C1656 C 0.49613 0.51716 0.73586 0.0
C1657 C 0.47262 0.50169 0.72109 0.0
H1658 H 0.53356 0.51897 0.77927 0.0
H1659 H 0.49891 0.5384 0.72321 0.0
S1660 S 0.45619 0.42932 0.7596 0.0
N1661 N 0.48508 0.4369 0.79045 0.0
N1662 N 0.4486 0.45731 0.72609 0.0
C1663 C 0.46999 0.47434 0.73923 0.0
C1664 C 0.48984 0.46329 0.77405 0.0
C1665 C 0.75725 0.22885 0.99841 0.0
C1666 C 0.72876 0.2268 0.98766 0.0
C1667 C 0.76755 0.25096 1.02747 0.0
C1668 C 0.74964 0.27158 1.04652 0.0
H1669 H 0.77176 0.21358 0.98362 0.0
H1670 H 0.78982 0.25292 1.03202 0.0
S1671 S 0.67328 0.27425 1.03602 0.0
N1672 N 0.68248 0.24628 1.00337 0.0
N1673 N 0.70249 0.28776 1.05763 0.0
C1674 C 0.72115 0.26912 1.03874 0.0
C1675 C 0.71053 0.2468 1.0091 0.0
C1676 C 0.995 0.4736 0.74469 0.0
C1677 C 0.9743 0.49002 0.72162 0.0
C1678 C 0.01348 0.48489 0.77992 0.0
C1679 C 0.01248 0.5132 0.79281 0.0
H1680 H -0.00345 0.45152 0.73692 0.0
H1681 H 0.02914 0.47134 0.79611 0.0
S1682 S 0.96304 0.56559 0.74106 0.0
N1683 N 0.95443 0.53622 0.71246 0.0
N1684 N 0.98911 0.5577 0.7793 0.0
C1685 C 0.99192 0.53 0.76988 0.0
C1686 C 0.97311 0.51843 0.73367 0.0
C1687 C 0.7381 0.71687 1.01078 0.0
C1688 C 0.76287 0.71839 0.9826 0.0
C1689 C 0.72833 0.73976 1.03828 0.0
C1690 C 0.74307 0.76501 1.03891 0.0
H1691 H 0.72632 0.6977 1.01203 0.0
H1692 H 0.70872 0.73774 1.05834 0.0
S1693 S 0.81034 0.77889 0.97405 0.0
N1694 N 0.80274 0.74649 0.95868 0.0
N1695 N 0.78451 0.7897 1.01064 0.0
C1696 C 0.76833 0.76656 1.01188 0.0
C1697 C 0.77808 0.74328 0.9833 0.0
C1698 C 0.48825 0.46922 0.27478 0.0
C1699 C 0.46481 0.48539 0.28643 0.0
C1700 C 0.51013 0.48016 0.24605 0.0
C1701 C 0.50951 0.50777 0.22834 0.0
H1702 H 0.48931 0.44765 0.28644 0.0
H1703 H 0.52791 0.46694 0.23869 0.0
S1704 S 0.45217 0.55845 0.24892 0.0
N1705 N 0.4417 0.52992 0.27806 0.0
N1706 N 0.48288 0.55093 0.22443 0.0
C1707 C 0.48587 0.52406 0.23946 0.0
C1708 C 0.46358 0.51279 0.2686 0.0
C1709 C 0.76935 0.24957 0.52815 0.0
C1710 C 0.75384 0.227 0.54695 0.0
C1711 C 0.7587 0.26706 0.49057 0.0
C1712 C 0.73189 0.26301 0.47082 0.0
H1713 H 0.7903 0.25343 0.54146 0.0
H1714 H 0.77136 0.28441 0.47828 0.0
S1715 S 0.68277 0.20668 0.5064 0.0
N1716 N 0.71001 0.20182 0.54352 0.0
N1717 N 0.69043 0.23394 0.47094 0.0
C1718 C 0.71626 0.24024 0.48858 0.0
C1719 C 0.72692 0.22273 0.52767 0.0
C1720 C 0.22789 0.27591 1.01823 0.0
C1721 C 0.24673 0.27169 0.97766 0.0
C1722 C 0.21971 0.25381 1.04935 0.0
C1723 C 0.2305 0.22706 1.04133 0.0
H1724 H 0.22064 0.29658 1.028 0.0
H1725 H 0.20509 0.25771 0.08021 0.0
S1726 S 0.27693 0.2046 0.93501 0.0
N1727 N 0.27281 0.23829 0.92663 0.0
N1728 N 0.25862 0.19701 0.98662 0.0
C1729 C 0.2483 0.2224 0.99938 0.0
C1730 C 0.25588 0.24463 0.96684 0.0
C1731 C 0.26067 0.71891 0.52075 0.0
C1732 C 0.24339 0.72301 0.478 0.0
C1733 C 0.26797 0.74111 0.55246 0.0
C1734 C 0.25805 0.76796 0.54253 0.0
H1735 H 0.26757 0.69828 0.53132 0.0
H1736 H 0.28169 0.73732 0.58463 0.0
S1737 S 0.21476 0.78978 0.43178 0.0
N1738 N 0.21849 0.7559 0.42471 0.0
N1739 N 0.23178 0.79782 0.48472 0.0
C1740 C 0.24131 0.77241 0.4991 0.0
C1741 C 0.23429 0.74989 0.46645 0.0
C1742 C 0.23271 0.21689 0.51169 0.0
C1743 C 0.25138 0.22111 0.47099 0.0
C1744 C 0.22522 0.23874 0.54403 0.0
C1745 C 0.23613 0.26547 0.53667 0.0
H1746 H 0.22488 0.19633 0.52038 0.0
H1747 H 0.21056 0.23477 0.57473 0.0
S1748 S 0.28376 0.28762 0.43228 0.0
N1749 N 0.27925 0.254 0.42278 0.0
N1750 N 0.26514 0.29539 0.48358 0.0
C1751 C 0.25437 0.27008 0.49535 0.0
C1752 C 0.2618 0.24785 0.46221 0.0
C1753 C 0.23645 0.72554 1.00666 0.0
C1754 C 0.25538 0.73003 1.0468 0.0
C1755 C 0.22875 0.74717 0.97439 0.0
C1756 C 0.23959 0.77397 0.98142 0.0
H1757 H 0.22846 0.70495 0.99851 0.0
H1758 H 0.21381 0.74301 0.94424 0.0
S1759 S 0.28848 0.79657 0.0836 0.0
N1760 N 0.28401 0.763 0.09345 0.0
N1761 N 0.26929 0.80413 1.03308 0.0
C1762 C 0.25834 0.77879 1.02189 0.0
C1763 C 0.2661 0.75672 1.05481 0.0
C1764 C 0.50103 0.01777 0.77823 0.0
C1765 C 0.47785 0.00222 0.79419 0.0
C1766 C 0.51965 0.00723 0.74225 0.0
C1767 C 0.51614 0.9805 0.72144 0.0
H1768 H 0.50445 0.03871 0.79229 0.0
H1769 H 0.53731 0.01995 0.73186 0.0
S1770 S 0.45947 0.93073 0.75211 0.0
N1771 N 0.45306 0.9582 0.7882 0.0
N1772 N 0.48768 0.93854 0.71937 0.0
C1773 C 0.49313 0.96458 0.73729 0.0
C1774 C 0.47434 0.97522 0.77449 0.0
C1775 C 0.0116 0.0116 0.28344 0.0
C1776 C 0.00978 0.98371 0.29853 0.0
C1777 C 0.99294 0.02266 0.24839 0.0
C1778 C 0.97132 0.00644 0.22769 0.0
H1779 H 0.02804 0.02493 0.29759 0.0
H1780 H 0.99511 0.04446 0.2389 0.0
S1781 S 0.95757 0.93199 0.25389 0.0
N1782 N 0.98447 0.9399 0.29014 0.0
N1783 N 0.94968 0.96084 0.2232 0.0
C1784 C 0.96933 0.97843 0.24196 0.0
C1785 C 0.98822 0.96715 0.27812 0.0
C1786 C 0.47428 0.00829 0.24542 0.0
C1787 C 0.47729 0.98141 0.22509 0.0
C1788 C 0.49403 0.01931 0.27865 0.0
C1789 C 0.51779 0.00404 0.29246 0.0
H1790 H 0.45618 0.02079 0.23677 0.0
H1791 H 0.49088 0.04035 0.29244 0.0
S1792 S 0.53569 0.93254 0.24971 0.0
N1793 N 0.50622 0.93974 0.22054 0.0
N1794 N 0.54298 0.96036 0.28422 0.0
C1795 C 0.52101 0.977 0.27286 0.0
C1796 C 0.50105 0.96585 0.2384 0.0
C1797 C 0.97096 0.0065 0.75428 0.0
C1798 C 0.97489 0.98605 0.79197 0.0
C1799 C 0.99266 0.01448 0.72229 0.0
C1800 C 0.01908 0.00246 0.72704 0.0
H1801 H 0.95072 0.01565 0.74786 0.0
H1802 H 0.98882 0.03061 0.69421 0.0
S1803 S 0.04019 0.94876 0.82165 0.0
N1804 N 0.00706 0.9545 0.83366 0.0
N1805 N 0.04811 0.96935 0.77329 0.0
C1806 C 0.0233 0.98197 0.76477 0.0
C1807 C 0.0012 0.97402 0.7976 0.0
C1808 C 0.97982 0.44274 0.91582 0.0
C1809 C 0.98149 0.41507 0.93404 0.0
C1810 C 0.96355 0.44988 0.87245 0.0
C1811 C 0.94845 0.42962 0.84499 0.0
H1812 H 0.99165 0.45899 0.93456 0.0
H1813 H 0.96353 0.47123 0.8594 0.0
S1814 S 0.94303 0.35496 0.87951 0.0
N1815 N 0.96406 0.36805 0.92326 0.0
N1816 N 0.93489 0.38107 0.84144 0.0
C1817 C 0.94941 0.40213 0.86354 0.0
C1818 C 0.96552 0.39498 0.90792 0.0
C1819 C 0.83729 0.72531 0.0916 0.0
C1820 C 0.8259 0.69829 0.09478 0.0
C1821 C 0.84425 0.74088 0.13554 0.0
C1822 C 0.84019 0.73044 0.18538 0.0
H1823 H 0.84112 0.73472 1.05456 0.0
H1824 H 0.85276 0.76151 0.13025 0.0
S1825 S 0.81119 0.66077 0.21608 0.0
N1826 N 0.81083 0.66181 0.1527 0.0
N1827 N 0.82395 0.69095 0.23528 0.0
C1828 C 0.82843 0.70358 0.18947 0.0
C1829 C 0.82131 0.68761 0.14438 0.0
C1830 C 0.51638 0.58526 0.34638 0.0
C1831 C 0.53678 0.56419 0.34826 0.0
C1832 C 0.5001 0.59207 0.38922 0.0
C1833 C 0.50322 0.57805 0.43604 0.0
H1834 H 0.51279 0.59681 0.31139 0.0
H1835 H 0.48474 0.60839 0.38547 0.0
S1836 S 0.55366 0.52148 0.46251 0.0
N1837 N 0.55917 0.52941 0.40169 0.0
N1838 N 0.52846 0.54222 0.48229 0.0
C1839 C 0.5233 0.55675 0.43869 0.0
C1840 C 0.54006 0.54983 0.39489 0.0
C1841 C 0.6511 0.24641 0.63588 0.0
C1842 C 0.6608 0.25375 0.68518 0.0
C1843 C 0.65808 0.26198 0.59197 0.0
C1844 C 0.6755 0.28552 0.59466 0.0
H1845 H 0.63805 0.22828 0.63094 0.0
H1846 H 0.6497 0.25536 0.55537 0.0
S1847 S 0.7049 0.31532 0.71443 0.0
N1848 N 0.68758 0.28767 0.73397 0.0
N1849 N 0.70122 0.31619 0.65143 0.0
C1850 C 0.68535 0.29324 0.64355 0.0
C1851 C 0.67793 0.27758 0.68859 0.0
C1852 C 0.94838 0.56248 0.12307 0.0
C1853 C 0.95648 0.57083 0.17278 0.0
C1854 C 0.96402 0.56996 0.07915 0.0
C1855 C 0.98846 0.58614 0.08288 0.0
H1856 H 0.92946 0.55068 0.11784 0.0
H1857 H 0.95656 0.56343 1.0418 0.0
S1858 S 0.02044 0.61072 0.20445 0.0
N1859 N 0.99195 0.5946 0.22294 0.0
N1860 N 0.02098 0.60821 0.14127 0.0
C1861 C -0.00285 0.59385 0.1325 0.0
C1862 C 0.98133 0.58631 0.17704 0.0
C1863 C 0.65121 0.72266 0.41404 0.0
C1864 C 0.67838 0.71289 0.42306 0.0
C1865 C 0.64448 0.7383 0.36993 0.0
C1866 C 0.66479 0.74585 0.33351 0.0
H1867 H 0.63472 0.71757 0.44068 0.0
H1868 H 0.62314 0.74471 0.36448 0.0
S1869 S 0.73975 0.72813 0.34159 0.0
N1870 N 0.72609 0.71346 0.39299 0.0
N1871 N 0.71378 0.74342 0.31145 0.0
C1872 C 0.6923 0.7372 0.34321 0.0
C1873 C 0.699 0.72067 0.3875 0.0
C1874 C 0.51831 0.40408 0.67782 0.0
C1875 C 0.54177 0.4217 0.67742 0.0
C1876 C 0.50358 0.39767 0.63283 0.0
C1877 C 0.51145 0.40862 0.58506 0.0
H1878 H 0.51107 0.39499 0.71337 0.0
H1879 H 0.48569 0.38413 0.63558 0.0
S1880 S 0.5718 0.4549 0.56154 0.0
N1881 N 0.57246 0.4495 0.62415 0.0
N1882 N 0.54469 0.43753 0.53959 0.0
C1883 C 0.53475 0.42637 0.58378 0.0
C1884 C 0.5499 0.43288 0.62981 0.0
C1885 C 0.79594 0.2921 0.87482 0.0
C1886 C 0.81262 0.2929 0.91929 0.0
C1887 C 0.8031 0.27541 0.83178 0.0
C1888 C 0.82731 0.2587 0.83106 0.0
H1889 H 0.77712 0.30436 0.87325 0.0
H1890 H 0.78941 0.27548 0.79885 0.0
S1891 S 0.87944 0.2548 0.9357 0.0
N1892 N 0.8553 0.27581 0.9584 0.0
N1893 N 0.86872 0.2456 0.87802 0.0
C1894 C 0.84421 0.25951 0.87507 0.0
C1895 C 0.83688 0.2762 0.91887 0.0
C1896 C 0.02389 0.55096 0.64529 0.0
C1897 C 0.03922 0.57108 0.67264 0.0
C1898 C 0.00759 0.55821 0.60205 0.0
C1899 C 0.00611 0.58586 0.58374 0.0
H1900 H 0.02388 0.52958 0.65817 0.0
H1901 H 0.99567 0.54202 0.58333 0.0
S1902 S 0.0457 0.64555 0.63734 0.0
N1903 N 0.05364 0.61941 0.67547 0.0
N1904 N 0.02405 0.63274 0.59426 0.0
C1905 C 0.02226 0.60587 0.60981 0.0
C1906 C 0.03851 0.59857 0.654 0.0
C1907 C 0.19626 0.2801 0.38681 0.0
C1908 C 0.17563 0.29187 0.4186 0.0
C1909 C 0.18922 0.26339 0.34368 0.0
C1910 C 0.16126 0.25778 0.33035 0.0
H1911 H 0.21794 0.28301 0.39624 0.0
H1912 H 0.20587 0.2542 0.3214 0.0
S1913 S 0.09953 0.28714 0.39666 0.0
N1914 N 0.12606 0.29872 0.43049 0.0
N1915 N 0.1131 0.26825 0.34998 0.0
C1916 C 0.14062 0.27058 0.36059 0.0
C1917 C 0.14772 0.28733 0.40435 0.0
C1918 C 0.45127 0.39426 0.16343 0.0
C1919 C 0.44187 0.42142 0.17458 0.0
C1920 C 0.46772 0.38827 0.11997 0.0
C1921 C 0.4759 0.40912 0.08516 0.0
H1922 H 0.44597 0.37729 0.18884 0.0
H1923 H 0.47405 0.36693 0.11367 0.0
S1924 S 0.45832 0.48418 0.09854 0.0
N1925 N 0.4427 0.46959 0.14803 0.0
N1926 N 0.47349 0.45863 0.06656 0.0
C1927 C 0.46638 0.43645 0.09571 0.0
C1928 C 0.44948 0.44251 0.14017 0.0
C1929 C 0.30312 0.72941 0.84049 0.0
C1930 C 0.33089 0.73695 0.82933 0.0
C1931 C 0.29614 0.71343 0.88436 0.0
C1932 C 0.31661 0.70435 0.91912 0.0
H1933 H 0.28653 0.73635 0.81565 0.0
H1934 H 0.2745 0.7088 0.89171 0.0
S1935 S 0.3927 0.71532 0.90435 0.0
N1936 N 0.37904 0.73143 0.85461 0.0
N1937 N 0.3662 0.70255 0.93668 0.0
C1938 C 0.34448 0.71109 0.90741 0.0
C1939 C 0.35152 0.72703 0.86283 0.0
C1940 C 0.01599 0.41665 0.34402 0.0
C1941 C 0.04239 0.42941 0.34655 0.0
C1942 C 0.00074 0.40977 0.38839 0.0
C1943 C 0.01089 0.41526 0.43809 0.0
H1944 H 0.00691 0.41168 0.30709 0.0
H1945 H 0.98061 0.40009 0.38355 0.0
S1946 S 0.07946 0.4472 0.46709 0.0
N1947 N 0.07826 0.44669 0.40369 0.0
N1948 N 0.04978 0.43379 0.48699 0.0
C1949 C 0.0372 0.42827 0.44145 0.0
C1950 C 0.05281 0.43533 0.39593 0.0
C1951 C 0.32285 0.26405 0.09927 0.0
C1952 C 0.30947 0.2902 0.10188 0.0
C1953 C 0.33021 0.24907 0.14351 0.0
C1954 C 0.32447 0.25918 0.19315 0.0
H1955 H 0.32816 0.25499 1.06242 0.0
H1956 H 0.34053 0.22922 0.13864 0.0
S1957 S 0.28953 0.32636 0.22257 0.0
N1958 N 0.2905 0.32536 0.15917 0.0
N1959 N 0.30413 0.2972 0.24231 0.0
C1960 C 0.31046 0.28499 0.19669 0.0
C1961 C 0.30302 0.30042 0.15127 0.0
C1962 C 0.48343 0.60684 0.89862 0.0
C1963 C 0.49375 0.5858 0.93113 0.0
C1964 C 0.46784 0.60052 0.8541 0.0
C1965 C 0.46174 0.57284 0.83998 0.0
H1966 H 0.48674 0.62849 0.90839 0.0
H1967 H 0.45975 0.61755 0.83152 0.0
S1968 S 0.4862 0.50982 0.90858 0.0
N1969 N 0.49851 0.53592 0.94292 0.0
N1970 N 0.469 0.52415 0.86081 0.0
C1971 C 0.47272 0.55161 0.8712 0.0
C1972 C 0.48866 0.55803 0.91625 0.0
C1973 C 0.19272 0.72876 0.67515 0.0
C1974 C 0.16494 0.73506 0.6888 0.0
C1975 C 0.19926 0.7122 0.63154 0.0
C1976 C 0.17829 0.70138 0.59949 0.0
H1977 H 0.20963 0.73716 0.69772 0.0
H1978 H 0.22085 0.70854 0.62211 0.0
S1979 S 0.10236 0.70815 0.62186 0.0
N1980 N 0.11648 0.72622 0.66902 0.0
N1981 N 0.12855 0.69622 0.58742 0.0
C1982 C 0.15052 0.70681 0.61372 0.0
C1983 C 0.14392 0.72328 0.65809 0.0
C1984 C 0.47645 0.90674 0.34129 0.0
C1985 C 0.45118 0.92158 0.34377 0.0
C1986 C 0.49156 0.8997 0.38566 0.0
C1987 C 0.48219 0.90686 0.43528 0.0
H1988 H 0.48481 0.90041 0.30446 0.0
H1989 H 0.51098 0.88866 0.38083 0.0
S1990 S 0.41646 0.9446 0.46388 0.0
N1991 N 0.41719 0.94277 0.40056 0.0
N1992 N 0.44507 0.92912 0.48391 0.0
C1993 C 0.45687 0.92174 0.43848 0.0
C1994 C 0.44156 0.92915 0.39296 0.0
C1995 C 0.29074 0.21052 0.6275 0.0
C1996 C 0.31177 0.2006 0.59451 0.0
C1997 C 0.29719 0.22622 0.67218 0.0
C1998 C 0.32494 0.23252 0.68593 0.0
H1999 H 0.26919 0.20639 0.61853 0.0
H2000 H 0.28028 0.23368 0.69588 0.0
S2001 S 0.38773 0.2077 0.61683 0.0
N2002 N 0.36163 0.19629 0.58172 0.0
N2003 N 0.37344 0.22476 0.6651 0.0
C2004 C 0.34602 0.22189 0.65399 0.0
C2005 C 0.33954 0.20631 0.60857 0.0
C2006 C 0.01873 0.05478 0.93133 0.0
C2007 C 0.00835 0.08196 0.9396 0.0
C2008 C 0.03492 0.04794 0.88761 0.0
C2009 C 0.04152 0.06799 0.85012 0.0
H2010 H 0.01397 0.03848 0.95847 0.0
H2011 H 0.04185 0.02667 0.88272 0.0
S2012 S 0.02248 0.14299 0.85668 0.0
N2013 N 0.00838 0.12947 0.90861 0.0
N2014 N 0.03775 0.11686 0.82678 0.0
C2015 C 0.03187 0.0954 0.85884 0.0
C2016 C 0.01564 0.1023 0.9033 0.0
C2017 C 0.19978 0.78769 0.1316 0.0
C2018 C 0.17858 0.79775 0.09928 0.0
C2019 C 0.19365 0.77119 0.1753 0.0
C2020 C 0.16604 0.76416 0.18885 0.0
H2021 H 0.22127 0.79196 0.12238 0.0
H2022 H 0.21076 0.76343 0.19805 0.0
S2023 S 0.10282 0.78908 0.12165 0.0
N2024 N 0.1287 0.80149 0.08717 0.0
N2025 N 0.1174 0.77163 0.1689 0.0
C2026 C 0.14476 0.77521 0.15798 0.0
C2027 C 0.15095 0.79162 0.1135 0.0
C2028 C 0.46547 0.05902 0.58012 0.0
C2029 C 0.48868 0.07699 0.58274 0.0
C2030 C 0.45056 0.0511 0.62461 0.0
C2031 C 0.45794 0.06111 0.67365 0.0
H2032 H 0.45834 0.05147 0.54322 0.0
H2033 H 0.43267 0.03771 0.62025 0.0
S2034 S 0.51999 0.10442 0.70284 0.0
N2035 N 0.52036 0.10126 0.63975 0.0
N2036 N 0.49237 0.08719 0.72236 0.0
C2037 C 0.48198 0.07787 0.67693 0.0
C2038 C 0.49722 0.08567 0.6319 0.0
C2039 C 0.18797 0.22607 0.84694 0.0
C2040 C 0.16023 0.23126 0.83173 0.0
C2041 C 0.1944 0.20992 0.89083 0.0
C2042 C 0.17341 0.19841 0.92197 0.0
H2043 H 0.20494 0.23502 0.82536 0.0
H2044 H 0.21594 0.20706 0.90112 0.0
S2045 S 0.09769 0.20195 0.89529 0.0
N2046 N 0.11186 0.22042 0.84888 0.0
N2047 N 0.12374 0.19125 0.93123 0.0
C2048 C 0.1457 0.2026 0.90612 0.0
C2049 C 0.13919 0.21868 0.86131 0.0
C2050 C 0.02821 0.90019 0.15918 0.0
C2051 C 0.03389 0.928 0.17313 0.0
C2052 C 0.01232 0.8934 0.11541 0.0
C2053 C 0.00105 0.91404 0.0832 0.0
H2054 H 0.03638 0.8833 0.18203 0.0
H2055 H 0.0092 0.87164 0.10638 0.0
S2056 S 0.00784 0.99028 0.10454 0.0
N2057 N 0.02593 0.97643 0.15181 0.0
N2058 N 0.99563 0.96387 0.07076 0.0
C2059 C 0.00623 0.94202 0.09715 0.0
C2060 C 0.02268 0.94892 0.1416 0.0
C2061 C 0.30904 0.80246 0.37294 0.0
C2062 C 0.31163 0.79103 0.42248 0.0
C2063 C 0.31632 0.78698 0.32841 0.0
C2064 C 0.32649 0.7594 0.33145 0.0
H2065 H 0.3024 0.82385 0.36862 0.0
H2066 H 0.31475 0.79701 0.29137 0.0
S2067 S 0.33276 0.71847 0.45152 0.0
N2068 N 0.32234 0.74942 0.47115 0.0
N2069 N 0.33541 0.72059 0.38846 0.0
C2070 C 0.32774 0.74743 0.38068 0.0
C2071 C 0.32048 0.76312 0.42574 0.0
C2072 C 0.50153 0.08222 0.12706 0.0
C2073 C 0.51291 0.07849 0.07762 0.0
C2074 C 0.51622 0.07484 0.17176 0.0
C2075 C 0.54306 0.06312 0.16964 0.0
H2076 H 0.4809 0.09085 0.13143 0.0
H2077 H 0.50635 0.07846 0.20858 0.0
S2078 S 0.58333 0.05009 1.05048 0.0
N2079 N 0.55358 0.06299 1.0298 0.0
N2080 N 0.58076 0.04877 0.11368 0.0
C2081 C 0.55474 0.05899 0.12063 0.0
C2082 C 0.53983 0.06673 0.07485 0.0
C2083 C 0.66939 0.74664 0.87514 0.0
C2084 C 0.66967 0.75788 0.82523 0.0
C2085 C 0.67693 0.7626 0.91844 0.0
C2086 C 0.68542 0.79058 0.91416 0.0
H2087 H 0.66335 0.72519 0.88091 0.0
H2088 H 0.67597 0.7529 0.95588 0.0
S2089 S 0.68805 0.83091 0.79331 0.0
N2090 N 0.67796 0.79962 0.77488 0.0
N2091 N 0.69269 0.82914 0.85604 0.0
C2092 C 0.68603 0.80213 0.86467 0.0
C2093 C 0.67804 0.78596 0.82043 0.0
C2094 C 0.99028 0.90466 0.62767 0.0
C2095 C 0.98167 0.91243 0.57806 0.0
C2096 C 0.975 0.91205 0.67187 0.0
C2097 C 0.95018 0.92765 0.66916 0.0
H2098 H 0.00923 0.89285 0.63258 0.0
H2099 H 0.98286 0.90534 0.70875 0.0
S2100 S 0.91745 0.95236 0.54871 0.0
N2101 N 0.94585 0.93622 0.52906 0.0
N2102 N 0.9174 0.95009 0.61198 0.0
C2103 C 0.94129 0.93574 0.61991 0.0
C2104 C 0.95689 0.92817 0.57462 0.0
C2105 C 0.80291 0.21823 0.33421 0.0
C2106 C 0.82317 0.23951 0.33454 0.0
C2107 C 0.79669 0.20255 0.37882 0.0
C2108 C 0.81034 0.20756 0.4259 0.0
H2109 H 0.79222 0.21321 0.29882 0.0
H2110 H 0.78153 0.18601 0.37604 0.0
S2111 S 0.86226 0.26365 0.44889 0.0
N2112 N 0.85486 0.26627 0.38728 0.0
N2113 N 0.84331 0.23761 0.47036 0.0
C2114 C 0.82978 0.22965 0.42694 0.0
C2115 C 0.83615 0.24534 0.38165 0.0
C2116 C 0.52075 0.90325 0.83991 0.0
C2117 C 0.54211 0.92338 0.84093 0.0
C2118 C 0.50531 0.89632 0.88402 0.0
C2119 C 0.51033 0.90897 0.93204 0.0
H2120 H 0.51566 0.89264 0.80441 0.0
H2121 H 0.489 0.88099 0.88011 0.0
S2122 S 0.56388 0.96322 0.95646 0.0
N2123 N 0.5671 0.95629 0.89459 0.0
N2124 N 0.53884 0.94281 0.97758 0.0
C2125 C 0.53155 0.92934 0.9337 0.0
C2126 C 0.54717 0.93661 0.88839 0.0
C2127 C 0.80138 0.78543 0.61901 0.0
C2128 C 0.82245 0.79444 0.58541 0.0
C2129 C 0.80773 0.77063 0.6643 0.0
C2130 C 0.8354 0.76428 0.6779 0.0
H2131 H 0.77982 0.78943 0.60991 0.0
H2132 H 0.7908 0.76382 0.68857 0.0
S2133 S 0.89837 0.7856 0.60607 0.0
N2134 N 0.87234 0.79715 0.57102 0.0
N2135 N 0.88397 0.77012 0.65582 0.0
C2136 C 0.85659 0.77376 0.64526 0.0
C2137 C 0.8502 0.78861 0.59924 0.0
C2138 C 0.9821 0.09424 0.39368 0.0
C2139 C 0.97977 0.07848 0.4389 0.0
C2140 C 0.96643 0.08807 0.3495 0.0
C2141 C 0.94728 0.06578 0.34768 0.0
H2142 H -0.00351 0.11151 0.39206 0.0
H2143 H 0.96952 0.10119 0.31629 0.0
S2144 S 0.93273 0.01788 0.45599 0.0
N2145 N 0.95629 0.03944 0.47924 0.0
N2146 N 0.92708 0.02775 0.39621 0.0
C2147 C 0.94473 0.04966 0.3926 0.0
C2148 C 0.96085 0.05597 0.43792 0.0
C2149 C 0.68918 0.20268 0.13766 0.0
C2150 C 0.66945 0.19687 0.09907 0.0
C2151 C 0.68253 0.21936 0.18108 0.0
C2152 C 0.6558 0.23107 0.18821 0.0
H2153 H 0.71013 0.19479 0.13385 0.0
H2154 H 0.69872 0.22352 0.20886 0.0
S2155 S 0.59576 0.22033 0.10098 0.0
N2156 N 0.62139 0.20337 0.07289 0.0
N2157 N 0.60905 0.23363 0.15394 0.0
C2158 C 0.63578 0.22476 0.15053 0.0
C2159 C 0.64252 0.20801 0.10638 0.0
C2160 C 0.07607 0.50646 0.98661 0.0
C2161 C 0.10065 0.51218 0.95869 0.0
C2162 C 0.07595 0.49048 1.03253 0.0
C2163 C 0.1005 0.47973 1.05486 0.0
H2164 H 0.05637 0.51404 0.97237 0.0
H2165 H 0.05618 0.48684 1.05116 0.0
S2166 S 0.17099 0.4889 0.99891 0.0
N2167 N 0.15059 0.50526 0.9579 0.0
N2168 N 0.15051 0.47662 1.04449 0.0
C2169 C 0.12538 0.48561 1.0279 0.0
C2170 C 0.12541 0.50132 0.98011 0.0
C2171 C 0.73156 0.87353 0.23848 0.0
C2172 C 0.73673 0.85388 0.19907 0.0
C2173 C 0.74696 0.8737 0.28534 0.0
C2174 C 0.76868 0.85449 0.29507 0.0
H2175 H 0.71493 0.88845 0.23373 0.0
H2176 H 0.74142 0.88879 0.31454 0.0
S2177 S 0.79196 0.80014 0.20208 0.0
N2178 N 0.76595 0.81553 0.17244 0.0
N2179 N 0.79506 0.81614 0.25796 0.0
C2180 C 0.77446 0.83535 0.25486 0.0
C2181 C 0.75852 0.83496 0.20786 0.0
C2182 C 0.37573 0.51498 0.52862 0.0
C2183 C 0.38426 0.50264 0.57549 0.0
C2184 C 0.37536 0.50015 0.48064 0.0
C2185 C 0.3843 0.47206 0.4754 0.0
H2186 H 0.36927 0.53654 0.52882 0.0
H2187 H 0.3686 0.51127 0.44681 0.0
S2188 S 0.41135 0.43031 0.58485 0.0
N2189 N 0.40307 0.4603 0.61191 0.0
N2190 N 0.4034 0.4333 0.52343 0.0
C2191 C 0.39335 0.45966 0.52196 0.0
C2192 C 0.39308 0.47457 0.57099 0.0
C2193 C 0.75434 0.16507 0.73874 0.0
C2194 C 0.76148 0.14033 0.71222 0.0
C2195 C 0.7393 0.16502 0.78564 0.0
C2196 C 0.73107 0.1402 0.8103 0.0
H2197 H 0.76006 0.18499 0.7226 0.0
H2198 H 0.73438 0.18488 0.80317 0.0
S2199 S 0.7445 0.06928 0.75844 0.0
N2200 N 0.75848 0.08996 0.71494 0.0
N2201 N 0.73156 0.0898 0.80358 0.0
C2202 C 0.73832 0.11518 0.78471 0.0
C2203 C 0.75303 0.11526 0.73586 0.0
C2204 C 0.87964 0.47368 0.50828 0.0
C2205 C 0.88867 0.48554 0.55521 0.0
C2206 C 0.87975 0.48887 0.46116 0.0
C2207 C 0.88967 0.51658 0.45781 0.0
H2208 H 0.87249 0.45235 0.50784 0.0
H2209 H 0.87279 0.47841 0.42663 0.0
S2210 S 0.91638 0.55725 0.56916 0.0
N2211 N 0.90774 0.52706 0.5946 0.0
N2212 N 0.90901 0.55483 0.50737 0.0
C2213 C 0.8989 0.52851 0.5046 0.0
C2214 C 0.89814 0.51329 0.5526 0.0
C2215 C 0.23894 0.16301 0.23467 0.0
C2216 C 0.22892 0.13842 0.21125 0.0
C2217 C 0.25458 0.16276 0.28087 0.0
C2218 C 0.26067 0.13798 0.30788 0.0
H2219 H 0.23502 0.18289 0.21665 0.0
H2220 H 0.26167 0.18253 0.29596 0.0
S2221 S 0.23853 0.06754 0.26499 0.0
N2222 N 0.22634 0.08824 0.21974 0.0
N2223 N 0.25446 0.08785 0.307 0.0
C2224 C 0.2504 0.11316 0.28543 0.0
C2225 C 0.235 0.11336 0.23734 0.0
C2226 C 0.62118 0.48425 0.99268 0.0
C2227 C 0.59613 0.4752 0.96939 0.0
C2228 C 0.62152 0.49969 1.03978 0.0
C2229 C 0.59678 0.50762 0.06544 0.0
H2230 H 0.64079 0.47919 0.9746 0.0
H2231 H 0.64134 0.50587 1.05566 0.0
S2232 S 0.5257 0.48937 1.02168 0.0
N2233 N 0.54594 0.47541 0.97754 0.0
N2234 N 0.54656 0.50454 1.06327 0.0
C2235 C 0.57175 0.49877 1.04232 0.0
C2236 C 0.57142 0.48265 0.99538 0.0
C2237 C 0.24115 0.87854 0.78417 0.0
C2238 C 0.23306 0.85381 0.80961 0.0
C2239 C 0.25611 0.87815 0.73659 0.0
C2240 C 0.26457 0.85303 0.71249 0.0
H2241 H 0.23547 0.89844 0.80067 0.0
H2242 H 0.26135 0.89779 0.71884 0.0
S2243 S 0.24937 0.78231 0.76299 0.0
N2244 N 0.23516 0.80335 0.80569 0.0
N2245 N 0.26334 0.80268 0.71921 0.0
C2246 C 0.2569 0.82827 0.73807 0.0
C2247 C 0.24125 0.82865 0.7855 0.0
C2248 C 0.62168 -0.00016 0.54401 0.0
C2249 C 0.60288 0.97746 0.55118 0.0
C2250 C 0.62209 0.01608 0.49818 0.0
C2251 C 0.6035 0.01105 0.45719 0.0
H2252 H 0.63596 0.00527 0.57451 0.0
H2253 H 0.63664 0.03315 0.49543 0.0
S2254 S 0.55173 0.95402 0.45298 0.0
N2255 N 0.56642 0.95051 0.50986 0.0
N2256 N 0.56685 0.98106 0.42608 0.0
C2257 C 0.58511 0.98853 0.46334 0.0
C2258 C 0.58489 0.97182 0.5094 0.0
C2259 C 0.2392 0.372 0.73625 0.0
C2260 C 0.23052 0.34704 0.71181 0.0
C2261 C 0.25376 0.37216 0.78431 0.0
C2262 C 0.26128 0.34733 0.81016 0.0
H2263 H 0.23439 0.39172 0.71845 0.0
H2264 H 0.25951 0.39198 0.80095 0.0
S2265 S 0.24426 0.27613 0.76299 0.0
N2266 N 0.23101 0.29669 0.71876 0.0
N2267 N 0.25846 0.29694 0.80605 0.0
C2268 C 0.25295 0.32232 0.78568 0.0
C2269 C 0.23768 0.32219 0.73771 0.0
C2270 C 0.86612 0.00165 1.03397 0.0
C2271 C 0.89064 0.01366 1.05457 0.0
C2272 C 0.86593 0.98665 0.98632 0.0
C2273 C 0.8904 0.98203 0.95723 0.0
H2274 H 0.84676 0.00399 1.05467 0.0
H2275 H 0.84648 0.9781 0.97276 0.0
S2276 S 0.96015 0.0092 0.9922 0.0
N2277 N 0.94005 0.02005 1.03954 0.0
N2278 N 0.93976 0.99161 0.95299 0.0
C2279 C 0.91494 0.99387 0.97747 0.0
C2280 C 0.91504 0.00963 1.02498 0.0
C2281 C 0.24157 0.61887 0.28371 0.0
C2282 C 0.23344 0.64361 0.30952 0.0
C2283 C 0.25519 0.61925 0.23471 0.0
C2284 C 0.2622 0.6444 0.20946 0.0
H2285 H 0.23696 0.59898 0.30105 0.0
H2286 H 0.26066 0.59963 0.21688 0.0
S2287 S 0.24603 0.71509 0.25998 0.0
N2288 N 0.23377 0.69406 0.30442 0.0
N2289 N 0.25942 0.69471 0.21529 0.0
C2290 C 0.2544 0.66913 0.23528 0.0
C2291 C 0.24012 0.66875 0.28415 0.0
C2292 C 0.36899 0.98374 1.02782 0.0
C2293 C 0.39361 0.97777 1.05551 0.0
C2294 C 0.36929 -0.00116 0.98047 0.0
C2295 C 0.39413 0.00956 0.95897 0.0
H2296 H 0.34931 0.97625 1.04232 0.0
H2297 H 0.34981 0.00238 0.96088 0.0
S2298 S 0.46426 0.00091 1.01704 0.0
N2299 N 0.44348 0.98459 1.05723 0.0
N2300 N 0.44406 0.01293 0.97108 0.0
C2301 C 0.41872 0.00404 0.98701 0.0
C2302 C 0.41845 0.98827 1.03419 0.0
C2303 C 0.78729 0.6344 0.75126 0.0
C2304 C 0.77491 0.64148 0.7991 0.0
C2305 C 0.77234 0.63542 0.70352 0.0
C2306 C 0.7443 0.64447 0.70028 0.0
H2307 H 0.80875 0.62772 0.75063 0.0
H2308 H 0.78315 0.62964 0.66862 0.0
S2309 S 0.70229 0.66701 0.81329 0.0
N2310 N 0.73249 0.65845 0.83861 0.0
N2311 N 0.70539 0.66131 0.75102 0.0
C2312 C 0.73197 0.65199 0.74786 0.0
C2313 C 0.74687 0.65027 0.79624 0.0
C2314 C 0.10739 0.96764 0.50539 0.0
C2315 C 0.10199 0.98163 0.45881 0.0
C2316 C 0.10829 0.98181 0.55358 0.0
C2317 C 0.10308 0.01075 0.55845 0.0
H2318 H 0.11085 0.94539 0.5047 0.0
H2319 H 0.11236 0.96964 0.58765 0.0
S2320 S 0.08589 0.05691 0.44839 0.0
N2321 N 0.0906 0.02619 0.42124 0.0
N2322 N 0.09133 0.05242 0.51041 0.0
C2323 C 0.09739 0.02486 0.51189 0.0
C2324 C 0.09707 0.0105 0.4628 0.0
C2325 C 0.75388 0.36498 0.29886 0.0
C2326 C 0.72744 0.35237 0.30549 0.0
C2327 C 0.768 0.36555 0.25032 0.0
C2328 C 0.75631 0.35413 0.20491 0.0
H2329 H 0.76417 0.37404 0.33183 0.0
H2330 H 0.78824 0.37525 0.24838 0.0
S2331 S 0.68803 0.31799 0.19996 0.0
N2332 N 0.69083 0.3275 0.26069 0.0
N2333 N 0.71644 0.32919 0.17134 0.0
C2334 C 0.72988 0.34163 0.21109 0.0
C2335 C 0.71581 0.34059 0.26042 0.0
loop_
_geom_bond_atom_site_label_1
_geom_bond_atom_site_label_2
_geom_bond_distance
_geom_bond_site_symmetry_2
_ccdc_geom_bond_type
Eu0 C9 2.828 . S
Eu0 O11 2.392 . S
Eu0 O13 2.418 . S
Eu0 O18 2.373 . S
Eu0 O21 2.488 . S
Eu0 O22 2.471 . S
Eu0 O23 2.349 . S
Eu1 O10 2.373 . S
Eu1 O14 2.488 . S
Eu1 O15 2.471 . S
Eu1 O16 2.349 . S
Eu1 O19 2.392 . S
Eu1 O20 2.418 . S
Eu1 C30 2.828 . S
C2 O20 1.244 . S
C2 O23 1.265 . S
C3 C4 1.379 . S
C3 C7 1.373 . S
C3 C9 1.505 1_556 S
C4 C3 1.379 . S
C4 C6 1.369 . S
C4 H32 0.930 . S
C5 C7 1.383 . S
C5 C8 1.382 . S
C5 H33 0.930 . S
C6 C4 1.369 . S
C6 C8 1.392 . S
C6 H34 0.930 . S
C7 C3 1.373 . S
C7 C5 1.383 . S
C7 H35 0.931 . S
C8 C5 1.382 . S
C8 C6 1.392 . S
C9 Eu0 2.828 . S
C9 C3 1.505 1_554 S
C9 O21 1.249 . S
C9 O22 1.244 . S
O10 Eu1 2.373 . S
O10 C12 1.258 . S
O11 Eu0 2.392 . S
O11 C12 1.242 . S
C12 O10 1.258 . S
C12 O11 1.242 . S
O13 Eu0 2.418 . S
O13 C17 1.244 . S
O14 Eu1 2.488 . S
O14 C30 1.249 . S
O15 Eu1 2.471 . S
O15 C30 1.244 . S
O16 Eu1 2.349 . S
O16 C17 1.265 . S
C17 O13 1.244 . S
C17 O16 1.265 . S
O18 Eu0 2.373 . S
O18 C31 1.258 . S
O19 Eu1 2.392 . S
O19 C31 1.242 . S
O20 Eu1 2.418 . S
O20 C2 1.244 . S
O21 Eu0 2.488 . S
O21 C9 1.249 . S
O22 Eu0 2.471 . S
O22 C9 1.244 . S
O23 Eu0 2.349 . S
O23 C2 1.265 . S
C24 C25 1.379 . S
C24 C28 1.373 . S
C24 C30 1.505 . S
C25 C24 1.379 . S
C25 C27 1.369 . S
C25 H36 0.930 . S
C26 C28 1.383 . S
C26 C29 1.382 . S
C26 H37 0.930 . S
C27 C25 1.369 . S
C27 C29 1.392 . S
C27 H38 0.930 . S
C28 C24 1.373 . S
C28 C26 1.383 . S
C28 H39 0.931 . S
C29 C26 1.382 . S
C29 C27 1.392 . S
C30 Eu1 2.828 . S
C30 O14 1.249 . S
C30 O15 1.244 . S
C30 C24 1.505 . S
C31 O18 1.258 . S
C31 O19 1.242 . S
H32 C4 0.930 . S
H33 C5 0.930 . S
H34 C6 0.930 . S
H35 C7 0.931 . S
H36 C25 0.930 . S
H37 C26 0.930 . S
H38 C27 0.930 . S
H39 C28 0.931 . S
Eu40 C49 2.828 . S
Eu40 O51 2.392 . S
Eu40 O53 2.418 . S
Eu40 O58 2.373 . S
Eu40 O61 2.488 . S
Eu40 O62 2.471 . S
Eu40 O63 2.349 . S
Eu41 O50 2.373 . S
Eu41 O54 2.488 . S
Eu41 O55 2.471 . S
Eu41 O56 2.349 . S
Eu41 O59 2.392 . S
Eu41 O60 2.418 . S
Eu41 C70 2.828 . S
C42 O60 1.244 . S
C42 O63 1.265 . S
C43 C44 1.379 . S
C43 C47 1.373 . S
C43 C49 1.505 . S
C44 C43 1.379 . S
C44 C46 1.369 . S
C44 H72 0.930 . S
C45 C47 1.383 . S
C45 C48 1.382 . S
C45 H73 0.930 . S
C46 C44 1.369 . S
C46 C48 1.392 . S
C46 H74 0.930 . S
C47 C43 1.373 . S
C47 C45 1.383 . S
C47 H75 0.931 . S
C48 C45 1.382 . S
C48 C46 1.392 . S
C49 Eu40 2.828 . S
C49 C43 1.505 . S
C49 O61 1.249 . S
C49 O62 1.244 . S
O50 Eu41 2.373 . S
O50 C52 1.258 . S
O51 Eu40 2.392 . S
O51 C52 1.242 . S
C52 O50 1.258 . S
C52 O51 1.242 . S
O53 Eu40 2.418 . S
O53 C57 1.244 . S
O54 Eu41 2.488 . S
O54 C70 1.249 . S
O55 Eu41 2.471 . S
O55 C70 1.244 . S
O56 Eu41 2.349 . S
O56 C57 1.265 . S
C57 O53 1.244 . S
C57 O56 1.265 . S
O58 Eu40 2.373 . S
O58 C71 1.258 . S
O59 Eu41 2.392 . S
O59 C71 1.242 . S
O60 Eu41 2.418 . S
O60 C42 1.244 . S
O61 Eu40 2.488 . S
O61 C49 1.249 . S
O62 Eu40 2.471 . S
O62 C49 1.244 . S
O63 Eu40 2.349 . S
O63 C42 1.265 . S
C64 C65 1.379 . S
C64 C68 1.373 . S
C64 C70 1.505 . S
C65 C64 1.379 . S
C65 C67 1.369 . S
C65 H76 0.930 . S
C66 C68 1.383 . S
C66 C69 1.382 . S
C66 H77 0.930 . S
C67 C65 1.369 . S
C67 C69 1.392 . S
C67 H78 0.930 . S
C68 C64 1.373 . S
C68 C66 1.383 . S
C68 H79 0.931 . S
C69 C66 1.382 . S
C69 C67 1.392 . S
C70 Eu41 2.828 . S
C70 O54 1.249 . S
C70 O55 1.244 . S
C70 C64 1.505 . S
C71 O58 1.258 . S
C71 O59 1.242 . S
H72 C44 0.930 . S
H73 C45 0.930 . S
H74 C46 0.930 . S
H75 C47 0.931 . S
H76 C65 0.930 . S
H77 C66 0.930 . S
H78 C67 0.930 . S
H79 C68 0.931 . S
Eu80 C89 2.828 . S
Eu80 O91 2.392 . S
Eu80 O93 2.418 . S
Eu80 O98 2.373 . S
Eu80 O101 2.488 . S
Eu80 O102 2.471 . S
Eu80 O103 2.349 . S
Eu81 O90 2.373 . S
Eu81 O94 2.488 . S
Eu81 O95 2.471 . S
Eu81 O96 2.349 . S
Eu81 O99 2.392 . S
Eu81 O100 2.418 . S
Eu81 C110 2.828 . S
C82 O100 1.244 . S
C82 O103 1.265 . S
C83 C84 1.379 . S
C83 C87 1.373 . S
C83 C89 1.505 . S
C84 C83 1.379 . S
C84 C86 1.369 . S
C84 H112 0.930 . S
C85 C87 1.383 . S
C85 C88 1.382 . S
C85 H113 0.930 . S
C86 C84 1.369 . S
C86 C88 1.392 . S
C86 H114 0.930 . S
C87 C83 1.373 . S
C87 C85 1.383 . S
C87 H115 0.931 . S
C88 C85 1.382 . S
C88 C86 1.392 . S
C89 Eu80 2.828 . S
C89 C83 1.505 . S
C89 O101 1.249 . S
C89 O102 1.244 . S
O90 Eu81 2.373 . S
O90 C92 1.258 . S
O91 Eu80 2.392 . S
O91 C92 1.242 . S
C92 O90 1.258 . S
C92 O91 1.242 . S
O93 Eu80 2.418 . S
O93 C97 1.244 . S
O94 Eu81 2.488 . S
O94 C110 1.249 . S
O95 Eu81 2.471 . S
O95 C110 1.244 . S
O96 Eu81 2.349 . S
O96 C97 1.265 . S
C97 O93 1.244 . S
C97 O96 1.265 . S
O98 Eu80 2.373 . S
O98 C111 1.258 . S
O99 Eu81 2.392 . S
O99 C111 1.242 . S
O100 Eu81 2.418 . S
O100 C82 1.244 . S
O101 Eu80 2.488 . S
O101 C89 1.249 . S
O102 Eu80 2.471 . S
O102 C89 1.244 . S
O103 Eu80 2.349 . S
O103 C82 1.265 . S
C104 C105 1.379 . S
C104 C108 1.373 . S
C104 C110 1.505 . S
C105 C104 1.379 . S
C105 C107 1.369 . S
C105 H116 0.930 . S
C106 C108 1.383 . S
C106 C109 1.382 . S
C106 H117 0.930 . S
C107 C105 1.369 . S
C107 C109 1.392 . S
C107 H118 0.930 . S
C108 C104 1.373 . S
C108 C106 1.383 . S
C108 H119 0.931 . S
C109 C106 1.382 . S
C109 C107 1.392 . S
C110 Eu81 2.828 . S
C110 O94 1.249 . S
C110 O95 1.244 . S
C110 C104 1.505 . S
C111 O98 1.258 . S
C111 O99 1.242 . S
H112 C84 0.930 . S
H113 C85 0.930 . S
H114 C86 0.930 . S
H115 C87 0.931 . S
H116 C105 0.930 . S
H117 C106 0.930 . S
H118 C107 0.930 . S
H119 C108 0.931 . S
Eu120 C129 2.828 . S
Eu120 O131 2.392 . S
Eu120 O133 2.418 . S
Eu120 O138 2.373 . S
Eu120 O141 2.488 . S
Eu120 O142 2.471 . S
Eu120 O143 2.349 . S
Eu121 O130 2.373 . S
Eu121 O134 2.488 1_556 S
Eu121 O135 2.471 1_556 S
Eu121 O136 2.349 . S
Eu121 O139 2.392 . S
Eu121 O140 2.418 . S
Eu121 C150 2.828 1_556 S
C122 O140 1.244 . S
C122 O143 1.265 . S
C123 C124 1.379 . S
C123 C127 1.373 . S
C123 C129 1.505 . S
C124 C123 1.379 . S
C124 C126 1.369 . S
C124 H152 0.930 . S
C125 C127 1.383 . S
C125 C128 1.382 . S
C125 H153 0.930 . S
C126 C124 1.369 . S
C126 C128 1.392 . S
C126 H154 0.930 . S
C127 C123 1.373 . S
C127 C125 1.383 . S
C127 H155 0.931 . S
C128 C125 1.382 . S
C128 C126 1.392 . S
C129 Eu120 2.828 . S
C129 C123 1.505 . S
C129 O141 1.249 . S
C129 O142 1.244 . S
O130 Eu121 2.373 . S
O130 C132 1.258 . S
O131 Eu120 2.392 . S
O131 C132 1.242 . S
C132 O130 1.258 . S
C132 O131 1.242 . S
O133 Eu120 2.418 . S
O133 C137 1.244 . S
O134 Eu121 2.488 1_554 S
O134 C150 1.249 . S
O135 Eu121 2.471 1_554 S
O135 C150 1.244 . S
O136 Eu121 2.349 . S
O136 C137 1.265 . S
C137 O133 1.244 . S
C137 O136 1.265 . S
O138 Eu120 2.373 . S
O138 C151 1.258 . S
O139 Eu121 2.392 . S
O139 C151 1.242 . S
O140 Eu121 2.418 . S
O140 C122 1.244 . S
O141 Eu120 2.488 . S
O141 C129 1.249 . S
O142 Eu120 2.471 . S
O142 C129 1.244 . S
O143 Eu120 2.349 . S
O143 C122 1.265 . S
C144 C145 1.379 . S
C144 C148 1.373 . S
C144 C150 1.505 . S
C145 C144 1.379 . S
C145 C147 1.369 . S
C145 H156 0.930 . S
C146 C148 1.383 . S
C146 C149 1.382 . S
C146 H157 0.930 . S
C147 C145 1.369 . S
C147 C149 1.392 . S
C147 H158 0.930 . S
C148 C144 1.373 . S
C148 C146 1.383 . S
C148 H159 0.931 . S
C149 C146 1.382 . S
C149 C147 1.392 . S
C150 Eu121 2.828 1_554 S
C150 O134 1.249 . S
C150 O135 1.244 . S
C150 C144 1.505 . S
C151 O138 1.258 . S
C151 O139 1.242 . S
H152 C124 0.930 . S
H153 C125 0.930 . S
H154 C126 0.930 . S
H155 C127 0.931 . S
H156 C145 0.930 . S
H157 C146 0.930 . S
H158 C147 0.930 . S
H159 C148 0.931 . S
Eu160 C169 2.828 . S
Eu160 O171 2.392 . S
Eu160 O173 2.418 . S
Eu160 O178 2.373 . S
Eu160 O181 2.488 . S
Eu160 O182 2.471 . S
Eu160 O183 2.349 . S
Eu161 O170 2.373 . S
Eu161 O174 2.488 . S
Eu161 O175 2.471 . S
Eu161 O176 2.349 . S
Eu161 O179 2.392 . S
Eu161 O180 2.418 . S
Eu161 C190 2.828 . S
C162 O180 1.244 . S
C162 O183 1.265 . S
C163 C164 1.379 . S
C163 C167 1.373 . S
C163 C169 1.505 . S
C164 C163 1.379 . S
C164 C166 1.369 . S
C164 H192 0.930 . S
C165 C167 1.383 . S
C165 C168 1.382 . S
C165 H193 0.930 . S
C166 C164 1.369 . S
C166 C168 1.392 . S
C166 H194 0.930 . S
C167 C163 1.373 . S
C167 C165 1.383 . S
C167 H195 0.931 . S
C168 C165 1.382 . S
C168 C166 1.392 . S
C169 Eu160 2.828 . S
C169 C163 1.505 . S
C169 O181 1.249 . S
C169 O182 1.244 . S
O170 Eu161 2.373 . S
O170 C172 1.258 . S
O171 Eu160 2.392 . S
O171 C172 1.242 . S
C172 O170 1.258 . S
C172 O171 1.242 . S
O173 Eu160 2.418 . S
O173 C177 1.244 . S
O174 Eu161 2.488 . S
O174 C190 1.249 . S
O175 Eu161 2.471 . S
O175 C190 1.244 . S
O176 Eu161 2.349 . S
O176 C177 1.265 . S
C177 O173 1.244 . S
C177 O176 1.265 . S
O178 Eu160 2.373 . S
O178 C191 1.258 . S
O179 Eu161 2.392 . S
O179 C191 1.242 . S
O180 Eu161 2.418 . S
O180 C162 1.244 . S
O181 Eu160 2.488 . S
O181 C169 1.249 . S
O182 Eu160 2.471 . S
O182 C169 1.244 . S
O183 Eu160 2.349 . S
O183 C162 1.265 . S
C184 C185 1.379 . S
C184 C188 1.373 . S
C184 C190 1.505 . S
C185 C184 1.379 . S
C185 C187 1.369 . S
C185 H196 0.930 . S
C186 C188 1.383 . S
C186 C189 1.382 . S
C186 H197 0.930 . S
C187 C185 1.369 . S
C187 C189 1.392 . S
C187 H198 0.930 . S
C188 C184 1.373 . S
C188 C186 1.383 . S
C188 H199 0.931 . S
C189 C186 1.382 . S
C189 C187 1.392 . S
C190 Eu161 2.828 . S
C190 O174 1.249 . S
C190 O175 1.244 . S
C190 C184 1.505 . S
C191 O178 1.258 . S
C191 O179 1.242 . S
H192 C164 0.930 . S
H193 C165 0.930 . S
H194 C166 0.930 . S
H195 C167 0.931 . S
H196 C185 0.930 . S
H197 C186 0.930 . S
H198 C187 0.930 . S
H199 C188 0.931 . S
Eu200 C209 2.828 . S
Eu200 O211 2.392 1_554 S
Eu200 O213 2.418 1_554 S
Eu200 O218 2.373 . S
Eu200 O221 2.488 . S
Eu200 O222 2.471 . S
Eu200 O223 2.349 . S
Eu201 O210 2.373 . S
Eu201 O214 2.488 . S
Eu201 O215 2.471 . S
Eu201 O216 2.349 . S
Eu201 O219 2.392 1_556 S
Eu201 O220 2.418 . S
Eu201 C230 2.828 . S
C202 O220 1.244 . S
C202 O223 1.265 1_556 S
C203 C204 1.379 . S
C203 C207 1.373 . S
C203 C209 1.505 . S
C204 C203 1.379 . S
C204 C206 1.369 . S
C204 H232 0.930 . S
C205 C207 1.383 . S
C205 C208 1.382 . S
C205 H233 0.930 . S
C206 C204 1.369 . S
C206 C208 1.392 . S
C206 H234 0.930 . S
C207 C203 1.373 . S
C207 C205 1.383 . S
C207 H235 0.931 . S
C208 C205 1.382 . S
C208 C206 1.392 . S
C209 Eu200 2.828 . S
C209 C203 1.505 . S
C209 O221 1.249 . S
C209 O222 1.244 . S
O210 Eu201 2.373 . S
O210 C212 1.258 . S
O211 Eu200 2.392 1_556 S
O211 C212 1.242 . S
C212 O210 1.258 . S
C212 O211 1.242 . S
O213 Eu200 2.418 1_556 S
O213 C217 1.244 . S
O214 Eu201 2.488 . S
O214 C230 1.249 . S
O215 Eu201 2.471 . S
O215 C230 1.244 . S
O216 Eu201 2.349 . S
O216 C217 1.265 . S
C217 O213 1.244 . S
C217 O216 1.265 . S
O218 Eu200 2.373 . S
O218 C231 1.258 . S
O219 Eu201 2.392 1_554 S
O219 C231 1.242 . S
O220 Eu201 2.418 . S
O220 C202 1.244 . S
O221 Eu200 2.488 . S
O221 C209 1.249 . S
O222 Eu200 2.471 . S
O222 C209 1.244 . S
O223 Eu200 2.349 . S
O223 C202 1.265 1_554 S
C224 C225 1.379 . S
C224 C228 1.373 . S
C224 C230 1.505 . S
C225 C224 1.379 . S
C225 C227 1.369 . S
C225 H236 0.930 . S
C226 C228 1.383 . S
C226 C229 1.382 . S
C226 H237 0.930 . S
C227 C225 1.369 . S
C227 C229 1.392 . S
C227 H238 0.930 . S
C228 C224 1.373 . S
C228 C226 1.383 . S
C228 H239 0.931 . S
C229 C226 1.382 . S
C229 C227 1.392 . S
C230 Eu201 2.828 . S
C230 O214 1.249 . S
C230 O215 1.244 . S
C230 C224 1.505 . S
C231 O218 1.258 . S
C231 O219 1.242 . S
H232 C204 0.930 . S
H233 C205 0.930 . S
H234 C206 0.930 . S
H235 C207 0.931 . S
H236 C225 0.930 . S
H237 C226 0.930 . S
H238 C227 0.930 . S
H239 C228 0.931 . S
Eu240 C249 2.828 . S
Eu240 O251 2.392 . S
Eu240 O253 2.418 . S
Eu240 O258 2.373 . S
Eu240 O261 2.488 . S
Eu240 O262 2.471 . S
Eu240 O263 2.349 . S
Eu241 O250 2.373 . S
Eu241 O254 2.488 . S
Eu241 O255 2.471 . S
Eu241 O256 2.349 . S
Eu241 O259 2.392 . S
Eu241 O260 2.418 . S
Eu241 C270 2.828 . S
C242 O260 1.244 . S
C242 O263 1.265 . S
C243 C244 1.379 . S
C243 C247 1.373 . S
C243 C249 1.505 . S
C244 C243 1.379 . S
C244 C246 1.369 . S
C244 H272 0.930 . S
C245 C247 1.383 . S
C245 C248 1.382 . S
C245 H273 0.930 . S
C246 C244 1.369 . S
C246 C248 1.392 . S
C246 H274 0.930 . S
C247 C243 1.373 . S
C247 C245 1.383 . S
C247 H275 0.931 . S
C248 C245 1.382 . S
C248 C246 1.392 . S
C249 Eu240 2.828 . S
C249 C243 1.505 . S
C249 O261 1.249 . S
C249 O262 1.244 . S
O250 Eu241 2.373 . S
O250 C252 1.258 . S
O251 Eu240 2.392 . S
O251 C252 1.242 . S
C252 O250 1.258 . S
C252 O251 1.242 . S
O253 Eu240 2.418 . S
O253 C257 1.244 . S
O254 Eu241 2.488 . S
O254 C270 1.249 . S
O255 Eu241 2.471 . S
O255 C270 1.244 . S
O256 Eu241 2.349 . S
O256 C257 1.265 . S
C257 O253 1.244 . S
C257 O256 1.265 . S
O258 Eu240 2.373 . S
O258 C271 1.258 . S
O259 Eu241 2.392 . S
O259 C271 1.242 . S
O260 Eu241 2.418 . S
O260 C242 1.244 . S
O261 Eu240 2.488 . S
O261 C249 1.249 . S
O262 Eu240 2.471 . S
O262 C249 1.244 . S
O263 Eu240 2.349 . S
O263 C242 1.265 . S
C264 C265 1.379 . S
C264 C268 1.373 . S
C264 C270 1.505 . S
C265 C264 1.379 . S
C265 C267 1.369 1_554 S
C265 H276 0.930 . S
C266 C268 1.383 1_556 S
C266 C269 1.382 . S
C266 H277 0.930 . S
C267 C265 1.369 1_556 S
C267 C269 1.392 . S
C267 H278 0.930 . S
C268 C264 1.373 . S
C268 C266 1.383 1_554 S
C268 H279 0.931 . S
C269 C266 1.382 . S
C269 C267 1.392 . S
C270 Eu241 2.828 . S
C270 O254 1.249 . S
C270 O255 1.244 . S
C270 C264 1.505 . S
C271 O258 1.258 . S
C271 O259 1.242 . S
H272 C244 0.930 . S
H273 C245 0.930 . S
H274 C246 0.930 . S
H275 C247 0.931 . S
H276 C265 0.930 . S
H277 C266 0.930 . S
H278 C267 0.930 . S
H279 C268 0.931 . S
Eu280 C289 2.828 . S
Eu280 O291 2.392 . S
Eu280 O293 2.418 . S
Eu280 O298 2.373 . S
Eu280 O301 2.488 . S
Eu280 O302 2.471 . S
Eu280 O303 2.349 . S
Eu281 O290 2.373 . S
Eu281 O294 2.488 . S
Eu281 O295 2.471 . S
Eu281 O296 2.349 . S
Eu281 O299 2.392 . S
Eu281 O300 2.418 . S
Eu281 C310 2.828 . S
C282 O300 1.244 . S
C282 O303 1.265 . S
C283 C284 1.379 . S
C283 C287 1.373 . S
C283 C289 1.505 . S
C284 C283 1.379 . S
C284 C286 1.369 . S
C284 H312 0.930 . S
C285 C287 1.383 . S
C285 C288 1.382 . S
C285 H313 0.930 . S
C286 C284 1.369 . S
C286 C288 1.392 . S
C286 H314 0.930 . S
C287 C283 1.373 . S
C287 C285 1.383 . S
C287 H315 0.931 . S
C288 C285 1.382 . S
C288 C286 1.392 . S
C289 Eu280 2.828 . S
C289 C283 1.505 . S
C289 O301 1.249 . S
C289 O302 1.244 . S
O290 Eu281 2.373 . S
O290 C292 1.258 . S
O291 Eu280 2.392 . S
O291 C292 1.242 . S
C292 O290 1.258 . S
C292 O291 1.242 . S
O293 Eu280 2.418 . S
O293 C297 1.244 . S
O294 Eu281 2.488 . S
O294 C310 1.249 . S
O295 Eu281 2.471 . S
O295 C310 1.244 . S
O296 Eu281 2.349 . S
O296 C297 1.265 . S
C297 O293 1.244 . S
C297 O296 1.265 . S
O298 Eu280 2.373 . S
O298 C311 1.258 . S
O299 Eu281 2.392 . S
O299 C311 1.242 . S
O300 Eu281 2.418 . S
O300 C282 1.244 . S
O301 Eu280 2.488 . S
O301 C289 1.249 . S
O302 Eu280 2.471 . S
O302 C289 1.244 . S
O303 Eu280 2.349 . S
O303 C282 1.265 . S
C304 C305 1.379 . S
C304 C308 1.373 . S
C304 C310 1.505 . S
C305 C304 1.379 . S
C305 C307 1.369 . S
C305 H316 0.930 . S
C306 C308 1.383 . S
C306 C309 1.382 . S
C306 H317 0.930 . S
C307 C305 1.369 . S
C307 C309 1.392 . S
C307 H318 0.930 . S
C308 C304 1.373 . S
C308 C306 1.383 . S
C308 H319 0.931 . S
C309 C306 1.382 . S
C309 C307 1.392 . S
C310 Eu281 2.828 . S
C310 O294 1.249 . S
C310 O295 1.244 . S
C310 C304 1.505 . S
C311 O298 1.258 . S
C311 O299 1.242 . S
H312 C284 0.930 . S
H313 C285 0.930 . S
H314 C286 0.930 . S
H315 C287 0.931 . S
H316 C305 0.930 . S
H317 C306 0.930 . S
H318 C307 0.930 . S
H319 C308 0.931 . S
Eu320 C329 2.828 . S
Eu320 O331 2.392 . S
Eu320 O333 2.418 . S
Eu320 O338 2.373 . S
Eu320 O341 2.488 . S
Eu320 O342 2.471 . S
Eu320 O343 2.349 . S
Eu321 O330 2.373 . S
Eu321 O334 2.488 . S
Eu321 O335 2.471 . S
Eu321 O336 2.349 . S
Eu321 O339 2.392 . S
Eu321 O340 2.418 . S
Eu321 C350 2.828 . S
C322 O340 1.244 . S
C322 O343 1.265 . S
C323 C324 1.379 . S
C323 C327 1.373 . S
C323 C329 1.505 . S
C324 C323 1.379 . S
C324 C326 1.369 1_554 S
C324 H352 0.930 . S
C325 C327 1.383 1_556 S
C325 C328 1.382 . S
C325 H353 0.930 . S
C326 C324 1.369 1_556 S
C326 C328 1.392 . S
C326 H354 0.930 . S
C327 C323 1.373 . S
C327 C325 1.383 1_554 S
C327 H355 0.931 . S
C328 C325 1.382 . S
C328 C326 1.392 . S
C329 Eu320 2.828 . S
C329 C323 1.505 . S
C329 O341 1.249 . S
C329 O342 1.244 . S
O330 Eu321 2.373 . S
O330 C332 1.258 . S
O331 Eu320 2.392 . S
O331 C332 1.242 . S
C332 O330 1.258 . S
C332 O331 1.242 . S
O333 Eu320 2.418 . S
O333 C337 1.244 . S
O334 Eu321 2.488 . S
O334 C350 1.249 . S
O335 Eu321 2.471 . S
O335 C350 1.244 . S
O336 Eu321 2.349 . S
O336 C337 1.265 . S
C337 O333 1.244 . S
C337 O336 1.265 . S
O338 Eu320 2.373 . S
O338 C351 1.258 . S
O339 Eu321 2.392 . S
O339 C351 1.242 . S
O340 Eu321 2.418 . S
O340 C322 1.244 . S
O341 Eu320 2.488 . S
O341 C329 1.249 . S
O342 Eu320 2.471 . S
O342 C329 1.244 . S
O343 Eu320 2.349 . S
O343 C322 1.265 . S
C344 C345 1.379 . S
C344 C348 1.373 . S
C344 C350 1.505 . S
C345 C344 1.379 . S
C345 C347 1.369 . S
C345 H356 0.930 . S
C346 C348 1.383 . S
C346 C349 1.382 . S
C346 H357 0.930 . S
C347 C345 1.369 . S
C347 C349 1.392 . S
C347 H358 0.930 . S
C348 C344 1.373 . S
C348 C346 1.383 . S
C348 H359 0.931 . S
C349 C346 1.382 . S
C349 C347 1.392 . S
C350 Eu321 2.828 . S
C350 O334 1.249 . S
C350 O335 1.244 . S
C350 C344 1.505 . S
C351 O338 1.258 . S
C351 O339 1.242 . S
H352 C324 0.930 . S
H353 C325 0.930 . S
H354 C326 0.930 . S
H355 C327 0.931 . S
H356 C345 0.930 . S
H357 C346 0.930 . S
H358 C347 0.930 . S
H359 C348 0.931 . S
Eu360 C369 2.828 . S
Eu360 O371 2.392 1_556 S
Eu360 O373 2.418 . S
Eu360 O378 2.373 . S
Eu360 O381 2.488 . S
Eu360 O382 2.471 . S
Eu360 O383 2.349 . S
Eu361 O370 2.373 . S
Eu361 O374 2.488 . S
Eu361 O375 2.471 . S
Eu361 O376 2.349 . S
Eu361 O379 2.392 1_554 S
Eu361 O380 2.418 1_554 S
Eu361 C390 2.828 . S
C362 O380 1.244 . S
C362 O383 1.265 . S
C363 C364 1.379 . S
C363 C367 1.373 . S
C363 C369 1.505 . S
C364 C363 1.379 . S
C364 C366 1.369 . S
C364 H392 0.930 . S
C365 C367 1.383 . S
C365 C368 1.382 . S
C365 H393 0.930 . S
C366 C364 1.369 . S
C366 C368 1.392 . S
C366 H394 0.930 . S
C367 C363 1.373 . S
C367 C365 1.383 . S
C367 H395 0.931 . S
C368 C365 1.382 . S
C368 C366 1.392 . S
C369 Eu360 2.828 . S
C369 C363 1.505 . S
C369 O381 1.249 . S
C369 O382 1.244 . S
O370 Eu361 2.373 . S
O370 C372 1.258 . S
O371 Eu360 2.392 1_554 S
O371 C372 1.242 . S
C372 O370 1.258 . S
C372 O371 1.242 . S
O373 Eu360 2.418 . S
O373 C377 1.244 . S
O374 Eu361 2.488 . S
O374 C390 1.249 . S
O375 Eu361 2.471 . S
O375 C390 1.244 . S
O376 Eu361 2.349 . S
O376 C377 1.265 1_554 S
C377 O373 1.244 . S
C377 O376 1.265 1_556 S
O378 Eu360 2.373 . S
O378 C391 1.258 . S
O379 Eu361 2.392 1_556 S
O379 C391 1.242 . S
O380 Eu361 2.418 1_556 S
O380 C362 1.244 . S
O381 Eu360 2.488 . S
O381 C369 1.249 . S
O382 Eu360 2.471 . S
O382 C369 1.244 . S
O383 Eu360 2.349 . S
O383 C362 1.265 . S
C384 C385 1.379 . S
C384 C388 1.373 . S
C384 C390 1.505 . S
C385 C384 1.379 . S
C385 C387 1.369 . S
C385 H396 0.930 . S
C386 C388 1.383 . S
C386 C389 1.382 . S
C386 H397 0.930 . S
C387 C385 1.369 . S
C387 C389 1.392 . S
C387 H398 0.930 . S
C388 C384 1.373 . S
C388 C386 1.383 . S
C388 H399 0.931 . S
C389 C386 1.382 . S
C389 C387 1.392 . S
C390 Eu361 2.828 . S
C390 O374 1.249 . S
C390 O375 1.244 . S
C390 C384 1.505 . S
C391 O378 1.258 . S
C391 O379 1.242 . S
H392 C364 0.930 . S
H393 C365 0.930 . S
H394 C366 0.930 . S
H395 C367 0.931 . S
H396 C385 0.930 . S
H397 C386 0.930 . S
H398 C387 0.930 . S
H399 C388 0.931 . S
Eu400 C409 2.828 . S
Eu400 O411 2.392 . S
Eu400 O413 2.418 . S
Eu400 O418 2.373 . S
Eu400 O421 2.488 . S
Eu400 O422 2.471 . S
Eu400 O423 2.349 . S
Eu401 O410 2.373 . S
Eu401 O414 2.488 . S
Eu401 O415 2.471 . S
Eu401 O416 2.349 . S
Eu401 O419 2.392 . S
Eu401 O420 2.418 . S
Eu401 C430 2.828 . S
C402 O420 1.244 . S
C402 O423 1.265 . S
C403 C404 1.379 . S
C403 C407 1.373 . S
C403 C409 1.505 . S
C404 C403 1.379 . S
C404 C406 1.369 . S
C404 H432 0.930 . S
C405 C407 1.383 . S
C405 C408 1.382 . S
C405 H433 0.930 . S
C406 C404 1.369 . S
C406 C408 1.392 . S
C406 H434 0.930 . S
C407 C403 1.373 . S
C407 C405 1.383 . S
C407 H435 0.931 . S
C408 C405 1.382 . S
C408 C406 1.392 . S
C409 Eu400 2.828 . S
C409 C403 1.505 . S
C409 O421 1.249 . S
C409 O422 1.244 . S
O410 Eu401 2.373 . S
O410 C412 1.258 . S
O411 Eu400 2.392 . S
O411 C412 1.242 . S
C412 O410 1.258 . S
C412 O411 1.242 . S
O413 Eu400 2.418 . S
O413 C417 1.244 . S
O414 Eu401 2.488 . S
O414 C430 1.249 . S
O415 Eu401 2.471 . S
O415 C430 1.244 . S
O416 Eu401 2.349 . S
O416 C417 1.265 . S
C417 O413 1.244 . S
C417 O416 1.265 . S
O418 Eu400 2.373 . S
O418 C431 1.258 . S
O419 Eu401 2.392 . S
O419 C431 1.242 . S
O420 Eu401 2.418 . S
O420 C402 1.244 . S
O421 Eu400 2.488 . S
O421 C409 1.249 . S
O422 Eu400 2.471 . S
O422 C409 1.244 . S
O423 Eu400 2.349 . S
O423 C402 1.265 . S
C424 C425 1.379 . S
C424 C428 1.373 . S
C424 C430 1.505 . S
C425 C424 1.379 . S
C425 C427 1.369 . S
C425 H436 0.930 . S
C426 C428 1.383 . S
C426 C429 1.382 . S
C426 H437 0.930 . S
C427 C425 1.369 . S
C427 C429 1.392 . S
C427 H438 0.930 . S
C428 C424 1.373 . S
C428 C426 1.383 . S
C428 H439 0.931 . S
C429 C426 1.382 . S
C429 C427 1.392 . S
C430 Eu401 2.828 . S
C430 O414 1.249 . S
C430 O415 1.244 . S
C430 C424 1.505 . S
C431 O418 1.258 . S
C431 O419 1.242 . S
H432 C404 0.930 . S
H433 C405 0.930 . S
H434 C406 0.930 . S
H435 C407 0.931 . S
H436 C425 0.930 . S
H437 C426 0.930 . S
H438 C427 0.930 . S
H439 C428 0.931 . S
Eu440 C449 2.828 . S
Eu440 O451 2.392 . S
Eu440 O453 2.418 . S
Eu440 O458 2.373 . S
Eu440 O461 2.488 . S
Eu440 O462 2.471 . S
Eu440 O463 2.349 . S
Eu441 O450 2.373 . S
Eu441 O454 2.488 . S
Eu441 O455 2.471 . S
Eu441 O456 2.349 . S
Eu441 O459 2.392 . S
Eu441 O460 2.418 . S
Eu441 C470 2.828 . S
C442 O460 1.244 . S
C442 O463 1.265 . S
C443 C444 1.379 . S
C443 C447 1.373 . S
C443 C449 1.505 . S
C444 C443 1.379 . S
C444 C446 1.369 . S
C444 H472 0.930 . S
C445 C447 1.383 . S
C445 C448 1.382 . S
C445 H473 0.930 . S
C446 C444 1.369 . S
C446 C448 1.392 . S
C446 H474 0.930 . S
C447 C443 1.373 . S
C447 C445 1.383 . S
C447 H475 0.931 . S
C448 C445 1.382 . S
C448 C446 1.392 . S
C449 Eu440 2.828 . S
C449 C443 1.505 . S
C449 O461 1.249 . S
C449 O462 1.244 . S
O450 Eu441 2.373 . S
O450 C452 1.258 . S
O451 Eu440 2.392 . S
O451 C452 1.242 . S
C452 O450 1.258 . S
C452 O451 1.242 . S
O453 Eu440 2.418 . S
O453 C457 1.244 . S
O454 Eu441 2.488 . S
O454 C470 1.249 . S
O455 Eu441 2.471 . S
O455 C470 1.244 . S
O456 Eu441 2.349 . S
O456 C457 1.265 . S
C457 O453 1.244 . S
C457 O456 1.265 . S
O458 Eu440 2.373 . S
O458 C471 1.258 . S
O459 Eu441 2.392 . S
O459 C471 1.242 . S
O460 Eu441 2.418 . S
O460 C442 1.244 . S
O461 Eu440 2.488 . S
O461 C449 1.249 . S
O462 Eu440 2.471 . S
O462 C449 1.244 . S
O463 Eu440 2.349 . S
O463 C442 1.265 . S
C464 C465 1.379 . S
C464 C468 1.373 . S
C464 C470 1.505 . S
C465 C464 1.379 . S
C465 C467 1.369 . S
C465 H476 0.930 . S
C466 C468 1.383 . S
C466 C469 1.382 . S
C466 H477 0.930 . S
C467 C465 1.369 . S
C467 C469 1.392 . S
C467 H478 0.930 . S
C468 C464 1.373 . S
C468 C466 1.383 . S
C468 H479 0.931 . S
C469 C466 1.382 . S
C469 C467 1.392 . S
C470 Eu441 2.828 . S
C470 O454 1.249 . S
C470 O455 1.244 . S
C470 C464 1.505 . S
C471 O458 1.258 . S
C471 O459 1.242 . S
H472 C444 0.930 . S
H473 C445 0.930 . S
H474 C446 0.930 . S
H475 C447 0.931 . S
H476 C465 0.930 . S
H477 C466 0.930 . S
H478 C467 0.930 . S
H479 C468 0.931 . S
Eu480 C489 2.828 . S
Eu480 O491 2.392 . S
Eu480 O493 2.418 . S
Eu480 O498 2.373 . S
Eu480 O501 2.488 . S
Eu480 O502 2.471 . S
Eu480 O503 2.349 . S
Eu481 O490 2.373 . S
Eu481 O494 2.488 . S
Eu481 O495 2.471 . S
Eu481 O496 2.349 . S
Eu481 O499 2.392 . S
Eu481 O500 2.418 . S
Eu481 C510 2.828 . S
C482 O500 1.244 . S
C482 O503 1.265 . S
C483 C484 1.379 . S
C483 C487 1.373 . S
C483 C489 1.505 . S
C484 C483 1.379 . S
C484 C486 1.369 . S
C484 H512 0.930 . S
C485 C487 1.383 . S
C485 C488 1.382 . S
C485 H513 0.930 . S
C486 C484 1.369 . S
C486 C488 1.392 . S
C486 H514 0.930 . S
C487 C483 1.373 . S
C487 C485 1.383 . S
C487 H515 0.931 . S
C488 C485 1.382 . S
C488 C486 1.392 . S
C489 Eu480 2.828 . S
C489 C483 1.505 . S
C489 O501 1.249 . S
C489 O502 1.244 . S
O490 Eu481 2.373 . S
O490 C492 1.258 . S
O491 Eu480 2.392 . S
O491 C492 1.242 . S
C492 O490 1.258 . S
C492 O491 1.242 . S
O493 Eu480 2.418 . S
O493 C497 1.244 . S
O494 Eu481 2.488 . S
O494 C510 1.249 . S
O495 Eu481 2.471 . S
O495 C510 1.244 . S
O496 Eu481 2.349 . S
O496 C497 1.265 . S
C497 O493 1.244 . S
C497 O496 1.265 . S
O498 Eu480 2.373 . S
O498 C511 1.258 . S
O499 Eu481 2.392 . S
O499 C511 1.242 . S
O500 Eu481 2.418 . S
O500 C482 1.244 . S
O501 Eu480 2.488 . S
O501 C489 1.249 . S
O502 Eu480 2.471 . S
O502 C489 1.244 . S
O503 Eu480 2.349 . S
O503 C482 1.265 . S
C504 C505 1.379 . S
C504 C508 1.373 . S
C504 C510 1.505 . S
C505 C504 1.379 . S
C505 C507 1.369 . S
C505 H516 0.930 . S
C506 C508 1.383 . S
C506 C509 1.382 . S
C506 H517 0.930 . S
C507 C505 1.369 . S
C507 C509 1.392 . S
C507 H518 0.930 . S
C508 C504 1.373 . S
C508 C506 1.383 . S
C508 H519 0.931 . S
C509 C506 1.382 . S
C509 C507 1.392 . S
C510 Eu481 2.828 . S
C510 O494 1.249 . S
C510 O495 1.244 . S
C510 C504 1.505 . S
C511 O498 1.258 . S
C511 O499 1.242 . S
H512 C484 0.930 . S
H513 C485 0.930 . S
H514 C486 0.930 . S
H515 C487 0.931 . S
H516 C505 0.930 . S
H517 C506 0.930 . S
H518 C507 0.930 . S
H519 C508 0.931 . S
Eu520 C529 2.828 . S
Eu520 O531 2.392 . S
Eu520 O533 2.418 . S
Eu520 O538 2.373 . S
Eu520 O541 2.488 . S
Eu520 O542 2.471 . S
Eu520 O543 2.349 . S
Eu521 O530 2.373 . S
Eu521 O534 2.488 . S
Eu521 O535 2.471 . S
Eu521 O536 2.349 . S
Eu521 O539 2.392 . S
Eu521 O540 2.418 . S
Eu521 C550 2.828 . S
C522 O540 1.244 . S
C522 O543 1.265 . S
C523 C524 1.379 . S
C523 C527 1.373 . S
C523 C529 1.505 . S
C524 C523 1.379 . S
C524 C526 1.369 . S
C524 H552 0.930 . S
C525 C527 1.383 . S
C525 C528 1.382 . S
C525 H553 0.930 . S
C526 C524 1.369 . S
C526 C528 1.392 . S
C526 H554 0.930 . S
C527 C523 1.373 . S
C527 C525 1.383 . S
C527 H555 0.931 . S
C528 C525 1.382 . S
C528 C526 1.392 . S
C529 Eu520 2.828 . S
C529 C523 1.505 . S
C529 O541 1.249 . S
C529 O542 1.244 . S
O530 Eu521 2.373 . S
O530 C532 1.258 . S
O531 Eu520 2.392 . S
O531 C532 1.242 . S
C532 O530 1.258 . S
C532 O531 1.242 . S
O533 Eu520 2.418 . S
O533 C537 1.244 . S
O534 Eu521 2.488 . S
O534 C550 1.249 . S
O535 Eu521 2.471 . S
O535 C550 1.244 . S
O536 Eu521 2.349 . S
O536 C537 1.265 . S
C537 O533 1.244 . S
C537 O536 1.265 . S
O538 Eu520 2.373 . S
O538 C551 1.258 . S
O539 Eu521 2.392 . S
O539 C551 1.242 . S
O540 Eu521 2.418 . S
O540 C522 1.244 . S
O541 Eu520 2.488 . S
O541 C529 1.249 . S
O542 Eu520 2.471 . S
O542 C529 1.244 . S
O543 Eu520 2.349 . S
O543 C522 1.265 . S
C544 C545 1.379 . S
C544 C548 1.373 . S
C544 C550 1.505 . S
C545 C544 1.379 . S
C545 C547 1.369 . S
C545 H556 0.930 . S
C546 C548 1.383 . S
C546 C549 1.382 . S
C546 H557 0.930 . S
C547 C545 1.369 . S
C547 C549 1.392 . S
C547 H558 0.930 . S
C548 C544 1.373 . S
C548 C546 1.383 . S
C548 H559 0.931 . S
C549 C546 1.382 . S
C549 C547 1.392 . S
C550 Eu521 2.828 . S
C550 O534 1.249 . S
C550 O535 1.244 . S
C550 C544 1.505 . S
C551 O538 1.258 . S
C551 O539 1.242 . S
H552 C524 0.930 . S
H553 C525 0.930 . S
H554 C526 0.930 . S
H555 C527 0.931 . S
H556 C545 0.930 . S
H557 C546 0.930 . S
H558 C547 0.930 . S
H559 C548 0.931 . S
Eu560 C569 2.828 . S
Eu560 O571 2.392 . S
Eu560 O573 2.418 . S
Eu560 O578 2.373 . S
Eu560 O581 2.488 . S
Eu560 O582 2.471 . S
Eu560 O583 2.349 . S
Eu561 O570 2.373 . S
Eu561 O574 2.488 . S
Eu561 O575 2.471 . S
Eu561 O576 2.349 . S
Eu561 O579 2.392 . S
Eu561 O580 2.418 . S
Eu561 C590 2.828 . S
C562 O580 1.244 . S
C562 O583 1.265 . S
C563 C564 1.379 . S
C563 C567 1.373 . S
C563 C569 1.505 . S
C564 C563 1.379 . S
C564 C566 1.369 . S
C564 H592 0.930 . S
C565 C567 1.383 . S
C565 C568 1.382 . S
C565 H593 0.930 . S
C566 C564 1.369 . S
C566 C568 1.392 . S
C566 H594 0.930 . S
C567 C563 1.373 . S
C567 C565 1.383 . S
C567 H595 0.931 . S
C568 C565 1.382 . S
C568 C566 1.392 . S
C569 Eu560 2.828 . S
C569 C563 1.505 . S
C569 O581 1.249 . S
C569 O582 1.244 . S
O570 Eu561 2.373 . S
O570 C572 1.258 . S
O571 Eu560 2.392 . S
O571 C572 1.242 . S
C572 O570 1.258 . S
C572 O571 1.242 . S
O573 Eu560 2.418 . S
O573 C577 1.244 . S
O574 Eu561 2.488 . S
O574 C590 1.249 . S
O575 Eu561 2.471 . S
O575 C590 1.244 . S
O576 Eu561 2.349 . S
O576 C577 1.265 . S
C577 O573 1.244 . S
C577 O576 1.265 . S
O578 Eu560 2.373 . S
O578 C591 1.258 . S
O579 Eu561 2.392 . S
O579 C591 1.242 . S
O580 Eu561 2.418 . S
O580 C562 1.244 . S
O581 Eu560 2.488 . S
O581 C569 1.249 . S
O582 Eu560 2.471 . S
O582 C569 1.244 . S
O583 Eu560 2.349 . S
O583 C562 1.265 . S
C584 C585 1.379 . S
C584 C588 1.373 . S
C584 C590 1.505 1_556 S
C585 C584 1.379 . S
C585 C587 1.369 . S
C585 H596 0.930 . S
C586 C588 1.383 . S
C586 C589 1.382 . S
C586 H597 0.930 . S
C587 C585 1.369 . S
C587 C589 1.392 . S
C587 H598 0.930 . S
C588 C584 1.373 . S
C588 C586 1.383 . S
C588 H599 0.931 . S
C589 C586 1.382 . S
C589 C587 1.392 . S
C590 Eu561 2.828 . S
C590 O574 1.249 . S
C590 O575 1.244 . S
C590 C584 1.505 1_554 S
C591 O578 1.258 . S
C591 O579 1.242 . S
H592 C564 0.930 . S
H593 C565 0.930 . S
H594 C566 0.930 . S
H595 C567 0.931 . S
H596 C585 0.930 . S
H597 C586 0.930 . S
H598 C587 0.930 . S
H599 C588 0.931 . S
Eu600 C609 2.828 1_556 S
Eu600 O611 2.392 . S
Eu600 O613 2.418 . S
Eu600 O618 2.373 . S
Eu600 O621 2.488 1_556 S
Eu600 O622 2.471 1_556 S
Eu600 O623 2.349 . S
Eu601 O610 2.373 . S
Eu601 O614 2.488 . S
Eu601 O615 2.471 . S
Eu601 O616 2.349 . S
Eu601 O619 2.392 . S
Eu601 O620 2.418 . S
Eu601 C630 2.828 . S
C602 O620 1.244 . S
C602 O623 1.265 . S
C603 C604 1.379 . S
C603 C607 1.373 . S
C603 C609 1.505 . S
C604 C603 1.379 . S
C604 C606 1.369 . S
C604 H632 0.930 . S
C605 C607 1.383 . S
C605 C608 1.382 . S
C605 H633 0.930 . S
C606 C604 1.369 . S
C606 C608 1.392 . S
C606 H634 0.930 . S
C607 C603 1.373 . S
C607 C605 1.383 . S
C607 H635 0.931 . S
C608 C605 1.382 . S
C608 C606 1.392 . S
C609 Eu600 2.828 1_554 S
C609 C603 1.505 . S
C609 O621 1.249 . S
C609 O622 1.244 . S
O610 Eu601 2.373 . S
O610 C612 1.258 . S
O611 Eu600 2.392 . S
O611 C612 1.242 . S
C612 O610 1.258 . S
C612 O611 1.242 . S
O613 Eu600 2.418 . S
O613 C617 1.244 . S
O614 Eu601 2.488 . S
O614 C630 1.249 . S
O615 Eu601 2.471 . S
O615 C630 1.244 . S
O616 Eu601 2.349 . S
O616 C617 1.265 . S
C617 O613 1.244 . S
C617 O616 1.265 . S
O618 Eu600 2.373 . S
O618 C631 1.258 . S
O619 Eu601 2.392 . S
O619 C631 1.242 . S
O620 Eu601 2.418 . S
O620 C602 1.244 . S
O621 Eu600 2.488 1_554 S
O621 C609 1.249 . S
O622 Eu600 2.471 1_554 S
O622 C609 1.244 . S
O623 Eu600 2.349 . S
O623 C602 1.265 . S
C624 C625 1.379 . S
C624 C628 1.373 . S
C624 C630 1.505 . S
C625 C624 1.379 . S
C625 C627 1.369 . S
C625 H636 0.930 . S
C626 C628 1.383 . S
C626 C629 1.382 . S
C626 H637 0.930 . S
C627 C625 1.369 . S
C627 C629 1.392 . S
C627 H638 0.930 . S
C628 C624 1.373 . S
C628 C626 1.383 . S
C628 H639 0.931 . S
C629 C626 1.382 . S
C629 C627 1.392 . S
C630 Eu601 2.828 . S
C630 O614 1.249 . S
C630 O615 1.244 . S
C630 C624 1.505 . S
C631 O618 1.258 . S
C631 O619 1.242 . S
H632 C604 0.930 . S
H633 C605 0.930 . S
H634 C606 0.930 . S
H635 C607 0.931 . S
H636 C625 0.930 . S
H637 C626 0.930 . S
H638 C627 0.930 . S
H639 C628 0.931 . S
Eu640 C649 2.828 . S
Eu640 O651 2.392 . S
Eu640 O653 2.418 . S
Eu640 O658 2.373 . S
Eu640 O661 2.488 . S
Eu640 O662 2.471 . S
Eu640 O663 2.349 . S
Eu641 O650 2.373 . S
Eu641 O654 2.488 . S
Eu641 O655 2.471 . S
Eu641 O656 2.349 . S
Eu641 O659 2.392 . S
Eu641 O660 2.418 . S
Eu641 C670 2.828 . S
C642 O660 1.244 . S
C642 O663 1.265 . S
C643 C644 1.379 . S
C643 C647 1.373 . S
C643 C649 1.505 . S
C644 C643 1.379 . S
C644 C646 1.369 . S
C644 H672 0.930 . S
C645 C647 1.383 . S
C645 C648 1.382 . S
C645 H673 0.930 . S
C646 C644 1.369 . S
C646 C648 1.392 . S
C646 H674 0.930 . S
C647 C643 1.373 . S
C647 C645 1.383 . S
C647 H675 0.931 . S
C648 C645 1.382 . S
C648 C646 1.392 . S
C649 Eu640 2.828 . S
C649 C643 1.505 . S
C649 O661 1.249 . S
C649 O662 1.244 . S
O650 Eu641 2.373 . S
O650 C652 1.258 . S
O651 Eu640 2.392 . S
O651 C652 1.242 . S
C652 O650 1.258 . S
C652 O651 1.242 . S
O653 Eu640 2.418 . S
O653 C657 1.244 . S
O654 Eu641 2.488 . S
O654 C670 1.249 . S
O655 Eu641 2.471 . S
O655 C670 1.244 . S
O656 Eu641 2.349 . S
O656 C657 1.265 . S
C657 O653 1.244 . S
C657 O656 1.265 . S
O658 Eu640 2.373 . S
O658 C671 1.258 . S
O659 Eu641 2.392 . S
O659 C671 1.242 . S
O660 Eu641 2.418 . S
O660 C642 1.244 . S
O661 Eu640 2.488 . S
O661 C649 1.249 . S
O662 Eu640 2.471 . S
O662 C649 1.244 . S
O663 Eu640 2.349 . S
O663 C642 1.265 . S
C664 C665 1.379 . S
C664 C668 1.373 1_565 S
C664 C670 1.505 . S
C665 C664 1.379 . S
C665 C667 1.369 . S
C665 H676 0.930 . S
C666 C668 1.383 . S
C666 C669 1.382 1_545 S
C666 H677 0.930 . S
C667 C665 1.369 . S
C667 C669 1.392 . S
C667 H678 0.930 . S
C668 C664 1.373 1_545 S
C668 C666 1.383 . S
C668 H679 0.931 . S
C669 C666 1.382 1_565 S
C669 C667 1.392 . S
C670 Eu641 2.828 . S
C670 O654 1.249 . S
C670 O655 1.244 . S
C670 C664 1.505 . S
C671 O658 1.258 . S
C671 O659 1.242 . S
H672 C644 0.930 . S
H673 C645 0.930 . S
H674 C646 0.930 . S
H675 C647 0.931 . S
H676 C665 0.930 . S
H677 C666 0.930 . S
H678 C667 0.930 . S
H679 C668 0.931 . S
Eu680 C689 2.828 . S
Eu680 O691 2.392 . S
Eu680 O693 2.418 . S
Eu680 O698 2.373 . S
Eu680 O701 2.488 . S
Eu680 O702 2.471 . S
Eu680 O703 2.349 . S
Eu681 O690 2.373 . S
Eu681 O694 2.488 1_556 S
Eu681 O695 2.471 1_556 S
Eu681 O696 2.349 . S
Eu681 O699 2.392 . S
Eu681 O700 2.418 . S
Eu681 C710 2.828 1_556 S
C682 O700 1.244 . S
C682 O703 1.265 . S
C683 C684 1.379 . S
C683 C687 1.373 . S
C683 C689 1.505 . S
C684 C683 1.379 . S
C684 C686 1.369 . S
C684 H712 0.930 . S
C685 C687 1.383 . S
C685 C688 1.382 . S
C685 H713 0.930 . S
C686 C684 1.369 . S
C686 C688 1.392 . S
C686 H714 0.930 . S
C687 C683 1.373 . S
C687 C685 1.383 . S
C687 H715 0.931 . S
C688 C685 1.382 . S
C688 C686 1.392 . S
C689 Eu680 2.828 . S
C689 C683 1.505 . S
C689 O701 1.249 . S
C689 O702 1.244 . S
O690 Eu681 2.373 . S
O690 C692 1.258 . S
O691 Eu680 2.392 . S
O691 C692 1.242 . S
C692 O690 1.258 . S
C692 O691 1.242 . S
O693 Eu680 2.418 . S
O693 C697 1.244 . S
O694 Eu681 2.488 1_554 S
O694 C710 1.249 . S
O695 Eu681 2.471 1_554 S
O695 C710 1.244 . S
O696 Eu681 2.349 . S
O696 C697 1.265 . S
C697 O693 1.244 . S
C697 O696 1.265 . S
O698 Eu680 2.373 . S
O698 C711 1.258 . S
O699 Eu681 2.392 . S
O699 C711 1.242 . S
O700 Eu681 2.418 . S
O700 C682 1.244 . S
O701 Eu680 2.488 . S
O701 C689 1.249 . S
O702 Eu680 2.471 . S
O702 C689 1.244 . S
O703 Eu680 2.349 . S
O703 C682 1.265 . S
C704 C705 1.379 . S
C704 C708 1.373 . S
C704 C710 1.505 . S
C705 C704 1.379 . S
C705 C707 1.369 . S
C705 H716 0.930 . S
C706 C708 1.383 . S
C706 C709 1.382 . S
C706 H717 0.930 . S
C707 C705 1.369 . S
C707 C709 1.392 . S
C707 H718 0.930 . S
C708 C704 1.373 . S
C708 C706 1.383 . S
C708 H719 0.931 . S
C709 C706 1.382 . S
C709 C707 1.392 . S
C710 Eu681 2.828 1_554 S
C710 O694 1.249 . S
C710 O695 1.244 . S
C710 C704 1.505 . S
C711 O698 1.258 . S
C711 O699 1.242 . S
H712 C684 0.930 . S
H713 C685 0.930 . S
H714 C686 0.930 . S
H715 C687 0.931 . S
H716 C705 0.930 . S
H717 C706 0.930 . S
H718 C707 0.930 . S
H719 C708 0.931 . S
Eu720 C729 2.828 . S
Eu720 O731 2.392 . S
Eu720 O733 2.418 . S
Eu720 O738 2.373 . S
Eu720 O741 2.488 . S
Eu720 O742 2.471 . S
Eu720 O743 2.349 . S
Eu721 O730 2.373 . S
Eu721 O734 2.488 . S
Eu721 O735 2.471 . S
Eu721 O736 2.349 . S
Eu721 O739 2.392 . S
Eu721 O740 2.418 . S
Eu721 C750 2.828 . S
C722 O740 1.244 . S
C722 O743 1.265 . S
C723 C724 1.379 . S
C723 C727 1.373 . S
C723 C729 1.505 1_556 S
C724 C723 1.379 . S
C724 C726 1.369 . S
C724 H752 0.930 . S
C725 C727 1.383 . S
C725 C728 1.382 . S
C725 H753 0.930 . S
C726 C724 1.369 . S
C726 C728 1.392 . S
C726 H754 0.930 . S
C727 C723 1.373 . S
C727 C725 1.383 . S
C727 H755 0.931 . S
C728 C725 1.382 . S
C728 C726 1.392 . S
C729 Eu720 2.828 . S
C729 C723 1.505 1_554 S
C729 O741 1.249 . S
C729 O742 1.244 . S
O730 Eu721 2.373 . S
O730 C732 1.258 . S
O731 Eu720 2.392 . S
O731 C732 1.242 . S
C732 O730 1.258 . S
C732 O731 1.242 . S
O733 Eu720 2.418 . S
O733 C737 1.244 . S
O734 Eu721 2.488 . S
O734 C750 1.249 . S
O735 Eu721 2.471 . S
O735 C750 1.244 . S
O736 Eu721 2.349 . S
O736 C737 1.265 . S
C737 O733 1.244 . S
C737 O736 1.265 . S
O738 Eu720 2.373 . S
O738 C751 1.258 . S
O739 Eu721 2.392 . S
O739 C751 1.242 . S
O740 Eu721 2.418 . S
O740 C722 1.244 . S
O741 Eu720 2.488 . S
O741 C729 1.249 . S
O742 Eu720 2.471 . S
O742 C729 1.244 . S
O743 Eu720 2.349 . S
O743 C722 1.265 . S
C744 C745 1.379 . S
C744 C748 1.373 1_545 S
C744 C750 1.505 . S
C745 C744 1.379 . S
C745 C747 1.369 . S
C745 H756 0.930 . S
C746 C748 1.383 . S
C746 C749 1.382 1_565 S
C746 H757 0.930 . S
C747 C745 1.369 . S
C747 C749 1.392 . S
C747 H758 0.930 . S
C748 C744 1.373 1_565 S
C748 C746 1.383 . S
C748 H759 0.931 . S
C749 C746 1.382 1_545 S
C749 C747 1.392 . S
C750 Eu721 2.828 . S
C750 O734 1.249 . S
C750 O735 1.244 . S
C750 C744 1.505 . S
C751 O738 1.258 . S
C751 O739 1.242 . S
H752 C724 0.930 . S
H753 C725 0.930 . S
H754 C726 0.930 . S
H755 C727 0.931 . S
H756 C745 0.930 . S
H757 C746 0.930 . S
H758 C747 0.930 . S
H759 C748 0.931 . S
Eu760 C769 2.828 . S
Eu760 O771 2.392 . S
Eu760 O773 2.418 . S
Eu760 O778 2.373 . S
Eu760 O781 2.488 . S
Eu760 O782 2.471 . S
Eu760 O783 2.349 . S
Eu761 O770 2.373 . S
Eu761 O774 2.488 . S
Eu761 O775 2.471 . S
Eu761 O776 2.349 . S
Eu761 O779 2.392 . S
Eu761 O780 2.418 . S
Eu761 C790 2.828 . S
C762 O780 1.244 . S
C762 O783 1.265 . S
C763 C764 1.379 . S
C763 C767 1.373 . S
C763 C769 1.505 . S
C764 C763 1.379 . S
C764 C766 1.369 . S
C764 H792 0.930 . S
C765 C767 1.383 . S
C765 C768 1.382 . S
C765 H793 0.930 . S
C766 C764 1.369 . S
C766 C768 1.392 . S
C766 H794 0.930 . S
C767 C763 1.373 . S
C767 C765 1.383 . S
C767 H795 0.931 . S
C768 C765 1.382 . S
C768 C766 1.392 . S
C769 Eu760 2.828 . S
C769 C763 1.505 . S
C769 O781 1.249 . S
C769 O782 1.244 . S
O770 Eu761 2.373 . S
O770 C772 1.258 . S
O771 Eu760 2.392 . S
O771 C772 1.242 . S
C772 O770 1.258 . S
C772 O771 1.242 . S
O773 Eu760 2.418 . S
O773 C777 1.244 . S
O774 Eu761 2.488 . S
O774 C790 1.249 . S
O775 Eu761 2.471 . S
O775 C790 1.244 . S
O776 Eu761 2.349 . S
O776 C777 1.265 . S
C777 O773 1.244 . S
C777 O776 1.265 . S
O778 Eu760 2.373 . S
O778 C791 1.258 . S
O779 Eu761 2.392 . S
O779 C791 1.242 . S
O780 Eu761 2.418 . S
O780 C762 1.244 . S
O781 Eu760 2.488 . S
O781 C769 1.249 . S
O782 Eu760 2.471 . S
O782 C769 1.244 . S
O783 Eu760 2.349 . S
O783 C762 1.265 . S
C784 C785 1.379 . S
C784 C788 1.373 . S
C784 C790 1.505 . S
C785 C784 1.379 . S
C785 C787 1.369 . S
C785 H796 0.930 . S
C786 C788 1.383 . S
C786 C789 1.382 . S
C786 H797 0.930 . S
C787 C785 1.369 . S
C787 C789 1.392 . S
C787 H798 0.930 . S
C788 C784 1.373 . S
C788 C786 1.383 . S
C788 H799 0.931 . S
C789 C786 1.382 . S
C789 C787 1.392 . S
C790 Eu761 2.828 . S
C790 O774 1.249 . S
C790 O775 1.244 . S
C790 C784 1.505 . S
C791 O778 1.258 . S
C791 O779 1.242 . S
H792 C764 0.930 . S
H793 C765 0.930 . S
H794 C766 0.930 . S
H795 C767 0.931 . S
H796 C785 0.930 . S
H797 C786 0.930 . S
H798 C787 0.930 . S
H799 C788 0.931 . S
Eu800 C809 2.828 . S
Eu800 O811 2.392 . S
Eu800 O813 2.418 . S
Eu800 O818 2.373 . S
Eu800 O821 2.488 . S
Eu800 O822 2.471 . S
Eu800 O823 2.349 . S
Eu801 O810 2.373 . S
Eu801 O814 2.488 . S
Eu801 O815 2.471 . S
Eu801 O816 2.349 . S
Eu801 O819 2.392 . S
Eu801 O820 2.418 . S
Eu801 C830 2.828 . S
C802 O820 1.244 . S
C802 O823 1.265 . S
C803 C804 1.379 . S
C803 C807 1.373 . S
C803 C809 1.505 . S
C804 C803 1.379 . S
C804 C806 1.369 . S
C804 H832 0.930 . S
C805 C807 1.383 . S
C805 C808 1.382 . S
C805 H833 0.930 . S
C806 C804 1.369 . S
C806 C808 1.392 . S
C806 H834 0.930 . S
C807 C803 1.373 . S
C807 C805 1.383 . S
C807 H835 0.931 . S
C808 C805 1.382 . S
C808 C806 1.392 . S
C809 Eu800 2.828 . S
C809 C803 1.505 . S
C809 O821 1.249 . S
C809 O822 1.244 . S
O810 Eu801 2.373 . S
O810 C812 1.258 . S
O811 Eu800 2.392 . S
O811 C812 1.242 . S
C812 O810 1.258 . S
C812 O811 1.242 . S
O813 Eu800 2.418 . S
O813 C817 1.244 . S
O814 Eu801 2.488 . S
O814 C830 1.249 . S
O815 Eu801 2.471 . S
O815 C830 1.244 . S
O816 Eu801 2.349 . S
O816 C817 1.265 . S
C817 O813 1.244 . S
C817 O816 1.265 . S
O818 Eu800 2.373 . S
O818 C831 1.258 . S
O819 Eu801 2.392 . S
O819 C831 1.242 . S
O820 Eu801 2.418 . S
O820 C802 1.244 . S
O821 Eu800 2.488 . S
O821 C809 1.249 . S
O822 Eu800 2.471 . S
O822 C809 1.244 . S
O823 Eu800 2.349 . S
O823 C802 1.265 . S
C824 C825 1.379 . S
C824 C828 1.373 1_545 S
C824 C830 1.505 . S
C825 C824 1.379 . S
C825 C827 1.369 1_554 S
C825 H836 0.930 . S
C826 C828 1.383 1_556 S
C826 C829 1.382 1_565 S
C826 H837 0.930 . S
C827 C825 1.369 1_556 S
C827 C829 1.392 . S
C827 H838 0.930 . S
C828 C824 1.373 1_565 S
C828 C826 1.383 1_554 S
C828 H839 0.931 . S
C829 C826 1.382 1_545 S
C829 C827 1.392 . S
C830 Eu801 2.828 . S
C830 O814 1.249 . S
C830 O815 1.244 . S
C830 C824 1.505 . S
C831 O818 1.258 . S
C831 O819 1.242 . S
H832 C804 0.930 . S
H833 C805 0.930 . S
H834 C806 0.930 . S
H835 C807 0.931 . S
H836 C825 0.930 . S
H837 C826 0.930 . S
H838 C827 0.930 . S
H839 C828 0.931 . S
Eu840 C849 2.828 . S
Eu840 O851 2.392 . S
Eu840 O853 2.418 . S
Eu840 O858 2.373 . S
Eu840 O861 2.488 . S
Eu840 O862 2.471 . S
Eu840 O863 2.349 . S
Eu841 O850 2.373 . S
Eu841 O854 2.488 . S
Eu841 O855 2.471 . S
Eu841 O856 2.349 . S
Eu841 O859 2.392 . S
Eu841 O860 2.418 . S
Eu841 C870 2.828 . S
C842 O860 1.244 . S
C842 O863 1.265 . S
C843 C844 1.379 . S
C843 C847 1.373 . S
C843 C849 1.505 . S
C844 C843 1.379 . S
C844 C846 1.369 . S
C844 H872 0.930 . S
C845 C847 1.383 . S
C845 C848 1.382 . S
C845 H873 0.930 . S
C846 C844 1.369 . S
C846 C848 1.392 . S
C846 H874 0.930 . S
C847 C843 1.373 . S
C847 C845 1.383 . S
C847 H875 0.931 . S
C848 C845 1.382 . S
C848 C846 1.392 . S
C849 Eu840 2.828 . S
C849 C843 1.505 . S
C849 O861 1.249 . S
C849 O862 1.244 . S
O850 Eu841 2.373 . S
O850 C852 1.258 . S
O851 Eu840 2.392 . S
O851 C852 1.242 . S
C852 O850 1.258 . S
C852 O851 1.242 . S
O853 Eu840 2.418 . S
O853 C857 1.244 . S
O854 Eu841 2.488 . S
O854 C870 1.249 . S
O855 Eu841 2.471 . S
O855 C870 1.244 . S
O856 Eu841 2.349 . S
O856 C857 1.265 . S
C857 O853 1.244 . S
C857 O856 1.265 . S
O858 Eu840 2.373 . S
O858 C871 1.258 . S
O859 Eu841 2.392 . S
O859 C871 1.242 . S
O860 Eu841 2.418 . S
O860 C842 1.244 . S
O861 Eu840 2.488 . S
O861 C849 1.249 . S
O862 Eu840 2.471 . S
O862 C849 1.244 . S
O863 Eu840 2.349 . S
O863 C842 1.265 . S
C864 C865 1.379 . S
C864 C868 1.373 . S
C864 C870 1.505 . S
C865 C864 1.379 . S
C865 C867 1.369 . S
C865 H876 0.930 . S
C866 C868 1.383 . S
C866 C869 1.382 . S
C866 H877 0.930 . S
C867 C865 1.369 . S
C867 C869 1.392 . S
C867 H878 0.930 . S
C868 C864 1.373 . S
C868 C866 1.383 . S
C868 H879 0.931 . S
C869 C866 1.382 . S
C869 C867 1.392 . S
C870 Eu841 2.828 . S
C870 O854 1.249 . S
C870 O855 1.244 . S
C870 C864 1.505 . S
C871 O858 1.258 . S
C871 O859 1.242 . S
H872 C844 0.930 . S
H873 C845 0.930 . S
H874 C846 0.930 . S
H875 C847 0.931 . S
H876 C865 0.930 . S
H877 C866 0.930 . S
H878 C867 0.930 . S
H879 C868 0.931 . S
Eu880 C889 2.828 . S
Eu880 O891 2.392 . S
Eu880 O893 2.418 . S
Eu880 O898 2.373 . S
Eu880 O901 2.488 . S
Eu880 O902 2.471 . S
Eu880 O903 2.349 . S
Eu881 O890 2.373 . S
Eu881 O894 2.488 . S
Eu881 O895 2.471 . S
Eu881 O896 2.349 . S
Eu881 O899 2.392 . S
Eu881 O900 2.418 . S
Eu881 C910 2.828 . S
C882 O900 1.244 . S
C882 O903 1.265 . S
C883 C884 1.379 . S
C883 C887 1.373 . S
C883 C889 1.505 . S
C884 C883 1.379 . S
C884 C886 1.369 . S
C884 H912 0.930 . S
C885 C887 1.383 . S
C885 C888 1.382 . S
C885 H913 0.930 . S
C886 C884 1.369 . S
C886 C888 1.392 . S
C886 H914 0.930 . S
C887 C883 1.373 . S
C887 C885 1.383 . S
C887 H915 0.931 . S
C888 C885 1.382 . S
C888 C886 1.392 . S
C889 Eu880 2.828 . S
C889 C883 1.505 . S
C889 O901 1.249 . S
C889 O902 1.244 . S
O890 Eu881 2.373 . S
O890 C892 1.258 . S
O891 Eu880 2.392 . S
O891 C892 1.242 . S
C892 O890 1.258 . S
C892 O891 1.242 . S
O893 Eu880 2.418 . S
O893 C897 1.244 . S
O894 Eu881 2.488 . S
O894 C910 1.249 . S
O895 Eu881 2.471 . S
O895 C910 1.244 . S
O896 Eu881 2.349 . S
O896 C897 1.265 . S
C897 O893 1.244 . S
C897 O896 1.265 . S
O898 Eu880 2.373 . S
O898 C911 1.258 . S
O899 Eu881 2.392 . S
O899 C911 1.242 . S
O900 Eu881 2.418 . S
O900 C882 1.244 . S
O901 Eu880 2.488 . S
O901 C889 1.249 . S
O902 Eu880 2.471 . S
O902 C889 1.244 . S
O903 Eu880 2.349 . S
O903 C882 1.265 . S
C904 C905 1.379 . S
C904 C908 1.373 1_565 S
C904 C910 1.505 . S
C905 C904 1.379 . S
C905 C907 1.369 . S
C905 H916 0.930 . S
C906 C908 1.383 . S
C906 C909 1.382 1_545 S
C906 H917 0.930 . S
C907 C905 1.369 . S
C907 C909 1.392 . S
C907 H918 0.930 . S
C908 C904 1.373 1_545 S
C908 C906 1.383 . S
C908 H919 0.931 . S
C909 C906 1.382 1_565 S
C909 C907 1.392 . S
C910 Eu881 2.828 . S
C910 O894 1.249 . S
C910 O895 1.244 . S
C910 C904 1.505 . S
C911 O898 1.258 . S
C911 O899 1.242 . S
H912 C884 0.930 . S
H913 C885 0.930 . S
H914 C886 0.930 . S
H915 C887 0.931 . S
H916 C905 0.930 . S
H917 C906 0.930 . S
H918 C907 0.930 . S
H919 C908 0.931 . S
Eu920 C929 2.828 . S
Eu920 O931 2.392 1_554 S
Eu920 O933 2.418 1_554 S
Eu920 O938 2.373 . S
Eu920 O941 2.488 . S
Eu920 O942 2.471 . S
Eu920 O943 2.349 . S
Eu921 O930 2.373 . S
Eu921 O934 2.488 . S
Eu921 O935 2.471 . S
Eu921 O936 2.349 . S
Eu921 O939 2.392 1_556 S
Eu921 O940 2.418 . S
Eu921 C950 2.828 . S
C922 O940 1.244 . S
C922 O943 1.265 1_556 S
C923 C924 1.379 . S
C923 C927 1.373 . S
C923 C929 1.505 . S
C924 C923 1.379 . S
C924 C926 1.369 . S
C924 H952 0.930 . S
C925 C927 1.383 . S
C925 C928 1.382 . S
C925 H953 0.930 . S
C926 C924 1.369 . S
C926 C928 1.392 . S
C926 H954 0.930 . S
C927 C923 1.373 . S
C927 C925 1.383 . S
C927 H955 0.931 . S
C928 C925 1.382 . S
C928 C926 1.392 . S
C929 Eu920 2.828 . S
C929 C923 1.505 . S
C929 O941 1.249 . S
C929 O942 1.244 . S
O930 Eu921 2.373 . S
O930 C932 1.258 . S
O931 Eu920 2.392 1_556 S
O931 C932 1.242 . S
C932 O930 1.258 . S
C932 O931 1.242 . S
O933 Eu920 2.418 1_556 S
O933 C937 1.244 . S
O934 Eu921 2.488 . S
O934 C950 1.249 . S
O935 Eu921 2.471 . S
O935 C950 1.244 . S
O936 Eu921 2.349 . S
O936 C937 1.265 . S
C937 O933 1.244 . S
C937 O936 1.265 . S
O938 Eu920 2.373 . S
O938 C951 1.258 . S
O939 Eu921 2.392 1_554 S
O939 C951 1.242 . S
O940 Eu921 2.418 . S
O940 C922 1.244 . S
O941 Eu920 2.488 . S
O941 C929 1.249 . S
O942 Eu920 2.471 . S
O942 C929 1.244 . S
O943 Eu920 2.349 . S
O943 C922 1.265 1_554 S
C944 C945 1.379 . S
C944 C948 1.373 . S
C944 C950 1.505 . S
C945 C944 1.379 . S
C945 C947 1.369 . S
C945 H956 0.930 . S
C946 C948 1.383 . S
C946 C949 1.382 . S
C946 H957 0.930 . S
C947 C945 1.369 . S
C947 C949 1.392 . S
C947 H958 0.930 . S
C948 C944 1.373 . S
C948 C946 1.383 . S
C948 H959 0.931 . S
C949 C946 1.382 . S
C949 C947 1.392 . S
C950 Eu921 2.828 . S
C950 O934 1.249 . S
C950 O935 1.244 . S
C950 C944 1.505 . S
C951 O938 1.258 . S
C951 O939 1.242 . S
H952 C924 0.930 . S
H953 C925 0.930 . S
H954 C926 0.930 . S
H955 C927 0.931 . S
H956 C945 0.930 . S
H957 C946 0.930 . S
H958 C947 0.930 . S
H959 C948 0.931 . S
Eu960 C969 2.828 . S
Eu960 O971 2.392 . S
Eu960 O973 2.418 . S
Eu960 O978 2.373 . S
Eu960 O981 2.488 . S
Eu960 O982 2.471 . S
Eu960 O983 2.349 . S
Eu961 O970 2.373 . S
Eu961 O974 2.488 . S
Eu961 O975 2.471 . S
Eu961 O976 2.349 . S
Eu961 O979 2.392 . S
Eu961 O980 2.418 . S
Eu961 C990 2.828 . S
C962 O980 1.244 . S
C962 O983 1.265 . S
C963 C964 1.379 . S
C963 C967 1.373 1_545 S
C963 C969 1.505 . S
C964 C963 1.379 . S
C964 C966 1.369 . S
C964 H992 0.930 . S
C965 C967 1.383 . S
C965 C968 1.382 1_565 S
C965 H993 0.930 . S
C966 C964 1.369 . S
C966 C968 1.392 . S
C966 H994 0.930 . S
C967 C963 1.373 1_565 S
C967 C965 1.383 . S
C967 H995 0.931 . S
C968 C965 1.382 1_545 S
C968 C966 1.392 . S
C969 Eu960 2.828 . S
C969 C963 1.505 . S
C969 O981 1.249 . S
C969 O982 1.244 . S
O970 Eu961 2.373 . S
O970 C972 1.258 . S
O971 Eu960 2.392 . S
O971 C972 1.242 . S
C972 O970 1.258 . S
C972 O971 1.242 . S
O973 Eu960 2.418 . S
O973 C977 1.244 . S
O974 Eu961 2.488 . S
O974 C990 1.249 . S
O975 Eu961 2.471 . S
O975 C990 1.244 . S
O976 Eu961 2.349 . S
O976 C977 1.265 . S
C977 O973 1.244 . S
C977 O976 1.265 . S
O978 Eu960 2.373 . S
O978 C991 1.258 . S
O979 Eu961 2.392 . S
O979 C991 1.242 . S
O980 Eu961 2.418 . S
O980 C962 1.244 . S
O981 Eu960 2.488 . S
O981 C969 1.249 . S
O982 Eu960 2.471 . S
O982 C969 1.244 . S
O983 Eu960 2.349 . S
O983 C962 1.265 . S
C984 C985 1.379 . S
C984 C988 1.373 . S
C984 C990 1.505 . S
C985 C984 1.379 . S
C985 C987 1.369 . S
C985 H996 0.930 . S
C986 C988 1.383 . S
C986 C989 1.382 . S
C986 H997 0.930 . S
C987 C985 1.369 . S
C987 C989 1.392 . S
C987 H998 0.930 . S
C988 C984 1.373 . S
C988 C986 1.383 . S
C988 H999 0.931 . S
C989 C986 1.382 . S
C989 C987 1.392 . S
C990 Eu961 2.828 . S
C990 O974 1.249 . S
C990 O975 1.244 . S
C990 C984 1.505 . S
C991 O978 1.258 . S
C991 O979 1.242 . S
H992 C964 0.930 . S
H993 C965 0.930 . S
H994 C966 0.930 . S
H995 C967 0.931 . S
H996 C985 0.930 . S
H997 C986 0.930 . S
H998 C987 0.930 . S
H999 C988 0.931 . S
Eu1000 C1009 2.828 . S
Eu1000 O1011 2.392 . S
Eu1000 O1013 2.418 . S
Eu1000 O1018 2.373 . S
Eu1000 O1021 2.488 . S
Eu1000 O1022 2.471 . S
Eu1000 O1023 2.349 . S
Eu1001 O1010 2.373 . S
Eu1001 O1014 2.488 . S
Eu1001 O1015 2.471 . S
Eu1001 O1016 2.349 . S
Eu1001 O1019 2.392 . S
Eu1001 O1020 2.418 . S
Eu1001 C1030 2.828 . S
C1002 O1020 1.244 . S
C1002 O1023 1.265 . S
C1003 C1004 1.379 . S
C1003 C1007 1.373 . S
C1003 C1009 1.505 . S
C1004 C1003 1.379 . S
C1004 C1006 1.369 . S
C1004 H1032 0.930 . S
C1005 C1007 1.383 . S
C1005 C1008 1.382 . S
C1005 H1033 0.930 . S
C1006 C1004 1.369 . S
C1006 C1008 1.392 . S
C1006 H1034 0.930 . S
C1007 C1003 1.373 . S
C1007 C1005 1.383 . S
C1007 H1035 0.931 . S
C1008 C1005 1.382 . S
C1008 C1006 1.392 . S
C1009 Eu1000 2.828 . S
C1009 C1003 1.505 . S
C1009 O1021 1.249 . S
C1009 O1022 1.244 . S
O1010 Eu1001 2.373 . S
O1010 C1012 1.258 . S
O1011 Eu1000 2.392 . S
O1011 C1012 1.242 . S
C1012 O1010 1.258 . S
C1012 O1011 1.242 . S
O1013 Eu1000 2.418 . S
O1013 C1017 1.244 . S
O1014 Eu1001 2.488 . S
O1014 C1030 1.249 . S
O1015 Eu1001 2.471 . S
O1015 C1030 1.244 . S
O1016 Eu1001 2.349 . S
O1016 C1017 1.265 . S
C1017 O1013 1.244 . S
C1017 O1016 1.265 . S
O1018 Eu1000 2.373 . S
O1018 C1031 1.258 . S
O1019 Eu1001 2.392 . S
O1019 C1031 1.242 . S
O1020 Eu1001 2.418 . S
O1020 C1002 1.244 . S
O1021 Eu1000 2.488 . S
O1021 C1009 1.249 . S
O1022 Eu1000 2.471 . S
O1022 C1009 1.244 . S
O1023 Eu1000 2.349 . S
O1023 C1002 1.265 . S
C1024 C1025 1.379 . S
C1024 C1028 1.373 . S
C1024 C1030 1.505 . S
C1025 C1024 1.379 . S
C1025 C1027 1.369 . S
C1025 H1036 0.930 . S
C1026 C1028 1.383 . S
C1026 C1029 1.382 . S
C1026 H1037 0.930 . S
C1027 C1025 1.369 . S
C1027 C1029 1.392 . S
C1027 H1038 0.930 . S
C1028 C1024 1.373 . S
C1028 C1026 1.383 . S
C1028 H1039 0.931 . S
C1029 C1026 1.382 . S
C1029 C1027 1.392 . S
C1030 Eu1001 2.828 . S
C1030 O1014 1.249 . S
C1030 O1015 1.244 . S
C1030 C1024 1.505 . S
C1031 O1018 1.258 . S
C1031 O1019 1.242 . S
H1032 C1004 0.930 . S
H1033 C1005 0.930 . S
H1034 C1006 0.930 . S
H1035 C1007 0.931 . S
H1036 C1025 0.930 . S
H1037 C1026 0.930 . S
H1038 C1027 0.930 . S
H1039 C1028 0.931 . S
Eu1040 C1049 2.828 . S
Eu1040 O1051 2.392 . S
Eu1040 O1053 2.418 . S
Eu1040 O1058 2.373 . S
Eu1040 O1061 2.488 . S
Eu1040 O1062 2.471 . S
Eu1040 O1063 2.349 . S
Eu1041 O1050 2.373 . S
Eu1041 O1054 2.488 . S
Eu1041 O1055 2.471 . S
Eu1041 O1056 2.349 . S
Eu1041 O1059 2.392 . S
Eu1041 O1060 2.418 . S
Eu1041 C1070 2.828 . S
C1042 O1060 1.244 . S
C1042 O1063 1.265 . S
C1043 C1044 1.379 . S
C1043 C1047 1.373 1_565 S
C1043 C1049 1.505 . S
C1044 C1043 1.379 . S
C1044 C1046 1.369 1_554 S
C1044 H1072 0.930 . S
C1045 C1047 1.383 1_556 S
C1045 C1048 1.382 1_545 S
C1045 H1073 0.930 . S
C1046 C1044 1.369 1_556 S
C1046 C1048 1.392 . S
C1046 H1074 0.930 . S
C1047 C1043 1.373 1_545 S
C1047 C1045 1.383 1_554 S
C1047 H1075 0.931 . S
C1048 C1045 1.382 1_565 S
C1048 C1046 1.392 . S
C1049 Eu1040 2.828 . S
C1049 C1043 1.505 . S
C1049 O1061 1.249 . S
C1049 O1062 1.244 . S
O1050 Eu1041 2.373 . S
O1050 C1052 1.258 . S
O1051 Eu1040 2.392 . S
O1051 C1052 1.242 . S
C1052 O1050 1.258 . S
C1052 O1051 1.242 . S
O1053 Eu1040 2.418 . S
O1053 C1057 1.244 . S
O1054 Eu1041 2.488 . S
O1054 C1070 1.249 . S
O1055 Eu1041 2.471 . S
O1055 C1070 1.244 . S
O1056 Eu1041 2.349 . S
O1056 C1057 1.265 . S
C1057 O1053 1.244 . S
C1057 O1056 1.265 . S
O1058 Eu1040 2.373 . S
O1058 C1071 1.258 . S
O1059 Eu1041 2.392 . S
O1059 C1071 1.242 . S
O1060 Eu1041 2.418 . S
O1060 C1042 1.244 . S
O1061 Eu1040 2.488 . S
O1061 C1049 1.249 . S
O1062 Eu1040 2.471 . S
O1062 C1049 1.244 . S
O1063 Eu1040 2.349 . S
O1063 C1042 1.265 . S
C1064 C1065 1.379 . S
C1064 C1068 1.373 . S
C1064 C1070 1.505 . S
C1065 C1064 1.379 . S
C1065 C1067 1.369 . S
C1065 H1076 0.930 . S
C1066 C1068 1.383 . S
C1066 C1069 1.382 . S
C1066 H1077 0.930 . S
C1067 C1065 1.369 . S
C1067 C1069 1.392 . S
C1067 H1078 0.930 . S
C1068 C1064 1.373 . S
C1068 C1066 1.383 . S
C1068 H1079 0.931 . S
C1069 C1066 1.382 . S
C1069 C1067 1.392 . S
C1070 Eu1041 2.828 . S
C1070 O1054 1.249 . S
C1070 O1055 1.244 . S
C1070 C1064 1.505 . S
C1071 O1058 1.258 . S
C1071 O1059 1.242 . S
H1072 C1044 0.930 . S
H1073 C1045 0.930 . S
H1074 C1046 0.930 . S
H1075 C1047 0.931 . S
H1076 C1065 0.930 . S
H1077 C1066 0.930 . S
H1078 C1067 0.930 . S
H1079 C1068 0.931 . S
Eu1080 C1089 2.828 . S
Eu1080 O1091 2.392 1_556 S
Eu1080 O1093 2.418 . S
Eu1080 O1098 2.373 . S
Eu1080 O1101 2.488 . S
Eu1080 O1102 2.471 . S
Eu1080 O1103 2.349 . S
Eu1081 O1090 2.373 . S
Eu1081 O1094 2.488 . S
Eu1081 O1095 2.471 . S
Eu1081 O1096 2.349 . S
Eu1081 O1099 2.392 1_554 S
Eu1081 O1100 2.418 1_554 S
Eu1081 C1110 2.828 . S
C1082 O1100 1.244 . S
C1082 O1103 1.265 . S
C1083 C1084 1.379 . S
C1083 C1087 1.373 . S
C1083 C1089 1.505 . S
C1084 C1083 1.379 . S
C1084 C1086 1.369 . S
C1084 H1112 0.930 . S
C1085 C1087 1.383 . S
C1085 C1088 1.382 . S
C1085 H1113 0.930 . S
C1086 C1084 1.369 . S
C1086 C1088 1.392 . S
C1086 H1114 0.930 . S
C1087 C1083 1.373 . S
C1087 C1085 1.383 . S
C1087 H1115 0.931 . S
C1088 C1085 1.382 . S
C1088 C1086 1.392 . S
C1089 Eu1080 2.828 . S
C1089 C1083 1.505 . S
C1089 O1101 1.249 . S
C1089 O1102 1.244 . S
O1090 Eu1081 2.373 . S
O1090 C1092 1.258 . S
O1091 Eu1080 2.392 1_554 S
O1091 C1092 1.242 . S
C1092 O1090 1.258 . S
C1092 O1091 1.242 . S
O1093 Eu1080 2.418 . S
O1093 C1097 1.244 . S
O1094 Eu1081 2.488 . S
O1094 C1110 1.249 . S
O1095 Eu1081 2.471 . S
O1095 C1110 1.244 . S
O1096 Eu1081 2.349 . S
O1096 C1097 1.265 1_554 S
C1097 O1093 1.244 . S
C1097 O1096 1.265 1_556 S
O1098 Eu1080 2.373 . S
O1098 C1111 1.258 . S
O1099 Eu1081 2.392 1_556 S
O1099 C1111 1.242 . S
O1100 Eu1081 2.418 1_556 S
O1100 C1082 1.244 . S
O1101 Eu1080 2.488 . S
O1101 C1089 1.249 . S
O1102 Eu1080 2.471 . S
O1102 C1089 1.244 . S
O1103 Eu1080 2.349 . S
O1103 C1082 1.265 . S
C1104 C1105 1.379 . S
C1104 C1108 1.373 . S
C1104 C1110 1.505 . S
C1105 C1104 1.379 . S
C1105 C1107 1.369 . S
C1105 H1116 0.930 . S
C1106 C1108 1.383 . S
C1106 C1109 1.382 . S
C1106 H1117 0.930 . S
C1107 C1105 1.369 . S
C1107 C1109 1.392 . S
C1107 H1118 0.930 . S
C1108 C1104 1.373 . S
C1108 C1106 1.383 . S
C1108 H1119 0.931 . S
C1109 C1106 1.382 . S
C1109 C1107 1.392 . S
C1110 Eu1081 2.828 . S
C1110 O1094 1.249 . S
C1110 O1095 1.244 . S
C1110 C1104 1.505 . S
C1111 O1098 1.258 . S
C1111 O1099 1.242 . S
H1112 C1084 0.930 . S
H1113 C1085 0.930 . S
H1114 C1086 0.930 . S
H1115 C1087 0.931 . S
H1116 C1105 0.930 . S
H1117 C1106 0.930 . S
H1118 C1107 0.930 . S
H1119 C1108 0.931 . S
Eu1120 C1129 2.828 . S
Eu1120 O1131 2.392 . S
Eu1120 O1133 2.418 . S
Eu1120 O1138 2.373 . S
Eu1120 O1141 2.488 . S
Eu1120 O1142 2.471 . S
Eu1120 O1143 2.349 . S
Eu1121 O1130 2.373 . S
Eu1121 O1134 2.488 . S
Eu1121 O1135 2.471 . S
Eu1121 O1136 2.349 . S
Eu1121 O1139 2.392 . S
Eu1121 O1140 2.418 . S
Eu1121 C1150 2.828 . S
C1122 O1140 1.244 . S
C1122 O1143 1.265 . S
C1123 C1124 1.379 . S
C1123 C1127 1.373 1_565 S
C1123 C1129 1.505 . S
C1124 C1123 1.379 . S
C1124 C1126 1.369 . S
C1124 H1152 0.930 . S
C1125 C1127 1.383 . S
C1125 C1128 1.382 1_545 S
C1125 H1153 0.930 . S
C1126 C1124 1.369 . S
C1126 C1128 1.392 . S
C1126 H1154 0.930 . S
C1127 C1123 1.373 1_545 S
C1127 C1125 1.383 . S
C1127 H1155 0.931 . S
C1128 C1125 1.382 1_565 S
C1128 C1126 1.392 . S
C1129 Eu1120 2.828 . S
C1129 C1123 1.505 . S
C1129 O1141 1.249 . S
C1129 O1142 1.244 . S
O1130 Eu1121 2.373 . S
O1130 C1132 1.258 . S
O1131 Eu1120 2.392 . S
O1131 C1132 1.242 . S
C1132 O1130 1.258 . S
C1132 O1131 1.242 . S
O1133 Eu1120 2.418 . S
O1133 C1137 1.244 . S
O1134 Eu1121 2.488 . S
O1134 C1150 1.249 . S
O1135 Eu1121 2.471 . S
O1135 C1150 1.244 . S
O1136 Eu1121 2.349 . S
O1136 C1137 1.265 . S
C1137 O1133 1.244 . S
C1137 O1136 1.265 . S
O1138 Eu1120 2.373 . S
O1138 C1151 1.258 . S
O1139 Eu1121 2.392 . S
O1139 C1151 1.242 . S
O1140 Eu1121 2.418 . S
O1140 C1122 1.244 . S
O1141 Eu1120 2.488 . S
O1141 C1129 1.249 . S
O1142 Eu1120 2.471 . S
O1142 C1129 1.244 . S
O1143 Eu1120 2.349 . S
O1143 C1122 1.265 . S
C1144 C1145 1.379 . S
C1144 C1148 1.373 . S
C1144 C1150 1.505 1_556 S
C1145 C1144 1.379 . S
C1145 C1147 1.369 . S
C1145 H1156 0.930 . S
C1146 C1148 1.383 . S
C1146 C1149 1.382 . S
C1146 H1157 0.930 . S
C1147 C1145 1.369 . S
C1147 C1149 1.392 . S
C1147 H1158 0.930 . S
C1148 C1144 1.373 . S
C1148 C1146 1.383 . S
C1148 H1159 0.931 . S
C1149 C1146 1.382 . S
C1149 C1147 1.392 . S
C1150 Eu1121 2.828 . S
C1150 O1134 1.249 . S
C1150 O1135 1.244 . S
C1150 C1144 1.505 1_554 S
C1151 O1138 1.258 . S
C1151 O1139 1.242 . S
H1152 C1124 0.930 . S
H1153 C1125 0.930 . S
H1154 C1126 0.930 . S
H1155 C1127 0.931 . S
H1156 C1145 0.930 . S
H1157 C1146 0.930 . S
H1158 C1147 0.930 . S
H1159 C1148 0.931 . S
Eu1160 C1169 2.828 1_556 S
Eu1160 O1171 2.392 . S
Eu1160 O1173 2.418 . S
Eu1160 O1178 2.373 . S
Eu1160 O1181 2.488 1_556 S
Eu1160 O1182 2.471 1_556 S
Eu1160 O1183 2.349 . S
Eu1161 O1170 2.373 . S
Eu1161 O1174 2.488 . S
Eu1161 O1175 2.471 . S
Eu1161 O1176 2.349 . S
Eu1161 O1179 2.392 . S
Eu1161 O1180 2.418 . S
Eu1161 C1190 2.828 . S
C1162 O1180 1.244 . S
C1162 O1183 1.265 . S
C1163 C1164 1.379 . S
C1163 C1167 1.373 . S
C1163 C1169 1.505 . S
C1164 C1163 1.379 . S
C1164 C1166 1.369 . S
C1164 H1192 0.930 . S
C1165 C1167 1.383 . S
C1165 C1168 1.382 . S
C1165 H1193 0.930 . S
C1166 C1164 1.369 . S
C1166 C1168 1.392 . S
C1166 H1194 0.930 . S
C1167 C1163 1.373 . S
C1167 C1165 1.383 . S
C1167 H1195 0.931 . S
C1168 C1165 1.382 . S
C1168 C1166 1.392 . S
C1169 Eu1160 2.828 1_554 S
C1169 C1163 1.505 . S
C1169 O1181 1.249 . S
C1169 O1182 1.244 . S
O1170 Eu1161 2.373 . S
O1170 C1172 1.258 . S
O1171 Eu1160 2.392 . S
O1171 C1172 1.242 . S
C1172 O1170 1.258 . S
C1172 O1171 1.242 . S
O1173 Eu1160 2.418 . S
O1173 C1177 1.244 . S
O1174 Eu1161 2.488 . S
O1174 C1190 1.249 . S
O1175 Eu1161 2.471 . S
O1175 C1190 1.244 . S
O1176 Eu1161 2.349 . S
O1176 C1177 1.265 . S
C1177 O1173 1.244 . S
C1177 O1176 1.265 . S
O1178 Eu1160 2.373 . S
O1178 C1191 1.258 . S
O1179 Eu1161 2.392 . S
O1179 C1191 1.242 . S
O1180 Eu1161 2.418 . S
O1180 C1162 1.244 . S
O1181 Eu1160 2.488 1_554 S
O1181 C1169 1.249 . S
O1182 Eu1160 2.471 1_554 S
O1182 C1169 1.244 . S
O1183 Eu1160 2.349 . S
O1183 C1162 1.265 . S
C1184 C1185 1.379 . S
C1184 C1188 1.373 . S
C1184 C1190 1.505 . S
C1185 C1184 1.379 . S
C1185 C1187 1.369 . S
C1185 H1196 0.930 . S
C1186 C1188 1.383 . S
C1186 C1189 1.382 . S
C1186 H1197 0.930 . S
C1187 C1185 1.369 . S
C1187 C1189 1.392 . S
C1187 H1198 0.930 . S
C1188 C1184 1.373 . S
C1188 C1186 1.383 . S
C1188 H1199 0.931 . S
C1189 C1186 1.382 . S
C1189 C1187 1.392 . S
C1190 Eu1161 2.828 . S
C1190 O1174 1.249 . S
C1190 O1175 1.244 . S
C1190 C1184 1.505 . S
C1191 O1178 1.258 . S
C1191 O1179 1.242 . S
H1192 C1164 0.930 . S
H1193 C1165 0.930 . S
H1194 C1166 0.930 . S
H1195 C1167 0.931 . S
H1196 C1185 0.930 . S
H1197 C1186 0.930 . S
H1198 C1187 0.930 . S
H1199 C1188 0.931 . S
Eu1200 C1209 2.828 . S
Eu1200 O1211 2.392 . S
Eu1200 O1213 2.418 . S
Eu1200 O1218 2.373 . S
Eu1200 O1221 2.488 . S
Eu1200 O1222 2.471 . S
Eu1200 O1223 2.349 . S
Eu1201 O1210 2.373 . S
Eu1201 O1214 2.488 . S
Eu1201 O1215 2.471 . S
Eu1201 O1216 2.349 . S
Eu1201 O1219 2.392 . S
Eu1201 O1220 2.418 . S
Eu1201 C1230 2.828 . S
C1202 O1220 1.244 . S
C1202 O1223 1.265 . S
C1203 C1204 1.379 . S
C1203 C1207 1.373 1_545 S
C1203 C1209 1.505 . S
C1204 C1203 1.379 . S
C1204 C1206 1.369 . S
C1204 H1232 0.930 . S
C1205 C1207 1.383 . S
C1205 C1208 1.382 1_565 S
C1205 H1233 0.930 . S
C1206 C1204 1.369 . S
C1206 C1208 1.392 . S
C1206 H1234 0.930 . S
C1207 C1203 1.373 1_565 S
C1207 C1205 1.383 . S
C1207 H1235 0.931 . S
C1208 C1205 1.382 1_545 S
C1208 C1206 1.392 . S
C1209 Eu1200 2.828 . S
C1209 C1203 1.505 . S
C1209 O1221 1.249 . S
C1209 O1222 1.244 . S
O1210 Eu1201 2.373 . S
O1210 C1212 1.258 . S
O1211 Eu1200 2.392 . S
O1211 C1212 1.242 . S
C1212 O1210 1.258 . S
C1212 O1211 1.242 . S
O1213 Eu1200 2.418 . S
O1213 C1217 1.244 . S
O1214 Eu1201 2.488 . S
O1214 C1230 1.249 . S
O1215 Eu1201 2.471 . S
O1215 C1230 1.244 . S
O1216 Eu1201 2.349 . S
O1216 C1217 1.265 . S
C1217 O1213 1.244 . S
C1217 O1216 1.265 . S
O1218 Eu1200 2.373 . S
O1218 C1231 1.258 . S
O1219 Eu1201 2.392 . S
O1219 C1231 1.242 . S
O1220 Eu1201 2.418 . S
O1220 C1202 1.244 . S
O1221 Eu1200 2.488 . S
O1221 C1209 1.249 . S
O1222 Eu1200 2.471 . S
O1222 C1209 1.244 . S
O1223 Eu1200 2.349 . S
O1223 C1202 1.265 . S
C1224 C1225 1.379 . S
C1224 C1228 1.373 . S
C1224 C1230 1.505 . S
C1225 C1224 1.379 . S
C1225 C1227 1.369 . S
C1225 H1236 0.930 . S
C1226 C1228 1.383 . S
C1226 C1229 1.382 . S
C1226 H1237 0.930 . S
C1227 C1225 1.369 . S
C1227 C1229 1.392 . S
C1227 H1238 0.930 . S
C1228 C1224 1.373 . S
C1228 C1226 1.383 . S
C1228 H1239 0.931 . S
C1229 C1226 1.382 . S
C1229 C1227 1.392 . S
C1230 Eu1201 2.828 . S
C1230 O1214 1.249 . S
C1230 O1215 1.244 . S
C1230 C1224 1.505 . S
C1231 O1218 1.258 . S
C1231 O1219 1.242 . S
H1232 C1204 0.930 . S
H1233 C1205 0.930 . S
H1234 C1206 0.930 . S
H1235 C1207 0.931 . S
H1236 C1225 0.930 . S
H1237 C1226 0.930 . S
H1238 C1227 0.930 . S
H1239 C1228 0.931 . S
Eu1240 C1249 2.828 . S
Eu1240 O1251 2.392 . S
Eu1240 O1253 2.418 . S
Eu1240 O1258 2.373 . S
Eu1240 O1261 2.488 . S
Eu1240 O1262 2.471 . S
Eu1240 O1263 2.349 . S
Eu1241 O1250 2.373 . S
Eu1241 O1254 2.488 . S
Eu1241 O1255 2.471 . S
Eu1241 O1256 2.349 . S
Eu1241 O1259 2.392 . S
Eu1241 O1260 2.418 . S
Eu1241 C1270 2.828 . S
C1242 O1260 1.244 . S
C1242 O1263 1.265 . S
C1243 C1244 1.379 . S
C1243 C1247 1.373 . S
C1243 C1249 1.505 . S
C1244 C1243 1.379 . S
C1244 C1246 1.369 . S
C1244 H1272 0.930 . S
C1245 C1247 1.383 . S
C1245 C1248 1.382 . S
C1245 H1273 0.930 . S
C1246 C1244 1.369 . S
C1246 C1248 1.392 . S
C1246 H1274 0.930 . S
C1247 C1243 1.373 . S
C1247 C1245 1.383 . S
C1247 H1275 0.931 . S
C1248 C1245 1.382 . S
C1248 C1246 1.392 . S
C1249 Eu1240 2.828 . S
C1249 C1243 1.505 . S
C1249 O1261 1.249 . S
C1249 O1262 1.244 . S
O1250 Eu1241 2.373 . S
O1250 C1252 1.258 . S
O1251 Eu1240 2.392 . S
O1251 C1252 1.242 . S
C1252 O1250 1.258 . S
C1252 O1251 1.242 . S
O1253 Eu1240 2.418 . S
O1253 C1257 1.244 . S
O1254 Eu1241 2.488 . S
O1254 C1270 1.249 . S
O1255 Eu1241 2.471 . S
O1255 C1270 1.244 . S
O1256 Eu1241 2.349 . S
O1256 C1257 1.265 . S
C1257 O1253 1.244 . S
C1257 O1256 1.265 . S
O1258 Eu1240 2.373 . S
O1258 C1271 1.258 . S
O1259 Eu1241 2.392 . S
O1259 C1271 1.242 . S
O1260 Eu1241 2.418 . S
O1260 C1242 1.244 . S
O1261 Eu1240 2.488 . S
O1261 C1249 1.249 . S
O1262 Eu1240 2.471 . S
O1262 C1249 1.244 . S
O1263 Eu1240 2.349 . S
O1263 C1242 1.265 . S
C1264 C1265 1.379 . S
C1264 C1268 1.373 . S
C1264 C1270 1.505 . S
C1265 C1264 1.379 . S
C1265 C1267 1.369 . S
C1265 H1276 0.930 . S
C1266 C1268 1.383 . S
C1266 C1269 1.382 . S
C1266 H1277 0.930 . S
C1267 C1265 1.369 . S
C1267 C1269 1.392 . S
C1267 H1278 0.930 . S
C1268 C1264 1.373 . S
C1268 C1266 1.383 . S
C1268 H1279 0.931 . S
C1269 C1266 1.382 . S
C1269 C1267 1.392 . S
C1270 Eu1241 2.828 . S
C1270 O1254 1.249 . S
C1270 O1255 1.244 . S
C1270 C1264 1.505 . S
C1271 O1258 1.258 . S
C1271 O1259 1.242 . S
H1272 C1244 0.930 . S
H1273 C1245 0.930 . S
H1274 C1246 0.930 . S
H1275 C1247 0.931 . S
H1276 C1265 0.930 . S
H1277 C1266 0.930 . S
H1278 C1267 0.930 . S
H1279 C1268 0.931 . S
C1280 C1281 1.369 . S
C1280 C1282 1.419 . S
C1280 H1284 0.930 . S
C1281 C1280 1.369 . S
C1281 C1290 1.429 . S
C1282 C1280 1.419 . S
C1282 C1283 1.363 . S
C1282 H1285 0.929 . S
C1283 C1282 1.363 . S
C1283 C1289 1.428 . S
H1284 C1280 0.930 . S
H1285 C1282 0.929 . S
S1286 N1287 1.613 . S
S1286 N1288 1.610 . S
N1287 S1286 1.613 . S
N1287 C1290 1.350 . S
N1288 S1286 1.610 . S
N1288 C1289 1.351 . S
C1289 C1283 1.428 . S
C1289 N1288 1.351 . S
C1289 C1290 1.434 . S
C1290 C1281 1.429 . S
C1290 N1287 1.350 . S
C1290 C1289 1.434 . S
C1291 C1292 1.369 . S
C1291 C1293 1.419 . S
C1291 H1295 0.930 . S
C1292 C1291 1.369 . S
C1292 C1301 1.429 . S
C1293 C1291 1.419 . S
C1293 C1294 1.363 . S
C1293 H1296 0.929 . S
C1294 C1293 1.363 . S
C1294 C1300 1.428 . S
H1295 C1291 0.930 . S
H1296 C1293 0.929 . S
S1297 N1298 1.613 . S
S1297 N1299 1.610 . S
N1298 S1297 1.613 . S
N1298 C1301 1.350 . S
N1299 S1297 1.610 . S
N1299 C1300 1.351 . S
C1300 C1294 1.428 . S
C1300 N1299 1.351 . S
C1300 C1301 1.434 . S
C1301 C1292 1.429 . S
C1301 N1298 1.350 . S
C1301 C1300 1.434 . S
C1302 C1303 1.369 . S
C1302 C1304 1.419 . S
C1302 H1306 0.930 1_556 S
C1303 C1302 1.369 . S
C1303 C1312 1.429 . S
C1304 C1302 1.419 . S
C1304 C1305 1.363 . S
C1304 H1307 0.929 1_556 S
C1305 C1304 1.363 . S
C1305 C1311 1.428 . S
H1306 C1302 0.930 1_554 S
H1307 C1304 0.929 1_554 S
S1308 N1309 1.613 . S
S1308 N1310 1.610 . S
N1309 S1308 1.613 . S
N1309 C1312 1.350 . S
N1310 S1308 1.610 . S
N1310 C1311 1.351 . S
C1311 C1305 1.428 . S
C1311 N1310 1.351 . S
C1311 C1312 1.434 . S
C1312 C1303 1.429 . S
C1312 N1309 1.350 . S
C1312 C1311 1.434 . S
C1313 C1314 1.369 . S
C1313 C1315 1.419 . S
C1313 H1317 0.930 . S
C1314 C1313 1.369 . S
C1314 C1323 1.429 . S
C1315 C1313 1.419 . S
C1315 C1316 1.363 . S
C1315 H1318 0.929 . S
C1316 C1315 1.363 . S
C1316 C1322 1.428 . S
H1317 C1313 0.930 . S
H1318 C1315 0.929 . S
S1319 N1320 1.613 . S
S1319 N1321 1.610 . S
N1320 S1319 1.613 . S
N1320 C1323 1.350 . S
N1321 S1319 1.610 . S
N1321 C1322 1.351 . S
C1322 C1316 1.428 . S
C1322 N1321 1.351 . S
C1322 C1323 1.434 . S
C1323 C1314 1.429 . S
C1323 N1320 1.350 . S
C1323 C1322 1.434 . S
C1324 C1325 1.369 . S
C1324 C1326 1.419 . S
C1324 H1328 0.930 . S
C1325 C1324 1.369 . S
C1325 C1334 1.429 . S
C1326 C1324 1.419 . S
C1326 C1327 1.363 . S
C1326 H1329 0.929 . S
C1327 C1326 1.363 . S
C1327 C1333 1.428 . S
H1328 C1324 0.930 . S
H1329 C1326 0.929 . S
S1330 N1331 1.613 1_554 S
S1330 N1332 1.610 1_554 S
N1331 S1330 1.613 1_556 S
N1331 C1334 1.350 . S
N1332 S1330 1.610 1_556 S
N1332 C1333 1.351 . S
C1333 C1327 1.428 . S
C1333 N1332 1.351 . S
C1333 C1334 1.434 . S
C1334 C1325 1.429 . S
C1334 N1331 1.350 . S
C1334 C1333 1.434 . S
C1335 C1336 1.369 . S
C1335 C1337 1.419 . S
C1335 H1339 0.930 . S
C1336 C1335 1.369 . S
C1336 C1345 1.429 . S
C1337 C1335 1.419 . S
C1337 C1338 1.363 . S
C1337 H1340 0.929 . S
C1338 C1337 1.363 . S
C1338 C1344 1.428 . S
H1339 C1335 0.930 . S
H1340 C1337 0.929 . S
S1341 N1342 1.613 . S
S1341 N1343 1.610 . S
N1342 S1341 1.613 . S
N1342 C1345 1.350 . S
N1343 S1341 1.610 . S
N1343 C1344 1.351 . S
C1344 C1338 1.428 . S
C1344 N1343 1.351 . S
C1344 C1345 1.434 . S
C1345 C1336 1.429 . S
C1345 N1342 1.350 . S
C1345 C1344 1.434 . S
C1346 C1347 1.369 . S
C1346 C1348 1.419 . S
C1346 H1350 0.930 . S
C1347 C1346 1.369 . S
C1347 C1356 1.429 . S
C1348 C1346 1.419 . S
C1348 C1349 1.363 . S
C1348 H1351 0.929 . S
C1349 C1348 1.363 . S
C1349 C1355 1.428 . S
H1350 C1346 0.930 . S
H1351 C1348 0.929 . S
S1352 N1353 1.613 . S
S1352 N1354 1.610 . S
N1353 S1352 1.613 . S
N1353 C1356 1.350 . S
N1354 S1352 1.610 . S
N1354 C1355 1.351 . S
C1355 C1349 1.428 . S
C1355 N1354 1.351 . S
C1355 C1356 1.434 . S
C1356 C1347 1.429 . S
C1356 N1353 1.350 . S
C1356 C1355 1.434 . S
C1357 C1358 1.369 . S
C1357 C1359 1.419 . S
C1357 H1361 0.930 . S
C1358 C1357 1.369 . S
C1358 C1367 1.429 . S
C1359 C1357 1.419 . S
C1359 C1360 1.363 . S
C1359 H1362 0.929 . S
C1360 C1359 1.363 . S
C1360 C1366 1.428 . S
H1361 C1357 0.930 . S
H1362 C1359 0.929 . S
S1363 N1364 1.613 . S
S1363 N1365 1.610 . S
N1364 S1363 1.613 . S
N1364 C1367 1.350 . S
N1365 S1363 1.610 . S
N1365 C1366 1.351 . S
C1366 C1360 1.428 . S
C1366 N1365 1.351 . S
C1366 C1367 1.434 . S
C1367 C1358 1.429 . S
C1367 N1364 1.350 . S
C1367 C1366 1.434 . S
C1368 C1369 1.369 . S
C1368 C1370 1.419 1_545 S
C1368 H1372 0.930 . S
C1369 C1368 1.369 . S
C1369 C1378 1.429 . S
C1370 C1368 1.419 1_565 S
C1370 C1371 1.363 . S
C1370 H1373 0.929 . S
C1371 C1370 1.363 . S
C1371 C1377 1.428 . S
H1372 C1368 0.930 . S
H1373 C1370 0.929 . S
S1374 N1375 1.613 1_565 S
S1374 N1376 1.610 . S
N1375 S1374 1.613 1_545 S
N1375 C1378 1.350 1_554 S
N1376 S1374 1.610 . S
N1376 C1377 1.351 1_554 S
C1377 C1371 1.428 . S
C1377 N1376 1.351 1_556 S
C1377 C1378 1.434 1_565 S
C1378 C1369 1.429 . S
C1378 N1375 1.350 1_556 S
C1378 C1377 1.434 1_545 S
C1379 C1380 1.369 . S
C1379 C1381 1.419 . S
C1379 H1383 0.930 . S
C1380 C1379 1.369 . S
C1380 C1389 1.429 . S
C1381 C1379 1.419 . S
C1381 C1382 1.363 . S
C1381 H1384 0.929 . S
C1382 C1381 1.363 . S
C1382 C1388 1.428 . S
H1383 C1379 0.930 . S
H1384 C1381 0.929 . S
S1385 N1386 1.613 . S
S1385 N1387 1.610 . S
N1386 S1385 1.613 . S
N1386 C1389 1.350 . S
N1387 S1385 1.610 . S
N1387 C1388 1.351 . S
C1388 C1382 1.428 . S
C1388 N1387 1.351 . S
C1388 C1389 1.434 . S
C1389 C1380 1.429 . S
C1389 N1386 1.350 . S
C1389 C1388 1.434 . S
C1390 C1391 1.369 . S
C1390 C1392 1.419 1_545 S
C1390 H1394 0.930 . S
C1391 C1390 1.369 . S
C1391 C1400 1.429 . S
C1392 C1390 1.419 1_565 S
C1392 C1393 1.363 . S
C1392 H1395 0.929 . S
C1393 C1392 1.363 . S
C1393 C1399 1.428 . S
H1394 C1390 0.930 . S
H1395 C1392 0.929 . S
S1396 N1397 1.613 . S
S1396 N1398 1.610 1_545 S
N1397 S1396 1.613 . S
N1397 C1400 1.350 . S
N1398 S1396 1.610 1_565 S
N1398 C1399 1.351 . S
C1399 C1393 1.428 . S
C1399 N1398 1.351 . S
C1399 C1400 1.434 1_565 S
C1400 C1391 1.429 . S
C1400 N1397 1.350 . S
C1400 C1399 1.434 1_545 S
C1401 C1402 1.369 . S
C1401 C1403 1.419 . S
C1401 H1405 0.930 . S
C1402 C1401 1.369 . S
C1402 C1411 1.429 . S
C1403 C1401 1.419 . S
C1403 C1404 1.363 . S
C1403 H1406 0.929 . S
C1404 C1403 1.363 . S
C1404 C1410 1.428 . S
H1405 C1401 0.930 . S
H1406 C1403 0.929 . S
S1407 N1408 1.613 . S
S1407 N1409 1.610 . S
N1408 S1407 1.613 . S
N1408 C1411 1.350 . S
N1409 S1407 1.610 . S
N1409 C1410 1.351 . S
C1410 C1404 1.428 . S
C1410 N1409 1.351 . S
C1410 C1411 1.434 . S
C1411 C1402 1.429 . S
C1411 N1408 1.350 . S
C1411 C1410 1.434 . S
C1412 C1413 1.369 . S
C1412 C1414 1.419 1_545 S
C1412 H1416 0.930 . S
C1413 C1412 1.369 . S
C1413 C1422 1.429 . S
C1414 C1412 1.419 1_565 S
C1414 C1415 1.363 . S
C1414 H1417 0.929 . S
C1415 C1414 1.363 . S
C1415 C1421 1.428 . S
H1416 C1412 0.930 . S
H1417 C1414 0.929 . S
S1418 N1419 1.613 . S
S1418 N1420 1.610 1_545 S
N1419 S1418 1.613 . S
N1419 C1422 1.350 . S
N1420 S1418 1.610 1_565 S
N1420 C1421 1.351 . S
C1421 C1415 1.428 . S
C1421 N1420 1.351 . S
C1421 C1422 1.434 1_565 S
C1422 C1413 1.429 . S
C1422 N1419 1.350 . S
C1422 C1421 1.434 1_545 S
C1423 C1424 1.369 . S
C1423 C1425 1.419 . S
C1423 H1427 0.930 . S
C1424 C1423 1.369 . S
C1424 C1433 1.429 . S
C1425 C1423 1.419 . S
C1425 C1426 1.363 . S
C1425 H1428 0.929 . S
C1426 C1425 1.363 . S
C1426 C1432 1.428 . S
H1427 C1423 0.930 . S
H1428 C1425 0.929 . S
S1429 N1430 1.613 . S
S1429 N1431 1.610 . S
N1430 S1429 1.613 . S
N1430 C1433 1.350 . S
N1431 S1429 1.610 . S
N1431 C1432 1.351 . S
C1432 C1426 1.428 . S
C1432 N1431 1.351 . S
C1432 C1433 1.434 . S
C1433 C1424 1.429 . S
C1433 N1430 1.350 . S
C1433 C1432 1.434 . S
C1434 C1435 1.369 . S
C1434 C1436 1.419 1_565 S
C1434 H1438 0.930 1_556 S
C1435 C1434 1.369 . S
C1435 C1444 1.429 . S
C1436 C1434 1.419 1_545 S
C1436 C1437 1.363 . S
C1436 H1439 0.929 1_556 S
C1437 C1436 1.363 . S
C1437 C1443 1.428 . S
H1438 C1434 0.930 1_554 S
H1439 C1436 0.929 1_554 S
S1440 N1441 1.613 . S
S1440 N1442 1.610 1_565 S
N1441 S1440 1.613 . S
N1441 C1444 1.350 . S
N1442 S1440 1.610 1_545 S
N1442 C1443 1.351 . S
C1443 C1437 1.428 . S
C1443 N1442 1.351 . S
C1443 C1444 1.434 1_545 S
C1444 C1435 1.429 . S
C1444 N1441 1.350 . S
C1444 C1443 1.434 1_565 S
C1445 C1446 1.369 . S
C1445 C1447 1.419 . S
C1445 H1449 0.930 . S
C1446 C1445 1.369 . S
C1446 C1455 1.429 . S
C1447 C1445 1.419 . S
C1447 C1448 1.363 . S
C1447 H1450 0.929 . S
C1448 C1447 1.363 . S
C1448 C1454 1.428 . S
H1449 C1445 0.930 . S
H1450 C1447 0.929 . S
S1451 N1452 1.613 . S
S1451 N1453 1.610 . S
N1452 S1451 1.613 . S
N1452 C1455 1.350 . S
N1453 S1451 1.610 . S
N1453 C1454 1.351 . S
C1454 C1448 1.428 . S
C1454 N1453 1.351 . S
C1454 C1455 1.434 . S
C1455 C1446 1.429 . S
C1455 N1452 1.350 . S
C1455 C1454 1.434 . S
C1456 C1457 1.369 . S
C1456 C1458 1.419 . S
C1456 H1460 0.930 . S
C1457 C1456 1.369 . S
C1457 C1466 1.429 . S
C1458 C1456 1.419 . S
C1458 C1459 1.363 . S
C1458 H1461 0.929 . S
C1459 C1458 1.363 . S
C1459 C1465 1.428 . S
H1460 C1456 0.930 . S
H1461 C1458 0.929 . S
S1462 N1463 1.613 . S
S1462 N1464 1.610 . S
N1463 S1462 1.613 . S
N1463 C1466 1.350 . S
N1464 S1462 1.610 . S
N1464 C1465 1.351 . S
C1465 C1459 1.428 . S
C1465 N1464 1.351 . S
C1465 C1466 1.434 . S
C1466 C1457 1.429 . S
C1466 N1463 1.350 . S
C1466 C1465 1.434 . S
C1467 C1468 1.369 . S
C1467 C1469 1.419 . S
C1467 H1471 0.930 . S
C1468 C1467 1.369 . S
C1468 C1477 1.429 . S
C1469 C1467 1.419 . S
C1469 C1470 1.363 . S
C1469 H1472 0.929 . S
C1470 C1469 1.363 . S
C1470 C1476 1.428 . S
H1471 C1467 0.930 . S
H1472 C1469 0.929 . S
S1473 N1474 1.613 . S
S1473 N1475 1.610 . S
N1474 S1473 1.613 . S
N1474 C1477 1.350 . S
N1475 S1473 1.610 . S
N1475 C1476 1.351 . S
C1476 C1470 1.428 . S
C1476 N1475 1.351 . S
C1476 C1477 1.434 . S
C1477 C1468 1.429 . S
C1477 N1474 1.350 . S
C1477 C1476 1.434 . S
C1478 C1479 1.369 . S
C1478 C1480 1.419 . S
C1478 H1482 0.930 . S
C1479 C1478 1.369 . S
C1479 C1488 1.429 . S
C1480 C1478 1.419 . S
C1480 C1481 1.363 . S
C1480 H1483 0.929 . S
C1481 C1480 1.363 . S
C1481 C1487 1.428 . S
H1482 C1478 0.930 . S
H1483 C1480 0.929 . S
S1484 N1485 1.613 . S
S1484 N1486 1.610 . S
N1485 S1484 1.613 . S
N1485 C1488 1.350 . S
N1486 S1484 1.610 . S
N1486 C1487 1.351 . S
C1487 C1481 1.428 . S
C1487 N1486 1.351 . S
C1487 C1488 1.434 . S
C1488 C1479 1.429 . S
C1488 N1485 1.350 . S
C1488 C1487 1.434 . S
C1489 C1490 1.369 . S
C1489 C1491 1.419 . S
C1489 H1493 0.930 . S
C1490 C1489 1.369 . S
C1490 C1499 1.429 . S
C1491 C1489 1.419 . S
C1491 C1492 1.363 . S
C1491 H1494 0.929 . S
C1492 C1491 1.363 . S
C1492 C1498 1.428 . S
H1493 C1489 0.930 . S
H1494 C1491 0.929 . S
S1495 N1496 1.613 . S
S1495 N1497 1.610 . S
N1496 S1495 1.613 . S
N1496 C1499 1.350 . S
N1497 S1495 1.610 . S
N1497 C1498 1.351 . S
C1498 C1492 1.428 . S
C1498 N1497 1.351 . S
C1498 C1499 1.434 . S
C1499 C1490 1.429 . S
C1499 N1496 1.350 . S
C1499 C1498 1.434 . S
C1500 C1501 1.369 . S
C1500 C1502 1.419 . S
C1500 H1504 0.930 . S
C1501 C1500 1.369 . S
C1501 C1510 1.429 . S
C1502 C1500 1.419 . S
C1502 C1503 1.363 . S
C1502 H1505 0.929 . S
C1503 C1502 1.363 . S
C1503 C1509 1.428 . S
H1504 C1500 0.930 . S
H1505 C1502 0.929 . S
S1506 N1507 1.613 . S
S1506 N1508 1.610 . S
N1507 S1506 1.613 . S
N1507 C1510 1.350 . S
N1508 S1506 1.610 . S
N1508 C1509 1.351 . S
C1509 C1503 1.428 . S
C1509 N1508 1.351 . S
C1509 C1510 1.434 . S
C1510 C1501 1.429 . S
C1510 N1507 1.350 . S
C1510 C1509 1.434 . S
C1511 C1512 1.369 . S
C1511 C1513 1.419 . S
C1511 H1515 0.930 . S
C1512 C1511 1.369 . S
C1512 C1521 1.429 . S
C1513 C1511 1.419 . S
C1513 C1514 1.363 . S
C1513 H1516 0.929 . S
C1514 C1513 1.363 . S
C1514 C1520 1.428 . S
H1515 C1511 0.930 . S
H1516 C1513 0.929 . S
S1517 N1518 1.613 . S
S1517 N1519 1.610 . S
N1518 S1517 1.613 . S
N1518 C1521 1.350 . S
N1519 S1517 1.610 . S
N1519 C1520 1.351 . S
C1520 C1514 1.428 . S
C1520 N1519 1.351 . S
C1520 C1521 1.434 . S
C1521 C1512 1.429 . S
C1521 N1518 1.350 . S
C1521 C1520 1.434 . S
C1522 C1523 1.369 . S
C1522 C1524 1.419 . S
C1522 H1526 0.930 . S
C1523 C1522 1.369 . S
C1523 C1532 1.429 . S
C1524 C1522 1.419 . S
C1524 C1525 1.363 . S
C1524 H1527 0.929 . S
C1525 C1524 1.363 . S
C1525 C1531 1.428 . S
H1526 C1522 0.930 . S
H1527 C1524 0.929 . S
S1528 N1529 1.613 . S
S1528 N1530 1.610 . S
N1529 S1528 1.613 . S
N1529 C1532 1.350 . S
N1530 S1528 1.610 . S
N1530 C1531 1.351 . S
C1531 C1525 1.428 . S
C1531 N1530 1.351 . S
C1531 C1532 1.434 . S
C1532 C1523 1.429 . S
C1532 N1529 1.350 . S
C1532 C1531 1.434 . S
C1533 C1534 1.369 . S
C1533 C1535 1.419 . S
C1533 H1537 0.930 . S
C1534 C1533 1.369 . S
C1534 C1543 1.429 . S
C1535 C1533 1.419 . S
C1535 C1536 1.363 . S
C1535 H1538 0.929 . S
C1536 C1535 1.363 . S
C1536 C1542 1.428 . S
H1537 C1533 0.930 . S
H1538 C1535 0.929 . S
S1539 N1540 1.613 . S
S1539 N1541 1.610 . S
N1540 S1539 1.613 . S
N1540 C1543 1.350 . S
N1541 S1539 1.610 . S
N1541 C1542 1.351 . S
C1542 C1536 1.428 . S
C1542 N1541 1.351 . S
C1542 C1543 1.434 . S
C1543 C1534 1.429 . S
C1543 N1540 1.350 . S
C1543 C1542 1.434 . S
C1544 C1545 1.369 . S
C1544 C1546 1.419 . S
C1544 H1548 0.930 . S
C1545 C1544 1.369 . S
C1545 C1554 1.429 . S
C1546 C1544 1.419 . S
C1546 C1547 1.363 . S
C1546 H1549 0.929 . S
C1547 C1546 1.363 . S
C1547 C1553 1.428 . S
H1548 C1544 0.930 . S
H1549 C1546 0.929 . S
S1550 N1551 1.613 . S
S1550 N1552 1.610 . S
N1551 S1550 1.613 . S
N1551 C1554 1.350 . S
N1552 S1550 1.610 . S
N1552 C1553 1.351 . S
C1553 C1547 1.428 . S
C1553 N1552 1.351 . S
C1553 C1554 1.434 . S
C1554 C1545 1.429 . S
C1554 N1551 1.350 . S
C1554 C1553 1.434 . S
C1555 C1556 1.369 . S
C1555 C1557 1.419 . S
C1555 H1559 0.930 . S
C1556 C1555 1.369 . S
C1556 C1565 1.429 . S
C1557 C1555 1.419 . S
C1557 C1558 1.363 . S
C1557 H1560 0.929 . S
C1558 C1557 1.363 . S
C1558 C1564 1.428 . S
H1559 C1555 0.930 . S
H1560 C1557 0.929 . S
S1561 N1562 1.613 . S
S1561 N1563 1.610 . S
N1562 S1561 1.613 . S
N1562 C1565 1.350 . S
N1563 S1561 1.610 . S
N1563 C1564 1.351 . S
C1564 C1558 1.428 . S
C1564 N1563 1.351 . S
C1564 C1565 1.434 . S
C1565 C1556 1.429 . S
C1565 N1562 1.350 . S
C1565 C1564 1.434 . S
C1566 C1567 1.369 . S
C1566 C1568 1.419 . S
C1566 H1570 0.930 . S
C1567 C1566 1.369 . S
C1567 C1576 1.429 . S
C1568 C1566 1.419 . S
C1568 C1569 1.363 . S
C1568 H1571 0.929 . S
C1569 C1568 1.363 . S
C1569 C1575 1.428 . S
H1570 C1566 0.930 . S
H1571 C1568 0.929 . S
S1572 N1573 1.613 . S
S1572 N1574 1.610 . S
N1573 S1572 1.613 . S
N1573 C1576 1.350 . S
N1574 S1572 1.610 . S
N1574 C1575 1.351 . S
C1575 C1569 1.428 . S
C1575 N1574 1.351 . S
C1575 C1576 1.434 . S
C1576 C1567 1.429 . S
C1576 N1573 1.350 . S
C1576 C1575 1.434 . S
C1577 C1578 1.369 . S
C1577 C1579 1.419 . S
C1577 H1581 0.930 . S
C1578 C1577 1.369 . S
C1578 C1587 1.429 . S
C1579 C1577 1.419 . S
C1579 C1580 1.363 . S
C1579 H1582 0.929 . S
C1580 C1579 1.363 . S
C1580 C1586 1.428 . S
H1581 C1577 0.930 . S
H1582 C1579 0.929 . S
S1583 N1584 1.613 . S
S1583 N1585 1.610 . S
N1584 S1583 1.613 . S
N1584 C1587 1.350 . S
N1585 S1583 1.610 . S
N1585 C1586 1.351 . S
C1586 C1580 1.428 . S
C1586 N1585 1.351 . S
C1586 C1587 1.434 . S
C1587 C1578 1.429 . S
C1587 N1584 1.350 . S
C1587 C1586 1.434 . S
C1588 C1589 1.369 . S
C1588 C1590 1.419 . S
C1588 H1592 0.930 . S
C1589 C1588 1.369 . S
C1589 C1598 1.429 . S
C1590 C1588 1.419 . S
C1590 C1591 1.363 . S
C1590 H1593 0.929 . S
C1591 C1590 1.363 . S
C1591 C1597 1.428 . S
H1592 C1588 0.930 . S
H1593 C1590 0.929 . S
S1594 N1595 1.613 . S
S1594 N1596 1.610 . S
N1595 S1594 1.613 . S
N1595 C1598 1.350 . S
N1596 S1594 1.610 . S
N1596 C1597 1.351 . S
C1597 C1591 1.428 . S
C1597 N1596 1.351 . S
C1597 C1598 1.434 . S
C1598 C1589 1.429 . S
C1598 N1595 1.350 . S
C1598 C1597 1.434 . S
C1599 C1600 1.369 . S
C1599 C1601 1.419 . S
C1599 H1603 0.930 . S
C1600 C1599 1.369 . S
C1600 C1609 1.429 . S
C1601 C1599 1.419 . S
C1601 C1602 1.363 . S
C1601 H1604 0.929 . S
C1602 C1601 1.363 . S
C1602 C1608 1.428 . S
H1603 C1599 0.930 . S
H1604 C1601 0.929 . S
S1605 N1606 1.613 . S
S1605 N1607 1.610 . S
N1606 S1605 1.613 . S
N1606 C1609 1.350 . S
N1607 S1605 1.610 . S
N1607 C1608 1.351 . S
C1608 C1602 1.428 . S
C1608 N1607 1.351 . S
C1608 C1609 1.434 . S
C1609 C1600 1.429 . S
C1609 N1606 1.350 . S
C1609 C1608 1.434 . S
C1610 C1611 1.369 . S
C1610 C1612 1.419 . S
C1610 H1614 0.930 . S
C1611 C1610 1.369 . S
C1611 C1620 1.429 . S
C1612 C1610 1.419 . S
C1612 C1613 1.363 . S
C1612 H1615 0.929 . S
C1613 C1612 1.363 . S
C1613 C1619 1.428 . S
H1614 C1610 0.930 . S
H1615 C1612 0.929 . S
S1616 N1617 1.613 . S
S1616 N1618 1.610 . S
N1617 S1616 1.613 . S
N1617 C1620 1.350 . S
N1618 S1616 1.610 . S
N1618 C1619 1.351 . S
C1619 C1613 1.428 . S
C1619 N1618 1.351 . S
C1619 C1620 1.434 . S
C1620 C1611 1.429 . S
C1620 N1617 1.350 . S
C1620 C1619 1.434 . S
C1621 C1622 1.369 . S
C1621 C1623 1.419 . S
C1621 H1625 0.930 . S
C1622 C1621 1.369 . S
C1622 C1631 1.429 . S
C1623 C1621 1.419 . S
C1623 C1624 1.363 . S
C1623 H1626 0.929 . S
C1624 C1623 1.363 . S
C1624 C1630 1.428 . S
H1625 C1621 0.930 . S
H1626 C1623 0.929 . S
S1627 N1628 1.613 . S
S1627 N1629 1.610 . S
N1628 S1627 1.613 . S
N1628 C1631 1.350 . S
N1629 S1627 1.610 . S
N1629 C1630 1.351 . S
C1630 C1624 1.428 . S
C1630 N1629 1.351 . S
C1630 C1631 1.434 . S
C1631 C1622 1.429 . S
C1631 N1628 1.350 . S
C1631 C1630 1.434 . S
C1632 C1633 1.369 . S
C1632 C1634 1.419 . S
C1632 H1636 0.930 . S
C1633 C1632 1.369 . S
C1633 C1642 1.429 1_655 S
C1634 C1632 1.419 . S
C1634 C1635 1.363 1_655 S
C1634 H1637 0.929 . S
C1635 C1634 1.363 1_455 S
C1635 C1641 1.428 . S
H1636 C1632 0.930 . S
H1637 C1634 0.929 . S
S1638 N1639 1.613 . S
S1638 N1640 1.610 . S
N1639 S1638 1.613 . S
N1639 C1642 1.350 . S
N1640 S1638 1.610 . S
N1640 C1641 1.351 . S
C1641 C1635 1.428 . S
C1641 N1640 1.351 . S
C1641 C1642 1.434 . S
C1642 C1633 1.429 1_455 S
C1642 N1639 1.350 . S
C1642 C1641 1.434 . S
C1643 C1644 1.369 . S
C1643 C1645 1.419 . S
C1643 H1647 0.930 . S
C1644 C1643 1.369 . S
C1644 C1653 1.429 . S
C1645 C1643 1.419 . S
C1645 C1646 1.363 . S
C1645 H1648 0.929 . S
C1646 C1645 1.363 . S
C1646 C1652 1.428 . S
H1647 C1643 0.930 . S
H1648 C1645 0.929 . S
S1649 N1650 1.613 . S
S1649 N1651 1.610 . S
N1650 S1649 1.613 . S
N1650 C1653 1.350 . S
N1651 S1649 1.610 . S
N1651 C1652 1.351 . S
C1652 C1646 1.428 . S
C1652 N1651 1.351 . S
C1652 C1653 1.434 . S
C1653 C1644 1.429 . S
C1653 N1650 1.350 . S
C1653 C1652 1.434 . S
C1654 C1655 1.369 . S
C1654 C1656 1.419 . S
C1654 H1658 0.930 . S
C1655 C1654 1.369 . S
C1655 C1664 1.429 . S
C1656 C1654 1.419 . S
C1656 C1657 1.363 . S
C1656 H1659 0.929 . S
C1657 C1656 1.363 . S
C1657 C1663 1.428 . S
H1658 C1654 0.930 . S
H1659 C1656 0.929 . S
S1660 N1661 1.613 . S
S1660 N1662 1.610 . S
N1661 S1660 1.613 . S
N1661 C1664 1.350 . S
N1662 S1660 1.610 . S
N1662 C1663 1.351 . S
C1663 C1657 1.428 . S
C1663 N1662 1.351 . S
C1663 C1664 1.434 . S
C1664 C1655 1.429 . S
C1664 N1661 1.350 . S
C1664 C1663 1.434 . S
C1665 C1666 1.369 . S
C1665 C1667 1.419 . S
C1665 H1669 0.930 . S
C1666 C1665 1.369 . S
C1666 C1675 1.429 . S
C1667 C1665 1.419 . S
C1667 C1668 1.363 . S
C1667 H1670 0.929 . S
C1668 C1667 1.363 . S
C1668 C1674 1.428 . S
H1669 C1665 0.930 . S
H1670 C1667 0.929 . S
S1671 N1672 1.613 . S
S1671 N1673 1.610 . S
N1672 S1671 1.613 . S
N1672 C1675 1.350 . S
N1673 S1671 1.610 . S
N1673 C1674 1.351 . S
C1674 C1668 1.428 . S
C1674 N1673 1.351 . S
C1674 C1675 1.434 . S
C1675 C1666 1.429 . S
C1675 N1672 1.350 . S
C1675 C1674 1.434 . S
C1676 C1677 1.369 1_455 S
C1676 C1678 1.419 . S
C1676 H1680 0.930 . S
C1677 C1676 1.369 1_655 S
C1677 C1686 1.429 . S
C1678 C1676 1.419 . S
C1678 C1679 1.363 . S
C1678 H1681 0.929 . S
C1679 C1678 1.363 . S
C1679 C1685 1.428 1_455 S
H1680 C1676 0.930 . S
H1681 C1678 0.929 . S
S1682 N1683 1.613 . S
S1682 N1684 1.610 . S
N1683 S1682 1.613 . S
N1683 C1686 1.350 . S
N1684 S1682 1.610 . S
N1684 C1685 1.351 . S
C1685 C1679 1.428 1_655 S
C1685 N1684 1.351 . S
C1685 C1686 1.434 . S
C1686 C1677 1.429 . S
C1686 N1683 1.350 . S
C1686 C1685 1.434 . S
C1687 C1688 1.369 . S
C1687 C1689 1.419 . S
C1687 H1691 0.930 . S
C1688 C1687 1.369 . S
C1688 C1697 1.429 . S
C1689 C1687 1.419 . S
C1689 C1690 1.363 . S
C1689 H1692 0.929 . S
C1690 C1689 1.363 . S
C1690 C1696 1.428 . S
H1691 C1687 0.930 . S
H1692 C1689 0.929 . S
S1693 N1694 1.613 1_554 S
S1693 N1695 1.610 . S
N1694 S1693 1.613 1_556 S
N1694 C1697 1.350 . S
N1695 S1693 1.610 . S
N1695 C1696 1.351 1_554 S
C1696 C1690 1.428 . S
C1696 N1695 1.351 1_556 S
C1696 C1697 1.434 . S
C1697 C1688 1.429 . S
C1697 N1694 1.350 . S
C1697 C1696 1.434 . S
C1698 C1699 1.369 . S
C1698 C1700 1.419 . S
C1698 H1702 0.930 . S
C1699 C1698 1.369 . S
C1699 C1708 1.429 . S
C1700 C1698 1.419 . S
C1700 C1701 1.363 . S
C1700 H1703 0.929 . S
C1701 C1700 1.363 . S
C1701 C1707 1.428 . S
H1702 C1698 0.930 . S
H1703 C1700 0.929 . S
S1704 N1705 1.613 . S
S1704 N1706 1.610 . S
N1705 S1704 1.613 . S
N1705 C1708 1.350 . S
N1706 S1704 1.610 . S
N1706 C1707 1.351 . S
C1707 C1701 1.428 . S
C1707 N1706 1.351 . S
C1707 C1708 1.434 . S
C1708 C1699 1.429 . S
C1708 N1705 1.350 . S
C1708 C1707 1.434 . S
C1709 C1710 1.369 . S
C1709 C1711 1.419 . S
C1709 H1713 0.930 . S
C1710 C1709 1.369 . S
C1710 C1719 1.429 . S
C1711 C1709 1.419 . S
C1711 C1712 1.363 . S
C1711 H1714 0.929 . S
C1712 C1711 1.363 . S
C1712 C1718 1.428 . S
H1713 C1709 0.930 . S
H1714 C1711 0.929 . S
S1715 N1716 1.613 . S
S1715 N1717 1.610 . S
N1716 S1715 1.613 . S
N1716 C1719 1.350 . S
N1717 S1715 1.610 . S
N1717 C1718 1.351 . S
C1718 C1712 1.428 . S
C1718 N1717 1.351 . S
C1718 C1719 1.434 . S
C1719 C1710 1.429 . S
C1719 N1716 1.350 . S
C1719 C1718 1.434 . S
C1720 C1721 1.369 . S
C1720 C1722 1.419 . S
C1720 H1724 0.930 . S
C1721 C1720 1.369 . S
C1721 C1730 1.429 . S
C1722 C1720 1.419 . S
C1722 C1723 1.363 . S
C1722 H1725 0.929 1_556 S
C1723 C1722 1.363 . S
C1723 C1729 1.428 . S
H1724 C1720 0.930 . S
H1725 C1722 0.929 1_554 S
S1726 N1727 1.613 . S
S1726 N1728 1.610 . S
N1727 S1726 1.613 . S
N1727 C1730 1.350 . S
N1728 S1726 1.610 . S
N1728 C1729 1.351 . S
C1729 C1723 1.428 . S
C1729 N1728 1.351 . S
C1729 C1730 1.434 . S
C1730 C1721 1.429 . S
C1730 N1727 1.350 . S
C1730 C1729 1.434 . S
C1731 C1732 1.369 . S
C1731 C1733 1.419 . S
C1731 H1735 0.930 . S
C1732 C1731 1.369 . S
C1732 C1741 1.429 . S
C1733 C1731 1.419 . S
C1733 C1734 1.363 . S
C1733 H1736 0.929 . S
C1734 C1733 1.363 . S
C1734 C1740 1.428 . S
H1735 C1731 0.930 . S
H1736 C1733 0.929 . S
S1737 N1738 1.613 . S
S1737 N1739 1.610 . S
N1738 S1737 1.613 . S
N1738 C1741 1.350 . S
N1739 S1737 1.610 . S
N1739 C1740 1.351 . S
C1740 C1734 1.428 . S
C1740 N1739 1.351 . S
C1740 C1741 1.434 . S
C1741 C1732 1.429 . S
C1741 N1738 1.350 . S
C1741 C1740 1.434 . S
C1742 C1743 1.369 . S
C1742 C1744 1.419 . S
C1742 H1746 0.930 . S
C1743 C1742 1.369 . S
C1743 C1752 1.429 . S
C1744 C1742 1.419 . S
C1744 C1745 1.363 . S
C1744 H1747 0.929 . S
C1745 C1744 1.363 . S
C1745 C1751 1.428 . S
H1746 C1742 0.930 . S
H1747 C1744 0.929 . S
S1748 N1749 1.613 . S
S1748 N1750 1.610 . S
N1749 S1748 1.613 . S
N1749 C1752 1.350 . S
N1750 S1748 1.610 . S
N1750 C1751 1.351 . S
C1751 C1745 1.428 . S
C1751 N1750 1.351 . S
C1751 C1752 1.434 . S
C1752 C1743 1.429 . S
C1752 N1749 1.350 . S
C1752 C1751 1.434 . S
C1753 C1754 1.369 . S
C1753 C1755 1.419 . S
C1753 H1757 0.930 . S
C1754 C1753 1.369 . S
C1754 C1763 1.429 . S
C1755 C1753 1.419 . S
C1755 C1756 1.363 . S
C1755 H1758 0.929 . S
C1756 C1755 1.363 . S
C1756 C1762 1.428 . S
H1757 C1753 0.930 . S
H1758 C1755 0.929 . S
S1759 N1760 1.613 . S
S1759 N1761 1.610 1_554 S
N1760 S1759 1.613 . S
N1760 C1763 1.350 1_554 S
N1761 S1759 1.610 1_556 S
N1761 C1762 1.351 . S
C1762 C1756 1.428 . S
C1762 N1761 1.351 . S
C1762 C1763 1.434 . S
C1763 C1754 1.429 . S
C1763 N1760 1.350 1_556 S
C1763 C1762 1.434 . S
C1764 C1765 1.369 . S
C1764 C1766 1.419 . S
C1764 H1768 0.930 . S
C1765 C1764 1.369 . S
C1765 C1774 1.429 1_545 S
C1766 C1764 1.419 . S
C1766 C1767 1.363 1_545 S
C1766 H1769 0.929 . S
C1767 C1766 1.363 1_565 S
C1767 C1773 1.428 . S
H1768 C1764 0.930 . S
H1769 C1766 0.929 . S
S1770 N1771 1.613 . S
S1770 N1772 1.610 . S
N1771 S1770 1.613 . S
N1771 C1774 1.350 . S
N1772 S1770 1.610 . S
N1772 C1773 1.351 . S
C1773 C1767 1.428 . S
C1773 N1772 1.351 . S
C1773 C1774 1.434 . S
C1774 C1765 1.429 1_565 S
C1774 N1771 1.350 . S
C1774 C1773 1.434 . S
C1775 C1776 1.369 1_545 S
C1775 C1777 1.419 . S
C1775 H1779 0.930 . S
C1776 C1775 1.369 1_565 S
C1776 C1785 1.429 1_455 S
C1777 C1775 1.419 . S
C1777 C1778 1.363 1_455 S
C1777 H1780 0.929 . S
C1778 C1777 1.363 1_655 S
C1778 C1784 1.428 1_545 S
H1779 C1775 0.930 . S
H1780 C1777 0.929 . S
S1781 N1782 1.613 . S
S1781 N1783 1.610 . S
N1782 S1781 1.613 . S
N1782 C1785 1.350 . S
N1783 S1781 1.610 . S
N1783 C1784 1.351 . S
C1784 C1778 1.428 1_565 S
C1784 N1783 1.351 . S
C1784 C1785 1.434 . S
C1785 C1776 1.429 1_655 S
C1785 N1782 1.350 . S
C1785 C1784 1.434 . S
C1786 C1787 1.369 1_545 S
C1786 C1788 1.419 . S
C1786 H1790 0.930 . S
C1787 C1786 1.369 1_565 S
C1787 C1796 1.429 . S
C1788 C1786 1.419 . S
C1788 C1789 1.363 . S
C1788 H1791 0.929 . S
C1789 C1788 1.363 . S
C1789 C1795 1.428 1_545 S
H1790 C1786 0.930 . S
H1791 C1788 0.929 . S
S1792 N1793 1.613 . S
S1792 N1794 1.610 . S
N1793 S1792 1.613 . S
N1793 C1796 1.350 . S
N1794 S1792 1.610 . S
N1794 C1795 1.351 . S
C1795 C1789 1.428 1_565 S
C1795 N1794 1.351 . S
C1795 C1796 1.434 . S
C1796 C1787 1.429 . S
C1796 N1793 1.350 . S
C1796 C1795 1.434 . S
C1797 C1798 1.369 . S
C1797 C1799 1.419 1_655 S
C1797 H1801 0.930 . S
C1798 C1797 1.369 . S
C1798 C1807 1.429 1_565 S
C1799 C1797 1.419 1_455 S
C1799 C1800 1.363 1_565 S
C1799 H1802 0.929 . S
C1800 C1799 1.363 1_545 S
C1800 C1806 1.428 . S
H1801 C1797 0.930 . S
H1802 C1799 0.929 . S
S1803 N1804 1.613 1_455 S
S1803 N1805 1.610 . S
N1804 S1803 1.613 1_655 S
N1804 C1807 1.350 . S
N1805 S1803 1.610 . S
N1805 C1806 1.351 . S
C1806 C1800 1.428 . S
C1806 N1805 1.351 . S
C1806 C1807 1.434 1_455 S
C1807 C1798 1.429 1_545 S
C1807 N1804 1.350 . S
C1807 C1806 1.434 1_655 S
C1808 C1809 1.369 . S
C1808 C1810 1.419 1_455 S
C1808 H1812 0.930 . S
C1809 C1808 1.369 . S
C1809 C1818 1.429 1_455 S
C1810 C1808 1.419 1_655 S
C1810 C1811 1.363 . S
C1810 H1813 0.929 1_655 S
C1811 C1810 1.363 . S
C1811 C1817 1.428 . S
H1812 C1808 0.930 . S
H1813 C1810 0.929 1_455 S
S1814 N1815 1.613 . S
S1814 N1816 1.610 . S
N1815 S1814 1.613 . S
N1815 C1818 1.350 . S
N1816 S1814 1.610 . S
N1816 C1817 1.351 . S
C1817 C1811 1.428 . S
C1817 N1816 1.351 . S
C1817 C1818 1.434 . S
C1818 C1809 1.429 1_655 S
C1818 N1815 1.350 . S
C1818 C1817 1.434 . S
C1819 C1820 1.369 . S
C1819 C1821 1.419 . S
C1819 H1823 0.930 . S
C1820 C1819 1.369 . S
C1820 C1829 1.429 . S
C1821 C1819 1.419 . S
C1821 C1822 1.363 . S
C1821 H1824 0.929 . S
C1822 C1821 1.363 . S
C1822 C1828 1.428 . S
H1823 C1819 0.930 . S
H1824 C1821 0.929 . S
S1825 N1826 1.613 . S
S1825 N1827 1.610 . S
N1826 S1825 1.613 . S
N1826 C1829 1.350 . S
N1827 S1825 1.610 . S
N1827 C1828 1.351 . S
C1828 C1822 1.428 . S
C1828 N1827 1.351 . S
C1828 C1829 1.434 . S
C1829 C1820 1.429 . S
C1829 N1826 1.350 . S
C1829 C1828 1.434 . S
C1830 C1831 1.369 . S
C1830 C1832 1.419 . S
C1830 H1834 0.930 . S
C1831 C1830 1.369 . S
C1831 C1840 1.429 . S
C1832 C1830 1.419 . S
C1832 C1833 1.363 . S
C1832 H1835 0.929 . S
C1833 C1832 1.363 . S
C1833 C1839 1.428 . S
H1834 C1830 0.930 . S
H1835 C1832 0.929 . S
S1836 N1837 1.613 . S
S1836 N1838 1.610 . S
N1837 S1836 1.613 . S
N1837 C1840 1.350 . S
N1838 S1836 1.610 . S
N1838 C1839 1.351 . S
C1839 C1833 1.428 . S
C1839 N1838 1.351 . S
C1839 C1840 1.434 . S
C1840 C1831 1.429 . S
C1840 N1837 1.350 . S
C1840 C1839 1.434 . S
C1841 C1842 1.369 . S
C1841 C1843 1.419 . S
C1841 H1845 0.930 . S
C1842 C1841 1.369 . S
C1842 C1851 1.429 . S
C1843 C1841 1.419 . S
C1843 C1844 1.363 . S
C1843 H1846 0.929 . S
C1844 C1843 1.363 . S
C1844 C1850 1.428 . S
H1845 C1841 0.930 . S
H1846 C1843 0.929 . S
S1847 N1848 1.613 . S
S1847 N1849 1.610 . S
N1848 S1847 1.613 . S
N1848 C1851 1.350 . S
N1849 S1847 1.610 . S
N1849 C1850 1.351 . S
C1850 C1844 1.428 . S
C1850 N1849 1.351 . S
C1850 C1851 1.434 . S
C1851 C1842 1.429 . S
C1851 N1848 1.350 . S
C1851 C1850 1.434 . S
C1852 C1853 1.369 . S
C1852 C1854 1.419 . S
C1852 H1856 0.930 . S
C1853 C1852 1.369 . S
C1853 C1862 1.429 . S
C1854 C1852 1.419 . S
C1854 C1855 1.363 1_655 S
C1854 H1857 0.929 1_554 S
C1855 C1854 1.363 1_455 S
C1855 C1861 1.428 . S
H1856 C1852 0.930 . S
H1857 C1854 0.929 1_556 S
S1858 N1859 1.613 1_455 S
S1858 N1860 1.610 . S
N1859 S1858 1.613 1_655 S
N1859 C1862 1.350 . S
N1860 S1858 1.610 . S
N1860 C1861 1.351 . S
C1861 C1855 1.428 . S
C1861 N1860 1.351 . S
C1861 C1862 1.434 1_455 S
C1862 C1853 1.429 . S
C1862 N1859 1.350 . S
C1862 C1861 1.434 1_655 S
C1863 C1864 1.369 . S
C1863 C1865 1.419 . S
C1863 H1867 0.930 . S
C1864 C1863 1.369 . S
C1864 C1873 1.429 . S
C1865 C1863 1.419 . S
C1865 C1866 1.363 . S
C1865 H1868 0.929 . S
C1866 C1865 1.363 . S
C1866 C1872 1.428 . S
H1867 C1863 0.930 . S
H1868 C1865 0.929 . S
S1869 N1870 1.613 . S
S1869 N1871 1.610 . S
N1870 S1869 1.613 . S
N1870 C1873 1.350 . S
N1871 S1869 1.610 . S
N1871 C1872 1.351 . S
C1872 C1866 1.428 . S
C1872 N1871 1.351 . S
C1872 C1873 1.434 . S
C1873 C1864 1.429 . S
C1873 N1870 1.350 . S
C1873 C1872 1.434 . S
C1874 C1875 1.369 . S
C1874 C1876 1.419 . S
C1874 H1878 0.930 . S
C1875 C1874 1.369 . S
C1875 C1884 1.429 . S
C1876 C1874 1.419 . S
C1876 C1877 1.363 . S
C1876 H1879 0.929 . S
C1877 C1876 1.363 . S
C1877 C1883 1.428 . S
H1878 C1874 0.930 . S
H1879 C1876 0.929 . S
S1880 N1881 1.613 . S
S1880 N1882 1.610 . S
N1881 S1880 1.613 . S
N1881 C1884 1.350 . S
N1882 S1880 1.610 . S
N1882 C1883 1.351 . S
C1883 C1877 1.428 . S
C1883 N1882 1.351 . S
C1883 C1884 1.434 . S
C1884 C1875 1.429 . S
C1884 N1881 1.350 . S
C1884 C1883 1.434 . S
C1885 C1886 1.369 . S
C1885 C1887 1.419 . S
C1885 H1889 0.930 . S
C1886 C1885 1.369 . S
C1886 C1895 1.429 . S
C1887 C1885 1.419 . S
C1887 C1888 1.363 . S
C1887 H1890 0.929 . S
C1888 C1887 1.363 . S
C1888 C1894 1.428 . S
H1889 C1885 0.930 . S
H1890 C1887 0.929 . S
S1891 N1892 1.613 . S
S1891 N1893 1.610 . S
N1892 S1891 1.613 . S
N1892 C1895 1.350 . S
N1893 S1891 1.610 . S
N1893 C1894 1.351 . S
C1894 C1888 1.428 . S
C1894 N1893 1.351 . S
C1894 C1895 1.434 . S
C1895 C1886 1.429 . S
C1895 N1892 1.350 . S
C1895 C1894 1.434 . S
C1896 C1897 1.369 . S
C1896 C1898 1.419 1_455 S
C1896 H1900 0.930 1_455 S
C1897 C1896 1.369 . S
C1897 C1906 1.429 . S
C1898 C1896 1.419 1_655 S
C1898 C1899 1.363 . S
C1898 H1901 0.929 . S
C1899 C1898 1.363 . S
C1899 C1905 1.428 1_655 S
H1900 C1896 0.930 1_655 S
H1901 C1898 0.929 . S
S1902 N1903 1.613 . S
S1902 N1904 1.610 . S
N1903 S1902 1.613 . S
N1903 C1906 1.350 . S
N1904 S1902 1.610 . S
N1904 C1905 1.351 . S
C1905 C1899 1.428 1_455 S
C1905 N1904 1.351 . S
C1905 C1906 1.434 . S
C1906 C1897 1.429 . S
C1906 N1903 1.350 . S
C1906 C1905 1.434 . S
C1907 C1908 1.369 . S
C1907 C1909 1.419 . S
C1907 H1911 0.930 . S
C1908 C1907 1.369 . S
C1908 C1917 1.429 . S
C1909 C1907 1.419 . S
C1909 C1910 1.363 . S
C1909 H1912 0.929 . S
C1910 C1909 1.363 . S
C1910 C1916 1.428 . S
H1911 C1907 0.930 . S
H1912 C1909 0.929 . S
S1913 N1914 1.613 . S
S1913 N1915 1.610 . S
N1914 S1913 1.613 . S
N1914 C1917 1.350 . S
N1915 S1913 1.610 . S
N1915 C1916 1.351 . S
C1916 C1910 1.428 . S
C1916 N1915 1.351 . S
C1916 C1917 1.434 . S
C1917 C1908 1.429 . S
C1917 N1914 1.350 . S
C1917 C1916 1.434 . S
C1918 C1919 1.369 . S
C1918 C1920 1.419 . S
C1918 H1922 0.930 . S
C1919 C1918 1.369 . S
C1919 C1928 1.429 . S
C1920 C1918 1.419 . S
C1920 C1921 1.363 . S
C1920 H1923 0.929 . S
C1921 C1920 1.363 . S
C1921 C1927 1.428 . S
H1922 C1918 0.930 . S
H1923 C1920 0.929 . S
S1924 N1925 1.613 . S
S1924 N1926 1.610 . S
N1925 S1924 1.613 . S
N1925 C1928 1.350 . S
N1926 S1924 1.610 . S
N1926 C1927 1.351 . S
C1927 C1921 1.428 . S
C1927 N1926 1.351 . S
C1927 C1928 1.434 . S
C1928 C1919 1.429 . S
C1928 N1925 1.350 . S
C1928 C1927 1.434 . S
C1929 C1930 1.369 . S
C1929 C1931 1.419 . S
C1929 H1933 0.930 . S
C1930 C1929 1.369 . S
C1930 C1939 1.429 . S
C1931 C1929 1.419 . S
C1931 C1932 1.363 . S
C1931 H1934 0.929 . S
C1932 C1931 1.363 . S
C1932 C1938 1.428 . S
H1933 C1929 0.930 . S
H1934 C1931 0.929 . S
S1935 N1936 1.613 . S
S1935 N1937 1.610 . S
N1936 S1935 1.613 . S
N1936 C1939 1.350 . S
N1937 S1935 1.610 . S
N1937 C1938 1.351 . S
C1938 C1932 1.428 . S
C1938 N1937 1.351 . S
C1938 C1939 1.434 . S
C1939 C1930 1.429 . S
C1939 N1936 1.350 . S
C1939 C1938 1.434 . S
C1940 C1941 1.369 . S
C1940 C1942 1.419 1_455 S
C1940 H1944 0.930 1_455 S
C1941 C1940 1.369 . S
C1941 C1950 1.429 . S
C1942 C1940 1.419 1_655 S
C1942 C1943 1.363 . S
C1942 H1945 0.929 . S
C1943 C1942 1.363 . S
C1943 C1949 1.428 1_655 S
H1944 C1940 0.930 1_655 S
H1945 C1942 0.929 . S
S1946 N1947 1.613 . S
S1946 N1948 1.610 . S
N1947 S1946 1.613 . S
N1947 C1950 1.350 . S
N1948 S1946 1.610 . S
N1948 C1949 1.351 . S
C1949 C1943 1.428 1_455 S
C1949 N1948 1.351 . S
C1949 C1950 1.434 . S
C1950 C1941 1.429 . S
C1950 N1947 1.350 . S
C1950 C1949 1.434 . S
C1951 C1952 1.369 . S
C1951 C1953 1.419 . S
C1951 H1955 0.930 1_554 S
C1952 C1951 1.369 . S
C1952 C1961 1.429 . S
C1953 C1951 1.419 . S
C1953 C1954 1.363 . S
C1953 H1956 0.929 . S
C1954 C1953 1.363 . S
C1954 C1960 1.428 . S
H1955 C1951 0.930 1_556 S
H1956 C1953 0.929 . S
S1957 N1958 1.613 . S
S1957 N1959 1.610 . S
N1958 S1957 1.613 . S
N1958 C1961 1.350 . S
N1959 S1957 1.610 . S
N1959 C1960 1.351 . S
C1960 C1954 1.428 . S
C1960 N1959 1.351 . S
C1960 C1961 1.434 . S
C1961 C1952 1.429 . S
C1961 N1958 1.350 . S
C1961 C1960 1.434 . S
C1962 C1963 1.369 . S
C1962 C1964 1.419 . S
C1962 H1966 0.930 . S
C1963 C1962 1.369 . S
C1963 C1972 1.429 . S
C1964 C1962 1.419 . S
C1964 C1965 1.363 . S
C1964 H1967 0.929 . S
C1965 C1964 1.363 . S
C1965 C1971 1.428 . S
H1966 C1962 0.930 . S
H1967 C1964 0.929 . S
S1968 N1969 1.613 . S
S1968 N1970 1.610 . S
N1969 S1968 1.613 . S
N1969 C1972 1.350 . S
N1970 S1968 1.610 . S
N1970 C1971 1.351 . S
C1971 C1965 1.428 . S
C1971 N1970 1.351 . S
C1971 C1972 1.434 . S
C1972 C1963 1.429 . S
C1972 N1969 1.350 . S
C1972 C1971 1.434 . S
C1973 C1974 1.369 . S
C1973 C1975 1.419 . S
C1973 H1977 0.930 . S
C1974 C1973 1.369 . S
C1974 C1983 1.429 . S
C1975 C1973 1.419 . S
C1975 C1976 1.363 . S
C1975 H1978 0.929 . S
C1976 C1975 1.363 . S
C1976 C1982 1.428 . S
H1977 C1973 0.930 . S
H1978 C1975 0.929 . S
S1979 N1980 1.613 . S
S1979 N1981 1.610 . S
N1980 S1979 1.613 . S
N1980 C1983 1.350 . S
N1981 S1979 1.610 . S
N1981 C1982 1.351 . S
C1982 C1976 1.428 . S
C1982 N1981 1.351 . S
C1982 C1983 1.434 . S
C1983 C1974 1.429 . S
C1983 N1980 1.350 . S
C1983 C1982 1.434 . S
C1984 C1985 1.369 . S
C1984 C1986 1.419 . S
C1984 H1988 0.930 . S
C1985 C1984 1.369 . S
C1985 C1994 1.429 . S
C1986 C1984 1.419 . S
C1986 C1987 1.363 . S
C1986 H1989 0.929 . S
C1987 C1986 1.363 . S
C1987 C1993 1.428 . S
H1988 C1984 0.930 . S
H1989 C1986 0.929 . S
S1990 N1991 1.613 . S
S1990 N1992 1.610 . S
N1991 S1990 1.613 . S
N1991 C1994 1.350 . S
N1992 S1990 1.610 . S
N1992 C1993 1.351 . S
C1993 C1987 1.428 . S
C1993 N1992 1.351 . S
C1993 C1994 1.434 . S
C1994 C1985 1.429 . S
C1994 N1991 1.350 . S
C1994 C1993 1.434 . S
C1995 C1996 1.369 . S
C1995 C1997 1.419 . S
C1995 H1999 0.930 . S
C1996 C1995 1.369 . S
C1996 C2005 1.429 . S
C1997 C1995 1.419 . S
C1997 C1998 1.363 . S
C1997 H2000 0.929 . S
C1998 C1997 1.363 . S
C1998 C2004 1.428 . S
H1999 C1995 0.930 . S
H2000 C1997 0.929 . S
S2001 N2002 1.613 . S
S2001 N2003 1.610 . S
N2002 S2001 1.613 . S
N2002 C2005 1.350 . S
N2003 S2001 1.610 . S
N2003 C2004 1.351 . S
C2004 C1998 1.428 . S
C2004 N2003 1.351 . S
C2004 C2005 1.434 . S
C2005 C1996 1.429 . S
C2005 N2002 1.350 . S
C2005 C2004 1.434 . S
C2006 C2007 1.369 . S
C2006 C2008 1.419 1_655 S
C2006 H2010 0.930 . S
C2007 C2006 1.369 . S
C2007 C2016 1.429 1_655 S
C2008 C2006 1.419 1_455 S
C2008 C2009 1.363 . S
C2008 H2011 0.929 . S
C2009 C2008 1.363 . S
C2009 C2015 1.428 . S
H2010 C2006 0.930 . S
H2011 C2008 0.929 . S
S2012 N2013 1.613 . S
S2012 N2014 1.610 . S
N2013 S2012 1.613 . S
N2013 C2016 1.350 . S
N2014 S2012 1.610 . S
N2014 C2015 1.351 . S
C2015 C2009 1.428 . S
C2015 N2014 1.351 . S
C2015 C2016 1.434 . S
C2016 C2007 1.429 1_455 S
C2016 N2013 1.350 . S
C2016 C2015 1.434 . S
C2017 C2018 1.369 . S
C2017 C2019 1.419 . S
C2017 H2021 0.930 . S
C2018 C2017 1.369 . S
C2018 C2027 1.429 . S
C2019 C2017 1.419 . S
C2019 C2020 1.363 . S
C2019 H2022 0.929 . S
C2020 C2019 1.363 . S
C2020 C2026 1.428 . S
H2021 C2017 0.930 . S
H2022 C2019 0.929 . S
S2023 N2024 1.613 . S
S2023 N2025 1.610 . S
N2024 S2023 1.613 . S
N2024 C2027 1.350 . S
N2025 S2023 1.610 . S
N2025 C2026 1.351 . S
C2026 C2020 1.428 . S
C2026 N2025 1.351 . S
C2026 C2027 1.434 . S
C2027 C2018 1.429 . S
C2027 N2024 1.350 . S
C2027 C2026 1.434 . S
C2028 C2029 1.369 . S
C2028 C2030 1.419 . S
C2028 H2032 0.930 . S
C2029 C2028 1.369 . S
C2029 C2038 1.429 . S
C2030 C2028 1.419 . S
C2030 C2031 1.363 . S
C2030 H2033 0.929 . S
C2031 C2030 1.363 . S
C2031 C2037 1.428 . S
H2032 C2028 0.930 . S
H2033 C2030 0.929 . S
S2034 N2035 1.613 . S
S2034 N2036 1.610 . S
N2035 S2034 1.613 . S
N2035 C2038 1.350 . S
N2036 S2034 1.610 . S
N2036 C2037 1.351 . S
C2037 C2031 1.428 . S
C2037 N2036 1.351 . S
C2037 C2038 1.434 . S
C2038 C2029 1.429 . S
C2038 N2035 1.350 . S
C2038 C2037 1.434 . S
C2039 C2040 1.369 . S
C2039 C2041 1.419 . S
C2039 H2043 0.930 . S
C2040 C2039 1.369 . S
C2040 C2049 1.429 . S
C2041 C2039 1.419 . S
C2041 C2042 1.363 . S
C2041 H2044 0.929 . S
C2042 C2041 1.363 . S
C2042 C2048 1.428 . S
H2043 C2039 0.930 . S
H2044 C2041 0.929 . S
S2045 N2046 1.613 . S
S2045 N2047 1.610 . S
N2046 S2045 1.613 . S
N2046 C2049 1.350 . S
N2047 S2045 1.610 . S
N2047 C2048 1.351 . S
C2048 C2042 1.428 . S
C2048 N2047 1.351 . S
C2048 C2049 1.434 . S
C2049 C2040 1.429 . S
C2049 N2046 1.350 . S
C2049 C2048 1.434 . S
C2050 C2051 1.369 . S
C2050 C2052 1.419 . S
C2050 H2054 0.930 . S
C2051 C2050 1.369 . S
C2051 C2060 1.429 . S
C2052 C2050 1.419 . S
C2052 C2053 1.363 1_455 S
C2052 H2055 0.929 . S
C2053 C2052 1.363 1_655 S
C2053 C2059 1.428 . S
H2054 C2050 0.930 . S
H2055 C2052 0.929 . S
S2056 N2057 1.613 . S
S2056 N2058 1.610 . S
N2057 S2056 1.613 . S
N2057 C2060 1.350 1_655 S
N2058 S2056 1.610 . S
N2058 C2059 1.351 . S
C2059 C2053 1.428 . S
C2059 N2058 1.351 . S
C2059 C2060 1.434 1_655 S
C2060 C2051 1.429 . S
C2060 N2057 1.350 1_455 S
C2060 C2059 1.434 1_455 S
C2061 C2062 1.369 . S
C2061 C2063 1.419 . S
C2061 H2065 0.930 . S
C2062 C2061 1.369 . S
C2062 C2071 1.429 . S
C2063 C2061 1.419 . S
C2063 C2064 1.363 . S
C2063 H2066 0.929 . S
C2064 C2063 1.363 . S
C2064 C2070 1.428 . S
H2065 C2061 0.930 . S
H2066 C2063 0.929 . S
S2067 N2068 1.613 . S
S2067 N2069 1.610 . S
N2068 S2067 1.613 . S
N2068 C2071 1.350 . S
N2069 S2067 1.610 . S
N2069 C2070 1.351 . S
C2070 C2064 1.428 . S
C2070 N2069 1.351 . S
C2070 C2071 1.434 . S
C2071 C2062 1.429 . S
C2071 N2068 1.350 . S
C2071 C2070 1.434 . S
C2072 C2073 1.369 . S
C2072 C2074 1.419 . S
C2072 H2076 0.930 . S
C2073 C2072 1.369 . S
C2073 C2082 1.429 . S
C2074 C2072 1.419 . S
C2074 C2075 1.363 . S
C2074 H2077 0.929 . S
C2075 C2074 1.363 . S
C2075 C2081 1.428 . S
H2076 C2072 0.930 . S
H2077 C2074 0.929 . S
S2078 N2079 1.613 . S
S2078 N2080 1.610 . S
N2079 S2078 1.613 . S
N2079 C2082 1.350 . S
N2080 S2078 1.610 . S
N2080 C2081 1.351 . S
C2081 C2075 1.428 . S
C2081 N2080 1.351 . S
C2081 C2082 1.434 . S
C2082 C2073 1.429 . S
C2082 N2079 1.350 . S
C2082 C2081 1.434 . S
C2083 C2084 1.369 . S
C2083 C2085 1.419 . S
C2083 H2087 0.930 . S
C2084 C2083 1.369 . S
C2084 C2093 1.429 . S
C2085 C2083 1.419 . S
C2085 C2086 1.363 . S
C2085 H2088 0.929 . S
C2086 C2085 1.363 . S
C2086 C2092 1.428 . S
H2087 C2083 0.930 . S
H2088 C2085 0.929 . S
S2089 N2090 1.613 . S
S2089 N2091 1.610 . S
N2090 S2089 1.613 . S
N2090 C2093 1.350 . S
N2091 S2089 1.610 . S
N2091 C2092 1.351 . S
C2092 C2086 1.428 . S
C2092 N2091 1.351 . S
C2092 C2093 1.434 . S
C2093 C2084 1.429 . S
C2093 N2090 1.350 . S
C2093 C2092 1.434 . S
C2094 C2095 1.369 . S
C2094 C2096 1.419 1_455 S
C2094 H2098 0.930 . S
C2095 C2094 1.369 . S
C2095 C2104 1.429 1_455 S
C2096 C2094 1.419 1_655 S
C2096 C2097 1.363 . S
C2096 H2099 0.929 1_655 S
C2097 C2096 1.363 . S
C2097 C2103 1.428 . S
H2098 C2094 0.930 . S
H2099 C2096 0.929 1_455 S
S2100 N2101 1.613 . S
S2100 N2102 1.610 . S
N2101 S2100 1.613 . S
N2101 C2104 1.350 . S
N2102 S2100 1.610 . S
N2102 C2103 1.351 . S
C2103 C2097 1.428 . S
C2103 N2102 1.351 . S
C2103 C2104 1.434 . S
C2104 C2095 1.429 1_655 S
C2104 N2101 1.350 . S
C2104 C2103 1.434 . S
C2105 C2106 1.369 . S
C2105 C2107 1.419 . S
C2105 H2109 0.930 . S
C2106 C2105 1.369 . S
C2106 C2115 1.429 . S
C2107 C2105 1.419 . S
C2107 C2108 1.363 . S
C2107 H2110 0.929 . S
C2108 C2107 1.363 . S
C2108 C2114 1.428 . S
H2109 C2105 0.930 . S
H2110 C2107 0.929 . S
S2111 N2112 1.613 . S
S2111 N2113 1.610 . S
N2112 S2111 1.613 . S
N2112 C2115 1.350 . S
N2113 S2111 1.610 . S
N2113 C2114 1.351 . S
C2114 C2108 1.428 . S
C2114 N2113 1.351 . S
C2114 C2115 1.434 . S
C2115 C2106 1.429 . S
C2115 N2112 1.350 . S
C2115 C2114 1.434 . S
C2116 C2117 1.369 . S
C2116 C2118 1.419 . S
C2116 H2120 0.930 . S
C2117 C2116 1.369 . S
C2117 C2126 1.429 . S
C2118 C2116 1.419 . S
C2118 C2119 1.363 . S
C2118 H2121 0.929 . S
C2119 C2118 1.363 . S
C2119 C2125 1.428 . S
H2120 C2116 0.930 . S
H2121 C2118 0.929 . S
S2122 N2123 1.613 . S
S2122 N2124 1.610 . S
N2123 S2122 1.613 . S
N2123 C2126 1.350 . S
N2124 S2122 1.610 . S
N2124 C2125 1.351 . S
C2125 C2119 1.428 . S
C2125 N2124 1.351 . S
C2125 C2126 1.434 . S
C2126 C2117 1.429 . S
C2126 N2123 1.350 . S
C2126 C2125 1.434 . S
C2127 C2128 1.369 . S
C2127 C2129 1.419 . S
C2127 H2131 0.930 . S
C2128 C2127 1.369 . S
C2128 C2137 1.429 . S
C2129 C2127 1.419 . S
C2129 C2130 1.363 . S
C2129 H2132 0.929 . S
C2130 C2129 1.363 . S
C2130 C2136 1.428 . S
H2131 C2127 0.930 . S
H2132 C2129 0.929 . S
S2133 N2134 1.613 . S
S2133 N2135 1.610 . S
N2134 S2133 1.613 . S
N2134 C2137 1.350 . S
N2135 S2133 1.610 . S
N2135 C2136 1.351 . S
C2136 C2130 1.428 . S
C2136 N2135 1.351 . S
C2136 C2137 1.434 . S
C2137 C2128 1.429 . S
C2137 N2134 1.350 . S
C2137 C2136 1.434 . S
C2138 C2139 1.369 . S
C2138 C2140 1.419 1_455 S
C2138 H2142 0.930 . S
C2139 C2138 1.369 . S
C2139 C2148 1.429 1_455 S
C2140 C2138 1.419 1_655 S
C2140 C2141 1.363 . S
C2140 H2143 0.929 1_655 S
C2141 C2140 1.363 . S
C2141 C2147 1.428 . S
H2142 C2138 0.930 . S
H2143 C2140 0.929 1_455 S
S2144 N2145 1.613 . S
S2144 N2146 1.610 . S
N2145 S2144 1.613 . S
N2145 C2148 1.350 . S
N2146 S2144 1.610 . S
N2146 C2147 1.351 . S
C2147 C2141 1.428 . S
C2147 N2146 1.351 . S
C2147 C2148 1.434 . S
C2148 C2139 1.429 1_655 S
C2148 N2145 1.350 . S
C2148 C2147 1.434 . S
C2149 C2150 1.369 . S
C2149 C2151 1.419 . S
C2149 H2153 0.930 . S
C2150 C2149 1.369 . S
C2150 C2159 1.429 . S
C2151 C2149 1.419 . S
C2151 C2152 1.363 . S
C2151 H2154 0.929 . S
C2152 C2151 1.363 . S
C2152 C2158 1.428 . S
H2153 C2149 0.930 . S
H2154 C2151 0.929 . S
S2155 N2156 1.613 . S
S2155 N2157 1.610 . S
N2156 S2155 1.613 . S
N2156 C2159 1.350 . S
N2157 S2155 1.610 . S
N2157 C2158 1.351 . S
C2158 C2152 1.428 . S
C2158 N2157 1.351 . S
C2158 C2159 1.434 . S
C2159 C2150 1.429 . S
C2159 N2156 1.350 . S
C2159 C2158 1.434 . S
C2160 C2161 1.369 . S
C2160 C2162 1.419 . S
C2160 H2164 0.930 . S
C2161 C2160 1.369 . S
C2161 C2170 1.429 . S
C2162 C2160 1.419 . S
C2162 C2163 1.363 . S
C2162 H2165 0.929 . S
C2163 C2162 1.363 . S
C2163 C2169 1.428 . S
H2164 C2160 0.930 . S
H2165 C2162 0.929 . S
S2166 N2167 1.613 . S
S2166 N2168 1.610 . S
N2167 S2166 1.613 . S
N2167 C2170 1.350 . S
N2168 S2166 1.610 . S
N2168 C2169 1.351 . S
C2169 C2163 1.428 . S
C2169 N2168 1.351 . S
C2169 C2170 1.434 . S
C2170 C2161 1.429 . S
C2170 N2167 1.350 . S
C2170 C2169 1.434 . S
C2171 C2172 1.369 . S
C2171 C2173 1.419 . S
C2171 H2175 0.930 . S
C2172 C2171 1.369 . S
C2172 C2181 1.429 . S
C2173 C2171 1.419 . S
C2173 C2174 1.363 . S
C2173 H2176 0.929 . S
C2174 C2173 1.363 . S
C2174 C2180 1.428 . S
H2175 C2171 0.930 . S
H2176 C2173 0.929 . S
S2177 N2178 1.613 . S
S2177 N2179 1.610 . S
N2178 S2177 1.613 . S
N2178 C2181 1.350 . S
N2179 S2177 1.610 . S
N2179 C2180 1.351 . S
C2180 C2174 1.428 . S
C2180 N2179 1.351 . S
C2180 C2181 1.434 . S
C2181 C2172 1.429 . S
C2181 N2178 1.350 . S
C2181 C2180 1.434 . S
C2182 C2183 1.369 . S
C2182 C2184 1.419 . S
C2182 H2186 0.930 . S
C2183 C2182 1.369 . S
C2183 C2192 1.429 . S
C2184 C2182 1.419 . S
C2184 C2185 1.363 . S
C2184 H2187 0.929 . S
C2185 C2184 1.363 . S
C2185 C2191 1.428 . S
H2186 C2182 0.930 . S
H2187 C2184 0.929 . S
S2188 N2189 1.613 . S
S2188 N2190 1.610 . S
N2189 S2188 1.613 . S
N2189 C2192 1.350 . S
N2190 S2188 1.610 . S
N2190 C2191 1.351 . S
C2191 C2185 1.428 . S
C2191 N2190 1.351 . S
C2191 C2192 1.434 . S
C2192 C2183 1.429 . S
C2192 N2189 1.350 . S
C2192 C2191 1.434 . S
C2193 C2194 1.369 . S
C2193 C2195 1.419 . S
C2193 H2197 0.930 . S
C2194 C2193 1.369 . S
C2194 C2203 1.429 . S
C2195 C2193 1.419 . S
C2195 C2196 1.363 . S
C2195 H2198 0.929 . S
C2196 C2195 1.363 . S
C2196 C2202 1.428 . S
H2197 C2193 0.930 . S
H2198 C2195 0.929 . S
S2199 N2200 1.613 . S
S2199 N2201 1.610 . S
N2200 S2199 1.613 . S
N2200 C2203 1.350 . S
N2201 S2199 1.610 . S
N2201 C2202 1.351 . S
C2202 C2196 1.428 . S
C2202 N2201 1.351 . S
C2202 C2203 1.434 . S
C2203 C2194 1.429 . S
C2203 N2200 1.350 . S
C2203 C2202 1.434 . S
C2204 C2205 1.369 . S
C2204 C2206 1.419 . S
C2204 H2208 0.930 . S
C2205 C2204 1.369 . S
C2205 C2214 1.429 . S
C2206 C2204 1.419 . S
C2206 C2207 1.363 . S
C2206 H2209 0.929 . S
C2207 C2206 1.363 . S
C2207 C2213 1.428 . S
H2208 C2204 0.930 . S
H2209 C2206 0.929 . S
S2210 N2211 1.613 . S
S2210 N2212 1.610 . S
N2211 S2210 1.613 . S
N2211 C2214 1.350 . S
N2212 S2210 1.610 . S
N2212 C2213 1.351 . S
C2213 C2207 1.428 . S
C2213 N2212 1.351 . S
C2213 C2214 1.434 . S
C2214 C2205 1.429 . S
C2214 N2211 1.350 . S
C2214 C2213 1.434 . S
C2215 C2216 1.369 . S
C2215 C2217 1.419 . S
C2215 H2219 0.930 . S
C2216 C2215 1.369 . S
C2216 C2225 1.429 . S
C2217 C2215 1.419 . S
C2217 C2218 1.363 . S
C2217 H2220 0.929 . S
C2218 C2217 1.363 . S
C2218 C2224 1.428 . S
H2219 C2215 0.930 . S
H2220 C2217 0.929 . S
S2221 N2222 1.613 . S
S2221 N2223 1.610 . S
N2222 S2221 1.613 . S
N2222 C2225 1.350 . S
N2223 S2221 1.610 . S
N2223 C2224 1.351 . S
C2224 C2218 1.428 . S
C2224 N2223 1.351 . S
C2224 C2225 1.434 . S
C2225 C2216 1.429 . S
C2225 N2222 1.350 . S
C2225 C2224 1.434 . S
C2226 C2227 1.369 . S
C2226 C2228 1.419 . S
C2226 H2230 0.930 . S
C2227 C2226 1.369 . S
C2227 C2236 1.429 . S
C2228 C2226 1.419 . S
C2228 C2229 1.363 . S
C2228 H2231 0.929 . S
C2229 C2228 1.363 . S
C2229 C2235 1.428 . S
H2230 C2226 0.930 . S
H2231 C2228 0.929 . S
S2232 N2233 1.613 . S
S2232 N2234 1.610 . S
N2233 S2232 1.613 . S
N2233 C2236 1.350 . S
N2234 S2232 1.610 . S
N2234 C2235 1.351 . S
C2235 C2229 1.428 . S
C2235 N2234 1.351 . S
C2235 C2236 1.434 . S
C2236 C2227 1.429 . S
C2236 N2233 1.350 . S
C2236 C2235 1.434 . S
C2237 C2238 1.369 . S
C2237 C2239 1.419 . S
C2237 H2241 0.930 . S
C2238 C2237 1.369 . S
C2238 C2247 1.429 . S
C2239 C2237 1.419 . S
C2239 C2240 1.363 . S
C2239 H2242 0.929 . S
C2240 C2239 1.363 . S
C2240 C2246 1.428 . S
H2241 C2237 0.930 . S
H2242 C2239 0.929 . S
S2243 N2244 1.613 . S
S2243 N2245 1.610 . S
N2244 S2243 1.613 . S
N2244 C2247 1.350 . S
N2245 S2243 1.610 . S
N2245 C2246 1.351 . S
C2246 C2240 1.428 . S
C2246 N2245 1.351 . S
C2246 C2247 1.434 . S
C2247 C2238 1.429 . S
C2247 N2244 1.350 . S
C2247 C2246 1.434 . S
C2248 C2249 1.369 1_545 S
C2248 C2250 1.419 . S
C2248 H2252 0.930 . S
C2249 C2248 1.369 1_565 S
C2249 C2258 1.429 . S
C2250 C2248 1.419 . S
C2250 C2251 1.363 . S
C2250 H2253 0.929 . S
C2251 C2250 1.363 . S
C2251 C2257 1.428 1_545 S
H2252 C2248 0.930 . S
H2253 C2250 0.929 . S
S2254 N2255 1.613 . S
S2254 N2256 1.610 . S
N2255 S2254 1.613 . S
N2255 C2258 1.350 . S
N2256 S2254 1.610 . S
N2256 C2257 1.351 . S
C2257 C2251 1.428 1_565 S
C2257 N2256 1.351 . S
C2257 C2258 1.434 . S
C2258 C2249 1.429 . S
C2258 N2255 1.350 . S
C2258 C2257 1.434 . S
C2259 C2260 1.369 . S
C2259 C2261 1.419 . S
C2259 H2263 0.930 . S
C2260 C2259 1.369 . S
C2260 C2269 1.429 . S
C2261 C2259 1.419 . S
C2261 C2262 1.363 . S
C2261 H2264 0.929 . S
C2262 C2261 1.363 . S
C2262 C2268 1.428 . S
H2263 C2259 0.930 . S
H2264 C2261 0.929 . S
S2265 N2266 1.613 . S
S2265 N2267 1.610 . S
N2266 S2265 1.613 . S
N2266 C2269 1.350 . S
N2267 S2265 1.610 . S
N2267 C2268 1.351 . S
C2268 C2262 1.428 . S
C2268 N2267 1.351 . S
C2268 C2269 1.434 . S
C2269 C2260 1.429 . S
C2269 N2266 1.350 . S
C2269 C2268 1.434 . S
C2270 C2271 1.369 1_565 S
C2270 C2272 1.419 . S
C2270 H2274 0.930 1_556 S
C2271 C2270 1.369 1_545 S
C2271 C2280 1.429 . S
C2272 C2270 1.419 . S
C2272 C2273 1.363 . S
C2272 H2275 0.929 . S
C2273 C2272 1.363 . S
C2273 C2279 1.428 1_565 S
H2274 C2270 0.930 1_554 S
H2275 C2272 0.929 . S
S2276 N2277 1.613 . S
S2276 N2278 1.610 . S
N2277 S2276 1.613 . S
N2277 C2280 1.350 . S
N2278 S2276 1.610 . S
N2278 C2279 1.351 . S
C2279 C2273 1.428 1_545 S
C2279 N2278 1.351 . S
C2279 C2280 1.434 . S
C2280 C2271 1.429 . S
C2280 N2277 1.350 . S
C2280 C2279 1.434 . S
C2281 C2282 1.369 . S
C2281 C2283 1.419 . S
C2281 H2285 0.930 . S
C2282 C2281 1.369 . S
C2282 C2291 1.429 . S
C2283 C2281 1.419 . S
C2283 C2284 1.363 . S
C2283 H2286 0.929 . S
C2284 C2283 1.363 . S
C2284 C2290 1.428 . S
H2285 C2281 0.930 . S
H2286 C2283 0.929 . S
S2287 N2288 1.613 . S
S2287 N2289 1.610 . S
N2288 S2287 1.613 . S
N2288 C2291 1.350 . S
N2289 S2287 1.610 . S
N2289 C2290 1.351 . S
C2290 C2284 1.428 . S
C2290 N2289 1.351 . S
C2290 C2291 1.434 . S
C2291 C2282 1.429 . S
C2291 N2288 1.350 . S
C2291 C2290 1.434 . S
C2292 C2293 1.369 . S
C2292 C2294 1.431 . S
C2292 H2296 0.930 . S
C2293 C2292 1.369 . S
C2293 C2302 1.429 1_565 S
C2294 C2292 1.431 . S
C2294 C2295 1.350 1_565 S
C2294 H2297 0.931 . S
C2295 C2294 1.350 1_545 S
C2295 C2301 1.428 . S
H2296 C2292 0.930 . S
H2297 C2294 0.931 . S
S2298 N2299 1.613 1_556 S
S2298 N2300 1.610 . S
N2299 S2298 1.613 1_554 S
N2299 C2302 1.350 1_554 S
N2300 S2298 1.610 . S
N2300 C2301 1.351 . S
C2301 C2295 1.428 . S
C2301 N2300 1.351 . S
C2301 C2302 1.434 . S
C2302 C2293 1.429 1_545 S
C2302 N2299 1.350 1_556 S
C2302 C2301 1.434 . S
C2303 C2304 1.369 . S
C2303 C2305 1.419 . S
C2303 H2307 0.930 . S
C2304 C2303 1.369 . S
C2304 C2313 1.429 . S
C2305 C2303 1.419 . S
C2305 C2306 1.363 . S
C2305 H2308 0.929 . S
C2306 C2305 1.363 . S
C2306 C2312 1.428 . S
H2307 C2303 0.930 . S
H2308 C2305 0.929 . S
S2309 N2310 1.613 . S
S2309 N2311 1.610 . S
N2310 S2309 1.613 . S
N2310 C2313 1.350 . S
N2311 S2309 1.610 . S
N2311 C2312 1.351 . S
C2312 C2306 1.428 . S
C2312 N2311 1.351 . S
C2312 C2313 1.434 . S
C2313 C2304 1.429 . S
C2313 N2310 1.350 . S
C2313 C2312 1.434 . S
C2314 C2315 1.369 . S
C2314 C2316 1.419 . S
C2314 H2318 0.930 . S
C2315 C2314 1.369 . S
C2315 C2324 1.429 1_565 S
C2316 C2314 1.419 . S
C2316 C2317 1.363 1_565 S
C2316 H2319 0.929 . S
C2317 C2316 1.363 1_545 S
C2317 C2323 1.428 . S
H2318 C2314 0.930 . S
H2319 C2316 0.929 . S
S2320 N2321 1.613 . S
S2320 N2322 1.610 . S
N2321 S2320 1.613 . S
N2321 C2324 1.350 . S
N2322 S2320 1.610 . S
N2322 C2323 1.351 . S
C2323 C2317 1.428 . S
C2323 N2322 1.351 . S
C2323 C2324 1.434 . S
C2324 C2315 1.429 1_545 S
C2324 N2321 1.350 . S
C2324 C2323 1.434 . S
C2325 C2326 1.369 . S
C2325 C2327 1.419 . S
C2325 H2329 0.930 . S
C2326 C2325 1.369 . S
C2326 C2335 1.429 . S
C2327 C2325 1.419 . S
C2327 C2328 1.363 . S
C2327 H2330 0.929 . S
C2328 C2327 1.363 . S
C2328 C2334 1.428 . S
H2329 C2325 0.930 . S
H2330 C2327 0.929 . S
S2331 N2332 1.613 . S
S2331 N2333 1.610 . S
N2332 S2331 1.613 . S
N2332 C2335 1.350 . S
N2333 S2331 1.610 . S
N2333 C2334 1.351 . S
C2334 C2328 1.428 . S
C2334 N2333 1.351 . S
C2334 C2335 1.434 . S
C2335 C2326 1.429 . S
C2335 N2332 1.350 . S
C2335 C2334 1.434 . S
C1281 C29 1.094 . S
C1283 C189 1.075 . S
C1292 C229 1.077 . S
C1294 C69 1.089 . S
C1303 C109 1.072 . S
C1305 C269 1.093 . S
C1314 C309 1.079 . S
C1316 C149 1.080 . S
C1325 C328 1.075 . S
C1327 C488 1.092 . S
C1336 C368 1.076 . S
C1338 C528 1.084 . S
C1347 C568 1.095 . S
C1349 C408 1.077 . S
C1358 C448 1.077 . S
C1360 C608 1.083 . S
C1369 C829 1.073 . S
C1371 C669 1.093 . S
C1380 C709 1.070 . S
C1382 C869 1.089 . S
C1391 C749 1.095 . S
C1393 C909 1.075 . S
C1402 C789 1.088 . S
C1404 C949 1.081 . S
C1413 C968 1.096 . S
C1415 C1128 1.076 . S
C1424 C1168 1.093 . S
C1426 C1008 1.073 . S
C1435 C1048 1.096 . S
C1437 C1208 1.076 . S
C1446 C1248 1.078 . S
C1448 C1088 1.082 . S
C1457 C857 3.179 . S
C1459 C17 3.181 . S
C1468 C897 3.185 . S
C1470 C57 3.180 . S
C1479 C937 3.183 . S
C1481 C97 3.183 . S
C1490 C137 3.179 1_554 S
C1492 C817 3.181 . S
C1501 C177 3.180 . S
C1503 C777 3.184 . S
C1512 C657 3.182 . S
C1514 C217 3.184 . S
C1523 C257 3.180 . S
C1525 C697 3.184 1_554 S
C1534 C297 3.184 . S
C1536 C737 3.182 . S
C1545 C322 3.183 . S
C1547 C1162 3.179 1_554 S
C1556 C1202 3.179 . S
C1558 C362 3.184 . S
C1567 C1242 3.182 . S
C1569 C402 3.183 . S
C1578 C442 3.182 . S
C1580 C1122 3.183 . S
C1589 C482 3.186 . S
C1591 C1082 3.179 . S
C1600 C522 3.177 . S
C1602 C962 3.183 . S
C1611 C562 3.185 . S
C1613 C1002 3.179 . S
C1622 C602 3.185 1_554 S
C1624 C1042 3.179 . S
C1633 C337 1.480 . S
C1635 C2 1.485 . S
C1644 C42 1.479 . S
C1646 C1017 1.486 . S
C1655 C417 1.484 . S
C1657 C82 1.481 . S
C1666 C122 1.491 . S
C1668 C1097 1.477 . S
C1677 C497 1.484 . S
C1679 C162 1.483 . S
C1688 C1177 1.475 . S
C1690 C202 1.489 . S
C1699 C242 1.475 . S
C1701 C577 1.489 . S
C1710 C282 1.476 . S
C1712 C1257 1.489 . S
C1721 C682 1.490 . S
C1723 C377 1.477 . S
C1732 C762 1.486 . S
C1734 C457 1.481 . S
C1743 C537 1.491 . S
C1745 C842 1.477 . S
C1754 C922 1.489 . S
C1756 C617 1.478 . S
C1765 C977 1.484 . S
C1767 C642 1.483 . S
C1776 C1057 1.479 . S
C1778 C722 1.486 . S
C1787 C1137 1.478 . S
C1789 C802 1.487 . S
C1798 C882 1.486 . S
C1800 C1217 1.480 . S
C1809 C8 1.632 . S
C1811 C511 1.752 . S
C1820 C1191 1.751 1_554 S
C1822 C48 1.630 . S
C1831 C591 1.754 . S
C1833 C88 1.629 . S
C1842 C128 1.627 . S
C1844 C1271 1.752 . S
C1853 C351 1.749 . S
C1855 C168 1.638 1_554 S
C1864 C1031 1.751 . S
C1866 C208 1.628 . S
C1875 C431 1.754 . S
C1877 C248 1.629 . S
C1886 C1111 1.752 . S
C1888 C288 1.628 . S
C1897 C172 1.752 . S
C1899 C349 1.633 . S
C1908 C852 1.747 . S
C1910 C389 1.636 . S
C1919 C252 1.752 . S
C1921 C429 1.633 1_554 S
C1930 C469 1.631 . S
C1932 C932 1.750 . S
C1941 C12 1.751 . S
C1943 C509 1.634 . S
C1952 C692 1.752 1_554 S
C1954 C549 1.628 . S
C1963 C589 1.635 . S
C1965 C92 1.751 . S
C1974 C629 1.629 . S
C1976 C772 1.751 . S
C1985 C1151 1.753 . S
C1987 C648 1.629 . S
C1996 C551 1.752 . S
C1998 C688 1.630 . S
C2007 C728 1.639 . S
C2009 C1231 1.750 . S
C2018 C631 1.750 1_554 S
C2020 C768 1.631 . S
C2029 C808 1.637 . S
C2031 C991 1.750 . S
C2040 C848 1.632 . S
C2042 C391 1.750 . S
C2051 C1071 1.750 . S
C2053 C888 1.634 1_554 S
C2062 C471 1.747 . S
C2064 C928 1.635 . S
C2073 C989 1.630 1_554 S
C2075 C812 1.753 . S
C2084 C1029 1.626 . S
C2086 C212 1.751 . S
C2095 C1069 1.629 . S
C2097 C892 1.753 . S
C2106 C1109 1.637 . S
C2108 C292 1.748 . S
C2117 C652 1.753 . S
C2119 C1149 1.632 . S
C2128 C52 1.749 . S
C2130 C1189 1.634 . S
C2139 C1229 1.628 . S
C2141 C732 1.754 . S
C2150 C132 1.747 1_554 S
C2152 C1269 1.636 . S
C2161 C191 3.365 . S
C2163 C31 3.367 1_556 S
C2172 C231 3.365 . S
C2174 C71 3.368 . S
C2183 C111 3.364 . S
C2185 C271 3.366 . S
C2194 C311 3.366 . S
C2196 C151 3.368 . S
C2205 C492 3.366 . S
C2207 C332 3.367 . S
C2216 C372 3.368 . S
C2218 C532 3.365 . S
C2227 C412 3.363 . S
C2229 C572 3.365 1_556 S
C2238 C612 3.364 . S
C2240 C452 3.367 . S
C2249 C671 3.367 . S
C2251 C831 3.364 . S
C2260 C871 3.366 . S
C2262 C711 3.365 . S
C2271 C751 3.366 1_556 S
C2273 C911 3.364 . S
C2282 C791 3.366 . S
C2284 C951 3.365 . S
C2293 C1132 3.363 1_556 S
C2295 C972 3.366 . S
C2304 C1172 3.364 . S
C2306 C1012 3.367 . S
C2315 C1052 3.364 . S
C2317 C1212 3.367 . S
C2326 C1252 3.366 . S
C2328 C1092 3.365 . S
