# Generated by pormake.
# Topology hcp, (12)-cn, num edge types: 1
# Building blocks:
#     Node 0, Type 0, BuildingBlock: ZALLEG_clean_sbu_0, # of connection points: 12
#     Node 1, Type 0, BuildingBlock: ZALLEG_clean_sbu_0, # of connection points: 12
#     Edge 2, Type (0, 0), BuildingBlock: EZIPEK_clean_linker_0, # of connection points: 2
#     Edge 3, Type (0, 0), BuildingBlock: EZIPEK_clean_linker_0, # of connection points: 2
#     Edge 4, Type (0, 0), BuildingBlock: EZIPEK_clean_linker_0, # of connection points: 2
#     Edge 5, Type (0, 0), BuildingBlock: EZIPEK_clean_linker_0, # of connection points: 2
#     Edge 6, Type (0, 0), BuildingBlock: EZIPEK_clean_linker_0, # of connection points: 2
#     Edge 7, Type (0, 0), BuildingBlock: EZIPEK_clean_linker_0, # of connection points: 2
#     Edge 8, Type (0, 0), BuildingBlock: EZIPEK_clean_linker_0, # of connection points: 2
#     Edge 9, Type (0, 0), BuildingBlock: EZIPEK_clean_linker_0, # of connection points: 2
#     Edge 10, Type (0, 0), BuildingBlock: EZIPEK_clean_linker_0, # of connection points: 2
#     Edge 11, Type (0, 0), BuildingBlock: EZIPEK_clean_linker_0, # of connection points: 2
#     Edge 12, Type (0, 0), BuildingBlock: EZIPEK_clean_linker_0, # of connection points: 2
#     Edge 13, Type (0, 0), BuildingBlock: EZIPEK_clean_linker_0, # of connection points: 2
# Relax obj value: 0.186
# Max RMSD: 0.270
# Mean RMSD: 0.270
data_MOF--net-hcp--node1-ZALLEG_clean_sbu_0--edge1-EZIPEK_clean_linker_0
_symmetry_space_group_name_H-M    P1
_symmetry_Int_Tables_number       1
_symmetry_cell_setting            triclinic
loop_
_symmetry_equiv_pos_as_xyz
'x, y, z'
_cell_length_a     14.596009
_cell_length_b     14.638403
_cell_length_c     22.607272
_cell_angle_alpha  89.997165
_cell_angle_beta   90.067885
_cell_angle_gamma 119.94925
loop_
_atom_site_label
_atom_site_type_symbol
_atom_site_fract_x
_atom_site_fract_y
_atom_site_fract_z
_atom_type_partial_charge
H0 H 0.54597 0.10275 0.24592 0.0
O1 O 0.58165 0.17606 0.26031 0.0
Tb2 Tb 0.50432 0.25973 0.22839 0.0
Tb3 Tb 0.59784 0.17608 0.35339 0.0
Tb4 Tb 0.73312 0.25165 0.22883 0.0
O5 O 0.50013 0.23836 0.32242 0.0
O6 O 0.65879 0.3326 0.19367 0.0
O7 O 0.57614 0.40704 0.26356 0.0
O8 O 0.65676 0.3266 0.38838 0.0
O9 O 0.81407 0.41089 0.26242 0.0
O10 O 0.7461 0.26273 0.32219 0.0
H11 H 0.42883 0.20146 0.34016 0.0
H12 H 0.66009 0.3346 0.14989 0.0
Tb13 Tb 0.56226 0.38423 0.35636 0.0
Tb14 Tb 0.73631 0.48465 0.23081 0.0
H15 H 0.53592 0.44161 0.25158 0.0
H16 H 0.65852 0.32752 0.4314 0.0
Tb17 Tb 0.80767 0.42177 0.35483 0.0
H18 H 0.88915 0.44972 0.25094 0.0
H19 H 0.7816 0.22629 0.33865 0.0
O20 O 0.72198 0.48456 0.32414 0.0
H21 H 0.75852 0.55699 0.33997 0.0
O22 O 0.37134 0.10612 0.25183 0.0
O23 O 0.94101 0.57816 0.33572 0.0
O24 O 0.86623 0.38308 0.42687 0.0
O25 O 0.50334 0.37505 0.1564 0.0
O26 O 0.63037 0.04852 0.33663 0.0
O27 O 0.69984 0.61013 0.25467 0.0
O28 O 0.85461 0.49038 0.15848 0.0
O29 O 0.50051 0.11662 0.42561 0.0
O30 O 0.62606 0.14207 0.15328 0.0
O31 O 0.59512 0.47132 0.43122 0.0
O32 O 0.40073 0.35129 0.33989 0.0
O33 O 0.89258 0.27986 0.25497 0.0
O34 O 0.4361 0.04122 0.32922 0.0
O35 O 0.88343 0.62735 0.25037 0.0
O36 O 0.67779 0.52172 0.15485 0.0
O37 O 0.71759 0.21027 0.43614 0.0
O38 O 0.36121 0.26909 0.24588 0.0
O39 O 0.94164 0.39321 0.3403 0.0
O40 O 0.77464 0.51145 0.43429 0.0
O41 O 0.47576 0.16503 0.15128 0.0
O42 O 0.4858 0.26921 0.44102 0.0
O43 O 0.83607 0.31954 0.15614 0.0
O44 O 0.71155 0.09327 0.24272 0.0
O45 O 0.59291 0.54806 0.3423 0.0
C46 C 0.36132 0.03118 0.28957 0.0
C47 C 0.95423 0.6451 0.29229 0.0
C48 C 0.81484 0.29466 0.45532 0.0
C49 C 0.57968 0.47229 0.13591 0.0
C50 C 0.67172 0.02889 0.2892 0.0
C51 C 0.64515 0.62073 0.29982 0.0
C52 C 0.88196 0.41828 0.13837 0.0
C53 C 0.47153 0.17102 0.45806 0.0
C54 C 0.52895 0.11985 0.13183 0.0
C55 C 0.68638 0.51339 0.45711 0.0
C56 C 0.33702 0.30624 0.29373 0.0
C57 C 0.95885 0.33637 0.29944 0.0
H58 H 0.09597 0.54147 0.75697 0.0
O59 O 0.16935 0.57735 0.77185 0.0
Tb60 Tb 0.17331 0.59554 0.86487 0.0
Tb61 Tb 0.25569 0.50294 0.74122 0.0
Tb62 Tb 0.24423 0.72693 0.73891 0.0
O63 O 0.23939 0.50154 0.83453 0.0
O64 O 0.25514 0.74529 0.83198 0.0
O65 O 0.3268 0.66131 0.89811 0.0
O66 O 0.40641 0.57991 0.77262 0.0
O67 O 0.40454 0.81395 0.76966 0.0
O68 O 0.32625 0.6551 0.70538 0.0
H69 H 0.20297 0.42977 0.85129 0.0
H70 H 0.22027 0.78403 0.8465 0.0
Tb71 Tb 0.38961 0.571 0.86567 0.0
Tb72 Tb 0.41564 0.81208 0.86246 0.0
H73 H 0.32864 0.66401 0.94173 0.0
H74 H 0.44182 0.54174 0.75832 0.0
Tb75 Tb 0.47987 0.7385 0.73929 0.0
H76 H 0.44352 0.8866 0.75427 0.0
H77 H 0.32628 0.65464 0.66167 0.0
O78 O 0.48372 0.72919 0.83257 0.0
H79 H 0.55693 0.76541 0.84769 0.0
O80 O 0.03983 0.43208 0.84476 0.0
O81 O 0.61785 0.89446 0.75622 0.0
O82 O 0.51441 0.67821 0.66392 0.0
O83 O 0.19527 0.70966 0.94527 0.0
O84 O 0.1586 0.46368 0.66618 0.0
O85 O 0.51104 0.7977 0.94294 0.0
O86 O 0.39067 0.94628 0.83957 0.0
O87 O 0.28464 0.37181 0.75894 0.0
O88 O 0.08718 0.707 0.75511 0.0
O89 O 0.55114 0.59703 0.84529 0.0
O90 O 0.28407 0.48707 0.94962 0.0
O91 O 0.30287 0.8223 0.66345 0.0
O92 O 0.09712 0.37142 0.76109 0.0
O93 O 0.57245 0.94446 0.84621 0.0
O94 O 0.36875 0.85756 0.9365 0.0
O95 O 0.36002 0.50853 0.66265 0.0
O96 O 0.1324 0.5067 0.94124 0.0
O97 O 0.4713 0.83665 0.66073 0.0
O98 O 0.60964 0.70807 0.75887 0.0
O99 O 0.04064 0.61977 0.84774 0.0
O100 O 0.35667 0.40996 0.85476 0.0
O101 O 0.27586 0.88739 0.75588 0.0
O102 O 0.14762 0.62007 0.66058 0.0
O103 O 0.48068 0.62235 0.93984 0.0
C104 C 0.02673 0.36016 0.80278 0.0
C105 C 0.63748 0.96065 0.80137 0.0
C106 C 0.45661 0.58373 0.64125 0.0
C107 C 0.27799 0.80659 0.96333 0.0
C108 C 0.12407 0.52173 0.64121 0.0
C109 C 0.52441 0.71607 0.96328 0.0
C110 C 0.33778 0.9615 0.79499 0.0
C111 C 0.32261 0.34906 0.80716 0.0
C112 C 0.02193 0.66287 0.80086 0.0
C113 C 0.62225 0.65284 0.80248 0.0
C114 C 0.18789 0.4725 0.96913 0.0
C115 C 0.3956 0.85719 0.63856 0.0
C116 C 0.33123 0.98155 1.00579 0.0
C117 C 0.28914 0.87225 1.01762 0.0
C118 C 0.40566 0.92503 0.1066 0.0
C119 C 0.46267 0.03241 0.08747 0.0
N120 N 0.4784 0.16125 1.01615 0.0
N121 N 0.26598 0.74293 0.08746 0.0
C122 C 0.42394 0.05989 1.03643 0.0
C123 C 0.31999 0.84567 0.07113 0.0
N124 N 0.28523 0.00849 0.96171 0.0
N125 N 0.4309 0.90015 0.16007 0.0
H126 H 0.20266 0.68756 0.06214 0.0
H127 H 0.2785 0.71514 0.1269 0.0
H128 H 0.49797 0.95307 0.18362 0.0
H129 H 0.38517 0.82914 0.18199 0.0
H130 H 0.30539 0.08569 0.95165 0.0
H131 H 0.21988 0.95085 0.93846 0.0
H132 H 0.46058 0.18627 0.97695 0.0
H133 H 0.5478 0.21876 1.03633 0.0
C134 C 0.53918 0.48184 0.60194 0.0
C135 C 0.5175 0.56392 0.59446 0.0
C136 C 0.66086 0.64043 0.51835 0.0
C137 C 0.66858 0.54754 0.51776 0.0
N138 N 0.58286 0.36808 0.55444 0.0
N139 N 0.55036 0.7181 0.53883 0.0
C140 C 0.6017 0.46718 0.55955 0.0
C141 C 0.57735 0.6432 0.55107 0.0
N142 N 0.49788 0.41327 0.64852 0.0
N143 N 0.72999 0.72383 0.48467 0.0
H144 H 0.48619 0.71832 0.55903 0.0
H145 H 0.58397 0.7727 0.5047 0.0
H146 H 0.78914 0.72115 0.46001 0.0
H147 H 0.7347 0.7972 0.48549 0.0
H148 H 0.51427 0.3525 0.65588 0.0
H149 H 0.45257 0.41949 0.68196 0.0
H150 H 0.50368 0.30915 0.55179 0.0
H151 H 0.61946 0.3456 0.58635 0.0
C152 C 0.94362 0.37305 1.04499 0.0
C153 C 0.97159 0.43988 0.09548 0.0
C154 C 0.15911 0.48254 0.07834 0.0
C155 C 0.12934 0.42236 1.02595 0.0
N156 N 0.9902 0.26524 0.9846 0.0
N157 N 0.10544 0.53377 0.16921 0.0
C158 C 0.01994 0.35235 1.01814 0.0
C159 C 0.07963 0.48717 0.11509 0.0
N160 N 0.84326 0.32776 1.02287 0.0
N161 N 0.26299 0.5295 0.09383 0.0
H162 H 0.04885 0.5306 0.19834 0.0
H163 H 0.18184 0.57333 0.18579 0.0
H164 H 0.31726 0.52172 0.0673 0.0
H165 H 0.29434 0.57012 0.13296 0.0
H166 H 0.82082 0.28414 0.98375 0.0
H167 H 0.78593 0.34253 1.04071 0.0
H168 H 0.91162 0.20638 0.97902 0.0
H169 H 0.04761 0.24771 0.97026 0.0
C170 C 0.32566 0.94076 0.56238 0.0
C171 C 0.41302 0.93392 0.58815 0.0
C172 C 0.52983 0.10642 0.54653 0.0
C173 C 0.44639 0.11651 0.51916 0.0
N174 N 0.2609 0.04904 0.51505 0.0
N175 N 0.59817 -0.00497 0.57843 0.0
C176 C 0.34282 0.03516 0.53188 0.0
C177 C 0.51489 0.01273 0.57342 0.0
N178 N 0.22796 0.85241 0.56081 0.0
N179 N 0.62776 0.18866 0.54531 0.0
H180 H 0.58865 0.92101 0.58696 0.0
H181 H 0.67434 0.04815 0.56385 0.0
H182 H 0.64021 0.24764 0.51722 0.0
H183 H 0.68799 0.19785 0.57384 0.0
H184 H 0.16212 0.84913 0.54085 0.0
H185 H 0.21623 0.77827 0.5722 0.0
H186 H 0.1826 -0.0014 0.52711 0.0
H187 H 0.27422 0.11721 0.49281 0.0
C188 C 0.61891 0.56469 1.03712 0.0
C189 C 0.56359 0.54216 0.09194 0.0
C190 C 0.53725 0.69532 0.07203 0.0
C191 C 0.58476 0.71139 1.01613 0.0
N192 N 0.71238 0.69326 0.95893 0.0
N193 N 0.52227 0.62687 0.17091 0.0
C194 C 0.64268 0.65858 1.00483 0.0
C195 C 0.53759 0.61941 0.11228 0.0
N196 N 0.64821 0.4959 1.01556 0.0
N197 N 0.49096 0.75269 0.08654 0.0
H198 H 0.53065 0.57923 0.2017 0.0
H199 H 0.51356 0.68734 0.18921 0.0
H200 H 0.44706 0.73903 0.12488 0.0
H201 H 0.49601 0.81186 0.05865 0.0
H202 H 0.6811 0.50311 0.97375 0.0
H203 H 0.63083 0.42644 1.03763 0.0
H204 H 0.76181 0.66302 0.94907 0.0
H205 H 0.72576 0.75922 0.93428 0.0
C206 C 0.96452 0.31188 0.52083 0.0
C207 C 0.8708 0.31805 0.51615 0.0
C208 C 0.94401 0.45396 0.5975 0.0
C209 C 0.0424 0.46035 0.59462 0.0
N210 N 0.15239 0.40321 0.54548 0.0
N211 N 0.80196 0.43198 0.54499 0.0
C212 C 0.05412 0.39028 0.55448 0.0
C213 C 0.86866 0.39676 0.55405 0.0
N214 N 0.96911 0.23323 0.49119 0.0
N215 N 0.92095 0.50657 0.63989 0.0
H216 H 0.749 0.40313 0.51103 0.0
H217 H 0.749 0.40313 0.51103 0.0
H218 H 0.96946 0.54664 0.6755 0.0
H219 H 0.84707 0.50144 0.64282 0.0
H220 H 0.03159 0.21838 0.49515 0.0
H221 H 0.90423 0.17662 0.46727 0.0
H222 H 0.16846 0.36154 0.51378 0.0
H223 H 0.22002 0.46416 0.56519 0.0
C224 C 0.75546 0.91405 0.28034 0.0
C225 C 0.66421 0.92364 0.28793 0.0
C226 C 0.55905 0.73418 0.31161 0.0
C227 C 0.6508 0.72516 0.3038 0.0
N228 N 0.84099 0.8141 0.30455 0.0
N229 N 0.47443 0.83831 0.29652 0.0
C230 C 0.75027 0.81722 0.29445 0.0
C231 C 0.56496 0.83263 0.30054 0.0
N232 N 0.84678 -0.00427 0.25829 0.0
N233 N 0.46653 0.65031 0.33087 0.0
H234 H 0.47453 0.90695 0.28465 0.0
H235 H 0.39851 0.77318 0.29787 0.0
H236 H 0.45326 0.5741 0.33491 0.0
H237 H 0.404 0.65768 0.34739 0.0
H238 H 0.91092 0.98778 0.24529 0.0
H239 H 0.85655 0.06933 0.24827 0.0
H240 H 0.91619 0.88058 0.30433 0.0
H241 H 0.83979 0.74733 0.32143 0.0
C242 C 0.82507 0.5634 0.7931 0.0
C243 C 0.9203 0.66109 0.79986 0.0
C244 C 0.82017 0.75331 0.80997 0.0
C245 C 0.72471 0.65531 0.80296 0.0
N246 N 0.63771 0.47363 0.77205 0.0
N247 N 0.01148 0.84729 0.82088 0.0
C248 C 0.72735 0.56185 0.79065 0.0
C249 C 0.91886 0.75602 0.80919 0.0
N250 N 0.8278 0.47154 0.79033 0.0
N251 N 0.8162 0.84407 0.81605 0.0
H252 H 0.08521 0.85212 0.82066 0.0
H253 H 0.01635 0.91756 0.83421 0.0
H254 H 0.74567 0.84425 0.82163 0.0
H255 H 0.88148 0.91947 0.81302 0.0
H256 H 0.76081 0.39708 0.79331 0.0
H257 H 0.89802 0.46957 0.78915 0.0
H258 H 0.63684 0.40701 0.75518 0.0
H259 H 0.56472 0.46988 0.76877 0.0
C260 C 0.20127 0.88734 0.23568 0.0
C261 C 0.25494 0.93369 0.28984 0.0
C262 C 0.09737 0.80326 0.34405 0.0
C263 C 0.05461 0.74682 0.29085 0.0
N264 N 0.07437 0.73095 0.1854 0.0
N265 N 0.24721 0.93719 0.39645 0.0
C266 C 0.10814 0.78806 0.23657 0.0
C267 C 0.20157 0.89094 0.34421 0.0
N268 N 0.2363 0.937 0.18257 0.0
N269 N 0.03521 0.77948 0.3934 0.0
H270 H 0.3068 0.01528 0.39932 0.0
H271 H 0.22374 0.89672 0.43643 0.0
H272 H 0.95543 0.72194 0.39396 0.0
H273 H 0.05871 0.82479 0.43185 0.0
H274 H 0.18788 0.91709 0.14528 0.0
H275 H 0.31079 -0.0001 0.1749 0.0
H276 H 0.11717 0.75321 0.14617 0.0
H277 H 0.00892 0.65662 0.18222 0.0
C278 C 0.24942 0.16164 0.7753 0.0
C279 C 0.32883 0.25028 0.80638 0.0
C280 C 0.42853 0.15628 0.81863 0.0
C281 C 0.34608 0.06748 0.78953 0.0
N282 N 0.22042 0.02253 0.70897 0.0
N283 N 0.49151 0.32492 0.86514 0.0
C284 C 0.26814 0.07972 0.75873 0.0
C285 C 0.4176 0.24585 0.83041 0.0
N286 N 0.15338 0.15244 0.76338 0.0
N287 N 0.52349 0.16097 0.82753 0.0
H288 H 0.50124 0.39965 0.86936 0.0
H289 H 0.54391 0.31522 0.89214 0.0
H290 H 0.53933 0.1039 0.81107 0.0
H291 H 0.59143 0.22761 0.84256 0.0
H292 H 0.09038 0.08379 0.74586 0.0
H293 H 0.13221 0.20687 0.77765 0.0
H294 H 0.1672 0.03432 0.68388 0.0
H295 H 0.24919 0.98059 0.68592 0.0
C296 C 0.23984 0.40298 0.27771 0.0
C297 C 0.23662 0.30831 0.29404 0.0
C298 C 0.05114 0.23396 0.32339 0.0
C299 C 0.05634 0.32985 0.30589 0.0
N300 N 0.16734 0.51726 0.29286 0.0
N301 N 0.14136 0.13177 0.33232 0.0
C302 C 0.15436 0.41825 0.29148 0.0
C303 C 0.14281 0.22307 0.31748 0.0
N304 N 0.32211 0.47567 0.24507 0.0
N305 N 0.96098 0.15718 0.34933 0.0
H306 H 0.20781 0.12303 0.32832 0.0
H307 H 0.0746 0.0633 0.34634 0.0
H308 H 0.89486 0.1654 0.35587 0.0
H309 H 0.95244 0.08799 0.36729 0.0
H310 H 0.32704 0.54488 0.22948 0.0
H311 H 0.37862 0.45923 0.2285 0.0
H312 H 0.24102 0.58514 0.28887 0.0
H313 H 0.10643 0.53236 0.30257 0.0
C314 C 0.84864 0.23751 0.75836 0.0
C315 C 0.92664 0.25778 0.80198 0.0
C316 C 0.81596 0.08238 0.84384 0.0
C317 C 0.73731 0.06198 0.8008 0.0
N318 N 0.67195 0.12122 0.72003 0.0
N319 N 0.00134 0.18264 0.86738 0.0
C320 C 0.75221 0.13947 0.75828 0.0
C321 C 0.91513 0.17572 0.83962 0.0
N322 N 0.86993 0.30976 0.71485 0.0
N323 N 0.79564 0.01448 0.88996 0.0
H324 H 0.07593 0.24997 0.86576 0.0
H325 H 0.00038 0.11839 0.88794 0.0
H326 H 0.72427 0.94431 0.89514 0.0
H327 H 0.84736 0.03181 0.92549 0.0
H328 H 0.82239 0.29629 0.67793 0.0
H329 H 0.94008 0.38159 0.71386 0.0
H330 H 0.67146 0.17817 0.69276 0.0
H331 H 0.60083 0.04996 0.71814 0.0
loop_
_geom_bond_atom_site_label_1
_geom_bond_atom_site_label_2
_geom_bond_distance
_geom_bond_site_symmetry_2
_ccdc_geom_bond_type
H0 O1 0.850 . S
O1 H0 0.850 . S
O1 Tb2 2.341 . S
O1 Tb3 2.341 . S
O1 Tb4 2.341 . S
Tb2 O1 2.341 . S
Tb2 O5 2.341 . S
Tb2 O6 2.341 . S
Tb2 O7 2.341 . S
Tb2 O22 2.344 . S
Tb2 O25 2.344 . S
Tb2 O38 2.344 . S
Tb2 O41 2.344 . S
Tb3 O1 2.341 . S
Tb3 O5 2.341 . S
Tb3 O8 2.341 . S
Tb3 O10 2.341 . S
Tb3 O26 2.344 . S
Tb3 O29 2.344 . S
Tb3 O34 2.344 . S
Tb3 O37 2.344 . S
Tb4 O1 2.341 . S
Tb4 O6 2.341 . S
Tb4 O9 2.341 . S
Tb4 O10 2.341 . S
Tb4 O30 2.344 . S
Tb4 O33 2.344 . S
Tb4 O43 2.344 . S
Tb4 O44 2.344 . S
O5 Tb2 2.341 . S
O5 Tb3 2.341 . S
O5 H11 0.850 . S
O5 Tb13 2.341 . S
O6 Tb2 2.341 . S
O6 Tb4 2.341 . S
O6 H12 0.850 . S
O6 Tb14 2.341 . S
O7 Tb2 2.341 . S
O7 Tb13 2.341 . S
O7 Tb14 2.341 . S
O7 H15 0.850 . S
O8 Tb3 2.341 . S
O8 Tb13 2.341 . S
O8 H16 0.850 . S
O8 Tb17 2.341 . S
O9 Tb4 2.341 . S
O9 Tb14 2.341 . S
O9 Tb17 2.341 . S
O9 H18 0.850 . S
O10 Tb3 2.341 . S
O10 Tb4 2.341 . S
O10 Tb17 2.341 . S
O10 H19 0.850 . S
H11 O5 0.850 . S
H12 O6 0.850 . S
Tb13 O5 2.341 . S
Tb13 O7 2.341 . S
Tb13 O8 2.341 . S
Tb13 O20 2.341 . S
Tb13 O31 2.344 . S
Tb13 O32 2.344 . S
Tb13 O42 2.344 . S
Tb13 O45 2.344 . S
Tb14 O6 2.341 . S
Tb14 O7 2.341 . S
Tb14 O9 2.341 . S
Tb14 O20 2.341 . S
Tb14 O27 2.344 . S
Tb14 O28 2.344 . S
Tb14 O35 2.344 . S
Tb14 O36 2.344 . S
H15 O7 0.850 . S
H16 O8 0.850 . S
Tb17 O8 2.341 . S
Tb17 O9 2.341 . S
Tb17 O10 2.341 . S
Tb17 O20 2.341 . S
Tb17 O23 2.344 . S
Tb17 O24 2.344 . S
Tb17 O39 2.344 . S
Tb17 O40 2.344 . S
H18 O9 0.850 . S
H19 O10 0.850 . S
O20 Tb13 2.341 . S
O20 Tb14 2.341 . S
O20 Tb17 2.341 . S
O20 H21 0.850 . S
H21 O20 0.850 . S
O22 Tb2 2.344 . S
O22 C46 1.272 1_545 S
O23 Tb17 2.344 . S
O23 C47 1.272 . S
O24 Tb17 2.344 . S
O24 C48 1.272 . S
O25 Tb2 2.344 . S
O25 C49 1.272 . S
O26 Tb3 2.344 . S
O26 C50 1.272 . S
O27 Tb14 2.344 . S
O27 C51 1.272 . S
O28 Tb14 2.344 . S
O28 C52 1.272 . S
O29 Tb3 2.344 . S
O29 C53 1.272 . S
O30 Tb4 2.344 . S
O30 C54 1.272 . S
O31 Tb13 2.344 . S
O31 C55 1.272 . S
O32 Tb13 2.344 . S
O32 C56 1.272 . S
O33 Tb4 2.344 . S
O33 C57 1.272 1_655 S
O34 Tb3 2.344 . S
O34 C46 1.272 1_545 S
O35 Tb14 2.344 . S
O35 C47 1.272 . S
O36 Tb14 2.344 . S
O36 C49 1.272 . S
O37 Tb3 2.344 . S
O37 C48 1.272 . S
O38 Tb2 2.344 . S
O38 C56 1.272 . S
O39 Tb17 2.344 . S
O39 C57 1.272 1_655 S
O40 Tb17 2.344 . S
O40 C55 1.272 . S
O41 Tb2 2.344 . S
O41 C54 1.272 . S
O42 Tb13 2.344 . S
O42 C53 1.272 . S
O43 Tb4 2.344 . S
O43 C52 1.272 . S
O44 Tb4 2.344 . S
O44 C50 1.272 . S
O45 Tb13 2.344 . S
O45 C51 1.272 . S
C46 O22 1.272 1_565 S
C46 O34 1.272 1_565 S
C47 O23 1.272 . S
C47 O35 1.272 . S
C48 O24 1.272 . S
C48 O37 1.272 . S
C49 O25 1.272 . S
C49 O36 1.272 . S
C50 O26 1.272 . S
C50 O44 1.272 . S
C51 O27 1.272 . S
C51 O45 1.272 . S
C52 O28 1.272 . S
C52 O43 1.272 . S
C53 O29 1.272 . S
C53 O42 1.272 . S
C54 O30 1.272 . S
C54 O41 1.272 . S
C55 O31 1.272 . S
C55 O40 1.272 . S
C56 O32 1.272 . S
C56 O38 1.272 . S
C57 O33 1.272 1_455 S
C57 O39 1.272 1_455 S
H58 O59 0.850 . S
O59 H58 0.850 . S
O59 Tb60 2.341 . S
O59 Tb61 2.341 . S
O59 Tb62 2.341 . S
Tb60 O59 2.341 . S
Tb60 O63 2.341 . S
Tb60 O64 2.341 . S
Tb60 O65 2.341 . S
Tb60 O80 2.344 . S
Tb60 O83 2.344 . S
Tb60 O96 2.344 . S
Tb60 O99 2.344 . S
Tb61 O59 2.341 . S
Tb61 O63 2.341 . S
Tb61 O66 2.341 . S
Tb61 O68 2.341 . S
Tb61 O84 2.344 . S
Tb61 O87 2.344 . S
Tb61 O92 2.344 . S
Tb61 O95 2.344 . S
Tb62 O59 2.341 . S
Tb62 O64 2.341 . S
Tb62 O67 2.341 . S
Tb62 O68 2.341 . S
Tb62 O88 2.344 . S
Tb62 O91 2.344 . S
Tb62 O101 2.344 . S
Tb62 O102 2.344 . S
O63 Tb60 2.341 . S
O63 Tb61 2.341 . S
O63 H69 0.850 . S
O63 Tb71 2.341 . S
O64 Tb60 2.341 . S
O64 Tb62 2.341 . S
O64 H70 0.850 . S
O64 Tb72 2.341 . S
O65 Tb60 2.341 . S
O65 Tb71 2.341 . S
O65 Tb72 2.341 . S
O65 H73 0.850 . S
O66 Tb61 2.341 . S
O66 Tb71 2.341 . S
O66 H74 0.850 . S
O66 Tb75 2.341 . S
O67 Tb62 2.341 . S
O67 Tb72 2.341 . S
O67 Tb75 2.341 . S
O67 H76 0.850 . S
O68 Tb61 2.341 . S
O68 Tb62 2.341 . S
O68 Tb75 2.341 . S
O68 H77 0.850 . S
H69 O63 0.850 . S
H70 O64 0.850 . S
Tb71 O63 2.341 . S
Tb71 O65 2.341 . S
Tb71 O66 2.341 . S
Tb71 O78 2.341 . S
Tb71 O89 2.344 . S
Tb71 O90 2.344 . S
Tb71 O100 2.344 . S
Tb71 O103 2.344 . S
Tb72 O64 2.341 . S
Tb72 O65 2.341 . S
Tb72 O67 2.341 . S
Tb72 O78 2.341 . S
Tb72 O85 2.344 . S
Tb72 O86 2.344 . S
Tb72 O93 2.344 . S
Tb72 O94 2.344 . S
H73 O65 0.850 . S
H74 O66 0.850 . S
Tb75 O66 2.341 . S
Tb75 O67 2.341 . S
Tb75 O68 2.341 . S
Tb75 O78 2.341 . S
Tb75 O81 2.344 . S
Tb75 O82 2.344 . S
Tb75 O97 2.344 . S
Tb75 O98 2.344 . S
H76 O67 0.850 . S
H77 O68 0.850 . S
O78 Tb71 2.341 . S
O78 Tb72 2.341 . S
O78 Tb75 2.341 . S
O78 H79 0.850 . S
H79 O78 0.850 . S
O80 Tb60 2.344 . S
O80 C104 1.272 1_455 S
O81 Tb75 2.344 . S
O81 C105 1.272 . S
O82 Tb75 2.344 . S
O82 C106 1.272 . S
O83 Tb60 2.344 . S
O83 C107 1.272 . S
O84 Tb61 2.344 . S
O84 C108 1.272 . S
O85 Tb72 2.344 . S
O85 C109 1.272 . S
O86 Tb72 2.344 . S
O86 C110 1.272 1_565 S
O87 Tb61 2.344 . S
O87 C111 1.272 . S
O88 Tb62 2.344 . S
O88 C112 1.272 . S
O89 Tb71 2.344 . S
O89 C113 1.272 . S
O90 Tb71 2.344 . S
O90 C114 1.272 . S
O91 Tb62 2.344 . S
O91 C115 1.272 . S
O92 Tb61 2.344 . S
O92 C104 1.272 1_455 S
O93 Tb72 2.344 . S
O93 C105 1.272 . S
O94 Tb72 2.344 . S
O94 C107 1.272 . S
O95 Tb61 2.344 . S
O95 C106 1.272 . S
O96 Tb60 2.344 . S
O96 C114 1.272 . S
O97 Tb75 2.344 . S
O97 C115 1.272 . S
O98 Tb75 2.344 . S
O98 C113 1.272 . S
O99 Tb60 2.344 . S
O99 C112 1.272 . S
O100 Tb71 2.344 . S
O100 C111 1.272 . S
O101 Tb62 2.344 . S
O101 C110 1.272 1_565 S
O102 Tb62 2.344 . S
O102 C108 1.272 . S
O103 Tb71 2.344 . S
O103 C109 1.272 . S
C104 O80 1.272 1_655 S
C104 O92 1.272 1_655 S
C105 O81 1.272 . S
C105 O93 1.272 . S
C106 O82 1.272 . S
C106 O95 1.272 . S
C107 O83 1.272 . S
C107 O94 1.272 . S
C108 O84 1.272 . S
C108 O102 1.272 . S
C109 O85 1.272 . S
C109 O103 1.272 . S
C110 O86 1.272 1_545 S
C110 O101 1.272 1_545 S
C111 O87 1.272 . S
C111 O100 1.272 . S
C112 O88 1.272 . S
C112 O99 1.272 . S
C113 O89 1.272 . S
C113 O98 1.272 . S
C114 O90 1.272 . S
C114 O96 1.272 . S
C115 O91 1.272 . S
C115 O97 1.272 . S
C116 C117 1.363 1_554 S
C116 C122 1.379 1_565 S
C116 N124 1.356 1_554 S
C117 C116 1.363 1_556 S
C117 C123 1.363 . S
C118 C119 1.363 1_566 S
C118 C123 1.379 . S
C118 N125 1.356 1_556 S
C119 C118 1.363 1_544 S
C119 C122 1.363 . S
N120 C122 1.356 . S
N120 H132 0.984 . S
N120 H133 0.985 . S
N121 C123 1.356 . S
N121 H126 0.984 . S
N121 H127 0.985 . S
C122 C116 1.379 1_545 S
C122 C119 1.363 . S
C122 N120 1.356 . S
C123 C117 1.363 . S
C123 C118 1.379 . S
C123 N121 1.356 . S
N124 C116 1.356 1_556 S
N124 H130 0.984 1_556 S
N124 H131 0.984 . S
N125 C118 1.356 1_554 S
N125 H128 0.984 1_565 S
N125 H129 0.985 1_554 S
H126 N121 0.984 . S
H127 N121 0.985 . S
H128 N125 0.984 1_545 S
H129 N125 0.985 1_556 S
H130 N124 0.984 1_554 S
H131 N124 0.984 . S
H132 N120 0.984 . S
H133 N120 0.985 . S
C134 C135 1.363 . S
C134 C140 1.379 . S
C134 N142 1.356 . S
C135 C134 1.363 . S
C135 C141 1.363 . S
C136 C137 1.363 . S
C136 C141 1.379 . S
C136 N143 1.356 . S
C137 C136 1.363 . S
C137 C140 1.363 . S
N138 C140 1.356 . S
N138 H150 0.984 . S
N138 H151 0.985 . S
N139 C141 1.356 . S
N139 H144 0.984 . S
N139 H145 0.985 . S
C140 C134 1.379 . S
C140 C137 1.363 . S
C140 N138 1.356 . S
C141 C135 1.363 . S
C141 C136 1.379 . S
C141 N139 1.356 . S
N142 C134 1.356 . S
N142 H148 0.984 . S
N142 H149 0.984 . S
N143 C136 1.356 . S
N143 H146 0.984 . S
N143 H147 0.985 . S
H144 N139 0.984 . S
H145 N139 0.985 . S
H146 N143 0.984 . S
H147 N143 0.985 . S
H148 N142 0.984 . S
H149 N142 0.984 . S
H150 N138 0.984 . S
H151 N138 0.985 . S
C152 C153 1.363 1_556 S
C152 C158 1.379 1_655 S
C152 N160 1.356 . S
C153 C152 1.363 1_554 S
C153 C159 1.363 1_655 S
C154 C155 1.363 1_554 S
C154 C159 1.379 . S
C154 N161 1.356 . S
C155 C154 1.363 1_556 S
C155 C158 1.363 . S
N156 C158 1.356 . S
N156 H168 0.984 . S
N156 H169 0.985 . S
N157 C159 1.356 . S
N157 H162 0.984 1_455 S
N157 H163 0.985 . S
C158 C152 1.379 1_455 S
C158 C155 1.363 . S
C158 N156 1.356 . S
C159 C153 1.363 1_455 S
C159 C154 1.379 . S
C159 N157 1.356 . S
N160 C152 1.356 . S
N160 H166 0.984 . S
N160 H167 0.984 1_556 S
N161 C154 1.356 . S
N161 H164 0.984 1_554 S
N161 H165 0.985 . S
H162 N157 0.984 1_655 S
H163 N157 0.985 . S
H164 N161 0.984 1_556 S
H165 N161 0.985 . S
H166 N160 0.984 . S
H167 N160 0.984 1_554 S
H168 N156 0.984 . S
H169 N156 0.985 . S
C170 C171 1.363 . S
C170 C176 1.379 1_565 S
C170 N178 1.356 . S
C171 C170 1.363 . S
C171 C177 1.363 1_565 S
C172 C173 1.363 . S
C172 C177 1.379 . S
C172 N179 1.356 . S
C173 C172 1.363 . S
C173 C176 1.363 . S
N174 C176 1.356 . S
N174 H186 0.984 . S
N174 H187 0.985 . S
N175 C177 1.356 . S
N175 H180 0.984 1_545 S
N175 H181 0.985 . S
C176 C170 1.379 1_545 S
C176 C173 1.363 . S
C176 N174 1.356 . S
C177 C171 1.363 1_545 S
C177 C172 1.379 . S
C177 N175 1.356 . S
N178 C170 1.356 . S
N178 H184 0.984 . S
N178 H185 0.984 . S
N179 C172 1.356 . S
N179 H182 0.984 . S
N179 H183 0.985 . S
H180 N175 0.984 1_565 S
H181 N175 0.985 . S
H182 N179 0.984 . S
H183 N179 0.985 . S
H184 N178 0.984 . S
H185 N178 0.984 . S
H186 N174 0.984 . S
H187 N174 0.985 . S
C188 C189 1.363 1_556 S
C188 C194 1.379 . S
C188 N196 1.356 . S
C189 C188 1.363 1_554 S
C189 C195 1.363 . S
C190 C191 1.363 1_554 S
C190 C195 1.379 . S
C190 N197 1.356 . S
C191 C190 1.363 1_556 S
C191 C194 1.363 . S
N192 C194 1.356 . S
N192 H204 0.984 . S
N192 H205 0.985 . S
N193 C195 1.356 . S
N193 H198 0.984 . S
N193 H199 0.985 . S
C194 C188 1.379 . S
C194 C191 1.363 . S
C194 N192 1.356 . S
C195 C189 1.363 . S
C195 C190 1.379 . S
C195 N193 1.356 . S
N196 C188 1.356 . S
N196 H202 0.984 . S
N196 H203 0.984 1_556 S
N197 C190 1.356 . S
N197 H200 0.984 1_554 S
N197 H201 0.985 . S
H198 N193 0.984 . S
H199 N193 0.985 . S
H200 N197 0.984 1_556 S
H201 N197 0.985 . S
H202 N196 0.984 . S
H203 N196 0.984 1_554 S
H204 N192 0.984 . S
H205 N192 0.985 . S
C206 C207 1.363 . S
C206 C212 1.379 1_655 S
C206 N214 1.356 . S
C207 C206 1.363 . S
C207 C213 1.363 . S
C208 C209 1.363 1_655 S
C208 C213 1.379 . S
C208 N215 1.356 . S
C209 C208 1.363 1_455 S
C209 C212 1.363 . S
N210 C212 1.356 . S
N210 H222 0.984 . S
N210 H223 0.985 . S
N211 C213 1.356 . S
N211 H216 0.984 . S
N211 H217 0.985 . S
C212 C206 1.379 1_455 S
C212 C209 1.363 . S
C212 N210 1.356 . S
C213 C207 1.363 . S
C213 C208 1.379 . S
C213 N211 1.356 . S
N214 C206 1.356 . S
N214 H220 0.984 1_655 S
N214 H221 0.984 . S
N215 C208 1.356 . S
N215 H218 0.984 1_655 S
N215 H219 0.985 . S
H216 N211 0.984 . S
H217 N211 0.985 . S
H218 N215 0.984 1_455 S
H219 N215 0.985 . S
H220 N214 0.984 1_455 S
H221 N214 0.984 . S
H222 N210 0.984 . S
H223 N210 0.985 . S
C224 C225 1.363 . S
C224 C230 1.379 . S
C224 N232 1.356 . S
C225 C224 1.363 . S
C225 C231 1.363 . S
C226 C227 1.363 . S
C226 C231 1.379 . S
C226 N233 1.356 . S
C227 C226 1.363 . S
C227 C230 1.363 . S
N228 C230 1.356 . S
N228 H240 0.984 . S
N228 H241 0.985 . S
N229 C231 1.356 . S
N229 H234 0.984 1_565 S
N229 H235 0.985 . S
C230 C224 1.379 . S
C230 C227 1.363 . S
C230 N228 1.356 . S
C231 C225 1.363 . S
C231 C226 1.379 . S
C231 N229 1.356 . S
N232 C224 1.356 . S
N232 H238 0.984 . S
N232 H239 0.984 1_565 S
N233 C226 1.356 . S
N233 H236 0.984 . S
N233 H237 0.985 . S
H234 N229 0.984 1_545 S
H235 N229 0.985 . S
H236 N233 0.984 . S
H237 N233 0.985 . S
H238 N232 0.984 . S
H239 N232 0.984 1_545 S
H240 N228 0.984 . S
H241 N228 0.985 . S
C242 C243 1.363 . S
C242 C248 1.379 . S
C242 N250 1.356 . S
C243 C242 1.363 . S
C243 C249 1.363 . S
C244 C245 1.363 . S
C244 C249 1.379 . S
C244 N251 1.356 . S
C245 C244 1.363 . S
C245 C248 1.363 . S
N246 C248 1.356 . S
N246 H258 0.984 . S
N246 H259 0.985 . S
N247 C249 1.356 . S
N247 H252 0.984 1_655 S
N247 H253 0.985 . S
C248 C242 1.379 . S
C248 C245 1.363 . S
C248 N246 1.356 . S
C249 C243 1.363 . S
C249 C244 1.379 . S
C249 N247 1.356 . S
N250 C242 1.356 . S
N250 H256 0.984 . S
N250 H257 0.984 1_655 S
N251 C244 1.356 . S
N251 H254 0.984 . S
N251 H255 0.985 . S
H252 N247 0.984 1_455 S
H253 N247 0.985 . S
H254 N251 0.984 . S
H255 N251 0.985 . S
H256 N250 0.984 . S
H257 N250 0.984 1_455 S
H258 N246 0.984 . S
H259 N246 0.985 . S
C260 C261 1.363 . S
C260 C266 1.379 . S
C260 N268 1.356 . S
C261 C260 1.363 . S
C261 C267 1.363 . S
C262 C263 1.363 . S
C262 C267 1.379 . S
C262 N269 1.356 . S
C263 C262 1.363 . S
C263 C266 1.363 . S
N264 C266 1.356 . S
N264 H276 0.984 . S
N264 H277 0.985 1_455 S
N265 C267 1.356 . S
N265 H270 0.984 . S
N265 H271 0.985 . S
C266 C260 1.379 . S
C266 C263 1.363 . S
C266 N264 1.356 . S
C267 C261 1.363 . S
C267 C262 1.379 . S
C267 N265 1.356 . S
N268 C260 1.356 . S
N268 H274 0.984 1_565 S
N268 H275 0.984 1_565 S
N269 C262 1.356 . S
N269 H272 0.984 1_455 S
N269 H273 0.985 . S
H270 N265 0.984 . S
H271 N265 0.985 . S
H272 N269 0.984 1_655 S
H273 N269 0.985 . S
H274 N268 0.984 1_545 S
H275 N268 0.984 1_545 S
H276 N264 0.984 . S
H277 N264 0.985 1_655 S
C278 C279 1.363 . S
C278 C284 1.379 . S
C278 N286 1.356 . S
C279 C278 1.363 . S
C279 C285 1.363 . S
C280 C281 1.363 . S
C280 C285 1.379 . S
C280 N287 1.356 . S
C281 C280 1.363 . S
C281 C284 1.363 . S
N282 C284 1.356 . S
N282 H294 0.984 1_545 S
N282 H295 0.985 1_545 S
N283 C285 1.356 . S
N283 H288 0.984 . S
N283 H289 0.985 . S
C284 C278 1.379 . S
C284 C281 1.363 . S
C284 N282 1.356 . S
C285 C279 1.363 . S
C285 C280 1.379 . S
C285 N283 1.356 . S
N286 C278 1.356 . S
N286 H292 0.984 . S
N286 H293 0.984 . S
N287 C280 1.356 . S
N287 H290 0.984 . S
N287 H291 0.985 . S
H288 N283 0.984 . S
H289 N283 0.985 . S
H290 N287 0.984 . S
H291 N287 0.985 . S
H292 N286 0.984 . S
H293 N286 0.984 . S
H294 N282 0.984 1_565 S
H295 N282 0.985 1_565 S
C296 C297 1.363 . S
C296 C302 1.379 . S
C296 N304 1.356 . S
C297 C296 1.363 . S
C297 C303 1.363 . S
C298 C299 1.363 . S
C298 C303 1.379 . S
C298 N305 1.356 . S
C299 C298 1.363 . S
C299 C302 1.363 . S
N300 C302 1.356 . S
N300 H312 0.984 . S
N300 H313 0.985 . S
N301 C303 1.356 . S
N301 H306 0.984 . S
N301 H307 0.985 . S
C302 C296 1.379 . S
C302 C299 1.363 . S
C302 N300 1.356 . S
C303 C297 1.363 . S
C303 C298 1.379 . S
C303 N301 1.356 . S
N304 C296 1.356 . S
N304 H310 0.984 . S
N304 H311 0.984 . S
N305 C298 1.356 . S
N305 H308 0.984 1_455 S
N305 H309 0.985 1_455 S
H306 N301 0.984 . S
H307 N301 0.985 . S
H308 N305 0.984 1_655 S
H309 N305 0.985 1_655 S
H310 N304 0.984 . S
H311 N304 0.984 . S
H312 N300 0.984 . S
H313 N300 0.985 . S
C314 C315 1.363 . S
C314 C320 1.379 . S
C314 N322 1.356 . S
C315 C314 1.363 . S
C315 C321 1.363 . S
C316 C317 1.363 . S
C316 C321 1.379 . S
C316 N323 1.356 . S
C317 C316 1.363 . S
C317 C320 1.363 . S
N318 C320 1.356 . S
N318 H330 0.984 . S
N318 H331 0.985 1_545 S
N319 C321 1.356 . S
N319 H324 0.984 1_655 S
N319 H325 0.985 1_655 S
C320 C314 1.379 . S
C320 C317 1.363 . S
C320 N318 1.356 . S
C321 C315 1.363 . S
C321 C316 1.379 . S
C321 N319 1.356 . S
N322 C314 1.356 . S
N322 H328 0.984 . S
N322 H329 0.984 . S
N323 C316 1.356 . S
N323 H326 0.984 1_545 S
N323 H327 0.985 . S
H324 N319 0.984 1_455 S
H325 N319 0.985 1_455 S
H326 N323 0.984 1_565 S
H327 N323 0.985 . S
H328 N322 0.984 . S
H329 N322 0.984 . S
H330 N318 0.984 . S
H331 N318 0.985 1_565 S
C117 C107 1.915 . S
C119 C54 2.098 . S
C135 C106 2.098 . S
C137 C55 1.915 . S
C153 C52 2.098 . S
C155 C114 1.915 . S
C171 C115 2.098 . S
C173 C53 1.915 . S
C189 C49 2.098 . S
C191 C109 1.915 . S
C207 C48 1.915 . S
C209 C108 2.098 . S
C225 C50 1.250 1_565 S
C227 C51 1.250 . S
C243 C112 1.250 1_655 S
C245 C113 1.250 . S
C261 C46 1.250 . S
C263 C47 1.250 1_455 S
C279 C111 1.250 . S
C281 C110 1.250 . S
C297 C56 1.250 . S
C299 C57 1.250 . S
C315 C104 1.250 . S
C317 C105 1.250 1_545 S
