# Generated by pormake.
# Topology uov, (4)-cn, num edge types: 1
# Building blocks:
#     Node 0, Type 0, BuildingBlock: NAHDIM_clean_sbu_0, # of connection points: 4
#     Node 1, Type 0, BuildingBlock: NAHDIM_clean_sbu_0, # of connection points: 4
#     Node 2, Type 0, BuildingBlock: NAHDIM_clean_sbu_0, # of connection points: 4
#     Node 3, Type 0, BuildingBlock: NAHDIM_clean_sbu_0, # of connection points: 4
#     Node 4, Type 0, BuildingBlock: NAHDIM_clean_sbu_0, # of connection points: 4
#     Node 5, Type 0, BuildingBlock: NAHDIM_clean_sbu_0, # of connection points: 4
#     Node 6, Type 0, BuildingBlock: NAHDIM_clean_sbu_0, # of connection points: 4
#     Node 7, Type 0, BuildingBlock: NAHDIM_clean_sbu_0, # of connection points: 4
#     Edge 8, Type (0, 0), BuildingBlock: MIFKUJ_clean_linker_0, # of connection points: 2
#     Edge 9, Type (0, 0), BuildingBlock: MIFKUJ_clean_linker_0, # of connection points: 2
#     Edge 10, Type (0, 0), BuildingBlock: MIFKUJ_clean_linker_0, # of connection points: 2
#     Edge 11, Type (0, 0), BuildingBlock: MIFKUJ_clean_linker_0, # of connection points: 2
#     Edge 12, Type (0, 0), BuildingBlock: MIFKUJ_clean_linker_0, # of connection points: 2
#     Edge 13, Type (0, 0), BuildingBlock: MIFKUJ_clean_linker_0, # of connection points: 2
#     Edge 14, Type (0, 0), BuildingBlock: MIFKUJ_clean_linker_0, # of connection points: 2
#     Edge 15, Type (0, 0), BuildingBlock: MIFKUJ_clean_linker_0, # of connection points: 2
#     Edge 16, Type (0, 0), BuildingBlock: MIFKUJ_clean_linker_0, # of connection points: 2
#     Edge 17, Type (0, 0), BuildingBlock: MIFKUJ_clean_linker_0, # of connection points: 2
#     Edge 18, Type (0, 0), BuildingBlock: MIFKUJ_clean_linker_0, # of connection points: 2
#     Edge 19, Type (0, 0), BuildingBlock: MIFKUJ_clean_linker_0, # of connection points: 2
#     Edge 20, Type (0, 0), BuildingBlock: MIFKUJ_clean_linker_0, # of connection points: 2
#     Edge 21, Type (0, 0), BuildingBlock: MIFKUJ_clean_linker_0, # of connection points: 2
#     Edge 22, Type (0, 0), BuildingBlock: MIFKUJ_clean_linker_0, # of connection points: 2
#     Edge 23, Type (0, 0), BuildingBlock: MIFKUJ_clean_linker_0, # of connection points: 2
# Relax obj value: 0.256
# Max RMSD: 0.232
# Mean RMSD: 0.232
data_MOF--net-uov--node1-NAHDIM_clean_sbu_0--edge1-MIFKUJ_clean_linker_0
_symmetry_space_group_name_H-M    P1
_symmetry_Int_Tables_number       1
_symmetry_cell_setting            triclinic
loop_
_symmetry_equiv_pos_as_xyz
'x, y, z'
_cell_length_a     38.887439
_cell_length_b     38.851083
_cell_length_c     53.684215
_cell_angle_alpha  89.959011
_cell_angle_beta   89.916081
_cell_angle_gamma 89.946008
loop_
_atom_site_label
_atom_site_type_symbol
_atom_site_fract_x
_atom_site_fract_y
_atom_site_fract_z
_atom_type_partial_charge
C0 C 0.04317 0.31196 0.62404 0.0
O1 O 0.03296 0.29209 0.64243 0.0
O2 O 0.00565 0.23472 0.58517 0.0
Zn3 Zn 0.05244 0.24745 0.59816 0.0
O4 O 0.06312 0.22173 0.62956 0.0
C5 C 0.07986 0.21414 0.55486 0.0
O6 O 0.0485 0.20169 0.55412 0.0
O7 O 0.05351 0.29832 0.60387 0.0
C8 C 0.04057 0.20728 0.64315 0.0
O9 O 0.00797 0.20939 0.63696 0.0
C10 C 0.97754 0.25045 0.58922 0.0
O11 O 0.9771 0.27722 0.60414 0.0
O12 O 0.08802 0.2347 0.57229 0.0
C13 C 0.32009 0.95005 0.34493 0.0
O14 O 0.29757 0.9628 0.3292 0.0
O15 O 0.24708 0.9873 0.38484 0.0
Zn16 Zn 0.25961 0.93944 0.37403 0.0
O17 O 0.23086 0.92554 0.34472 0.0
C18 C 0.25673 0.91554 0.42475 0.0
O19 O 0.27502 0.94337 0.42887 0.0
O20 O 0.3096 0.93747 0.36542 0.0
C21 C 0.21446 0.94723 0.33155 0.0
O22 O 0.21676 0.98016 0.33681 0.0
C23 C 0.26878 0.00912 0.39277 0.0
O24 O 0.30157 0.00097 0.39327 0.0
O25 O 0.24851 0.90791 0.40253 0.0
C26 C 0.98007 0.67339 0.60243 0.0
O27 O 0.99665 0.68859 0.58415 0.0
O28 O 0.00838 0.75754 0.59873 0.0
Zn29 Zn 0.9637 0.74313 0.61417 0.0
O30 O 0.95698 0.76533 0.64759 0.0
C31 C 0.92813 0.75538 0.56782 0.0
O32 O 0.95421 0.73824 0.55842 0.0
O33 O 0.96324 0.69165 0.61784 0.0
C34 C 0.94346 0.79507 0.64878 0.0
O35 O 0.93533 0.81112 0.62806 0.0
C36 C 0.0305 0.77818 0.6076 0.0
O37 O 0.02529 0.79219 0.62955 0.0
O38 O 0.92606 0.75921 0.59128 0.0
C39 C 0.66533 0.05562 0.36725 0.0
O40 O 0.68464 0.07244 0.35127 0.0
O41 O 0.74415 0.01997 0.41785 0.0
Zn42 Zn 0.72503 0.06022 0.39913 0.0
O43 O 0.75396 0.07103 0.36911 0.0
C44 C 0.73738 0.12955 0.41671 0.0
O45 O 0.74581 0.13542 0.39339 0.0
O46 O 0.67708 0.0487 0.38875 0.0
C47 C 0.78536 0.06278 0.3664 0.0
O48 O 0.80107 0.04527 0.38396 0.0
C49 C 0.7509 0.99084 0.4083 0.0
O50 O 0.7457 0.98591 0.38439 0.0
O51 O 0.72598 0.10009 0.42281 0.0
C52 C 0.96247 0.31752 0.12677 0.0
O53 O 0.97839 0.29994 0.1442 0.0
O54 O 0.99537 0.23758 0.09724 0.0
Zn55 Zn 0.94783 0.25021 0.10843 0.0
O56 O 0.9358 0.2291 0.1414 0.0
C57 C 0.88692 0.21868 0.08707 0.0
O58 O 0.87752 0.21478 0.11041 0.0
O59 O 0.94603 0.30146 0.11 0.0
C60 C 0.94409 0.19835 0.14679 0.0
O61 O 0.9622 0.18023 0.13081 0.0
C62 C 0.02184 0.23289 0.11067 0.0
O63 O 0.01937 0.23498 0.13503 0.0
O64 O 0.91521 0.23353 0.08213 0.0
C65 C 0.31362 0.05812 0.86512 0.0
O66 O 0.29092 0.04394 0.85022 0.0
O67 O 0.24052 0.02374 0.90543 0.0
Zn68 Zn 0.25351 0.07111 0.89373 0.0
O69 O 0.22547 0.08273 0.86376 0.0
C70 C 0.2574 0.10154 0.94224 0.0
O71 O 0.28059 0.07738 0.94562 0.0
O72 O 0.30336 0.07245 0.88505 0.0
C73 C 0.19337 0.07673 0.86342 0.0
O74 O 0.17863 0.06332 0.88321 0.0
C75 C 0.26176 -0.00012 0.91055 0.0
O76 O 0.29489 0.0055 0.90805 0.0
O77 O 0.24297 0.10433 0.92112 0.0
C78 C 0.03253 0.67211 0.07744 0.0
O79 O 0.01858 0.68555 0.05738 0.0
O80 O 0.98892 0.75016 0.07922 0.0
Zn81 Zn 0.03788 0.7425 0.0892 0.0
O82 O 0.04875 0.7674 0.12077 0.0
C83 C 0.09786 0.7494 0.05673 0.0
O84 O 0.11087 0.72391 0.06978 0.0
O85 O 0.04441 0.69203 0.09406 0.0
C86 C 0.04475 0.79977 0.12234 0.0
O87 O 0.03259 0.81674 0.10309 0.0
C88 C 0.96367 0.7519 0.0942 0.0
O89 O 0.96915 0.74993 0.1183 0.0
O90 O 0.06795 0.7605 0.06186 0.0
C91 C 0.65543 0.94996 0.90295 0.0
O92 O 0.66919 0.96421 0.92274 0.0
O93 O 0.7394 0.95713 0.92085 0.0
Zn94 Zn 0.72097 0.91729 0.90137 0.0
O95 O 0.75079 0.90983 0.87143 0.0
C96 C 0.70883 0.87513 0.9446 0.0
O97 O 0.68858 0.90075 0.95095 0.0
O98 O 0.67258 0.92775 0.89078 0.0
C99 C 0.781 0.89808 0.87438 0.0
O100 O 0.79182 0.891 0.89699 0.0
C101 C 0.7495 0.98491 0.91076 0.0
O102 O 0.7491 0.98773 0.88637 0.0
O103 O 0.72365 0.87584 0.9235 0.0
H104 H 0.95346 0.63408 0.64021 0.0
H105 H 0.96043 0.57201 0.64634 0.0
H106 H 0.01953 0.56574 0.57842 0.0
H107 H 0.01245 0.6275 0.57201 0.0
H108 H 0.97309 0.51361 0.58228 0.0
H109 H 0.0591 0.56787 0.63443 0.0
H110 H 0.07886 0.60687 0.66769 0.0
H111 H 0.0166 0.55275 0.72096 0.0
H112 H 0.99613 0.5137 0.68792 0.0
H113 H 0.0645 0.35991 0.59035 0.0
H114 H 0.0505 0.42107 0.58968 0.0
H115 H 0.99587 0.41047 0.65926 0.0
H116 H 0.01022 0.34907 0.66029 0.0
H117 H 0.03339 0.46987 0.65737 0.0
H118 H 0.95123 0.41228 0.60632 0.0
H119 H 0.93159 0.37278 0.57333 0.0
H120 H 0.98513 0.4327 0.5184 0.0
H121 H 0.00553 0.47228 0.55109 0.0
C122 C 0.96776 0.61944 0.6265 0.0
C123 C 0.98257 0.63572 0.60569 0.0
C124 C 0.9718 0.58403 0.63009 0.0
C125 C 0.99079 0.56442 0.61296 0.0
C126 C 0.0048 0.58046 0.59186 0.0
C127 C 0.00082 0.61578 0.58828 0.0
C128 C 0.99686 0.52727 0.61711 0.0
C129 C 0.98647 0.50405 0.59861 0.0
C130 C 0.01336 0.51478 0.63879 0.0
C131 C 0.02579 0.53813 0.65866 0.0
C132 C 0.04942 0.56447 0.6532 0.0
C133 C 0.06078 0.58655 0.67201 0.0
C134 C 0.04891 0.58236 0.6964 0.0
C135 C 0.02573 0.55601 0.70205 0.0
C136 C 0.01425 0.53389 0.68329 0.0
C137 C 0.0498 0.37059 0.60566 0.0
C138 C 0.03814 0.34959 0.62525 0.0
C139 C 0.0417 0.40552 0.60519 0.0
C140 C 0.02151 0.42005 0.62414 0.0
C141 C 0.01126 0.39961 0.64437 0.0
C142 C 0.01949 0.36458 0.64492 0.0
C143 C 0.01038 0.45636 0.62224 0.0
C144 C 0.01967 0.47938 0.64117 0.0
C145 C 0.99269 0.46867 0.601 0.0
C146 C 0.98012 0.44513 0.58121 0.0
C147 C 0.95901 0.41692 0.58723 0.0
C148 C 0.94771 0.39452 0.56858 0.0
C149 C 0.95717 0.4002 0.5438 0.0
C150 C 0.97785 0.42833 0.53761 0.0
C151 C 0.98925 0.45078 0.55619 0.0
H152 H 0.94846 0.38282 0.52939 0.0
H153 H 0.05773 0.59948 0.71095 0.0
H154 H 0.63123 0.06659 0.3233 0.0
H155 H 0.57448 0.04466 0.31149 0.0
H156 H 0.56524 0.99462 0.38295 0.0
H157 H 0.6217 0.01612 0.39484 0.0
H158 H 0.54601 0.95252 0.34434 0.0
H159 H 0.52558 0.06991 0.37231 0.0
H160 H 0.53365 0.13285 0.37104 0.0
H161 H 0.49958 0.13498 0.295 0.0
H162 H 0.49171 0.07194 0.29575 0.0
H163 H 0.37281 0.93077 0.37534 0.0
H164 H 0.4336 0.94389 0.37033 0.0
H165 H 0.4128 0.99143 0.29925 0.0
H166 H 0.35151 0.97893 0.30435 0.0
H167 H 0.44946 0.03282 0.32776 0.0
H168 H 0.45946 0.91631 0.30265 0.0
H169 H 0.45056 0.85354 0.30439 0.0
H170 H 0.5038 0.84891 0.37432 0.0
H171 H 0.5126 0.91173 0.37321 0.0
C172 C 0.61708 0.05094 0.33649 0.0
C173 C 0.63089 0.0432 0.36004 0.0
C174 C 0.58472 0.03844 0.32971 0.0
C175 C 0.56575 0.01808 0.34638 0.0
C176 C 0.5796 0.01015 0.36978 0.0
C177 C 0.61179 0.02267 0.3766 0.0
C178 C 0.53101 0.00553 0.33999 0.0
C179 C 0.5248 0.96998 0.34074 0.0
C180 C 0.50376 0.02836 0.33441 0.0
C181 C 0.5085 0.0662 0.33398 0.0
C182 C 0.52011 0.08377 0.35526 0.0
C183 C 0.52458 0.11946 0.35465 0.0
C184 C 0.51726 0.13789 0.33293 0.0
C185 C 0.50533 0.12067 0.31179 0.0
C186 C 0.50085 0.08497 0.3123 0.0
C187 C 0.38116 0.94352 0.35843 0.0
C188 C 0.35731 0.95402 0.34031 0.0
C189 C 0.41601 0.9508 0.35551 0.0
C190 C 0.42779 0.96835 0.33429 0.0
C191 C 0.40423 0.97778 0.31573 0.0
C192 C 0.36926 0.97058 0.31867 0.0
C193 C 0.46407 0.97973 0.33294 0.0
C194 C 0.47067 0.01512 0.33072 0.0
C195 C 0.49167 0.9567 0.33713 0.0
C196 C 0.48655 0.91883 0.33789 0.0
C197 C 0.46907 0.90196 0.31849 0.0
C198 C 0.46408 0.86635 0.31935 0.0
C199 C 0.47657 0.84726 0.33947 0.0
C200 C 0.49415 0.86374 0.35875 0.0
C201 C 0.4992 0.89935 0.35799 0.0
H202 H 0.47268 0.81969 0.3401 0.0
H203 H 0.52072 0.16552 0.33249 0.0
H204 H -0.00023 0.35964 0.15735 0.0
H205 H 0.01359 0.42035 0.15052 0.0
H206 H 0.95095 0.42075 0.08427 0.0
H207 H 0.93711 0.36019 0.09083 0.0
H208 H 0.01555 0.44654 0.07609 0.0
H209 H 0.92363 0.46102 0.13562 0.0
H210 H 0.8937 0.45171 0.17558 0.0
H211 H 0.97994 0.49378 0.21503 0.0
H212 H 0.01059 0.50292 0.1753 0.0
H213 H 0.00096 0.62361 0.04878 0.0
H214 H 0.99271 0.56288 0.05854 0.0
H215 H 0.05172 0.57504 0.12597 0.0
H216 H 0.05952 0.63613 0.1166 0.0
H217 H 0.99333 0.54214 0.13518 0.0
H218 H 0.08435 0.53067 0.07616 0.0
H219 H 0.11514 0.5399 0.03654 0.0
H220 H 0.03261 0.49179 0.99656 0.0
H221 H 0.00108 0.48268 0.03592 0.0
C222 C 0.98855 0.37277 0.14152 0.0
C223 C 0.9675 0.35506 0.12456 0.0
C224 C 0.99645 0.40744 0.13767 0.0
C225 C 0.98332 0.42491 0.11686 0.0
C226 C 0.96145 0.4076 0.10036 0.0
C227 C 0.95347 0.37304 0.10422 0.0
C228 C 0.99366 0.46074 0.1115 0.0
C229 C 0.01037 0.46756 0.08886 0.0
C230 C 0.98795 0.48779 0.12861 0.0
C231 C 0.96955 0.48229 0.1525 0.0
C232 C 0.93634 0.46799 0.15283 0.0
C233 C 0.91922 0.46281 0.17544 0.0
C234 C 0.93495 0.47205 0.19784 0.0
C235 C 0.96781 0.48658 0.19767 0.0
C236 C 0.98505 0.49179 0.17511 0.0
C237 C 0.01258 0.61331 0.06553 0.0
C238 C 0.0308 0.63468 0.08196 0.0
C239 C 0.00794 0.57854 0.07104 0.0
C240 C 0.02181 0.5644 0.0929 0.0
C241 C 0.04078 0.58547 0.10902 0.0
C242 C 0.0453 0.62032 0.10359 0.0
C243 C 0.01479 0.52811 0.09954 0.0
C244 C -0.00123 0.52114 0.12245 0.0
C245 C 0.02132 0.50086 0.08273 0.0
C246 C 0.04022 0.50625 0.05899 0.0
C247 C 0.07263 0.5223 0.0589 0.0
C248 C 0.09025 0.52746 0.03649 0.0
C249 C 0.07581 0.51651 0.01404 0.0
C250 C 0.04375 0.50029 0.01396 0.0
C251 C 0.02602 0.49508 0.03632 0.0
H252 H 0.08949 0.52053 0.99671 0.0
H253 H 0.92164 0.46803 0.21532 0.0
H254 H 0.34448 0.01815 0.82961 0.0
H255 H 0.40532 0.00236 0.82734 0.0
H256 H 0.42722 0.06992 0.88904 0.0
H257 H 0.36667 0.08603 0.89135 0.0
H258 H 0.47901 0.07018 0.8539 0.0
H259 H 0.41044 0.98809 0.90029 0.0
H260 H 0.36238 0.94736 0.90554 0.0
H261 H 0.40103 0.88619 0.84505 0.0
H262 H 0.4491 0.92691 0.83922 0.0
H263 H 0.61555 0.00096 0.92237 0.0
H264 H 0.55977 0.02084 0.90754 0.0
H265 H 0.56195 0.94476 0.84908 0.0
H266 H 0.61801 0.92445 0.86389 0.0
H267 H 0.49987 0.9472 0.87415 0.0
H268 H 0.57555 0.02621 0.83385 0.0
H269 H 0.62354 0.06746 0.83107 0.0
H270 H 0.57193 0.13493 0.88225 0.0
H271 H 0.52384 0.09385 0.88564 0.0
C272 C 0.36236 0.03019 0.84235 0.0
C273 C 0.35074 0.05291 0.86092 0.0
C274 C 0.39707 0.02111 0.84103 0.0
C275 C 0.42055 0.03463 0.85825 0.0
C276 C 0.40943 0.05919 0.87561 0.0
C277 C 0.37479 0.0682 0.87699 0.0
C278 C 0.45577 0.02065 0.86015 0.0
C279 C 0.48368 0.04331 0.85829 0.0
C280 C 0.46169 0.98545 0.86545 0.0
C281 C 0.43308 0.96074 0.86911 0.0
C282 C 0.40854 0.96609 0.88799 0.0
C283 C 0.38131 0.943 0.89109 0.0
C284 C 0.37858 0.91426 0.87558 0.0
C285 C 0.40314 0.9085 0.85701 0.0
C286 C 0.43038 0.93157 0.8538 0.0
C287 C 0.60424 0.98838 0.90636 0.0
C288 C 0.62122 0.96117 0.89427 0.0
C289 C 0.57246 -5e-05 0.89782 0.0
C290 C 0.55709 0.98461 0.87699 0.0
C291 C 0.57361 0.95705 0.86508 0.0
C292 C 0.60557 0.94551 0.87357 0.0
C293 C 0.52317 0.99687 0.86837 0.0
C294 C 0.49542 0.97389 0.86909 0.0
C295 C 0.51742 0.03184 0.86226 0.0
C296 C 0.54615 0.05682 0.8601 0.0
C297 C 0.57452 0.04973 0.84464 0.0
C298 C 0.60174 0.07311 0.84294 0.0
C299 C 0.60081 0.10377 0.8565 0.0
C300 C 0.57262 0.11117 0.87175 0.0
C301 C 0.54534 0.08787 0.87354 0.0
H302 H 0.62191 0.12183 0.85516 0.0
H303 H 0.35748 0.89642 0.87801 0.0
H304 H 0.30626 0.05662 0.41892 0.0
H305 H 0.28384 0.10507 0.44319 0.0
H306 H 0.18124 0.08215 0.41766 0.0
H307 H 0.20335 0.03421 0.39319 0.0
H308 H 0.19154 0.151 0.42098 0.0
H309 H 0.21111 0.04893 0.47191 0.0
H310 H 0.24728 0.00297 0.48981 0.0
H311 H 0.31234 0.07889 0.5237 0.0
H312 H 0.27676 0.1253 0.50569 0.0
H313 H 0.06759 0.17839 0.51231 0.0
H314 H 0.10935 0.1574 0.48212 0.0
H315 H 0.19152 0.20401 0.52411 0.0
H316 H 0.14959 0.22525 0.55471 0.0
H317 H 0.20392 0.13595 0.51234 0.0
H318 H 0.17245 0.23753 0.46878 0.0
H319 H 0.13305 0.28113 0.45147 0.0
H320 H 0.08753 0.20478 0.4041 0.0
H321 H 0.1263 0.16058 0.42137 0.0
C322 C 0.27903 0.06233 0.4181 0.0
C323 C 0.25649 0.04129 0.40444 0.0
C324 C 0.26628 0.08997 0.432 0.0
C325 C 0.23084 0.09686 0.43247 0.0
C326 C 0.20868 0.07726 0.41756 0.0
C327 C 0.22135 0.04971 0.4037 0.0
C328 C 0.21596 0.12197 0.45019 0.0
C329 C 0.19432 0.1479 0.44096 0.0
C330 C 0.22037 0.11841 0.47624 0.0
C331 C 0.24158 0.09054 0.48721 0.0
C332 C 0.23327 0.0558 0.48303 0.0
C333 C 0.25364 0.02967 0.49321 0.0
C334 C 0.28216 0.03801 0.50782 0.0
C335 C 0.29029 0.07248 0.51233 0.0
C336 C 0.27005 0.0987 0.50215 0.0
C337 C 0.09448 0.1845 0.51508 0.0
C338 C 0.1053 0.2034 0.53594 0.0
C339 C 0.11831 0.17269 0.49768 0.0
C340 C 0.15346 0.17954 0.50072 0.0
C341 C 0.16444 0.1987 0.52137 0.0
C342 C 0.14049 0.2108 0.53878 0.0
C343 C 0.17847 0.1642 0.48314 0.0
C344 C 0.20198 0.13999 0.49239 0.0
C345 C 0.17549 0.16913 0.45711 0.0
C346 C 0.15227 0.19569 0.44645 0.0
C347 C 0.15391 0.22998 0.45477 0.0
C348 C 0.1317 0.25481 0.44495 0.0
C349 C 0.10779 0.24573 0.42671 0.0
C350 C 0.10609 0.21179 0.41822 0.0
C351 C 0.12823 0.18684 0.42798 0.0
H352 H 0.0906 0.26499 0.41915 0.0
H353 H 0.29789 0.01776 0.51569 0.0
H354 H 0.26056 0.93056 0.4745 0.0
H355 H 0.2285 0.9032 0.50836 0.0
H356 H 0.18654 0.82966 0.45649 0.0
H357 H 0.21816 0.85697 0.42254 0.0
H358 H 0.13703 0.86146 0.48269 0.0
H359 H 0.24399 0.80497 0.50049 0.0
H360 H 0.30601 0.80129 0.50959 0.0
H361 H 0.29137 0.86096 0.57606 0.0
H362 H 0.22929 0.86541 0.56718 0.0
H363 H 0.04909 0.75157 0.56266 0.0
H364 H 0.094 0.77209 0.53472 0.0
H365 H 0.12423 0.84809 0.58892 0.0
H366 H 0.07919 0.82752 0.61732 0.0
H367 H 0.18061 0.81671 0.56331 0.0
H368 H 0.07392 0.87358 0.54517 0.0
H369 H 0.01172 0.87626 0.5365 0.0
H370 H 0.02631 0.8158 0.47039 0.0
H371 H 0.08856 0.8123 0.47889 0.0
C372 C 0.24501 0.90816 0.47037 0.0
C373 C 0.24166 0.89612 0.44579 0.0
C374 C 0.22679 0.8925 0.48977 0.0
C375 C 0.20512 0.86443 0.48491 0.0
C376 C 0.20303 0.85139 0.4606 0.0
C377 C 0.22117 0.86701 0.44123 0.0
C378 C 0.1822 0.8506 0.50456 0.0
C379 C 0.14666 0.85123 0.50016 0.0
C380 C 0.1947 0.83836 0.52768 0.0
C381 C 0.23204 0.83585 0.53302 0.0
C382 C 0.25404 0.8176 0.51692 0.0
C383 C 0.28919 0.81531 0.52207 0.0
C384 C 0.30264 0.83097 0.54335 0.0
C385 C 0.28093 0.84889 0.55956 0.0
C386 C 0.24575 0.85128 0.55449 0.0
C387 C 0.06548 0.7724 0.56884 0.0
C388 C 0.06026 0.78826 0.59209 0.0
C389 C 0.09116 0.78405 0.55284 0.0
C390 C 0.11202 0.81188 0.55966 0.0
C391 C 0.10826 0.8266 0.58336 0.0
C392 C 0.08246 0.81491 0.59948 0.0
C393 C 0.13571 0.82709 0.54113 0.0
C394 C 0.17119 0.82696 0.5458 0.0
C395 C 0.12324 0.83991 0.51819 0.0
C396 C 0.08587 0.84242 0.5128 0.0
C397 C 0.06383 0.86065 0.52888 0.0
C398 C 0.02857 0.86234 0.52399 0.0
C399 C 0.01505 0.84613 0.50295 0.0
C400 C 0.03681 0.82831 0.48671 0.0
C401 C 0.07209 0.82649 0.49154 0.0
H402 H 0.98774 0.84745 0.4992 0.0
H403 H 0.32986 0.82915 0.54731 0.0
H404 H 0.75356 0.98896 0.45895 0.0
H405 H 0.78 0.94519 0.48519 0.0
H406 H 0.80901 0.88736 0.41983 0.0
H407 H 0.78145 0.93071 0.39335 0.0
H408 H 0.78785 0.84503 0.45544 0.0
H409 H 0.86728 0.93867 0.4507 0.0
H410 H 0.88621 -0.00088 0.45332 0.0
H411 H 0.8603 0.00135 0.53107 0.0
H412 H 0.84075 0.94101 0.52885 0.0
H413 H 0.92279 0.75043 0.51714 0.0
H414 H 0.88813 0.78658 0.48948 0.0
H415 H 0.84554 0.8392 0.55316 0.0
H416 H 0.87985 0.80315 0.58095 0.0
H417 H 0.87429 0.88301 0.51749 0.0
H418 H 0.79556 0.78771 0.52134 0.0
H419 H 0.77809 0.72695 0.51767 0.0
H420 H 0.80561 0.72741 0.44019 0.0
H421 H 0.82372 0.78809 0.44347 0.0
C422 C 0.76541 0.96687 0.45011 0.0
C423 C 0.76568 0.96341 0.42405 0.0
C424 C 0.78063 0.94191 0.46515 0.0
C425 C 0.7971 0.91336 0.45446 0.0
C426 C 0.79656 0.90928 0.42847 0.0
C427 C 0.7809 0.93409 0.41337 0.0
C428 C 0.81553 0.88832 0.47047 0.0
C429 C 0.8071 0.85326 0.46877 0.0
C430 C 0.84033 0.89914 0.48809 0.0
C431 C 0.85232 0.93537 0.48956 0.0
C432 C 0.86543 0.9521 0.46833 0.0
C433 C 0.87631 0.98633 0.46975 0.0
C434 C 0.8745 0.00403 0.49235 0.0
C435 C 0.86178 0.98755 0.51359 0.0
C436 C 0.8508 0.95334 0.51226 0.0
C437 C 0.90564 0.76933 0.52527 0.0
C438 C 0.90419 0.77404 0.55123 0.0
C439 C 0.88581 0.78988 0.50945 0.0
C440 C 0.86435 0.81552 0.51932 0.0
C441 C 0.86201 0.81954 0.54522 0.0
C442 C 0.88156 0.79883 0.56106 0.0
C443 C 0.8463 0.83987 0.50266 0.0
C444 C 0.85501 0.87482 0.50416 0.0
C445 C 0.82213 0.82886 0.48471 0.0
C446 C 0.81136 0.79234 0.48272 0.0
C447 C 0.79822 0.77477 0.50357 0.0
C448 C 0.78812 0.74036 0.50155 0.0
C449 C 0.79083 0.7233 0.47873 0.0
C450 C 0.80357 0.74064 0.45786 0.0
C451 C 0.81373 0.77505 0.45979 0.0
H452 H 0.78298 0.69666 0.4772 0.0
H453 H 0.88291 0.03054 0.49341 0.0
H454 H 0.78242 0.18312 0.41259 0.0
H455 H 0.81274 0.2111 0.44675 0.0
H456 H 0.74838 0.15807 0.49984 0.0
H457 H 0.71854 0.12916 0.46574 0.0
H458 H 0.80412 0.24973 0.48775 0.0
H459 H 0.80005 0.12341 0.54396 0.0
H460 H 0.78911 0.06152 0.53712 0.0
H461 H 0.82419 0.07071 0.46155 0.0
H462 H 0.8358 0.13249 0.46805 0.0
H463 H 0.91225 0.2767 0.5936 0.0
H464 H 0.86164 0.261 0.56895 0.0
H465 H 0.9221 0.18573 0.52913 0.0
H466 H 0.97214 0.20043 0.55398 0.0
H467 H 0.86197 0.16016 0.53871 0.0
H468 H 0.90535 0.26702 0.50516 0.0
H469 H 0.9228 0.32794 0.50756 0.0
H470 H 0.82068 0.35616 0.53029 0.0
H471 H 0.80274 0.29528 0.5283 0.0
C472 C 0.77401 0.17815 0.43149 0.0
C473 C 0.74869 0.1533 0.43652 0.0
C474 C 0.79132 0.19428 0.45102 0.0
C475 C 0.78336 0.18598 0.47581 0.0
C476 C 0.75534 0.16428 0.48081 0.0
C477 C 0.73832 0.14781 0.46131 0.0
C478 C 0.80763 0.19553 0.49588 0.0
C479 C 0.81644 0.23025 0.49916 0.0
C480 C 0.8243 0.16998 0.51034 0.0
C481 C 0.81827 0.13265 0.50641 0.0
C482 C 0.80551 0.11217 0.52592 0.0
C483 C 0.79919 0.07713 0.52209 0.0
C484 C 0.80569 0.06227 0.49886 0.0
C485 C 0.81893 0.08232 0.47948 0.0
C486 C 0.82539 0.11733 0.48323 0.0
C487 C 0.91461 0.25658 0.57975 0.0
C488 C 0.94624 0.23992 0.57567 0.0
C489 C 0.88572 0.24774 0.56563 0.0
C490 C 0.88819 0.22244 0.54703 0.0
C491 C 0.91953 0.20524 0.54343 0.0
C492 C 0.94821 0.21381 0.55762 0.0
C493 C 0.85879 0.21438 0.5305 0.0
C494 C 0.84903 0.17983 0.52783 0.0
C495 C 0.84224 0.23996 0.51601 0.0
C496 C 0.85282 0.27659 0.51686 0.0
C497 C 0.88668 0.28621 0.51082 0.0
C498 C 0.89665 0.32072 0.51209 0.0
C499 C 0.8729 0.3459 0.51917 0.0
C500 C 0.83907 0.33662 0.52487 0.0
C501 C 0.82898 0.30212 0.52366 0.0
H502 H 0.88067 0.37261 0.52018 0.0
H503 H 0.80059 0.03519 0.49589 0.0
H504 H 0.78012 0.0451 0.8961 0.0
H505 H 0.79898 0.09262 0.9228 0.0
H506 H 0.76222 0.03802 0.98754 0.0
H507 H 0.74343 0.99053 0.96117 0.0
H508 H 0.74462 0.10844 0.98732 0.0
H509 H 0.84434 0.03489 0.9744 0.0
H510 H 0.8871 0.00454 0.94849 0.0
H511 H 0.91851 0.10056 0.91601 0.0
H512 H 0.87557 0.13143 0.94152 0.0
H513 H 0.83455 0.17227 0.09129 0.0
H514 H 0.80631 0.14092 0.05774 0.0
H515 H 0.86493 0.19824 0.00344 0.0
H516 H 0.8941 0.22896 0.037 0.0
H517 H 0.86937 0.13351 0.99357 0.0
H518 H 0.77594 0.20867 0.01027 0.0
H519 H 0.73306 0.24002 0.03541 0.0
H520 H 0.68896 0.14426 0.05936 0.0
H521 H 0.73188 0.11228 0.03465 0.0
C522 C 0.77596 0.04329 0.91601 0.0
C523 C 0.7605 0.01399 0.92655 0.0
C524 C 0.78671 0.07043 0.9312 0.0
C525 C 0.782 0.0687 0.9571 0.0
C526 C 0.76592 0.03985 0.96757 0.0
C527 C 0.75544 0.01265 0.95247 0.0
C528 C 0.79517 0.09612 0.97359 0.0
C529 C 0.77188 0.11395 0.98883 0.0
C530 C 0.8306 0.10393 0.97486 0.0
C531 C 0.85649 0.08539 0.95963 0.0
C532 C 0.86017 0.04948 0.96158 0.0
C533 C 0.88447 0.0322 0.947 0.0
C534 C 0.90544 0.05059 0.93055 0.0
C535 C 0.90221 0.08633 0.92871 0.0
C536 C 0.87791 0.10374 0.94323 0.0
C537 C 0.84105 0.17861 0.0722 0.0
C538 C 0.86672 0.20291 0.06679 0.0
C539 C 0.82471 0.1608 0.053 0.0
C540 C 0.83327 0.1674 0.02801 0.0
C541 C 0.85794 0.19267 0.02256 0.0
C542 C 0.87456 0.21022 0.04177 0.0
C543 C 0.8189 0.14567 0.00784 0.0
C544 C 0.84199 0.12873 0.99186 0.0
C545 C 0.78323 0.13896 0.00578 0.0
C546 C 0.75733 0.15807 0.02072 0.0
C547 C 0.75727 0.19427 0.02105 0.0
C548 C 0.73292 0.21216 0.0352 0.0
C549 C 0.70834 0.19414 0.04901 0.0
C550 C 0.70803 0.15819 0.04866 0.0
C551 C 0.73234 0.14016 0.03455 0.0
H552 H 0.68951 0.20804 0.05995 0.0
H553 H 0.92424 0.03717 0.91928 0.0
H554 H 0.27794 0.09835 0.99103 0.0
H555 H 0.25185 0.12802 0.0266 0.0
H556 H 0.18272 0.18113 0.97685 0.0
H557 H 0.20891 0.15224 0.94135 0.0
H558 H 0.20246 0.22267 0.01413 0.0
H559 H 0.16014 0.10502 0.00519 0.0
H560 H 0.16705 0.04192 0.00362 0.0
H561 H 0.21109 0.04263 0.07693 0.0
H562 H 0.20482 0.10584 0.07877 0.0
H563 H 0.03775 0.24058 0.06172 0.0
H564 H 0.09122 0.22571 0.04079 0.0
H565 H 0.13491 0.19295 0.11073 0.0
H566 H 0.08097 0.20795 0.13206 0.0
H567 H 0.14194 0.14481 0.07292 0.0
H568 H 0.16738 0.26288 0.08451 0.0
H569 H 0.15623 0.32535 0.08484 0.0
H570 H 0.14068 0.32408 0.00569 0.0
H571 H 0.15121 0.26151 0.00489 0.0
C572 C 0.25759 0.11681 0.98765 0.0
C573 C 0.24515 0.12258 0.96341 0.0
C574 C 0.2427 0.13369 0.00799 0.0
C575 C 0.21503 0.15639 0.00438 0.0
C576 C 0.20404 0.16371 0.98007 0.0
C577 C 0.21893 0.14699 0.95978 0.0
C578 C 0.19505 0.17012 0.02569 0.0
C579 C 0.18934 0.20574 0.0271 0.0
C580 C 0.17877 0.14805 0.04308 0.0
C581 C 0.18246 0.11012 0.04198 0.0
C582 C 0.17154 0.09172 0.02089 0.0
C583 C 0.1753 0.05595 0.01996 0.0
C584 C 0.18962 0.03829 0.04012 0.0
C585 C 0.2001 0.05636 0.06129 0.0
C586 C 0.19646 0.09214 0.06229 0.0
C587 C 0.05875 0.23046 0.07277 0.0
C588 C 0.05509 0.22528 0.09854 0.0
C589 C 0.08944 0.22227 0.06079 0.0
C590 C 0.11716 0.20869 0.07428 0.0
C591 C 0.11384 0.20371 0.10007 0.0
C592 C 0.08308 0.21226 0.11219 0.0
C593 C 0.14821 0.19722 0.06065 0.0
C594 C 0.15598 0.16198 0.06063 0.0
C595 C 0.16608 0.21963 0.04438 0.0
C596 C 0.16003 0.2574 0.04467 0.0
C597 C 0.1614 0.27587 0.06718 0.0
C598 C 0.1552 0.31132 0.06745 0.0
C599 C 0.14774 0.32867 0.0453 0.0
C600 C 0.14651 0.31061 0.02283 0.0
C601 C 0.15266 0.27515 0.02245 0.0
H602 H 0.14293 0.35611 0.04555 0.0
H603 H 0.1925 0.0106 0.03937 0.0
H604 H 0.16408 0.73536 0.04195 0.0
H605 H 0.1984 0.76696 0.01116 0.0
H606 H 0.11213 0.83398 0.99678 0.0
H607 H 0.07771 0.80245 0.02697 0.0
H608 H 0.14446 0.81729 0.95423 0.0
H609 H 0.17706 0.85619 0.03763 0.0
H610 H 0.20019 0.84747 0.07994 0.0
H611 H 0.29466 0.80907 0.04908 0.0
H612 H 0.27188 0.81723 0.00657 0.0
H613 H 0.19546 0.98233 0.92091 0.0
H614 H 0.17457 0.92931 0.93963 0.0
H615 H 0.27795 0.8889 0.94119 0.0
H616 H 0.29933 0.94254 0.92279 0.0
H617 H 0.24703 0.88008 0.9849 0.0
H618 H 0.21807 0.85483 0.90117 0.0
H619 H 0.19476 0.86564 0.8592 0.0
H620 H 0.09367 0.87884 0.89002 0.0
H621 H 0.11641 0.86862 0.93223 0.0
C622 C 0.15236 0.75662 0.03203 0.0
C623 C 0.11826 0.76658 0.03707 0.0
C624 C 0.17201 0.77466 0.01449 0.0
C625 C 0.15789 0.803 0.00186 0.0
C626 C 0.12353 0.81214 0.00626 0.0
C627 C 0.10393 0.79417 0.02366 0.0
C628 C 0.17895 0.82477 0.98509 0.0
C629 C 0.16694 0.83101 0.96086 0.0
C630 C 0.20899 0.84169 0.99346 0.0
C631 C 0.22263 0.83689 0.01898 0.0
C632 C 0.20266 0.84565 0.03989 0.0
C633 C 0.21572 0.84085 0.0639 0.0
C634 C 0.24883 0.82761 0.0672 0.0
C635 C 0.26899 0.81924 0.04649 0.0
C636 C 0.25603 0.82395 0.02245 0.0
C637 C 0.2138 0.9621 0.92497 0.0
C638 C 0.24909 0.9667 0.92041 0.0
C639 C 0.20176 0.93163 0.93552 0.0
C640 C 0.22462 0.90489 0.94144 0.0
C641 C 0.25985 0.90915 0.93662 0.0
C642 C 0.272 0.93979 0.92611 0.0
C643 C 0.21162 0.87379 0.95438 0.0
C644 C 0.22518 0.86571 0.97788 0.0
C645 C 0.18296 0.85521 0.94532 0.0
C646 C 0.16902 0.86104 0.91991 0.0
C647 C 0.1909 0.86021 0.89903 0.0
C648 C 0.17777 0.86622 0.87518 0.0
C649 C 0.14276 0.87294 0.87195 0.0
C650 C 0.12078 0.8736 0.89255 0.0
C651 C 0.13377 0.86763 0.91644 0.0
H652 H 0.13266 0.87761 0.85348 0.0
H653 H 0.25889 0.82392 0.0858 0.0
H654 H 0.68828 0.87006 0.99334 0.0
H655 H 0.71675 0.83711 0.02626 0.0
H656 H 0.7842 0.79128 0.97166 0.0
H657 H 0.75549 0.82326 0.93873 0.0
H658 H 0.7722 0.74691 0.00881 0.0
H659 H 0.8046 0.86783 0.00047 0.0
H660 H 0.79251 0.9302 0.00044 0.0
H661 H 0.75475 0.92341 0.0755 0.0
H662 H 0.76623 0.86087 0.07581 0.0
H663 H 0.94306 0.74317 0.04628 0.0
H664 H 0.88609 0.75268 0.02892 0.0
H665 H 0.84746 0.77925 0.10178 0.0
H666 H 0.9049 0.76969 0.11949 0.0
H667 H 0.83209 0.82748 0.0658 0.0
H668 H 0.81888 0.70695 0.07564 0.0
H669 H 0.83585 0.64587 0.07349 0.0
H670 H 0.84202 0.65235 0.99377 0.0
H671 H 0.8256 0.7136 0.99543 0.0
C672 C 0.70853 0.85222 0.98826 0.0
C673 C 0.72016 0.84985 0.9635 0.0
C674 C 0.72479 0.83345 0.00711 0.0
C675 C 0.75311 0.81239 0.00147 0.0
C676 C 0.76251 0.80751 0.97648 0.0
C677 C 0.74616 0.82602 0.95765 0.0
C678 C 0.77618 0.79939 0.02131 0.0
C679 C 0.78515 0.76439 0.02143 0.0
C680 C 0.7925 0.82213 0.03817 0.0
C681 C 0.78582 0.85969 0.03805 0.0
C682 C 0.79351 0.87964 0.0169 0.0
C683 C 0.78679 0.915 0.01684 0.0
C684 C 0.77276 0.93074 0.03793 0.0
C685 C 0.76552 0.91116 0.05916 0.0
C686 C 0.77211 0.87577 0.05929 0.0
C687 C 0.92245 0.75075 0.05872 0.0
C688 C 0.92852 0.7559 0.08424 0.0
C689 C 0.88978 0.75583 0.04879 0.0
C690 C 0.86246 0.76619 0.06413 0.0
C691 C 0.8682 0.77093 0.08971 0.0
C692 C 0.90097 0.76552 0.09975 0.0
C693 C 0.82909 0.77523 0.05263 0.0
C694 C 0.81826 0.80959 0.05397 0.0
C695 C 0.81151 0.75198 0.03687 0.0
C696 C 0.82105 0.71497 0.03569 0.0
C697 C 0.82403 0.69542 0.05765 0.0
C698 C 0.83354 0.66074 0.05652 0.0
C699 C 0.84002 0.64524 0.03351 0.0
C700 C 0.83694 0.66438 0.01158 0.0
C701 C 0.82746 0.69907 0.01261 0.0
H702 H 0.84741 0.6184 0.03267 0.0
H703 H 0.76758 0.95812 0.03785 0.0
H704 H 0.10592 0.19557 0.65923 0.0
H705 H 0.124 0.16496 0.69655 0.0
H706 H 0.01802 0.145 0.71549 0.0
H707 H -0.0005 0.17606 0.67804 0.0
H708 H 0.05474 0.16856 0.75517 0.0
H709 H 0.06663 0.07969 0.69528 0.0
H710 H 0.08387 0.05288 0.65557 0.0
H711 H 0.19013 0.07094 0.67273 0.0
H712 H 0.17354 0.09833 0.71239 0.0
H713 H 0.12388 0.06973 0.85673 0.0
H714 H 0.09064 0.08391 0.81936 0.0
H715 H 0.1837 0.11594 0.78217 0.0
H716 H 0.21704 0.10161 0.81915 0.0
H717 H 0.14328 0.07658 0.75221 0.0
H718 H 0.12961 0.1744 0.80807 0.0
H719 H 0.11242 0.2021 0.8475 0.0
H720 H 0.00883 0.16654 0.83751 0.0
H721 H 0.02555 0.13826 0.79814 0.0
C722 C 0.08637 0.1846 0.67123 0.0
C723 C 0.05126 0.18823 0.66566 0.0
C724 C 0.09678 0.1669 0.69248 0.0
C725 C 0.07236 0.15228 0.70855 0.0
C726 C 0.03724 0.15594 0.70319 0.0
C727 C 0.02675 0.17365 0.68181 0.0
C728 C 0.08395 0.13462 0.73147 0.0
C729 C 0.07347 0.14785 0.75457 0.0
C730 C 0.1086 0.10784 0.7306 0.0
C731 C 0.11879 0.09124 0.70678 0.0
C732 C 0.09367 0.07817 0.69052 0.0
C733 C 0.10333 0.06283 0.66802 0.0
C734 C 0.13807 0.06025 0.66161 0.0
C735 C 0.16323 0.07295 0.67772 0.0
C736 C 0.15371 0.08834 0.70023 0.0
C737 C 0.13725 0.0797 0.84056 0.0
C738 C 0.17306 0.08472 0.84093 0.0
C739 C 0.11822 0.08781 0.81927 0.0
C740 C 0.13473 0.10112 0.79809 0.0
C741 C 0.1705 0.10559 0.79831 0.0
C742 C 0.18949 0.09756 0.81952 0.0
C743 C 0.11503 0.11143 0.77576 0.0
C744 C 0.12396 0.09673 0.7528 0.0
C745 C 0.08894 0.1368 0.77675 0.0
C746 C 0.07892 0.15387 0.80035 0.0
C747 C 0.10324 0.17226 0.81439 0.0
C748 C 0.09357 0.18811 0.8367 0.0
C749 C 0.05958 0.18598 0.84505 0.0
C750 C 0.03516 0.1681 0.83105 0.0
C751 C 0.04472 0.15217 0.80874 0.0
H752 H 0.05214 0.19828 0.86232 0.0
H753 H 0.1455 0.04836 0.64418 0.0
H754 H 0.07231 0.77206 0.16451 0.0
H755 H 0.09378 0.80246 0.20095 0.0
H756 H 0.06326 0.89937 0.16844 0.0
H757 H 0.04213 0.86906 0.13152 0.0
H758 H 0.12751 0.90233 0.18576 0.0
H759 H 0.01944 0.86651 0.21816 0.0
H760 H 0.97216 0.82631 0.22758 0.0
H761 H 0.04013 0.76522 0.27251 0.0
H762 H 0.08798 0.80477 0.26307 0.0
H763 H 0.17766 0.98648 0.29863 0.0
H764 H 0.14221 0.96629 0.26395 0.0
H765 H 0.1671 0.86115 0.28257 0.0
H766 H 0.20225 0.88097 0.3173 0.0
H767 H 0.09875 0.8695 0.27266 0.0
H768 H 0.2078 0.90137 0.23543 0.0
H769 H 0.25529 0.94123 0.2257 0.0
H770 H 0.18447 0.01001 0.18977 0.0
H771 H 0.13647 0.97073 0.19959 0.0
C772 C 0.06984 0.79982 0.16515 0.0
C773 C 0.05556 0.81816 0.14509 0.0
C774 C 0.08195 0.81715 0.18609 0.0
C775 C 0.07973 0.85315 0.18754 0.0
C776 C 0.06509 0.87156 0.16771 0.0
C777 C 0.05299 0.8542 0.14667 0.0
C778 C 0.09469 0.8714 0.20916 0.0
C779 C 0.12066 0.89573 0.20478 0.0
C780 C 0.08612 0.86237 0.23395 0.0
C781 C 0.05737 0.83853 0.23977 0.0
C782 C 0.02438 0.84437 0.22991 0.0
C783 C -0.00254 0.82171 0.23528 0.0
C784 C 0.00315 0.7932 0.2506 0.0
C785 C 0.03576 0.78732 0.26063 0.0
C786 C 0.06279 0.80988 0.25531 0.0
C787 C 0.17554 0.95906 0.29536 0.0
C788 C 0.19288 0.93532 0.31064 0.0
C789 C 0.15532 0.9476 0.27553 0.0
C790 C 0.15223 0.91225 0.27065 0.0
C791 C 0.16911 0.88854 0.28608 0.0
C792 C 0.18933 0.89994 0.30585 0.0
C793 C 0.13202 0.89971 0.24918 0.0
C794 C 0.10509 0.8765 0.25363 0.0
C795 C 0.13965 0.90979 0.22447 0.0
C796 C 0.16851 0.93333 0.2185 0.0
C797 C 0.20232 0.92514 0.22564 0.0
C798 C 0.22933 0.94759 0.22008 0.0
C799 C 0.22289 0.97819 0.2072 0.0
C800 C 0.18942 0.98634 0.19979 0.0
C801 C 0.1623 0.96399 0.20534 0.0
H802 H 0.24384 0.99554 0.2029 0.0
H803 H 0.98227 0.77568 0.25473 0.0
H804 H 0.90042 0.84908 0.65776 0.0
H805 H 0.88063 0.87016 0.69805 0.0
H806 H 0.94631 0.79676 0.73525 0.0
H807 H 0.96527 0.77464 0.69486 0.0
H808 H 0.88586 0.79407 0.75455 0.0
H809 H 0.96234 0.8861 0.73586 0.0
H810 H 0.98872 0.93221 0.71073 0.0
H811 H 0.8921 0.98565 0.70807 0.0
H812 H 0.86499 0.93962 0.7329 0.0
H813 H 0.84203 0.86316 0.87323 0.0
H814 H 0.87698 0.8494 0.83661 0.0
H815 H 0.80534 0.90413 0.78979 0.0
H816 H 0.77018 0.91795 0.82624 0.0
H817 H 0.87514 0.91708 0.77813 0.0
H818 H 0.79867 0.82069 0.79323 0.0
H819 H 0.77332 0.77449 0.81886 0.0
H820 H 0.87325 0.72952 0.82898 0.0
H821 H 0.89926 0.77577 0.80368 0.0
C822 C 0.91101 0.83772 0.67451 0.0
C823 C 0.9343 0.81011 0.67315 0.0
C824 C 0.89984 0.84996 0.69757 0.0
C825 C 0.91229 0.83535 0.71974 0.0
C826 C 0.93635 0.80844 0.71841 0.0
C827 C 0.94719 0.79585 0.69532 0.0
C828 C 0.89807 0.84631 0.74415 0.0
C829 C 0.88428 0.82095 0.75991 0.0
C830 C 0.89536 0.88141 0.75101 0.0
C831 C 0.91157 0.90925 0.73611 0.0
C832 C 0.94665 0.90755 0.72977 0.0
C833 C 0.96174 0.93371 0.7156 0.0
C834 C 0.94208 0.96181 0.70777 0.0
C835 C 0.90729 0.96386 0.71414 0.0
C836 C 0.89206 0.93776 0.7283 0.0
C837 C 0.83384 0.8725 0.85517 0.0
C838 C 0.8032 0.89139 0.85257 0.0
C839 C 0.85383 0.8646 0.8343 0.0
C840 C 0.84356 0.8756 0.81055 0.0
C841 C 0.81366 0.89547 0.808 0.0
C842 C 0.79352 0.90314 0.82882 0.0
C843 C 0.86288 0.86487 0.78813 0.0
C844 C 0.87742 0.89024 0.77281 0.0
C845 C 0.86659 0.82978 0.78173 0.0
C846 C 0.85094 0.8019 0.79682 0.0
C847 C 0.81527 0.80111 0.8011 0.0
C848 C 0.80078 0.77489 0.81553 0.0
C849 C 0.82168 0.74914 0.82561 0.0
C850 C 0.8571 0.74951 0.82121 0.0
C851 C 0.87173 0.77571 0.80681 0.0
H852 H 0.81041 0.72886 0.83677 0.0
H853 H 0.95382 0.98203 0.69679 0.0
H854 H 0.76639 0.11235 0.33339 0.0
H855 H 0.79667 0.1306 0.29594 0.0
H856 H 0.8762 0.05555 0.31014 0.0
H857 H 0.84649 0.03799 0.3484 0.0
H858 H 0.90431 0.11291 0.2954 0.0
H859 H 0.81416 0.04291 0.26424 0.0
H860 H 0.75487 0.02148 0.25952 0.0
H861 H 0.72307 0.11977 0.23106 0.0
H862 H 0.78207 0.14197 0.23595 0.0
H863 H 0.96596 0.13878 0.16893 0.0
H864 H 0.94225 0.11142 0.20643 0.0
H865 H 0.86887 0.19409 0.2138 0.0
H866 H 0.89259 0.2218 0.17672 0.0
H867 H 0.84077 0.12514 0.21577 0.0
H868 H 0.93238 0.19479 0.25106 0.0
H869 H 0.9927 0.21351 0.25501 0.0
H870 H 0.02287 0.11045 0.27403 0.0
H871 H 0.96274 0.09102 0.26984 0.0
C872 C 0.79027 0.09962 0.32854 0.0
C873 C 0.80396 0.07355 0.34373 0.0
C874 C 0.80749 0.10997 0.30703 0.0
C875 C 0.83832 0.09391 0.2999 0.0
C876 C 0.85233 0.06816 0.31521 0.0
C877 C 0.83533 0.05812 0.33702 0.0
C878 C 0.85598 0.10468 0.27665 0.0
C879 C 0.89056 0.11493 0.27788 0.0
C880 C 0.83807 0.10747 0.25377 0.0
C881 C 0.80253 0.09417 0.25063 0.0
C882 C 0.79448 0.06003 0.25713 0.0
C883 C 0.76093 0.04774 0.2544 0.0
C884 C 0.73521 0.06927 0.24504 0.0
C885 C 0.74302 0.10312 0.23832 0.0
C886 C 0.77653 0.11556 0.24103 0.0
C887 C 0.94491 0.15119 0.17865 0.0
C888 C 0.93113 0.18243 0.16993 0.0
C889 C 0.93147 0.13558 0.20002 0.0
C890 C 0.90386 0.15081 0.21275 0.0
C891 C 0.89017 0.18199 0.20414 0.0
C892 C 0.90387 0.19783 0.18304 0.0
C893 C 0.88855 0.13409 0.23483 0.0
C894 C 0.85448 0.12263 0.23327 0.0
C895 C 0.90708 0.12966 0.25722 0.0
C896 C 0.94316 0.14138 0.25984 0.0
C897 C 0.95193 0.17606 0.25585 0.0
C898 C 0.98607 0.18681 0.25819 0.0
C899 C 0.01162 0.16316 0.26469 0.0
C900 C 0.00306 0.12872 0.26895 0.0
C901 C 0.96896 0.11784 0.26661 0.0
H902 H 0.03804 0.17153 0.26649 0.0
H903 H 0.70924 0.0597 0.24296 0.0
loop_
_geom_bond_atom_site_label_1
_geom_bond_atom_site_label_2
_geom_bond_distance
_geom_bond_site_symmetry_2
_ccdc_geom_bond_type
C0 O1 1.160 . S
C0 O7 1.185 . S
O1 C0 1.160 . S
O2 Zn3 1.899 . S
O2 C10 1.284 1_455 S
Zn3 O2 1.899 . S
Zn3 O4 2.032 . S
Zn3 O7 2.086 . S
Zn3 O12 1.977 . S
O4 Zn3 2.032 . S
O4 C8 1.278 . S
C5 O6 1.203 . S
C5 O12 1.267 . S
O6 C5 1.203 . S
O7 C0 1.185 . S
O7 Zn3 2.086 . S
C8 O4 1.278 . S
C8 O9 1.211 . S
O9 C8 1.211 . S
C10 O2 1.284 1_655 S
C10 O11 1.273 1_655 S
O11 C10 1.273 1_455 S
O12 Zn3 1.977 . S
O12 C5 1.267 . S
C13 O14 1.160 . S
C13 O20 1.185 . S
O14 C13 1.160 . S
O15 Zn16 1.899 . S
O15 C23 1.284 1_565 S
Zn16 O15 1.899 . S
Zn16 O17 2.032 . S
Zn16 O20 2.086 . S
Zn16 O25 1.977 . S
O17 Zn16 2.032 . S
O17 C21 1.278 . S
C18 O19 1.203 . S
C18 O25 1.267 . S
O19 C18 1.203 . S
O20 C13 1.185 . S
O20 Zn16 2.086 . S
C21 O17 1.278 . S
C21 O22 1.211 . S
O22 C21 1.211 . S
C23 O15 1.284 1_545 S
C23 O24 1.273 1_545 S
O24 C23 1.273 1_565 S
O25 Zn16 1.977 . S
O25 C18 1.267 . S
C26 O27 1.160 . S
C26 O33 1.185 . S
O27 C26 1.160 . S
O28 Zn29 1.899 . S
O28 C36 1.284 1_655 S
Zn29 O28 1.899 . S
Zn29 O30 2.032 . S
Zn29 O33 2.086 . S
Zn29 O38 1.977 . S
O30 Zn29 2.032 . S
O30 C34 1.278 . S
C31 O32 1.203 . S
C31 O38 1.267 . S
O32 C31 1.203 . S
O33 C26 1.185 . S
O33 Zn29 2.086 . S
C34 O30 1.278 . S
C34 O35 1.211 . S
O35 C34 1.211 . S
C36 O28 1.284 1_455 S
C36 O37 1.273 1_455 S
O37 C36 1.273 1_655 S
O38 Zn29 1.977 . S
O38 C31 1.267 . S
C39 O40 1.160 . S
C39 O46 1.185 . S
O40 C39 1.160 . S
O41 Zn42 1.899 . S
O41 C49 1.284 1_545 S
Zn42 O41 1.899 . S
Zn42 O43 2.032 . S
Zn42 O46 2.086 . S
Zn42 O51 1.977 . S
O43 Zn42 2.032 . S
O43 C47 1.278 . S
C44 O45 1.203 . S
C44 O51 1.267 . S
O45 C44 1.203 . S
O46 C39 1.185 . S
O46 Zn42 2.086 . S
C47 O43 1.278 . S
C47 O48 1.211 . S
O48 C47 1.211 . S
C49 O41 1.284 1_565 S
C49 O50 1.273 1_565 S
O50 C49 1.273 1_545 S
O51 Zn42 1.977 . S
O51 C44 1.267 . S
C52 O53 1.160 . S
C52 O59 1.185 . S
O53 C52 1.160 . S
O54 Zn55 1.899 . S
O54 C62 1.284 1_655 S
Zn55 O54 1.899 . S
Zn55 O56 2.032 . S
Zn55 O59 2.086 . S
Zn55 O64 1.977 . S
O56 Zn55 2.032 . S
O56 C60 1.278 . S
C57 O58 1.203 . S
C57 O64 1.267 . S
O58 C57 1.203 . S
O59 C52 1.185 . S
O59 Zn55 2.086 . S
C60 O56 1.278 . S
C60 O61 1.211 . S
O61 C60 1.211 . S
C62 O54 1.284 1_455 S
C62 O63 1.273 1_455 S
O63 C62 1.273 1_655 S
O64 Zn55 1.977 . S
O64 C57 1.267 . S
C65 O66 1.160 . S
C65 O72 1.185 . S
O66 C65 1.160 . S
O67 Zn68 1.899 . S
O67 C75 1.284 1_545 S
Zn68 O67 1.899 . S
Zn68 O69 2.032 . S
Zn68 O72 2.086 . S
Zn68 O77 1.977 . S
O69 Zn68 2.032 . S
O69 C73 1.278 . S
C70 O71 1.203 . S
C70 O77 1.267 . S
O71 C70 1.203 . S
O72 C65 1.185 . S
O72 Zn68 2.086 . S
C73 O69 1.278 . S
C73 O74 1.211 . S
O74 C73 1.211 . S
C75 O67 1.284 1_565 S
C75 O76 1.273 1_565 S
O76 C75 1.273 1_545 S
O77 Zn68 1.977 . S
O77 C70 1.267 . S
C78 O79 1.160 . S
C78 O85 1.185 . S
O79 C78 1.160 . S
O80 Zn81 1.899 . S
O80 C88 1.284 1_455 S
Zn81 O80 1.899 . S
Zn81 O82 2.032 . S
Zn81 O85 2.086 . S
Zn81 O90 1.977 . S
O82 Zn81 2.032 . S
O82 C86 1.278 . S
C83 O84 1.203 . S
C83 O90 1.267 . S
O84 C83 1.203 . S
O85 C78 1.185 . S
O85 Zn81 2.086 . S
C86 O82 1.278 . S
C86 O87 1.211 . S
O87 C86 1.211 . S
C88 O80 1.284 1_655 S
C88 O89 1.273 1_655 S
O89 C88 1.273 1_455 S
O90 Zn81 1.977 . S
O90 C83 1.267 . S
C91 O92 1.160 . S
C91 O98 1.185 . S
O92 C91 1.160 . S
O93 Zn94 1.899 . S
O93 C101 1.284 1_565 S
Zn94 O93 1.899 . S
Zn94 O95 2.032 . S
Zn94 O98 2.086 . S
Zn94 O103 1.977 . S
O95 Zn94 2.032 . S
O95 C99 1.278 . S
C96 O97 1.203 . S
C96 O103 1.267 . S
O97 C96 1.203 . S
O98 C91 1.185 . S
O98 Zn94 2.086 . S
C99 O95 1.278 . S
C99 O100 1.211 . S
O100 C99 1.211 . S
C101 O93 1.284 1_545 S
C101 O102 1.273 1_545 S
O102 C101 1.273 1_565 S
O103 Zn94 1.977 . S
O103 C96 1.267 . S
H104 C122 0.951 . S
H105 C124 0.951 . S
H106 C126 0.950 . S
H107 C127 0.950 1_455 S
H108 C129 0.950 . S
H109 C132 0.950 1_455 S
H110 C133 0.950 . S
H111 C135 0.950 . S
H112 C136 0.950 . S
H113 C137 0.951 . S
H114 C139 0.951 . S
H115 C141 0.950 . S
H116 C142 0.950 1_655 S
H117 C144 0.950 . S
H118 C147 0.950 1_655 S
H119 C148 0.950 . S
H120 C150 0.950 . S
H121 C151 0.950 . S
C122 H104 0.951 . S
C122 C123 1.366 . S
C122 C124 1.388 . S
C123 C122 1.366 . S
C123 C127 1.385 . S
C124 H105 0.951 . S
C124 C122 1.388 . S
C124 C125 1.366 . S
C125 C124 1.366 . S
C125 C126 1.414 1_655 S
C125 C128 1.499 . S
C126 H106 0.950 . S
C126 C125 1.414 1_455 S
C126 C127 1.374 1_455 S
C127 H107 0.950 1_655 S
C127 C123 1.385 . S
C127 C126 1.374 1_655 S
C128 C125 1.499 . S
C128 C129 1.373 1_655 S
C128 C130 1.389 . S
C129 H108 0.950 . S
C129 C128 1.373 1_455 S
C129 C145 1.377 . S
C130 C128 1.389 . S
C130 C131 1.524 . S
C130 C144 1.377 . S
C131 C130 1.524 . S
C131 C132 1.397 . S
C131 C136 1.363 . S
C132 H109 0.950 1_655 S
C132 C131 1.397 . S
C132 C133 1.334 . S
C133 H110 0.950 . S
C133 C132 1.334 . S
C133 C134 1.287 . S
C134 C133 1.287 . S
C134 C135 1.524 . S
C134 H153 0.913 . S
C135 H111 0.950 . S
C135 C134 1.524 . S
C135 C136 1.415 . S
C136 H112 0.950 . S
C136 C131 1.363 . S
C136 C135 1.415 . S
C137 H113 0.951 . S
C137 C138 1.366 . S
C137 C139 1.388 . S
C138 C137 1.366 . S
C138 C142 1.385 . S
C139 H114 0.951 . S
C139 C137 1.388 . S
C139 C140 1.366 . S
C140 C139 1.366 . S
C140 C141 1.414 1_455 S
C140 C143 1.499 . S
C141 H115 0.950 . S
C141 C140 1.414 1_655 S
C141 C142 1.374 1_655 S
C142 H116 0.950 1_455 S
C142 C138 1.385 . S
C142 C141 1.374 1_455 S
C143 C140 1.499 . S
C143 C144 1.373 1_455 S
C143 C145 1.389 . S
C144 H117 0.950 . S
C144 C130 1.377 . S
C144 C143 1.373 1_655 S
C145 C129 1.377 . S
C145 C143 1.389 . S
C145 C146 1.524 . S
C146 C145 1.524 . S
C146 C147 1.397 . S
C146 C151 1.363 . S
C147 H118 0.950 1_455 S
C147 C146 1.397 . S
C147 C148 1.334 . S
C148 H119 0.950 . S
C148 C147 1.334 . S
C148 C149 1.287 . S
C149 C148 1.287 . S
C149 C150 1.524 . S
C149 H152 0.999 . S
C150 H120 0.950 . S
C150 C149 1.524 . S
C150 C151 1.415 . S
C151 H121 0.950 . S
C151 C146 1.363 . S
C151 C150 1.415 . S
H152 C149 0.999 . S
H153 C134 0.913 . S
H154 C172 0.951 . S
H155 C174 0.951 . S
H156 C176 0.950 1_565 S
H157 C177 0.950 . S
H158 C179 0.950 . S
H159 C182 0.950 . S
H160 C183 0.950 . S
H161 C185 0.950 . S
H162 C186 0.950 . S
H163 C187 0.951 . S
H164 C189 0.951 . S
H165 C191 0.950 1_545 S
H166 C192 0.950 . S
H167 C194 0.950 . S
H168 C197 0.950 . S
H169 C198 0.950 . S
H170 C200 0.950 . S
H171 C201 0.950 . S
C172 H154 0.951 . S
C172 C173 1.366 . S
C172 C174 1.388 . S
C173 C172 1.366 . S
C173 C177 1.385 . S
C174 H155 0.951 . S
C174 C172 1.388 . S
C174 C175 1.366 . S
C175 C174 1.366 . S
C175 C176 1.414 . S
C175 C178 1.499 . S
C176 H156 0.950 1_545 S
C176 C175 1.414 . S
C176 C177 1.374 . S
C177 H157 0.950 . S
C177 C173 1.385 . S
C177 C176 1.374 . S
C178 C175 1.499 . S
C178 C179 1.373 1_545 S
C178 C180 1.389 . S
C179 H158 0.950 . S
C179 C178 1.373 1_565 S
C179 C195 1.377 . S
C180 C178 1.389 . S
C180 C181 1.524 . S
C180 C194 1.377 . S
C181 C180 1.524 . S
C181 C182 1.397 . S
C181 C186 1.363 . S
C182 H159 0.950 . S
C182 C181 1.397 . S
C182 C183 1.334 . S
C183 H160 0.950 . S
C183 C182 1.334 . S
C183 C184 1.287 . S
C184 C183 1.287 . S
C184 C185 1.524 . S
C184 H203 0.913 . S
C185 H161 0.950 . S
C185 C184 1.524 . S
C185 C186 1.415 . S
C186 H162 0.950 . S
C186 C181 1.363 . S
C186 C185 1.415 . S
C187 H163 0.951 . S
C187 C188 1.366 . S
C187 C189 1.388 . S
C188 C187 1.366 . S
C188 C192 1.385 . S
C189 H164 0.951 . S
C189 C187 1.388 . S
C189 C190 1.366 . S
C190 C189 1.366 . S
C190 C191 1.414 . S
C190 C193 1.499 . S
C191 H165 0.950 1_565 S
C191 C190 1.414 . S
C191 C192 1.374 . S
C192 H166 0.950 . S
C192 C188 1.385 . S
C192 C191 1.374 . S
C193 C190 1.499 . S
C193 C194 1.373 1_565 S
C193 C195 1.389 . S
C194 H167 0.950 . S
C194 C180 1.377 . S
C194 C193 1.373 1_545 S
C195 C179 1.377 . S
C195 C193 1.389 . S
C195 C196 1.524 . S
C196 C195 1.524 . S
C196 C197 1.397 . S
C196 C201 1.363 . S
C197 H168 0.950 . S
C197 C196 1.397 . S
C197 C198 1.334 . S
C198 H169 0.950 . S
C198 C197 1.334 . S
C198 C199 1.287 . S
C199 C198 1.287 . S
C199 C200 1.524 . S
C199 H202 0.999 . S
C200 H170 0.950 . S
C200 C199 1.524 . S
C200 C201 1.415 . S
C201 H171 0.950 . S
C201 C196 1.363 . S
C201 C200 1.415 . S
H202 C199 0.999 . S
H203 C184 0.913 . S
H204 C222 0.951 1_455 S
H205 C224 0.951 1_455 S
H206 C226 0.950 . S
H207 C227 0.950 . S
H208 C229 0.950 . S
H209 C232 0.950 . S
H210 C233 0.950 . S
H211 C235 0.950 . S
H212 C236 0.950 . S
H213 C237 0.951 1_655 S
H214 C239 0.951 1_655 S
H215 C241 0.950 . S
H216 C242 0.950 . S
H217 C244 0.950 . S
H218 C247 0.950 . S
H219 C248 0.950 . S
H220 C250 0.950 . S
H221 C251 0.950 . S
C222 H204 0.951 1_655 S
C222 C223 1.366 . S
C222 C224 1.388 . S
C223 C222 1.366 . S
C223 C227 1.385 . S
C224 H205 0.951 1_655 S
C224 C222 1.388 . S
C224 C225 1.366 . S
C225 C224 1.366 . S
C225 C226 1.414 . S
C225 C228 1.499 . S
C226 H206 0.950 . S
C226 C225 1.414 . S
C226 C227 1.374 . S
C227 H207 0.950 . S
C227 C223 1.385 . S
C227 C226 1.374 . S
C228 C225 1.499 . S
C228 C229 1.373 . S
C228 C230 1.389 1_655 S
C229 H208 0.950 . S
C229 C228 1.373 . S
C229 C245 1.377 . S
C230 C228 1.389 1_455 S
C230 C231 1.524 . S
C230 C244 1.377 . S
C231 C230 1.524 . S
C231 C232 1.397 1_455 S
C231 C236 1.363 . S
C232 H209 0.950 . S
C232 C231 1.397 1_655 S
C232 C233 1.334 . S
C233 H210 0.950 . S
C233 C232 1.334 . S
C233 C234 1.287 . S
C234 C233 1.287 . S
C234 C235 1.524 1_655 S
C234 H253 0.913 . S
C235 H211 0.950 . S
C235 C234 1.524 1_455 S
C235 C236 1.415 . S
C236 H212 0.950 . S
C236 C231 1.363 . S
C236 C235 1.415 . S
C237 H213 0.951 1_455 S
C237 C238 1.366 . S
C237 C239 1.388 . S
C238 C237 1.366 . S
C238 C242 1.385 . S
C239 H214 0.951 1_455 S
C239 C237 1.388 . S
C239 C240 1.366 . S
C240 C239 1.366 . S
C240 C241 1.414 . S
C240 C243 1.499 . S
C241 H215 0.950 . S
C241 C240 1.414 . S
C241 C242 1.374 . S
C242 H216 0.950 . S
C242 C238 1.385 . S
C242 C241 1.374 . S
C243 C240 1.499 . S
C243 C244 1.373 . S
C243 C245 1.389 1_455 S
C244 H217 0.950 . S
C244 C230 1.377 . S
C244 C243 1.373 . S
C245 C229 1.377 . S
C245 C243 1.389 1_655 S
C245 C246 1.524 . S
C246 C245 1.524 . S
C246 C247 1.397 1_655 S
C246 C251 1.363 . S
C247 H218 0.950 . S
C247 C246 1.397 1_455 S
C247 C248 1.334 . S
C248 H219 0.950 . S
C248 C247 1.334 . S
C248 C249 1.287 . S
C249 C248 1.287 . S
C249 C250 1.524 1_455 S
C249 H252 0.999 1_554 S
C250 H220 0.950 . S
C250 C249 1.524 1_655 S
C250 C251 1.415 . S
C251 H221 0.950 . S
C251 C246 1.363 . S
C251 C250 1.415 . S
H252 C249 0.999 1_556 S
H253 C234 0.913 . S
H254 C272 0.951 . S
H255 C274 0.951 1_565 S
H256 C276 0.950 . S
H257 C277 0.950 . S
H258 C279 0.950 . S
H259 C282 0.950 . S
H260 C283 0.950 . S
H261 C285 0.950 . S
H262 C286 0.950 . S
H263 C287 0.951 . S
H264 C289 0.951 1_545 S
H265 C291 0.950 . S
H266 C292 0.950 . S
H267 C294 0.950 . S
H268 C297 0.950 . S
H269 C298 0.950 . S
H270 C300 0.950 . S
H271 C301 0.950 . S
C272 H254 0.951 . S
C272 C273 1.366 . S
C272 C274 1.388 . S
C273 C272 1.366 . S
C273 C277 1.385 . S
C274 H255 0.951 1_545 S
C274 C272 1.388 . S
C274 C275 1.366 . S
C275 C274 1.366 . S
C275 C276 1.414 . S
C275 C278 1.499 . S
C276 H256 0.950 . S
C276 C275 1.414 . S
C276 C277 1.374 . S
C277 H257 0.950 . S
C277 C273 1.385 . S
C277 C276 1.374 . S
C278 C275 1.499 . S
C278 C279 1.373 . S
C278 C280 1.389 1_545 S
C279 H258 0.950 . S
C279 C278 1.373 . S
C279 C295 1.377 . S
C280 C278 1.389 1_565 S
C280 C281 1.524 . S
C280 C294 1.377 . S
C281 C280 1.524 . S
C281 C282 1.397 . S
C281 C286 1.363 . S
C282 H259 0.950 . S
C282 C281 1.397 . S
C282 C283 1.334 . S
C283 H260 0.950 . S
C283 C282 1.334 . S
C283 C284 1.287 . S
C284 C283 1.287 . S
C284 C285 1.524 . S
C284 H303 0.913 . S
C285 H261 0.950 . S
C285 C284 1.524 . S
C285 C286 1.415 . S
C286 H262 0.950 . S
C286 C281 1.363 . S
C286 C285 1.415 . S
C287 H263 0.951 . S
C287 C288 1.366 . S
C287 C289 1.388 . S
C288 C287 1.366 . S
C288 C292 1.385 . S
C289 H264 0.951 1_565 S
C289 C287 1.388 . S
C289 C290 1.366 . S
C290 C289 1.366 . S
C290 C291 1.414 . S
C290 C293 1.499 . S
C291 H265 0.950 . S
C291 C290 1.414 . S
C291 C292 1.374 . S
C292 H266 0.950 . S
C292 C288 1.385 . S
C292 C291 1.374 . S
C293 C290 1.499 . S
C293 C294 1.373 . S
C293 C295 1.389 1_565 S
C294 H267 0.950 . S
C294 C280 1.377 . S
C294 C293 1.373 . S
C295 C279 1.377 . S
C295 C293 1.389 1_545 S
C295 C296 1.524 . S
C296 C295 1.524 . S
C296 C297 1.397 . S
C296 C301 1.363 . S
C297 H268 0.950 . S
C297 C296 1.397 . S
C297 C298 1.334 . S
C298 H269 0.950 . S
C298 C297 1.334 . S
C298 C299 1.287 . S
C299 C298 1.287 . S
C299 C300 1.524 . S
C299 H302 0.999 . S
C300 H270 0.950 . S
C300 C299 1.524 . S
C300 C301 1.415 . S
C301 H271 0.950 . S
C301 C296 1.363 . S
C301 C300 1.415 . S
H302 C299 0.999 . S
H303 C284 0.913 . S
H304 C322 0.951 . S
H305 C324 0.951 . S
H306 C326 0.950 . S
H307 C327 0.950 . S
H308 C329 0.950 . S
H309 C332 0.950 . S
H310 C333 0.950 1_565 S
H311 C335 0.950 . S
H312 C336 0.950 . S
H313 C337 0.951 . S
H314 C339 0.951 . S
H315 C341 0.950 . S
H316 C342 0.950 . S
H317 C344 0.950 . S
H318 C347 0.950 . S
H319 C348 0.950 . S
H320 C350 0.950 . S
H321 C351 0.950 . S
C322 H304 0.951 . S
C322 C323 1.366 . S
C322 C324 1.388 . S
C323 C322 1.366 . S
C323 C327 1.385 . S
C324 H305 0.951 . S
C324 C322 1.388 . S
C324 C325 1.366 . S
C325 C324 1.366 . S
C325 C326 1.414 . S
C325 C328 1.499 . S
C326 H306 0.950 . S
C326 C325 1.414 . S
C326 C327 1.374 . S
C327 H307 0.950 . S
C327 C323 1.385 . S
C327 C326 1.374 . S
C328 C325 1.499 . S
C328 C329 1.373 . S
C328 C330 1.389 . S
C329 H308 0.950 . S
C329 C328 1.373 . S
C329 C345 1.377 . S
C330 C328 1.389 . S
C330 C331 1.524 . S
C330 C344 1.377 . S
C331 C330 1.524 . S
C331 C332 1.397 . S
C331 C336 1.363 . S
C332 H309 0.950 . S
C332 C331 1.397 . S
C332 C333 1.334 . S
C333 H310 0.950 1_545 S
C333 C332 1.334 . S
C333 C334 1.287 . S
C334 C333 1.287 . S
C334 C335 1.524 . S
C334 H353 0.913 . S
C335 H311 0.950 . S
C335 C334 1.524 . S
C335 C336 1.415 . S
C336 H312 0.950 . S
C336 C331 1.363 . S
C336 C335 1.415 . S
C337 H313 0.951 . S
C337 C338 1.366 . S
C337 C339 1.388 . S
C338 C337 1.366 . S
C338 C342 1.385 . S
C339 H314 0.951 . S
C339 C337 1.388 . S
C339 C340 1.366 . S
C340 C339 1.366 . S
C340 C341 1.414 . S
C340 C343 1.499 . S
C341 H315 0.950 . S
C341 C340 1.414 . S
C341 C342 1.374 . S
C342 H316 0.950 . S
C342 C338 1.385 . S
C342 C341 1.374 . S
C343 C340 1.499 . S
C343 C344 1.373 . S
C343 C345 1.389 . S
C344 H317 0.950 . S
C344 C330 1.377 . S
C344 C343 1.373 . S
C345 C329 1.377 . S
C345 C343 1.389 . S
C345 C346 1.524 . S
C346 C345 1.524 . S
C346 C347 1.397 . S
C346 C351 1.363 . S
C347 H318 0.950 . S
C347 C346 1.397 . S
C347 C348 1.334 . S
C348 H319 0.950 . S
C348 C347 1.334 . S
C348 C349 1.287 . S
C349 C348 1.287 . S
C349 C350 1.524 . S
C349 H352 0.999 . S
C350 H320 0.950 . S
C350 C349 1.524 . S
C350 C351 1.415 . S
C351 H321 0.950 . S
C351 C346 1.363 . S
C351 C350 1.415 . S
H352 C349 0.999 . S
H353 C334 0.913 . S
H354 C372 0.951 . S
H355 C374 0.951 . S
H356 C376 0.950 . S
H357 C377 0.950 . S
H358 C379 0.950 . S
H359 C382 0.950 . S
H360 C383 0.950 . S
H361 C385 0.950 . S
H362 C386 0.950 . S
H363 C387 0.951 1_655 S
H364 C389 0.951 . S
H365 C391 0.950 . S
H366 C392 0.950 . S
H367 C394 0.950 . S
H368 C397 0.950 . S
H369 C398 0.950 . S
H370 C400 0.950 . S
H371 C401 0.950 . S
C372 H354 0.951 . S
C372 C373 1.366 . S
C372 C374 1.388 . S
C373 C372 1.366 . S
C373 C377 1.385 . S
C374 H355 0.951 . S
C374 C372 1.388 . S
C374 C375 1.366 . S
C375 C374 1.366 . S
C375 C376 1.414 . S
C375 C378 1.499 . S
C376 H356 0.950 . S
C376 C375 1.414 . S
C376 C377 1.374 . S
C377 H357 0.950 . S
C377 C373 1.385 . S
C377 C376 1.374 . S
C378 C375 1.499 . S
C378 C379 1.373 . S
C378 C380 1.389 . S
C379 H358 0.950 . S
C379 C378 1.373 . S
C379 C395 1.377 . S
C380 C378 1.389 . S
C380 C381 1.524 . S
C380 C394 1.377 . S
C381 C380 1.524 . S
C381 C382 1.397 . S
C381 C386 1.363 . S
C382 H359 0.950 . S
C382 C381 1.397 . S
C382 C383 1.334 . S
C383 H360 0.950 . S
C383 C382 1.334 . S
C383 C384 1.287 . S
C384 C383 1.287 . S
C384 C385 1.524 . S
C384 H403 0.913 . S
C385 H361 0.950 . S
C385 C384 1.524 . S
C385 C386 1.415 . S
C386 H362 0.950 . S
C386 C381 1.363 . S
C386 C385 1.415 . S
C387 H363 0.951 1_455 S
C387 C388 1.366 . S
C387 C389 1.388 . S
C388 C387 1.366 . S
C388 C392 1.385 . S
C389 H364 0.951 . S
C389 C387 1.388 . S
C389 C390 1.366 . S
C390 C389 1.366 . S
C390 C391 1.414 . S
C390 C393 1.499 . S
C391 H365 0.950 . S
C391 C390 1.414 . S
C391 C392 1.374 . S
C392 H366 0.950 . S
C392 C388 1.385 . S
C392 C391 1.374 . S
C393 C390 1.499 . S
C393 C394 1.373 . S
C393 C395 1.389 . S
C394 H367 0.950 . S
C394 C380 1.377 . S
C394 C393 1.373 . S
C395 C379 1.377 . S
C395 C393 1.389 . S
C395 C396 1.524 . S
C396 C395 1.524 . S
C396 C397 1.397 . S
C396 C401 1.363 . S
C397 H368 0.950 . S
C397 C396 1.397 . S
C397 C398 1.334 . S
C398 H369 0.950 . S
C398 C397 1.334 . S
C398 C399 1.287 . S
C399 C398 1.287 . S
C399 C400 1.524 . S
C399 H402 0.999 . S
C400 H370 0.950 . S
C400 C399 1.524 . S
C400 C401 1.415 . S
C401 H371 0.950 . S
C401 C396 1.363 . S
C401 C400 1.415 . S
H402 C399 0.999 . S
H403 C384 0.913 . S
H404 C422 0.951 1_545 S
H405 C424 0.951 . S
H406 C426 0.950 . S
H407 C427 0.950 . S
H408 C429 0.950 . S
H409 C432 0.950 . S
H410 C433 0.950 . S
H411 C435 0.950 1_545 S
H412 C436 0.950 . S
H413 C437 0.951 . S
H414 C439 0.951 . S
H415 C441 0.950 . S
H416 C442 0.950 . S
H417 C444 0.950 . S
H418 C447 0.950 . S
H419 C448 0.950 . S
H420 C450 0.950 . S
H421 C451 0.950 . S
C422 H404 0.951 1_565 S
C422 C423 1.366 . S
C422 C424 1.388 . S
C423 C422 1.366 . S
C423 C427 1.385 . S
C424 H405 0.951 . S
C424 C422 1.388 . S
C424 C425 1.366 . S
C425 C424 1.366 . S
C425 C426 1.414 . S
C425 C428 1.499 . S
C426 H406 0.950 . S
C426 C425 1.414 . S
C426 C427 1.374 . S
C427 H407 0.950 . S
C427 C423 1.385 . S
C427 C426 1.374 . S
C428 C425 1.499 . S
C428 C429 1.373 . S
C428 C430 1.389 . S
C429 H408 0.950 . S
C429 C428 1.373 . S
C429 C445 1.377 . S
C430 C428 1.389 . S
C430 C431 1.524 . S
C430 C444 1.377 . S
C431 C430 1.524 . S
C431 C432 1.397 . S
C431 C436 1.363 . S
C432 H409 0.950 . S
C432 C431 1.397 . S
C432 C433 1.334 . S
C433 H410 0.950 . S
C433 C432 1.334 . S
C433 C434 1.287 1_565 S
C434 C433 1.287 1_545 S
C434 C435 1.524 1_545 S
C434 H453 0.913 . S
C435 H411 0.950 1_565 S
C435 C434 1.524 1_565 S
C435 C436 1.415 . S
C436 H412 0.950 . S
C436 C431 1.363 . S
C436 C435 1.415 . S
C437 H413 0.951 . S
C437 C438 1.366 . S
C437 C439 1.388 . S
C438 C437 1.366 . S
C438 C442 1.385 . S
C439 H414 0.951 . S
C439 C437 1.388 . S
C439 C440 1.366 . S
C440 C439 1.366 . S
C440 C441 1.414 . S
C440 C443 1.499 . S
C441 H415 0.950 . S
C441 C440 1.414 . S
C441 C442 1.374 . S
C442 H416 0.950 . S
C442 C438 1.385 . S
C442 C441 1.374 . S
C443 C440 1.499 . S
C443 C444 1.373 . S
C443 C445 1.389 . S
C444 H417 0.950 . S
C444 C430 1.377 . S
C444 C443 1.373 . S
C445 C429 1.377 . S
C445 C443 1.389 . S
C445 C446 1.524 . S
C446 C445 1.524 . S
C446 C447 1.397 . S
C446 C451 1.363 . S
C447 H418 0.950 . S
C447 C446 1.397 . S
C447 C448 1.334 . S
C448 H419 0.950 . S
C448 C447 1.334 . S
C448 C449 1.287 . S
C449 C448 1.287 . S
C449 C450 1.524 . S
C449 H452 0.999 . S
C450 H420 0.950 . S
C450 C449 1.524 . S
C450 C451 1.415 . S
C451 H421 0.950 . S
C451 C446 1.363 . S
C451 C450 1.415 . S
H452 C449 0.999 . S
H453 C434 0.913 . S
H454 C472 0.951 . S
H455 C474 0.951 . S
H456 C476 0.950 . S
H457 C477 0.950 . S
H458 C479 0.950 . S
H459 C482 0.950 . S
H460 C483 0.950 . S
H461 C485 0.950 . S
H462 C486 0.950 . S
H463 C487 0.951 . S
H464 C489 0.951 . S
H465 C491 0.950 . S
H466 C492 0.950 1_455 S
H467 C494 0.950 . S
H468 C497 0.950 . S
H469 C498 0.950 . S
H470 C500 0.950 . S
H471 C501 0.950 . S
C472 H454 0.951 . S
C472 C473 1.366 . S
C472 C474 1.388 . S
C473 C472 1.366 . S
C473 C477 1.385 . S
C474 H455 0.951 . S
C474 C472 1.388 . S
C474 C475 1.366 . S
C475 C474 1.366 . S
C475 C476 1.414 . S
C475 C478 1.499 . S
C476 H456 0.950 . S
C476 C475 1.414 . S
C476 C477 1.374 . S
C477 H457 0.950 . S
C477 C473 1.385 . S
C477 C476 1.374 . S
C478 C475 1.499 . S
C478 C479 1.373 . S
C478 C480 1.389 . S
C479 H458 0.950 . S
C479 C478 1.373 . S
C479 C495 1.377 . S
C480 C478 1.389 . S
C480 C481 1.524 . S
C480 C494 1.377 . S
C481 C480 1.524 . S
C481 C482 1.397 . S
C481 C486 1.363 . S
C482 H459 0.950 . S
C482 C481 1.397 . S
C482 C483 1.334 . S
C483 H460 0.950 . S
C483 C482 1.334 . S
C483 C484 1.287 . S
C484 C483 1.287 . S
C484 C485 1.524 . S
C484 H503 0.913 . S
C485 H461 0.950 . S
C485 C484 1.524 . S
C485 C486 1.415 . S
C486 H462 0.950 . S
C486 C481 1.363 . S
C486 C485 1.415 . S
C487 H463 0.951 . S
C487 C488 1.366 . S
C487 C489 1.388 . S
C488 C487 1.366 . S
C488 C492 1.385 . S
C489 H464 0.951 . S
C489 C487 1.388 . S
C489 C490 1.366 . S
C490 C489 1.366 . S
C490 C491 1.414 . S
C490 C493 1.499 . S
C491 H465 0.950 . S
C491 C490 1.414 . S
C491 C492 1.374 . S
C492 H466 0.950 1_655 S
C492 C488 1.385 . S
C492 C491 1.374 . S
C493 C490 1.499 . S
C493 C494 1.373 . S
C493 C495 1.389 . S
C494 H467 0.950 . S
C494 C480 1.377 . S
C494 C493 1.373 . S
C495 C479 1.377 . S
C495 C493 1.389 . S
C495 C496 1.524 . S
C496 C495 1.524 . S
C496 C497 1.397 . S
C496 C501 1.363 . S
C497 H468 0.950 . S
C497 C496 1.397 . S
C497 C498 1.334 . S
C498 H469 0.950 . S
C498 C497 1.334 . S
C498 C499 1.287 . S
C499 C498 1.287 . S
C499 C500 1.524 . S
C499 H502 0.999 . S
C500 H470 0.950 . S
C500 C499 1.524 . S
C500 C501 1.415 . S
C501 H471 0.950 . S
C501 C496 1.363 . S
C501 C500 1.415 . S
H502 C499 0.999 . S
H503 C484 0.913 . S
H504 C522 0.951 . S
H505 C524 0.951 . S
H506 C526 0.950 . S
H507 C527 0.950 . S
H508 C529 0.950 . S
H509 C532 0.950 . S
H510 C533 0.950 1_565 S
H511 C535 0.950 . S
H512 C536 0.950 . S
H513 C537 0.951 . S
H514 C539 0.951 . S
H515 C541 0.950 . S
H516 C542 0.950 . S
H517 C544 0.950 . S
H518 C547 0.950 1_556 S
H519 C548 0.950 . S
H520 C550 0.950 . S
H521 C551 0.950 . S
C522 H504 0.951 . S
C522 C523 1.366 . S
C522 C524 1.388 . S
C523 C522 1.366 . S
C523 C527 1.385 . S
C524 H505 0.951 . S
C524 C522 1.388 . S
C524 C525 1.366 . S
C525 C524 1.366 . S
C525 C526 1.414 . S
C525 C528 1.499 . S
C526 H506 0.950 . S
C526 C525 1.414 . S
C526 C527 1.374 . S
C527 H507 0.950 . S
C527 C523 1.385 . S
C527 C526 1.374 . S
C528 C525 1.499 . S
C528 C529 1.373 . S
C528 C530 1.389 . S
C529 H508 0.950 . S
C529 C528 1.373 . S
C529 C545 1.354 1_556 S
C530 C528 1.389 . S
C530 C531 1.524 . S
C530 C544 1.377 . S
C531 C530 1.524 . S
C531 C532 1.397 . S
C531 C536 1.363 . S
C532 H509 0.950 . S
C532 C531 1.397 . S
C532 C533 1.334 . S
C533 H510 0.950 1_545 S
C533 C532 1.334 . S
C533 C534 1.287 . S
C534 C533 1.287 . S
C534 C535 1.524 . S
C534 H553 0.913 . S
C535 H511 0.950 . S
C535 C534 1.524 . S
C535 C536 1.415 . S
C536 H512 0.950 . S
C536 C531 1.363 . S
C536 C535 1.415 . S
C537 H513 0.951 . S
C537 C538 1.366 . S
C537 C539 1.388 . S
C538 C537 1.366 . S
C538 C542 1.385 . S
C539 H514 0.951 . S
C539 C537 1.388 . S
C539 C540 1.366 . S
C540 C539 1.366 . S
C540 C541 1.414 . S
C540 C543 1.499 . S
C541 H515 0.950 . S
C541 C540 1.414 . S
C541 C542 1.374 . S
C542 H516 0.950 . S
C542 C538 1.385 . S
C542 C541 1.374 . S
C543 C540 1.499 . S
C543 C544 1.373 1_554 S
C543 C545 1.397 . S
C544 H517 0.950 . S
C544 C530 1.377 . S
C544 C543 1.373 1_556 S
C545 C529 1.354 1_554 S
C545 C543 1.397 . S
C545 C546 1.539 . S
C546 C545 1.539 . S
C546 C547 1.397 . S
C546 C551 1.363 . S
C547 H518 0.950 1_554 S
C547 C546 1.397 . S
C547 C548 1.334 . S
C548 H519 0.950 . S
C548 C547 1.334 . S
C548 C549 1.287 . S
C549 C548 1.287 . S
C549 C550 1.524 . S
C549 H552 0.999 . S
C550 H520 0.950 . S
C550 C549 1.524 . S
C550 C551 1.415 . S
C551 H521 0.950 . S
C551 C546 1.363 . S
C551 C550 1.415 . S
H552 C549 0.999 . S
H553 C534 0.913 . S
H554 C572 0.951 . S
H555 C574 0.953 . S
H556 C576 0.950 . S
H557 C577 0.950 . S
H558 C579 0.950 . S
H559 C582 0.950 1_556 S
H560 C583 0.970 . S
H561 C585 0.950 . S
H562 C586 0.950 . S
H563 C587 0.951 1_655 S
H564 C589 0.951 . S
H565 C591 0.950 . S
H566 C592 0.950 . S
H567 C594 0.950 . S
H568 C597 0.950 . S
H569 C598 0.950 . S
H570 C600 0.950 . S
H571 C601 0.950 . S
C572 H554 0.951 . S
C572 C573 1.366 . S
C572 C574 1.388 . S
C573 C572 1.366 . S
C573 C577 1.385 . S
C574 H555 0.953 . S
C574 C572 1.388 . S
C574 C575 1.366 . S
C575 C574 1.366 . S
C575 C576 1.414 . S
C575 C578 1.499 . S
C576 H556 0.950 . S
C576 C575 1.414 . S
C576 C577 1.374 . S
C577 H557 0.950 . S
C577 C573 1.385 . S
C577 C576 1.374 . S
C578 C575 1.499 . S
C578 C579 1.373 . S
C578 C580 1.389 1_556 S
C579 H558 0.950 . S
C579 C578 1.373 . S
C579 C595 1.377 1_556 S
C580 C578 1.389 1_554 S
C580 C581 1.524 . S
C580 C594 1.377 . S
C581 C580 1.524 . S
C581 C582 1.397 . S
C581 C586 1.363 . S
C582 H559 0.950 1_554 S
C582 C581 1.397 . S
C582 C583 1.334 . S
C583 H560 0.970 . S
C583 C582 1.334 . S
C583 C584 1.287 . S
C584 C583 1.287 . S
C584 C585 1.524 . S
C584 H603 0.913 . S
C585 H561 0.950 . S
C585 C584 1.524 . S
C585 C586 1.415 . S
C586 H562 0.950 . S
C586 C581 1.363 . S
C586 C585 1.415 . S
C587 H563 0.951 1_455 S
C587 C588 1.366 . S
C587 C589 1.388 . S
C588 C587 1.366 . S
C588 C592 1.385 . S
C589 H564 0.951 . S
C589 C587 1.388 . S
C589 C590 1.366 . S
C590 C589 1.366 . S
C590 C591 1.414 . S
C590 C593 1.499 . S
C591 H565 0.950 . S
C591 C590 1.414 . S
C591 C592 1.374 . S
C592 H566 0.950 . S
C592 C588 1.385 . S
C592 C591 1.374 . S
C593 C590 1.499 . S
C593 C594 1.373 . S
C593 C595 1.389 . S
C594 H567 0.950 . S
C594 C580 1.377 . S
C594 C593 1.373 . S
C595 C579 1.377 1_554 S
C595 C593 1.389 . S
C595 C596 1.524 1_554 S
C596 C595 1.524 1_556 S
C596 C597 1.397 1_556 S
C596 C601 1.363 . S
C597 H568 0.950 . S
C597 C596 1.397 1_554 S
C597 C598 1.334 . S
C598 H569 0.950 . S
C598 C597 1.334 . S
C598 C599 1.287 1_554 S
C599 C598 1.287 1_556 S
C599 C600 1.524 . S
C599 H602 0.999 . S
C600 H570 0.950 . S
C600 C599 1.524 . S
C600 C601 1.415 . S
C601 H571 0.950 . S
C601 C596 1.363 . S
C601 C600 1.415 . S
H602 C599 0.999 . S
H603 C584 0.913 . S
H604 C622 0.951 . S
H605 C624 0.951 . S
H606 C626 0.950 . S
H607 C627 0.950 . S
H608 C629 0.950 . S
H609 C632 0.950 . S
H610 C633 0.950 . S
H611 C635 0.950 . S
H612 C636 0.988 . S
H613 C637 0.951 1_545 S
H614 C639 0.951 . S
H615 C641 0.950 . S
H616 C642 0.950 . S
H617 C644 0.950 . S
H618 C647 0.950 . S
H619 C648 0.950 . S
H620 C650 0.950 . S
H621 C651 0.950 . S
C622 H604 0.951 . S
C622 C623 1.366 . S
C622 C624 1.388 . S
C623 C622 1.366 . S
C623 C627 1.385 . S
C624 H605 0.951 . S
C624 C622 1.388 . S
C624 C625 1.366 . S
C625 C624 1.366 . S
C625 C626 1.414 . S
C625 C628 1.499 . S
C626 H606 0.950 . S
C626 C625 1.414 . S
C626 C627 1.374 . S
C627 H607 0.950 . S
C627 C623 1.385 . S
C627 C626 1.374 . S
C628 C625 1.499 . S
C628 C629 1.373 1_554 S
C628 C630 1.389 . S
C629 H608 0.950 . S
C629 C628 1.373 1_556 S
C629 C645 1.377 . S
C630 C628 1.389 . S
C630 C631 1.524 . S
C630 C644 1.377 1_554 S
C631 C630 1.524 . S
C631 C632 1.397 . S
C631 C636 1.363 . S
C632 H609 0.950 . S
C632 C631 1.397 . S
C632 C633 1.334 . S
C633 H610 0.950 . S
C633 C632 1.334 . S
C633 C634 1.287 . S
C634 C633 1.287 . S
C634 C635 1.524 . S
C634 H653 0.913 . S
C635 H611 0.950 . S
C635 C634 1.524 . S
C635 C636 1.415 . S
C636 H612 0.988 . S
C636 C631 1.363 . S
C636 C635 1.415 . S
C637 H613 0.951 1_565 S
C637 C638 1.366 . S
C637 C639 1.388 . S
C638 C637 1.366 . S
C638 C642 1.385 . S
C639 H614 0.951 . S
C639 C637 1.388 . S
C639 C640 1.366 . S
C640 C639 1.366 . S
C640 C641 1.414 . S
C640 C643 1.499 . S
C641 H615 0.950 . S
C641 C640 1.414 . S
C641 C642 1.374 . S
C642 H616 0.950 . S
C642 C638 1.385 . S
C642 C641 1.374 . S
C643 C640 1.499 . S
C643 C644 1.373 . S
C643 C645 1.389 . S
C644 H617 0.950 . S
C644 C630 1.377 1_556 S
C644 C643 1.373 . S
C645 C629 1.377 . S
C645 C643 1.389 . S
C645 C646 1.524 . S
C646 C645 1.524 . S
C646 C647 1.397 . S
C646 C651 1.363 . S
C647 H618 0.950 . S
C647 C646 1.397 . S
C647 C648 1.334 . S
C648 H619 0.950 . S
C648 C647 1.334 . S
C648 C649 1.287 . S
C649 C648 1.287 . S
C649 C650 1.524 . S
C649 H652 0.999 . S
C650 H620 0.950 . S
C650 C649 1.524 . S
C650 C651 1.415 . S
C651 H621 0.950 . S
C651 C646 1.363 . S
C651 C650 1.415 . S
H652 C649 0.999 . S
H653 C634 0.913 . S
H654 C672 0.951 . S
H655 C674 0.951 . S
H656 C676 0.950 . S
H657 C677 0.950 . S
H658 C679 0.950 . S
H659 C682 0.950 . S
H660 C683 0.950 . S
H661 C685 0.950 . S
H662 C686 0.950 . S
H663 C687 0.951 1_455 S
H664 C689 0.951 . S
H665 C691 0.950 . S
H666 C692 0.950 . S
H667 C694 0.950 . S
H668 C697 0.950 1_554 S
H669 C698 0.950 . S
H670 C700 0.969 . S
H671 C701 0.950 . S
C672 H654 0.951 . S
C672 C673 1.366 . S
C672 C674 1.388 . S
C673 C672 1.366 . S
C673 C677 1.385 . S
C674 H655 0.951 . S
C674 C672 1.388 . S
C674 C675 1.366 . S
C675 C674 1.366 . S
C675 C676 1.414 . S
C675 C678 1.499 . S
C676 H656 0.950 . S
C676 C675 1.414 . S
C676 C677 1.374 . S
C677 H657 0.950 . S
C677 C673 1.385 . S
C677 C676 1.374 . S
C678 C675 1.499 . S
C678 C679 1.373 . S
C678 C680 1.389 1_556 S
C679 H658 0.950 . S
C679 C678 1.373 . S
C679 C695 1.377 1_556 S
C680 C678 1.389 1_554 S
C680 C681 1.524 . S
C680 C694 1.377 . S
C681 C680 1.524 . S
C681 C682 1.397 . S
C681 C686 1.363 . S
C682 H659 0.950 . S
C682 C681 1.397 . S
C682 C683 1.334 . S
C683 H660 0.950 . S
C683 C682 1.334 . S
C683 C684 1.287 . S
C684 C683 1.287 . S
C684 C685 1.524 . S
C684 H703 0.913 . S
C685 H661 0.950 . S
C685 C684 1.524 . S
C685 C686 1.415 . S
C686 H662 0.950 . S
C686 C681 1.363 . S
C686 C685 1.415 . S
C687 H663 0.951 1_655 S
C687 C688 1.366 . S
C687 C689 1.388 . S
C688 C687 1.366 . S
C688 C692 1.385 . S
C689 H664 0.951 . S
C689 C687 1.388 . S
C689 C690 1.366 . S
C690 C689 1.366 . S
C690 C691 1.414 . S
C690 C693 1.499 . S
C691 H665 0.950 . S
C691 C690 1.414 . S
C691 C692 1.374 . S
C692 H666 0.950 . S
C692 C688 1.385 . S
C692 C691 1.374 . S
C693 C690 1.499 . S
C693 C694 1.373 . S
C693 C695 1.389 . S
C694 H667 0.950 . S
C694 C680 1.377 . S
C694 C693 1.373 . S
C695 C679 1.377 1_554 S
C695 C693 1.389 . S
C695 C696 1.524 1_554 S
C696 C695 1.524 1_556 S
C696 C697 1.397 . S
C696 C701 1.363 . S
C697 H668 0.950 1_556 S
C697 C696 1.397 . S
C697 C698 1.334 . S
C698 H669 0.950 . S
C698 C697 1.334 . S
C698 C699 1.287 . S
C699 C698 1.287 . S
C699 C700 1.524 . S
C699 H702 0.975 1_655 S
C700 H670 0.969 . S
C700 C699 1.524 . S
C700 C701 1.415 . S
C701 H671 0.950 . S
C701 C696 1.363 . S
C701 C700 1.415 . S
H702 C699 0.975 1_455 S
H703 C684 0.913 . S
H704 C722 0.951 . S
H705 C724 0.951 . S
H706 C726 0.950 . S
H707 C727 0.950 . S
H708 C729 0.950 . S
H709 C732 0.950 . S
H710 C733 0.950 . S
H711 C735 0.950 . S
H712 C736 0.950 . S
H713 C737 0.951 . S
H714 C739 0.951 . S
H715 C741 0.950 . S
H716 C742 0.950 . S
H717 C744 0.950 . S
H718 C747 0.950 . S
H719 C748 0.950 . S
H720 C750 0.950 . S
H721 C751 0.950 . S
C722 H704 0.951 . S
C722 C723 1.366 . S
C722 C724 1.388 . S
C723 C722 1.366 . S
C723 C727 1.385 . S
C724 H705 0.951 . S
C724 C722 1.388 . S
C724 C725 1.366 . S
C725 C724 1.366 . S
C725 C726 1.414 . S
C725 C728 1.499 . S
C726 H706 0.950 . S
C726 C725 1.414 . S
C726 C727 1.374 . S
C727 H707 0.950 . S
C727 C723 1.385 . S
C727 C726 1.374 . S
C728 C725 1.499 . S
C728 C729 1.373 . S
C728 C730 1.389 . S
C729 H708 0.950 . S
C729 C728 1.373 . S
C729 C745 1.377 . S
C730 C728 1.389 . S
C730 C731 1.524 . S
C730 C744 1.377 . S
C731 C730 1.524 . S
C731 C732 1.397 . S
C731 C736 1.363 . S
C732 H709 0.950 . S
C732 C731 1.397 . S
C732 C733 1.334 . S
C733 H710 0.950 . S
C733 C732 1.334 . S
C733 C734 1.287 . S
C734 C733 1.287 . S
C734 C735 1.524 . S
C734 H753 0.913 . S
C735 H711 0.950 . S
C735 C734 1.524 . S
C735 C736 1.415 . S
C736 H712 0.950 . S
C736 C731 1.363 . S
C736 C735 1.415 . S
C737 H713 0.951 . S
C737 C738 1.366 . S
C737 C739 1.388 . S
C738 C737 1.366 . S
C738 C742 1.385 . S
C739 H714 0.951 . S
C739 C737 1.388 . S
C739 C740 1.366 . S
C740 C739 1.366 . S
C740 C741 1.414 . S
C740 C743 1.499 . S
C741 H715 0.950 . S
C741 C740 1.414 . S
C741 C742 1.374 . S
C742 H716 0.950 . S
C742 C738 1.385 . S
C742 C741 1.374 . S
C743 C740 1.499 . S
C743 C744 1.373 . S
C743 C745 1.389 . S
C744 H717 0.950 . S
C744 C730 1.377 . S
C744 C743 1.373 . S
C745 C729 1.377 . S
C745 C743 1.389 . S
C745 C746 1.524 . S
C746 C745 1.524 . S
C746 C747 1.397 . S
C746 C751 1.363 . S
C747 H718 0.950 . S
C747 C746 1.397 . S
C747 C748 1.334 . S
C748 H719 0.950 . S
C748 C747 1.334 . S
C748 C749 1.287 . S
C749 C748 1.287 . S
C749 C750 1.524 . S
C749 H752 0.999 . S
C750 H720 0.950 . S
C750 C749 1.524 . S
C750 C751 1.415 . S
C751 H721 0.950 . S
C751 C746 1.363 . S
C751 C750 1.415 . S
H752 C749 0.999 . S
H753 C734 0.913 . S
H754 C772 0.951 . S
H755 C774 0.951 . S
H756 C776 0.950 . S
H757 C777 0.950 . S
H758 C779 0.950 . S
H759 C782 0.950 . S
H760 C783 0.950 . S
H761 C785 0.950 . S
H762 C786 0.950 . S
H763 C787 0.951 . S
H764 C789 0.951 . S
H765 C791 0.950 . S
H766 C792 0.950 . S
H767 C794 0.950 . S
H768 C797 0.950 . S
H769 C798 0.950 . S
H770 C800 0.950 . S
H771 C801 0.950 . S
C772 H754 0.951 . S
C772 C773 1.366 . S
C772 C774 1.388 . S
C773 C772 1.366 . S
C773 C777 1.385 . S
C774 H755 0.951 . S
C774 C772 1.388 . S
C774 C775 1.366 . S
C775 C774 1.366 . S
C775 C776 1.414 . S
C775 C778 1.499 . S
C776 H756 0.950 . S
C776 C775 1.414 . S
C776 C777 1.374 . S
C777 H757 0.950 . S
C777 C773 1.385 . S
C777 C776 1.374 . S
C778 C775 1.499 . S
C778 C779 1.373 . S
C778 C780 1.389 . S
C779 H758 0.950 . S
C779 C778 1.373 . S
C779 C795 1.377 . S
C780 C778 1.389 . S
C780 C781 1.524 . S
C780 C794 1.377 . S
C781 C780 1.524 . S
C781 C782 1.397 . S
C781 C786 1.363 . S
C782 H759 0.950 . S
C782 C781 1.397 . S
C782 C783 1.334 . S
C783 H760 0.950 . S
C783 C782 1.334 . S
C783 C784 1.287 . S
C784 C783 1.287 . S
C784 C785 1.524 . S
C784 H803 0.913 . S
C785 H761 0.950 . S
C785 C784 1.524 . S
C785 C786 1.415 . S
C786 H762 0.950 . S
C786 C781 1.363 . S
C786 C785 1.415 . S
C787 H763 0.951 . S
C787 C788 1.366 . S
C787 C789 1.388 . S
C788 C787 1.366 . S
C788 C792 1.385 . S
C789 H764 0.951 . S
C789 C787 1.388 . S
C789 C790 1.366 . S
C790 C789 1.366 . S
C790 C791 1.414 . S
C790 C793 1.499 . S
C791 H765 0.950 . S
C791 C790 1.414 . S
C791 C792 1.374 . S
C792 H766 0.950 . S
C792 C788 1.385 . S
C792 C791 1.374 . S
C793 C790 1.499 . S
C793 C794 1.373 . S
C793 C795 1.389 . S
C794 H767 0.950 . S
C794 C780 1.377 . S
C794 C793 1.373 . S
C795 C779 1.377 . S
C795 C793 1.389 . S
C795 C796 1.524 . S
C796 C795 1.524 . S
C796 C797 1.397 . S
C796 C801 1.363 . S
C797 H768 0.950 . S
C797 C796 1.397 . S
C797 C798 1.334 . S
C798 H769 0.950 . S
C798 C797 1.334 . S
C798 C799 1.287 . S
C799 C798 1.287 . S
C799 C800 1.524 . S
C799 H802 0.999 . S
C800 H770 0.950 . S
C800 C799 1.524 . S
C800 C801 1.415 . S
C801 H771 0.950 . S
C801 C796 1.363 . S
C801 C800 1.415 . S
H802 C799 0.999 . S
H803 C784 0.913 . S
H804 C822 0.951 . S
H805 C824 0.951 . S
H806 C826 0.950 . S
H807 C827 0.950 . S
H808 C829 0.950 . S
H809 C832 0.950 . S
H810 C833 0.950 . S
H811 C835 0.950 . S
H812 C836 0.950 . S
H813 C837 0.951 . S
H814 C839 0.951 . S
H815 C841 0.950 . S
H816 C842 0.950 . S
H817 C844 0.950 . S
H818 C847 0.950 . S
H819 C848 0.950 . S
H820 C850 0.950 . S
H821 C851 0.950 . S
C822 H804 0.951 . S
C822 C823 1.366 . S
C822 C824 1.388 . S
C823 C822 1.366 . S
C823 C827 1.385 . S
C824 H805 0.951 . S
C824 C822 1.388 . S
C824 C825 1.366 . S
C825 C824 1.366 . S
C825 C826 1.414 . S
C825 C828 1.499 . S
C826 H806 0.950 . S
C826 C825 1.414 . S
C826 C827 1.374 . S
C827 H807 0.950 . S
C827 C823 1.385 . S
C827 C826 1.374 . S
C828 C825 1.499 . S
C828 C829 1.373 . S
C828 C830 1.389 . S
C829 H808 0.950 . S
C829 C828 1.373 . S
C829 C845 1.377 . S
C830 C828 1.389 . S
C830 C831 1.524 . S
C830 C844 1.377 . S
C831 C830 1.524 . S
C831 C832 1.397 . S
C831 C836 1.363 . S
C832 H809 0.950 . S
C832 C831 1.397 . S
C832 C833 1.334 . S
C833 H810 0.950 . S
C833 C832 1.334 . S
C833 C834 1.287 . S
C834 C833 1.287 . S
C834 C835 1.524 . S
C834 H853 0.913 . S
C835 H811 0.950 . S
C835 C834 1.524 . S
C835 C836 1.415 . S
C836 H812 0.950 . S
C836 C831 1.363 . S
C836 C835 1.415 . S
C837 H813 0.951 . S
C837 C838 1.366 . S
C837 C839 1.388 . S
C838 C837 1.366 . S
C838 C842 1.385 . S
C839 H814 0.951 . S
C839 C837 1.388 . S
C839 C840 1.366 . S
C840 C839 1.366 . S
C840 C841 1.414 . S
C840 C843 1.499 . S
C841 H815 0.950 . S
C841 C840 1.414 . S
C841 C842 1.374 . S
C842 H816 0.950 . S
C842 C838 1.385 . S
C842 C841 1.374 . S
C843 C840 1.499 . S
C843 C844 1.373 . S
C843 C845 1.389 . S
C844 H817 0.950 . S
C844 C830 1.377 . S
C844 C843 1.373 . S
C845 C829 1.377 . S
C845 C843 1.389 . S
C845 C846 1.524 . S
C846 C845 1.524 . S
C846 C847 1.397 . S
C846 C851 1.363 . S
C847 H818 0.950 . S
C847 C846 1.397 . S
C847 C848 1.334 . S
C848 H819 0.950 . S
C848 C847 1.334 . S
C848 C849 1.287 . S
C849 C848 1.287 . S
C849 C850 1.524 . S
C849 H852 0.999 . S
C850 H820 0.950 . S
C850 C849 1.524 . S
C850 C851 1.415 . S
C851 H821 0.950 . S
C851 C846 1.363 . S
C851 C850 1.415 . S
H852 C849 0.999 . S
H853 C834 0.913 . S
H854 C872 0.951 . S
H855 C874 0.951 . S
H856 C876 0.950 . S
H857 C877 0.950 . S
H858 C879 0.950 . S
H859 C882 0.950 . S
H860 C883 0.950 . S
H861 C885 0.950 . S
H862 C886 0.950 . S
H863 C887 0.951 . S
H864 C889 0.951 . S
H865 C891 0.950 . S
H866 C892 0.950 . S
H867 C894 0.950 . S
H868 C897 0.950 . S
H869 C898 0.950 . S
H870 C900 0.950 . S
H871 C901 0.950 . S
C872 H854 0.951 . S
C872 C873 1.366 . S
C872 C874 1.388 . S
C873 C872 1.366 . S
C873 C877 1.385 . S
C874 H855 0.951 . S
C874 C872 1.388 . S
C874 C875 1.366 . S
C875 C874 1.366 . S
C875 C876 1.414 . S
C875 C878 1.499 . S
C876 H856 0.950 . S
C876 C875 1.414 . S
C876 C877 1.374 . S
C877 H857 0.950 . S
C877 C873 1.385 . S
C877 C876 1.374 . S
C878 C875 1.499 . S
C878 C879 1.373 . S
C878 C880 1.389 . S
C879 H858 0.950 . S
C879 C878 1.373 . S
C879 C895 1.377 . S
C880 C878 1.389 . S
C880 C881 1.524 . S
C880 C894 1.377 . S
C881 C880 1.524 . S
C881 C882 1.397 . S
C881 C886 1.363 . S
C882 H859 0.950 . S
C882 C881 1.397 . S
C882 C883 1.334 . S
C883 H860 0.950 . S
C883 C882 1.334 . S
C883 C884 1.287 . S
C884 C883 1.287 . S
C884 C885 1.524 . S
C884 H903 0.913 . S
C885 H861 0.950 . S
C885 C884 1.524 . S
C885 C886 1.415 . S
C886 H862 0.950 . S
C886 C881 1.363 . S
C886 C885 1.415 . S
C887 H863 0.951 . S
C887 C888 1.366 . S
C887 C889 1.388 . S
C888 C887 1.366 . S
C888 C892 1.385 . S
C889 H864 0.951 . S
C889 C887 1.388 . S
C889 C890 1.366 . S
C890 C889 1.366 . S
C890 C891 1.414 . S
C890 C893 1.499 . S
C891 H865 0.950 . S
C891 C890 1.414 . S
C891 C892 1.374 . S
C892 H866 0.950 . S
C892 C888 1.385 . S
C892 C891 1.374 . S
C893 C890 1.499 . S
C893 C894 1.373 . S
C893 C895 1.389 . S
C894 H867 0.950 . S
C894 C880 1.377 . S
C894 C893 1.373 . S
C895 C879 1.377 . S
C895 C893 1.389 . S
C895 C896 1.524 . S
C896 C895 1.524 . S
C896 C897 1.397 . S
C896 C901 1.363 . S
C897 H868 0.950 . S
C897 C896 1.397 . S
C897 C898 1.334 . S
C898 H869 0.950 . S
C898 C897 1.334 . S
C898 C899 1.287 . S
C899 C898 1.287 . S
C899 C900 1.524 . S
C899 H902 0.999 1_655 S
C900 H870 0.950 . S
C900 C899 1.524 . S
C900 C901 1.415 . S
C901 H871 0.950 . S
C901 C896 1.363 . S
C901 C900 1.415 . S
H902 C899 0.999 1_455 S
H903 C884 0.913 . S
C123 C26 1.188 . S
C138 C0 1.188 . S
C173 C39 1.187 . S
C188 C13 1.187 . S
C223 C52 1.187 . S
C238 C78 1.188 . S
C273 C65 1.189 . S
C288 C91 1.188 . S
C323 C23 0.593 . S
C338 C5 0.642 . S
C373 C18 0.641 . S
C388 C36 0.593 . S
C423 C49 0.593 . S
C438 C31 0.641 . S
C473 C44 0.644 . S
C488 C10 0.592 . S
C523 C101 0.593 . S
C538 C57 0.641 . S
C573 C70 0.644 . S
C588 C62 0.592 . S
C623 C83 0.642 . S
C638 C75 0.593 . S
C673 C96 0.643 . S
C688 C88 0.593 . S
C723 C8 1.656 . S
C738 C73 1.656 . S
C773 C86 1.655 . S
C788 C21 1.655 . S
C823 C34 1.656 . S
C838 C99 1.656 . S
C873 C47 1.655 . S
C888 C60 1.655 . S
