# Generated by pormake.
# Topology wjh, (4)-cn, num edge types: 1
# Building blocks:
#     Node 0, Type 0, BuildingBlock: ICAMEG_clean_sbu_1, # of connection points: 4
#     Node 1, Type 0, BuildingBlock: ICAMEG_clean_sbu_1, # of connection points: 4
#     Node 2, Type 0, BuildingBlock: ICAMEG_clean_sbu_1, # of connection points: 4
#     Node 3, Type 0, BuildingBlock: ICAMEG_clean_sbu_1, # of connection points: 4
#     Node 4, Type 0, BuildingBlock: ICAMEG_clean_sbu_1, # of connection points: 4
#     Node 5, Type 0, BuildingBlock: ICAMEG_clean_sbu_1, # of connection points: 4
#     Node 6, Type 0, BuildingBlock: ICAMEG_clean_sbu_1, # of connection points: 4
#     Node 7, Type 0, BuildingBlock: ICAMEG_clean_sbu_1, # of connection points: 4
#     Node 8, Type 0, BuildingBlock: ICAMEG_clean_sbu_1, # of connection points: 4
#     Node 9, Type 0, BuildingBlock: ICAMEG_clean_sbu_1, # of connection points: 4
#     Node 10, Type 0, BuildingBlock: ICAMEG_clean_sbu_1, # of connection points: 4
#     Node 11, Type 0, BuildingBlock: ICAMEG_clean_sbu_1, # of connection points: 4
#     Edge 12, Type (0, 0), BuildingBlock: MIFKUJ_clean_linker_0, # of connection points: 2
#     Edge 13, Type (0, 0), BuildingBlock: MIFKUJ_clean_linker_0, # of connection points: 2
#     Edge 14, Type (0, 0), BuildingBlock: MIFKUJ_clean_linker_0, # of connection points: 2
#     Edge 15, Type (0, 0), BuildingBlock: MIFKUJ_clean_linker_0, # of connection points: 2
#     Edge 16, Type (0, 0), BuildingBlock: MIFKUJ_clean_linker_0, # of connection points: 2
#     Edge 17, Type (0, 0), BuildingBlock: MIFKUJ_clean_linker_0, # of connection points: 2
#     Edge 18, Type (0, 0), BuildingBlock: MIFKUJ_clean_linker_0, # of connection points: 2
#     Edge 19, Type (0, 0), BuildingBlock: MIFKUJ_clean_linker_0, # of connection points: 2
#     Edge 20, Type (0, 0), BuildingBlock: MIFKUJ_clean_linker_0, # of connection points: 2
#     Edge 21, Type (0, 0), BuildingBlock: MIFKUJ_clean_linker_0, # of connection points: 2
#     Edge 22, Type (0, 0), BuildingBlock: MIFKUJ_clean_linker_0, # of connection points: 2
#     Edge 23, Type (0, 0), BuildingBlock: MIFKUJ_clean_linker_0, # of connection points: 2
#     Edge 24, Type (0, 0), BuildingBlock: MIFKUJ_clean_linker_0, # of connection points: 2
#     Edge 25, Type (0, 0), BuildingBlock: MIFKUJ_clean_linker_0, # of connection points: 2
#     Edge 26, Type (0, 0), BuildingBlock: MIFKUJ_clean_linker_0, # of connection points: 2
#     Edge 27, Type (0, 0), BuildingBlock: MIFKUJ_clean_linker_0, # of connection points: 2
#     Edge 28, Type (0, 0), BuildingBlock: MIFKUJ_clean_linker_0, # of connection points: 2
#     Edge 29, Type (0, 0), BuildingBlock: MIFKUJ_clean_linker_0, # of connection points: 2
#     Edge 30, Type (0, 0), BuildingBlock: MIFKUJ_clean_linker_0, # of connection points: 2
#     Edge 31, Type (0, 0), BuildingBlock: MIFKUJ_clean_linker_0, # of connection points: 2
#     Edge 32, Type (0, 0), BuildingBlock: MIFKUJ_clean_linker_0, # of connection points: 2
#     Edge 33, Type (0, 0), BuildingBlock: MIFKUJ_clean_linker_0, # of connection points: 2
#     Edge 34, Type (0, 0), BuildingBlock: MIFKUJ_clean_linker_0, # of connection points: 2
#     Edge 35, Type (0, 0), BuildingBlock: MIFKUJ_clean_linker_0, # of connection points: 2
# Relax obj value: 0.060
# Max RMSD: 0.098
# Mean RMSD: 0.098
data_MOF--net-wjh--node1-ICAMEG_clean_sbu_1--edge1-MIFKUJ_clean_linker_0
_symmetry_space_group_name_H-M    P1
_symmetry_Int_Tables_number       1
_symmetry_cell_setting            triclinic
loop_
_symmetry_equiv_pos_as_xyz
'x, y, z'
_cell_length_a     81.748608
_cell_length_b     81.720649
_cell_length_c     37.900612
_cell_angle_alpha  89.98067
_cell_angle_beta   90.032335
_cell_angle_gamma 119.9955
loop_
_atom_site_label
_atom_site_type_symbol
_atom_site_fract_x
_atom_site_fract_y
_atom_site_fract_z
_atom_type_partial_charge
Co0 Co 0.50715 0.13995 0.06776 0.0
Co1 Co 0.54821 0.14178 0.03931 0.0
O2 O 0.52948 0.14998 0.03717 0.0
C3 C 0.52696 0.18102 0.0809 0.0
O4 O 0.54252 0.18014 0.08324 0.0
C5 C 0.53749 0.13605 0.96379 0.0
O6 O 0.51967 0.12872 0.97273 0.0
O7 O 0.52799 0.11477 0.03641 0.0
O8 O 0.50262 0.11367 0.06202 0.0
H9 H 0.57489 0.102 0.0837 0.0
H10 H 0.51051 0.16428 0.00696 0.0
O11 O 0.51129 0.16612 0.07435 0.0
H12 H 0.45267 0.10332 0.9848 0.0
H13 H 0.4472 0.13568 0.11272 0.0
H14 H 0.49152 0.11166 0.1254 0.0
H15 H 0.47149 0.10813 0.03865 0.0
H16 H 0.47535 0.14774 0.0746 0.0
O17 O 0.55039 0.1426 0.9871 0.0
H18 H 0.55162 0.11276 0.08036 0.0
H19 H 0.5846 0.15317 0.00224 0.0
H20 H 0.46346 0.09908 0.16383 0.0
H21 H 0.492 0.16015 0.95288 0.0
H22 H 0.44107 0.11111 0.15761 0.0
H23 H 0.46288 0.12947 0.94149 0.0
O24 O 0.52241 0.14324 0.111 0.0
H25 H 0.58068 0.20991 0.00246 0.0
H26 H 0.58206 0.16405 0.08515 0.0
H27 H 0.60636 0.1977 0.08975 0.0
H28 H 0.60577 0.2209 0.04817 0.0
H29 H 0.55653 0.17612 -0.00092 0.0
H30 H 0.60812 0.14268 0.00439 0.0
H31 H 0.60337 0.11697 0.04547 0.0
O32 O 0.5469 0.14071 0.09138 0.0
C33 C 0.51113 0.10572 0.04824 0.0
C34 C 0.57713 0.11323 0.06573 0.0
C35 C 0.59577 0.13605 0.0212 0.0
N36 N 0.5668 0.13365 0.04127 0.0
C37 C 0.56403 0.11942 0.06378 0.0
C38 C 0.58238 0.1419 0.02001 0.0
C39 C 0.5931 0.12163 0.04426 0.0
C40 C 0.49775 0.15096 0.00232 0.0
N41 N 0.49204 0.13651 0.026 0.0
C42 C 0.48737 0.14867 0.9716 0.0
C43 C 0.47105 0.13144 0.9652 0.0
C44 C 0.46532 0.11676 0.98948 0.0
C45 C 0.47606 0.11956 0.01989 0.0
C46 C 0.45683 0.1303 0.11563 0.0
C47 C 0.48176 0.11686 0.12237 0.0
C48 C 0.4728 0.13709 0.09417 0.0
N49 N 0.48496 0.13027 0.09758 0.0
C50 C 0.46594 0.10973 0.14428 0.0
C51 C 0.4534 0.1165 0.1408 0.0
C52 C 0.53722 0.14211 0.11617 0.0
C53 C 0.5811 0.19994 0.0207 0.0
C54 C 0.58164 0.17406 0.06713 0.0
C55 C 0.59548 0.19309 0.06976 0.0
C56 C 0.59516 0.2061 0.04639 0.0
N57 N 0.56787 0.16812 0.04193 0.0
C58 C 0.56751 0.18078 0.01883 0.0
Co59 Co 0.36975 0.50931 0.24069 0.0
Co60 Co 0.4094 0.55097 0.21551 0.0
O61 O 0.38257 0.53227 0.21215 0.0
C62 C 0.35061 0.53051 0.25993 0.0
O63 O 0.36747 0.54538 0.26357 0.0
C64 C 0.40455 0.53805 0.14161 0.0
O65 O 0.39296 0.52078 0.1525 0.0
O66 O 0.41649 0.53091 0.21693 0.0
O67 O 0.39042 0.50365 0.23141 0.0
H68 H 0.47487 0.5791 0.26573 0.0
H69 H 0.34905 0.51586 0.1832 0.0
O70 O 0.3488 0.51472 0.25049 0.0
H71 H 0.34776 0.45665 0.15186 0.0
H72 H 0.31271 0.44993 0.28382 0.0
H73 H 0.38181 0.49068 0.29353 0.0
H74 H 0.36313 0.47358 0.20676 0.0
H75 H 0.32954 0.47895 0.24809 0.0
O76 O 0.41179 0.55175 0.16328 0.0
H77 H 0.44089 0.55575 0.26135 0.0
H78 H 0.43517 0.58617 0.17589 0.0
H79 H 0.36557 0.46172 0.32955 0.0
H80 H 0.33334 0.49929 0.12822 0.0
H81 H 0.33077 0.44112 0.32481 0.0
H82 H 0.3327 0.46951 0.11218 0.0
O83 O 0.3829 0.52309 0.28477 0.0
H84 H 0.37426 0.58222 0.16884 0.0
H85 H 0.42029 0.58594 0.25719 0.0
H86 H 0.41088 0.61029 0.25668 0.0
H87 H 0.38771 0.60853 0.21222 0.0
H88 H 0.38396 0.55808 0.17055 0.0
H89 H 0.46913 0.60974 0.17912 0.0
H90 H 0.48921 0.60632 0.2244 0.0
O91 O 0.40777 0.55064 0.2675 0.0
C92 C 0.40786 0.51318 0.22315 0.0
C93 C 0.46626 0.58078 0.24597 0.0
C94 C 0.46304 0.59796 0.19733 0.0
N95 N 0.43604 0.56968 0.21858 0.0
C96 C 0.447 0.56764 0.24343 0.0
C97 C 0.44384 0.58455 0.19557 0.0
C98 C 0.4743 0.59604 0.22274 0.0
C99 C 0.34867 0.50281 0.17657 0.0
N100 N 0.35695 0.49566 0.19822 0.0
C101 C 0.33982 0.49353 0.14533 0.0
C102 C 0.33948 0.47683 0.13632 0.0
C103 C 0.34794 0.46962 0.15856 0.0
C104 C 0.35667 0.47929 0.18957 0.0
C105 C 0.32788 0.45878 0.28608 0.0
C106 C 0.36668 0.48173 0.29118 0.0
C107 C 0.33748 0.47524 0.26598 0.0
N108 N 0.35665 0.48642 0.26858 0.0
C109 C 0.35755 0.46537 0.31171 0.0
C110 C 0.33802 0.45384 0.30906 0.0
C111 C 0.39742 0.53911 0.29124 0.0
C112 C 0.38438 0.58316 0.18832 0.0
C113 C 0.41012 0.58502 0.23794 0.0
C114 C 0.4049 0.59889 0.23767 0.0
C115 C 0.39191 0.5979 0.2127 0.0
N116 N 0.40265 0.57059 0.21398 0.0
C117 C 0.38996 0.56956 0.18935 0.0
Co118 Co 0.86438 0.36842 0.40376 0.0
Co119 Co 0.86314 0.40924 0.38554 0.0
O120 O 0.85384 0.38224 0.37965 0.0
C121 C 0.82408 0.34788 0.42344 0.0
O122 O 0.82582 0.36445 0.42996 0.0
C123 C 0.8652 0.40479 0.30897 0.0
O124 O 0.87254 0.39409 0.31621 0.0
O125 O 0.88963 0.41542 0.3775 0.0
O126 O 0.89072 0.3898 0.3959 0.0
H127 H 0.9055 0.47413 0.43499 0.0
H128 H 0.83699 0.35005 0.34545 0.0
O129 O 0.83821 0.34678 0.41227 0.0
H130 H 0.8953 0.3516 0.30649 0.0
H131 H 0.86793 0.31022 0.43333 0.0
H132 H 0.89525 0.37845 0.45536 0.0
H133 H 0.89372 0.36411 0.36481 0.0
H134 H 0.85518 0.32823 0.40319 0.0
O135 O 0.86017 0.4118 0.33383 0.0
H136 H 0.89438 0.44029 0.42578 0.0
H137 H 0.85138 0.43576 0.35675 0.0
H138 H 0.90855 0.36103 0.48581 0.0
H139 H 0.83788 0.33719 0.28705 0.0
H140 H 0.89486 0.32666 0.47486 0.0
H141 H 0.86722 0.338 0.26717 0.0
O142 O 0.86353 0.37929 0.45039 0.0
H143 H 0.79363 0.37679 0.35928 0.0
H144 H 0.84398 0.41976 0.44064 0.0
H145 H 0.81097 0.41122 0.45253 0.0
H146 H 0.78555 0.3896 0.41166 0.0
H147 H 0.8268 0.38555 0.34857 0.0
H148 H 0.86222 0.46963 0.36475 0.0
H149 H 0.88936 0.48901 0.40439 0.0
O150 O 0.86664 0.40753 0.43693 0.0
C151 C 0.89865 0.40683 0.38476 0.0
C152 C 0.89362 0.46582 0.41775 0.0
C153 C 0.86934 0.4633 0.3783 0.0
N154 N 0.87212 0.43601 0.39109 0.0
C155 C 0.88722 0.44664 0.41255 0.0
C156 C 0.8633 0.44414 0.37378 0.0
C157 C 0.88457 0.47416 0.40055 0.0
C158 C 0.84974 0.35026 0.33713 0.0
N159 N 0.86526 0.35777 0.35855 0.0
C160 C 0.85019 0.34304 0.30398 0.0
C161 C 0.86666 0.34352 0.29282 0.0
C162 C 0.88243 0.35116 0.31486 0.0
C163 C 0.88147 0.35828 0.34781 0.0
C164 C 0.87403 0.3252 0.43828 0.0
C165 C 0.88929 0.36352 0.45031 0.0
C166 C 0.86684 0.33545 0.42137 0.0
N167 N 0.87455 0.35439 0.42736 0.0
C168 C 0.89685 0.35372 0.4677 0.0
C169 C 0.88915 0.33443 0.46157 0.0
C170 C 0.86587 0.3954 0.45893 0.0
C171 C 0.8046 0.38628 0.3772 0.0
C172 C 0.83299 0.41033 0.42275 0.0
C173 C 0.81433 0.40558 0.42958 0.0
C174 C 0.80007 0.39345 0.40663 0.0
N175 N 0.83731 0.40325 0.39382 0.0
C176 C 0.82341 0.39137 0.37118 0.0
Co177 Co 0.49407 0.85935 0.57514 0.0
Co178 Co 0.45393 0.85921 0.54721 0.0
O179 O 0.47149 0.84955 0.54543 0.0
C180 C 0.4742 0.81829 0.5888 0.0
O181 O 0.45879 0.81931 0.59298 0.0
C182 C 0.46317 0.86167 0.47137 0.0
O183 O 0.481 0.86908 0.48037 0.0
O184 O 0.47498 0.88549 0.54053 0.0
O185 O 0.499 0.88588 0.5701 0.0
H186 H 0.43163 0.90356 0.58621 0.0
H187 H 0.49008 0.83512 0.5138 0.0
O188 O 0.48972 0.83307 0.58101 0.0
H189 H 0.54814 0.89584 0.49129 0.0
H190 H 0.55405 0.86284 0.61793 0.0
H191 H 0.51028 0.88736 0.63314 0.0
H192 H 0.52976 0.89104 0.5457 0.0
H193 H 0.52566 0.85116 0.58054 0.0
O194 O 0.45046 0.85638 0.49498 0.0
H195 H 0.45348 0.89099 0.58403 0.0
H196 H 0.4171 0.84822 0.51241 0.0
H197 H 0.53859 0.89958 0.67088 0.0
H198 H 0.50816 0.83924 0.45917 0.0
H199 H 0.5607 0.8873 0.66338 0.0
H200 H 0.53738 0.86981 0.44759 0.0
O201 O 0.47896 0.85596 0.61848 0.0
H202 H 0.41672 0.78983 0.51991 0.0
H203 H 0.42161 0.8405 0.59758 0.0
H204 H 0.39589 0.80776 0.60692 0.0
H205 H 0.39334 0.78216 0.56798 0.0
H206 H 0.44227 0.82277 0.51152 0.0
H207 H 0.39494 0.86042 0.51352 0.0
H208 H 0.40211 0.88823 0.55077 0.0
O209 O 0.45679 0.86241 0.59938 0.0
C210 C 0.49145 0.89419 0.55406 0.0
C211 C 0.42831 0.89139 0.56998 0.0
C212 C 0.40773 0.86719 0.52915 0.0
N213 N 0.43648 0.86878 0.54841 0.0
C214 C 0.4406 0.88417 0.56873 0.0
C215 C 0.42035 0.86037 0.52857 0.0
C216 C 0.41176 0.88279 0.55006 0.0
C217 C 0.50289 0.84839 0.5091 0.0
N218 N 0.50889 0.86278 0.53297 0.0
C219 C 0.51302 0.85067 0.47806 0.0
C220 C 0.5294 0.86783 0.47155 0.0
C221 C 0.53544 0.88245 0.49605 0.0
C222 C 0.52494 0.87966 0.52677 0.0
C223 C 0.54454 0.86833 0.6214 0.0
C224 C 0.5199 0.88204 0.62958 0.0
C225 C 0.52843 0.86174 0.60036 0.0
N226 N 0.51642 0.8687 0.60447 0.0
C227 C 0.53588 0.88897 0.65109 0.0
C228 C 0.54827 0.88206 0.64689 0.0
C229 C 0.46562 0.85944 0.62398 0.0
C230 C 0.41766 0.80087 0.53702 0.0
C231 C 0.42062 0.82943 0.58053 0.0
C232 C 0.40601 0.81093 0.58594 0.0
C233 C 0.40457 0.79657 0.56403 0.0
N234 N 0.43338 0.83354 0.55391 0.0
C235 C 0.43205 0.81955 0.5323 0.0
Co236 Co 0.63459 0.49116 0.72478 0.0
Co237 Co 0.59332 0.44968 0.70483 0.0
O238 O 0.62001 0.46807 0.69699 0.0
C239 C 0.65438 0.46978 0.73717 0.0
O240 O 0.63769 0.45479 0.74187 0.0
C241 C 0.59469 0.46221 0.63119 0.0
O242 O 0.60733 0.4794 0.6408 0.0
O243 O 0.58682 0.47005 0.71013 0.0
O244 O 0.61381 0.49711 0.72099 0.0
H245 H 0.53131 0.42278 0.76853 0.0
H246 H 0.65195 0.48415 0.66221 0.0
O247 O 0.65576 0.48558 0.72929 0.0
H248 H 0.65254 0.54364 0.63685 0.0
H249 H 0.69396 0.55041 0.76069 0.0
H250 H 0.6256 0.51016 0.78198 0.0
H251 H 0.63986 0.52693 0.69319 0.0
H252 H 0.67514 0.52131 0.72604 0.0
O253 O 0.58802 0.44873 0.65335 0.0
H254 H 0.56496 0.44565 0.75793 0.0
H255 H 0.56485 0.41456 0.66803 0.0
H256 H 0.64384 0.53923 0.81697 0.0
H257 H 0.66492 0.50048 0.60564 0.0
H258 H 0.67828 0.55957 0.80642 0.0
H259 H 0.66521 0.53041 0.59263 0.0
O260 O 0.62377 0.47759 0.77023 0.0
H261 H 0.62439 0.41712 0.64622 0.0
H262 H 0.58411 0.41472 0.74513 0.0
H263 H 0.59263 0.38984 0.73951 0.0
H264 H 0.6129 0.39093 0.68971 0.0
H265 H 0.61567 0.44182 0.6531 0.0
H266 H 0.53113 0.39145 0.67745 0.0
H267 H 0.51416 0.39545 0.72809 0.0
O268 O 0.59788 0.45011 0.75612 0.0
C269 C 0.596 0.48779 0.71604 0.0
C270 C 0.53856 0.42085 0.74643 0.0
C271 C 0.53845 0.40328 0.69528 0.0
N272 N 0.56689 0.43135 0.71256 0.0
C273 C 0.55763 0.43371 0.74036 0.0
C274 C 0.55753 0.41643 0.69003 0.0
C275 C 0.52894 0.40553 0.72371 0.0
C276 C 0.65219 0.49726 0.65685 0.0
N277 N 0.64522 0.50461 0.681 0.0
C278 C 0.65948 0.5064 0.62473 0.0
C279 C 0.65961 0.52318 0.61743 0.0
C280 C 0.6525 0.5306 0.64222 0.0
C281 C 0.64529 0.52106 0.67403 0.0
C282 C 0.67896 0.54168 0.76549 0.0
C283 C 0.64056 0.519 0.77709 0.0
C284 C 0.66824 0.52516 0.74602 0.0
N285 N 0.64927 0.51412 0.75184 0.0
C286 C 0.65082 0.53541 0.79705 0.0
C287 C 0.67015 0.54681 0.79114 0.0
C288 C 0.60965 0.4616 0.7784 0.0
C289 C 0.61554 0.41648 0.66802 0.0
C290 C 0.59303 0.41536 0.72356 0.0
C291 C 0.59775 0.40119 0.72042 0.0
C292 C 0.60911 0.4018 0.69245 0.0
N293 N 0.59941 0.42972 0.69951 0.0
C294 C 0.61052 0.4304 0.67199 0.0
Co295 Co 0.13798 0.6328 0.90433 0.0
Co296 Co 0.14062 0.59394 0.87586 0.0
O297 O 0.14944 0.62103 0.87628 0.0
C298 C 0.17776 0.65205 0.92798 0.0
O299 O 0.17629 0.63531 0.92938 0.0
C300 C 0.13816 0.60181 0.80083 0.0
O301 O 0.13021 0.61162 0.81065 0.0
O302 O 0.11392 0.5876 0.86905 0.0
O303 O 0.11214 0.61225 0.891 0.0
H304 H 0.09799 0.52598 0.9095 0.0
H305 H 0.16716 0.65523 0.85091 0.0
O306 O 0.16371 0.65367 0.91827 0.0
H307 H 0.11052 0.65766 0.81428 0.0
H308 H 0.13266 0.68775 0.95041 0.0
H309 H 0.10522 0.61857 0.95277 0.0
H310 H 0.11009 0.64048 0.86811 0.0
H311 H 0.14684 0.67256 0.91538 0.0
O312 O 0.144 0.59458 0.8238 0.0
H313 H 0.10929 0.56018 0.91023 0.0
H314 H 0.15346 0.57006 0.83917 0.0
H315 H 0.09044 0.63314 0.9878 0.0
H316 H 0.1683 0.67277 0.7971 0.0
H317 H 0.10419 0.66798 0.98679 0.0
H318 H 0.13981 0.674 0.7784 0.0
O319 O 0.13733 0.61848 0.94751 0.0
H320 H 0.21038 0.62927 0.85153 0.0
H321 H 0.15985 0.58059 0.92551 0.0
H322 H 0.19292 0.58909 0.93623 0.0
H323 H 0.21846 0.61359 0.89909 0.0
H324 H 0.1771 0.62045 0.84191 0.0
H325 H 0.14255 0.53595 0.83743 0.0
H326 H 0.11467 0.51366 0.8729 0.0
O327 O 0.13683 0.5924 0.92744 0.0
C328 C 0.10464 0.59578 0.87735 0.0
C329 C 0.1102 0.53555 0.89402 0.0
C330 C 0.13519 0.54115 0.85354 0.0
N331 N 0.13211 0.56712 0.875 0.0
C332 C 0.11669 0.55494 0.8944 0.0
C333 C 0.14128 0.56044 0.85458 0.0
C334 C 0.11955 0.52865 0.87346 0.0
C335 C 0.15475 0.65582 0.84307 0.0
N336 N 0.13857 0.64685 0.86263 0.0
C337 C 0.15546 0.66572 0.81252 0.0
C338 C 0.13946 0.66639 0.80203 0.0
C339 C 0.12302 0.65721 0.82213 0.0
C340 C 0.12283 0.64744 0.85251 0.0
C341 C 0.12653 0.67255 0.95104 0.0
C342 C 0.11121 0.63373 0.95201 0.0
C343 C 0.13454 0.66388 0.93135 0.0
N344 N 0.12679 0.64469 0.93186 0.0
C345 C 0.10281 0.6419 0.97199 0.0
C346 C 0.11055 0.66145 0.97143 0.0
C347 C 0.13612 0.60246 0.95228 0.0
C348 C 0.19937 0.61853 0.86781 0.0
C349 C 0.17088 0.59128 0.90924 0.0
C350 C 0.18958 0.59601 0.91541 0.0
C351 C 0.2039 0.60975 0.89454 0.0
N352 N 0.16655 0.59996 0.88297 0.0
C353 C 0.1805 0.61342 0.86237 0.0
Co354 Co 0.86646 0.49545 0.85367 0.0
Co355 Co 0.86717 0.45446 0.87286 0.0
O356 O 0.85676 0.47126 0.878 0.0
C357 C 0.82659 0.4741 0.83184 0.0
O358 O 0.82955 0.46007 0.82477 0.0
C359 C 0.86842 0.46131 0.94924 0.0
O360 O 0.87494 0.47918 0.94158 0.0
O361 O 0.89326 0.47561 0.8809 0.0
O362 O 0.89314 0.50171 0.86236 0.0
H363 H 0.9118 0.43443 0.82504 0.0
H364 H 0.83842 0.4854 0.91109 0.0
O365 O 0.8399 0.48953 0.84432 0.0
H366 H 0.89487 0.54387 0.95057 0.0
H367 H 0.86682 0.55548 0.82218 0.0
H368 H 0.89739 0.5173 0.80277 0.0
H369 H 0.89448 0.52983 0.89277 0.0
H370 H 0.85525 0.525 0.85281 0.0
O371 O 0.86428 0.44924 0.92469 0.0
H372 H 0.89919 0.45599 0.8332 0.0
H373 H 0.85703 0.41677 0.90263 0.0
H374 H 0.90954 0.54777 0.77186 0.0
H375 H 0.83812 0.49905 0.96897 0.0
H376 H 0.89421 0.56708 0.78149 0.0
H377 H 0.86653 0.52846 0.9891 0.0
O378 O 0.86656 0.48393 0.80735 0.0
H379 H 0.7978 0.41512 0.89868 0.0
H380 H 0.84911 0.42426 0.81827 0.0
H381 H 0.81652 0.39876 0.80638 0.0
H382 H 0.79063 0.39405 0.84679 0.0
H383 H 0.83052 0.44059 0.90934 0.0
H384 H 0.86934 0.39487 0.89562 0.0
H385 H 0.89681 0.40359 0.85632 0.0
O386 O 0.87056 0.4594 0.82136 0.0
C387 C 0.90165 0.49321 0.87369 0.0
C388 C 0.89977 0.43043 0.84213 0.0
C389 C 0.87596 0.40825 0.88177 0.0
N390 N 0.87727 0.43756 0.86806 0.0
C391 C 0.89253 0.44256 0.84676 0.0
C392 C 0.86909 0.42073 0.88573 0.0
C393 C 0.89137 0.41314 0.85972 0.0
C394 C 0.85076 0.4983 0.91953 0.0
N395 N 0.86642 0.50684 0.89854 0.0
C396 C 0.85054 0.50592 0.95239 0.0
C397 C 0.86649 0.52241 0.96369 0.0
C398 C 0.8824 0.53105 0.9421 0.0
C399 C 0.88212 0.52301 0.90943 0.0
C400 C 0.87364 0.54721 0.81782 0.0
C401 C 0.89073 0.52568 0.80726 0.0
C402 C 0.86712 0.52993 0.83502 0.0
N403 N 0.87573 0.51946 0.82976 0.0
C404 C 0.89763 0.5429 0.78961 0.0
C405 C 0.88901 0.55371 0.795 0.0
C406 C 0.86943 0.47045 0.79912 0.0
C407 C 0.80898 0.41699 0.88096 0.0
C408 C 0.8379 0.42231 0.83595 0.0
C409 C 0.81949 0.40783 0.82912 0.0
C410 C 0.80496 0.40519 0.85181 0.0
N411 N 0.84172 0.43382 0.86462 0.0
C412 C 0.82755 0.43132 0.88697 0.0
Co413 Co 0.36933 0.86593 0.01971 0.0
Co414 Co 0.41219 0.86936 0.03744 0.0
O415 O 0.38493 0.85775 0.04495 0.0
C416 C 0.34963 0.82478 0.00691 0.0
O417 O 0.36623 0.82683 -0.00062 0.0
C418 C 0.40862 0.87052 0.11467 0.0
O419 O 0.39672 0.87662 0.10913 0.0
O420 O 0.41569 0.89475 0.04677 0.0
O421 O 0.38999 0.89318 0.02184 0.0
H422 H 0.47494 0.91703 0.98639 0.0
H423 H 0.35382 0.84182 0.08311 0.0
O424 O 0.34831 0.83901 0.01661 0.0
H425 H 0.3533 0.9005 0.11094 0.0
H426 H 0.30855 0.86467 0.99129 0.0
H427 H 0.37608 0.89296 0.96176 0.0
H428 H 0.36464 0.89643 0.05313 0.0
H429 H 0.32873 0.85516 0.02341 0.0
O430 O 0.41593 0.86659 0.08874 0.0
H431 H 0.44066 0.90233 -0.0034 0.0
H432 H 0.44187 0.86132 0.06373 0.0
H433 H 0.35646 0.90302 0.92919 0.0
H434 H 0.34218 0.84523 0.14115 0.0
H435 H 0.32243 0.88883 0.94391 0.0
H436 H 0.34194 0.87477 0.1554 0.0
O437 O 0.37901 0.8628 0.97363 0.0
H438 H 0.38639 0.80033 0.06197 0.0
H439 H 0.42485 0.85288 0.98069 0.0
H440 H 0.4196 0.82106 0.96761 0.0
H441 H 0.40027 0.79451 0.00845 0.0
H442 H 0.39182 0.83236 0.07383 0.0
H443 H 0.47622 0.87572 0.05455 0.0
H444 H 0.49295 0.90372 0.01546 0.0
O445 O 0.40939 0.87257 0.98603 0.0
C446 C 0.40645 0.90246 0.03555 0.0
C447 C 0.4678 0.90482 0.00343 0.0
C448 C 0.46852 0.88164 0.0417 0.0
N449 N 0.43924 0.88089 0.03051 0.0
C450 C 0.44838 0.8964 0.00923 0.0
C451 C 0.44908 0.87358 0.04688 0.0
C452 C 0.4779 0.89735 0.01976 0.0
C453 C 0.35357 0.85463 0.08901 0.0
N454 N 0.35984 0.86887 0.06474 0.0
C455 C 0.34705 0.85652 0.12196 0.0
C456 C 0.34694 0.87311 0.12996 0.0
C457 C 0.35333 0.88756 0.10503 0.0
C458 C 0.35979 0.88519 0.07238 0.0
C459 C 0.32337 0.87099 0.98469 0.0
C460 C 0.36132 0.88683 0.96848 0.0
C461 C 0.33485 0.86564 0.00274 0.0
N462 N 0.3536 0.87363 0.99467 0.0
C463 C 0.35027 0.89253 0.94987 0.0
C464 C 0.33117 0.88455 0.95812 0.0
C465 C 0.39583 0.86783 0.96442 0.0
C466 C 0.39489 0.81179 0.04404 0.0
C467 C 0.41638 0.8414 -0.00145 0.0
C468 C 0.4135 0.82342 0.99104 0.0
C469 C 0.40266 0.80853 0.01398 0.0
N470 N 0.40871 0.84448 0.02809 0.0
C471 C 0.39809 0.82997 0.05072 0.0
Co472 Co 0.50501 0.37324 0.17346 0.0
Co473 Co 0.54653 0.41329 0.19752 0.0
O474 O 0.52847 0.38624 0.20059 0.0
C475 C 0.52528 0.35309 0.15422 0.0
O476 O 0.54026 0.36977 0.14935 0.0
C477 C 0.53695 0.4077 0.27304 0.0
O478 O 0.51915 0.39748 0.26371 0.0
O479 O 0.5261 0.41954 0.20281 0.0
O480 O 0.49976 0.39438 0.18201 0.0
H481 H 0.57064 0.47975 0.15513 0.0
H482 H 0.51205 0.35331 0.23166 0.0
O483 O 0.50981 0.35181 0.16432 0.0
H484 H 0.45374 0.35338 0.26469 0.0
H485 H 0.44449 0.3161 0.13467 0.0
H486 H 0.4861 0.38486 0.12047 0.0
H487 H 0.46993 0.36768 0.20865 0.0
H488 H 0.47406 0.33313 0.16881 0.0
O489 O 0.54985 0.41457 0.24971 0.0
H490 H 0.54807 0.44552 0.15857 0.0
H491 H 0.58357 0.43876 0.23187 0.0
H492 H 0.45657 0.36843 0.08604 0.0
H493 H 0.49623 0.33869 0.28782 0.0
H494 H 0.43555 0.3338 0.09304 0.0
H495 H 0.46689 0.33873 0.30469 0.0
O496 O 0.51838 0.38547 0.12869 0.0
H497 H 0.5818 0.37952 0.22824 0.0
H498 H 0.57867 0.42518 0.1474 0.0
H499 H 0.6036 0.41692 0.13931 0.0
H500 H 0.60523 0.39387 0.1798 0.0
H501 H 0.55711 0.38822 0.23543 0.0
H502 H 0.60645 0.47294 0.22948 0.0
H503 H 0.60008 0.49367 0.19078 0.0
O504 O 0.54361 0.41284 0.14558 0.0
C505 C 0.5087 0.41121 0.19412 0.0
C506 C 0.57362 0.47085 0.17197 0.0
C507 C 0.59371 0.46704 0.21374 0.0
N508 N 0.5646 0.44013 0.19507 0.0
C509 C 0.56093 0.45145 0.17392 0.0
C510 C 0.58068 0.4477 0.21502 0.0
C511 C 0.59012 0.47866 0.19201 0.0
C512 C 0.4992 0.35323 0.23869 0.0
N513 N 0.4919 0.36129 0.21687 0.0
C514 C 0.49034 0.34499 0.27057 0.0
C515 C 0.47389 0.34504 0.28005 0.0
C516 C 0.46652 0.35327 0.25763 0.0
C517 C 0.47577 0.3614 0.22597 0.0
C518 C 0.45352 0.3312 0.13143 0.0
C519 C 0.47695 0.36981 0.1238 0.0
C520 C 0.4703 0.3409 0.15062 0.0
N521 N 0.48171 0.35998 0.1468 0.0
C522 C 0.46029 0.36057 0.10417 0.0
C523 C 0.44851 0.34114 0.10809 0.0
C524 C 0.53285 0.40147 0.12199 0.0
C525 C 0.58126 0.3896 0.21045 0.0
C526 C 0.5793 0.41516 0.16517 0.0
C527 C 0.59345 0.41053 0.16045 0.0
C528 C 0.59437 0.39763 0.18322 0.0
N529 N 0.56652 0.40726 0.192 0.0
C530 C 0.56735 0.39463 0.21448 0.0
Co531 Co 0.13711 0.50667 0.3515 0.0
Co532 Co 0.13712 0.54783 0.3734 0.0
O533 O 0.14579 0.52965 0.37971 0.0
C534 C 0.178 0.52871 0.33712 0.0
O535 O 0.1758 0.54345 0.33318 0.0
C536 C 0.12781 0.53575 0.44781 0.0
O537 O 0.12351 0.51855 0.4388 0.0
O538 O 0.11029 0.52723 0.37 0.0
O539 O 0.11031 0.50036 0.35733 0.0
H540 H 0.1001 0.57411 0.31445 0.0
H541 H 0.16268 0.51396 0.41232 0.0
O542 O 0.1639 0.5127 0.34509 0.0
H543 H 0.10484 0.45392 0.43972 0.0
H544 H 0.13767 0.44801 0.31297 0.0
H545 H 0.10829 0.48745 0.29566 0.0
H546 H 0.10758 0.47065 0.38393 0.0
H547 H 0.14807 0.47697 0.34812 0.0
O548 O 0.13391 0.54896 0.42514 0.0
H549 H 0.11133 0.55143 0.32303 0.0
H550 H 0.14439 0.58301 0.41078 0.0
H551 H 0.09735 0.45852 0.26014 0.0
H552 H 0.16063 0.49761 0.46827 0.0
H553 H 0.11207 0.43859 0.26871 0.0
H554 H 0.13152 0.46739 0.48231 0.0
O555 O 0.13888 0.52022 0.3064 0.0
H556 H 0.20201 0.58087 0.42695 0.0
H557 H 0.16176 0.5828 0.33203 0.0
H558 H 0.19521 0.60779 0.3353 0.0
H559 H 0.21558 0.60693 0.38307 0.0
H560 H 0.16851 0.55606 0.42243 0.0
H561 H 0.13337 0.60593 0.40333 0.0
H562 H 0.11114 0.60159 0.35476 0.0
O563 O 0.13999 0.54728 0.32183 0.0
C564 C 0.10178 0.5095 0.3639 0.0
C565 C 0.10985 0.57619 0.33561 0.0
C566 C 0.12849 0.59403 0.38554 0.0
N567 N 0.12862 0.56597 0.36719 0.0
C568 C 0.11629 0.56342 0.34055 0.0
C569 C 0.13465 0.58098 0.38968 0.0
C570 C 0.11602 0.59159 0.35827 0.0
C571 C 0.15003 0.50074 0.41812 0.0
N572 N 0.13528 0.49325 0.39486 0.0
C573 C 0.14892 0.49158 0.44989 0.0
C574 C 0.13258 0.47463 0.45778 0.0
C575 C 0.1176 0.46708 0.4339 0.0
C576 C 0.1192 0.47664 0.40241 0.0
C577 C 0.13112 0.45656 0.30904 0.0
C578 C 0.11468 0.47878 0.29968 0.0
C579 C 0.13698 0.473 0.3288 0.0
N580 N 0.1287 0.48381 0.32409 0.0
C581 C 0.10847 0.46245 0.27942 0.0
C582 C 0.11675 0.45128 0.28422 0.0
C583 C 0.14009 0.53601 0.29886 0.0
C584 C 0.19328 0.58141 0.40602 0.0
C585 C 0.17056 0.58226 0.35272 0.0
C586 C 0.18947 0.5965 0.35454 0.0
C587 C 0.20089 0.59601 0.38137 0.0
N588 N 0.1632 0.56797 0.37695 0.0
C589 C 0.17429 0.56743 0.40339 0.0
Co590 Co 0.63301 0.13249 0.50775 0.0
Co591 Co 0.59231 0.13108 0.5357 0.0
O592 O 0.61975 0.14216 0.53649 0.0
C593 C 0.65211 0.17311 0.48995 0.0
O594 O 0.63525 0.17114 0.48611 0.0
C595 C 0.59995 0.1318 0.61216 0.0
O596 O 0.61108 0.12489 0.6055 0.0
O597 O 0.58883 0.10571 0.54577 0.0
O598 O 0.61251 0.10569 0.51574 0.0
H599 H 0.52601 0.08197 0.50314 0.0
H600 H 0.65326 0.15912 0.5662 0.0
O601 O 0.65383 0.15902 0.49893 0.0
H602 H 0.65522 0.10127 0.59501 0.0
H603 H 0.69065 0.1313 0.46474 0.0
H604 H 0.62165 0.10295 0.45278 0.0
H605 H 0.63973 0.10314 0.54051 0.0
H606 H 0.67335 0.14265 0.50119 0.0
O607 O 0.59214 0.1357 0.58711 0.0
H608 H 0.56073 0.09687 0.50312 0.0
H609 H 0.56531 0.14127 0.56822 0.0
H610 H 0.63837 0.09105 0.41602 0.0
H611 H 0.66907 0.15793 0.6208 0.0
H612 H 0.67312 0.10525 0.42189 0.0
H613 H 0.67007 0.12882 0.63554 0.0
O614 O 0.62003 0.1337 0.46422 0.0
H615 H 0.62172 0.20111 0.55364 0.0
H616 H 0.57595 0.14641 0.48356 0.0
H617 H 0.58094 0.17806 0.46998 0.0
H618 H 0.60404 0.20573 0.50499 0.0
H619 H 0.61626 0.16914 0.56638 0.0
H620 H 0.53063 0.12678 0.56914 0.0
H621 H 0.51074 0.09693 0.53636 0.0
O622 O 0.59133 0.12616 0.48429 0.0
C623 C 0.59704 0.09727 0.53299 0.0
C624 C 0.53453 0.09499 0.51746 0.0
C625 C 0.53712 0.12013 0.55453 0.0
N626 N 0.56505 0.11998 0.53549 0.0
C627 C 0.5542 0.10353 0.51748 0.0
C628 C 0.55675 0.12825 0.55398 0.0
C629 C 0.52597 0.10339 0.53613 0.0
C630 C 0.65378 0.14646 0.57229 0.0
N631 N 0.64566 0.13125 0.55013 0.0
C632 C 0.66269 0.14585 0.60331 0.0
C633 C 0.66322 0.1295 0.61159 0.0
C634 C 0.65488 0.11403 0.58886 0.0
C635 C 0.64609 0.11516 0.55809 0.0
C636 C 0.6755 0.12496 0.462 0.0
C637 C 0.63676 0.1091 0.45566 0.0
C638 C 0.66563 0.13135 0.48253 0.0
N639 N 0.64649 0.12334 0.47934 0.0
C640 C 0.64615 0.10235 0.43469 0.0
C641 C 0.66566 0.11034 0.43797 0.0
C642 C 0.60285 0.12917 0.45926 0.0
C643 C 0.61162 0.18917 0.53817 0.0
C644 C 0.58605 0.15836 0.4989 0.0
C645 C 0.5888 0.17626 0.4911 0.0
C646 C 0.60172 0.19176 0.51084 0.0
N647 N 0.59579 0.15592 0.52576 0.0
C648 C 0.60842 0.17104 0.54535 0.0
Co649 Co 0.50031 0.62934 0.68828 0.0
Co650 Co 0.45876 0.58888 0.71043 0.0
O651 O 0.4763 0.61605 0.71374 0.0
C652 C 0.47957 0.64854 0.66617 0.0
O653 O 0.46487 0.63163 0.66174 0.0
C654 C 0.46584 0.59473 0.78677 0.0
O655 O 0.4839 0.60533 0.77967 0.0
O656 O 0.47943 0.58333 0.71934 0.0
O657 O 0.50585 0.60854 0.69892 0.0
H658 H 0.43748 0.52253 0.67081 0.0
H659 H 0.49159 0.64916 0.74419 0.0
O660 O 0.49517 0.65037 0.67703 0.0
H661 H 0.54977 0.65052 0.78349 0.0
H662 H 0.56094 0.68704 0.65186 0.0
H663 H 0.52078 0.61804 0.63832 0.0
H664 H 0.53482 0.63568 0.72689 0.0
H665 H 0.53079 0.66968 0.6841 0.0
O666 O 0.45382 0.58768 0.76196 0.0
H667 H 0.45929 0.5569 0.67454 0.0
H668 H 0.42082 0.56287 0.74112 0.0
H669 H 0.55091 0.63481 0.60582 0.0
H670 H 0.50616 0.66431 0.80085 0.0
H671 H 0.57121 0.66956 0.61249 0.0
H672 H 0.53543 0.665 0.82087 0.0
O673 O 0.48807 0.61686 0.64291 0.0
H674 H 0.42128 0.62125 0.73304 0.0
H675 H 0.42816 0.57626 0.65651 0.0
H676 H 0.40316 0.58393 0.64375 0.0
H677 H 0.39959 0.60657 0.68217 0.0
H678 H 0.4462 0.61331 0.74466 0.0
H679 H 0.39865 0.52853 0.73835 0.0
H680 H 0.4069 0.50813 0.70287 0.0
O681 O 0.46319 0.58913 0.65911 0.0
C682 C 0.49697 0.59185 0.71177 0.0
C683 C 0.43368 0.53128 0.68623 0.0
C684 C 0.4119 0.53465 0.72417 0.0
N685 N 0.44124 0.56191 0.7077 0.0
C686 C 0.44594 0.55076 0.68833 0.0
C687 C 0.42452 0.55408 0.72568 0.0
C688 C 0.41654 0.52321 0.70426 0.0
C689 C 0.50441 0.64955 0.7526 0.0
N690 N 0.51238 0.64161 0.73222 0.0
C691 C 0.51256 0.65808 0.78476 0.0
C692 C 0.52897 0.65844 0.796 0.0
C693 C 0.53702 0.65031 0.77505 0.0
C694 C 0.52846 0.64188 0.74307 0.0
C695 C 0.55224 0.67189 0.64878 0.0
C696 C 0.52961 0.63315 0.64153 0.0
C697 C 0.53513 0.66199 0.66691 0.0
N698 N 0.52412 0.64285 0.66327 0.0
C699 C 0.54662 0.64257 0.62299 0.0
C700 C 0.55799 0.66207 0.62671 0.0
C701 C 0.47416 0.60055 0.63587 0.0
C702 C 0.42265 0.61132 0.71617 0.0
C703 C 0.42672 0.58615 0.67333 0.0
C704 C 0.41251 0.59041 0.66601 0.0
C705 C 0.41051 0.6031 0.6876 0.0
N706 N 0.43857 0.59427 0.70142 0.0
C707 C 0.43668 0.60671 0.72273 0.0
H708 H 0.57042 0.14474 0.1361 0.0
H709 H 0.58047 0.14215 0.19483 0.0
H710 H 0.52871 0.13557 0.23804 0.0
H711 H 0.51854 0.13872 0.17864 0.0
H712 H 0.55965 0.15856 0.27862 0.0
H713 H 0.53307 0.09739 0.22649 0.0
H714 H 0.52837 0.07457 0.17953 0.0
H715 H 0.58658 0.08938 0.1874 0.0
H716 H 0.59171 0.11253 0.23405 0.0
H717 H 0.56718 0.11999 0.43974 0.0
H718 H 0.55606 0.12185 0.38132 0.0
H719 H 0.61068 0.13772 0.3376 0.0
H720 H 0.62231 0.13628 0.39663 0.0
H721 H 0.57722 0.1092 0.29817 0.0
H722 H 0.60346 0.17104 0.35 0.0
H723 H 0.60762 0.19398 0.39634 0.0
H724 H 0.54886 0.17716 0.38925 0.0
H725 H 0.54425 0.15382 0.34336 0.0
C726 C 0.56115 0.14297 0.15792 0.0
C727 C 0.54359 0.14188 0.15254 0.0
C728 C 0.56692 0.14136 0.19156 0.0
C729 C 0.55516 0.13827 0.22058 0.0
C730 C 0.53791 0.13783 0.21578 0.0
C731 C 0.53214 0.13962 0.1819 0.0
C732 C 0.56098 0.13516 0.25567 0.0
C733 C 0.56318 0.14758 0.28311 0.0
C734 C 0.56593 0.12102 0.26113 0.0
C735 C 0.56281 0.1068 0.23362 0.0
C736 C 0.5449 0.09586 0.21808 0.0
C737 C 0.54216 0.08286 0.19152 0.0
C738 C 0.55718 0.08056 0.18043 0.0
C739 C 0.57496 0.0912 0.196 0.0
C740 C 0.57779 0.10424 0.22254 0.0
C741 C 0.57693 0.12384 0.41786 0.0
C742 C 0.59579 0.12831 0.42302 0.0
C743 C 0.57048 0.12485 0.38446 0.0
C744 C 0.58264 0.13015 0.35547 0.0
C745 C 0.60117 0.13368 0.35992 0.0
C746 C 0.60777 0.13288 0.39358 0.0
C747 C 0.57602 0.1327 0.32088 0.0
C748 C 0.57362 0.12013 0.29363 0.0
C749 C 0.57075 0.14659 0.31568 0.0
C750 C 0.57347 0.16054 0.34346 0.0
C751 C 0.59137 0.17207 0.35859 0.0
C752 C 0.59383 0.18518 0.38471 0.0
C753 C 0.57852 0.18704 0.39568 0.0
C754 C 0.56071 0.17572 0.38068 0.0
C755 C 0.55816 0.16254 0.35462 0.0
H756 H 0.58047 0.19726 0.4158 0.0
H757 H 0.55503 0.07051 0.15983 0.0
H758 H 0.39048 0.51643 0.34907 0.0
H759 H 0.40382 0.52657 0.40833 0.0
H760 H 0.43032 0.58487 0.37534 0.0
H761 H 0.41747 0.5749 0.31638 0.0
H762 H 0.45503 0.5782 0.40745 0.0
H763 H 0.39167 0.56518 0.43009 0.0
H764 H 0.35692 0.5457 0.43077 0.0
H765 H 0.36039 0.5052 0.49788 0.0
H766 H 0.39519 0.52432 0.4972 0.0
H767 H 0.48164 0.62275 0.57714 0.0
H768 H 0.46924 0.61195 0.51751 0.0
H769 H 0.44375 0.55398 0.55211 0.0
H770 H 0.4557 0.5646 0.61143 0.0
H771 H 0.41868 0.56003 0.51924 0.0
H772 H 0.48216 0.5735 0.49742 0.0
H773 H 0.51689 0.59317 0.49688 0.0
H774 H 0.5132 0.63306 0.42835 0.0
H775 H 0.47842 0.61375 0.42888 0.0
C776 C 0.3989 0.5314 0.35471 0.0
C777 C 0.40306 0.54487 0.32808 0.0
C778 C 0.40652 0.53717 0.38849 0.0
C779 C 0.4181 0.55649 0.39612 0.0
C780 C 0.42159 0.56991 0.36989 0.0
C781 C 0.41418 0.56417 0.33622 0.0
C782 C 0.42733 0.56286 0.43089 0.0
C783 C 0.44707 0.57441 0.4319 0.0
C784 C 0.41696 0.55754 0.46272 0.0
C785 C 0.39604 0.54608 0.4633 0.0
C786 C 0.38502 0.55205 0.44477 0.0
C787 C 0.36532 0.54109 0.4452 0.0
C788 C 0.35646 0.5242 0.46428 0.0
C789 C 0.36728 0.51827 0.48307 0.0
C790 C 0.38699 0.52917 0.48269 0.0
C791 C 0.47371 0.60772 0.57175 0.0
C792 C 0.46949 0.59451 0.5989 0.0
C793 C 0.46662 0.60157 0.53777 0.0
C794 C 0.45552 0.58215 0.53052 0.0
C795 C 0.45213 0.56901 0.55726 0.0
C796 C 0.45901 0.57511 0.59111 0.0
C797 C 0.44638 0.57541 0.49579 0.0
C798 C 0.42665 0.56379 0.49479 0.0
C799 C 0.45676 0.58069 0.46398 0.0
C800 C 0.47768 0.59226 0.46347 0.0
C801 C 0.48875 0.58654 0.48246 0.0
C802 C 0.50845 0.59761 0.48211 0.0
C803 C 0.51724 0.61438 0.46266 0.0
C804 C 0.50636 0.62008 0.44344 0.0
C805 C 0.48666 0.60907 0.44372 0.0
H806 H 0.53249 0.62293 0.46243 0.0
H807 H 0.3412 0.51574 0.46458 0.0
H808 H 0.8458 0.46728 0.7455 0.0
H809 H 0.84457 0.45406 0.68665 0.0
H810 H 0.89512 0.45192 0.71058 0.0
H811 H 0.89581 0.46423 0.76959 0.0
H812 H 0.86614 0.46221 0.6295 0.0
H813 H 0.89226 0.41287 0.68209 0.0
H814 H 0.89298 0.39823 0.73861 0.0
H815 H 0.84278 0.39807 0.77224 0.0
H816 H 0.8417 0.41264 0.71592 0.0
H817 H 0.8926 0.42811 0.48718 0.0
H818 H 0.89304 0.44001 0.5464 0.0
H819 H 0.84323 0.3873 0.57329 0.0
H820 H 0.84323 0.37505 0.51393 0.0
H821 H 0.86698 0.40183 0.62918 0.0
H822 H 0.83856 0.42425 0.54594 0.0
H823 H 0.8373 0.43853 0.4894 0.0
H824 H 0.88769 0.48999 0.51697 0.0
H825 H 0.88934 0.47599 0.57363 0.0
C826 C 0.85681 0.46432 0.73773 0.0
C827 C 0.87078 0.46653 0.76186 0.0
C828 C 0.85609 0.45673 0.70428 0.0
C829 C 0.86945 0.45151 0.69468 0.0
C830 C 0.88434 0.45531 0.71785 0.0
C831 C 0.88481 0.46245 0.75139 0.0
C832 C 0.86732 0.44104 0.66152 0.0
C833 C 0.86623 0.44898 0.62944 0.0
C834 C 0.86699 0.42352 0.66153 0.0
C835 C 0.86697 0.41392 0.69482 0.0
C836 C 0.88129 0.40957 0.70143 0.0
C837 C 0.8818 0.40136 0.7335 0.0
C838 C 0.86798 0.39732 0.75907 0.0
C839 C 0.85353 0.40133 0.75251 0.0
C840 C 0.85297 0.40956 0.72053 0.0
C841 C 0.88198 0.41895 0.506 0.0
C842 C 0.86778 0.40079 0.4962 0.0
C843 C 0.88219 0.42576 0.53971 0.0
C844 C 0.86785 0.41473 0.56383 0.0
C845 C 0.85433 0.39607 0.55489 0.0
C846 C 0.85434 0.38908 0.52117 0.0
C847 C 0.86638 0.42331 0.5972 0.0
C848 C 0.8667 0.41496 0.6293 0.0
C849 C 0.86557 0.44023 0.59725 0.0
C850 C 0.86411 0.44904 0.56398 0.0
C851 C 0.84937 0.43861 0.53995 0.0
C852 C 0.84861 0.44665 0.50786 0.0
C853 C 0.86244 0.46512 0.49954 0.0
C854 C 0.87698 0.47568 0.52345 0.0
C855 C 0.87781 0.46772 0.55562 0.0
H856 H 0.86187 0.47128 0.47459 0.0
H857 H 0.86845 0.39104 0.78394 0.0
H858 H 0.47038 0.84268 0.68298 0.0
H859 H 0.45746 0.84131 0.74214 0.0
H860 H 0.43499 0.87628 0.70635 0.0
H861 H 0.44722 0.87722 0.64754 0.0
H862 H 0.46178 0.86601 0.79183 0.0
H863 H 0.393 0.86247 0.73819 0.0
H864 H 0.37211 0.84942 0.68636 0.0
H865 H 0.38979 0.80843 0.67242 0.0
H866 H 0.41064 0.8211 0.72427 0.0
H867 H 0.42507 0.89459 0.92692 0.0
H868 H 0.43546 0.89101 0.86842 0.0
H869 H 0.38751 0.83451 0.86139 0.0
H870 H 0.37647 0.83863 0.91911 0.0
H871 H 0.3944 0.84882 0.79973 0.0
H872 H 0.43222 0.8433 0.88818 0.0
H873 H 0.45184 0.85269 0.94194 0.0
H874 H 0.4937 0.90318 0.89045 0.0
H875 H 0.47422 0.89425 0.83649 0.0
C876 C 0.46277 0.85015 0.68791 0.0
C877 C 0.45957 0.85983 0.66052 0.0
C878 C 0.45542 0.84936 0.72165 0.0
C879 C 0.44489 0.85832 0.7284 0.0
C880 C 0.4426 0.8688 0.7015 0.0
C881 C 0.44967 0.86938 0.66788 0.0
C882 C 0.43584 0.85661 0.76313 0.0
C883 C 0.44703 0.86214 0.79366 0.0
C884 C 0.41641 0.85084 0.76571 0.0
C885 C 0.40347 0.84283 0.73502 0.0
C886 C 0.39234 0.8506 0.7242 0.0
C887 C 0.38054 0.8433 0.69474 0.0
C888 C 0.37968 0.82816 0.67601 0.0
C889 C 0.39055 0.82022 0.6868 0.0
C890 C 0.40236 0.82747 0.7162 0.0
C891 C 0.41654 0.88162 0.91236 0.0
C892 C 0.40001 0.86689 0.92717 0.0
C893 C 0.42257 0.87948 0.87921 0.0
C894 C 0.41261 0.86225 0.86103 0.0
C895 C 0.3955 0.84787 0.87503 0.0
C896 C 0.38916 0.85024 0.90785 0.0
C897 C 0.42054 0.85908 0.82823 0.0
C898 C 0.40909 0.85251 0.79808 0.0
C899 C 0.43952 0.86307 0.82639 0.0
C900 C 0.4517 0.86814 0.85829 0.0
C901 C 0.4456 0.85642 0.88831 0.0
C902 C 0.45668 0.86168 0.91885 0.0
C903 C 0.47398 0.87854 0.91964 0.0
C904 C 0.48029 0.89013 0.8898 0.0
C905 C 0.46925 0.88495 0.85919 0.0
H906 H 0.4825 0.88262 0.94335 0.0
H907 H 0.37057 0.82255 0.65318 0.0
H908 H 0.52563 0.37869 0.06421 0.0
H909 H 0.53885 0.38877 0.00476 0.0
H910 H 0.56572 0.44707 0.0376 0.0
H911 H 0.55272 0.43721 0.09663 0.0
H912 H 0.55004 0.44107 0.97004 0.0
H913 H 0.58946 0.42519 0.04034 0.0
H914 H 0.59593 0.40411 0.07688 0.0
H915 H 0.58127 0.36548 0.99021 0.0
H916 H 0.57402 0.38597 0.95346 0.0
H917 H 0.61805 0.48445 0.83625 0.0
H918 H 0.60639 0.47427 0.89652 0.0
H919 H 0.58114 0.41597 0.86436 0.0
H920 H 0.59277 0.42597 0.80457 0.0
H921 H 0.59602 0.42182 0.93149 0.0
H922 H 0.55496 0.43544 0.86243 0.0
H923 H 0.54776 0.45538 0.82401 0.0
H924 H 0.56484 0.49697 0.90612 0.0
H925 H 0.57246 0.47738 0.94486 0.0
C926 C 0.53405 0.39365 0.05847 0.0
C927 C 0.53832 0.40716 0.08506 0.0
C928 C 0.54164 0.39937 0.02466 0.0
C929 C 0.5534 0.41865 0.01709 0.0
C930 C 0.55671 0.43215 0.04302 0.0
C931 C 0.54935 0.42646 0.07677 0.0
C932 C 0.56344 0.42488 0.98309 0.0
C933 C 0.56021 0.437 0.96174 0.0
C934 C 0.5765 0.41931 0.97219 0.0
C935 C 0.58093 0.407 0.99428 0.0
C936 C 0.58735 0.41207 0.02919 0.0
C937 C 0.59114 0.40021 0.04997 0.0
C938 C 0.58885 0.38338 0.03598 0.0
C939 C 0.58284 0.37841 0.00113 0.0
C940 C 0.57886 0.39013 0.98032 0.0
C941 C 0.61043 0.46949 0.84234 0.0
C942 C 0.60601 0.45597 0.81571 0.0
C943 C 0.60372 0.46371 0.87663 0.0
C944 C 0.59267 0.44438 0.88458 0.0
C945 C 0.58957 0.43093 0.85867 0.0
C946 C 0.59611 0.43668 0.82447 0.0
C947 C 0.58266 0.43805 0.91859 0.0
C948 C 0.58587 0.4259 0.93989 0.0
C949 C 0.56944 0.44342 0.92929 0.0
C950 C 0.56445 0.45503 0.90642 0.0
C951 C 0.55729 0.44889 0.87223 0.0
C952 C 0.55313 0.46012 0.8504 0.0
C953 C 0.55587 0.47745 0.8626 0.0
C954 C 0.56274 0.48355 0.8967 0.0
C955 C 0.56698 0.47238 0.91862 0.0
H956 H 0.55263 0.48612 0.84566 0.0
H957 H 0.59183 0.37423 0.05208 0.0
H958 H 0.15141 0.57131 0.27434 0.0
H959 H 0.15024 0.5808 0.2143 0.0
H960 H 0.13043 0.52387 0.1783 0.0
H961 H 0.13174 0.51407 0.23912 0.0
H962 H 0.15748 0.55265 0.13302 0.0
H963 H 0.09901 0.53619 0.19004 0.0
H964 H 0.07909 0.53665 0.23841 0.0
H965 H 0.10278 0.59647 0.22522 0.0
H966 H 0.1231 0.59644 0.17714 0.0
H967 H 0.1252 0.56632 0.97093 0.0
H968 H 0.12486 0.55412 0.02944 0.0
H969 H 0.1427 0.60903 0.07427 0.0
H970 H 0.1428 0.62148 0.01525 0.0
H971 H 0.11541 0.57951 0.11439 0.0
H972 H 0.17457 0.59616 0.05884 0.0
H973 H 0.19438 0.59583 0.01013 0.0
H974 H 0.16947 0.53571 0.0206 0.0
H975 H 0.14922 0.53563 0.06895 0.0
C976 C 0.14696 0.56074 0.25381 0.0
C977 C 0.14141 0.54184 0.26164 0.0
C978 C 0.1463 0.56624 0.21944 0.0
C979 C 0.13989 0.55295 0.19215 0.0
C980 C 0.1353 0.53427 0.19925 0.0
C981 C 0.13605 0.52872 0.2339 0.0
C982 C 0.13714 0.55867 0.15675 0.0
C983 C 0.14805 0.55821 0.1287 0.0
C984 C 0.12512 0.5663 0.15159 0.0
C985 C 0.11267 0.56633 0.1801 0.0
C986 C 0.10006 0.54947 0.19759 0.0
C987 C 0.08869 0.54965 0.22495 0.0
C988 C 0.08967 0.56658 0.23488 0.0
C989 C 0.10203 0.58337 0.21747 0.0
C990 C 0.11347 0.58327 0.19014 0.0
C991 C 0.12894 0.57586 0.99313 0.0
C992 C 0.13431 0.59498 0.98837 0.0
C993 C 0.12873 0.56882 0.02658 0.0
C994 C 0.13412 0.58077 0.05595 0.0
C995 C 0.13861 0.59964 0.05173 0.0
C996 C 0.13869 0.60673 0.01809 0.0
C997 C 0.13585 0.57363 0.09069 0.0
C998 C 0.12475 0.57384 0.11862 0.0
C999 C 0.1477 0.56578 0.09573 0.0
C1000 C 0.16026 0.56587 0.06734 0.0
C1001 C 0.17324 0.58285 0.05063 0.0
C1002 C 0.18454 0.58274 0.02308 0.0
C1003 C 0.18316 0.56575 0.01223 0.0
C1004 C 0.17051 0.54885 0.02901 0.0
C1005 C 0.15912 0.54888 0.05651 0.0
H1006 H 0.1919 0.56569 0.99087 0.0
H1007 H 0.08083 0.56668 0.25602 0.0
H1008 H 0.55601 0.35032 0.13419 0.0
H1009 H 0.55715 0.32154 0.12176 0.0
H1010 H 0.49773 0.28782 0.1455 0.0
H1011 H 0.49653 0.31645 0.15856 0.0
H1012 H 0.51623 0.27243 0.17428 0.0
H1013 H 0.51367 0.29576 0.06015 0.0
H1014 H 0.52314 0.31897 0.01187 0.0
H1015 H 0.57775 0.32351 0.00799 0.0
H1016 H 0.56867 0.30045 0.05661 0.0
H1017 H 0.49707 0.18655 0.09234 0.0
H1018 H 0.49797 0.21634 0.10482 0.0
H1019 H 0.55867 0.24632 0.09582 0.0
H1020 H 0.55796 0.21651 0.08353 0.0
H1021 H 0.54065 0.26386 0.06005 0.0
H1022 H 0.54109 0.23839 0.17443 0.0
H1023 H 0.52936 0.21371 0.22034 0.0
H1024 H 0.47603 0.21205 0.22122 0.0
H1025 H 0.48734 0.23653 0.17491 0.0
C1026 C 0.54318 0.33678 0.13681 0.0
C1027 C 0.52616 0.3357 0.14725 0.0
C1028 C 0.54384 0.32033 0.12955 0.0
C1029 C 0.52747 0.3025 0.13228 0.0
C1030 C 0.51054 0.3014 0.14319 0.0
C1031 C 0.50988 0.31781 0.15056 0.0
C1032 C 0.52794 0.28497 0.12382 0.0
C1033 C 0.52139 0.27051 0.14915 0.0
C1034 C 0.53494 0.28252 0.09124 0.0
C1035 C 0.54055 0.29652 0.06224 0.0
C1036 C 0.52776 0.30183 0.04923 0.0
C1037 C 0.53304 0.31493 0.02176 0.0
C1038 C 0.55103 0.32271 0.00689 0.0
C1039 C 0.56381 0.31746 0.01954 0.0
C1040 C 0.5586 0.30436 0.04703 0.0
C1041 C 0.51063 0.19947 0.09285 0.0
C1042 C 0.52746 0.19915 0.08711 0.0
C1043 C 0.51111 0.21647 0.1001 0.0
C1044 C 0.5284 0.23349 0.10151 0.0
C1045 C 0.54519 0.23331 0.09491 0.0
C1046 C 0.54475 0.21627 0.08804 0.0
C1047 C 0.52889 0.2514 0.11045 0.0
C1048 C 0.53561 0.2659 0.08522 0.0
C1049 C 0.52179 0.25378 0.14291 0.0
C1050 C 0.51501 0.23917 0.17096 0.0
C1051 C 0.52681 0.23265 0.18421 0.0
C1052 C 0.52024 0.21872 0.21034 0.0
C1053 C 0.50194 0.21128 0.22363 0.0
C1054 C 0.49019 0.2178 0.21087 0.0
C1055 C 0.49668 0.23172 0.18471 0.0
H1056 H 0.49689 0.20049 0.24386 0.0
H1057 H 0.55502 0.33273 0.98545 0.0
H1058 H 0.31428 0.5063 0.23954 0.0
H1059 H 0.28613 0.50844 0.25319 0.0
H1060 H 0.32031 0.55968 0.3119 0.0
H1061 H 0.34862 0.55787 0.29784 0.0
H1062 H 0.28638 0.53124 0.34747 0.0
H1063 H 0.307 0.56551 0.23826 0.0
H1064 H 0.31715 0.57003 0.17606 0.0
H1065 H 0.26397 0.52235 0.14602 0.0
H1066 H 0.25362 0.51734 0.20818 0.0
H1067 H 0.20976 0.55909 0.31049 0.0
H1068 H 0.24031 0.56152 0.29849 0.0
H1069 H 0.21909 0.50489 0.33764 0.0
H1070 H 0.18849 0.50229 0.34965 0.0
H1071 H 0.24837 0.5393 0.2541 0.0
H1072 H 0.25596 0.50424 0.38061 0.0
H1073 H 0.24616 0.50018 0.44304 0.0
H1074 H 0.24398 0.55157 0.43913 0.0
H1075 H 0.25404 0.55609 0.37685 0.0
C1076 C 0.31581 0.51805 0.25529 0.0
C1077 C 0.33365 0.53193 0.26761 0.0
C1078 C 0.29974 0.51926 0.26299 0.0
C1079 C 0.30121 0.53422 0.2835 0.0
C1080 C 0.31895 0.54803 0.29605 0.0
C1081 C 0.33508 0.54701 0.28786 0.0
C1082 C 0.28415 0.53536 0.29196 0.0
C1083 C 0.27806 0.53303 0.32712 0.0
C1084 C 0.27348 0.53789 0.26536 0.0
C1085 C 0.27961 0.54095 0.22793 0.0
C1086 C 0.29754 0.55588 0.21844 0.0
C1087 C 0.30331 0.55855 0.18318 0.0
C1088 C 0.29123 0.54646 0.15711 0.0
C1089 C 0.27333 0.53169 0.16625 0.0
C1090 C 0.26749 0.52894 0.20149 0.0
C1091 C 0.2116 0.54718 0.31671 0.0
C1092 C 0.19669 0.53049 0.33102 0.0
C1093 C 0.22904 0.54857 0.30969 0.0
C1094 C 0.23196 0.53342 0.31732 0.0
C1095 C 0.21716 0.5168 0.33185 0.0
C1096 C 0.19967 0.51533 0.33861 0.0
C1097 C 0.25039 0.53486 0.3096 0.0
C1098 C 0.2567 0.53759 0.27452 0.0
C1099 C 0.26131 0.53277 0.33633 0.0
C1100 C 0.25559 0.5304 0.37397 0.0
C1101 C 0.25348 0.51472 0.39313 0.0
C1102 C 0.24786 0.51233 0.42848 0.0
C1103 C 0.24439 0.52558 0.44501 0.0
C1104 C 0.2466 0.54129 0.42626 0.0
C1105 C 0.25224 0.54375 0.39092 0.0
H1106 H 0.24002 0.52369 0.47236 0.0
H1107 H 0.29573 0.54855 0.12982 0.0
H1108 H 0.68824 0.18032 0.48147 0.0
H1109 H 0.71653 0.21068 0.47063 0.0
H1110 H 0.68331 0.23832 0.47367 0.0
H1111 H 0.65471 0.20774 0.4834 0.0
H1112 H 0.70782 0.25243 0.42201 0.0
H1113 H 0.7119 0.24058 0.54404 0.0
H1114 H 0.71158 0.22223 0.59596 0.0
H1115 H 0.75945 0.22004 0.55522 0.0
H1116 H 0.75989 0.23814 0.50278 0.0
H1117 H 0.78981 0.34465 0.43844 0.0
H1118 H 0.75989 0.31564 0.4502 0.0
H1119 H 0.78722 0.28268 0.43499 0.0
H1120 H 0.81713 0.31152 0.42319 0.0
H1121 H 0.76508 0.27261 0.49533 0.0
H1122 H 0.75964 0.28383 0.37192 0.0
H1123 H 0.75977 0.30278 0.32117 0.0
H1124 H 0.71412 0.30719 0.36711 0.0
H1125 H 0.71391 0.28848 0.41842 0.0
C1126 C 0.68692 0.19285 0.47992 0.0
C1127 C 0.66923 0.19163 0.48351 0.0
C1128 C 0.70316 0.21024 0.47386 0.0
C1129 C 0.70216 0.22689 0.472 0.0
C1130 C 0.68446 0.22569 0.47512 0.0
C1131 C 0.66814 0.20822 0.48076 0.0
C1132 C 0.7196 0.24545 0.46653 0.0
C1133 C 0.72022 0.25697 0.43844 0.0
C1134 C 0.73592 0.25133 0.48764 0.0
C1135 C 0.73582 0.24059 0.51933 0.0
C1136 C 0.72228 0.23608 0.54604 0.0
C1137 C 0.72209 0.22574 0.57557 0.0
C1138 C 0.73546 0.21994 0.57885 0.0
C1139 C 0.74909 0.22453 0.55264 0.0
C1140 C 0.74933 0.23485 0.52301 0.0
C1141 C 0.78944 0.33122 0.43755 0.0
C1142 C 0.80585 0.33039 0.42987 0.0
C1143 C 0.77233 0.31466 0.44417 0.0
C1144 C 0.77133 0.29701 0.44333 0.0
C1145 C 0.78769 0.29616 0.4358 0.0
C1146 C 0.80476 0.31266 0.42892 0.0
C1147 C 0.75331 0.27937 0.45063 0.0
C1148 C 0.7526 0.26807 0.47911 0.0
C1149 C 0.73688 0.27382 0.43013 0.0
C1150 C 0.7369 0.28493 0.39918 0.0
C1151 C 0.74974 0.28897 0.37134 0.0
C1152 C 0.7498 0.29965 0.34245 0.0
C1153 C 0.737 0.30623 0.34096 0.0
C1154 C 0.72405 0.30211 0.36832 0.0
C1155 C 0.72395 0.29146 0.3973 0.0
H1156 H 0.73707 0.3145 0.31858 0.0
H1157 H 0.73528 0.21193 0.60173 0.0
H1158 H 0.44337 0.78329 0.60016 0.0
H1159 H 0.44306 0.75366 0.61149 0.0
H1160 H 0.50379 0.78271 0.60245 0.0
H1161 H 0.50419 0.81224 0.5903 0.0
H1162 H 0.48912 0.74995 0.56999 0.0
H1163 H 0.48111 0.77104 0.6835 0.0
H1164 H 0.46617 0.78172 0.72734 0.0
H1165 H 0.41398 0.72931 0.71672 0.0
H1166 H 0.42854 0.71842 0.67242 0.0
H1167 H 0.50839 0.68496 0.65894 0.0
H1168 H 0.50605 0.71285 0.64409 0.0
H1169 H 0.44534 0.67857 0.6403 0.0
H1170 H 0.44754 0.65051 0.65496 0.0
H1171 H 0.45846 0.71274 0.67787 0.0
H1172 H 0.46786 0.69142 0.56577 0.0
H1173 H 0.48384 0.68119 0.52339 0.0
H1174 H 0.53478 0.73482 0.53327 0.0
H1175 H 0.51918 0.74526 0.57616 0.0
C1176 C 0.45666 0.78336 0.60049 0.0
C1177 C 0.47381 0.80016 0.59452 0.0
C1178 C 0.45646 0.76642 0.60711 0.0
C1179 C 0.47343 0.76598 0.60835 0.0
C1180 C 0.49052 0.78267 0.60167 0.0
C1181 C 0.49072 0.79957 0.59481 0.0
C1182 C 0.47348 0.74824 0.61694 0.0
C1183 C 0.48258 0.74194 0.59378 0.0
C1184 C 0.46463 0.73754 0.64763 0.0
C1185 C 0.45586 0.74401 0.67437 0.0
C1186 C 0.46641 0.76185 0.69031 0.0
C1187 C 0.45801 0.76793 0.71528 0.0
C1188 C 0.43912 0.75622 0.72473 0.0
C1189 C 0.4286 0.73838 0.70932 0.0
C1190 C 0.43692 0.73224 0.6843 0.0
C1191 C 0.49453 0.68334 0.65502 0.0
C1192 C 0.47815 0.66551 0.65798 0.0
C1193 C 0.49322 0.69928 0.64642 0.0
C1194 C 0.47553 0.69773 0.64083 0.0
C1195 C 0.45913 0.68004 0.64444 0.0
C1196 C 0.46042 0.66403 0.65267 0.0
C1197 C 0.47422 0.71462 0.63108 0.0
C1198 C 0.4649 0.72074 0.65402 0.0
C1199 C 0.48301 0.72525 0.60038 0.0
C1200 C 0.4924 0.71905 0.57444 0.0
C1201 C 0.48252 0.70097 0.55914 0.0
C1202 C 0.4915 0.69515 0.53498 0.0
C1203 C 0.51033 0.70733 0.52571 0.0
C1204 C 0.5202 0.72539 0.54051 0.0
C1205 C 0.51129 0.73127 0.56472 0.0
H1206 H 0.51725 0.70279 0.507 0.0
H1207 H 0.43265 0.76095 0.74407 0.0
H1208 H 0.65729 0.44151 0.76985 0.0
H1209 H 0.68626 0.44122 0.78498 0.0
H1210 H 0.71948 0.4953 0.73433 0.0
H1211 H 0.69062 0.49584 0.7194 0.0
H1212 H 0.73167 0.46899 0.71921 0.0
H1213 H 0.71598 0.49552 0.81829 0.0
H1214 H 0.69498 0.49579 0.86466 0.0
H1215 H 0.68986 0.44513 0.90931 0.0
H1216 H 0.71062 0.44441 0.86282 0.0
H1217 H 0.81445 0.49878 0.84893 0.0
H1218 H 0.78461 0.49684 0.83237 0.0
H1219 H 0.76715 0.44388 0.77959 0.0
H1220 H 0.79694 0.44564 0.79607 0.0
H1221 H 0.74723 0.47 0.84613 0.0
H1222 H 0.74416 0.44459 0.70317 0.0
H1223 H 0.7659 0.4459 0.65665 0.0
H1224 H 0.81029 0.49778 0.69985 0.0
H1225 H 0.78875 0.49692 0.74627 0.0
C1226 C 0.67074 0.45326 0.7616 0.0
C1227 C 0.67168 0.46876 0.74361 0.0
C1228 C 0.68727 0.45307 0.77034 0.0
C1229 C 0.70497 0.46829 0.76094 0.0
C1230 C 0.70593 0.48343 0.74178 0.0
C1231 C 0.68944 0.48374 0.73341 0.0
C1232 C 0.72255 0.46888 0.77254 0.0
C1233 C 0.73504 0.46911 0.74693 0.0
C1234 C 0.72703 0.4693 0.80872 0.0
C1235 C 0.71469 0.4698 0.83687 0.0
C1236 C 0.71025 0.48435 0.83782 0.0
C1237 C 0.69841 0.4846 0.86415 0.0
C1238 C 0.69104 0.47046 0.88986 0.0
C1239 C 0.69555 0.45606 0.88935 0.0
C1240 C 0.70736 0.45573 0.86303 0.0
C1241 C 0.80423 0.48665 0.83397 0.0
C1242 C 0.80811 0.47241 0.82363 0.0
C1243 C 0.78716 0.48554 0.82466 0.0
C1244 C 0.77377 0.47031 0.80454 0.0
C1245 C 0.7774 0.45584 0.79486 0.0
C1246 C 0.7944 0.45686 0.80438 0.0
C1247 C 0.75626 0.46987 0.7928 0.0
C1248 C 0.74379 0.46969 0.8184 0.0
C1249 C 0.7519 0.46969 0.7566 0.0
C1250 C 0.76489 0.47056 0.7284 0.0
C1251 C 0.75854 0.45631 0.70264 0.0
C1252 C 0.77083 0.45697 0.6763 0.0
C1253 C 0.78948 0.47188 0.67537 0.0
C1254 C 0.79586 0.48621 0.70068 0.0
C1255 C 0.78362 0.48563 0.72703 0.0
H1256 H 0.79898 0.47235 0.65499 0.0
H1257 H 0.68188 0.47067 0.91023 0.0
H1258 H 0.18355 0.68732 0.94165 0.0
H1259 H 0.21319 0.7157 0.95644 0.0
H1260 H 0.24251 0.68418 0.94966 0.0
H1261 H 0.21266 0.65547 0.93593 0.0
H1262 H 0.25526 0.70719 0.00407 0.0
H1263 H 0.24468 0.71422 0.88252 0.0
H1264 H 0.22664 0.71474 0.83079 0.0
H1265 H 0.22238 0.76057 0.87632 0.0
H1266 H 0.24016 0.76014 0.9286 0.0
H1267 H 0.3469 0.79068 0.992 0.0
H1268 H 0.31815 0.76056 0.98007 0.0
H1269 H 0.28444 0.78689 -0.00234 0.0
H1270 H 0.31301 0.81698 0.00963 0.0
H1271 H 0.27502 0.76606 0.93607 0.0
H1272 H 0.28551 0.75804 0.05853 0.0
H1273 H 0.30408 0.75725 0.10911 0.0
H1274 H 0.30961 0.71307 0.05933 0.0
H1275 H 0.29128 0.71378 0.00818 0.0
C1276 C 0.19629 0.6864 0.94329 0.0
C1277 C 0.19577 0.66916 0.93739 0.0
C1278 C 0.21327 0.70268 0.95163 0.0
C1279 C 0.23019 0.70221 0.9535 0.0
C1280 C 0.22966 0.68493 0.94825 0.0
C1281 C 0.2126 0.66854 0.94033 0.0
C1282 C 0.24838 0.71979 0.96077 0.0
C1283 C 0.25971 0.71997 0.98883 0.0
C1284 C 0.25414 0.73659 0.94122 0.0
C1285 C 0.24362 0.73704 0.90962 0.0
C1286 C 0.2398 0.72433 0.88161 0.0
C1287 C 0.22963 0.72461 0.85217 0.0
C1288 C 0.22334 0.73765 0.8503 0.0
C1289 C 0.22725 0.75047 0.87782 0.0
C1290 C 0.23739 0.75022 0.90735 0.0
C1291 C 0.33336 0.79003 0.99357 0.0
C1292 C 0.33227 0.80625 0.00174 0.0
C1293 C 0.31694 0.7728 0.98683 0.0
C1294 C 0.29915 0.77148 0.98807 0.0
C1295 C 0.29802 0.7876 0.99652 0.0
C1296 C 0.31439 0.80478 0.0035 0.0
C1297 C 0.28171 0.75348 0.97956 0.0
C1298 C 0.27057 0.75323 0.95118 0.0
C1299 C 0.27627 0.73661 -0.00145 0.0
C1300 C 0.2872 0.73611 0.02936 0.0
C1301 C 0.29082 0.74827 0.05823 0.0
C1302 C 0.30128 0.74781 0.08703 0.0
C1303 C 0.30807 0.73515 0.08739 0.0
C1304 C 0.30437 0.72288 0.05899 0.0
C1305 C 0.29393 0.7233 0.0301 0.0
H1306 H 0.31616 0.73482 0.10972 0.0
H1307 H 0.21546 0.73784 0.8275 0.0
H1308 H 0.61641 0.12987 0.67412 0.0
H1309 H 0.60601 0.13115 0.73426 0.0
H1310 H 0.56053 0.13769 0.69209 0.0
H1311 H 0.57119 0.1372 0.63266 0.0
H1312 H 0.57456 0.15974 0.74509 0.0
H1313 H 0.5541 0.09439 0.72343 0.0
H1314 H 0.55789 0.06723 0.70734 0.0
H1315 H 0.59572 0.07916 0.79464 0.0
H1316 H 0.59235 0.10656 0.81097 0.0
H1317 H 0.51745 0.13203 0.90297 0.0
H1318 H 0.52767 0.13133 0.84215 0.0
H1319 H 0.57997 0.13753 0.88163 0.0
H1320 H 0.57012 0.13845 0.94172 0.0
H1321 H 0.56163 0.10858 0.83033 0.0
H1322 H 0.58135 0.1745 0.85053 0.0
H1323 H 0.57596 0.20073 0.86607 0.0
H1324 H 0.53687 0.18595 0.78001 0.0
H1325 H 0.54183 0.15944 0.76429 0.0
C1326 C 0.60429 0.13171 0.6778 0.0
C1327 C 0.59462 0.13338 0.64866 0.0
C1328 C 0.59829 0.13234 0.7121 0.0
C1329 C 0.58229 0.13423 0.71765 0.0
C1330 C 0.57291 0.13626 0.68853 0.0
C1331 C 0.57904 0.13593 0.65446 0.0
C1332 C 0.575 0.13385 0.75361 0.0
C1333 C 0.57153 0.14841 0.76352 0.0
C1334 C 0.57116 0.11916 0.77783 0.0
C1335 C 0.57312 0.10264 0.7682 0.0
C1336 C 0.56333 0.0913 0.73904 0.0
C1337 C 0.56538 0.07585 0.7299 0.0
C1338 C 0.57707 0.0715 0.7499 0.0
C1339 C 0.58669 0.08256 0.77915 0.0
C1340 C 0.58471 0.09805 0.78837 0.0
C1341 C 0.53109 0.13323 0.89854 0.0
C1342 C 0.54303 0.13544 0.92702 0.0
C1343 C 0.5369 0.13285 0.86394 0.0
C1344 C 0.55457 0.1344 0.85763 0.0
C1345 C 0.56629 0.13628 0.88606 0.0
C1346 C 0.56066 0.13694 0.92036 0.0
C1347 C 0.56121 0.13439 0.82147 0.0
C1348 C 0.56458 0.1198 0.81166 0.0
C1349 C 0.56469 0.14887 0.79717 0.0
C1350 C 0.56179 0.16486 0.8065 0.0
C1351 C 0.57148 0.17674 0.83512 0.0
C1352 C 0.56853 0.19168 0.84392 0.0
C1353 C 0.55604 0.19497 0.82411 0.0
C1354 C 0.54651 0.18336 0.79538 0.0
C1355 C 0.5494 0.16838 0.7865 0.0
H1356 H 0.55378 0.20655 0.83095 0.0
H1357 H 0.57865 0.05954 0.74278 0.0
H1358 H 0.43073 0.56811 0.80824 0.0
H1359 H 0.42 0.55748 0.86798 0.0
H1360 H 0.47489 0.59829 0.90834 0.0
H1361 H 0.48604 0.60873 0.84798 0.0
H1362 H 0.46257 0.56498 0.939 0.0
H1363 H 0.43648 0.60487 0.91585 0.0
H1364 H 0.4187 0.61682 0.88251 0.0
H1365 H 0.36816 0.56283 0.89192 0.0
H1366 H 0.38571 0.55046 0.9249 0.0
H1367 H 0.43641 0.56774 0.11565 0.0
H1368 H 0.44586 0.57503 0.05411 0.0
H1369 H 0.39499 0.52479 0.02152 0.0
H1370 H 0.38544 0.51712 0.08367 0.0
H1371 H 0.40413 0.56098 0.98662 0.0
H1372 H 0.43108 0.52201 0.01293 0.0
H1373 H 0.44951 0.51153 0.0482 0.0
H1374 H 0.49925 0.56583 0.03505 0.0
H1375 H 0.48106 0.57674 6e-05 0.0
C1376 C 0.44055 0.57499 0.82975 0.0
C1377 C 0.45925 0.58934 0.82339 0.0
C1378 C 0.43434 0.5689 0.86395 0.0
C1379 C 0.44656 0.57726 0.89262 0.0
C1380 C 0.46523 0.59168 0.8865 0.0
C1381 C 0.47156 0.59767 0.85209 0.0
C1382 C 0.43986 0.57055 0.92886 0.0
C1383 C 0.44993 0.56433 0.94956 0.0
C1384 C 0.42307 0.56926 0.94225 0.0
C1385 C 0.41246 0.57669 0.92256 0.0
C1386 C 0.42161 0.5955 0.91058 0.0
C1387 C 0.41156 0.60235 0.89178 0.0
C1388 C 0.39232 0.59058 0.88502 0.0
C1389 C 0.38307 0.57193 0.89713 0.0
C1390 C 0.39305 0.56499 0.91591 0.0
C1391 C 0.42721 0.55818 0.09545 0.0
C1392 C 0.41015 0.54189 0.10433 0.0
C1393 C 0.43269 0.56234 0.06037 0.0
C1394 C 0.42114 0.55039 0.03354 0.0
C1395 C 0.40406 0.5341 0.04211 0.0
C1396 C 0.39868 0.52973 0.07744 0.0
C1397 C 0.42688 0.55553 0.99654 0.0
C1398 C 0.41667 0.56151 0.97581 0.0
C1399 C 0.44363 0.5568 0.98329 0.0
C1400 C 0.45466 0.55025 0.00411 0.0
C1401 C 0.44591 0.53178 0.0178 0.0
C1402 C 0.45632 0.52575 0.0377 0.0
C1403 C 0.47552 0.53802 0.04396 0.0
C1404 C 0.48437 0.55634 0.03021 0.0
C1405 C 0.47402 0.56245 0.0103 0.0
H1406 H 0.48356 0.53333 0.05938 0.0
H1407 H 0.38457 0.59591 0.87046 0.0
H1408 H 0.86765 0.48027 0.00807 0.0
H1409 H 0.86529 0.47021 0.06957 0.0
H1410 H 0.86329 0.41882 0.03562 0.0
H1411 H 0.86488 0.42843 0.97421 0.0
H1412 H 0.83943 0.41083 0.08626 0.0
H1413 H 0.90445 0.45793 0.06918 0.0
H1414 H 0.93102 0.48913 0.05249 0.0
H1415 H 0.91427 0.51565 0.13116 0.0
H1416 H 0.88743 0.48462 0.14801 0.0
H1417 H 0.86844 0.38814 0.24879 0.0
H1418 H 0.86722 0.39733 0.1877 0.0
H1419 H 0.85781 0.44184 0.22476 0.0
H1420 H 0.85883 0.4327 0.28575 0.0
H1421 H 0.88681 0.45345 0.17369 0.0
H1422 H 0.82217 0.40479 0.19164 0.0
H1423 H 0.7968 0.37293 0.20829 0.0
H1424 H 0.81469 0.34855 0.12737 0.0
H1425 H 0.84036 0.38027 0.11058 0.0
C1426 C 0.86666 0.46681 0.01377 0.0
C1427 C 0.86656 0.45519 0.98637 0.0
C1428 C 0.86539 0.46111 0.04891 0.0
C1429 C 0.86445 0.44389 0.05729 0.0
C1430 C 0.86401 0.43215 0.02986 0.0
C1431 C 0.86497 0.43769 0.99475 0.0
C1432 C 0.86413 0.43815 0.09457 0.0
C1433 C 0.84994 0.42009 0.10522 0.0
C1434 C 0.87765 0.45031 0.11957 0.0
C1435 C 0.89382 0.46898 0.1096 0.0
C1436 C 0.90635 0.47043 0.08275 0.0
C1437 C 0.92147 0.48808 0.07329 0.0
C1438 C 0.9243 0.50437 0.09069 0.0
C1439 C 0.91205 0.50303 0.11767 0.0
C1440 C 0.89689 0.48541 0.1272 0.0
C1441 C 0.86602 0.39982 0.24391 0.0
C1442 C 0.86373 0.40969 0.27205 0.0
C1443 C 0.86528 0.40501 0.20905 0.0
C1444 C 0.86238 0.42022 0.20185 0.0
C1445 C 0.86006 0.43007 0.22986 0.0
C1446 C 0.86057 0.42476 0.26466 0.0
C1447 C 0.86221 0.42619 0.16509 0.0
C1448 C 0.87631 0.44426 0.15462 0.0
C1449 C 0.8488 0.41396 0.14017 0.0
C1450 C 0.8333 0.39489 0.15009 0.0
C1451 C 0.8208 0.39262 0.1776 0.0
C1452 C 0.80634 0.37459 0.18702 0.0
C1453 C 0.80417 0.35872 0.16896 0.0
C1454 C 0.81641 0.36085 0.14137 0.0
C1455 C 0.8309 0.37886 0.13186 0.0
H1456 H 0.79297 0.34477 0.1763 0.0
H1457 H 0.93602 0.51802 0.08332 0.0
H1458 H 0.48475 0.86676 0.41253 0.0
H1459 H 0.47576 0.86677 0.35086 0.0
H1460 H 0.42059 0.85543 0.38432 0.0
H1461 H 0.42919 0.85471 0.44552 0.0
H1462 H 0.41668 0.83564 0.32889 0.0
H1463 H 0.45692 0.90068 0.36049 0.0
H1464 H 0.4859 0.92838 0.3827 0.0
H1465 H 0.51808 0.92208 0.29973 0.0
H1466 H 0.48932 0.89417 0.27731 0.0
H1467 H 0.39067 0.8693 0.17641 0.0
H1468 H 0.40025 0.86648 0.23643 0.0
H1469 H 0.44871 0.86526 0.19481 0.0
H1470 H 0.43918 0.86782 0.13487 0.0
H1471 H 0.45659 0.89082 0.25269 0.0
H1472 H 0.41428 0.82591 0.22031 0.0
H1473 H 0.38423 0.7994 0.19866 0.0
H1474 H 0.35461 0.80724 0.28458 0.0
H1475 H 0.38447 0.834 0.30645 0.0
C1476 C 0.47068 0.86415 0.40666 0.0
C1477 C 0.45773 0.86082 0.43391 0.0
C1478 C 0.46558 0.86426 0.37143 0.0
C1479 C 0.44759 0.86141 0.36294 0.0
C1480 C 0.43454 0.85766 0.39014 0.0
C1481 C 0.43952 0.85729 0.42519 0.0
C1482 C 0.44232 0.86265 0.32592 0.0
C1483 C 0.42535 0.84781 0.31241 0.0
C1484 C 0.4537 0.8784 0.30412 0.0
C1485 C 0.47101 0.89521 0.31746 0.0
C1486 C 0.4702 0.90512 0.34714 0.0
C1487 C 0.48658 0.92087 0.35975 0.0
C1488 C 0.50383 0.92695 0.3427 0.0
C1489 C 0.50472 0.91733 0.31295 0.0
C1490 C 0.48838 0.90155 0.30027 0.0
C1491 C 0.40335 0.86841 0.18007 0.0
C1492 C 0.41415 0.86873 0.15096 0.0
C1493 C 0.40877 0.86676 0.2143 0.0
C1494 C 0.42515 0.86561 0.21991 0.0
C1495 C 0.43604 0.86614 0.19095 0.0
C1496 C 0.4305 0.86751 0.15675 0.0
C1497 C 0.43098 0.86392 0.25604 0.0
C1498 C 0.44803 0.87866 0.26927 0.0
C1499 C 0.41953 0.84825 0.27778 0.0
C1500 C 0.40159 0.83207 0.26481 0.0
C1501 C 0.40134 0.82208 0.23442 0.0
C1502 C 0.38434 0.80699 0.22214 0.0
C1503 C 0.36751 0.80167 0.24018 0.0
C1504 C 0.36765 0.81139 0.2706 0.0
C1505 C 0.38461 0.82651 0.28297 0.0
H1506 H 0.35437 0.78998 0.23063 0.0
H1507 H 0.5165 0.93915 0.35249 0.0
H1508 H 0.61344 0.48074 0.57128 0.0
H1509 H 0.60268 0.47189 0.51028 0.0
H1510 H 0.54965 0.42597 0.54804 0.0
H1511 H 0.56071 0.43419 0.60865 0.0
H1512 H 0.56132 0.41348 0.49876 0.0
H1513 H 0.55482 0.46829 0.51074 0.0
H1514 H 0.56497 0.50154 0.52432 0.0
H1515 H 0.60753 0.51996 0.44388 0.0
H1516 H 0.59779 0.48681 0.43012 0.0
H1517 H 0.51418 0.39391 0.33131 0.0
H1518 H 0.52304 0.40354 0.39287 0.0
H1519 H 0.58018 0.44248 0.36038 0.0
H1520 H 0.57157 0.433 0.29916 0.0
H1521 H 0.56523 0.45839 0.40658 0.0
H1522 H 0.57111 0.40247 0.39669 0.0
H1523 H 0.55951 0.36891 0.38323 0.0
H1524 H 0.51573 0.35236 0.46075 0.0
H1525 H 0.52692 0.38586 0.47432 0.0
C1526 C 0.59944 0.46888 0.56642 0.0
C1527 C 0.58793 0.4581 0.59453 0.0
C1528 C 0.59325 0.46387 0.53162 0.0
C1529 C 0.57525 0.44835 0.52452 0.0
C1530 C 0.56361 0.43792 0.55278 0.0
C1531 C 0.56994 0.44266 0.5874 0.0
C1532 C 0.56879 0.44232 0.48778 0.0
C1533 C 0.5619 0.42328 0.47882 0.0
C1534 C 0.56983 0.45512 0.46149 0.0
C1535 C 0.57568 0.47507 0.46963 0.0
C1536 C 0.56643 0.47943 0.49612 0.0
C1537 C 0.5721 0.49826 0.50382 0.0
C1538 C 0.58691 0.51285 0.48503 0.0
C1539 C 0.59606 0.50864 0.45844 0.0
C1540 C 0.59046 0.48984 0.45065 0.0
C1541 C 0.52864 0.40446 0.33734 0.0
C1542 C 0.54217 0.41266 0.3104 0.0
C1543 C 0.53366 0.40993 0.37244 0.0
C1544 C 0.55225 0.42371 0.38101 0.0
C1545 C 0.56575 0.43188 0.3542 0.0
C1546 C 0.56081 0.42634 0.31926 0.0
C1547 C 0.55779 0.42967 0.41794 0.0
C1548 C 0.56454 0.44865 0.42678 0.0
C1549 C 0.55638 0.4168 0.44425 0.0
C1550 C 0.54973 0.39667 0.43625 0.0
C1551 C 0.55892 0.39168 0.41066 0.0
C1552 C 0.55243 0.37267 0.40305 0.0
C1553 C 0.53686 0.35851 0.42105 0.0
C1554 C 0.52777 0.36334 0.44679 0.0
C1555 C 0.53419 0.38233 0.45446 0.0
H1556 H 0.53186 0.3438 0.41513 0.0
H1557 H 0.59128 0.52742 0.49104 0.0
H1558 H 0.13247 0.52037 0.50844 0.0
H1559 H 0.1328 0.53129 0.56886 0.0
H1560 H 0.11829 0.57201 0.52939 0.0
H1561 H 0.11886 0.56179 0.46925 0.0
H1562 H 0.14566 0.58873 0.57227 0.0
H1563 H 0.08653 0.53104 0.57655 0.0
H1564 H 0.06474 0.49681 0.56987 0.0
H1565 H 0.09641 0.48537 0.64658 0.0
H1566 H 0.11857 0.51953 0.65334 0.0
H1567 H 0.12549 0.61281 0.74345 0.0
H1568 H 0.12263 0.60145 0.68261 0.0
H1569 H 0.14752 0.56786 0.71325 0.0
H1570 H 0.15056 0.57911 0.77365 0.0
H1571 H 0.11365 0.54763 0.67531 0.0
H1572 H 0.17316 0.60652 0.66833 0.0
H1573 H 0.1937 0.641 0.67459 0.0
H1574 H 0.15865 0.65015 0.60214 0.0
H1575 H 0.13776 0.61571 0.59582 0.0
C1576 C 0.12911 0.53146 0.51289 0.0
C1577 C 0.12576 0.54034 0.4844 0.0
C1578 C 0.12924 0.53766 0.54734 0.0
C1579 C 0.12549 0.55244 0.55369 0.0
C1580 C 0.12138 0.56072 0.52516 0.0
C1581 C 0.12165 0.55483 0.49085 0.0
C1582 C 0.12692 0.56014 0.58969 0.0
C1583 C 0.13837 0.57973 0.59465 0.0
C1584 C 0.11769 0.54842 0.61904 0.0
C1585 C 0.10431 0.52785 0.61522 0.0
C1586 C 0.08893 0.52122 0.59182 0.0
C1587 C 0.0765 0.50183 0.58804 0.0
C1588 C 0.07921 0.48892 0.60773 0.0
C1589 C 0.09433 0.49538 0.63132 0.0
C1590 C 0.10683 0.51476 0.63516 0.0
C1591 C 0.13056 0.60318 0.73711 0.0
C1592 C 0.13818 0.59681 0.76341 0.0
C1593 C 0.12888 0.5967 0.70243 0.0
C1594 C 0.13478 0.58375 0.69367 0.0
C1595 C 0.14277 0.57774 0.71964 0.0
C1596 C 0.14458 0.58429 0.75412 0.0
C1597 C 0.13233 0.57608 0.65759 0.0
C1598 C 0.12075 0.55654 0.65272 0.0
C1599 C 0.14117 0.58785 0.62822 0.0
C1600 C 0.15379 0.60855 0.6319 0.0
C1601 C 0.16975 0.61589 0.65397 0.0
C1602 C 0.18147 0.63542 0.65748 0.0
C1603 C 0.17745 0.64776 0.63886 0.0
C1604 C 0.16173 0.64058 0.6166 0.0
C1605 C 0.14996 0.62106 0.61302 0.0
H1606 H 0.18654 0.66288 0.64161 0.0
H1607 H 0.06957 0.47391 0.60477 0.0
H1608 H 0.51689 0.08348 0.00169 0.0
H1609 H 0.49844 0.04904 0.99597 0.0
H1610 H 0.46403 0.04646 0.08451 0.0
H1611 H 0.48175 0.08079 0.08914 0.0
H1612 H 0.49262 0.02092 0.0333 0.0
H1613 H 0.41983 0.01093 0.07832 0.0
H1614 H 0.40259 0.0285 0.07555 0.0
H1615 H 0.43494 0.05896 0.98482 0.0
H1616 H 0.45213 0.04133 0.98663 0.0
H1617 H 0.4348 0.92631 0.0796 0.0
H1618 H 0.45161 0.96078 0.07956 0.0
H1619 H 0.41661 0.96031 0.99381 0.0
H1620 H 0.39913 0.92575 0.99487 0.0
H1621 H 0.42255 0.98742 0.03512 0.0
H1622 H 0.46248 0.96858 0.98032 0.0
H1623 H 0.47932 0.95077 0.97401 0.0
H1624 H 0.51245 0.97821 0.066 0.0
H1625 H 0.4956 0.99601 0.07316 0.0
C1626 C 0.50537 0.07553 0.01988 0.0
C1627 C 0.50066 0.08486 0.04565 0.0
C1628 C 0.49484 0.05585 0.01664 0.0
C1629 C 0.47957 0.0451 0.03936 0.0
C1630 C 0.47534 0.0544 0.06594 0.0
C1631 C 0.48558 0.07406 0.06871 0.0
C1632 C 0.46805 0.02418 0.0355 0.0
C1633 C 0.47731 0.01364 0.03361 0.0
C1634 C 0.44803 0.01458 0.03469 0.0
C1635 C 0.43739 0.02491 0.03283 0.0
C1636 C 0.42318 0.02128 0.05763 0.0
C1637 C 0.41343 0.03127 0.05625 0.0
C1638 C 0.4177 0.04487 0.03009 0.0
C1639 C 0.43167 0.04845 0.00512 0.0
C1640 C 0.44142 0.03846 0.00632 0.0
C1641 C 0.43059 0.93355 0.06089 0.0
C1642 C 0.41574 0.92331 0.03703 0.0
C1643 C 0.44029 0.95327 0.06074 0.0
C1644 C 0.43572 0.96321 0.03608 0.0
C1645 C 0.42048 0.95301 0.01299 0.0
C1646 C 0.4105 0.93324 0.01359 0.0
C1647 C 0.44713 0.98419 0.03402 0.0
C1648 C 0.43786 0.99474 0.03467 0.0
C1649 C 0.46712 0.99381 0.03208 0.0
C1650 C 0.47767 0.98353 0.02742 0.0
C1651 C 0.47331 0.97077 -0.00071 0.0
C1652 C 0.48284 0.96066 0.99558 0.0
C1653 C 0.49691 0.96331 0.01965 0.0
C1654 C 0.50153 0.97616 0.04739 0.0
C1655 C 0.49201 0.98628 0.05127 0.0
H1656 H 0.50424 0.95544 0.01678 0.0
H1657 H 0.41017 0.05262 0.02912 0.0
H1658 H 0.52356 0.449 0.20678 0.0
H1659 H 0.50674 0.4665 0.2116 0.0
H1660 H 0.45375 0.415 0.1955 0.0
H1661 H 0.47054 0.39745 0.18933 0.0
H1662 H 0.45409 0.44208 0.15856 0.0
H1663 H 0.46873 0.43602 0.27857 0.0
H1664 H 0.4893 0.43854 0.32837 0.0
H1665 H 0.52144 0.49873 0.31478 0.0
H1666 H 0.50122 0.49653 0.26453 0.0
H1667 H 0.39388 0.47496 0.22211 0.0
H1668 H 0.41158 0.45828 0.21718 0.0
H1669 H 0.46381 0.51148 0.21378 0.0
H1670 H 0.44624 0.5284 0.21839 0.0
H1671 H 0.46406 0.48414 0.26056 0.0
H1672 H 0.44825 0.48945 0.14045 0.0
H1673 H 0.42654 0.48617 0.09226 0.0
H1674 H 0.39528 0.42612 0.10816 0.0
H1675 H 0.41659 0.42908 0.15696 0.0
C1676 C 0.50832 0.44134 0.20439 0.0
C1677 C 0.49841 0.42176 0.19791 0.0
C1678 C 0.4987 0.45138 0.20729 0.0
C1679 C 0.47893 0.44204 0.2045 0.0
C1680 C 0.469 0.42252 0.19783 0.0
C1681 C 0.47863 0.41249 0.19447 0.0
C1682 C 0.46863 0.45265 0.20805 0.0
C1683 C 0.45611 0.45106 0.18112 0.0
C1684 C 0.4715 0.4647 0.23714 0.0
C1685 C 0.48357 0.46609 0.26757 0.0
C1686 C 0.48026 0.44978 0.28605 0.0
C1687 C 0.49185 0.45115 0.31437 0.0
C1688 C 0.50669 0.46878 0.32468 0.0
C1689 C 0.50995 0.48508 0.30674 0.0
C1690 C 0.49842 0.48378 0.27835 0.0
C1691 C 0.40913 0.48317 0.22028 0.0
C1692 C 0.41862 0.50305 0.22043 0.0
C1693 C 0.41921 0.47359 0.21743 0.0
C1694 C 0.43897 0.48367 0.21491 0.0
C1695 C 0.44855 0.50348 0.21566 0.0
C1696 C 0.43846 0.5131 0.21813 0.0
C1697 C 0.44957 0.47345 0.2112 0.0
C1698 C 0.46212 0.47514 0.23806 0.0
C1699 C 0.44659 0.46136 0.18226 0.0
C1700 C 0.43392 0.45951 0.15259 0.0
C1701 C 0.43666 0.47556 0.13387 0.0
C1702 C 0.42444 0.47376 0.1064 0.0
C1703 C 0.40953 0.45595 0.09718 0.0
C1704 C 0.40683 0.4399 0.11536 0.0
C1705 C 0.41898 0.44164 0.14291 0.0
H1706 H 0.40008 0.45458 0.07591 0.0
H1707 H 0.51565 0.46981 0.3466 0.0
H1708 H 0.07784 0.52386 0.36402 0.0
H1709 H 0.0434 0.50637 0.3661 0.0
H1710 H 0.04381 0.45379 0.36869 0.0
H1711 H 0.07823 0.47113 0.36539 0.0
H1712 H 0.01706 0.4503 0.3266 0.0
H1713 H 0.03604 0.47338 0.44403 0.0
H1714 H 0.05318 0.49733 0.48997 0.0
H1715 H 0.02427 0.5269 0.45977 0.0
H1716 H 0.00714 0.50325 0.41331 0.0
H1717 H 0.92296 0.39297 0.39002 0.0
H1718 H 0.95736 0.41052 0.38518 0.0
H1719 H 0.95613 0.46195 0.36667 0.0
H1720 H 0.9217 0.44457 0.37132 0.0
H1721 H 0.98302 0.46585 0.4169 0.0
H1722 H 0.96351 0.44093 0.29937 0.0
H1723 H 0.9462 0.41559 0.25586 0.0
H1724 H 0.9761 0.38764 0.29003 0.0
H1725 H 0.99339 0.41269 0.33413 0.0
C1726 C 0.07063 0.50857 0.36506 0.0
C1727 C 0.08085 0.49892 0.36484 0.0
C1728 C 0.05091 0.49859 0.36638 0.0
C1729 C 0.04099 0.47876 0.36819 0.0
C1730 C 0.05114 0.46908 0.3674 0.0
C1731 C 0.07085 0.47904 0.36564 0.0
C1732 C 0.02005 0.46811 0.37095 0.0
C1733 C 0.00966 0.45356 0.34665 0.0
C1734 C 0.01032 0.47249 0.3968 0.0
C1735 C 0.02044 0.48664 0.42497 0.0
C1736 C 0.03343 0.48506 0.44703 0.0
C1737 C 0.04313 0.49857 0.47319 0.0
C1738 C 0.03985 0.51365 0.47772 0.0
C1739 C 0.02681 0.51522 0.4562 0.0
C1740 C 0.01709 0.50175 0.42997 0.0
C1741 C 0.92995 0.40799 0.38471 0.0
C1742 C 0.9195 0.41732 0.38085 0.0
C1743 C 0.94962 0.41799 0.38193 0.0
C1744 C 0.95926 0.4375 0.37536 0.0
C1745 C 0.94894 0.44689 0.37172 0.0
C1746 C 0.92924 0.43689 0.37422 0.0
C1747 C 0.98014 0.44815 0.37255 0.0
C1748 C 0.99049 0.46266 0.39688 0.0
C1749 C 0.98983 0.44354 0.3471 0.0
C1750 C 0.97962 0.4286 0.32027 0.0
C1751 C 0.9663 0.42931 0.29778 0.0
C1752 C 0.9565 0.41501 0.27299 0.0
C1753 C 0.96002 0.39999 0.27024 0.0
C1754 C 0.97338 0.39928 0.29221 0.0
C1755 C 0.98319 0.41353 0.31708 0.0
H1756 H 0.95241 0.38892 0.25104 0.0
H1757 H 0.04738 0.52411 0.49797 0.0
H1758 H 0.48629 0.91686 0.50756 0.0
H1759 H 0.50491 0.95128 0.50262 0.0
H1760 H 0.53925 0.95308 0.59073 0.0
H1761 H 0.52127 0.91872 0.59478 0.0
H1762 H 0.51062 0.97901 0.5422 0.0
H1763 H 0.58362 0.98886 0.5838 0.0
H1764 H 0.6008 0.97124 0.58029 0.0
H1765 H 0.5679 0.94089 0.48994 0.0
H1766 H 0.55076 0.95855 0.49251 0.0
H1767 H 0.57019 0.07495 0.58118 0.0
H1768 H 0.55331 0.0405 0.58484 0.0
H1769 H 0.58513 0.03813 0.49609 0.0
H1770 H 0.60265 0.07258 0.49334 0.0
H1771 H 0.58068 0.01239 0.53987 0.0
H1772 H 0.53918 0.03057 0.4876 0.0
H1773 H 0.52225 0.04839 0.48326 0.0
H1774 H 0.49203 0.02234 0.5786 0.0
H1775 H 0.50901 0.00457 0.58381 0.0
C1776 C 0.49785 0.9246 0.52581 0.0
C1777 C 0.50241 0.91504 0.55137 0.0
C1778 C 0.50846 0.94429 0.52302 0.0
C1779 C 0.52369 0.95481 0.54595 0.0
C1780 C 0.5279 0.94529 0.57212 0.0
C1781 C 0.51754 0.92562 0.57451 0.0
C1782 C 0.5352 0.97572 0.54257 0.0
C1783 C 0.52594 0.98628 0.54164 0.0
C1784 C 0.55519 0.98527 0.54092 0.0
C1785 C 0.56578 0.97492 0.53859 0.0
C1786 C 0.58013 0.97851 0.56305 0.0
C1787 C 0.58985 0.9685 0.56124 0.0
C1788 C 0.58541 0.95492 0.53497 0.0
C1789 C 0.5713 0.95138 0.51033 0.0
C1790 C 0.56157 0.96139 0.51196 0.0
C1791 C 0.57369 0.06709 0.56261 0.0
C1792 C 0.58765 0.0765 0.53677 0.0
C1793 C 0.56396 0.04738 0.56462 0.0
C1794 C 0.56762 0.03665 0.54023 0.0
C1795 C 0.58199 0.04605 0.51515 0.0
C1796 C 0.59198 0.06578 0.51355 0.0
C1797 C 0.55611 0.01567 0.54017 0.0
C1798 C 0.56537 0.0051 0.5404 0.0
C1799 C 0.5361 0.00608 0.53976 0.0
C1800 C 0.52548 0.01635 0.53625 0.0
C1801 C 0.52898 0.0287 0.50772 0.0
C1802 C 0.51938 0.0388 0.50512 0.0
C1803 C 0.50611 0.03654 0.53069 0.0
C1804 C 0.50234 0.0241 0.55884 0.0
C1805 C 0.51193 0.01399 0.56161 0.0
H1806 H 0.49873 0.04441 0.52867 0.0
H1807 H 0.59291 0.94715 0.53368 0.0
H1808 H 0.61054 0.52607 0.71922 0.0
H1809 H 0.59332 0.54323 0.72141 0.0
H1810 H 0.54047 0.49055 0.71903 0.0
H1811 H 0.5576 0.47319 0.71587 0.0
H1812 H 0.53889 0.5151 0.67615 0.0
H1813 H 0.55768 0.51632 0.79578 0.0
H1814 H 0.57984 0.52164 0.84445 0.0
H1815 H 0.61129 0.58072 0.81916 0.0
H1816 H 0.5895 0.57573 0.76996 0.0
H1817 H 0.48227 0.55433 0.72682 0.0
H1818 H 0.49909 0.53674 0.73089 0.0
H1819 H 0.55193 0.58796 0.71256 0.0
H1820 H 0.53524 0.60576 0.708 0.0
H1821 H 0.55269 0.56366 0.76792 0.0
H1822 H 0.53362 0.56116 0.64639 0.0
H1823 H 0.5104 0.55514 0.5994 0.0
H1824 H 0.47803 0.49704 0.63126 0.0
H1825 H 0.50092 0.5028 0.67885 0.0
C1826 C 0.59525 0.51807 0.71914 0.0
C1827 C 0.58548 0.49821 0.71735 0.0
C1828 C 0.58542 0.52794 0.72061 0.0
C1829 C 0.56559 0.51819 0.72092 0.0
C1830 C 0.55577 0.49838 0.71888 0.0
C1831 C 0.5656 0.48847 0.71711 0.0
C1832 C 0.55516 0.52872 0.72277 0.0
C1833 C 0.54173 0.5255 0.69656 0.0
C1834 C 0.55903 0.54252 0.7491 0.0
C1835 C 0.57204 0.54561 0.77896 0.0
C1836 C 0.56939 0.53043 0.80043 0.0
C1837 C 0.58188 0.53338 0.82813 0.0
C1838 C 0.59698 0.55149 0.83483 0.0
C1839 C 0.59959 0.5667 0.81391 0.0
C1840 C 0.58717 0.56382 0.78613 0.0
C1841 C 0.49749 0.56195 0.72396 0.0
C1842 C 0.50738 0.58149 0.7169 0.0
C1843 C 0.50707 0.55184 0.72627 0.0
C1844 C 0.52671 0.56105 0.72183 0.0
C1845 C 0.53675 0.58063 0.7161 0.0
C1846 C 0.52716 0.59075 0.71338 0.0
C1847 C 0.5366 0.55004 0.72128 0.0
C1848 C 0.54988 0.55319 0.74769 0.0
C1849 C 0.53246 0.53603 0.6954 0.0
C1850 C 0.51888 0.53245 0.66639 0.0
C1851 C 0.52148 0.54713 0.64354 0.0
C1852 C 0.50839 0.54376 0.61678 0.0
C1853 C 0.49272 0.52573 0.61241 0.0
C1854 C 0.49016 0.51101 0.63471 0.0
C1855 C 0.5032 0.51431 0.66156 0.0
H1856 H 0.48259 0.52315 0.59169 0.0
H1857 H 0.60663 0.55375 0.85628 0.0
H1858 H 0.08106 0.61038 0.87294 0.0
H1859 H 0.04668 0.59312 0.8702 0.0
H1860 H 0.04669 0.54032 0.86992 0.0
H1861 H 0.08122 0.55757 0.87093 0.0
H1862 H 0.02002 0.5375 0.82822 0.0
H1863 H 0.03915 0.55963 0.94651 0.0
H1864 H 0.05682 0.58366 0.99202 0.0
H1865 H 0.02807 0.61356 0.96302 0.0
H1866 H 0.01046 0.58987 0.91689 0.0
H1867 H 0.92575 0.47973 0.88645 0.0
H1868 H 0.96022 0.49751 0.88694 0.0
H1869 H 0.95944 0.54919 0.86866 0.0
H1870 H 0.92491 0.53157 0.86796 0.0
H1871 H 0.98615 0.5524 0.92007 0.0
H1872 H 0.96685 0.52918 0.80156 0.0
H1873 H 0.94908 0.50428 0.75753 0.0
H1874 H 0.97805 0.47509 0.78981 0.0
H1875 H 0.99577 0.49967 0.83448 0.0
C1876 C 0.07379 0.59511 0.87189 0.0
C1877 C 0.0839 0.58536 0.87249 0.0
C1878 C 0.05409 0.58524 0.87054 0.0
C1879 C 0.04405 0.5654 0.87081 0.0
C1880 C 0.05412 0.55563 0.86991 0.0
C1881 C 0.07387 0.56552 0.87056 0.0
C1882 C 0.0231 0.55488 0.87333 0.0
C1883 C 0.01266 0.54062 0.84858 0.0
C1884 C 0.01341 0.55908 0.89965 0.0
C1885 C 0.0236 0.57306 0.92804 0.0
C1886 C 0.03665 0.57137 0.94974 0.0
C1887 C 0.04667 0.58494 0.97563 0.0
C1888 C 0.0436 0.60015 0.98036 0.0
C1889 C 0.03045 0.60178 0.9593 0.0
C1890 C 0.02043 0.58828 0.93328 0.0
C1891 C 0.93285 0.4949 0.88288 0.0
C1892 C 0.9225 0.50419 0.877 0.0
C1893 C 0.95257 0.50502 0.88307 0.0
C1894 C 0.96234 0.52461 0.8775 0.0
C1895 C 0.95212 0.53406 0.87296 0.0
C1896 C 0.93238 0.52393 0.87249 0.0
C1897 C 0.98321 0.53512 0.87501 0.0
C1898 C 0.99359 0.54933 0.89977 0.0
C1899 C 0.99284 0.53074 0.849 0.0
C1900 C 0.98252 0.51618 0.82158 0.0
C1901 C 0.96935 0.51739 0.79943 0.0
C1902 C 0.95929 0.50334 0.77434 0.0
C1903 C 0.9624 0.48809 0.77093 0.0
C1904 C 0.97564 0.4869 0.79251 0.0
C1905 C 0.98571 0.5009 0.8177 0.0
H1906 H 0.95458 0.47721 0.75153 0.0
H1907 H 0.05138 0.61065 0.00038 0.0
loop_
_geom_bond_atom_site_label_1
_geom_bond_atom_site_label_2
_geom_bond_distance
_geom_bond_site_symmetry_2
_ccdc_geom_bond_type
Co0 O2 2.143 . S
Co0 O8 2.074 . S
Co0 O11 2.093 . S
Co0 O24 2.097 . S
Co0 N41 2.151 . S
Co0 N49 2.214 . S
Co1 O2 2.160 . S
Co1 O7 2.058 . S
Co1 O17 2.057 1_554 S
Co1 O32 2.037 . S
Co1 N36 2.145 . S
Co1 N57 2.257 . S
O2 Co0 2.143 . S
O2 Co1 2.160 . S
C3 O4 1.278 . S
C3 O11 1.224 . S
O4 C3 1.278 . S
C5 O6 1.245 . S
C5 O17 1.232 . S
O6 C5 1.245 . S
O7 Co1 2.058 . S
O7 C33 1.269 . S
O8 Co0 2.074 . S
O8 C33 1.257 . S
H9 C34 0.930 . S
H10 C40 0.930 . S
O11 Co0 2.093 . S
O11 C3 1.224 . S
H12 C44 0.929 . S
H13 C46 0.930 . S
H14 C47 0.930 . S
H15 C45 0.929 . S
H16 C48 0.928 . S
O17 Co1 2.057 1_556 S
O17 C5 1.232 . S
H18 C37 0.929 . S
H19 C38 0.929 1_556 S
H20 C50 0.931 . S
H21 C42 0.929 1_556 S
H22 C51 0.930 . S
H23 C43 0.931 1_556 S
O24 Co0 2.097 . S
O24 C52 1.214 . S
H25 C53 0.929 . S
H26 C54 0.929 . S
H27 C55 0.930 . S
H28 C56 0.929 . S
H29 C58 0.930 . S
H30 C35 0.930 1_556 S
H31 C39 0.930 . S
O32 Co1 2.037 . S
O32 C52 1.234 . S
C33 O7 1.269 . S
C33 O8 1.257 . S
C34 H9 0.930 . S
C34 C37 1.388 . S
C34 C39 1.418 . S
C35 H30 0.930 1_554 S
C35 C38 1.404 . S
C35 C39 1.353 . S
N36 Co1 2.145 . S
N36 C37 1.397 . S
N36 C38 1.334 . S
C37 H18 0.929 . S
C37 C34 1.388 . S
C37 N36 1.397 . S
C38 H19 0.929 1_554 S
C38 C35 1.404 . S
C38 N36 1.334 . S
C39 H31 0.930 . S
C39 C34 1.418 . S
C39 C35 1.353 . S
C40 H10 0.930 . S
C40 N41 1.330 . S
C40 C42 1.446 . S
N41 Co0 2.151 . S
N41 C40 1.330 . S
N41 C45 1.418 . S
C42 H21 0.929 1_554 S
C42 C40 1.446 . S
C42 C43 1.332 . S
C43 H23 0.931 1_554 S
C43 C42 1.332 . S
C43 C44 1.267 . S
C44 H12 0.929 . S
C44 C43 1.267 . S
C44 C45 1.251 . S
C45 H15 0.929 . S
C45 N41 1.418 . S
C45 C44 1.251 . S
C46 H13 0.930 . S
C46 C48 1.406 . S
C46 C51 1.261 . S
C47 H14 0.930 . S
C47 N49 1.325 . S
C47 C50 1.357 . S
C48 H16 0.928 . S
C48 C46 1.406 . S
C48 N49 1.261 . S
N49 Co0 2.214 . S
N49 C47 1.325 . S
N49 C48 1.261 . S
C50 H20 0.931 . S
C50 C47 1.357 . S
C50 C51 1.312 . S
C51 H22 0.930 . S
C51 C46 1.261 . S
C51 C50 1.312 . S
C52 O24 1.214 . S
C52 O32 1.234 . S
C53 H25 0.929 . S
C53 C56 1.391 . S
C53 C58 1.391 . S
C54 H26 0.929 . S
C54 C55 1.390 . S
C54 N57 1.391 . S
C55 H27 0.930 . S
C55 C54 1.390 . S
C55 C56 1.392 . S
C56 H28 0.929 . S
C56 C53 1.391 . S
C56 C55 1.392 . S
N57 Co1 2.257 . S
N57 C54 1.391 . S
N57 C58 1.388 . S
C58 H29 0.930 . S
C58 C53 1.391 . S
C58 N57 1.388 . S
Co59 O61 2.143 . S
Co59 O67 2.074 . S
Co59 O70 2.093 . S
Co59 O83 2.097 . S
Co59 N100 2.151 . S
Co59 N108 2.214 . S
Co60 O61 2.160 . S
Co60 O66 2.058 . S
Co60 O76 2.057 . S
Co60 O91 2.037 . S
Co60 N95 2.145 . S
Co60 N116 2.257 . S
O61 Co59 2.143 . S
O61 Co60 2.160 . S
C62 O63 1.278 . S
C62 O70 1.224 . S
O63 C62 1.278 . S
C64 O65 1.245 . S
C64 O76 1.232 . S
O65 C64 1.245 . S
O66 Co60 2.058 . S
O66 C92 1.269 . S
O67 Co59 2.074 . S
O67 C92 1.257 . S
H68 C93 0.930 . S
H69 C99 0.930 . S
O70 Co59 2.093 . S
O70 C62 1.224 . S
H71 C103 0.929 . S
H72 C105 0.930 . S
H73 C106 0.930 . S
H74 C104 0.929 . S
H75 C107 0.928 . S
O76 Co60 2.057 . S
O76 C64 1.232 . S
H77 C96 0.929 . S
H78 C97 0.929 . S
H79 C109 0.931 . S
H80 C101 0.929 . S
H81 C110 0.930 . S
H82 C102 0.931 . S
O83 Co59 2.097 . S
O83 C111 1.214 . S
H84 C112 0.929 . S
H85 C113 0.929 . S
H86 C114 0.930 . S
H87 C115 0.929 . S
H88 C117 0.930 . S
H89 C94 0.930 . S
H90 C98 0.930 . S
O91 Co60 2.037 . S
O91 C111 1.234 . S
C92 O66 1.269 . S
C92 O67 1.257 . S
C93 H68 0.930 . S
C93 C96 1.388 . S
C93 C98 1.418 . S
C94 H89 0.930 . S
C94 C97 1.404 . S
C94 C98 1.353 . S
N95 Co60 2.145 . S
N95 C96 1.397 . S
N95 C97 1.334 . S
C96 H77 0.929 . S
C96 C93 1.388 . S
C96 N95 1.397 . S
C97 H78 0.929 . S
C97 C94 1.404 . S
C97 N95 1.334 . S
C98 H90 0.930 . S
C98 C93 1.418 . S
C98 C94 1.353 . S
C99 H69 0.930 . S
C99 N100 1.330 . S
C99 C101 1.446 . S
N100 Co59 2.151 . S
N100 C99 1.330 . S
N100 C104 1.418 . S
C101 H80 0.929 . S
C101 C99 1.446 . S
C101 C102 1.332 . S
C102 H82 0.931 . S
C102 C101 1.332 . S
C102 C103 1.267 . S
C103 H71 0.929 . S
C103 C102 1.267 . S
C103 C104 1.251 . S
C104 H74 0.929 . S
C104 N100 1.418 . S
C104 C103 1.251 . S
C105 H72 0.930 . S
C105 C107 1.406 . S
C105 C110 1.261 . S
C106 H73 0.930 . S
C106 N108 1.325 . S
C106 C109 1.357 . S
C107 H75 0.928 . S
C107 C105 1.406 . S
C107 N108 1.261 . S
N108 Co59 2.214 . S
N108 C106 1.325 . S
N108 C107 1.261 . S
C109 H79 0.931 . S
C109 C106 1.357 . S
C109 C110 1.312 . S
C110 H81 0.930 . S
C110 C105 1.261 . S
C110 C109 1.312 . S
C111 O83 1.214 . S
C111 O91 1.234 . S
C112 H84 0.929 . S
C112 C115 1.391 . S
C112 C117 1.391 . S
C113 H85 0.929 . S
C113 C114 1.390 . S
C113 N116 1.391 . S
C114 H86 0.930 . S
C114 C113 1.390 . S
C114 C115 1.392 . S
C115 H87 0.929 . S
C115 C112 1.391 . S
C115 C114 1.392 . S
N116 Co60 2.257 . S
N116 C113 1.391 . S
N116 C117 1.388 . S
C117 H88 0.930 . S
C117 C112 1.391 . S
C117 N116 1.388 . S
Co118 O120 2.143 . S
Co118 O126 2.074 . S
Co118 O129 2.093 . S
Co118 O142 2.097 . S
Co118 N159 2.151 . S
Co118 N167 2.214 . S
Co119 O120 2.160 . S
Co119 O125 2.058 . S
Co119 O135 2.057 . S
Co119 O150 2.037 . S
Co119 N154 2.145 . S
Co119 N175 2.257 . S
O120 Co118 2.143 . S
O120 Co119 2.160 . S
C121 O122 1.278 . S
C121 O129 1.224 . S
O122 C121 1.278 . S
C123 O124 1.245 . S
C123 O135 1.232 . S
O124 C123 1.245 . S
O125 Co119 2.058 . S
O125 C151 1.269 . S
O126 Co118 2.074 . S
O126 C151 1.257 . S
H127 C152 0.930 . S
H128 C158 0.930 . S
O129 Co118 2.093 . S
O129 C121 1.224 . S
H130 C162 0.929 . S
H131 C164 0.930 . S
H132 C165 0.930 . S
H133 C163 0.929 . S
H134 C166 0.928 . S
O135 Co119 2.057 . S
O135 C123 1.232 . S
H136 C155 0.929 . S
H137 C156 0.929 . S
H138 C168 0.931 . S
H139 C160 0.929 . S
H140 C169 0.930 . S
H141 C161 0.931 . S
O142 Co118 2.097 . S
O142 C170 1.214 . S
H143 C171 0.929 . S
H144 C172 0.929 . S
H145 C173 0.930 . S
H146 C174 0.929 . S
H147 C176 0.930 . S
H148 C153 0.930 . S
H149 C157 0.930 . S
O150 Co119 2.037 . S
O150 C170 1.234 . S
C151 O125 1.269 . S
C151 O126 1.257 . S
C152 H127 0.930 . S
C152 C155 1.388 . S
C152 C157 1.418 . S
C153 H148 0.930 . S
C153 C156 1.404 . S
C153 C157 1.353 . S
N154 Co119 2.145 . S
N154 C155 1.397 . S
N154 C156 1.334 . S
C155 H136 0.929 . S
C155 C152 1.388 . S
C155 N154 1.397 . S
C156 H137 0.929 . S
C156 C153 1.404 . S
C156 N154 1.334 . S
C157 H149 0.930 . S
C157 C152 1.418 . S
C157 C153 1.353 . S
C158 H128 0.930 . S
C158 N159 1.330 . S
C158 C160 1.446 . S
N159 Co118 2.151 . S
N159 C158 1.330 . S
N159 C163 1.418 . S
C160 H139 0.929 . S
C160 C158 1.446 . S
C160 C161 1.332 . S
C161 H141 0.931 . S
C161 C160 1.332 . S
C161 C162 1.267 . S
C162 H130 0.929 . S
C162 C161 1.267 . S
C162 C163 1.251 . S
C163 H133 0.929 . S
C163 N159 1.418 . S
C163 C162 1.251 . S
C164 H131 0.930 . S
C164 C166 1.406 . S
C164 C169 1.261 . S
C165 H132 0.930 . S
C165 N167 1.325 . S
C165 C168 1.357 . S
C166 H134 0.928 . S
C166 C164 1.406 . S
C166 N167 1.261 . S
N167 Co118 2.214 . S
N167 C165 1.325 . S
N167 C166 1.261 . S
C168 H138 0.931 . S
C168 C165 1.357 . S
C168 C169 1.312 . S
C169 H140 0.930 . S
C169 C164 1.261 . S
C169 C168 1.312 . S
C170 O142 1.214 . S
C170 O150 1.234 . S
C171 H143 0.929 . S
C171 C174 1.391 . S
C171 C176 1.391 . S
C172 H144 0.929 . S
C172 C173 1.390 . S
C172 N175 1.391 . S
C173 H145 0.930 . S
C173 C172 1.390 . S
C173 C174 1.392 . S
C174 H146 0.929 . S
C174 C171 1.391 . S
C174 C173 1.392 . S
N175 Co119 2.257 . S
N175 C172 1.391 . S
N175 C176 1.388 . S
C176 H147 0.930 . S
C176 C171 1.391 . S
C176 N175 1.388 . S
Co177 O179 2.143 . S
Co177 O185 2.074 . S
Co177 O188 2.093 . S
Co177 O201 2.097 . S
Co177 N218 2.151 . S
Co177 N226 2.214 . S
Co178 O179 2.160 . S
Co178 O184 2.058 . S
Co178 O194 2.057 . S
Co178 O209 2.037 . S
Co178 N213 2.145 . S
Co178 N234 2.257 . S
O179 Co177 2.143 . S
O179 Co178 2.160 . S
C180 O181 1.278 . S
C180 O188 1.224 . S
O181 C180 1.278 . S
C182 O183 1.245 . S
C182 O194 1.232 . S
O183 C182 1.245 . S
O184 Co178 2.058 . S
O184 C210 1.269 . S
O185 Co177 2.074 . S
O185 C210 1.257 . S
H186 C211 0.930 . S
H187 C217 0.930 . S
O188 Co177 2.093 . S
O188 C180 1.224 . S
H189 C221 0.929 . S
H190 C223 0.930 . S
H191 C224 0.930 . S
H192 C222 0.929 . S
H193 C225 0.928 . S
O194 Co178 2.057 . S
O194 C182 1.232 . S
H195 C214 0.929 . S
H196 C215 0.929 . S
H197 C227 0.931 . S
H198 C219 0.929 . S
H199 C228 0.930 . S
H200 C220 0.931 . S
O201 Co177 2.097 . S
O201 C229 1.214 . S
H202 C230 0.929 . S
H203 C231 0.929 . S
H204 C232 0.930 . S
H205 C233 0.929 . S
H206 C235 0.930 . S
H207 C212 0.930 . S
H208 C216 0.930 . S
O209 Co178 2.037 . S
O209 C229 1.234 . S
C210 O184 1.269 . S
C210 O185 1.257 . S
C211 H186 0.930 . S
C211 C214 1.388 . S
C211 C216 1.418 . S
C212 H207 0.930 . S
C212 C215 1.404 . S
C212 C216 1.353 . S
N213 Co178 2.145 . S
N213 C214 1.397 . S
N213 C215 1.334 . S
C214 H195 0.929 . S
C214 C211 1.388 . S
C214 N213 1.397 . S
C215 H196 0.929 . S
C215 C212 1.404 . S
C215 N213 1.334 . S
C216 H208 0.930 . S
C216 C211 1.418 . S
C216 C212 1.353 . S
C217 H187 0.930 . S
C217 N218 1.330 . S
C217 C219 1.446 . S
N218 Co177 2.151 . S
N218 C217 1.330 . S
N218 C222 1.418 . S
C219 H198 0.929 . S
C219 C217 1.446 . S
C219 C220 1.332 . S
C220 H200 0.931 . S
C220 C219 1.332 . S
C220 C221 1.267 . S
C221 H189 0.929 . S
C221 C220 1.267 . S
C221 C222 1.251 . S
C222 H192 0.929 . S
C222 N218 1.418 . S
C222 C221 1.251 . S
C223 H190 0.930 . S
C223 C225 1.406 . S
C223 C228 1.261 . S
C224 H191 0.930 . S
C224 N226 1.325 . S
C224 C227 1.357 . S
C225 H193 0.928 . S
C225 C223 1.406 . S
C225 N226 1.261 . S
N226 Co177 2.214 . S
N226 C224 1.325 . S
N226 C225 1.261 . S
C227 H197 0.931 . S
C227 C224 1.357 . S
C227 C228 1.312 . S
C228 H199 0.930 . S
C228 C223 1.261 . S
C228 C227 1.312 . S
C229 O201 1.214 . S
C229 O209 1.234 . S
C230 H202 0.929 . S
C230 C233 1.391 . S
C230 C235 1.391 . S
C231 H203 0.929 . S
C231 C232 1.390 . S
C231 N234 1.391 . S
C232 H204 0.930 . S
C232 C231 1.390 . S
C232 C233 1.392 . S
C233 H205 0.929 . S
C233 C230 1.391 . S
C233 C232 1.392 . S
N234 Co178 2.257 . S
N234 C231 1.391 . S
N234 C235 1.388 . S
C235 H206 0.930 . S
C235 C230 1.391 . S
C235 N234 1.388 . S
Co236 O238 2.143 . S
Co236 O244 2.074 . S
Co236 O247 2.093 . S
Co236 O260 2.097 . S
Co236 N277 2.151 . S
Co236 N285 2.214 . S
Co237 O238 2.160 . S
Co237 O243 2.058 . S
Co237 O253 2.057 . S
Co237 O268 2.037 . S
Co237 N272 2.145 . S
Co237 N293 2.257 . S
O238 Co236 2.143 . S
O238 Co237 2.160 . S
C239 O240 1.278 . S
C239 O247 1.224 . S
O240 C239 1.278 . S
C241 O242 1.245 . S
C241 O253 1.232 . S
O242 C241 1.245 . S
O243 Co237 2.058 . S
O243 C269 1.269 . S
O244 Co236 2.074 . S
O244 C269 1.257 . S
H245 C270 0.930 . S
H246 C276 0.930 . S
O247 Co236 2.093 . S
O247 C239 1.224 . S
H248 C280 0.929 . S
H249 C282 0.930 . S
H250 C283 0.930 . S
H251 C281 0.929 . S
H252 C284 0.928 . S
O253 Co237 2.057 . S
O253 C241 1.232 . S
H254 C273 0.929 . S
H255 C274 0.929 . S
H256 C286 0.931 . S
H257 C278 0.929 . S
H258 C287 0.930 . S
H259 C279 0.931 . S
O260 Co236 2.097 . S
O260 C288 1.214 . S
H261 C289 0.929 . S
H262 C290 0.929 . S
H263 C291 0.930 . S
H264 C292 0.929 . S
H265 C294 0.930 . S
H266 C271 0.930 . S
H267 C275 0.930 . S
O268 Co237 2.037 . S
O268 C288 1.234 . S
C269 O243 1.269 . S
C269 O244 1.257 . S
C270 H245 0.930 . S
C270 C273 1.388 . S
C270 C275 1.418 . S
C271 H266 0.930 . S
C271 C274 1.404 . S
C271 C275 1.353 . S
N272 Co237 2.145 . S
N272 C273 1.397 . S
N272 C274 1.334 . S
C273 H254 0.929 . S
C273 C270 1.388 . S
C273 N272 1.397 . S
C274 H255 0.929 . S
C274 C271 1.404 . S
C274 N272 1.334 . S
C275 H267 0.930 . S
C275 C270 1.418 . S
C275 C271 1.353 . S
C276 H246 0.930 . S
C276 N277 1.330 . S
C276 C278 1.446 . S
N277 Co236 2.151 . S
N277 C276 1.330 . S
N277 C281 1.418 . S
C278 H257 0.929 . S
C278 C276 1.446 . S
C278 C279 1.332 . S
C279 H259 0.931 . S
C279 C278 1.332 . S
C279 C280 1.267 . S
C280 H248 0.929 . S
C280 C279 1.267 . S
C280 C281 1.251 . S
C281 H251 0.929 . S
C281 N277 1.418 . S
C281 C280 1.251 . S
C282 H249 0.930 . S
C282 C284 1.406 . S
C282 C287 1.261 . S
C283 H250 0.930 . S
C283 N285 1.325 . S
C283 C286 1.357 . S
C284 H252 0.928 . S
C284 C282 1.406 . S
C284 N285 1.261 . S
N285 Co236 2.214 . S
N285 C283 1.325 . S
N285 C284 1.261 . S
C286 H256 0.931 . S
C286 C283 1.357 . S
C286 C287 1.312 . S
C287 H258 0.930 . S
C287 C282 1.261 . S
C287 C286 1.312 . S
C288 O260 1.214 . S
C288 O268 1.234 . S
C289 H261 0.929 . S
C289 C292 1.391 . S
C289 C294 1.391 . S
C290 H262 0.929 . S
C290 C291 1.390 . S
C290 N293 1.391 . S
C291 H263 0.930 . S
C291 C290 1.390 . S
C291 C292 1.392 . S
C292 H264 0.929 . S
C292 C289 1.391 . S
C292 C291 1.392 . S
N293 Co237 2.257 . S
N293 C290 1.391 . S
N293 C294 1.388 . S
C294 H265 0.930 . S
C294 C289 1.391 . S
C294 N293 1.388 . S
Co295 O297 2.143 . S
Co295 O303 2.074 . S
Co295 O306 2.093 . S
Co295 O319 2.097 . S
Co295 N336 2.151 . S
Co295 N344 2.214 . S
Co296 O297 2.160 . S
Co296 O302 2.058 . S
Co296 O312 2.057 . S
Co296 O327 2.037 . S
Co296 N331 2.145 . S
Co296 N352 2.257 . S
O297 Co295 2.143 . S
O297 Co296 2.160 . S
C298 O299 1.278 . S
C298 O306 1.224 . S
O299 C298 1.278 . S
C300 O301 1.245 . S
C300 O312 1.232 . S
O301 C300 1.245 . S
O302 Co296 2.058 . S
O302 C328 1.269 . S
O303 Co295 2.074 . S
O303 C328 1.257 . S
H304 C329 0.930 . S
H305 C335 0.930 . S
O306 Co295 2.093 . S
O306 C298 1.224 . S
H307 C339 0.929 . S
H308 C341 0.930 1_554 S
H309 C342 0.930 . S
H310 C340 0.929 . S
H311 C343 0.928 . S
O312 Co296 2.057 . S
O312 C300 1.232 . S
H313 C332 0.929 . S
H314 C333 0.929 . S
H315 C345 0.931 . S
H316 C337 0.929 . S
H317 C346 0.930 . S
H318 C338 0.931 . S
O319 Co295 2.097 . S
O319 C347 1.214 . S
H320 C348 0.929 . S
H321 C349 0.929 . S
H322 C350 0.930 . S
H323 C351 0.929 . S
H324 C353 0.930 . S
H325 C330 0.930 . S
H326 C334 0.930 . S
O327 Co296 2.037 . S
O327 C347 1.234 . S
C328 O302 1.269 . S
C328 O303 1.257 . S
C329 H304 0.930 . S
C329 C332 1.388 . S
C329 C334 1.418 . S
C330 H325 0.930 . S
C330 C333 1.404 . S
C330 C334 1.353 . S
N331 Co296 2.145 . S
N331 C332 1.397 . S
N331 C333 1.334 . S
C332 H313 0.929 . S
C332 C329 1.388 . S
C332 N331 1.397 . S
C333 H314 0.929 . S
C333 C330 1.404 . S
C333 N331 1.334 . S
C334 H326 0.930 . S
C334 C329 1.418 . S
C334 C330 1.353 . S
C335 H305 0.930 . S
C335 N336 1.330 . S
C335 C337 1.446 . S
N336 Co295 2.151 . S
N336 C335 1.330 . S
N336 C340 1.418 . S
C337 H316 0.929 . S
C337 C335 1.446 . S
C337 C338 1.332 . S
C338 H318 0.931 . S
C338 C337 1.332 . S
C338 C339 1.267 . S
C339 H307 0.929 . S
C339 C338 1.267 . S
C339 C340 1.251 . S
C340 H310 0.929 . S
C340 N336 1.418 . S
C340 C339 1.251 . S
C341 H308 0.930 1_556 S
C341 C343 1.406 . S
C341 C346 1.261 1_556 S
C342 H309 0.930 . S
C342 N344 1.325 . S
C342 C345 1.357 1_556 S
C343 H311 0.928 . S
C343 C341 1.406 . S
C343 N344 1.261 . S
N344 Co295 2.214 . S
N344 C342 1.325 . S
N344 C343 1.261 . S
C345 H315 0.931 . S
C345 C342 1.357 1_554 S
C345 C346 1.312 . S
C346 H317 0.930 . S
C346 C341 1.261 1_554 S
C346 C345 1.312 . S
C347 O319 1.214 . S
C347 O327 1.234 . S
C348 H320 0.929 . S
C348 C351 1.391 . S
C348 C353 1.391 . S
C349 H321 0.929 . S
C349 C350 1.390 . S
C349 N352 1.391 . S
C350 H322 0.930 . S
C350 C349 1.390 . S
C350 C351 1.392 . S
C351 H323 0.929 . S
C351 C348 1.391 . S
C351 C350 1.392 . S
N352 Co296 2.257 . S
N352 C349 1.391 . S
N352 C353 1.388 . S
C353 H324 0.930 . S
C353 C348 1.391 . S
C353 N352 1.388 . S
Co354 O356 2.143 . S
Co354 O362 2.074 . S
Co354 O365 2.093 . S
Co354 O378 2.097 . S
Co354 N395 2.151 . S
Co354 N403 2.214 . S
Co355 O356 2.160 . S
Co355 O361 2.058 . S
Co355 O371 2.057 . S
Co355 O386 2.037 . S
Co355 N390 2.145 . S
Co355 N411 2.257 . S
O356 Co354 2.143 . S
O356 Co355 2.160 . S
C357 O358 1.278 . S
C357 O365 1.224 . S
O358 C357 1.278 . S
C359 O360 1.245 . S
C359 O371 1.232 . S
O360 C359 1.245 . S
O361 Co355 2.058 . S
O361 C387 1.269 . S
O362 Co354 2.074 . S
O362 C387 1.257 . S
H363 C388 0.930 . S
H364 C394 0.930 . S
O365 Co354 2.093 . S
O365 C357 1.224 . S
H366 C398 0.929 . S
H367 C400 0.930 . S
H368 C401 0.930 . S
H369 C399 0.929 . S
H370 C402 0.928 . S
O371 Co355 2.057 . S
O371 C359 1.232 . S
H372 C391 0.929 . S
H373 C392 0.929 . S
H374 C404 0.931 . S
H375 C396 0.929 . S
H376 C405 0.930 . S
H377 C397 0.931 . S
O378 Co354 2.097 . S
O378 C406 1.214 . S
H379 C407 0.929 . S
H380 C408 0.929 . S
H381 C409 0.930 . S
H382 C410 0.929 . S
H383 C412 0.930 . S
H384 C389 0.930 . S
H385 C393 0.930 . S
O386 Co355 2.037 . S
O386 C406 1.234 . S
C387 O361 1.269 . S
C387 O362 1.257 . S
C388 H363 0.930 . S
C388 C391 1.388 . S
C388 C393 1.418 . S
C389 H384 0.930 . S
C389 C392 1.404 . S
C389 C393 1.353 . S
N390 Co355 2.145 . S
N390 C391 1.397 . S
N390 C392 1.334 . S
C391 H372 0.929 . S
C391 C388 1.388 . S
C391 N390 1.397 . S
C392 H373 0.929 . S
C392 C389 1.404 . S
C392 N390 1.334 . S
C393 H385 0.930 . S
C393 C388 1.418 . S
C393 C389 1.353 . S
C394 H364 0.930 . S
C394 N395 1.330 . S
C394 C396 1.446 . S
N395 Co354 2.151 . S
N395 C394 1.330 . S
N395 C399 1.418 . S
C396 H375 0.929 . S
C396 C394 1.446 . S
C396 C397 1.332 . S
C397 H377 0.931 . S
C397 C396 1.332 . S
C397 C398 1.267 . S
C398 H366 0.929 . S
C398 C397 1.267 . S
C398 C399 1.251 . S
C399 H369 0.929 . S
C399 N395 1.418 . S
C399 C398 1.251 . S
C400 H367 0.930 . S
C400 C402 1.406 . S
C400 C405 1.261 . S
C401 H368 0.930 . S
C401 N403 1.325 . S
C401 C404 1.357 . S
C402 H370 0.928 . S
C402 C400 1.406 . S
C402 N403 1.261 . S
N403 Co354 2.214 . S
N403 C401 1.325 . S
N403 C402 1.261 . S
C404 H374 0.931 . S
C404 C401 1.357 . S
C404 C405 1.312 . S
C405 H376 0.930 . S
C405 C400 1.261 . S
C405 C404 1.312 . S
C406 O378 1.214 . S
C406 O386 1.234 . S
C407 H379 0.929 . S
C407 C410 1.391 . S
C407 C412 1.391 . S
C408 H380 0.929 . S
C408 C409 1.390 . S
C408 N411 1.391 . S
C409 H381 0.930 . S
C409 C408 1.390 . S
C409 C410 1.392 . S
C410 H382 0.929 . S
C410 C407 1.391 . S
C410 C409 1.392 . S
N411 Co355 2.257 . S
N411 C408 1.391 . S
N411 C412 1.388 . S
C412 H383 0.930 . S
C412 C407 1.391 . S
C412 N411 1.388 . S
Co413 O415 2.143 . S
Co413 O421 2.074 . S
Co413 O424 2.093 1_554 S
Co413 O437 2.097 1_554 S
Co413 N454 2.151 . S
Co413 N462 2.214 1_554 S
Co414 O415 2.160 . S
Co414 O420 2.058 . S
Co414 O430 2.057 . S
Co414 O445 2.037 1_554 S
Co414 N449 2.145 . S
Co414 N470 2.257 . S
O415 Co413 2.143 . S
O415 Co414 2.160 . S
C416 O417 1.278 . S
C416 O424 1.226 1_554 S
O417 C416 1.278 . S
C418 O419 1.245 . S
C418 O430 1.232 . S
O419 C418 1.245 . S
O420 Co414 2.058 . S
O420 C446 1.269 . S
O421 Co413 2.074 . S
O421 C446 1.257 . S
H422 C447 0.930 . S
H423 C453 0.930 . S
O424 Co413 2.093 1_556 S
O424 C416 1.226 1_556 S
H425 C457 0.929 . S
H426 C459 0.930 . S
H427 C460 0.930 . S
H428 C458 0.929 . S
H429 C461 0.928 . S
O430 Co414 2.057 . S
O430 C418 1.232 . S
H431 C450 0.932 1_556 S
H432 C451 0.929 . S
H433 C463 0.931 . S
H434 C455 0.929 . S
H435 C464 0.930 . S
H436 C456 0.931 . S
O437 Co413 2.097 1_556 S
O437 C465 1.214 . S
H438 C466 0.929 . S
H439 C467 0.929 1_556 S
H440 C468 0.930 1_556 S
H441 C469 0.929 . S
H442 C471 0.930 . S
H443 C448 0.930 . S
H444 C452 0.930 . S
O445 Co414 2.037 1_556 S
O445 C465 1.234 . S
C446 O420 1.269 . S
C446 O421 1.257 . S
C447 H422 0.930 . S
C447 C450 1.388 . S
C447 C452 1.418 . S
C448 H443 0.930 . S
C448 C451 1.404 . S
C448 C452 1.353 . S
N449 Co414 2.145 . S
N449 C450 1.397 . S
N449 C451 1.334 . S
C450 H431 0.932 1_554 S
C450 C447 1.388 . S
C450 N449 1.397 . S
C451 H432 0.929 . S
C451 C448 1.404 . S
C451 N449 1.334 . S
C452 H444 0.930 . S
C452 C447 1.418 . S
C452 C448 1.353 . S
C453 H423 0.930 . S
C453 N454 1.330 . S
C453 C455 1.446 . S
N454 Co413 2.151 . S
N454 C453 1.330 . S
N454 C458 1.418 . S
C455 H434 0.929 . S
C455 C453 1.446 . S
C455 C456 1.332 . S
C456 H436 0.931 . S
C456 C455 1.332 . S
C456 C457 1.267 . S
C457 H425 0.929 . S
C457 C456 1.267 . S
C457 C458 1.251 . S
C458 H428 0.929 . S
C458 N454 1.418 . S
C458 C457 1.251 . S
C459 H426 0.930 . S
C459 C461 1.406 . S
C459 C464 1.261 . S
C460 H427 0.930 . S
C460 N462 1.325 . S
C460 C463 1.357 . S
C461 H429 0.928 . S
C461 C459 1.406 . S
C461 N462 1.261 . S
N462 Co413 2.214 1_556 S
N462 C460 1.325 . S
N462 C461 1.261 . S
C463 H433 0.931 . S
C463 C460 1.357 . S
C463 C464 1.312 . S
C464 H435 0.930 . S
C464 C459 1.261 . S
C464 C463 1.312 . S
C465 O437 1.214 . S
C465 O445 1.234 . S
C466 H438 0.929 . S
C466 C469 1.391 . S
C466 C471 1.391 . S
C467 H439 0.929 1_554 S
C467 C468 1.390 . S
C467 N470 1.391 . S
C468 H440 0.930 1_554 S
C468 C467 1.390 . S
C468 C469 1.392 . S
C469 H441 0.929 . S
C469 C466 1.391 . S
C469 C468 1.392 . S
N470 Co414 2.257 . S
N470 C467 1.391 . S
N470 C471 1.388 . S
C471 H442 0.930 . S
C471 C466 1.391 . S
C471 N470 1.388 . S
Co472 O474 2.143 . S
Co472 O480 2.074 . S
Co472 O483 2.093 . S
Co472 O496 2.097 . S
Co472 N513 2.151 . S
Co472 N521 2.214 . S
Co473 O474 2.160 . S
Co473 O479 2.058 . S
Co473 O489 2.057 . S
Co473 O504 2.037 . S
Co473 N508 2.145 . S
Co473 N529 2.257 . S
O474 Co472 2.143 . S
O474 Co473 2.160 . S
C475 O476 1.278 . S
C475 O483 1.224 . S
O476 C475 1.278 . S
C477 O478 1.245 . S
C477 O489 1.232 . S
O478 C477 1.245 . S
O479 Co473 2.058 . S
O479 C505 1.269 . S
O480 Co472 2.074 . S
O480 C505 1.257 . S
H481 C506 0.930 . S
H482 C512 0.930 . S
O483 Co472 2.093 . S
O483 C475 1.224 . S
H484 C516 0.929 . S
H485 C518 0.930 . S
H486 C519 0.930 . S
H487 C517 0.929 . S
H488 C520 0.928 . S
O489 Co473 2.057 . S
O489 C477 1.232 . S
H490 C509 0.929 . S
H491 C510 0.929 . S
H492 C522 0.931 . S
H493 C514 0.929 . S
H494 C523 0.930 . S
H495 C515 0.931 . S
O496 Co472 2.097 . S
O496 C524 1.214 . S
H497 C525 0.929 . S
H498 C526 0.929 . S
H499 C527 0.930 . S
H500 C528 0.929 . S
H501 C530 0.930 . S
H502 C507 0.930 . S
H503 C511 0.930 . S
O504 Co473 2.037 . S
O504 C524 1.234 . S
C505 O479 1.269 . S
C505 O480 1.257 . S
C506 H481 0.930 . S
C506 C509 1.388 . S
C506 C511 1.418 . S
C507 H502 0.930 . S
C507 C510 1.404 . S
C507 C511 1.353 . S
N508 Co473 2.145 . S
N508 C509 1.397 . S
N508 C510 1.334 . S
C509 H490 0.929 . S
C509 C506 1.388 . S
C509 N508 1.397 . S
C510 H491 0.929 . S
C510 C507 1.404 . S
C510 N508 1.334 . S
C511 H503 0.930 . S
C511 C506 1.418 . S
C511 C507 1.353 . S
C512 H482 0.930 . S
C512 N513 1.330 . S
C512 C514 1.446 . S
N513 Co472 2.151 . S
N513 C512 1.330 . S
N513 C517 1.418 . S
C514 H493 0.929 . S
C514 C512 1.446 . S
C514 C515 1.332 . S
C515 H495 0.931 . S
C515 C514 1.332 . S
C515 C516 1.267 . S
C516 H484 0.929 . S
C516 C515 1.267 . S
C516 C517 1.251 . S
C517 H487 0.929 . S
C517 N513 1.418 . S
C517 C516 1.251 . S
C518 H485 0.930 . S
C518 C520 1.406 . S
C518 C523 1.261 . S
C519 H486 0.930 . S
C519 N521 1.325 . S
C519 C522 1.357 . S
C520 H488 0.928 . S
C520 C518 1.406 . S
C520 N521 1.261 . S
N521 Co472 2.214 . S
N521 C519 1.325 . S
N521 C520 1.261 . S
C522 H492 0.931 . S
C522 C519 1.357 . S
C522 C523 1.312 . S
C523 H494 0.930 . S
C523 C518 1.261 . S
C523 C522 1.312 . S
C524 O496 1.214 . S
C524 O504 1.234 . S
C525 H497 0.929 . S
C525 C528 1.391 . S
C525 C530 1.391 . S
C526 H498 0.929 . S
C526 C527 1.390 . S
C526 N529 1.391 . S
C527 H499 0.930 . S
C527 C526 1.390 . S
C527 C528 1.392 . S
C528 H500 0.929 . S
C528 C525 1.391 . S
C528 C527 1.392 . S
N529 Co473 2.257 . S
N529 C526 1.391 . S
N529 C530 1.388 . S
C530 H501 0.930 . S
C530 C525 1.391 . S
C530 N529 1.388 . S
Co531 O533 2.143 . S
Co531 O539 2.074 . S
Co531 O542 2.093 . S
Co531 O555 2.097 . S
Co531 N572 2.151 . S
Co531 N580 2.214 . S
Co532 O533 2.160 . S
Co532 O538 2.058 . S
Co532 O548 2.057 . S
Co532 O563 2.037 . S
Co532 N567 2.145 . S
Co532 N588 2.257 . S
O533 Co531 2.143 . S
O533 Co532 2.160 . S
C534 O535 1.278 . S
C534 O542 1.224 . S
O535 C534 1.278 . S
C536 O537 1.245 . S
C536 O548 1.232 . S
O537 C536 1.245 . S
O538 Co532 2.058 . S
O538 C564 1.269 . S
O539 Co531 2.074 . S
O539 C564 1.257 . S
H540 C565 0.930 . S
H541 C571 0.930 . S
O542 Co531 2.093 . S
O542 C534 1.224 . S
H543 C575 0.929 . S
H544 C577 0.930 . S
H545 C578 0.930 . S
H546 C576 0.929 . S
H547 C579 0.928 . S
O548 Co532 2.057 . S
O548 C536 1.232 . S
H549 C568 0.929 . S
H550 C569 0.929 . S
H551 C581 0.931 . S
H552 C573 0.929 . S
H553 C582 0.930 . S
H554 C574 0.931 . S
O555 Co531 2.097 . S
O555 C583 1.214 . S
H556 C584 0.929 . S
H557 C585 0.929 . S
H558 C586 0.930 . S
H559 C587 0.929 . S
H560 C589 0.930 . S
H561 C566 0.930 . S
H562 C570 0.930 . S
O563 Co532 2.037 . S
O563 C583 1.234 . S
C564 O538 1.269 . S
C564 O539 1.257 . S
C565 H540 0.930 . S
C565 C568 1.388 . S
C565 C570 1.418 . S
C566 H561 0.930 . S
C566 C569 1.404 . S
C566 C570 1.353 . S
N567 Co532 2.145 . S
N567 C568 1.397 . S
N567 C569 1.334 . S
C568 H549 0.929 . S
C568 C565 1.388 . S
C568 N567 1.397 . S
C569 H550 0.929 . S
C569 C566 1.404 . S
C569 N567 1.334 . S
C570 H562 0.930 . S
C570 C565 1.418 . S
C570 C566 1.353 . S
C571 H541 0.930 . S
C571 N572 1.330 . S
C571 C573 1.446 . S
N572 Co531 2.151 . S
N572 C571 1.330 . S
N572 C576 1.418 . S
C573 H552 0.929 . S
C573 C571 1.446 . S
C573 C574 1.332 . S
C574 H554 0.931 . S
C574 C573 1.332 . S
C574 C575 1.267 . S
C575 H543 0.929 . S
C575 C574 1.267 . S
C575 C576 1.251 . S
C576 H546 0.929 . S
C576 N572 1.418 . S
C576 C575 1.251 . S
C577 H544 0.930 . S
C577 C579 1.406 . S
C577 C582 1.261 . S
C578 H545 0.930 . S
C578 N580 1.325 . S
C578 C581 1.357 . S
C579 H547 0.928 . S
C579 C577 1.406 . S
C579 N580 1.261 . S
N580 Co531 2.214 . S
N580 C578 1.325 . S
N580 C579 1.261 . S
C581 H551 0.931 . S
C581 C578 1.357 . S
C581 C582 1.312 . S
C582 H553 0.930 . S
C582 C577 1.261 . S
C582 C581 1.312 . S
C583 O555 1.214 . S
C583 O563 1.234 . S
C584 H556 0.929 . S
C584 C587 1.391 . S
C584 C589 1.391 . S
C585 H557 0.929 . S
C585 C586 1.390 . S
C585 N588 1.391 . S
C586 H558 0.930 . S
C586 C585 1.390 . S
C586 C587 1.392 . S
C587 H559 0.929 . S
C587 C584 1.391 . S
C587 C586 1.392 . S
N588 Co532 2.257 . S
N588 C585 1.391 . S
N588 C589 1.388 . S
C589 H560 0.930 . S
C589 C584 1.391 . S
C589 N588 1.388 . S
Co590 O592 2.143 . S
Co590 O598 2.074 . S
Co590 O601 2.093 . S
Co590 O614 2.097 . S
Co590 N631 2.151 . S
Co590 N639 2.214 . S
Co591 O592 2.160 . S
Co591 O597 2.058 . S
Co591 O607 2.057 . S
Co591 O622 2.037 . S
Co591 N626 2.145 . S
Co591 N647 2.257 . S
O592 Co590 2.143 . S
O592 Co591 2.160 . S
C593 O594 1.278 . S
C593 O601 1.224 . S
O594 C593 1.278 . S
C595 O596 1.245 . S
C595 O607 1.232 . S
O596 C595 1.245 . S
O597 Co591 2.058 . S
O597 C623 1.269 . S
O598 Co590 2.074 . S
O598 C623 1.257 . S
H599 C624 0.930 . S
H600 C630 0.930 . S
O601 Co590 2.093 . S
O601 C593 1.224 . S
H602 C634 0.929 . S
H603 C636 0.930 . S
H604 C637 0.930 . S
H605 C635 0.929 . S
H606 C638 0.928 . S
O607 Co591 2.057 . S
O607 C595 1.232 . S
H608 C627 0.929 . S
H609 C628 0.929 . S
H610 C640 0.931 . S
H611 C632 0.929 . S
H612 C641 0.930 . S
H613 C633 0.931 . S
O614 Co590 2.097 . S
O614 C642 1.214 . S
H615 C643 0.929 . S
H616 C644 0.929 . S
H617 C645 0.930 . S
H618 C646 0.929 . S
H619 C648 0.930 . S
H620 C625 0.930 . S
H621 C629 0.930 . S
O622 Co591 2.037 . S
O622 C642 1.234 . S
C623 O597 1.269 . S
C623 O598 1.257 . S
C624 H599 0.930 . S
C624 C627 1.388 . S
C624 C629 1.418 . S
C625 H620 0.930 . S
C625 C628 1.404 . S
C625 C629 1.353 . S
N626 Co591 2.145 . S
N626 C627 1.397 . S
N626 C628 1.334 . S
C627 H608 0.929 . S
C627 C624 1.388 . S
C627 N626 1.397 . S
C628 H609 0.929 . S
C628 C625 1.404 . S
C628 N626 1.334 . S
C629 H621 0.930 . S
C629 C624 1.418 . S
C629 C625 1.353 . S
C630 H600 0.930 . S
C630 N631 1.330 . S
C630 C632 1.446 . S
N631 Co590 2.151 . S
N631 C630 1.330 . S
N631 C635 1.418 . S
C632 H611 0.929 . S
C632 C630 1.446 . S
C632 C633 1.332 . S
C633 H613 0.931 . S
C633 C632 1.332 . S
C633 C634 1.267 . S
C634 H602 0.929 . S
C634 C633 1.267 . S
C634 C635 1.251 . S
C635 H605 0.929 . S
C635 N631 1.418 . S
C635 C634 1.251 . S
C636 H603 0.930 . S
C636 C638 1.406 . S
C636 C641 1.261 . S
C637 H604 0.930 . S
C637 N639 1.325 . S
C637 C640 1.357 . S
C638 H606 0.928 . S
C638 C636 1.406 . S
C638 N639 1.261 . S
N639 Co590 2.214 . S
N639 C637 1.325 . S
N639 C638 1.261 . S
C640 H610 0.931 . S
C640 C637 1.357 . S
C640 C641 1.312 . S
C641 H612 0.930 . S
C641 C636 1.261 . S
C641 C640 1.312 . S
C642 O614 1.214 . S
C642 O622 1.234 . S
C643 H615 0.929 . S
C643 C646 1.391 . S
C643 C648 1.391 . S
C644 H616 0.929 . S
C644 C645 1.390 . S
C644 N647 1.391 . S
C645 H617 0.930 . S
C645 C644 1.390 . S
C645 C646 1.392 . S
C646 H618 0.929 . S
C646 C643 1.391 . S
C646 C645 1.392 . S
N647 Co591 2.257 . S
N647 C644 1.391 . S
N647 C648 1.388 . S
C648 H619 0.930 . S
C648 C643 1.391 . S
C648 N647 1.388 . S
Co649 O651 2.143 . S
Co649 O657 2.074 . S
Co649 O660 2.093 . S
Co649 O673 2.097 . S
Co649 N690 2.151 . S
Co649 N698 2.214 . S
Co650 O651 2.160 . S
Co650 O656 2.058 . S
Co650 O666 2.057 . S
Co650 O681 2.037 . S
Co650 N685 2.145 . S
Co650 N706 2.257 . S
O651 Co649 2.143 . S
O651 Co650 2.160 . S
C652 O653 1.278 . S
C652 O660 1.224 . S
O653 C652 1.278 . S
C654 O655 1.245 . S
C654 O666 1.232 . S
O655 C654 1.245 . S
O656 Co650 2.058 . S
O656 C682 1.269 . S
O657 Co649 2.074 . S
O657 C682 1.257 . S
H658 C683 0.930 . S
H659 C689 0.930 . S
O660 Co649 2.093 . S
O660 C652 1.224 . S
H661 C693 0.929 . S
H662 C695 0.930 . S
H663 C696 0.930 . S
H664 C694 0.929 . S
H665 C697 0.928 . S
O666 Co650 2.057 . S
O666 C654 1.232 . S
H667 C686 0.929 . S
H668 C687 0.929 . S
H669 C699 0.931 . S
H670 C691 0.929 . S
H671 C700 0.930 . S
H672 C692 0.931 . S
O673 Co649 2.097 . S
O673 C701 1.214 . S
H674 C702 0.929 . S
H675 C703 0.929 . S
H676 C704 0.930 . S
H677 C705 0.929 . S
H678 C707 0.930 . S
H679 C684 0.930 . S
H680 C688 0.930 . S
O681 Co650 2.037 . S
O681 C701 1.234 . S
C682 O656 1.269 . S
C682 O657 1.257 . S
C683 H658 0.930 . S
C683 C686 1.388 . S
C683 C688 1.418 . S
C684 H679 0.930 . S
C684 C687 1.404 . S
C684 C688 1.353 . S
N685 Co650 2.145 . S
N685 C686 1.397 . S
N685 C687 1.334 . S
C686 H667 0.929 . S
C686 C683 1.388 . S
C686 N685 1.397 . S
C687 H668 0.929 . S
C687 C684 1.404 . S
C687 N685 1.334 . S
C688 H680 0.930 . S
C688 C683 1.418 . S
C688 C684 1.353 . S
C689 H659 0.930 . S
C689 N690 1.330 . S
C689 C691 1.446 . S
N690 Co649 2.151 . S
N690 C689 1.330 . S
N690 C694 1.418 . S
C691 H670 0.929 . S
C691 C689 1.446 . S
C691 C692 1.332 . S
C692 H672 0.931 . S
C692 C691 1.332 . S
C692 C693 1.267 . S
C693 H661 0.929 . S
C693 C692 1.267 . S
C693 C694 1.251 . S
C694 H664 0.929 . S
C694 N690 1.418 . S
C694 C693 1.251 . S
C695 H662 0.930 . S
C695 C697 1.406 . S
C695 C700 1.261 . S
C696 H663 0.930 . S
C696 N698 1.325 . S
C696 C699 1.357 . S
C697 H665 0.928 . S
C697 C695 1.406 . S
C697 N698 1.261 . S
N698 Co649 2.214 . S
N698 C696 1.325 . S
N698 C697 1.261 . S
C699 H669 0.931 . S
C699 C696 1.357 . S
C699 C700 1.312 . S
C700 H671 0.930 . S
C700 C695 1.261 . S
C700 C699 1.312 . S
C701 O673 1.214 . S
C701 O681 1.234 . S
C702 H674 0.929 . S
C702 C705 1.391 . S
C702 C707 1.391 . S
C703 H675 0.929 . S
C703 C704 1.390 . S
C703 N706 1.391 . S
C704 H676 0.930 . S
C704 C703 1.390 . S
C704 C705 1.392 . S
C705 H677 0.929 . S
C705 C702 1.391 . S
C705 C704 1.392 . S
N706 Co650 2.257 . S
N706 C703 1.391 . S
N706 C707 1.388 . S
C707 H678 0.930 . S
C707 C702 1.391 . S
C707 N706 1.388 . S
H708 C726 0.951 . S
H709 C728 0.951 . S
H710 C730 0.950 . S
H711 C731 0.950 . S
H712 C733 0.950 . S
H713 C736 0.950 . S
H714 C737 0.950 . S
H715 C739 0.950 . S
H716 C740 0.950 . S
H717 C741 0.951 . S
H718 C743 0.951 . S
H719 C745 0.950 . S
H720 C746 0.950 . S
H721 C748 0.950 . S
H722 C751 0.950 . S
H723 C752 0.950 . S
H724 C754 0.950 . S
H725 C755 0.950 . S
C726 H708 0.951 . S
C726 C727 1.366 . S
C726 C728 1.388 . S
C727 C726 1.366 . S
C727 C731 1.385 . S
C728 H709 0.951 . S
C728 C726 1.388 . S
C728 C729 1.366 . S
C729 C728 1.366 . S
C729 C730 1.414 . S
C729 C732 1.499 . S
C730 H710 0.950 . S
C730 C729 1.414 . S
C730 C731 1.374 . S
C731 H711 0.950 . S
C731 C727 1.385 . S
C731 C730 1.374 . S
C732 C729 1.499 . S
C732 C733 1.373 . S
C732 C734 1.389 . S
C733 H712 0.950 . S
C733 C732 1.373 . S
C733 C749 1.377 . S
C734 C732 1.389 . S
C734 C735 1.524 . S
C734 C748 1.377 . S
C735 C734 1.524 . S
C735 C736 1.397 . S
C735 C740 1.363 . S
C736 H713 0.950 . S
C736 C735 1.397 . S
C736 C737 1.334 . S
C737 H714 0.950 . S
C737 C736 1.334 . S
C737 C738 1.287 . S
C738 C737 1.287 . S
C738 C739 1.524 . S
C738 H757 0.913 . S
C739 H715 0.950 . S
C739 C738 1.524 . S
C739 C740 1.415 . S
C740 H716 0.950 . S
C740 C735 1.363 . S
C740 C739 1.415 . S
C741 H717 0.951 . S
C741 C742 1.366 . S
C741 C743 1.388 . S
C742 C741 1.366 . S
C742 C746 1.385 . S
C743 H718 0.951 . S
C743 C741 1.388 . S
C743 C744 1.366 . S
C744 C743 1.366 . S
C744 C745 1.414 . S
C744 C747 1.499 . S
C745 H719 0.950 . S
C745 C744 1.414 . S
C745 C746 1.374 . S
C746 H720 0.950 . S
C746 C742 1.385 . S
C746 C745 1.374 . S
C747 C744 1.499 . S
C747 C748 1.373 . S
C747 C749 1.389 . S
C748 H721 0.950 . S
C748 C734 1.377 . S
C748 C747 1.373 . S
C749 C733 1.377 . S
C749 C747 1.389 . S
C749 C750 1.524 . S
C750 C749 1.524 . S
C750 C751 1.397 . S
C750 C755 1.363 . S
C751 H722 0.950 . S
C751 C750 1.397 . S
C751 C752 1.334 . S
C752 H723 0.950 . S
C752 C751 1.334 . S
C752 C753 1.287 . S
C753 C752 1.287 . S
C753 C754 1.524 . S
C753 H756 0.999 . S
C754 H724 0.950 . S
C754 C753 1.524 . S
C754 C755 1.415 . S
C755 H725 0.950 . S
C755 C750 1.363 . S
C755 C754 1.415 . S
H756 C753 0.999 . S
H757 C738 0.913 . S
H758 C776 0.951 . S
H759 C778 0.951 . S
H760 C780 0.950 . S
H761 C781 0.950 . S
H762 C783 0.950 . S
H763 C786 0.950 . S
H764 C787 0.950 . S
H765 C789 0.950 . S
H766 C790 0.950 . S
H767 C791 0.951 . S
H768 C793 0.951 . S
H769 C795 0.950 . S
H770 C796 0.950 . S
H771 C798 0.950 . S
H772 C801 0.950 . S
H773 C802 0.950 . S
H774 C804 0.950 . S
H775 C805 0.950 . S
C776 H758 0.951 . S
C776 C777 1.366 . S
C776 C778 1.388 . S
C777 C776 1.366 . S
C777 C781 1.385 . S
C778 H759 0.951 . S
C778 C776 1.388 . S
C778 C779 1.366 . S
C779 C778 1.366 . S
C779 C780 1.414 . S
C779 C782 1.499 . S
C780 H760 0.950 . S
C780 C779 1.414 . S
C780 C781 1.374 . S
C781 H761 0.950 . S
C781 C777 1.385 . S
C781 C780 1.374 . S
C782 C779 1.499 . S
C782 C783 1.373 . S
C782 C784 1.389 . S
C783 H762 0.950 . S
C783 C782 1.373 . S
C783 C799 1.377 . S
C784 C782 1.389 . S
C784 C785 1.524 . S
C784 C798 1.377 . S
C785 C784 1.524 . S
C785 C786 1.397 . S
C785 C790 1.363 . S
C786 H763 0.950 . S
C786 C785 1.397 . S
C786 C787 1.334 . S
C787 H764 0.950 . S
C787 C786 1.334 . S
C787 C788 1.287 . S
C788 C787 1.287 . S
C788 C789 1.524 . S
C788 H807 0.913 . S
C789 H765 0.950 . S
C789 C788 1.524 . S
C789 C790 1.415 . S
C790 H766 0.950 . S
C790 C785 1.363 . S
C790 C789 1.415 . S
C791 H767 0.951 . S
C791 C792 1.366 . S
C791 C793 1.388 . S
C792 C791 1.366 . S
C792 C796 1.385 . S
C793 H768 0.951 . S
C793 C791 1.388 . S
C793 C794 1.366 . S
C794 C793 1.366 . S
C794 C795 1.414 . S
C794 C797 1.499 . S
C795 H769 0.950 . S
C795 C794 1.414 . S
C795 C796 1.374 . S
C796 H770 0.950 . S
C796 C792 1.385 . S
C796 C795 1.374 . S
C797 C794 1.499 . S
C797 C798 1.373 . S
C797 C799 1.389 . S
C798 H771 0.950 . S
C798 C784 1.377 . S
C798 C797 1.373 . S
C799 C783 1.377 . S
C799 C797 1.389 . S
C799 C800 1.524 . S
C800 C799 1.524 . S
C800 C801 1.397 . S
C800 C805 1.363 . S
C801 H772 0.950 . S
C801 C800 1.397 . S
C801 C802 1.334 . S
C802 H773 0.950 . S
C802 C801 1.334 . S
C802 C803 1.287 . S
C803 C802 1.287 . S
C803 C804 1.524 . S
C803 H806 0.999 . S
C804 H774 0.950 . S
C804 C803 1.524 . S
C804 C805 1.415 . S
C805 H775 0.950 . S
C805 C800 1.363 . S
C805 C804 1.415 . S
H806 C803 0.999 . S
H807 C788 0.913 . S
H808 C826 0.951 . S
H809 C828 0.951 . S
H810 C830 0.950 . S
H811 C831 0.950 . S
H812 C833 0.950 . S
H813 C836 0.950 . S
H814 C837 0.950 . S
H815 C839 0.950 . S
H816 C840 0.950 . S
H817 C841 0.951 . S
H818 C843 0.951 . S
H819 C845 0.950 . S
H820 C846 0.950 . S
H821 C848 0.950 . S
H822 C851 0.950 . S
H823 C852 0.950 . S
H824 C854 0.950 . S
H825 C855 0.950 . S
C826 H808 0.951 . S
C826 C827 1.366 . S
C826 C828 1.388 . S
C827 C826 1.366 . S
C827 C831 1.385 . S
C828 H809 0.951 . S
C828 C826 1.388 . S
C828 C829 1.366 . S
C829 C828 1.366 . S
C829 C830 1.414 . S
C829 C832 1.499 . S
C830 H810 0.950 . S
C830 C829 1.414 . S
C830 C831 1.374 . S
C831 H811 0.950 . S
C831 C827 1.385 . S
C831 C830 1.374 . S
C832 C829 1.499 . S
C832 C833 1.373 . S
C832 C834 1.389 . S
C833 H812 0.950 . S
C833 C832 1.373 . S
C833 C849 1.377 . S
C834 C832 1.389 . S
C834 C835 1.524 . S
C834 C848 1.377 . S
C835 C834 1.524 . S
C835 C836 1.397 . S
C835 C840 1.363 . S
C836 H813 0.950 . S
C836 C835 1.397 . S
C836 C837 1.334 . S
C837 H814 0.950 . S
C837 C836 1.334 . S
C837 C838 1.287 . S
C838 C837 1.287 . S
C838 C839 1.524 . S
C838 H857 0.913 . S
C839 H815 0.950 . S
C839 C838 1.524 . S
C839 C840 1.415 . S
C840 H816 0.950 . S
C840 C835 1.363 . S
C840 C839 1.415 . S
C841 H817 0.951 . S
C841 C842 1.366 . S
C841 C843 1.388 . S
C842 C841 1.366 . S
C842 C846 1.385 . S
C843 H818 0.951 . S
C843 C841 1.388 . S
C843 C844 1.366 . S
C844 C843 1.366 . S
C844 C845 1.414 . S
C844 C847 1.499 . S
C845 H819 0.950 . S
C845 C844 1.414 . S
C845 C846 1.374 . S
C846 H820 0.950 . S
C846 C842 1.385 . S
C846 C845 1.374 . S
C847 C844 1.499 . S
C847 C848 1.373 . S
C847 C849 1.389 . S
C848 H821 0.950 . S
C848 C834 1.377 . S
C848 C847 1.373 . S
C849 C833 1.377 . S
C849 C847 1.389 . S
C849 C850 1.524 . S
C850 C849 1.524 . S
C850 C851 1.397 . S
C850 C855 1.363 . S
C851 H822 0.950 . S
C851 C850 1.397 . S
C851 C852 1.334 . S
C852 H823 0.950 . S
C852 C851 1.334 . S
C852 C853 1.287 . S
C853 C852 1.287 . S
C853 C854 1.524 . S
C853 H856 0.999 . S
C854 H824 0.950 . S
C854 C853 1.524 . S
C854 C855 1.415 . S
C855 H825 0.950 . S
C855 C850 1.363 . S
C855 C854 1.415 . S
H856 C853 0.999 . S
H857 C838 0.913 . S
H858 C876 0.951 . S
H859 C878 0.951 . S
H860 C880 0.950 . S
H861 C881 0.950 . S
H862 C883 0.950 . S
H863 C886 0.950 . S
H864 C887 0.950 . S
H865 C889 0.950 . S
H866 C890 0.950 . S
H867 C891 0.951 . S
H868 C893 0.951 . S
H869 C895 0.950 . S
H870 C896 0.950 . S
H871 C898 0.950 . S
H872 C901 0.950 . S
H873 C902 0.950 . S
H874 C904 0.950 . S
H875 C905 0.950 . S
C876 H858 0.951 . S
C876 C877 1.366 . S
C876 C878 1.388 . S
C877 C876 1.366 . S
C877 C881 1.385 . S
C878 H859 0.951 . S
C878 C876 1.388 . S
C878 C879 1.366 . S
C879 C878 1.366 . S
C879 C880 1.414 . S
C879 C882 1.499 . S
C880 H860 0.950 . S
C880 C879 1.414 . S
C880 C881 1.374 . S
C881 H861 0.950 . S
C881 C877 1.385 . S
C881 C880 1.374 . S
C882 C879 1.499 . S
C882 C883 1.373 . S
C882 C884 1.389 . S
C883 H862 0.950 . S
C883 C882 1.373 . S
C883 C899 1.377 . S
C884 C882 1.389 . S
C884 C885 1.524 . S
C884 C898 1.377 . S
C885 C884 1.524 . S
C885 C886 1.397 . S
C885 C890 1.363 . S
C886 H863 0.950 . S
C886 C885 1.397 . S
C886 C887 1.334 . S
C887 H864 0.950 . S
C887 C886 1.334 . S
C887 C888 1.287 . S
C888 C887 1.287 . S
C888 C889 1.524 . S
C888 H907 0.913 . S
C889 H865 0.950 . S
C889 C888 1.524 . S
C889 C890 1.415 . S
C890 H866 0.950 . S
C890 C885 1.363 . S
C890 C889 1.415 . S
C891 H867 0.951 . S
C891 C892 1.366 . S
C891 C893 1.388 . S
C892 C891 1.366 . S
C892 C896 1.385 . S
C893 H868 0.951 . S
C893 C891 1.388 . S
C893 C894 1.366 . S
C894 C893 1.366 . S
C894 C895 1.414 . S
C894 C897 1.499 . S
C895 H869 0.950 . S
C895 C894 1.414 . S
C895 C896 1.374 . S
C896 H870 0.950 . S
C896 C892 1.385 . S
C896 C895 1.374 . S
C897 C894 1.499 . S
C897 C898 1.373 . S
C897 C899 1.389 . S
C898 H871 0.950 . S
C898 C884 1.377 . S
C898 C897 1.373 . S
C899 C883 1.377 . S
C899 C897 1.389 . S
C899 C900 1.524 . S
C900 C899 1.524 . S
C900 C901 1.397 . S
C900 C905 1.363 . S
C901 H872 0.950 . S
C901 C900 1.397 . S
C901 C902 1.334 . S
C902 H873 0.950 . S
C902 C901 1.334 . S
C902 C903 1.287 . S
C903 C902 1.287 . S
C903 C904 1.524 . S
C903 H906 0.999 . S
C904 H874 0.950 . S
C904 C903 1.524 . S
C904 C905 1.415 . S
C905 H875 0.950 . S
C905 C900 1.363 . S
C905 C904 1.415 . S
H906 C903 0.999 . S
H907 C888 0.913 . S
H908 C926 0.951 . S
H909 C928 0.951 . S
H910 C930 0.950 . S
H911 C931 0.950 . S
H912 C933 0.950 . S
H913 C936 0.950 . S
H914 C937 0.950 . S
H915 C939 0.950 . S
H916 C940 0.950 . S
H917 C941 0.951 . S
H918 C943 0.951 . S
H919 C945 0.950 . S
H920 C946 0.950 . S
H921 C948 0.950 . S
H922 C951 0.950 . S
H923 C952 0.950 . S
H924 C954 0.950 . S
H925 C955 0.950 . S
C926 H908 0.951 . S
C926 C927 1.366 . S
C926 C928 1.388 . S
C927 C926 1.366 . S
C927 C931 1.385 . S
C928 H909 0.951 . S
C928 C926 1.388 . S
C928 C929 1.366 . S
C929 C928 1.366 . S
C929 C930 1.414 . S
C929 C932 1.499 1_554 S
C930 H910 0.950 . S
C930 C929 1.414 . S
C930 C931 1.374 . S
C931 H911 0.950 . S
C931 C927 1.385 . S
C931 C930 1.374 . S
C932 C929 1.499 1_556 S
C932 C933 1.373 . S
C932 C934 1.389 . S
C933 H912 0.950 . S
C933 C932 1.373 . S
C933 C949 1.377 . S
C934 C932 1.389 . S
C934 C935 1.524 1_556 S
C934 C948 1.377 . S
C935 C934 1.524 1_554 S
C935 C936 1.397 . S
C935 C940 1.363 1_554 S
C936 H913 0.950 . S
C936 C935 1.397 . S
C936 C937 1.334 . S
C937 H914 0.950 . S
C937 C936 1.334 . S
C937 C938 1.287 . S
C938 C937 1.287 . S
C938 C939 1.524 . S
C938 H957 0.913 . S
C939 H915 0.950 . S
C939 C938 1.524 . S
C939 C940 1.415 1_554 S
C940 H916 0.950 . S
C940 C935 1.363 1_556 S
C940 C939 1.415 1_556 S
C941 H917 0.951 . S
C941 C942 1.366 . S
C941 C943 1.388 . S
C942 C941 1.366 . S
C942 C946 1.385 . S
C943 H918 0.951 . S
C943 C941 1.388 . S
C943 C944 1.366 . S
C944 C943 1.366 . S
C944 C945 1.414 . S
C944 C947 1.499 . S
C945 H919 0.950 . S
C945 C944 1.414 . S
C945 C946 1.374 . S
C946 H920 0.950 . S
C946 C942 1.385 . S
C946 C945 1.374 . S
C947 C944 1.499 . S
C947 C948 1.373 . S
C947 C949 1.389 . S
C948 H921 0.950 . S
C948 C934 1.377 . S
C948 C947 1.373 . S
C949 C933 1.377 . S
C949 C947 1.389 . S
C949 C950 1.524 . S
C950 C949 1.524 . S
C950 C951 1.397 . S
C950 C955 1.363 . S
C951 H922 0.950 . S
C951 C950 1.397 . S
C951 C952 1.334 . S
C952 H923 0.950 . S
C952 C951 1.334 . S
C952 C953 1.287 . S
C953 C952 1.287 . S
C953 C954 1.524 . S
C953 H956 0.999 . S
C954 H924 0.950 . S
C954 C953 1.524 . S
C954 C955 1.415 . S
C955 H925 0.950 . S
C955 C950 1.363 . S
C955 C954 1.415 . S
H956 C953 0.999 . S
H957 C938 0.913 . S
H958 C976 0.951 . S
H959 C978 0.951 . S
H960 C980 0.950 . S
H961 C981 0.950 . S
H962 C983 0.950 . S
H963 C986 0.950 . S
H964 C987 0.950 . S
H965 C989 0.950 . S
H966 C990 0.950 . S
H967 C991 0.951 . S
H968 C993 0.951 . S
H969 C995 0.950 . S
H970 C996 0.950 . S
H971 C998 0.950 . S
H972 C1001 0.950 . S
H973 C1002 0.950 . S
H974 C1004 0.950 . S
H975 C1005 0.950 . S
C976 H958 0.951 . S
C976 C977 1.366 . S
C976 C978 1.388 . S
C977 C976 1.366 . S
C977 C981 1.385 . S
C978 H959 0.951 . S
C978 C976 1.388 . S
C978 C979 1.366 . S
C979 C978 1.366 . S
C979 C980 1.414 . S
C979 C982 1.499 . S
C980 H960 0.950 . S
C980 C979 1.414 . S
C980 C981 1.374 . S
C981 H961 0.950 . S
C981 C977 1.385 . S
C981 C980 1.374 . S
C982 C979 1.499 . S
C982 C983 1.373 . S
C982 C984 1.389 . S
C983 H962 0.950 . S
C983 C982 1.373 . S
C983 C999 1.377 . S
C984 C982 1.389 . S
C984 C985 1.524 . S
C984 C998 1.377 . S
C985 C984 1.524 . S
C985 C986 1.397 . S
C985 C990 1.363 . S
C986 H963 0.950 . S
C986 C985 1.397 . S
C986 C987 1.334 . S
C987 H964 0.950 . S
C987 C986 1.334 . S
C987 C988 1.287 . S
C988 C987 1.287 . S
C988 C989 1.524 . S
C988 H1007 0.913 . S
C989 H965 0.950 . S
C989 C988 1.524 . S
C989 C990 1.415 . S
C990 H966 0.950 . S
C990 C985 1.363 . S
C990 C989 1.415 . S
C991 H967 0.951 . S
C991 C992 1.366 . S
C991 C993 1.388 1_556 S
C992 C991 1.366 . S
C992 C996 1.385 1_556 S
C993 H968 0.951 . S
C993 C991 1.388 1_554 S
C993 C994 1.366 . S
C994 C993 1.366 . S
C994 C995 1.414 . S
C994 C997 1.499 . S
C995 H969 0.950 . S
C995 C994 1.414 . S
C995 C996 1.374 . S
C996 H970 0.950 . S
C996 C992 1.385 1_554 S
C996 C995 1.374 . S
C997 C994 1.499 . S
C997 C998 1.373 . S
C997 C999 1.389 . S
C998 H971 0.950 . S
C998 C984 1.377 . S
C998 C997 1.373 . S
C999 C983 1.377 . S
C999 C997 1.389 . S
C999 C1000 1.524 . S
C1000 C999 1.524 . S
C1000 C1001 1.397 . S
C1000 C1005 1.363 . S
C1001 H972 0.950 . S
C1001 C1000 1.397 . S
C1001 C1002 1.334 . S
C1002 H973 0.950 . S
C1002 C1001 1.334 . S
C1002 C1003 1.287 . S
C1003 C1002 1.287 . S
C1003 C1004 1.524 . S
C1003 H1006 0.999 . S
C1004 H974 0.950 . S
C1004 C1003 1.524 . S
C1004 C1005 1.415 . S
C1005 H975 0.950 . S
C1005 C1000 1.363 . S
C1005 C1004 1.415 . S
H1006 C1003 0.999 . S
H1007 C988 0.913 . S
H1008 C1026 0.951 . S
H1009 C1028 0.951 . S
H1010 C1030 0.950 . S
H1011 C1031 0.950 . S
H1012 C1033 0.950 . S
H1013 C1036 0.950 . S
H1014 C1037 0.950 . S
H1015 C1039 0.950 . S
H1016 C1040 0.950 . S
H1017 C1041 0.951 . S
H1018 C1043 0.951 . S
H1019 C1045 0.950 . S
H1020 C1046 0.950 . S
H1021 C1048 0.950 . S
H1022 C1051 0.950 . S
H1023 C1052 0.950 . S
H1024 C1054 0.950 . S
H1025 C1055 0.950 . S
C1026 H1008 0.951 . S
C1026 C1027 1.366 . S
C1026 C1028 1.388 . S
C1027 C1026 1.366 . S
C1027 C1031 1.385 . S
C1028 H1009 0.951 . S
C1028 C1026 1.388 . S
C1028 C1029 1.366 . S
C1029 C1028 1.366 . S
C1029 C1030 1.414 . S
C1029 C1032 1.499 . S
C1030 H1010 0.950 . S
C1030 C1029 1.414 . S
C1030 C1031 1.374 . S
C1031 H1011 0.950 . S
C1031 C1027 1.385 . S
C1031 C1030 1.374 . S
C1032 C1029 1.499 . S
C1032 C1033 1.373 . S
C1032 C1034 1.389 . S
C1033 H1012 0.950 . S
C1033 C1032 1.373 . S
C1033 C1049 1.377 . S
C1034 C1032 1.389 . S
C1034 C1035 1.524 . S
C1034 C1048 1.377 . S
C1035 C1034 1.524 . S
C1035 C1036 1.397 . S
C1035 C1040 1.363 . S
C1036 H1013 0.950 . S
C1036 C1035 1.397 . S
C1036 C1037 1.334 . S
C1037 H1014 0.950 . S
C1037 C1036 1.334 . S
C1037 C1038 1.287 . S
C1038 C1037 1.287 . S
C1038 C1039 1.524 . S
C1038 H1057 0.913 . S
C1039 H1015 0.950 . S
C1039 C1038 1.524 . S
C1039 C1040 1.415 . S
C1040 H1016 0.950 . S
C1040 C1035 1.363 . S
C1040 C1039 1.415 . S
C1041 H1017 0.951 . S
C1041 C1042 1.366 . S
C1041 C1043 1.388 . S
C1042 C1041 1.366 . S
C1042 C1046 1.385 . S
C1043 H1018 0.951 . S
C1043 C1041 1.388 . S
C1043 C1044 1.366 . S
C1044 C1043 1.366 . S
C1044 C1045 1.414 . S
C1044 C1047 1.499 . S
C1045 H1019 0.950 . S
C1045 C1044 1.414 . S
C1045 C1046 1.374 . S
C1046 H1020 0.950 . S
C1046 C1042 1.385 . S
C1046 C1045 1.374 . S
C1047 C1044 1.499 . S
C1047 C1048 1.373 . S
C1047 C1049 1.389 . S
C1048 H1021 0.950 . S
C1048 C1034 1.377 . S
C1048 C1047 1.373 . S
C1049 C1033 1.377 . S
C1049 C1047 1.389 . S
C1049 C1050 1.524 . S
C1050 C1049 1.524 . S
C1050 C1051 1.397 . S
C1050 C1055 1.363 . S
C1051 H1022 0.950 . S
C1051 C1050 1.397 . S
C1051 C1052 1.334 . S
C1052 H1023 0.950 . S
C1052 C1051 1.334 . S
C1052 C1053 1.287 . S
C1053 C1052 1.287 . S
C1053 C1054 1.524 . S
C1053 H1056 0.999 . S
C1054 H1024 0.950 . S
C1054 C1053 1.524 . S
C1054 C1055 1.415 . S
C1055 H1025 0.950 . S
C1055 C1050 1.363 . S
C1055 C1054 1.415 . S
H1056 C1053 0.999 . S
H1057 C1038 0.913 . S
H1058 C1076 0.951 . S
H1059 C1078 0.951 . S
H1060 C1080 0.950 . S
H1061 C1081 0.950 . S
H1062 C1083 0.950 . S
H1063 C1086 0.950 . S
H1064 C1087 0.950 . S
H1065 C1089 0.950 . S
H1066 C1090 0.950 . S
H1067 C1091 0.951 . S
H1068 C1093 0.951 . S
H1069 C1095 0.950 . S
H1070 C1096 0.950 . S
H1071 C1098 0.950 . S
H1072 C1101 0.950 . S
H1073 C1102 0.950 . S
H1074 C1104 0.950 . S
H1075 C1105 0.950 . S
C1076 H1058 0.951 . S
C1076 C1077 1.366 . S
C1076 C1078 1.388 . S
C1077 C1076 1.366 . S
C1077 C1081 1.385 . S
C1078 H1059 0.951 . S
C1078 C1076 1.388 . S
C1078 C1079 1.366 . S
C1079 C1078 1.366 . S
C1079 C1080 1.414 . S
C1079 C1082 1.499 . S
C1080 H1060 0.950 . S
C1080 C1079 1.414 . S
C1080 C1081 1.374 . S
C1081 H1061 0.950 . S
C1081 C1077 1.385 . S
C1081 C1080 1.374 . S
C1082 C1079 1.499 . S
C1082 C1083 1.373 . S
C1082 C1084 1.389 . S
C1083 H1062 0.950 . S
C1083 C1082 1.373 . S
C1083 C1099 1.377 . S
C1084 C1082 1.389 . S
C1084 C1085 1.524 . S
C1084 C1098 1.377 . S
C1085 C1084 1.524 . S
C1085 C1086 1.397 . S
C1085 C1090 1.363 . S
C1086 H1063 0.950 . S
C1086 C1085 1.397 . S
C1086 C1087 1.334 . S
C1087 H1064 0.950 . S
C1087 C1086 1.334 . S
C1087 C1088 1.287 . S
C1088 C1087 1.287 . S
C1088 C1089 1.524 . S
C1088 H1107 0.913 . S
C1089 H1065 0.950 . S
C1089 C1088 1.524 . S
C1089 C1090 1.415 . S
C1090 H1066 0.950 . S
C1090 C1085 1.363 . S
C1090 C1089 1.415 . S
C1091 H1067 0.951 . S
C1091 C1092 1.366 . S
C1091 C1093 1.388 . S
C1092 C1091 1.366 . S
C1092 C1096 1.385 . S
C1093 H1068 0.951 . S
C1093 C1091 1.388 . S
C1093 C1094 1.366 . S
C1094 C1093 1.366 . S
C1094 C1095 1.414 . S
C1094 C1097 1.499 . S
C1095 H1069 0.950 . S
C1095 C1094 1.414 . S
C1095 C1096 1.374 . S
C1096 H1070 0.950 . S
C1096 C1092 1.385 . S
C1096 C1095 1.374 . S
C1097 C1094 1.499 . S
C1097 C1098 1.373 . S
C1097 C1099 1.389 . S
C1098 H1071 0.950 . S
C1098 C1084 1.377 . S
C1098 C1097 1.373 . S
C1099 C1083 1.377 . S
C1099 C1097 1.389 . S
C1099 C1100 1.524 . S
C1100 C1099 1.524 . S
C1100 C1101 1.397 . S
C1100 C1105 1.363 . S
C1101 H1072 0.950 . S
C1101 C1100 1.397 . S
C1101 C1102 1.334 . S
C1102 H1073 0.950 . S
C1102 C1101 1.334 . S
C1102 C1103 1.287 . S
C1103 C1102 1.287 . S
C1103 C1104 1.524 . S
C1103 H1106 0.999 . S
C1104 H1074 0.950 . S
C1104 C1103 1.524 . S
C1104 C1105 1.415 . S
C1105 H1075 0.950 . S
C1105 C1100 1.363 . S
C1105 C1104 1.415 . S
H1106 C1103 0.999 . S
H1107 C1088 0.913 . S
H1108 C1126 0.951 . S
H1109 C1128 0.951 . S
H1110 C1130 0.950 . S
H1111 C1131 0.950 . S
H1112 C1133 0.950 . S
H1113 C1136 0.950 . S
H1114 C1137 0.950 . S
H1115 C1139 0.950 . S
H1116 C1140 0.950 . S
H1117 C1141 0.951 . S
H1118 C1143 0.951 . S
H1119 C1145 0.950 . S
H1120 C1146 0.950 . S
H1121 C1148 0.950 . S
H1122 C1151 0.950 . S
H1123 C1152 0.950 . S
H1124 C1154 0.950 . S
H1125 C1155 0.950 . S
C1126 H1108 0.951 . S
C1126 C1127 1.366 . S
C1126 C1128 1.388 . S
C1127 C1126 1.366 . S
C1127 C1131 1.385 . S
C1128 H1109 0.951 . S
C1128 C1126 1.388 . S
C1128 C1129 1.366 . S
C1129 C1128 1.366 . S
C1129 C1130 1.414 . S
C1129 C1132 1.499 . S
C1130 H1110 0.950 . S
C1130 C1129 1.414 . S
C1130 C1131 1.374 . S
C1131 H1111 0.950 . S
C1131 C1127 1.385 . S
C1131 C1130 1.374 . S
C1132 C1129 1.499 . S
C1132 C1133 1.373 . S
C1132 C1134 1.389 . S
C1133 H1112 0.950 . S
C1133 C1132 1.373 . S
C1133 C1149 1.377 . S
C1134 C1132 1.389 . S
C1134 C1135 1.524 . S
C1134 C1148 1.377 . S
C1135 C1134 1.524 . S
C1135 C1136 1.397 . S
C1135 C1140 1.363 . S
C1136 H1113 0.950 . S
C1136 C1135 1.397 . S
C1136 C1137 1.334 . S
C1137 H1114 0.950 . S
C1137 C1136 1.334 . S
C1137 C1138 1.287 . S
C1138 C1137 1.287 . S
C1138 C1139 1.524 . S
C1138 H1157 0.913 . S
C1139 H1115 0.950 . S
C1139 C1138 1.524 . S
C1139 C1140 1.415 . S
C1140 H1116 0.950 . S
C1140 C1135 1.363 . S
C1140 C1139 1.415 . S
C1141 H1117 0.951 . S
C1141 C1142 1.366 . S
C1141 C1143 1.388 . S
C1142 C1141 1.366 . S
C1142 C1146 1.385 . S
C1143 H1118 0.951 . S
C1143 C1141 1.388 . S
C1143 C1144 1.366 . S
C1144 C1143 1.366 . S
C1144 C1145 1.414 . S
C1144 C1147 1.499 . S
C1145 H1119 0.950 . S
C1145 C1144 1.414 . S
C1145 C1146 1.374 . S
C1146 H1120 0.950 . S
C1146 C1142 1.385 . S
C1146 C1145 1.374 . S
C1147 C1144 1.499 . S
C1147 C1148 1.373 . S
C1147 C1149 1.389 . S
C1148 H1121 0.950 . S
C1148 C1134 1.377 . S
C1148 C1147 1.373 . S
C1149 C1133 1.377 . S
C1149 C1147 1.389 . S
C1149 C1150 1.524 . S
C1150 C1149 1.524 . S
C1150 C1151 1.397 . S
C1150 C1155 1.363 . S
C1151 H1122 0.950 . S
C1151 C1150 1.397 . S
C1151 C1152 1.334 . S
C1152 H1123 0.950 . S
C1152 C1151 1.334 . S
C1152 C1153 1.287 . S
C1153 C1152 1.287 . S
C1153 C1154 1.524 . S
C1153 H1156 0.999 . S
C1154 H1124 0.950 . S
C1154 C1153 1.524 . S
C1154 C1155 1.415 . S
C1155 H1125 0.950 . S
C1155 C1150 1.363 . S
C1155 C1154 1.415 . S
H1156 C1153 0.999 . S
H1157 C1138 0.913 . S
H1158 C1176 0.951 . S
H1159 C1178 0.951 . S
H1160 C1180 0.950 . S
H1161 C1181 0.950 . S
H1162 C1183 0.950 . S
H1163 C1186 0.950 . S
H1164 C1187 0.950 . S
H1165 C1189 0.950 . S
H1166 C1190 0.950 . S
H1167 C1191 0.951 . S
H1168 C1193 0.951 . S
H1169 C1195 0.950 . S
H1170 C1196 0.950 . S
H1171 C1198 0.950 . S
H1172 C1201 0.950 . S
H1173 C1202 0.950 . S
H1174 C1204 0.950 . S
H1175 C1205 0.950 . S
C1176 H1158 0.951 . S
C1176 C1177 1.366 . S
C1176 C1178 1.388 . S
C1177 C1176 1.366 . S
C1177 C1181 1.385 . S
C1178 H1159 0.951 . S
C1178 C1176 1.388 . S
C1178 C1179 1.366 . S
C1179 C1178 1.366 . S
C1179 C1180 1.414 . S
C1179 C1182 1.499 . S
C1180 H1160 0.950 . S
C1180 C1179 1.414 . S
C1180 C1181 1.374 . S
C1181 H1161 0.950 . S
C1181 C1177 1.385 . S
C1181 C1180 1.374 . S
C1182 C1179 1.499 . S
C1182 C1183 1.373 . S
C1182 C1184 1.389 . S
C1183 H1162 0.950 . S
C1183 C1182 1.373 . S
C1183 C1199 1.377 . S
C1184 C1182 1.389 . S
C1184 C1185 1.524 . S
C1184 C1198 1.377 . S
C1185 C1184 1.524 . S
C1185 C1186 1.397 . S
C1185 C1190 1.363 . S
C1186 H1163 0.950 . S
C1186 C1185 1.397 . S
C1186 C1187 1.334 . S
C1187 H1164 0.950 . S
C1187 C1186 1.334 . S
C1187 C1188 1.287 . S
C1188 C1187 1.287 . S
C1188 C1189 1.524 . S
C1188 H1207 0.913 . S
C1189 H1165 0.950 . S
C1189 C1188 1.524 . S
C1189 C1190 1.415 . S
C1190 H1166 0.950 . S
C1190 C1185 1.363 . S
C1190 C1189 1.415 . S
C1191 H1167 0.951 . S
C1191 C1192 1.366 . S
C1191 C1193 1.388 . S
C1192 C1191 1.366 . S
C1192 C1196 1.385 . S
C1193 H1168 0.951 . S
C1193 C1191 1.388 . S
C1193 C1194 1.366 . S
C1194 C1193 1.366 . S
C1194 C1195 1.414 . S
C1194 C1197 1.499 . S
C1195 H1169 0.950 . S
C1195 C1194 1.414 . S
C1195 C1196 1.374 . S
C1196 H1170 0.950 . S
C1196 C1192 1.385 . S
C1196 C1195 1.374 . S
C1197 C1194 1.499 . S
C1197 C1198 1.373 . S
C1197 C1199 1.389 . S
C1198 H1171 0.950 . S
C1198 C1184 1.377 . S
C1198 C1197 1.373 . S
C1199 C1183 1.377 . S
C1199 C1197 1.389 . S
C1199 C1200 1.524 . S
C1200 C1199 1.524 . S
C1200 C1201 1.397 . S
C1200 C1205 1.363 . S
C1201 H1172 0.950 . S
C1201 C1200 1.397 . S
C1201 C1202 1.334 . S
C1202 H1173 0.950 . S
C1202 C1201 1.334 . S
C1202 C1203 1.287 . S
C1203 C1202 1.287 . S
C1203 C1204 1.524 . S
C1203 H1206 0.999 . S
C1204 H1174 0.950 . S
C1204 C1203 1.524 . S
C1204 C1205 1.415 . S
C1205 H1175 0.950 . S
C1205 C1200 1.363 . S
C1205 C1204 1.415 . S
H1206 C1203 0.999 . S
H1207 C1188 0.913 . S
H1208 C1226 0.951 . S
H1209 C1228 0.951 . S
H1210 C1230 0.950 . S
H1211 C1231 0.950 . S
H1212 C1233 0.950 . S
H1213 C1236 0.950 . S
H1214 C1237 0.950 . S
H1215 C1239 0.950 . S
H1216 C1240 0.950 . S
H1217 C1241 0.951 . S
H1218 C1243 0.951 . S
H1219 C1245 0.950 . S
H1220 C1246 0.950 . S
H1221 C1248 0.950 . S
H1222 C1251 0.950 . S
H1223 C1252 0.950 . S
H1224 C1254 0.950 . S
H1225 C1255 0.950 . S
C1226 H1208 0.951 . S
C1226 C1227 1.366 . S
C1226 C1228 1.388 . S
C1227 C1226 1.366 . S
C1227 C1231 1.385 . S
C1228 H1209 0.951 . S
C1228 C1226 1.388 . S
C1228 C1229 1.366 . S
C1229 C1228 1.366 . S
C1229 C1230 1.414 . S
C1229 C1232 1.499 . S
C1230 H1210 0.950 . S
C1230 C1229 1.414 . S
C1230 C1231 1.374 . S
C1231 H1211 0.950 . S
C1231 C1227 1.385 . S
C1231 C1230 1.374 . S
C1232 C1229 1.499 . S
C1232 C1233 1.373 . S
C1232 C1234 1.389 . S
C1233 H1212 0.950 . S
C1233 C1232 1.373 . S
C1233 C1249 1.377 . S
C1234 C1232 1.389 . S
C1234 C1235 1.524 . S
C1234 C1248 1.377 . S
C1235 C1234 1.524 . S
C1235 C1236 1.397 . S
C1235 C1240 1.363 . S
C1236 H1213 0.950 . S
C1236 C1235 1.397 . S
C1236 C1237 1.334 . S
C1237 H1214 0.950 . S
C1237 C1236 1.334 . S
C1237 C1238 1.287 . S
C1238 C1237 1.287 . S
C1238 C1239 1.524 . S
C1238 H1257 0.913 . S
C1239 H1215 0.950 . S
C1239 C1238 1.524 . S
C1239 C1240 1.415 . S
C1240 H1216 0.950 . S
C1240 C1235 1.363 . S
C1240 C1239 1.415 . S
C1241 H1217 0.951 . S
C1241 C1242 1.366 . S
C1241 C1243 1.388 . S
C1242 C1241 1.366 . S
C1242 C1246 1.385 . S
C1243 H1218 0.951 . S
C1243 C1241 1.388 . S
C1243 C1244 1.366 . S
C1244 C1243 1.366 . S
C1244 C1245 1.414 . S
C1244 C1247 1.499 . S
C1245 H1219 0.950 . S
C1245 C1244 1.414 . S
C1245 C1246 1.374 . S
C1246 H1220 0.950 . S
C1246 C1242 1.385 . S
C1246 C1245 1.374 . S
C1247 C1244 1.499 . S
C1247 C1248 1.373 . S
C1247 C1249 1.389 . S
C1248 H1221 0.950 . S
C1248 C1234 1.377 . S
C1248 C1247 1.373 . S
C1249 C1233 1.377 . S
C1249 C1247 1.389 . S
C1249 C1250 1.524 . S
C1250 C1249 1.524 . S
C1250 C1251 1.397 . S
C1250 C1255 1.363 . S
C1251 H1222 0.950 . S
C1251 C1250 1.397 . S
C1251 C1252 1.334 . S
C1252 H1223 0.950 . S
C1252 C1251 1.334 . S
C1252 C1253 1.287 . S
C1253 C1252 1.287 . S
C1253 C1254 1.524 . S
C1253 H1256 0.999 . S
C1254 H1224 0.950 . S
C1254 C1253 1.524 . S
C1254 C1255 1.415 . S
C1255 H1225 0.950 . S
C1255 C1250 1.363 . S
C1255 C1254 1.415 . S
H1256 C1253 0.999 . S
H1257 C1238 0.913 . S
H1258 C1276 0.951 . S
H1259 C1278 0.951 . S
H1260 C1280 0.950 . S
H1261 C1281 0.950 . S
H1262 C1283 0.950 . S
H1263 C1286 0.950 . S
H1264 C1287 0.950 . S
H1265 C1289 0.950 . S
H1266 C1290 0.950 . S
H1267 C1291 0.951 . S
H1268 C1293 0.951 . S
H1269 C1295 0.950 . S
H1270 C1296 0.950 . S
H1271 C1298 0.950 . S
H1272 C1301 0.950 . S
H1273 C1302 0.950 . S
H1274 C1304 0.950 . S
H1275 C1305 0.950 . S
C1276 H1258 0.951 . S
C1276 C1277 1.366 . S
C1276 C1278 1.388 . S
C1277 C1276 1.366 . S
C1277 C1281 1.385 . S
C1278 H1259 0.951 . S
C1278 C1276 1.388 . S
C1278 C1279 1.366 . S
C1279 C1278 1.366 . S
C1279 C1280 1.414 . S
C1279 C1282 1.499 . S
C1280 H1260 0.950 . S
C1280 C1279 1.414 . S
C1280 C1281 1.374 . S
C1281 H1261 0.950 . S
C1281 C1277 1.385 . S
C1281 C1280 1.374 . S
C1282 C1279 1.499 . S
C1282 C1283 1.373 . S
C1282 C1284 1.389 . S
C1283 H1262 0.950 . S
C1283 C1282 1.373 . S
C1283 C1299 1.377 . S
C1284 C1282 1.389 . S
C1284 C1285 1.524 . S
C1284 C1298 1.377 . S
C1285 C1284 1.524 . S
C1285 C1286 1.397 . S
C1285 C1290 1.363 . S
C1286 H1263 0.950 . S
C1286 C1285 1.397 . S
C1286 C1287 1.334 . S
C1287 H1264 0.950 . S
C1287 C1286 1.334 . S
C1287 C1288 1.287 . S
C1288 C1287 1.287 . S
C1288 C1289 1.524 . S
C1288 H1307 0.913 . S
C1289 H1265 0.950 . S
C1289 C1288 1.524 . S
C1289 C1290 1.415 . S
C1290 H1266 0.950 . S
C1290 C1285 1.363 . S
C1290 C1289 1.415 . S
C1291 H1267 0.951 . S
C1291 C1292 1.366 1_556 S
C1291 C1293 1.388 . S
C1292 C1291 1.366 1_554 S
C1292 C1296 1.385 . S
C1293 H1268 0.951 . S
C1293 C1291 1.388 . S
C1293 C1294 1.366 . S
C1294 C1293 1.366 . S
C1294 C1295 1.414 1_556 S
C1294 C1297 1.499 . S
C1295 H1269 0.950 . S
C1295 C1294 1.414 1_554 S
C1295 C1296 1.374 . S
C1296 H1270 0.950 . S
C1296 C1292 1.385 . S
C1296 C1295 1.374 . S
C1297 C1294 1.499 . S
C1297 C1298 1.373 . S
C1297 C1299 1.389 . S
C1298 H1271 0.950 . S
C1298 C1284 1.377 . S
C1298 C1297 1.373 . S
C1299 C1283 1.377 . S
C1299 C1297 1.389 . S
C1299 C1300 1.524 . S
C1300 C1299 1.524 . S
C1300 C1301 1.397 1_556 S
C1300 C1305 1.363 . S
C1301 H1272 0.950 . S
C1301 C1300 1.397 1_554 S
C1301 C1302 1.334 . S
C1302 H1273 0.950 . S
C1302 C1301 1.334 . S
C1302 C1303 1.287 . S
C1303 C1302 1.287 . S
C1303 C1304 1.524 1_554 S
C1303 H1306 0.999 . S
C1304 H1274 0.950 . S
C1304 C1303 1.524 1_556 S
C1304 C1305 1.415 . S
C1305 H1275 0.950 . S
C1305 C1300 1.363 . S
C1305 C1304 1.415 . S
H1306 C1303 0.999 . S
H1307 C1288 0.913 . S
H1308 C1326 0.951 . S
H1309 C1328 0.951 . S
H1310 C1330 0.950 . S
H1311 C1331 0.950 . S
H1312 C1333 0.950 . S
H1313 C1336 0.950 . S
H1314 C1337 0.950 . S
H1315 C1339 0.950 . S
H1316 C1340 0.950 . S
H1317 C1341 0.951 . S
H1318 C1343 0.951 . S
H1319 C1345 0.950 . S
H1320 C1346 0.950 . S
H1321 C1348 0.950 . S
H1322 C1351 0.950 . S
H1323 C1352 0.950 . S
H1324 C1354 0.950 . S
H1325 C1355 0.950 . S
C1326 H1308 0.951 . S
C1326 C1327 1.366 . S
C1326 C1328 1.388 . S
C1327 C1326 1.366 . S
C1327 C1331 1.385 . S
C1328 H1309 0.951 . S
C1328 C1326 1.388 . S
C1328 C1329 1.366 . S
C1329 C1328 1.366 . S
C1329 C1330 1.414 . S
C1329 C1332 1.499 . S
C1330 H1310 0.950 . S
C1330 C1329 1.414 . S
C1330 C1331 1.374 . S
C1331 H1311 0.950 . S
C1331 C1327 1.385 . S
C1331 C1330 1.374 . S
C1332 C1329 1.499 . S
C1332 C1333 1.373 . S
C1332 C1334 1.389 . S
C1333 H1312 0.950 . S
C1333 C1332 1.373 . S
C1333 C1349 1.377 . S
C1334 C1332 1.389 . S
C1334 C1335 1.524 . S
C1334 C1348 1.377 . S
C1335 C1334 1.524 . S
C1335 C1336 1.397 . S
C1335 C1340 1.363 . S
C1336 H1313 0.950 . S
C1336 C1335 1.397 . S
C1336 C1337 1.334 . S
C1337 H1314 0.950 . S
C1337 C1336 1.334 . S
C1337 C1338 1.287 . S
C1338 C1337 1.287 . S
C1338 C1339 1.524 . S
C1338 H1357 0.913 . S
C1339 H1315 0.950 . S
C1339 C1338 1.524 . S
C1339 C1340 1.415 . S
C1340 H1316 0.950 . S
C1340 C1335 1.363 . S
C1340 C1339 1.415 . S
C1341 H1317 0.951 . S
C1341 C1342 1.366 . S
C1341 C1343 1.388 . S
C1342 C1341 1.366 . S
C1342 C1346 1.385 . S
C1343 H1318 0.951 . S
C1343 C1341 1.388 . S
C1343 C1344 1.366 . S
C1344 C1343 1.366 . S
C1344 C1345 1.414 . S
C1344 C1347 1.499 . S
C1345 H1319 0.950 . S
C1345 C1344 1.414 . S
C1345 C1346 1.374 . S
C1346 H1320 0.950 . S
C1346 C1342 1.385 . S
C1346 C1345 1.374 . S
C1347 C1344 1.499 . S
C1347 C1348 1.373 . S
C1347 C1349 1.389 . S
C1348 H1321 0.950 . S
C1348 C1334 1.377 . S
C1348 C1347 1.373 . S
C1349 C1333 1.377 . S
C1349 C1347 1.389 . S
C1349 C1350 1.524 . S
C1350 C1349 1.524 . S
C1350 C1351 1.397 . S
C1350 C1355 1.363 . S
C1351 H1322 0.950 . S
C1351 C1350 1.397 . S
C1351 C1352 1.334 . S
C1352 H1323 0.950 . S
C1352 C1351 1.334 . S
C1352 C1353 1.287 . S
C1353 C1352 1.287 . S
C1353 C1354 1.524 . S
C1353 H1356 0.999 . S
C1354 H1324 0.950 . S
C1354 C1353 1.524 . S
C1354 C1355 1.415 . S
C1355 H1325 0.950 . S
C1355 C1350 1.363 . S
C1355 C1354 1.415 . S
H1356 C1353 0.999 . S
H1357 C1338 0.913 . S
H1358 C1376 0.951 . S
H1359 C1378 0.951 . S
H1360 C1380 0.950 . S
H1361 C1381 0.950 . S
H1362 C1383 0.950 . S
H1363 C1386 0.950 . S
H1364 C1387 0.950 . S
H1365 C1389 0.950 . S
H1366 C1390 0.950 . S
H1367 C1391 0.951 . S
H1368 C1393 0.951 . S
H1369 C1395 0.950 . S
H1370 C1396 0.950 . S
H1371 C1398 0.950 . S
H1372 C1401 0.950 . S
H1373 C1402 0.950 . S
H1374 C1404 0.950 . S
H1375 C1405 0.952 . S
C1376 H1358 0.951 . S
C1376 C1377 1.366 . S
C1376 C1378 1.388 . S
C1377 C1376 1.366 . S
C1377 C1381 1.385 . S
C1378 H1359 0.951 . S
C1378 C1376 1.388 . S
C1378 C1379 1.366 . S
C1379 C1378 1.366 . S
C1379 C1380 1.414 . S
C1379 C1382 1.499 . S
C1380 H1360 0.950 . S
C1380 C1379 1.414 . S
C1380 C1381 1.374 . S
C1381 H1361 0.950 . S
C1381 C1377 1.385 . S
C1381 C1380 1.374 . S
C1382 C1379 1.499 . S
C1382 C1383 1.373 . S
C1382 C1384 1.389 . S
C1383 H1362 0.950 . S
C1383 C1382 1.373 . S
C1383 C1399 1.377 . S
C1384 C1382 1.389 . S
C1384 C1385 1.524 . S
C1384 C1398 1.377 . S
C1385 C1384 1.524 . S
C1385 C1386 1.397 . S
C1385 C1390 1.363 . S
C1386 H1363 0.950 . S
C1386 C1385 1.397 . S
C1386 C1387 1.334 . S
C1387 H1364 0.950 . S
C1387 C1386 1.334 . S
C1387 C1388 1.287 . S
C1388 C1387 1.287 . S
C1388 C1389 1.524 . S
C1388 H1407 0.913 . S
C1389 H1365 0.950 . S
C1389 C1388 1.524 . S
C1389 C1390 1.415 . S
C1390 H1366 0.950 . S
C1390 C1385 1.363 . S
C1390 C1389 1.415 . S
C1391 H1367 0.951 . S
C1391 C1392 1.366 . S
C1391 C1393 1.388 . S
C1392 C1391 1.366 . S
C1392 C1396 1.385 . S
C1393 H1368 0.951 . S
C1393 C1391 1.388 . S
C1393 C1394 1.366 . S
C1394 C1393 1.366 . S
C1394 C1395 1.414 . S
C1394 C1397 1.499 1_554 S
C1395 H1369 0.950 . S
C1395 C1394 1.414 . S
C1395 C1396 1.374 . S
C1396 H1370 0.950 . S
C1396 C1392 1.385 . S
C1396 C1395 1.374 . S
C1397 C1394 1.499 1_556 S
C1397 C1398 1.373 . S
C1397 C1399 1.389 . S
C1398 H1371 0.950 . S
C1398 C1384 1.377 . S
C1398 C1397 1.373 . S
C1399 C1383 1.377 . S
C1399 C1397 1.389 . S
C1399 C1400 1.524 1_556 S
C1400 C1399 1.524 1_554 S
C1400 C1401 1.397 . S
C1400 C1405 1.363 . S
C1401 H1372 0.950 . S
C1401 C1400 1.397 . S
C1401 C1402 1.334 . S
C1402 H1373 0.950 . S
C1402 C1401 1.334 . S
C1402 C1403 1.287 . S
C1403 C1402 1.287 . S
C1403 C1404 1.524 . S
C1403 H1406 0.999 . S
C1404 H1374 0.950 . S
C1404 C1403 1.524 . S
C1404 C1405 1.415 . S
C1405 H1375 0.952 . S
C1405 C1400 1.363 . S
C1405 C1404 1.415 . S
H1406 C1403 0.999 . S
H1407 C1388 0.913 . S
H1408 C1426 0.951 . S
H1409 C1428 0.951 . S
H1410 C1430 0.950 . S
H1411 C1431 0.950 . S
H1412 C1433 0.950 . S
H1413 C1436 0.950 . S
H1414 C1437 0.950 . S
H1415 C1439 0.950 . S
H1416 C1440 0.950 . S
H1417 C1441 0.951 . S
H1418 C1443 0.951 . S
H1419 C1445 0.950 . S
H1420 C1446 0.950 . S
H1421 C1448 0.950 . S
H1422 C1451 0.950 . S
H1423 C1452 0.950 . S
H1424 C1454 0.950 . S
H1425 C1455 0.950 . S
C1426 H1408 0.951 . S
C1426 C1427 1.366 1_554 S
C1426 C1428 1.388 . S
C1427 C1426 1.366 1_556 S
C1427 C1431 1.385 . S
C1428 H1409 0.951 . S
C1428 C1426 1.388 . S
C1428 C1429 1.366 . S
C1429 C1428 1.366 . S
C1429 C1430 1.414 . S
C1429 C1432 1.499 . S
C1430 H1410 0.950 . S
C1430 C1429 1.414 . S
C1430 C1431 1.374 1_554 S
C1431 H1411 0.950 . S
C1431 C1427 1.385 . S
C1431 C1430 1.374 1_556 S
C1432 C1429 1.499 . S
C1432 C1433 1.373 . S
C1432 C1434 1.389 . S
C1433 H1412 0.950 . S
C1433 C1432 1.373 . S
C1433 C1449 1.377 . S
C1434 C1432 1.389 . S
C1434 C1435 1.524 . S
C1434 C1448 1.377 . S
C1435 C1434 1.524 . S
C1435 C1436 1.397 . S
C1435 C1440 1.363 . S
C1436 H1413 0.950 . S
C1436 C1435 1.397 . S
C1436 C1437 1.334 . S
C1437 H1414 0.950 . S
C1437 C1436 1.334 . S
C1437 C1438 1.287 . S
C1438 C1437 1.287 . S
C1438 C1439 1.524 . S
C1438 H1457 0.913 . S
C1439 H1415 0.950 . S
C1439 C1438 1.524 . S
C1439 C1440 1.415 . S
C1440 H1416 0.950 . S
C1440 C1435 1.363 . S
C1440 C1439 1.415 . S
C1441 H1417 0.951 . S
C1441 C1442 1.366 . S
C1441 C1443 1.388 . S
C1442 C1441 1.366 . S
C1442 C1446 1.385 . S
C1443 H1418 0.951 . S
C1443 C1441 1.388 . S
C1443 C1444 1.366 . S
C1444 C1443 1.366 . S
C1444 C1445 1.414 . S
C1444 C1447 1.499 . S
C1445 H1419 0.950 . S
C1445 C1444 1.414 . S
C1445 C1446 1.374 . S
C1446 H1420 0.950 . S
C1446 C1442 1.385 . S
C1446 C1445 1.374 . S
C1447 C1444 1.499 . S
C1447 C1448 1.373 . S
C1447 C1449 1.389 . S
C1448 H1421 0.950 . S
C1448 C1434 1.377 . S
C1448 C1447 1.373 . S
C1449 C1433 1.377 . S
C1449 C1447 1.389 . S
C1449 C1450 1.524 . S
C1450 C1449 1.524 . S
C1450 C1451 1.397 . S
C1450 C1455 1.363 . S
C1451 H1422 0.950 . S
C1451 C1450 1.397 . S
C1451 C1452 1.334 . S
C1452 H1423 0.950 . S
C1452 C1451 1.334 . S
C1452 C1453 1.287 . S
C1453 C1452 1.287 . S
C1453 C1454 1.524 . S
C1453 H1456 0.999 . S
C1454 H1424 0.950 . S
C1454 C1453 1.524 . S
C1454 C1455 1.415 . S
C1455 H1425 0.950 . S
C1455 C1450 1.363 . S
C1455 C1454 1.415 . S
H1456 C1453 0.999 . S
H1457 C1438 0.913 . S
H1458 C1476 0.951 . S
H1459 C1478 0.951 . S
H1460 C1480 0.950 . S
H1461 C1481 0.950 . S
H1462 C1483 0.950 . S
H1463 C1486 0.950 . S
H1464 C1487 0.950 . S
H1465 C1489 0.950 . S
H1466 C1490 0.950 . S
H1467 C1491 0.951 . S
H1468 C1493 0.951 . S
H1469 C1495 0.950 . S
H1470 C1496 0.950 . S
H1471 C1498 0.950 . S
H1472 C1501 0.950 . S
H1473 C1502 0.950 . S
H1474 C1504 0.950 . S
H1475 C1505 0.950 . S
C1476 H1458 0.951 . S
C1476 C1477 1.366 . S
C1476 C1478 1.388 . S
C1477 C1476 1.366 . S
C1477 C1481 1.385 . S
C1478 H1459 0.951 . S
C1478 C1476 1.388 . S
C1478 C1479 1.366 . S
C1479 C1478 1.366 . S
C1479 C1480 1.414 . S
C1479 C1482 1.499 . S
C1480 H1460 0.950 . S
C1480 C1479 1.414 . S
C1480 C1481 1.374 . S
C1481 H1461 0.950 . S
C1481 C1477 1.385 . S
C1481 C1480 1.374 . S
C1482 C1479 1.499 . S
C1482 C1483 1.373 . S
C1482 C1484 1.389 . S
C1483 H1462 0.950 . S
C1483 C1482 1.373 . S
C1483 C1499 1.377 . S
C1484 C1482 1.389 . S
C1484 C1485 1.524 . S
C1484 C1498 1.377 . S
C1485 C1484 1.524 . S
C1485 C1486 1.397 . S
C1485 C1490 1.363 . S
C1486 H1463 0.950 . S
C1486 C1485 1.397 . S
C1486 C1487 1.334 . S
C1487 H1464 0.950 . S
C1487 C1486 1.334 . S
C1487 C1488 1.287 . S
C1488 C1487 1.287 . S
C1488 C1489 1.524 . S
C1488 H1507 0.913 . S
C1489 H1465 0.950 . S
C1489 C1488 1.524 . S
C1489 C1490 1.415 . S
C1490 H1466 0.950 . S
C1490 C1485 1.363 . S
C1490 C1489 1.415 . S
C1491 H1467 0.951 . S
C1491 C1492 1.366 . S
C1491 C1493 1.388 . S
C1492 C1491 1.366 . S
C1492 C1496 1.385 . S
C1493 H1468 0.951 . S
C1493 C1491 1.388 . S
C1493 C1494 1.366 . S
C1494 C1493 1.366 . S
C1494 C1495 1.414 . S
C1494 C1497 1.499 . S
C1495 H1469 0.950 . S
C1495 C1494 1.414 . S
C1495 C1496 1.374 . S
C1496 H1470 0.950 . S
C1496 C1492 1.385 . S
C1496 C1495 1.374 . S
C1497 C1494 1.499 . S
C1497 C1498 1.373 . S
C1497 C1499 1.389 . S
C1498 H1471 0.950 . S
C1498 C1484 1.377 . S
C1498 C1497 1.373 . S
C1499 C1483 1.377 . S
C1499 C1497 1.389 . S
C1499 C1500 1.524 . S
C1500 C1499 1.524 . S
C1500 C1501 1.397 . S
C1500 C1505 1.363 . S
C1501 H1472 0.950 . S
C1501 C1500 1.397 . S
C1501 C1502 1.334 . S
C1502 H1473 0.950 . S
C1502 C1501 1.334 . S
C1502 C1503 1.287 . S
C1503 C1502 1.287 . S
C1503 C1504 1.524 . S
C1503 H1506 0.999 . S
C1504 H1474 0.950 . S
C1504 C1503 1.524 . S
C1504 C1505 1.415 . S
C1505 H1475 0.950 . S
C1505 C1500 1.363 . S
C1505 C1504 1.415 . S
H1506 C1503 0.999 . S
H1507 C1488 0.913 . S
H1508 C1526 0.951 . S
H1509 C1528 0.951 . S
H1510 C1530 0.950 . S
H1511 C1531 0.950 . S
H1512 C1533 0.950 . S
H1513 C1536 0.950 . S
H1514 C1537 0.950 . S
H1515 C1539 0.950 . S
H1516 C1540 0.950 . S
H1517 C1541 0.951 . S
H1518 C1543 0.951 . S
H1519 C1545 0.950 . S
H1520 C1546 0.950 . S
H1521 C1548 0.950 . S
H1522 C1551 0.950 . S
H1523 C1552 0.950 . S
H1524 C1554 0.950 . S
H1525 C1555 0.950 . S
C1526 H1508 0.951 . S
C1526 C1527 1.366 . S
C1526 C1528 1.388 . S
C1527 C1526 1.366 . S
C1527 C1531 1.385 . S
C1528 H1509 0.951 . S
C1528 C1526 1.388 . S
C1528 C1529 1.366 . S
C1529 C1528 1.366 . S
C1529 C1530 1.414 . S
C1529 C1532 1.499 . S
C1530 H1510 0.950 . S
C1530 C1529 1.414 . S
C1530 C1531 1.374 . S
C1531 H1511 0.950 . S
C1531 C1527 1.385 . S
C1531 C1530 1.374 . S
C1532 C1529 1.499 . S
C1532 C1533 1.373 . S
C1532 C1534 1.389 . S
C1533 H1512 0.950 . S
C1533 C1532 1.373 . S
C1533 C1549 1.377 . S
C1534 C1532 1.389 . S
C1534 C1535 1.524 . S
C1534 C1548 1.377 . S
C1535 C1534 1.524 . S
C1535 C1536 1.397 . S
C1535 C1540 1.363 . S
C1536 H1513 0.950 . S
C1536 C1535 1.397 . S
C1536 C1537 1.334 . S
C1537 H1514 0.950 . S
C1537 C1536 1.334 . S
C1537 C1538 1.287 . S
C1538 C1537 1.287 . S
C1538 C1539 1.524 . S
C1538 H1557 0.913 . S
C1539 H1515 0.950 . S
C1539 C1538 1.524 . S
C1539 C1540 1.415 . S
C1540 H1516 0.950 . S
C1540 C1535 1.363 . S
C1540 C1539 1.415 . S
C1541 H1517 0.951 . S
C1541 C1542 1.366 . S
C1541 C1543 1.388 . S
C1542 C1541 1.366 . S
C1542 C1546 1.385 . S
C1543 H1518 0.951 . S
C1543 C1541 1.388 . S
C1543 C1544 1.366 . S
C1544 C1543 1.366 . S
C1544 C1545 1.414 . S
C1544 C1547 1.499 . S
C1545 H1519 0.950 . S
C1545 C1544 1.414 . S
C1545 C1546 1.374 . S
C1546 H1520 0.950 . S
C1546 C1542 1.385 . S
C1546 C1545 1.374 . S
C1547 C1544 1.499 . S
C1547 C1548 1.373 . S
C1547 C1549 1.389 . S
C1548 H1521 0.950 . S
C1548 C1534 1.377 . S
C1548 C1547 1.373 . S
C1549 C1533 1.377 . S
C1549 C1547 1.389 . S
C1549 C1550 1.524 . S
C1550 C1549 1.524 . S
C1550 C1551 1.397 . S
C1550 C1555 1.363 . S
C1551 H1522 0.950 . S
C1551 C1550 1.397 . S
C1551 C1552 1.334 . S
C1552 H1523 0.950 . S
C1552 C1551 1.334 . S
C1552 C1553 1.287 . S
C1553 C1552 1.287 . S
C1553 C1554 1.524 . S
C1553 H1556 0.999 . S
C1554 H1524 0.950 . S
C1554 C1553 1.524 . S
C1554 C1555 1.415 . S
C1555 H1525 0.950 . S
C1555 C1550 1.363 . S
C1555 C1554 1.415 . S
H1556 C1553 0.999 . S
H1557 C1538 0.913 . S
H1558 C1576 0.951 . S
H1559 C1578 0.951 . S
H1560 C1580 0.950 . S
H1561 C1581 0.950 . S
H1562 C1583 0.950 . S
H1563 C1586 0.950 . S
H1564 C1587 0.950 . S
H1565 C1589 0.950 . S
H1566 C1590 0.950 . S
H1567 C1591 0.951 . S
H1568 C1593 0.951 . S
H1569 C1595 0.950 . S
H1570 C1596 0.950 . S
H1571 C1598 0.950 . S
H1572 C1601 0.950 . S
H1573 C1602 0.950 . S
H1574 C1604 0.950 . S
H1575 C1605 0.950 . S
C1576 H1558 0.951 . S
C1576 C1577 1.366 . S
C1576 C1578 1.388 . S
C1577 C1576 1.366 . S
C1577 C1581 1.385 . S
C1578 H1559 0.951 . S
C1578 C1576 1.388 . S
C1578 C1579 1.366 . S
C1579 C1578 1.366 . S
C1579 C1580 1.414 . S
C1579 C1582 1.499 . S
C1580 H1560 0.950 . S
C1580 C1579 1.414 . S
C1580 C1581 1.374 . S
C1581 H1561 0.950 . S
C1581 C1577 1.385 . S
C1581 C1580 1.374 . S
C1582 C1579 1.499 . S
C1582 C1583 1.373 . S
C1582 C1584 1.389 . S
C1583 H1562 0.950 . S
C1583 C1582 1.373 . S
C1583 C1599 1.377 . S
C1584 C1582 1.389 . S
C1584 C1585 1.524 . S
C1584 C1598 1.377 . S
C1585 C1584 1.524 . S
C1585 C1586 1.397 . S
C1585 C1590 1.363 . S
C1586 H1563 0.950 . S
C1586 C1585 1.397 . S
C1586 C1587 1.334 . S
C1587 H1564 0.950 . S
C1587 C1586 1.334 . S
C1587 C1588 1.287 . S
C1588 C1587 1.287 . S
C1588 C1589 1.524 . S
C1588 H1607 0.913 . S
C1589 H1565 0.950 . S
C1589 C1588 1.524 . S
C1589 C1590 1.415 . S
C1590 H1566 0.950 . S
C1590 C1585 1.363 . S
C1590 C1589 1.415 . S
C1591 H1567 0.951 . S
C1591 C1592 1.366 . S
C1591 C1593 1.388 . S
C1592 C1591 1.366 . S
C1592 C1596 1.385 . S
C1593 H1568 0.951 . S
C1593 C1591 1.388 . S
C1593 C1594 1.366 . S
C1594 C1593 1.366 . S
C1594 C1595 1.414 . S
C1594 C1597 1.499 . S
C1595 H1569 0.950 . S
C1595 C1594 1.414 . S
C1595 C1596 1.374 . S
C1596 H1570 0.950 . S
C1596 C1592 1.385 . S
C1596 C1595 1.374 . S
C1597 C1594 1.499 . S
C1597 C1598 1.373 . S
C1597 C1599 1.389 . S
C1598 H1571 0.950 . S
C1598 C1584 1.377 . S
C1598 C1597 1.373 . S
C1599 C1583 1.377 . S
C1599 C1597 1.389 . S
C1599 C1600 1.524 . S
C1600 C1599 1.524 . S
C1600 C1601 1.397 . S
C1600 C1605 1.363 . S
C1601 H1572 0.950 . S
C1601 C1600 1.397 . S
C1601 C1602 1.334 . S
C1602 H1573 0.950 . S
C1602 C1601 1.334 . S
C1602 C1603 1.287 . S
C1603 C1602 1.287 . S
C1603 C1604 1.524 . S
C1603 H1606 0.999 . S
C1604 H1574 0.950 . S
C1604 C1603 1.524 . S
C1604 C1605 1.415 . S
C1605 H1575 0.950 . S
C1605 C1600 1.363 . S
C1605 C1604 1.415 . S
H1606 C1603 0.999 . S
H1607 C1588 0.913 . S
H1608 C1626 0.951 . S
H1609 C1628 0.939 1_556 S
H1610 C1630 0.950 . S
H1611 C1631 0.950 . S
H1612 C1633 0.950 . S
H1613 C1636 0.950 . S
H1614 C1637 0.950 . S
H1615 C1639 0.950 . S
H1616 C1640 0.950 . S
H1617 C1641 0.951 . S
H1618 C1643 0.951 . S
H1619 C1645 0.950 1_556 S
H1620 C1646 0.950 1_556 S
H1621 C1648 0.950 . S
H1622 C1651 0.950 . S
H1623 C1652 0.950 . S
H1624 C1654 0.950 . S
H1625 C1655 0.950 . S
C1626 H1608 0.951 . S
C1626 C1627 1.366 . S
C1626 C1628 1.388 . S
C1627 C1626 1.366 . S
C1627 C1631 1.385 . S
C1628 H1609 0.939 1_554 S
C1628 C1626 1.388 . S
C1628 C1629 1.366 . S
C1629 C1628 1.366 . S
C1629 C1630 1.414 . S
C1629 C1632 1.499 . S
C1630 H1610 0.950 . S
C1630 C1629 1.414 . S
C1630 C1631 1.374 . S
C1631 H1611 0.950 . S
C1631 C1627 1.385 . S
C1631 C1630 1.374 . S
C1632 C1629 1.499 . S
C1632 C1633 1.373 . S
C1632 C1634 1.389 . S
C1633 H1612 0.950 . S
C1633 C1632 1.373 . S
C1633 C1649 1.377 1_545 S
C1634 C1632 1.389 . S
C1634 C1635 1.524 . S
C1634 C1648 1.377 1_545 S
C1635 C1634 1.524 . S
C1635 C1636 1.397 . S
C1635 C1640 1.363 1_554 S
C1636 H1613 0.950 . S
C1636 C1635 1.397 . S
C1636 C1637 1.334 . S
C1637 H1614 0.950 . S
C1637 C1636 1.334 . S
C1637 C1638 1.287 1_554 S
C1638 C1637 1.287 1_556 S
C1638 C1639 1.524 . S
C1638 H1657 0.913 . S
C1639 H1615 0.950 . S
C1639 C1638 1.524 . S
C1639 C1640 1.415 . S
C1640 H1616 0.950 . S
C1640 C1635 1.363 1_556 S
C1640 C1639 1.415 . S
C1641 H1617 0.951 . S
C1641 C1642 1.366 . S
C1641 C1643 1.388 . S
C1642 C1641 1.366 . S
C1642 C1646 1.385 . S
C1643 H1618 0.951 . S
C1643 C1641 1.388 . S
C1643 C1644 1.366 . S
C1644 C1643 1.366 . S
C1644 C1645 1.414 . S
C1644 C1647 1.499 . S
C1645 H1619 0.950 1_554 S
C1645 C1644 1.414 . S
C1645 C1646 1.374 . S
C1646 H1620 0.950 1_554 S
C1646 C1642 1.385 . S
C1646 C1645 1.374 . S
C1647 C1644 1.499 . S
C1647 C1648 1.373 . S
C1647 C1649 1.389 . S
C1648 H1621 0.950 . S
C1648 C1634 1.377 1_565 S
C1648 C1647 1.373 . S
C1649 C1633 1.377 1_565 S
C1649 C1647 1.389 . S
C1649 C1650 1.524 . S
C1650 C1649 1.524 . S
C1650 C1651 1.397 . S
C1650 C1655 1.363 . S
C1651 H1622 0.950 . S
C1651 C1650 1.397 . S
C1651 C1652 1.334 . S
C1652 H1623 0.950 . S
C1652 C1651 1.334 . S
C1652 C1653 1.287 . S
C1653 C1652 1.287 . S
C1653 C1654 1.524 . S
C1653 H1656 0.999 . S
C1654 H1624 0.950 . S
C1654 C1653 1.524 . S
C1654 C1655 1.415 . S
C1655 H1625 0.950 . S
C1655 C1650 1.363 . S
C1655 C1654 1.415 . S
H1656 C1653 0.999 . S
H1657 C1638 0.913 . S
H1658 C1676 0.951 . S
H1659 C1678 0.951 . S
H1660 C1680 0.950 . S
H1661 C1681 0.950 . S
H1662 C1683 0.950 . S
H1663 C1686 0.950 . S
H1664 C1687 0.950 . S
H1665 C1689 0.950 . S
H1666 C1690 0.950 . S
H1667 C1691 0.951 . S
H1668 C1693 0.951 . S
H1669 C1695 0.950 . S
H1670 C1696 0.950 . S
H1671 C1698 0.950 . S
H1672 C1701 0.950 . S
H1673 C1702 0.950 . S
H1674 C1704 0.950 . S
H1675 C1705 0.950 . S
C1676 H1658 0.951 . S
C1676 C1677 1.366 . S
C1676 C1678 1.388 . S
C1677 C1676 1.366 . S
C1677 C1681 1.385 . S
C1678 H1659 0.951 . S
C1678 C1676 1.388 . S
C1678 C1679 1.366 . S
C1679 C1678 1.366 . S
C1679 C1680 1.414 . S
C1679 C1682 1.499 . S
C1680 H1660 0.950 . S
C1680 C1679 1.414 . S
C1680 C1681 1.374 . S
C1681 H1661 0.950 . S
C1681 C1677 1.385 . S
C1681 C1680 1.374 . S
C1682 C1679 1.499 . S
C1682 C1683 1.373 . S
C1682 C1684 1.389 . S
C1683 H1662 0.950 . S
C1683 C1682 1.373 . S
C1683 C1699 1.377 . S
C1684 C1682 1.389 . S
C1684 C1685 1.524 . S
C1684 C1698 1.377 . S
C1685 C1684 1.524 . S
C1685 C1686 1.397 . S
C1685 C1690 1.363 . S
C1686 H1663 0.950 . S
C1686 C1685 1.397 . S
C1686 C1687 1.334 . S
C1687 H1664 0.950 . S
C1687 C1686 1.334 . S
C1687 C1688 1.287 . S
C1688 C1687 1.287 . S
C1688 C1689 1.524 . S
C1688 H1707 0.913 . S
C1689 H1665 0.950 . S
C1689 C1688 1.524 . S
C1689 C1690 1.415 . S
C1690 H1666 0.950 . S
C1690 C1685 1.363 . S
C1690 C1689 1.415 . S
C1691 H1667 0.951 . S
C1691 C1692 1.366 . S
C1691 C1693 1.388 . S
C1692 C1691 1.366 . S
C1692 C1696 1.385 . S
C1693 H1668 0.951 . S
C1693 C1691 1.388 . S
C1693 C1694 1.366 . S
C1694 C1693 1.366 . S
C1694 C1695 1.414 . S
C1694 C1697 1.499 . S
C1695 H1669 0.950 . S
C1695 C1694 1.414 . S
C1695 C1696 1.374 . S
C1696 H1670 0.950 . S
C1696 C1692 1.385 . S
C1696 C1695 1.374 . S
C1697 C1694 1.499 . S
C1697 C1698 1.373 . S
C1697 C1699 1.389 . S
C1698 H1671 0.950 . S
C1698 C1684 1.377 . S
C1698 C1697 1.373 . S
C1699 C1683 1.377 . S
C1699 C1697 1.389 . S
C1699 C1700 1.524 . S
C1700 C1699 1.524 . S
C1700 C1701 1.397 . S
C1700 C1705 1.363 . S
C1701 H1672 0.950 . S
C1701 C1700 1.397 . S
C1701 C1702 1.334 . S
C1702 H1673 0.950 . S
C1702 C1701 1.334 . S
C1702 C1703 1.287 . S
C1703 C1702 1.287 . S
C1703 C1704 1.524 . S
C1703 H1706 0.999 . S
C1704 H1674 0.950 . S
C1704 C1703 1.524 . S
C1704 C1705 1.415 . S
C1705 H1675 0.950 . S
C1705 C1700 1.363 . S
C1705 C1704 1.415 . S
H1706 C1703 0.999 . S
H1707 C1688 0.913 . S
H1708 C1726 0.951 . S
H1709 C1728 0.951 . S
H1710 C1730 0.950 . S
H1711 C1731 0.950 . S
H1712 C1733 0.950 . S
H1713 C1736 0.950 . S
H1714 C1737 0.950 . S
H1715 C1739 0.950 . S
H1716 C1740 0.950 . S
H1717 C1741 0.951 . S
H1718 C1743 0.951 . S
H1719 C1745 0.950 . S
H1720 C1746 0.950 . S
H1721 C1748 0.950 . S
H1722 C1751 0.950 . S
H1723 C1752 0.950 . S
H1724 C1754 0.950 . S
H1725 C1755 0.950 . S
C1726 H1708 0.951 . S
C1726 C1727 1.366 . S
C1726 C1728 1.388 . S
C1727 C1726 1.366 . S
C1727 C1731 1.385 . S
C1728 H1709 0.951 . S
C1728 C1726 1.388 . S
C1728 C1729 1.366 . S
C1729 C1728 1.366 . S
C1729 C1730 1.414 . S
C1729 C1732 1.499 . S
C1730 H1710 0.950 . S
C1730 C1729 1.414 . S
C1730 C1731 1.374 . S
C1731 H1711 0.950 . S
C1731 C1727 1.385 . S
C1731 C1730 1.374 . S
C1732 C1729 1.499 . S
C1732 C1733 1.373 . S
C1732 C1734 1.389 . S
C1733 H1712 0.950 . S
C1733 C1732 1.373 . S
C1733 C1749 1.377 1_455 S
C1734 C1732 1.389 . S
C1734 C1735 1.524 . S
C1734 C1748 1.377 1_455 S
C1735 C1734 1.524 . S
C1735 C1736 1.397 . S
C1735 C1740 1.363 . S
C1736 H1713 0.950 . S
C1736 C1735 1.397 . S
C1736 C1737 1.334 . S
C1737 H1714 0.950 . S
C1737 C1736 1.334 . S
C1737 C1738 1.287 . S
C1738 C1737 1.287 . S
C1738 C1739 1.524 . S
C1738 H1757 0.913 . S
C1739 H1715 0.950 . S
C1739 C1738 1.524 . S
C1739 C1740 1.415 . S
C1740 H1716 0.950 . S
C1740 C1735 1.363 . S
C1740 C1739 1.415 . S
C1741 H1717 0.951 . S
C1741 C1742 1.366 . S
C1741 C1743 1.388 . S
C1742 C1741 1.366 . S
C1742 C1746 1.385 . S
C1743 H1718 0.951 . S
C1743 C1741 1.388 . S
C1743 C1744 1.366 . S
C1744 C1743 1.366 . S
C1744 C1745 1.414 . S
C1744 C1747 1.499 . S
C1745 H1719 0.950 . S
C1745 C1744 1.414 . S
C1745 C1746 1.374 . S
C1746 H1720 0.950 . S
C1746 C1742 1.385 . S
C1746 C1745 1.374 . S
C1747 C1744 1.499 . S
C1747 C1748 1.373 . S
C1747 C1749 1.389 . S
C1748 H1721 0.950 . S
C1748 C1734 1.377 1_655 S
C1748 C1747 1.373 . S
C1749 C1733 1.377 1_655 S
C1749 C1747 1.389 . S
C1749 C1750 1.524 . S
C1750 C1749 1.524 . S
C1750 C1751 1.397 . S
C1750 C1755 1.363 . S
C1751 H1722 0.950 . S
C1751 C1750 1.397 . S
C1751 C1752 1.334 . S
C1752 H1723 0.950 . S
C1752 C1751 1.334 . S
C1752 C1753 1.287 . S
C1753 C1752 1.287 . S
C1753 C1754 1.524 . S
C1753 H1756 0.999 . S
C1754 H1724 0.950 . S
C1754 C1753 1.524 . S
C1754 C1755 1.415 . S
C1755 H1725 0.950 . S
C1755 C1750 1.363 . S
C1755 C1754 1.415 . S
H1756 C1753 0.999 . S
H1757 C1738 0.913 . S
H1758 C1776 0.951 . S
H1759 C1778 0.951 . S
H1760 C1780 0.950 . S
H1761 C1781 0.950 . S
H1762 C1783 0.950 . S
H1763 C1786 0.950 . S
H1764 C1787 0.950 . S
H1765 C1789 0.950 . S
H1766 C1790 0.950 . S
H1767 C1791 0.951 . S
H1768 C1793 0.951 . S
H1769 C1795 0.950 . S
H1770 C1796 0.950 . S
H1771 C1798 0.950 . S
H1772 C1801 0.950 . S
H1773 C1802 0.950 . S
H1774 C1804 0.950 . S
H1775 C1805 0.950 . S
C1776 H1758 0.951 . S
C1776 C1777 1.366 . S
C1776 C1778 1.388 . S
C1777 C1776 1.366 . S
C1777 C1781 1.385 . S
C1778 H1759 0.951 . S
C1778 C1776 1.388 . S
C1778 C1779 1.366 . S
C1779 C1778 1.366 . S
C1779 C1780 1.414 . S
C1779 C1782 1.499 . S
C1780 H1760 0.950 . S
C1780 C1779 1.414 . S
C1780 C1781 1.374 . S
C1781 H1761 0.950 . S
C1781 C1777 1.385 . S
C1781 C1780 1.374 . S
C1782 C1779 1.499 . S
C1782 C1783 1.373 . S
C1782 C1784 1.389 . S
C1783 H1762 0.950 . S
C1783 C1782 1.373 . S
C1783 C1799 1.377 1_565 S
C1784 C1782 1.389 . S
C1784 C1785 1.524 . S
C1784 C1798 1.377 1_565 S
C1785 C1784 1.524 . S
C1785 C1786 1.397 . S
C1785 C1790 1.363 . S
C1786 H1763 0.950 . S
C1786 C1785 1.397 . S
C1786 C1787 1.334 . S
C1787 H1764 0.950 . S
C1787 C1786 1.334 . S
C1787 C1788 1.287 . S
C1788 C1787 1.287 . S
C1788 C1789 1.524 . S
C1788 H1807 0.913 . S
C1789 H1765 0.950 . S
C1789 C1788 1.524 . S
C1789 C1790 1.415 . S
C1790 H1766 0.950 . S
C1790 C1785 1.363 . S
C1790 C1789 1.415 . S
C1791 H1767 0.951 . S
C1791 C1792 1.366 . S
C1791 C1793 1.388 . S
C1792 C1791 1.366 . S
C1792 C1796 1.385 . S
C1793 H1768 0.951 . S
C1793 C1791 1.388 . S
C1793 C1794 1.366 . S
C1794 C1793 1.366 . S
C1794 C1795 1.414 . S
C1794 C1797 1.499 . S
C1795 H1769 0.950 . S
C1795 C1794 1.414 . S
C1795 C1796 1.374 . S
C1796 H1770 0.950 . S
C1796 C1792 1.385 . S
C1796 C1795 1.374 . S
C1797 C1794 1.499 . S
C1797 C1798 1.373 . S
C1797 C1799 1.389 . S
C1798 H1771 0.950 . S
C1798 C1784 1.377 1_545 S
C1798 C1797 1.373 . S
C1799 C1783 1.377 1_545 S
C1799 C1797 1.389 . S
C1799 C1800 1.524 . S
C1800 C1799 1.524 . S
C1800 C1801 1.397 . S
C1800 C1805 1.363 . S
C1801 H1772 0.950 . S
C1801 C1800 1.397 . S
C1801 C1802 1.334 . S
C1802 H1773 0.950 . S
C1802 C1801 1.334 . S
C1802 C1803 1.287 . S
C1803 C1802 1.287 . S
C1803 C1804 1.524 . S
C1803 H1806 0.999 . S
C1804 H1774 0.950 . S
C1804 C1803 1.524 . S
C1804 C1805 1.415 . S
C1805 H1775 0.950 . S
C1805 C1800 1.363 . S
C1805 C1804 1.415 . S
H1806 C1803 0.999 . S
H1807 C1788 0.913 . S
H1808 C1826 0.951 . S
H1809 C1828 0.951 . S
H1810 C1830 0.950 . S
H1811 C1831 0.950 . S
H1812 C1833 0.950 . S
H1813 C1836 0.950 . S
H1814 C1837 0.950 . S
H1815 C1839 0.950 . S
H1816 C1840 0.950 . S
H1817 C1841 0.951 . S
H1818 C1843 0.951 . S
H1819 C1845 0.950 . S
H1820 C1846 0.950 . S
H1821 C1848 0.950 . S
H1822 C1851 0.950 . S
H1823 C1852 0.950 . S
H1824 C1854 0.950 . S
H1825 C1855 0.950 . S
C1826 H1808 0.951 . S
C1826 C1827 1.366 . S
C1826 C1828 1.388 . S
C1827 C1826 1.366 . S
C1827 C1831 1.385 . S
C1828 H1809 0.951 . S
C1828 C1826 1.388 . S
C1828 C1829 1.366 . S
C1829 C1828 1.366 . S
C1829 C1830 1.414 . S
C1829 C1832 1.499 . S
C1830 H1810 0.950 . S
C1830 C1829 1.414 . S
C1830 C1831 1.374 . S
C1831 H1811 0.950 . S
C1831 C1827 1.385 . S
C1831 C1830 1.374 . S
C1832 C1829 1.499 . S
C1832 C1833 1.373 . S
C1832 C1834 1.389 . S
C1833 H1812 0.950 . S
C1833 C1832 1.373 . S
C1833 C1849 1.377 . S
C1834 C1832 1.389 . S
C1834 C1835 1.524 . S
C1834 C1848 1.377 . S
C1835 C1834 1.524 . S
C1835 C1836 1.397 . S
C1835 C1840 1.363 . S
C1836 H1813 0.950 . S
C1836 C1835 1.397 . S
C1836 C1837 1.334 . S
C1837 H1814 0.950 . S
C1837 C1836 1.334 . S
C1837 C1838 1.287 . S
C1838 C1837 1.287 . S
C1838 C1839 1.524 . S
C1838 H1857 0.913 . S
C1839 H1815 0.950 . S
C1839 C1838 1.524 . S
C1839 C1840 1.415 . S
C1840 H1816 0.950 . S
C1840 C1835 1.363 . S
C1840 C1839 1.415 . S
C1841 H1817 0.951 . S
C1841 C1842 1.366 . S
C1841 C1843 1.388 . S
C1842 C1841 1.366 . S
C1842 C1846 1.385 . S
C1843 H1818 0.951 . S
C1843 C1841 1.388 . S
C1843 C1844 1.366 . S
C1844 C1843 1.366 . S
C1844 C1845 1.414 . S
C1844 C1847 1.499 . S
C1845 H1819 0.950 . S
C1845 C1844 1.414 . S
C1845 C1846 1.374 . S
C1846 H1820 0.950 . S
C1846 C1842 1.385 . S
C1846 C1845 1.374 . S
C1847 C1844 1.499 . S
C1847 C1848 1.373 . S
C1847 C1849 1.389 . S
C1848 H1821 0.950 . S
C1848 C1834 1.377 . S
C1848 C1847 1.373 . S
C1849 C1833 1.377 . S
C1849 C1847 1.389 . S
C1849 C1850 1.524 . S
C1850 C1849 1.524 . S
C1850 C1851 1.397 . S
C1850 C1855 1.363 . S
C1851 H1822 0.950 . S
C1851 C1850 1.397 . S
C1851 C1852 1.334 . S
C1852 H1823 0.950 . S
C1852 C1851 1.334 . S
C1852 C1853 1.287 . S
C1853 C1852 1.287 . S
C1853 C1854 1.524 . S
C1853 H1856 0.999 . S
C1854 H1824 0.950 . S
C1854 C1853 1.524 . S
C1854 C1855 1.415 . S
C1855 H1825 0.950 . S
C1855 C1850 1.363 . S
C1855 C1854 1.415 . S
H1856 C1853 0.999 . S
H1857 C1838 0.913 . S
H1858 C1876 0.951 . S
H1859 C1878 0.951 . S
H1860 C1880 0.950 . S
H1861 C1881 0.950 . S
H1862 C1883 0.950 . S
H1863 C1886 0.950 . S
H1864 C1887 0.950 . S
H1865 C1889 0.950 . S
H1866 C1890 0.950 . S
H1867 C1891 0.951 . S
H1868 C1893 0.951 . S
H1869 C1895 0.950 . S
H1870 C1896 0.950 . S
H1871 C1898 0.950 . S
H1872 C1901 0.950 . S
H1873 C1902 0.950 . S
H1874 C1904 0.950 . S
H1875 C1905 0.950 . S
C1876 H1858 0.951 . S
C1876 C1877 1.366 . S
C1876 C1878 1.388 . S
C1877 C1876 1.366 . S
C1877 C1881 1.385 . S
C1878 H1859 0.951 . S
C1878 C1876 1.388 . S
C1878 C1879 1.366 . S
C1879 C1878 1.366 . S
C1879 C1880 1.414 . S
C1879 C1882 1.499 . S
C1880 H1860 0.950 . S
C1880 C1879 1.414 . S
C1880 C1881 1.374 . S
C1881 H1861 0.950 . S
C1881 C1877 1.385 . S
C1881 C1880 1.374 . S
C1882 C1879 1.499 . S
C1882 C1883 1.373 . S
C1882 C1884 1.389 . S
C1883 H1862 0.950 . S
C1883 C1882 1.373 . S
C1883 C1899 1.377 1_455 S
C1884 C1882 1.389 . S
C1884 C1885 1.524 . S
C1884 C1898 1.377 1_455 S
C1885 C1884 1.524 . S
C1885 C1886 1.397 . S
C1885 C1890 1.363 . S
C1886 H1863 0.950 . S
C1886 C1885 1.397 . S
C1886 C1887 1.334 . S
C1887 H1864 0.950 . S
C1887 C1886 1.334 . S
C1887 C1888 1.287 . S
C1888 C1887 1.287 . S
C1888 C1889 1.524 . S
C1888 H1907 0.913 . S
C1889 H1865 0.950 . S
C1889 C1888 1.524 . S
C1889 C1890 1.415 . S
C1890 H1866 0.950 . S
C1890 C1885 1.363 . S
C1890 C1889 1.415 . S
C1891 H1867 0.951 . S
C1891 C1892 1.366 . S
C1891 C1893 1.388 . S
C1892 C1891 1.366 . S
C1892 C1896 1.385 . S
C1893 H1868 0.951 . S
C1893 C1891 1.388 . S
C1893 C1894 1.366 . S
C1894 C1893 1.366 . S
C1894 C1895 1.414 . S
C1894 C1897 1.499 . S
C1895 H1869 0.950 . S
C1895 C1894 1.414 . S
C1895 C1896 1.374 . S
C1896 H1870 0.950 . S
C1896 C1892 1.385 . S
C1896 C1895 1.374 . S
C1897 C1894 1.499 . S
C1897 C1898 1.373 . S
C1897 C1899 1.389 . S
C1898 H1871 0.950 . S
C1898 C1884 1.377 1_655 S
C1898 C1897 1.373 . S
C1899 C1883 1.377 1_655 S
C1899 C1897 1.389 . S
C1899 C1900 1.524 . S
C1900 C1899 1.524 . S
C1900 C1901 1.397 . S
C1900 C1905 1.363 . S
C1901 H1872 0.950 . S
C1901 C1900 1.397 . S
C1901 C1902 1.334 . S
C1902 H1873 0.950 . S
C1902 C1901 1.334 . S
C1902 C1903 1.287 . S
C1903 C1902 1.287 . S
C1903 C1904 1.524 . S
C1903 H1906 0.999 . S
C1904 H1874 0.950 . S
C1904 C1903 1.524 . S
C1904 C1905 1.415 . S
C1905 H1875 0.950 . S
C1905 C1900 1.363 . S
C1905 C1904 1.415 . S
H1906 C1903 0.999 . S
H1907 C1888 0.913 . S
C727 C52 1.302 . S
C742 C642 1.302 . S
C777 C111 1.301 . S
C792 C701 1.301 . S
C827 C406 1.302 . S
C842 C170 1.302 . S
C877 C229 1.302 . S
C892 C465 1.302 . S
C927 C524 1.301 . S
C942 C288 1.301 . S
C977 C583 1.302 . S
C992 C347 1.302 . S
C1027 C475 1.403 . S
C1042 C3 1.403 . S
C1077 C62 1.400 . S
C1092 C534 1.400 . S
C1127 C593 1.402 . S
C1142 C121 1.402 . S
C1177 C180 1.402 . S
C1192 C652 1.402 . S
C1227 C239 1.402 . S
C1242 C357 1.402 . S
C1277 C298 1.402 . S
C1292 C416 1.402 . S
C1327 C595 1.430 . S
C1342 C5 1.430 . S
C1377 C654 1.429 . S
C1392 C64 1.430 . S
C1427 C359 1.429 . S
C1442 C123 1.429 . S
C1477 C182 1.430 . S
C1492 C418 1.429 . S
C1527 C241 1.430 . S
C1542 C477 1.430 . S
C1577 C536 1.430 . S
C1592 C300 1.430 . S
C1627 C33 1.382 . S
C1642 C446 1.383 . S
C1677 C505 1.383 . S
C1692 C92 1.383 . S
C1727 C564 1.383 . S
C1742 C151 1.383 . S
C1777 C210 1.383 . S
C1792 C623 1.383 . S
C1827 C269 1.382 . S
C1842 C682 1.382 . S
C1877 C328 1.382 . S
C1892 C387 1.382 . S
