# Generated by pormake.
# Topology uon, (4)-cn, num edge types: 1
# Building blocks:
#     Node 0, Type 0, BuildingBlock: NAWXER_clean_sbu_0, # of connection points: 4
#     Node 1, Type 0, BuildingBlock: NAWXER_clean_sbu_0, # of connection points: 4
#     Node 2, Type 0, BuildingBlock: NAWXER_clean_sbu_0, # of connection points: 4
#     Node 3, Type 0, BuildingBlock: NAWXER_clean_sbu_0, # of connection points: 4
#     Node 4, Type 0, BuildingBlock: NAWXER_clean_sbu_0, # of connection points: 4
#     Node 5, Type 0, BuildingBlock: NAWXER_clean_sbu_0, # of connection points: 4
#     Edge 6, Type (0, 0), BuildingBlock: TEMPAE_clean_linker_10, # of connection points: 2
#     Edge 7, Type (0, 0), BuildingBlock: TEMPAE_clean_linker_10, # of connection points: 2
#     Edge 8, Type (0, 0), BuildingBlock: TEMPAE_clean_linker_10, # of connection points: 2
#     Edge 9, Type (0, 0), BuildingBlock: TEMPAE_clean_linker_10, # of connection points: 2
#     Edge 10, Type (0, 0), BuildingBlock: TEMPAE_clean_linker_10, # of connection points: 2
#     Edge 11, Type (0, 0), BuildingBlock: TEMPAE_clean_linker_10, # of connection points: 2
#     Edge 12, Type (0, 0), BuildingBlock: TEMPAE_clean_linker_10, # of connection points: 2
#     Edge 13, Type (0, 0), BuildingBlock: TEMPAE_clean_linker_10, # of connection points: 2
#     Edge 14, Type (0, 0), BuildingBlock: TEMPAE_clean_linker_10, # of connection points: 2
#     Edge 15, Type (0, 0), BuildingBlock: TEMPAE_clean_linker_10, # of connection points: 2
#     Edge 16, Type (0, 0), BuildingBlock: TEMPAE_clean_linker_10, # of connection points: 2
#     Edge 17, Type (0, 0), BuildingBlock: TEMPAE_clean_linker_10, # of connection points: 2
# Relax obj value: 0.135
# Max RMSD: 0.134
# Mean RMSD: 0.134
data_MOF--net-uon--node1-NAWXER_clean_sbu_0--edge1-TEMPAE_clean_linker_10
_symmetry_space_group_name_H-M    P1
_symmetry_Int_Tables_number       1
_symmetry_cell_setting            triclinic
loop_
_symmetry_equiv_pos_as_xyz
'x, y, z'
_cell_length_a     34.403088
_cell_length_b     34.228109
_cell_length_c     21.732365
_cell_angle_alpha  90.013566
_cell_angle_beta   90.109228
_cell_angle_gamma 120.0766
loop_
_atom_site_label
_atom_site_type_symbol
_atom_site_fract_x
_atom_site_fract_y
_atom_site_fract_z
_atom_type_partial_charge
C0 C 0.14018 0.35829 0.02929 0.0
C1 C 0.27975 0.47478 0.93707 0.0
O2 O 0.1736 0.37009 0.06598 0.0
Zn3 Zn 0.24576 0.41681 0.06332 0.0
O4 O 0.14721 0.37599 0.97626 0.0
Zn5 Zn 0.21095 0.41584 0.98457 0.0
O6 O 0.23868 0.37089 0.98228 0.0
O7 O 0.27088 0.378 0.07245 0.0
O8 O 0.24 0.4549 0.91592 0.0
O9 O 0.28692 0.46425 0.99109 0.0
O10 O 0.2541 0.45569 0.13202 0.0
O11 O 0.21495 0.46238 0.05668 0.0
C12 C 0.26068 0.35992 0.01955 0.0
C13 C 0.2324 0.47369 0.11074 0.0
C14 C 0.82048 0.17126 0.42291 0.0
C15 C 0.8163 0.30262 0.33472 0.0
O16 O 0.84139 0.21115 0.44497 0.0
Zn17 Zn 0.82249 0.24033 0.38228 0.0
O18 O 0.79725 0.16372 0.37383 0.0
Zn19 Zn 0.77754 0.19632 0.30954 0.0
O20 O 0.80544 0.19116 0.23309 0.0
O21 O 0.85472 0.23821 0.30072 0.0
O22 O 0.79318 0.265 0.30632 0.0
O23 O 0.83933 0.30446 0.38191 0.0
O24 O 0.75314 0.20992 0.40133 0.0
O25 O 0.71231 0.16469 0.32565 0.0
C26 C 0.84593 0.21946 0.24766 0.0
C27 C 0.71476 0.18222 0.37835 0.0
C28 C 0.66423 0.88169 0.64447 0.0
C29 C 0.53006 0.7437 0.71951 0.0
O30 O 0.6509 0.84199 0.62423 0.0
Zn31 Zn 0.59901 0.81001 0.6796 0.0
O32 O 0.64441 0.88737 0.69044 0.0
Zn33 Zn 0.59027 0.84971 0.7515 0.0
O34 O 0.62001 0.85453 0.83144 0.0
O35 O 0.62845 0.81077 0.76461 0.0
O36 O 0.54061 0.78 0.74929 0.0
O37 O 0.55429 0.74514 0.67421 0.0
O38 O 0.56082 0.84073 0.65428 0.0
O39 O 0.55334 0.87744 0.73296 0.0
C40 C 0.63446 0.82776 0.81851 0.0
C41 C 0.5461 0.86548 0.67655 0.0
C42 C 0.77523 0.67045 0.02512 0.0
C43 C 0.80194 0.55486 0.11378 0.0
O44 O 0.79704 0.65938 0.98778 0.0
Zn45 Zn 0.8224 0.61255 0.98792 0.0
O46 O 0.76387 0.65126 0.07719 0.0
Zn47 Zn 0.78842 0.61201 0.06732 0.0
O48 O 0.86077 0.65836 0.06863 0.0
O49 O 0.8861 0.65132 0.97869 0.0
O50 O 0.78066 0.57308 0.1357 0.0
O51 O 0.81874 0.56597 0.05947 0.0
O52 O 0.79161 0.57397 0.9191 0.0
O53 O 0.74607 0.56517 0.99555 0.0
C54 C 0.89375 0.66953 0.03152 0.0
C55 C 0.75217 0.55466 0.94101 0.0
C56 C 0.32275 0.84931 0.37498 0.0
C57 C 0.18954 0.80925 0.24719 0.0
O58 O 0.32398 0.86605 0.32212 0.0
Zn59 Zn 0.25871 0.83322 0.30768 0.0
O60 O 0.28501 0.82114 0.39899 0.0
Zn61 Zn 0.21517 0.78945 0.38114 0.0
O62 O 0.19906 0.72558 0.38097 0.0
O63 O 0.24397 0.76479 0.3045 0.0
O64 O 0.1816 0.79071 0.30029 0.0
O65 O 0.22974 0.83782 0.23199 0.0
O66 O 0.23953 0.86565 0.37282 0.0
O67 O 0.19615 0.81831 0.44417 0.0
C68 C 0.2215 0.72731 0.33331 0.0
C69 C 0.21682 0.85821 0.42223 0.0
C70 C 0.49921 0.28552 0.72765 0.0
C71 C 0.36731 0.14307 0.65747 0.0
O72 O 0.47236 0.28276 0.68505 0.0
Zn73 Zn 0.43085 0.21688 0.69033 0.0
O74 O 0.49189 0.24969 0.75596 0.0
Zn75 Zn 0.44571 0.17943 0.75911 0.0
O76 O 0.48474 0.15518 0.7356 0.0
O77 O 0.47191 0.19039 0.6599 0.0
O78 O 0.38991 0.13939 0.70161 0.0
O79 O 0.3775 0.18214 0.63768 0.0
O80 O 0.40278 0.21309 0.77761 0.0
O81 O 0.41922 0.17318 0.84142 0.0
C82 C 0.48967 0.16757 0.6794 0.0
C83 C 0.40027 0.19634 0.83093 0.0
C84 C 0.27811 0.31963 0.93741 0.0
C85 C 0.27623 0.3284 1.00003 0.0
C86 C 0.29665 0.29332 0.91784 0.0
C87 C 0.31302 0.27453 0.96197 0.0
C88 C 0.30933 0.28155 0.02538 0.0
C89 C 0.29141 0.30875 0.04364 0.0
C90 C 0.30042 0.28721 0.84969 0.0
C91 C 0.32551 0.26142 0.07387 0.0
C92 C 0.33523 0.18479 0.89469 0.0
C93 C 0.38087 0.21071 0.8801 0.0
C94 C 0.31312 0.20424 0.92572 0.0
C95 C 0.33717 0.25082 0.94104 0.0
C96 C 0.38398 0.27619 0.92972 0.0
C97 C 0.40518 0.25577 0.89939 0.0
C98 C 0.26341 0.17581 0.93788 0.0
C99 C 0.41101 0.32593 0.9447 0.0
H100 H 0.2666 0.33474 0.9034 0.0
H101 H 0.28973 0.31502 0.09218 0.0
H102 H 0.33635 0.30309 0.83667 0.0
H103 H 0.28435 0.2508 0.83824 0.0
H104 H 0.28452 0.30246 0.8214 0.0
H105 H 0.31593 0.26593 0.12101 0.0
H106 H 0.31154 0.22483 0.06516 0.0
H107 H 0.36263 0.27768 0.07179 0.0
H108 H 0.31624 0.15026 0.87829 0.0
H109 H 0.44027 0.27602 0.88661 0.0
H110 H 0.24474 0.18494 0.90468 0.0
H111 H 0.25526 0.18229 0.9848 0.0
H112 H 0.25136 0.13918 0.93298 0.0
H113 H 0.4003 0.34484 0.91421 0.0
H114 H 0.44765 0.33969 0.93844 0.0
H115 H 0.40492 0.33222 0.99281 0.0
C116 C 0.88722 0.20424 0.1636 0.0
C117 C 0.88367 0.23424 0.20394 0.0
C118 C 0.92644 0.21847 0.12821 0.0
C119 C 0.96222 0.26378 0.13278 0.0
C120 C 0.95753 0.29448 0.17131 0.0
C121 C 0.91861 0.27926 0.2066 0.0
C122 C 0.93036 0.18469 0.088 0.0
C123 C 0.99424 0.3433 0.17683 0.0
C124 C 0.08562 0.30434 0.10663 0.0
C125 C 0.09352 0.3275 0.05065 0.0
C126 C 0.04215 0.28011 0.13147 0.0
C127 C 1.0057 0.27951 0.10007 0.0
C128 C 1.01302 0.30047 0.04174 0.0
C129 C 0.05677 0.32398 0.0176 0.0
C130 C 0.03578 0.25769 0.19335 0.0
C131 C 0.9753 0.30101 1.00689 0.0
H132 H 0.86033 0.16938 0.16173 0.0
H133 H 0.91573 0.30272 0.2372 0.0
H134 H 0.94117 0.19841 0.04097 0.0
H135 H 0.95644 0.17808 0.10712 0.0
H136 H 0.89819 0.15215 0.08483 0.0
H137 H 0.98411 0.36339 0.2059 0.0
H138 H 0.02471 0.34524 0.19736 0.0
H139 H 1.00356 0.3591 0.13063 0.0
H140 H 0.11367 0.30638 0.13219 0.0
H141 H 0.06241 0.34159 0.97418 0.0
H142 H 1.00601 0.22321 0.19259 0.0
H143 H 0.0297 0.27739 0.22874 0.0
H144 H 0.06565 0.25543 0.20742 0.0
H145 H 0.94487 0.26699 1.00654 0.0
H146 H 0.98479 0.31251 0.95863 0.0
H147 H 0.96631 0.32425 0.03018 0.0
C148 C 0.82101 0.13116 0.51992 0.0
C149 C 0.81679 0.13148 0.45578 0.0
C150 C 0.80512 0.0901 0.55195 0.0
C151 C 0.78424 0.04866 0.51901 0.0
C152 C 0.78429 0.04942 0.45395 0.0
C153 C 0.80084 0.09075 0.42326 0.0
C154 C 0.80691 0.09086 0.62129 0.0
C155 C 0.76224 1.00636 0.41664 0.0
C156 C 0.73991 0.93367 0.59712 0.0
C157 C 0.69551 0.92229 0.60932 0.0
C158 C 0.76989 0.97526 0.56889 0.0
C159 C 0.75452 1.00524 0.55153 0.0
C160 C 0.70926 0.99297 0.56277 0.0
C161 C 0.68066 0.95206 0.59211 0.0
C162 C 0.81806 0.98756 0.55882 0.0
C163 C 0.69076 0.02299 0.54368 0.0
H164 H 0.83349 0.16242 0.54544 0.0
H165 H 0.79815 0.09071 0.37353 0.0
H166 H 0.77342 0.08194 0.63977 0.0
H167 H 0.81542 0.06561 0.63886 0.0
H168 H 0.83189 0.12474 0.63919 0.0
H169 H 0.77148 1.01265 0.36721 0.0
H170 H 0.77156 0.9818 0.43443 0.0
H171 H 0.7252 0.99052 0.42034 0.0
H172 H 0.75148 0.91086 0.61135 0.0
H173 H 0.64624 0.94315 0.60167 0.0
H174 H 0.84059 0.01844 0.58551 0.0
H175 H 0.82718 0.9954 0.50964 0.0
H176 H 0.82443 0.96009 0.57309 0.0
H177 H 0.7094 0.05607 0.56743 0.0
H178 H 0.65448 1.00787 0.55452 0.0
H179 H 0.69527 0.02952 0.49345 0.0
C180 C 0.73224 0.71089 0.0435 0.0
C181 C 0.7609 0.70307 1.00605 0.0
C182 C 0.71402 0.73725 0.02269 0.0
C183 C 0.7247 0.75632 0.96302 0.0
C184 C 0.75592 0.75099 0.92669 0.0
C185 C 0.77354 0.7244 0.94855 0.0
C186 C 0.68104 0.74217 0.06299 0.0
C187 C 0.7685 0.77094 0.86293 0.0
C188 C 0.63728 0.76413 0.86655 0.0
C189 C 0.65343 0.8107 0.86522 0.0
C190 C 0.6589 0.74601 0.90089 0.0
C191 C 0.69818 0.77526 0.93453 0.0
C192 C 0.71332 0.82224 0.93625 0.0
C193 C 0.69056 0.83952 0.90153 0.0
C194 C 0.64104 0.69571 0.89816 0.0
C195 C 0.75492 0.85444 0.97178 0.0
H196 H 0.72251 0.6949 0.08824 0.0
H197 H 0.79603 0.71905 0.9195 0.0
H198 H 0.68815 0.77757 0.06288 0.0
H199 H 0.64656 0.72071 0.04458 0.0
H200 H 0.68179 0.73183 0.11123 0.0
H201 H 0.79721 0.76864 0.84378 0.0
H202 H 0.73928 0.75263 0.83162 0.0
H203 H 0.7774 0.80689 0.86346 0.0
H204 H 0.60835 0.74182 0.83861 0.0
H205 H 0.70326 0.87558 0.90002 0.0
H206 H 0.6368 0.68167 0.94526 0.0
H207 H 0.66544 0.68901 0.87384 0.0
H208 H 0.60825 0.67737 0.87379 0.0
H209 H 0.75443 0.84111 0.01847 0.0
H210 H 0.75843 0.88841 0.97612 0.0
H211 H 0.78499 0.85807 0.94778 0.0
C212 C 0.94916 0.72482 0.10712 0.0
C213 C 0.94062 0.70035 0.05215 0.0
C214 C 0.99283 0.7492 0.13149 0.0
C215 C 0.02877 0.74855 0.10069 0.0
C216 C 0.02081 0.72625 0.04325 0.0
C217 C 0.97689 0.70264 0.0195 0.0
C218 C 0.99992 0.7731 0.1924 0.0
C219 C 0.05799 0.72433 1.00911 0.0
C220 C 0.14793 0.82366 0.16259 0.0
C221 C 0.15124 0.7942 0.20422 0.0
C222 C 0.10852 0.80929 0.12737 0.0
C223 C 0.0723 0.76436 0.13343 0.0
C224 C 0.07666 0.73414 0.17338 0.0
C225 C 0.11578 0.74951 0.20845 0.0
C226 C 0.10494 0.84254 0.0856 0.0
C227 C 0.03942 0.6857 0.18054 0.0
H228 H 0.92146 0.72374 0.1323 0.0
H229 H 0.97071 0.68398 0.97685 0.0
H230 H 1.00578 0.75392 0.22885 0.0
H231 H 0.03004 0.80732 0.19059 0.0
H232 H 0.97045 0.77626 0.20574 0.0
H233 H 0.04809 0.71186 0.96122 0.0
H234 H 0.08873 0.75809 1.00777 0.0
H235 H 0.06666 0.70125 0.0336 0.0
H236 H 0.17523 0.85826 0.15944 0.0
H237 H 0.11847 0.72642 0.23999 0.0
H238 H 0.07918 0.84992 0.10381 0.0
H239 H 0.09386 0.82794 0.03895 0.0
H240 H 0.13731 0.8748 0.08171 0.0
H241 H 1.00933 0.68478 0.20055 0.0
H242 H 0.04927 0.6659 0.21075 0.0
H243 H 0.02961 0.66889 0.13494 0.0
C244 C 0.29403 0.09353 0.6016 0.0
C245 C 0.33538 0.10123 0.62452 0.0
C246 C 0.26434 0.05247 0.57176 0.0
C247 C 0.27739 0.01955 0.56254 0.0
C248 C 0.31935 0.02767 0.58549 0.0
C249 C 0.3473 0.06791 0.61683 0.0
C250 C 0.21945 0.0447 0.54953 0.0
C251 C 0.33565 0.99453 0.57519 0.0
C252 C 0.20886 0.89587 0.51775 0.0
C253 C 0.22087 0.89805 0.45569 0.0
C254 C 0.22278 0.93572 0.55216 0.0
C255 C 0.25012 0.97842 0.52414 0.0
C256 C 0.25861 0.98056 0.46025 0.0
C257 C 0.24335 0.94049 0.42682 0.0
C258 C 0.21123 0.93209 0.61958 0.0
C259 C 0.28809 0.02502 0.42828 0.0
H260 H 0.28462 0.11912 0.60791 0.0
H261 H 0.3795 0.07395 0.63395 0.0
H262 H 0.22108 0.05124 0.49937 0.0
H263 H 0.19273 1.00919 0.55736 0.0
H264 H 0.20987 0.06751 0.57287 0.0
H265 H 0.36929 1.00617 0.59579 0.0
H266 H 0.31163 0.9613 0.59543 0.0
H267 H 0.33759 0.98934 0.52512 0.0
H268 H 0.191 0.86335 0.54037 0.0
H269 H 0.25205 0.94272 0.37852 0.0
H270 H 0.20313 0.95848 0.63307 0.0
H271 H 0.24058 0.93735 0.64733 0.0
H272 H 0.18232 0.89838 0.63112 0.0
H273 H 0.27758 0.04986 0.43998 0.0
H274 H 0.28734 0.0213 0.37744 0.0
H275 H 0.32331 0.03912 0.44417 0.0
C276 C 0.25539 0.69315 0.26636 0.0
C277 C 0.22195 0.68698 0.30866 0.0
C278 C 0.25534 0.65642 0.23778 0.0
C279 C 0.22084 0.61199 0.25137 0.0
C280 C 0.18747 0.60524 0.29514 0.0
C281 C 0.1885 0.64287 0.32353 0.0
C282 C 0.29189 0.66532 0.19202 0.0
C283 C 0.15012 0.55838 0.31079 0.0
C284 C 0.20219 0.52644 0.126 0.0
C285 C 0.22717 0.50721 0.14823 0.0
C286 C 0.19818 0.5591 0.16034 0.0
C287 C 0.21975 0.5731 0.21835 0.0
C288 C 0.24394 0.55291 0.24181 0.0
C289 C 0.24734 0.52028 0.20658 0.0
C290 C 0.17202 0.57971 0.1336 0.0
C291 C 0.26759 0.56691 0.30327 0.0
H292 H 0.28168 0.72705 0.2549 0.0
H293 H 0.16247 0.63778 0.35593 0.0
H294 H 0.30949 0.64698 0.20576 0.0
H295 H 0.27688 0.65258 0.14595 0.0
H296 H 0.3171 0.70181 0.18801 0.0
H297 H 0.128 0.55863 0.34778 0.0
H298 H 0.12937 0.5423 0.26925 0.0
H299 H 0.16428 0.53707 0.32571 0.0
H300 H 0.18618 0.51641 0.08126 0.0
H301 H 0.2665 0.50552 0.2245 0.0
H302 H 0.19522 0.61591 0.12339 0.0
H303 H 0.14708 0.57797 0.1674 0.0
H304 H 0.15415 0.5626 0.09052 0.0
H305 H 0.2954 0.60244 0.30083 0.0
H306 H 0.28173 0.54537 0.31741 0.0
H307 H 0.24408 0.56526 0.3394 0.0
C308 C 0.50722 0.15768 0.57146 0.0
C309 C 0.51509 0.15621 0.63467 0.0
C310 C 0.53443 0.15363 0.527 0.0
C311 C 0.57068 0.14805 0.54593 0.0
C312 C 0.57669 0.14295 0.60949 0.0
C313 C 0.54871 0.14703 0.65328 0.0
C314 C 0.52641 0.15891 0.45993 0.0
C315 C 0.61457 0.13627 0.63145 0.0
C316 C 0.63843 0.12871 0.42226 0.0
C317 C 0.67472 0.17262 0.41483 0.0
C318 C 0.60417 0.11974 0.46517 0.0
C319 C 0.6063 0.15566 0.50053 0.0
C320 C 0.64228 0.20016 0.49135 0.0
C321 C 0.67601 0.20795 0.44907 0.0
C322 C 0.5666 0.07182 0.47405 0.0
C323 C 0.64555 0.23973 0.52679 0.0
H324 H 0.48056 0.16367 0.55651 0.0
H325 H 0.55468 0.14537 0.70195 0.0
H326 H 0.55319 0.19231 0.44332 0.0
H327 H 0.52789 0.13273 0.43161 0.0
H328 H 0.4934 0.15664 0.45223 0.0
H329 H 0.61071 0.12605 0.68058 0.0
H330 H 0.61646 0.11025 0.60325 0.0
H331 H 0.64693 0.16828 0.62609 0.0
H332 H 0.63783 0.10124 0.39662 0.0
H333 H 0.70408 0.24196 0.44331 0.0
H334 H 0.53354 0.07005 0.47175 0.0
H335 H 0.56942 0.05988 0.52041 0.0
H336 H 0.56732 0.0485 0.43911 0.0
H337 H 0.61511 0.24237 0.51852 0.0
H338 H 0.67551 0.27226 0.51369 0.0
H339 H 0.6473 0.23451 0.57687 0.0
C340 C 0.4604 0.70278 0.78225 0.0
C341 C 0.49116 0.7008 0.74178 0.0
C342 C 0.42612 0.66384 0.81026 0.0
C343 C 0.42221 0.62143 0.79783 0.0
C344 C 0.45223 0.61881 0.75557 0.0
C345 C 0.48635 0.65856 0.72786 0.0
C346 C 0.39473 0.66834 0.85447 0.0
C347 C 0.44908 0.57421 0.74101 0.0
C348 C 0.36112 0.53383 0.92313 0.0
C349 C 0.31717 0.51011 0.89973 0.0
C350 C 0.3961 0.56877 0.88921 0.0
C351 C 0.38705 0.58039 0.83042 0.0
C352 C 0.34311 0.55555 0.80571 0.0
C353 C 0.3088 0.52083 0.84058 0.0
C354 C 0.44245 0.59438 0.91733 0.0
C355 C 0.3319 0.56676 0.74333 0.0
H356 H 0.46353 0.73516 0.79306 0.0
H357 H 0.5101 0.65673 0.697 0.0
H358 H 0.35937 0.64627 0.83975 0.0
H359 H 0.39825 0.65717 0.90104 0.0
H360 H 0.40144 0.70358 0.85777 0.0
H361 H 0.4731 0.57737 0.7046 0.0
H362 H 0.45615 0.5605 0.78313 0.0
H363 H 0.41453 0.54931 0.72583 0.0
H364 H 0.36809 0.52572 0.96854 0.0
H365 H 0.27509 0.5026 0.82172 0.0
H366 H 0.45099 0.62963 0.92709 0.0
H367 H 0.46788 0.59594 0.88456 0.0
H368 H 0.44499 0.57882 0.96088 0.0
H369 H 0.33484 0.60053 0.74495 0.0
H370 H 0.29734 0.5417 0.72818 0.0
H371 H 0.35606 0.56829 0.70834 0.0
C372 C 0.78868 0.50901 0.20988 0.0
C373 C 0.80766 0.52149 0.15092 0.0
C374 C 0.79274 0.47669 0.24491 0.0
C375 C 0.81638 0.45619 0.2206 0.0
C376 C 0.83673 0.46958 0.16191 0.0
C377 C 0.8321 0.50196 0.1278 0.0
C378 C 0.77039 0.46334 0.30712 0.0
C379 C 0.86222 0.4486 0.13422 0.0
C380 C 0.84947 0.38705 0.32427 0.0
C381 C 0.81562 0.34288 0.31033 0.0
C382 C 0.85006 0.42451 0.29608 0.0
C383 C 0.81582 0.41754 0.25348 0.0
C384 C 0.78094 0.37305 0.24087 0.0
C385 C 0.78134 0.33649 0.26921 0.0
C386 C 0.88783 0.47144 0.31067 0.0
C387 C 0.74348 0.36389 0.19636 0.0
H388 H 0.76997 0.52403 0.22847 0.0
H389 H 0.8472 0.51154 0.08259 0.0
H390 H 0.74247 0.42783 0.30554 0.0
H391 H 0.79462 0.46525 0.34243 0.0
H392 H 0.75666 0.48511 0.32182 0.0
H393 H 0.87922 0.46527 0.0906 0.0
H394 H 0.88782 0.45058 0.16716 0.0
H395 H 0.83874 0.41232 0.1247 0.0
H396 H 0.87613 0.3923 0.35576 0.0
H397 H 0.75472 0.30254 0.25851 0.0
H398 H 0.87409 0.49299 0.32617 0.0
H399 H 0.90775 0.48712 0.2685 0.0
H400 H 0.91065 0.47142 0.34688 0.0
H401 H 0.72628 0.38246 0.21083 0.0
H402 H 0.71811 0.3274 0.19305 0.0
H403 H 0.75755 0.37621 0.14986 0.0
C404 C 0.36631 0.8257 0.43962 0.0
C405 C 0.36359 0.86078 0.4107 0.0
C406 C 0.4 0.83456 0.48278 0.0
C407 C 0.43149 0.87982 0.49852 0.0
C408 C 0.42962 0.91562 0.46834 0.0
C409 C 0.39567 0.90564 0.42434 0.0
C410 C 0.40122 0.79526 0.51249 0.0
C411 C 0.46214 0.96425 0.48433 0.0
C412 C 0.48461 0.88284 0.65315 0.0
C413 C 0.52189 0.87983 0.63419 0.0
C414 C 0.45662 0.88709 0.60939 0.0
C415 C 0.46649 0.88853 0.54572 0.0
C416 C 0.5066 0.89003 0.52729 0.0
C417 C 0.53362 0.88547 0.57167 0.0
C418 C 0.41464 0.88641 0.63092 0.0
C419 C 0.519 0.89236 0.46023 0.0
H420 H 0.34123 0.79101 0.42929 0.0
H421 H 0.39284 0.93275 0.40303 0.0
H422 H 0.43447 0.79819 0.5049 0.0
H423 H 0.39646 0.7957 0.56291 0.0
H424 H 0.37484 0.76218 0.49409 0.0
H425 H 0.46113 0.98785 0.45013 0.0
H426 H 0.45341 0.97203 0.53009 0.0
H427 H 0.49697 0.97045 0.48738 0.0
H428 H 0.47563 0.87882 0.70145 0.0
H429 H 0.56306 0.88416 0.55693 0.0
H430 H 0.38495 0.85301 0.62032 0.0
H431 H 0.41026 0.91235 0.6063 0.0
H432 H 0.41531 0.89243 0.68124 0.0
H433 H 0.49638 0.8594 0.43793 0.0
H434 H 0.55423 0.90012 0.45416 0.0
H435 H 0.51464 0.91841 0.43593 0.0
C436 C 0.57176 0.32856 0.78389 0.0
C437 C 0.53793 0.3292 0.74834 0.0
C438 C 0.60618 0.36788 0.81111 0.0
C439 C 0.60719 0.40936 0.80281 0.0
C440 C 0.57412 0.41076 0.7652 0.0
C441 C 0.53983 0.3706 0.73825 0.0
C442 C 0.64079 0.36465 0.85033 0.0
C443 C 0.57419 0.45439 0.75501 0.0
C444 C 0.67091 0.49458 0.9299 0.0
C445 C 0.71383 0.52002 0.90401 0.0
C446 C 0.63522 0.45995 0.89634 0.0
C447 C 0.64245 0.45055 0.83522 0.0
C448 C 0.68517 0.4774 0.80797 0.0
C449 C 0.72029 0.51161 0.84266 0.0
C450 C 0.59027 0.43206 0.92729 0.0
C451 C 0.69435 0.46874 0.74295 0.0
H452 H 0.57093 0.29685 0.79159 0.0
H453 H 0.51373 0.37138 0.71118 0.0
H454 H 0.67507 0.38835 0.8332 0.0
H455 H 0.63891 0.37453 0.89838 0.0
H456 H 0.63602 0.33006 0.85073 0.0
H457 H 0.54837 0.45061 0.72102 0.0
H458 H 0.5676 0.46623 0.79921 0.0
H459 H 0.60766 0.481 0.73872 0.0
H460 H 0.66541 0.5009 0.97707 0.0
H461 H 0.75315 0.53131 0.82186 0.0
H462 H 0.58369 0.39715 0.93433 0.0
H463 H 0.56295 0.42984 0.89763 0.0
H464 H 0.58877 0.4462 0.97266 0.0
H465 H 0.6936 0.43598 0.74089 0.0
H466 H 0.72758 0.49561 0.72611 0.0
H467 H 0.66791 0.46636 0.7113 0.0
loop_
_geom_bond_atom_site_label_1
_geom_bond_atom_site_label_2
_geom_bond_distance
_geom_bond_site_symmetry_2
_ccdc_geom_bond_type
C0 O2 1.247 . S
C0 O4 1.258 . S
C1 O8 1.247 . S
C1 O9 1.258 1_556 S
O2 C0 1.247 . S
O2 Zn3 2.028 . S
Zn3 O2 2.028 . S
Zn3 O7 2.035 . S
Zn3 O9 2.035 . S
Zn3 O10 2.028 . S
O4 C0 1.258 . S
O4 Zn5 2.035 1_554 S
Zn5 O4 2.035 1_556 S
Zn5 O6 2.028 . S
Zn5 O8 2.028 . S
Zn5 O11 2.035 1_556 S
O6 Zn5 2.028 . S
O6 C12 1.247 . S
O7 Zn3 2.035 . S
O7 C12 1.258 1_554 S
O8 C1 1.247 . S
O8 Zn5 2.028 . S
O9 C1 1.258 1_554 S
O9 Zn3 2.035 . S
O10 Zn3 2.028 . S
O10 C13 1.247 . S
O11 Zn5 2.035 1_554 S
O11 C13 1.258 . S
C12 O6 1.247 . S
C12 O7 1.258 1_556 S
C13 O10 1.247 . S
C13 O11 1.258 . S
C14 O16 1.247 . S
C14 O18 1.258 . S
C15 O22 1.247 . S
C15 O23 1.258 . S
O16 C14 1.247 . S
O16 Zn17 2.028 . S
Zn17 O16 2.028 . S
Zn17 O21 2.035 . S
Zn17 O23 2.035 . S
Zn17 O24 2.028 . S
O18 C14 1.258 . S
O18 Zn19 2.035 . S
Zn19 O18 2.035 . S
Zn19 O20 2.028 . S
Zn19 O22 2.028 . S
Zn19 O25 2.035 . S
O20 Zn19 2.028 . S
O20 C26 1.247 . S
O21 Zn17 2.035 . S
O21 C26 1.258 . S
O22 C15 1.247 . S
O22 Zn19 2.028 . S
O23 C15 1.258 . S
O23 Zn17 2.035 . S
O24 Zn17 2.028 . S
O24 C27 1.247 . S
O25 Zn19 2.035 . S
O25 C27 1.258 . S
C26 O20 1.247 . S
C26 O21 1.258 . S
C27 O24 1.247 . S
C27 O25 1.258 . S
C28 O30 1.247 . S
C28 O32 1.258 . S
C29 O36 1.247 . S
C29 O37 1.258 . S
O30 C28 1.247 . S
O30 Zn31 2.028 . S
Zn31 O30 2.028 . S
Zn31 O35 2.035 . S
Zn31 O37 2.035 . S
Zn31 O38 2.028 . S
O32 C28 1.258 . S
O32 Zn33 2.035 . S
Zn33 O32 2.035 . S
Zn33 O34 2.028 . S
Zn33 O36 2.028 . S
Zn33 O39 2.035 . S
O34 Zn33 2.028 . S
O34 C40 1.247 . S
O35 Zn31 2.035 . S
O35 C40 1.258 . S
O36 C29 1.247 . S
O36 Zn33 2.028 . S
O37 C29 1.258 . S
O37 Zn31 2.035 . S
O38 Zn31 2.028 . S
O38 C41 1.247 . S
O39 Zn33 2.035 . S
O39 C41 1.258 . S
C40 O34 1.247 . S
C40 O35 1.258 . S
C41 O38 1.247 . S
C41 O39 1.258 . S
C42 O44 1.247 . S
C42 O46 1.258 1_556 S
C43 O50 1.247 . S
C43 O51 1.258 . S
O44 C42 1.247 . S
O44 Zn45 2.028 . S
Zn45 O44 2.028 . S
Zn45 O49 2.035 1_556 S
Zn45 O51 2.035 1_556 S
Zn45 O52 2.028 . S
O46 C42 1.258 1_554 S
O46 Zn47 2.035 . S
Zn47 O46 2.035 . S
Zn47 O48 2.028 . S
Zn47 O50 2.028 . S
Zn47 O53 2.035 . S
O48 Zn47 2.028 . S
O48 C54 1.247 . S
O49 Zn45 2.035 1_554 S
O49 C54 1.258 . S
O50 C43 1.247 . S
O50 Zn47 2.028 . S
O51 C43 1.258 . S
O51 Zn45 2.035 1_554 S
O52 Zn45 2.028 . S
O52 C55 1.247 . S
O53 Zn47 2.035 . S
O53 C55 1.258 1_554 S
C54 O48 1.247 . S
C54 O49 1.258 . S
C55 O52 1.247 . S
C55 O53 1.258 1_556 S
C56 O58 1.247 . S
C56 O60 1.258 . S
C57 O64 1.247 . S
C57 O65 1.258 . S
O58 C56 1.247 . S
O58 Zn59 2.028 . S
Zn59 O58 2.028 . S
Zn59 O63 2.035 . S
Zn59 O65 2.035 . S
Zn59 O66 2.028 . S
O60 C56 1.258 . S
O60 Zn61 2.035 . S
Zn61 O60 2.035 . S
Zn61 O62 2.028 . S
Zn61 O64 2.028 . S
Zn61 O67 2.035 . S
O62 Zn61 2.028 . S
O62 C68 1.247 . S
O63 Zn59 2.035 . S
O63 C68 1.258 . S
O64 C57 1.247 . S
O64 Zn61 2.028 . S
O65 C57 1.258 . S
O65 Zn59 2.035 . S
O66 Zn59 2.028 . S
O66 C69 1.247 . S
O67 Zn61 2.035 . S
O67 C69 1.258 . S
C68 O62 1.247 . S
C68 O63 1.258 . S
C69 O66 1.247 . S
C69 O67 1.258 . S
C70 O72 1.247 . S
C70 O74 1.258 . S
C71 O78 1.247 . S
C71 O79 1.258 . S
O72 C70 1.247 . S
O72 Zn73 2.028 . S
Zn73 O72 2.028 . S
Zn73 O77 2.035 . S
Zn73 O79 2.035 . S
Zn73 O80 2.028 . S
O74 C70 1.258 . S
O74 Zn75 2.035 . S
Zn75 O74 2.035 . S
Zn75 O76 2.028 . S
Zn75 O78 2.028 . S
Zn75 O81 2.035 . S
O76 Zn75 2.028 . S
O76 C82 1.247 . S
O77 Zn73 2.035 . S
O77 C82 1.258 . S
O78 C71 1.247 . S
O78 Zn75 2.028 . S
O79 C71 1.258 . S
O79 Zn73 2.035 . S
O80 Zn73 2.028 . S
O80 C83 1.247 . S
O81 Zn75 2.035 . S
O81 C83 1.258 . S
C82 O76 1.247 . S
C82 O77 1.258 . S
C83 O80 1.247 . S
C83 O81 1.258 . S
C84 C85 1.391 . S
C84 C86 1.394 . S
C84 H100 0.931 . S
C85 C84 1.391 . S
C85 C89 1.376 . S
C86 C84 1.394 . S
C86 C87 1.369 . S
C86 C90 1.531 . S
C87 C86 1.369 . S
C87 C88 1.410 . S
C87 C95 1.503 . S
C88 C87 1.410 . S
C88 C89 1.392 . S
C88 C91 1.511 . S
C89 C85 1.376 . S
C89 C88 1.392 . S
C89 H101 0.929 . S
C90 C86 1.531 . S
C90 H102 0.960 . S
C90 H103 0.962 . S
C90 H104 0.960 . S
C91 C88 1.511 . S
C91 H105 0.961 . S
C91 H106 0.961 . S
C91 H107 0.961 . S
C92 C93 1.370 . S
C92 C94 1.363 . S
C92 H108 0.931 . S
C93 C92 1.370 . S
C93 C97 1.408 . S
C94 C92 1.363 . S
C94 C95 1.370 . S
C94 C98 1.524 . S
C95 C87 1.503 . S
C95 C94 1.370 . S
C95 C96 1.403 . S
C96 C95 1.403 . S
C96 C97 1.404 . S
C96 C99 1.539 . S
C97 C93 1.408 . S
C97 C96 1.404 . S
C97 H109 0.930 . S
C98 C94 1.524 . S
C98 H110 0.956 . S
C98 H111 0.961 . S
C98 H112 0.961 . S
C99 C96 1.539 . S
C99 H113 0.958 . S
C99 H114 0.961 . S
C99 H115 0.960 . S
H100 C84 0.931 . S
H101 C89 0.929 . S
H102 C90 0.960 . S
H103 C90 0.962 . S
H104 C90 0.960 . S
H105 C91 0.961 . S
H106 C91 0.961 . S
H107 C91 0.961 . S
H108 C92 0.931 . S
H109 C97 0.930 . S
H110 C98 0.956 . S
H111 C98 0.961 . S
H112 C98 0.961 . S
H113 C99 0.958 . S
H114 C99 0.961 . S
H115 C99 0.960 . S
C116 C117 1.391 . S
C116 C118 1.394 . S
C116 H132 0.931 . S
C117 C116 1.391 . S
C117 C121 1.376 . S
C118 C116 1.394 . S
C118 C119 1.369 . S
C118 C122 1.531 . S
C119 C118 1.369 . S
C119 C120 1.410 . S
C119 C127 1.503 1_655 S
C120 C119 1.410 . S
C120 C121 1.392 . S
C120 C123 1.511 . S
C121 C117 1.376 . S
C121 C120 1.392 . S
C121 H133 0.929 . S
C122 C118 1.531 . S
C122 H134 0.960 . S
C122 H135 0.962 1_655 S
C122 H136 0.960 . S
C123 C120 1.511 . S
C123 H137 0.961 . S
C123 H138 0.961 . S
C123 H139 0.961 . S
C124 C125 1.370 . S
C124 C126 1.363 . S
C124 H140 0.931 . S
C125 C124 1.370 . S
C125 C129 1.408 . S
C126 C124 1.363 . S
C126 C127 1.370 . S
C126 C130 1.524 . S
C127 C119 1.503 1_455 S
C127 C126 1.370 . S
C127 C128 1.403 . S
C128 C127 1.403 . S
C128 C129 1.404 . S
C128 C131 1.539 1_455 S
C129 C125 1.408 . S
C129 C128 1.404 . S
C129 H141 0.930 . S
C130 C126 1.524 . S
C130 H142 0.956 . S
C130 H143 0.961 . S
C130 H144 0.961 . S
C131 C128 1.539 1_655 S
C131 H145 0.958 . S
C131 H146 0.961 . S
C131 H147 0.960 . S
H132 C116 0.931 . S
H133 C121 0.929 . S
H134 C122 0.960 . S
H135 C122 0.962 1_455 S
H136 C122 0.960 . S
H137 C123 0.961 . S
H138 C123 0.961 . S
H139 C123 0.961 . S
H140 C124 0.931 . S
H141 C129 0.930 . S
H142 C130 0.956 . S
H143 C130 0.961 . S
H144 C130 0.961 . S
H145 C131 0.958 . S
H146 C131 0.961 . S
H147 C131 0.960 . S
C148 C149 1.391 . S
C148 C150 1.394 . S
C148 H164 0.931 . S
C149 C148 1.391 . S
C149 C153 1.376 . S
C150 C148 1.394 . S
C150 C151 1.369 . S
C150 C154 1.531 . S
C151 C150 1.369 . S
C151 C152 1.410 . S
C151 C159 1.503 1_545 S
C152 C151 1.410 . S
C152 C153 1.392 . S
C152 C155 1.511 1_545 S
C153 C149 1.376 . S
C153 C152 1.392 . S
C153 H165 0.929 . S
C154 C150 1.531 . S
C154 H166 0.960 . S
C154 H167 0.962 . S
C154 H168 0.960 . S
C155 C152 1.511 1_565 S
C155 H169 0.961 . S
C155 H170 0.961 . S
C155 H171 0.961 . S
C156 C157 1.370 . S
C156 C158 1.363 . S
C156 H172 0.931 . S
C157 C156 1.370 . S
C157 C161 1.408 . S
C158 C156 1.363 . S
C158 C159 1.370 . S
C158 C162 1.524 . S
C159 C151 1.503 1_565 S
C159 C158 1.370 . S
C159 C160 1.403 . S
C160 C159 1.403 . S
C160 C161 1.404 . S
C160 C163 1.538 1_565 S
C161 C157 1.408 . S
C161 C160 1.404 . S
C161 H173 0.930 . S
C162 C158 1.524 . S
C162 H174 0.956 . S
C162 H175 0.961 . S
C162 H176 0.961 . S
C163 C160 1.538 1_545 S
C163 H177 0.958 . S
C163 H178 0.961 1_545 S
C163 H179 0.960 . S
H164 C148 0.931 . S
H165 C153 0.929 . S
H166 C154 0.960 . S
H167 C154 0.962 . S
H168 C154 0.960 . S
H169 C155 0.961 . S
H170 C155 0.961 . S
H171 C155 0.961 . S
H172 C156 0.931 . S
H173 C161 0.930 . S
H174 C162 0.956 . S
H175 C162 0.961 . S
H176 C162 0.961 . S
H177 C163 0.958 . S
H178 C163 0.961 1_565 S
H179 C163 0.960 . S
C180 C181 1.391 . S
C180 C182 1.394 . S
C180 H196 0.931 1_556 S
C181 C180 1.391 . S
C181 C185 1.376 . S
C182 C180 1.394 . S
C182 C183 1.369 . S
C182 C186 1.531 . S
C183 C182 1.369 . S
C183 C184 1.410 . S
C183 C191 1.503 . S
C184 C183 1.410 . S
C184 C185 1.392 . S
C184 C187 1.511 . S
C185 C181 1.376 . S
C185 C184 1.392 . S
C185 H197 0.929 . S
C186 C182 1.531 . S
C186 H198 0.960 . S
C186 H199 0.962 . S
C186 H200 0.960 . S
C187 C184 1.511 . S
C187 H201 0.961 . S
C187 H202 0.961 . S
C187 H203 0.961 . S
C188 C189 1.370 . S
C188 C190 1.363 . S
C188 H204 0.931 . S
C189 C188 1.370 . S
C189 C193 1.408 . S
C190 C188 1.363 . S
C190 C191 1.370 . S
C190 C194 1.524 . S
C191 C183 1.503 . S
C191 C190 1.370 . S
C191 C192 1.403 . S
C192 C191 1.403 . S
C192 C193 1.404 . S
C192 C195 1.539 . S
C193 C189 1.408 . S
C193 C192 1.404 . S
C193 H205 0.930 . S
C194 C190 1.524 . S
C194 H206 0.956 . S
C194 H207 0.961 . S
C194 H208 0.961 . S
C195 C192 1.539 . S
C195 H209 0.958 . S
C195 H210 0.961 . S
C195 H211 0.960 . S
H196 C180 0.931 1_554 S
H197 C185 0.929 . S
H198 C186 0.960 . S
H199 C186 0.962 . S
H200 C186 0.960 . S
H201 C187 0.961 . S
H202 C187 0.961 . S
H203 C187 0.961 . S
H204 C188 0.931 . S
H205 C193 0.930 . S
H206 C194 0.956 . S
H207 C194 0.961 . S
H208 C194 0.961 . S
H209 C195 0.958 . S
H210 C195 0.961 . S
H211 C195 0.960 . S
C212 C213 1.391 . S
C212 C214 1.394 . S
C212 H228 0.931 . S
C213 C212 1.391 . S
C213 C217 1.376 . S
C214 C212 1.394 . S
C214 C215 1.369 . S
C214 C218 1.531 . S
C215 C214 1.369 . S
C215 C216 1.410 . S
C215 C223 1.503 1_655 S
C216 C215 1.410 . S
C216 C217 1.392 . S
C216 C219 1.511 1_655 S
C217 C213 1.376 . S
C217 C216 1.392 . S
C217 H229 0.929 . S
C218 C214 1.531 . S
C218 H230 0.960 . S
C218 H231 0.962 . S
C218 H232 0.960 . S
C219 C216 1.511 1_455 S
C219 H233 0.961 . S
C219 H234 0.961 . S
C219 H235 0.961 . S
C220 C221 1.370 . S
C220 C222 1.363 . S
C220 H236 0.931 . S
C221 C220 1.370 . S
C221 C225 1.408 . S
C222 C220 1.363 . S
C222 C223 1.370 . S
C222 C226 1.524 . S
C223 C215 1.503 1_455 S
C223 C222 1.370 . S
C223 C224 1.403 . S
C224 C223 1.403 . S
C224 C225 1.404 . S
C224 C227 1.539 1_455 S
C225 C221 1.408 . S
C225 C224 1.404 . S
C225 H237 0.930 . S
C226 C222 1.524 . S
C226 H238 0.956 . S
C226 H239 0.961 . S
C226 H240 0.961 . S
C227 C224 1.539 1_655 S
C227 H241 0.958 . S
C227 H242 0.961 1_655 S
C227 H243 0.960 . S
H228 C212 0.931 . S
H229 C217 0.929 . S
H230 C218 0.960 . S
H231 C218 0.962 . S
H232 C218 0.960 . S
H233 C219 0.961 . S
H234 C219 0.961 . S
H235 C219 0.961 . S
H236 C220 0.931 . S
H237 C225 0.930 . S
H238 C226 0.956 . S
H239 C226 0.961 . S
H240 C226 0.961 . S
H241 C227 0.958 . S
H242 C227 0.961 1_455 S
H243 C227 0.960 . S
C244 C245 1.391 . S
C244 C246 1.394 . S
C244 H260 0.931 . S
C245 C244 1.391 . S
C245 C249 1.376 . S
C246 C244 1.394 . S
C246 C247 1.369 . S
C246 C250 1.531 . S
C247 C246 1.369 . S
C247 C248 1.410 . S
C247 C255 1.503 1_545 S
C248 C247 1.410 . S
C248 C249 1.392 . S
C248 C251 1.511 . S
C249 C245 1.376 . S
C249 C248 1.392 . S
C249 H261 0.929 . S
C250 C246 1.531 . S
C250 H262 0.960 . S
C250 H263 0.962 . S
C250 H264 0.960 . S
C251 C248 1.511 . S
C251 H265 0.961 . S
C251 H266 0.961 1_545 S
C251 H267 0.961 . S
C252 C253 1.370 . S
C252 C254 1.363 . S
C252 H268 0.931 . S
C253 C252 1.370 . S
C253 C257 1.408 . S
C254 C252 1.363 . S
C254 C255 1.370 . S
C254 C258 1.524 . S
C255 C247 1.503 1_565 S
C255 C254 1.370 . S
C255 C256 1.403 . S
C256 C255 1.403 . S
C256 C257 1.404 . S
C256 C259 1.539 1_565 S
C257 C253 1.408 . S
C257 C256 1.404 . S
C257 H269 0.930 . S
C258 C254 1.524 . S
C258 H270 0.956 . S
C258 H271 0.961 . S
C258 H272 0.961 . S
C259 C256 1.539 1_545 S
C259 H273 0.958 . S
C259 H274 0.961 . S
C259 H275 0.960 . S
H260 C244 0.931 . S
H261 C249 0.929 . S
H262 C250 0.960 . S
H263 C250 0.962 . S
H264 C250 0.960 . S
H265 C251 0.961 . S
H266 C251 0.961 1_565 S
H267 C251 0.961 . S
H268 C252 0.931 . S
H269 C257 0.930 . S
H270 C258 0.956 . S
H271 C258 0.961 . S
H272 C258 0.961 . S
H273 C259 0.958 . S
H274 C259 0.961 . S
H275 C259 0.960 . S
C276 C277 1.391 . S
C276 C278 1.394 . S
C276 H292 0.931 . S
C277 C276 1.391 . S
C277 C281 1.376 . S
C278 C276 1.394 . S
C278 C279 1.369 . S
C278 C282 1.531 . S
C279 C278 1.369 . S
C279 C280 1.410 . S
C279 C287 1.503 . S
C280 C279 1.410 . S
C280 C281 1.392 . S
C280 C283 1.511 . S
C281 C277 1.376 . S
C281 C280 1.392 . S
C281 H293 0.929 . S
C282 C278 1.531 . S
C282 H294 0.960 . S
C282 H295 0.962 . S
C282 H296 0.960 . S
C283 C280 1.511 . S
C283 H297 0.961 . S
C283 H298 0.961 . S
C283 H299 0.961 . S
C284 C285 1.370 . S
C284 C286 1.363 . S
C284 H300 0.931 . S
C285 C284 1.370 . S
C285 C289 1.408 . S
C286 C284 1.363 . S
C286 C287 1.370 . S
C286 C290 1.524 . S
C287 C279 1.503 . S
C287 C286 1.370 . S
C287 C288 1.403 . S
C288 C287 1.403 . S
C288 C289 1.404 . S
C288 C291 1.539 . S
C289 C285 1.408 . S
C289 C288 1.404 . S
C289 H301 0.930 . S
C290 C286 1.524 . S
C290 H302 0.956 . S
C290 H303 0.961 . S
C290 H304 0.961 . S
C291 C288 1.539 . S
C291 H305 0.958 . S
C291 H306 0.961 . S
C291 H307 0.960 . S
H292 C276 0.931 . S
H293 C281 0.929 . S
H294 C282 0.960 . S
H295 C282 0.962 . S
H296 C282 0.960 . S
H297 C283 0.961 . S
H298 C283 0.961 . S
H299 C283 0.961 . S
H300 C284 0.931 . S
H301 C289 0.930 . S
H302 C290 0.956 . S
H303 C290 0.961 . S
H304 C290 0.961 . S
H305 C291 0.958 . S
H306 C291 0.961 . S
H307 C291 0.960 . S
C308 C309 1.391 . S
C308 C310 1.394 . S
C308 H324 0.931 . S
C309 C308 1.391 . S
C309 C313 1.376 . S
C310 C308 1.394 . S
C310 C311 1.369 . S
C310 C314 1.531 . S
C311 C310 1.369 . S
C311 C312 1.410 . S
C311 C319 1.503 . S
C312 C311 1.410 . S
C312 C313 1.392 . S
C312 C315 1.511 . S
C313 C309 1.376 . S
C313 C312 1.392 . S
C313 H325 0.929 . S
C314 C310 1.531 . S
C314 H326 0.960 . S
C314 H327 0.962 . S
C314 H328 0.960 . S
C315 C312 1.511 . S
C315 H329 0.961 . S
C315 H330 0.961 . S
C315 H331 0.961 . S
C316 C317 1.370 . S
C316 C318 1.363 . S
C316 H332 0.931 . S
C317 C316 1.370 . S
C317 C321 1.408 . S
C318 C316 1.363 . S
C318 C319 1.370 . S
C318 C322 1.524 . S
C319 C311 1.503 . S
C319 C318 1.370 . S
C319 C320 1.403 . S
C320 C319 1.403 . S
C320 C321 1.404 . S
C320 C323 1.539 . S
C321 C317 1.408 . S
C321 C320 1.404 . S
C321 H333 0.930 . S
C322 C318 1.524 . S
C322 H334 0.956 . S
C322 H335 0.961 . S
C322 H336 0.961 . S
C323 C320 1.539 . S
C323 H337 0.958 . S
C323 H338 0.961 . S
C323 H339 0.960 . S
H324 C308 0.931 . S
H325 C313 0.929 . S
H326 C314 0.960 . S
H327 C314 0.962 . S
H328 C314 0.960 . S
H329 C315 0.961 . S
H330 C315 0.961 . S
H331 C315 0.961 . S
H332 C316 0.931 . S
H333 C321 0.930 . S
H334 C322 0.956 . S
H335 C322 0.961 . S
H336 C322 0.961 . S
H337 C323 0.958 . S
H338 C323 0.961 . S
H339 C323 0.960 . S
C340 C341 1.391 . S
C340 C342 1.394 . S
C340 H356 0.931 . S
C341 C340 1.391 . S
C341 C345 1.376 . S
C342 C340 1.394 . S
C342 C343 1.369 . S
C342 C346 1.531 . S
C343 C342 1.369 . S
C343 C344 1.410 . S
C343 C351 1.503 . S
C344 C343 1.410 . S
C344 C345 1.392 . S
C344 C347 1.511 . S
C345 C341 1.376 . S
C345 C344 1.392 . S
C345 H357 0.929 . S
C346 C342 1.531 . S
C346 H358 0.960 . S
C346 H359 0.962 . S
C346 H360 0.960 . S
C347 C344 1.511 . S
C347 H361 0.961 . S
C347 H362 0.961 . S
C347 H363 0.961 . S
C348 C349 1.370 . S
C348 C350 1.363 . S
C348 H364 0.931 . S
C349 C348 1.370 . S
C349 C353 1.408 . S
C350 C348 1.363 . S
C350 C351 1.370 . S
C350 C354 1.524 . S
C351 C343 1.503 . S
C351 C350 1.370 . S
C351 C352 1.403 . S
C352 C351 1.403 . S
C352 C353 1.404 . S
C352 C355 1.539 . S
C353 C349 1.408 . S
C353 C352 1.404 . S
C353 H365 0.930 . S
C354 C350 1.524 . S
C354 H366 0.956 . S
C354 H367 0.961 . S
C354 H368 0.961 . S
C355 C352 1.539 . S
C355 H369 0.958 . S
C355 H370 0.961 . S
C355 H371 0.960 . S
H356 C340 0.931 . S
H357 C345 0.929 . S
H358 C346 0.960 . S
H359 C346 0.962 . S
H360 C346 0.960 . S
H361 C347 0.961 . S
H362 C347 0.961 . S
H363 C347 0.961 . S
H364 C348 0.931 . S
H365 C353 0.930 . S
H366 C354 0.956 . S
H367 C354 0.961 . S
H368 C354 0.961 . S
H369 C355 0.958 . S
H370 C355 0.961 . S
H371 C355 0.960 . S
C372 C373 1.391 . S
C372 C374 1.394 . S
C372 H388 0.931 . S
C373 C372 1.391 . S
C373 C377 1.376 . S
C374 C372 1.394 . S
C374 C375 1.369 . S
C374 C378 1.531 . S
C375 C374 1.369 . S
C375 C376 1.410 . S
C375 C383 1.503 . S
C376 C375 1.410 . S
C376 C377 1.392 . S
C376 C379 1.511 . S
C377 C373 1.376 . S
C377 C376 1.392 . S
C377 H389 0.929 . S
C378 C374 1.531 . S
C378 H390 0.960 . S
C378 H391 0.962 . S
C378 H392 0.960 . S
C379 C376 1.511 . S
C379 H393 0.961 . S
C379 H394 0.961 . S
C379 H395 0.961 . S
C380 C381 1.370 . S
C380 C382 1.363 . S
C380 H396 0.931 . S
C381 C380 1.370 . S
C381 C385 1.408 . S
C382 C380 1.363 . S
C382 C383 1.370 . S
C382 C386 1.524 . S
C383 C375 1.503 . S
C383 C382 1.370 . S
C383 C384 1.403 . S
C384 C383 1.403 . S
C384 C385 1.404 . S
C384 C387 1.539 . S
C385 C381 1.408 . S
C385 C384 1.404 . S
C385 H397 0.930 . S
C386 C382 1.524 . S
C386 H398 0.956 . S
C386 H399 0.961 . S
C386 H400 0.961 . S
C387 C384 1.539 . S
C387 H401 0.958 . S
C387 H402 0.961 . S
C387 H403 0.960 . S
H388 C372 0.931 . S
H389 C377 0.929 . S
H390 C378 0.960 . S
H391 C378 0.962 . S
H392 C378 0.960 . S
H393 C379 0.961 . S
H394 C379 0.961 . S
H395 C379 0.961 . S
H396 C380 0.931 . S
H397 C385 0.930 . S
H398 C386 0.956 . S
H399 C386 0.961 . S
H400 C386 0.961 . S
H401 C387 0.958 . S
H402 C387 0.961 . S
H403 C387 0.960 . S
C404 C405 1.391 . S
C404 C406 1.394 . S
C404 H420 0.931 . S
C405 C404 1.391 . S
C405 C409 1.376 . S
C406 C404 1.394 . S
C406 C407 1.369 . S
C406 C410 1.531 . S
C407 C406 1.369 . S
C407 C408 1.410 . S
C407 C415 1.503 . S
C408 C407 1.410 . S
C408 C409 1.392 . S
C408 C411 1.511 . S
C409 C405 1.376 . S
C409 C408 1.392 . S
C409 H421 0.929 . S
C410 C406 1.531 . S
C410 H422 0.960 . S
C410 H423 0.962 . S
C410 H424 0.960 . S
C411 C408 1.511 . S
C411 H425 0.961 . S
C411 H426 0.961 . S
C411 H427 0.961 . S
C412 C413 1.370 . S
C412 C414 1.363 . S
C412 H428 0.931 . S
C413 C412 1.370 . S
C413 C417 1.408 . S
C414 C412 1.363 . S
C414 C415 1.370 . S
C414 C418 1.524 . S
C415 C407 1.503 . S
C415 C414 1.370 . S
C415 C416 1.403 . S
C416 C415 1.403 . S
C416 C417 1.404 . S
C416 C419 1.539 . S
C417 C413 1.408 . S
C417 C416 1.404 . S
C417 H429 0.930 . S
C418 C414 1.524 . S
C418 H430 0.956 . S
C418 H431 0.961 . S
C418 H432 0.961 . S
C419 C416 1.539 . S
C419 H433 0.958 . S
C419 H434 0.961 . S
C419 H435 0.960 . S
H420 C404 0.931 . S
H421 C409 0.929 . S
H422 C410 0.960 . S
H423 C410 0.962 . S
H424 C410 0.960 . S
H425 C411 0.961 . S
H426 C411 0.961 . S
H427 C411 0.961 . S
H428 C412 0.931 . S
H429 C417 0.930 . S
H430 C418 0.956 . S
H431 C418 0.961 . S
H432 C418 0.961 . S
H433 C419 0.958 . S
H434 C419 0.961 . S
H435 C419 0.960 . S
C436 C437 1.391 . S
C436 C438 1.394 . S
C436 H452 0.931 . S
C437 C436 1.391 . S
C437 C441 1.376 . S
C438 C436 1.394 . S
C438 C439 1.369 . S
C438 C442 1.531 . S
C439 C438 1.369 . S
C439 C440 1.410 . S
C439 C447 1.503 . S
C440 C439 1.410 . S
C440 C441 1.392 . S
C440 C443 1.511 . S
C441 C437 1.376 . S
C441 C440 1.392 . S
C441 H453 0.929 . S
C442 C438 1.531 . S
C442 H454 0.960 . S
C442 H455 0.962 . S
C442 H456 0.960 . S
C443 C440 1.511 . S
C443 H457 0.961 . S
C443 H458 0.961 . S
C443 H459 0.961 . S
C444 C445 1.370 . S
C444 C446 1.363 . S
C444 H460 0.931 . S
C445 C444 1.370 . S
C445 C449 1.408 . S
C446 C444 1.363 . S
C446 C447 1.370 . S
C446 C450 1.524 . S
C447 C439 1.503 . S
C447 C446 1.370 . S
C447 C448 1.403 . S
C448 C447 1.403 . S
C448 C449 1.404 . S
C448 C451 1.539 . S
C449 C445 1.408 . S
C449 C448 1.404 . S
C449 H461 0.930 . S
C450 C446 1.524 . S
C450 H462 0.956 . S
C450 H463 0.961 . S
C450 H464 0.961 . S
C451 C448 1.539 . S
C451 H465 0.958 . S
C451 H466 0.961 . S
C451 H467 0.960 . S
H452 C436 0.931 . S
H453 C441 0.929 . S
H454 C442 0.960 . S
H455 C442 0.962 . S
H456 C442 0.960 . S
H457 C443 0.961 . S
H458 C443 0.961 . S
H459 C443 0.961 . S
H460 C444 0.931 . S
H461 C449 0.930 . S
H462 C450 0.956 . S
H463 C450 0.961 . S
H464 C450 0.961 . S
H465 C451 0.958 . S
H466 C451 0.961 . S
H467 C451 0.960 . S
C85 C12 1.404 . S
C93 C83 1.415 . S
C117 C26 1.416 . S
C125 C0 1.414 . S
C149 C14 1.403 . S
C157 C28 1.410 . S
C181 C42 1.425 . S
C189 C40 1.420 . S
C213 C54 1.404 . S
C221 C57 1.410 . S
C245 C71 1.408 . S
C253 C69 1.410 . S
C277 C68 1.484 . S
C285 C13 1.491 . S
C309 C82 1.471 . S
C317 C27 1.481 . S
C341 C29 1.469 . S
C349 C1 1.484 . S
C373 C43 1.476 . S
C381 C15 1.481 . S
C405 C56 1.484 . S
C413 C41 1.491 . S
C437 C70 1.491 . S
C445 C55 1.493 . S
