# Generated by pormake.
# Topology bcu-j, (5)-cn, num edge types: 1
# Building blocks:
#     Node 0, Type 0, BuildingBlock: BEQFEK_clean_sbu_0, # of connection points: 5
#     Node 1, Type 0, BuildingBlock: BEQFEK_clean_sbu_0, # of connection points: 5
#     Node 2, Type 0, BuildingBlock: BEQFEK_clean_sbu_0, # of connection points: 5
#     Node 3, Type 0, BuildingBlock: BEQFEK_clean_sbu_0, # of connection points: 5
#     Node 4, Type 0, BuildingBlock: BEQFEK_clean_sbu_0, # of connection points: 5
#     Node 5, Type 0, BuildingBlock: BEQFEK_clean_sbu_0, # of connection points: 5
#     Node 6, Type 0, BuildingBlock: BEQFEK_clean_sbu_0, # of connection points: 5
#     Node 7, Type 0, BuildingBlock: BEQFEK_clean_sbu_0, # of connection points: 5
#     Node 8, Type 0, BuildingBlock: BEQFEK_clean_sbu_0, # of connection points: 5
#     Node 9, Type 0, BuildingBlock: BEQFEK_clean_sbu_0, # of connection points: 5
#     Node 10, Type 0, BuildingBlock: BEQFEK_clean_sbu_0, # of connection points: 5
#     Node 11, Type 0, BuildingBlock: BEQFEK_clean_sbu_0, # of connection points: 5
#     Node 12, Type 0, BuildingBlock: BEQFEK_clean_sbu_0, # of connection points: 5
#     Node 13, Type 0, BuildingBlock: BEQFEK_clean_sbu_0, # of connection points: 5
#     Node 14, Type 0, BuildingBlock: BEQFEK_clean_sbu_0, # of connection points: 5
#     Node 15, Type 0, BuildingBlock: BEQFEK_clean_sbu_0, # of connection points: 5
#     Edge 16, Type (0, 0), BuildingBlock: OJICUG_clean_linker_0, # of connection points: 2
#     Edge 17, Type (0, 0), BuildingBlock: OJICUG_clean_linker_0, # of connection points: 2
#     Edge 18, Type (0, 0), BuildingBlock: OJICUG_clean_linker_0, # of connection points: 2
#     Edge 19, Type (0, 0), BuildingBlock: OJICUG_clean_linker_0, # of connection points: 2
#     Edge 20, Type (0, 0), BuildingBlock: OJICUG_clean_linker_0, # of connection points: 2
#     Edge 21, Type (0, 0), BuildingBlock: OJICUG_clean_linker_0, # of connection points: 2
#     Edge 22, Type (0, 0), BuildingBlock: OJICUG_clean_linker_0, # of connection points: 2
#     Edge 23, Type (0, 0), BuildingBlock: OJICUG_clean_linker_0, # of connection points: 2
#     Edge 24, Type (0, 0), BuildingBlock: OJICUG_clean_linker_0, # of connection points: 2
#     Edge 25, Type (0, 0), BuildingBlock: OJICUG_clean_linker_0, # of connection points: 2
#     Edge 26, Type (0, 0), BuildingBlock: OJICUG_clean_linker_0, # of connection points: 2
#     Edge 27, Type (0, 0), BuildingBlock: OJICUG_clean_linker_0, # of connection points: 2
#     Edge 28, Type (0, 0), BuildingBlock: OJICUG_clean_linker_0, # of connection points: 2
#     Edge 29, Type (0, 0), BuildingBlock: OJICUG_clean_linker_0, # of connection points: 2
#     Edge 30, Type (0, 0), BuildingBlock: OJICUG_clean_linker_0, # of connection points: 2
#     Edge 31, Type (0, 0), BuildingBlock: OJICUG_clean_linker_0, # of connection points: 2
#     Edge 32, Type (0, 0), BuildingBlock: OJICUG_clean_linker_0, # of connection points: 2
#     Edge 33, Type (0, 0), BuildingBlock: OJICUG_clean_linker_0, # of connection points: 2
#     Edge 34, Type (0, 0), BuildingBlock: OJICUG_clean_linker_0, # of connection points: 2
#     Edge 35, Type (0, 0), BuildingBlock: OJICUG_clean_linker_0, # of connection points: 2
#     Edge 36, Type (0, 0), BuildingBlock: OJICUG_clean_linker_0, # of connection points: 2
#     Edge 37, Type (0, 0), BuildingBlock: OJICUG_clean_linker_0, # of connection points: 2
#     Edge 38, Type (0, 0), BuildingBlock: OJICUG_clean_linker_0, # of connection points: 2
#     Edge 39, Type (0, 0), BuildingBlock: OJICUG_clean_linker_0, # of connection points: 2
#     Edge 40, Type (0, 0), BuildingBlock: OJICUG_clean_linker_0, # of connection points: 2
#     Edge 41, Type (0, 0), BuildingBlock: OJICUG_clean_linker_0, # of connection points: 2
#     Edge 42, Type (0, 0), BuildingBlock: OJICUG_clean_linker_0, # of connection points: 2
#     Edge 43, Type (0, 0), BuildingBlock: OJICUG_clean_linker_0, # of connection points: 2
#     Edge 44, Type (0, 0), BuildingBlock: OJICUG_clean_linker_0, # of connection points: 2
#     Edge 45, Type (0, 0), BuildingBlock: OJICUG_clean_linker_0, # of connection points: 2
#     Edge 46, Type (0, 0), BuildingBlock: OJICUG_clean_linker_0, # of connection points: 2
#     Edge 47, Type (0, 0), BuildingBlock: OJICUG_clean_linker_0, # of connection points: 2
#     Edge 48, Type (0, 0), BuildingBlock: OJICUG_clean_linker_0, # of connection points: 2
#     Edge 49, Type (0, 0), BuildingBlock: OJICUG_clean_linker_0, # of connection points: 2
#     Edge 50, Type (0, 0), BuildingBlock: OJICUG_clean_linker_0, # of connection points: 2
#     Edge 51, Type (0, 0), BuildingBlock: OJICUG_clean_linker_0, # of connection points: 2
#     Edge 52, Type (0, 0), BuildingBlock: OJICUG_clean_linker_0, # of connection points: 2
#     Edge 53, Type (0, 0), BuildingBlock: OJICUG_clean_linker_0, # of connection points: 2
#     Edge 54, Type (0, 0), BuildingBlock: OJICUG_clean_linker_0, # of connection points: 2
#     Edge 55, Type (0, 0), BuildingBlock: OJICUG_clean_linker_0, # of connection points: 2
# Relax obj value: 0.949
# Max RMSD: 0.234
# Mean RMSD: 0.223
data_MOF--net-bcu-j--node1-BEQFEK_clean_sbu_0--edge1-OJICUG_clean_linker_0
_symmetry_space_group_name_H-M    P1
_symmetry_Int_Tables_number       1
_symmetry_cell_setting            triclinic
loop_
_symmetry_equiv_pos_as_xyz
'x, y, z'
_cell_length_a     32.006438
_cell_length_b     32.04463
_cell_length_c     29.339749
_cell_angle_alpha  89.53088
_cell_angle_beta   90.691752
_cell_angle_gamma 90.435423
loop_
_atom_site_label
_atom_site_type_symbol
_atom_site_fract_x
_atom_site_fract_y
_atom_site_fract_z
_atom_type_partial_charge
Co0 Co 0.98085 0.09146 0.59695 0.0
Co1 Co 0.00391 0.16441 0.53226 0.0
C2 C 0.06794 0.10475 0.5601 0.0
O3 O 0.04024 0.08171 0.57895 0.0
O4 O 0.05939 0.14124 0.54546 0.0
C5 C 0.97071 0.01332 0.64468 0.0
O6 O 0.98926 0.9964 0.60974 0.0
C7 C 0.04313 0.24239 0.50818 0.0
C8 C 0.99738 0.27208 0.46155 0.0
C9 C 0.03437 0.27933 0.48542 0.0
N10 N 0.01271 0.21462 0.4985 0.0
N11 N 0.98594 0.23213 0.46967 0.0
C12 C 0.07584 0.23572 0.5445 0.0
H13 H 0.06338 0.21566 0.57222 0.0
H14 H 0.08684 0.2656 0.55937 0.0
H15 H 0.10291 0.21974 0.52935 0.0
C16 C 0.96231 0.16042 0.65916 0.0
N17 N 0.97249 0.14572 0.61796 0.0
N18 N 0.97723 0.17695 0.58917 0.0
C19 C 0.96932 0.2129 0.61143 0.0
C20 C 0.96014 0.2036 0.65666 0.0
C21 C 0.95587 0.1334 0.70038 0.0
H22 H 0.92976 0.11129 0.69354 0.0
H23 H 0.98442 0.11479 0.70715 0.0
H24 H 0.94831 0.15197 0.7309 0.0
O25 O 0.94489 0.08313 0.54419 0.0
O26 O 0.98195 0.11692 0.49366 0.0
H27 H 0.96414 0.25586 0.5552 0.0
H28 H 0.95511 0.27873 0.6099 0.0
C29 C 0.97411 0.25576 0.59141 0.0
H30 H 0.00721 0.26583 0.59419 0.0
H31 H 0.9583 0.21793 0.45833 0.0
O32 O 0.96429 0.05229 0.64467 0.0
C33 C 0.9631 0.08358 0.50615 0.0
Co34 Co 0.41958 0.97762 0.59057 0.0
Co35 Co 0.34233 0.00433 0.53407 0.0
C36 C 0.40549 0.06687 0.55711 0.0
O37 O 0.42894 0.03775 0.5724 0.0
O38 O 0.36765 0.05962 0.54564 0.0
C39 C 0.4978 0.98114 0.63002 0.0
O40 O 0.50673 0.99933 0.59105 0.0
C41 C 0.26257 0.0433 0.51989 0.0
C42 C 0.22858 0.99926 0.47508 0.0
C43 C 0.22353 0.03469 0.50125 0.0
N44 N 0.28932 0.01406 0.50593 0.0
N45 N 0.26914 0.98837 0.47819 0.0
C46 C 0.27285 0.0743 0.55646 0.0
H47 H 0.28646 0.10273 0.54049 0.0
H48 H 0.29618 0.06123 0.58076 0.0
H49 H 0.24473 0.08327 0.57569 0.0
C50 C 0.35621 0.96036 0.66062 0.0
N51 N 0.36771 0.97067 0.61799 0.0
N52 N 0.33437 0.97591 0.59206 0.0
C53 C 0.30023 0.96755 0.61752 0.0
C54 C 0.31292 0.95808 0.66195 0.0
C55 C 0.38639 0.9541 0.69939 0.0
H56 H 0.40815 0.92861 0.69089 0.0
H57 H 0.40533 0.98295 0.70413 0.0
H58 H 0.3702 0.94599 0.73153 0.0
O59 O 0.41912 0.94201 0.53772 0.0
O60 O 0.38572 0.98284 0.49046 0.0
H61 H 0.25347 0.96338 0.56468 0.0
H62 H 0.2347 0.95093 0.62044 0.0
C63 C 0.25598 0.97169 0.60109 0.0
H64 H 0.2454 0.00414 0.6061 0.0
H65 H 0.28222 0.96167 0.46426 0.0
O66 O 0.46396 0.96065 0.63282 0.0
C67 C 0.41841 0.96199 0.50045 0.0
Co68 Co 0.52394 0.42693 0.59663 0.0
Co69 Co 0.50533 0.34814 0.53715 0.0
C70 C 0.44056 0.41288 0.54981 0.0
O71 O 0.46638 0.43694 0.57072 0.0
O72 O 0.45031 0.37569 0.53913 0.0
C73 C 0.53356 0.50668 0.64421 0.0
O74 O 0.50815 0.52359 0.61394 0.0
C75 C 0.4676 0.26635 0.52564 0.0
C76 C 0.51292 0.23346 0.48296 0.0
C77 C 0.47704 0.22739 0.50834 0.0
N78 N 0.4968 0.29389 0.5117 0.0
N79 N 0.52332 0.27425 0.48534 0.0
C80 C 0.43526 0.27615 0.56039 0.0
H81 H 0.4055 0.28381 0.54255 0.0
H82 H 0.44507 0.30345 0.581 0.0
H83 H 0.42966 0.24903 0.58333 0.0
C84 C 0.5342 0.36365 0.6687 0.0
N85 N 0.52651 0.37493 0.62516 0.0
N86 N 0.52666 0.3418 0.59898 0.0
C87 C 0.53595 0.30823 0.62544 0.0
C88 C 0.54066 0.32103 0.67037 0.0
C89 C 0.53698 0.39353 0.70756 0.0
H90 H 0.56773 0.40964 0.70653 0.0
H91 H 0.51218 0.4174 0.70407 0.0
H92 H 0.53431 0.37732 0.74095 0.0
O93 O 0.5648 0.42281 0.54868 0.0
O94 O 0.53451 0.38868 0.49427 0.0
H95 H 0.55021 0.26394 0.57342 0.0
H96 H 0.56064 0.24589 0.6307 0.0
C97 C 0.53894 0.26432 0.60891 0.0
H98 H 0.5078 0.24911 0.61067 0.0
H99 H 0.55005 0.28803 0.47155 0.0
O100 O 0.54299 0.46851 0.64081 0.0
C101 C 0.54935 0.42314 0.50892 0.0
Co102 Co 0.09664 0.51966 0.58531 0.0
Co103 Co 0.16792 0.50226 0.51815 0.0
C104 C 0.10883 0.43614 0.53842 0.0
O105 O 0.08684 0.46257 0.5595 0.0
O106 O 0.14534 0.44539 0.52493 0.0
C107 C 0.05629 0.49699 0.66076 0.0
O108 O 0.08079 0.46525 0.65267 0.0
C109 C 0.24696 0.46688 0.49667 0.0
C110 C 0.27774 0.51509 0.45443 0.0
C111 C 0.28506 0.47811 0.47809 0.0
N112 N 0.21867 0.49608 0.48523 0.0
N113 N 0.23687 0.52423 0.45878 0.0
C114 C 0.2394 0.43367 0.53208 0.0
H115 H 0.22434 0.40633 0.51552 0.0
H116 H 0.21811 0.44528 0.55857 0.0
H117 H 0.26874 0.42338 0.549 0.0
C118 C 0.16755 0.5388 0.64868 0.0
N119 N 0.15132 0.52762 0.60783 0.0
N120 N 0.18157 0.52446 0.5781 0.0
C121 C 0.2182 0.53318 0.59981 0.0
C122 C 0.21054 0.54182 0.64514 0.0
C123 C 0.14271 0.54454 0.69097 0.0
H124 H 0.11309 0.56073 0.68278 0.0
H125 H 0.13581 0.51344 0.70582 0.0
H126 H 0.16004 0.56281 0.71696 0.0
O127 O 0.09062 0.56108 0.53779 0.0
O128 O 0.11875 0.52729 0.48218 0.0
H129 H 0.25765 0.54757 0.54318 0.0
H130 H 0.28196 0.55515 0.59812 0.0
C131 C 0.26027 0.53491 0.57823 0.0
H132 H 0.27384 0.50324 0.57778 0.0
H133 H 0.22253 0.55158 0.44729 0.0
O134 O 0.05603 0.52763 0.63324 0.0
C135 C 0.08655 0.54441 0.49915 0.0
Co136 Co 0.97976 0.42492 0.87917 0.0
Co137 Co 0.00428 0.34836 0.93853 0.0
C138 C 0.0683 0.41054 0.91486 0.0
O139 O 0.03997 0.4341 0.89786 0.0
O140 O 0.05994 0.37342 0.92792 0.0
C141 C 0.98341 0.50144 0.83569 0.0
O142 O 0.00435 0.51179 0.87268 0.0
C143 C 0.04181 0.26787 0.95225 0.0
C144 C 0.99747 0.23488 -0.00274 0.0
C145 C 0.03251 0.22903 0.97075 0.0
N146 N 0.01331 0.29525 0.96659 0.0
N147 N 0.98746 0.27564 -0.00556 0.0
C148 C 0.07252 0.27739 0.9153 0.0
H149 H 0.05993 0.30147 0.89166 0.0
H150 H 0.08004 0.24916 0.89547 0.0
H151 H 0.10177 0.28969 0.93101 0.0
C152 C 0.96498 0.35973 0.8096 0.0
N153 N 0.97348 0.37256 0.85238 0.0
N154 N 0.9771 0.34007 0.87976 0.0
C155 C 0.96951 0.30529 0.8551 0.0
C156 C 0.96246 0.31643 0.80976 0.0
C157 C 0.96312 0.38837 0.7691 0.0
H158 H 0.93145 0.40211 0.76659 0.0
H159 H 0.98602 0.41421 0.77338 0.0
H160 H 0.96962 0.37156 0.73708 0.0
O161 O 0.94364 0.42399 0.93154 0.0
O162 O 0.98211 0.39186 0.98171 0.0
H163 H 0.95589 0.26252 0.90981 0.0
H164 H 0.94515 0.2425 0.8536 0.0
C165 C 0.96699 0.26192 0.87426 0.0
H166 H 0.99811 0.24713 0.87316 0.0
H167 H 0.96116 0.28928 0.00863 0.0
O168 O 0.9614 0.46849 0.83662 0.0
C169 C 0.96331 0.42498 0.96904 0.0
Co170 Co 0.08754 0.98619 0.87243 0.0
Co171 Co 0.16059 0.00725 0.93893 0.0
C172 C 0.09956 0.07181 0.9124 0.0
O173 O 0.0766 0.04498 0.89181 0.0
O174 O 0.13562 0.06242 0.92794 0.0
C175 C 0.00971 0.97501 0.82372 0.0
O176 O 0.99246 0.99415 0.85806 0.0
C177 C 0.23924 0.04697 0.95716 0.0
C178 C 0.27085 0.00439 0.00576 0.0
C179 C 0.27717 0.03954 0.97868 0.0
N180 N 0.21183 0.01752 0.97052 0.0
N181 N 0.23051 0.99268 0.00048 0.0
C182 C 0.23119 0.07681 0.91843 0.0
H183 H 0.21811 0.10602 0.93217 0.0
H184 H 0.20826 0.06337 0.89394 0.0
H185 H 0.26029 0.08461 0.89996 0.0
C186 C 0.15728 0.97029 0.80993 0.0
N187 N 0.14194 0.97968 0.85113 0.0
N188 N 0.17263 0.98213 0.88113 0.0
C189 C 0.20874 0.97335 0.85983 0.0
C190 C 0.20032 0.96608 0.81397 0.0
C191 C 0.13135 0.9686 0.76716 0.0
H192 H 0.11621 0.93742 0.76474 0.0
H193 H 0.10646 0.99246 0.76814 0.0
H194 H 0.15064 0.97392 0.73646 0.0
O195 O 0.08188 0.94866 0.92436 0.0
O196 O 0.1151 0.98246 0.97803 0.0
H197 H 0.24731 0.95942 0.91833 0.0
H198 H 0.27094 0.94833 0.86428 0.0
C199 C 0.25068 0.97037 0.88269 0.0
H200 H 0.26625 1.00135 0.88223 0.0
H201 H 0.21675 0.96596 0.01453 0.0
O202 O 0.04872 0.96854 0.82451 0.0
C203 C 0.08152 0.96531 0.9633 0.0
Co204 Co 0.52002 0.09633 0.88087 0.0
Co205 Co 0.50003 0.16691 0.94747 0.0
C206 C 0.4337 0.11121 0.92078 0.0
O207 O 0.46091 0.08845 0.90192 0.0
O208 O 0.443 0.14753 0.93474 0.0
C209 C 0.50096 0.0624 0.80006 0.0
O210 O 0.47267 0.09154 0.80459 0.0
C211 C 0.46537 0.24557 0.97179 0.0
C212 C 0.5133 0.27388 0.01679 0.0
C213 C 0.47682 0.28263 -0.00739 0.0
N214 N 0.49394 0.21645 0.98255 0.0
N215 N 0.5219 0.23313 0.01062 0.0
C216 C 0.43271 0.24005 0.9351 0.0
H217 H 0.40546 0.22326 0.94964 0.0
H218 H 0.44519 0.22116 0.90694 0.0
H219 H 0.42195 0.27021 0.92066 0.0
C220 C 0.54824 0.16769 0.82236 0.0
N221 N 0.53323 0.15113 0.86143 0.0
N222 N 0.5271 0.18118 0.8908 0.0
C223 C 0.53713 0.21795 0.87047 0.0
C224 C 0.54992 0.2107 0.82628 0.0
C225 C 0.55939 0.14325 0.78112 0.0
H226 H 0.57046 0.11179 0.79097 0.0
H227 H 0.53156 0.14082 0.75853 0.0
H228 H 0.5844 0.15898 0.76156 0.0
O229 O 0.55705 0.08373 0.93133 0.0
O230 O 0.51981 0.11536 0.98268 0.0
H231 H 0.54647 0.25798 0.92789 0.0
H232 H 0.55543 0.28276 0.87365 0.0
C233 C 0.5354 0.25998 0.89213 0.0
H234 H 0.503 0.27176 0.89076 0.0
H235 H 0.54882 0.21794 0.02209 0.0
O236 O 0.52771 0.05683 0.83163 0.0
C237 C 0.53894 0.08277 0.96942 0.0
Co238 Co 0.42958 0.52131 0.87384 0.0
Co239 Co 0.35115 0.50478 0.93386 0.0
C240 C 0.41436 0.43894 0.92169 0.0
O241 O 0.43879 0.46413 0.90062 0.0
O242 O 0.37724 0.44925 0.93201 0.0
C243 C 0.50991 0.53214 0.82655 0.0
O244 O 0.52875 0.51007 0.85851 0.0
C245 C 0.26892 0.46871 0.94747 0.0
C246 C 0.23697 0.51623 -0.01185 0.0
C247 C 0.23015 0.47958 0.96422 0.0
N248 N 0.29708 0.49786 0.96028 0.0
N249 N 0.27801 0.52568 0.98553 0.0
C250 C 0.27794 0.43503 0.91392 0.0
H251 H 0.30457 0.44416 0.89207 0.0
H252 H 0.25024 0.42828 0.89203 0.0
H253 H 0.2864 0.40613 0.93284 0.0
C254 C 0.36567 0.53138 0.80192 0.0
N255 N 0.37726 0.52461 0.84558 0.0
N256 N 0.34428 0.52527 0.87185 0.0
C257 C 0.31045 0.53389 0.84531 0.0
C258 C 0.32292 0.53759 0.8002 0.0
C259 C 0.3954 0.53346 0.76298 0.0
H260 H 0.41268 0.56353 0.76451 0.0
H261 H 0.41841 0.50782 0.76607 0.0
H262 H 0.37899 0.53172 0.72955 0.0
O263 O 0.42778 0.56285 0.92137 0.0
O264 O 0.39362 0.53278 0.97586 0.0
H265 H 0.26632 0.54891 0.89712 0.0
H266 H 0.24759 0.55763 0.83985 0.0
C267 C 0.26656 0.53675 0.86196 0.0
H268 H 0.25171 0.50542 0.86105 0.0
H269 H 0.29231 0.55266 -0.00185 0.0
O270 O 0.471 0.53863 0.82897 0.0
C271 C 0.42796 0.54796 0.96132 0.0
Co272 Co 0.01935 0.91533 0.37219 0.0
Co273 Co 0.99995 0.84364 0.44017 0.0
C274 C 0.93383 0.90157 0.41204 0.0
O275 O 0.96024 0.92476 0.3913 0.0
O276 O 0.94389 0.86588 0.42788 0.0
C277 C 0.03207 0.99265 0.32263 0.0
O278 O 0.0158 0.01154 0.35772 0.0
C279 C 0.96272 0.76491 0.46364 0.0
C280 C 0.00758 0.73674 0.5124 0.0
C281 C 0.97165 0.72837 0.48707 0.0
N282 N 0.99199 0.79355 0.47437 0.0
N283 N 0.01824 0.77695 0.50441 0.0
C284 C 0.93137 0.77037 0.42568 0.0
H285 H 0.90278 0.78466 0.43953 0.0
H286 H 0.94398 0.7914 0.39892 0.0
H287 H 0.92269 0.74014 0.40992 0.0
C288 C 0.03779 0.84478 0.31176 0.0
N289 N 0.02798 0.86068 0.35259 0.0
N290 N 0.02555 0.83052 0.38301 0.0
C291 C 0.03465 0.79414 0.36235 0.0
C292 C 0.04231 0.80189 0.31647 0.0
C293 C 0.03899 0.86992 0.26855 0.0
H294 H 0.06953 0.88643 0.26655 0.0
H295 H 0.01397 0.89368 0.26857 0.0
H296 H 0.03497 0.84998 0.23807 0.0
O297 O 0.05635 0.92517 0.42396 0.0
O298 O 0.02213 0.8919 0.47724 0.0
H299 H 0.04815 0.75618 0.42129 0.0
H300 H 0.05839 0.73151 0.36753 0.0
C301 C 0.03691 0.75252 0.38572 0.0
H302 H 0.00553 0.73768 0.38565 0.0
H303 H 0.04508 0.79195 0.51675 0.0
O304 O 0.03559 0.95329 0.32318 0.0
C305 C 0.03962 0.92532 0.46281 0.0
Co306 Co 0.58372 0.01655 0.36906 0.0
Co307 Co 0.65852 0.99501 0.43196 0.0
C308 C 0.59788 0.92976 0.40767 0.0
O309 O 0.57403 0.95701 0.38906 0.0
O310 O 0.63476 0.93914 0.42099 0.0
C311 C 0.50395 0.02775 0.32361 0.0
O312 O 0.48712 0.00841 0.35858 0.0
C313 C 0.73818 0.95799 0.45054 0.0
C314 C 0.76973 1.00314 0.49609 0.0
C315 C 0.77641 0.96761 0.47052 0.0
N316 N 0.71032 0.9867 0.46317 0.0
N317 N 0.72899 0.01304 0.49139 0.0
C318 C 0.72991 0.92673 0.41365 0.0
H319 H 0.70734 0.93934 0.38823 0.0
H320 H 0.75891 0.91817 0.3958 0.0
H321 H 0.71617 0.89812 0.42908 0.0
C322 C 0.65046 0.03545 0.30373 0.0
N323 N 0.63702 0.02473 0.34551 0.0
N324 N 0.66898 0.02176 0.37382 0.0
C325 C 0.70414 0.03158 0.35068 0.0
C326 C 0.69358 0.03999 0.30539 0.0
C327 C 0.62224 0.04122 0.26314 0.0
H328 H 0.60081 0.0675 0.26961 0.0
H329 H 0.60287 0.0127 0.25824 0.0
H330 H 0.63995 0.04824 0.2317 0.0
O331 O 0.57977 0.05384 0.42035 0.0
O332 O 0.61244 0.01675 0.47187 0.0
H333 H 0.74745 0.03924 0.40642 0.0
H334 H 0.7689 0.05135 0.35169 0.0
C335 C 0.74753 0.03004 0.3702 0.0
H336 H 0.75994 0.99804 0.367 0.0
H337 H 0.7149 0.03961 0.5044 0.0
O338 O 0.54312 0.03369 0.32293 0.0
C339 C 0.57954 0.03587 0.45879 0.0
Co340 Co 0.48547 0.57534 0.37696 0.0
Co341 Co 0.50311 0.65175 0.44002 0.0
C342 C 0.56841 0.58796 0.42506 0.0
O343 O 0.54304 0.56461 0.40264 0.0
O344 O 0.5581 0.62444 0.43759 0.0
C345 C 0.47764 0.49687 0.32792 0.0
O346 O 0.50219 0.48009 0.35911 0.0
C347 C 0.54132 0.73232 0.45364 0.0
C348 C 0.49554 0.76549 0.4955 0.0
C349 C 0.53151 0.7714 0.47022 0.0
N350 N 0.5121 0.70487 0.46764 0.0
N351 N 0.48545 0.72458 0.49376 0.0
C352 C 0.57346 0.72247 0.41862 0.0
H353 H 0.60301 0.71379 0.43629 0.0
H354 H 0.56307 0.69582 0.39736 0.0
H355 H 0.57974 0.74976 0.39616 0.0
C356 C 0.4749 0.64144 0.30757 0.0
N357 N 0.48225 0.62847 0.35066 0.0
N358 N 0.48222 0.66058 0.37827 0.0
C359 C 0.47353 0.69524 0.35324 0.0
C360 C 0.46922 0.6843 0.3076 0.0
C361 C 0.47138 0.61276 0.26767 0.0
H362 H 0.44221 0.59412 0.27077 0.0
H363 H 0.49803 0.5908 0.26807 0.0
H364 H 0.47024 0.63001 0.23478 0.0
O365 O 0.44432 0.5766 0.4249 0.0
O366 O 0.47338 0.60993 0.48078 0.0
H367 H 0.46018 0.7375 0.40747 0.0
H368 H 0.44934 0.75811 0.35176 0.0
C369 C 0.47115 0.73848 0.37191 0.0
H370 H 0.50234 0.75359 0.37025 0.0
H371 H 0.45849 0.71092 0.50719 0.0
O372 O 0.4677 0.53492 0.33107 0.0
C373 C 0.45931 0.57561 0.46487 0.0
Co374 Co 0.91575 0.48646 0.38643 0.0
Co375 Co 0.84318 0.5031 0.45164 0.0
C376 C 0.90111 0.57 0.43319 0.0
O377 O 0.924 0.5437 0.41302 0.0
O378 O 0.86425 0.56046 0.44533 0.0
C379 C 0.95432 0.5107 0.31075 0.0
O380 O 0.92796 0.5409 0.31897 0.0
C381 C 0.76334 0.53614 0.47558 0.0
C382 C 0.73347 0.48464 0.51384 0.0
C383 C 0.72538 0.52284 0.49302 0.0
N384 N 0.79223 0.50689 0.48484 0.0
N385 N 0.77454 0.47673 0.50898 0.0
C386 C 0.77042 0.57188 0.44311 0.0
H387 H 0.78608 0.59775 0.46171 0.0
H388 H 0.79107 0.56219 0.41512 0.0
H389 H 0.74089 0.5836 0.42784 0.0
C390 C 0.84683 0.46579 0.32169 0.0
N391 N 0.86171 0.47752 0.36285 0.0
N392 N 0.83047 0.4812 0.39124 0.0
C393 C 0.79445 0.47254 0.36813 0.0
C394 C 0.80378 0.46328 0.32322 0.0
C395 C 0.87294 0.45499 0.28162 0.0
H396 H 0.90241 0.44004 0.29295 0.0
H397 H 0.88005 0.48386 0.2622 0.0
H398 H 0.85577 0.43345 0.25846 0.0
O399 O 0.9222 0.4446 0.43325 0.0
O400 O 0.89333 0.47948 0.48761 0.0
H401 H 0.75148 0.46158 0.42231 0.0
H402 H 0.72841 0.45724 0.36664 0.0
C403 C 0.75149 0.47482 0.38745 0.0
H404 H 0.74126 0.50772 0.388 0.0
H405 H 0.78941 0.44904 0.51837 0.0
O406 O 0.95684 0.4804 0.3386 0.0
C407 C 0.92561 0.46156 0.47178 0.0
Co408 Co 0.03034 0.58346 0.09122 0.0
Co409 Co 0.00494 0.66134 0.03485 0.0
C410 C 0.94118 0.59939 0.05739 0.0
O411 O 0.96982 0.57534 0.07283 0.0
O412 O 0.94923 0.637 0.04592 0.0
C413 C 0.02485 0.50679 0.13424 0.0
O414 O 1.00271 0.49723 0.0978 0.0
C415 C 0.96754 0.74207 0.01922 0.0
C416 C 0.01345 0.77456 0.97566 0.0
C417 C 0.97739 0.78067 0.00042 0.0
N418 N 0.99668 0.71458 0.00667 0.0
N419 N 0.0235 0.73389 0.97969 0.0
C420 C 0.9351 0.73286 0.05443 0.0
H421 H 0.90683 0.71989 0.03728 0.0
H422 H 0.94679 0.70936 0.07932 0.0
H423 H 0.92624 0.76134 0.0731 0.0
C424 C 0.04764 0.64629 0.16215 0.0
N425 N 0.03767 0.63507 0.11924 0.0
N426 N 0.03297 0.66853 0.09351 0.0
C427 C 0.04124 0.70245 0.11949 0.0
C428 C 0.05018 0.68949 0.16395 0.0
C429 C 0.05328 0.61598 0.20077 0.0
H430 H 0.07799 0.5934 0.19211 0.0
H431 H 0.02383 0.59808 0.20564 0.0
H432 H 0.06215 0.63192 0.23293 0.0
O433 O 0.066 0.58487 0.03865 0.0
O434 O 0.02563 0.61762 -0.00919 0.0
H435 H 0.04635 0.74952 0.06738 0.0
H436 H 0.05745 0.76798 0.12373 0.0
C437 C 0.03725 0.74673 0.10349 0.0
H438 H 0.00458 0.75707 0.10756 0.0
H439 H 0.05029 0.7201 0.96681 0.0
O440 O 0.04814 0.53882 0.13269 0.0
C441 C 0.04531 0.58452 0.0018 0.0
Co442 Co 0.92037 0.02427 0.09376 0.0
Co443 Co 0.84609 1.00274 0.02856 0.0
C444 C 0.9083 0.93864 0.05366 0.0
O445 O 0.93119 0.96571 0.07396 0.0
O446 O 0.87194 0.94763 0.03853 0.0
C447 C 0.99822 0.03247 0.14249 0.0
O448 O 0.01405 0.01082 0.10911 0.0
C449 C 0.76642 0.96371 0.01254 0.0
C450 C 0.73381 0.00775 0.96636 0.0
C451 C 0.72775 0.97241 -0.00682 0.0
N452 N 0.79391 0.9928 -0.00161 0.0
N453 N 0.77458 0.01845 0.96979 0.0
C454 C 0.77545 0.93311 0.05029 0.0
H455 H 0.7876 0.90397 0.03536 0.0
H456 H 0.79951 0.9458 0.07396 0.0
H457 H 0.74698 0.92539 0.06991 0.0
C458 C 0.85188 0.0375 0.15835 0.0
N459 N 0.86653 0.02953 0.11649 0.0
N460 N 0.83532 0.02738 0.08708 0.0
C461 C 0.79957 0.03516 0.1095 0.0
C462 C 0.80877 0.04111 0.15538 0.0
C463 C 0.87854 0.03832 0.20061 0.0
H464 H 0.89367 0.06947 0.2035 0.0
H465 H 0.90349 0.01459 0.19843 0.0
H466 H 0.85981 0.03234 0.23159 0.0
O467 O 0.92334 0.06221 0.04199 0.0
O468 O 0.89037 0.0284 -0.01163 0.0
H469 H 0.75969 0.05024 0.05239 0.0
H470 H 0.73745 0.0604 0.10733 0.0
C471 C 0.75715 0.03862 0.08787 0.0
H472 H 0.7414 0.00774 0.08827 0.0
H473 H 0.78828 0.04519 0.95568 0.0
O474 O 0.95993 0.04214 0.14087 0.0
C475 C 0.92402 0.04532 0.00321 0.0
Co476 Co 0.48592 0.91416 0.0964 0.0
Co477 Co 0.50528 0.84251 0.02961 0.0
C478 C 0.5708 0.90362 0.05446 0.0
O479 O 0.54446 0.92609 0.07543 0.0
O480 O 0.56091 0.86767 0.03936 0.0
C481 C 0.47179 0.99117 0.14471 0.0
O482 O 0.48998 0.01054 0.11062 0.0
C483 C 0.5426 0.76372 0.01058 0.0
C484 C 0.4969 0.73309 0.96462 0.0
C485 C 0.53274 0.72588 -0.00949 0.0
N486 N 0.51371 0.79179 -0.00228 0.0
N487 N 0.48707 0.7737 0.9692 0.0
C488 C 0.57414 0.77121 0.04794 0.0
H489 H 0.60324 0.78382 0.03274 0.0
H490 H 0.56236 0.79434 0.07243 0.0
H491 H 0.58173 0.74205 0.06679 0.0
C492 C 0.47247 0.84375 0.15995 0.0
N493 N 0.48031 0.85965 0.11827 0.0
N494 N 0.48179 0.82938 0.08841 0.0
C495 C 0.47399 0.79294 0.11047 0.0
C496 C 0.46841 0.80081 0.15645 0.0
C497 C 0.47186 0.86911 0.20255 0.0
H498 H 0.44094 0.88427 0.20523 0.0
H499 H 0.49611 0.89399 0.20099 0.0
H500 H 0.47722 0.84944 0.23334 0.0
O501 O 0.44674 0.91872 0.0457 0.0
O502 O 0.4802 0.88874 -0.00899 0.0
H503 H 0.45875 0.75419 0.05313 0.0
H504 H 0.44891 0.7305 0.10795 0.0
C505 C 0.47055 0.75104 0.08857 0.0
H506 H 0.50153 0.73587 0.0889 0.0
H507 H 0.46026 0.78798 0.95606 0.0
O508 O 0.4681 0.95178 0.14414 0.0
C509 C 0.46286 0.92123 0.00668 0.0
Co510 Co 0.58324 0.4835 0.09762 0.0
Co511 Co 0.65993 0.50315 0.03601 0.0
C512 C 0.59733 0.56816 0.05487 0.0
O513 O 0.57342 0.5419 0.07504 0.0
O514 O 0.634 0.55839 0.04239 0.0
C515 C 0.50432 0.47127 0.14564 0.0
O516 O 0.48568 0.4939 0.11401 0.0
C517 C 0.74131 0.5407 0.02299 0.0
C518 C 0.77318 0.49593 0.9787 0.0
C519 C 0.7799 0.53128 0.00488 0.0
N520 N 0.71329 0.51199 0.00875 0.0
N521 N 0.73227 0.48586 0.98137 0.0
C522 C 0.73259 0.57209 0.0592 0.0
H523 H 0.70673 0.56116 0.08119 0.0
H524 H 0.7607 0.57806 0.08074 0.0
H525 H 0.72314 0.60187 0.04266 0.0
C526 C 0.64957 0.47098 0.16678 0.0
N527 N 0.63635 0.47861 0.12377 0.0
N528 N 0.66843 0.47959 0.09623 0.0
C529 C 0.7033 0.47141 0.12113 0.0
C530 C 0.69258 0.46627 0.16662 0.0
C531 C 0.62178 0.47134 0.20744 0.0
H532 H 0.60792 0.43979 0.21215 0.0
H533 H 0.59607 0.49394 0.20205 0.0
H534 H 0.63952 0.47965 0.23884 0.0
O535 O 0.58269 0.44491 0.0471 0.0
O536 O 0.61661 0.47721 -0.00628 0.0
H537 H 0.74433 0.45481 0.06686 0.0
H538 H 0.76481 0.44472 0.12342 0.0
C539 C 0.74618 0.46672 0.10214 0.0
H540 H 0.76261 0.49725 0.10245 0.0
H541 H 0.71809 0.45942 0.96728 0.0
O542 O 0.54313 0.46437 0.14292 0.0
C543 C 0.5823 0.46172 0.008 0.0
C544 C 0.94493 0.00843 0.72399 0.0
C545 C 0.9683 0.99113 0.68862 0.0
H546 H 0.93934 0.01599 0.79593 0.0
C547 C 0.99652 0.95903 0.69871 0.0
H548 H 0.9222 0.03258 0.71689 0.0
C549 C 0.00638 0.94957 0.74402 0.0
C550 C 0.98792 0.97199 0.77945 0.0
H551 H 0.0145 0.9447 0.67207 0.0
H552 H 0.03152 0.92792 0.7511 0.0
C553 C 0.95462 0.99881 0.76929 0.0
C554 C 0.51965 0.98052 0.71144 0.0
C555 C 0.50958 1.0029 0.67159 0.0
H556 H 0.52582 0.98266 0.78435 0.0
C557 C 0.49969 0.04533 0.67406 0.0
H558 H 0.52618 0.94743 0.71007 0.0
C559 C 0.49694 0.06449 0.71609 0.0
C560 C 0.50588 0.04204 0.75614 0.0
H561 H 0.49055 0.06282 0.64381 0.0
H562 H 0.48676 0.09661 0.71719 0.0
C563 C 0.5188 1.00038 0.75363 0.0
C564 C 0.50912 0.56492 0.7496 0.0
C565 C 0.52937 0.53912 0.78188 0.0
H566 H 0.49481 0.57501 0.67905 0.0
C567 C 0.5613 0.51281 0.76751 0.0
H568 H 0.48551 0.58678 0.76005 0.0
C569 C 0.56728 0.50676 0.72102 0.0
C570 C 0.54094 0.52646 0.68878 0.0
H571 H 0.57817 0.4933 0.79167 0.0
H572 H 0.58916 0.48314 0.71064 0.0
C573 C 0.51466 0.55843 0.70314 0.0
C574 C 0.98316 0.5259 0.75507 0.0
C575 C 0.0042 0.50829 0.79259 0.0
H576 H 0.98416 0.53693 0.68274 0.0
C577 C 0.04237 0.48812 0.7867 0.0
H578 H 0.95303 0.54049 0.75915 0.0
C579 C 0.05851 0.48373 0.74349 0.0
C580 C 0.03774 0.50115 0.70569 0.0
H581 H 0.05837 0.47328 0.81522 0.0
H582 H 0.08724 0.46651 0.73976 0.0
C583 C 1.00051 0.52326 0.71168 0.0
C584 C 0.05872 0.99498 0.24361 0.0
C585 C 0.03615 0.01411 0.27844 0.0
H586 H 0.06505 0.98681 0.17187 0.0
C587 C 0.01041 0.04808 0.2677 0.0
H588 H 0.07953 0.96928 0.25124 0.0
C589 C 1.00206 0.05809 0.22217 0.0
C590 C 0.0195 0.03429 0.18717 0.0
H591 H 0.9931 0.06376 0.29396 0.0
H592 H 0.97864 0.08145 0.21453 0.0
C593 C 0.05056 0.00515 0.19812 0.0
C594 C 0.45101 1.00112 0.26862 0.0
C595 C 0.48148 0.03105 0.27984 0.0
H596 H 0.4233 0.96517 0.21511 0.0
C597 C 0.49828 0.05647 0.2452 0.0
H598 H 0.43712 0.98152 0.2947 0.0
C599 C 0.4905 0.04706 0.19958 0.0
C600 C 0.46596 0.0121 0.18851 0.0
H601 H 0.52118 0.08047 0.25323 0.0
H602 H 0.50766 0.06393 0.17361 0.0
C603 C 0.44335 0.99159 0.22301 0.0
C604 C 0.44543 0.49602 0.25042 0.0
C605 C 0.47177 0.47706 0.28317 0.0
H606 H 0.43487 0.50863 0.17957 0.0
C607 C 0.49929 0.44592 0.26941 0.0
H608 H 0.42281 0.51911 0.26032 0.0
C609 C 0.50574 0.43947 0.22311 0.0
C610 C 0.48495 0.46434 0.19034 0.0
H611 H 0.51929 0.43004 0.29392 0.0
H612 H 0.53032 0.41846 0.21322 0.0
C613 C 0.4521 0.48982 0.20409 0.0
C614 C 0.00986 0.48552 0.2588 0.0
C615 C 0.97262 0.50742 0.26555 0.0
H616 H 0.05654 0.46828 0.21041 0.0
C617 C 0.95139 0.52509 0.22817 0.0
H618 H 0.02661 0.47166 0.28737 0.0
C619 C 0.96699 0.52098 0.18465 0.0
C620 C 0.00493 0.50061 0.17797 0.0
H621 H 0.92253 0.54199 0.23244 0.0
H622 H 0.95056 0.53587 0.15645 0.0
C623 C 0.02655 0.48299 0.2151 0.0
C624 C 0.03966 0.00366 0.46216 0.0
C625 C 0.02177 0.96585 0.47728 0.0
H626 H 0.03484 0.07012 0.4577 0.0
C627 C 0.98308 0.96719 0.49955 0.0
H628 H 0.06916 0.00379 0.44442 0.0
C629 C 0.96284 0.00521 0.50626 0.0
C630 C 0.9808 0.04306 0.49131 0.0
H631 H 0.96772 0.93876 0.51079 0.0
H632 H 0.93333 0.00502 0.52398 0.0
C633 C 0.01945 0.0417 0.46893 0.0
C634 C 0.53552 0.97783 0.4916 0.0
C635 C 0.53847 0.01829 0.47284 0.0
H636 H 0.49548 0.92762 0.51272 0.0
C637 C 0.50135 0.0389 0.46033 0.0
H638 H 0.56335 0.96049 0.50069 0.0
C639 C 0.46235 0.0197 0.4665 0.0
C640 C 0.45938 0.97934 0.48557 0.0
H641 H 0.50249 0.06981 0.44513 0.0
H642 H 0.43452 0.03709 0.45749 0.0
C643 C 0.49655 0.95856 0.49759 0.0
C644 C 0.49269 0.46193 0.46569 0.0
C645 C 0.52784 0.46245 0.49489 0.0
H646 H 0.44266 0.49665 0.43506 0.0
C647 C 0.53957 0.50056 0.51519 0.0
H648 H 0.48228 0.43321 0.44983 0.0
C649 C 0.51642 0.53688 0.5073 0.0
C650 C 0.48117 0.53634 0.47826 0.0
H651 H 0.5665 0.50225 0.53784 0.0
H652 H 0.52682 0.56558 0.52322 0.0
C653 C 0.46959 0.49829 0.45773 0.0
C654 C 0.97162 0.51503 0.51124 0.0
C655 C 0.96744 0.48061 0.48208 0.0
H656 H 0.01155 0.56305 0.53786 0.0
C657 C 1.0027 0.46843 0.45712 0.0
H658 H 0.94522 0.52593 0.53045 0.0
C659 C 0.04069 0.49027 0.46066 0.0
C660 C 0.04483 0.52477 0.4897 0.0
H661 H 1.00084 0.44223 0.43407 0.0
H662 H 0.06705 0.47942 0.44134 0.0
C663 C 0.00965 0.53682 0.51486 0.0
C664 C 0.96419 0.50326 0.96628 0.0
C665 C 0.98319 0.46582 0.98059 0.0
H666 H 0.96902 0.56972 0.95996 0.0
C667 C 0.02368 0.46787 -0.00028 0.0
H668 H 0.93321 0.50285 0.95099 0.0
C669 C 0.04462 0.50621 0.00399 0.0
C670 C 0.02559 0.54368 -0.01021 0.0
H671 H 0.03972 0.43977 0.01049 0.0
H672 H 0.0756 0.50658 0.01928 0.0
C673 C 0.9851 0.54162 0.97063 0.0
C674 C 1.00314 0.9673 0.96014 0.0
C675 C 0.04107 0.98388 0.97704 0.0
H676 H 0.93684 0.97399 0.95351 0.0
C677 C 0.04007 0.02169 0.00105 0.0
H678 H 1.00272 0.9384 0.94122 0.0
C679 C 1.0023 0.04251 0.00746 0.0
C680 C 0.9644 0.02604 -0.00963 0.0
H681 H 0.0686 0.03596 0.01389 0.0
H682 H 1.00274 0.07144 0.02631 0.0
C683 C 0.96537 0.98816 0.96649 0.0
C684 C 0.53948 0.00449 0.96623 0.0
C685 C 0.52177 0.04125 0.9833 0.0
H686 H 0.53451 0.93825 0.95862 0.0
C687 C 0.48335 0.03807 0.00597 0.0
H688 H 0.56872 0.0057 0.94802 0.0
C689 C 0.46324 0.99937 0.01119 0.0
C690 C 0.48102 0.96267 -0.00575 0.0
H691 H 0.46804 0.06562 0.01857 0.0
H692 H 0.43386 0.9981 0.02913 0.0
C693 C 0.51936 0.96581 0.97146 0.0
C694 C 0.50599 0.54102 0.95796 0.0
C695 C 0.46767 0.52766 0.97645 0.0
H696 H 0.5717 0.53054 0.95203 0.0
C697 C 0.46748 0.49177 0.00439 0.0
H698 H 0.50739 0.56848 0.93623 0.0
C699 C 0.50435 0.4695 0.01274 0.0
C700 C 0.54262 0.48272 -0.00597 0.0
H701 H 0.43864 0.48007 0.01879 0.0
H702 H 0.50291 0.44192 0.03429 0.0
C703 C 0.54287 0.51884 0.96646 0.0
C704 C 0.99081 0.22947 0.72964 0.0
C705 C 0.95993 0.23286 0.69551 0.0
H706 H 0.0161 0.2537 0.79189 0.0
C707 C 0.92976 0.26429 0.69872 0.0
H708 H 0.01475 0.20585 0.72757 0.0
C709 C 0.93043 0.29176 0.73575 0.0
C710 C 0.96119 0.288 0.77009 0.0
H711 H 0.90551 0.26733 0.67286 0.0
H712 H 0.90673 0.31559 0.73784 0.0
C713 C 0.99146 0.25673 0.76649 0.0
C714 C 0.29166 0.98797 0.73633 0.0
C715 C 0.28629 0.95725 0.70291 0.0
H716 H 0.26833 0.01499 0.79741 0.0
C717 C 0.25375 0.92792 0.70743 0.0
H718 H 0.31627 0.01119 0.73332 0.0
C719 C 0.22614 0.93018 0.74402 0.0
C720 C 0.23091 0.9616 0.77681 0.0
H721 H 0.24934 0.90363 0.68234 0.0
H722 H 0.20086 0.90765 0.7465 0.0
C723 C 0.26427 0.9901 0.77296 0.0
C724 C 0.58353 0.24471 0.75815 0.0
C725 C 0.54981 0.24128 0.78818 0.0
H726 H 0.60698 0.27296 0.69672 0.0
C727 C 0.51407 0.26554 0.78016 0.0
H728 H 0.61171 0.22691 0.76412 0.0
C729 C 0.51158 0.29195 0.74219 0.0
C730 C 0.54472 0.29446 0.71148 0.0
H731 H 0.48749 0.26316 0.80257 0.0
H732 H 0.48336 0.30975 0.73621 0.0
C733 C 0.5809 0.27101 0.71986 0.0
C734 C 0.24333 0.57649 0.71339 0.0
C735 C 0.24146 0.54289 0.683 0.0
H736 H 0.27112 0.60127 0.7746 0.0
C737 C 0.26799 0.50872 0.69014 0.0
H738 H 0.22358 0.60344 0.70808 0.0
C739 C 0.29494 0.50748 0.72791 0.0
C740 C 0.29594 0.54046 0.75907 0.0
H741 H 0.26695 0.48238 0.66723 0.0
H742 H 0.31436 0.48031 0.73339 0.0
C743 C 0.27036 0.57525 0.75126 0.0
C744 C 0.08076 0.74807 0.2103 0.0
C745 C 0.05111 0.71587 0.20523 0.0
H746 H 0.10132 0.80064 0.24991 0.0
C747 C 0.02032 0.71054 0.23848 0.0
H748 H 0.10515 0.75241 0.1854 0.0
C749 C 0.01831 0.73778 0.27536 0.0
C750 C 0.04702 0.77093 0.27962 0.0
H751 H 0.9969 0.68614 0.2351 0.0
H752 H 0.9933 0.73386 0.29959 0.0
C753 C 0.07863 0.77551 0.24712 0.0
C754 C 0.78146 0.07319 0.22687 0.0
C755 C 0.77865 0.04237 0.1932 0.0
H756 H 0.75566 0.09737 0.2885 0.0
C757 C 0.74724 0.0117 0.19613 0.0
H758 H 0.80537 0.09723 0.22511 0.0
C759 C 0.71937 0.0115 0.23233 0.0
C760 C 0.7222 0.04209 0.26618 0.0
H761 H 0.74486 0.9872 0.171 0.0
H762 H 0.69601 0.98692 0.23434 0.0
C763 C 0.75323 0.07318 0.26302 0.0
C764 C 0.49882 0.71187 0.23503 0.0
C765 C 0.46709 0.71273 0.26759 0.0
H766 H 0.52386 0.73917 0.17419 0.0
C767 C 0.43471 0.74183 0.2625 0.0
H768 H 0.52432 0.68997 0.23845 0.0
C769 C 0.43484 0.77048 0.22618 0.0
C770 C 0.46689 0.7698 0.19399 0.0
H771 H 0.40943 0.74253 0.28667 0.0
H772 H 0.40998 0.79312 0.22318 0.0
C773 C 0.49858 0.73997 0.19839 0.0
C774 C 0.75415 0.4931 0.2104 0.0
C775 C 0.7213 0.46408 0.20647 0.0
H776 H 0.80544 0.51567 0.25085 0.0
C777 C 0.71561 0.43419 0.2412 0.0
H778 H 0.75873 0.51696 0.18454 0.0
C779 C 0.74253 0.43337 0.27926 0.0
C780 C 0.77511 0.46276 0.28324 0.0
H781 H 0.69055 0.41139 0.23873 0.0
H782 H 0.73807 0.40971 0.30535 0.0
C783 C 0.78074 0.49246 0.24838 0.0
C784 C 0.15097 0.02642 0.5303 0.0
C785 C 0.18349 0.05264 0.51547 0.0
H786 H 0.08931 0.02236 0.55753 0.0
C787 C 0.17849 0.09603 0.51717 0.0
H788 H 0.15432 0.99281 0.52968 0.0
C789 C 0.1415 0.11301 0.53334 0.0
C790 C 0.10888 0.08688 0.54842 0.0
H791 H 0.20319 0.11681 0.50583 0.0
H792 H 0.13832 0.14663 0.53356 0.0
C793 C 0.11411 0.04337 0.54697 0.0
C794 C 0.39773 0.1427 0.53659 0.0
C795 C 0.42367 0.10873 0.54761 0.0
H796 H 0.39422 0.20671 0.51503 0.0
C797 C 0.46725 0.11428 0.54556 0.0
H798 H 0.36404 0.13942 0.53743 0.0
C799 C 0.48442 0.15266 0.53213 0.0
C800 C 0.45845 0.18655 0.52125 0.0
H801 H 0.48817 0.08868 0.55324 0.0
H802 H 0.51809 0.15595 0.5307 0.0
C803 C 0.41496 0.18125 0.52374 0.0
C804 C 0.39226 0.4728 0.53328 0.0
C805 C 0.40031 0.4297 0.53238 0.0
H806 H 0.34981 0.52199 0.51546 0.0
C807 C 0.37096 0.4031 0.51102 0.0
H808 H 0.4144 0.49426 0.54882 0.0
C809 C 0.33429 0.4191 0.49165 0.0
C810 C 0.32619 0.462 0.49299 0.0
H811 H 0.37625 0.36981 0.50928 0.0
H812 H 0.31183 0.39786 0.47625 0.0
C813 C 0.35567 0.48881 0.51348 0.0
C814 C 0.11479 0.3638 0.50735 0.0
C815 C 0.08998 0.39567 0.5252 0.0
H816 H 0.11629 0.30182 0.48025 0.0
C817 C 0.04648 0.38956 0.52747 0.0
H818 H 0.14833 0.36765 0.50483 0.0
C819 C 0.02822 0.35238 0.51235 0.0
C820 C 0.05317 0.32036 0.49548 0.0
H821 H 0.02641 0.41364 0.54055 0.0
H822 H 0.99473 0.34814 0.51521 0.0
C823 C 0.09653 0.32635 0.49291 0.0
C824 C 0.18227 0.41833 0.95142 0.0
C825 C 0.18892 0.46167 0.95132 0.0
H826 H 0.1391 0.3681 0.93962 0.0
C827 C 0.15618 0.48802 0.93751 0.0
H828 H 0.20693 0.39736 0.96221 0.0
C829 C 0.11755 0.47135 0.92379 0.0
C830 C 0.11056 0.42795 0.92451 0.0
H831 H 0.1606 0.52157 0.93681 0.0
H832 H 0.09286 0.49257 0.9137 0.0
C833 C 0.14345 0.40164 0.93838 0.0
C834 C 0.10918 0.1453 0.93894 0.0
C835 C 0.08236 0.11302 0.92416 0.0
H836 H 0.11428 0.20719 0.9658 0.0
C837 C 0.03892 0.11908 0.92557 0.0
H838 H 0.14277 0.14149 0.93867 0.0
C839 C 0.02272 0.15642 0.94198 0.0
C840 C 0.04964 0.1886 0.95649 0.0
H841 H 0.01742 0.09458 0.91518 0.0
H842 H 0.98915 0.16039 0.94266 0.0
C843 C 0.09296 0.18278 0.95473 0.0
C844 C 0.38718 0.04946 0.93485 0.0
C845 C 0.39272 0.09304 0.93306 0.0
H846 H 0.34648 0.99841 0.95215 0.0
C847 C 0.36026 0.11879 0.94782 0.0
H848 H 0.41179 0.02872 0.9244 0.0
C849 C 0.32301 0.10135 0.96376 0.0
C850 C 0.31774 0.05789 0.96578 0.0
H851 H 0.36369 0.15244 0.94725 0.0
H852 H 0.29822 0.1218 0.97444 0.0
C853 C 0.35015 0.03205 0.95146 0.0
C854 C 0.47362 0.38997 0.93877 0.0
C855 C 0.43062 0.39874 0.93962 0.0
H856 H 0.52209 0.34657 0.95627 0.0
C857 C 0.40357 0.37015 0.96123 0.0
H858 H 0.49543 0.41159 0.92311 0.0
C859 C 0.41898 0.33334 0.98063 0.0
C860 C 0.46171 0.32435 0.97898 0.0
H861 H 0.37035 0.37604 0.96298 0.0
H862 H 0.39736 0.3113 -0.00406 0.0
C863 C 0.48903 0.35318 0.95849 0.0
C864 C 0.88594 0.96174 0.42464 0.0
C865 C 0.89258 0.91841 0.42418 0.0
H866 H 0.84412 0.01129 0.44098 0.0
C867 C 0.86106 0.89156 0.4405 0.0
H868 H 0.9099 0.9833 0.41313 0.0
C869 C 0.82369 0.90764 0.4567 0.0
C870 C 0.81722 0.95084 0.45724 0.0
H871 H 0.86536 0.85806 0.44105 0.0
H872 H 0.79973 0.88631 0.4687 0.0
C873 C 0.84868 0.97782 0.44134 0.0
C874 C 0.60791 0.85634 0.43556 0.0
C875 C 0.58093 0.8881 0.42015 0.0
H876 H 0.61336 0.79476 0.46413 0.0
C877 C 0.53754 0.8811 0.42172 0.0
H878 H 0.64148 0.8608 0.4352 0.0
C879 C 0.52155 0.84353 0.43908 0.0
C880 C 0.5486 0.81196 0.45447 0.0
H881 H 0.51587 0.90506 0.41072 0.0
H882 H 0.48799 0.83895 0.43991 0.0
C883 C 0.59189 0.81862 0.45237 0.0
C884 C 0.65495 0.51227 0.45701 0.0
C885 C 0.68385 0.53868 0.47908 0.0
H886 H 0.59622 0.50719 0.42154 0.0
C887 C 0.67464 0.58116 0.48323 0.0
H888 H 0.6616 0.47941 0.45298 0.0
C889 C 0.63759 0.59721 0.46482 0.0
C890 C 0.60889 0.57109 0.44178 0.0
H891 H 0.69655 0.60209 0.50001 0.0
H892 H 0.63154 0.63021 0.46861 0.0
C893 C 0.6179 0.52833 0.43833 0.0
C894 C 0.96257 0.61733 0.44651 0.0
C895 C 0.91906 0.61077 0.4468 0.0
H896 H 0.01336 0.65954 0.46048 0.0
C897 C 0.89321 0.64257 0.46297 0.0
H898 H 0.9834 0.59332 0.43474 0.0
C899 C 0.91047 0.68041 0.47763 0.0
C900 C 0.95384 0.68689 0.47697 0.0
H901 H 0.85962 0.63841 0.46393 0.0
H902 H 0.88992 0.70487 0.48891 0.0
C903 C 0.97982 0.65493 0.46185 0.0
C904 C 0.89227 0.53866 0.04606 0.0
C905 C 0.89898 0.58209 0.04724 0.0
H906 H 0.8496 0.48869 0.03058 0.0
C907 C 0.86596 0.60866 0.03448 0.0
H908 H 0.91705 0.51726 0.05534 0.0
C909 C 0.82731 0.59221 0.02053 0.0
C910 C 0.82101 0.54888 0.01856 0.0
H911 H 0.87009 0.64224 0.03475 0.0
H912 H 0.8025 0.61337 0.01067 0.0
C913 C 0.85383 0.52226 0.03138 0.0
C914 C 0.98606 0.85379 0.02779 0.0
C915 C 0.95965 0.82132 0.013 0.0
H916 H 0.99049 0.916 0.05359 0.0
C917 C 0.91627 0.82719 0.01279 0.0
H918 H 0.01965 0.84984 0.02856 0.0
C919 C 0.89951 0.86495 0.02714 0.0
C920 C 0.92584 0.89744 0.0424 0.0
H921 H 0.89535 0.80257 0.00138 0.0
H922 H 0.86591 0.86874 0.02606 0.0
C923 C 0.96931 0.89138 0.04274 0.0
C924 C 0.65575 0.98137 0.02331 0.0
C925 C 0.68722 0.95493 0.00775 0.0
H926 H 0.59467 0.98584 0.0519 0.0
C927 C 0.68091 0.91161 0.00941 0.0
H928 H 0.66021 0.01492 0.02289 0.0
C929 C 0.64358 0.89493 0.02601 0.0
C930 C 0.61197 0.92126 0.04179 0.0
H931 H 0.70488 0.89066 -0.00224 0.0
H932 H 0.63938 0.86135 0.02618 0.0
C933 C 0.61859 0.96469 0.04059 0.0
C934 C 0.53746 0.61626 0.03852 0.0
C935 C 0.58077 0.60921 0.04028 0.0
H936 H 0.48831 0.6585 0.02003 0.0
C937 C 0.60799 0.6404 0.0238 0.0
H938 H 0.51562 0.59264 0.05026 0.0
C939 C 0.59229 0.67788 0.00632 0.0
C940 C 0.5491 0.68479 0.00462 0.0
H941 H 0.6415 0.63585 0.02429 0.0
H942 H 0.6139 0.70163 -0.0056 0.0
C943 C 0.52177 0.6536 0.0205 0.0
loop_
_geom_bond_atom_site_label_1
_geom_bond_atom_site_label_2
_geom_bond_distance
_geom_bond_site_symmetry_2
_ccdc_geom_bond_type
Co0 O3 1.985 . S
Co0 N17 1.983 1_455 S
Co0 O25 1.959 1_455 S
Co0 O32 1.918 1_455 S
Co1 O4 1.966 1_655 S
Co1 N10 2.022 . S
Co1 N18 1.993 . S
Co1 O26 1.941 . S
C2 O3 1.258 . S
C2 O4 1.263 . S
O3 Co0 1.985 . S
O3 C2 1.258 . S
O4 Co1 1.966 1_455 S
O4 C2 1.263 . S
C5 O6 1.235 . S
C5 O32 1.289 1_455 S
O6 C5 1.235 . S
C7 C9 1.400 . S
C7 N10 1.351 1_455 S
C7 C12 1.501 . S
C8 C9 1.387 1_655 S
C8 N11 1.341 . S
C9 C7 1.400 . S
C9 C8 1.387 1_455 S
N10 Co1 2.022 . S
N10 C7 1.351 1_655 S
N10 N11 1.365 . S
N11 C8 1.341 . S
N11 N10 1.365 . S
N11 H31 0.862 . S
C12 C7 1.501 . S
C12 H13 0.961 . S
C12 H14 0.961 . S
C12 H15 0.960 . S
H13 C12 0.961 . S
H14 C12 0.961 . S
H15 C12 0.960 . S
C16 N17 1.342 . S
C16 C20 1.401 . S
C16 C21 1.499 . S
N17 Co0 1.983 1_655 S
N17 C16 1.342 . S
N17 N18 1.388 . S
N18 Co1 1.993 . S
N18 N17 1.388 . S
N18 C19 1.346 . S
C19 N18 1.346 . S
C19 C20 1.396 . S
C19 C29 1.510 . S
C20 C16 1.401 . S
C20 C19 1.396 . S
C21 C16 1.499 . S
C21 H22 0.959 . S
C21 H23 0.960 . S
C21 H24 0.961 . S
H22 C21 0.959 . S
H23 C21 0.960 . S
H24 C21 0.961 . S
O25 Co0 1.959 1_655 S
O25 C33 1.258 . S
O26 Co1 1.941 . S
O26 C33 1.266 . S
H27 C29 0.959 . S
H28 C29 0.961 . S
C29 C19 1.510 . S
C29 H27 0.959 . S
C29 H28 0.961 . S
C29 H30 0.960 . S
H30 C29 0.960 . S
H31 N11 0.862 . S
O32 Co0 1.918 1_655 S
O32 C5 1.289 1_655 S
C33 O25 1.258 . S
C33 O26 1.266 . S
Co34 O37 1.953 1_565 S
Co34 N51 1.996 . S
Co34 O59 1.976 . S
Co34 O66 1.923 . S
Co35 O38 1.966 1_565 S
Co35 N44 2.022 . S
Co35 N52 1.993 . S
Co35 O60 1.941 . S
C36 O37 1.258 . S
C36 O38 1.263 . S
O37 Co34 1.953 1_545 S
O37 C36 1.258 . S
O38 Co35 1.966 1_545 S
O38 C36 1.263 . S
C39 O40 1.235 . S
C39 O66 1.289 1_545 S
O40 C39 1.235 . S
C41 C43 1.400 . S
C41 N44 1.351 1_545 S
C41 C46 1.501 . S
C42 C43 1.387 1_565 S
C42 N45 1.341 . S
C43 C41 1.400 . S
C43 C42 1.387 1_545 S
N44 Co35 2.022 . S
N44 C41 1.351 1_565 S
N44 N45 1.365 . S
N45 C42 1.341 . S
N45 N44 1.365 . S
N45 H65 0.862 . S
C46 C41 1.501 . S
C46 H47 0.961 . S
C46 H48 0.961 . S
C46 H49 0.960 . S
H47 C46 0.961 . S
H48 C46 0.961 . S
H49 C46 0.960 . S
C50 N51 1.342 . S
C50 C54 1.401 . S
C50 C55 1.499 . S
N51 Co34 1.996 . S
N51 C50 1.342 . S
N51 N52 1.388 . S
N52 Co35 1.993 . S
N52 N51 1.388 . S
N52 C53 1.346 . S
C53 N52 1.346 . S
C53 C54 1.396 . S
C53 C63 1.510 . S
C54 C50 1.401 . S
C54 C53 1.396 . S
C55 C50 1.499 . S
C55 H56 0.959 . S
C55 H57 0.960 . S
C55 H58 0.961 . S
H56 C55 0.959 . S
H57 C55 0.960 . S
H58 C55 0.961 . S
O59 Co34 1.976 . S
O59 C67 1.258 . S
O60 Co35 1.941 . S
O60 C67 1.266 . S
H61 C63 0.959 . S
H62 C63 0.961 . S
C63 C53 1.510 . S
C63 H61 0.959 . S
C63 H62 0.961 . S
C63 H64 0.960 . S
H64 C63 0.960 . S
H65 N45 0.862 . S
O66 Co34 1.923 . S
O66 C39 1.289 1_565 S
C67 O59 1.258 . S
C67 O60 1.266 . S
Co68 O71 1.970 . S
Co68 N85 1.989 . S
Co68 O93 1.967 . S
Co68 O100 1.920 . S
Co69 O72 1.966 . S
Co69 N78 2.022 . S
Co69 N86 1.993 . S
Co69 O94 1.941 . S
C70 O71 1.258 . S
C70 O72 1.263 . S
O71 Co68 1.970 . S
O71 C70 1.258 . S
O72 Co69 1.966 . S
O72 C70 1.263 . S
C73 O74 1.235 . S
C73 O100 1.289 . S
O74 C73 1.235 . S
C75 C77 1.400 . S
C75 N78 1.351 . S
C75 C80 1.501 . S
C76 C77 1.387 . S
C76 N79 1.341 . S
C77 C75 1.400 . S
C77 C76 1.387 . S
N78 Co69 2.022 . S
N78 C75 1.351 . S
N78 N79 1.365 . S
N79 C76 1.341 . S
N79 N78 1.365 . S
N79 H99 0.862 . S
C80 C75 1.501 . S
C80 H81 0.961 . S
C80 H82 0.961 . S
C80 H83 0.960 . S
H81 C80 0.961 . S
H82 C80 0.961 . S
H83 C80 0.960 . S
C84 N85 1.342 . S
C84 C88 1.401 . S
C84 C89 1.499 . S
N85 Co68 1.989 . S
N85 C84 1.342 . S
N85 N86 1.388 . S
N86 Co69 1.993 . S
N86 N85 1.388 . S
N86 C87 1.346 . S
C87 N86 1.346 . S
C87 C88 1.396 . S
C87 C97 1.510 . S
C88 C84 1.401 . S
C88 C87 1.396 . S
C89 C84 1.499 . S
C89 H90 0.959 . S
C89 H91 0.960 . S
C89 H92 0.961 . S
H90 C89 0.959 . S
H91 C89 0.960 . S
H92 C89 0.961 . S
O93 Co68 1.967 . S
O93 C101 1.258 . S
O94 Co69 1.941 . S
O94 C101 1.266 . S
H95 C97 0.959 . S
H96 C97 0.961 . S
C97 C87 1.510 . S
C97 H95 0.959 . S
C97 H96 0.961 . S
C97 H98 0.960 . S
H98 C97 0.960 . S
H99 N79 0.862 . S
O100 Co68 1.920 . S
O100 C73 1.289 . S
C101 O93 1.258 . S
C101 O94 1.266 . S
Co102 O105 1.970 . S
Co102 N119 1.989 . S
Co102 O127 1.967 . S
Co102 O134 1.920 . S
Co103 O106 1.966 . S
Co103 N112 2.022 . S
Co103 N120 1.993 . S
Co103 O128 1.941 . S
C104 O105 1.258 . S
C104 O106 1.263 . S
O105 Co102 1.970 . S
O105 C104 1.258 . S
O106 Co103 1.966 . S
O106 C104 1.263 . S
C107 O108 1.235 . S
C107 O134 1.289 . S
O108 C107 1.235 . S
C109 C111 1.400 . S
C109 N112 1.351 . S
C109 C114 1.501 . S
C110 C111 1.387 . S
C110 N113 1.341 . S
C111 C109 1.400 . S
C111 C110 1.387 . S
N112 Co103 2.022 . S
N112 C109 1.351 . S
N112 N113 1.365 . S
N113 C110 1.341 . S
N113 N112 1.365 . S
N113 H133 0.862 . S
C114 C109 1.501 . S
C114 H115 0.961 . S
C114 H116 0.961 . S
C114 H117 0.960 . S
H115 C114 0.961 . S
H116 C114 0.961 . S
H117 C114 0.960 . S
C118 N119 1.342 . S
C118 C122 1.401 . S
C118 C123 1.499 . S
N119 Co102 1.989 . S
N119 C118 1.342 . S
N119 N120 1.388 . S
N120 Co103 1.993 . S
N120 N119 1.388 . S
N120 C121 1.346 . S
C121 N120 1.346 . S
C121 C122 1.396 . S
C121 C131 1.510 . S
C122 C118 1.401 . S
C122 C121 1.396 . S
C123 C118 1.499 . S
C123 H124 0.959 . S
C123 H125 0.960 . S
C123 H126 0.961 . S
H124 C123 0.959 . S
H125 C123 0.960 . S
H126 C123 0.961 . S
O127 Co102 1.967 . S
O127 C135 1.258 . S
O128 Co103 1.941 . S
O128 C135 1.266 . S
H129 C131 0.959 . S
H130 C131 0.961 . S
C131 C121 1.510 . S
C131 H129 0.959 . S
C131 H130 0.961 . S
C131 H132 0.960 . S
H132 C131 0.960 . S
H133 N113 0.862 . S
O134 Co102 1.920 . S
O134 C107 1.289 . S
C135 O127 1.258 . S
C135 O128 1.266 . S
Co136 O139 1.953 1_655 S
Co136 N153 1.996 . S
Co136 O161 1.976 . S
Co136 O168 1.923 . S
Co137 O140 1.966 1_655 S
Co137 N146 2.022 1_556 S
Co137 N154 1.993 . S
Co137 O162 1.941 1_556 S
C138 O139 1.258 . S
C138 O140 1.263 . S
O139 Co136 1.953 1_455 S
O139 C138 1.258 . S
O140 Co137 1.966 1_455 S
O140 C138 1.263 . S
C141 O142 1.235 . S
C141 O168 1.289 1_455 S
O142 C141 1.235 . S
C143 C145 1.400 . S
C143 N146 1.351 1_455 S
C143 C148 1.501 . S
C144 C145 1.387 1_655 S
C144 N147 1.341 . S
C145 C143 1.400 . S
C145 C144 1.387 1_455 S
N146 Co137 2.022 1_554 S
N146 C143 1.351 1_655 S
N146 N147 1.365 . S
N147 C144 1.341 . S
N147 N146 1.365 . S
N147 H167 0.862 . S
C148 C143 1.501 . S
C148 H149 0.961 . S
C148 H150 0.961 1_554 S
C148 H151 0.960 . S
H149 C148 0.961 . S
H150 C148 0.961 1_556 S
H151 C148 0.960 . S
C152 N153 1.342 . S
C152 C156 1.401 . S
C152 C157 1.499 . S
N153 Co136 1.996 . S
N153 C152 1.342 . S
N153 N154 1.388 . S
N154 Co137 1.993 . S
N154 N153 1.388 . S
N154 C155 1.346 . S
C155 N154 1.346 . S
C155 C156 1.396 . S
C155 C165 1.510 . S
C156 C152 1.401 . S
C156 C155 1.396 . S
C157 C152 1.499 . S
C157 H158 0.959 . S
C157 H159 0.960 . S
C157 H160 0.961 . S
H158 C157 0.959 . S
H159 C157 0.960 . S
H160 C157 0.961 . S
O161 Co136 1.976 . S
O161 C169 1.258 . S
O162 Co137 1.941 1_554 S
O162 C169 1.266 1_554 S
H163 C165 0.959 . S
H164 C165 0.961 . S
C165 C155 1.510 . S
C165 H163 0.959 . S
C165 H164 0.961 . S
C165 H166 0.960 . S
H166 C165 0.960 . S
H167 N147 0.862 . S
O168 Co136 1.923 . S
O168 C141 1.289 1_655 S
C169 O161 1.258 . S
C169 O162 1.266 1_556 S
Co170 O173 1.985 . S
Co170 N187 1.983 1_545 S
Co170 O195 1.959 1_545 S
Co170 O202 1.918 1_545 S
Co171 O174 1.966 1_565 S
Co171 N180 2.022 1_556 S
Co171 N188 1.993 . S
Co171 O196 1.941 1_556 S
C172 O173 1.258 . S
C172 O174 1.263 . S
O173 Co170 1.985 . S
O173 C172 1.258 . S
O174 Co171 1.966 1_545 S
O174 C172 1.263 . S
C175 O176 1.235 . S
C175 O202 1.289 1_545 S
O176 C175 1.235 . S
C177 C179 1.400 . S
C177 N180 1.351 1_545 S
C177 C182 1.501 . S
C178 C179 1.387 1_565 S
C178 N181 1.341 . S
C179 C177 1.400 . S
C179 C178 1.387 1_545 S
N180 Co171 2.022 1_554 S
N180 C177 1.351 1_565 S
N180 N181 1.365 . S
N181 C178 1.341 . S
N181 N180 1.365 . S
N181 H201 0.862 . S
C182 C177 1.501 . S
C182 H183 0.961 . S
C182 H184 0.961 . S
C182 H185 0.960 . S
H183 C182 0.961 . S
H184 C182 0.961 . S
H185 C182 0.960 . S
C186 N187 1.342 . S
C186 C190 1.401 . S
C186 C191 1.499 . S
N187 Co170 1.983 1_565 S
N187 C186 1.342 . S
N187 N188 1.388 . S
N188 Co171 1.993 . S
N188 N187 1.388 . S
N188 C189 1.346 . S
C189 N188 1.346 . S
C189 C190 1.396 . S
C189 C199 1.510 . S
C190 C186 1.401 . S
C190 C189 1.396 . S
C191 C186 1.499 . S
C191 H192 0.959 . S
C191 H193 0.960 . S
C191 H194 0.961 . S
H192 C191 0.959 . S
H193 C191 0.960 . S
H194 C191 0.961 . S
O195 Co170 1.959 1_565 S
O195 C203 1.258 . S
O196 Co171 1.941 1_554 S
O196 C203 1.266 1_554 S
H197 C199 0.959 . S
H198 C199 0.961 . S
C199 C189 1.510 . S
C199 H197 0.959 . S
C199 H198 0.961 . S
C199 H200 0.960 . S
H200 C199 0.960 . S
H201 N181 0.862 . S
O202 Co170 1.918 1_565 S
O202 C175 1.289 1_565 S
C203 O195 1.258 . S
C203 O196 1.266 1_556 S
Co204 O207 1.970 . S
Co204 N221 1.989 . S
Co204 O229 1.967 . S
Co204 O236 1.920 . S
Co205 O208 1.966 . S
Co205 N214 2.022 1_556 S
Co205 N222 1.993 . S
Co205 O230 1.941 1_556 S
C206 O207 1.258 . S
C206 O208 1.263 . S
O207 Co204 1.970 . S
O207 C206 1.258 . S
O208 Co205 1.966 . S
O208 C206 1.263 . S
C209 O210 1.235 . S
C209 O236 1.289 . S
O210 C209 1.235 . S
C211 C213 1.400 . S
C211 N214 1.351 . S
C211 C216 1.501 . S
C212 C213 1.387 . S
C212 N215 1.341 . S
C213 C211 1.400 . S
C213 C212 1.387 . S
N214 Co205 2.022 1_554 S
N214 C211 1.351 . S
N214 N215 1.365 . S
N215 C212 1.341 . S
N215 N214 1.365 . S
N215 H235 0.862 . S
C216 C211 1.501 . S
C216 H217 0.961 . S
C216 H218 0.961 . S
C216 H219 0.960 . S
H217 C216 0.961 . S
H218 C216 0.961 . S
H219 C216 0.960 . S
C220 N221 1.342 . S
C220 C224 1.401 . S
C220 C225 1.499 . S
N221 Co204 1.989 . S
N221 C220 1.342 . S
N221 N222 1.388 . S
N222 Co205 1.993 . S
N222 N221 1.388 . S
N222 C223 1.346 . S
C223 N222 1.346 . S
C223 C224 1.396 . S
C223 C233 1.510 . S
C224 C220 1.401 . S
C224 C223 1.396 . S
C225 C220 1.499 . S
C225 H226 0.959 . S
C225 H227 0.960 . S
C225 H228 0.961 . S
H226 C225 0.959 . S
H227 C225 0.960 . S
H228 C225 0.961 . S
O229 Co204 1.967 . S
O229 C237 1.258 . S
O230 Co205 1.941 1_554 S
O230 C237 1.266 1_554 S
H231 C233 0.959 . S
H232 C233 0.961 . S
C233 C223 1.510 . S
C233 H231 0.959 . S
C233 H232 0.961 . S
C233 H234 0.960 . S
H234 C233 0.960 . S
H235 N215 0.862 . S
O236 Co204 1.920 . S
O236 C209 1.289 . S
C237 O229 1.258 . S
C237 O230 1.266 1_556 S
Co238 O241 1.970 . S
Co238 N255 1.989 . S
Co238 O263 1.967 . S
Co238 O270 1.920 . S
Co239 O242 1.966 . S
Co239 N248 2.022 1_556 S
Co239 N256 1.993 . S
Co239 O264 1.941 1_556 S
C240 O241 1.258 . S
C240 O242 1.263 . S
O241 Co238 1.970 . S
O241 C240 1.258 . S
O242 Co239 1.966 . S
O242 C240 1.263 . S
C243 O244 1.235 . S
C243 O270 1.289 . S
O244 C243 1.235 . S
C245 C247 1.400 . S
C245 N248 1.351 . S
C245 C250 1.501 . S
C246 C247 1.387 . S
C246 N249 1.341 . S
C247 C245 1.400 . S
C247 C246 1.387 . S
N248 Co239 2.022 1_554 S
N248 C245 1.351 . S
N248 N249 1.365 . S
N249 C246 1.341 . S
N249 N248 1.365 . S
N249 H269 0.862 . S
C250 C245 1.501 . S
C250 H251 0.961 . S
C250 H252 0.961 1_554 S
C250 H253 0.960 . S
H251 C250 0.961 . S
H252 C250 0.961 1_556 S
H253 C250 0.960 . S
C254 N255 1.342 . S
C254 C258 1.401 . S
C254 C259 1.499 . S
N255 Co238 1.989 . S
N255 C254 1.342 . S
N255 N256 1.388 . S
N256 Co239 1.993 . S
N256 N255 1.388 . S
N256 C257 1.346 . S
C257 N256 1.346 . S
C257 C258 1.396 . S
C257 C267 1.510 . S
C258 C254 1.401 . S
C258 C257 1.396 . S
C259 C254 1.499 . S
C259 H260 0.959 . S
C259 H261 0.960 . S
C259 H262 0.961 . S
H260 C259 0.959 . S
H261 C259 0.960 . S
H262 C259 0.961 . S
O263 Co238 1.967 . S
O263 C271 1.258 . S
O264 Co239 1.941 1_554 S
O264 C271 1.266 1_554 S
H265 C267 0.959 . S
H266 C267 0.961 . S
C267 C257 1.510 . S
C267 H265 0.959 . S
C267 H266 0.961 . S
C267 H268 0.960 . S
H268 C267 0.960 . S
H269 N249 0.862 . S
O270 Co238 1.920 . S
O270 C243 1.289 . S
C271 O263 1.258 . S
C271 O264 1.266 1_556 S
Co272 O275 1.985 . S
Co272 N289 1.983 1_655 S
Co272 O297 1.959 1_655 S
Co272 O304 1.918 1_655 S
Co273 O276 1.966 1_455 S
Co273 N282 2.022 . S
Co273 N290 1.993 . S
Co273 O298 1.941 . S
C274 O275 1.258 . S
C274 O276 1.263 . S
O275 Co272 1.985 . S
O275 C274 1.258 . S
O276 Co273 1.966 1_655 S
O276 C274 1.263 . S
C277 O278 1.235 . S
C277 O304 1.289 1_655 S
O278 C277 1.235 . S
C279 C281 1.400 . S
C279 N282 1.351 1_655 S
C279 C284 1.501 . S
C280 C281 1.387 1_455 S
C280 N283 1.341 . S
C281 C279 1.400 . S
C281 C280 1.387 1_655 S
N282 Co273 2.022 . S
N282 C279 1.351 1_455 S
N282 N283 1.365 . S
N283 C280 1.341 . S
N283 N282 1.365 . S
N283 H303 0.862 . S
C284 C279 1.501 . S
C284 H285 0.961 . S
C284 H286 0.961 . S
C284 H287 0.960 . S
H285 C284 0.961 . S
H286 C284 0.961 . S
H287 C284 0.960 . S
C288 N289 1.342 . S
C288 C292 1.401 . S
C288 C293 1.499 . S
N289 Co272 1.983 1_455 S
N289 C288 1.342 . S
N289 N290 1.388 . S
N290 Co273 1.993 . S
N290 N289 1.388 . S
N290 C291 1.346 . S
C291 N290 1.346 . S
C291 C292 1.396 . S
C291 C301 1.510 . S
C292 C288 1.401 . S
C292 C291 1.396 . S
C293 C288 1.499 . S
C293 H294 0.959 . S
C293 H295 0.960 . S
C293 H296 0.961 . S
H294 C293 0.959 . S
H295 C293 0.960 . S
H296 C293 0.961 . S
O297 Co272 1.959 1_455 S
O297 C305 1.258 . S
O298 Co273 1.941 . S
O298 C305 1.266 . S
H299 C301 0.959 . S
H300 C301 0.961 . S
C301 C291 1.510 . S
C301 H299 0.959 . S
C301 H300 0.961 . S
C301 H302 0.960 . S
H302 C301 0.960 . S
H303 N283 0.862 . S
O304 Co272 1.918 1_455 S
O304 C277 1.289 1_455 S
C305 O297 1.258 . S
C305 O298 1.266 . S
Co306 O309 1.953 1_545 S
Co306 N323 1.996 . S
Co306 O331 1.976 . S
Co306 O338 1.923 . S
Co307 O310 1.966 1_545 S
Co307 N316 2.022 . S
Co307 N324 1.993 . S
Co307 O332 1.941 . S
C308 O309 1.258 . S
C308 O310 1.263 . S
O309 Co306 1.953 1_565 S
O309 C308 1.258 . S
O310 Co307 1.966 1_565 S
O310 C308 1.263 . S
C311 O312 1.235 . S
C311 O338 1.289 1_565 S
O312 C311 1.235 . S
C313 C315 1.400 . S
C313 N316 1.351 1_565 S
C313 C318 1.501 . S
C314 C315 1.387 1_545 S
C314 N317 1.341 . S
C315 C313 1.400 . S
C315 C314 1.387 1_565 S
N316 Co307 2.022 . S
N316 C313 1.351 1_545 S
N316 N317 1.365 . S
N317 C314 1.341 . S
N317 N316 1.365 . S
N317 H337 0.862 . S
C318 C313 1.501 . S
C318 H319 0.961 . S
C318 H320 0.961 . S
C318 H321 0.960 . S
H319 C318 0.961 . S
H320 C318 0.961 . S
H321 C318 0.960 . S
C322 N323 1.342 . S
C322 C326 1.401 . S
C322 C327 1.499 . S
N323 Co306 1.996 . S
N323 C322 1.342 . S
N323 N324 1.388 . S
N324 Co307 1.993 . S
N324 N323 1.388 . S
N324 C325 1.346 . S
C325 N324 1.346 . S
C325 C326 1.396 . S
C325 C335 1.510 . S
C326 C322 1.401 . S
C326 C325 1.396 . S
C327 C322 1.499 . S
C327 H328 0.959 . S
C327 H329 0.960 . S
C327 H330 0.961 . S
H328 C327 0.959 . S
H329 C327 0.960 . S
H330 C327 0.961 . S
O331 Co306 1.976 . S
O331 C339 1.258 . S
O332 Co307 1.941 . S
O332 C339 1.266 . S
H333 C335 0.959 . S
H334 C335 0.961 . S
C335 C325 1.510 . S
C335 H333 0.959 . S
C335 H334 0.961 . S
C335 H336 0.960 . S
H336 C335 0.960 . S
H337 N317 0.862 . S
O338 Co306 1.923 . S
O338 C311 1.289 1_545 S
C339 O331 1.258 . S
C339 O332 1.266 . S
Co340 O343 1.970 . S
Co340 N357 1.989 . S
Co340 O365 1.967 . S
Co340 O372 1.920 . S
Co341 O344 1.966 . S
Co341 N350 2.022 . S
Co341 N358 1.993 . S
Co341 O366 1.941 . S
C342 O343 1.258 . S
C342 O344 1.263 . S
O343 Co340 1.970 . S
O343 C342 1.258 . S
O344 Co341 1.966 . S
O344 C342 1.263 . S
C345 O346 1.235 . S
C345 O372 1.289 . S
O346 C345 1.235 . S
C347 C349 1.400 . S
C347 N350 1.351 . S
C347 C352 1.501 . S
C348 C349 1.387 . S
C348 N351 1.341 . S
C349 C347 1.400 . S
C349 C348 1.387 . S
N350 Co341 2.022 . S
N350 C347 1.351 . S
N350 N351 1.365 . S
N351 C348 1.341 . S
N351 N350 1.365 . S
N351 H371 0.862 . S
C352 C347 1.501 . S
C352 H353 0.961 . S
C352 H354 0.961 . S
C352 H355 0.960 . S
H353 C352 0.961 . S
H354 C352 0.961 . S
H355 C352 0.960 . S
C356 N357 1.342 . S
C356 C360 1.401 . S
C356 C361 1.499 . S
N357 Co340 1.989 . S
N357 C356 1.342 . S
N357 N358 1.388 . S
N358 Co341 1.993 . S
N358 N357 1.388 . S
N358 C359 1.346 . S
C359 N358 1.346 . S
C359 C360 1.396 . S
C359 C369 1.510 . S
C360 C356 1.401 . S
C360 C359 1.396 . S
C361 C356 1.499 . S
C361 H362 0.959 . S
C361 H363 0.960 . S
C361 H364 0.961 . S
H362 C361 0.959 . S
H363 C361 0.960 . S
H364 C361 0.961 . S
O365 Co340 1.967 . S
O365 C373 1.258 . S
O366 Co341 1.941 . S
O366 C373 1.266 . S
H367 C369 0.959 . S
H368 C369 0.961 . S
C369 C359 1.510 . S
C369 H367 0.959 . S
C369 H368 0.961 . S
C369 H370 0.960 . S
H370 C369 0.960 . S
H371 N351 0.862 . S
O372 Co340 1.920 . S
O372 C345 1.289 . S
C373 O365 1.258 . S
C373 O366 1.266 . S
Co374 O377 1.970 . S
Co374 N391 1.989 . S
Co374 O399 1.967 . S
Co374 O406 1.920 . S
Co375 O378 1.966 . S
Co375 N384 2.022 . S
Co375 N392 1.993 . S
Co375 O400 1.941 . S
C376 O377 1.258 . S
C376 O378 1.263 . S
O377 Co374 1.970 . S
O377 C376 1.258 . S
O378 Co375 1.966 . S
O378 C376 1.263 . S
C379 O380 1.235 . S
C379 O406 1.289 . S
O380 C379 1.235 . S
C381 C383 1.400 . S
C381 N384 1.351 . S
C381 C386 1.501 . S
C382 C383 1.387 . S
C382 N385 1.341 . S
C383 C381 1.400 . S
C383 C382 1.387 . S
N384 Co375 2.022 . S
N384 C381 1.351 . S
N384 N385 1.365 . S
N385 C382 1.341 . S
N385 N384 1.365 . S
N385 H405 0.862 . S
C386 C381 1.501 . S
C386 H387 0.961 . S
C386 H388 0.961 . S
C386 H389 0.960 . S
H387 C386 0.961 . S
H388 C386 0.961 . S
H389 C386 0.960 . S
C390 N391 1.342 . S
C390 C394 1.401 . S
C390 C395 1.499 . S
N391 Co374 1.989 . S
N391 C390 1.342 . S
N391 N392 1.388 . S
N392 Co375 1.993 . S
N392 N391 1.388 . S
N392 C393 1.346 . S
C393 N392 1.346 . S
C393 C394 1.396 . S
C393 C403 1.510 . S
C394 C390 1.401 . S
C394 C393 1.396 . S
C395 C390 1.499 . S
C395 H396 0.959 . S
C395 H397 0.960 . S
C395 H398 0.961 . S
H396 C395 0.959 . S
H397 C395 0.960 . S
H398 C395 0.961 . S
O399 Co374 1.967 . S
O399 C407 1.258 . S
O400 Co375 1.941 . S
O400 C407 1.266 . S
H401 C403 0.959 . S
H402 C403 0.961 . S
C403 C393 1.510 . S
C403 H401 0.959 . S
C403 H402 0.961 . S
C403 H404 0.960 . S
H404 C403 0.960 . S
H405 N385 0.862 . S
O406 Co374 1.920 . S
O406 C379 1.289 . S
C407 O399 1.258 . S
C407 O400 1.266 . S
Co408 O411 1.953 1_455 S
Co408 N425 1.996 . S
Co408 O433 1.976 . S
Co408 O440 1.923 . S
Co409 O412 1.966 1_455 S
Co409 N418 2.022 1_554 S
Co409 N426 1.993 . S
Co409 O434 1.941 1_554 S
C410 O411 1.258 . S
C410 O412 1.263 . S
O411 Co408 1.953 1_655 S
O411 C410 1.258 . S
O412 Co409 1.966 1_655 S
O412 C410 1.263 . S
C413 O414 1.235 . S
C413 O440 1.289 1_655 S
O414 C413 1.235 . S
C415 C417 1.400 . S
C415 N418 1.351 1_655 S
C415 C420 1.501 . S
C416 C417 1.387 1_455 S
C416 N419 1.341 . S
C417 C415 1.400 . S
C417 C416 1.387 1_655 S
N418 Co409 2.022 1_556 S
N418 C415 1.351 1_455 S
N418 N419 1.365 . S
N419 C416 1.341 . S
N419 N418 1.365 . S
N419 H439 0.862 . S
C420 C415 1.501 . S
C420 H421 0.961 . S
C420 H422 0.961 1_556 S
C420 H423 0.960 . S
H421 C420 0.961 . S
H422 C420 0.961 1_554 S
H423 C420 0.960 . S
C424 N425 1.342 . S
C424 C428 1.401 . S
C424 C429 1.499 . S
N425 Co408 1.996 . S
N425 C424 1.342 . S
N425 N426 1.388 . S
N426 Co409 1.993 . S
N426 N425 1.388 . S
N426 C427 1.346 . S
C427 N426 1.346 . S
C427 C428 1.396 . S
C427 C437 1.510 . S
C428 C424 1.401 . S
C428 C427 1.396 . S
C429 C424 1.499 . S
C429 H430 0.959 . S
C429 H431 0.960 . S
C429 H432 0.961 . S
H430 C429 0.959 . S
H431 C429 0.960 . S
H432 C429 0.961 . S
O433 Co408 1.976 . S
O433 C441 1.258 . S
O434 Co409 1.941 1_556 S
O434 C441 1.266 1_556 S
H435 C437 0.959 . S
H436 C437 0.961 . S
C437 C427 1.510 . S
C437 H435 0.959 . S
C437 H436 0.961 . S
C437 H438 0.960 . S
H438 C437 0.960 . S
H439 N419 0.862 . S
O440 Co408 1.923 . S
O440 C413 1.289 1_455 S
C441 O433 1.258 . S
C441 O434 1.266 1_554 S
Co442 O445 1.985 . S
Co442 N459 1.983 1_565 S
Co442 O467 1.959 1_565 S
Co442 O474 1.918 1_565 S
Co443 O446 1.966 1_545 S
Co443 N452 2.022 1_554 S
Co443 N460 1.993 . S
Co443 O468 1.941 1_554 S
C444 O445 1.258 . S
C444 O446 1.263 . S
O445 Co442 1.985 . S
O445 C444 1.258 . S
O446 Co443 1.966 1_565 S
O446 C444 1.263 . S
C447 O448 1.235 . S
C447 O474 1.289 1_565 S
O448 C447 1.235 . S
C449 C451 1.400 . S
C449 N452 1.351 1_565 S
C449 C454 1.501 . S
C450 C451 1.387 1_545 S
C450 N453 1.341 . S
C451 C449 1.400 . S
C451 C450 1.387 1_565 S
N452 Co443 2.022 1_556 S
N452 C449 1.351 1_545 S
N452 N453 1.365 . S
N453 C450 1.341 . S
N453 N452 1.365 . S
N453 H473 0.862 . S
C454 C449 1.501 . S
C454 H455 0.961 . S
C454 H456 0.961 . S
C454 H457 0.960 . S
H455 C454 0.961 . S
H456 C454 0.961 . S
H457 C454 0.960 . S
C458 N459 1.342 . S
C458 C462 1.401 . S
C458 C463 1.499 . S
N459 Co442 1.983 1_545 S
N459 C458 1.342 . S
N459 N460 1.388 . S
N460 Co443 1.993 . S
N460 N459 1.388 . S
N460 C461 1.346 . S
C461 N460 1.346 . S
C461 C462 1.396 . S
C461 C471 1.510 . S
C462 C458 1.401 . S
C462 C461 1.396 . S
C463 C458 1.499 . S
C463 H464 0.959 . S
C463 H465 0.960 . S
C463 H466 0.961 . S
H464 C463 0.959 . S
H465 C463 0.960 . S
H466 C463 0.961 . S
O467 Co442 1.959 1_545 S
O467 C475 1.258 . S
O468 Co443 1.941 1_556 S
O468 C475 1.266 1_556 S
H469 C471 0.959 . S
H470 C471 0.961 . S
C471 C461 1.510 . S
C471 H469 0.959 . S
C471 H470 0.961 . S
C471 H472 0.960 . S
H472 C471 0.960 . S
H473 N453 0.862 . S
O474 Co442 1.918 1_545 S
O474 C447 1.289 1_545 S
C475 O467 1.258 . S
C475 O468 1.266 1_554 S
Co476 O479 1.970 . S
Co476 N493 1.989 . S
Co476 O501 1.967 . S
Co476 O508 1.920 . S
Co477 O480 1.966 . S
Co477 N486 2.022 1_554 S
Co477 N494 1.993 . S
Co477 O502 1.941 1_554 S
C478 O479 1.258 . S
C478 O480 1.263 . S
O479 Co476 1.970 . S
O479 C478 1.258 . S
O480 Co477 1.966 . S
O480 C478 1.263 . S
C481 O482 1.235 . S
C481 O508 1.289 . S
O482 C481 1.235 . S
C483 C485 1.400 . S
C483 N486 1.351 . S
C483 C488 1.501 . S
C484 C485 1.387 . S
C484 N487 1.341 . S
C485 C483 1.400 . S
C485 C484 1.387 . S
N486 Co477 2.022 1_556 S
N486 C483 1.351 . S
N486 N487 1.365 . S
N487 C484 1.341 . S
N487 N486 1.365 . S
N487 H507 0.862 . S
C488 C483 1.501 . S
C488 H489 0.961 . S
C488 H490 0.961 . S
C488 H491 0.960 . S
H489 C488 0.961 . S
H490 C488 0.961 . S
H491 C488 0.960 . S
C492 N493 1.342 . S
C492 C496 1.401 . S
C492 C497 1.499 . S
N493 Co476 1.989 . S
N493 C492 1.342 . S
N493 N494 1.388 . S
N494 Co477 1.993 . S
N494 N493 1.388 . S
N494 C495 1.346 . S
C495 N494 1.346 . S
C495 C496 1.396 . S
C495 C505 1.510 . S
C496 C492 1.401 . S
C496 C495 1.396 . S
C497 C492 1.499 . S
C497 H498 0.959 . S
C497 H499 0.960 . S
C497 H500 0.961 . S
H498 C497 0.959 . S
H499 C497 0.960 . S
H500 C497 0.961 . S
O501 Co476 1.967 . S
O501 C509 1.258 . S
O502 Co477 1.941 1_556 S
O502 C509 1.266 1_556 S
H503 C505 0.959 . S
H504 C505 0.961 . S
C505 C495 1.510 . S
C505 H503 0.959 . S
C505 H504 0.961 . S
C505 H506 0.960 . S
H506 C505 0.960 . S
H507 N487 0.862 . S
O508 Co476 1.920 . S
O508 C481 1.289 . S
C509 O501 1.258 . S
C509 O502 1.266 1_554 S
Co510 O513 1.970 . S
Co510 N527 1.989 . S
Co510 O535 1.967 . S
Co510 O542 1.920 . S
Co511 O514 1.966 . S
Co511 N520 2.022 1_554 S
Co511 N528 1.993 . S
Co511 O536 1.941 1_554 S
C512 O513 1.258 . S
C512 O514 1.263 . S
O513 Co510 1.970 . S
O513 C512 1.258 . S
O514 Co511 1.966 . S
O514 C512 1.263 . S
C515 O516 1.235 . S
C515 O542 1.289 . S
O516 C515 1.235 . S
C517 C519 1.400 . S
C517 N520 1.351 . S
C517 C522 1.501 . S
C518 C519 1.387 . S
C518 N521 1.341 . S
C519 C517 1.400 . S
C519 C518 1.387 . S
N520 Co511 2.022 1_556 S
N520 C517 1.351 . S
N520 N521 1.365 . S
N521 C518 1.341 . S
N521 N520 1.365 . S
N521 H541 0.862 . S
C522 C517 1.501 . S
C522 H523 0.961 . S
C522 H524 0.961 1_556 S
C522 H525 0.960 . S
H523 C522 0.961 . S
H524 C522 0.961 1_554 S
H525 C522 0.960 . S
C526 N527 1.342 . S
C526 C530 1.401 . S
C526 C531 1.499 . S
N527 Co510 1.989 . S
N527 C526 1.342 . S
N527 N528 1.388 . S
N528 Co511 1.993 . S
N528 N527 1.388 . S
N528 C529 1.346 . S
C529 N528 1.346 . S
C529 C530 1.396 . S
C529 C539 1.510 . S
C530 C526 1.401 . S
C530 C529 1.396 . S
C531 C526 1.499 . S
C531 H532 0.959 . S
C531 H533 0.960 . S
C531 H534 0.961 . S
H532 C531 0.959 . S
H533 C531 0.960 . S
H534 C531 0.961 . S
O535 Co510 1.967 . S
O535 C543 1.258 . S
O536 Co511 1.941 1_556 S
O536 C543 1.266 1_556 S
H537 C539 0.959 . S
H538 C539 0.961 . S
C539 C529 1.510 . S
C539 H537 0.959 . S
C539 H538 0.961 . S
C539 H540 0.960 . S
H540 C539 0.960 . S
H541 N521 0.862 . S
O542 Co510 1.920 . S
O542 C515 1.289 . S
C543 O535 1.258 . S
C543 O536 1.266 1_554 S
C544 C545 1.387 . S
C544 H548 0.950 . S
C544 C553 1.390 . S
C545 C544 1.387 . S
C545 C547 1.387 1_545 S
H546 C553 0.950 . S
C547 C545 1.387 1_565 S
C547 C549 1.390 . S
C547 H551 0.950 . S
H548 C544 0.950 . S
C549 C547 1.390 . S
C549 C550 1.387 1_565 S
C549 H552 0.950 . S
C550 C549 1.387 1_545 S
C550 C553 1.387 . S
H551 C547 0.950 . S
H552 C549 0.950 . S
C553 C544 1.390 . S
C553 H546 0.950 . S
C553 C550 1.387 . S
C554 C555 1.387 1_565 S
C554 H558 0.950 . S
C554 C563 1.390 . S
C555 C554 1.387 1_545 S
C555 C557 1.387 . S
H556 C563 0.950 . S
C557 C555 1.387 . S
C557 C559 1.390 . S
C557 H561 0.950 . S
H558 C554 0.950 . S
C559 C557 1.390 . S
C559 C560 1.387 . S
C559 H562 0.950 . S
C560 C559 1.387 . S
C560 C563 1.387 1_545 S
H561 C557 0.950 . S
H562 C559 0.950 . S
C563 C554 1.390 . S
C563 H556 0.950 . S
C563 C560 1.387 1_565 S
C564 C565 1.387 . S
C564 H568 0.950 . S
C564 C573 1.390 . S
C565 C564 1.387 . S
C565 C567 1.387 . S
H566 C573 0.950 . S
C567 C565 1.387 . S
C567 C569 1.390 . S
C567 H571 0.950 . S
H568 C564 0.950 . S
C569 C567 1.390 . S
C569 C570 1.387 . S
C569 H572 0.950 . S
C570 C569 1.387 . S
C570 C573 1.387 . S
H571 C567 0.950 . S
H572 C569 0.950 . S
C573 C564 1.390 . S
C573 H566 0.950 . S
C573 C570 1.387 . S
C574 C575 1.387 . S
C574 H578 0.950 . S
C574 C583 1.390 . S
C575 C574 1.387 . S
C575 C577 1.387 . S
H576 C583 0.950 . S
C577 C575 1.387 . S
C577 C579 1.390 . S
C577 H581 0.950 . S
H578 C574 0.950 . S
C579 C577 1.390 . S
C579 C580 1.387 . S
C579 H582 0.950 . S
C580 C579 1.387 . S
C580 C583 1.387 . S
H581 C577 0.950 . S
H582 C579 0.950 . S
C583 C574 1.390 . S
C583 H576 0.950 . S
C583 C580 1.387 . S
C584 C585 1.387 1_455 S
C584 H588 0.950 . S
C584 C593 1.390 . S
C585 C584 1.387 1_655 S
C585 C587 1.387 . S
H586 C593 0.950 . S
C587 C585 1.387 . S
C587 C589 1.390 . S
C587 H591 0.950 . S
H588 C584 0.950 . S
C589 C587 1.390 . S
C589 C590 1.387 . S
C589 H592 0.950 1_565 S
C590 C589 1.387 . S
C590 C593 1.387 1_655 S
H591 C587 0.950 . S
H592 C589 0.950 1_545 S
C593 C584 1.390 . S
C593 H586 0.950 . S
C593 C590 1.387 1_455 S
C594 C595 1.387 . S
C594 H598 0.950 . S
C594 C603 1.390 . S
C595 C594 1.387 . S
C595 C597 1.387 1_565 S
H596 C603 0.950 . S
C597 C595 1.387 1_545 S
C597 C599 1.390 . S
C597 H601 0.950 . S
H598 C594 0.950 . S
C599 C597 1.390 . S
C599 C600 1.387 1_545 S
C599 H602 0.950 . S
C600 C599 1.387 1_565 S
C600 C603 1.387 . S
H601 C597 0.950 . S
H602 C599 0.950 . S
C603 C594 1.390 . S
C603 H596 0.950 . S
C603 C600 1.387 . S
C604 C605 1.387 . S
C604 H608 0.950 . S
C604 C613 1.390 . S
C605 C604 1.387 . S
C605 C607 1.387 . S
H606 C613 0.950 . S
C607 C605 1.387 . S
C607 C609 1.390 . S
C607 H611 0.950 . S
H608 C604 0.950 . S
C609 C607 1.390 . S
C609 C610 1.387 . S
C609 H612 0.950 . S
C610 C609 1.387 . S
C610 C613 1.387 . S
H611 C607 0.950 . S
H612 C609 0.950 . S
C613 C604 1.390 . S
C613 H606 0.950 . S
C613 C610 1.387 . S
C614 C615 1.387 . S
C614 H618 0.950 . S
C614 C623 1.390 . S
C615 C614 1.387 . S
C615 C617 1.387 . S
H616 C623 0.950 . S
C617 C615 1.387 . S
C617 C619 1.390 . S
C617 H621 0.950 . S
H618 C614 0.950 . S
C619 C617 1.390 . S
C619 C620 1.387 . S
C619 H622 0.950 . S
C620 C619 1.387 . S
C620 C623 1.387 . S
H621 C617 0.950 . S
H622 C619 0.950 . S
C623 C614 1.390 . S
C623 H616 0.950 . S
C623 C620 1.387 . S
C624 C625 1.387 . S
C624 H628 0.950 . S
C624 C633 1.390 1_465 S
C625 C624 1.387 . S
C625 C627 1.387 . S
H626 C633 0.950 . S
C627 C625 1.387 . S
C627 C629 1.390 1_465 S
C627 H631 0.950 . S
H628 C624 0.950 . S
C629 C627 1.390 1_645 S
C629 C630 1.387 . S
C629 H632 0.950 . S
C630 C629 1.387 . S
C630 C633 1.387 . S
H631 C627 0.950 . S
H632 C629 0.950 . S
C633 C624 1.390 1_645 S
C633 H626 0.950 . S
C633 C630 1.387 . S
C634 C635 1.387 . S
C634 H638 0.950 . S
C634 C643 1.390 1_545 S
C635 C634 1.387 . S
C635 C637 1.387 . S
H636 C643 0.950 . S
C637 C635 1.387 . S
C637 C639 1.390 1_545 S
C637 H641 0.950 . S
H638 C634 0.950 . S
C639 C637 1.390 1_565 S
C639 C640 1.387 . S
C639 H642 0.950 . S
C640 C639 1.387 . S
C640 C643 1.387 . S
H641 C637 0.950 . S
H642 C639 0.950 . S
C643 C634 1.390 1_565 S
C643 H636 0.950 . S
C643 C640 1.387 . S
C644 C645 1.387 . S
C644 H648 0.950 . S
C644 C653 1.390 . S
C645 C644 1.387 . S
C645 C647 1.387 . S
H646 C653 0.950 . S
C647 C645 1.387 . S
C647 C649 1.390 . S
C647 H651 0.950 . S
H648 C644 0.950 . S
C649 C647 1.390 . S
C649 C650 1.387 . S
C649 H652 0.950 . S
C650 C649 1.387 . S
C650 C653 1.387 . S
H651 C647 0.950 . S
H652 C649 0.950 . S
C653 C644 1.390 . S
C653 H646 0.950 . S
C653 C650 1.387 . S
C654 C655 1.387 . S
C654 H658 0.950 . S
C654 C663 1.390 1_655 S
C655 C654 1.387 . S
C655 C657 1.387 . S
H656 C663 0.950 . S
C657 C655 1.387 . S
C657 C659 1.390 1_655 S
C657 H661 0.950 . S
H658 C654 0.950 . S
C659 C657 1.390 1_455 S
C659 C660 1.387 . S
C659 H662 0.950 . S
C660 C659 1.387 . S
C660 C663 1.387 . S
H661 C657 0.950 . S
H662 C659 0.950 . S
C663 C654 1.390 1_455 S
C663 H656 0.950 . S
C663 C660 1.387 . S
C664 C665 1.377 1_556 S
C664 H668 0.950 . S
C664 C673 1.390 1_655 S
C665 C664 1.377 1_554 S
C665 C667 1.398 . S
H666 C673 0.950 . S
C667 C665 1.398 . S
C667 C669 1.390 1_655 S
C667 H671 0.950 . S
H668 C664 0.950 . S
C669 C667 1.390 1_455 S
C669 C670 1.377 1_554 S
C669 H672 0.950 . S
C670 C669 1.377 1_556 S
C670 C673 1.398 . S
H671 C667 0.950 . S
H672 C669 0.950 . S
C673 C664 1.390 1_455 S
C673 H666 0.950 . S
C673 C670 1.398 . S
C674 C675 1.387 1_556 S
C674 H678 0.950 . S
C674 C683 1.390 1_465 S
C675 C674 1.387 1_554 S
C675 C677 1.387 . S
H676 C683 0.950 . S
C677 C675 1.387 . S
C677 C679 1.390 1_465 S
C677 H681 0.950 . S
H678 C674 0.950 . S
C679 C677 1.390 1_645 S
C679 C680 1.387 1_554 S
C679 H682 0.950 . S
C680 C679 1.387 1_556 S
C680 C683 1.387 . S
H681 C677 0.950 . S
H682 C679 0.950 . S
C683 C674 1.390 1_645 S
C683 H676 0.950 . S
C683 C680 1.387 . S
C684 C685 1.387 1_556 S
C684 H688 0.950 . S
C684 C693 1.390 1_545 S
C685 C684 1.387 1_554 S
C685 C687 1.387 . S
H686 C693 0.950 . S
C687 C685 1.387 . S
C687 C689 1.390 1_545 S
C687 H691 0.950 . S
H688 C684 0.950 . S
C689 C687 1.390 1_565 S
C689 C690 1.387 1_554 S
C689 H692 0.950 . S
C690 C689 1.387 1_556 S
C690 C693 1.387 . S
H691 C687 0.950 . S
H692 C689 0.950 . S
C693 C684 1.390 1_565 S
C693 H686 0.950 . S
C693 C690 1.387 . S
C694 C695 1.387 1_556 S
C694 H698 0.950 . S
C694 C703 1.390 . S
C695 C694 1.387 1_554 S
C695 C697 1.387 . S
H696 C703 0.950 . S
C697 C695 1.387 . S
C697 C699 1.390 . S
C697 H701 0.950 . S
H698 C694 0.950 . S
C699 C697 1.390 . S
C699 C700 1.387 1_554 S
C699 H702 0.950 . S
C700 C699 1.387 1_556 S
C700 C703 1.387 . S
H701 C697 0.950 . S
H702 C699 0.950 . S
C703 C694 1.390 . S
C703 H696 0.950 . S
C703 C700 1.387 . S
C704 C705 1.387 . S
C704 H708 0.950 . S
C704 C713 1.390 . S
C705 C704 1.387 . S
C705 C707 1.387 . S
H706 C713 0.950 . S
C707 C705 1.387 . S
C707 C709 1.390 . S
C707 H711 0.950 . S
H708 C704 0.950 . S
C709 C707 1.390 . S
C709 C710 1.387 . S
C709 H712 0.950 . S
C710 C709 1.387 . S
C710 C713 1.387 . S
H711 C707 0.950 . S
H712 C709 0.950 . S
C713 C704 1.390 . S
C713 H706 0.950 . S
C713 C710 1.387 . S
C714 C715 1.387 . S
C714 H718 0.950 . S
C714 C723 1.390 . S
C715 C714 1.387 . S
C715 C717 1.387 . S
H716 C723 0.950 . S
C717 C715 1.387 . S
C717 C719 1.390 . S
C717 H721 0.950 . S
H718 C714 0.950 . S
C719 C717 1.390 . S
C719 C720 1.387 . S
C719 H722 0.950 . S
C720 C719 1.387 . S
C720 C723 1.387 . S
H721 C717 0.950 . S
H722 C719 0.950 . S
C723 C714 1.390 . S
C723 H716 0.950 . S
C723 C720 1.387 . S
C724 C725 1.387 . S
C724 H728 0.950 . S
C724 C733 1.390 . S
C725 C724 1.387 . S
C725 C727 1.387 . S
H726 C733 0.950 . S
C727 C725 1.387 . S
C727 C729 1.390 . S
C727 H731 0.950 . S
H728 C724 0.950 . S
C729 C727 1.390 . S
C729 C730 1.387 . S
C729 H732 0.950 . S
C730 C729 1.387 . S
C730 C733 1.387 . S
H731 C727 0.950 . S
H732 C729 0.950 . S
C733 C724 1.390 . S
C733 H726 0.950 . S
C733 C730 1.387 . S
C734 C735 1.387 . S
C734 H738 0.950 . S
C734 C743 1.390 . S
C735 C734 1.387 . S
C735 C737 1.387 . S
H736 C743 0.950 . S
C737 C735 1.387 . S
C737 C739 1.390 . S
C737 H741 0.950 . S
H738 C734 0.950 . S
C739 C737 1.390 . S
C739 C740 1.387 . S
C739 H742 0.950 . S
C740 C739 1.387 . S
C740 C743 1.387 . S
H741 C737 0.950 . S
H742 C739 0.950 . S
C743 C734 1.390 . S
C743 H736 0.950 . S
C743 C740 1.387 . S
C744 C745 1.387 . S
C744 H748 0.950 . S
C744 C753 1.390 . S
C745 C744 1.387 . S
C745 C747 1.387 . S
H746 C753 0.950 . S
C747 C745 1.387 . S
C747 C749 1.390 . S
C747 H751 0.950 . S
H748 C744 0.950 . S
C749 C747 1.390 . S
C749 C750 1.387 . S
C749 H752 0.950 . S
C750 C749 1.387 . S
C750 C753 1.387 . S
H751 C747 0.950 . S
H752 C749 0.950 . S
C753 C744 1.390 . S
C753 H746 0.950 . S
C753 C750 1.387 . S
C754 C755 1.387 . S
C754 H758 0.950 . S
C754 C763 1.390 . S
C755 C754 1.387 . S
C755 C757 1.387 . S
H756 C763 0.950 . S
C757 C755 1.387 . S
C757 C759 1.390 . S
C757 H761 0.950 . S
H758 C754 0.950 . S
C759 C757 1.390 . S
C759 C760 1.387 . S
C759 H762 0.950 . S
C760 C759 1.387 . S
C760 C763 1.387 . S
H761 C757 0.950 . S
H762 C759 0.950 . S
C763 C754 1.390 . S
C763 H756 0.950 . S
C763 C760 1.387 . S
C764 C765 1.387 . S
C764 H768 0.950 . S
C764 C773 1.390 . S
C765 C764 1.387 . S
C765 C767 1.387 . S
H766 C773 0.950 . S
C767 C765 1.387 . S
C767 C769 1.390 . S
C767 H771 0.950 . S
H768 C764 0.950 . S
C769 C767 1.390 . S
C769 C770 1.387 . S
C769 H772 0.950 . S
C770 C769 1.387 . S
C770 C773 1.387 . S
H771 C767 0.950 . S
H772 C769 0.950 . S
C773 C764 1.390 . S
C773 H766 0.950 . S
C773 C770 1.387 . S
C774 C775 1.387 . S
C774 H778 0.950 . S
C774 C783 1.390 . S
C775 C774 1.387 . S
C775 C777 1.387 . S
H776 C783 0.950 . S
C777 C775 1.387 . S
C777 C779 1.390 . S
C777 H781 0.950 . S
H778 C774 0.950 . S
C779 C777 1.390 . S
C779 C780 1.387 . S
C779 H782 0.950 . S
C780 C779 1.387 . S
C780 C783 1.387 . S
H781 C777 0.950 . S
H782 C779 0.950 . S
C783 C774 1.390 . S
C783 H776 0.950 . S
C783 C780 1.387 . S
C784 C785 1.387 . S
C784 H788 0.950 . S
C784 C793 1.390 . S
C785 C784 1.387 . S
C785 C787 1.387 . S
H786 C793 0.950 . S
C787 C785 1.387 . S
C787 C789 1.390 . S
C787 H791 0.950 . S
H788 C784 0.950 . S
C789 C787 1.390 . S
C789 C790 1.387 . S
C789 H792 0.950 . S
C790 C789 1.387 . S
C790 C793 1.387 . S
H791 C787 0.950 . S
H792 C789 0.950 . S
C793 C784 1.390 . S
C793 H786 0.950 . S
C793 C790 1.387 . S
C794 C795 1.387 . S
C794 H798 0.950 . S
C794 C803 1.390 . S
C795 C794 1.387 . S
C795 C797 1.387 . S
H796 C803 0.950 . S
C797 C795 1.387 . S
C797 C799 1.390 . S
C797 H801 0.950 . S
H798 C794 0.950 . S
C799 C797 1.390 . S
C799 C800 1.387 . S
C799 H802 0.950 . S
C800 C799 1.387 . S
C800 C803 1.387 . S
H801 C797 0.950 . S
H802 C799 0.950 . S
C803 C794 1.390 . S
C803 H796 0.950 . S
C803 C800 1.387 . S
C804 C805 1.387 . S
C804 H808 0.950 . S
C804 C813 1.390 . S
C805 C804 1.387 . S
C805 C807 1.387 . S
H806 C813 0.950 . S
C807 C805 1.387 . S
C807 C809 1.390 . S
C807 H811 0.950 . S
H808 C804 0.950 . S
C809 C807 1.390 . S
C809 C810 1.387 . S
C809 H812 0.950 . S
C810 C809 1.387 . S
C810 C813 1.387 . S
H811 C807 0.950 . S
H812 C809 0.950 . S
C813 C804 1.390 . S
C813 H806 0.950 . S
C813 C810 1.387 . S
C814 C815 1.387 . S
C814 H818 0.950 . S
C814 C823 1.390 . S
C815 C814 1.387 . S
C815 C817 1.387 . S
H816 C823 0.950 . S
C817 C815 1.387 . S
C817 C819 1.390 . S
C817 H821 0.950 . S
H818 C814 0.950 . S
C819 C817 1.390 . S
C819 C820 1.387 . S
C819 H822 0.950 . S
C820 C819 1.387 . S
C820 C823 1.387 . S
H821 C817 0.950 . S
H822 C819 0.950 . S
C823 C814 1.390 . S
C823 H816 0.950 . S
C823 C820 1.387 . S
C824 C825 1.387 . S
C824 H828 0.950 . S
C824 C833 1.390 . S
C825 C824 1.387 . S
C825 C827 1.387 1_554 S
H826 C833 0.950 . S
C827 C825 1.387 1_556 S
C827 C829 1.390 . S
C827 H831 0.950 . S
H828 C824 0.950 . S
C829 C827 1.390 . S
C829 C830 1.387 . S
C829 H832 0.950 . S
C830 C829 1.387 . S
C830 C833 1.387 1_556 S
H831 C827 0.950 . S
H832 C829 0.950 . S
C833 C824 1.390 . S
C833 H826 0.950 . S
C833 C830 1.387 1_554 S
C834 C835 1.385 1_554 S
C834 H838 0.948 1_554 S
C834 C843 1.394 . S
C835 C834 1.385 1_556 S
C835 C837 1.387 . S
H836 C843 0.950 . S
C837 C835 1.387 . S
C837 C839 1.390 1_556 S
C837 H841 0.950 . S
H838 C834 0.948 1_556 S
C839 C837 1.390 1_554 S
C839 C840 1.387 . S
C839 H842 0.950 1_455 S
C840 C839 1.387 . S
C840 C843 1.387 . S
H841 C837 0.950 . S
H842 C839 0.950 1_655 S
C843 C834 1.394 . S
C843 H836 0.950 . S
C843 C840 1.387 . S
C844 C845 1.387 . S
C844 H848 0.950 . S
C844 C853 1.390 1_556 S
C845 C844 1.387 . S
C845 C847 1.387 1_556 S
H846 C853 0.950 1_566 S
C847 C845 1.387 1_554 S
C847 C849 1.390 . S
C847 H851 0.950 . S
H848 C844 0.950 . S
C849 C847 1.390 . S
C849 C850 1.387 . S
C849 H852 0.950 . S
C850 C849 1.387 . S
C850 C853 1.387 . S
H851 C847 0.950 . S
H852 C849 0.950 . S
C853 C844 1.390 1_554 S
C853 H846 0.950 1_544 S
C853 C850 1.387 . S
C854 C855 1.387 . S
C854 H858 0.950 . S
C854 C863 1.390 . S
C855 C854 1.387 . S
C855 C857 1.387 1_556 S
H856 C863 0.950 . S
C857 C855 1.387 1_554 S
C857 C859 1.390 . S
C857 H861 0.950 . S
H858 C854 0.950 . S
C859 C857 1.390 . S
C859 C860 1.387 . S
C859 H862 0.950 . S
C860 C859 1.387 . S
C860 C863 1.387 1_554 S
H861 C857 0.950 . S
H862 C859 0.950 . S
C863 C854 1.390 . S
C863 H856 0.950 . S
C863 C860 1.387 1_556 S
C864 C865 1.387 . S
C864 H868 0.950 . S
C864 C873 1.390 . S
C865 C864 1.387 . S
C865 C867 1.387 . S
H866 C873 0.950 . S
C867 C865 1.387 . S
C867 C869 1.390 . S
C867 H871 0.950 . S
H868 C864 0.950 . S
C869 C867 1.390 . S
C869 C870 1.387 . S
C869 H872 0.950 . S
C870 C869 1.387 . S
C870 C873 1.387 . S
H871 C867 0.950 . S
H872 C869 0.950 . S
C873 C864 1.390 . S
C873 H866 0.950 . S
C873 C870 1.387 . S
C874 C875 1.387 . S
C874 H878 0.950 . S
C874 C883 1.390 . S
C875 C874 1.387 . S
C875 C877 1.387 . S
H876 C883 0.950 . S
C877 C875 1.387 . S
C877 C879 1.390 . S
C877 H881 0.950 . S
H878 C874 0.950 . S
C879 C877 1.390 . S
C879 C880 1.387 . S
C879 H882 0.950 . S
C880 C879 1.387 . S
C880 C883 1.387 . S
H881 C877 0.950 . S
H882 C879 0.950 . S
C883 C874 1.390 . S
C883 H876 0.950 . S
C883 C880 1.387 . S
C884 C885 1.387 . S
C884 H888 0.950 . S
C884 C893 1.390 . S
C885 C884 1.387 . S
C885 C887 1.387 . S
H886 C893 0.950 . S
C887 C885 1.387 . S
C887 C889 1.390 . S
C887 H891 0.950 . S
H888 C884 0.950 . S
C889 C887 1.390 . S
C889 C890 1.387 . S
C889 H892 0.950 . S
C890 C889 1.387 . S
C890 C893 1.387 . S
H891 C887 0.950 . S
H892 C889 0.950 . S
C893 C884 1.390 . S
C893 H886 0.950 . S
C893 C890 1.387 . S
C894 C895 1.387 . S
C894 H898 0.950 . S
C894 C903 1.390 . S
C895 C894 1.387 . S
C895 C897 1.387 . S
H896 C903 0.950 . S
C897 C895 1.387 . S
C897 C899 1.390 . S
C897 H901 0.950 . S
H898 C894 0.950 . S
C899 C897 1.390 . S
C899 C900 1.387 . S
C899 H902 0.950 . S
C900 C899 1.387 . S
C900 C903 1.387 . S
H901 C897 0.950 . S
H902 C899 0.950 . S
C903 C894 1.390 . S
C903 H896 0.950 . S
C903 C900 1.387 . S
C904 C905 1.387 . S
C904 H908 0.950 . S
C904 C913 1.390 . S
C905 C904 1.387 . S
C905 C907 1.387 1_554 S
H906 C913 0.950 . S
C907 C905 1.387 1_556 S
C907 C909 1.390 . S
C907 H911 0.950 . S
H908 C904 0.950 . S
C909 C907 1.390 . S
C909 C910 1.387 . S
C909 H912 0.950 . S
C910 C909 1.387 . S
C910 C913 1.387 1_556 S
H911 C907 0.950 . S
H912 C909 0.950 . S
C913 C904 1.390 . S
C913 H906 0.950 . S
C913 C910 1.387 1_554 S
C914 C915 1.387 1_554 S
C914 H918 0.950 . S
C914 C923 1.390 . S
C915 C914 1.387 1_556 S
C915 C917 1.387 . S
H916 C923 0.950 . S
C917 C915 1.387 . S
C917 C919 1.390 . S
C917 H921 0.950 . S
H918 C914 0.950 . S
C919 C917 1.390 . S
C919 C920 1.387 1_556 S
C919 H922 0.950 . S
C920 C919 1.387 1_554 S
C920 C923 1.387 . S
H921 C917 0.950 . S
H922 C919 0.950 . S
C923 C914 1.390 . S
C923 H916 0.950 . S
C923 C920 1.387 . S
C924 C925 1.387 1_554 S
C924 H928 0.950 . S
C924 C933 1.390 . S
C925 C924 1.387 1_556 S
C925 C927 1.387 . S
H926 C933 0.950 . S
C927 C925 1.387 . S
C927 C929 1.390 . S
C927 H931 0.950 . S
H928 C924 0.950 . S
C929 C927 1.390 . S
C929 C930 1.387 1_556 S
C929 H932 0.950 . S
C930 C929 1.387 1_554 S
C930 C933 1.387 . S
H931 C927 0.950 . S
H932 C929 0.950 . S
C933 C924 1.390 . S
C933 H926 0.950 . S
C933 C930 1.387 . S
C934 C935 1.387 . S
C934 H938 0.950 . S
C934 C943 1.390 . S
C935 C934 1.387 . S
C935 C937 1.387 1_554 S
H936 C943 0.950 . S
C937 C935 1.387 1_556 S
C937 C939 1.390 . S
C937 H941 0.950 . S
H938 C934 0.950 . S
C939 C937 1.390 . S
C939 C940 1.387 . S
C939 H942 0.950 . S
C940 C939 1.387 . S
C940 C943 1.387 1_556 S
H941 C937 0.950 . S
H942 C939 0.950 . S
C943 C934 1.390 . S
C943 H936 0.950 . S
C943 C940 1.387 1_554 S
C545 C5 0.907 . S
C550 C175 0.909 . S
C555 C39 0.924 . S
C560 C209 0.921 . S
C565 C243 0.957 . S
C570 C73 0.961 . S
C575 C141 0.927 . S
C580 C107 0.918 . S
C585 C277 0.912 . S
C590 C447 0.903 . S
C595 C311 0.923 . S
C600 C481 0.923 . S
C605 C345 0.961 . S
C610 C515 0.957 . S
C615 C379 0.926 . S
C620 C413 0.924 . S
C625 C305 1.990 . S
C630 C33 1.988 . S
C635 C339 1.693 . S
C640 C67 1.691 . S
C645 C101 1.971 . S
C650 C373 1.971 . S
C655 C407 2.243 . S
C660 C135 2.243 . S
C665 C169 1.690 1_554 S
C670 C441 1.688 1_556 S
C675 C203 1.986 1_554 S
C680 C475 1.984 1_556 S
C685 C237 2.243 1_554 S
C690 C509 2.243 1_556 S
C695 C271 1.967 1_554 S
C700 C543 1.967 1_556 S
C705 C20 1.831 . S
C710 C156 1.833 . S
C715 C54 1.833 . S
C720 C190 1.831 . S
C725 C224 1.905 . S
C730 C88 1.904 . S
C735 C122 1.905 . S
C740 C258 1.904 . S
C745 C428 1.833 . S
C750 C292 1.831 . S
C755 C462 1.831 . S
C760 C326 1.833 . S
C765 C360 1.904 . S
C770 C496 1.905 . S
C775 C530 1.904 . S
C780 C394 1.905 . S
C785 C43 1.903 . S
C790 C2 1.970 . S
C795 C36 2.066 . S
C800 C77 2.001 . S
C805 C70 2.272 . S
C810 C111 2.190 . S
C815 C104 2.154 . S
C820 C9 2.063 . S
C825 C247 2.001 . S
C830 C138 2.063 . S
C835 C172 1.974 . S
C840 C145 1.896 . S
C845 C206 2.154 . S
C850 C179 2.065 . S
C855 C240 2.272 . S
C860 C213 2.189 . S
C865 C274 1.975 . S
C870 C315 1.897 . S
C875 C308 2.067 . S
C880 C349 1.999 . S
C885 C383 2.190 . S
C890 C342 2.271 . S
C895 C376 2.153 . S
C900 C281 2.064 . S
C905 C410 2.066 . S
C910 C519 1.999 . S
C915 C417 1.903 . S
C920 C444 1.970 . S
C925 C451 2.065 . S
C930 C478 2.152 . S
C935 C512 2.271 . S
C940 C485 2.190 . S
