# Generated by pormake.
# Topology pem, (4)-cn, num edge types: 1
# Building blocks:
#     Node 0, Type 0, BuildingBlock: TATPOV_clean_sbu_0, # of connection points: 4
#     Node 1, Type 0, BuildingBlock: TATPOV_clean_sbu_0, # of connection points: 4
#     Node 2, Type 0, BuildingBlock: TATPOV_clean_sbu_0, # of connection points: 4
#     Node 3, Type 0, BuildingBlock: TATPOV_clean_sbu_0, # of connection points: 4
#     Node 4, Type 0, BuildingBlock: TATPOV_clean_sbu_0, # of connection points: 4
#     Node 5, Type 0, BuildingBlock: TATPOV_clean_sbu_0, # of connection points: 4
#     Node 6, Type 0, BuildingBlock: TATPOV_clean_sbu_0, # of connection points: 4
#     Node 7, Type 0, BuildingBlock: TATPOV_clean_sbu_0, # of connection points: 4
#     Node 8, Type 0, BuildingBlock: TATPOV_clean_sbu_0, # of connection points: 4
#     Node 9, Type 0, BuildingBlock: TATPOV_clean_sbu_0, # of connection points: 4
#     Node 10, Type 0, BuildingBlock: TATPOV_clean_sbu_0, # of connection points: 4
#     Node 11, Type 0, BuildingBlock: TATPOV_clean_sbu_0, # of connection points: 4
#     Node 12, Type 0, BuildingBlock: TATPOV_clean_sbu_0, # of connection points: 4
#     Node 13, Type 0, BuildingBlock: TATPOV_clean_sbu_0, # of connection points: 4
#     Node 14, Type 0, BuildingBlock: TATPOV_clean_sbu_0, # of connection points: 4
#     Node 15, Type 0, BuildingBlock: TATPOV_clean_sbu_0, # of connection points: 4
#     Node 16, Type 0, BuildingBlock: TATPOV_clean_sbu_0, # of connection points: 4
#     Node 17, Type 0, BuildingBlock: TATPOV_clean_sbu_0, # of connection points: 4
#     Node 18, Type 0, BuildingBlock: TATPOV_clean_sbu_0, # of connection points: 4
#     Node 19, Type 0, BuildingBlock: TATPOV_clean_sbu_0, # of connection points: 4
#     Node 20, Type 0, BuildingBlock: TATPOV_clean_sbu_0, # of connection points: 4
#     Node 21, Type 0, BuildingBlock: TATPOV_clean_sbu_0, # of connection points: 4
#     Node 22, Type 0, BuildingBlock: TATPOV_clean_sbu_0, # of connection points: 4
#     Node 23, Type 0, BuildingBlock: TATPOV_clean_sbu_0, # of connection points: 4
#     Node 24, Type 0, BuildingBlock: TATPOV_clean_sbu_0, # of connection points: 4
#     Node 25, Type 0, BuildingBlock: TATPOV_clean_sbu_0, # of connection points: 4
#     Node 26, Type 0, BuildingBlock: TATPOV_clean_sbu_0, # of connection points: 4
#     Node 27, Type 0, BuildingBlock: TATPOV_clean_sbu_0, # of connection points: 4
#     Node 28, Type 0, BuildingBlock: TATPOV_clean_sbu_0, # of connection points: 4
#     Node 29, Type 0, BuildingBlock: TATPOV_clean_sbu_0, # of connection points: 4
#     Node 30, Type 0, BuildingBlock: TATPOV_clean_sbu_0, # of connection points: 4
#     Node 31, Type 0, BuildingBlock: TATPOV_clean_sbu_0, # of connection points: 4
#     Edge 32, Type (0, 0), BuildingBlock: UVAHIK_clean_linker_0, # of connection points: 2
#     Edge 33, Type (0, 0), BuildingBlock: UVAHIK_clean_linker_0, # of connection points: 2
#     Edge 34, Type (0, 0), BuildingBlock: UVAHIK_clean_linker_0, # of connection points: 2
#     Edge 35, Type (0, 0), BuildingBlock: UVAHIK_clean_linker_0, # of connection points: 2
#     Edge 36, Type (0, 0), BuildingBlock: UVAHIK_clean_linker_0, # of connection points: 2
#     Edge 37, Type (0, 0), BuildingBlock: UVAHIK_clean_linker_0, # of connection points: 2
#     Edge 38, Type (0, 0), BuildingBlock: UVAHIK_clean_linker_0, # of connection points: 2
#     Edge 39, Type (0, 0), BuildingBlock: UVAHIK_clean_linker_0, # of connection points: 2
#     Edge 40, Type (0, 0), BuildingBlock: UVAHIK_clean_linker_0, # of connection points: 2
#     Edge 41, Type (0, 0), BuildingBlock: UVAHIK_clean_linker_0, # of connection points: 2
#     Edge 42, Type (0, 0), BuildingBlock: UVAHIK_clean_linker_0, # of connection points: 2
#     Edge 43, Type (0, 0), BuildingBlock: UVAHIK_clean_linker_0, # of connection points: 2
#     Edge 44, Type (0, 0), BuildingBlock: UVAHIK_clean_linker_0, # of connection points: 2
#     Edge 45, Type (0, 0), BuildingBlock: UVAHIK_clean_linker_0, # of connection points: 2
#     Edge 46, Type (0, 0), BuildingBlock: UVAHIK_clean_linker_0, # of connection points: 2
#     Edge 47, Type (0, 0), BuildingBlock: UVAHIK_clean_linker_0, # of connection points: 2
#     Edge 48, Type (0, 0), BuildingBlock: UVAHIK_clean_linker_0, # of connection points: 2
#     Edge 49, Type (0, 0), BuildingBlock: UVAHIK_clean_linker_0, # of connection points: 2
#     Edge 50, Type (0, 0), BuildingBlock: UVAHIK_clean_linker_0, # of connection points: 2
#     Edge 51, Type (0, 0), BuildingBlock: UVAHIK_clean_linker_0, # of connection points: 2
#     Edge 52, Type (0, 0), BuildingBlock: UVAHIK_clean_linker_0, # of connection points: 2
#     Edge 53, Type (0, 0), BuildingBlock: UVAHIK_clean_linker_0, # of connection points: 2
#     Edge 54, Type (0, 0), BuildingBlock: UVAHIK_clean_linker_0, # of connection points: 2
#     Edge 55, Type (0, 0), BuildingBlock: UVAHIK_clean_linker_0, # of connection points: 2
#     Edge 56, Type (0, 0), BuildingBlock: UVAHIK_clean_linker_0, # of connection points: 2
#     Edge 57, Type (0, 0), BuildingBlock: UVAHIK_clean_linker_0, # of connection points: 2
#     Edge 58, Type (0, 0), BuildingBlock: UVAHIK_clean_linker_0, # of connection points: 2
#     Edge 59, Type (0, 0), BuildingBlock: UVAHIK_clean_linker_0, # of connection points: 2
#     Edge 60, Type (0, 0), BuildingBlock: UVAHIK_clean_linker_0, # of connection points: 2
#     Edge 61, Type (0, 0), BuildingBlock: UVAHIK_clean_linker_0, # of connection points: 2
#     Edge 62, Type (0, 0), BuildingBlock: UVAHIK_clean_linker_0, # of connection points: 2
#     Edge 63, Type (0, 0), BuildingBlock: UVAHIK_clean_linker_0, # of connection points: 2
#     Edge 64, Type (0, 0), BuildingBlock: UVAHIK_clean_linker_0, # of connection points: 2
#     Edge 65, Type (0, 0), BuildingBlock: UVAHIK_clean_linker_0, # of connection points: 2
#     Edge 66, Type (0, 0), BuildingBlock: UVAHIK_clean_linker_0, # of connection points: 2
#     Edge 67, Type (0, 0), BuildingBlock: UVAHIK_clean_linker_0, # of connection points: 2
#     Edge 68, Type (0, 0), BuildingBlock: UVAHIK_clean_linker_0, # of connection points: 2
#     Edge 69, Type (0, 0), BuildingBlock: UVAHIK_clean_linker_0, # of connection points: 2
#     Edge 70, Type (0, 0), BuildingBlock: UVAHIK_clean_linker_0, # of connection points: 2
#     Edge 71, Type (0, 0), BuildingBlock: UVAHIK_clean_linker_0, # of connection points: 2
#     Edge 72, Type (0, 0), BuildingBlock: UVAHIK_clean_linker_0, # of connection points: 2
#     Edge 73, Type (0, 0), BuildingBlock: UVAHIK_clean_linker_0, # of connection points: 2
#     Edge 74, Type (0, 0), BuildingBlock: UVAHIK_clean_linker_0, # of connection points: 2
#     Edge 75, Type (0, 0), BuildingBlock: UVAHIK_clean_linker_0, # of connection points: 2
#     Edge 76, Type (0, 0), BuildingBlock: UVAHIK_clean_linker_0, # of connection points: 2
#     Edge 77, Type (0, 0), BuildingBlock: UVAHIK_clean_linker_0, # of connection points: 2
#     Edge 78, Type (0, 0), BuildingBlock: UVAHIK_clean_linker_0, # of connection points: 2
#     Edge 79, Type (0, 0), BuildingBlock: UVAHIK_clean_linker_0, # of connection points: 2
#     Edge 80, Type (0, 0), BuildingBlock: UVAHIK_clean_linker_0, # of connection points: 2
#     Edge 81, Type (0, 0), BuildingBlock: UVAHIK_clean_linker_0, # of connection points: 2
#     Edge 82, Type (0, 0), BuildingBlock: UVAHIK_clean_linker_0, # of connection points: 2
#     Edge 83, Type (0, 0), BuildingBlock: UVAHIK_clean_linker_0, # of connection points: 2
#     Edge 84, Type (0, 0), BuildingBlock: UVAHIK_clean_linker_0, # of connection points: 2
#     Edge 85, Type (0, 0), BuildingBlock: UVAHIK_clean_linker_0, # of connection points: 2
#     Edge 86, Type (0, 0), BuildingBlock: UVAHIK_clean_linker_0, # of connection points: 2
#     Edge 87, Type (0, 0), BuildingBlock: UVAHIK_clean_linker_0, # of connection points: 2
#     Edge 88, Type (0, 0), BuildingBlock: UVAHIK_clean_linker_0, # of connection points: 2
#     Edge 89, Type (0, 0), BuildingBlock: UVAHIK_clean_linker_0, # of connection points: 2
#     Edge 90, Type (0, 0), BuildingBlock: UVAHIK_clean_linker_0, # of connection points: 2
#     Edge 91, Type (0, 0), BuildingBlock: UVAHIK_clean_linker_0, # of connection points: 2
#     Edge 92, Type (0, 0), BuildingBlock: UVAHIK_clean_linker_0, # of connection points: 2
#     Edge 93, Type (0, 0), BuildingBlock: UVAHIK_clean_linker_0, # of connection points: 2
#     Edge 94, Type (0, 0), BuildingBlock: UVAHIK_clean_linker_0, # of connection points: 2
#     Edge 95, Type (0, 0), BuildingBlock: UVAHIK_clean_linker_0, # of connection points: 2
# Relax obj value: 0.095
# Max RMSD: 0.078
# Mean RMSD: 0.069
data_MOF--net-pem--node1-TATPOV_clean_sbu_0--edge1-UVAHIK_clean_linker_0
_symmetry_space_group_name_H-M    P1
_symmetry_Int_Tables_number       1
_symmetry_cell_setting            triclinic
loop_
_symmetry_equiv_pos_as_xyz
'x, y, z'
_cell_length_a     54.037465
_cell_length_b     55.161818
_cell_length_c     55.313686
_cell_angle_alpha  90.805832
_cell_angle_beta   90.572356
_cell_angle_gamma 90.841269
loop_
_atom_site_label
_atom_site_type_symbol
_atom_site_fract_x
_atom_site_fract_y
_atom_site_fract_z
_atom_type_partial_charge
Zn0 Zn 0.02719 0.06026 0.14285 0.0
Zn1 Zn 0.07064 0.07895 0.13272 0.0
O2 O 0.04735 0.1089 0.13006 0.0
O3 O 0.01081 0.09167 0.1351 0.0
O4 O 0.1048 0.09043 0.12233 0.0
O5 O 0.03704 0.05201 0.17653 0.0
O6 O 0.07518 0.06015 0.16524 0.0
C7 C 0.02375 0.11029 0.13038 0.0
C8 C 0.04919 0.03743 0.10231 0.0
O9 O 0.06442 0.05497 0.10524 0.0
O10 O 0.03162 0.03434 0.11695 0.0
C11 C 0.10528 0.10132 0.10218 0.0
O12 O 0.08415 0.10712 0.09199 0.0
C13 C 0.06009 0.05109 0.1805 0.0
Zn14 Zn 0.16387 0.83556 0.35144 0.0
Zn15 Zn 0.132 0.80696 0.35775 0.0
O16 O 0.14536 0.8183 0.39217 0.0
O17 O 0.16089 0.85366 0.38245 0.0
O18 O 0.10372 0.78259 0.36243 0.0
O19 O 0.15109 0.84877 0.32092 0.0
O20 O 0.11651 0.83318 0.33448 0.0
C21 C 0.15578 0.8384 0.39853 0.0
C22 C 0.18217 0.79017 0.34291 0.0
O23 O 0.15893 0.78589 0.34171 0.0
O24 O 0.19 0.81082 0.3498 0.0
C25 C 0.09902 0.77041 0.38127 0.0
O26 O 0.11279 0.7738 0.40077 0.0
C27 C 0.12785 0.84672 0.31947 0.0
Zn28 Zn 0.43366 0.93137 0.59839 0.0
Zn29 Zn 0.39324 0.90918 0.58371 0.0
O30 O 0.4169 0.88005 0.58856 0.0
O31 O 0.45153 0.8997 0.59774 0.0
O32 O 0.361 0.89512 0.57091 0.0
O33 O 0.41834 0.94489 0.62814 0.0
O34 O 0.38295 0.93123 0.61294 0.0
C35 C 0.44014 0.87995 0.59304 0.0
C36 C 0.41868 0.94621 0.55172 0.0
O37 O 0.40313 0.92895 0.55425 0.0
O38 O 0.43342 0.95208 0.56878 0.0
C39 C 0.35239 0.87354 0.57047 0.0
O40 O 0.36474 0.85624 0.58104 0.0
C41 C 0.39497 0.94385 0.62881 0.0
Zn42 Zn 0.25151 0.09738 0.85262 0.0
Zn43 Zn 0.29478 0.11986 0.86406 0.0
O44 O 0.28158 0.10773 0.8973 0.0
O45 O 0.24689 0.08838 0.88737 0.0
O46 O 0.32801 0.13664 0.87041 0.0
O47 O 0.26804 0.07505 0.82897 0.0
O48 O 0.30272 0.0954 0.83646 0.0
C49 C 0.26233 0.09557 0.90337 0.0
C50 C 0.25314 0.14836 0.84102 0.0
O51 O 0.2747 0.14735 0.85033 0.0
O52 O 0.23936 0.12957 0.84001 0.0
C53 C 0.32971 0.15755 0.88038 0.0
O54 O 0.3096 0.16766 0.88874 0.0
C55 C 0.2906 0.0792 0.8244 0.0
Zn56 Zn 0.08851 0.88739 0.3698 0.0
Zn57 Zn 0.1104 0.89032 0.41082 0.0
O58 O 0.09181 0.85588 0.4096 0.0
O59 O 0.07633 0.8539 0.37272 0.0
O60 O 0.1311 0.89195 0.44216 0.0
O61 O 0.11753 0.895 0.34968 0.0
O62 O 0.13538 0.90338 0.38464 0.0
C63 C 0.07915 0.84448 0.39321 0.0
C64 C 0.06865 0.92437 0.40071 0.0
O65 O 0.08504 0.9168 0.41537 0.0
O66 O 0.06609 0.91469 0.37992 0.0
C67 C 0.13145 0.87671 0.45927 0.0
O68 O 0.11719 0.85725 0.45768 0.0
C69 C 0.13571 0.90368 0.36152 0.0
Zn70 Zn 0.40291 0.86687 0.70314 0.0
Zn71 Zn 0.36949 0.87195 0.6691 0.0
O72 O 0.3736 0.90624 0.68644 0.0
O73 O 0.40363 0.90124 0.7131 0.0
O74 O 0.34348 0.87473 0.64178 0.0
O75 O 0.42849 0.85381 0.68155 0.0
O76 O 0.39902 0.85276 0.6538 0.0
C77 C 0.38773 0.91465 0.70342 0.0
C78 C 0.3588 0.83887 0.71106 0.0
O79 O 0.35199 0.84899 0.69162 0.0
O80 O 0.38005 0.84337 0.72004 0.0
C81 C 0.33094 0.89344 0.6368 0.0
O82 O 0.33521 0.91362 0.6491 0.0
C83 C 0.42084 0.84718 0.66081 0.0
Zn84 Zn 0.34902 0.09459 0.94276 0.0
Zn85 Zn 0.38036 0.12827 0.92763 0.0
O86 O 0.3706 0.10953 0.89543 0.0
O87 O 0.34547 0.08129 0.90927 0.0
O88 O 0.40713 0.15327 0.91931 0.0
O89 O 0.32604 0.11922 0.95569 0.0
O90 O 0.3537 0.14757 0.94746 0.0
C91 C 0.357 0.09059 0.89182 0.0
C92 C 0.3964 0.08873 0.96299 0.0
O93 O 0.40074 0.10647 0.94915 0.0
O94 O 0.37465 0.08022 0.96482 0.0
C95 C 0.42617 0.14701 0.90744 0.0
O96 O 0.42723 0.12479 0.89868 0.0
C97 C 0.33303 0.14115 0.95666 0.0
Zn98 Zn 0.09533 0.14661 0.21521 0.0
Zn99 Zn 0.11985 0.13863 0.1747 0.0
O100 O 0.12094 0.10437 0.19098 0.0
O101 O 0.10026 0.11237 0.2242 0.0
O102 O 0.14002 0.13706 0.14377 0.0
O103 O 0.06491 0.15662 0.19781 0.0
O104 O 0.0862 0.1539 0.16415 0.0
C105 C 0.11237 0.09766 0.21135 0.0
C106 C 0.13948 0.17426 0.21389 0.0
O107 O 0.14122 0.1626 0.19402 0.0
O108 O 0.12054 0.17152 0.2269 0.0
C109 C 0.16314 0.13326 0.14577 0.0
O110 O 0.17223 0.12782 0.16711 0.0
C111 C 0.06643 0.15958 0.17527 0.0
Zn112 Zn 0.51961 0.37498 0.84216 0.0
Zn113 Zn 0.55768 0.37189 0.87125 0.0
O114 O 0.54429 0.33602 0.86619 0.0
O115 O 0.51556 0.33948 0.83798 0.0
O116 O 0.5874 0.37006 0.89434 0.0
O117 O 0.53743 0.3945 0.81809 0.0
O118 O 0.56963 0.3943 0.84277 0.0
C119 C 0.52768 0.3264 0.85229 0.0
C120 C 0.5109 0.39621 0.88846 0.0
O121 O 0.53315 0.38983 0.89198 0.0
O122 O 0.50031 0.39195 0.86829 0.0
C123 C 0.58453 0.36106 0.91524 0.0
O124 O 0.56285 0.35168 0.92074 0.0
C125 C 0.55922 0.4015 0.82331 0.0
Zn126 Zn 0.87001 0.33746 0.1384 0.0
Zn127 Zn 0.83346 0.34363 0.10988 0.0
O128 O 0.84057 0.37817 0.12634 0.0
O129 O 0.87312 0.37138 0.1493 0.0
O130 O 0.80521 0.3477 0.08541 0.0
O131 O 0.89291 0.32409 0.11433 0.0
O132 O 0.85967 0.32232 0.09125 0.0
C133 C 0.85674 0.38569 0.14194 0.0
C134 C 0.82657 0.31178 0.15302 0.0
O135 O 0.81739 0.32233 0.13478 0.0
O136 O 0.84927 0.31465 0.15835 0.0
C137 C 0.78612 0.36029 0.08968 0.0
O138 O 0.78494 0.37249 0.1102 0.0
C139 C 0.88234 0.31702 0.09505 0.0
Zn140 Zn 0.8422 0.5168 0.39982 0.0
Zn141 Zn 0.86084 0.56166 0.39135 0.0
O142 O 0.8472 0.55021 0.35743 0.0
O143 O 0.82957 0.51495 0.36553 0.0
O144 O 0.87893 0.59419 0.38769 0.0
O145 O 0.82205 0.53051 0.42685 0.0
O146 O 0.83619 0.56734 0.41972 0.0
C147 C 0.83521 0.53112 0.35045 0.0
C148 C 0.8941 0.5195 0.40686 0.0
O149 O 0.89016 0.5414 0.40134 0.0
O150 O 0.87632 0.50434 0.40749 0.0
C151 C 0.89693 0.59582 0.37307 0.0
O152 O 0.90138 0.57739 0.35852 0.0
C153 C 0.82285 0.55291 0.43215 0.0
Zn154 Zn 0.78868 0.64166 0.35881 0.0
Zn155 Zn 0.82838 0.66114 0.37798 0.0
O156 O 0.80783 0.64999 0.40839 0.0
O157 O 0.77687 0.63019 0.39051 0.0
O158 O 0.86088 0.67675 0.38919 0.0
O159 O 0.80685 0.6204 0.33599 0.0
O160 O 0.84079 0.63582 0.35259 0.0
C161 C 0.78776 0.63743 0.40968 0.0
C162 C 0.79255 0.69179 0.34875 0.0
O163 O 0.81285 0.68972 0.36034 0.0
O164 O 0.77791 0.67377 0.34651 0.0
C165 C 0.8713 0.68095 0.40958 0.0
O166 O 0.86038 0.674 0.42949 0.0
C167 C 0.83019 0.62198 0.3368 0.0
Zn168 Zn 0.70792 0.37773 0.86188 0.0
Zn169 Zn 0.67326 0.34513 0.87013 0.0
O170 O 0.68664 0.35637 0.9047 0.0
O171 O 0.71273 0.38617 0.89642 0.0
O172 O 0.64484 0.32053 0.87479 0.0
O173 O 0.6868 0.39811 0.84141 0.0
O174 O 0.65793 0.36996 0.84579 0.0
C175 C 0.70195 0.37305 0.91172 0.0
C176 C 0.7204 0.33008 0.84487 0.0
O177 O 0.69918 0.32464 0.85319 0.0
O178 O 0.72856 0.35169 0.84643 0.0
C179 C 0.63569 0.31365 0.89472 0.0
O180 O 0.64474 0.32273 0.91508 0.0
C181 C 0.66547 0.38975 0.83638 0.0
Zn182 Zn 0.88288 0.96796 0.90308 0.0
Zn183 Zn 0.89444 0.9226 0.88846 0.0
O184 O 0.86446 0.91746 0.91061 0.0
O185 O 0.85599 0.95404 0.92424 0.0
O186 O 0.90595 0.88881 0.8813 0.0
O187 O 0.87714 0.97607 0.86807 0.0
O188 O 0.89129 0.94059 0.85609 0.0
C189 C 0.85195 0.93137 0.92423 0.0
C190 C 0.93203 0.95437 0.91629 0.0
O191 O 0.92474 0.93448 0.90672 0.0
O192 O 0.91783 0.97244 0.91677 0.0
C193 C 0.91049 0.87685 0.90032 0.0
O194 O 0.90412 0.8861 0.92134 0.0
C195 C 0.8839 0.96188 0.85126 0.0
Zn196 Zn 0.859 0.12946 0.65581 0.0
Zn197 Zn 0.88604 0.16611 0.645 0.0
O198 O 0.91022 0.141 0.66041 0.0
O199 O 0.88705 0.10815 0.6634 0.0
O200 O 0.90855 0.19384 0.63522 0.0
O201 O 0.84203 0.12683 0.62419 0.0
O202 O 0.86378 0.15904 0.61409 0.0
C203 C 0.9078 0.11871 0.66596 0.0
C204 C 0.84933 0.17139 0.68541 0.0
O205 O 0.86545 0.18106 0.67181 0.0
O206 O 0.84342 0.14922 0.68258 0.0
C207 C 0.9228 0.20373 0.65105 0.0
O208 O 0.92281 0.19526 0.67314 0.0
C209 C 0.84713 0.143 0.60902 0.0
Zn210 Zn 0.64104 0.05756 0.4157 0.0
Zn211 Zn 0.61746 0.09649 0.4034 0.0
O212 O 0.64397 0.11027 0.42766 0.0
O213 O 0.65824 0.07633 0.44239 0.0
O214 O 0.59706 0.12532 0.39394 0.0
O215 O 0.65624 0.05372 0.38297 0.0
O216 O 0.62841 0.08002 0.37137 0.0
C217 C 0.65749 0.09926 0.44288 0.0
C218 C 0.58908 0.05325 0.42241 0.0
O219 O 0.59041 0.07586 0.41844 0.0
O220 O 0.60823 0.04038 0.42104 0.0
C221 C 0.58676 0.13692 0.41107 0.0
O222 O 0.59169 0.13097 0.43351 0.0
C223 C 0.64443 0.06399 0.36623 0.0
Zn224 Zn 0.6227 0.84122 0.18021 0.0
Zn225 Zn 0.64986 0.84966 0.14438 0.0
O226 O 0.62383 0.82436 0.13018 0.0
O227 O 0.60523 0.81379 0.16368 0.0
O228 O 0.67072 0.85985 0.11616 0.0
O229 O 0.60798 0.87409 0.18307 0.0
O230 O 0.64001 0.88238 0.16042 0.0
C231 C 0.60852 0.8107 0.14127 0.0
C232 C 0.67394 0.83192 0.18953 0.0
O233 O 0.67549 0.8346 0.16679 0.0
O234 O 0.65344 0.83498 0.19995 0.0
C235 C 0.68609 0.84501 0.1073 0.0
O236 O 0.68669 0.82284 0.11567 0.0
C237 C 0.62305 0.88944 0.17466 0.0
Zn238 Zn 0.95113 0.09265 0.59396 0.0
Zn239 Zn 0.90945 0.10279 0.57767 0.0
O240 O 0.90014 0.07831 0.60504 0.0
O241 O 0.93741 0.06399 0.61085 0.0
O242 O 0.87739 0.1115 0.56127 0.0
O243 O 0.95665 0.12459 0.61089 0.0
O244 O 0.92634 0.13595 0.58707 0.0
C245 C 0.91439 0.06274 0.61456 0.0
C246 C 0.94967 0.08418 0.54439 0.0
O247 O 0.92683 0.0872 0.54865 0.0
O248 O 0.96549 0.08767 0.56111 0.0
C249 C 0.86523 0.09449 0.5506 0.0
O250 O 0.87252 0.07204 0.55313 0.0
C251 C 0.94436 0.14134 0.60137 0.0
Zn252 Zn 0.60582 0.16456 0.30977 0.0
Zn253 Zn 0.63772 0.15391 0.34172 0.0
O254 O 0.6149 0.17879 0.35939 0.0
O255 O 0.58816 0.18751 0.3307 0.0
O256 O 0.66111 0.14156 0.36739 0.0
O257 O 0.59287 0.13157 0.30151 0.0
O258 O 0.62615 0.12284 0.32258 0.0
C259 C 0.59678 0.19128 0.35175 0.0
C260 C 0.65545 0.18054 0.29871 0.0
O261 O 0.66039 0.17258 0.31964 0.0
O262 O 0.63374 0.17836 0.29002 0.0
C263 C 0.67568 0.15676 0.37787 0.0
O264 O 0.67397 0.17981 0.37252 0.0
C265 C 0.60876 0.11634 0.30795 0.0
Zn266 Zn 0.65449 0.95176 0.06791 0.0
Zn267 Zn 0.62716 0.91388 0.07408 0.0
O268 O 0.6538 0.90083 0.04994 0.0
O269 O 0.67307 0.93515 0.04178 0.0
O270 O 0.60663 0.88526 0.08531 0.0
O271 O 0.66715 0.95585 0.10194 0.0
O272 O 0.63548 0.93115 0.10678 0.0
C273 C 0.66961 0.91275 0.03761 0.0
C274 C 0.60327 0.95762 0.05416 0.0
O275 O 0.60207 0.93476 0.0568 0.0
O276 O 0.62311 0.96923 0.05915 0.0
C277 C 0.58945 0.87551 0.07247 0.0
O278 O 0.58625 0.88262 0.0501 0.0
C279 C 0.65129 0.94629 0.11563 0.0
Zn280 Zn 0.89938 0.82578 0.78158 0.0
Zn281 Zn 0.87999 0.84006 0.82295 0.0
O282 O 0.90799 0.81655 0.83409 0.0
O283 O 0.92324 0.80513 0.79902 0.0
O284 O 0.86216 0.85131 0.85297 0.0
O285 O 0.90823 0.85972 0.7729 0.0
O286 O 0.8892 0.87235 0.80566 0.0
C287 C 0.92324 0.80394 0.82184 0.0
C288 C 0.84868 0.81261 0.78474 0.0
O289 O 0.85143 0.8225 0.80551 0.0
O290 O 0.86671 0.81169 0.77036 0.0
C291 C 0.853 0.83623 0.86773 0.0
O292 O 0.85791 0.8131 0.865 0.0
C293 C 0.90048 0.8769 0.78603 0.0
Zn294 Zn 0.42822 0.5757 0.11916 0.0
Zn295 Zn 0.39066 0.59034 0.0943 0.0
O296 O 0.37251 0.57494 0.12383 0.0
O297 O 0.40525 0.56238 0.14365 0.0
O298 O 0.36424 0.60041 0.07063 0.0
O299 O 0.44241 0.60918 0.12251 0.0
O300 O 0.41215 0.62198 0.09932 0.0
C301 C 0.38204 0.56415 0.14189 0.0
C302 C 0.42669 0.55153 0.07518 0.0
O303 O 0.4076 0.56463 0.07375 0.0
O304 O 0.4406 0.55303 0.09364 0.0
C305 C 0.35339 0.5842 0.0576 0.0
O306 O 0.35746 0.56125 0.06199 0.0
C307 C 0.43212 0.62617 0.11128 0.0
Zn308 Zn 0.11252 0.69595 0.8192 0.0
Zn309 Zn 0.13812 0.67392 0.85349 0.0
O310 O 0.11592 0.69584 0.87471 0.0
O311 O 0.09909 0.71705 0.84549 0.0
O312 O 0.16024 0.65621 0.87654 0.0
O313 O 0.09646 0.66473 0.80762 0.0
O314 O 0.12265 0.64686 0.83202 0.0
C315 C 0.10268 0.7134 0.86777 0.0
C316 C 0.164 0.704 0.81488 0.0
O317 O 0.16407 0.69287 0.83485 0.0
O318 O 0.14394 0.70683 0.80336 0.0
C319 C 0.17556 0.66924 0.88872 0.0
O320 O 0.17425 0.69295 0.88735 0.0
C321 C 0.10651 0.64561 0.81504 0.0
Zn322 Zn 0.15373 0.4731 0.56965 0.0
Zn323 Zn 0.12552 0.43586 0.58519 0.0
O324 O 0.15598 0.41807 0.57098 0.0
O325 O 0.17968 0.44918 0.56114 0.0
O326 O 0.10228 0.40965 0.59791 0.0
O327 O 0.15331 0.48934 0.60203 0.0
O328 O 0.12995 0.45915 0.61475 0.0
C329 C 0.17606 0.42649 0.56219 0.0
C330 C 0.10837 0.46835 0.54352 0.0
O331 O 0.10531 0.45099 0.55815 0.0
O332 O 0.12793 0.48124 0.54452 0.0
C333 C 0.08603 0.39981 0.58396 0.0
O334 O 0.08581 0.40543 0.56097 0.0
C335 C 0.14098 0.47948 0.61862 0.0
Zn336 Zn 0.12694 0.35025 0.66101 0.0
Zn337 Zn 0.16557 0.35705 0.63523 0.0
O338 O 0.14117 0.33635 0.61299 0.0
O339 O 0.10839 0.33151 0.63586 0.0
O340 O 0.19502 0.36417 0.61369 0.0
O341 O 0.12022 0.38485 0.66698 0.0
O342 O 0.15615 0.39122 0.64978 0.0
C343 C 0.11941 0.32771 0.61619 0.0
C344 C 0.17042 0.3288 0.68137 0.0
O345 O 0.18036 0.33617 0.66197 0.0
O346 O 0.14785 0.33295 0.68545 0.0
C347 C 0.20276 0.34813 0.59893 0.0
O348 O 0.19122 0.32702 0.59757 0.0
C349 C 0.13769 0.3992 0.66167 0.0
Zn350 Zn 0.36623 0.61729 0.18104 0.0
Zn351 Zn 0.39021 0.65356 0.16476 0.0
O352 O 0.41878 0.62975 0.17426 0.0
O353 O 0.39649 0.59902 0.18711 0.0
O354 O 0.40919 0.68238 0.15212 0.0
O355 O 0.34564 0.61285 0.15133 0.0
O356 O 0.36543 0.64429 0.13645 0.0
C357 C 0.41734 0.60855 0.18309 0.0
C358 C 0.3581 0.65809 0.21011 0.0
O359 O 0.37192 0.66792 0.19433 0.0
O360 O 0.35286 0.63573 0.20867 0.0
C361 C 0.42376 0.69387 0.16653 0.0
O362 O 0.42583 0.68654 0.18895 0.0
C363 C 0.34868 0.62775 0.13442 0.0
Zn364 Zn 0.52762 0.56378 0.62915 0.0
Zn365 Zn 0.57297 0.58574 0.62327 0.0
O366 O 0.55195 0.61366 0.63768 0.0
O367 O 0.51546 0.5957 0.64207 0.0
O368 O 0.60617 0.59944 0.61312 0.0
O369 O 0.54475 0.53898 0.64992 0.0
O370 O 0.58111 0.55673 0.64489 0.0
C371 C 0.52914 0.61451 0.64355 0.0
C372 C 0.54218 0.56556 0.58017 0.0
O373 O 0.56119 0.57555 0.5898 0.0
O374 O 0.52437 0.55846 0.59309 0.0
C375 C 0.60631 0.61524 0.59654 0.0
O376 O 0.58531 0.62503 0.59 0.0
C377 C 0.56794 0.53961 0.65357 0.0
Zn378 Zn 0.97001 0.42786 0.14616 0.0
Zn379 Zn 0.92481 0.42287 0.1252 0.0
O380 O 0.93317 0.38874 0.13792 0.0
O381 O 0.96834 0.39358 0.15806 0.0
O382 O 0.89179 0.41861 0.10778 0.0
O383 O 0.9575 0.45567 0.16608 0.0
O384 O 0.92028 0.45121 0.14987 0.0
C385 C 0.95068 0.38002 0.15062 0.0
C386 C 0.96997 0.43525 0.09485 0.0
O387 O 0.94681 0.43188 0.09713 0.0
O388 O 0.98423 0.43418 0.11311 0.0
C389 C 0.88948 0.40088 0.09292 0.0
O390 O 0.90787 0.38572 0.09065 0.0
C391 C 0.93526 0.46238 0.16432 0.0
Zn392 Zn 0.59218 0.66642 0.6775 0.0
Zn393 Zn 0.62834 0.65021 0.64874 0.0
O394 O 0.61668 0.61909 0.66711 0.0
O395 O 0.58608 0.63277 0.68925 0.0
O396 O 0.65735 0.64024 0.62802 0.0
O397 O 0.57487 0.67895 0.64813 0.0
O398 O 0.60445 0.66639 0.62417 0.0
C399 C 0.59965 0.61547 0.6826 0.0
C400 C 0.63826 0.68888 0.68858 0.0
O401 O 0.64483 0.67534 0.67103 0.0
O402 O 0.6161 0.68843 0.69575 0.0
C403 C 0.6723 0.62343 0.63313 0.0
O404 O 0.66862 0.61047 0.65254 0.0
C405 C 0.5838 0.67685 0.62722 0.0
Zn406 Zn 0.3834 0.45386 0.3793 0.0
Zn407 Zn 0.41492 0.41744 0.38039 0.0
O408 O 0.38628 0.40675 0.40291 0.0
O409 O 0.35991 0.43664 0.40147 0.0
O410 O 0.43888 0.38996 0.38206 0.0
O411 O 0.38163 0.45191 0.34296 0.0
O412 O 0.41045 0.42418 0.344 0.0
C413 C 0.36619 0.41638 0.40984 0.0
C414 C 0.4317 0.46741 0.39764 0.0
O415 O 0.43586 0.44503 0.39414 0.0
O416 O 0.41043 0.47585 0.39343 0.0
C417 C 0.44533 0.38168 0.4025 0.0
O418 O 0.43497 0.39021 0.42218 0.0
C419 C 0.39715 0.43883 0.33205 0.0
Zn420 Zn 0.15931 0.55183 0.90755 0.0
Zn421 Zn 0.1314 0.58874 0.90349 0.0
O422 O 0.15671 0.60126 0.93023 0.0
O423 O 0.17565 0.56684 0.93664 0.0
O424 O 0.10891 0.61674 0.89537 0.0
O425 O 0.17435 0.55287 0.8746 0.0
O426 O 0.14225 0.57627 0.86949 0.0
C427 C 0.17189 0.58871 0.94255 0.0
C428 C 0.10872 0.54098 0.9177 0.0
O429 O 0.10726 0.56397 0.91718 0.0
O430 O 0.1288 0.53076 0.91234 0.0
C431 C 0.09063 0.62244 0.90854 0.0
O432 O 0.08738 0.61128 0.92912 0.0
C433 C 0.15944 0.56335 0.86062 0.0
Zn434 Zn 0.39637 0.33299 0.29932 0.0
Zn435 Zn 0.36963 0.3451 0.33802 0.0
O436 O 0.40229 0.33216 0.35273 0.0
O437 O 0.42548 0.32591 0.32077 0.0
O438 O 0.34825 0.35485 0.36614 0.0
O439 O 0.39102 0.36546 0.28455 0.0
O440 O 0.36847 0.37518 0.31603 0.0
C441 C 0.42265 0.32542 0.34345 0.0
C442 C 0.35221 0.30397 0.30465 0.0
O443 O 0.34935 0.31774 0.323 0.0
O444 O 0.37114 0.30635 0.29152 0.0
C445 C 0.34225 0.33998 0.38252 0.0
O446 O 0.35183 0.31823 0.38226 0.0
C447 C 0.37713 0.38029 0.29532 0.0
C448 C 0.05677 0.03082 0.05864 0.0
C449 C 0.05155 0.0212 0.08133 0.0
C450 C 0.0558 0.01594 0.03808 0.0
C451 C 0.02388 0.95918 0.01913 0.0
H452 H 0.04498 0.98239 0.95668 0.0
C453 C 0.96848 0.9344 0.93495 0.0
C454 C 0.95661 0.95576 0.92796 0.0
C455 C 0.99007 0.93565 0.94896 0.0
C456 C 0.03942 0.97528 0.974 0.0
H457 H 0.04427 0.98838 0.10115 0.0
H458 H 0.04435 0.96189 0.06551 0.0
H459 H 0.06748 0.99556 0.99315 0.0
H460 H 0.95916 0.99502 0.92804 0.0
H461 H 0.99705 0.99717 0.95242 0.0
H462 H 0.99561 0.93929 -8e-05 0.0
C463 C 0.04765 0.9811 0.06315 0.0
C464 C 0.05202 0.98304 0.99494 0.0
C465 C 0.04768 0.99619 0.08361 0.0
C466 C 0.96777 0.97831 0.93347 0.0
C467 C 0.98962 0.97952 0.94709 0.0
C468 C 0.01184 0.9509 0.99819 0.0
C469 C 0.05033 0.99096 0.03993 0.0
C470 C 0.04317 0.97656 0.0179 0.0
C471 C 0.00035 0.95824 0.95571 0.0
C472 C 0.01848 0.96015 0.97568 0.0
H473 H 0.05999 0.05012 0.0566 0.0
H474 H 0.05768 0.02453 0.02072 0.0
H475 H 0.01623 0.95365 0.03622 0.0
H476 H 0.96034 0.91674 0.93082 0.0
H477 H 0.99798 0.91906 0.95563 0.0
C478 C 0.33708 0.66087 0.24968 0.0
C479 C 0.34632 0.67257 0.22919 0.0
C480 C 0.32188 0.67309 0.26575 0.0
C481 C 0.29872 0.7332 0.28375 0.0
H482 H 0.2394 0.69645 0.29972 0.0
C483 C 0.19442 0.75446 0.31755 0.0
C484 C 0.20036 0.77219 0.33516 0.0
C485 C 0.21311 0.74035 0.30751 0.0
C486 C 0.25584 0.70692 0.29537 0.0
H487 H 0.34842 0.70665 0.21026 0.0
H488 H 0.32141 0.7281 0.23829 0.0
H489 H 0.27206 0.67704 0.27674 0.0
H490 H 0.22983 0.7877 0.3577 0.0
H491 H 0.26216 0.76276 0.34066 0.0
H492 H 0.28209 0.76334 0.30154 0.0
C493 C 0.32609 0.70948 0.24199 0.0
C494 C 0.27467 0.69577 0.28247 0.0
C495 C 0.34153 0.69724 0.22594 0.0
C496 C 0.22483 0.77442 0.3438 0.0
C497 C 0.24337 0.76025 0.33398 0.0
C498 C 0.27989 0.74435 0.29663 0.0
C499 C 0.31545 0.69723 0.26156 0.0
C500 C 0.29624 0.70884 0.27642 0.0
C501 C 0.23788 0.7437 0.31515 0.0
C502 C 0.2582 0.73136 0.30245 0.0
H503 H 0.34083 0.64192 0.25282 0.0
H504 H 0.31447 0.6634 0.28103 0.0
H505 H 0.31517 0.74366 0.27943 0.0
H506 H 0.17568 0.75244 0.3106 0.0
H507 H 0.20836 0.72773 0.29296 0.0
C508 C 0.41976 0.94463 0.50671 0.0
C509 C 0.42129 0.95819 0.52835 0.0
C510 C 0.42835 0.95463 0.48522 0.0
C511 C 0.47504 0.97259 0.4601 0.0
H512 H 0.47149 0.03906 0.43871 0.0
C513 C 0.56001 0.01796 0.41876 0.0
C514 C 0.56486 0.0418 0.42681 0.0
C515 C 0.5368 0.00724 0.42223 0.0
C516 C 0.47279 0.02045 0.4445 0.0
H517 H 0.4299 0.99343 0.54429 0.0
H518 H 0.44433 0.01106 0.50677 0.0
H519 H 0.43691 0.02124 0.46072 0.0
H520 H 0.54937 0.07339 0.4443 0.0
H521 H 0.5095 0.05424 0.45208 0.0
H522 H 0.51172 0.97228 0.44664 0.0
C523 C 0.43679 0.99275 0.50629 0.0
C524 C 0.45281 0.01019 0.45674 0.0
C525 C 0.4288 0.9826 0.5278 0.0
C526 C 0.54607 0.05491 0.43806 0.0
C527 C 0.52306 0.04399 0.44213 0.0
C528 C 0.49517 0.98296 0.44837 0.0
C529 C 0.43794 0.97844 0.48515 0.0
C530 C 0.45431 0.98656 0.46562 0.0
C531 C 0.51816 0.01992 0.43445 0.0
C532 C 0.4948 0.00742 0.44151 0.0
H533 H 0.41399 0.92574 0.50678 0.0
H534 H 0.42917 0.94327 0.46912 0.0
H535 H 0.47678 0.95441 0.46703 0.0
H536 H 0.57407 0.00768 0.40948 0.0
H537 H 0.53361 0.98891 0.41556 0.0
C538 C 0.22485 0.16996 0.81296 0.0
C539 C 0.24547 0.17061 0.82864 0.0
C540 C 0.21983 0.1896 0.79821 0.0
C541 C 0.22928 0.25427 0.78992 0.0
H542 H 0.21837 0.23801 0.72211 0.0
C543 C 0.20611 0.3025 0.69247 0.0
C544 C 0.18475 0.31501 0.6992 0.0
C545 C 0.21796 0.28749 0.709 0.0
C546 C 0.22177 0.24289 0.7409 0.0
H547 H 0.27611 0.19296 0.84225 0.0
H548 H 0.26689 0.22758 0.81667 0.0
H549 H 0.22909 0.20621 0.75042 0.0
H550 H 0.15997 0.32295 0.72883 0.0
H551 H 0.18071 0.29698 0.75758 0.0
H552 H 0.2211 0.29088 0.78046 0.0
C553 C 0.25489 0.21168 0.81569 0.0
C554 C 0.2276 0.22468 0.75712 0.0
C555 C 0.26012 0.19188 0.83028 0.0
C556 C 0.17626 0.31332 0.72305 0.0
C557 C 0.18827 0.29865 0.73961 0.0
C558 C 0.22313 0.27249 0.77371 0.0
C559 C 0.23514 0.21038 0.79905 0.0
C560 C 0.2309 0.23013 0.78182 0.0
C561 C 0.20885 0.28514 0.73258 0.0
C562 C 0.2189 0.26685 0.74914 0.0
H563 H 0.21317 0.15389 0.81127 0.0
H564 H 0.20422 0.18838 0.78578 0.0
H565 H 0.23181 0.25888 0.8089 0.0
H566 H 0.21308 0.30354 0.67421 0.0
H567 H 0.23387 0.27729 0.70321 0.0
C568 C 0.06135 0.96147 0.42558 0.0
C569 C 0.05318 0.94506 0.40751 0.0
C570 C 0.04704 0.98137 0.43176 0.0
C571 C 0.98474 -0.00059 0.43784 0.0
H572 H 0.01432 0.06325 0.44822 0.0
C573 C 0.94063 0.0674 0.5028 0.0
C574 C 0.95782 0.07567 0.52041 0.0
C575 C 0.9488 0.05686 0.48123 0.0
C576 C 0.00568 0.04561 0.44522 0.0
H577 H 0.02375 0.9365 0.38166 0.0
H578 H 0.99815 0.97103 0.39331 0.0
H579 H 0.03623 0.03288 0.42446 0.0
H580 H 0.99691 0.08099 0.52855 0.0
H581 H 0.01106 0.06234 0.49149 0.0
H582 H 0.95529 0.01121 0.46039 0.0
C583 C 0.01587 0.96861 0.40223 0.0
C584 C 0.01817 0.02832 0.43159 0.0
C585 C 0.03045 0.94891 0.39568 0.0
C586 C 0.98319 0.07458 0.51546 0.0
C587 C 0.99131 0.06415 0.49399 0.0
C588 C 0.97237 0.0166 0.45176 0.0
C589 C 0.02414 0.985 0.42026 0.0
C590 C 0.00833 0.00478 0.42882 0.0
C591 C 0.97426 0.05457 0.47691 0.0
C592 C 0.98339 0.03942 0.45666 0.0
H593 H 0.07887 0.95903 0.43486 0.0
H594 H 0.05357 0.99359 0.44603 0.0
H595 H 0.97686 0.9813 0.43594 0.0
H596 H 0.92092 0.06822 0.50606 0.0
H597 H 0.93524 0.04979 0.46831 0.0
C598 C 0.34887 0.81051 0.74463 0.0
C599 C 0.34211 0.82134 0.72272 0.0
C600 C 0.33306 0.79369 0.75539 0.0
C601 C 0.28001 0.75286 0.74206 0.0
H602 H 0.26365 0.763 0.80953 0.0
C603 C 0.18778 0.72321 0.78172 0.0
C604 C 0.18737 0.71339 0.80498 0.0
C605 C 0.20976 0.73232 0.77233 0.0
C606 C 0.2684 0.75961 0.79082 0.0
H607 H 0.31361 0.82296 0.69485 0.0
H608 H 0.28602 0.79388 0.71375 0.0
H609 H 0.29712 0.78672 0.79174 0.0
H610 H 0.20971 0.70507 0.83658 0.0
H611 H 0.24823 0.72129 0.82009 0.0
H612 H 0.25068 0.72642 0.74089 0.0
C613 C 0.30366 0.79812 0.72242 0.0
C614 C 0.28753 0.77317 0.78065 0.0
C615 C 0.31936 0.81495 0.71173 0.0
C616 C 0.20945 0.71261 0.8186 0.0
C617 C 0.23146 0.72188 0.80922 0.0
C618 C 0.26091 0.73933 0.75221 0.0
C619 C 0.31034 0.78735 0.74434 0.0
C620 C 0.29293 0.77044 0.756 0.0
C621 C 0.23175 0.73187 0.78603 0.0
C622 C 0.25444 0.74316 0.77646 0.0
H623 H 0.36633 0.81503 0.75349 0.0
H624 H 0.33863 0.78557 0.77228 0.0
H625 H 0.28418 0.7501 0.72311 0.0
H626 H 0.17109 0.72402 0.77076 0.0
H627 H 0.20939 0.74031 0.75454 0.0
C628 C 0.41271 0.06119 0.99474 0.0
C629 C 0.41708 0.07714 0.97565 0.0
C630 C 0.43234 0.04913 0.00561 0.0
C631 C 0.50105 0.04952 0.0102 0.0
H632 H 0.49087 0.98234 0.02779 0.0
C633 C 0.57912 0.99552 0.05335 0.0
C634 C 0.58129 0.97104 0.0466 0.0
C635 C 0.55828 0.00845 0.04669 0.0
C636 C 0.49409 0.00101 0.02273 0.0
H637 H 0.44533 0.09313 0.95299 0.0
H638 H 0.47932 0.07152 0.9712 0.0
H639 H 0.45627 0.00536 0.0123 0.0
H640 H 0.56348 0.94074 0.02773 0.0
H641 H 0.52748 0.96369 0.01491 0.0
H642 H 0.5391 0.04484 0.01908 0.0
C643 C 0.46095 0.06878 0.9784 0.0
C644 C 0.47414 0.01435 0.01425 0.0
C645 C 0.44141 0.0811 0.96783 0.0
C646 C 0.5622 0.95963 0.03314 0.0
C647 C 0.54151 0.97274 0.02601 0.0
C648 C 0.52104 0.03609 0.01826 0.0
C649 C 0.45665 0.05255 0.99732 0.0
C650 C 0.47744 0.03872 0.00772 0.0
C651 C 0.53936 0.99735 0.03266 0.0
C652 C 0.51785 0.01164 0.02455 0.0
H653 H 0.39412 0.05794 0.00122 0.0
H654 H 0.42844 0.03709 0.02043 0.0
H655 H 0.5042 0.06835 0.00574 0.0
H656 H 0.59338 0.00464 0.06414 0.0
H657 H 0.55699 0.02716 0.0527 0.0
C658 C 0.31131 0.28413 0.31216 0.0
C659 C 0.33225 0.28678 0.29752 0.0
C660 C 0.2909 0.27053 0.30401 0.0
C661 C 0.26969 0.22525 0.25854 0.0
H662 H 0.2065 0.25686 0.26623 0.0
C663 C 0.18201 0.19143 0.2086 0.0
C664 C 0.1605 0.18944 0.22256 0.0
C665 C 0.20289 0.20364 0.21777 0.0
C666 C 0.22397 0.24772 0.26416 0.0
H667 H 0.34879 0.27616 0.26344 0.0
H668 H 0.31299 0.25253 0.24913 0.0
H669 H 0.24386 0.27578 0.28339 0.0
H670 H 0.14368 0.19944 0.25668 0.0
H671 H 0.18025 0.22071 0.27271 0.0
H672 H 0.24977 0.19724 0.23919 0.0
C673 C 0.31244 0.26089 0.26695 0.0
C674 C 0.24533 0.25848 0.27403 0.0
C675 C 0.3329 0.27448 0.27512 0.0
C676 C 0.15997 0.20067 0.24549 0.0
C677 C 0.18088 0.2129 0.25465 0.0
C678 C 0.24832 0.21448 0.24866 0.0
C679 C 0.29103 0.25933 0.28107 0.0
C680 C 0.26838 0.24735 0.2713 0.0
C681 C 0.20265 0.21412 0.24103 0.0
C682 C 0.22528 0.22565 0.25134 0.0
H683 H 0.31034 0.29317 0.32963 0.0
H684 H 0.27479 0.2692 0.31545 0.0
H685 H 0.2872 0.21619 0.25637 0.0
H686 H 0.18296 0.18309 0.19079 0.0
H687 H 0.2193 0.2047 0.20673 0.0
C688 C 0.45231 0.51859 0.05756 0.0
C689 C 0.43185 0.53387 0.05576 0.0
C690 C 0.45671 0.50133 0.03956 0.0
C691 C 0.44471 0.48807 0.97575 0.0
H692 H 0.46832 0.42435 0.99265 0.0
C693 C 0.47401 0.41837 0.90361 0.0
C694 C 0.49753 0.4087 0.90792 0.0
C695 C 0.46191 0.43106 0.92187 0.0
C696 C 0.46169 0.44207 0.98771 0.0
H697 H 0.39991 0.54308 0.03374 0.0
H698 H 0.40766 0.51282 0.00231 0.0
H699 H 0.45469 0.45206 0.02447 0.0
H700 H 0.52648 0.40399 0.93489 0.0
H701 H 0.50547 0.4263 0.96661 0.0
H702 H 0.45238 0.47835 0.93907 0.0
C703 C 0.42032 0.51433 0.01759 0.0
C704 C 0.45397 0.4579 0.00586 0.0
C705 C 0.4159 0.53161 0.03559 0.0
C706 C 0.50842 0.41134 0.93098 0.0
C707 C 0.49629 0.42391 0.94922 0.0
C708 C 0.45241 0.47222 0.95759 0.0
C709 C 0.44074 0.49902 0.01945 0.0
C710 C 0.44604 0.48126 9e-05 0.0
C711 C 0.47308 0.43412 0.94475 0.0
C712 C 0.46157 0.44934 0.9635 0.0
H713 H 0.46493 0.51991 0.07287 0.0
H714 H 0.47285 0.49003 0.04122 0.0
H715 H 0.43887 0.50605 0.97083 0.0
H716 H 0.46511 0.41651 0.88603 0.0
H717 H 0.44394 0.43867 0.91806 0.0
C718 C 0.78546 0.29337 0.16232 0.0
C719 C 0.81056 0.29685 0.16839 0.0
C720 C 0.76996 0.2803 0.17744 0.0
C721 C 0.76928 0.2357 0.22589 0.0
H722 H 0.70435 0.26218 0.2379 0.0
C723 C 0.69906 0.19531 0.29359 0.0
C724 C 0.6747 0.1929 0.28463 0.0
C725 C 0.71692 0.20783 0.28041 0.0
C726 C 0.72239 0.25454 0.23459 0.0
H727 H 0.83927 0.28893 0.19476 0.0
H728 H 0.81196 0.2662 0.22133 0.0
H729 H 0.73339 0.28432 0.21274 0.0
H730 H 0.65005 0.20126 0.25471 0.0
H731 H 0.68119 0.22297 0.23184 0.0
H732 H 0.75806 0.20582 0.24777 0.0
C733 C 0.80442 0.27347 0.20478 0.0
C734 C 0.73895 0.26715 0.22018 0.0
C735 C 0.81998 0.28655 0.18962 0.0
C736 C 0.66862 0.2029 0.26217 0.0
C737 C 0.68639 0.21545 0.24912 0.0
C738 C 0.75267 0.22308 0.24041 0.0
C739 C 0.77922 0.27051 0.19894 0.0
C740 C 0.76237 0.25765 0.21536 0.0
C741 C 0.7106 0.21822 0.25822 0.0
C742 C 0.72896 0.23223 0.2445 0.0
H743 H 0.77769 0.30093 0.14599 0.0
H744 H 0.75067 0.27787 0.1723 0.0
H745 H 0.78721 0.22796 0.22234 0.0
H746 H 0.70428 0.18775 0.31084 0.0
H747 H 0.7355 0.20984 0.28779 0.0
C748 C 0.06832 0.45772 0.52282 0.0
C749 C 0.08925 0.47304 0.52502 0.0
C750 C 0.05027 0.46198 0.50529 0.0
C751 C 0.02365 0.51067 0.47062 0.0
H752 H 0.99158 0.45801 0.43449 0.0
C753 C 0.93946 0.52821 0.41026 0.0
C754 C 0.91933 0.51224 0.41368 0.0
C755 C 0.96294 0.52251 0.41894 0.0
C756 C 0.00035 0.47288 0.44448 0.0
H757 H 0.10779 0.50471 0.51039 0.0
H758 H 0.07599 0.51224 0.47985 0.0
H759 H 0.02796 0.4499 0.4595 0.0
H760 H 0.90823 0.47726 0.42777 0.0
H761 H 0.94907 0.46758 0.44344 0.0
H762 H 0.99557 0.53349 0.45656 0.0
C763 C 0.07366 0.49696 0.49175 0.0
C764 C 0.02114 0.46825 0.45874 0.0
C765 C 0.09183 0.49263 0.50921 0.0
C766 C 0.92337 0.48995 0.4249 0.0
C767 C 0.94683 0.48433 0.43373 0.0
C768 C 0.00281 0.51528 0.45648 0.0
C769 C 0.0527 0.4817 0.48969 0.0
C770 C 0.03263 0.48701 0.47234 0.0
C771 C 0.96672 0.50081 0.43134 0.0
C772 C 0.99062 0.49634 0.44367 0.0
H773 H 0.06574 0.44249 0.5347 0.0
H774 H 0.03408 0.45016 0.50436 0.0
H775 H 0.03199 0.52541 0.48115 0.0
H776 H 0.93699 0.54539 0.40137 0.0
H777 H 0.97801 0.53536 0.41644 0.0
C778 C 0.80528 0.73249 0.33271 0.0
C779 C 0.78729 0.71395 0.33508 0.0
C780 C 0.80161 0.75121 0.31625 0.0
C781 C 0.77282 0.76064 0.25888 0.0
H782 H 0.7558 0.82647 0.27664 0.0
C783 C 0.69482 0.82739 0.22946 0.0
C784 C 0.69589 0.82576 0.20413 0.0
C785 C 0.71476 0.8203 0.24364 0.0
C786 C 0.761 0.80829 0.2713 0.0
H787 H 0.75074 0.70145 0.32331 0.0
H788 H 0.74463 0.73381 0.29469 0.0
H789 H 0.77456 0.80013 0.30685 0.0
H790 H 0.71929 0.81687 0.17373 0.0
H791 H 0.75422 0.80393 0.19873 0.0
H792 H 0.7574 0.76775 0.22412 0.0
C793 C 0.76159 0.73368 0.30531 0.0
C794 C 0.77184 0.79336 0.28852 0.0
C795 C 0.76508 0.71526 0.32179 0.0
C796 C 0.71785 0.81804 0.19323 0.0
C797 C 0.73784 0.81075 0.2075 0.0
C798 C 0.76209 0.77551 0.24169 0.0
C799 C 0.78007 0.75134 0.30193 0.0
C800 C 0.77648 0.76908 0.2827 0.0
C801 C 0.73625 0.81131 0.23287 0.0
C802 C 0.7547 0.799 0.24817 0.0
H803 H 0.82257 0.73198 0.34275 0.0
H804 H 0.81593 0.76491 0.31396 0.0
H805 H 0.77636 0.74189 0.25413 0.0
H806 H 0.6783 0.83358 0.23844 0.0
H807 H 0.71271 0.82056 0.26311 0.0
C808 C 0.81804 0.17586 0.71808 0.0
C809 C 0.83736 0.18594 0.70446 0.0
C810 C 0.80636 0.18969 0.73578 0.0
C811 C 0.81406 0.24395 0.77456 0.0
H812 H 0.74228 0.2438 0.77423 0.0
C813 C 0.75773 0.31799 0.82164 0.0
C814 C 0.73524 0.31148 0.83251 0.0
C815 C 0.77108 0.30089 0.8086 0.0
C816 C 0.76231 0.24372 0.77489 0.0
H817 H 0.85985 0.21829 0.69901 0.0
H818 H 0.83932 0.24246 0.72992 0.0
H819 H 0.76405 0.21725 0.74636 0.0
H820 H 0.70959 0.2817 0.839 0.0
H821 H 0.73315 0.2517 0.81644 0.0
H822 H 0.81234 0.2706 0.80293 0.0
C823 C 0.83337 0.2238 0.72696 0.0
C824 C 0.77477 0.22856 0.75888 0.0
C825 C 0.84499 0.21002 0.70916 0.0
C826 C 0.72676 0.28732 0.83068 0.0
C827 C 0.74019 0.27017 0.81768 0.0
C828 C 0.8016 0.25904 0.79066 0.0
C829 C 0.81383 0.21381 0.74031 0.0
C830 C 0.80075 0.22878 0.75834 0.0
C831 C 0.76232 0.27687 0.80623 0.0
C832 C 0.77559 0.25934 0.79074 0.0
H833 H 0.81177 0.15733 0.71496 0.0
H834 H 0.79149 0.18148 0.74598 0.0
H835 H 0.83411 0.24419 0.77475 0.0
H836 H 0.76479 0.33646 0.82268 0.0
H837 H 0.78787 0.30673 0.79972 0.0
C838 C 0.80388 0.80383 0.79261 0.0
C839 C 0.82424 0.803 0.77698 0.0
C840 C 0.78063 0.79535 0.7848 0.0
C841 C 0.74475 0.78156 0.7292 0.0
H842 H 0.7085 0.73576 0.76853 0.0
C843 C 0.67938 0.70976 0.68906 0.0
C844 C 0.65654 0.70544 0.70019 0.0
C845 C 0.69677 0.72545 0.69977 0.0
C846 C 0.71817 0.7489 0.75757 0.0
H847 H 0.83622 0.79248 0.74103 0.0
H848 H 0.79587 0.77751 0.72759 0.0
H849 H 0.7452 0.75658 0.7853 0.0
H850 H 0.63394 0.71413 0.73127 0.0
H851 H 0.6648 0.74143 0.75028 0.0
H852 H 0.71841 0.77309 0.70113 0.0
C853 C 0.79775 0.78508 0.74571 0.0
C854 C 0.73913 0.76079 0.76714 0.0
C855 C 0.82093 0.79344 0.7535 0.0
C856 C 0.65141 0.71716 0.72228 0.0
C857 C 0.669 0.7327 0.73317 0.0
C858 C 0.72391 0.76964 0.71964 0.0
C859 C 0.77736 0.78606 0.76121 0.0
C860 C 0.75306 0.77657 0.75271 0.0
C861 C 0.69177 0.737 0.72192 0.0
C862 C 0.71096 0.75262 0.73347 0.0
H863 H 0.80587 0.81113 0.81083 0.0
H864 H 0.76517 0.79631 0.79708 0.0
H865 H 0.75487 0.79407 0.71789 0.0
H866 H 0.68386 0.70106 0.67201 0.0
H867 H 0.71438 0.72819 0.69094 0.0
C868 C 0.47673 0.47663 0.40355 0.0
C869 C 0.45197 0.48368 0.4059 0.0
C870 C 0.49592 0.4916 0.41232 0.0
C871 C 0.50839 0.55215 0.44219 0.0
H872 H 0.54961 0.51382 0.48428 0.0
C873 C 0.51756 0.56393 0.5421 0.0
C874 C 0.54065 0.56309 0.55376 0.0
C875 C 0.51588 0.56118 0.51711 0.0
C876 C 0.53894 0.52493 0.47212 0.0
H877 H 0.42788 0.51235 0.41802 0.0
H878 H 0.46099 0.53779 0.43454 0.0
H879 H 0.52872 0.49443 0.45009 0.0
H880 H 0.5802 0.55947 0.5487 0.0
H881 H 0.57694 0.55304 0.5047 0.0
H882 H 0.51625 0.5819 0.46651 0.0
C883 C 0.4659 0.52117 0.42525 0.0
C884 C 0.52689 0.51384 0.45243 0.0
C885 C 0.44679 0.50639 0.41613 0.0
C886 C 0.56216 0.56006 0.54 0.0
C887 C 0.56039 0.55662 0.51497 0.0
C888 C 0.52006 0.56311 0.4622 0.0
C889 C 0.49068 0.5137 0.42401 0.0
C890 C 0.51 0.52695 0.43838 0.0
C891 C 0.53719 0.55703 0.50344 0.0
C892 C 0.534 0.54911 0.47815 0.0
H893 H 0.48128 0.4594 0.3952 0.0
H894 H 0.51478 0.48547 0.41071 0.0
H895 H 0.49622 0.56294 0.43115 0.0
H896 H 0.50078 0.56655 0.55232 0.0
H897 H 0.49773 0.56105 0.50858 0.0
C898 C 0.06848 0.53704 0.93912 0.0
C899 C 0.08761 0.52623 0.92603 0.0
C900 C 0.0505 0.52268 0.95011 0.0
C901 C 0.04603 0.4623 0.97577 0.0
H902 H 0.98127 0.48498 0.99431 0.0
C903 C 0.96469 0.44196 0.05041 0.0
C904 C 0.98028 0.44042 0.07084 0.0
C905 C 0.9745 0.44757 0.02786 0.0
C906 C 0.99907 0.47805 0.98896 0.0
H907 H 0.10156 0.49219 0.91204 0.0
H908 H 0.06978 0.46713 0.93075 0.0
H909 H 0.00267 0.50398 0.96076 0.0
H910 H 0.01837 0.44299 0.08354 0.0
H911 H 0.03534 0.45312 0.04447 0.0
H912 H 0.04266 0.43669 0.00421 0.0
C913 C 0.06911 0.48663 0.93319 0.0
C914 C 0.01145 0.48911 0.96991 0.0
C915 C 0.08729 0.50097 0.92246 0.0
C916 C 0.00585 0.44406 0.06819 0.0
C917 C 0.01562 0.44962 0.04571 0.0
C918 C 0.03361 0.45116 0.99465 0.0
C919 C 0.05113 0.49725 0.94797 0.0
C920 C 0.03554 0.48208 0.96386 0.0
C921 C 1.00005 0.45162 0.02535 0.0
C922 C 0.01055 0.45969 0.00217 0.0
H923 H 0.06819 0.5565 0.94206 0.0
H924 H 0.03711 0.53151 0.96156 0.0
H925 H 0.0646 0.45644 0.97175 0.0
H926 H 0.94489 0.4391 0.05185 0.0
H927 H 0.9621 0.44888 0.01244 0.0
C928 C 0.05225 0.02715 0.21776 0.0
C929 C 0.06866 0.0344 0.19953 0.0
C930 C 0.05682 0.00648 0.23137 0.0
C931 C 0.0912 0.94903 0.22596 0.0
H932 H 0.0732 0.94072 0.29301 0.0
C933 C 0.12813 0.87103 0.28208 0.0
C934 C 0.11484 0.86221 0.3019 0.0
C935 C 0.1192 0.89013 0.2685 0.0
C936 C 0.07781 0.94248 0.27411 0.0
H937 H 0.10379 0.02672 0.18277 0.0
H938 H 0.11232 0.99127 0.20717 0.0
H939 H 0.0656 0.9792 0.27348 0.0
H940 H 0.08056 0.86499 0.32159 0.0
H941 H 0.06437 0.89819 0.29724 0.0
H942 H 0.10291 0.91224 0.22635 0.0
C943 C 0.09539 0.00104 0.21034 0.0
C944 C 0.07364 0.96471 0.26292 0.0
C945 C 0.09078 0.02169 0.19666 0.0
C946 C 0.09124 0.87146 0.30646 0.0
C947 C 0.08218 0.89072 0.29273 0.0
C948 C 0.09496 0.92674 0.23698 0.0
C949 C 0.07794 0.99254 0.22711 0.0
C950 C 0.08105 0.96855 0.23891 0.0
C951 C 0.09646 0.90079 0.27405 0.0
C952 C 0.08898 0.92333 0.26141 0.0
H953 H 0.03501 0.03656 0.22043 0.0
H954 H 0.04296 0.00064 0.24412 0.0
H955 H 0.0962 0.95089 0.20716 0.0
H956 H 0.14633 0.86418 0.27797 0.0
H957 H 0.13096 0.89742 0.25455 0.0
C958 C 0.31911 0.84457 0.55486 0.0
C959 C 0.32985 0.86797 0.55579 0.0
C960 C 0.29855 0.83954 0.5398 0.0
C961 C 0.26771 0.86315 0.48505 0.0
H962 H 0.21118 0.82423 0.5044 0.0
C963 C 0.18022 0.86381 0.42788 0.0
C964 C 0.16836 0.84154 0.42237 0.0
C965 C 0.19797 0.86564 0.44627 0.0
C966 C 0.22688 0.83506 0.49871 0.0
H967 H 0.32707 0.90446 0.54186 0.0
H968 H 0.29207 0.8956 0.51552 0.0
H969 H 0.24653 0.82982 0.53215 0.0
H970 H 0.16464 0.80406 0.43324 0.0
H971 H 0.19584 0.80729 0.46563 0.0
H972 H 0.24834 0.86874 0.45192 0.0
C973 C 0.29935 0.88106 0.52632 0.0
C974 C 0.2472 0.83813 0.51454 0.0
C975 C 0.31944 0.88619 0.54158 0.0
C976 C 0.17329 0.82154 0.4371 0.0
C977 C 0.1913 0.82336 0.45558 0.0
C978 C 0.24747 0.86028 0.46945 0.0
C979 C 0.28866 0.8577 0.52509 0.0
C980 C 0.26766 0.85262 0.50802 0.0
C981 C 0.20461 0.84521 0.45962 0.0
C982 C 0.2265 0.84671 0.47623 0.0
H983 H 0.32666 0.83015 0.56563 0.0
H984 H 0.29084 0.82131 0.5392 0.0
H985 H 0.28346 0.87376 0.47906 0.0
H986 H 0.17673 0.8797 0.41714 0.0
H987 H 0.2071 0.88301 0.4495 0.0
C988 C 0.29158 0.04556 0.79372 0.0
C989 C 0.30149 0.06752 0.80284 0.0
C990 C 0.29991 0.03573 0.77191 0.0
C991 C 0.35207 0.04109 0.72783 0.0
H992 H 0.31114 0.99389 0.69297 0.0
C993 C 0.39569 0.97086 0.66534 0.0
C994 C 0.38213 0.95969 0.64638 0.0
C995 C 0.38469 0.98766 0.68073 0.0
C996 C 0.32279 0.0074 0.70199 0.0
H997 H 0.32745 0.09682 0.79591 0.0
H998 H 0.34149 0.0803 0.75762 0.0
H999 H 0.29361 0.01712 0.72572 0.0
H1000 H 0.34643 0.95815 0.62821 0.0
H1001 H 0.32695 0.98727 0.65531 0.0
H1002 H 0.38088 0.03227 0.70336 0.0
C1003 C 0.32789 0.06998 0.76752 0.0
C1004 C 0.31283 0.02043 0.72138 0.0
C1005 C 0.31985 0.07956 0.78961 0.0
C1006 C 0.3572 0.96588 0.6431 0.0
C1007 C 0.34608 0.98274 0.65862 0.0
C1008 C 0.36186 0.02848 0.70815 0.0
C1009 C 0.31813 0.04782 0.7583 0.0
C1010 C 0.32762 0.03669 0.73535 0.0
C1011 C 0.35967 0.99385 0.67778 0.0
C1012 C 0.34776 0.01058 0.69562 0.0
H1013 H 0.27737 0.03587 0.80352 0.0
H1014 H 0.29238 0.01829 0.76618 0.0
H1015 H 0.36431 0.05338 0.73779 0.0
H1016 H 0.41497 0.96661 0.6684 0.0
H1017 H 0.39582 0.99516 0.69545 0.0
C1018 C 0.26574 0.10765 0.94725 0.0
C1019 C 0.25594 0.0921 0.92916 0.0
C1020 C 0.25599 0.10752 0.97065 0.0
C1021 C 0.21481 0.07459 0.01267 0.0
H1022 H 0.19164 0.13854 0.03039 0.0
C1023 C 0.14948 0.09004 0.09393 0.0
C1024 C 0.12844 0.10362 0.08813 0.0
C1025 C 0.16976 0.08947 0.07828 0.0
C1026 C 0.19818 0.12059 0.0259 0.0
H1027 H 0.22943 0.0629 0.92193 0.0
H1028 H 0.2124 0.06282 0.96256 0.0
H1029 H 0.22017 0.13392 0.99682 0.0
H1030 H 0.11282 0.12821 0.06203 0.0
H1031 H 0.14797 0.12728 0.03499 0.0
H1032 H 0.1923 0.06121 0.0414 0.0
C1033 C 0.22767 0.07508 0.95876 0.0
C1034 C 0.21467 0.11796 0.00674 0.0
C1035 C 0.23736 0.07524 0.93541 0.0
C1036 C 0.12867 0.11751 0.06703 0.0
C1037 C 0.14892 0.11706 0.05153 0.0
C1038 C 0.1987 0.07729 0.03219 0.0
C1039 C 0.23624 0.09185 0.97638 0.0
C1040 C 0.22255 0.09485 0.99942 0.0
C1041 C 0.16949 0.10263 0.05665 0.0
C1042 C 0.18962 0.10025 0.03858 0.0
H1043 H 0.27984 0.12088 0.94289 0.0
H1044 H 0.26322 0.12022 0.98408 0.0
H1045 H 0.22064 0.05657 0.00747 0.0
H1046 H 0.14991 0.07914 0.11005 0.0
H1047 H 0.18548 0.07844 0.08289 0.0
C1048 C 0.13841 0.05992 0.21451 0.0
C1049 C 0.11835 0.07395 0.2222 0.0
C1050 C 0.14592 0.03976 0.22798 0.0
C1051 C 0.12375 -0.00032 0.27796 0.0
H1052 H 0.19302 0.98414 0.28621 0.0
C1053 C 0.15539 0.94417 0.35655 0.0
C1054 C 0.15255 0.92007 0.34832 0.0
C1055 C 0.1597 0.96276 0.34003 0.0
C1056 C 0.17364 0.98837 0.28392 0.0
H1057 H 0.09006 0.07723 0.2496 0.0
H1058 H 0.10349 0.04371 0.27311 0.0
H1059 H 0.18098 0.01627 0.25811 0.0
H1060 H 0.15615 0.89618 0.31732 0.0
H1061 H 0.16369 0.92855 0.28852 0.0
H1062 H 0.11645 0.9724 0.30415 0.0
C1063 C 0.11325 0.04732 0.25653 0.0
C1064 C 0.16666 0.00656 0.2677 0.0
C1065 C 0.1056 0.06694 0.24303 0.0
C1066 C 0.15804 0.91457 0.32407 0.0
C1067 C 0.16246 0.9331 0.30759 0.0
C1068 C 0.13067 0.98181 0.29408 0.0
C1069 C 0.13359 0.0334 0.24941 0.0
C1070 C 0.14154 0.01269 0.26477 0.0
C1071 C 0.16174 0.9574 0.31522 0.0
C1072 C 0.15561 0.97621 0.29746 0.0
H1073 H 0.14874 0.06492 0.19862 0.0
H1074 H 0.16143 0.0293 0.22166 0.0
H1075 H 0.10428 0.00345 0.27611 0.0
H1076 H 0.15097 0.94906 0.37503 0.0
H1077 H 0.15878 0.98144 0.34625 0.0
C1078 C 0.29968 0.86976 0.61146 0.0
C1079 C 0.3105 0.89215 0.6185 0.0
C1080 C 0.27946 0.86876 0.59531 0.0
C1081 C 0.2479 0.90372 0.54753 0.0
H1082 H 0.19281 0.86 0.55945 0.0
C1083 C 0.16277 0.9017 0.48316 0.0
C1084 C 0.14948 0.87981 0.47969 0.0
C1085 C 0.18111 0.90399 0.50119 0.0
C1086 C 0.20817 0.872 0.55538 0.0
H1087 H 0.30876 0.931 0.61363 0.0
H1088 H 0.27397 0.92922 0.5851 0.0
H1089 H 0.22759 0.86185 0.58761 0.0
H1090 H 0.14483 0.84328 0.49296 0.0
H1091 H 0.17689 0.84692 0.5238 0.0
H1092 H 0.22961 0.91287 0.51464 0.0
C1093 C 0.28097 0.91241 0.59217 0.0
C1094 C 0.22817 0.87313 0.57176 0.0
C1095 C 0.30089 0.91345 0.60862 0.0
C1096 C 0.15456 0.86048 0.49517 0.0
C1097 C 0.17307 0.86267 0.51305 0.0
C1098 C 0.22834 0.90203 0.53073 0.0
C1099 C 0.26982 0.89007 0.58542 0.0
C1100 C 0.24835 0.88899 0.56806 0.0
C1101 C 0.18703 0.88434 0.51617 0.0
C1102 C 0.20797 0.88624 0.53437 0.0
H1103 H 0.30658 0.85299 0.6187 0.0
H1104 H 0.27164 0.8512 0.59027 0.0
H1105 H 0.26311 0.91612 0.54401 0.0
H1106 H 0.15921 0.91706 0.47172 0.0
H1107 H 0.1906 0.9213 0.50327 0.0
C1108 C 0.3454 0.05399 0.86707 0.0
C1109 C 0.3566 0.07716 0.86828 0.0
C1110 C 0.34749 0.03928 0.84656 0.0
C1111 C 0.38405 0.03257 0.78954 0.0
H1112 H 0.33594 0.98075 0.77828 0.0
C1113 C 0.40338 0.95044 0.72708 0.0
C1114 C 0.38358 0.93848 0.71507 0.0
C1115 C 0.39919 0.96994 0.74281 0.0
C1116 C 0.34947 0.99526 0.78083 0.0
H1117 H 0.37787 0.10338 0.84806 0.0
H1118 H 0.37992 0.07845 0.81133 0.0
H1119 H 0.32928 0.00995 0.8102 0.0
H1120 H 0.34387 0.93798 0.70957 0.0
H1121 H 0.33639 0.97203 0.7371 0.0
H1122 H 0.40371 0.01807 0.75936 0.0
C1123 C 0.37049 0.07111 0.82682 0.0
C1124 C 0.34591 0.01193 0.79966 0.0
C1125 C 0.36896 0.0857 0.84779 0.0
C1126 C 0.35952 0.94705 0.71834 0.0
C1127 C 0.35526 0.96639 0.7344 0.0
C1128 C 0.38752 0.01594 0.77054 0.0
C1129 C 0.36021 0.0474 0.82606 0.0
C1130 C 0.36327 0.03072 0.80462 0.0
C1131 C 0.37501 0.97787 0.74716 0.0
C1132 C 0.37043 0.99683 0.76611 0.0
H1133 H 0.33582 0.04657 0.88246 0.0
H1134 H 0.33979 0.02111 0.84739 0.0
H1135 H 0.39814 0.04642 0.79271 0.0
H1136 H 0.42213 0.94405 0.72508 0.0
H1137 H 0.41488 0.97789 0.7525 0.0
C1138 C 0.32797 0.15678 0.998 0.0
C1139 C 0.31981 0.15681 0.97385 0.0
C1140 C 0.31122 0.16029 0.01678 0.0
C1141 C 0.24851 0.17713 0.03538 0.0
H1142 H 0.25144 0.11776 0.07197 0.0
C1143 C 0.17244 0.14937 0.10431 0.0
C1144 C 0.18016 0.13724 0.1252 0.0
C1145 C 0.18916 0.15421 0.08565 0.0
C1146 C 0.25056 0.13472 0.0624 0.0
H1147 H 0.28863 0.16361 0.95023 0.0
H1148 H 0.25941 0.17082 0.98317 0.0
H1149 H 0.2819 0.12559 0.04098 0.0
H1150 H 0.21163 0.12092 0.14292 0.0
H1151 H 0.24063 0.12951 0.11088 0.0
H1152 H 0.21725 0.18641 0.05707 0.0
C1153 C 0.27867 0.16773 0.98759 0.0
C1154 C 0.26804 0.13915 0.04452 0.0
C1155 C 0.2954 0.1637 0.96873 0.0
C1156 C 0.20494 0.1301 0.127 0.0
C1157 C 0.2216 0.13492 0.10845 0.0
C1158 C 0.23114 0.17288 0.05365 0.0
C1159 C 0.28607 0.16426 0.01173 0.0
C1160 C 0.2674 0.16048 0.03096 0.0
C1161 C 0.21401 0.14697 0.08742 0.0
C1162 C 0.23205 0.15165 0.06756 0.0
H1163 H 0.34658 0.15115 0.00244 0.0
H1164 H 0.3175 0.1579 0.03525 0.0
H1165 H 0.24744 0.1936 0.02501 0.0
H1166 H 0.15352 0.15532 0.10242 0.0
H1167 H 0.18246 0.16328 0.0697 0.0
C1168 C 0.88328 0.27414 0.08195 0.0
C1169 C 0.89447 0.29726 0.08166 0.0
C1170 C 0.89785 0.25338 0.08122 0.0
C1171 C 0.95908 0.22682 0.07191 0.0
H1172 H 0.9468 0.19638 0.13348 0.0
C1173 C 0.02259 0.15154 0.11101 0.0
C1174 C 0.0108 0.13291 0.12386 0.0
C1175 C 0.00927 0.17184 0.10346 0.0
C1176 C 0.95024 0.20419 0.11597 0.0
H1177 H 0.92904 0.3168 0.07691 0.0
H1178 H 0.95439 0.28042 0.07437 0.0
H1179 H 0.921 0.22951 0.12055 0.0
H1180 H 0.97571 0.12103 0.13869 0.0
H1181 H 0.95271 0.1557 0.12542 0.0
H1182 H 0.98816 0.20115 0.06715 0.0
C1183 C 0.93448 0.27834 0.07567 0.0
C1184 C 0.93543 0.22329 0.1086 0.0
C1185 C 0.91994 0.29916 0.0769 0.0
C1186 C 0.98551 0.13509 0.12901 0.0
C1187 C 0.97228 0.15519 0.1215 0.0
C1188 C 0.97372 0.20728 0.0791 0.0
C1189 C 0.92375 0.25541 0.07959 0.0
C1190 C 0.93947 0.23465 0.08641 0.0
C1191 C 0.9839 0.17397 0.1087 0.0
C1192 C 0.96932 0.19553 0.10116 0.0
H1193 H 0.86376 0.27213 0.08591 0.0
H1194 H 0.88909 0.23586 0.08396 0.0
H1195 H 0.96278 0.23551 0.05486 0.0
H1196 H 0.04201 0.15033 0.10657 0.0
H1197 H 0.01897 0.18601 0.09388 0.0
C1198 C 0.50593 0.2894 0.83662 0.0
C1199 C 0.51803 0.3015 0.85597 0.0
C1200 C 0.48931 0.27034 0.84077 0.0
C1201 C 0.44849 0.2475 0.88931 0.0
H1202 H 0.43243 0.19869 0.84043 0.0
C1203 C 0.35528 0.19471 0.89083 0.0
C1204 C 0.35349 0.17146 0.88022 0.0
C1205 C 0.37709 0.20859 0.88916 0.0
C1206 C 0.43668 0.21185 0.8546 0.0
H1207 H 0.52377 0.30178 0.89477 0.0
H1208 H 0.4952 0.26793 0.90211 0.0
H1209 H 0.46915 0.2237 0.8362 0.0
H1210 H 0.37346 0.14457 0.85962 0.0
H1211 H 0.41163 0.16798 0.85757 0.0
H1212 H 0.41682 0.23484 0.9084 0.0
C1213 C 0.49796 0.27368 0.88369 0.0
C1214 C 0.45772 0.22661 0.85191 0.0
C1215 C 0.51483 0.29271 0.87946 0.0
C1216 C 0.3742 0.1623 0.86819 0.0
C1217 C 0.39608 0.17606 0.86666 0.0
C1218 C 0.42768 0.23244 0.89224 0.0
C1219 C 0.48428 0.26281 0.86445 0.0
C1220 C 0.46364 0.24507 0.8689 0.0
C1221 C 0.39792 0.19953 0.87702 0.0
C1222 C 0.42109 0.21466 0.87468 0.0
H1223 H 0.50789 0.29591 0.81833 0.0
H1224 H 0.47915 0.26276 0.82543 0.0
H1225 H 0.45222 0.26151 0.9028 0.0
H1226 H 0.33963 0.20248 0.90007 0.0
H1227 H 0.37722 0.22671 0.89688 0.0
C1228 C 0.91752 0.63093 0.39535 0.0
C1229 C 0.91444 0.61686 0.37408 0.0
C1230 C 0.93623 0.64881 0.3971 0.0
C1231 C 0.97529 0.68948 0.36159 0.0
H1232 H 0.02378 0.68436 0.41322 0.0
C1233 C 0.06588 0.746 0.35949 0.0
C1234 C 0.07786 0.75284 0.38124 0.0
C1235 C 0.04542 0.73013 0.35943 0.0
C1236 C 0.01024 0.6866 0.39894 0.0
H1237 H 0.92808 0.61117 0.33775 0.0
H1238 H 0.95969 0.64325 0.34037 0.0
H1239 H 0.98795 0.65712 0.41202 0.0
H1240 H 0.0778 0.74804 0.42004 0.0
H1241 H 0.04207 0.72083 0.42012 0.0
H1242 H 0.99643 0.71965 0.34905 0.0
C1243 C 0.94795 0.64013 0.35582 0.0
C1244 C 0.98969 0.67077 0.39823 0.0
C1245 C 0.92983 0.62176 0.35433 0.0
C1246 C 0.0691 0.74308 0.40292 0.0
C1247 C 0.04851 0.72732 0.4029 0.0
C1248 C 0.99535 0.70583 0.3627 0.0
C1249 C 0.95167 0.65356 0.37735 0.0
C1250 C 0.97226 0.67174 0.3793 0.0
C1251 C 0.03605 0.72079 0.38117 0.0
C1252 C 0.01359 0.70432 0.38104 0.0
H1253 H 0.90611 0.62751 0.41095 0.0
H1254 H 0.93869 0.65892 0.4139 0.0
H1255 H 0.96194 0.69086 0.34695 0.0
H1256 H 0.07229 0.75294 0.3424 0.0
H1257 H 0.03719 0.72508 0.34215 0.0
C1258 C 0.94475 0.33777 0.13486 0.0
C1259 C 0.95281 0.35356 0.15352 0.0
C1260 C 0.95072 0.3132 0.13529 0.0
C1261 C 0.97511 0.26449 0.17386 0.0
H1262 H 0.00443 0.24074 0.11449 0.0
C1263 C 0.02278 0.17307 0.17256 0.0
C1264 C 0.047 0.17399 0.16358 0.0
C1265 C 0.00608 0.19137 0.16727 0.0
C1266 C 0.99618 0.24704 0.13115 0.0
H1267 H 0.97289 0.356 0.18757 0.0
H1268 H 0.98341 0.31309 0.18829 0.0
H1269 H 0.98414 0.28 0.11512 0.0
H1270 H 0.07213 0.19369 0.14048 0.0
H1271 H 0.04312 0.22593 0.1315 0.0
H1272 H 0.98793 0.23209 0.19018 0.0
C1273 C 0.97213 0.31957 0.1735 0.0
C1274 C 0.98436 0.26944 0.13148 0.0
C1275 C 0.96619 0.34415 0.17307 0.0
C1276 C 0.05352 0.19242 0.14748 0.0
C1277 C 0.03688 0.21095 0.14242 0.0
C1278 C 0.9867 0.24203 0.17347 0.0
C1279 C 0.96501 0.30394 0.15426 0.0
C1280 C 0.97432 0.27873 0.15305 0.0
C1281 C 0.01336 0.21119 0.15317 0.0
C1282 C 0.99793 0.23329 0.15228 0.0
H1283 H 0.93521 0.34474 0.11918 0.0
H1284 H 0.94486 0.30152 0.12045 0.0
H1285 H 0.96732 0.27102 0.19066 0.0
H1286 H 0.01723 0.15894 0.18488 0.0
H1287 H 0.98787 0.19066 0.17526 0.0
C1288 C 0.54605 0.68796 0.60438 0.0
C1289 C 0.57173 0.69046 0.60781 0.0
C1290 C 0.53241 0.70679 0.59443 0.0
C1291 C 0.53721 0.77218 0.59794 0.0
H1292 H 0.47535 0.77141 0.56192 0.0
C1293 C 0.48067 0.85884 0.59249 0.0
C1294 C 0.45471 0.85736 0.59109 0.0
C1295 C 0.49502 0.83822 0.58987 0.0
C1296 C 0.4924 0.77194 0.57234 0.0
H1297 H 0.60378 0.71316 0.60099 0.0
H1298 H 0.58009 0.7461 0.58338 0.0
H1299 H 0.50074 0.73512 0.56255 0.0
H1300 H 0.42351 0.83282 0.58521 0.0
H1301 H 0.44851 0.79639 0.58191 0.0
H1302 H 0.52849 0.80789 0.60945 0.0
C1303 C 0.57036 0.72972 0.58863 0.0
C1304 C 0.5071 0.75116 0.57244 0.0
C1305 C 0.58399 0.71074 0.59838 0.0
C1306 C 0.44346 0.83458 0.58666 0.0
C1307 C 0.45791 0.81369 0.58448 0.0
C1308 C 0.5224 0.79266 0.59826 0.0
C1309 C 0.54429 0.72858 0.58806 0.0
C1310 C 0.52969 0.75107 0.58527 0.0
C1311 C 0.48396 0.81516 0.58638 0.0
C1312 C 0.49972 0.793 0.58548 0.0
H1313 H 0.53631 0.67233 0.61133 0.0
H1314 H 0.5124 0.7052 0.59411 0.0
H1315 H 0.55404 0.77253 0.60875 0.0
H1316 H 0.49014 0.87611 0.59529 0.0
H1317 H 0.51493 0.84059 0.59041 0.0
C1318 C 0.90645 0.70185 0.43256 0.0
C1319 C 0.89498 0.69507 0.41048 0.0
C1320 C 0.92802 0.7164 0.43295 0.0
C1321 C 0.96177 0.75988 0.39391 0.0
H1322 H 0.01574 0.75306 0.43989 0.0
C1323 C 0.05257 0.80996 0.37875 0.0
C1324 C 0.06397 0.82246 0.39831 0.0
C1325 C 0.03348 0.79324 0.38245 0.0
C1326 C 0.00073 0.75527 0.42704 0.0
H1327 H 0.89794 0.6975 0.37147 0.0
H1328 H 0.93504 0.72254 0.37215 0.0
H1329 H 0.97966 0.72566 0.44162 0.0
H1330 H 0.06527 0.82569 0.43739 0.0
H1331 H 0.03189 0.79576 0.44396 0.0
H1332 H 0.98273 0.78898 0.37898 0.0
C1333 C 0.92734 0.7171 0.38926 0.0
C1334 C 0.98 0.73962 0.42806 0.0
C1335 C 0.90597 0.70259 0.38886 0.0
C1336 C 0.057 0.8163 0.42193 0.0
C1337 C 0.03777 0.79927 0.42567 0.0
C1338 C 0.98248 0.77516 0.39269 0.0
C1339 C 0.93852 0.72456 0.41126 0.0
C1340 C 0.96038 0.74152 0.41123 0.0
C1341 C 0.02515 0.78829 0.40585 0.0
C1342 C 0.00251 0.77279 0.40886 0.0
H1343 H 0.89853 0.69631 0.44956 0.0
H1344 H 0.93598 0.72186 0.45025 0.0
H1345 H 0.94674 0.76259 0.38118 0.0
H1346 H 0.05765 0.81387 0.3603 0.0
H1347 H 0.02486 0.78452 0.36678 0.0
C1348 C 0.45126 0.18371 0.92059 0.0
C1349 C 0.44756 0.16396 0.90459 0.0
C1350 C 0.47233 0.19867 0.91887 0.0
C1351 C 0.52538 0.21797 0.92049 0.0
H1352 H 0.54703 0.24102 0.85826 0.0
C1353 C 0.60035 0.2931 0.91572 0.0
C1354 C 0.61489 0.29564 0.89502 0.0
C1355 C 0.58051 0.27654 0.91612 0.0
C1356 C 0.54187 0.23439 0.87584 0.0
H1357 H 0.46282 0.14485 0.87378 0.0
H1358 H 0.49936 0.17122 0.8705 0.0
H1359 H 0.51236 0.2127 0.86032 0.0
H1360 H 0.62035 0.28206 0.85857 0.0
H1361 H 0.58716 0.25185 0.85975 0.0
H1362 H 0.55529 0.23845 0.93614 0.0
C1363 C 0.48606 0.17505 0.88451 0.0
C1364 C 0.52167 0.21817 0.87698 0.0
C1365 C 0.46516 0.15987 0.88646 0.0
C1366 C 0.60938 0.28075 0.87479 0.0
C1367 C 0.59003 0.26349 0.87545 0.0
C1368 C 0.54594 0.23363 0.91934 0.0
C1369 C 0.49009 0.19449 0.90088 0.0
C1370 C 0.51272 0.2103 0.89938 0.0
C1371 C 0.57514 0.26108 0.89615 0.0
C1372 C 0.55421 0.24273 0.89706 0.0
H1373 H 0.43805 0.1874 0.93473 0.0
H1374 H 0.47457 0.21374 0.9315 0.0
H1375 H 0.51952 0.21167 0.93801 0.0
H1376 H 0.60415 0.30408 0.93167 0.0
H1377 H 0.56933 0.27617 0.93222 0.0
C1378 C 0.93368 0.08365 0.67579 0.0
C1379 C 0.92553 0.10688 0.68209 0.0
C1380 C 0.93698 0.06618 0.69357 0.0
C1381 C 0.90095 0.04519 0.73574 0.0
H1382 H 0.94925 0.01777 0.77936 0.0
C1383 C 0.87286 0.99147 0.81954 0.0
C1384 C 0.88766 0.97225 0.8271 0.0
C1385 C 0.87981 0.00556 0.79991 0.0
C1386 C 0.93561 0.025 0.76705 0.0
H1387 H 0.91842 0.13141 0.71199 0.0
H1388 H 0.9247 0.10109 0.74314 0.0
H1389 H 0.96246 0.04804 0.74975 0.0
H1390 H 0.92084 0.95204 0.81946 0.0
H1391 H 0.93302 0.97669 0.78499 0.0
H1392 H 0.87404 0.02247 0.75261 0.0
C1393 C 0.9283 0.09626 0.72446 0.0
C1394 C 0.9432 0.04237 0.75028 0.0
C1395 C 0.925 0.11368 0.70663 0.0
C1396 C 0.90893 0.9666 0.81387 0.0
C1397 C 0.91613 0.98099 0.79441 0.0
C1398 C 0.89337 0.02792 0.75238 0.0
C1399 C 0.9326 0.07205 0.71786 0.0
C1400 C 0.92581 0.05271 0.73475 0.0
C1401 C 0.90191 0.00096 0.78754 0.0
C1402 C 0.91051 0.01783 0.7685 0.0
H1403 H 0.93467 0.07826 0.65705 0.0
H1404 H 0.94038 0.04761 0.68811 0.0
H1405 H 0.8873 0.0529 0.72371 0.0
H1406 H 0.85652 0.99637 0.82958 0.0
H1407 H 0.86852 0.02092 0.79533 0.0
C1408 C 0.67892 0.1373 0.45908 0.0
C1409 C 0.67257 0.11261 0.46135 0.0
C1410 C 0.69546 0.14856 0.47565 0.0
C1411 C 0.72396 0.14009 0.53634 0.0
H1412 H 0.7837 0.16816 0.50948 0.0
C1413 C 0.81545 0.12472 0.58128 0.0
C1414 C 0.83072 0.14473 0.5875 0.0
C1415 C 0.79558 0.1272 0.5654 0.0
C1416 C 0.767 0.16069 0.51728 0.0
H1417 H 0.67708 0.08096 0.48376 0.0
H1418 H 0.70516 0.10038 0.51241 0.0
H1419 H 0.74678 0.16224 0.48372 0.0
H1420 H 0.83825 0.18265 0.58029 0.0
H1421 H 0.80333 0.18683 0.55171 0.0
H1422 H 0.74437 0.13719 0.5694 0.0
C1423 C 0.69771 0.11118 0.49792 0.0
C1424 C 0.74584 0.15741 0.50259 0.0
C1425 C 0.68176 0.09992 0.48126 0.0
C1426 C 0.82684 0.16689 0.57581 0.0
C1427 C 0.8068 0.16935 0.55963 0.0
C1428 C 0.74499 0.1432 0.55084 0.0
C1429 C 0.7052 0.13547 0.49513 0.0
C1430 C 0.72461 0.14572 0.51168 0.0
C1431 C 0.79042 0.14972 0.55517 0.0
C1432 C 0.76712 0.15223 0.54111 0.0
H1433 H 0.67191 0.1476 0.44404 0.0
H1434 H 0.70089 0.16731 0.47307 0.0
H1435 H 0.70764 0.13171 0.54405 0.0
H1436 H 0.81814 0.10726 0.58958 0.0
H1437 H 0.78373 0.11155 0.56162 0.0
C1438 C 0.64931 0.92249 0.19279 0.0
C1439 C 0.62557 0.91305 0.18739 0.0
C1440 C 0.6527 0.94022 0.21088 0.0
C1441 C 0.61938 0.96654 0.26387 0.0
H1442 H 0.67247 0.01454 0.26301 0.0
C1443 C 0.62182 0.04703 0.33052 0.0
C1444 C 0.64451 0.0524 0.34209 0.0
C1445 C 0.62067 0.03075 0.31098 0.0
C1446 C 0.65774 0.00104 0.26364 0.0
H1447 H 0.58659 0.91613 0.19521 0.0
H1448 H 0.59212 0.94826 0.22538 0.0
H1449 H 0.66841 0.985 0.23003 0.0
H1450 H 0.68386 0.04564 0.34195 0.0
H1451 H 0.68207 0.01801 0.30688 0.0
H1452 H 0.60851 0.98292 0.29727 0.0
C1453 C 0.60841 0.94114 0.21673 0.0
C1454 C 0.65543 0.98398 0.24475 0.0
C1455 C 0.6051 0.92308 0.19901 0.0
C1456 C 0.66622 0.04213 0.33301 0.0
C1457 C 0.66515 0.02622 0.31307 0.0
C1458 C 0.62161 0.98365 0.28261 0.0
C1459 C 0.63234 0.94931 0.22363 0.0
C1460 C 0.63591 0.96674 0.24436 0.0
C1461 C 0.64225 0.01984 0.30228 0.0
C1462 C 0.6406 0.00129 0.28257 0.0
H1463 H 0.66553 0.91486 0.1844 0.0
H1464 H 0.67141 0.94588 0.21558 0.0
H1465 H 0.60466 0.95308 0.26484 0.0
H1466 H 0.60474 0.05435 0.33741 0.0
H1467 H 0.6028 0.02657 0.30276 0.0
C1468 C 0.83645 0.89645 0.94872 0.0
C1469 C 0.83497 0.92097 0.94234 0.0
C1470 C 0.82267 0.88743 0.96799 0.0
C1471 C 0.78604 0.90792 0.02138 0.0
H1472 H 0.75686 0.84351 0.01582 0.0
C1473 C 0.70584 0.87742 0.08228 0.0
C1474 C 0.70433 0.85302 0.08915 0.0
C1475 C 0.72374 0.88509 0.06586 0.0
C1476 C 0.76516 0.8614 0.01797 0.0
H1477 H 0.81721 0.95503 0.95067 0.0
H1478 H 0.7923 0.93913 0.9833 0.0
H1479 H 0.78486 0.85759 0.9849 0.0
H1480 H 0.72057 0.81758 0.08426 0.0
H1481 H 0.75171 0.83091 0.05572 0.0
H1482 H 0.76627 0.91173 0.05445 0.0
C1483 C 0.80487 0.92702 0.97421 0.0
C1484 C 0.78129 0.86952 0.00012 0.0
C1485 C 0.81887 0.93608 0.95519 0.0
C1486 C 0.72109 0.83648 0.07922 0.0
C1487 C 0.73893 0.84413 0.06274 0.0
C1488 C 0.76999 0.89977 0.03927 0.0
C1489 C 0.80679 0.90264 0.98112 0.0
C1490 C 0.79149 0.89311 0.00127 0.0
C1491 C 0.74046 0.86852 0.05576 0.0
C1492 C 0.75892 0.87657 0.03757 0.0
H1493 H 0.84883 0.88435 0.93931 0.0
H1494 H 0.82475 0.8686 0.97277 0.0
H1495 H 0.79413 0.92592 0.02334 0.0
H1496 H 0.69323 0.89066 0.08959 0.0
H1497 H 0.72397 0.90392 0.06061 0.0
C1498 C 0.9198 0.02319 0.63428 0.0
C1499 C 0.90552 0.04405 0.63151 0.0
C1500 C 0.91603 0.00785 0.65366 0.0
C1501 C 0.87518 0.9873 0.70113 0.0
H1502 H 0.93754 0.97404 0.73336 0.0
C1503 C 0.88259 0.91806 0.77927 0.0
C1504 C 0.90207 0.90169 0.77634 0.0
C1505 C 0.88152 0.93901 0.76518 0.0
C1506 C 0.91997 0.97735 0.72451 0.0
H1507 H 0.87454 0.06403 0.64571 0.0
H1508 H 0.86792 0.03687 0.68019 0.0
H1509 H 0.93653 0.00252 0.70033 0.0
H1510 H 0.9364 0.8951 0.75765 0.0
H1511 H 0.93486 0.93138 0.73362 0.0
H1512 H 0.85882 0.96123 0.72482 0.0
C1513 C 0.88216 0.03268 0.6672 0.0
C1514 C 0.91938 0.99376 0.70562 0.0
C1515 C 0.88589 0.04815 0.6475 0.0
C1516 C 0.92122 0.90744 0.76038 0.0
C1517 C 0.92032 0.92834 0.7466 0.0
C1518 C 0.87579 0.97059 0.72004 0.0
C1519 C 0.89793 0.01295 0.6709 0.0
C1520 C 0.89718 0.99831 0.69319 0.0
C1521 C 0.90017 0.94411 0.74831 0.0
C1522 C 0.89839 0.96481 0.73137 0.0
H1523 H 0.93482 0.0193 0.62205 0.0
H1524 H 0.92802 0.99242 0.65569 0.0
H1525 H 0.85781 0.99057 0.69189 0.0
H1526 H 0.86747 0.91397 0.79134 0.0
H1527 H 0.86596 0.95098 0.76723 0.0
C1528 C 0.84195 0.12366 0.5249 0.0
C1529 C 0.8451 0.09998 0.53325 0.0
C1530 C 0.82403 0.12853 0.50731 0.0
C1531 C 0.76703 0.10239 0.47761 0.0
H1532 H 0.78058 0.15244 0.43087 0.0
C1533 C 0.69904 0.1239 0.39898 0.0
C1534 C 0.69522 0.14868 0.39483 0.0
C1535 C 0.71799 0.11652 0.41459 0.0
C1536 C 0.77646 0.13845 0.44384 0.0
H1537 H 0.83183 0.06281 0.52972 0.0
H1538 H 0.80076 0.07118 0.49892 0.0
H1539 H 0.81205 0.14246 0.46065 0.0
H1540 H 0.70822 0.18508 0.404 0.0
H1541 H 0.74083 0.17229 0.43136 0.0
H1542 H 0.7317 0.09796 0.46013 0.0
C1543 C 0.81181 0.08616 0.50618 0.0
C1544 C 0.79448 0.13281 0.46107 0.0
C1545 C 0.82977 0.0813 0.52377 0.0
C1546 C 0.7107 0.16586 0.40666 0.0
C1547 C 0.72959 0.1585 0.4222 0.0
C1548 C 0.74919 0.10774 0.46005 0.0
C1549 C 0.80874 0.10983 0.4976 0.0
C1550 C 0.78988 0.115 0.47851 0.0
C1551 C 0.73355 0.13376 0.42632 0.0
C1552 C 0.75343 0.12627 0.44335 0.0
H1553 H 0.85352 0.13847 0.53178 0.0
H1554 H 0.82213 0.14705 0.50149 0.0
H1555 H 0.76257 0.0888 0.49087 0.0
H1556 H 0.68746 0.11018 0.39013 0.0
H1557 H 0.72056 0.09732 0.41732 0.0
C1558 C 0.62208 0.96106 0.14682 0.0
C1559 C 0.64661 0.95799 0.13929 0.0
C1560 C 0.61661 0.97734 0.16553 0.0
C1561 C 0.64545 0.02936 0.20055 0.0
H1562 H 0.58912 0.01952 0.24231 0.0
C1563 C 0.63478 0.08555 0.28761 0.0
C1564 C 0.6111 0.09401 0.2932 0.0
C1565 C 0.63791 0.0685 0.26905 0.0
C1566 C 0.60471 0.02277 0.23058 0.0
H1567 H 0.6848 0.96818 0.14654 0.0
H1568 H 0.67562 0.99493 0.18059 0.0
H1569 H 0.59625 0.99119 0.20931 0.0
H1570 H 0.57205 0.09061 0.28438 0.0
H1571 H 0.5774 0.06022 0.25239 0.0
H1572 H 0.65369 0.06113 0.22182 0.0
C1573 C 0.66033 0.98601 0.17114 0.0
C1574 C 0.60889 0.00643 0.21155 0.0
C1575 C 0.66572 0.97022 0.15197 0.0
C1576 C 0.59048 0.08414 0.28068 0.0
C1577 C 0.59358 0.06682 0.26229 0.0
C1578 C 0.64118 0.04575 0.21945 0.0
C1579 C 0.63561 0.99052 0.17763 0.0
C1580 C 0.62978 0.00903 0.19669 0.0
C1581 C 0.6174 0.05927 0.25583 0.0
C1582 C 0.62106 0.04239 0.23501 0.0
H1583 H 0.60687 0.95216 0.13717 0.0
H1584 H 0.59736 0.98024 0.1697 0.0
H1585 H 0.6611 0.03276 0.18897 0.0
H1586 H 0.65109 0.093 0.29672 0.0
H1587 H 0.65647 0.06265 0.26498 0.0
C1588 C 0.69028 0.8774 0.01669 0.0
C1589 C 0.68299 0.90172 0.01709 0.0
C1590 C 0.70586 0.86886 0.99833 0.0
C1591 C 0.7497 0.89445 0.95279 0.0
H1592 H 0.75672 0.8272 0.93356 0.0
C1593 C 0.82218 0.86643 0.88238 0.0
C1594 C 0.83382 0.84402 0.88508 0.0
C1595 C 0.80207 0.87263 0.89679 0.0
C1596 C 0.75514 0.84607 0.93887 0.0
H1597 H 0.68342 0.93516 0.99696 0.0
H1598 H 0.70864 0.92009 0.96453 0.0
H1599 H 0.72333 0.83865 0.96055 0.0
H1600 H 0.83411 0.81096 0.90579 0.0
H1601 H 0.79992 0.82231 0.93186 0.0
H1602 H 0.78105 0.90205 0.93107 0.0
C1603 C 0.70428 0.90791 0.97911 0.0
C1604 C 0.73591 0.85265 0.95442 0.0
C1605 C 0.68952 0.91656 0.99768 0.0
C1606 C 0.82545 0.82832 0.90315 0.0
C1607 C 0.80558 0.83471 0.9179 0.0
C1608 C 0.76851 0.88795 0.93703 0.0
C1609 C 0.7138 0.88434 0.97969 0.0
C1610 C 0.73309 0.87696 0.96187 0.0
C1611 C 0.79332 0.85681 0.91468 0.0
C1612 C 0.77195 0.86363 0.93023 0.0
H1613 H 0.6851 0.86542 0.0312 0.0
H1614 H 0.71251 0.8505 -0.00055 0.0
H1615 H 0.74897 0.91325 0.95853 0.0
H1616 H 0.82801 0.8789 0.86851 0.0
H1617 H 0.79307 0.88968 0.89344 0.0
C1618 C 0.93542 0.84547 0.92123 0.0
C1619 C 0.92723 0.85589 0.89959 0.0
C1620 C 0.95446 0.82861 0.92114 0.0
C1621 C 0.00594 0.80811 0.88159 0.0
H1622 H 0.0157 0.76191 0.93284 0.0
C1623 C 0.09346 0.75518 0.88016 0.0
C1624 C 0.09121 0.73038 0.88485 0.0
C1625 C 0.07555 0.77116 0.88821 0.0
C1626 C 0.01327 0.77456 0.91827 0.0
H1627 H 0.93151 0.85565 0.8607 0.0
H1628 H 0.96403 0.82594 0.86031 0.0
H1629 H 0.97792 0.7852 0.93141 0.0
H1630 H 0.07182 0.7035 0.90556 0.0
H1631 H 0.0387 0.73073 0.91771 0.0
H1632 H 0.0398 0.79613 0.86703 0.0
C1633 C 0.95643 0.83112 0.8776 0.0
C1634 C 0.99163 0.78827 0.91762 0.0
C1635 C 0.93746 0.84805 0.87771 0.0
C1636 C 0.07308 0.72242 0.90092 0.0
C1637 C 0.05427 0.73822 0.90804 0.0
C1638 C 0.02706 0.794 0.88184 0.0
C1639 C 0.96566 0.82152 0.89936 0.0
C1640 C 0.98781 0.80555 0.89944 0.0
C1641 C 0.05429 0.76239 0.89995 0.0
C1642 C 0.03146 0.7774 0.90047 0.0
H1643 H 0.92796 0.85117 0.93847 0.0
H1644 H 0.9611 0.82214 0.93837 0.0
H1645 H 0.00424 0.82132 0.86743 0.0
H1646 H 0.10788 0.76188 0.86841 0.0
H1647 H 0.07738 0.79001 0.88328 0.0
C1648 C 0.4617 0.6563 0.12922 0.0
C1649 C 0.44559 0.64966 0.11012 0.0
C1650 C 0.47952 0.67448 0.12629 0.0
C1651 C 0.50173 0.72575 0.09073 0.0
H1652 H 0.56478 0.70441 0.11613 0.0
C1653 C 0.58702 0.79104 0.1049 0.0
C1654 C 0.5951 0.7903 0.12912 0.0
C1655 C 0.57099 0.77279 0.09553 0.0
C1656 C 0.54737 0.71065 0.10881 0.0
H1657 H 0.43408 0.65827 0.07364 0.0
H1658 H 0.46557 0.69045 0.0685 0.0
H1659 H 0.52969 0.6764 0.11457 0.0
H1660 H 0.5947 0.76891 0.16172 0.0
H1661 H 0.56759 0.73746 0.1456 0.0
H1662 H 0.51936 0.76055 0.08624 0.0
C1663 C 0.46434 0.68136 0.08568 0.0
C1664 C 0.52722 0.69463 0.10803 0.0
C1665 C 0.44624 0.66309 0.08869 0.0
C1666 C 0.58854 0.7702 0.14309 0.0
C1667 C 0.57312 0.75197 0.13372 0.0
C1668 C 0.52197 0.74202 0.09181 0.0
C1669 C 0.4819 0.68634 0.1041 0.0
C1670 C 0.50384 0.70236 0.10026 0.0
C1671 C 0.56363 0.75322 0.11005 0.0
C1672 C 0.54462 0.73494 0.10213 0.0
H1673 H 0.46141 0.64652 0.14607 0.0
H1674 H 0.4922 0.67855 0.14114 0.0
H1675 H 0.48414 0.73194 0.08388 0.0
H1676 H 0.59198 0.80626 0.0937 0.0
H1677 H 0.56396 0.77422 0.07721 0.0
C1678 C 0.04833 0.37351 0.57784 0.0
C1679 C 0.06738 0.38236 0.59322 0.0
C1680 C 0.03161 0.35583 0.58569 0.0
C1681 C 0.02668 0.30635 0.62938 0.0
H1682 H 0.95776 0.30514 0.60916 0.0
C1683 C 0.95658 0.23373 0.66179 0.0
C1684 C 0.93918 0.22449 0.64484 0.0
C1685 C 0.97212 0.25325 0.65605 0.0
C1686 C 0.97703 0.30505 0.61471 0.0
H1687 H 0.08294 0.38046 0.62942 0.0
H1688 H 0.05366 0.34943 0.64317 0.0
H1689 H 0.98396 0.33993 0.59953 0.0
H1690 H 0.92469 0.22841 0.60842 0.0
H1691 H 0.95182 0.26251 0.59841 0.0
H1692 H 0.0198 0.27128 0.64426 0.0
C1693 C 0.05191 0.35602 0.6249 0.0
C1694 C 0.99204 0.32506 0.60927 0.0
C1695 C 0.06863 0.37386 0.61705 0.0
C1696 C 0.93773 0.23521 0.62197 0.0
C1697 C 0.95322 0.25483 0.61627 0.0
C1698 C 0.01167 0.2863 0.63478 0.0
C1699 C 0.03346 0.34648 0.60914 0.0
C1700 C 0.01709 0.32593 0.61642 0.0
C1701 C 0.97056 0.26414 0.63327 0.0
C1702 C 0.98666 0.28537 0.62745 0.0
H1703 H 0.04666 0.37978 0.55943 0.0
H1704 H 0.01786 0.34875 0.57297 0.0
H1705 H 0.04602 0.30616 0.63472 0.0
H1706 H 0.95825 0.22586 0.67955 0.0
H1707 H 0.98507 0.26011 0.66966 0.0
C1708 C 0.07267 0.64848 0.87617 0.0
C1709 C 0.07224 0.64025 0.90006 0.0
C1710 C 0.05522 0.66503 0.868 0.0
C1711 C 0.99557 0.69494 0.88388 0.0
H1712 H 0.02198 0.74558 0.84331 0.0
C1713 C 0.93756 0.77883 0.85716 0.0
C1714 C 0.94065 0.78697 0.83339 0.0
C1715 C 0.95355 0.76147 0.86677 0.0
C1716 C 0.01402 0.73141 0.85426 0.0
H1717 H 0.05268 0.64257 0.93403 0.0
H1718 H 0.02274 0.67204 0.92012 0.0
H1719 H 0.04785 0.71217 0.85433 0.0
H1720 H 0.96305 0.78331 0.8012 0.0
H1721 H 0.98975 0.75284 0.81726 0.0
H1722 H 0.96127 0.71391 0.88287 0.0
C1723 C 0.03619 0.66529 0.90741 0.0
C1724 C 0.02899 0.71212 0.86066 0.0
C1725 C 0.05361 0.64861 0.91551 0.0
C1726 C 0.96009 0.77756 0.81961 0.0
C1727 C 0.97572 0.76017 0.829 0.0
C1728 C 0.9803 0.71401 0.87693 0.0
C1729 C 0.03694 0.67398 0.88361 0.0
C1730 C 0.02012 0.69367 0.87571 0.0
C1731 C 0.97275 0.75178 0.85267 0.0
C1732 C 0.98929 0.73244 0.86187 0.0
H1733 H 0.08645 0.64203 0.8637 0.0
H1734 H 0.0562 0.67091 0.84943 0.0
H1735 H 0.98796 0.68093 0.89526 0.0
H1736 H 0.9227 0.78567 0.86821 0.0
H1737 H 0.95087 0.7557 0.88519 0.0
C1738 C 0.43342 0.29754 0.3771 0.0
C1739 C 0.44107 0.31215 0.35788 0.0
C1740 C 0.44878 0.27924 0.38572 0.0
C1741 C 0.50097 0.24234 0.36299 0.0
H1742 H 0.49969 0.21482 0.42696 0.0
C1743 C 0.55641 0.15672 0.38334 0.0
C1744 C 0.56818 0.15569 0.40603 0.0
C1745 C 0.53859 0.17426 0.37879 0.0
C1746 C 0.50041 0.22231 0.409 0.0
H1747 H 0.47182 0.32114 0.33469 0.0
H1748 H 0.4992 0.29064 0.35083 0.0
H1749 H 0.47572 0.2508 0.41862 0.0
H1750 H 0.57017 0.17193 0.44191 0.0
H1751 H 0.54024 0.20329 0.43368 0.0
H1752 H 0.52608 0.21456 0.35343 0.0
C1753 C 0.48081 0.29207 0.35826 0.0
C1754 C 0.48638 0.24288 0.40413 0.0
C1755 C 0.46527 0.30987 0.34926 0.0
C1756 C 0.56145 0.17229 0.42421 0.0
C1757 C 0.54396 0.19011 0.41955 0.0
C1758 C 0.515 0.22194 0.36786 0.0
C1759 C 0.47225 0.27554 0.37555 0.0
C1760 C 0.48686 0.25349 0.38115 0.0
C1761 C 0.53244 0.19155 0.39668 0.0
C1762 C 0.51543 0.2119 0.39107 0.0
H1763 H 0.41478 0.29875 0.384 0.0
H1764 H 0.44147 0.26701 0.39909 0.0
H1765 H 0.50118 0.24926 0.34477 0.0
H1766 H 0.56088 0.14388 0.36909 0.0
H1767 H 0.52978 0.17428 0.36114 0.0
C1768 C 0.96935 0.17357 0.62252 0.0
C1769 C 0.95518 0.16608 0.60233 0.0
C1770 C 0.98572 0.19331 0.62107 0.0
C1771 C 0.00868 0.24244 0.57957 0.0
H1772 H 0.06791 0.23444 0.61834 0.0
C1773 C 0.08545 0.31602 0.58809 0.0
C1774 C 0.10779 0.31007 0.59932 0.0
C1775 C 0.06755 0.2981 0.58288 0.0
C1776 C 0.05193 0.23678 0.60674 0.0
H1777 H 0.94582 0.17427 0.56522 0.0
H1778 H 0.97497 0.208 0.56223 0.0
H1779 H 0.03423 0.20613 0.62216 0.0
H1780 H 0.13099 0.2805 0.61016 0.0
H1781 H 0.101 0.24886 0.59896 0.0
H1782 H 0.02725 0.27218 0.56292 0.0
C1783 C 0.97321 0.19921 0.5795 0.0
C1784 C 0.03199 0.22078 0.60956 0.0
C1785 C 0.95631 0.17983 0.58119 0.0
C1786 C 0.11375 0.28559 0.60158 0.0
C1787 C 0.09613 0.26751 0.59583 0.0
C1788 C 0.02898 0.25812 0.57623 0.0
C1789 C 0.98896 0.2056 0.59912 0.0
C1790 C 0.0099 0.22342 0.59625 0.0
C1791 C 0.07195 0.2737 0.58848 0.0
C1792 C 0.05096 0.25566 0.58989 0.0
H1793 H 0.96864 0.16341 0.63914 0.0
H1794 H 0.99644 0.19831 0.63704 0.0
H1795 H 0.99199 0.24546 0.56914 0.0
H1796 H 0.08097 0.33475 0.58552 0.0
H1797 H 0.04961 0.30392 0.57664 0.0
C1798 C 0.45439 0.72764 0.17435 0.0
C1799 C 0.43855 0.71491 0.1582 0.0
C1800 C 0.46892 0.74709 0.16646 0.0
C1801 C 0.47759 0.7892 0.11443 0.0
H1802 H 0.54309 0.79697 0.14276 0.0
C1803 C 0.55484 0.84486 0.0687 0.0
C1804 C 0.57169 0.85816 0.08336 0.0
C1805 C 0.53735 0.8293 0.07901 0.0
C1806 C 0.52485 0.79518 0.1347 0.0
H1807 H 0.42521 0.71294 0.12112 0.0
H1808 H 0.45055 0.74661 0.10728 0.0
H1809 H 0.51541 0.76587 0.15772 0.0
H1810 H 0.5832 0.86571 0.12044 0.0
H1811 H 0.55243 0.83892 0.13842 0.0
H1812 H 0.48777 0.81781 0.09055 0.0
C1813 C 0.45178 0.74181 0.12614 0.0
C1814 C 0.50874 0.77741 0.14348 0.0
C1815 C 0.43722 0.72236 0.13405 0.0
C1816 C 0.57061 0.85559 0.10859 0.0
C1817 C 0.55293 0.84022 0.11892 0.0
C1818 C 0.49396 0.80662 0.10529 0.0
C1819 C 0.46815 0.75425 0.14213 0.0
C1820 C 0.48489 0.77401 0.13338 0.0
C1821 C 0.53609 0.82683 0.10425 0.0
C1822 C 0.51796 0.80958 0.11507 0.0
H1823 H 0.45569 0.72255 0.19315 0.0
H1824 H 0.48068 0.75654 0.17956 0.0
H1825 H 0.45922 0.78768 0.10654 0.0
H1826 H 0.55523 0.84637 0.04921 0.0
H1827 H 0.52507 0.81888 0.06712 0.0
C1828 C 0.65392 0.42695 0.81462 0.0
C1829 C 0.65135 0.40178 0.8171 0.0
C1830 C 0.64615 0.43819 0.79353 0.0
C1831 C 0.60898 0.42915 0.73676 0.0
H1832 H 0.64477 0.48802 0.72065 0.0
C1833 C 0.56484 0.50322 0.67994 0.0
C1834 C 0.57961 0.51983 0.66729 0.0
C1835 C 0.57561 0.48483 0.69335 0.0
C1836 C 0.63477 0.47138 0.72437 0.0
H1837 H 0.6376 0.36869 0.79994 0.0
H1838 H 0.62411 0.38825 0.76277 0.0
H1839 H 0.65965 0.46324 0.75316 0.0
H1840 H 0.61728 0.52913 0.65755 0.0
H1841 H 0.63616 0.49701 0.68091 0.0
H1842 H 0.58432 0.43717 0.70758 0.0
C1843 C 0.63194 0.39946 0.77721 0.0
C1844 C 0.64306 0.45732 0.74353 0.0
C1845 C 0.63948 0.3882 0.7986 0.0
C1846 C 0.6054 0.51694 0.66751 0.0
C1847 C 0.61621 0.49849 0.68096 0.0
C1848 C 0.60077 0.44314 0.71743 0.0
C1849 C 0.63591 0.42455 0.77408 0.0
C1850 C 0.62948 0.43679 0.75093 0.0
C1851 C 0.60149 0.48252 0.69457 0.0
C1852 C 0.61286 0.46509 0.71172 0.0
H1853 H 0.66287 0.43787 0.8287 0.0
H1854 H 0.64852 0.45766 0.79248 0.0
H1855 H 0.59823 0.41324 0.74145 0.0
H1856 H 0.54489 0.50479 0.68006 0.0
H1857 H 0.56354 0.47325 0.70377 0.0
C1858 C 0.86269 0.37573 0.065 0.0
C1859 C 0.86696 0.39765 0.0776 0.0
C1860 C 0.84204 0.37262 0.04983 0.0
C1861 C 0.78242 0.40241 0.03086 0.0
H1862 H 0.78728 0.35608 0.97786 0.0
C1863 C 0.71746 0.39814 0.94643 0.0
C1864 C 0.71106 0.3751 0.93692 0.0
C1865 C 0.73338 0.40055 0.96641 0.0
C1866 C 0.78549 0.36889 0.99274 0.0
H1867 H 0.85292 0.43371 0.08403 0.0
H1868 H 0.8179 0.4291 0.05634 0.0
H1869 H 0.82182 0.36171 0.00557 0.0
H1870 H 0.71486 0.33649 0.94181 0.0
H1871 H 0.74295 0.34064 0.97673 0.0
H1872 H 0.74653 0.41063 0.01653 0.0
C1873 C 0.82974 0.41369 0.05886 0.0
C1874 C 0.80535 0.37208 0.00891 0.0
C1875 C 0.85006 0.4165 0.07467 0.0
C1876 C 0.71929 0.35444 0.94893 0.0
C1877 C 0.73568 0.35685 0.96864 0.0
C1878 C 0.76284 0.39971 0.01419 0.0
C1879 C 0.82541 0.39169 0.04603 0.0
C1880 C 0.80412 0.38869 0.02848 0.0
C1881 C 0.7436 0.37996 0.97701 0.0
C1882 C 0.76402 0.38266 0.99515 0.0
H1883 H 0.8754 0.36088 0.06679 0.0
H1884 H 0.83923 0.35505 0.04124 0.0
H1885 H 0.78017 0.41501 0.0458 0.0
H1886 H 0.71146 0.41435 0.93737 0.0
H1887 H 0.73905 0.41858 0.97242 0.0
C1888 C 0.83209 0.59787 0.29831 0.0
C1889 C 0.8446 0.60985 0.31755 0.0
C1890 C 0.84514 0.58779 0.27913 0.0
C1891 C 0.90358 0.55944 0.2665 0.0
H1892 H 0.8794 0.55999 0.20025 0.0
C1893 C 0.94389 0.49465 0.19558 0.0
C1894 C 0.92729 0.48359 0.17892 0.0
C1895 C 0.93669 0.51428 0.20989 0.0
C1896 C 0.88626 0.55941 0.21868 0.0
H1897 H 0.88064 0.62143 0.33108 0.0
H1898 H 0.90375 0.60206 0.29829 0.0
H1899 H 0.86212 0.58773 0.23011 0.0
H1900 H 0.89035 0.4853 0.16348 0.0
H1901 H 0.87745 0.51918 0.18892 0.0
H1902 H 0.92632 0.53002 0.25582 0.0
C1903 C 0.88373 0.60086 0.29806 0.0
C1904 C 0.87653 0.57552 0.23573 0.0
C1905 C 0.87056 0.61162 0.31699 0.0
C1906 C 0.90353 0.49326 0.17627 0.0
C1907 C 0.89627 0.51296 0.1907 0.0
C1908 C 0.91298 0.54304 0.24958 0.0
C1909 C 0.87111 0.58881 0.27894 0.0
C1910 C 0.88464 0.57528 0.25995 0.0
C1911 C 0.91258 0.52334 0.20817 0.0
C1912 C 0.90412 0.54244 0.22551 0.0
H1913 H 0.81208 0.59636 0.29791 0.0
H1914 H 0.83487 0.57826 0.26492 0.0
H1915 H 0.90987 0.55848 0.28511 0.0
H1916 H 0.96253 0.48803 0.19781 0.0
H1917 H 0.9501 0.52221 0.22246 0.0
C1918 C 0.77822 0.64839 0.45314 0.0
C1919 C 0.77497 0.63298 0.43288 0.0
C1920 C 0.76247 0.6463 0.47315 0.0
C1921 C 0.71323 0.60508 0.49907 0.0
H1922 H 0.69485 0.66321 0.53413 0.0
C1923 C 0.64605 0.60049 0.57918 0.0
C1924 C 0.62853 0.6189 0.58146 0.0
C1925 C 0.66524 0.60245 0.56252 0.0
C1926 C 0.69959 0.64681 0.52436 0.0
H1927 H 0.75337 0.60263 0.41825 0.0
H1928 H 0.72597 0.59945 0.45205 0.0
H1929 H 0.72607 0.66568 0.50282 0.0
H1930 H 0.61772 0.6541 0.56847 0.0
H1931 H 0.65152 0.65782 0.53971 0.0
H1932 H 0.68598 0.58642 0.5197 0.0
C1933 C 0.74073 0.61288 0.45323 0.0
C1934 C 0.71792 0.64813 0.50663 0.0
C1935 C 0.75645 0.61485 0.43353 0.0
C1936 C 0.63106 0.63967 0.56722 0.0
C1937 C 0.65051 0.64182 0.55079 0.0
C1938 C 0.69481 0.60381 0.51656 0.0
C1939 C 0.74316 0.62874 0.47329 0.0
C1940 C 0.72493 0.62728 0.49354 0.0
C1941 C 0.66769 0.62307 0.54794 0.0
C1942 C 0.68766 0.62463 0.52947 0.0
H1943 H 0.79225 0.66261 0.45317 0.0
H1944 H 0.76542 0.65853 0.4884 0.0
H1945 H 0.71828 0.58841 0.48998 0.0
H1946 H 0.64453 0.58417 0.58977 0.0
H1947 H 0.67825 0.58778 0.56119 0.0
C1948 C 0.56106 0.42355 0.78455 0.0
C1949 C 0.57024 0.42074 0.80817 0.0
C1950 C 0.56587 0.44467 0.77183 0.0
C1951 C 0.60603 0.49965 0.76865 0.0
H1952 H 0.55043 0.52237 0.7309 0.0
C1953 C 0.57444 0.5869 0.70709 0.0
C1954 C 0.5966 0.59191 0.69492 0.0
C1955 C 0.57215 0.56662 0.72172 0.0
C1956 C 0.56617 0.51659 0.74149 0.0
H1957 H 0.59314 0.43736 0.83638 0.0
H1958 H 0.60219 0.47436 0.81371 0.0
H1959 H 0.54541 0.48694 0.75563 0.0
H1960 H 0.63364 0.57913 0.68818 0.0
H1961 H 0.62953 0.54322 0.71351 0.0
H1962 H 0.62673 0.5296 0.7544 0.0
C1963 C 0.59094 0.46018 0.80521 0.0
C1964 C 0.56336 0.49592 0.75549 0.0
C1965 C 0.58596 0.4389 0.81812 0.0
C1966 C 0.61627 0.57569 0.6972 0.0
C1967 C 0.61402 0.55533 0.71206 0.0
C1968 C 0.60893 0.52034 0.75439 0.0
C1969 C 0.58033 0.46358 0.78214 0.0
C1970 C 0.58335 0.48681 0.76886 0.0
C1971 C 0.59192 0.55058 0.7246 0.0
C1972 C 0.58908 0.52891 0.74034 0.0
H1973 H 0.54908 0.40982 0.77624 0.0
H1974 H 0.55797 0.44624 0.75386 0.0
H1975 H 0.62178 0.49329 0.77886 0.0
H1976 H 0.55891 0.59904 0.7058 0.0
H1977 H 0.55498 0.56396 0.7313 0.0
C1978 C 0.74543 0.37673 0.07533 0.0
C1979 C 0.76489 0.36033 0.0723 0.0
C1980 C 0.72534 0.37675 0.0591 0.0
C1981 C 0.69232 0.33908 0.01245 0.0
H1982 H 0.66843 0.4008 0.98978 0.0
C1983 C 0.60292 0.34802 0.95475 0.0
C1984 C 0.6049 0.3617 0.93356 0.0
C1985 C 0.62221 0.34792 0.97182 0.0
C1986 C 0.6749 0.38344 0.99594 0.0
H1987 H 0.7782 0.33082 0.04988 0.0
H1988 H 0.74311 0.33067 0.02176 0.0
H1989 H 0.70178 0.39996 0.01991 0.0
H1990 H 0.62824 0.38725 0.91452 0.0
H1991 H 0.66123 0.38828 0.94519 0.0
H1992 H 0.66527 0.32261 0.98853 0.0
C1993 C 0.74331 0.3435 0.03675 0.0
C1994 C 0.69388 0.38292 0.01339 0.0
C1995 C 0.76357 0.34371 0.05279 0.0
C1996 C 0.62624 0.3762 0.93043 0.0
C1997 C 0.64519 0.37675 0.94798 0.0
C1998 C 0.67305 0.33961 0.99534 0.0
C1999 C 0.72401 0.36017 0.03955 0.0
C2000 C 0.70302 0.36072 0.02174 0.0
C2001 C 0.64362 0.36222 0.96863 0.0
C2002 C 0.66418 0.36179 0.9868 0.0
H2003 H 0.74579 0.38977 0.09016 0.0
H2004 H 0.71075 0.38969 0.06197 0.0
H2005 H 0.69872 0.32167 0.01856 0.0
H2006 H 0.58661 0.33692 0.95796 0.0
H2007 H 0.62023 0.33684 0.98772 0.0
C2008 C 0.81433 0.50689 0.31721 0.0
C2009 C 0.83122 0.52538 0.32439 0.0
C2010 C 0.81443 0.49732 0.29362 0.0
C2011 C 0.85881 0.48982 0.24387 0.0
H2012 H 0.80286 0.45927 0.21076 0.0
C2013 C 0.87377 0.41642 0.17119 0.0
C2014 C 0.85477 0.40939 0.1549 0.0
C2015 C 0.87015 0.43455 0.18852 0.0
C2016 C 0.81877 0.46801 0.21933 0.0
H2017 H 0.8606 0.54901 0.31202 0.0
H2018 H 0.85996 0.53295 0.2706 0.0
H2019 H 0.79609 0.48435 0.24651 0.0
H2020 H 0.81787 0.41793 0.1424 0.0
H2021 H 0.81206 0.45108 0.17154 0.0
H2022 H 0.88161 0.47356 0.21755 0.0
C2023 C 0.84703 0.52562 0.28338 0.0
C2024 C 0.81484 0.4822 0.24018 0.0
C2025 C 0.84707 0.53512 0.307 0.0
C2026 C 0.83285 0.42277 0.15479 0.0
C2027 C 0.82938 0.4415 0.17192 0.0
C2028 C 0.86271 0.47572 0.22317 0.0
C2029 C 0.83144 0.50599 0.2766 0.0
C2030 C 0.83487 0.49302 0.25295 0.0
C2031 C 0.8476 0.447 0.1898 0.0
C2032 C 0.84288 0.46424 0.21057 0.0
H2033 H 0.8019 0.49888 0.33021 0.0
H2034 H 0.80222 0.48211 0.28926 0.0
H2035 H 0.87486 0.49737 0.2533 0.0
H2036 H 0.89108 0.40676 0.17171 0.0
H2037 H 0.88479 0.43754 0.20171 0.0
C2038 C 0.80913 0.58602 0.46093 0.0
C2039 C 0.80959 0.56143 0.45404 0.0
C2040 C 0.79723 0.59331 0.48223 0.0
C2041 C 0.75167 0.56932 0.52776 0.0
H2042 H 0.76858 0.62917 0.56194 0.0
C2043 C 0.70288 0.5944 0.61589 0.0
C2044 C 0.6929 0.61776 0.61661 0.0
C2045 C 0.72035 0.58822 0.59845 0.0
C2046 C 0.76368 0.61238 0.55257 0.0
H2047 H 0.79873 0.52515 0.46487 0.0
H2048 H 0.77906 0.5375 0.50171 0.0
H2049 H 0.79267 0.6169 0.52694 0.0
H2050 H 0.69476 0.65348 0.60084 0.0
H2051 H 0.72577 0.64284 0.57078 0.0
H2052 H 0.72295 0.56473 0.55361 0.0
C2053 C 0.78671 0.55156 0.49045 0.0
C2054 C 0.77738 0.60536 0.53228 0.0
C2055 C 0.79831 0.54435 0.46918 0.0
C2056 C 0.70196 0.63526 0.60057 0.0
C2057 C 0.71983 0.6292 0.58343 0.0
C2058 C 0.73842 0.57608 0.54823 0.0
C2059 C 0.78543 0.57622 0.49718 0.0
C2060 C 0.7715 0.58374 0.51938 0.0
C2061 C 0.72852 0.60535 0.58157 0.0
C2062 C 0.74408 0.59775 0.5608 0.0
H2063 H 0.81794 0.59965 0.44988 0.0
H2064 H 0.79716 0.61241 0.48671 0.0
H2065 H 0.74558 0.5531 0.51811 0.0
H2066 H 0.69638 0.58056 0.6281 0.0
H2067 H 0.727 0.5698 0.59776 0.0
C2068 C 0.49523 0.64282 0.63442 0.0
C2069 C 0.51711 0.63807 0.64731 0.0
C2070 C 0.48506 0.66592 0.63489 0.0
C2071 C 0.50271 0.72982 0.64445 0.0
H2072 H 0.43186 0.73927 0.64608 0.0
C2073 C 0.45983 0.8246 0.6547 0.0
C2074 C 0.43482 0.82779 0.64852 0.0
C2075 C 0.471 0.80217 0.65125 0.0
C2076 C 0.45168 0.73709 0.64492 0.0
H2077 H 0.54423 0.65289 0.67252 0.0
H2078 H 0.52656 0.69376 0.67334 0.0
H2079 H 0.44813 0.69875 0.64956 0.0
H2080 H 0.40284 0.81087 0.631 0.0
H2081 H 0.42272 0.77222 0.62345 0.0
H2082 H 0.50642 0.76797 0.63983 0.0
C2083 C 0.51765 0.6797 0.66236 0.0
C2084 C 0.46102 0.71374 0.64723 0.0
C2085 C 0.52782 0.65644 0.66188 0.0
C2086 C 0.42211 0.80897 0.63612 0.0
C2087 C 0.4334 0.78656 0.63234 0.0
C2088 C 0.49336 0.75318 0.6419 0.0
C2089 C 0.49644 0.6848 0.64842 0.0
C2090 C 0.48663 0.70981 0.64703 0.0
C2091 C 0.45754 0.78238 0.64117 0.0
C2092 C 0.46767 0.75724 0.64206 0.0
H2093 H 0.48659 0.62894 0.62299 0.0
H2094 H 0.46885 0.66922 0.62381 0.0
H2095 H 0.52255 0.7274 0.64395 0.0
H2096 H 0.47016 0.83882 0.66423 0.0
H2097 H 0.48957 0.80006 0.65832 0.0
C2098 C 0.44159 0.59346 0.217 0.0
C2099 C 0.43895 0.59522 0.19182 0.0
C2100 C 0.44909 0.57175 0.22732 0.0
C2101 C 0.46375 0.52108 0.24445 0.0
H2102 H 0.40905 0.48045 0.22112 0.0
C2103 C 0.4274 0.43895 0.29788 0.0
C2104 C 0.40423 0.44557 0.30715 0.0
C2105 C 0.43742 0.45114 0.27809 0.0
C2106 C 0.42486 0.49119 0.22741 0.0
H2107 H 0.44719 0.57775 0.15776 0.0
H2108 H 0.45913 0.53929 0.1756 0.0
H2109 H 0.42257 0.51529 0.19753 0.0
H2110 H 0.37261 0.46869 0.30145 0.0
H2111 H 0.38967 0.48902 0.26648 0.0
H2112 H 0.46516 0.49755 0.27495 0.0
C2113 C 0.45512 0.55454 0.1874 0.0
C2114 C 0.43265 0.5111 0.21394 0.0
C2115 C 0.44826 0.57656 0.17718 0.0
C2116 C 0.39039 0.46296 0.29476 0.0
C2117 C 0.40014 0.47465 0.27469 0.0
C2118 C 0.45639 0.50077 0.25761 0.0
C2119 C 0.45385 0.55147 0.21253 0.0
C2120 C 0.45136 0.52691 0.22291 0.0
C2121 C 0.42413 0.4696 0.26684 0.0
C2122 C 0.43615 0.48632 0.24973 0.0
H2123 H 0.43442 0.60754 0.22875 0.0
H2124 H 0.44799 0.56997 0.24676 0.0
H2125 H 0.47808 0.53306 0.25183 0.0
H2126 H 0.43868 0.4258 0.30706 0.0
H2127 H 0.45603 0.44704 0.27235 0.0
C2128 C 0.31568 0.60596 0.11064 0.0
C2129 C 0.33127 0.62644 0.11349 0.0
C2130 C 0.2975 0.60495 0.09263 0.0
C2131 C 0.26066 0.64182 0.05001 0.0
H2132 H 0.25084 0.5789 0.01926 0.0
C2133 C 0.1934 0.62218 0.96717 0.0
C2134 C 0.18451 0.5982 0.96471 0.0
C2135 C 0.20981 0.62862 0.98626 0.0
C2136 C 0.25281 0.59658 0.02784 0.0
H2137 H 0.33993 0.662 0.0994 0.0
H2138 H 0.3082 0.66 0.06726 0.0
H2139 H 0.28268 0.58424 0.0495 0.0
H2140 H 0.18228 0.56341 0.98236 0.0
H2141 H 0.20877 0.57489 0.01606 0.0
H2142 H 0.23031 0.65395 0.02805 0.0
C2143 C 0.30992 0.64489 0.07941 0.0
C2144 C 0.27134 0.59966 0.04528 0.0
C2145 C 0.32834 0.64588 0.09756 0.0
C2146 C 0.18967 0.58178 0.98317 0.0
C2147 C 0.20516 0.58834 0.00245 0.0
C2148 C 0.24179 0.63868 0.03246 0.0
C2149 C 0.29436 0.62429 0.07666 0.0
C2150 C 0.27535 0.62214 0.05693 0.0
C2151 C 0.21679 0.6113 0.00351 0.0
C2152 C 0.23732 0.61582 0.02147 0.0
H2153 H 0.31725 0.59066 0.12259 0.0
H2154 H 0.28564 0.58898 0.09148 0.0
H2155 H 0.2632 0.65941 0.05867 0.0
H2156 H 0.18902 0.6354 0.95358 0.0
H2157 H 0.21807 0.64662 0.98661 0.0
C2158 C 0.13447 0.54371 0.8281 0.0
C2159 C 0.15715 0.55409 0.8356 0.0
C2160 C 0.13277 0.52985 0.80685 0.0
C2161 C 0.17194 0.49813 0.76091 0.0
H2162 H 0.10855 0.49189 0.72808 0.0
C2163 C 0.11845 0.43017 0.68838 0.0
C2164 C 0.13851 0.42332 0.67393 0.0
C2165 C 0.12095 0.44889 0.70541 0.0
C2166 C 0.12645 0.49321 0.73694 0.0
H2167 H 0.19576 0.55872 0.82665 0.0
H2168 H 0.19241 0.53663 0.78805 0.0
H2169 H 0.11286 0.51891 0.76233 0.0
H2170 H 0.17619 0.4327 0.66429 0.0
H2171 H 0.18009 0.46668 0.69308 0.0
H2172 H 0.18543 0.4724 0.73511 0.0
C2173 C 0.17608 0.53808 0.7991 0.0
C2174 C 0.1289 0.50873 0.75695 0.0
C2175 C 0.17797 0.5512 0.82096 0.0
C2176 C 0.16042 0.43736 0.67526 0.0
C2177 C 0.16279 0.45656 0.69211 0.0
C2178 C 0.16954 0.48277 0.7406 0.0
C2179 C 0.15353 0.52673 0.79195 0.0
C2180 C 0.15158 0.51127 0.76952 0.0
C2181 C 0.14339 0.46192 0.70812 0.0
C2182 C 0.14667 0.47992 0.72842 0.0
H2183 H 0.11831 0.54503 0.83946 0.0
H2184 H 0.11522 0.52101 0.80266 0.0
H2185 H 0.1896 0.49896 0.77028 0.0
H2186 H 0.10117 0.41995 0.68778 0.0
H2187 H 0.10554 0.45216 0.71731 0.0
C2188 C 0.24021 0.37307 0.58792 0.0
C2189 C 0.22444 0.35303 0.58339 0.0
C2190 C 0.26047 0.37767 0.57297 0.0
C2191 C 0.29553 0.35151 0.51962 0.0
H2192 H 0.31078 0.41933 0.5094 0.0
C2193 C 0.35917 0.38448 0.44149 0.0
C2194 C 0.35187 0.40591 0.43008 0.0
C2195 C 0.34735 0.37671 0.46258 0.0
C2196 C 0.30663 0.40026 0.51181 0.0
H2197 H 0.21783 0.32189 0.55978 0.0
H2198 H 0.25215 0.33023 0.53337 0.0
H2199 H 0.28448 0.40805 0.54234 0.0
H2200 H 0.32586 0.4355 0.43163 0.0
H2201 H 0.30565 0.42223 0.4679 0.0
H2202 H 0.31745 0.34405 0.48847 0.0
C2203 C 0.24961 0.34227 0.54869 0.0
C2204 C 0.29165 0.39364 0.53112 0.0
C2205 C 0.22961 0.33751 0.56382 0.0
C2206 C 0.3321 0.41894 0.43986 0.0
C2207 C 0.32063 0.41142 0.46097 0.0
C2208 C 0.31057 0.35817 0.50025 0.0
C2209 C 0.26522 0.36267 0.5527 0.0
C2210 C 0.28484 0.36923 0.53475 0.0
C2211 C 0.32815 0.39033 0.47283 0.0
C2212 C 0.31543 0.38273 0.49545 0.0
H2213 H 0.23695 0.38521 0.60308 0.0
H2214 H 0.27225 0.39315 0.57739 0.0
H2215 H 0.29186 0.33241 0.52226 0.0
H2216 H 0.37438 0.37402 0.43448 0.0
H2217 H 0.35374 0.3604 0.47116 0.0
C2218 C 0.34829 0.41538 0.29037 0.0
C2219 C 0.36847 0.40181 0.2821 0.0
C2220 C 0.33861 0.43401 0.27628 0.0
C2221 C 0.3372 0.45685 0.21373 0.0
H2222 H 0.3371 0.52113 0.24285 0.0
C2223 C 0.34334 0.54225 0.15554 0.0
C2224 C 0.36699 0.55214 0.1606 0.0
C2225 C 0.33213 0.52637 0.17199 0.0
C2226 C 0.33621 0.50323 0.23456 0.0
H2227 H 0.39451 0.39753 0.25277 0.0
H2228 H 0.37797 0.43004 0.22862 0.0
H2229 H 0.33989 0.48564 0.26866 0.0
H2230 H 0.39673 0.55389 0.18735 0.0
H2231 H 0.37667 0.52825 0.21617 0.0
H2232 H 0.33543 0.47452 0.17955 0.0
C2233 C 0.3692 0.42592 0.24564 0.0
C2234 C 0.33788 0.48292 0.24931 0.0
C2235 C 0.3789 0.40749 0.25967 0.0
C2236 C 0.37822 0.54733 0.18304 0.0
C2237 C 0.36672 0.53246 0.19967 0.0
C2238 C 0.33519 0.47711 0.199 0.0
C2239 C 0.34885 0.43926 0.25365 0.0
C2240 C 0.33995 0.45968 0.23892 0.0
C2241 C 0.34406 0.52104 0.19401 0.0
C2242 C 0.33619 0.50053 0.20923 0.0
H2243 H 0.33974 0.41138 0.30751 0.0
H2244 H 0.32309 0.44423 0.28299 0.0
H2245 H 0.33836 0.43906 0.20529 0.0
H2246 H 0.33441 0.54532 0.13826 0.0
H2247 H 0.31476 0.51746 0.16712 0.0
C2248 C 0.32769 0.57304 0.02104 0.0
C2249 C 0.33813 0.591 0.03645 0.0
C2250 C 0.31355 0.57942 0.00087 0.0
C2251 C 0.29642 0.63274 0.96315 0.0
H2252 H 0.23777 0.59365 0.94895 0.0
C2253 C 0.21119 0.67265 0.91765 0.0
C2254 C 0.19605 0.65815 0.90239 0.0
C2255 C 0.2312 0.66269 0.92991 0.0
C2256 C 0.25424 0.60463 0.95233 0.0
H2257 H 0.34273 0.62975 0.04216 0.0
H2258 H 0.31675 0.64091 0.0082 0.0
H2259 H 0.26787 0.57952 0.97799 0.0
H2260 H 0.19021 0.6218 0.88774 0.0
H2261 H 0.22543 0.60438 0.90903 0.0
H2262 H 0.28227 0.65816 0.93788 0.0
C2263 C 0.32001 0.62185 0.01108 0.0
C2264 C 0.27162 0.59651 0.96911 0.0
C2265 C 0.33456 0.61546 0.03094 0.0
C2266 C 0.20145 0.63342 0.89953 0.0
C2267 C 0.22167 0.62346 0.91168 0.0
C2268 C 0.27896 0.64092 0.9465 0.0
C2269 C 0.30921 0.60393 0.99577 0.0
C2270 C 0.29251 0.61088 0.97544 0.0
C2271 C 0.23677 0.63799 0.92708 0.0
C2272 C 0.25719 0.6274 0.94157 0.0
H2273 H 0.33044 0.55399 0.02452 0.0
H2274 H 0.30602 0.56507 0.98932 0.0
H2275 H 0.31275 0.64386 0.96671 0.0
H2276 H 0.2075 0.69174 0.92032 0.0
H2277 H 0.24194 0.67431 0.94212 0.0
C2278 C 0.11695 0.48834 0.65615 0.0
C2279 C 0.13739 0.49317 0.64142 0.0
C2280 C 0.11186 0.50351 0.6759 0.0
C2281 C 0.14169 0.55052 0.71615 0.0
H2282 H 0.07395 0.563 0.73447 0.0
C2283 C 0.12183 0.60512 0.80214 0.0
C2284 C 0.10385 0.62313 0.8003 0.0
C2285 C 0.12403 0.58756 0.78396 0.0
C2286 C 0.09298 0.55987 0.72949 0.0
H2287 H 0.16879 0.51737 0.63609 0.0
H2288 H 0.16008 0.54363 0.67032 0.0
H2289 H 0.08205 0.53732 0.69936 0.0
H2290 H 0.07248 0.63532 0.77917 0.0
H2291 H 0.07585 0.60411 0.74784 0.0
H2292 H 0.15268 0.57384 0.74549 0.0
C2293 C 0.148 0.52809 0.66697 0.0
C2294 C 0.09765 0.54487 0.70949 0.0
C2295 C 0.15298 0.51305 0.6472 0.0
C2296 C 0.08657 0.6217 0.78111 0.0
C2297 C 0.08854 0.60378 0.76311 0.0
C2298 C 0.13702 0.56572 0.73588 0.0
C2299 C 0.12731 0.52365 0.68156 0.0
C2300 C 0.1221 0.53994 0.70258 0.0
C2301 C 0.10793 0.58707 0.76383 0.0
C2302 C 0.11262 0.5705 0.74294 0.0
H2303 H 0.10448 0.47327 0.65203 0.0
H2304 H 0.09588 0.49929 0.68677 0.0
H2305 H 0.16077 0.54675 0.71188 0.0
H2306 H 0.13548 0.60565 0.81662 0.0
H2307 H 0.13915 0.57507 0.78516 0.0
C2308 C 0.18597 0.38878 0.53815 0.0
C2309 C 0.19367 0.4108 0.54918 0.0
C2310 C 0.20039 0.37804 0.52002 0.0
C2311 C 0.24715 0.39765 0.47544 0.0
H2312 H 0.25732 0.32916 0.464 0.0
C2313 C 0.30807 0.36663 0.39674 0.0
C2314 C 0.32305 0.34639 0.40034 0.0
C2315 C 0.28932 0.37226 0.413 0.0
C2316 C 0.25485 0.34839 0.46698 0.0
H2317 H 0.22368 0.43726 0.55183 0.0
H2318 H 0.24816 0.41912 0.52041 0.0
H2319 H 0.23111 0.34226 0.49722 0.0
H2320 H 0.33 0.31609 0.42383 0.0
H2321 H 0.29807 0.32635 0.4527 0.0
H2322 H 0.27046 0.40417 0.44554 0.0
C2323 C 0.23104 0.41011 0.52525 0.0
C2324 C 0.23965 0.35588 0.48602 0.0
C2325 C 0.21699 0.42051 0.54344 0.0
C2326 C 0.31879 0.33185 0.42056 0.0
C2327 C 0.30023 0.33767 0.43704 0.0
C2328 C 0.26204 0.39023 0.4564 0.0
C2329 C 0.22256 0.3893 0.5126 0.0
C2330 C 0.2364 0.38066 0.49102 0.0
C2331 C 0.28532 0.35812 0.43367 0.0
C2332 C 0.26687 0.36554 0.45229 0.0
H2333 H 0.16804 0.38087 0.54218 0.0
H2334 H 0.19338 0.36188 0.51079 0.0
H2335 H 0.24432 0.41689 0.47809 0.0
H2336 H 0.31059 0.37803 0.38114 0.0
H2337 H 0.27793 0.38773 0.40917 0.0
C2338 C 0.47119 0.35267 0.42615 0.0
C2339 C 0.46575 0.3642 0.40424 0.0
C2340 C 0.49106 0.33673 0.4278 0.0
C2341 C 0.5479 0.31823 0.39477 0.0
H2342 H 0.53677 0.25601 0.4248 0.0
C2343 C 0.57642 0.23115 0.35226 0.0
C2344 C 0.58795 0.21272 0.36532 0.0
C2345 C 0.56827 0.25197 0.36383 0.0
C2346 C 0.54034 0.27348 0.41677 0.0
H2347 H 0.47698 0.36815 0.36697 0.0
H2348 H 0.51121 0.34046 0.3697 0.0
H2349 H 0.50749 0.28875 0.43156 0.0
H2350 H 0.60091 0.20223 0.40081 0.0
H2351 H 0.58484 0.2386 0.42165 0.0
H2352 H 0.57935 0.30213 0.37814 0.0
C2353 C 0.50055 0.34392 0.38582 0.0
C2354 C 0.52363 0.29229 0.42065 0.0
C2355 C 0.48064 0.35959 0.38412 0.0
C2356 C 0.59165 0.21593 0.39038 0.0
C2357 C 0.58268 0.23672 0.40223 0.0
C2358 C 0.56423 0.29935 0.39058 0.0
C2359 C 0.50604 0.33221 0.40764 0.0
C2360 C 0.52647 0.31441 0.40851 0.0
C2361 C 0.571 0.25491 0.3889 0.0
C2362 C 0.55972 0.27639 0.40035 0.0
H2363 H 0.46008 0.35592 0.44202 0.0
H2364 H 0.4948 0.32813 0.4449 0.0
H2365 H 0.55125 0.33535 0.38594 0.0
H2366 H 0.57364 0.22961 0.33287 0.0
H2367 H 0.55897 0.26549 0.35315 0.0
loop_
_geom_bond_atom_site_label_1
_geom_bond_atom_site_label_2
_geom_bond_distance
_geom_bond_site_symmetry_2
_ccdc_geom_bond_type
Zn0 O3 2.031 . S
Zn0 O5 2.049 . S
Zn0 O10 2.067 . S
Zn1 O2 1.962 . S
Zn1 O4 1.986 . S
Zn1 O6 1.996 . S
Zn1 O9 1.943 . S
O2 Zn1 1.962 . S
O2 C7 1.254 . S
O3 Zn0 2.031 . S
O3 C7 1.269 . S
O4 Zn1 1.986 . S
O4 C11 1.262 . S
O5 Zn0 2.049 . S
O5 C13 1.260 . S
O6 Zn1 1.996 . S
O6 C13 1.257 . S
C7 O2 1.254 . S
C7 O3 1.269 . S
C8 O9 1.249 . S
C8 O10 1.270 . S
O9 Zn1 1.943 . S
O9 C8 1.249 . S
O10 Zn0 2.067 . S
O10 C8 1.270 . S
C11 O4 1.262 . S
C11 O12 1.232 . S
O12 C11 1.232 . S
C13 O5 1.260 . S
C13 O6 1.257 . S
Zn14 O17 2.031 . S
Zn14 O19 2.049 . S
Zn14 O24 2.067 . S
Zn15 O16 1.962 . S
Zn15 O18 1.986 . S
Zn15 O20 1.996 . S
Zn15 O23 1.943 . S
O16 Zn15 1.962 . S
O16 C21 1.254 . S
O17 Zn14 2.031 . S
O17 C21 1.269 . S
O18 Zn15 1.986 . S
O18 C25 1.262 . S
O19 Zn14 2.049 . S
O19 C27 1.260 . S
O20 Zn15 1.996 . S
O20 C27 1.257 . S
C21 O16 1.254 . S
C21 O17 1.269 . S
C22 O23 1.249 . S
C22 O24 1.270 . S
O23 Zn15 1.943 . S
O23 C22 1.249 . S
O24 Zn14 2.067 . S
O24 C22 1.270 . S
C25 O18 1.262 . S
C25 O26 1.232 . S
O26 C25 1.232 . S
C27 O19 1.260 . S
C27 O20 1.257 . S
Zn28 O31 2.031 . S
Zn28 O33 2.049 . S
Zn28 O38 2.067 . S
Zn29 O30 1.962 . S
Zn29 O32 1.986 . S
Zn29 O34 1.996 . S
Zn29 O37 1.943 . S
O30 Zn29 1.962 . S
O30 C35 1.254 . S
O31 Zn28 2.031 . S
O31 C35 1.269 . S
O32 Zn29 1.986 . S
O32 C39 1.262 . S
O33 Zn28 2.049 . S
O33 C41 1.260 . S
O34 Zn29 1.996 . S
O34 C41 1.257 . S
C35 O30 1.254 . S
C35 O31 1.269 . S
C36 O37 1.249 . S
C36 O38 1.270 . S
O37 Zn29 1.943 . S
O37 C36 1.249 . S
O38 Zn28 2.067 . S
O38 C36 1.270 . S
C39 O32 1.262 . S
C39 O40 1.232 . S
O40 C39 1.232 . S
C41 O33 1.260 . S
C41 O34 1.257 . S
Zn42 O45 2.031 . S
Zn42 O47 2.049 . S
Zn42 O52 2.067 . S
Zn43 O44 1.962 . S
Zn43 O46 1.986 . S
Zn43 O48 1.996 . S
Zn43 O51 1.943 . S
O44 Zn43 1.962 . S
O44 C49 1.254 . S
O45 Zn42 2.031 . S
O45 C49 1.269 . S
O46 Zn43 1.986 . S
O46 C53 1.262 . S
O47 Zn42 2.049 . S
O47 C55 1.260 . S
O48 Zn43 1.996 . S
O48 C55 1.257 . S
C49 O44 1.254 . S
C49 O45 1.269 . S
C50 O51 1.249 . S
C50 O52 1.270 . S
O51 Zn43 1.943 . S
O51 C50 1.249 . S
O52 Zn42 2.067 . S
O52 C50 1.270 . S
C53 O46 1.262 . S
C53 O54 1.232 . S
O54 C53 1.232 . S
C55 O47 1.260 . S
C55 O48 1.257 . S
Zn56 O59 2.031 . S
Zn56 O61 2.049 . S
Zn56 O66 2.067 . S
Zn57 O58 1.962 . S
Zn57 O60 1.986 . S
Zn57 O62 1.996 . S
Zn57 O65 1.943 . S
O58 Zn57 1.962 . S
O58 C63 1.254 . S
O59 Zn56 2.031 . S
O59 C63 1.269 . S
O60 Zn57 1.986 . S
O60 C67 1.262 . S
O61 Zn56 2.049 . S
O61 C69 1.260 . S
O62 Zn57 1.996 . S
O62 C69 1.257 . S
C63 O58 1.254 . S
C63 O59 1.269 . S
C64 O65 1.249 . S
C64 O66 1.270 . S
O65 Zn57 1.943 . S
O65 C64 1.249 . S
O66 Zn56 2.067 . S
O66 C64 1.270 . S
C67 O60 1.262 . S
C67 O68 1.232 . S
O68 C67 1.232 . S
C69 O61 1.260 . S
C69 O62 1.257 . S
Zn70 O73 2.031 . S
Zn70 O75 2.049 . S
Zn70 O80 2.067 . S
Zn71 O72 1.962 . S
Zn71 O74 1.986 . S
Zn71 O76 1.996 . S
Zn71 O79 1.943 . S
O72 Zn71 1.962 . S
O72 C77 1.254 . S
O73 Zn70 2.031 . S
O73 C77 1.269 . S
O74 Zn71 1.986 . S
O74 C81 1.262 . S
O75 Zn70 2.049 . S
O75 C83 1.260 . S
O76 Zn71 1.996 . S
O76 C83 1.257 . S
C77 O72 1.254 . S
C77 O73 1.269 . S
C78 O79 1.249 . S
C78 O80 1.270 . S
O79 Zn71 1.943 . S
O79 C78 1.249 . S
O80 Zn70 2.067 . S
O80 C78 1.270 . S
C81 O74 1.262 . S
C81 O82 1.232 . S
O82 C81 1.232 . S
C83 O75 1.260 . S
C83 O76 1.257 . S
Zn84 O87 2.031 . S
Zn84 O89 2.049 . S
Zn84 O94 2.067 . S
Zn85 O86 1.962 . S
Zn85 O88 1.986 . S
Zn85 O90 1.996 . S
Zn85 O93 1.943 . S
O86 Zn85 1.962 . S
O86 C91 1.254 . S
O87 Zn84 2.031 . S
O87 C91 1.269 . S
O88 Zn85 1.986 . S
O88 C95 1.262 . S
O89 Zn84 2.049 . S
O89 C97 1.260 . S
O90 Zn85 1.996 . S
O90 C97 1.257 . S
C91 O86 1.254 . S
C91 O87 1.269 . S
C92 O93 1.249 . S
C92 O94 1.270 . S
O93 Zn85 1.943 . S
O93 C92 1.249 . S
O94 Zn84 2.067 . S
O94 C92 1.270 . S
C95 O88 1.262 . S
C95 O96 1.232 . S
O96 C95 1.232 . S
C97 O89 1.260 . S
C97 O90 1.257 . S
Zn98 O101 2.031 . S
Zn98 O103 2.049 . S
Zn98 O108 2.067 . S
Zn99 O100 1.962 . S
Zn99 O102 1.986 . S
Zn99 O104 1.996 . S
Zn99 O107 1.943 . S
O100 Zn99 1.962 . S
O100 C105 1.254 . S
O101 Zn98 2.031 . S
O101 C105 1.269 . S
O102 Zn99 1.986 . S
O102 C109 1.262 . S
O103 Zn98 2.049 . S
O103 C111 1.260 . S
O104 Zn99 1.996 . S
O104 C111 1.257 . S
C105 O100 1.254 . S
C105 O101 1.269 . S
C106 O107 1.249 . S
C106 O108 1.270 . S
O107 Zn99 1.943 . S
O107 C106 1.249 . S
O108 Zn98 2.067 . S
O108 C106 1.270 . S
C109 O102 1.262 . S
C109 O110 1.232 . S
O110 C109 1.232 . S
C111 O103 1.260 . S
C111 O104 1.257 . S
Zn112 O115 2.031 . S
Zn112 O117 2.049 . S
Zn112 O122 2.067 . S
Zn113 O114 1.962 . S
Zn113 O116 1.986 . S
Zn113 O118 1.996 . S
Zn113 O121 1.943 . S
O114 Zn113 1.962 . S
O114 C119 1.254 . S
O115 Zn112 2.031 . S
O115 C119 1.269 . S
O116 Zn113 1.986 . S
O116 C123 1.262 . S
O117 Zn112 2.049 . S
O117 C125 1.260 . S
O118 Zn113 1.996 . S
O118 C125 1.257 . S
C119 O114 1.254 . S
C119 O115 1.269 . S
C120 O121 1.249 . S
C120 O122 1.270 . S
O121 Zn113 1.943 . S
O121 C120 1.249 . S
O122 Zn112 2.067 . S
O122 C120 1.270 . S
C123 O116 1.262 . S
C123 O124 1.232 . S
O124 C123 1.232 . S
C125 O117 1.260 . S
C125 O118 1.257 . S
Zn126 O129 2.031 . S
Zn126 O131 2.049 . S
Zn126 O136 2.067 . S
Zn127 O128 1.962 . S
Zn127 O130 1.986 . S
Zn127 O132 1.996 . S
Zn127 O135 1.943 . S
O128 Zn127 1.962 . S
O128 C133 1.254 . S
O129 Zn126 2.031 . S
O129 C133 1.269 . S
O130 Zn127 1.986 . S
O130 C137 1.262 . S
O131 Zn126 2.049 . S
O131 C139 1.260 . S
O132 Zn127 1.996 . S
O132 C139 1.257 . S
C133 O128 1.254 . S
C133 O129 1.269 . S
C134 O135 1.249 . S
C134 O136 1.270 . S
O135 Zn127 1.943 . S
O135 C134 1.249 . S
O136 Zn126 2.067 . S
O136 C134 1.270 . S
C137 O130 1.262 . S
C137 O138 1.232 . S
O138 C137 1.232 . S
C139 O131 1.260 . S
C139 O132 1.257 . S
Zn140 O143 2.031 . S
Zn140 O145 2.049 . S
Zn140 O150 2.067 . S
Zn141 O142 1.962 . S
Zn141 O144 1.986 . S
Zn141 O146 1.996 . S
Zn141 O149 1.943 . S
O142 Zn141 1.962 . S
O142 C147 1.254 . S
O143 Zn140 2.031 . S
O143 C147 1.269 . S
O144 Zn141 1.986 . S
O144 C151 1.262 . S
O145 Zn140 2.049 . S
O145 C153 1.260 . S
O146 Zn141 1.996 . S
O146 C153 1.257 . S
C147 O142 1.254 . S
C147 O143 1.269 . S
C148 O149 1.249 . S
C148 O150 1.270 . S
O149 Zn141 1.943 . S
O149 C148 1.249 . S
O150 Zn140 2.067 . S
O150 C148 1.270 . S
C151 O144 1.262 . S
C151 O152 1.232 . S
O152 C151 1.232 . S
C153 O145 1.260 . S
C153 O146 1.257 . S
Zn154 O157 2.031 . S
Zn154 O159 2.049 . S
Zn154 O164 2.067 . S
Zn155 O156 1.962 . S
Zn155 O158 1.986 . S
Zn155 O160 1.996 . S
Zn155 O163 1.943 . S
O156 Zn155 1.962 . S
O156 C161 1.254 . S
O157 Zn154 2.031 . S
O157 C161 1.269 . S
O158 Zn155 1.986 . S
O158 C165 1.262 . S
O159 Zn154 2.049 . S
O159 C167 1.260 . S
O160 Zn155 1.996 . S
O160 C167 1.257 . S
C161 O156 1.254 . S
C161 O157 1.269 . S
C162 O163 1.249 . S
C162 O164 1.270 . S
O163 Zn155 1.943 . S
O163 C162 1.249 . S
O164 Zn154 2.067 . S
O164 C162 1.270 . S
C165 O158 1.262 . S
C165 O166 1.232 . S
O166 C165 1.232 . S
C167 O159 1.260 . S
C167 O160 1.257 . S
Zn168 O171 2.031 . S
Zn168 O173 2.049 . S
Zn168 O178 2.067 . S
Zn169 O170 1.962 . S
Zn169 O172 1.986 . S
Zn169 O174 1.996 . S
Zn169 O177 1.943 . S
O170 Zn169 1.962 . S
O170 C175 1.254 . S
O171 Zn168 2.031 . S
O171 C175 1.269 . S
O172 Zn169 1.986 . S
O172 C179 1.262 . S
O173 Zn168 2.049 . S
O173 C181 1.260 . S
O174 Zn169 1.996 . S
O174 C181 1.257 . S
C175 O170 1.254 . S
C175 O171 1.269 . S
C176 O177 1.249 . S
C176 O178 1.270 . S
O177 Zn169 1.943 . S
O177 C176 1.249 . S
O178 Zn168 2.067 . S
O178 C176 1.270 . S
C179 O172 1.262 . S
C179 O180 1.232 . S
O180 C179 1.232 . S
C181 O173 1.260 . S
C181 O174 1.257 . S
Zn182 O185 2.031 . S
Zn182 O187 2.049 . S
Zn182 O192 2.067 . S
Zn183 O184 1.962 . S
Zn183 O186 1.986 . S
Zn183 O188 1.996 . S
Zn183 O191 1.943 . S
O184 Zn183 1.962 . S
O184 C189 1.254 . S
O185 Zn182 2.031 . S
O185 C189 1.269 . S
O186 Zn183 1.986 . S
O186 C193 1.262 . S
O187 Zn182 2.049 . S
O187 C195 1.260 . S
O188 Zn183 1.996 . S
O188 C195 1.257 . S
C189 O184 1.254 . S
C189 O185 1.269 . S
C190 O191 1.249 . S
C190 O192 1.270 . S
O191 Zn183 1.943 . S
O191 C190 1.249 . S
O192 Zn182 2.067 . S
O192 C190 1.270 . S
C193 O186 1.262 . S
C193 O194 1.232 . S
O194 C193 1.232 . S
C195 O187 1.260 . S
C195 O188 1.257 . S
Zn196 O199 2.031 . S
Zn196 O201 2.049 . S
Zn196 O206 2.067 . S
Zn197 O198 1.962 . S
Zn197 O200 1.986 . S
Zn197 O202 1.996 . S
Zn197 O205 1.943 . S
O198 Zn197 1.962 . S
O198 C203 1.254 . S
O199 Zn196 2.031 . S
O199 C203 1.269 . S
O200 Zn197 1.986 . S
O200 C207 1.262 . S
O201 Zn196 2.049 . S
O201 C209 1.260 . S
O202 Zn197 1.996 . S
O202 C209 1.257 . S
C203 O198 1.254 . S
C203 O199 1.269 . S
C204 O205 1.249 . S
C204 O206 1.270 . S
O205 Zn197 1.943 . S
O205 C204 1.249 . S
O206 Zn196 2.067 . S
O206 C204 1.270 . S
C207 O200 1.262 . S
C207 O208 1.232 . S
O208 C207 1.232 . S
C209 O201 1.260 . S
C209 O202 1.257 . S
Zn210 O213 2.031 . S
Zn210 O215 2.049 . S
Zn210 O220 2.067 . S
Zn211 O212 1.962 . S
Zn211 O214 1.986 . S
Zn211 O216 1.996 . S
Zn211 O219 1.943 . S
O212 Zn211 1.962 . S
O212 C217 1.254 . S
O213 Zn210 2.031 . S
O213 C217 1.269 . S
O214 Zn211 1.986 . S
O214 C221 1.262 . S
O215 Zn210 2.049 . S
O215 C223 1.260 . S
O216 Zn211 1.996 . S
O216 C223 1.257 . S
C217 O212 1.254 . S
C217 O213 1.269 . S
C218 O219 1.249 . S
C218 O220 1.270 . S
O219 Zn211 1.943 . S
O219 C218 1.249 . S
O220 Zn210 2.067 . S
O220 C218 1.270 . S
C221 O214 1.262 . S
C221 O222 1.232 . S
O222 C221 1.232 . S
C223 O215 1.260 . S
C223 O216 1.257 . S
Zn224 O227 2.031 . S
Zn224 O229 2.049 . S
Zn224 O234 2.067 . S
Zn225 O226 1.962 . S
Zn225 O228 1.986 . S
Zn225 O230 1.996 . S
Zn225 O233 1.943 . S
O226 Zn225 1.962 . S
O226 C231 1.254 . S
O227 Zn224 2.031 . S
O227 C231 1.269 . S
O228 Zn225 1.986 . S
O228 C235 1.262 . S
O229 Zn224 2.049 . S
O229 C237 1.260 . S
O230 Zn225 1.996 . S
O230 C237 1.257 . S
C231 O226 1.254 . S
C231 O227 1.269 . S
C232 O233 1.249 . S
C232 O234 1.270 . S
O233 Zn225 1.943 . S
O233 C232 1.249 . S
O234 Zn224 2.067 . S
O234 C232 1.270 . S
C235 O228 1.262 . S
C235 O236 1.232 . S
O236 C235 1.232 . S
C237 O229 1.260 . S
C237 O230 1.257 . S
Zn238 O241 2.031 . S
Zn238 O243 2.049 . S
Zn238 O248 2.067 . S
Zn239 O240 1.962 . S
Zn239 O242 1.986 . S
Zn239 O244 1.996 . S
Zn239 O247 1.943 . S
O240 Zn239 1.962 . S
O240 C245 1.254 . S
O241 Zn238 2.031 . S
O241 C245 1.269 . S
O242 Zn239 1.986 . S
O242 C249 1.262 . S
O243 Zn238 2.049 . S
O243 C251 1.260 . S
O244 Zn239 1.996 . S
O244 C251 1.257 . S
C245 O240 1.254 . S
C245 O241 1.269 . S
C246 O247 1.249 . S
C246 O248 1.270 . S
O247 Zn239 1.943 . S
O247 C246 1.249 . S
O248 Zn238 2.067 . S
O248 C246 1.270 . S
C249 O242 1.262 . S
C249 O250 1.232 . S
O250 C249 1.232 . S
C251 O243 1.260 . S
C251 O244 1.257 . S
Zn252 O255 2.031 . S
Zn252 O257 2.049 . S
Zn252 O262 2.067 . S
Zn253 O254 1.962 . S
Zn253 O256 1.986 . S
Zn253 O258 1.996 . S
Zn253 O261 1.943 . S
O254 Zn253 1.962 . S
O254 C259 1.254 . S
O255 Zn252 2.031 . S
O255 C259 1.269 . S
O256 Zn253 1.986 . S
O256 C263 1.262 . S
O257 Zn252 2.049 . S
O257 C265 1.260 . S
O258 Zn253 1.996 . S
O258 C265 1.257 . S
C259 O254 1.254 . S
C259 O255 1.269 . S
C260 O261 1.249 . S
C260 O262 1.270 . S
O261 Zn253 1.943 . S
O261 C260 1.249 . S
O262 Zn252 2.067 . S
O262 C260 1.270 . S
C263 O256 1.262 . S
C263 O264 1.232 . S
O264 C263 1.232 . S
C265 O257 1.260 . S
C265 O258 1.257 . S
Zn266 O269 2.031 . S
Zn266 O271 2.049 . S
Zn266 O276 2.067 . S
Zn267 O268 1.962 . S
Zn267 O270 1.986 . S
Zn267 O272 1.996 . S
Zn267 O275 1.943 . S
O268 Zn267 1.962 . S
O268 C273 1.254 . S
O269 Zn266 2.031 . S
O269 C273 1.269 . S
O270 Zn267 1.986 . S
O270 C277 1.262 . S
O271 Zn266 2.049 . S
O271 C279 1.260 . S
O272 Zn267 1.996 . S
O272 C279 1.257 . S
C273 O268 1.254 . S
C273 O269 1.269 . S
C274 O275 1.249 . S
C274 O276 1.270 . S
O275 Zn267 1.943 . S
O275 C274 1.249 . S
O276 Zn266 2.067 . S
O276 C274 1.270 . S
C277 O270 1.262 . S
C277 O278 1.232 . S
O278 C277 1.232 . S
C279 O271 1.260 . S
C279 O272 1.257 . S
Zn280 O283 2.031 . S
Zn280 O285 2.049 . S
Zn280 O290 2.067 . S
Zn281 O282 1.962 . S
Zn281 O284 1.986 . S
Zn281 O286 1.996 . S
Zn281 O289 1.943 . S
O282 Zn281 1.962 . S
O282 C287 1.254 . S
O283 Zn280 2.031 . S
O283 C287 1.269 . S
O284 Zn281 1.986 . S
O284 C291 1.262 . S
O285 Zn280 2.049 . S
O285 C293 1.260 . S
O286 Zn281 1.996 . S
O286 C293 1.257 . S
C287 O282 1.254 . S
C287 O283 1.269 . S
C288 O289 1.249 . S
C288 O290 1.270 . S
O289 Zn281 1.943 . S
O289 C288 1.249 . S
O290 Zn280 2.067 . S
O290 C288 1.270 . S
C291 O284 1.262 . S
C291 O292 1.232 . S
O292 C291 1.232 . S
C293 O285 1.260 . S
C293 O286 1.257 . S
Zn294 O297 2.031 . S
Zn294 O299 2.049 . S
Zn294 O304 2.067 . S
Zn295 O296 1.962 . S
Zn295 O298 1.986 . S
Zn295 O300 1.996 . S
Zn295 O303 1.943 . S
O296 Zn295 1.962 . S
O296 C301 1.254 . S
O297 Zn294 2.031 . S
O297 C301 1.269 . S
O298 Zn295 1.986 . S
O298 C305 1.262 . S
O299 Zn294 2.049 . S
O299 C307 1.260 . S
O300 Zn295 1.996 . S
O300 C307 1.257 . S
C301 O296 1.254 . S
C301 O297 1.269 . S
C302 O303 1.249 . S
C302 O304 1.270 . S
O303 Zn295 1.943 . S
O303 C302 1.249 . S
O304 Zn294 2.067 . S
O304 C302 1.270 . S
C305 O298 1.262 . S
C305 O306 1.232 . S
O306 C305 1.232 . S
C307 O299 1.260 . S
C307 O300 1.257 . S
Zn308 O311 2.031 . S
Zn308 O313 2.049 . S
Zn308 O318 2.067 . S
Zn309 O310 1.962 . S
Zn309 O312 1.986 . S
Zn309 O314 1.996 . S
Zn309 O317 1.943 . S
O310 Zn309 1.962 . S
O310 C315 1.254 . S
O311 Zn308 2.031 . S
O311 C315 1.269 . S
O312 Zn309 1.986 . S
O312 C319 1.262 . S
O313 Zn308 2.049 . S
O313 C321 1.260 . S
O314 Zn309 1.996 . S
O314 C321 1.257 . S
C315 O310 1.254 . S
C315 O311 1.269 . S
C316 O317 1.249 . S
C316 O318 1.270 . S
O317 Zn309 1.943 . S
O317 C316 1.249 . S
O318 Zn308 2.067 . S
O318 C316 1.270 . S
C319 O312 1.262 . S
C319 O320 1.232 . S
O320 C319 1.232 . S
C321 O313 1.260 . S
C321 O314 1.257 . S
Zn322 O325 2.031 . S
Zn322 O327 2.049 . S
Zn322 O332 2.067 . S
Zn323 O324 1.962 . S
Zn323 O326 1.986 . S
Zn323 O328 1.996 . S
Zn323 O331 1.943 . S
O324 Zn323 1.962 . S
O324 C329 1.254 . S
O325 Zn322 2.031 . S
O325 C329 1.269 . S
O326 Zn323 1.986 . S
O326 C333 1.262 . S
O327 Zn322 2.049 . S
O327 C335 1.260 . S
O328 Zn323 1.996 . S
O328 C335 1.257 . S
C329 O324 1.254 . S
C329 O325 1.269 . S
C330 O331 1.249 . S
C330 O332 1.270 . S
O331 Zn323 1.943 . S
O331 C330 1.249 . S
O332 Zn322 2.067 . S
O332 C330 1.270 . S
C333 O326 1.262 . S
C333 O334 1.232 . S
O334 C333 1.232 . S
C335 O327 1.260 . S
C335 O328 1.257 . S
Zn336 O339 2.031 . S
Zn336 O341 2.049 . S
Zn336 O346 2.067 . S
Zn337 O338 1.962 . S
Zn337 O340 1.986 . S
Zn337 O342 1.996 . S
Zn337 O345 1.943 . S
O338 Zn337 1.962 . S
O338 C343 1.254 . S
O339 Zn336 2.031 . S
O339 C343 1.269 . S
O340 Zn337 1.986 . S
O340 C347 1.262 . S
O341 Zn336 2.049 . S
O341 C349 1.260 . S
O342 Zn337 1.996 . S
O342 C349 1.257 . S
C343 O338 1.254 . S
C343 O339 1.269 . S
C344 O345 1.249 . S
C344 O346 1.270 . S
O345 Zn337 1.943 . S
O345 C344 1.249 . S
O346 Zn336 2.067 . S
O346 C344 1.270 . S
C347 O340 1.262 . S
C347 O348 1.232 . S
O348 C347 1.232 . S
C349 O341 1.260 . S
C349 O342 1.257 . S
Zn350 O353 2.031 . S
Zn350 O355 2.049 . S
Zn350 O360 2.067 . S
Zn351 O352 1.962 . S
Zn351 O354 1.986 . S
Zn351 O356 1.996 . S
Zn351 O359 1.943 . S
O352 Zn351 1.962 . S
O352 C357 1.254 . S
O353 Zn350 2.031 . S
O353 C357 1.269 . S
O354 Zn351 1.986 . S
O354 C361 1.262 . S
O355 Zn350 2.049 . S
O355 C363 1.260 . S
O356 Zn351 1.996 . S
O356 C363 1.257 . S
C357 O352 1.254 . S
C357 O353 1.269 . S
C358 O359 1.249 . S
C358 O360 1.270 . S
O359 Zn351 1.943 . S
O359 C358 1.249 . S
O360 Zn350 2.067 . S
O360 C358 1.270 . S
C361 O354 1.262 . S
C361 O362 1.232 . S
O362 C361 1.232 . S
C363 O355 1.260 . S
C363 O356 1.257 . S
Zn364 O367 2.031 . S
Zn364 O369 2.049 . S
Zn364 O374 2.067 . S
Zn365 O366 1.962 . S
Zn365 O368 1.986 . S
Zn365 O370 1.996 . S
Zn365 O373 1.943 . S
O366 Zn365 1.962 . S
O366 C371 1.254 . S
O367 Zn364 2.031 . S
O367 C371 1.269 . S
O368 Zn365 1.986 . S
O368 C375 1.262 . S
O369 Zn364 2.049 . S
O369 C377 1.260 . S
O370 Zn365 1.996 . S
O370 C377 1.257 . S
C371 O366 1.254 . S
C371 O367 1.269 . S
C372 O373 1.249 . S
C372 O374 1.270 . S
O373 Zn365 1.943 . S
O373 C372 1.249 . S
O374 Zn364 2.067 . S
O374 C372 1.270 . S
C375 O368 1.262 . S
C375 O376 1.232 . S
O376 C375 1.232 . S
C377 O369 1.260 . S
C377 O370 1.257 . S
Zn378 O381 2.031 . S
Zn378 O383 2.049 . S
Zn378 O388 2.067 . S
Zn379 O380 1.962 . S
Zn379 O382 1.986 . S
Zn379 O384 1.996 . S
Zn379 O387 1.943 . S
O380 Zn379 1.962 . S
O380 C385 1.254 . S
O381 Zn378 2.031 . S
O381 C385 1.269 . S
O382 Zn379 1.986 . S
O382 C389 1.262 . S
O383 Zn378 2.049 . S
O383 C391 1.260 . S
O384 Zn379 1.996 . S
O384 C391 1.257 . S
C385 O380 1.254 . S
C385 O381 1.269 . S
C386 O387 1.249 . S
C386 O388 1.270 . S
O387 Zn379 1.943 . S
O387 C386 1.249 . S
O388 Zn378 2.067 . S
O388 C386 1.270 . S
C389 O382 1.262 . S
C389 O390 1.232 . S
O390 C389 1.232 . S
C391 O383 1.260 . S
C391 O384 1.257 . S
Zn392 O395 2.031 . S
Zn392 O397 2.049 . S
Zn392 O402 2.067 . S
Zn393 O394 1.962 . S
Zn393 O396 1.986 . S
Zn393 O398 1.996 . S
Zn393 O401 1.943 . S
O394 Zn393 1.962 . S
O394 C399 1.254 . S
O395 Zn392 2.031 . S
O395 C399 1.269 . S
O396 Zn393 1.986 . S
O396 C403 1.262 . S
O397 Zn392 2.049 . S
O397 C405 1.260 . S
O398 Zn393 1.996 . S
O398 C405 1.257 . S
C399 O394 1.254 . S
C399 O395 1.269 . S
C400 O401 1.249 . S
C400 O402 1.270 . S
O401 Zn393 1.943 . S
O401 C400 1.249 . S
O402 Zn392 2.067 . S
O402 C400 1.270 . S
C403 O396 1.262 . S
C403 O404 1.232 . S
O404 C403 1.232 . S
C405 O397 1.260 . S
C405 O398 1.257 . S
Zn406 O409 2.031 . S
Zn406 O411 2.049 . S
Zn406 O416 2.067 . S
Zn407 O408 1.962 . S
Zn407 O410 1.986 . S
Zn407 O412 1.996 . S
Zn407 O415 1.943 . S
O408 Zn407 1.962 . S
O408 C413 1.254 . S
O409 Zn406 2.031 . S
O409 C413 1.269 . S
O410 Zn407 1.986 . S
O410 C417 1.262 . S
O411 Zn406 2.049 . S
O411 C419 1.260 . S
O412 Zn407 1.996 . S
O412 C419 1.257 . S
C413 O408 1.254 . S
C413 O409 1.269 . S
C414 O415 1.249 . S
C414 O416 1.270 . S
O415 Zn407 1.943 . S
O415 C414 1.249 . S
O416 Zn406 2.067 . S
O416 C414 1.270 . S
C417 O410 1.262 . S
C417 O418 1.232 . S
O418 C417 1.232 . S
C419 O411 1.260 . S
C419 O412 1.257 . S
Zn420 O423 2.031 . S
Zn420 O425 2.049 . S
Zn420 O430 2.067 . S
Zn421 O422 1.962 . S
Zn421 O424 1.986 . S
Zn421 O426 1.996 . S
Zn421 O429 1.943 . S
O422 Zn421 1.962 . S
O422 C427 1.254 . S
O423 Zn420 2.031 . S
O423 C427 1.269 . S
O424 Zn421 1.986 . S
O424 C431 1.262 . S
O425 Zn420 2.049 . S
O425 C433 1.260 . S
O426 Zn421 1.996 . S
O426 C433 1.257 . S
C427 O422 1.254 . S
C427 O423 1.269 . S
C428 O429 1.249 . S
C428 O430 1.270 . S
O429 Zn421 1.943 . S
O429 C428 1.249 . S
O430 Zn420 2.067 . S
O430 C428 1.270 . S
C431 O424 1.262 . S
C431 O432 1.232 . S
O432 C431 1.232 . S
C433 O425 1.260 . S
C433 O426 1.257 . S
Zn434 O437 2.031 . S
Zn434 O439 2.049 . S
Zn434 O444 2.067 . S
Zn435 O436 1.962 . S
Zn435 O438 1.986 . S
Zn435 O440 1.996 . S
Zn435 O443 1.943 . S
O436 Zn435 1.962 . S
O436 C441 1.254 . S
O437 Zn434 2.031 . S
O437 C441 1.269 . S
O438 Zn435 1.986 . S
O438 C445 1.262 . S
O439 Zn434 2.049 . S
O439 C447 1.260 . S
O440 Zn435 1.996 . S
O440 C447 1.257 . S
C441 O436 1.254 . S
C441 O437 1.269 . S
C442 O443 1.249 . S
C442 O444 1.270 . S
O443 Zn435 1.943 . S
O443 C442 1.249 . S
O444 Zn434 2.067 . S
O444 C442 1.270 . S
C445 O438 1.262 . S
C445 O446 1.232 . S
O446 C445 1.232 . S
C447 O439 1.260 . S
C447 O440 1.257 . S
C448 C449 1.349 . S
C448 C450 1.327 . S
C448 H473 0.950 . S
C449 C448 1.349 . S
C449 C465 1.349 . S
C450 C448 1.327 . S
C450 C469 1.429 . S
C450 H474 0.950 . S
C451 C468 1.572 1_545 S
C451 C470 1.371 . S
C451 H475 0.948 1_545 S
H452 C456 0.949 . S
C453 C454 1.349 . S
C453 C455 1.327 . S
C453 H476 0.950 . S
C454 C453 1.349 . S
C454 C466 1.349 . S
C455 C453 1.327 . S
C455 C471 1.429 . S
C455 H477 0.950 . S
C456 H452 0.949 . S
C456 C464 1.574 . S
C456 C472 1.368 1_545 S
H457 C465 0.950 . S
H458 C463 0.950 . S
H459 C464 0.949 1_455 S
H460 C466 0.950 . S
H461 C467 0.952 . S
H462 C468 0.949 . S
C463 H458 0.950 . S
C463 C465 1.327 . S
C463 C469 1.429 . S
C464 C456 1.574 . S
C464 H459 0.949 1_655 S
C464 C470 1.368 1_556 S
C465 C449 1.349 . S
C465 H457 0.950 . S
C465 C463 1.327 . S
C466 C454 1.349 . S
C466 H460 0.950 . S
C466 C467 1.327 . S
C467 H461 0.952 . S
C467 C466 1.327 . S
C467 C471 1.429 . S
C468 C451 1.572 1_565 S
C468 H462 0.949 . S
C468 C472 1.368 1_554 S
C469 C450 1.429 . S
C469 C463 1.429 . S
C469 C470 1.524 1_455 S
C470 C451 1.371 . S
C470 C464 1.368 1_554 S
C470 C469 1.524 1_655 S
C471 C455 1.429 . S
C471 C467 1.429 . S
C471 C472 1.523 . S
C472 C456 1.368 1_565 S
C472 C468 1.368 1_556 S
C472 C471 1.523 . S
H473 C448 0.950 . S
H474 C450 0.950 . S
H475 C451 0.948 1_565 S
H476 C453 0.950 . S
H477 C455 0.950 . S
C478 C479 1.349 . S
C478 C480 1.327 . S
C478 H503 0.950 . S
C479 C478 1.349 . S
C479 C495 1.349 . S
C480 C478 1.327 . S
C480 C499 1.429 . S
C480 H504 0.950 . S
C481 C498 1.574 . S
C481 C500 1.368 . S
C481 H505 0.949 . S
H482 C486 0.949 . S
C483 C484 1.349 . S
C483 C485 1.327 . S
C483 H506 0.950 . S
C484 C483 1.349 . S
C484 C496 1.349 . S
C485 C483 1.327 . S
C485 C501 1.429 . S
C485 H507 0.950 . S
C486 H482 0.949 . S
C486 C494 1.574 . S
C486 C502 1.368 . S
H487 C495 0.950 . S
H488 C493 0.950 . S
H489 C494 0.949 . S
H490 C496 0.950 . S
H491 C497 0.950 . S
H492 C498 0.949 . S
C493 H488 0.950 . S
C493 C495 1.327 . S
C493 C499 1.429 . S
C494 C486 1.574 . S
C494 H489 0.949 . S
C494 C500 1.368 . S
C495 C479 1.349 . S
C495 H487 0.950 . S
C495 C493 1.327 . S
C496 C484 1.349 . S
C496 H490 0.950 . S
C496 C497 1.327 . S
C497 H491 0.950 . S
C497 C496 1.327 . S
C497 C501 1.429 . S
C498 C481 1.574 . S
C498 H492 0.949 . S
C498 C502 1.368 . S
C499 C480 1.429 . S
C499 C493 1.429 . S
C499 C500 1.523 . S
C500 C481 1.368 . S
C500 C494 1.368 . S
C500 C499 1.523 . S
C501 C485 1.429 . S
C501 C497 1.429 . S
C501 C502 1.523 . S
C502 C486 1.368 . S
C502 C498 1.368 . S
C502 C501 1.523 . S
H503 C478 0.950 . S
H504 C480 0.950 . S
H505 C481 0.949 . S
H506 C483 0.950 . S
H507 C485 0.950 . S
C508 C509 1.349 . S
C508 C510 1.327 . S
C508 H533 0.950 . S
C509 C508 1.349 . S
C509 C525 1.349 . S
C510 C508 1.327 . S
C510 C529 1.429 . S
C510 H534 0.950 . S
C511 C528 1.574 . S
C511 C530 1.368 . S
C511 H535 0.949 . S
H512 C516 0.949 . S
C513 C514 1.349 . S
C513 C515 1.327 . S
C513 H536 0.950 . S
C514 C513 1.349 . S
C514 C526 1.349 . S
C515 C513 1.327 . S
C515 C531 1.429 . S
C515 H537 0.950 . S
C516 H512 0.949 . S
C516 C524 1.574 . S
C516 C532 1.368 . S
H517 C525 0.950 . S
H518 C523 0.950 . S
H519 C524 0.949 . S
H520 C526 0.950 . S
H521 C527 0.950 . S
H522 C528 0.949 . S
C523 H518 0.950 . S
C523 C525 1.327 . S
C523 C529 1.429 . S
C524 C516 1.574 . S
C524 H519 0.949 . S
C524 C530 1.368 1_545 S
C525 C509 1.349 . S
C525 H517 0.950 . S
C525 C523 1.327 . S
C526 C514 1.349 . S
C526 H520 0.950 . S
C526 C527 1.327 . S
C527 H521 0.950 . S
C527 C526 1.327 . S
C527 C531 1.429 . S
C528 C511 1.574 . S
C528 H522 0.949 . S
C528 C532 1.368 1_565 S
C529 C510 1.429 . S
C529 C523 1.429 . S
C529 C530 1.523 . S
C530 C511 1.368 . S
C530 C524 1.368 1_565 S
C530 C529 1.523 . S
C531 C515 1.429 . S
C531 C527 1.429 . S
C531 C532 1.523 . S
C532 C516 1.368 . S
C532 C528 1.368 1_545 S
C532 C531 1.523 . S
H533 C508 0.950 . S
H534 C510 0.950 . S
H535 C511 0.949 . S
H536 C513 0.950 . S
H537 C515 0.950 . S
C538 C539 1.349 . S
C538 C540 1.327 . S
C538 H563 0.950 . S
C539 C538 1.349 . S
C539 C555 1.349 . S
C540 C538 1.327 . S
C540 C559 1.429 . S
C540 H564 0.950 . S
C541 C558 1.574 . S
C541 C560 1.368 . S
C541 H565 0.949 . S
H542 C546 0.949 . S
C543 C544 1.349 . S
C543 C545 1.327 . S
C543 H566 0.950 . S
C544 C543 1.349 . S
C544 C556 1.349 . S
C545 C543 1.327 . S
C545 C561 1.429 . S
C545 H567 0.950 . S
C546 H542 0.949 . S
C546 C554 1.574 . S
C546 C562 1.368 . S
H547 C555 0.950 . S
H548 C553 0.950 . S
H549 C554 0.949 . S
H550 C556 0.950 . S
H551 C557 0.950 . S
H552 C558 0.949 . S
C553 H548 0.950 . S
C553 C555 1.327 . S
C553 C559 1.429 . S
C554 C546 1.574 . S
C554 H549 0.949 . S
C554 C560 1.368 . S
C555 C539 1.349 . S
C555 H547 0.950 . S
C555 C553 1.327 . S
C556 C544 1.349 . S
C556 H550 0.950 . S
C556 C557 1.327 . S
C557 H551 0.950 . S
C557 C556 1.327 . S
C557 C561 1.429 . S
C558 C541 1.574 . S
C558 H552 0.949 . S
C558 C562 1.368 . S
C559 C540 1.429 . S
C559 C553 1.429 . S
C559 C560 1.523 . S
C560 C541 1.368 . S
C560 C554 1.368 . S
C560 C559 1.523 . S
C561 C545 1.429 . S
C561 C557 1.429 . S
C561 C562 1.523 . S
C562 C546 1.368 . S
C562 C558 1.368 . S
C562 C561 1.523 . S
H563 C538 0.950 . S
H564 C540 0.950 . S
H565 C541 0.949 . S
H566 C543 0.950 . S
H567 C545 0.950 . S
C568 C569 1.349 . S
C568 C570 1.327 . S
C568 H593 0.950 . S
C569 C568 1.349 . S
C569 C585 1.349 . S
C570 C568 1.327 . S
C570 C589 1.429 . S
C570 H594 0.950 . S
C571 C588 1.574 . S
C571 C590 1.368 1_655 S
C571 H595 0.949 . S
H572 C576 0.949 . S
C573 C574 1.349 . S
C573 C575 1.327 . S
C573 H596 0.950 . S
C574 C573 1.349 . S
C574 C586 1.349 . S
C575 C573 1.327 . S
C575 C591 1.429 . S
C575 H597 0.950 . S
C576 H572 0.949 . S
C576 C584 1.574 1_545 S
C576 C592 1.368 1_455 S
H577 C585 0.950 . S
H578 C583 0.950 . S
H579 C584 0.949 . S
H580 C586 0.950 . S
H581 C587 0.950 . S
H582 C588 0.945 1_545 S
C583 H578 0.950 . S
C583 C585 1.327 . S
C583 C589 1.429 . S
C584 C576 1.574 1_565 S
C584 H579 0.949 . S
C584 C590 1.368 . S
C585 C569 1.349 . S
C585 H577 0.950 . S
C585 C583 1.327 . S
C586 C574 1.349 . S
C586 H580 0.950 . S
C586 C587 1.327 . S
C587 H581 0.950 . S
C587 C586 1.327 . S
C587 C591 1.429 . S
C588 C571 1.574 . S
C588 H582 0.945 1_565 S
C588 C592 1.368 1_565 S
C589 C570 1.429 . S
C589 C583 1.429 . S
C589 C590 1.523 . S
C590 C571 1.368 1_455 S
C590 C584 1.368 . S
C590 C589 1.523 . S
C591 C575 1.429 . S
C591 C587 1.429 . S
C591 C592 1.523 . S
C592 C576 1.368 1_655 S
C592 C588 1.368 1_545 S
C592 C591 1.523 . S
H593 C568 0.950 . S
H594 C570 0.950 . S
H595 C571 0.949 . S
H596 C573 0.950 . S
H597 C575 0.950 . S
C598 C599 1.349 . S
C598 C600 1.327 . S
C598 H623 0.950 . S
C599 C598 1.349 . S
C599 C615 1.349 . S
C600 C598 1.327 . S
C600 C619 1.429 . S
C600 H624 0.950 . S
C601 C618 1.574 . S
C601 C620 1.368 . S
C601 H625 0.949 . S
H602 C606 0.949 . S
C603 C604 1.349 . S
C603 C605 1.327 . S
C603 H626 0.950 . S
C604 C603 1.349 . S
C604 C616 1.349 . S
C605 C603 1.327 . S
C605 C621 1.429 . S
C605 H627 0.950 . S
C606 H602 0.949 . S
C606 C614 1.574 . S
C606 C622 1.368 . S
H607 C615 0.950 . S
H608 C613 0.950 . S
H609 C614 0.949 . S
H610 C616 0.950 . S
H611 C617 0.950 . S
H612 C618 0.949 . S
C613 H608 0.950 . S
C613 C615 1.327 . S
C613 C619 1.429 . S
C614 C606 1.574 . S
C614 H609 0.949 . S
C614 C620 1.368 . S
C615 C599 1.349 . S
C615 H607 0.950 . S
C615 C613 1.327 . S
C616 C604 1.349 . S
C616 H610 0.950 . S
C616 C617 1.327 . S
C617 H611 0.950 . S
C617 C616 1.327 . S
C617 C621 1.429 . S
C618 C601 1.574 . S
C618 H612 0.949 . S
C618 C622 1.368 . S
C619 C600 1.429 . S
C619 C613 1.429 . S
C619 C620 1.523 . S
C620 C601 1.368 . S
C620 C614 1.368 . S
C620 C619 1.523 . S
C621 C605 1.429 . S
C621 C617 1.429 . S
C621 C622 1.523 . S
C622 C606 1.368 . S
C622 C618 1.368 . S
C622 C621 1.523 . S
H623 C598 0.950 . S
H624 C600 0.950 . S
H625 C601 0.949 . S
H626 C603 0.950 . S
H627 C605 0.950 . S
C628 C629 1.349 . S
C628 C630 1.327 . S
C628 H653 0.950 . S
C629 C628 1.349 . S
C629 C645 1.349 . S
C630 C628 1.327 . S
C630 C649 1.429 . S
C630 H654 0.950 1_545 S
C631 C648 1.574 1_556 S
C631 C650 1.368 . S
C631 H655 0.949 . S
H632 C636 0.949 . S
C633 C634 1.349 . S
C633 C635 1.327 . S
C633 H656 0.950 . S
C634 C633 1.349 . S
C634 C646 1.349 . S
C635 C633 1.327 . S
C635 C651 1.429 . S
C635 H657 0.950 . S
C636 H632 0.949 . S
C636 C644 1.574 . S
C636 C652 1.368 1_556 S
H637 C645 0.950 . S
H638 C643 0.950 . S
H639 C644 0.949 . S
H640 C646 0.950 . S
H641 C647 0.950 . S
H642 C648 0.949 . S
C643 H638 0.950 . S
C643 C645 1.327 . S
C643 C649 1.429 . S
C644 C636 1.574 . S
C644 H639 0.949 . S
C644 C650 1.368 1_565 S
C645 C629 1.349 . S
C645 H637 0.950 . S
C645 C643 1.327 . S
C646 C634 1.349 . S
C646 H640 0.950 . S
C646 C647 1.327 . S
C647 H641 0.950 . S
C647 C646 1.327 . S
C647 C651 1.429 . S
C648 C631 1.574 1_554 S
C648 H642 0.949 . S
C648 C652 1.368 1_545 S
C649 C630 1.429 . S
C649 C643 1.429 . S
C649 C650 1.523 . S
C650 C631 1.368 . S
C650 C644 1.368 1_545 S
C650 C649 1.523 . S
C651 C635 1.429 . S
C651 C647 1.429 . S
C651 C652 1.523 . S
C652 C636 1.368 1_554 S
C652 C648 1.368 1_565 S
C652 C651 1.523 . S
H653 C628 0.950 . S
H654 C630 0.950 1_565 S
H655 C631 0.949 . S
H656 C633 0.950 . S
H657 C635 0.950 . S
C658 C659 1.349 . S
C658 C660 1.327 . S
C658 H683 0.950 . S
C659 C658 1.349 . S
C659 C675 1.349 . S
C660 C658 1.327 . S
C660 C679 1.429 . S
C660 H684 0.950 . S
C661 C678 1.574 . S
C661 C680 1.368 . S
C661 H685 0.949 . S
H662 C666 0.949 . S
C663 C664 1.349 . S
C663 C665 1.327 . S
C663 H686 0.950 . S
C664 C663 1.349 . S
C664 C676 1.349 . S
C665 C663 1.327 . S
C665 C681 1.429 . S
C665 H687 0.950 . S
C666 H662 0.949 . S
C666 C674 1.574 . S
C666 C682 1.368 . S
H667 C675 0.950 . S
H668 C673 0.950 . S
H669 C674 0.949 . S
H670 C676 0.950 . S
H671 C677 0.950 . S
H672 C678 0.949 . S
C673 H668 0.950 . S
C673 C675 1.327 . S
C673 C679 1.429 . S
C674 C666 1.574 . S
C674 H669 0.949 . S
C674 C680 1.368 . S
C675 C659 1.349 . S
C675 H667 0.950 . S
C675 C673 1.327 . S
C676 C664 1.349 . S
C676 H670 0.950 . S
C676 C677 1.327 . S
C677 H671 0.950 . S
C677 C676 1.327 . S
C677 C681 1.429 . S
C678 C661 1.574 . S
C678 H672 0.949 . S
C678 C682 1.368 . S
C679 C660 1.429 . S
C679 C673 1.429 . S
C679 C680 1.523 . S
C680 C661 1.368 . S
C680 C674 1.368 . S
C680 C679 1.523 . S
C681 C665 1.429 . S
C681 C677 1.429 . S
C681 C682 1.523 . S
C682 C666 1.368 . S
C682 C678 1.368 . S
C682 C681 1.523 . S
H683 C658 0.950 . S
H684 C660 0.950 . S
H685 C661 0.949 . S
H686 C663 0.950 . S
H687 C665 0.950 . S
C688 C689 1.349 . S
C688 C690 1.327 . S
C688 H713 0.950 . S
C689 C688 1.349 . S
C689 C705 1.349 . S
C690 C688 1.327 . S
C690 C709 1.429 . S
C690 H714 0.950 . S
C691 C708 1.574 1_554 S
C691 C710 1.368 . S
C691 H715 0.949 . S
H692 C696 0.949 . S
C693 C694 1.349 . S
C693 C695 1.327 . S
C693 H716 0.950 . S
C694 C693 1.349 . S
C694 C706 1.349 . S
C695 C693 1.327 . S
C695 C711 1.429 . S
C695 H717 0.950 . S
C696 H692 0.949 . S
C696 C704 1.574 1_556 S
C696 C712 1.368 . S
H697 C705 0.950 . S
H698 C703 0.950 . S
H699 C704 0.949 . S
H700 C706 0.950 . S
H701 C707 0.950 . S
H702 C708 0.949 . S
C703 H698 0.950 . S
C703 C705 1.327 . S
C703 C709 1.429 . S
C704 C696 1.574 1_554 S
C704 H699 0.949 . S
C704 C710 1.368 . S
C705 C689 1.349 . S
C705 H697 0.950 . S
C705 C703 1.327 . S
C706 C694 1.349 . S
C706 H700 0.950 . S
C706 C707 1.327 . S
C707 H701 0.950 . S
C707 C706 1.327 . S
C707 C711 1.429 . S
C708 C691 1.574 1_556 S
C708 H702 0.949 . S
C708 C712 1.368 . S
C709 C690 1.429 . S
C709 C703 1.429 . S
C709 C710 1.523 . S
C710 C691 1.368 . S
C710 C704 1.368 . S
C710 C709 1.523 . S
C711 C695 1.429 . S
C711 C707 1.429 . S
C711 C712 1.523 . S
C712 C696 1.368 . S
C712 C708 1.368 . S
C712 C711 1.523 . S
H713 C688 0.950 . S
H714 C690 0.950 . S
H715 C691 0.949 . S
H716 C693 0.950 . S
H717 C695 0.950 . S
C718 C719 1.349 . S
C718 C720 1.327 . S
C718 H743 0.950 . S
C719 C718 1.349 . S
C719 C735 1.349 . S
C720 C718 1.327 . S
C720 C739 1.429 . S
C720 H744 0.950 . S
C721 C738 1.574 . S
C721 C740 1.368 . S
C721 H745 0.949 . S
H722 C726 0.949 . S
C723 C724 1.349 . S
C723 C725 1.327 . S
C723 H746 0.950 . S
C724 C723 1.349 . S
C724 C736 1.349 . S
C725 C723 1.327 . S
C725 C741 1.429 . S
C725 H747 0.950 . S
C726 H722 0.949 . S
C726 C734 1.574 . S
C726 C742 1.368 . S
H727 C735 0.950 . S
H728 C733 0.950 . S
H729 C734 0.949 . S
H730 C736 0.950 . S
H731 C737 0.950 . S
H732 C738 0.949 . S
C733 H728 0.950 . S
C733 C735 1.327 . S
C733 C739 1.429 . S
C734 C726 1.574 . S
C734 H729 0.949 . S
C734 C740 1.368 . S
C735 C719 1.349 . S
C735 H727 0.950 . S
C735 C733 1.327 . S
C736 C724 1.349 . S
C736 H730 0.950 . S
C736 C737 1.327 . S
C737 H731 0.950 . S
C737 C736 1.327 . S
C737 C741 1.429 . S
C738 C721 1.574 . S
C738 H732 0.949 . S
C738 C742 1.368 . S
C739 C720 1.429 . S
C739 C733 1.429 . S
C739 C740 1.523 . S
C740 C721 1.368 . S
C740 C734 1.368 . S
C740 C739 1.523 . S
C741 C725 1.429 . S
C741 C737 1.429 . S
C741 C742 1.523 . S
C742 C726 1.368 . S
C742 C738 1.368 . S
C742 C741 1.523 . S
H743 C718 0.950 . S
H744 C720 0.950 . S
H745 C721 0.949 . S
H746 C723 0.950 . S
H747 C725 0.950 . S
C748 C749 1.349 . S
C748 C750 1.327 . S
C748 H773 0.950 . S
C749 C748 1.349 . S
C749 C765 1.349 . S
C750 C748 1.327 . S
C750 C769 1.429 . S
C750 H774 0.950 . S
C751 C768 1.574 . S
C751 C770 1.368 . S
C751 H775 0.949 . S
H752 C756 0.949 . S
C753 C754 1.349 . S
C753 C755 1.327 . S
C753 H776 0.950 . S
C754 C753 1.349 . S
C754 C766 1.349 . S
C755 C753 1.327 . S
C755 C771 1.429 . S
C755 H777 0.950 . S
C756 H752 0.949 . S
C756 C764 1.590 . S
C756 C772 1.368 . S
H757 C765 0.950 . S
H758 C763 0.950 . S
H759 C764 0.950 . S
H760 C766 0.950 . S
H761 C767 0.950 . S
H762 C768 0.949 . S
C763 H758 0.950 . S
C763 C765 1.327 . S
C763 C769 1.429 . S
C764 C756 1.590 . S
C764 H759 0.950 . S
C764 C770 1.352 1_655 S
C765 C749 1.349 . S
C765 H757 0.950 . S
C765 C763 1.327 . S
C766 C754 1.349 . S
C766 H760 0.950 . S
C766 C767 1.327 . S
C767 H761 0.950 . S
C767 C766 1.327 . S
C767 C771 1.429 . S
C768 C751 1.574 . S
C768 H762 0.949 . S
C768 C772 1.368 1_455 S
C769 C750 1.429 . S
C769 C763 1.429 . S
C769 C770 1.523 . S
C770 C751 1.368 . S
C770 C764 1.352 1_455 S
C770 C769 1.523 . S
C771 C755 1.429 . S
C771 C767 1.429 . S
C771 C772 1.523 . S
C772 C756 1.368 . S
C772 C768 1.368 1_655 S
C772 C771 1.523 . S
H773 C748 0.950 . S
H774 C750 0.950 . S
H775 C751 0.949 . S
H776 C753 0.950 . S
H777 C755 0.950 . S
C778 C779 1.349 . S
C778 C780 1.327 . S
C778 H803 0.950 . S
C779 C778 1.349 . S
C779 C795 1.349 . S
C780 C778 1.327 . S
C780 C799 1.429 . S
C780 H804 0.950 . S
C781 C798 1.574 . S
C781 C800 1.368 . S
C781 H805 0.949 . S
H782 C786 0.949 . S
C783 C784 1.349 . S
C783 C785 1.327 . S
C783 H806 0.950 . S
C784 C783 1.349 . S
C784 C796 1.349 . S
C785 C783 1.327 . S
C785 C801 1.429 . S
C785 H807 0.950 . S
C786 H782 0.949 . S
C786 C794 1.574 . S
C786 C802 1.368 . S
H787 C795 0.950 . S
H788 C793 0.950 . S
H789 C794 0.949 . S
H790 C796 0.950 . S
H791 C797 0.950 . S
H792 C798 0.949 . S
C793 H788 0.950 . S
C793 C795 1.327 . S
C793 C799 1.429 . S
C794 C786 1.574 . S
C794 H789 0.949 . S
C794 C800 1.368 . S
C795 C779 1.349 . S
C795 H787 0.950 . S
C795 C793 1.327 . S
C796 C784 1.349 . S
C796 H790 0.950 . S
C796 C797 1.327 . S
C797 H791 0.950 . S
C797 C796 1.327 . S
C797 C801 1.429 . S
C798 C781 1.574 . S
C798 H792 0.949 . S
C798 C802 1.368 . S
C799 C780 1.429 . S
C799 C793 1.429 . S
C799 C800 1.523 . S
C800 C781 1.368 . S
C800 C794 1.368 . S
C800 C799 1.523 . S
C801 C785 1.429 . S
C801 C797 1.429 . S
C801 C802 1.523 . S
C802 C786 1.368 . S
C802 C798 1.368 . S
C802 C801 1.523 . S
H803 C778 0.950 . S
H804 C780 0.950 . S
H805 C781 0.949 . S
H806 C783 0.950 . S
H807 C785 0.950 . S
C808 C809 1.349 . S
C808 C810 1.327 . S
C808 H833 0.950 . S
C809 C808 1.349 . S
C809 C825 1.349 . S
C810 C808 1.327 . S
C810 C829 1.429 . S
C810 H834 0.950 . S
C811 C828 1.574 . S
C811 C830 1.368 . S
C811 H835 0.949 . S
H812 C816 0.949 . S
C813 C814 1.349 . S
C813 C815 1.327 . S
C813 H836 0.950 . S
C814 C813 1.349 . S
C814 C826 1.349 . S
C815 C813 1.327 . S
C815 C831 1.429 . S
C815 H837 0.950 . S
C816 H812 0.949 . S
C816 C824 1.574 . S
C816 C832 1.368 . S
H817 C825 0.950 . S
H818 C823 0.950 . S
H819 C824 0.949 . S
H820 C826 0.950 . S
H821 C827 0.950 . S
H822 C828 0.949 . S
C823 H818 0.950 . S
C823 C825 1.327 . S
C823 C829 1.429 . S
C824 C816 1.574 . S
C824 H819 0.949 . S
C824 C830 1.368 . S
C825 C809 1.349 . S
C825 H817 0.950 . S
C825 C823 1.327 . S
C826 C814 1.349 . S
C826 H820 0.950 . S
C826 C827 1.327 . S
C827 H821 0.950 . S
C827 C826 1.327 . S
C827 C831 1.429 . S
C828 C811 1.574 . S
C828 H822 0.949 . S
C828 C832 1.368 . S
C829 C810 1.429 . S
C829 C823 1.429 . S
C829 C830 1.523 . S
C830 C811 1.368 . S
C830 C824 1.368 . S
C830 C829 1.523 . S
C831 C815 1.429 . S
C831 C827 1.429 . S
C831 C832 1.523 . S
C832 C816 1.368 . S
C832 C828 1.368 . S
C832 C831 1.523 . S
H833 C808 0.950 . S
H834 C810 0.950 . S
H835 C811 0.949 . S
H836 C813 0.950 . S
H837 C815 0.950 . S
C838 C839 1.349 . S
C838 C840 1.327 . S
C838 H863 0.950 . S
C839 C838 1.349 . S
C839 C855 1.349 . S
C840 C838 1.327 . S
C840 C859 1.429 . S
C840 H864 0.950 . S
C841 C858 1.574 . S
C841 C860 1.368 . S
C841 H865 0.949 . S
H842 C846 0.949 . S
C843 C844 1.349 . S
C843 C845 1.327 . S
C843 H866 0.950 . S
C844 C843 1.349 . S
C844 C856 1.349 . S
C845 C843 1.327 . S
C845 C861 1.429 . S
C845 H867 0.950 . S
C846 H842 0.949 . S
C846 C854 1.574 . S
C846 C862 1.368 . S
H847 C855 0.950 . S
H848 C853 0.950 . S
H849 C854 0.949 . S
H850 C856 0.950 . S
H851 C857 0.950 . S
H852 C858 0.949 . S
C853 H848 0.950 . S
C853 C855 1.327 . S
C853 C859 1.429 . S
C854 C846 1.574 . S
C854 H849 0.949 . S
C854 C860 1.368 . S
C855 C839 1.349 . S
C855 H847 0.950 . S
C855 C853 1.327 . S
C856 C844 1.349 . S
C856 H850 0.950 . S
C856 C857 1.327 . S
C857 H851 0.950 . S
C857 C856 1.327 . S
C857 C861 1.429 . S
C858 C841 1.574 . S
C858 H852 0.949 . S
C858 C862 1.368 . S
C859 C840 1.429 . S
C859 C853 1.429 . S
C859 C860 1.523 . S
C860 C841 1.368 . S
C860 C854 1.368 . S
C860 C859 1.523 . S
C861 C845 1.429 . S
C861 C857 1.429 . S
C861 C862 1.523 . S
C862 C846 1.368 . S
C862 C858 1.368 . S
C862 C861 1.523 . S
H863 C838 0.950 . S
H864 C840 0.950 . S
H865 C841 0.949 . S
H866 C843 0.950 . S
H867 C845 0.950 . S
C868 C869 1.349 . S
C868 C870 1.327 . S
C868 H893 0.950 . S
C869 C868 1.349 . S
C869 C885 1.349 . S
C870 C868 1.327 . S
C870 C889 1.429 . S
C870 H894 0.950 . S
C871 C888 1.574 . S
C871 C890 1.368 . S
C871 H895 0.949 . S
H872 C876 0.949 . S
C873 C874 1.349 . S
C873 C875 1.327 . S
C873 H896 0.950 . S
C874 C873 1.349 . S
C874 C886 1.349 . S
C875 C873 1.327 . S
C875 C891 1.429 . S
C875 H897 0.950 . S
C876 H872 0.949 . S
C876 C884 1.574 . S
C876 C892 1.368 . S
H877 C885 0.950 . S
H878 C883 0.950 . S
H879 C884 0.949 . S
H880 C886 0.950 . S
H881 C887 0.950 . S
H882 C888 0.949 . S
C883 H878 0.950 . S
C883 C885 1.327 . S
C883 C889 1.429 . S
C884 C876 1.574 . S
C884 H879 0.949 . S
C884 C890 1.368 . S
C885 C869 1.349 . S
C885 H877 0.950 . S
C885 C883 1.327 . S
C886 C874 1.349 . S
C886 H880 0.950 . S
C886 C887 1.327 . S
C887 H881 0.950 . S
C887 C886 1.327 . S
C887 C891 1.429 . S
C888 C871 1.574 . S
C888 H882 0.949 . S
C888 C892 1.368 . S
C889 C870 1.429 . S
C889 C883 1.429 . S
C889 C890 1.523 . S
C890 C871 1.368 . S
C890 C884 1.368 . S
C890 C889 1.523 . S
C891 C875 1.429 . S
C891 C887 1.429 . S
C891 C892 1.523 . S
C892 C876 1.368 . S
C892 C888 1.368 . S
C892 C891 1.523 . S
H893 C868 0.950 . S
H894 C870 0.950 . S
H895 C871 0.949 . S
H896 C873 0.950 . S
H897 C875 0.950 . S
C898 C899 1.349 . S
C898 C900 1.327 . S
C898 H923 0.950 . S
C899 C898 1.349 . S
C899 C915 1.349 . S
C900 C898 1.327 . S
C900 C919 1.429 . S
C900 H924 0.950 . S
C901 C918 1.574 . S
C901 C920 1.368 . S
C901 H925 0.949 . S
H902 C906 0.949 . S
C903 C904 1.349 . S
C903 C905 1.327 . S
C903 H926 0.950 . S
C904 C903 1.349 . S
C904 C916 1.349 . S
C905 C903 1.327 . S
C905 C921 1.429 . S
C905 H927 0.950 . S
C906 H902 0.949 . S
C906 C914 1.574 . S
C906 C922 1.368 . S
H907 C915 0.950 . S
H908 C913 0.950 . S
H909 C914 0.949 . S
H910 C916 0.950 . S
H911 C917 0.950 . S
H912 C918 0.960 . S
C913 H908 0.950 . S
C913 C915 1.327 . S
C913 C919 1.429 . S
C914 C906 1.574 . S
C914 H909 0.949 . S
C914 C920 1.368 1_554 S
C915 C899 1.349 . S
C915 H907 0.950 . S
C915 C913 1.327 . S
C916 C904 1.349 . S
C916 H910 0.950 . S
C916 C917 1.327 . S
C917 H911 0.950 . S
C917 C916 1.327 . S
C917 C921 1.429 . S
C918 C901 1.574 . S
C918 H912 0.960 . S
C918 C922 1.368 1_556 S
C919 C900 1.429 . S
C919 C913 1.429 . S
C919 C920 1.523 . S
C920 C901 1.368 . S
C920 C914 1.368 1_556 S
C920 C919 1.523 . S
C921 C905 1.429 . S
C921 C917 1.429 . S
C921 C922 1.523 1_655 S
C922 C906 1.368 . S
C922 C918 1.368 1_554 S
C922 C921 1.523 1_455 S
H923 C898 0.950 . S
H924 C900 0.950 . S
H925 C901 0.949 . S
H926 C903 0.950 . S
H927 C905 0.950 . S
C928 C929 1.349 . S
C928 C930 1.327 . S
C928 H953 0.950 . S
C929 C928 1.349 . S
C929 C945 1.349 . S
C930 C928 1.327 . S
C930 C949 1.429 . S
C930 H954 0.950 . S
C931 C948 1.574 . S
C931 C950 1.368 . S
C931 H955 0.949 . S
H932 C936 0.949 . S
C933 C934 1.349 . S
C933 C935 1.327 . S
C933 H956 0.950 . S
C934 C933 1.349 . S
C934 C946 1.349 . S
C935 C933 1.327 . S
C935 C951 1.429 . S
C935 H957 0.950 . S
C936 H932 0.949 . S
C936 C944 1.574 1_565 S
C936 C952 1.368 . S
H937 C945 0.950 . S
H938 C943 0.950 1_565 S
H939 C944 0.949 . S
H940 C946 0.950 . S
H941 C947 0.950 . S
H942 C948 0.949 . S
C943 H938 0.950 1_545 S
C943 C945 1.327 . S
C943 C949 1.429 . S
C944 C936 1.574 1_545 S
C944 H939 0.949 . S
C944 C950 1.368 1_545 S
C945 C929 1.349 . S
C945 H937 0.950 . S
C945 C943 1.327 . S
C946 C934 1.349 . S
C946 H940 0.950 . S
C946 C947 1.327 . S
C947 H941 0.950 . S
C947 C946 1.327 . S
C947 C951 1.429 . S
C948 C931 1.574 . S
C948 H942 0.949 . S
C948 C952 1.368 . S
C949 C930 1.429 . S
C949 C943 1.429 . S
C949 C950 1.523 1_545 S
C950 C931 1.368 . S
C950 C944 1.368 1_565 S
C950 C949 1.523 1_565 S
C951 C935 1.429 . S
C951 C947 1.429 . S
C951 C952 1.523 . S
C952 C936 1.368 . S
C952 C948 1.368 . S
C952 C951 1.523 . S
H953 C928 0.950 . S
H954 C930 0.950 . S
H955 C931 0.949 . S
H956 C933 0.950 . S
H957 C935 0.950 . S
C958 C959 1.349 . S
C958 C960 1.327 . S
C958 H983 0.950 . S
C959 C958 1.349 . S
C959 C975 1.349 . S
C960 C958 1.327 . S
C960 C979 1.429 . S
C960 H984 0.950 . S
C961 C978 1.574 . S
C961 C980 1.368 . S
C961 H985 0.949 . S
H962 C966 0.949 . S
C963 C964 1.349 . S
C963 C965 1.327 . S
C963 H986 0.950 . S
C964 C963 1.349 . S
C964 C976 1.349 . S
C965 C963 1.327 . S
C965 C981 1.429 . S
C965 H987 0.950 . S
C966 H962 0.949 . S
C966 C974 1.574 . S
C966 C982 1.368 . S
H967 C975 0.950 . S
H968 C973 0.950 . S
H969 C974 0.949 . S
H970 C976 0.950 . S
H971 C977 0.950 . S
H972 C978 0.949 . S
C973 H968 0.950 . S
C973 C975 1.327 . S
C973 C979 1.429 . S
C974 C966 1.574 . S
C974 H969 0.949 . S
C974 C980 1.368 . S
C975 C959 1.349 . S
C975 H967 0.950 . S
C975 C973 1.327 . S
C976 C964 1.349 . S
C976 H970 0.950 . S
C976 C977 1.327 . S
C977 H971 0.950 . S
C977 C976 1.327 . S
C977 C981 1.429 . S
C978 C961 1.574 . S
C978 H972 0.949 . S
C978 C982 1.368 . S
C979 C960 1.429 . S
C979 C973 1.429 . S
C979 C980 1.523 . S
C980 C961 1.368 . S
C980 C974 1.368 . S
C980 C979 1.523 . S
C981 C965 1.429 . S
C981 C977 1.429 . S
C981 C982 1.523 . S
C982 C966 1.368 . S
C982 C978 1.368 . S
C982 C981 1.523 . S
H983 C958 0.950 . S
H984 C960 0.950 . S
H985 C961 0.949 . S
H986 C963 0.950 . S
H987 C965 0.950 . S
C988 C989 1.349 . S
C988 C990 1.327 . S
C988 H1013 0.950 . S
C989 C988 1.349 . S
C989 C1005 1.349 . S
C990 C988 1.327 . S
C990 C1009 1.429 . S
C990 H1014 0.950 . S
C991 C1008 1.574 . S
C991 C1010 1.368 . S
C991 H1015 0.949 . S
H992 C996 0.949 . S
C993 C994 1.349 . S
C993 C995 1.327 . S
C993 H1016 0.950 . S
C994 C993 1.349 . S
C994 C1006 1.349 . S
C995 C993 1.327 . S
C995 C1011 1.429 . S
C995 H1017 0.950 1_565 S
C996 H992 0.949 . S
C996 C1004 1.574 1_565 S
C996 C1012 1.368 1_565 S
H997 C1005 0.950 . S
H998 C1003 0.950 . S
H999 C1004 0.949 . S
H1000 C1006 0.950 . S
H1001 C1007 0.950 . S
H1002 C1008 0.949 . S
C1003 H998 0.950 . S
C1003 C1005 1.327 . S
C1003 C1009 1.429 . S
C1004 C996 1.574 1_545 S
C1004 H999 0.949 . S
C1004 C1010 1.368 . S
C1005 C989 1.349 . S
C1005 H997 0.950 . S
C1005 C1003 1.327 . S
C1006 C994 1.349 . S
C1006 H1000 0.950 . S
C1006 C1007 1.327 . S
C1007 H1001 0.950 . S
C1007 C1006 1.327 . S
C1007 C1011 1.429 . S
C1008 C991 1.574 . S
C1008 H1002 0.949 . S
C1008 C1012 1.368 . S
C1009 C990 1.429 . S
C1009 C1003 1.429 . S
C1009 C1010 1.523 . S
C1010 C991 1.368 . S
C1010 C1004 1.368 . S
C1010 C1009 1.523 . S
C1011 C995 1.429 . S
C1011 C1007 1.429 . S
C1011 C1012 1.523 1_565 S
C1012 C996 1.368 1_545 S
C1012 C1008 1.368 . S
C1012 C1011 1.523 1_545 S
H1013 C988 0.950 . S
H1014 C990 0.950 . S
H1015 C991 0.949 . S
H1016 C993 0.950 . S
H1017 C995 0.950 1_545 S
C1018 C1019 1.349 . S
C1018 C1020 1.327 . S
C1018 H1043 0.950 . S
C1019 C1018 1.349 . S
C1019 C1035 1.349 . S
C1020 C1018 1.327 . S
C1020 C1039 1.429 . S
C1020 H1044 0.950 . S
C1021 C1038 1.574 . S
C1021 C1040 1.368 . S
C1021 H1045 0.949 . S
H1022 C1026 0.949 . S
C1023 C1024 1.349 . S
C1023 C1025 1.327 . S
C1023 H1046 0.950 . S
C1024 C1023 1.349 . S
C1024 C1036 1.349 . S
C1025 C1023 1.327 . S
C1025 C1041 1.429 . S
C1025 H1047 0.950 . S
C1026 H1022 0.949 . S
C1026 C1034 1.574 . S
C1026 C1042 1.368 . S
H1027 C1035 0.950 . S
H1028 C1033 0.950 . S
H1029 C1034 0.949 . S
H1030 C1036 0.950 . S
H1031 C1037 0.950 . S
H1032 C1038 0.949 1_554 S
C1033 H1028 0.950 . S
C1033 C1035 1.327 . S
C1033 C1039 1.429 . S
C1034 C1026 1.574 . S
C1034 H1029 0.949 . S
C1034 C1040 1.368 . S
C1035 C1019 1.349 . S
C1035 H1027 0.950 . S
C1035 C1033 1.327 . S
C1036 C1024 1.349 . S
C1036 H1030 0.950 . S
C1036 C1037 1.327 . S
C1037 H1031 0.950 . S
C1037 C1036 1.327 . S
C1037 C1041 1.429 . S
C1038 C1021 1.574 . S
C1038 H1032 0.949 1_556 S
C1038 C1042 1.368 . S
C1039 C1020 1.429 . S
C1039 C1033 1.429 . S
C1039 C1040 1.523 . S
C1040 C1021 1.368 . S
C1040 C1034 1.368 . S
C1040 C1039 1.523 . S
C1041 C1025 1.429 . S
C1041 C1037 1.429 . S
C1041 C1042 1.523 1_554 S
C1042 C1026 1.368 . S
C1042 C1038 1.368 . S
C1042 C1041 1.523 1_556 S
H1043 C1018 0.950 . S
H1044 C1020 0.950 . S
H1045 C1021 0.949 . S
H1046 C1023 0.950 . S
H1047 C1025 0.950 . S
C1048 C1049 1.349 . S
C1048 C1050 1.327 . S
C1048 H1073 0.950 . S
C1049 C1048 1.349 . S
C1049 C1065 1.349 . S
C1050 C1048 1.327 . S
C1050 C1069 1.429 . S
C1050 H1074 0.950 . S
C1051 C1068 1.574 . S
C1051 C1070 1.368 . S
C1051 H1075 0.949 . S
H1052 C1056 0.949 . S
C1053 C1054 1.349 . S
C1053 C1055 1.327 . S
C1053 H1076 0.950 . S
C1054 C1053 1.349 . S
C1054 C1066 1.349 . S
C1055 C1053 1.327 . S
C1055 C1071 1.429 . S
C1055 H1077 0.950 1_565 S
C1056 H1052 0.949 . S
C1056 C1064 1.574 1_565 S
C1056 C1072 1.368 1_565 S
H1057 C1065 0.950 . S
H1058 C1063 0.950 . S
H1059 C1064 0.949 . S
H1060 C1066 0.950 . S
H1061 C1067 0.950 . S
H1062 C1068 0.949 . S
C1063 H1058 0.950 . S
C1063 C1065 1.327 . S
C1063 C1069 1.429 . S
C1064 C1056 1.574 1_545 S
C1064 H1059 0.949 . S
C1064 C1070 1.368 . S
C1065 C1049 1.349 . S
C1065 H1057 0.950 . S
C1065 C1063 1.327 . S
C1066 C1054 1.349 . S
C1066 H1060 0.950 . S
C1066 C1067 1.327 . S
C1067 H1061 0.950 . S
C1067 C1066 1.327 . S
C1067 C1071 1.429 . S
C1068 C1051 1.574 . S
C1068 H1062 0.949 . S
C1068 C1072 1.368 . S
C1069 C1050 1.429 . S
C1069 C1063 1.429 . S
C1069 C1070 1.523 . S
C1070 C1051 1.368 . S
C1070 C1064 1.368 . S
C1070 C1069 1.523 . S
C1071 C1055 1.429 . S
C1071 C1067 1.429 . S
C1071 C1072 1.523 1_565 S
C1072 C1056 1.368 1_545 S
C1072 C1068 1.368 . S
C1072 C1071 1.523 1_545 S
H1073 C1048 0.950 . S
H1074 C1050 0.950 . S
H1075 C1051 0.949 . S
H1076 C1053 0.950 . S
H1077 C1055 0.950 1_545 S
C1078 C1079 1.349 . S
C1078 C1080 1.327 . S
C1078 H1103 0.950 . S
C1079 C1078 1.349 . S
C1079 C1095 1.349 . S
C1080 C1078 1.327 . S
C1080 C1099 1.429 . S
C1080 H1104 0.950 . S
C1081 C1098 1.574 . S
C1081 C1100 1.368 . S
C1081 H1105 0.949 . S
H1082 C1086 0.949 . S
C1083 C1084 1.349 . S
C1083 C1085 1.327 . S
C1083 H1106 0.950 . S
C1084 C1083 1.349 . S
C1084 C1096 1.349 . S
C1085 C1083 1.327 . S
C1085 C1101 1.429 . S
C1085 H1107 0.950 . S
C1086 H1082 0.949 . S
C1086 C1094 1.574 . S
C1086 C1102 1.368 . S
H1087 C1095 0.950 . S
H1088 C1093 0.950 . S
H1089 C1094 0.949 . S
H1090 C1096 0.950 . S
H1091 C1097 0.950 . S
H1092 C1098 0.949 . S
C1093 H1088 0.950 . S
C1093 C1095 1.327 . S
C1093 C1099 1.429 . S
C1094 C1086 1.574 . S
C1094 H1089 0.949 . S
C1094 C1100 1.368 . S
C1095 C1079 1.349 . S
C1095 H1087 0.950 . S
C1095 C1093 1.327 . S
C1096 C1084 1.349 . S
C1096 H1090 0.950 . S
C1096 C1097 1.327 . S
C1097 H1091 0.950 . S
C1097 C1096 1.327 . S
C1097 C1101 1.429 . S
C1098 C1081 1.574 . S
C1098 H1092 0.949 . S
C1098 C1102 1.368 . S
C1099 C1080 1.429 . S
C1099 C1093 1.429 . S
C1099 C1100 1.523 . S
C1100 C1081 1.368 . S
C1100 C1094 1.368 . S
C1100 C1099 1.523 . S
C1101 C1085 1.429 . S
C1101 C1097 1.429 . S
C1101 C1102 1.523 . S
C1102 C1086 1.368 . S
C1102 C1098 1.368 . S
C1102 C1101 1.523 . S
H1103 C1078 0.950 . S
H1104 C1080 0.950 . S
H1105 C1081 0.949 . S
H1106 C1083 0.950 . S
H1107 C1085 0.950 . S
C1108 C1109 1.349 . S
C1108 C1110 1.327 . S
C1108 H1133 0.950 . S
C1109 C1108 1.349 . S
C1109 C1125 1.349 . S
C1110 C1108 1.327 . S
C1110 C1129 1.429 . S
C1110 H1134 0.950 . S
C1111 C1128 1.574 . S
C1111 C1130 1.368 . S
C1111 H1135 0.949 . S
H1112 C1116 0.949 . S
C1113 C1114 1.349 . S
C1113 C1115 1.327 . S
C1113 H1136 0.950 . S
C1114 C1113 1.349 . S
C1114 C1126 1.349 . S
C1115 C1113 1.327 . S
C1115 C1131 1.429 . S
C1115 H1137 0.950 . S
C1116 H1112 0.949 . S
C1116 C1124 1.574 . S
C1116 C1132 1.368 . S
H1117 C1125 0.950 . S
H1118 C1123 0.950 . S
H1119 C1124 0.949 . S
H1120 C1126 0.950 . S
H1121 C1127 0.950 . S
H1122 C1128 0.949 . S
C1123 H1118 0.950 . S
C1123 C1125 1.327 . S
C1123 C1129 1.429 . S
C1124 C1116 1.574 . S
C1124 H1119 0.949 . S
C1124 C1130 1.368 . S
C1125 C1109 1.349 . S
C1125 H1117 0.950 . S
C1125 C1123 1.327 . S
C1126 C1114 1.349 . S
C1126 H1120 0.950 . S
C1126 C1127 1.327 . S
C1127 H1121 0.950 . S
C1127 C1126 1.327 . S
C1127 C1131 1.429 . S
C1128 C1111 1.574 . S
C1128 H1122 0.949 . S
C1128 C1132 1.368 . S
C1129 C1110 1.429 . S
C1129 C1123 1.429 . S
C1129 C1130 1.523 1_545 S
C1130 C1111 1.368 . S
C1130 C1124 1.368 . S
C1130 C1129 1.523 1_565 S
C1131 C1115 1.429 . S
C1131 C1127 1.429 . S
C1131 C1132 1.523 . S
C1132 C1116 1.368 . S
C1132 C1128 1.368 . S
C1132 C1131 1.523 . S
H1133 C1108 0.950 . S
H1134 C1110 0.950 . S
H1135 C1111 0.949 . S
H1136 C1113 0.950 . S
H1137 C1115 0.950 . S
C1138 C1139 1.349 . S
C1138 C1140 1.327 . S
C1138 H1163 0.950 . S
C1139 C1138 1.349 . S
C1139 C1155 1.349 . S
C1140 C1138 1.327 . S
C1140 C1159 1.429 . S
C1140 H1164 0.950 . S
C1141 C1158 1.574 1_556 S
C1141 C1160 1.368 . S
C1141 H1165 0.949 . S
H1142 C1146 0.949 . S
C1143 C1144 1.349 . S
C1143 C1145 1.327 . S
C1143 H1166 0.950 . S
C1144 C1143 1.349 . S
C1144 C1156 1.349 . S
C1145 C1143 1.327 . S
C1145 C1161 1.429 . S
C1145 H1167 0.950 . S
C1146 H1142 0.949 . S
C1146 C1154 1.574 . S
C1146 C1162 1.368 . S
H1147 C1155 0.950 . S
H1148 C1153 0.950 . S
H1149 C1154 0.949 . S
H1150 C1156 0.950 . S
H1151 C1157 0.950 . S
H1152 C1158 0.949 . S
C1153 H1148 0.950 . S
C1153 C1155 1.327 . S
C1153 C1159 1.429 . S
C1154 C1146 1.574 . S
C1154 H1149 0.949 . S
C1154 C1160 1.368 1_554 S
C1155 C1139 1.349 . S
C1155 H1147 0.950 . S
C1155 C1153 1.327 . S
C1156 C1144 1.349 . S
C1156 H1150 0.950 . S
C1156 C1157 1.327 . S
C1157 H1151 0.950 . S
C1157 C1156 1.327 . S
C1157 C1161 1.429 . S
C1158 C1141 1.574 1_554 S
C1158 H1152 0.949 . S
C1158 C1162 1.368 . S
C1159 C1140 1.429 . S
C1159 C1153 1.429 . S
C1159 C1160 1.523 . S
C1160 C1141 1.368 . S
C1160 C1154 1.368 1_556 S
C1160 C1159 1.523 . S
C1161 C1145 1.429 . S
C1161 C1157 1.429 . S
C1161 C1162 1.523 . S
C1162 C1146 1.368 . S
C1162 C1158 1.368 . S
C1162 C1161 1.523 . S
H1163 C1138 0.950 . S
H1164 C1140 0.950 . S
H1165 C1141 0.949 . S
H1166 C1143 0.950 . S
H1167 C1145 0.950 . S
C1168 C1169 1.349 . S
C1168 C1170 1.327 . S
C1168 H1193 0.950 . S
C1169 C1168 1.349 . S
C1169 C1185 1.349 . S
C1170 C1168 1.327 . S
C1170 C1189 1.429 . S
C1170 H1194 0.950 . S
C1171 C1188 1.574 . S
C1171 C1190 1.368 . S
C1171 H1195 0.949 . S
H1172 C1176 0.949 . S
C1173 C1174 1.349 . S
C1173 C1175 1.327 . S
C1173 H1196 0.950 . S
C1174 C1173 1.349 . S
C1174 C1186 1.349 . S
C1175 C1173 1.327 . S
C1175 C1191 1.429 . S
C1175 H1197 0.950 . S
C1176 H1172 0.949 . S
C1176 C1184 1.574 . S
C1176 C1192 1.368 . S
H1177 C1185 0.950 . S
H1178 C1183 0.950 . S
H1179 C1184 0.949 . S
H1180 C1186 0.950 . S
H1181 C1187 0.950 . S
H1182 C1188 0.949 . S
C1183 H1178 0.950 . S
C1183 C1185 1.327 . S
C1183 C1189 1.429 . S
C1184 C1176 1.574 . S
C1184 H1179 0.949 . S
C1184 C1190 1.368 . S
C1185 C1169 1.349 . S
C1185 H1177 0.950 . S
C1185 C1183 1.327 . S
C1186 C1174 1.349 . S
C1186 H1180 0.950 . S
C1186 C1187 1.327 . S
C1187 H1181 0.950 . S
C1187 C1186 1.327 . S
C1187 C1191 1.429 . S
C1188 C1171 1.574 . S
C1188 H1182 0.949 . S
C1188 C1192 1.368 . S
C1189 C1170 1.429 . S
C1189 C1183 1.429 . S
C1189 C1190 1.523 . S
C1190 C1171 1.368 . S
C1190 C1184 1.368 . S
C1190 C1189 1.523 . S
C1191 C1175 1.429 . S
C1191 C1187 1.429 . S
C1191 C1192 1.523 1_455 S
C1192 C1176 1.368 . S
C1192 C1188 1.368 . S
C1192 C1191 1.523 1_655 S
H1193 C1168 0.950 . S
H1194 C1170 0.950 . S
H1195 C1171 0.949 . S
H1196 C1173 0.950 . S
H1197 C1175 0.950 . S
C1198 C1199 1.349 . S
C1198 C1200 1.327 . S
C1198 H1223 0.950 . S
C1199 C1198 1.349 . S
C1199 C1215 1.349 . S
C1200 C1198 1.327 . S
C1200 C1219 1.429 . S
C1200 H1224 0.950 . S
C1201 C1218 1.574 . S
C1201 C1220 1.368 . S
C1201 H1225 0.949 . S
H1202 C1206 0.949 . S
C1203 C1204 1.349 . S
C1203 C1205 1.327 . S
C1203 H1226 0.950 . S
C1204 C1203 1.349 . S
C1204 C1216 1.349 . S
C1205 C1203 1.327 . S
C1205 C1221 1.429 . S
C1205 H1227 0.950 . S
C1206 H1202 0.949 . S
C1206 C1214 1.574 . S
C1206 C1222 1.368 . S
H1207 C1215 0.950 . S
H1208 C1213 0.950 . S
H1209 C1214 0.949 . S
H1210 C1216 0.950 . S
H1211 C1217 0.950 . S
H1212 C1218 0.949 . S
C1213 H1208 0.950 . S
C1213 C1215 1.327 . S
C1213 C1219 1.429 . S
C1214 C1206 1.574 . S
C1214 H1209 0.949 . S
C1214 C1220 1.368 . S
C1215 C1199 1.349 . S
C1215 H1207 0.950 . S
C1215 C1213 1.327 . S
C1216 C1204 1.349 . S
C1216 H1210 0.950 . S
C1216 C1217 1.327 . S
C1217 H1211 0.950 . S
C1217 C1216 1.327 . S
C1217 C1221 1.429 . S
C1218 C1201 1.574 . S
C1218 H1212 0.949 . S
C1218 C1222 1.368 . S
C1219 C1200 1.429 . S
C1219 C1213 1.429 . S
C1219 C1220 1.523 . S
C1220 C1201 1.368 . S
C1220 C1214 1.368 . S
C1220 C1219 1.523 . S
C1221 C1205 1.429 . S
C1221 C1217 1.429 . S
C1221 C1222 1.523 . S
C1222 C1206 1.368 . S
C1222 C1218 1.368 . S
C1222 C1221 1.523 . S
H1223 C1198 0.950 . S
H1224 C1200 0.950 . S
H1225 C1201 0.949 . S
H1226 C1203 0.950 . S
H1227 C1205 0.950 . S
C1228 C1229 1.349 . S
C1228 C1230 1.327 . S
C1228 H1253 0.950 . S
C1229 C1228 1.349 . S
C1229 C1245 1.349 . S
C1230 C1228 1.327 . S
C1230 C1249 1.429 . S
C1230 H1254 0.950 . S
C1231 C1248 1.574 1_655 S
C1231 C1250 1.373 . S
C1231 H1255 0.949 . S
H1232 C1236 0.949 . S
C1233 C1234 1.349 . S
C1233 C1235 1.327 . S
C1233 H1256 0.950 . S
C1234 C1233 1.349 . S
C1234 C1246 1.349 . S
C1235 C1233 1.327 . S
C1235 C1251 1.429 . S
C1235 H1257 0.950 . S
C1236 H1232 0.949 . S
C1236 C1244 1.574 . S
C1236 C1252 1.368 . S
H1237 C1245 0.950 . S
H1238 C1243 0.950 . S
H1239 C1244 0.949 . S
H1240 C1246 0.950 . S
H1241 C1247 0.950 . S
H1242 C1248 0.949 . S
C1243 H1238 0.950 . S
C1243 C1245 1.327 . S
C1243 C1249 1.429 . S
C1244 C1236 1.574 . S
C1244 H1239 0.949 . S
C1244 C1250 1.346 1_455 S
C1245 C1229 1.349 . S
C1245 H1237 0.950 . S
C1245 C1243 1.327 . S
C1246 C1234 1.349 . S
C1246 H1240 0.950 . S
C1246 C1247 1.327 . S
C1247 H1241 0.950 . S
C1247 C1246 1.327 . S
C1247 C1251 1.429 . S
C1248 C1231 1.574 1_455 S
C1248 H1242 0.949 . S
C1248 C1252 1.368 . S
C1249 C1230 1.429 . S
C1249 C1243 1.429 . S
C1249 C1250 1.547 . S
C1250 C1231 1.373 . S
C1250 C1244 1.346 1_655 S
C1250 C1249 1.547 . S
C1251 C1235 1.429 . S
C1251 C1247 1.429 . S
C1251 C1252 1.523 . S
C1252 C1236 1.368 . S
C1252 C1248 1.368 . S
C1252 C1251 1.523 . S
H1253 C1228 0.950 . S
H1254 C1230 0.950 . S
H1255 C1231 0.949 . S
H1256 C1233 0.950 . S
H1257 C1235 0.950 . S
C1258 C1259 1.349 . S
C1258 C1260 1.330 1_655 S
C1258 H1283 0.950 . S
C1259 C1258 1.349 . S
C1259 C1275 1.349 . S
C1260 C1258 1.330 1_455 S
C1260 C1279 1.428 1_455 S
C1260 H1284 0.946 . S
C1261 C1278 1.574 . S
C1261 C1280 1.368 . S
C1261 H1285 0.949 . S
H1262 C1266 0.949 . S
C1263 C1264 1.349 . S
C1263 C1265 1.327 . S
C1263 H1286 0.950 . S
C1264 C1263 1.349 . S
C1264 C1276 1.349 . S
C1265 C1263 1.327 . S
C1265 C1281 1.429 . S
C1265 H1287 0.950 . S
C1266 H1262 0.949 . S
C1266 C1274 1.574 . S
C1266 C1282 1.368 . S
H1267 C1275 0.950 . S
H1268 C1273 0.950 . S
H1269 C1274 0.949 . S
H1270 C1276 0.950 . S
H1271 C1277 0.950 . S
H1272 C1278 0.949 . S
C1273 H1268 0.950 . S
C1273 C1275 1.327 . S
C1273 C1279 1.441 . S
C1274 C1266 1.574 . S
C1274 H1269 0.949 . S
C1274 C1280 1.368 . S
C1275 C1259 1.349 . S
C1275 H1267 0.950 . S
C1275 C1273 1.327 . S
C1276 C1264 1.349 . S
C1276 H1270 0.950 . S
C1276 C1277 1.327 . S
C1277 H1271 0.950 . S
C1277 C1276 1.327 . S
C1277 C1281 1.429 . S
C1278 C1261 1.574 . S
C1278 H1272 0.949 . S
C1278 C1282 1.368 . S
C1279 C1260 1.428 1_655 S
C1279 C1273 1.441 . S
C1279 C1280 1.511 1_655 S
C1280 C1261 1.368 . S
C1280 C1274 1.368 . S
C1280 C1279 1.511 1_455 S
C1281 C1265 1.429 . S
C1281 C1277 1.429 . S
C1281 C1282 1.523 . S
C1282 C1266 1.368 . S
C1282 C1278 1.368 . S
C1282 C1281 1.523 . S
H1283 C1258 0.950 . S
H1284 C1260 0.946 . S
H1285 C1261 0.949 . S
H1286 C1263 0.950 . S
H1287 C1265 0.950 . S
C1288 C1289 1.349 . S
C1288 C1290 1.327 . S
C1288 H1313 0.950 . S
C1289 C1288 1.349 . S
C1289 C1305 1.349 . S
C1290 C1288 1.327 . S
C1290 C1309 1.429 . S
C1290 H1314 0.950 . S
C1291 C1308 1.574 . S
C1291 C1310 1.368 . S
C1291 H1315 0.949 . S
H1292 C1296 0.949 . S
C1293 C1294 1.349 . S
C1293 C1295 1.327 . S
C1293 H1316 0.950 . S
C1294 C1293 1.349 . S
C1294 C1306 1.349 . S
C1295 C1293 1.327 . S
C1295 C1311 1.429 . S
C1295 H1317 0.950 . S
C1296 H1292 0.949 . S
C1296 C1304 1.574 . S
C1296 C1312 1.368 . S
H1297 C1305 0.950 . S
H1298 C1303 0.950 . S
H1299 C1304 0.949 . S
H1300 C1306 0.950 . S
H1301 C1307 0.950 . S
H1302 C1308 0.949 . S
C1303 H1298 0.950 . S
C1303 C1305 1.327 . S
C1303 C1309 1.429 . S
C1304 C1296 1.574 . S
C1304 H1299 0.949 . S
C1304 C1310 1.368 . S
C1305 C1289 1.349 . S
C1305 H1297 0.950 . S
C1305 C1303 1.327 . S
C1306 C1294 1.349 . S
C1306 H1300 0.950 . S
C1306 C1307 1.327 . S
C1307 H1301 0.950 . S
C1307 C1306 1.327 . S
C1307 C1311 1.429 . S
C1308 C1291 1.574 . S
C1308 H1302 0.949 . S
C1308 C1312 1.368 . S
C1309 C1290 1.429 . S
C1309 C1303 1.429 . S
C1309 C1310 1.523 . S
C1310 C1291 1.368 . S
C1310 C1304 1.368 . S
C1310 C1309 1.523 . S
C1311 C1295 1.429 . S
C1311 C1307 1.429 . S
C1311 C1312 1.523 . S
C1312 C1296 1.368 . S
C1312 C1308 1.368 . S
C1312 C1311 1.523 . S
H1313 C1288 0.950 . S
H1314 C1290 0.950 . S
H1315 C1291 0.949 . S
H1316 C1293 0.950 . S
H1317 C1295 0.950 . S
C1318 C1319 1.349 . S
C1318 C1320 1.327 . S
C1318 H1343 0.950 . S
C1319 C1318 1.349 . S
C1319 C1335 1.349 . S
C1320 C1318 1.327 . S
C1320 C1339 1.429 . S
C1320 H1344 0.950 . S
C1321 C1338 1.574 . S
C1321 C1340 1.368 . S
C1321 H1345 0.949 . S
H1322 C1326 0.949 . S
C1323 C1324 1.349 . S
C1323 C1325 1.327 . S
C1323 H1346 0.950 . S
C1324 C1323 1.349 . S
C1324 C1336 1.349 . S
C1325 C1323 1.327 . S
C1325 C1341 1.429 . S
C1325 H1347 0.950 . S
C1326 H1322 0.949 . S
C1326 C1334 1.574 1_455 S
C1326 C1342 1.369 . S
H1327 C1335 0.950 . S
H1328 C1333 0.950 . S
H1329 C1334 0.949 . S
H1330 C1336 0.950 . S
H1331 C1337 0.950 . S
H1332 C1338 0.949 . S
C1333 H1328 0.950 . S
C1333 C1335 1.327 . S
C1333 C1339 1.429 . S
C1334 C1326 1.574 1_655 S
C1334 H1329 0.949 . S
C1334 C1340 1.368 . S
C1335 C1319 1.349 . S
C1335 H1327 0.950 . S
C1335 C1333 1.327 . S
C1336 C1324 1.349 . S
C1336 H1330 0.950 . S
C1336 C1337 1.327 . S
C1337 H1331 0.950 . S
C1337 C1336 1.327 . S
C1337 C1341 1.429 . S
C1338 C1321 1.574 . S
C1338 H1332 0.949 . S
C1338 C1342 1.362 1_655 S
C1339 C1320 1.429 . S
C1339 C1333 1.429 . S
C1339 C1340 1.523 . S
C1340 C1321 1.368 . S
C1340 C1334 1.368 . S
C1340 C1339 1.523 . S
C1341 C1325 1.429 . S
C1341 C1337 1.429 . S
C1341 C1342 1.530 . S
C1342 C1326 1.369 . S
C1342 C1338 1.362 1_455 S
C1342 C1341 1.530 . S
H1343 C1318 0.950 . S
H1344 C1320 0.950 . S
H1345 C1321 0.949 . S
H1346 C1323 0.950 . S
H1347 C1325 0.950 . S
C1348 C1349 1.349 . S
C1348 C1350 1.327 . S
C1348 H1373 0.950 . S
C1349 C1348 1.349 . S
C1349 C1365 1.349 . S
C1350 C1348 1.327 . S
C1350 C1369 1.429 . S
C1350 H1374 0.950 . S
C1351 C1368 1.574 . S
C1351 C1370 1.368 . S
C1351 H1375 0.949 . S
H1352 C1356 0.949 . S
C1353 C1354 1.349 . S
C1353 C1355 1.327 . S
C1353 H1376 0.950 . S
C1354 C1353 1.349 . S
C1354 C1366 1.349 . S
C1355 C1353 1.327 . S
C1355 C1371 1.429 . S
C1355 H1377 0.950 . S
C1356 H1352 0.949 . S
C1356 C1364 1.574 . S
C1356 C1372 1.368 . S
H1357 C1365 0.950 . S
H1358 C1363 0.950 . S
H1359 C1364 0.949 . S
H1360 C1366 0.950 . S
H1361 C1367 0.950 . S
H1362 C1368 0.949 . S
C1363 H1358 0.950 . S
C1363 C1365 1.327 . S
C1363 C1369 1.429 . S
C1364 C1356 1.574 . S
C1364 H1359 0.949 . S
C1364 C1370 1.368 . S
C1365 C1349 1.349 . S
C1365 H1357 0.950 . S
C1365 C1363 1.327 . S
C1366 C1354 1.349 . S
C1366 H1360 0.950 . S
C1366 C1367 1.327 . S
C1367 H1361 0.950 . S
C1367 C1366 1.327 . S
C1367 C1371 1.429 . S
C1368 C1351 1.574 . S
C1368 H1362 0.949 . S
C1368 C1372 1.368 . S
C1369 C1350 1.429 . S
C1369 C1363 1.429 . S
C1369 C1370 1.523 . S
C1370 C1351 1.368 . S
C1370 C1364 1.368 . S
C1370 C1369 1.523 . S
C1371 C1355 1.429 . S
C1371 C1367 1.429 . S
C1371 C1372 1.523 . S
C1372 C1356 1.368 . S
C1372 C1368 1.368 . S
C1372 C1371 1.523 . S
H1373 C1348 0.950 . S
H1374 C1350 0.950 . S
H1375 C1351 0.949 . S
H1376 C1353 0.950 . S
H1377 C1355 0.950 . S
C1378 C1379 1.349 . S
C1378 C1380 1.327 . S
C1378 H1403 0.950 . S
C1379 C1378 1.349 . S
C1379 C1395 1.349 . S
C1380 C1378 1.327 . S
C1380 C1399 1.429 . S
C1380 H1404 0.950 . S
C1381 C1398 1.574 . S
C1381 C1400 1.368 . S
C1381 H1405 0.949 . S
H1382 C1386 0.949 . S
C1383 C1384 1.349 . S
C1383 C1385 1.327 . S
C1383 H1406 0.950 . S
C1384 C1383 1.349 . S
C1384 C1396 1.349 . S
C1385 C1383 1.327 . S
C1385 C1401 1.429 . S
C1385 H1407 0.950 . S
C1386 H1382 0.949 . S
C1386 C1394 1.574 . S
C1386 C1402 1.368 . S
H1387 C1395 0.950 . S
H1388 C1393 0.950 . S
H1389 C1394 0.949 . S
H1390 C1396 0.950 . S
H1391 C1397 0.950 1_545 S
H1392 C1398 0.949 1_565 S
C1393 H1388 0.950 . S
C1393 C1395 1.327 . S
C1393 C1399 1.429 . S
C1394 C1386 1.574 . S
C1394 H1389 0.949 . S
C1394 C1400 1.368 . S
C1395 C1379 1.349 . S
C1395 H1387 0.950 . S
C1395 C1393 1.327 . S
C1396 C1384 1.349 . S
C1396 H1390 0.950 . S
C1396 C1397 1.327 . S
C1397 H1391 0.950 1_565 S
C1397 C1396 1.327 . S
C1397 C1401 1.429 . S
C1398 C1381 1.574 . S
C1398 H1392 0.949 1_545 S
C1398 C1402 1.368 . S
C1399 C1380 1.429 . S
C1399 C1393 1.429 . S
C1399 C1400 1.523 . S
C1400 C1381 1.368 . S
C1400 C1394 1.368 . S
C1400 C1399 1.523 . S
C1401 C1385 1.429 . S
C1401 C1397 1.429 . S
C1401 C1402 1.523 1_565 S
C1402 C1386 1.368 . S
C1402 C1398 1.368 . S
C1402 C1401 1.523 1_545 S
H1403 C1378 0.950 . S
H1404 C1380 0.950 . S
H1405 C1381 0.949 . S
H1406 C1383 0.950 . S
H1407 C1385 0.950 . S
C1408 C1409 1.349 . S
C1408 C1410 1.327 . S
C1408 H1433 0.950 . S
C1409 C1408 1.349 . S
C1409 C1425 1.349 . S
C1410 C1408 1.327 . S
C1410 C1429 1.429 . S
C1410 H1434 0.950 . S
C1411 C1428 1.574 . S
C1411 C1430 1.368 . S
C1411 H1435 0.949 . S
H1412 C1416 0.949 . S
C1413 C1414 1.349 . S
C1413 C1415 1.327 . S
C1413 H1436 0.950 . S
C1414 C1413 1.349 . S
C1414 C1426 1.349 . S
C1415 C1413 1.327 . S
C1415 C1431 1.429 . S
C1415 H1437 0.950 . S
C1416 H1412 0.949 . S
C1416 C1424 1.574 . S
C1416 C1432 1.368 . S
H1417 C1425 0.950 . S
H1418 C1423 0.950 . S
H1419 C1424 0.949 . S
H1420 C1426 0.950 . S
H1421 C1427 0.950 . S
H1422 C1428 0.949 . S
C1423 H1418 0.950 . S
C1423 C1425 1.327 . S
C1423 C1429 1.429 . S
C1424 C1416 1.574 . S
C1424 H1419 0.949 . S
C1424 C1430 1.368 . S
C1425 C1409 1.349 . S
C1425 H1417 0.950 . S
C1425 C1423 1.327 . S
C1426 C1414 1.349 . S
C1426 H1420 0.950 . S
C1426 C1427 1.327 . S
C1427 H1421 0.950 . S
C1427 C1426 1.327 . S
C1427 C1431 1.429 . S
C1428 C1411 1.574 . S
C1428 H1422 0.949 . S
C1428 C1432 1.368 . S
C1429 C1410 1.429 . S
C1429 C1423 1.429 . S
C1429 C1430 1.523 . S
C1430 C1411 1.368 . S
C1430 C1424 1.368 . S
C1430 C1429 1.523 . S
C1431 C1415 1.429 . S
C1431 C1427 1.429 . S
C1431 C1432 1.523 . S
C1432 C1416 1.368 . S
C1432 C1428 1.368 . S
C1432 C1431 1.523 . S
H1433 C1408 0.950 . S
H1434 C1410 0.950 . S
H1435 C1411 0.949 . S
H1436 C1413 0.950 . S
H1437 C1415 0.950 . S
C1438 C1439 1.349 . S
C1438 C1440 1.327 . S
C1438 H1463 0.950 . S
C1439 C1438 1.349 . S
C1439 C1455 1.349 . S
C1440 C1438 1.327 . S
C1440 C1459 1.429 . S
C1440 H1464 0.950 . S
C1441 C1458 1.574 . S
C1441 C1460 1.368 . S
C1441 H1465 0.949 . S
H1442 C1446 0.949 1_545 S
C1443 C1444 1.349 . S
C1443 C1445 1.327 . S
C1443 H1466 0.950 . S
C1444 C1443 1.349 . S
C1444 C1456 1.349 . S
C1445 C1443 1.327 . S
C1445 C1461 1.429 . S
C1445 H1467 0.950 . S
C1446 H1442 0.949 1_565 S
C1446 C1454 1.574 . S
C1446 C1462 1.368 . S
H1447 C1455 0.950 . S
H1448 C1453 0.950 . S
H1449 C1454 0.949 . S
H1450 C1456 0.950 . S
H1451 C1457 0.950 . S
H1452 C1458 0.949 . S
C1453 H1448 0.950 . S
C1453 C1455 1.327 . S
C1453 C1459 1.429 . S
C1454 C1446 1.574 . S
C1454 H1449 0.949 . S
C1454 C1460 1.368 . S
C1455 C1439 1.349 . S
C1455 H1447 0.950 . S
C1455 C1453 1.327 . S
C1456 C1444 1.349 . S
C1456 H1450 0.950 . S
C1456 C1457 1.327 . S
C1457 H1451 0.950 . S
C1457 C1456 1.327 . S
C1457 C1461 1.429 . S
C1458 C1441 1.574 . S
C1458 H1452 0.949 . S
C1458 C1462 1.368 . S
C1459 C1440 1.429 . S
C1459 C1453 1.429 . S
C1459 C1460 1.523 . S
C1460 C1441 1.368 . S
C1460 C1454 1.368 . S
C1460 C1459 1.523 . S
C1461 C1445 1.429 . S
C1461 C1457 1.429 . S
C1461 C1462 1.523 1_545 S
C1462 C1446 1.368 . S
C1462 C1458 1.368 . S
C1462 C1461 1.523 1_565 S
H1463 C1438 0.950 . S
H1464 C1440 0.950 . S
H1465 C1441 0.949 . S
H1466 C1443 0.950 . S
H1467 C1445 0.950 . S
C1468 C1469 1.349 . S
C1468 C1470 1.327 . S
C1468 H1493 0.950 . S
C1469 C1468 1.349 . S
C1469 C1485 1.349 . S
C1470 C1468 1.327 . S
C1470 C1489 1.429 . S
C1470 H1494 0.950 . S
C1471 C1488 1.574 . S
C1471 C1490 1.368 . S
C1471 H1495 0.949 1_554 S
H1472 C1476 0.949 . S
C1473 C1474 1.349 . S
C1473 C1475 1.327 . S
C1473 H1496 0.950 . S
C1474 C1473 1.349 . S
C1474 C1486 1.349 . S
C1475 C1473 1.327 . S
C1475 C1491 1.429 . S
C1475 H1497 0.950 . S
C1476 H1472 0.949 . S
C1476 C1484 1.574 . S
C1476 C1492 1.368 . S
H1477 C1485 0.950 . S
H1478 C1483 0.950 . S
H1479 C1484 0.949 . S
H1480 C1486 0.950 . S
H1481 C1487 0.950 . S
H1482 C1488 0.949 . S
C1483 H1478 0.950 . S
C1483 C1485 1.327 . S
C1483 C1489 1.429 . S
C1484 C1476 1.574 . S
C1484 H1479 0.949 . S
C1484 C1490 1.368 . S
C1485 C1469 1.349 . S
C1485 H1477 0.950 . S
C1485 C1483 1.327 . S
C1486 C1474 1.349 . S
C1486 H1480 0.950 . S
C1486 C1487 1.327 . S
C1487 H1481 0.950 . S
C1487 C1486 1.327 . S
C1487 C1491 1.429 . S
C1488 C1471 1.574 . S
C1488 H1482 0.949 . S
C1488 C1492 1.368 . S
C1489 C1470 1.429 . S
C1489 C1483 1.429 . S
C1489 C1490 1.523 1_556 S
C1490 C1471 1.368 . S
C1490 C1484 1.368 . S
C1490 C1489 1.523 1_554 S
C1491 C1475 1.429 . S
C1491 C1487 1.429 . S
C1491 C1492 1.523 . S
C1492 C1476 1.368 . S
C1492 C1488 1.368 . S
C1492 C1491 1.523 . S
H1493 C1468 0.950 . S
H1494 C1470 0.950 . S
H1495 C1471 0.949 1_556 S
H1496 C1473 0.950 . S
H1497 C1475 0.950 . S
C1498 C1499 1.349 . S
C1498 C1500 1.327 . S
C1498 H1523 0.950 . S
C1499 C1498 1.349 . S
C1499 C1515 1.349 . S
C1500 C1498 1.327 . S
C1500 C1519 1.429 . S
C1500 H1524 0.950 . S
C1501 C1518 1.574 . S
C1501 C1520 1.368 . S
C1501 H1525 0.949 . S
H1502 C1506 0.949 . S
C1503 C1504 1.349 . S
C1503 C1505 1.327 . S
C1503 H1526 0.950 . S
C1504 C1503 1.349 . S
C1504 C1516 1.349 . S
C1505 C1503 1.327 . S
C1505 C1521 1.429 . S
C1505 H1527 0.950 . S
C1506 H1502 0.949 . S
C1506 C1514 1.574 . S
C1506 C1522 1.368 . S
H1507 C1515 0.950 . S
H1508 C1513 0.934 1_565 S
H1509 C1514 0.952 1_545 S
H1510 C1516 0.950 . S
H1511 C1517 0.950 . S
H1512 C1518 0.949 . S
C1513 H1508 0.934 1_545 S
C1513 C1515 1.327 . S
C1513 C1519 1.429 . S
C1514 C1506 1.574 . S
C1514 H1509 0.952 1_565 S
C1514 C1520 1.368 . S
C1515 C1499 1.349 . S
C1515 H1507 0.950 . S
C1515 C1513 1.327 . S
C1516 C1504 1.349 . S
C1516 H1510 0.950 . S
C1516 C1517 1.327 . S
C1517 H1511 0.950 . S
C1517 C1516 1.327 . S
C1517 C1521 1.429 . S
C1518 C1501 1.574 . S
C1518 H1512 0.949 . S
C1518 C1522 1.368 . S
C1519 C1500 1.429 . S
C1519 C1513 1.429 . S
C1519 C1520 1.523 1_545 S
C1520 C1501 1.368 . S
C1520 C1514 1.368 . S
C1520 C1519 1.523 1_565 S
C1521 C1505 1.429 . S
C1521 C1517 1.429 . S
C1521 C1522 1.523 . S
C1522 C1506 1.368 . S
C1522 C1518 1.368 . S
C1522 C1521 1.523 . S
H1523 C1498 0.950 . S
H1524 C1500 0.950 . S
H1525 C1501 0.949 . S
H1526 C1503 0.950 . S
H1527 C1505 0.950 . S
C1528 C1529 1.349 . S
C1528 C1530 1.327 . S
C1528 H1553 0.950 . S
C1529 C1528 1.349 . S
C1529 C1545 1.349 . S
C1530 C1528 1.327 . S
C1530 C1549 1.429 . S
C1530 H1554 0.950 . S
C1531 C1548 1.574 . S
C1531 C1550 1.368 . S
C1531 H1555 0.949 . S
H1532 C1536 0.949 . S
C1533 C1534 1.349 . S
C1533 C1535 1.327 . S
C1533 H1556 0.950 . S
C1534 C1533 1.349 . S
C1534 C1546 1.349 . S
C1535 C1533 1.327 . S
C1535 C1551 1.429 . S
C1535 H1557 0.950 . S
C1536 H1532 0.949 . S
C1536 C1544 1.574 . S
C1536 C1552 1.368 . S
H1537 C1545 0.950 . S
H1538 C1543 0.950 . S
H1539 C1544 0.949 . S
H1540 C1546 0.950 . S
H1541 C1547 0.950 . S
H1542 C1548 0.949 . S
C1543 H1538 0.950 . S
C1543 C1545 1.327 . S
C1543 C1549 1.429 . S
C1544 C1536 1.574 . S
C1544 H1539 0.949 . S
C1544 C1550 1.368 . S
C1545 C1529 1.349 . S
C1545 H1537 0.950 . S
C1545 C1543 1.327 . S
C1546 C1534 1.349 . S
C1546 H1540 0.950 . S
C1546 C1547 1.327 . S
C1547 H1541 0.950 . S
C1547 C1546 1.327 . S
C1547 C1551 1.429 . S
C1548 C1531 1.574 . S
C1548 H1542 0.949 . S
C1548 C1552 1.368 . S
C1549 C1530 1.429 . S
C1549 C1543 1.429 . S
C1549 C1550 1.523 . S
C1550 C1531 1.368 . S
C1550 C1544 1.368 . S
C1550 C1549 1.523 . S
C1551 C1535 1.429 . S
C1551 C1547 1.429 . S
C1551 C1552 1.523 . S
C1552 C1536 1.368 . S
C1552 C1548 1.368 . S
C1552 C1551 1.523 . S
H1553 C1528 0.950 . S
H1554 C1530 0.950 . S
H1555 C1531 0.949 . S
H1556 C1533 0.950 . S
H1557 C1535 0.950 . S
C1558 C1559 1.349 . S
C1558 C1560 1.327 . S
C1558 H1583 0.950 . S
C1559 C1558 1.349 . S
C1559 C1575 1.349 . S
C1560 C1558 1.327 . S
C1560 C1579 1.429 . S
C1560 H1584 0.950 . S
C1561 C1578 1.574 . S
C1561 C1580 1.368 . S
C1561 H1585 0.949 . S
H1562 C1566 0.949 . S
C1563 C1564 1.349 . S
C1563 C1565 1.327 . S
C1563 H1586 0.950 . S
C1564 C1563 1.349 . S
C1564 C1576 1.349 . S
C1565 C1563 1.327 . S
C1565 C1581 1.429 . S
C1565 H1587 0.950 . S
C1566 H1562 0.949 . S
C1566 C1574 1.545 1_545 S
C1566 C1582 1.368 . S
H1567 C1575 0.950 . S
H1568 C1573 0.950 1_545 S
H1569 C1574 0.989 . S
H1570 C1576 0.950 . S
H1571 C1577 0.950 . S
H1572 C1578 0.949 . S
C1573 H1568 0.950 1_565 S
C1573 C1575 1.327 . S
C1573 C1579 1.429 . S
C1574 C1566 1.545 1_565 S
C1574 H1569 0.989 . S
C1574 C1580 1.354 1_565 S
C1575 C1559 1.349 . S
C1575 H1567 0.950 . S
C1575 C1573 1.327 . S
C1576 C1564 1.349 . S
C1576 H1570 0.950 . S
C1576 C1577 1.327 . S
C1577 H1571 0.950 . S
C1577 C1576 1.327 . S
C1577 C1581 1.429 . S
C1578 C1561 1.574 . S
C1578 H1572 0.949 . S
C1578 C1582 1.368 . S
C1579 C1560 1.429 . S
C1579 C1573 1.429 . S
C1579 C1580 1.523 1_565 S
C1580 C1561 1.368 . S
C1580 C1574 1.354 1_545 S
C1580 C1579 1.523 1_545 S
C1581 C1565 1.429 . S
C1581 C1577 1.429 . S
C1581 C1582 1.523 . S
C1582 C1566 1.368 . S
C1582 C1578 1.368 . S
C1582 C1581 1.523 . S
H1583 C1558 0.950 . S
H1584 C1560 0.950 . S
H1585 C1561 0.949 . S
H1586 C1563 0.950 . S
H1587 C1565 0.950 . S
C1588 C1589 1.349 . S
C1588 C1590 1.327 . S
C1588 H1613 0.950 . S
C1589 C1588 1.349 . S
C1589 C1605 1.349 . S
C1590 C1588 1.327 . S
C1590 C1609 1.429 . S
C1590 H1614 0.950 1_554 S
C1591 C1608 1.574 . S
C1591 C1610 1.368 . S
C1591 H1615 0.949 1_556 S
H1592 C1596 0.949 . S
C1593 C1594 1.349 . S
C1593 C1595 1.327 . S
C1593 H1616 0.950 . S
C1594 C1593 1.349 . S
C1594 C1606 1.349 . S
C1595 C1593 1.327 . S
C1595 C1611 1.429 . S
C1595 H1617 0.950 . S
C1596 H1592 0.949 . S
C1596 C1604 1.574 . S
C1596 C1612 1.368 . S
H1597 C1605 0.950 . S
H1598 C1603 0.950 . S
H1599 C1604 0.949 . S
H1600 C1606 0.950 . S
H1601 C1607 0.950 . S
H1602 C1608 0.949 . S
C1603 H1598 0.950 . S
C1603 C1605 1.327 . S
C1603 C1609 1.429 . S
C1604 C1596 1.574 . S
C1604 H1599 0.949 . S
C1604 C1610 1.368 . S
C1605 C1589 1.349 . S
C1605 H1597 0.950 . S
C1605 C1603 1.327 . S
C1606 C1594 1.349 . S
C1606 H1600 0.950 . S
C1606 C1607 1.327 . S
C1607 H1601 0.950 . S
C1607 C1606 1.327 . S
C1607 C1611 1.429 . S
C1608 C1591 1.574 . S
C1608 H1602 0.949 . S
C1608 C1612 1.368 . S
C1609 C1590 1.429 . S
C1609 C1603 1.429 . S
C1609 C1610 1.523 1_554 S
C1610 C1591 1.368 . S
C1610 C1604 1.368 . S
C1610 C1609 1.523 1_556 S
C1611 C1595 1.429 . S
C1611 C1607 1.429 . S
C1611 C1612 1.523 . S
C1612 C1596 1.368 . S
C1612 C1608 1.368 . S
C1612 C1611 1.523 . S
H1613 C1588 0.950 . S
H1614 C1590 0.950 1_556 S
H1615 C1591 0.949 1_554 S
H1616 C1593 0.950 . S
H1617 C1595 0.950 . S
C1618 C1619 1.349 . S
C1618 C1620 1.327 . S
C1618 H1643 0.950 . S
C1619 C1618 1.349 . S
C1619 C1635 1.349 . S
C1620 C1618 1.327 . S
C1620 C1639 1.429 . S
C1620 H1644 0.950 . S
C1621 C1638 1.574 . S
C1621 C1640 1.368 1_455 S
C1621 H1645 0.949 . S
H1622 C1626 0.949 . S
C1623 C1624 1.349 . S
C1623 C1625 1.327 . S
C1623 H1646 0.950 . S
C1624 C1623 1.349 . S
C1624 C1636 1.349 . S
C1625 C1623 1.327 . S
C1625 C1641 1.429 . S
C1625 H1647 0.950 . S
C1626 H1622 0.949 . S
C1626 C1634 1.574 1_455 S
C1626 C1642 1.368 . S
H1627 C1635 0.950 . S
H1628 C1633 0.950 . S
H1629 C1634 0.949 . S
H1630 C1636 0.950 . S
H1631 C1637 0.950 . S
H1632 C1638 0.949 . S
C1633 H1628 0.950 . S
C1633 C1635 1.327 . S
C1633 C1639 1.429 . S
C1634 C1626 1.574 1_655 S
C1634 H1629 0.949 . S
C1634 C1640 1.368 . S
C1635 C1619 1.349 . S
C1635 H1627 0.950 . S
C1635 C1633 1.327 . S
C1636 C1624 1.349 . S
C1636 H1630 0.950 . S
C1636 C1637 1.327 . S
C1637 H1631 0.950 . S
C1637 C1636 1.327 . S
C1637 C1641 1.429 . S
C1638 C1621 1.574 . S
C1638 H1632 0.949 . S
C1638 C1642 1.368 . S
C1639 C1620 1.429 . S
C1639 C1633 1.429 . S
C1639 C1640 1.523 . S
C1640 C1621 1.368 1_655 S
C1640 C1634 1.368 . S
C1640 C1639 1.523 . S
C1641 C1625 1.429 . S
C1641 C1637 1.429 . S
C1641 C1642 1.523 . S
C1642 C1626 1.368 . S
C1642 C1638 1.368 . S
C1642 C1641 1.523 . S
H1643 C1618 0.950 . S
H1644 C1620 0.950 . S
H1645 C1621 0.949 . S
H1646 C1623 0.950 . S
H1647 C1625 0.950 . S
C1648 C1649 1.349 . S
C1648 C1650 1.327 . S
C1648 H1673 0.950 . S
C1649 C1648 1.349 . S
C1649 C1665 1.349 . S
C1650 C1648 1.327 . S
C1650 C1669 1.429 . S
C1650 H1674 0.950 . S
C1651 C1668 1.574 . S
C1651 C1670 1.368 . S
C1651 H1675 0.949 . S
H1652 C1656 0.949 . S
C1653 C1654 1.349 . S
C1653 C1655 1.327 . S
C1653 H1676 0.950 . S
C1654 C1653 1.349 . S
C1654 C1666 1.349 . S
C1655 C1653 1.327 . S
C1655 C1671 1.429 . S
C1655 H1677 0.950 . S
C1656 H1652 0.949 . S
C1656 C1664 1.574 . S
C1656 C1672 1.368 . S
H1657 C1665 0.950 . S
H1658 C1663 0.950 . S
H1659 C1664 0.949 . S
H1660 C1666 0.950 . S
H1661 C1667 0.950 . S
H1662 C1668 0.949 . S
C1663 H1658 0.950 . S
C1663 C1665 1.327 . S
C1663 C1669 1.429 . S
C1664 C1656 1.574 . S
C1664 H1659 0.949 . S
C1664 C1670 1.368 . S
C1665 C1649 1.349 . S
C1665 H1657 0.950 . S
C1665 C1663 1.327 . S
C1666 C1654 1.349 . S
C1666 H1660 0.950 . S
C1666 C1667 1.327 . S
C1667 H1661 0.950 . S
C1667 C1666 1.327 . S
C1667 C1671 1.429 . S
C1668 C1651 1.574 . S
C1668 H1662 0.949 . S
C1668 C1672 1.368 . S
C1669 C1650 1.429 . S
C1669 C1663 1.429 . S
C1669 C1670 1.523 . S
C1670 C1651 1.368 . S
C1670 C1664 1.368 . S
C1670 C1669 1.523 . S
C1671 C1655 1.429 . S
C1671 C1667 1.429 . S
C1671 C1672 1.523 . S
C1672 C1656 1.368 . S
C1672 C1668 1.368 . S
C1672 C1671 1.523 . S
H1673 C1648 0.950 . S
H1674 C1650 0.950 . S
H1675 C1651 0.949 . S
H1676 C1653 0.950 . S
H1677 C1655 0.950 . S
C1678 C1679 1.349 . S
C1678 C1680 1.327 . S
C1678 H1703 0.950 . S
C1679 C1678 1.349 . S
C1679 C1695 1.349 . S
C1680 C1678 1.327 . S
C1680 C1699 1.429 . S
C1680 H1704 0.950 . S
C1681 C1698 1.574 . S
C1681 C1700 1.354 1_655 S
C1681 H1705 0.949 . S
H1682 C1686 0.949 . S
C1683 C1684 1.349 . S
C1683 C1685 1.327 . S
C1683 H1706 0.950 . S
C1684 C1683 1.349 . S
C1684 C1696 1.349 . S
C1685 C1683 1.327 . S
C1685 C1701 1.429 . S
C1685 H1707 0.950 . S
C1686 H1682 0.949 . S
C1686 C1694 1.574 1_655 S
C1686 C1702 1.368 . S
H1687 C1695 0.950 . S
H1688 C1693 0.950 . S
H1689 C1694 0.949 . S
H1690 C1696 0.950 . S
H1691 C1697 0.950 . S
H1692 C1698 0.949 . S
C1693 H1688 0.950 . S
C1693 C1695 1.327 . S
C1693 C1699 1.429 . S
C1694 C1686 1.574 1_455 S
C1694 H1689 0.949 . S
C1694 C1700 1.371 . S
C1695 C1679 1.349 . S
C1695 H1687 0.950 . S
C1695 C1693 1.327 . S
C1696 C1684 1.349 . S
C1696 H1690 0.950 . S
C1696 C1697 1.327 . S
C1697 H1691 0.950 . S
C1697 C1696 1.327 . S
C1697 C1701 1.429 . S
C1698 C1681 1.574 . S
C1698 H1692 0.949 . S
C1698 C1702 1.368 . S
C1699 C1680 1.429 . S
C1699 C1693 1.429 . S
C1699 C1700 1.537 . S
C1700 C1681 1.354 1_455 S
C1700 C1694 1.371 . S
C1700 C1699 1.537 . S
C1701 C1685 1.429 . S
C1701 C1697 1.429 . S
C1701 C1702 1.523 . S
C1702 C1686 1.368 . S
C1702 C1698 1.368 . S
C1702 C1701 1.523 . S
H1703 C1678 0.950 . S
H1704 C1680 0.950 . S
H1705 C1681 0.949 . S
H1706 C1683 0.950 . S
H1707 C1685 0.950 . S
C1708 C1709 1.349 . S
C1708 C1710 1.327 . S
C1708 H1733 0.950 . S
C1709 C1708 1.349 . S
C1709 C1725 1.349 . S
C1710 C1708 1.327 . S
C1710 C1729 1.429 . S
C1710 H1734 0.950 . S
C1711 C1728 1.574 . S
C1711 C1730 1.371 . S
C1711 H1735 0.949 1_655 S
H1712 C1716 0.949 . S
C1713 C1714 1.349 . S
C1713 C1715 1.327 . S
C1713 H1736 0.950 . S
C1714 C1713 1.349 . S
C1714 C1726 1.349 . S
C1715 C1713 1.327 . S
C1715 C1731 1.429 . S
C1715 H1737 0.950 . S
C1716 H1712 0.949 . S
C1716 C1724 1.574 . S
C1716 C1732 1.368 . S
H1717 C1725 0.950 . S
H1718 C1723 0.950 . S
H1719 C1724 0.949 . S
H1720 C1726 0.950 . S
H1721 C1727 0.950 . S
H1722 C1728 0.949 . S
C1723 H1718 0.950 . S
C1723 C1725 1.327 . S
C1723 C1729 1.429 . S
C1724 C1716 1.574 . S
C1724 H1719 0.949 . S
C1724 C1730 1.385 . S
C1725 C1709 1.349 . S
C1725 H1717 0.950 . S
C1725 C1723 1.327 . S
C1726 C1714 1.349 . S
C1726 H1720 0.950 . S
C1726 C1727 1.327 . S
C1727 H1721 0.950 . S
C1727 C1726 1.327 . S
C1727 C1731 1.429 . S
C1728 C1711 1.574 . S
C1728 H1722 0.949 . S
C1728 C1732 1.368 . S
C1729 C1710 1.429 . S
C1729 C1723 1.429 . S
C1729 C1730 1.499 1_455 S
C1730 C1711 1.371 . S
C1730 C1724 1.385 . S
C1730 C1729 1.499 1_655 S
C1731 C1715 1.429 . S
C1731 C1727 1.429 . S
C1731 C1732 1.523 . S
C1732 C1716 1.368 . S
C1732 C1728 1.368 . S
C1732 C1731 1.523 . S
H1733 C1708 0.950 . S
H1734 C1710 0.950 . S
H1735 C1711 0.949 1_455 S
H1736 C1713 0.950 . S
H1737 C1715 0.950 . S
C1738 C1739 1.349 . S
C1738 C1740 1.327 . S
C1738 H1763 0.950 . S
C1739 C1738 1.349 . S
C1739 C1755 1.349 . S
C1740 C1738 1.327 . S
C1740 C1759 1.429 . S
C1740 H1764 0.950 . S
C1741 C1758 1.574 . S
C1741 C1760 1.368 . S
C1741 H1765 0.949 . S
H1742 C1746 0.949 . S
C1743 C1744 1.349 . S
C1743 C1745 1.327 . S
C1743 H1766 0.950 . S
C1744 C1743 1.349 . S
C1744 C1756 1.349 . S
C1745 C1743 1.327 . S
C1745 C1761 1.429 . S
C1745 H1767 0.950 . S
C1746 H1742 0.949 . S
C1746 C1754 1.574 . S
C1746 C1762 1.368 . S
H1747 C1755 0.950 . S
H1748 C1753 0.950 . S
H1749 C1754 0.949 . S
H1750 C1756 0.950 . S
H1751 C1757 0.950 . S
H1752 C1758 0.949 . S
C1753 H1748 0.950 . S
C1753 C1755 1.327 . S
C1753 C1759 1.429 . S
C1754 C1746 1.574 . S
C1754 H1749 0.949 . S
C1754 C1760 1.368 . S
C1755 C1739 1.349 . S
C1755 H1747 0.950 . S
C1755 C1753 1.327 . S
C1756 C1744 1.349 . S
C1756 H1750 0.950 . S
C1756 C1757 1.327 . S
C1757 H1751 0.950 . S
C1757 C1756 1.327 . S
C1757 C1761 1.429 . S
C1758 C1741 1.574 . S
C1758 H1752 0.949 . S
C1758 C1762 1.368 . S
C1759 C1740 1.429 . S
C1759 C1753 1.429 . S
C1759 C1760 1.523 . S
C1760 C1741 1.368 . S
C1760 C1754 1.368 . S
C1760 C1759 1.523 . S
C1761 C1745 1.429 . S
C1761 C1757 1.429 . S
C1761 C1762 1.523 . S
C1762 C1746 1.368 . S
C1762 C1758 1.368 . S
C1762 C1761 1.523 . S
H1763 C1738 0.950 . S
H1764 C1740 0.950 . S
H1765 C1741 0.949 . S
H1766 C1743 0.950 . S
H1767 C1745 0.950 . S
C1768 C1769 1.349 . S
C1768 C1770 1.327 . S
C1768 H1793 0.950 . S
C1769 C1768 1.349 . S
C1769 C1785 1.349 . S
C1770 C1768 1.327 . S
C1770 C1789 1.429 . S
C1770 H1794 0.950 . S
C1771 C1788 1.574 1_655 S
C1771 C1790 1.376 . S
C1771 H1795 0.949 . S
H1772 C1776 0.949 . S
C1773 C1774 1.349 . S
C1773 C1775 1.327 . S
C1773 H1796 0.950 . S
C1774 C1773 1.349 . S
C1774 C1786 1.349 . S
C1775 C1773 1.327 . S
C1775 C1791 1.429 . S
C1775 H1797 0.950 . S
C1776 H1772 0.949 . S
C1776 C1784 1.574 . S
C1776 C1792 1.368 . S
H1777 C1785 0.950 . S
H1778 C1783 0.950 . S
H1779 C1784 0.949 . S
H1780 C1786 0.950 . S
H1781 C1787 0.950 . S
H1782 C1788 0.949 . S
C1783 H1778 0.950 . S
C1783 C1785 1.327 . S
C1783 C1789 1.429 . S
C1784 C1776 1.574 . S
C1784 H1779 0.949 . S
C1784 C1790 1.343 1_455 S
C1785 C1769 1.349 . S
C1785 H1777 0.950 . S
C1785 C1783 1.327 . S
C1786 C1774 1.349 . S
C1786 H1780 0.950 . S
C1786 C1787 1.327 . S
C1787 H1781 0.950 . S
C1787 C1786 1.327 . S
C1787 C1791 1.429 . S
C1788 C1771 1.574 1_455 S
C1788 H1782 0.949 . S
C1788 C1792 1.368 . S
C1789 C1770 1.429 . S
C1789 C1783 1.429 . S
C1789 C1790 1.546 . S
C1790 C1771 1.376 . S
C1790 C1784 1.343 1_655 S
C1790 C1789 1.546 . S
C1791 C1775 1.429 . S
C1791 C1787 1.429 . S
C1791 C1792 1.523 . S
C1792 C1776 1.368 . S
C1792 C1788 1.368 . S
C1792 C1791 1.523 . S
H1793 C1768 0.950 . S
H1794 C1770 0.950 . S
H1795 C1771 0.949 . S
H1796 C1773 0.950 . S
H1797 C1775 0.950 . S
C1798 C1799 1.349 . S
C1798 C1800 1.327 . S
C1798 H1823 0.950 . S
C1799 C1798 1.349 . S
C1799 C1815 1.349 . S
C1800 C1798 1.327 . S
C1800 C1819 1.429 . S
C1800 H1824 0.950 . S
C1801 C1818 1.574 . S
C1801 C1820 1.368 . S
C1801 H1825 0.949 . S
H1802 C1806 0.949 . S
C1803 C1804 1.349 . S
C1803 C1805 1.327 . S
C1803 H1826 0.950 . S
C1804 C1803 1.349 . S
C1804 C1816 1.349 . S
C1805 C1803 1.327 . S
C1805 C1821 1.429 . S
C1805 H1827 0.950 . S
C1806 H1802 0.949 . S
C1806 C1814 1.574 . S
C1806 C1822 1.368 . S
H1807 C1815 0.950 . S
H1808 C1813 0.950 . S
H1809 C1814 0.949 . S
H1810 C1816 0.950 . S
H1811 C1817 0.950 . S
H1812 C1818 0.949 . S
C1813 H1808 0.950 . S
C1813 C1815 1.327 . S
C1813 C1819 1.429 . S
C1814 C1806 1.574 . S
C1814 H1809 0.949 . S
C1814 C1820 1.368 . S
C1815 C1799 1.349 . S
C1815 H1807 0.950 . S
C1815 C1813 1.327 . S
C1816 C1804 1.349 . S
C1816 H1810 0.950 . S
C1816 C1817 1.327 . S
C1817 H1811 0.950 . S
C1817 C1816 1.327 . S
C1817 C1821 1.429 . S
C1818 C1801 1.574 . S
C1818 H1812 0.949 . S
C1818 C1822 1.368 . S
C1819 C1800 1.429 . S
C1819 C1813 1.429 . S
C1819 C1820 1.523 . S
C1820 C1801 1.368 . S
C1820 C1814 1.368 . S
C1820 C1819 1.523 . S
C1821 C1805 1.429 . S
C1821 C1817 1.429 . S
C1821 C1822 1.523 . S
C1822 C1806 1.368 . S
C1822 C1818 1.368 . S
C1822 C1821 1.523 . S
H1823 C1798 0.950 . S
H1824 C1800 0.950 . S
H1825 C1801 0.949 . S
H1826 C1803 0.950 . S
H1827 C1805 0.950 . S
C1828 C1829 1.349 . S
C1828 C1830 1.327 . S
C1828 H1853 0.950 . S
C1829 C1828 1.349 . S
C1829 C1845 1.349 . S
C1830 C1828 1.327 . S
C1830 C1849 1.429 . S
C1830 H1854 0.950 . S
C1831 C1848 1.574 . S
C1831 C1850 1.368 . S
C1831 H1855 0.949 . S
H1832 C1836 0.949 . S
C1833 C1834 1.349 . S
C1833 C1835 1.327 . S
C1833 H1856 0.950 . S
C1834 C1833 1.349 . S
C1834 C1846 1.349 . S
C1835 C1833 1.327 . S
C1835 C1851 1.429 . S
C1835 H1857 0.950 . S
C1836 H1832 0.949 . S
C1836 C1844 1.574 . S
C1836 C1852 1.368 . S
H1837 C1845 0.950 . S
H1838 C1843 0.950 . S
H1839 C1844 0.949 . S
H1840 C1846 0.950 . S
H1841 C1847 0.950 . S
H1842 C1848 0.949 . S
C1843 H1838 0.950 . S
C1843 C1845 1.327 . S
C1843 C1849 1.429 . S
C1844 C1836 1.574 . S
C1844 H1839 0.949 . S
C1844 C1850 1.368 . S
C1845 C1829 1.349 . S
C1845 H1837 0.950 . S
C1845 C1843 1.327 . S
C1846 C1834 1.349 . S
C1846 H1840 0.950 . S
C1846 C1847 1.327 . S
C1847 H1841 0.950 . S
C1847 C1846 1.327 . S
C1847 C1851 1.429 . S
C1848 C1831 1.574 . S
C1848 H1842 0.949 . S
C1848 C1852 1.368 . S
C1849 C1830 1.429 . S
C1849 C1843 1.429 . S
C1849 C1850 1.523 . S
C1850 C1831 1.368 . S
C1850 C1844 1.368 . S
C1850 C1849 1.523 . S
C1851 C1835 1.429 . S
C1851 C1847 1.429 . S
C1851 C1852 1.523 . S
C1852 C1836 1.368 . S
C1852 C1848 1.368 . S
C1852 C1851 1.523 . S
H1853 C1828 0.950 . S
H1854 C1830 0.950 . S
H1855 C1831 0.949 . S
H1856 C1833 0.950 . S
H1857 C1835 0.950 . S
C1858 C1859 1.349 . S
C1858 C1860 1.327 . S
C1858 H1883 0.950 . S
C1859 C1858 1.349 . S
C1859 C1875 1.349 . S
C1860 C1858 1.327 . S
C1860 C1879 1.429 . S
C1860 H1884 0.950 . S
C1861 C1878 1.574 . S
C1861 C1880 1.368 . S
C1861 H1885 0.949 . S
H1862 C1866 0.949 . S
C1863 C1864 1.349 . S
C1863 C1865 1.327 . S
C1863 H1886 0.950 . S
C1864 C1863 1.349 . S
C1864 C1876 1.349 . S
C1865 C1863 1.327 . S
C1865 C1881 1.429 . S
C1865 H1887 0.950 . S
C1866 H1862 0.949 . S
C1866 C1874 1.565 1_556 S
C1866 C1882 1.368 . S
H1867 C1875 0.950 . S
H1868 C1873 0.950 1_556 S
H1869 C1874 0.960 . S
H1870 C1876 0.950 . S
H1871 C1877 0.950 . S
H1872 C1878 0.949 . S
C1873 H1868 0.950 1_554 S
C1873 C1875 1.327 . S
C1873 C1879 1.429 . S
C1874 C1866 1.565 1_554 S
C1874 H1869 0.960 . S
C1874 C1880 1.365 1_554 S
C1875 C1859 1.349 . S
C1875 H1867 0.950 . S
C1875 C1873 1.327 . S
C1876 C1864 1.349 . S
C1876 H1870 0.950 . S
C1876 C1877 1.327 . S
C1877 H1871 0.950 . S
C1877 C1876 1.327 . S
C1877 C1881 1.429 . S
C1878 C1861 1.574 . S
C1878 H1872 0.949 . S
C1878 C1882 1.368 . S
C1879 C1860 1.429 . S
C1879 C1873 1.429 . S
C1879 C1880 1.523 1_554 S
C1880 C1861 1.368 . S
C1880 C1874 1.365 1_556 S
C1880 C1879 1.523 1_556 S
C1881 C1865 1.429 . S
C1881 C1877 1.429 . S
C1881 C1882 1.523 . S
C1882 C1866 1.368 . S
C1882 C1878 1.368 . S
C1882 C1881 1.523 . S
H1883 C1858 0.950 . S
H1884 C1860 0.950 . S
H1885 C1861 0.949 . S
H1886 C1863 0.950 . S
H1887 C1865 0.950 . S
C1888 C1889 1.349 . S
C1888 C1890 1.327 . S
C1888 H1913 0.950 . S
C1889 C1888 1.349 . S
C1889 C1905 1.349 . S
C1890 C1888 1.327 . S
C1890 C1909 1.429 . S
C1890 H1914 0.950 . S
C1891 C1908 1.574 . S
C1891 C1910 1.368 . S
C1891 H1915 0.949 . S
H1892 C1896 0.949 . S
C1893 C1894 1.349 . S
C1893 C1895 1.327 . S
C1893 H1916 0.950 . S
C1894 C1893 1.349 . S
C1894 C1906 1.349 . S
C1895 C1893 1.327 . S
C1895 C1911 1.429 . S
C1895 H1917 0.950 . S
C1896 H1892 0.949 . S
C1896 C1904 1.574 . S
C1896 C1912 1.368 . S
H1897 C1905 0.950 . S
H1898 C1903 0.950 . S
H1899 C1904 0.949 . S
H1900 C1906 0.950 . S
H1901 C1907 0.950 . S
H1902 C1908 0.949 . S
C1903 H1898 0.950 . S
C1903 C1905 1.327 . S
C1903 C1909 1.429 . S
C1904 C1896 1.574 . S
C1904 H1899 0.949 . S
C1904 C1910 1.368 . S
C1905 C1889 1.349 . S
C1905 H1897 0.950 . S
C1905 C1903 1.327 . S
C1906 C1894 1.349 . S
C1906 H1900 0.950 . S
C1906 C1907 1.327 . S
C1907 H1901 0.950 . S
C1907 C1906 1.327 . S
C1907 C1911 1.429 . S
C1908 C1891 1.574 . S
C1908 H1902 0.949 . S
C1908 C1912 1.368 . S
C1909 C1890 1.429 . S
C1909 C1903 1.429 . S
C1909 C1910 1.523 . S
C1910 C1891 1.368 . S
C1910 C1904 1.368 . S
C1910 C1909 1.523 . S
C1911 C1895 1.429 . S
C1911 C1907 1.429 . S
C1911 C1912 1.523 . S
C1912 C1896 1.368 . S
C1912 C1908 1.368 . S
C1912 C1911 1.523 . S
H1913 C1888 0.950 . S
H1914 C1890 0.950 . S
H1915 C1891 0.949 . S
H1916 C1893 0.950 . S
H1917 C1895 0.950 . S
C1918 C1919 1.349 . S
C1918 C1920 1.327 . S
C1918 H1943 0.950 . S
C1919 C1918 1.349 . S
C1919 C1935 1.349 . S
C1920 C1918 1.327 . S
C1920 C1939 1.429 . S
C1920 H1944 0.950 . S
C1921 C1938 1.574 . S
C1921 C1940 1.368 . S
C1921 H1945 0.949 . S
H1922 C1926 0.949 . S
C1923 C1924 1.349 . S
C1923 C1925 1.327 . S
C1923 H1946 0.950 . S
C1924 C1923 1.349 . S
C1924 C1936 1.349 . S
C1925 C1923 1.327 . S
C1925 C1941 1.429 . S
C1925 H1947 0.950 . S
C1926 H1922 0.949 . S
C1926 C1934 1.574 . S
C1926 C1942 1.368 . S
H1927 C1935 0.950 . S
H1928 C1933 0.950 . S
H1929 C1934 0.949 . S
H1930 C1936 0.950 . S
H1931 C1937 0.950 . S
H1932 C1938 0.949 . S
C1933 H1928 0.950 . S
C1933 C1935 1.327 . S
C1933 C1939 1.429 . S
C1934 C1926 1.574 . S
C1934 H1929 0.949 . S
C1934 C1940 1.368 . S
C1935 C1919 1.349 . S
C1935 H1927 0.950 . S
C1935 C1933 1.327 . S
C1936 C1924 1.349 . S
C1936 H1930 0.950 . S
C1936 C1937 1.327 . S
C1937 H1931 0.950 . S
C1937 C1936 1.327 . S
C1937 C1941 1.429 . S
C1938 C1921 1.574 . S
C1938 H1932 0.949 . S
C1938 C1942 1.368 . S
C1939 C1920 1.429 . S
C1939 C1933 1.429 . S
C1939 C1940 1.523 . S
C1940 C1921 1.368 . S
C1940 C1934 1.368 . S
C1940 C1939 1.523 . S
C1941 C1925 1.429 . S
C1941 C1937 1.429 . S
C1941 C1942 1.523 . S
C1942 C1926 1.368 . S
C1942 C1938 1.368 . S
C1942 C1941 1.523 . S
H1943 C1918 0.950 . S
H1944 C1920 0.950 . S
H1945 C1921 0.949 . S
H1946 C1923 0.950 . S
H1947 C1925 0.950 . S
C1948 C1949 1.349 . S
C1948 C1950 1.327 . S
C1948 H1973 0.950 . S
C1949 C1948 1.349 . S
C1949 C1965 1.349 . S
C1950 C1948 1.327 . S
C1950 C1969 1.429 . S
C1950 H1974 0.950 . S
C1951 C1968 1.574 . S
C1951 C1970 1.368 . S
C1951 H1975 0.949 . S
H1952 C1956 0.949 . S
C1953 C1954 1.349 . S
C1953 C1955 1.327 . S
C1953 H1976 0.950 . S
C1954 C1953 1.349 . S
C1954 C1966 1.349 . S
C1955 C1953 1.327 . S
C1955 C1971 1.429 . S
C1955 H1977 0.950 . S
C1956 H1952 0.949 . S
C1956 C1964 1.574 . S
C1956 C1972 1.368 . S
H1957 C1965 0.950 . S
H1958 C1963 0.950 . S
H1959 C1964 0.949 . S
H1960 C1966 0.950 . S
H1961 C1967 0.950 . S
H1962 C1968 0.949 . S
C1963 H1958 0.950 . S
C1963 C1965 1.327 . S
C1963 C1969 1.429 . S
C1964 C1956 1.574 . S
C1964 H1959 0.949 . S
C1964 C1970 1.368 . S
C1965 C1949 1.349 . S
C1965 H1957 0.950 . S
C1965 C1963 1.327 . S
C1966 C1954 1.349 . S
C1966 H1960 0.950 . S
C1966 C1967 1.327 . S
C1967 H1961 0.950 . S
C1967 C1966 1.327 . S
C1967 C1971 1.429 . S
C1968 C1951 1.574 . S
C1968 H1962 0.949 . S
C1968 C1972 1.368 . S
C1969 C1950 1.429 . S
C1969 C1963 1.429 . S
C1969 C1970 1.523 . S
C1970 C1951 1.368 . S
C1970 C1964 1.368 . S
C1970 C1969 1.523 . S
C1971 C1955 1.429 . S
C1971 C1967 1.429 . S
C1971 C1972 1.523 . S
C1972 C1956 1.368 . S
C1972 C1968 1.368 . S
C1972 C1971 1.523 . S
H1973 C1948 0.950 . S
H1974 C1950 0.950 . S
H1975 C1951 0.949 . S
H1976 C1953 0.950 . S
H1977 C1955 0.950 . S
C1978 C1979 1.349 . S
C1978 C1980 1.327 . S
C1978 H2003 0.950 . S
C1979 C1978 1.349 . S
C1979 C1995 1.349 . S
C1980 C1978 1.327 . S
C1980 C1999 1.429 . S
C1980 H2004 0.950 . S
C1981 C1998 1.574 . S
C1981 C2000 1.368 . S
C1981 H2005 0.949 . S
H1982 C1986 0.949 1_556 S
C1983 C1984 1.349 . S
C1983 C1985 1.327 . S
C1983 H2006 0.950 . S
C1984 C1983 1.349 . S
C1984 C1996 1.349 . S
C1985 C1983 1.327 . S
C1985 C2001 1.429 . S
C1985 H2007 0.950 . S
C1986 H1982 0.949 1_554 S
C1986 C1994 1.574 . S
C1986 C2002 1.370 . S
H1987 C1995 0.950 . S
H1988 C1993 0.950 . S
H1989 C1994 0.949 . S
H1990 C1996 0.950 . S
H1991 C1997 0.950 . S
H1992 C1998 0.949 . S
C1993 H1988 0.950 . S
C1993 C1995 1.327 . S
C1993 C1999 1.429 . S
C1994 C1986 1.574 . S
C1994 H1989 0.949 . S
C1994 C2000 1.368 . S
C1995 C1979 1.349 . S
C1995 H1987 0.950 . S
C1995 C1993 1.327 . S
C1996 C1984 1.349 . S
C1996 H1990 0.950 . S
C1996 C1997 1.327 . S
C1997 H1991 0.950 . S
C1997 C1996 1.327 . S
C1997 C2001 1.429 . S
C1998 C1981 1.574 . S
C1998 H1992 0.949 . S
C1998 C2002 1.373 . S
C1999 C1980 1.429 . S
C1999 C1993 1.429 . S
C1999 C2000 1.523 . S
C2000 C1981 1.368 . S
C2000 C1994 1.368 . S
C2000 C1999 1.523 . S
C2001 C1985 1.429 . S
C2001 C1997 1.429 . S
C2001 C2002 1.516 1_556 S
C2002 C1986 1.370 . S
C2002 C1998 1.373 . S
C2002 C2001 1.516 1_554 S
H2003 C1978 0.950 . S
H2004 C1980 0.950 . S
H2005 C1981 0.949 . S
H2006 C1983 0.950 . S
H2007 C1985 0.950 . S
C2008 C2009 1.349 . S
C2008 C2010 1.327 . S
C2008 H2033 0.950 . S
C2009 C2008 1.349 . S
C2009 C2025 1.349 . S
C2010 C2008 1.327 . S
C2010 C2029 1.429 . S
C2010 H2034 0.950 . S
C2011 C2028 1.574 . S
C2011 C2030 1.368 . S
C2011 H2035 0.949 . S
H2012 C2016 0.949 . S
C2013 C2014 1.349 . S
C2013 C2015 1.327 . S
C2013 H2036 0.950 . S
C2014 C2013 1.349 . S
C2014 C2026 1.349 . S
C2015 C2013 1.327 . S
C2015 C2031 1.429 . S
C2015 H2037 0.950 . S
C2016 H2012 0.949 . S
C2016 C2024 1.574 . S
C2016 C2032 1.368 . S
H2017 C2025 0.950 . S
H2018 C2023 0.950 . S
H2019 C2024 0.949 . S
H2020 C2026 0.950 . S
H2021 C2027 0.950 . S
H2022 C2028 0.949 . S
C2023 H2018 0.950 . S
C2023 C2025 1.327 . S
C2023 C2029 1.429 . S
C2024 C2016 1.574 . S
C2024 H2019 0.949 . S
C2024 C2030 1.368 . S
C2025 C2009 1.349 . S
C2025 H2017 0.950 . S
C2025 C2023 1.327 . S
C2026 C2014 1.349 . S
C2026 H2020 0.950 . S
C2026 C2027 1.327 . S
C2027 H2021 0.950 . S
C2027 C2026 1.327 . S
C2027 C2031 1.429 . S
C2028 C2011 1.574 . S
C2028 H2022 0.949 . S
C2028 C2032 1.368 . S
C2029 C2010 1.429 . S
C2029 C2023 1.429 . S
C2029 C2030 1.523 . S
C2030 C2011 1.368 . S
C2030 C2024 1.368 . S
C2030 C2029 1.523 . S
C2031 C2015 1.429 . S
C2031 C2027 1.429 . S
C2031 C2032 1.523 . S
C2032 C2016 1.368 . S
C2032 C2028 1.368 . S
C2032 C2031 1.523 . S
H2033 C2008 0.950 . S
H2034 C2010 0.950 . S
H2035 C2011 0.949 . S
H2036 C2013 0.950 . S
H2037 C2015 0.950 . S
C2038 C2039 1.349 . S
C2038 C2040 1.327 . S
C2038 H2063 0.950 . S
C2039 C2038 1.349 . S
C2039 C2055 1.349 . S
C2040 C2038 1.327 . S
C2040 C2059 1.429 . S
C2040 H2064 0.950 . S
C2041 C2058 1.574 . S
C2041 C2060 1.368 . S
C2041 H2065 0.949 . S
H2042 C2046 0.949 . S
C2043 C2044 1.349 . S
C2043 C2045 1.327 . S
C2043 H2066 0.950 . S
C2044 C2043 1.349 . S
C2044 C2056 1.349 . S
C2045 C2043 1.327 . S
C2045 C2061 1.429 . S
C2045 H2067 0.950 . S
C2046 H2042 0.949 . S
C2046 C2054 1.574 . S
C2046 C2062 1.368 . S
H2047 C2055 0.950 . S
H2048 C2053 0.950 . S
H2049 C2054 0.949 . S
H2050 C2056 0.950 . S
H2051 C2057 0.950 . S
H2052 C2058 0.949 . S
C2053 H2048 0.950 . S
C2053 C2055 1.327 . S
C2053 C2059 1.429 . S
C2054 C2046 1.574 . S
C2054 H2049 0.949 . S
C2054 C2060 1.368 . S
C2055 C2039 1.349 . S
C2055 H2047 0.950 . S
C2055 C2053 1.327 . S
C2056 C2044 1.349 . S
C2056 H2050 0.950 . S
C2056 C2057 1.327 . S
C2057 H2051 0.950 . S
C2057 C2056 1.327 . S
C2057 C2061 1.429 . S
C2058 C2041 1.574 . S
C2058 H2052 0.949 . S
C2058 C2062 1.368 . S
C2059 C2040 1.429 . S
C2059 C2053 1.429 . S
C2059 C2060 1.523 . S
C2060 C2041 1.368 . S
C2060 C2054 1.368 . S
C2060 C2059 1.523 . S
C2061 C2045 1.429 . S
C2061 C2057 1.429 . S
C2061 C2062 1.523 . S
C2062 C2046 1.368 . S
C2062 C2058 1.368 . S
C2062 C2061 1.523 . S
H2063 C2038 0.950 . S
H2064 C2040 0.950 . S
H2065 C2041 0.949 . S
H2066 C2043 0.950 . S
H2067 C2045 0.950 . S
C2068 C2069 1.349 . S
C2068 C2070 1.327 . S
C2068 H2093 0.950 . S
C2069 C2068 1.349 . S
C2069 C2085 1.349 . S
C2070 C2068 1.327 . S
C2070 C2089 1.429 . S
C2070 H2094 0.950 . S
C2071 C2088 1.574 . S
C2071 C2090 1.368 . S
C2071 H2095 0.949 . S
H2072 C2076 0.949 . S
C2073 C2074 1.349 . S
C2073 C2075 1.327 . S
C2073 H2096 0.950 . S
C2074 C2073 1.349 . S
C2074 C2086 1.349 . S
C2075 C2073 1.327 . S
C2075 C2091 1.429 . S
C2075 H2097 0.950 . S
C2076 H2072 0.949 . S
C2076 C2084 1.574 . S
C2076 C2092 1.368 . S
H2077 C2085 0.950 . S
H2078 C2083 0.950 . S
H2079 C2084 0.949 . S
H2080 C2086 0.950 . S
H2081 C2087 0.950 . S
H2082 C2088 0.949 . S
C2083 H2078 0.950 . S
C2083 C2085 1.327 . S
C2083 C2089 1.429 . S
C2084 C2076 1.574 . S
C2084 H2079 0.949 . S
C2084 C2090 1.368 . S
C2085 C2069 1.349 . S
C2085 H2077 0.950 . S
C2085 C2083 1.327 . S
C2086 C2074 1.349 . S
C2086 H2080 0.950 . S
C2086 C2087 1.327 . S
C2087 H2081 0.950 . S
C2087 C2086 1.327 . S
C2087 C2091 1.429 . S
C2088 C2071 1.574 . S
C2088 H2082 0.949 . S
C2088 C2092 1.368 . S
C2089 C2070 1.429 . S
C2089 C2083 1.429 . S
C2089 C2090 1.523 . S
C2090 C2071 1.368 . S
C2090 C2084 1.368 . S
C2090 C2089 1.523 . S
C2091 C2075 1.429 . S
C2091 C2087 1.429 . S
C2091 C2092 1.523 . S
C2092 C2076 1.368 . S
C2092 C2088 1.368 . S
C2092 C2091 1.523 . S
H2093 C2068 0.950 . S
H2094 C2070 0.950 . S
H2095 C2071 0.949 . S
H2096 C2073 0.950 . S
H2097 C2075 0.950 . S
C2098 C2099 1.349 . S
C2098 C2100 1.327 . S
C2098 H2123 0.950 . S
C2099 C2098 1.349 . S
C2099 C2115 1.349 . S
C2100 C2098 1.327 . S
C2100 C2119 1.429 . S
C2100 H2124 0.950 . S
C2101 C2118 1.574 . S
C2101 C2120 1.368 . S
C2101 H2125 0.949 . S
H2102 C2106 0.949 . S
C2103 C2104 1.349 . S
C2103 C2105 1.327 . S
C2103 H2126 0.950 . S
C2104 C2103 1.349 . S
C2104 C2116 1.349 . S
C2105 C2103 1.327 . S
C2105 C2121 1.429 . S
C2105 H2127 0.950 . S
C2106 H2102 0.949 . S
C2106 C2114 1.574 . S
C2106 C2122 1.368 . S
H2107 C2115 0.950 . S
H2108 C2113 0.950 . S
H2109 C2114 0.949 . S
H2110 C2116 0.950 . S
H2111 C2117 0.950 . S
H2112 C2118 0.949 . S
C2113 H2108 0.950 . S
C2113 C2115 1.327 . S
C2113 C2119 1.429 . S
C2114 C2106 1.574 . S
C2114 H2109 0.949 . S
C2114 C2120 1.368 . S
C2115 C2099 1.349 . S
C2115 H2107 0.950 . S
C2115 C2113 1.327 . S
C2116 C2104 1.349 . S
C2116 H2110 0.950 . S
C2116 C2117 1.327 . S
C2117 H2111 0.950 . S
C2117 C2116 1.327 . S
C2117 C2121 1.429 . S
C2118 C2101 1.574 . S
C2118 H2112 0.949 . S
C2118 C2122 1.368 . S
C2119 C2100 1.429 . S
C2119 C2113 1.429 . S
C2119 C2120 1.523 . S
C2120 C2101 1.368 . S
C2120 C2114 1.368 . S
C2120 C2119 1.523 . S
C2121 C2105 1.429 . S
C2121 C2117 1.429 . S
C2121 C2122 1.523 . S
C2122 C2106 1.368 . S
C2122 C2118 1.368 . S
C2122 C2121 1.523 . S
H2123 C2098 0.950 . S
H2124 C2100 0.950 . S
H2125 C2101 0.949 . S
H2126 C2103 0.950 . S
H2127 C2105 0.950 . S
C2128 C2129 1.349 . S
C2128 C2130 1.327 . S
C2128 H2153 0.950 . S
C2129 C2128 1.349 . S
C2129 C2145 1.349 . S
C2130 C2128 1.327 . S
C2130 C2149 1.429 . S
C2130 H2154 0.950 . S
C2131 C2148 1.574 . S
C2131 C2150 1.368 . S
C2131 H2155 0.949 . S
H2132 C2136 0.949 . S
C2133 C2134 1.349 . S
C2133 C2135 1.327 . S
C2133 H2156 0.950 . S
C2134 C2133 1.349 . S
C2134 C2146 1.349 . S
C2135 C2133 1.327 . S
C2135 C2151 1.429 . S
C2135 H2157 0.950 . S
C2136 H2132 0.949 . S
C2136 C2144 1.574 . S
C2136 C2152 1.368 . S
H2137 C2145 0.950 . S
H2138 C2143 0.950 . S
H2139 C2144 0.949 . S
H2140 C2146 0.950 . S
H2141 C2147 0.950 1_554 S
H2142 C2148 0.949 1_556 S
C2143 H2138 0.950 . S
C2143 C2145 1.327 . S
C2143 C2149 1.429 . S
C2144 C2136 1.574 . S
C2144 H2139 0.949 . S
C2144 C2150 1.368 . S
C2145 C2129 1.349 . S
C2145 H2137 0.950 . S
C2145 C2143 1.327 . S
C2146 C2134 1.349 . S
C2146 H2140 0.950 . S
C2146 C2147 1.327 . S
C2147 H2141 0.950 1_556 S
C2147 C2146 1.327 . S
C2147 C2151 1.429 . S
C2148 C2131 1.574 . S
C2148 H2142 0.949 1_554 S
C2148 C2152 1.368 . S
C2149 C2130 1.429 . S
C2149 C2143 1.429 . S
C2149 C2150 1.523 . S
C2150 C2131 1.368 . S
C2150 C2144 1.368 . S
C2150 C2149 1.523 . S
C2151 C2135 1.429 . S
C2151 C2147 1.429 . S
C2151 C2152 1.523 1_556 S
C2152 C2136 1.368 . S
C2152 C2148 1.368 . S
C2152 C2151 1.523 1_554 S
H2153 C2128 0.950 . S
H2154 C2130 0.950 . S
H2155 C2131 0.949 . S
H2156 C2133 0.950 . S
H2157 C2135 0.950 . S
C2158 C2159 1.349 . S
C2158 C2160 1.327 . S
C2158 H2183 0.950 . S
C2159 C2158 1.349 . S
C2159 C2175 1.349 . S
C2160 C2158 1.327 . S
C2160 C2179 1.429 . S
C2160 H2184 0.950 . S
C2161 C2178 1.574 . S
C2161 C2180 1.368 . S
C2161 H2185 0.949 . S
H2162 C2166 0.949 . S
C2163 C2164 1.349 . S
C2163 C2165 1.327 . S
C2163 H2186 0.950 . S
C2164 C2163 1.349 . S
C2164 C2176 1.349 . S
C2165 C2163 1.327 . S
C2165 C2181 1.429 . S
C2165 H2187 0.950 . S
C2166 H2162 0.949 . S
C2166 C2174 1.574 . S
C2166 C2182 1.368 . S
H2167 C2175 0.950 . S
H2168 C2173 0.950 . S
H2169 C2174 0.949 . S
H2170 C2176 0.950 . S
H2171 C2177 0.950 . S
H2172 C2178 0.949 . S
C2173 H2168 0.950 . S
C2173 C2175 1.327 . S
C2173 C2179 1.429 . S
C2174 C2166 1.574 . S
C2174 H2169 0.949 . S
C2174 C2180 1.368 . S
C2175 C2159 1.349 . S
C2175 H2167 0.950 . S
C2175 C2173 1.327 . S
C2176 C2164 1.349 . S
C2176 H2170 0.950 . S
C2176 C2177 1.327 . S
C2177 H2171 0.950 . S
C2177 C2176 1.327 . S
C2177 C2181 1.429 . S
C2178 C2161 1.574 . S
C2178 H2172 0.949 . S
C2178 C2182 1.368 . S
C2179 C2160 1.429 . S
C2179 C2173 1.429 . S
C2179 C2180 1.523 . S
C2180 C2161 1.368 . S
C2180 C2174 1.368 . S
C2180 C2179 1.523 . S
C2181 C2165 1.429 . S
C2181 C2177 1.429 . S
C2181 C2182 1.523 . S
C2182 C2166 1.368 . S
C2182 C2178 1.368 . S
C2182 C2181 1.523 . S
H2183 C2158 0.950 . S
H2184 C2160 0.950 . S
H2185 C2161 0.949 . S
H2186 C2163 0.950 . S
H2187 C2165 0.950 . S
C2188 C2189 1.349 . S
C2188 C2190 1.327 . S
C2188 H2213 0.950 . S
C2189 C2188 1.349 . S
C2189 C2205 1.349 . S
C2190 C2188 1.327 . S
C2190 C2209 1.429 . S
C2190 H2214 0.950 . S
C2191 C2208 1.574 . S
C2191 C2210 1.368 . S
C2191 H2215 0.949 . S
H2192 C2196 0.949 . S
C2193 C2194 1.349 . S
C2193 C2195 1.327 . S
C2193 H2216 0.950 . S
C2194 C2193 1.349 . S
C2194 C2206 1.349 . S
C2195 C2193 1.327 . S
C2195 C2211 1.429 . S
C2195 H2217 0.950 . S
C2196 H2192 0.949 . S
C2196 C2204 1.574 . S
C2196 C2212 1.368 . S
H2197 C2205 0.950 . S
H2198 C2203 0.950 . S
H2199 C2204 0.949 . S
H2200 C2206 0.950 . S
H2201 C2207 0.950 . S
H2202 C2208 0.949 . S
C2203 H2198 0.950 . S
C2203 C2205 1.327 . S
C2203 C2209 1.429 . S
C2204 C2196 1.574 . S
C2204 H2199 0.949 . S
C2204 C2210 1.368 . S
C2205 C2189 1.349 . S
C2205 H2197 0.950 . S
C2205 C2203 1.327 . S
C2206 C2194 1.349 . S
C2206 H2200 0.950 . S
C2206 C2207 1.327 . S
C2207 H2201 0.950 . S
C2207 C2206 1.327 . S
C2207 C2211 1.429 . S
C2208 C2191 1.574 . S
C2208 H2202 0.949 . S
C2208 C2212 1.368 . S
C2209 C2190 1.429 . S
C2209 C2203 1.429 . S
C2209 C2210 1.523 . S
C2210 C2191 1.368 . S
C2210 C2204 1.368 . S
C2210 C2209 1.523 . S
C2211 C2195 1.429 . S
C2211 C2207 1.429 . S
C2211 C2212 1.523 . S
C2212 C2196 1.368 . S
C2212 C2208 1.368 . S
C2212 C2211 1.523 . S
H2213 C2188 0.950 . S
H2214 C2190 0.950 . S
H2215 C2191 0.949 . S
H2216 C2193 0.950 . S
H2217 C2195 0.950 . S
C2218 C2219 1.349 . S
C2218 C2220 1.327 . S
C2218 H2243 0.950 . S
C2219 C2218 1.349 . S
C2219 C2235 1.349 . S
C2220 C2218 1.327 . S
C2220 C2239 1.429 . S
C2220 H2244 0.950 . S
C2221 C2238 1.574 . S
C2221 C2240 1.368 . S
C2221 H2245 0.949 . S
H2222 C2226 0.949 . S
C2223 C2224 1.349 . S
C2223 C2225 1.327 . S
C2223 H2246 0.950 . S
C2224 C2223 1.349 . S
C2224 C2236 1.349 . S
C2225 C2223 1.327 . S
C2225 C2241 1.429 . S
C2225 H2247 0.950 . S
C2226 H2222 0.949 . S
C2226 C2234 1.574 . S
C2226 C2242 1.368 . S
H2227 C2235 0.950 . S
H2228 C2233 0.950 . S
H2229 C2234 0.949 . S
H2230 C2236 0.950 . S
H2231 C2237 0.950 . S
H2232 C2238 0.949 . S
C2233 H2228 0.950 . S
C2233 C2235 1.327 . S
C2233 C2239 1.429 . S
C2234 C2226 1.574 . S
C2234 H2229 0.949 . S
C2234 C2240 1.368 . S
C2235 C2219 1.349 . S
C2235 H2227 0.950 . S
C2235 C2233 1.327 . S
C2236 C2224 1.349 . S
C2236 H2230 0.950 . S
C2236 C2237 1.327 . S
C2237 H2231 0.950 . S
C2237 C2236 1.327 . S
C2237 C2241 1.429 . S
C2238 C2221 1.574 . S
C2238 H2232 0.949 . S
C2238 C2242 1.368 . S
C2239 C2220 1.429 . S
C2239 C2233 1.429 . S
C2239 C2240 1.523 . S
C2240 C2221 1.368 . S
C2240 C2234 1.368 . S
C2240 C2239 1.523 . S
C2241 C2225 1.429 . S
C2241 C2237 1.429 . S
C2241 C2242 1.523 . S
C2242 C2226 1.368 . S
C2242 C2238 1.368 . S
C2242 C2241 1.523 . S
H2243 C2218 0.950 . S
H2244 C2220 0.950 . S
H2245 C2221 0.949 . S
H2246 C2223 0.950 . S
H2247 C2225 0.950 . S
C2248 C2249 1.349 . S
C2248 C2250 1.327 . S
C2248 H2273 0.950 . S
C2249 C2248 1.349 . S
C2249 C2265 1.349 . S
C2250 C2248 1.327 . S
C2250 C2269 1.429 . S
C2250 H2274 0.950 . S
C2251 C2268 1.574 . S
C2251 C2270 1.368 . S
C2251 H2275 0.949 . S
H2252 C2256 0.949 . S
C2253 C2254 1.349 . S
C2253 C2255 1.327 . S
C2253 H2276 0.950 . S
C2254 C2253 1.349 . S
C2254 C2266 1.349 . S
C2255 C2253 1.327 . S
C2255 C2271 1.429 . S
C2255 H2277 0.950 . S
C2256 H2252 0.949 . S
C2256 C2264 1.574 . S
C2256 C2272 1.368 . S
H2257 C2265 0.950 . S
H2258 C2263 0.950 . S
H2259 C2264 0.949 1_554 S
H2260 C2266 0.950 . S
H2261 C2267 0.950 . S
H2262 C2268 0.949 . S
C2263 H2258 0.950 . S
C2263 C2265 1.327 . S
C2263 C2269 1.429 . S
C2264 C2256 1.574 . S
C2264 H2259 0.949 1_556 S
C2264 C2270 1.368 . S
C2265 C2249 1.349 . S
C2265 H2257 0.950 . S
C2265 C2263 1.327 . S
C2266 C2254 1.349 . S
C2266 H2260 0.950 . S
C2266 C2267 1.327 . S
C2267 H2261 0.950 . S
C2267 C2266 1.327 . S
C2267 C2271 1.429 . S
C2268 C2251 1.574 . S
C2268 H2262 0.949 . S
C2268 C2272 1.368 . S
C2269 C2250 1.429 . S
C2269 C2263 1.429 . S
C2269 C2270 1.523 1_554 S
C2270 C2251 1.368 . S
C2270 C2264 1.368 . S
C2270 C2269 1.523 1_556 S
C2271 C2255 1.429 . S
C2271 C2267 1.429 . S
C2271 C2272 1.523 . S
C2272 C2256 1.368 . S
C2272 C2268 1.368 . S
C2272 C2271 1.523 . S
H2273 C2248 0.950 . S
H2274 C2250 0.950 . S
H2275 C2251 0.949 . S
H2276 C2253 0.950 . S
H2277 C2255 0.950 . S
C2278 C2279 1.349 . S
C2278 C2280 1.327 . S
C2278 H2303 0.950 . S
C2279 C2278 1.349 . S
C2279 C2295 1.349 . S
C2280 C2278 1.327 . S
C2280 C2299 1.429 . S
C2280 H2304 0.950 . S
C2281 C2298 1.574 . S
C2281 C2300 1.368 . S
C2281 H2305 0.949 . S
H2282 C2286 0.949 . S
C2283 C2284 1.349 . S
C2283 C2285 1.327 . S
C2283 H2306 0.950 . S
C2284 C2283 1.349 . S
C2284 C2296 1.349 . S
C2285 C2283 1.327 . S
C2285 C2301 1.429 . S
C2285 H2307 0.950 . S
C2286 H2282 0.949 . S
C2286 C2294 1.574 . S
C2286 C2302 1.368 . S
H2287 C2295 0.950 . S
H2288 C2293 0.950 . S
H2289 C2294 0.949 . S
H2290 C2296 0.950 . S
H2291 C2297 0.950 . S
H2292 C2298 0.949 . S
C2293 H2288 0.950 . S
C2293 C2295 1.327 . S
C2293 C2299 1.429 . S
C2294 C2286 1.574 . S
C2294 H2289 0.949 . S
C2294 C2300 1.368 . S
C2295 C2279 1.349 . S
C2295 H2287 0.950 . S
C2295 C2293 1.327 . S
C2296 C2284 1.349 . S
C2296 H2290 0.950 . S
C2296 C2297 1.327 . S
C2297 H2291 0.950 . S
C2297 C2296 1.327 . S
C2297 C2301 1.429 . S
C2298 C2281 1.574 . S
C2298 H2292 0.949 . S
C2298 C2302 1.368 . S
C2299 C2280 1.429 . S
C2299 C2293 1.429 . S
C2299 C2300 1.523 . S
C2300 C2281 1.368 . S
C2300 C2294 1.368 . S
C2300 C2299 1.523 . S
C2301 C2285 1.429 . S
C2301 C2297 1.429 . S
C2301 C2302 1.523 . S
C2302 C2286 1.368 . S
C2302 C2298 1.368 . S
C2302 C2301 1.523 . S
H2303 C2278 0.950 . S
H2304 C2280 0.950 . S
H2305 C2281 0.949 . S
H2306 C2283 0.950 . S
H2307 C2285 0.950 . S
C2308 C2309 1.349 . S
C2308 C2310 1.327 . S
C2308 H2333 0.950 . S
C2309 C2308 1.349 . S
C2309 C2325 1.349 . S
C2310 C2308 1.327 . S
C2310 C2329 1.429 . S
C2310 H2334 0.950 . S
C2311 C2328 1.574 . S
C2311 C2330 1.368 . S
C2311 H2335 0.949 . S
H2312 C2316 0.949 . S
C2313 C2314 1.349 . S
C2313 C2315 1.327 . S
C2313 H2336 0.950 . S
C2314 C2313 1.349 . S
C2314 C2326 1.349 . S
C2315 C2313 1.327 . S
C2315 C2331 1.429 . S
C2315 H2337 0.950 . S
C2316 H2312 0.949 . S
C2316 C2324 1.574 . S
C2316 C2332 1.368 . S
H2317 C2325 0.950 . S
H2318 C2323 0.950 . S
H2319 C2324 0.949 . S
H2320 C2326 0.950 . S
H2321 C2327 0.950 . S
H2322 C2328 0.949 . S
C2323 H2318 0.950 . S
C2323 C2325 1.327 . S
C2323 C2329 1.429 . S
C2324 C2316 1.574 . S
C2324 H2319 0.949 . S
C2324 C2330 1.368 . S
C2325 C2309 1.349 . S
C2325 H2317 0.950 . S
C2325 C2323 1.327 . S
C2326 C2314 1.349 . S
C2326 H2320 0.950 . S
C2326 C2327 1.327 . S
C2327 H2321 0.950 . S
C2327 C2326 1.327 . S
C2327 C2331 1.429 . S
C2328 C2311 1.574 . S
C2328 H2322 0.949 . S
C2328 C2332 1.368 . S
C2329 C2310 1.429 . S
C2329 C2323 1.429 . S
C2329 C2330 1.523 . S
C2330 C2311 1.368 . S
C2330 C2324 1.368 . S
C2330 C2329 1.523 . S
C2331 C2315 1.429 . S
C2331 C2327 1.429 . S
C2331 C2332 1.523 . S
C2332 C2316 1.368 . S
C2332 C2328 1.368 . S
C2332 C2331 1.523 . S
H2333 C2308 0.950 . S
H2334 C2310 0.950 . S
H2335 C2311 0.949 . S
H2336 C2313 0.950 . S
H2337 C2315 0.950 . S
C2338 C2339 1.349 . S
C2338 C2340 1.327 . S
C2338 H2363 0.950 . S
C2339 C2338 1.349 . S
C2339 C2355 1.349 . S
C2340 C2338 1.327 . S
C2340 C2359 1.429 . S
C2340 H2364 0.950 . S
C2341 C2358 1.574 . S
C2341 C2360 1.368 . S
C2341 H2365 0.949 . S
H2342 C2346 0.949 . S
C2343 C2344 1.349 . S
C2343 C2345 1.327 . S
C2343 H2366 0.950 . S
C2344 C2343 1.349 . S
C2344 C2356 1.349 . S
C2345 C2343 1.327 . S
C2345 C2361 1.429 . S
C2345 H2367 0.950 . S
C2346 H2342 0.949 . S
C2346 C2354 1.574 . S
C2346 C2362 1.368 . S
H2347 C2355 0.950 . S
H2348 C2353 0.950 . S
H2349 C2354 0.949 . S
H2350 C2356 0.950 . S
H2351 C2357 0.950 . S
H2352 C2358 0.949 . S
C2353 H2348 0.950 . S
C2353 C2355 1.327 . S
C2353 C2359 1.429 . S
C2354 C2346 1.574 . S
C2354 H2349 0.949 . S
C2354 C2360 1.368 . S
C2355 C2339 1.349 . S
C2355 H2347 0.950 . S
C2355 C2353 1.327 . S
C2356 C2344 1.349 . S
C2356 H2350 0.950 . S
C2356 C2357 1.327 . S
C2357 H2351 0.950 . S
C2357 C2356 1.327 . S
C2357 C2361 1.429 . S
C2358 C2341 1.574 . S
C2358 H2352 0.949 . S
C2358 C2362 1.368 . S
C2359 C2340 1.429 . S
C2359 C2353 1.429 . S
C2359 C2360 1.523 . S
C2360 C2341 1.368 . S
C2360 C2354 1.368 . S
C2360 C2359 1.523 . S
C2361 C2345 1.429 . S
C2361 C2357 1.429 . S
C2361 C2362 1.523 . S
C2362 C2346 1.368 . S
C2362 C2358 1.368 . S
C2362 C2361 1.523 . S
H2363 C2338 0.950 . S
H2364 C2340 0.950 . S
H2365 C2341 0.949 . S
H2366 C2343 0.950 . S
H2367 C2345 0.950 . S
C449 C8 0.908 . S
C454 C190 0.908 . S
C479 C358 1.132 . S
C484 C22 1.137 . S
C509 C36 1.119 . S
C514 C218 1.118 . S
C539 C50 1.278 . S
C544 C344 1.276 . S
C569 C64 1.303 . S
C574 C246 1.295 . S
C599 C78 1.245 . S
C604 C316 1.240 . S
C629 C92 1.234 . S
C634 C274 1.235 . S
C659 C442 0.899 . S
C664 C106 0.897 . S
C689 C302 1.295 . S
C694 C120 1.303 . S
C719 C134 1.245 . S
C724 C260 1.240 . S
C749 C330 1.235 . S
C754 C148 1.234 . S
C779 C162 1.278 . S
C784 C232 1.276 . S
C809 C204 1.132 . S
C814 C176 1.137 . S
C839 C288 0.899 . S
C844 C400 0.897 . S
C869 C414 0.908 . S
C874 C372 0.908 . S
C899 C428 1.118 . S
C904 C386 1.119 . S
C929 C13 1.568 . S
C934 C27 1.563 . S
C959 C39 1.621 . S
C964 C21 1.621 . S
C989 C55 1.571 . S
C994 C41 1.571 . S
C1019 C49 1.582 . S
C1024 C11 1.575 . S
C1049 C105 1.744 . S
C1054 C69 1.593 . S
C1079 C81 1.107 . S
C1084 C67 1.104 . S
C1109 C91 1.457 . S
C1114 C77 1.457 . S
C1139 C97 1.178 . S
C1144 C109 1.293 . S
C1169 C139 1.240 . S
C1174 C7 1.357 . S
C1199 C119 1.580 . S
C1204 C53 1.579 . S
C1229 C151 1.260 . S
C1234 C25 1.258 . S
C1259 C385 1.605 . S
C1264 C111 1.467 . S
C1289 C405 1.467 . S
C1294 C35 1.605 . S
C1319 C165 1.579 . S
C1324 C63 1.580 . S
C1349 C95 1.260 . S
C1354 C179 1.258 . S
C1379 C203 1.414 . S
C1384 C195 1.328 . S
C1409 C217 1.515 . S
C1414 C209 1.421 . S
C1439 C237 1.366 . S
C1444 C223 1.360 . S
C1469 C189 1.522 . S
C1474 C235 1.522 . S
C1499 C245 1.507 . S
C1504 C293 1.403 . S
C1529 C249 1.386 . S
C1534 C263 1.384 . S
C1559 C279 1.503 . S
C1564 C265 1.499 . S
C1589 C273 1.486 . S
C1594 C291 1.488 . S
C1619 C193 1.655 . S
C1624 C315 1.653 . S
C1649 C307 1.437 . S
C1654 C231 1.540 . S
C1679 C333 1.268 . S
C1684 C207 1.268 . S
C1709 C431 1.606 . S
C1714 C287 1.603 . S
C1739 C441 1.603 . S
C1744 C221 1.606 . S
C1769 C251 1.437 . S
C1774 C343 1.540 . S
C1799 C361 1.268 . S
C1804 C277 1.268 . S
C1829 C181 1.563 . S
C1834 C377 1.568 . S
C1859 C389 1.621 . S
C1864 C175 1.621 . S
C1889 C167 1.571 . S
C1894 C391 1.571 . S
C1919 C161 1.582 . S
C1924 C375 1.575 . S
C1949 C125 1.593 . S
C1954 C399 1.744 . S
C1979 C137 1.107 . S
C1984 C123 1.104 . S
C2009 C147 1.457 . S
C2014 C133 1.457 . S
C2039 C153 1.178 . S
C2044 C403 1.293 . S
C2069 C371 1.357 . S
C2074 C83 1.240 . S
C2099 C357 1.414 . S
C2104 C419 1.328 . S
C2129 C363 1.421 . S
C2134 C427 1.515 . S
C2159 C433 1.360 . S
C2164 C349 1.366 . S
C2189 C347 1.522 . S
C2194 C413 1.522 . S
C2219 C447 1.403 . S
C2224 C301 1.507 . S
C2249 C305 1.386 . S
C2254 C319 1.384 . S
C2279 C335 1.503 . S
C2284 C321 1.499 . S
C2309 C329 1.486 . S
C2314 C445 1.488 . S
C2339 C417 1.655 . S
C2344 C259 1.653 . S
