# Generated by pormake.
# Topology wkd, (5)-cn, num edge types: 1
# Building blocks:
#     Node 0, Type 0, BuildingBlock: XOMCOT_clean_sbu_1, # of connection points: 5
#     Node 1, Type 0, BuildingBlock: XOMCOT_clean_sbu_1, # of connection points: 5
#     Node 2, Type 0, BuildingBlock: XOMCOT_clean_sbu_1, # of connection points: 5
#     Node 3, Type 0, BuildingBlock: XOMCOT_clean_sbu_1, # of connection points: 5
#     Node 4, Type 0, BuildingBlock: XOMCOT_clean_sbu_1, # of connection points: 5
#     Node 5, Type 0, BuildingBlock: XOMCOT_clean_sbu_1, # of connection points: 5
#     Node 6, Type 0, BuildingBlock: XOMCOT_clean_sbu_1, # of connection points: 5
#     Node 7, Type 0, BuildingBlock: XOMCOT_clean_sbu_1, # of connection points: 5
#     Node 8, Type 0, BuildingBlock: XOMCOT_clean_sbu_1, # of connection points: 5
#     Node 9, Type 0, BuildingBlock: XOMCOT_clean_sbu_1, # of connection points: 5
#     Node 10, Type 0, BuildingBlock: XOMCOT_clean_sbu_1, # of connection points: 5
#     Node 11, Type 0, BuildingBlock: XOMCOT_clean_sbu_1, # of connection points: 5
#     Edge 12, Type (0, 0), BuildingBlock: XUDNAN_clean_linker_2, # of connection points: 2
#     Edge 13, Type (0, 0), BuildingBlock: XUDNAN_clean_linker_2, # of connection points: 2
#     Edge 14, Type (0, 0), BuildingBlock: XUDNAN_clean_linker_2, # of connection points: 2
#     Edge 15, Type (0, 0), BuildingBlock: XUDNAN_clean_linker_2, # of connection points: 2
#     Edge 16, Type (0, 0), BuildingBlock: XUDNAN_clean_linker_2, # of connection points: 2
#     Edge 17, Type (0, 0), BuildingBlock: XUDNAN_clean_linker_2, # of connection points: 2
#     Edge 18, Type (0, 0), BuildingBlock: XUDNAN_clean_linker_2, # of connection points: 2
#     Edge 19, Type (0, 0), BuildingBlock: XUDNAN_clean_linker_2, # of connection points: 2
#     Edge 20, Type (0, 0), BuildingBlock: XUDNAN_clean_linker_2, # of connection points: 2
#     Edge 21, Type (0, 0), BuildingBlock: XUDNAN_clean_linker_2, # of connection points: 2
#     Edge 22, Type (0, 0), BuildingBlock: XUDNAN_clean_linker_2, # of connection points: 2
#     Edge 23, Type (0, 0), BuildingBlock: XUDNAN_clean_linker_2, # of connection points: 2
#     Edge 24, Type (0, 0), BuildingBlock: XUDNAN_clean_linker_2, # of connection points: 2
#     Edge 25, Type (0, 0), BuildingBlock: XUDNAN_clean_linker_2, # of connection points: 2
#     Edge 26, Type (0, 0), BuildingBlock: XUDNAN_clean_linker_2, # of connection points: 2
#     Edge 27, Type (0, 0), BuildingBlock: XUDNAN_clean_linker_2, # of connection points: 2
#     Edge 28, Type (0, 0), BuildingBlock: XUDNAN_clean_linker_2, # of connection points: 2
#     Edge 29, Type (0, 0), BuildingBlock: XUDNAN_clean_linker_2, # of connection points: 2
#     Edge 30, Type (0, 0), BuildingBlock: XUDNAN_clean_linker_2, # of connection points: 2
#     Edge 31, Type (0, 0), BuildingBlock: XUDNAN_clean_linker_2, # of connection points: 2
#     Edge 32, Type (0, 0), BuildingBlock: XUDNAN_clean_linker_2, # of connection points: 2
#     Edge 33, Type (0, 0), BuildingBlock: XUDNAN_clean_linker_2, # of connection points: 2
#     Edge 34, Type (0, 0), BuildingBlock: XUDNAN_clean_linker_2, # of connection points: 2
#     Edge 35, Type (0, 0), BuildingBlock: XUDNAN_clean_linker_2, # of connection points: 2
#     Edge 36, Type (0, 0), BuildingBlock: XUDNAN_clean_linker_2, # of connection points: 2
#     Edge 37, Type (0, 0), BuildingBlock: XUDNAN_clean_linker_2, # of connection points: 2
#     Edge 38, Type (0, 0), BuildingBlock: XUDNAN_clean_linker_2, # of connection points: 2
#     Edge 39, Type (0, 0), BuildingBlock: XUDNAN_clean_linker_2, # of connection points: 2
#     Edge 40, Type (0, 0), BuildingBlock: XUDNAN_clean_linker_2, # of connection points: 2
#     Edge 41, Type (0, 0), BuildingBlock: XUDNAN_clean_linker_2, # of connection points: 2
# Relax obj value: 0.113
# Max RMSD: 0.171
# Mean RMSD: 0.171
data_MOF--net-wkd--node1-XOMCOT_clean_sbu_1--edge1-XUDNAN_clean_linker_2
_symmetry_space_group_name_H-M    P1
_symmetry_Int_Tables_number       1
_symmetry_cell_setting            triclinic
loop_
_symmetry_equiv_pos_as_xyz
'x, y, z'
_cell_length_a     25.444197
_cell_length_b     25.375077
_cell_length_c     109.71856
_cell_angle_alpha  89.932417
_cell_angle_beta   90.079149
_cell_angle_gamma 119.94107
loop_
_atom_site_label
_atom_site_type_symbol
_atom_site_fract_x
_atom_site_fract_y
_atom_site_fract_z
_atom_type_partial_charge
C0 C 0.05572 0.27853 0.07719 0.0
C1 C 0.05603 0.23394 0.08422 0.0
N2 N 1.01665 0.17952 0.07938 0.0
N3 N 1.0164 0.2528 0.06789 0.0
C4 C 0.99287 0.1921 0.06948 0.0
H5 H 0.08387 0.32698 0.07857 0.0
Co6 Co 1.00964 0.30041 0.05567 0.0
C7 C 0.93995 0.21367 0.03552 0.0
O8 O 0.97512 0.25404 0.02745 0.0
N9 N 1.00457 0.35204 0.04331 0.0
C10 C 0.02783 0.41775 0.02789 0.0
C11 C 0.0417 0.37819 0.03361 0.0
C12 C 0.96795 0.37686 0.04304 0.0
N13 N 0.98176 0.41746 0.03389 0.0
O14 O 0.94707 0.3042 0.06502 0.0
H15 H 0.07742 0.36995 0.03069 0.0
H16 H 0.93202 0.36624 0.04949 0.0
O17 O 0.94869 0.22621 0.04693 0.0
C18 C 0.97344 0.35371 0.07112 0.0
O19 O 0.03245 0.38843 0.06994 0.0
N20 N 0.07635 0.30275 0.04785 0.0
C21 C 0.1864 0.33469 0.03656 0.0
C22 C 0.13526 0.27704 0.03462 0.0
C23 C 0.08071 0.26114 0.04067 0.0
C24 C 0.12699 0.35625 0.05071 0.0
C25 C 0.1822 0.37342 0.0451 0.0
H26 H 0.04232 0.21624 0.03934 0.0
H27 H 0.12341 0.38761 0.05685 0.0
H28 H 0.96094 0.15795 0.06328 0.0
H29 H 0.08357 0.24105 0.09225 0.0
H30 H 0.05165 0.44636 0.02017 0.0
H31 H 0.13728 0.245 0.0284 0.0
H32 H 0.22031 0.41822 0.04695 0.0
C33 C 0.80188 0.06537 0.24203 0.0
C34 C 0.84718 0.06935 0.24953 0.0
N35 N 0.85019 0.01803 0.24833 0.0
N36 N 0.77633 1.01189 0.23605 0.0
C37 C 0.80635 0.98379 0.24016 0.0
H38 H 0.78918 0.09985 0.24081 0.0
Co39 Co 0.71644 0.98768 0.22393 0.0
C40 C 0.72693 0.8841 0.21333 0.0
O41 O 0.67124 0.84368 0.21642 0.0
N42 N 0.65718 0.96345 0.21163 0.0
C43 C 0.61071 0.93751 0.19366 0.0
C44 C 0.66262 0.9507 0.19992 0.0
C45 C 0.60209 0.9591 0.21216 0.0
N46 N 0.57239 0.94289 0.20136 0.0
O47 O 0.65873 0.92191 0.23426 0.0
H48 H 0.70235 0.95211 0.19605 0.0
H49 H 0.58517 0.96992 0.22019 0.0
O50 O 0.74803 0.93992 0.21616 0.0
C51 C 0.6363 0.94792 0.24074 0.0
O52 O 0.66054 1.00718 0.23971 0.0
N53 N 0.76788 0.05598 0.21466 0.0
C54 C 0.83087 0.16452 0.20163 0.0
C55 C 0.85516 0.12574 0.20303 0.0
C56 C 0.82302 0.07162 0.20975 0.0
C57 C 0.7446 0.09379 0.2136 0.0
C58 C 0.77473 0.14758 0.20702 0.0
H59 H 0.84286 0.04327 0.21124 0.0
H60 H 0.70178 0.08174 0.21788 0.0
H61 H 0.79756 0.93987 0.23692 0.0
H62 H 0.87578 0.10731 0.25539 0.0
H63 H 0.6023 0.92495 0.18415 0.0
H64 H 0.89898 0.13773 0.19923 0.0
H65 H 0.75372 0.17545 0.20611 0.0
C66 C 0.75329 0.80139 0.40568 0.0
C67 C 0.79526 0.8497 0.4125 0.0
N68 N 0.8476 0.84836 0.41263 0.0
N69 N 0.77891 0.76973 0.40142 0.0
C70 C 0.83622 0.79913 0.40587 0.0
H71 H 0.70673 0.78959 0.40408 0.0
Co72 Co 0.74023 0.69843 0.39214 0.0
C73 C 0.82759 0.7162 0.3725 0.0
O74 O 0.78137 0.6901 0.36495 0.0
N75 N 0.70143 0.62458 0.3832 0.0
C76 C 0.68755 0.53519 0.37684 0.0
C77 C 0.7275 0.58967 0.38205 0.0
C78 C 0.64436 0.5889 0.37883 0.0
N79 N 0.63497 0.53436 0.37488 0.0
O80 O 0.75396 0.65405 0.40487 0.0
H81 H 0.77264 0.60239 0.38517 0.0
H82 H 0.60902 0.60055 0.37912 0.0
O83 O 0.81824 0.72226 0.38378 0.0
C84 C 0.70507 0.63242 0.41109 0.0
O85 O 0.66792 0.65314 0.4088 0.0
N86 N 0.71891 0.73948 0.38051 0.0
C87 C 0.67005 0.79663 0.36636 0.0
C88 C 0.73251 0.8167 0.36603 0.0
C89 C 0.75633 0.78826 0.3734 0.0
C90 C 0.65899 0.72178 0.38135 0.0
C91 C 0.63338 0.74832 0.37417 0.0
H92 H 0.80485 0.80697 0.37366 0.0
H93 H 0.63096 0.68783 0.38798 0.0
H94 H 0.86889 0.78453 0.40418 0.0
H95 H 0.78714 0.88233 0.41724 0.0
H96 H 0.69652 0.4987 0.3748 0.0
H97 H 0.76297 0.85538 0.36051 0.0
H98 H 0.58511 0.7313 0.37489 0.0
C99 C 0.95855 0.74589 0.57377 0.0
C100 C 0.95255 0.78679 0.58101 0.0
N101 N 1.00485 0.84055 0.58065 0.0
N102 N 1.01432 0.77334 0.56878 0.0
C103 C 0.04165 0.83091 0.57317 0.0
H104 H 0.92457 0.69877 0.57235 0.0
Co105 Co 0.04455 0.73552 0.55849 0.0
C106 C 0.10535 0.8266 0.5388 0.0
O107 O 0.07782 0.78247 0.53082 0.0
N108 N 0.0771 0.69785 0.54847 0.0
C109 C 0.15076 0.68686 0.54008 0.0
C110 C 0.13673 0.72651 0.54561 0.0
C111 C 0.05636 0.63954 0.54484 0.0
N112 N 0.10035 0.63189 0.53966 0.0
O113 O 0.10626 0.74854 0.57027 0.0
H114 H 0.16924 0.77297 0.54797 0.0
H115 H 1.01142 0.60225 0.54666 0.0
O116 O 0.09702 0.81477 0.55025 0.0
C117 C 0.08206 0.70719 0.57842 0.0
O118 O 0.02279 0.67229 0.5784 0.0
N119 N 0.97893 0.71496 0.54775 0.0
C120 C 0.87036 0.66716 0.53457 0.0
C121 C 0.9109 0.73018 0.53488 0.0
C122 C 0.96429 0.75338 0.54182 0.0
C123 C 0.93808 0.65435 0.54816 0.0
C124 C 0.88456 0.62933 0.54144 0.0
H125 H 0.99281 0.80207 0.54265 0.0
H126 H 0.94593 0.62532 0.55418 0.0
H127 H 0.08761 0.86503 0.57089 0.0
H128 H 0.91292 0.77696 0.58633 0.0
H129 H 0.19526 0.6975 0.53691 0.0
H130 H 0.90049 0.76135 0.53015 0.0
H131 H 0.85431 0.58059 0.54175 0.0
C132 C 0.26444 0.01772 0.74561 0.0
C133 C 0.21908 0.01817 0.75231 0.0
N134 N 0.18284 0.02724 0.74467 0.0
N135 N 0.25757 0.02695 0.73375 0.0
C136 C 0.20714 0.03224 0.73344 0.0
H137 H 0.29945 1.00976 0.74918 0.0
Co138 Co 0.30772 0.02789 0.72108 0.0
C139 C 0.30997 0.1181 0.70251 0.0
O140 O 0.33708 0.10314 0.69416 0.0
N141 N 0.35967 0.02819 0.70854 0.0
C142 C 0.40421 0.99724 0.69505 0.0
C143 C 0.35132 0.98168 0.70123 0.0
C144 C 0.41845 0.07117 0.70665 0.0
N145 N 0.44649 0.05328 0.69861 0.0
O146 O 0.37857 0.0865 0.73018 0.0
H147 H 0.31089 0.93743 0.70097 0.0
H148 H 0.44142 0.11406 0.71146 0.0
O149 O 0.29828 0.09238 0.713 0.0
C150 C 0.40289 0.05752 0.73483 0.0
O151 O 0.37572 0.99837 0.73313 0.0
N152 N 0.23925 0.96533 0.7131 0.0
C153 C 0.15664 0.8561 0.70192 0.0
C154 C 0.17604 0.91181 0.69599 0.0
C155 C 0.21693 0.96624 0.70181 0.0
C156 C 0.21802 0.91173 0.71923 0.0
C157 C 0.17625 0.85666 0.71387 0.0
H158 H 0.23328 1.00786 0.6968 0.0
H159 H 0.23668 0.91137 0.72808 0.0
H160 H 0.18841 0.0391 0.72513 0.0
H161 H 0.21213 1.01013 0.76202 0.0
H162 H 0.4123 0.96785 0.68916 0.0
H163 H 0.1618 0.91306 0.68674 0.0
H164 H 0.16295 0.81459 0.7187 0.0
C165 C 0.28286 0.21589 0.9048 0.0
C166 C 0.24614 0.17348 0.91323 0.0
N167 N 0.20185 0.18517 0.91642 0.0
N168 N 0.26175 0.25414 0.90239 0.0
C169 C 0.21397 0.23596 0.91008 0.0
H170 H 0.32212 0.2179 0.90055 0.0
Co171 Co 0.29695 0.3183 0.89081 0.0
C172 C 0.16319 0.24829 0.88271 0.0
O173 O 0.15013 0.19963 0.88914 0.0
N174 N 0.33314 0.38229 0.87957 0.0
C175 C 0.35286 0.43622 0.8625 0.0
C176 C 0.31602 0.3808 0.86787 0.0
C177 C 0.38185 0.43855 0.88101 0.0
N178 N 0.39415 0.47228 0.87077 0.0
O179 O 0.29025 0.37283 0.90221 0.0
H180 H 0.28028 0.34127 0.86338 0.0
H181 H 0.40785 0.45449 0.88935 0.0
O182 O 0.21699 0.29451 0.88302 0.0
C183 C 0.33277 0.38855 0.91004 0.0
O184 O 0.36637 0.36265 0.9095 0.0
N185 N 0.31193 0.26915 0.8801 0.0
C186 C 0.35622 0.20773 0.86616 0.0
C187 C 0.29364 0.18553 0.86706 0.0
C188 C 0.27228 0.21724 0.87404 0.0
C189 C 0.37277 0.29058 0.87942 0.0
C190 C 0.39589 0.26106 0.87243 0.0
H191 H 0.22422 0.19908 0.87462 0.0
H192 H 0.40368 0.33083 0.88449 0.0
H193 H 0.18618 0.25719 0.9104 0.0
H194 H 0.25129 0.13619 0.91658 0.0
H195 H 0.35088 0.44855 0.85313 0.0
H196 H 0.26161 0.14433 0.86235 0.0
H197 H 0.44448 0.27915 0.87216 0.0
C198 C 0.73527 0.94277 0.79446 0.0
C199 C 0.77191 0.93395 0.78653 0.0
N200 N 0.82517 0.98621 0.78568 0.0
N201 N 0.76504 1.00052 0.79859 0.0
C202 C 0.82007 0.02597 0.79311 0.0
H203 H 0.68861 0.91003 0.79657 0.0
Co204 Co 0.72861 0.03647 0.80761 0.0
C205 C 0.81378 0.10271 0.82756 0.0
O206 O 0.76572 0.08055 0.83463 0.0
N207 N 0.69186 0.07449 0.81617 0.0
C208 C 0.6831 0.15302 0.82253 0.0
C209 C 0.72052 0.13571 0.81717 0.0
C210 C 0.63568 0.05579 0.82075 0.0
N211 N 0.62932 0.1029 0.82472 0.0
O212 O 0.74515 0.09426 0.79468 0.0
H213 H 0.76599 0.16639 0.81397 0.0
H214 H 0.59917 1.00923 0.8207 0.0
O215 O 0.8072 0.09004 0.81612 0.0
C216 C 0.70285 0.06717 0.78683 0.0
O217 O 0.66497 1.00872 0.78826 0.0
N218 N 0.70499 0.97428 0.81946 0.0
C219 C 0.65587 0.86939 0.83413 0.0
C220 C 0.71851 0.91174 0.83421 0.0
C221 C 0.74237 0.9624 0.82647 0.0
C222 C 0.64483 0.93249 0.81882 0.0
C223 C 0.61939 0.88019 0.82602 0.0
H224 H 0.79099 0.99108 0.82597 0.0
H225 H 0.6167 0.93835 0.81219 0.0
H226 H 0.85407 0.07356 0.79391 0.0
H227 H 0.75966 0.89289 0.78143 0.0
H228 H 0.69493 0.19934 0.82457 0.0
H229 H 0.74948 0.90588 0.84006 0.0
H230 H 0.57172 0.84774 0.82484 0.0
C231 C 0.7854 0.74871 0.95758 0.0
C232 C 0.83166 0.7927 0.95072 0.0
N233 N 0.84842 0.84751 0.95564 0.0
N234 N 0.77209 0.77506 0.96682 0.0
C235 C 0.81136 0.83549 0.96538 0.0
H236 H 0.7641 0.70029 0.95607 0.0
Co237 Co 0.71529 0.73149 0.97919 0.0
C238 C 0.70052 0.82807 0.99102 0.0
O239 O 0.64155 0.7951 0.98948 0.0
N240 N 0.65922 0.68729 0.99171 0.0
C241 C 0.61416 0.65889 1.0098 0.0
C242 C 0.66357 0.70264 1.0036 0.0
C243 C 0.60731 0.63295 0.99104 0.0
N244 N 0.57846 0.61481 1.00189 0.0
O245 O 0.65021 0.72927 0.96937 0.0
H246 H 0.70009 0.74345 1.00759 0.0
H247 H 0.59137 0.6065 0.98282 0.0
O248 O 0.73478 0.80834 0.98712 0.0
C249 C 0.62896 0.68069 0.96297 0.0
O250 O 0.65619 0.64838 0.96371 0.0
N251 N 0.77494 0.72552 0.98792 0.0
C252 C 0.8402 0.68339 1.00117 0.0
C253 C 0.84214 0.73797 1.00444 0.0
C254 C 0.80936 0.75877 0.99758 0.0
C255 C 0.77455 0.67398 0.98439 0.0
C256 C 0.80693 0.65228 0.99082 0.0
H257 H 0.80932 0.79951 1.00042 0.0
H258 H 0.74613 0.64769 0.97687 0.0
H259 H 0.81435 0.86996 0.97158 0.0
H260 H 0.85156 0.78459 0.94275 0.0
H261 H 0.60496 0.66047 0.01938 0.0
H262 H 0.86748 0.76343 1.01237 0.0
H263 H 0.80305 0.6095 0.98806 0.0
C264 C 0.07806 0.79552 0.12558 0.0
C265 C 0.08049 0.83961 0.11792 0.0
N266 N 0.028 0.84016 0.11891 0.0
N267 N 0.02444 0.76841 0.13147 0.0
C268 C 0.99456 0.7962 0.12712 0.0
H269 H 0.11355 0.78441 0.12687 0.0
Co270 Co 1.00236 0.70838 0.14353 0.0
C271 C 0.89823 0.71184 0.1553 0.0
O272 O 0.86238 0.65299 0.15392 0.0
N273 N 0.98112 0.64929 0.15569 0.0
C274 C 0.9648 0.60687 0.17401 0.0
C275 C 0.97733 0.6584 0.16769 0.0
C276 C 0.97109 0.59174 0.15495 0.0
N277 N 0.96061 0.56458 0.16602 0.0
O278 O 0.93683 0.65034 0.13339 0.0
H279 H 0.98446 0.70043 0.17166 0.0
H280 H 0.9718 0.57044 0.14647 0.0
O281 O 0.95261 0.73719 0.15132 0.0
C282 C 0.96157 0.63237 0.12554 0.0
O283 O 0.02081 0.65646 0.1258 0.0
N284 N 0.07021 0.76151 0.15272 0.0
C285 C 0.17741 0.82452 0.16601 0.0
C286 C 0.1317 0.83996 0.16702 0.0
C287 C 0.07834 0.80819 0.16014 0.0
C288 C 0.11445 0.74662 0.15155 0.0
C289 C 0.16842 0.77761 0.15805 0.0
H290 H 0.04356 0.82039 0.16098 0.0
H291 H 0.10708 0.70946 0.14564 0.0
H292 H 0.9499 0.78565 0.13016 0.0
H293 H 0.11806 0.86902 0.11207 0.0
H294 H 0.9608 0.60189 0.18381 0.0
H295 H 0.13721 0.87615 0.17305 0.0
H296 H 0.20213 0.76368 0.15712 0.0
C297 C 0.29216 0.05967 0.29226 0.0
C298 C 0.24954 0.0636 0.28522 0.0
N299 N 0.195 0.01422 0.28736 0.0
N300 N 0.26512 1.00805 0.29889 0.0
C301 C 0.2058 0.98104 0.29564 0.0
H302 H 0.3399 0.09313 0.29275 0.0
Co303 Co 0.30722 0.98884 0.31061 0.0
C304 C 0.18797 0.88527 0.31968 0.0
O305 O 0.18276 0.84716 0.31104 0.0
N306 N 0.34911 0.97024 0.32243 0.0
C307 C 0.37873 0.95582 0.34055 0.0
C308 C 0.3403 0.97014 0.33454 0.0
C309 C 0.39349 0.95587 0.3213 0.0
N310 N 0.4122 0.94633 0.33225 0.0
O311 O 0.29927 0.92208 0.3007 0.0
H312 H 0.30854 0.98091 0.3388 0.0
H313 H 0.41147 0.95225 0.31263 0.0
O314 O 0.23308 0.93924 0.31974 0.0
C315 C 0.34078 0.94574 0.29259 0.0
O316 O 0.3746 1.00527 0.29226 0.0
N317 N 0.32168 0.05743 0.31955 0.0
C318 C 0.3595 0.16362 0.33286 0.0
C319 C 0.29745 0.1216 0.33153 0.0
C320 C 0.27928 0.0682 0.3248 0.0
C321 C 0.38177 0.09944 0.32023 0.0
C322 C 0.40173 0.1524 0.32698 0.0
H323 H 0.2315 0.03566 0.32386 0.0
H324 H 0.41452 0.09094 0.31568 0.0
H325 H 0.17079 0.93899 0.29953 0.0
H326 H 0.25821 0.10023 0.27901 0.0
H327 H 0.38212 0.95374 0.35034 0.0
H328 H 0.26364 0.12932 0.33585 0.0
H329 H 0.44993 0.18444 0.32759 0.0
C330 C 0.24159 0.28562 0.45894 0.0
C331 C 0.19665 0.24295 0.45165 0.0
N332 N 0.18904 0.1878 0.45442 0.0
N333 N 0.26308 0.25813 0.46629 0.0
C334 C 0.23027 0.19837 0.46332 0.0
H335 H 0.25684 0.33375 0.45908 0.0
Co336 Co 0.32097 0.30049 0.47845 0.0
C337 C 0.33156 0.20581 0.49177 0.0
O338 O 0.39068 0.23864 0.49049 0.0
N339 N 0.37832 0.34388 0.49072 0.0
C340 C 0.41973 0.37588 0.50899 0.0
C341 C 0.36803 0.33615 0.50283 0.0
C342 C 0.43662 0.38927 0.48977 0.0
N343 N 0.46326 0.40927 0.50079 0.0
O344 O 0.38314 0.29613 0.469 0.0
H345 H 0.32546 0.30344 0.50695 0.0
H346 H 0.45917 0.40692 0.48116 0.0
O347 O 0.29756 0.22406 0.48703 0.0
C348 C 0.40197 0.33608 0.46053 0.0
O349 O 0.37559 0.36892 0.4592 0.0
N350 N 0.26356 0.31131 0.48693 0.0
C351 C 0.19444 0.34931 0.49987 0.0
C352 C 0.17774 0.28751 0.49964 0.0
C353 C 0.21332 0.26922 0.49307 0.0
C354 C 0.27796 0.3706 0.4865 0.0
C355 C 0.24446 0.39069 0.49298 0.0
H356 H 0.20122 0.22188 0.4931 0.0
H357 H 0.31715 0.40289 0.48134 0.0
H358 H 0.23504 0.16311 0.46786 0.0
H359 H 0.17142 0.25212 0.44485 0.0
H360 H 0.42435 0.38004 0.51879 0.0
H361 H 0.13895 0.25427 0.50478 0.0
H362 H 0.25806 0.43852 0.49274 0.0
C363 C 0.95508 0.22626 0.62931 0.0
C364 C 0.95022 0.17739 0.62299 0.0
N365 N 1.00178 0.17534 0.62452 0.0
N366 N 1.00932 0.25534 0.63494 0.0
C367 C 0.03708 0.22353 0.63181 0.0
H368 H 0.92162 0.24064 0.62954 0.0
Co369 Co 0.03607 0.32731 0.64384 0.0
C370 C 0.10008 0.31765 0.66545 0.0
O371 O 0.07299 0.34207 0.6715 0.0
N372 N 0.06441 0.40202 0.65234 0.0
C373 C 0.13366 0.49491 0.65851 0.0
C374 C 0.12454 0.44164 0.65349 0.0
C375 C 0.03788 0.43307 0.65678 0.0
N376 N 0.07922 0.48962 0.66056 0.0
O377 O 0.09819 0.37231 0.63188 0.0
H378 H 0.15999 0.43267 0.65063 0.0
H379 H 0.98967 0.41621 0.65687 0.0
O380 O 0.09022 0.30822 0.65395 0.0
C381 C 0.07323 0.39231 0.62451 0.0
O382 O 1.01408 0.36841 0.62515 0.0
N383 N 0.96972 0.28513 0.65456 0.0
C384 C 0.86039 0.22652 0.66738 0.0
C385 C 0.90528 0.21068 0.66932 0.0
C386 C 0.95901 0.23917 0.66248 0.0
C387 C 0.92502 0.29839 0.65215 0.0
C388 C 0.87031 0.27012 0.6585 0.0
H389 H 0.99105 0.22331 0.66344 0.0
H390 H 0.93163 0.33077 0.64506 0.0
H391 H 0.08244 0.2359 0.63473 0.0
H392 H 0.91217 0.14703 0.61734 0.0
H393 H 0.17709 0.53458 0.66051 0.0
H394 H 0.89815 0.1755 0.67581 0.0
H395 H 0.83621 0.28263 0.65655 0.0
H396 H 0.8151 0.9286 0.99042 0.0
H397 H 0.64382 0.85061 1.00973 0.0
H398 H 0.68718 0.93829 0.02384 0.0
H399 H 0.91389 0.99399 1.01625 0.0
H400 H 0.96719 0.06212 1.0083 0.0
H401 H 0.92342 0.99219 1.00001 0.0
H402 H 0.88295 0.04515 0.98569 0.0
H403 H 0.92689 0.11535 0.99388 0.0
H404 H 0.84621 0.08373 0.99215 0.0
H405 H 0.75187 0.03336 0.03659 0.0
H406 H 0.82774 0.13389 0.04502 0.0
H407 H 0.95284 0.15339 1.01625 0.0
C408 C 0.78673 0.93007 0.99761 0.0
C409 C 0.72607 0.88266 0.99899 0.0
C410 C 0.69028 0.88655 1.00845 0.0
C411 C 0.71465 0.93601 1.01656 0.0
C412 C 0.7747 0.98191 1.015 0.0
C413 C 0.80991 0.97987 1.00562 0.0
C414 C 0.8721 0.03647 1.00554 0.0
C415 C 0.92209 0.02019 1.00765 0.0
C416 C 0.88263 0.07229 0.99361 0.0
C417 C 0.86645 0.07059 1.01634 0.0
C418 C 0.81037 0.03795 0.02184 0.0
C419 C 0.79568 0.05958 0.03226 0.0
C420 C 0.83901 0.11651 0.03703 0.0
C421 C 0.8957 0.15164 0.03121 0.0
C422 C 0.90945 0.12791 0.02079 0.0
H423 H 0.79358 0.67095 0.16906 0.0
H424 H 0.95917 0.83498 0.1587 0.0
H425 H 0.93452 0.89455 0.17285 0.0
H426 H 0.70128 0.74441 0.17154 0.0
H427 H 0.65834 0.69866 0.18434 0.0
H428 H 0.68868 0.66832 0.17333 0.0
H429 H 0.74372 0.64553 0.19065 0.0
H430 H 0.71411 0.67643 0.2017 0.0
H431 H 0.79476 0.70625 0.20059 0.0
H432 H 0.89612 0.93577 0.1889 0.0
H433 H 0.84023 0.95906 0.20411 0.0
H434 H 0.69489 0.77092 0.20354 0.0
C435 C 0.82437 0.71948 0.16968 0.0
C436 C 0.87905 0.74794 0.16288 0.0
C437 C 0.91778 0.81168 0.16395 0.0
C438 C 0.90407 0.84609 0.17196 0.0
C439 C 0.85089 0.81648 0.17876 0.0
C440 C 0.81099 0.75488 0.17757 0.0
C441 C 0.7563 0.73495 0.18584 0.0
C442 C 0.69768 0.71013 0.17831 0.0
C443 C 0.75199 0.68801 0.19525 0.0
C444 C 0.77212 0.79493 0.19191 0.0
C445 C 0.8272 0.84106 0.18773 0.0
C446 C 0.85253 0.90018 0.19212 0.0
C447 C 0.82022 0.913 0.20081 0.0
C448 C 0.76255 0.8673 0.205 0.0
C449 C 0.73866 0.80714 0.20054 0.0
H450 H 0.86208 0.68965 0.35084 0.0
H451 H 0.93339 0.80774 0.38238 0.0
H452 H 0.03434 0.86217 0.37252 0.0
H453 H 0.99858 0.67979 0.34464 0.0
H454 H 0.9888 0.67919 0.32836 0.0
H455 H 0.92355 0.64797 0.33823 0.0
H456 H 0.88996 0.71956 0.3285 0.0
H457 H 0.95531 0.75139 0.31868 0.0
H458 H 0.94172 0.80047 0.32843 0.0
H459 H 0.12472 0.90971 0.35824 0.0
H460 H 0.20004 0.94052 0.34172 0.0
H461 H 0.07108 0.7878 0.31989 0.0
C462 C 0.89912 0.72646 0.35577 0.0
C463 C 0.88985 0.74447 0.3674 0.0
C464 C 0.93951 0.79283 0.37352 0.0
C465 C 0.99691 0.82417 0.36795 0.0
C466 C 1.00408 0.80602 0.35635 0.0
C467 C 0.95671 0.75763 0.35042 0.0
C468 C 0.97593 0.74753 0.33795 0.0
C469 C 0.97146 0.6849 0.33726 0.0
C470 C 0.9385 0.75521 0.3278 0.0
C471 C 0.04137 0.79846 0.33767 0.0
C472 C 0.05661 0.8319 0.34834 0.0
C473 C 0.11351 0.8832 0.34994 0.0
C474 C 0.15601 0.90044 0.34047 0.0
C475 C 0.14192 0.86618 0.32953 0.0
C476 C 0.08368 0.81441 0.32819 0.0
H477 H 0.22306 0.09794 0.4902 0.0
H478 H 0.38216 0.19755 0.51298 0.0
H479 H 0.33931 0.11411 0.52809 0.0
H480 H 0.11193 0.02821 0.51421 0.0
H481 H 0.06975 0.95621 0.5065 0.0
H482 H 0.11117 0.02522 0.49779 0.0
H483 H 0.16945 0.97988 0.48672 0.0
H484 H 0.12799 0.91063 0.49534 0.0
H485 H 0.20973 0.95141 0.49557 0.0
H486 H 0.2771 0.02061 0.54114 0.0
H487 H 0.20682 0.91865 0.54971 0.0
H488 H 0.09315 0.87606 0.5176 0.0
C489 C 0.24864 0.10206 0.49839 0.0
C490 C 0.30582 0.15421 0.50046 0.0
C491 C 0.33843 0.15779 0.5112 0.0
C492 C 0.31427 0.11082 0.51987 0.0
C493 C 0.25782 0.05991 0.51759 0.0
C494 C 0.2259 0.05473 0.50701 0.0
C495 C 0.1681 0.99349 0.50642 0.0
C496 C 0.11192 1.00127 0.50622 0.0
C497 C 0.1689 0.95668 0.49536 0.0
C498 C 0.17246 0.96524 0.5183 0.0
C499 C 0.22397 1.00469 0.52474 0.0
C500 C 0.23687 0.98914 0.53613 0.0
C501 C 0.19666 0.93133 0.54096 0.0
C502 C 0.14497 0.8894 0.53428 0.0
C503 C 0.13272 0.907 0.52286 0.0
H504 H 0.28143 0.13932 0.67949 0.0
H505 H 0.27578 0.18135 0.71763 0.0
H506 H 0.22668 0.24088 0.71193 0.0
H507 H 0.30828 0.28355 0.66668 0.0
H508 H 0.25902 0.24849 0.65378 0.0
H509 H 0.29765 0.21275 0.66068 0.0
H510 H 0.19478 0.11398 0.66384 0.0
H511 H 0.15587 0.14942 0.65696 0.0
H512 H 0.13505 0.11717 0.67203 0.0
H513 H 0.17741 0.29411 0.7023 0.0
H514 H 0.12487 0.33321 0.6897 0.0
H515 H 0.1564 0.25325 0.6575 0.0
C516 C 0.27079 0.16191 0.68663 0.0
C517 C 0.28337 0.15648 0.69903 0.0
C518 C 0.26712 0.18531 0.7081 0.0
C519 C 0.23928 0.21926 0.70494 0.0
C520 C 0.22725 0.2234 0.69266 0.0
C521 C 0.24199 0.19519 0.68364 0.0
C522 C 0.22062 0.20394 0.67122 0.0
C523 C 0.27462 0.2393 0.66258 0.0
C524 C 0.1738 0.14247 0.66569 0.0
C525 C 0.19153 0.24156 0.67468 0.0
C526 C 0.19655 0.25254 0.68709 0.0
C527 C 0.17317 0.28575 0.69258 0.0
C528 C 0.14325 0.3078 0.68528 0.0
C529 C 0.13611 0.29639 0.67254 0.0
C530 C 0.16116 0.26306 0.66717 0.0
H531 H 0.84178 0.0799 0.84999 0.0
H532 H 0.92187 0.19647 0.81855 0.0
H533 H 0.01998 0.25243 0.82972 0.0
H534 H 0.9174 0.19061 0.87325 0.0
H535 H 0.92682 0.13908 0.88312 0.0
H536 H 0.86369 0.11021 0.87271 0.0
H537 H 0.89597 0.03699 0.8633 0.0
H538 H 0.95864 0.06501 0.87379 0.0
H539 H 0.97215 0.06726 0.85762 0.0
H540 H 0.1086 0.29831 0.84535 0.0
H541 H 0.18149 0.31896 0.86212 0.0
H542 H 0.04205 0.16623 0.88232 0.0
C543 C 0.87989 0.11738 0.84544 0.0
C544 C 0.8742 0.13449 0.83347 0.0
C545 C 0.9254 0.1828 0.82773 0.0
C546 C 0.98103 0.21497 0.83405 0.0
C547 C 0.98465 0.19744 0.84598 0.0
C548 C 0.93546 0.14889 0.85148 0.0
C549 C 0.951 0.13643 0.86407 0.0
C550 C 0.91243 0.14459 0.87386 0.0
C551 C 0.94405 0.07266 0.86473 0.0
C552 C 1.01675 0.18571 0.86492 0.0
C553 C 0.03541 0.2212 0.85452 0.0
C554 C 0.09442 0.27016 0.85344 0.0
C555 C 0.13564 0.28167 0.86305 0.0
C556 C 0.1181 0.2436 0.87348 0.0
C557 C 0.05734 0.19595 0.87445 0.0
H558 H 0.09915 0.15475 0.08941 0.0
H559 H 0.90968 0.07242 0.07936 0.0
H560 H 0.89046 0.97463 0.08846 0.0
H561 H 0.1145 0.02289 0.08324 0.0
H562 H 0.16568 0.0379 0.09583 0.0
H563 H 0.16349 0.0999 0.0883 0.0
H564 H 0.14228 0.1348 0.109 0.0
H565 H 0.14407 0.07274 0.11658 0.0
H566 H 0.07845 0.08178 0.11804 0.0
H567 H 0.89227 0.8871 0.10009 0.0
H568 H 0.91656 0.81659 0.1112 0.0
H569 H 0.10546 0.95762 0.11284 0.0
C570 C 0.05358 0.11615 0.08912 0.0
C571 C 1.00573 0.12122 0.08377 0.0
C572 C 0.94696 0.06935 0.08337 0.0
C573 C 0.93568 0.01385 0.08858 0.0
C574 C 0.98386 1.01083 0.094 0.0
C575 C 0.04182 0.06059 0.09412 0.0
C576 C 0.08617 0.046 0.10034 0.0
C577 C 0.13535 0.05202 0.09139 0.0
C578 C 0.11438 0.08622 0.11166 0.0
C579 C 0.04421 0.98035 0.10386 0.0
C580 C 0.98524 0.96073 0.10022 0.0
C581 C 0.93843 0.90201 0.10287 0.0
C582 C 0.9525 0.86236 0.10924 0.0
C583 C 1.01294 0.88137 0.11279 0.0
C584 C 0.05903 0.94132 0.11007 0.0
H585 H 0.96412 0.09906 0.25624 0.0
H586 H 0.83468 0.90611 0.25357 0.0
H587 H 0.90838 0.8833 0.26356 0.0
H588 H 0.0967 0.08883 0.25002 0.0
H589 H 0.14398 0.14829 0.26056 0.0
H590 H 0.08062 0.1489 0.25337 0.0
H591 H 0.03773 0.15248 0.27457 0.0
H592 H 0.10101 0.15195 0.28182 0.0
H593 H 0.0246 0.09493 0.28572 0.0
H594 H 0.99752 0.8823 0.27427 0.0
H595 H 0.09458 0.90323 0.28371 0.0
H596 H 0.16429 0.09677 0.2792 0.0
C597 C 0.95083 0.05197 0.25785 0.0
C598 C 0.8932 1.00439 0.25414 0.0
C599 C 0.87854 0.94338 0.25623 0.0
C600 C 0.92006 0.92999 0.26197 0.0
C601 C 0.97636 0.97808 0.26553 0.0
C602 C 0.99177 0.03785 0.26349 0.0
C603 C 0.05544 0.08136 0.26795 0.0
C604 C 0.0966 0.11905 0.25734 0.0
C605 C 0.05461 0.1226 0.27812 0.0
C606 C 0.07363 0.03687 0.27284 0.0
C607 C 0.02741 0.97748 0.27144 0.0
C608 C 0.03395 0.92871 0.27539 0.0
C609 C 0.08917 0.94102 0.2808 0.0
C610 C 0.13748 1.00161 0.28216 0.0
C611 C 0.12893 0.04988 0.27815 0.0
H612 H 0.08138 0.16131 0.44398 0.0
H613 H 0.19405 0.08293 0.45294 0.0
H614 H 0.11858 0.98619 0.44325 0.0
H615 H 0.93747 0.02705 0.44905 0.0
H616 H 0.90104 0.04246 0.43655 0.0
H617 H 0.96342 0.10439 0.44442 0.0
H618 H 0.02078 0.14357 0.42395 0.0
H619 H 0.95861 0.08175 0.41602 0.0
H620 H 0.03412 0.09304 0.4146 0.0
H621 H 0.03025 0.89809 0.43179 0.0
H622 H 0.93691 0.82685 0.42064 0.0
H623 H 0.8849 0.96559 0.41904 0.0
C624 C 0.09077 0.12419 0.44386 0.0
C625 C 0.14425 0.13025 0.44918 0.0
C626 C 0.15346 0.07955 0.44901 0.0
C627 C 0.11092 0.02447 0.44346 0.0
C628 C 0.05916 0.02059 0.43815 0.0
C629 C 0.04897 0.06918 0.43838 0.0
C630 C 0.99003 0.05389 0.43208 0.0
C631 C 0.94536 0.05713 0.44106 0.0
C632 C 1.0016 0.09553 0.42101 0.0
C633 C 0.9685 0.98907 0.42818 0.0
C634 C 1.00887 0.9705 0.43173 0.0
C635 C 0.99844 0.91233 0.429 0.0
C636 C 0.94535 0.87221 0.42258 0.0
C637 C 0.90305 0.8902 0.41895 0.0
C638 C 0.91547 0.94973 0.4218 0.0
H639 H 0.92143 0.06232 0.61594 0.0
H640 H 0.11396 0.18906 0.62025 0.0
H641 H 0.13668 0.1167 0.60966 0.0
H642 H 0.92694 0.92463 0.62007 0.0
H643 H 0.86938 0.88328 0.60877 0.0
H644 H 0.86904 0.94418 0.61711 0.0
H645 H 0.87087 0.99726 0.59679 0.0
H646 H 0.87131 0.9366 0.58839 0.0
H647 H 0.93014 0.01415 0.58588 0.0
H648 H 0.13744 0.02969 0.59775 0.0
H649 H 0.11622 0.93677 0.58648 0.0
H650 H 0.92315 0.8708 0.58951 0.0
C651 C 0.96851 0.07543 0.61464 0.0
C652 C 1.01583 0.13202 0.61893 0.0
C653 C 0.07672 0.14606 0.61718 0.0
C654 C 0.0901 0.10526 0.6111 0.0
C655 C 0.04216 0.05043 0.60681 0.0
C656 C 0.98258 0.03555 0.60857 0.0
C657 C 0.93904 0.9744 0.60298 0.0
C658 C 0.89874 0.92895 0.61282 0.0
C659 C 0.90059 0.98103 0.59291 0.0
C660 C 0.98328 0.95701 0.59774 0.0
C661 C 0.04259 1.00124 0.60002 0.0
C662 C 0.09108 0.99488 0.59594 0.0
C663 C 0.07854 0.94194 0.58945 0.0
C664 C 1.01792 0.89578 0.58707 0.0
C665 C 0.97001 0.90421 0.59128 0.0
H666 H 0.1558 0.05905 0.76653 0.0
H667 H 0.08335 0.99288 0.73041 0.0
H668 H 0.98559 0.98312 0.73665 0.0
H669 H 0.02426 0.9596 0.78286 0.0
H670 H 0.0328 0.01425 0.79431 0.0
H671 H 0.09863 0.02131 0.7867 0.0
H672 H 0.12927 0.13095 0.78007 0.0
H673 H 0.06348 0.12427 0.78768 0.0
H674 H 0.07586 0.14435 0.77176 0.0
H675 H 0.89257 0.96992 0.74747 0.0
H676 H 0.81268 0.95927 0.76177 0.0
H677 H 0.94544 0.0369 0.79073 0.0
C678 C 0.11957 0.04293 0.75988 0.0
C679 C 0.12746 0.02667 0.74795 0.0
C680 C 0.07888 1.00632 0.73954 0.0
C681 C 0.02302 1.00037 0.74303 0.0
C682 C 1.01653 0.01564 0.75493 0.0
C683 C 0.0637 0.03713 0.7632 0.0
C684 C 0.04425 0.04824 0.77557 0.0
C685 C 0.05034 1.00847 0.78544 0.0
C686 C 0.08037 0.11599 0.77897 0.0
C687 C 0.97826 0.02825 0.77306 0.0
C688 C 0.96328 1.00966 0.76108 0.0
C689 C 0.90407 0.98528 0.7568 0.0
C690 C 0.85901 0.97923 0.76497 0.0
C691 C 0.87323 0.99793 0.77726 0.0
C692 C 0.93384 0.02359 0.7813 0.0
H693 H 0.94791 0.86784 0.94264 0.0
H694 H 0.86137 0.96003 0.95927 0.0
H695 H 0.94396 0.05848 0.9515 0.0
H696 H 0.10195 0.98357 0.94844 0.0
H697 H 0.12931 0.97177 0.93413 0.0
H698 H 0.06425 0.90967 0.94133 0.0
H699 H 1.00093 0.89324 0.92172 0.0
H700 H 0.06581 0.95515 0.91446 0.0
H701 H 0.99552 0.956 0.9154 0.0
H702 H 0.03642 0.14767 0.94078 0.0
H703 H 0.12924 0.21677 0.92911 0.0
H704 H 0.15145 0.0631 0.91967 0.0
C705 C 0.94574 0.90844 0.94462 0.0
C706 C 0.8975 0.90571 0.95152 0.0
C707 C 0.89779 0.96067 0.95407 0.0
C708 C 0.94447 0.01686 0.94964 0.0
C709 C 0.99087 0.01756 0.94272 0.0
C710 C 0.99175 0.96456 0.9403 0.0
C711 C 0.04601 0.9767 0.93262 0.0
C712 C 0.08785 0.95941 0.93955 0.0
C713 C 0.02584 0.9433 0.92032 0.0
C714 C 0.07561 0.04483 0.93098 0.0
C715 C 0.04341 0.06793 0.93682 0.0
C716 C 0.062 0.12985 0.93625 0.0
C717 C 0.11469 0.16881 0.92955 0.0
C718 C 0.14845 0.14587 0.92355 0.0
C719 C 0.12803 0.08286 0.92435 0.0
H720 H 0.53321 0.56441 0.02416 0.0
H721 H 0.48978 0.54423 0.98554 0.0
H722 H 0.38817 0.45838 0.99016 0.0
H723 H 0.44429 0.40259 0.03264 0.0
H724 H 0.42056 0.41951 0.04687 0.0
H725 H 0.49295 0.47316 0.04039 0.0
H726 H 0.46336 0.5572 0.04103 0.0
H727 H 0.39121 0.50402 0.04755 0.0
H728 H 0.39428 0.5439 0.03372 0.0
H729 H 0.28714 0.38126 0.99919 0.0
H730 H 0.19508 0.32555 1.01187 0.0
H731 H 0.30424 0.39836 0.04448 0.0
C732 C 0.5029 0.54189 1.0166 0.0
C733 C 0.52037 0.56147 1.00444 0.0
C734 C 0.47856 0.52988 0.99491 0.0
C735 C 0.42042 0.48091 0.99745 0.0
C736 C 0.40457 0.46372 1.00956 0.0
C737 C 0.44469 0.49341 0.01897 0.0
C738 C 0.41498 0.47032 0.03126 0.0
C739 C 0.44499 0.43956 0.03819 0.0
C740 C 0.41601 0.52192 0.03883 0.0
C741 C 0.35124 0.42431 0.02732 0.0
C742 C 0.34629 0.42021 1.01476 0.0
C743 C 0.29073 0.38344 1.00903 0.0
C744 C 0.2387 0.35162 1.0163 0.0
C745 C 0.24251 0.3574 0.02916 0.0
C746 C 0.29993 0.39287 0.03468 0.0
H747 H 0.90739 0.5006 0.18664 0.0
H748 H 0.98517 0.48948 0.15221 0.0
H749 H 0.96534 0.38664 0.1578 0.0
H750 H 0.96945 0.42642 0.20483 0.0
H751 H 0.90302 0.38886 0.21434 0.0
H752 H 0.92361 0.46116 0.20749 0.0
H753 H 0.8171 0.41451 0.19756 0.0
H754 H 0.79611 0.34219 0.2044 0.0
H755 H 0.79011 0.34774 0.18814 0.0
H756 H 0.93433 0.28231 0.16747 0.0
H757 H 0.89185 0.18753 0.17972 0.0
H758 H 0.84146 0.27339 0.20797 0.0
C759 C 0.92131 0.47742 0.18028 0.0
C760 C 0.9484 0.50391 0.16899 0.0
C761 C 0.96403 0.47039 0.16088 0.0
C762 C 0.95334 0.412 0.16402 0.0
C763 C 0.92727 0.38787 0.17533 0.0
C764 C 0.91154 0.41981 0.1833 0.0
C765 C 0.88327 0.3842 0.19481 0.0
C766 C 0.92218 0.41713 0.20603 0.0
C767 C 0.81777 0.3714 0.19631 0.0
C768 C 0.88486 0.32672 0.19209 0.0
C769 C 0.91046 0.32934 0.18084 0.0
C770 C 0.91459 0.2801 0.17632 0.0
C771 C 0.89075 0.2266 0.18336 0.0
C772 C 0.863 0.22285 0.19477 0.0
C773 C 0.86161 0.27435 0.19922 0.0
H774 H 0.4279 0.89995 0.3535 0.0
H775 H 0.4998 0.95199 0.31683 0.0
H776 H 0.57646 0.92219 0.32151 0.0
H777 H 0.57171 0.95633 0.36856 0.0
H778 H 0.54202 0.89511 0.37949 0.0
H779 H 0.49321 0.92042 0.37307 0.0
H780 H 0.4185 0.81056 0.36585 0.0
H781 H 0.46706 0.78491 0.37222 0.0
H782 H 0.44595 0.77147 0.35636 0.0
H783 H 0.64538 0.88418 0.33056 0.0
H784 H 0.69662 0.84058 0.34277 0.0
H785 H 0.58128 0.82105 0.37355 0.0
C786 C 0.45997 0.90623 0.34642 0.0
C787 C 0.45744 0.92897 0.33478 0.0
C788 C 0.50006 0.93447 0.3258 0.0
C789 C 0.54417 0.91794 0.3284 0.0
C790 C 0.54539 0.89625 0.34004 0.0
C791 C 0.50429 0.89059 0.34888 0.0
C792 C 0.51417 0.86582 0.36065 0.0
C793 C 0.53131 0.9122 0.37106 0.0
C794 C 0.4581 0.80456 0.36396 0.0
C795 C 0.56708 0.85783 0.35709 0.0
C796 C 0.58474 0.87553 0.34519 0.0
C797 C 0.63198 0.87054 0.33991 0.0
C798 C 0.6611 0.84606 0.34694 0.0
C799 C 0.6428 0.82682 0.35911 0.0
C800 C 0.59583 0.83408 0.36422 0.0
H801 H 0.75871 0.57564 0.54179 0.0
H802 H 0.85067 0.69754 0.51156 0.0
H803 H 0.75539 0.64689 0.49955 0.0
H804 H 0.67316 0.44307 0.52409 0.0
H805 H 0.6072 0.4132 0.53375 0.0
H806 H 0.68133 0.46196 0.54007 0.0
H807 H 0.64563 0.53484 0.54821 0.0
H808 H 0.57129 0.48619 0.54193 0.0
H809 H 0.61283 0.56551 0.5378 0.0
H810 H 0.64937 0.57764 0.49054 0.0
H811 H 0.54349 0.50004 0.48575 0.0
H812 H 0.52533 0.42283 0.52189 0.0
C813 C 0.75908 0.59182 0.53264 0.0
C814 C 0.8124 0.6404 0.52759 0.0
C815 C 0.81029 0.66074 0.51566 0.0
C816 C 0.75646 0.63201 0.50875 0.0
C817 C 0.7051 0.58324 0.51394 0.0
C818 C 0.70611 0.56369 0.52566 0.0
C819 C 0.64573 0.50956 0.52912 0.0
C820 C 0.65227 0.45365 0.53192 0.0
C821 C 0.61719 0.52498 0.5399 0.0
C822 C 0.61048 0.50106 0.51749 0.0
C823 C 0.64513 0.54394 0.50882 0.0
C824 C 0.62187 0.54404 0.4973 0.0
C825 C 0.56166 0.49943 0.49463 0.0
C826 C 0.5253 0.45513 0.50344 0.0
C827 C 0.55078 0.45636 0.51498 0.0
H828 H 0.14556 0.61046 0.65647 0.0
H829 H 0.99172 0.47356 0.67668 0.0
H830 H 0.98521 0.55483 0.68796 0.0
H831 H 0.21702 0.70748 0.68024 0.0
H832 H 0.24384 0.77696 0.6717 0.0
H833 H 0.22993 0.70856 0.66406 0.0
H834 H 0.15709 0.71903 0.64911 0.0
H835 H 0.17002 0.78741 0.65671 0.0
H836 H 0.09385 0.72462 0.65494 0.0
H837 H 1.00774 0.65086 0.69936 0.0
H838 H 0.05279 0.75279 0.70891 0.0
H839 H 0.18881 0.82658 0.68049 0.0
C840 C 0.10968 0.59771 0.66309 0.0
C841 C 0.06912 0.53591 0.66575 0.0
C842 C 0.02271 0.52072 0.67445 0.0
C843 C 0.01888 0.56658 0.68089 0.0
C844 C 0.06099 0.62727 0.67832 0.0
C845 C 0.10484 0.64278 0.66945 0.0
C846 C 0.14743 0.71084 0.66895 0.0
C847 C 0.21342 0.72685 0.67139 0.0
C848 C 0.14171 0.73701 0.6567 0.0
C849 C 0.12255 0.73125 0.6793 0.0
C850 C 0.07241 0.68252 0.68456 0.0
C851 C 0.04586 0.6895 0.69511 0.0
C852 C 0.07173 0.74742 0.70048 0.0
C853 C 0.1233 0.79762 0.69526 0.0
C854 C 0.14806 0.78941 0.68441 0.0
H855 H 0.44742 0.25733 0.84948 0.0
H856 H 0.32237 0.08665 0.86689 0.0
H857 H 0.37354 0.03711 0.85673 0.0
H858 H 0.46126 0.19159 0.82042 0.0
H859 H 0.54048 0.24766 0.819 0.0
H860 H 0.48952 0.26673 0.82663 0.0
H861 H 0.55862 0.29931 0.84576 0.0
H862 H 0.60943 0.27992 0.83825 0.0
H863 H 0.57674 0.24598 0.85274 0.0
H864 H 0.44759 1.01028 0.84636 0.0
H865 H 0.53339 1.00804 0.83623 0.0
H866 H 0.60498 0.19578 0.82508 0.0
C867 C 0.43018 0.20925 0.85099 0.0
C868 C 0.38105 0.17571 0.85895 0.0
C869 C 0.35964 0.11292 0.86071 0.0
C870 C 0.38855 0.08455 0.85502 0.0
C871 C 0.43809 0.11948 0.84745 0.0
C872 C 0.45801 0.18032 0.84531 0.0
C873 C 0.51369 0.20889 0.8373 0.0
C874 C 0.50042 0.22994 0.82511 0.0
C875 C 0.56779 0.26161 0.84391 0.0
C876 C 0.52334 0.15527 0.83555 0.0
C877 C 0.47934 0.10389 0.84139 0.0
C878 C 0.48167 0.05005 0.84159 0.0
C879 C 0.53052 0.04912 0.83577 0.0
C880 C 0.57647 0.10176 0.82987 0.0
C881 C 0.57154 0.15485 0.82962 0.0
H882 H 0.53789 0.80168 0.8427 0.0
H883 H 0.71119 0.80634 0.84309 0.0
H884 H 0.66507 0.71183 0.85501 0.0
H885 H 0.48041 0.72992 0.87207 0.0
H886 H 0.40436 0.68284 0.8664 0.0
H887 H 0.453 0.75624 0.85965 0.0
H888 H 0.43709 0.70608 0.83838 0.0
H889 H 0.38817 0.63273 0.84504 0.0
H890 H 0.45329 0.64514 0.83629 0.0
H891 H 0.59803 0.61236 0.86614 0.0
H892 H 0.51385 0.51243 0.87312 0.0
H893 H 0.38386 0.56715 0.86291 0.0
C894 C 0.56671 0.78332 0.84517 0.0
C895 C 0.62891 0.81301 0.84189 0.0
C896 C 0.66408 0.78652 0.84567 0.0
C897 C 0.63811 0.73219 0.85242 0.0
C898 C 0.57658 0.70396 0.85524 0.0
C899 C 0.54124 0.72832 0.85157 0.0
C900 C 0.47498 0.68604 0.85454 0.0
C901 C 0.45185 0.71554 0.86371 0.0
C902 C 0.43612 0.66633 0.84287 0.0
C903 C 0.47834 0.63349 0.86025 0.0
C904 C 0.53751 0.64525 0.86089 0.0
C905 C 0.5516 0.60284 0.86571 0.0
C906 C 0.50382 0.54651 0.86971 0.0
C907 C 0.44298 0.53286 0.86856 0.0
C908 C 0.43027 0.57713 0.86392 0.0
H909 H 0.97694 0.46608 1.01217 0.0
H910 H 0.93176 0.45983 0.05044 0.0
H911 H 0.89678 0.53348 0.0466 0.0
H912 H 0.03332 0.62588 1.00765 0.0
H913 H 1.00201 0.61602 0.99253 0.0
H914 H 0.0235 0.56304 0.99835 0.0
H915 H 0.91509 0.47342 0.99421 0.0
H916 H 0.89353 0.52601 0.98824 0.0
H917 H 0.85079 0.47554 1.00052 0.0
H918 H 0.86719 0.60931 0.03834 0.0
H919 H 0.83645 0.67156 0.0261 0.0
H920 H 0.90405 0.62901 0.99349 0.0
C921 C 0.96011 0.48042 0.01978 0.0
C922 C 0.95747 0.45728 0.03162 0.0
C923 C 0.93386 0.47642 0.04127 0.0
C924 C 0.91443 0.51876 0.0392 0.0
C925 C 0.91885 0.54149 0.02743 0.0
C926 C 0.9406 0.52243 0.01787 0.0
C927 C 0.93904 0.55198 1.006 0.0
C928 C 1.0033 0.59158 1.00083 0.0
C929 C 0.89711 0.50387 0.9967 0.0
C930 C 0.91271 0.59054 1.01031 0.0
C931 C 0.90175 0.58441 0.02271 0.0
C932 C 0.87587 0.61459 0.02864 0.0
C933 C 0.85909 0.65034 0.02163 0.0
C934 C 0.86793 0.65527 1.00884 0.0
C935 C 0.89652 0.62605 1.00324 0.0
H936 H 0.5238 0.93676 0.17882 0.0
H937 H 0.48345 0.92608 0.2175 0.0
H938 H 0.38066 0.90646 0.21263 0.0
H939 H 0.43463 1.00516 0.16888 0.0
H940 H 0.40977 0.96027 0.15515 0.0
H941 H 0.48241 0.98052 0.16171 0.0
H942 H 0.452 0.86666 0.1626 0.0
H943 H 0.37954 0.84614 0.15599 0.0
H944 H 0.3832 0.81345 0.17034 0.0
H945 H 0.27911 0.88123 0.20339 0.0
H946 H 0.18702 0.8456 0.19063 0.0
H947 H 0.29392 0.86895 0.15824 0.0
C948 C 0.4939 0.93061 0.18634 0.0
C949 C 0.51268 0.93358 0.19859 0.0
C950 C 0.4712 0.92535 0.20805 0.0
C951 C 0.41241 0.91397 0.20537 0.0
C952 C 0.3955 0.91083 0.19318 0.0
C953 C 0.43508 0.91866 0.18384 0.0
C954 C 0.40473 0.90852 0.17152 0.0
C955 C 0.43468 0.96712 0.16387 0.0
C956 C 0.40487 0.85554 0.16472 0.0
C957 C 0.3414 0.89237 0.17538 0.0
C958 C 0.33706 0.89492 0.1879 0.0
C959 C 0.28218 0.87961 0.19357 0.0
C960 C 0.23021 0.85977 0.18627 0.0
C961 C 0.2335 0.85467 0.17348 0.0
C962 C 0.29015 0.87246 0.16801 0.0
H963 H 0.60086 0.41489 0.37624 0.0
H964 H 0.54504 0.53942 0.36233 0.0
H965 H 0.45713 0.45337 0.35215 0.0
H966 H 0.57465 0.33287 0.34978 0.0
H967 H 0.54909 0.26063 0.35717 0.0
H968 H 0.60043 0.32983 0.36494 0.0
H969 H 0.52526 0.29929 0.38304 0.0
H970 H 0.4735 0.22974 0.3753 0.0
H971 H 0.44818 0.2811 0.38025 0.0
H972 H 0.38207 0.35425 0.34146 0.0
H973 H 0.33089 0.25429 0.33092 0.0
H974 H 0.44017 0.19822 0.35144 0.0
C975 C 0.56999 0.42426 0.37115 0.0
C976 C 0.58011 0.48406 0.37003 0.0
C977 C 0.53791 0.49392 0.36341 0.0
C978 C 0.4879 0.44529 0.35759 0.0
C979 C 0.48052 0.38709 0.35858 0.0
C980 C 0.52048 0.37661 0.36527 0.0
C981 C 0.50658 0.31158 0.36407 0.0
C982 C 0.5609 0.3086 0.35867 0.0
C983 C 0.48721 0.27847 0.3764 0.0
C984 C 0.45398 0.2874 0.35526 0.0
C985 C 0.43851 0.331 0.35236 0.0
C986 C 0.3933 0.3196 0.34381 0.0
C987 C 0.36436 0.26281 0.3379 0.0
C988 C 0.38166 0.2189 0.34044 0.0
C989 C 0.42597 0.23105 0.34942 0.0
H990 H 0.19065 0.60479 0.53981 0.0
H991 H 1.00257 0.53358 0.5296 0.0
H992 H 1.00108 0.44357 0.52037 0.0
H993 H 0.236 0.56893 0.51295 0.0
H994 H 0.2889 0.55053 0.51998 0.0
H995 H 0.27147 0.60339 0.52724 0.0
H996 H 0.23961 0.53754 0.54687 0.0
H997 H 0.2569 0.48427 0.53963 0.0
H998 H 0.18264 0.45821 0.54598 0.0
H999 H 0.02525 0.36668 0.5102 0.0
H1000 H 0.07306 0.31408 0.49983 0.0
H1001 H 0.24502 0.43917 0.51664 0.0
C1002 C 0.14888 0.57017 0.53573 0.0
C1003 C 0.09679 0.57644 0.53536 0.0
C1004 C 0.04285 0.52946 0.53008 0.0
C1005 C 0.04169 0.47827 0.5248 0.0
C1006 C 0.09465 0.47452 0.52503 0.0
C1007 C 0.14709 0.51931 0.53045 0.0
C1008 C 0.19949 0.50792 0.52873 0.0
C1009 C 0.25201 0.56081 0.52181 0.0
C1010 C 0.2209 0.49628 0.54104 0.0
C1011 C 0.16922 0.45083 0.52111 0.0
C1012 C 0.10847 0.43131 0.5192 0.0
C1013 C 0.07254 0.38119 0.51179 0.0
C1014 C 0.09986 0.35144 0.50598 0.0
C1015 C 0.16252 0.37264 0.5075 0.0
C1016 C 0.19691 0.42194 0.51539 0.0
H1017 H 0.50129 0.06521 0.67681 0.0
H1018 H 0.53633 0.10556 0.71528 0.0
H1019 H 0.64635 0.14927 0.71169 0.0
H1020 H 0.61731 0.02673 0.67095 0.0
H1021 H 0.63759 0.0636 0.65628 0.0
H1022 H 0.56148 0.0333 0.66196 0.0
H1023 H 0.56984 0.13877 0.65941 0.0
H1024 H 0.64575 0.16923 0.65362 0.0
H1025 H 0.63182 0.20442 0.66653 0.0
H1026 H 0.75255 0.18545 0.70387 0.0
H1027 H 0.84788 0.22352 0.6921 0.0
H1028 H 0.74431 0.16679 0.65854 0.0
C1029 C 0.53237 0.08335 0.68443 0.0
C1030 C 0.51063 0.08194 0.69632 0.0
C1031 C 0.55234 0.10658 0.70611 0.0
C1032 C 0.61476 0.13108 0.70415 0.0
C1033 C 0.63483 0.13152 0.69232 0.0
C1034 C 0.59498 0.1093 0.68259 0.0
C1035 C 0.62856 0.11824 0.67068 0.0
C1036 C 0.61013 0.0568 0.66462 0.0
C1037 C 0.61839 0.16017 0.66205 0.0
C1038 C 0.69343 0.14873 0.67523 0.0
C1039 C 0.69605 0.15508 0.68776 0.0
C1040 C 0.75106 0.18103 0.69405 0.0
C1041 C 0.80486 0.20217 0.68733 0.0
C1042 C 0.80321 0.19811 0.67446 0.0
C1043 C 0.7467 0.17058 0.66838 0.0
H1044 H 0.98445 0.63482 0.1017 0.0
H1045 H 0.86919 0.51623 0.13025 0.0
H1046 H 0.84176 0.42659 0.11709 0.0
H1047 H 0.89421 0.53621 0.07428 0.0
H1048 H 0.96453 0.55815 0.0665 0.0
H1049 H 0.95885 0.61085 0.07666 0.0
H1050 H 0.05227 0.62213 0.08853 0.0
H1051 H 0.05668 0.56834 0.07863 0.0
H1052 H 0.04981 0.55529 0.09486 0.0
H1053 H 0.84621 0.34974 0.10235 0.0
H1054 H 0.8813 0.29734 0.0881 0.0
H1055 H 0.99525 0.46838 0.0698 0.0
C1056 C 0.95061 0.59012 0.10487 0.0
C1057 C 0.92757 0.58234 0.11681 0.0
C1058 C 0.88558 0.52319 0.12095 0.0
C1059 C 0.87025 0.47203 0.11355 0.0
C1060 C 0.89674 0.48108 0.10199 0.0
C1061 C 0.93519 0.53915 0.09762 0.0
C1062 C 0.96537 0.5377 0.08585 0.0
C1063 C 0.94444 0.56216 0.0752 0.0
C1064 C 0.03509 0.57289 0.08706 0.0
C1065 C 0.94096 0.47012 0.08459 0.0
C1066 C 0.90025 0.4376 0.09376 0.0
C1067 C 0.87681 0.37478 0.09497 0.0
C1068 C 0.89672 0.34521 0.08684 0.0
C1069 C 0.94042 0.37886 0.07781 0.0
C1070 C 0.9611 0.44149 0.07653 0.0
H1071 H 0.54379 0.96934 0.23865 0.0
H1072 H 0.59939 0.85807 0.25855 0.0
H1073 H 0.51174 0.82641 0.27261 0.0
H1074 H 0.51276 0.02888 0.26253 0.0
H1075 H 0.44919 0.03145 0.25591 0.0
H1076 H 0.50646 0.03283 0.24622 0.0
H1077 H 0.42477 0.9392 0.23464 0.0
H1078 H 0.36635 0.93606 0.24438 0.0
H1079 H 0.37528 0.87023 0.2428 0.0
H1080 H 0.4285 0.82476 0.28676 0.0
H1081 H 0.36449 0.85417 0.2988 0.0
H1082 H 0.3651 0.96471 0.26875 0.0
C1083 C 0.53599 0.93578 0.24556 0.0
C1084 C 0.57759 0.91499 0.24731 0.0
C1085 C 0.56712 0.87324 0.25683 0.0
C1086 C 0.51753 0.85534 0.26488 0.0
C1087 C 0.47844 0.87877 0.2631 0.0
C1088 C 0.48699 0.91739 0.25346 0.0
C1089 C 0.44469 0.94302 0.25412 0.0
C1090 C 0.48042 0.01312 0.25474 0.0
C1091 C 0.4001 0.92073 0.24335 0.0
C1092 C 0.41249 0.91537 0.26596 0.0
C1093 C 0.43135 0.87749 0.271 0.0
C1094 C 0.41232 0.85288 0.28268 0.0
C1095 C 0.3754 0.86929 0.28944 0.0
C1096 C 0.35868 0.91053 0.28456 0.0
C1097 C 0.37568 0.93162 0.27253 0.0
H1098 H 0.41542 0.35493 0.43635 0.0
H1099 H 0.51509 0.36602 0.4691 0.0
H1100 H 0.61178 0.4318 0.45828 0.0
H1101 H 0.53532 0.36533 0.41346 0.0
H1102 H 0.51728 0.41002 0.40332 0.0
H1103 H 0.45876 0.3517 0.41264 0.0
H1104 H 0.43366 0.43127 0.42145 0.0
H1105 H 0.49218 0.48968 0.41234 0.0
H1106 H 0.49294 0.49877 0.42864 0.0
H1107 H 0.69489 0.51671 0.44519 0.0
H1108 H 0.75274 0.60438 0.43119 0.0
H1109 H 0.598 0.53297 0.40698 0.0
C1110 C 0.45783 0.36835 0.44101 0.0
C1111 C 0.45797 0.35457 0.45346 0.0
C1112 C 0.51407 0.37474 0.45946 0.0
C1113 C 0.56923 0.41252 0.45338 0.0
C1114 C 0.56743 0.42831 0.44122 0.0
C1115 C 0.51287 0.40519 0.43502 0.0
C1116 C 0.52143 0.43433 0.42259 0.0
C1117 C 0.50738 0.38755 0.4124 0.0
C1118 C 0.48282 0.46535 0.42119 0.0
C1119 C 0.58844 0.48042 0.42304 0.0
C1120 C 0.61494 0.47594 0.43371 0.0
C1121 C 0.67496 0.51922 0.43664 0.0
C1122 C 0.70773 0.56879 0.42864 0.0
C1123 C 0.67999 0.57468 0.41796 0.0
C1124 C 0.62057 0.52875 0.415 0.0
H1125 H 0.06484 0.67766 0.60223 0.0
H1126 H 0.17087 0.68343 0.57099 0.0
H1127 H 0.19885 0.61456 0.58157 0.0
H1128 H 0.16285 0.65788 0.62677 0.0
H1129 H 0.09519 0.60774 0.63518 0.0
H1130 H 0.0988 0.66999 0.62656 0.0
H1131 H 1.00059 0.59365 0.61518 0.0
H1132 H 0.99769 0.53159 0.62355 0.0
H1133 H 0.99852 0.5307 0.60713 0.0
H1134 H 0.1932 0.52504 0.59361 0.0
H1135 H 0.15877 0.43133 0.60605 0.0
H1136 H 0.0595 0.48778 0.62952 0.0
C1137 C 0.09698 0.66732 0.59795 0.0
C1138 C 0.11705 0.68709 0.58596 0.0
C1139 C 0.15679 0.67055 0.58035 0.0
C1140 C 0.17241 0.6309 0.58628 0.0
C1141 C 0.14892 0.60927 0.59791 0.0
C1142 C 0.11327 0.62844 0.6038 0.0
C1143 C 0.0867 0.59306 0.61546 0.0
C1144 C 0.11247 0.63467 0.62665 0.0
C1145 C 1.01679 0.56032 0.6153 0.0
C1146 C 0.10956 0.54836 0.61486 0.0
C1147 C 0.14631 0.55868 0.60482 0.0
C1148 C 0.16615 0.51789 0.6017 0.0
C1149 C 0.14669 0.46486 0.60882 0.0
C1150 C 0.10748 0.45315 0.61883 0.0
C1151 C 0.09063 0.4965 0.62205 0.0
H1152 H 0.48691 0.02307 0.73364 0.0
H1153 H 0.45199 0.1568 0.75044 0.0
H1154 H 0.54367 0.19103 0.76343 0.0
H1155 H 0.52298 0.97446 0.75895 0.0
H1156 H 0.58119 0.96307 0.75223 0.0
H1157 H 0.52186 0.95965 0.74285 0.0
H1158 H 0.60198 0.04337 0.72877 0.0
H1159 H 0.66187 0.04706 0.73819 0.0
H1160 H 0.65802 0.11494 0.73522 0.0
H1161 H 0.62828 0.19561 0.7772 0.0
H1162 H 0.69128 0.16817 0.79009 0.0
H1163 H 0.66999 0.03276 0.76363 0.0
C1164 C 0.49951 0.06082 0.73982 0.0
C1165 C 0.4626 0.08745 0.74104 0.0
C1166 C 0.48023 0.13641 0.74925 0.0
C1167 C 0.53222 0.15601 0.75665 0.0
C1168 C 0.56664 0.12707 0.75549 0.0
C1169 C 0.55114 0.08107 0.74708 0.0
C1170 C 0.59049 0.05226 0.7483 0.0
C1171 C 0.55182 0.98335 0.75074 0.0
C1172 C 0.63047 0.0652 0.73695 0.0
C1173 C 0.62815 0.08612 0.75928 0.0
C1174 C 0.61522 0.13032 0.76317 0.0
C1175 C 0.63991 0.1624 0.774 0.0
C1176 C 0.67624 0.14703 0.78123 0.0
C1177 C 0.68663 0.09941 0.77767 0.0
C1178 C 0.66425 0.07063 0.76634 0.0
H1179 H 0.54271 0.56335 0.96411 0.0
H1180 H 0.58404 0.73264 0.94663 0.0
H1181 H 0.4955 0.67565 0.93278 0.0
H1182 H 0.51358 0.48024 0.93882 0.0
H1183 H 0.45396 0.41016 0.94513 0.0
H1184 H 0.51091 0.46575 0.95497 0.0
H1185 H 0.42771 0.46784 0.96804 0.0
H1186 H 0.36966 0.41257 0.9582 0.0
H1187 H 0.37339 0.48434 0.96103 0.0
H1188 H 0.41271 0.59472 0.91842 0.0
H1189 H 0.35003 0.50327 0.9057 0.0
H1190 H 0.36512 0.39013 0.93338 0.0
C1191 C 0.53177 0.58902 0.95773 0.0
C1192 C 0.56963 0.65255 0.95657 0.0
C1193 C 0.55479 0.68413 0.94785 0.0
C1194 C 0.50468 0.65192 0.93993 0.0
C1195 C 0.46949 0.58848 0.94105 0.0
C1196 C 0.48229 0.55784 0.94994 0.0
C1197 C 0.44344 0.48965 0.94862 0.0
C1198 C 0.48282 0.45977 0.94677 0.0
C1199 C 0.401 0.46199 0.95963 0.0
C1200 C 0.40829 0.48587 0.93724 0.0
C1201 C 0.4227 0.54301 0.93303 0.0
C1202 C 0.40005 0.54995 0.92186 0.0
C1203 C 0.36394 0.49771 0.91472 0.0
C1204 C 0.35163 0.43957 0.91872 0.0
C1205 C 0.37246 0.43386 0.93028 0.0
loop_
_geom_bond_atom_site_label_1
_geom_bond_atom_site_label_2
_geom_bond_distance
_geom_bond_site_symmetry_2
_ccdc_geom_bond_type
C0 C1 1.351 . S
C0 N3 1.368 . S
C0 H5 0.931 . S
C1 C0 1.351 . S
C1 N2 1.373 . S
C1 H29 0.930 . S
N2 C1 1.373 . S
N2 C4 1.340 . S
N3 C0 1.368 . S
N3 C4 1.321 . S
N3 Co6 2.135 1_455 S
C4 N2 1.340 . S
C4 N3 1.321 . S
C4 H28 0.930 1_455 S
H5 C0 0.931 . S
Co6 N3 2.135 1_655 S
Co6 N9 2.121 . S
Co6 O14 2.055 . S
Co6 O17 2.039 . S
Co6 N20 2.140 1_655 S
C7 O8 1.227 . S
C7 O17 1.265 . S
O8 C7 1.227 . S
N9 Co6 2.121 . S
N9 C11 1.375 . S
N9 C12 1.313 . S
C10 C11 1.338 . S
C10 N13 1.377 . S
C10 H30 0.930 1_554 S
C11 N9 1.375 . S
C11 C10 1.338 . S
C11 H15 0.931 . S
C12 N9 1.313 . S
C12 N13 1.344 . S
C12 H16 0.930 . S
N13 C10 1.377 . S
N13 C12 1.344 . S
O14 Co6 2.055 . S
O14 C18 1.253 . S
H15 C11 0.931 . S
H16 C12 0.930 . S
O17 Co6 2.039 . S
O17 C7 1.265 . S
C18 O14 1.253 . S
C18 O19 1.227 1_655 S
O19 C18 1.227 1_455 S
N20 Co6 2.140 1_455 S
N20 C23 1.346 . S
N20 C24 1.345 . S
C21 C22 1.387 . S
C21 C25 1.391 . S
C22 C21 1.387 . S
C22 C23 1.369 . S
C22 H31 0.929 . S
C23 N20 1.346 . S
C23 C22 1.369 . S
C23 H26 0.928 . S
C24 N20 1.345 . S
C24 C25 1.371 . S
C24 H27 0.931 . S
C25 C21 1.391 . S
C25 C24 1.371 . S
C25 H32 0.930 . S
H26 C23 0.928 . S
H27 C24 0.931 . S
H28 C4 0.930 1_655 S
H29 C1 0.930 . S
H30 C10 0.930 1_556 S
H31 C22 0.929 . S
H32 C25 0.930 . S
C33 C34 1.351 . S
C33 N36 1.368 . S
C33 H38 0.931 . S
C34 C33 1.351 . S
C34 N35 1.373 . S
C34 H62 0.930 . S
N35 C34 1.373 . S
N35 C37 1.340 . S
N36 C33 1.368 . S
N36 C37 1.321 . S
N36 Co39 2.135 1_545 S
C37 N35 1.340 . S
C37 N36 1.321 . S
C37 H61 0.930 1_545 S
H38 C33 0.931 . S
Co39 N36 2.135 1_565 S
Co39 N42 2.121 . S
Co39 O47 2.055 . S
Co39 O50 2.039 . S
Co39 N53 2.140 1_565 S
C40 O41 1.227 . S
C40 O50 1.265 . S
O41 C40 1.227 . S
N42 Co39 2.121 . S
N42 C44 1.375 . S
N42 C45 1.313 . S
C43 C44 1.338 . S
C43 N46 1.377 . S
C43 H63 0.930 . S
C44 N42 1.375 . S
C44 C43 1.338 . S
C44 H48 0.931 . S
C45 N42 1.313 . S
C45 N46 1.344 . S
C45 H49 0.930 . S
N46 C43 1.377 . S
N46 C45 1.344 . S
O47 Co39 2.055 . S
O47 C51 1.253 . S
H48 C44 0.931 . S
H49 C45 0.930 . S
O50 Co39 2.039 . S
O50 C40 1.265 . S
C51 O47 1.253 . S
C51 O52 1.227 1_565 S
O52 C51 1.227 1_545 S
N53 Co39 2.140 1_545 S
N53 C56 1.346 . S
N53 C57 1.345 . S
C54 C55 1.387 . S
C54 C58 1.391 . S
C55 C54 1.387 . S
C55 C56 1.369 . S
C55 H64 0.929 . S
C56 N53 1.346 . S
C56 C55 1.369 . S
C56 H59 0.928 . S
C57 N53 1.345 . S
C57 C58 1.371 . S
C57 H60 0.931 . S
C58 C54 1.391 . S
C58 C57 1.371 . S
C58 H65 0.930 . S
H59 C56 0.928 . S
H60 C57 0.931 . S
H61 C37 0.930 1_565 S
H62 C34 0.930 . S
H63 C43 0.930 . S
H64 C55 0.929 . S
H65 C58 0.930 . S
C66 C67 1.351 . S
C66 N69 1.368 . S
C66 H71 0.931 . S
C67 C66 1.351 . S
C67 N68 1.373 . S
C67 H95 0.930 . S
N68 C67 1.373 . S
N68 C70 1.340 . S
N69 C66 1.368 . S
N69 C70 1.321 . S
N69 Co72 2.135 . S
C70 N68 1.340 . S
C70 N69 1.321 . S
C70 H94 0.930 . S
H71 C66 0.931 . S
Co72 N69 2.135 . S
Co72 N75 2.121 . S
Co72 O80 2.055 . S
Co72 O83 2.039 . S
Co72 N86 2.140 . S
C73 O74 1.227 . S
C73 O83 1.265 . S
O74 C73 1.227 . S
N75 Co72 2.121 . S
N75 C77 1.375 . S
N75 C78 1.313 . S
C76 C77 1.338 . S
C76 N79 1.377 . S
C76 H96 0.930 . S
C77 N75 1.375 . S
C77 C76 1.338 . S
C77 H81 0.931 . S
C78 N75 1.313 . S
C78 N79 1.344 . S
C78 H82 0.930 . S
N79 C76 1.377 . S
N79 C78 1.344 . S
O80 Co72 2.055 . S
O80 C84 1.253 . S
H81 C77 0.931 . S
H82 C78 0.930 . S
O83 Co72 2.039 . S
O83 C73 1.265 . S
C84 O80 1.253 . S
C84 O85 1.227 . S
O85 C84 1.227 . S
N86 Co72 2.140 . S
N86 C89 1.346 . S
N86 C90 1.345 . S
C87 C88 1.387 . S
C87 C91 1.391 . S
C88 C87 1.387 . S
C88 C89 1.369 . S
C88 H97 0.929 . S
C89 N86 1.346 . S
C89 C88 1.369 . S
C89 H92 0.928 . S
C90 N86 1.345 . S
C90 C91 1.371 . S
C90 H93 0.931 . S
C91 C87 1.391 . S
C91 C90 1.371 . S
C91 H98 0.930 . S
H92 C89 0.928 . S
H93 C90 0.931 . S
H94 C70 0.930 . S
H95 C67 0.930 . S
H96 C76 0.930 . S
H97 C88 0.929 . S
H98 C91 0.930 . S
C99 C100 1.351 . S
C99 N102 1.368 . S
C99 H104 0.931 . S
C100 C99 1.351 . S
C100 N101 1.373 . S
C100 H128 0.930 . S
N101 C100 1.373 . S
N101 C103 1.340 . S
N102 C99 1.368 . S
N102 C103 1.321 . S
N102 Co105 2.135 1_655 S
C103 N101 1.340 . S
C103 N102 1.321 . S
C103 H127 0.930 1_655 S
H104 C99 0.931 . S
Co105 N102 2.135 1_455 S
Co105 N108 2.121 . S
Co105 O113 2.055 . S
Co105 O116 2.039 . S
Co105 N119 2.140 1_455 S
C106 O107 1.227 . S
C106 O116 1.265 . S
O107 C106 1.227 . S
N108 Co105 2.121 . S
N108 C110 1.375 . S
N108 C111 1.313 . S
C109 C110 1.338 . S
C109 N112 1.377 . S
C109 H129 0.930 . S
C110 N108 1.375 . S
C110 C109 1.338 . S
C110 H114 0.931 . S
C111 N108 1.313 . S
C111 N112 1.344 . S
C111 H115 0.930 . S
N112 C109 1.377 . S
N112 C111 1.344 . S
O113 Co105 2.055 . S
O113 C117 1.253 . S
H114 C110 0.931 . S
H115 C111 0.930 . S
O116 Co105 2.039 . S
O116 C106 1.265 . S
C117 O113 1.253 . S
C117 O118 1.227 1_455 S
O118 C117 1.227 1_655 S
N119 Co105 2.140 1_655 S
N119 C122 1.346 . S
N119 C123 1.345 . S
C120 C121 1.387 . S
C120 C124 1.391 . S
C121 C120 1.387 . S
C121 C122 1.369 . S
C121 H130 0.929 . S
C122 N119 1.346 . S
C122 C121 1.369 . S
C122 H125 0.928 . S
C123 N119 1.345 . S
C123 C124 1.371 . S
C123 H126 0.931 . S
C124 C120 1.391 . S
C124 C123 1.371 . S
C124 H131 0.930 . S
H125 C122 0.928 . S
H126 C123 0.931 . S
H127 C103 0.930 1_455 S
H128 C100 0.930 . S
H129 C109 0.930 . S
H130 C121 0.929 . S
H131 C124 0.930 . S
C132 C133 1.351 . S
C132 N135 1.368 . S
C132 H137 0.931 . S
C133 C132 1.351 . S
C133 N134 1.373 . S
C133 H161 0.930 . S
N134 C133 1.373 . S
N134 C136 1.340 . S
N135 C132 1.368 . S
N135 C136 1.321 . S
N135 Co138 2.135 1_565 S
C136 N134 1.340 . S
C136 N135 1.321 . S
C136 H160 0.930 1_565 S
H137 C132 0.931 . S
Co138 N135 2.135 1_545 S
Co138 N141 2.121 . S
Co138 O146 2.055 . S
Co138 O149 2.039 . S
Co138 N152 2.140 1_545 S
C139 O140 1.227 . S
C139 O149 1.265 . S
O140 C139 1.227 . S
N141 Co138 2.121 . S
N141 C143 1.375 . S
N141 C144 1.313 . S
C142 C143 1.338 . S
C142 N145 1.377 . S
C142 H162 0.930 . S
C143 N141 1.375 . S
C143 C142 1.338 . S
C143 H147 0.931 . S
C144 N141 1.313 . S
C144 N145 1.344 . S
C144 H148 0.930 . S
N145 C142 1.377 . S
N145 C144 1.344 . S
O146 Co138 2.055 . S
O146 C150 1.253 . S
H147 C143 0.931 . S
H148 C144 0.930 . S
O149 Co138 2.039 . S
O149 C139 1.265 . S
C150 O146 1.253 . S
C150 O151 1.227 1_545 S
O151 C150 1.227 1_565 S
N152 Co138 2.140 1_565 S
N152 C155 1.346 . S
N152 C156 1.345 . S
C153 C154 1.387 . S
C153 C157 1.391 . S
C154 C153 1.387 . S
C154 C155 1.369 . S
C154 H163 0.929 . S
C155 N152 1.346 . S
C155 C154 1.369 . S
C155 H158 0.928 . S
C156 N152 1.345 . S
C156 C157 1.371 . S
C156 H159 0.931 . S
C157 C153 1.391 . S
C157 C156 1.371 . S
C157 H164 0.930 . S
H158 C155 0.928 . S
H159 C156 0.931 . S
H160 C136 0.930 1_545 S
H161 C133 0.930 . S
H162 C142 0.930 . S
H163 C154 0.929 . S
H164 C157 0.930 . S
C165 C166 1.351 . S
C165 N168 1.368 . S
C165 H170 0.931 . S
C166 C165 1.351 . S
C166 N167 1.373 . S
C166 H194 0.930 . S
N167 C166 1.373 . S
N167 C169 1.340 . S
N168 C165 1.368 . S
N168 C169 1.321 . S
N168 Co171 2.135 . S
C169 N167 1.340 . S
C169 N168 1.321 . S
C169 H193 0.930 . S
H170 C165 0.931 . S
Co171 N168 2.135 . S
Co171 N174 2.121 . S
Co171 O179 2.055 . S
Co171 O182 2.039 . S
Co171 N185 2.140 . S
C172 O173 1.227 . S
C172 O182 1.265 . S
O173 C172 1.227 . S
N174 Co171 2.121 . S
N174 C176 1.375 . S
N174 C177 1.313 . S
C175 C176 1.338 . S
C175 N178 1.377 . S
C175 H195 0.930 . S
C176 N174 1.375 . S
C176 C175 1.338 . S
C176 H180 0.931 . S
C177 N174 1.313 . S
C177 N178 1.344 . S
C177 H181 0.930 . S
N178 C175 1.377 . S
N178 C177 1.344 . S
O179 Co171 2.055 . S
O179 C183 1.253 . S
H180 C176 0.931 . S
H181 C177 0.930 . S
O182 Co171 2.039 . S
O182 C172 1.265 . S
C183 O179 1.253 . S
C183 O184 1.227 . S
O184 C183 1.227 . S
N185 Co171 2.140 . S
N185 C188 1.346 . S
N185 C189 1.345 . S
C186 C187 1.387 . S
C186 C190 1.391 . S
C187 C186 1.387 . S
C187 C188 1.369 . S
C187 H196 0.929 . S
C188 N185 1.346 . S
C188 C187 1.369 . S
C188 H191 0.928 . S
C189 N185 1.345 . S
C189 C190 1.371 . S
C189 H192 0.931 . S
C190 C186 1.391 . S
C190 C189 1.371 . S
C190 H197 0.930 . S
H191 C188 0.928 . S
H192 C189 0.931 . S
H193 C169 0.930 . S
H194 C166 0.930 . S
H195 C175 0.930 . S
H196 C187 0.929 . S
H197 C190 0.930 . S
C198 C199 1.351 . S
C198 N201 1.368 . S
C198 H203 0.931 . S
C199 C198 1.351 . S
C199 N200 1.373 . S
C199 H227 0.930 . S
N200 C199 1.373 . S
N200 C202 1.340 . S
N201 C198 1.368 . S
N201 C202 1.321 . S
N201 Co204 2.135 1_565 S
C202 N200 1.340 . S
C202 N201 1.321 . S
C202 H226 0.930 1_565 S
H203 C198 0.931 . S
Co204 N201 2.135 1_545 S
Co204 N207 2.121 . S
Co204 O212 2.055 . S
Co204 O215 2.039 . S
Co204 N218 2.140 1_545 S
C205 O206 1.227 . S
C205 O215 1.265 . S
O206 C205 1.227 . S
N207 Co204 2.121 . S
N207 C209 1.375 . S
N207 C210 1.313 . S
C208 C209 1.338 . S
C208 N211 1.377 . S
C208 H228 0.930 . S
C209 N207 1.375 . S
C209 C208 1.338 . S
C209 H213 0.931 . S
C210 N207 1.313 . S
C210 N211 1.344 . S
C210 H214 0.930 . S
N211 C208 1.377 . S
N211 C210 1.344 . S
O212 Co204 2.055 . S
O212 C216 1.253 . S
H213 C209 0.931 . S
H214 C210 0.930 . S
O215 Co204 2.039 . S
O215 C205 1.265 . S
C216 O212 1.253 . S
C216 O217 1.227 1_545 S
O217 C216 1.227 1_565 S
N218 Co204 2.140 1_565 S
N218 C221 1.346 . S
N218 C222 1.345 . S
C219 C220 1.387 . S
C219 C223 1.391 . S
C220 C219 1.387 . S
C220 C221 1.369 . S
C220 H229 0.929 . S
C221 N218 1.346 . S
C221 C220 1.369 . S
C221 H224 0.928 . S
C222 N218 1.345 . S
C222 C223 1.371 . S
C222 H225 0.931 . S
C223 C219 1.391 . S
C223 C222 1.371 . S
C223 H230 0.930 . S
H224 C221 0.928 . S
H225 C222 0.931 . S
H226 C202 0.930 1_545 S
H227 C199 0.930 . S
H228 C208 0.930 . S
H229 C220 0.929 . S
H230 C223 0.930 . S
C231 C232 1.351 . S
C231 N234 1.368 . S
C231 H236 0.931 . S
C232 C231 1.351 . S
C232 N233 1.373 . S
C232 H260 0.930 . S
N233 C232 1.373 . S
N233 C235 1.340 . S
N234 C231 1.368 . S
N234 C235 1.321 . S
N234 Co237 2.135 . S
C235 N233 1.340 . S
C235 N234 1.321 . S
C235 H259 0.930 . S
H236 C231 0.931 . S
Co237 N234 2.135 . S
Co237 N240 2.121 . S
Co237 O245 2.055 . S
Co237 O248 2.039 . S
Co237 N251 2.140 . S
C238 O239 1.227 . S
C238 O248 1.265 . S
O239 C238 1.227 . S
N240 Co237 2.121 . S
N240 C242 1.375 . S
N240 C243 1.313 . S
C241 C242 1.338 . S
C241 N244 1.377 . S
C241 H261 0.930 1_556 S
C242 N240 1.375 . S
C242 C241 1.338 . S
C242 H246 0.931 . S
C243 N240 1.313 . S
C243 N244 1.344 . S
C243 H247 0.930 . S
N244 C241 1.377 . S
N244 C243 1.344 . S
O245 Co237 2.055 . S
O245 C249 1.253 . S
H246 C242 0.931 . S
H247 C243 0.930 . S
O248 Co237 2.039 . S
O248 C238 1.265 . S
C249 O245 1.253 . S
C249 O250 1.227 . S
O250 C249 1.227 . S
N251 Co237 2.140 . S
N251 C254 1.346 . S
N251 C255 1.345 . S
C252 C253 1.387 . S
C252 C256 1.391 . S
C253 C252 1.387 . S
C253 C254 1.369 . S
C253 H262 0.929 . S
C254 N251 1.346 . S
C254 C253 1.369 . S
C254 H257 0.928 . S
C255 N251 1.345 . S
C255 C256 1.371 . S
C255 H258 0.931 . S
C256 C252 1.391 . S
C256 C255 1.371 . S
C256 H263 0.930 . S
H257 C254 0.928 . S
H258 C255 0.931 . S
H259 C235 0.930 . S
H260 C232 0.930 . S
H261 C241 0.930 1_554 S
H262 C253 0.929 . S
H263 C256 0.930 . S
C264 C265 1.351 . S
C264 N267 1.368 . S
C264 H269 0.931 . S
C265 C264 1.351 . S
C265 N266 1.373 . S
C265 H293 0.930 . S
N266 C265 1.373 . S
N266 C268 1.340 . S
N267 C264 1.368 . S
N267 C268 1.321 . S
N267 Co270 2.135 1_455 S
C268 N266 1.340 . S
C268 N267 1.321 . S
C268 H292 0.930 1_455 S
H269 C264 0.931 . S
Co270 N267 2.135 1_655 S
Co270 N273 2.121 . S
Co270 O278 2.055 . S
Co270 O281 2.039 . S
Co270 N284 2.140 1_655 S
C271 O272 1.227 . S
C271 O281 1.265 . S
O272 C271 1.227 . S
N273 Co270 2.121 . S
N273 C275 1.375 . S
N273 C276 1.313 . S
C274 C275 1.338 . S
C274 N277 1.377 . S
C274 H294 0.930 . S
C275 N273 1.375 . S
C275 C274 1.338 . S
C275 H279 0.931 . S
C276 N273 1.313 . S
C276 N277 1.344 . S
C276 H280 0.930 . S
N277 C274 1.377 . S
N277 C276 1.344 . S
O278 Co270 2.055 . S
O278 C282 1.253 . S
H279 C275 0.931 . S
H280 C276 0.930 . S
O281 Co270 2.039 . S
O281 C271 1.265 . S
C282 O278 1.253 . S
C282 O283 1.227 1_655 S
O283 C282 1.227 1_455 S
N284 Co270 2.140 1_455 S
N284 C287 1.346 . S
N284 C288 1.345 . S
C285 C286 1.387 . S
C285 C289 1.391 . S
C286 C285 1.387 . S
C286 C287 1.369 . S
C286 H295 0.929 . S
C287 N284 1.346 . S
C287 C286 1.369 . S
C287 H290 0.928 . S
C288 N284 1.345 . S
C288 C289 1.371 . S
C288 H291 0.931 . S
C289 C285 1.391 . S
C289 C288 1.371 . S
C289 H296 0.930 . S
H290 C287 0.928 . S
H291 C288 0.931 . S
H292 C268 0.930 1_655 S
H293 C265 0.930 . S
H294 C274 0.930 . S
H295 C286 0.929 . S
H296 C289 0.930 . S
C297 C298 1.351 . S
C297 N300 1.368 . S
C297 H302 0.931 . S
C298 C297 1.351 . S
C298 N299 1.373 . S
C298 H326 0.930 . S
N299 C298 1.373 . S
N299 C301 1.340 . S
N300 C297 1.368 . S
N300 C301 1.321 . S
N300 Co303 2.135 1_545 S
C301 N299 1.340 . S
C301 N300 1.321 . S
C301 H325 0.930 1_545 S
H302 C297 0.931 . S
Co303 N300 2.135 1_565 S
Co303 N306 2.121 . S
Co303 O311 2.055 . S
Co303 O314 2.039 . S
Co303 N317 2.140 1_565 S
C304 O305 1.227 . S
C304 O314 1.265 . S
O305 C304 1.227 . S
N306 Co303 2.121 . S
N306 C308 1.375 . S
N306 C309 1.313 . S
C307 C308 1.338 . S
C307 N310 1.377 . S
C307 H327 0.930 . S
C308 N306 1.375 . S
C308 C307 1.338 . S
C308 H312 0.931 . S
C309 N306 1.313 . S
C309 N310 1.344 . S
C309 H313 0.930 . S
N310 C307 1.377 . S
N310 C309 1.344 . S
O311 Co303 2.055 . S
O311 C315 1.253 . S
H312 C308 0.931 . S
H313 C309 0.930 . S
O314 Co303 2.039 . S
O314 C304 1.265 . S
C315 O311 1.253 . S
C315 O316 1.227 1_565 S
O316 C315 1.227 1_545 S
N317 Co303 2.140 1_545 S
N317 C320 1.346 . S
N317 C321 1.345 . S
C318 C319 1.387 . S
C318 C322 1.391 . S
C319 C318 1.387 . S
C319 C320 1.369 . S
C319 H328 0.929 . S
C320 N317 1.346 . S
C320 C319 1.369 . S
C320 H323 0.928 . S
C321 N317 1.345 . S
C321 C322 1.371 . S
C321 H324 0.931 . S
C322 C318 1.391 . S
C322 C321 1.371 . S
C322 H329 0.930 . S
H323 C320 0.928 . S
H324 C321 0.931 . S
H325 C301 0.930 1_565 S
H326 C298 0.930 . S
H327 C307 0.930 . S
H328 C319 0.929 . S
H329 C322 0.930 . S
C330 C331 1.351 . S
C330 N333 1.368 . S
C330 H335 0.931 . S
C331 C330 1.351 . S
C331 N332 1.373 . S
C331 H359 0.930 . S
N332 C331 1.373 . S
N332 C334 1.340 . S
N333 C330 1.368 . S
N333 C334 1.321 . S
N333 Co336 2.135 . S
C334 N332 1.340 . S
C334 N333 1.321 . S
C334 H358 0.930 . S
H335 C330 0.931 . S
Co336 N333 2.135 . S
Co336 N339 2.121 . S
Co336 O344 2.055 . S
Co336 O347 2.039 . S
Co336 N350 2.140 . S
C337 O338 1.227 . S
C337 O347 1.265 . S
O338 C337 1.227 . S
N339 Co336 2.121 . S
N339 C341 1.375 . S
N339 C342 1.313 . S
C340 C341 1.338 . S
C340 N343 1.377 . S
C340 H360 0.930 . S
C341 N339 1.375 . S
C341 C340 1.338 . S
C341 H345 0.931 . S
C342 N339 1.313 . S
C342 N343 1.344 . S
C342 H346 0.930 . S
N343 C340 1.377 . S
N343 C342 1.344 . S
O344 Co336 2.055 . S
O344 C348 1.253 . S
H345 C341 0.931 . S
H346 C342 0.930 . S
O347 Co336 2.039 . S
O347 C337 1.265 . S
C348 O344 1.253 . S
C348 O349 1.227 . S
O349 C348 1.227 . S
N350 Co336 2.140 . S
N350 C353 1.346 . S
N350 C354 1.345 . S
C351 C352 1.387 . S
C351 C355 1.391 . S
C352 C351 1.387 . S
C352 C353 1.369 . S
C352 H361 0.929 . S
C353 N350 1.346 . S
C353 C352 1.369 . S
C353 H356 0.928 . S
C354 N350 1.345 . S
C354 C355 1.371 . S
C354 H357 0.931 . S
C355 C351 1.391 . S
C355 C354 1.371 . S
C355 H362 0.930 . S
H356 C353 0.928 . S
H357 C354 0.931 . S
H358 C334 0.930 . S
H359 C331 0.930 . S
H360 C340 0.930 . S
H361 C352 0.929 . S
H362 C355 0.930 . S
C363 C364 1.351 . S
C363 N366 1.368 . S
C363 H368 0.931 . S
C364 C363 1.351 . S
C364 N365 1.373 . S
C364 H392 0.930 . S
N365 C364 1.373 . S
N365 C367 1.340 . S
N366 C363 1.368 . S
N366 C367 1.321 . S
N366 Co369 2.135 1_655 S
C367 N365 1.340 . S
C367 N366 1.321 . S
C367 H391 0.930 1_655 S
H368 C363 0.931 . S
Co369 N366 2.135 1_455 S
Co369 N372 2.121 . S
Co369 O377 2.055 . S
Co369 O380 2.039 . S
Co369 N383 2.140 1_455 S
C370 O371 1.227 . S
C370 O380 1.265 . S
O371 C370 1.227 . S
N372 Co369 2.121 . S
N372 C374 1.375 . S
N372 C375 1.313 . S
C373 C374 1.338 . S
C373 N376 1.377 . S
C373 H393 0.930 . S
C374 N372 1.375 . S
C374 C373 1.338 . S
C374 H378 0.931 . S
C375 N372 1.313 . S
C375 N376 1.344 . S
C375 H379 0.930 . S
N376 C373 1.377 . S
N376 C375 1.344 . S
O377 Co369 2.055 . S
O377 C381 1.253 . S
H378 C374 0.931 . S
H379 C375 0.930 . S
O380 Co369 2.039 . S
O380 C370 1.265 . S
C381 O377 1.253 . S
C381 O382 1.227 1_455 S
O382 C381 1.227 1_655 S
N383 Co369 2.140 1_655 S
N383 C386 1.346 . S
N383 C387 1.345 . S
C384 C385 1.387 . S
C384 C388 1.391 . S
C385 C384 1.387 . S
C385 C386 1.369 . S
C385 H394 0.929 . S
C386 N383 1.346 . S
C386 C385 1.369 . S
C386 H389 0.928 . S
C387 N383 1.345 . S
C387 C388 1.371 . S
C387 H390 0.931 . S
C388 C384 1.391 . S
C388 C387 1.371 . S
C388 H395 0.930 . S
H389 C386 0.928 . S
H390 C387 0.931 . S
H391 C367 0.930 1_455 S
H392 C364 0.930 . S
H393 C373 0.930 . S
H394 C385 0.929 . S
H395 C388 0.930 . S
H396 C408 0.930 . S
H397 C410 0.930 . S
H398 C411 0.943 . S
H399 C415 0.959 . S
H400 C415 0.959 . S
H401 C415 0.961 . S
H402 C416 0.960 . S
H403 C416 0.961 . S
H404 C416 0.959 . S
H405 C419 0.929 . S
H406 C420 0.931 . S
H407 C422 0.930 . S
C408 H396 0.930 . S
C408 C409 1.399 . S
C408 C413 1.399 . S
C409 C408 1.399 . S
C409 C410 1.376 . S
C410 H397 0.930 . S
C410 C409 1.376 . S
C410 C411 1.377 1_556 S
C411 H398 0.943 . S
C411 C410 1.377 1_554 S
C411 C412 1.385 1_554 S
C412 C411 1.385 1_556 S
C412 C413 1.450 . S
C412 C418 1.424 1_566 S
C413 C408 1.399 . S
C413 C412 1.450 . S
C413 C414 1.516 1_565 S
C414 C413 1.516 1_545 S
C414 C415 1.502 . S
C414 C416 1.561 . S
C414 C417 1.526 1_556 S
C415 H399 0.959 . S
C415 H400 0.959 . S
C415 H401 0.961 . S
C415 C414 1.502 . S
C416 H402 0.960 . S
C416 H403 0.961 . S
C416 H404 0.959 . S
C416 C414 1.561 . S
C417 C414 1.526 1_554 S
C417 C418 1.396 . S
C417 C422 1.390 . S
C418 C412 1.424 1_544 S
C418 C417 1.396 . S
C418 C419 1.399 . S
C419 H405 0.929 . S
C419 C418 1.399 . S
C419 C420 1.385 . S
C420 H406 0.931 . S
C420 C419 1.385 . S
C420 C421 1.389 . S
C421 C420 1.389 . S
C421 C422 1.387 . S
C422 H407 0.930 . S
C422 C417 1.390 . S
C422 C421 1.387 . S
H423 C435 0.930 . S
H424 C437 0.930 . S
H425 C438 0.930 . S
H426 C442 0.959 . S
H427 C442 0.959 . S
H428 C442 0.961 . S
H429 C443 0.960 . S
H430 C443 0.961 . S
H431 C443 0.959 . S
H432 C446 0.929 . S
H433 C447 0.931 . S
H434 C449 0.930 . S
C435 H423 0.930 . S
C435 C436 1.399 . S
C435 C440 1.399 . S
C436 C435 1.399 . S
C436 C437 1.376 . S
C437 H424 0.930 . S
C437 C436 1.376 . S
C437 C438 1.388 . S
C438 H425 0.930 . S
C438 C437 1.388 . S
C438 C439 1.390 . S
C439 C438 1.390 . S
C439 C440 1.394 . S
C439 C445 1.465 . S
C440 C435 1.399 . S
C440 C439 1.394 . S
C440 C441 1.516 . S
C441 C440 1.516 . S
C441 C442 1.502 . S
C441 C443 1.561 . S
C441 C444 1.526 . S
C442 H426 0.959 . S
C442 H427 0.959 . S
C442 H428 0.961 . S
C442 C441 1.502 . S
C443 H429 0.960 . S
C443 H430 0.961 . S
C443 H431 0.959 . S
C443 C441 1.561 . S
C444 C441 1.526 . S
C444 C445 1.396 . S
C444 C449 1.390 . S
C445 C439 1.465 . S
C445 C444 1.396 . S
C445 C446 1.399 . S
C446 H432 0.929 . S
C446 C445 1.399 . S
C446 C447 1.385 . S
C447 H433 0.931 . S
C447 C446 1.385 . S
C447 C448 1.389 . S
C448 C447 1.389 . S
C448 C449 1.387 . S
C449 H434 0.930 . S
C449 C444 1.390 . S
C449 C448 1.387 . S
H450 C462 0.930 . S
H451 C464 0.930 . S
H452 C465 0.930 . S
H453 C469 0.959 . S
H454 C469 0.959 . S
H455 C469 0.961 . S
H456 C470 0.960 . S
H457 C470 0.970 . S
H458 C470 0.959 . S
H459 C473 0.929 . S
H460 C474 0.931 . S
H461 C476 0.930 . S
C462 H450 0.930 . S
C462 C463 1.399 . S
C462 C467 1.399 . S
C463 C462 1.399 . S
C463 C464 1.376 . S
C464 H451 0.930 . S
C464 C463 1.376 . S
C464 C465 1.388 . S
C465 H452 0.930 . S
C465 C464 1.388 . S
C465 C466 1.390 . S
C466 C465 1.390 . S
C466 C467 1.394 . S
C466 C472 1.465 1_655 S
C467 C462 1.399 . S
C467 C466 1.394 . S
C467 C468 1.516 1_655 S
C468 C467 1.516 1_455 S
C468 C469 1.502 . S
C468 C470 1.561 1_455 S
C468 C471 1.526 . S
C469 H453 0.959 . S
C469 H454 0.959 . S
C469 H455 0.961 . S
C469 C468 1.502 . S
C470 H456 0.960 . S
C470 H457 0.970 . S
C470 H458 0.959 . S
C470 C468 1.561 1_655 S
C471 C468 1.526 . S
C471 C472 1.396 . S
C471 C476 1.390 . S
C472 C466 1.465 1_455 S
C472 C471 1.396 . S
C472 C473 1.399 . S
C473 H459 0.929 . S
C473 C472 1.399 . S
C473 C474 1.385 . S
C474 H460 0.931 . S
C474 C473 1.385 . S
C474 C475 1.389 . S
C475 C474 1.389 . S
C475 C476 1.387 . S
C476 H461 0.930 . S
C476 C471 1.390 . S
C476 C475 1.387 . S
H477 C489 0.930 . S
H478 C491 0.930 . S
H479 C492 0.930 . S
H480 C496 0.959 . S
H481 C496 0.959 . S
H482 C496 0.961 . S
H483 C497 0.960 . S
H484 C497 0.961 . S
H485 C497 0.959 . S
H486 C500 0.929 1_545 S
H487 C501 0.931 . S
H488 C503 0.930 . S
C489 H477 0.930 . S
C489 C490 1.399 . S
C489 C494 1.399 . S
C490 C489 1.399 . S
C490 C491 1.376 . S
C491 H478 0.930 . S
C491 C490 1.376 . S
C491 C492 1.388 . S
C492 H479 0.930 . S
C492 C491 1.388 . S
C492 C493 1.390 . S
C493 C492 1.390 . S
C493 C494 1.394 . S
C493 C499 1.465 1_545 S
C494 C489 1.399 . S
C494 C493 1.394 . S
C494 C495 1.516 1_545 S
C495 C494 1.516 1_565 S
C495 C496 1.502 . S
C495 C497 1.561 . S
C495 C498 1.526 . S
C496 H480 0.959 . S
C496 H481 0.959 . S
C496 H482 0.961 . S
C496 C495 1.502 . S
C497 H483 0.960 . S
C497 H484 0.961 . S
C497 H485 0.959 . S
C497 C495 1.561 . S
C498 C495 1.526 . S
C498 C499 1.396 . S
C498 C503 1.390 . S
C499 C493 1.465 1_565 S
C499 C498 1.396 . S
C499 C500 1.399 . S
C500 H486 0.929 1_565 S
C500 C499 1.399 . S
C500 C501 1.385 . S
C501 H487 0.931 . S
C501 C500 1.385 . S
C501 C502 1.389 . S
C502 C501 1.389 . S
C502 C503 1.387 . S
C503 H488 0.930 . S
C503 C498 1.390 . S
C503 C502 1.387 . S
H504 C516 0.930 . S
H505 C518 0.930 . S
H506 C519 0.930 . S
H507 C523 0.959 . S
H508 C523 0.959 . S
H509 C523 0.961 . S
H510 C524 0.960 . S
H511 C524 0.961 . S
H512 C524 0.959 . S
H513 C527 0.929 . S
H514 C528 0.931 . S
H515 C530 0.930 . S
C516 H504 0.930 . S
C516 C517 1.399 . S
C516 C521 1.399 . S
C517 C516 1.399 . S
C517 C518 1.376 . S
C518 H505 0.930 . S
C518 C517 1.376 . S
C518 C519 1.388 . S
C519 H506 0.930 . S
C519 C518 1.388 . S
C519 C520 1.390 . S
C520 C519 1.390 . S
C520 C521 1.394 . S
C520 C526 1.465 . S
C521 C516 1.399 . S
C521 C520 1.394 . S
C521 C522 1.516 . S
C522 C521 1.516 . S
C522 C523 1.502 . S
C522 C524 1.561 . S
C522 C525 1.526 . S
C523 H507 0.959 . S
C523 H508 0.959 . S
C523 H509 0.961 . S
C523 C522 1.502 . S
C524 H510 0.960 . S
C524 H511 0.961 . S
C524 H512 0.959 . S
C524 C522 1.561 . S
C525 C522 1.526 . S
C525 C526 1.396 . S
C525 C530 1.390 . S
C526 C520 1.465 . S
C526 C525 1.396 . S
C526 C527 1.399 . S
C527 H513 0.929 . S
C527 C526 1.399 . S
C527 C528 1.385 . S
C528 H514 0.931 . S
C528 C527 1.385 . S
C528 C529 1.389 . S
C529 C528 1.389 . S
C529 C530 1.387 . S
C530 H515 0.930 . S
C530 C525 1.390 . S
C530 C529 1.387 . S
H531 C543 0.930 . S
H532 C545 0.930 . S
H533 C546 0.930 1_455 S
H534 C550 0.959 . S
H535 C550 0.959 . S
H536 C550 0.961 . S
H537 C551 0.960 . S
H538 C551 0.961 . S
H539 C551 0.959 . S
H540 C554 0.929 . S
H541 C555 0.931 . S
H542 C557 0.930 . S
C543 H531 0.930 . S
C543 C544 1.399 . S
C543 C548 1.399 . S
C544 C543 1.399 . S
C544 C545 1.376 . S
C545 H532 0.930 . S
C545 C544 1.376 . S
C545 C546 1.388 . S
C546 H533 0.930 1_655 S
C546 C545 1.388 . S
C546 C547 1.390 . S
C547 C546 1.390 . S
C547 C548 1.394 . S
C547 C553 1.465 1_655 S
C548 C543 1.399 . S
C548 C547 1.394 . S
C548 C549 1.516 . S
C549 C548 1.516 . S
C549 C550 1.502 . S
C549 C551 1.561 . S
C549 C552 1.526 1_655 S
C550 H534 0.959 . S
C550 H535 0.959 . S
C550 H536 0.961 . S
C550 C549 1.502 . S
C551 H537 0.960 . S
C551 H538 0.961 . S
C551 H539 0.959 . S
C551 C549 1.561 . S
C552 C549 1.526 1_455 S
C552 C553 1.396 . S
C552 C557 1.390 . S
C553 C547 1.465 1_455 S
C553 C552 1.396 . S
C553 C554 1.399 . S
C554 H540 0.929 . S
C554 C553 1.399 . S
C554 C555 1.385 . S
C555 H541 0.931 . S
C555 C554 1.385 . S
C555 C556 1.389 . S
C556 C555 1.389 . S
C556 C557 1.387 . S
C557 H542 0.930 . S
C557 C552 1.390 . S
C557 C556 1.387 . S
H558 C570 0.930 . S
H559 C572 0.930 1_655 S
H560 C573 0.930 1_565 S
H561 C577 0.959 . S
H562 C577 0.959 . S
H563 C577 0.961 . S
H564 C578 0.960 . S
H565 C578 0.961 . S
H566 C578 0.959 . S
H567 C581 0.929 . S
H568 C582 0.931 1_655 S
H569 C584 0.930 . S
C570 H558 0.930 . S
C570 C571 1.399 . S
C570 C575 1.399 . S
C571 C570 1.399 . S
C571 C572 1.376 . S
C572 H559 0.930 1_455 S
C572 C571 1.376 . S
C572 C573 1.388 1_455 S
C573 H560 0.930 1_545 S
C573 C572 1.388 1_655 S
C573 C574 1.390 1_655 S
C574 C573 1.390 1_455 S
C574 C575 1.394 . S
C574 C580 1.465 1_545 S
C575 C570 1.399 . S
C575 C574 1.394 . S
C575 C576 1.516 . S
C576 C575 1.516 . S
C576 C577 1.502 . S
C576 C578 1.561 . S
C576 C579 1.526 . S
C577 H561 0.959 . S
C577 H562 0.959 . S
C577 H563 0.961 . S
C577 C576 1.502 . S
C578 H564 0.960 . S
C578 H565 0.961 . S
C578 H566 0.959 . S
C578 C576 1.561 . S
C579 C576 1.526 . S
C579 C580 1.396 1_545 S
C579 C584 1.390 1_545 S
C580 C574 1.465 1_565 S
C580 C579 1.396 1_565 S
C580 C581 1.399 1_455 S
C581 H567 0.929 . S
C581 C580 1.399 1_655 S
C581 C582 1.385 1_655 S
C582 H568 0.931 1_455 S
C582 C581 1.385 1_455 S
C582 C583 1.389 . S
C583 C582 1.389 . S
C583 C584 1.387 . S
C584 H569 0.930 . S
C584 C579 1.390 1_565 S
C584 C583 1.387 . S
H585 C597 0.930 . S
H586 C599 0.930 . S
H587 C600 0.930 . S
H588 C604 0.959 . S
H589 C604 0.959 . S
H590 C604 0.961 . S
H591 C605 0.960 1_655 S
H592 C605 0.961 . S
H593 C605 0.959 1_655 S
H594 C608 0.929 . S
H595 C609 0.931 . S
H596 C611 0.930 . S
C597 H585 0.930 . S
C597 C598 1.399 . S
C597 C602 1.399 . S
C598 C597 1.399 . S
C598 C599 1.376 1_545 S
C599 H586 0.930 . S
C599 C598 1.376 1_565 S
C599 C600 1.388 . S
C600 H587 0.930 . S
C600 C599 1.388 . S
C600 C601 1.390 1_565 S
C601 C600 1.390 1_545 S
C601 C602 1.394 . S
C601 C607 1.465 1_655 S
C602 C597 1.399 . S
C602 C601 1.394 . S
C602 C603 1.516 1_655 S
C603 C602 1.516 1_455 S
C603 C604 1.502 . S
C603 C605 1.561 . S
C603 C606 1.526 . S
C604 H588 0.959 . S
C604 H589 0.959 . S
C604 H590 0.961 . S
C604 C603 1.502 . S
C605 H591 0.960 1_455 S
C605 H592 0.961 . S
C605 H593 0.959 1_455 S
C605 C603 1.561 . S
C606 C603 1.526 . S
C606 C607 1.396 . S
C606 C611 1.390 . S
C607 C601 1.465 1_455 S
C607 C606 1.396 . S
C607 C608 1.399 1_545 S
C608 H594 0.929 . S
C608 C607 1.399 1_565 S
C608 C609 1.385 . S
C609 H595 0.931 . S
C609 C608 1.385 . S
C609 C610 1.389 1_565 S
C610 C609 1.389 1_545 S
C610 C611 1.387 . S
C611 H596 0.930 . S
C611 C606 1.390 . S
C611 C610 1.387 . S
H612 C624 0.930 . S
H613 C626 0.930 . S
H614 C627 0.930 . S
H615 C631 0.959 1_455 S
H616 C631 0.959 . S
H617 C631 0.961 1_455 S
H618 C632 0.960 . S
H619 C632 0.961 . S
H620 C632 0.959 . S
H621 C635 0.929 . S
H622 C636 0.931 . S
H623 C638 0.930 . S
C624 H612 0.930 . S
C624 C625 1.399 . S
C624 C629 1.399 . S
C625 C624 1.399 . S
C625 C626 1.376 . S
C626 H613 0.930 . S
C626 C625 1.376 . S
C626 C627 1.388 . S
C627 H614 0.930 . S
C627 C626 1.388 . S
C627 C628 1.390 1_455 S
C628 C627 1.390 1_655 S
C628 C629 1.394 1_655 S
C628 C634 1.465 . S
C629 C624 1.399 . S
C629 C628 1.394 1_455 S
C629 C630 1.516 1_445 S
C630 C629 1.516 1_665 S
C630 C631 1.502 . S
C630 C632 1.561 . S
C630 C633 1.526 . S
C631 H615 0.959 1_655 S
C631 H616 0.959 . S
C631 H617 0.961 1_655 S
C631 C630 1.502 . S
C632 H618 0.960 . S
C632 H619 0.961 . S
C632 H620 0.959 . S
C632 C630 1.561 . S
C633 C630 1.526 . S
C633 C634 1.396 1_565 S
C633 C638 1.390 . S
C634 C628 1.465 . S
C634 C633 1.396 1_545 S
C634 C635 1.399 . S
C635 H621 0.929 . S
C635 C634 1.399 . S
C635 C636 1.385 1_545 S
C636 H622 0.931 . S
C636 C635 1.385 1_565 S
C636 C637 1.389 . S
C637 C636 1.389 . S
C637 C638 1.387 . S
C638 H623 0.930 . S
C638 C633 1.390 . S
C638 C637 1.387 . S
H639 C651 0.930 . S
H640 C653 0.930 . S
H641 C654 0.930 . S
H642 C658 0.959 . S
H643 C658 0.959 . S
H644 C658 0.961 . S
H645 C659 0.960 . S
H646 C659 0.961 . S
H647 C659 0.959 . S
H648 C662 0.929 1_545 S
H649 C663 0.931 . S
H650 C665 0.930 . S
C651 H639 0.930 . S
C651 C652 1.399 . S
C651 C656 1.399 1_545 S
C652 C651 1.399 . S
C652 C653 1.376 1_655 S
C653 H640 0.930 . S
C653 C652 1.376 1_455 S
C653 C654 1.388 . S
C654 H641 0.930 . S
C654 C653 1.388 . S
C654 C655 1.390 1_455 S
C655 C654 1.390 1_655 S
C655 C656 1.394 1_545 S
C655 C661 1.465 1_545 S
C656 C651 1.399 1_565 S
C656 C655 1.394 1_565 S
C656 C657 1.516 . S
C657 C656 1.516 . S
C657 C658 1.502 . S
C657 C659 1.561 . S
C657 C660 1.526 . S
C658 H642 0.959 . S
C658 H643 0.959 . S
C658 H644 0.961 . S
C658 C657 1.502 . S
C659 H645 0.960 . S
C659 H646 0.961 . S
C659 H647 0.959 . S
C659 C657 1.561 . S
C660 C657 1.526 . S
C660 C661 1.396 . S
C660 C665 1.390 . S
C661 C655 1.465 1_565 S
C661 C660 1.396 . S
C661 C662 1.399 1_655 S
C662 H648 0.929 1_565 S
C662 C661 1.399 1_455 S
C662 C663 1.385 . S
C663 H649 0.931 . S
C663 C662 1.385 . S
C663 C664 1.389 1_455 S
C664 C663 1.389 1_655 S
C664 C665 1.387 . S
C665 H650 0.930 . S
C665 C660 1.390 . S
C665 C664 1.387 . S
H666 C678 0.930 1_545 S
H667 C680 0.930 . S
H668 C681 0.930 . S
H669 C685 0.959 . S
H670 C685 0.959 . S
H671 C685 0.961 . S
H672 C686 0.960 . S
H673 C686 0.961 . S
H674 C686 0.959 1_655 S
H675 C689 0.929 . S
H676 C690 0.931 . S
H677 C692 0.930 1_545 S
C678 H666 0.930 1_565 S
C678 C679 1.399 . S
C678 C683 1.399 . S
C679 C678 1.399 . S
C679 C680 1.376 . S
C680 H667 0.930 . S
C680 C679 1.376 . S
C680 C681 1.388 1_455 S
C681 H668 0.930 . S
C681 C680 1.388 1_655 S
C681 C682 1.390 . S
C682 C681 1.390 . S
C682 C683 1.394 1_655 S
C682 C688 1.465 . S
C683 C678 1.399 . S
C683 C682 1.394 1_455 S
C683 C684 1.516 1_565 S
C684 C683 1.516 1_545 S
C684 C685 1.502 . S
C684 C686 1.561 . S
C684 C687 1.526 1_445 S
C685 H669 0.959 . S
C685 H670 0.959 . S
C685 H671 0.961 . S
C685 C684 1.502 . S
C686 H672 0.960 . S
C686 H673 0.961 . S
C686 H674 0.959 1_455 S
C686 C684 1.561 . S
C687 C684 1.526 1_665 S
C687 C688 1.396 . S
C687 C692 1.390 . S
C688 C682 1.465 . S
C688 C687 1.396 . S
C688 C689 1.399 . S
C689 H675 0.929 . S
C689 C688 1.399 . S
C689 C690 1.385 . S
C690 H676 0.931 . S
C690 C689 1.385 . S
C690 C691 1.389 . S
C691 C690 1.389 . S
C691 C692 1.387 . S
C692 H677 0.930 1_565 S
C692 C687 1.390 . S
C692 C691 1.387 . S
H693 C705 0.930 . S
H694 C707 0.930 . S
H695 C708 0.930 . S
H696 C712 0.959 . S
H697 C712 0.959 . S
H698 C712 0.961 . S
H699 C713 0.960 . S
H700 C713 0.961 . S
H701 C713 0.959 . S
H702 C716 0.929 . S
H703 C717 0.931 . S
H704 C719 0.930 . S
C705 H693 0.930 . S
C705 C706 1.399 . S
C705 C710 1.399 . S
C706 C705 1.399 . S
C706 C707 1.376 . S
C707 H694 0.930 . S
C707 C706 1.376 . S
C707 C708 1.388 1_655 S
C708 H695 0.930 . S
C708 C707 1.388 1_455 S
C708 C709 1.390 . S
C709 C708 1.390 . S
C709 C710 1.394 1_455 S
C709 C715 1.465 . S
C710 C705 1.399 . S
C710 C709 1.394 1_655 S
C710 C711 1.516 . S
C711 C710 1.516 . S
C711 C712 1.502 . S
C711 C713 1.561 1_565 S
C711 C714 1.526 1_665 S
C712 H696 0.959 . S
C712 H697 0.959 . S
C712 H698 0.961 . S
C712 C711 1.502 . S
C713 H699 0.960 . S
C713 H700 0.961 . S
C713 H701 0.959 . S
C713 C711 1.561 1_545 S
C714 C711 1.526 1_445 S
C714 C715 1.396 1_545 S
C714 C719 1.390 . S
C715 C709 1.465 . S
C715 C714 1.396 1_565 S
C715 C716 1.399 1_565 S
C716 H702 0.929 . S
C716 C715 1.399 1_545 S
C716 C717 1.385 . S
C717 H703 0.931 . S
C717 C716 1.385 . S
C717 C718 1.389 . S
C718 C717 1.389 . S
C718 C719 1.387 . S
C719 H704 0.930 . S
C719 C714 1.390 . S
C719 C718 1.387 . S
H720 C732 0.930 1_554 S
H721 C734 0.930 . S
H722 C735 0.930 . S
H723 C739 0.959 . S
H724 C739 0.959 . S
H725 C739 0.961 . S
H726 C740 0.960 . S
H727 C740 0.961 . S
H728 C740 0.959 . S
H729 C743 0.929 . S
H730 C744 0.931 1_556 S
H731 C746 0.930 . S
C732 H720 0.930 1_556 S
C732 C733 1.399 . S
C732 C737 1.399 1_556 S
C733 C732 1.399 . S
C733 C734 1.376 . S
C734 H721 0.930 . S
C734 C733 1.376 . S
C734 C735 1.388 . S
C735 H722 0.930 . S
C735 C734 1.388 . S
C735 C736 1.390 . S
C736 C735 1.390 . S
C736 C737 1.394 1_556 S
C736 C742 1.465 . S
C737 C732 1.399 1_554 S
C737 C736 1.394 1_554 S
C737 C738 1.516 . S
C738 C737 1.516 . S
C738 C739 1.502 . S
C738 C740 1.561 . S
C738 C741 1.526 . S
C739 H723 0.959 . S
C739 H724 0.959 . S
C739 H725 0.961 . S
C739 C738 1.502 . S
C740 H726 0.960 . S
C740 H727 0.961 . S
C740 H728 0.959 . S
C740 C738 1.561 . S
C741 C738 1.526 . S
C741 C742 1.396 1_554 S
C741 C746 1.390 . S
C742 C736 1.465 . S
C742 C741 1.396 1_556 S
C742 C743 1.399 . S
C743 H729 0.929 . S
C743 C742 1.399 . S
C743 C744 1.385 1_556 S
C744 H730 0.931 1_554 S
C744 C743 1.385 1_554 S
C744 C745 1.389 . S
C745 C744 1.389 . S
C745 C746 1.387 . S
C746 H731 0.930 . S
C746 C741 1.390 . S
C746 C745 1.387 . S
H747 C759 0.930 . S
H748 C761 0.930 . S
H749 C762 0.930 . S
H750 C766 0.959 . S
H751 C766 0.959 . S
H752 C766 0.961 . S
H753 C767 0.960 . S
H754 C767 0.961 . S
H755 C767 0.959 . S
H756 C770 0.929 . S
H757 C771 0.931 . S
H758 C773 0.930 . S
C759 H747 0.930 . S
C759 C760 1.399 . S
C759 C764 1.399 . S
C760 C759 1.399 . S
C760 C761 1.376 . S
C761 H748 0.930 . S
C761 C760 1.376 . S
C761 C762 1.388 . S
C762 H749 0.930 . S
C762 C761 1.388 . S
C762 C763 1.390 . S
C763 C762 1.390 . S
C763 C764 1.394 . S
C763 C769 1.465 . S
C764 C759 1.399 . S
C764 C763 1.394 . S
C764 C765 1.516 . S
C765 C764 1.516 . S
C765 C766 1.502 . S
C765 C767 1.561 . S
C765 C768 1.526 . S
C766 H750 0.959 . S
C766 H751 0.959 . S
C766 H752 0.961 . S
C766 C765 1.502 . S
C767 H753 0.960 . S
C767 H754 0.961 . S
C767 H755 0.959 . S
C767 C765 1.561 . S
C768 C765 1.526 . S
C768 C769 1.396 . S
C768 C773 1.390 . S
C769 C763 1.465 . S
C769 C768 1.396 . S
C769 C770 1.399 . S
C770 H756 0.929 . S
C770 C769 1.399 . S
C770 C771 1.385 . S
C771 H757 0.931 . S
C771 C770 1.385 . S
C771 C772 1.389 . S
C772 C771 1.389 . S
C772 C773 1.387 . S
C773 H758 0.930 . S
C773 C768 1.390 . S
C773 C772 1.387 . S
H774 C786 0.930 . S
H775 C788 0.930 . S
H776 C789 0.930 . S
H777 C793 0.959 . S
H778 C793 0.959 . S
H779 C793 0.961 . S
H780 C794 0.960 . S
H781 C794 0.961 . S
H782 C794 0.959 . S
H783 C797 0.929 . S
H784 C798 0.931 . S
H785 C800 0.930 . S
C786 H774 0.930 . S
C786 C787 1.399 . S
C786 C791 1.399 . S
C787 C786 1.399 . S
C787 C788 1.376 . S
C788 H775 0.930 . S
C788 C787 1.376 . S
C788 C789 1.388 . S
C789 H776 0.930 . S
C789 C788 1.388 . S
C789 C790 1.390 . S
C790 C789 1.390 . S
C790 C791 1.394 . S
C790 C796 1.465 . S
C791 C786 1.399 . S
C791 C790 1.394 . S
C791 C792 1.516 . S
C792 C791 1.516 . S
C792 C793 1.502 . S
C792 C794 1.561 . S
C792 C795 1.526 . S
C793 H777 0.959 . S
C793 H778 0.959 . S
C793 H779 0.961 . S
C793 C792 1.502 . S
C794 H780 0.960 . S
C794 H781 0.961 . S
C794 H782 0.959 . S
C794 C792 1.561 . S
C795 C792 1.526 . S
C795 C796 1.396 . S
C795 C800 1.390 . S
C796 C790 1.465 . S
C796 C795 1.396 . S
C796 C797 1.399 . S
C797 H783 0.929 . S
C797 C796 1.399 . S
C797 C798 1.385 . S
C798 H784 0.931 . S
C798 C797 1.385 . S
C798 C799 1.389 . S
C799 C798 1.389 . S
C799 C800 1.387 . S
C800 H785 0.930 . S
C800 C795 1.390 . S
C800 C799 1.387 . S
H801 C813 0.930 . S
H802 C815 0.930 . S
H803 C816 0.930 . S
H804 C820 0.959 . S
H805 C820 0.959 . S
H806 C820 0.961 . S
H807 C821 0.960 . S
H808 C821 0.961 . S
H809 C821 0.959 . S
H810 C824 0.929 . S
H811 C825 0.931 . S
H812 C827 0.930 . S
C813 H801 0.930 . S
C813 C814 1.399 . S
C813 C818 1.399 . S
C814 C813 1.399 . S
C814 C815 1.376 . S
C815 H802 0.930 . S
C815 C814 1.376 . S
C815 C816 1.388 . S
C816 H803 0.930 . S
C816 C815 1.388 . S
C816 C817 1.390 . S
C817 C816 1.390 . S
C817 C818 1.394 . S
C817 C823 1.465 . S
C818 C813 1.399 . S
C818 C817 1.394 . S
C818 C819 1.516 . S
C819 C818 1.516 . S
C819 C820 1.502 . S
C819 C821 1.561 . S
C819 C822 1.526 . S
C820 H804 0.959 . S
C820 H805 0.959 . S
C820 H806 0.961 . S
C820 C819 1.502 . S
C821 H807 0.960 . S
C821 H808 0.961 . S
C821 H809 0.959 . S
C821 C819 1.561 . S
C822 C819 1.526 . S
C822 C823 1.396 . S
C822 C827 1.390 . S
C823 C817 1.465 . S
C823 C822 1.396 . S
C823 C824 1.399 . S
C824 H810 0.929 . S
C824 C823 1.399 . S
C824 C825 1.385 . S
C825 H811 0.931 . S
C825 C824 1.385 . S
C825 C826 1.389 . S
C826 C825 1.389 . S
C826 C827 1.387 . S
C827 H812 0.930 . S
C827 C822 1.390 . S
C827 C826 1.387 . S
H828 C840 0.930 . S
H829 C842 0.930 . S
H830 C843 0.930 . S
H831 C847 0.959 . S
H832 C847 0.959 . S
H833 C847 0.961 . S
H834 C848 0.960 . S
H835 C848 0.961 . S
H836 C848 0.959 . S
H837 C851 0.929 . S
H838 C852 0.931 . S
H839 C854 0.930 . S
C840 H828 0.930 . S
C840 C841 1.399 . S
C840 C845 1.399 . S
C841 C840 1.399 . S
C841 C842 1.376 . S
C842 H829 0.930 . S
C842 C841 1.376 . S
C842 C843 1.388 . S
C843 H830 0.930 . S
C843 C842 1.388 . S
C843 C844 1.390 . S
C844 C843 1.390 . S
C844 C845 1.394 . S
C844 C850 1.465 . S
C845 C840 1.399 . S
C845 C844 1.394 . S
C845 C846 1.516 . S
C846 C845 1.516 . S
C846 C847 1.502 . S
C846 C848 1.561 . S
C846 C849 1.526 . S
C847 H831 0.959 . S
C847 H832 0.959 . S
C847 H833 0.961 . S
C847 C846 1.502 . S
C848 H834 0.960 . S
C848 H835 0.961 . S
C848 H836 0.959 . S
C848 C846 1.561 . S
C849 C846 1.526 . S
C849 C850 1.396 . S
C849 C854 1.390 . S
C850 C844 1.465 . S
C850 C849 1.396 . S
C850 C851 1.399 . S
C851 H837 0.929 . S
C851 C850 1.399 . S
C851 C852 1.385 . S
C852 H838 0.931 . S
C852 C851 1.385 . S
C852 C853 1.389 . S
C853 C852 1.389 . S
C853 C854 1.387 . S
C854 H839 0.930 . S
C854 C849 1.390 . S
C854 C853 1.387 . S
H855 C867 0.930 . S
H856 C869 0.930 . S
H857 C870 0.930 . S
H858 C874 0.959 . S
H859 C874 0.959 . S
H860 C874 0.961 . S
H861 C875 0.960 . S
H862 C875 0.961 . S
H863 C875 0.959 . S
H864 C878 0.929 . S
H865 C879 0.931 . S
H866 C881 0.930 . S
C867 H855 0.930 . S
C867 C868 1.399 . S
C867 C872 1.399 . S
C868 C867 1.399 . S
C868 C869 1.376 . S
C869 H856 0.930 . S
C869 C868 1.376 . S
C869 C870 1.388 . S
C870 H857 0.930 . S
C870 C869 1.388 . S
C870 C871 1.390 . S
C871 C870 1.390 . S
C871 C872 1.394 . S
C871 C877 1.465 . S
C872 C867 1.399 . S
C872 C871 1.394 . S
C872 C873 1.516 . S
C873 C872 1.516 . S
C873 C874 1.502 . S
C873 C875 1.561 . S
C873 C876 1.526 . S
C874 H858 0.959 . S
C874 H859 0.959 . S
C874 H860 0.961 . S
C874 C873 1.502 . S
C875 H861 0.960 . S
C875 H862 0.961 . S
C875 H863 0.959 . S
C875 C873 1.561 . S
C876 C873 1.526 . S
C876 C877 1.396 . S
C876 C881 1.390 . S
C877 C871 1.465 . S
C877 C876 1.396 . S
C877 C878 1.399 . S
C878 H864 0.929 . S
C878 C877 1.399 . S
C878 C879 1.385 . S
C879 H865 0.931 . S
C879 C878 1.385 . S
C879 C880 1.389 . S
C880 C879 1.389 . S
C880 C881 1.387 . S
C881 H866 0.930 . S
C881 C876 1.390 . S
C881 C880 1.387 . S
H882 C894 0.930 . S
H883 C896 0.930 . S
H884 C897 0.930 . S
H885 C901 0.959 . S
H886 C901 0.959 . S
H887 C901 0.961 . S
H888 C902 0.960 . S
H889 C902 0.961 . S
H890 C902 0.959 . S
H891 C905 0.929 . S
H892 C906 0.931 . S
H893 C908 0.930 . S
C894 H882 0.930 . S
C894 C895 1.399 . S
C894 C899 1.399 . S
C895 C894 1.399 . S
C895 C896 1.376 . S
C896 H883 0.930 . S
C896 C895 1.376 . S
C896 C897 1.388 . S
C897 H884 0.930 . S
C897 C896 1.388 . S
C897 C898 1.390 . S
C898 C897 1.390 . S
C898 C899 1.394 . S
C898 C904 1.465 . S
C899 C894 1.399 . S
C899 C898 1.394 . S
C899 C900 1.516 . S
C900 C899 1.516 . S
C900 C901 1.502 . S
C900 C902 1.561 . S
C900 C903 1.526 . S
C901 H885 0.959 . S
C901 H886 0.959 . S
C901 H887 0.961 . S
C901 C900 1.502 . S
C902 H888 0.960 . S
C902 H889 0.961 . S
C902 H890 0.959 . S
C902 C900 1.561 . S
C903 C900 1.526 . S
C903 C904 1.396 . S
C903 C908 1.390 . S
C904 C898 1.465 . S
C904 C903 1.396 . S
C904 C905 1.399 . S
C905 H891 0.929 . S
C905 C904 1.399 . S
C905 C906 1.385 . S
C906 H892 0.931 . S
C906 C905 1.385 . S
C906 C907 1.389 . S
C907 C906 1.389 . S
C907 C908 1.387 . S
C908 H893 0.930 . S
C908 C903 1.390 . S
C908 C907 1.387 . S
H909 C921 0.930 1_556 S
H910 C923 0.930 . S
H911 C924 0.930 . S
H912 C928 0.959 . S
H913 C928 0.959 . S
H914 C928 0.961 . S
H915 C929 0.960 . S
H916 C929 0.961 . S
H917 C929 0.959 . S
H918 C932 0.929 . S
H919 C933 0.931 1_554 S
H920 C935 0.930 . S
C921 H909 0.930 1_554 S
C921 C922 1.399 . S
C921 C926 1.399 1_554 S
C922 C921 1.399 . S
C922 C923 1.376 . S
C923 H910 0.930 . S
C923 C922 1.376 . S
C923 C924 1.388 . S
C924 H911 0.930 . S
C924 C923 1.388 . S
C924 C925 1.390 . S
C925 C924 1.390 . S
C925 C926 1.394 1_554 S
C925 C931 1.465 . S
C926 C921 1.399 1_556 S
C926 C925 1.394 1_556 S
C926 C927 1.516 . S
C927 C926 1.516 . S
C927 C928 1.502 . S
C927 C929 1.561 . S
C927 C930 1.526 . S
C928 H912 0.959 . S
C928 H913 0.959 . S
C928 H914 0.961 . S
C928 C927 1.502 . S
C929 H915 0.960 . S
C929 H916 0.961 . S
C929 H917 0.959 . S
C929 C927 1.561 . S
C930 C927 1.526 . S
C930 C931 1.396 1_556 S
C930 C935 1.390 . S
C931 C925 1.465 . S
C931 C930 1.396 1_554 S
C931 C932 1.399 . S
C932 H918 0.929 . S
C932 C931 1.399 . S
C932 C933 1.385 1_554 S
C933 H919 0.931 1_556 S
C933 C932 1.385 1_556 S
C933 C934 1.389 . S
C934 C933 1.389 . S
C934 C935 1.387 . S
C935 H920 0.930 . S
C935 C930 1.390 . S
C935 C934 1.387 . S
H936 C948 0.930 . S
H937 C950 0.930 . S
H938 C951 0.930 . S
H939 C955 0.959 . S
H940 C955 0.959 1_545 S
H941 C955 0.961 1_545 S
H942 C956 0.960 . S
H943 C956 0.961 . S
H944 C956 0.959 . S
H945 C959 0.929 . S
H946 C960 0.931 . S
H947 C962 0.930 . S
C948 H936 0.930 . S
C948 C949 1.399 . S
C948 C953 1.399 . S
C949 C948 1.399 . S
C949 C950 1.376 . S
C950 H937 0.930 . S
C950 C949 1.376 . S
C950 C951 1.388 . S
C951 H938 0.930 . S
C951 C950 1.388 . S
C951 C952 1.390 . S
C952 C951 1.390 . S
C952 C953 1.394 . S
C952 C958 1.465 . S
C953 C948 1.399 . S
C953 C952 1.394 . S
C953 C954 1.516 . S
C954 C953 1.516 . S
C954 C955 1.502 . S
C954 C956 1.561 . S
C954 C957 1.526 . S
C955 H939 0.959 . S
C955 H940 0.959 1_565 S
C955 H941 0.961 1_565 S
C955 C954 1.502 . S
C956 H942 0.960 . S
C956 H943 0.961 . S
C956 H944 0.959 . S
C956 C954 1.561 . S
C957 C954 1.526 . S
C957 C958 1.396 . S
C957 C962 1.390 . S
C958 C952 1.465 . S
C958 C957 1.396 . S
C958 C959 1.399 . S
C959 H945 0.929 . S
C959 C958 1.399 . S
C959 C960 1.385 . S
C960 H946 0.931 . S
C960 C959 1.385 . S
C960 C961 1.389 . S
C961 C960 1.389 . S
C961 C962 1.387 . S
C962 H947 0.930 . S
C962 C957 1.390 . S
C962 C961 1.387 . S
H963 C975 0.930 . S
H964 C977 0.930 . S
H965 C978 0.930 . S
H966 C982 0.959 . S
H967 C982 0.959 . S
H968 C982 0.961 . S
H969 C983 0.960 . S
H970 C983 0.961 . S
H971 C983 0.959 . S
H972 C986 0.929 . S
H973 C987 0.931 . S
H974 C989 0.930 . S
C975 H963 0.930 . S
C975 C976 1.399 . S
C975 C980 1.399 . S
C976 C975 1.399 . S
C976 C977 1.376 . S
C977 H964 0.930 . S
C977 C976 1.376 . S
C977 C978 1.388 . S
C978 H965 0.930 . S
C978 C977 1.388 . S
C978 C979 1.390 . S
C979 C978 1.390 . S
C979 C980 1.394 . S
C979 C985 1.465 . S
C980 C975 1.399 . S
C980 C979 1.394 . S
C980 C981 1.516 . S
C981 C980 1.516 . S
C981 C982 1.502 . S
C981 C983 1.561 . S
C981 C984 1.526 . S
C982 H966 0.959 . S
C982 H967 0.959 . S
C982 H968 0.961 . S
C982 C981 1.502 . S
C983 H969 0.960 . S
C983 H970 0.961 . S
C983 H971 0.959 . S
C983 C981 1.561 . S
C984 C981 1.526 . S
C984 C985 1.396 . S
C984 C989 1.390 . S
C985 C979 1.465 . S
C985 C984 1.396 . S
C985 C986 1.399 . S
C986 H972 0.929 . S
C986 C985 1.399 . S
C986 C987 1.385 . S
C987 H973 0.931 . S
C987 C986 1.385 . S
C987 C988 1.389 . S
C988 C987 1.389 . S
C988 C989 1.387 . S
C989 H974 0.930 . S
C989 C984 1.390 . S
C989 C988 1.387 . S
H990 C1002 0.930 . S
H991 C1004 0.930 . S
H992 C1005 0.930 . S
H993 C1009 0.959 . S
H994 C1009 0.959 . S
H995 C1009 0.961 . S
H996 C1010 0.960 . S
H997 C1010 0.961 . S
H998 C1010 0.959 . S
H999 C1013 0.929 . S
H1000 C1014 0.931 . S
H1001 C1016 0.930 . S
C1002 H990 0.930 . S
C1002 C1003 1.399 . S
C1002 C1007 1.399 . S
C1003 C1002 1.399 . S
C1003 C1004 1.376 . S
C1004 H991 0.930 . S
C1004 C1003 1.376 . S
C1004 C1005 1.388 . S
C1005 H992 0.930 . S
C1005 C1004 1.388 . S
C1005 C1006 1.390 . S
C1006 C1005 1.390 . S
C1006 C1007 1.394 . S
C1006 C1012 1.465 . S
C1007 C1002 1.399 . S
C1007 C1006 1.394 . S
C1007 C1008 1.516 . S
C1008 C1007 1.516 . S
C1008 C1009 1.502 . S
C1008 C1010 1.561 . S
C1008 C1011 1.526 . S
C1009 H993 0.959 . S
C1009 H994 0.959 . S
C1009 H995 0.961 . S
C1009 C1008 1.502 . S
C1010 H996 0.960 . S
C1010 H997 0.961 . S
C1010 H998 0.959 . S
C1010 C1008 1.561 . S
C1011 C1008 1.526 . S
C1011 C1012 1.396 . S
C1011 C1016 1.390 . S
C1012 C1006 1.465 . S
C1012 C1011 1.396 . S
C1012 C1013 1.399 . S
C1013 H999 0.929 . S
C1013 C1012 1.399 . S
C1013 C1014 1.385 . S
C1014 H1000 0.931 . S
C1014 C1013 1.385 . S
C1014 C1015 1.389 . S
C1015 C1014 1.389 . S
C1015 C1016 1.387 . S
C1016 H1001 0.930 . S
C1016 C1011 1.390 . S
C1016 C1015 1.387 . S
H1017 C1029 0.930 . S
H1018 C1031 0.930 . S
H1019 C1032 0.930 . S
H1020 C1036 0.959 . S
H1021 C1036 0.959 1_565 S
H1022 C1036 0.961 1_565 S
H1023 C1037 0.960 . S
H1024 C1037 0.961 . S
H1025 C1037 0.959 . S
H1026 C1040 0.929 . S
H1027 C1041 0.931 . S
H1028 C1043 0.930 . S
C1029 H1017 0.930 . S
C1029 C1030 1.399 . S
C1029 C1034 1.399 . S
C1030 C1029 1.399 . S
C1030 C1031 1.376 . S
C1031 H1018 0.930 . S
C1031 C1030 1.376 . S
C1031 C1032 1.388 . S
C1032 H1019 0.930 . S
C1032 C1031 1.388 . S
C1032 C1033 1.390 . S
C1033 C1032 1.390 . S
C1033 C1034 1.394 . S
C1033 C1039 1.465 . S
C1034 C1029 1.399 . S
C1034 C1033 1.394 . S
C1034 C1035 1.516 . S
C1035 C1034 1.516 . S
C1035 C1036 1.502 . S
C1035 C1037 1.561 . S
C1035 C1038 1.526 . S
C1036 H1020 0.959 . S
C1036 H1021 0.959 1_545 S
C1036 H1022 0.961 1_545 S
C1036 C1035 1.502 . S
C1037 H1023 0.960 . S
C1037 H1024 0.961 . S
C1037 H1025 0.959 . S
C1037 C1035 1.561 . S
C1038 C1035 1.526 . S
C1038 C1039 1.396 . S
C1038 C1043 1.390 . S
C1039 C1033 1.465 . S
C1039 C1038 1.396 . S
C1039 C1040 1.399 . S
C1040 H1026 0.929 . S
C1040 C1039 1.399 . S
C1040 C1041 1.385 . S
C1041 H1027 0.931 . S
C1041 C1040 1.385 . S
C1041 C1042 1.389 . S
C1042 C1041 1.389 . S
C1042 C1043 1.387 . S
C1043 H1028 0.930 . S
C1043 C1038 1.390 . S
C1043 C1042 1.387 . S
H1044 C1056 0.930 . S
H1045 C1058 0.930 . S
H1046 C1059 0.930 . S
H1047 C1063 0.959 . S
H1048 C1063 0.959 . S
H1049 C1063 0.961 . S
H1050 C1064 0.960 . S
H1051 C1064 0.961 . S
H1052 C1064 0.959 . S
H1053 C1067 0.929 . S
H1054 C1068 0.931 . S
H1055 C1070 0.930 . S
C1056 H1044 0.930 . S
C1056 C1057 1.399 . S
C1056 C1061 1.399 . S
C1057 C1056 1.399 . S
C1057 C1058 1.376 . S
C1058 H1045 0.930 . S
C1058 C1057 1.376 . S
C1058 C1059 1.388 . S
C1059 H1046 0.930 . S
C1059 C1058 1.388 . S
C1059 C1060 1.390 . S
C1060 C1059 1.390 . S
C1060 C1061 1.394 . S
C1060 C1066 1.465 . S
C1061 C1056 1.399 . S
C1061 C1060 1.394 . S
C1061 C1062 1.516 . S
C1062 C1061 1.516 . S
C1062 C1063 1.502 . S
C1062 C1064 1.561 1_655 S
C1062 C1065 1.526 . S
C1063 H1047 0.959 . S
C1063 H1048 0.959 . S
C1063 H1049 0.961 . S
C1063 C1062 1.502 . S
C1064 H1050 0.960 . S
C1064 H1051 0.961 . S
C1064 H1052 0.959 . S
C1064 C1062 1.561 1_455 S
C1065 C1062 1.526 . S
C1065 C1066 1.396 . S
C1065 C1070 1.390 . S
C1066 C1060 1.465 . S
C1066 C1065 1.396 . S
C1066 C1067 1.399 . S
C1067 H1053 0.929 . S
C1067 C1066 1.399 . S
C1067 C1068 1.385 . S
C1068 H1054 0.931 . S
C1068 C1067 1.385 . S
C1068 C1069 1.389 . S
C1069 C1068 1.389 . S
C1069 C1070 1.387 . S
C1070 H1055 0.930 . S
C1070 C1065 1.390 . S
C1070 C1069 1.387 . S
H1071 C1083 0.930 . S
H1072 C1085 0.930 . S
H1073 C1086 0.930 . S
H1074 C1090 0.959 . S
H1075 C1090 0.959 . S
H1076 C1090 0.961 . S
H1077 C1091 0.960 . S
H1078 C1091 0.961 . S
H1079 C1091 0.959 . S
H1080 C1094 0.929 . S
H1081 C1095 0.931 . S
H1082 C1097 0.930 . S
C1083 H1071 0.930 . S
C1083 C1084 1.399 . S
C1083 C1088 1.399 . S
C1084 C1083 1.399 . S
C1084 C1085 1.376 1_565 S
C1085 H1072 0.930 . S
C1085 C1084 1.376 1_545 S
C1085 C1086 1.388 . S
C1086 H1073 0.930 . S
C1086 C1085 1.388 . S
C1086 C1087 1.390 1_545 S
C1087 C1086 1.390 1_565 S
C1087 C1088 1.394 . S
C1087 C1093 1.465 . S
C1088 C1083 1.399 . S
C1088 C1087 1.394 . S
C1088 C1089 1.516 . S
C1089 C1088 1.516 . S
C1089 C1090 1.502 . S
C1089 C1091 1.561 . S
C1089 C1092 1.526 . S
C1090 H1074 0.959 . S
C1090 H1075 0.959 . S
C1090 H1076 0.961 . S
C1090 C1089 1.502 . S
C1091 H1077 0.960 . S
C1091 H1078 0.961 . S
C1091 H1079 0.959 . S
C1091 C1089 1.561 . S
C1092 C1089 1.526 . S
C1092 C1093 1.396 . S
C1092 C1097 1.390 . S
C1093 C1087 1.465 . S
C1093 C1092 1.396 . S
C1093 C1094 1.399 1_565 S
C1094 H1080 0.929 . S
C1094 C1093 1.399 1_545 S
C1094 C1095 1.385 . S
C1095 H1081 0.931 . S
C1095 C1094 1.385 . S
C1095 C1096 1.389 1_545 S
C1096 C1095 1.389 1_565 S
C1096 C1097 1.387 . S
C1097 H1082 0.930 . S
C1097 C1092 1.390 . S
C1097 C1096 1.387 . S
H1098 C1110 0.930 . S
H1099 C1112 0.930 . S
H1100 C1113 0.930 . S
H1101 C1117 0.959 . S
H1102 C1117 0.959 . S
H1103 C1117 0.961 . S
H1104 C1118 0.960 . S
H1105 C1118 0.961 . S
H1106 C1118 0.959 . S
H1107 C1121 0.929 . S
H1108 C1122 0.931 . S
H1109 C1124 0.930 . S
C1110 H1098 0.930 . S
C1110 C1111 1.399 . S
C1110 C1115 1.399 . S
C1111 C1110 1.399 . S
C1111 C1112 1.376 . S
C1112 H1099 0.930 . S
C1112 C1111 1.376 . S
C1112 C1113 1.388 . S
C1113 H1100 0.930 . S
C1113 C1112 1.388 . S
C1113 C1114 1.390 . S
C1114 C1113 1.390 . S
C1114 C1115 1.394 . S
C1114 C1120 1.465 . S
C1115 C1110 1.399 . S
C1115 C1114 1.394 . S
C1115 C1116 1.516 . S
C1116 C1115 1.516 . S
C1116 C1117 1.502 . S
C1116 C1118 1.561 . S
C1116 C1119 1.526 . S
C1117 H1101 0.959 . S
C1117 H1102 0.959 . S
C1117 H1103 0.961 . S
C1117 C1116 1.502 . S
C1118 H1104 0.960 . S
C1118 H1105 0.961 . S
C1118 H1106 0.959 . S
C1118 C1116 1.561 . S
C1119 C1116 1.526 . S
C1119 C1120 1.396 . S
C1119 C1124 1.390 . S
C1120 C1114 1.465 . S
C1120 C1119 1.396 . S
C1120 C1121 1.399 . S
C1121 H1107 0.929 . S
C1121 C1120 1.399 . S
C1121 C1122 1.385 . S
C1122 H1108 0.931 . S
C1122 C1121 1.385 . S
C1122 C1123 1.389 . S
C1123 C1122 1.389 . S
C1123 C1124 1.387 . S
C1124 H1109 0.930 . S
C1124 C1119 1.390 . S
C1124 C1123 1.387 . S
H1125 C1137 0.930 . S
H1126 C1139 0.930 . S
H1127 C1140 0.930 . S
H1128 C1144 0.959 . S
H1129 C1144 0.959 . S
H1130 C1144 0.961 . S
H1131 C1145 0.960 . S
H1132 C1145 0.961 . S
H1133 C1145 0.959 1_655 S
H1134 C1148 0.929 . S
H1135 C1149 0.931 . S
H1136 C1151 0.930 . S
C1137 H1125 0.930 . S
C1137 C1138 1.399 . S
C1137 C1142 1.399 . S
C1138 C1137 1.399 . S
C1138 C1139 1.376 1_455 S
C1139 H1126 0.930 . S
C1139 C1138 1.376 1_655 S
C1139 C1140 1.388 . S
C1140 H1127 0.930 . S
C1140 C1139 1.388 . S
C1140 C1141 1.390 1_655 S
C1141 C1140 1.390 1_455 S
C1141 C1142 1.394 . S
C1141 C1147 1.465 . S
C1142 C1137 1.399 . S
C1142 C1141 1.394 . S
C1142 C1143 1.516 . S
C1143 C1142 1.516 . S
C1143 C1144 1.502 . S
C1143 C1145 1.561 . S
C1143 C1146 1.526 . S
C1144 H1128 0.959 . S
C1144 H1129 0.959 . S
C1144 H1130 0.961 . S
C1144 C1143 1.502 . S
C1145 H1131 0.960 . S
C1145 H1132 0.961 . S
C1145 H1133 0.959 1_455 S
C1145 C1143 1.561 . S
C1146 C1143 1.526 . S
C1146 C1147 1.396 . S
C1146 C1151 1.390 . S
C1147 C1141 1.465 . S
C1147 C1146 1.396 . S
C1147 C1148 1.399 1_455 S
C1148 H1134 0.929 . S
C1148 C1147 1.399 1_655 S
C1148 C1149 1.385 . S
C1149 H1135 0.931 . S
C1149 C1148 1.385 . S
C1149 C1150 1.389 1_655 S
C1150 C1149 1.389 1_455 S
C1150 C1151 1.387 . S
C1151 H1136 0.930 . S
C1151 C1146 1.390 . S
C1151 C1150 1.387 . S
H1152 C1164 0.930 . S
H1153 C1166 0.930 . S
H1154 C1167 0.930 . S
H1155 C1171 0.959 . S
H1156 C1171 0.959 . S
H1157 C1171 0.961 . S
H1158 C1172 0.960 . S
H1159 C1172 0.961 . S
H1160 C1172 0.959 . S
H1161 C1175 0.929 . S
H1162 C1176 0.931 . S
H1163 C1178 0.930 . S
C1164 H1152 0.930 . S
C1164 C1165 1.399 . S
C1164 C1169 1.399 . S
C1165 C1164 1.399 . S
C1165 C1166 1.376 1_545 S
C1166 H1153 0.930 . S
C1166 C1165 1.376 1_565 S
C1166 C1167 1.388 . S
C1167 H1154 0.930 . S
C1167 C1166 1.388 . S
C1167 C1168 1.395 . S
C1168 C1167 1.395 . S
C1168 C1169 1.380 1_565 S
C1168 C1174 1.472 . S
C1169 C1164 1.399 . S
C1169 C1168 1.380 1_545 S
C1169 C1170 1.516 . S
C1170 C1169 1.516 . S
C1170 C1171 1.502 . S
C1170 C1172 1.561 . S
C1170 C1173 1.526 . S
C1171 H1155 0.959 . S
C1171 H1156 0.959 . S
C1171 H1157 0.961 . S
C1171 C1170 1.502 . S
C1172 H1158 0.960 . S
C1172 H1159 0.961 . S
C1172 H1160 0.959 . S
C1172 C1170 1.561 . S
C1173 C1170 1.526 . S
C1173 C1174 1.396 1_545 S
C1173 C1178 1.390 . S
C1174 C1168 1.472 . S
C1174 C1173 1.396 1_565 S
C1174 C1175 1.399 . S
C1175 H1161 0.929 . S
C1175 C1174 1.399 . S
C1175 C1176 1.385 . S
C1176 H1162 0.931 . S
C1176 C1175 1.385 . S
C1176 C1177 1.389 1_565 S
C1177 C1176 1.389 1_545 S
C1177 C1178 1.387 . S
C1178 H1163 0.930 . S
C1178 C1173 1.390 . S
C1178 C1177 1.387 . S
H1179 C1191 0.930 . S
H1180 C1193 0.930 . S
H1181 C1194 0.930 . S
H1182 C1198 0.959 . S
H1183 C1198 0.959 . S
H1184 C1198 0.961 . S
H1185 C1199 0.960 . S
H1186 C1199 0.961 . S
H1187 C1199 0.959 . S
H1188 C1202 0.929 . S
H1189 C1203 0.931 . S
H1190 C1205 0.930 . S
C1191 H1179 0.930 . S
C1191 C1192 1.399 . S
C1191 C1196 1.399 . S
C1192 C1191 1.399 . S
C1192 C1193 1.376 . S
C1193 H1180 0.930 . S
C1193 C1192 1.376 . S
C1193 C1194 1.388 . S
C1194 H1181 0.930 . S
C1194 C1193 1.388 . S
C1194 C1195 1.390 . S
C1195 C1194 1.390 . S
C1195 C1196 1.394 . S
C1195 C1201 1.465 . S
C1196 C1191 1.399 . S
C1196 C1195 1.394 . S
C1196 C1197 1.516 . S
C1197 C1196 1.516 . S
C1197 C1198 1.502 . S
C1197 C1199 1.561 . S
C1197 C1200 1.526 . S
C1198 H1182 0.959 . S
C1198 H1183 0.959 . S
C1198 H1184 0.961 . S
C1198 C1197 1.502 . S
C1199 H1185 0.960 . S
C1199 H1186 0.961 . S
C1199 H1187 0.959 . S
C1199 C1197 1.561 . S
C1200 C1197 1.526 . S
C1200 C1201 1.396 . S
C1200 C1205 1.390 . S
C1201 C1195 1.465 . S
C1201 C1200 1.396 . S
C1201 C1202 1.399 . S
C1202 H1188 0.929 . S
C1202 C1201 1.399 . S
C1202 C1203 1.385 . S
C1203 H1189 0.931 . S
C1203 C1202 1.385 . S
C1203 C1204 1.389 . S
C1204 C1203 1.389 . S
C1204 C1205 1.387 . S
C1205 H1190 0.930 . S
C1205 C1200 1.390 . S
C1205 C1204 1.387 . S
C409 C238 1.470 . S
C421 C7 1.471 . S
C436 C271 1.414 . S
C448 C40 1.415 . S
C463 C73 1.416 . S
C475 C304 1.418 . S
C490 C337 1.463 . S
C502 C106 1.465 . S
C517 C139 1.467 . S
C529 C370 1.465 . S
C544 C205 1.446 . S
C556 C172 1.443 . S
C571 N2 1.739 . S
C583 N266 1.706 . S
C598 N35 1.720 . S
C610 N299 1.718 . S
C625 N332 1.730 . S
C637 N68 1.763 . S
C652 N365 1.705 . S
C664 N101 1.739 . S
C679 N134 1.763 . S
C691 N200 1.732 . S
C706 N233 1.765 . S
C718 N167 1.725 . S
C733 N244 1.169 . S
C745 C21 1.159 . S
C760 N277 1.181 . S
C772 C54 1.167 . S
C787 N310 1.182 . S
C799 C87 1.169 . S
C814 C120 1.173 . S
C826 N343 1.181 . S
C841 N376 1.142 . S
C853 C153 1.172 . S
C868 C186 1.167 . S
C880 N211 1.129 . S
C895 C219 1.164 . S
C907 N178 1.124 . S
C922 N13 1.170 . S
C934 C252 1.160 . S
C949 N46 1.127 . S
C961 C285 1.151 . S
C976 N79 1.143 . S
C988 C318 1.172 . S
C1003 N112 1.133 . S
C1015 C351 1.169 . S
C1030 N145 1.133 . S
C1042 C384 1.151 . S
C1057 C282 1.430 . S
C1069 C18 1.462 . S
C1084 C51 1.449 . S
C1096 C315 1.428 . S
C1111 C348 1.430 . S
C1123 C84 1.462 . S
C1138 C117 1.428 . S
C1150 C381 1.448 . S
C1165 C150 1.446 . S
C1177 C216 1.429 . S
C1192 C249 1.461 . S
C1204 C183 1.471 . S
