# Generated by pormake.
# Topology npo, (4)-cn, num edge types: 1
# Building blocks:
#     Node 0, Type 0, BuildingBlock: KUFVIS_clean_sbu_0, # of connection points: 4
#     Node 1, Type 0, BuildingBlock: KUFVIS_clean_sbu_0, # of connection points: 4
#     Node 2, Type 0, BuildingBlock: KUFVIS_clean_sbu_0, # of connection points: 4
#     Node 3, Type 0, BuildingBlock: KUFVIS_clean_sbu_0, # of connection points: 4
#     Node 4, Type 0, BuildingBlock: KUFVIS_clean_sbu_0, # of connection points: 4
#     Node 5, Type 0, BuildingBlock: KUFVIS_clean_sbu_0, # of connection points: 4
#     Edge 6, Type (0, 0), BuildingBlock: MIFKUJ_clean_linker_0, # of connection points: 2
#     Edge 7, Type (0, 0), BuildingBlock: MIFKUJ_clean_linker_0, # of connection points: 2
#     Edge 8, Type (0, 0), BuildingBlock: MIFKUJ_clean_linker_0, # of connection points: 2
#     Edge 9, Type (0, 0), BuildingBlock: MIFKUJ_clean_linker_0, # of connection points: 2
#     Edge 10, Type (0, 0), BuildingBlock: MIFKUJ_clean_linker_0, # of connection points: 2
#     Edge 11, Type (0, 0), BuildingBlock: MIFKUJ_clean_linker_0, # of connection points: 2
#     Edge 12, Type (0, 0), BuildingBlock: MIFKUJ_clean_linker_0, # of connection points: 2
#     Edge 13, Type (0, 0), BuildingBlock: MIFKUJ_clean_linker_0, # of connection points: 2
#     Edge 14, Type (0, 0), BuildingBlock: MIFKUJ_clean_linker_0, # of connection points: 2
#     Edge 15, Type (0, 0), BuildingBlock: MIFKUJ_clean_linker_0, # of connection points: 2
#     Edge 16, Type (0, 0), BuildingBlock: MIFKUJ_clean_linker_0, # of connection points: 2
#     Edge 17, Type (0, 0), BuildingBlock: MIFKUJ_clean_linker_0, # of connection points: 2
# Relax obj value: 0.273
# Max RMSD: 0.235
# Mean RMSD: 0.232
data_MOF--net-npo--node1-KUFVIS_clean_sbu_0--edge1-MIFKUJ_clean_linker_0
_symmetry_space_group_name_H-M    P1
_symmetry_Int_Tables_number       1
_symmetry_cell_setting            triclinic
loop_
_symmetry_equiv_pos_as_xyz
'x, y, z'
_cell_length_a     54.6677
_cell_length_b     58.332308
_cell_length_c     31.147146
_cell_angle_alpha  90.015124
_cell_angle_beta   91.141139
_cell_angle_gamma 122.23498
loop_
_atom_site_label
_atom_site_type_symbol
_atom_site_fract_x
_atom_site_fract_y
_atom_site_fract_z
_atom_type_partial_charge
Mn0 Mn 0.55545 0.12227 0.27093 0.0
Mn1 Mn 0.60728 0.10896 0.25117 0.0
C2 C 0.60349 0.15364 0.28773 0.0
C3 C 0.52842 0.14131 0.25248 0.0
C4 C 0.5683 0.08653 0.32716 0.0
O5 O 0.53498 0.09122 0.22726 0.0
O6 O 0.57067 0.08308 0.21966 0.0
C7 C 0.61411 0.12359 0.15916 0.0
N8 N 0.62587 0.12696 0.1994 0.0
C9 C 0.67309 0.16095 0.1749 0.0
C10 C 0.6615 0.15772 0.13318 0.0
C11 C 0.63187 0.13899 0.12531 0.0
C12 C 0.65433 0.14503 0.20735 0.0
H13 H 0.59134 0.10931 0.15291 0.0
C14 C 0.54511 0.07784 0.21128 0.0
O15 O 0.51975 0.12274 0.28156 0.0
O16 O 0.55154 0.14727 0.23221 0.0
N17 N 0.64411 0.13268 0.27886 0.0
C18 C 0.65186 0.13371 0.32099 0.0
C19 C 0.68081 0.15138 0.33423 0.0
C20 C 0.70157 0.16763 0.30397 0.0
C21 C 0.69318 0.16608 0.26072 0.0
C22 C 0.66406 0.14783 0.24934 0.0
H23 H 0.6361 0.12111 0.34427 0.0
O24 O 0.58327 0.1542 0.30782 0.0
O25 O 0.59507 0.13459 0.25909 0.0
O26 O 0.55257 0.09594 0.31726 0.0
O27 O 0.58988 0.09067 0.30556 0.0
C28 C 0.71252 0.18205 0.2285 0.0
C29 C 0.70245 0.17958 0.18566 0.0
H30 H 0.6751 0.16961 0.107 0.0
H31 H 0.62273 0.13647 0.09323 0.0
H32 H 0.68712 0.1524 0.36767 0.0
H33 H 0.72389 0.18116 0.31432 0.0
H34 H 0.73512 0.19649 0.2364 0.0
H35 H 0.71746 0.19218 0.16124 0.0
Mn36 Mn 0.4307 0.55809 0.73537 0.0
Mn37 Mn 0.37761 0.49325 0.75414 0.0
C38 C 0.38309 0.54256 0.71731 0.0
C39 C 0.45896 0.60393 0.755 0.0
C40 C 0.41827 0.50924 0.67998 0.0
O41 O 0.44995 0.54638 0.77947 0.0
O42 O 0.41278 0.50336 0.78912 0.0
C43 C 0.36711 0.50061 0.84456 0.0
N44 N 0.35703 0.49266 0.80347 0.0
C45 C 0.30896 0.47979 0.82291 0.0
C46 C 0.3188 0.4877 0.86547 0.0
C47 C 0.34801 0.4982 0.8763 0.0
C48 C 0.32898 0.48261 0.79267 0.0
H49 H 0.38956 0.50879 0.85302 0.0
C50 C 0.43869 0.52319 0.79712 0.0
O51 O 0.46729 0.59372 0.72594 0.0
O52 O 0.43523 0.58718 0.77439 0.0
N53 N 0.3422 0.481 0.72271 0.0
C54 C 0.33643 0.47532 0.67991 0.0
C55 C 0.30823 0.46495 0.66368 0.0
C56 C 0.28623 0.46036 0.69161 0.0
C57 C 0.29263 0.46617 0.73556 0.0
C58 C 0.32107 0.47622 0.74996 0.0
H59 H 0.35324 0.47876 0.6583 0.0
O60 O 0.40388 0.56336 0.69801 0.0
O61 O 0.39077 0.53134 0.74598 0.0
O62 O 0.43316 0.53457 0.68887 0.0
O63 O 0.39702 0.49197 0.70228 0.0
C64 C 0.272 0.46271 0.76557 0.0
C65 C 0.28019 0.46962 0.80918 0.0
H66 H 0.30417 0.48598 0.89003 0.0
H67 H 0.3558 0.50447 0.90905 0.0
H68 H 0.30346 0.46053 0.62971 0.0
H69 H 0.26454 0.45247 0.67891 0.0
H70 H 0.24985 0.45505 0.75538 0.0
H71 H 0.26423 0.46722 0.83183 0.0
Mn72 Mn 0.88436 0.44274 0.24473 0.0
Mn73 Mn 0.92684 0.42042 0.27879 0.0
C74 C 0.86738 0.39721 0.24235 0.0
C75 C 0.85085 0.45467 0.25589 0.0
C76 C 0.93251 0.44553 0.19223 0.0
O77 O 0.91534 0.47473 0.2796 0.0
O78 O 0.9427 0.45816 0.29969 0.0
C79 C 0.91592 0.41926 0.37177 0.0
N80 N 0.91547 0.40621 0.33519 0.0
C81 C 0.89703 0.36428 0.37276 0.0
C82 C 0.89749 0.37731 0.41088 0.0
C83 C 0.90691 0.40491 0.41034 0.0
C84 C 0.90635 0.37965 0.33531 0.0
H85 H 0.92306 0.44045 0.37156 0.0
C86 C 0.93724 0.47699 0.29908 0.0
O87 O 0.86824 0.46424 0.22384 0.0
O88 O 0.85358 0.43892 0.2823 0.0
N89 N 0.91361 0.38405 0.26162 0.0
C90 C 0.91289 0.37414 0.22168 0.0
C91 C 0.9031 0.3466 0.21643 0.0
C92 C 0.89442 0.32964 0.2523 0.0
C93 C 0.8955 0.34035 0.2931 0.0
C94 C 0.90547 0.36793 0.29638 0.0
H95 H 0.91955 0.38711 0.19402 0.0
O96 O 0.85616 0.40723 0.21742 0.0
O97 O 0.88826 0.41421 0.26824 0.0
O98 O 0.91279 0.4505 0.19767 0.0
O99 O 0.93976 0.43414 0.22029 0.0
C100 C 0.88683 0.3247 0.3306 0.0
C101 C 0.8874 0.33658 0.37034 0.0
H102 H 0.89047 0.36628 0.44067 0.0
H103 H 0.90719 0.41508 0.43958 0.0
H104 H 0.90225 0.33847 0.18482 0.0
H105 H 0.88686 0.30842 0.2481 0.0
H106 H 0.87964 0.3035 0.32925 0.0
H107 H 0.88025 0.3242 0.39881 0.0
Mn108 Mn 0.47299 0.88389 0.76598 0.0
Mn109 Mn 0.42692 0.90434 0.74317 0.0
C110 C 0.4241 0.85556 0.77687 0.0
C111 C 0.4954 0.86071 0.74727 0.0
C112 C 0.46557 0.92267 0.82288 0.0
O113 O 0.49654 0.91545 0.72564 0.0
O114 O 0.46397 0.92754 0.71347 0.0
C115 C 0.41731 0.88999 0.65055 0.0
N116 N 0.40651 0.88771 0.69044 0.0
C117 C 0.35784 0.85699 0.664 0.0
C118 C 0.36843 0.85924 0.62257 0.0
C119 C 0.39829 0.87573 0.61587 0.0
C120 C 0.37779 0.87189 0.69727 0.0
H121 H 0.44026 0.90252 0.64525 0.0
C122 C 0.48866 0.9304 0.70811 0.0
O123 O 0.50574 0.87855 0.77837 0.0
O124 O 0.47368 0.85811 0.72529 0.0
N125 N 0.39012 0.88305 0.76954 0.0
C126 C 0.38376 0.88107 0.81198 0.0
C127 C 0.35495 0.86417 0.82449 0.0
C128 C 0.33301 0.84954 0.79329 0.0
C129 C 0.34006 0.85204 0.74979 0.0
C130 C 0.36911 0.86943 0.73919 0.0
H131 H 0.40058 0.89207 0.83614 0.0
O132 O 0.44252 0.85232 0.79853 0.0
O133 O 0.43491 0.8757 0.75052 0.0
O134 O 0.47814 0.90997 0.81489 0.0
O135 O 0.44621 0.92184 0.79815 0.0
C136 C 0.31952 0.83736 0.71669 0.0
C137 C 0.32841 0.83985 0.67382 0.0
H138 H 0.35387 0.84807 0.5958 0.0
H139 H 0.40665 0.8774 0.58405 0.0
H140 H 0.3497 0.86226 0.85814 0.0
H141 H 0.31087 0.83624 0.80311 0.0
H142 H 0.29693 0.82368 0.72395 0.0
H143 H 0.3125 0.82804 0.64876 0.0
Mn144 Mn 0.53548 0.42059 0.24478 0.0
Mn145 Mn 0.57903 0.48813 0.26253 0.0
C146 C 0.58432 0.44282 0.23036 0.0
C147 C 0.51475 0.37545 0.26511 0.0
C148 C 0.53843 0.46393 0.18537 0.0
O149 O 0.5117 0.42794 0.28583 0.0
O150 O 0.5426 0.47301 0.29432 0.0
C151 C 0.59177 0.4875 0.35528 0.0
N152 N 0.60119 0.4952 0.31455 0.0
C153 C 0.65093 0.51997 0.33914 0.0
C154 C 0.64175 0.51243 0.38137 0.0
C155 C 0.61204 0.49606 0.38944 0.0
C156 C 0.62972 0.51098 0.30644 0.0
H157 H 0.56897 0.47494 0.36165 0.0
C158 C 0.51882 0.45085 0.30223 0.0
O159 O 0.50332 0.38215 0.23456 0.0
O160 O 0.53695 0.39512 0.28568 0.0
N161 N 0.61532 0.50535 0.23438 0.0
C162 C 0.62061 0.50897 0.19157 0.0
C163 C 0.6493 0.52435 0.17793 0.0
C164 C 0.67218 0.5359 0.20842 0.0
C165 C 0.66621 0.53159 0.25223 0.0
C166 C 0.63719 0.51642 0.26395 0.0
H167 H 0.60307 0.50029 0.16806 0.0
O168 O 0.56578 0.42031 0.21069 0.0
O169 O 0.57371 0.45214 0.25735 0.0
O170 O 0.52737 0.43919 0.19553 0.0
O171 O 0.55794 0.48365 0.20813 0.0
C172 C 0.68792 0.54143 0.28469 0.0
C173 C 0.68028 0.53555 0.32811 0.0
H174 H 0.65732 0.51884 0.40778 0.0
H175 H 0.60479 0.49006 0.42192 0.0
H176 H 0.65378 0.52744 0.14402 0.0
H177 H 0.69427 0.54801 0.19791 0.0
H178 H 0.71056 0.55318 0.27655 0.0
H179 H 0.69717 0.54283 0.35271 0.0
Mn180 Mn 0.11081 0.56667 0.72787 0.0
Mn181 Mn 0.06661 0.50162 0.69665 0.0
C182 C 0.1248 0.53608 0.73758 0.0
C183 C 0.1477 0.61089 0.71629 0.0
C184 C 0.0595 0.52406 0.77919 0.0
O185 O 0.08289 0.56904 0.68745 0.0
O186 O 0.05348 0.52468 0.67113 0.0
C187 C 0.08057 0.50895 0.60432 0.0
N188 N 0.07905 0.49676 0.64236 0.0
C189 C 0.09641 0.47067 0.61036 0.0
C190 C 0.09799 0.48281 0.5708 0.0
C191 C 0.0901 0.50208 0.56781 0.0
C192 C 0.08667 0.47826 0.64563 0.0
H193 H 0.07461 0.52382 0.60182 0.0
C194 C 0.06068 0.54946 0.66844 0.0
O195 O 0.12889 0.60517 0.7458 0.0
O196 O 0.14417 0.5912 0.69211 0.0
N197 N 0.07712 0.47728 0.71834 0.0
C198 C 0.07578 0.46851 0.75929 0.0
C199 C 0.08372 0.4497 0.768 0.0
C200 C 0.0927 0.43993 0.7345 0.0
C201 C 0.09376 0.44915 0.69258 0.0
C202 C 0.08553 0.46786 0.68582 0.0
H203 H 0.06887 0.47594 0.78516 0.0
O204 O 0.13591 0.55781 0.76133 0.0
O205 O 0.10565 0.53281 0.70866 0.0
O206 O 0.07979 0.54846 0.77283 0.0
O207 O 0.05281 0.50461 0.75307 0.0
C208 C 0.1029 0.4407 0.65731 0.0
C209 C 0.1044 0.45156 0.6163 0.0
H210 H 0.10541 0.47762 0.54258 0.0
H211 H 0.09138 0.51163 0.53744 0.0
H212 H 0.0829 0.44272 0.80045 0.0
H213 H 0.09878 0.42541 0.74136 0.0
H214 H 0.10887 0.42591 0.66135 0.0
H215 H 0.11184 0.44515 0.58958 0.0
H216 H 0.54618 0.18442 0.19977 0.0
H217 H 0.53275 0.21801 0.20256 0.0
H218 H 0.46847 0.17045 0.29647 0.0
H219 H 0.48254 0.137 0.29484 0.0
H220 H 0.48886 0.22283 0.18903 0.0
H221 H 0.46766 0.21307 0.37054 0.0
H222 H 0.47999 0.19678 0.43563 0.0
H223 H 0.55838 0.21294 0.37823 0.0
H224 H 0.54667 0.22963 0.3131 0.0
H225 H 0.46639 0.32917 0.2332 0.0
H226 H 0.45704 0.28315 0.2338 0.0
H227 H 0.53553 0.31184 0.309 0.0
H228 H 0.54405 0.35725 0.31036 0.0
H229 H 0.49965 0.26422 0.33285 0.0
H230 H 0.53055 0.30525 0.19336 0.0
H231 H 0.52709 0.32628 0.12667 0.0
H232 H 0.44378 0.25529 0.09726 0.0
H233 H 0.44664 0.23397 0.16407 0.0
C234 C 0.52877 0.18076 0.22044 0.0
C235 C 0.51569 0.15816 0.24749 0.0
C236 C 0.52105 0.20003 0.22193 0.0
C237 C 0.49998 0.19712 0.25036 0.0
C238 C 0.48521 0.17346 0.27492 0.0
C239 C 0.49314 0.15423 0.27373 0.0
C240 C 0.49563 0.22004 0.25669 0.0
C241 C 0.49086 0.23167 0.22056 0.0
C242 C 0.49871 0.23198 0.29768 0.0
C243 C 0.50607 0.22222 0.33681 0.0
C244 C 0.48753 0.21317 0.3719 0.0
C245 C 0.49442 0.20388 0.40877 0.0
C246 C 0.51989 0.20372 0.41099 0.0
C247 C 0.5386 0.21297 0.37641 0.0
C248 C 0.53184 0.22232 0.33951 0.0
C249 C 0.48125 0.32547 0.2507 0.0
C250 C 0.50607 0.34691 0.27147 0.0
C251 C 0.47603 0.29919 0.25072 0.0
C252 C 0.49596 0.29402 0.27049 0.0
C253 C 0.5198 0.31515 0.29338 0.0
C254 C 0.52469 0.34123 0.2941 0.0
C255 C 0.49351 0.26743 0.26506 0.0
C256 C 0.49694 0.25504 0.3014 0.0
C257 C 0.49036 0.25543 0.22405 0.0
C258 C 0.48865 0.26817 0.18389 0.0
C259 C 0.51143 0.29421 0.17277 0.0
C260 C 0.50959 0.30617 0.13496 0.0
C261 C 0.48519 0.29216 0.10782 0.0
C262 C 0.46263 0.26613 0.11837 0.0
C263 C 0.46435 0.2541 0.15619 0.0
H264 H 0.4838 0.30145 0.07856 0.0
H265 H 0.52516 0.19649 0.43954 0.0
H266 H 0.34768 0.53377 0.64781 0.0
H267 H 0.29882 0.52626 0.64902 0.0
H268 H 0.30584 0.5353 0.78707 0.0
H269 H 0.35427 0.54284 0.7858 0.0
H270 H 0.24928 0.48583 0.69226 0.0
H271 H 0.27519 0.57006 0.81666 0.0
H272 H 0.3162 0.61519 0.83914 0.0
H273 H 0.35158 0.62747 0.71333 0.0
H274 H 0.31058 0.58261 0.68991 0.0
H275 H 0.14527 0.52082 0.80424 0.0
H276 H 0.18391 0.51147 0.80083 0.0
H277 H 0.17972 0.51224 0.66253 0.0
H278 H 0.14225 0.52294 0.66589 0.0
H279 H 0.23376 0.5548 0.75629 0.0
H280 H 0.20656 0.46845 0.63381 0.0
H281 H 0.16824 0.42107 0.61673 0.0
H282 H 0.13615 0.41141 0.7444 0.0
H283 H 0.17412 0.45874 0.76214 0.0
C284 C 0.33858 0.5341 0.67821 0.0
C285 C 0.35408 0.5381 0.7168 0.0
C286 C 0.31082 0.52975 0.67894 0.0
C287 C 0.29884 0.53024 0.71814 0.0
C288 C 0.31477 0.53497 0.7565 0.0
C289 C 0.34226 0.53908 0.75578 0.0
C290 C 0.26973 0.526 0.71954 0.0
C291 C 0.24581 0.50102 0.70559 0.0
C292 C 0.26538 0.54562 0.73813 0.0
C293 C 0.28993 0.57285 0.75169 0.0
C294 C 0.29165 0.58244 0.79374 0.0
C295 C 0.31491 0.60797 0.80666 0.0
C296 C 0.33653 0.62415 0.77772 0.0
C297 C 0.33488 0.61487 0.73576 0.0
C298 C 0.31166 0.58938 0.72267 0.0
C299 C 0.15182 0.51787 0.77316 0.0
C300 C 0.14046 0.52204 0.73531 0.0
C301 C 0.17376 0.51246 0.77125 0.0
C302 C 0.18446 0.51101 0.73143 0.0
C303 C 0.17134 0.51277 0.6935 0.0
C304 C 0.14977 0.51868 0.69544 0.0
C305 C 0.21316 0.51441 0.72952 0.0
C306 C 0.23713 0.53951 0.74302 0.0
C307 C 0.21746 0.49483 0.71077 0.0
C308 C 0.19301 0.46724 0.69911 0.0
C309 C 0.19115 0.45628 0.65809 0.0
C310 C 0.16954 0.42941 0.64834 0.0
C311 C 0.14985 0.41321 0.67952 0.0
C312 C 0.15141 0.42399 0.72028 0.0
C313 C 0.17281 0.45092 0.73007 0.0
H314 H 0.13326 0.39236 0.67202 0.0
H315 H 0.35453 0.64389 0.7878 0.0
H316 H 0.63989 0.18056 0.35623 0.0
H317 H 0.68929 0.22105 0.35336 0.0
H318 H 0.68079 0.22142 0.21529 0.0
H319 H 0.6318 0.1816 0.21827 0.0
H320 H 0.7371 0.22786 0.31168 0.0
H321 H 0.71403 0.28517 0.18069 0.0
H322 H 0.6743 0.29098 0.15732 0.0
H323 H 0.64035 0.27301 0.28442 0.0
H324 H 0.68011 0.26751 0.30874 0.0
H325 H 0.84332 0.35754 0.18161 0.0
H326 H 0.80314 0.31084 0.19244 0.0
H327 H 0.81216 0.32459 0.32943 0.0
H328 H 0.85135 0.37153 0.3186 0.0
H329 H 0.7566 0.31114 0.23808 0.0
H330 H 0.78143 0.25476 0.36835 0.0
H331 H 0.81803 0.24386 0.38796 0.0
H332 H 0.84718 0.25745 0.25812 0.0
H333 H 0.81092 0.2686 0.23782 0.0
C334 C 0.64876 0.18952 0.32549 0.0
C335 C 0.6327 0.17784 0.28737 0.0
C336 C 0.67682 0.21244 0.32382 0.0
C337 C 0.68856 0.22419 0.28412 0.0
C338 C 0.67204 0.21282 0.24626 0.0
C339 C 0.64423 0.18999 0.24794 0.0
C340 C 0.7182 0.24821 0.28152 0.0
C341 C 0.74143 0.24626 0.29622 0.0
C342 C 0.72368 0.27193 0.26053 0.0
C343 C 0.69995 0.27572 0.24643 0.0
C344 C 0.69819 0.28261 0.20372 0.0
C345 C 0.67564 0.28582 0.19029 0.0
C346 C 0.65477 0.28229 0.21934 0.0
C347 C 0.65647 0.27565 0.26192 0.0
C348 C 0.679 0.27245 0.27553 0.0
C349 C 0.83748 0.35017 0.21405 0.0
C350 C 0.85068 0.36785 0.24933 0.0
C351 C 0.81467 0.32355 0.2202 0.0
C352 C 0.8049 0.31435 0.26172 0.0
C353 C 0.81979 0.33122 0.29723 0.0
C354 C 0.8423 0.35798 0.29103 0.0
C355 C 0.77554 0.29047 0.26723 0.0
C356 C 0.7523 0.29269 0.25349 0.0
C357 C 0.77014 0.26705 0.28895 0.0
C358 C 0.79367 0.26281 0.30173 0.0
C359 C 0.79584 0.25567 0.3441 0.0
C360 C 0.81647 0.24937 0.35529 0.0
C361 C 0.83483 0.24985 0.32425 0.0
C362 C 0.83293 0.25708 0.28212 0.0
C363 C 0.81253 0.26364 0.27084 0.0
H364 H 0.85066 0.2448 0.33291 0.0
H365 H 0.63731 0.28474 0.20886 0.0
H366 H 0.47052 0.81682 0.69366 0.0
H367 H 0.47641 0.77846 0.69588 0.0
H368 H 0.54584 0.82042 0.79001 0.0
H369 H 0.53895 0.85868 0.78949 0.0
H370 H 0.51261 0.76519 0.68145 0.0
H371 H 0.54378 0.7752 0.86076 0.0
H372 H 0.5404 0.79645 0.9271 0.0
H373 H 0.46423 0.79176 0.87623 0.0
H374 H 0.46701 0.77022 0.80987 0.0
H375 H 0.51013 0.64458 0.72192 0.0
H376 H 0.52894 0.69326 0.72312 0.0
H377 H 0.45769 0.67866 0.80108 0.0
H378 H 0.43966 0.63046 0.80151 0.0
H379 H 0.50172 0.72411 0.82472 0.0
H380 H 0.45744 0.68336 0.68707 0.0
H381 H 0.45132 0.65844 0.61965 0.0
H382 H 0.5382 0.71865 0.58535 0.0
H383 H 0.54492 0.74376 0.65287 0.0
C384 C 0.48745 0.81822 0.71432 0.0
C385 C 0.50402 0.84072 0.74184 0.0
C386 C 0.49086 0.79617 0.71548 0.0
C387 C 0.51116 0.79615 0.74379 0.0
C388 C 0.52952 0.81961 0.76864 0.0
C389 C 0.52575 0.84159 0.76805 0.0
C390 C 0.51093 0.77062 0.74952 0.0
C391 C 0.51062 0.75641 0.71287 0.0
C392 C 0.5079 0.75878 0.79037 0.0
C393 C 0.50586 0.77146 0.83023 0.0
C394 C 0.52631 0.77868 0.86383 0.0
C395 C 0.52449 0.79077 0.9014 0.0
C396 C 0.50218 0.79555 0.9058 0.0
C397 C 0.48156 0.78814 0.87272 0.0
C398 C 0.48325 0.77601 0.83513 0.0
C399 C 0.49889 0.65187 0.74011 0.0
C400 C 0.47327 0.63362 0.76134 0.0
C401 C 0.50953 0.6797 0.74053 0.0
C402 C 0.49441 0.68969 0.76139 0.0
C403 C 0.46981 0.6716 0.78467 0.0
C404 C 0.45944 0.64393 0.78482 0.0
C405 C 0.50253 0.71835 0.75656 0.0
C406 C 0.50444 0.73319 0.79338 0.0
C407 C 0.50577 0.73027 0.71572 0.0
C408 C 0.50181 0.71522 0.67521 0.0
C409 C 0.4753 0.69116 0.66527 0.0
C410 C 0.47171 0.67702 0.62704 0.0
C411 C 0.49439 0.6869 0.5983 0.0
C412 C 0.52068 0.71098 0.60769 0.0
C413 C 0.52439 0.72517 0.64593 0.0
H414 H 0.49157 0.67594 0.56871 0.0
H415 H 0.50084 0.80494 0.93489 0.0
H416 H 0.62093 0.46178 0.29922 0.0
H417 H 0.67121 0.47534 0.30313 0.0
H418 H 0.66346 0.44642 0.17258 0.0
H419 H 0.61525 0.43904 0.16629 0.0
H420 H 0.69204 0.45037 0.30805 0.0
H421 H 0.72227 0.45896 0.1291 0.0
H422 H 0.71652 0.47762 0.06129 0.0
H423 H 0.7079 0.53603 0.1318 0.0
H424 H 0.71361 0.51764 0.2003 0.0
H425 H 0.79764 0.41968 0.2863 0.0
H426 H 0.75583 0.42414 0.28358 0.0
H427 H 0.80864 0.50464 0.23217 0.0
H428 H 0.85009 0.49919 0.23173 0.0
H429 H 0.76241 0.48215 0.19083 0.0
H430 H 0.78163 0.49082 0.34029 0.0
H431 H 0.79258 0.47995 0.41184 0.0
H432 H 0.71146 0.40354 0.40838 0.0
H433 H 0.70021 0.41376 0.3365 0.0
C434 C 0.6309 0.46067 0.27034 0.0
C435 C 0.61509 0.45168 0.23153 0.0
C436 C 0.65944 0.46737 0.27292 0.0
C437 C 0.67201 0.46257 0.23787 0.0
C438 C 0.65544 0.452 0.19952 0.0
C439 C 0.62754 0.44726 0.19608 0.0
C440 C 0.70098 0.46587 0.24335 0.0
C441 C 0.70749 0.45789 0.28245 0.0
C442 C 0.72174 0.47573 0.21052 0.0
C443 C 0.71806 0.48678 0.16974 0.0
C444 C 0.71915 0.47579 0.13015 0.0
C445 C 0.71583 0.48626 0.09166 0.0
C446 C 0.71166 0.50789 0.09234 0.0
C447 C 0.71085 0.51911 0.13151 0.0
C448 C 0.71404 0.50864 0.17014 0.0
C449 C 0.80038 0.43847 0.27503 0.0
C450 C 0.827 0.45918 0.25948 0.0
C451 C 0.7765 0.4411 0.27368 0.0
C452 C 0.77908 0.46497 0.25847 0.0
C453 C 0.80602 0.48602 0.24403 0.0
C454 C 0.82972 0.483 0.24403 0.0
C455 C 0.75324 0.46717 0.25547 0.0
C456 C 0.7472 0.47566 0.21672 0.0
C457 C 0.73363 0.45926 0.28942 0.0
C458 C 0.74016 0.45301 0.33284 0.0
C459 C 0.7662 0.47163 0.35467 0.0
C460 C 0.77245 0.46559 0.3953 0.0
C461 C 0.75274 0.44106 0.41462 0.0
C462 C 0.72671 0.42254 0.39337 0.0
C463 C 0.72036 0.42846 0.3527 0.0
H464 H 0.75763 0.43641 0.44607 0.0
H465 H 0.70915 0.51602 0.0625 0.0
H466 H 0.38687 0.82387 0.83899 0.0
H467 H 0.33855 0.78286 0.8276 0.0
H468 H 0.34668 0.79544 0.69061 0.0
H469 H 0.39558 0.83434 0.70192 0.0
H470 H 0.28951 0.77052 0.79736 0.0
H471 H 0.31518 0.73932 0.63438 0.0
H472 H 0.35717 0.74323 0.59881 0.0
H473 H 0.39788 0.75036 0.72166 0.0
H474 H 0.35596 0.74608 0.75795 0.0
H475 H 0.1552 0.66114 0.71844 0.0
H476 H 0.20149 0.70477 0.72479 0.0
H477 H 0.24669 0.66244 0.72603 0.0
H478 H 0.20097 0.61963 0.7151 0.0
H479 H 0.27745 0.70316 0.68808 0.0
H480 H 0.22925 0.68914 0.82116 0.0
H481 H 0.19008 0.68107 0.86907 0.0
H482 H 0.1987 0.75532 0.82833 0.0
H483 H 0.2377 0.76366 0.77978 0.0
C484 C 0.37809 0.81771 0.80661 0.0
C485 C 0.39427 0.8326 0.77135 0.0
C486 C 0.35054 0.79449 0.80007 0.0
C487 C 0.33906 0.7859 0.75818 0.0
C488 C 0.35521 0.80125 0.72316 0.0
C489 C 0.38291 0.82382 0.72966 0.0
C490 C 0.31082 0.7603 0.75066 0.0
C491 C 0.28683 0.75567 0.77366 0.0
C492 C 0.30748 0.74063 0.72046 0.0
C493 C 0.33253 0.74263 0.69883 0.0
C494 C 0.33302 0.74157 0.65379 0.0
C495 C 0.35682 0.74388 0.63351 0.0
C496 C 0.38021 0.74713 0.65796 0.0
C497 C 0.37978 0.74793 0.70275 0.0
C498 C 0.35602 0.74557 0.72319 0.0
C499 C 0.17522 0.66149 0.71913 0.0
C500 C 0.17483 0.63733 0.71594 0.0
C501 C 0.2016 0.68629 0.72339 0.0
C502 C 0.22774 0.68703 0.72699 0.0
C503 C 0.22705 0.66268 0.72307 0.0
C504 C 0.2009 0.63816 0.71686 0.0
C505 C 0.25588 0.71281 0.73546 0.0
C506 C 0.27994 0.71775 0.71215 0.0
C507 C 0.2596 0.73182 0.76742 0.0
C508 C 0.23613 0.72685 0.79648 0.0
C509 C 0.22264 0.70364 0.82221 0.0
C510 C 0.20049 0.69903 0.8495 0.0
C511 C 0.19184 0.71762 0.85163 0.0
C512 C 0.20538 0.7409 0.82657 0.0
C513 C 0.22751 0.74559 0.79917 0.0
H514 H 0.1747 0.71402 0.87279 0.0
H515 H 0.39863 0.74897 0.6422 0.0
H516 H 0.44692 0.95572 0.84738 0.0
H517 H 0.45583 0.97958 0.91558 0.0
H518 H 0.50847 0.94919 0.95966 0.0
H519 H 0.49947 0.92486 0.89126 0.0
H520 H 0.46982 0.94416 0.02036 0.0
H521 H 0.54003 0.01371 0.92911 0.0
H522 H 0.55687 0.0419 0.86437 0.0
H523 H 0.50209 0.07193 0.89143 0.0
H524 H 0.48461 0.0436 0.95607 0.0
H525 H 0.55012 0.03535 0.1904 0.0
H526 H 0.52991 0.00594 0.1273 0.0
H527 H 0.48202 0.04304 0.09304 0.0
H528 H 0.5026 0.07301 0.15642 0.0
H529 H 0.51389 0.04369 0.02748 0.0
H530 H 0.44658 0.9768 0.12239 0.0
H531 H 0.43019 0.94884 0.18739 0.0
H532 H 0.47945 0.91391 0.15417 0.0
H533 H 0.49649 0.94195 0.08925 0.0
C534 C 0.46055 0.95413 0.87136 0.0
C535 C 0.47256 0.93837 0.86364 0.0
C536 C 0.46564 0.96788 0.91038 0.0
C537 C 0.48295 0.9663 0.94257 0.0
C538 C 0.49503 0.95065 0.93517 0.0
C539 C 0.49001 0.9369 0.89596 0.0
C540 C 0.4882 0.98091 0.98403 0.0
C541 C 0.47976 0.96596 0.02205 0.0
C542 C 0.50026 0.00922 0.98597 0.0
C543 C 0.51078 0.02631 0.94717 0.0
C544 C 0.53138 0.02615 0.92106 0.0
C545 C 0.54108 0.04218 0.88442 0.0
C546 C 0.53049 0.05863 0.87372 0.0
C547 C 0.51024 0.05914 0.89972 0.0
C548 C 0.50045 0.04311 0.93638 0.0
C549 C 0.5348 0.03691 0.16999 0.0
C550 C 0.52808 0.05663 0.17826 0.0
C551 C 0.52313 0.01994 0.13398 0.0
C552 C 0.50438 0.02222 0.10547 0.0
C553 C 0.49643 0.04094 0.11471 0.0
C554 C 0.50802 0.0579 0.15106 0.0
C555 C 0.49576 0.007 0.06405 0.0
C556 C 0.50363 0.02184 0.0259 0.0
C557 C 0.4832 0.9786 0.06205 0.0
C558 C 0.47299 0.96165 0.10107 0.0
C559 C 0.45412 0.96332 0.1291 0.0
C560 C 0.44467 0.94742 0.16591 0.0
C561 C 0.45382 0.92965 0.17494 0.0
C562 C 0.47239 0.9277 0.14713 0.0
C563 C 0.48191 0.94357 0.11029 0.0
H564 H 0.44647 0.91735 0.20345 0.0
H565 H 0.53803 0.07104 0.84535 0.0
H566 H 0.47197 0.40884 0.3434 0.0
H567 H 0.44829 0.41269 0.40692 0.0
H568 H 0.50163 0.49978 0.40051 0.0
H569 H 0.52481 0.49636 0.33733 0.0
H570 H 0.50447 0.47496 0.48088 0.0
H571 H 0.43694 0.47471 0.37641 0.0
H572 H 0.40046 0.45468 0.31747 0.0
H573 H 0.34576 0.38583 0.39535 0.0
H574 H 0.38215 0.4053 0.45457 0.0
H575 H 0.46281 0.53865 0.62512 0.0
H576 H 0.47424 0.52255 0.56099 0.0
H577 H 0.40183 0.44153 0.58243 0.0
H578 H 0.38988 0.45749 0.64654 0.0
H579 H 0.40486 0.45479 0.49828 0.0
H580 H 0.46864 0.4561 0.60521 0.0
H581 H 0.50452 0.47461 0.66501 0.0
H582 H 0.56582 0.53839 0.58428 0.0
H583 H 0.53015 0.52051 0.52413 0.0
C584 C 0.47815 0.42878 0.35492 0.0
C585 C 0.50058 0.45226 0.33549 0.0
C586 C 0.46466 0.43093 0.39124 0.0
C587 C 0.47353 0.45653 0.40849 0.0
C588 C 0.4947 0.47986 0.3878 0.0
C589 C 0.50791 0.47779 0.35157 0.0
C590 C 0.46288 0.45957 0.45005 0.0
C591 C 0.48272 0.47064 0.48473 0.0
C592 C 0.43423 0.45297 0.45529 0.0
C593 C 0.41244 0.44127 0.41967 0.0
C594 C 0.41729 0.45515 0.38079 0.0
C595 C 0.39659 0.44394 0.34737 0.0
C596 C 0.37086 0.41894 0.3526 0.0
C597 C 0.36574 0.40515 0.3913 0.0
C598 C 0.38638 0.41627 0.4248 0.0
C599 C 0.44929 0.51739 0.61639 0.0
C600 C 0.42553 0.49937 0.6413 0.0
C601 C 0.45591 0.50819 0.57971 0.0
C602 C 0.4391 0.48076 0.56723 0.0
C603 C 0.41514 0.46275 0.59157 0.0
C604 C 0.40846 0.47193 0.62835 0.0
C605 C 0.44682 0.47114 0.52876 0.0
C606 C 0.42647 0.45873 0.49477 0.0
C607 C 0.47499 0.47623 0.52419 0.0
C608 C 0.49661 0.48706 0.56023 0.0
C609 C 0.48969 0.47419 0.60028 0.0
C610 C 0.51001 0.48456 0.63424 0.0
C611 C 0.53741 0.5077 0.62847 0.0
C612 C 0.54457 0.52048 0.5887 0.0
C613 C 0.52432 0.51022 0.55465 0.0
H614 H 0.55311 0.51569 0.6548 0.0
H615 H 0.35485 0.41031 0.3267 0.0
H616 H 0.07308 0.55813 0.84807 0.0
H617 H 0.05383 0.54607 0.91998 0.0
H618 H 0.99372 0.4638 0.87702 0.0
H619 H 0.01338 0.47543 0.80505 0.0
H620 H 0.00383 0.52784 0.9545 0.0
H621 H 0.98682 0.42042 0.95487 0.0
H622 H 0.00747 0.3967 0.91993 0.0
H623 H 0.08756 0.47254 0.90337 0.0
H624 H 0.06761 0.49665 0.93895 0.0
H625 H 0.91142 0.45206 0.11688 0.0
H626 H 0.93565 0.46645 0.04863 0.0
H627 H 0.01084 0.4708 0.10485 0.0
H628 H 0.98617 0.45546 0.17357 0.0
H629 H 0.0004 0.45007 0.02576 0.0
H630 H 0.01044 0.52845 0.09035 0.0
H631 H 0.99467 0.55562 0.12735 0.0
H632 H 0.93888 0.54466 0.01984 0.0
H633 H 0.954 0.51709 0.98243 0.0
C634 C 0.05554 0.53751 0.85366 0.0
C635 C 0.04497 0.51766 0.82086 0.0
C636 C 0.04458 0.53068 0.89485 0.0
C637 C 0.0228 0.50395 0.90396 0.0
C638 C 0.01103 0.48442 0.87079 0.0
C639 C 0.02216 0.49116 0.82963 0.0
C640 C 0.01296 0.49636 0.94845 0.0
C641 C 0.0031 0.51087 0.97011 0.0
C642 C 0.01303 0.47481 0.96928 0.0
C643 C 0.02558 0.46035 0.94924 0.0
C644 C 0.0089 0.43201 0.94407 0.0
C645 C 0.02048 0.4185 0.92411 0.0
C646 C 0.04878 0.43312 0.90931 0.0
C647 C 0.06563 0.46125 0.91473 0.0
C648 C 0.05419 0.47484 0.9348 0.0
C649 C 0.93312 0.45606 0.11484 0.0
C650 C 0.9471 0.45304 0.15072 0.0
C651 C 0.94695 0.46433 0.0758 0.0
C652 C 0.97528 0.47032 0.07202 0.0
C653 C 0.98903 0.46645 0.1073 0.0
C654 C 0.97497 0.45775 0.14645 0.0
C655 C 0.99036 0.48099 0.03115 0.0
C656 C 0.0013 0.46714 0.01023 0.0
C657 C 0.99221 0.50374 0.01151 0.0
C658 C 0.98323 0.52055 0.0337 0.0
C659 C 0.99468 0.5317 0.0747 0.0
C660 C 0.98587 0.54719 0.09574 0.0
C661 C 0.96575 0.55183 0.07599 0.0
C662 C 0.95445 0.54105 0.03511 0.0
C663 C 0.96317 0.52552 0.01394 0.0
H664 H 0.95894 0.56381 0.09234 0.0
H665 H 0.05766 0.42263 0.89371 0.0
H666 H 0.60294 0.09956 0.39799 0.0
H667 H 0.59313 0.07349 0.46366 0.0
H668 H 0.50984 0.01166 0.41052 0.0
H669 H 0.51933 0.03857 0.34533 0.0
H670 H 0.50341 0.01928 0.48828 0.0
H671 H 0.57096 0.00461 0.41844 0.0
H672 H 0.61627 0.01764 0.38232 0.0
H673 H 0.66535 0.06074 0.49581 0.0
H674 H 0.62035 0.04827 0.53244 0.0
H675 H 0.51734 0.92378 0.64359 0.0
H676 H 0.53541 0.95159 0.57906 0.0
H677 H 0.51911 0.00962 0.63558 0.0
H678 H 0.49985 0.98127 0.69898 0.0
H679 H 0.57461 0.00065 0.55337 0.0
H680 H 0.48914 0.02988 0.56522 0.0
H681 H 0.44112 0.0123 0.59601 0.0
H682 H 0.42303 0.93121 0.58805 0.0
H683 H 0.47093 0.94826 0.55733 0.0
C684 C 0.58268 0.0803 0.40027 0.0
C685 C 0.562 0.07079 0.36665 0.0
C686 C 0.5771 0.06535 0.43774 0.0
C687 C 0.55102 0.04024 0.44178 0.0
C688 C 0.53019 0.03089 0.40816 0.0
C689 C 0.53556 0.04618 0.37099 0.0
C690 C 0.54512 0.0242 0.4816 0.0
C691 C 0.51901 0.01519 0.50233 0.0
C692 C 0.5652 0.01841 0.49982 0.0
C693 C 0.59228 0.02566 0.47807 0.0
C694 C 0.59143 0.01699 0.43562 0.0
C695 C 0.61705 0.02426 0.41506 0.0
C696 C 0.64367 0.04005 0.43673 0.0
C697 C 0.64472 0.04852 0.47906 0.0
C698 C 0.61915 0.04133 0.49975 0.0
C699 C 0.5185 0.9429 0.64265 0.0
C700 C 0.50708 0.95038 0.67595 0.0
C701 C 0.52868 0.95871 0.60574 0.0
C702 C 0.52781 0.98228 0.60198 0.0
C703 C 0.51921 0.99112 0.63724 0.0
C704 C 0.50848 0.97508 0.6736 0.0
C705 C 0.53318 0.99621 0.56014 0.0
C706 C 0.5591 0.00477 0.53912 0.0
C707 C 0.51256 0.0009 0.54084 0.0
C708 C 0.4837 0.9904 0.55933 0.0
C709 C 0.47489 0.00829 0.57004 0.0
C710 C 0.44773 0.99842 0.58758 0.0
C711 C 0.42911 0.97065 0.59424 0.0
C712 C 0.43759 0.9527 0.58326 0.0
C713 C 0.46475 0.96246 0.56586 0.0
H714 H 0.40807 0.96303 0.60775 0.0
H715 H 0.66349 0.04568 0.42074 0.0
H716 H 0.48346 0.56113 0.84903 0.0
H717 H 0.50419 0.55219 0.91261 0.0
H718 H 0.45151 0.46636 0.885 0.0
H719 H 0.43053 0.47505 0.82225 0.0
H720 H 0.44473 0.47673 0.96502 0.0
H721 H 0.52535 0.50265 0.87405 0.0
H722 H 0.56456 0.53258 0.82537 0.0
H723 H 0.60369 0.59434 0.92365 0.0
H724 H 0.56448 0.56491 0.97275 0.0
H725 H 0.50087 0.42859 0.12312 0.0
H726 H 0.4871 0.43978 0.05487 0.0
H727 H 0.54099 0.52494 0.08662 0.0
H728 H 0.55532 0.51407 0.15442 0.0
H729 H 0.54801 0.51609 0.00502 0.0
H730 H 0.46748 0.49079 0.09539 0.0
H731 H 0.42822 0.46132 0.14433 0.0
H732 H 0.38875 0.39897 0.04698 0.0
H733 H 0.42801 0.42795 0.99763 0.0
C734 C 0.47681 0.54043 0.85604 0.0
C735 C 0.45516 0.51879 0.83087 0.0
C736 C 0.48865 0.53533 0.89238 0.0
C737 C 0.47928 0.50856 0.90368 0.0
C738 C 0.45887 0.48714 0.87715 0.0
C739 C 0.44693 0.49217 0.84122 0.0
C740 C 0.48874 0.50247 0.94479 0.0
C741 C 0.46733 0.48504 0.97344 0.0
C742 C 0.51821 0.51396 0.95641 0.0
C743 C 0.5418 0.53168 0.92692 0.0
C744 C 0.54217 0.52271 0.88516 0.0
C745 C 0.56443 0.53956 0.85751 0.0
C746 C 0.58656 0.56537 0.87136 0.0
C747 C 0.58651 0.57436 0.91294 0.0
C748 C 0.56429 0.55759 0.9407 0.0
C749 C 0.50972 0.4497 0.11573 0.0
C750 C 0.52909 0.47039 0.1445 0.0
C751 C 0.5018 0.45607 0.07668 0.0
C752 C 0.51282 0.48321 0.06581 0.0
C753 C 0.53225 0.50388 0.0943 0.0
C754 C 0.54028 0.49756 0.13322 0.0
C755 C 0.50396 0.49009 0.02487 0.0
C756 C 0.52544 0.50775 0.99644 0.0
C757 C 0.47452 0.47888 0.01339 0.0
C758 C 0.45084 0.46144 0.04297 0.0
C759 C 0.45055 0.47072 0.08454 0.0
C760 C 0.42828 0.45411 0.11233 0.0
C761 C 0.40605 0.42826 0.09882 0.0
C762 C 0.40601 0.41898 0.05743 0.0
C763 C 0.42825 0.4355 0.02952 0.0
H764 H 0.38882 0.41544 0.12038 0.0
H765 H 0.60377 0.57839 0.84992 0.0
H766 H 0.00896 0.51361 0.62923 0.0
H767 H 0.98796 0.5217 0.56635 0.0
H768 H 0.05268 0.60726 0.57525 0.0
H769 H 0.07454 0.59919 0.63811 0.0
H770 H 0.9663 0.54946 0.53482 0.0
H771 H 0.07753 0.62689 0.47591 0.0
H772 H 0.12905 0.64464 0.49269 0.0
H773 H 0.10687 0.56627 0.53727 0.0
H774 H 0.05534 0.54808 0.5203 0.0
H775 H 0.93005 0.51934 0.31611 0.0
H776 H 0.95441 0.55345 0.37335 0.0
H777 H 0.00947 0.52292 0.40173 0.0
H778 H 0.98616 0.48967 0.3443 0.0
H779 H 0.03774 0.57467 0.42009 0.0
H780 H 0.94051 0.49463 0.44745 0.0
H781 H 0.88795 0.46627 0.43222 0.0
H782 H 0.8805 0.53505 0.45355 0.0
H783 H 0.93314 0.56384 0.46848 0.0
C784 C 0.01842 0.53429 0.61859 0.0
C785 C 0.04396 0.55562 0.63789 0.0
C786 C 0.00613 0.53895 0.58279 0.0
C787 C 0.01909 0.56503 0.56559 0.0
C788 C 0.04259 0.58692 0.58773 0.0
C789 C 0.05506 0.58224 0.62362 0.0
C790 C 0.01134 0.56757 0.52079 0.0
C791 C 0.982 0.55584 0.50962 0.0
C792 C 0.03179 0.57568 0.48788 0.0
C793 C 0.0627 0.5863 0.49732 0.0
C794 C 0.08373 0.6135 0.48918 0.0
C795 C 0.1129 0.62361 0.49872 0.0
C796 C 0.12121 0.60662 0.51616 0.0
C797 C 0.10041 0.57943 0.52386 0.0
C798 C 0.07124 0.56921 0.51425 0.0
C799 C 0.94795 0.52045 0.33371 0.0
C800 C 0.95566 0.50129 0.32638 0.0
C801 C 0.96184 0.53999 0.3664 0.0
C802 C 0.98333 0.54037 0.3924 0.0
C803 C 0.99292 0.52304 0.38219 0.0
C804 C 0.9793 0.50376 0.34947 0.0
C805 C 0.99253 0.55484 0.43436 0.0
C806 C 0.02218 0.57001 0.44497 0.0
C807 C 0.97224 0.54866 0.46693 0.0
C808 C 0.94067 0.53139 0.45857 0.0
C809 C 0.92762 0.50367 0.44876 0.0
C810 C 0.89786 0.48755 0.44016 0.0
C811 C 0.8809 0.49887 0.44179 0.0
C812 C 0.89367 0.52633 0.45218 0.0
C813 C 0.92346 0.54256 0.46069 0.0
H814 H 0.85785 0.48637 0.4351 0.0
H815 H 0.14379 0.61451 0.52363 0.0
loop_
_geom_bond_atom_site_label_1
_geom_bond_atom_site_label_2
_geom_bond_distance
_geom_bond_site_symmetry_2
_ccdc_geom_bond_type
Mn0 O5 2.095 . S
Mn0 O15 2.162 . S
Mn0 O16 2.297 . S
Mn0 O24 2.385 . S
Mn0 O25 2.209 . S
Mn0 O26 2.094 . S
Mn1 O6 2.121 . S
Mn1 N8 2.257 . S
Mn1 N17 2.282 . S
Mn1 O25 2.215 . S
Mn1 O27 2.117 . S
C2 O24 1.234 . S
C2 O25 1.283 . S
C3 O15 1.281 . S
C3 O16 1.236 . S
C4 O26 1.240 . S
C4 O27 1.264 . S
O5 Mn0 2.095 . S
O5 C14 1.250 . S
O6 Mn1 2.121 . S
O6 C14 1.258 . S
C7 N8 1.326 . S
C7 C11 1.460 . S
C7 H13 0.929 . S
N8 Mn1 2.257 . S
N8 C7 1.326 . S
N8 C12 1.362 . S
C9 C10 1.258 . S
C9 C12 1.431 . S
C9 C29 1.449 . S
C10 C9 1.258 . S
C10 C11 1.477 . S
C10 H30 0.931 . S
C11 C7 1.460 . S
C11 C10 1.477 . S
C11 H31 0.930 . S
C12 N8 1.362 . S
C12 C9 1.431 . S
C12 C22 1.476 . S
H13 C7 0.929 . S
C14 O5 1.250 . S
C14 O6 1.258 . S
O15 Mn0 2.162 . S
O15 C3 1.281 . S
O16 Mn0 2.297 . S
O16 C3 1.236 . S
N17 Mn1 2.282 . S
N17 C18 1.328 . S
N17 C22 1.318 . S
C18 N17 1.328 . S
C18 C19 1.457 . S
C18 H23 0.929 . S
C19 C18 1.457 . S
C19 C20 1.291 . S
C19 H32 0.931 . S
C20 C19 1.291 . S
C20 C21 1.373 . S
C20 H33 0.929 . S
C21 C20 1.373 . S
C21 C22 1.396 . S
C21 C28 1.403 . S
C22 C12 1.476 . S
C22 N17 1.318 . S
C22 C21 1.396 . S
H23 C18 0.929 . S
O24 Mn0 2.385 . S
O24 C2 1.234 . S
O25 Mn0 2.209 . S
O25 Mn1 2.215 . S
O25 C2 1.283 . S
O26 Mn0 2.094 . S
O26 C4 1.240 . S
O27 Mn1 2.117 . S
O27 C4 1.264 . S
C28 C21 1.403 . S
C28 C29 1.399 . S
C28 H34 0.929 . S
C29 C9 1.449 . S
C29 C28 1.399 . S
C29 H35 0.930 . S
H30 C10 0.931 . S
H31 C11 0.930 . S
H32 C19 0.931 . S
H33 C20 0.929 . S
H34 C28 0.929 . S
H35 C29 0.930 . S
Mn36 O41 2.095 . S
Mn36 O51 2.162 . S
Mn36 O52 2.297 . S
Mn36 O60 2.385 . S
Mn36 O61 2.209 . S
Mn36 O62 2.094 . S
Mn37 O42 2.121 . S
Mn37 N44 2.257 . S
Mn37 N53 2.282 . S
Mn37 O61 2.215 . S
Mn37 O63 2.117 . S
C38 O60 1.234 . S
C38 O61 1.283 . S
C39 O51 1.281 . S
C39 O52 1.236 . S
C40 O62 1.240 . S
C40 O63 1.264 . S
O41 Mn36 2.095 . S
O41 C50 1.250 . S
O42 Mn37 2.121 . S
O42 C50 1.258 . S
C43 N44 1.326 . S
C43 C47 1.460 . S
C43 H49 0.929 . S
N44 Mn37 2.257 . S
N44 C43 1.326 . S
N44 C48 1.362 . S
C45 C46 1.258 . S
C45 C48 1.431 . S
C45 C65 1.449 . S
C46 C45 1.258 . S
C46 C47 1.477 . S
C46 H66 0.931 . S
C47 C43 1.460 . S
C47 C46 1.477 . S
C47 H67 0.930 . S
C48 N44 1.362 . S
C48 C45 1.431 . S
C48 C58 1.476 . S
H49 C43 0.929 . S
C50 O41 1.250 . S
C50 O42 1.258 . S
O51 Mn36 2.162 . S
O51 C39 1.281 . S
O52 Mn36 2.297 . S
O52 C39 1.236 . S
N53 Mn37 2.282 . S
N53 C54 1.328 . S
N53 C58 1.318 . S
C54 N53 1.328 . S
C54 C55 1.457 . S
C54 H59 0.929 . S
C55 C54 1.457 . S
C55 C56 1.291 . S
C55 H68 0.931 . S
C56 C55 1.291 . S
C56 C57 1.373 . S
C56 H69 0.929 . S
C57 C56 1.373 . S
C57 C58 1.396 . S
C57 C64 1.403 . S
C58 C48 1.476 . S
C58 N53 1.318 . S
C58 C57 1.396 . S
H59 C54 0.929 . S
O60 Mn36 2.385 . S
O60 C38 1.234 . S
O61 Mn36 2.209 . S
O61 Mn37 2.215 . S
O61 C38 1.283 . S
O62 Mn36 2.094 . S
O62 C40 1.240 . S
O63 Mn37 2.117 . S
O63 C40 1.264 . S
C64 C57 1.403 . S
C64 C65 1.399 . S
C64 H70 0.929 . S
C65 C45 1.449 . S
C65 C64 1.399 . S
C65 H71 0.930 . S
H66 C46 0.931 . S
H67 C47 0.930 . S
H68 C55 0.931 . S
H69 C56 0.929 . S
H70 C64 0.929 . S
H71 C65 0.930 . S
Mn72 O77 2.095 . S
Mn72 O87 2.162 . S
Mn72 O88 2.297 . S
Mn72 O96 2.385 . S
Mn72 O97 2.209 . S
Mn72 O98 2.094 . S
Mn73 O78 2.121 . S
Mn73 N80 2.257 . S
Mn73 N89 2.282 . S
Mn73 O97 2.215 . S
Mn73 O99 2.117 . S
C74 O96 1.234 . S
C74 O97 1.283 . S
C75 O87 1.281 . S
C75 O88 1.236 . S
C76 O98 1.240 . S
C76 O99 1.264 . S
O77 Mn72 2.095 . S
O77 C86 1.250 . S
O78 Mn73 2.121 . S
O78 C86 1.258 . S
C79 N80 1.326 . S
C79 C83 1.460 . S
C79 H85 0.929 . S
N80 Mn73 2.257 . S
N80 C79 1.326 . S
N80 C84 1.362 . S
C81 C82 1.258 . S
C81 C84 1.431 . S
C81 C101 1.449 . S
C82 C81 1.258 . S
C82 C83 1.477 . S
C82 H102 0.931 . S
C83 C79 1.460 . S
C83 C82 1.477 . S
C83 H103 0.930 . S
C84 N80 1.362 . S
C84 C81 1.431 . S
C84 C94 1.476 . S
H85 C79 0.929 . S
C86 O77 1.250 . S
C86 O78 1.258 . S
O87 Mn72 2.162 . S
O87 C75 1.281 . S
O88 Mn72 2.297 . S
O88 C75 1.236 . S
N89 Mn73 2.282 . S
N89 C90 1.328 . S
N89 C94 1.318 . S
C90 N89 1.328 . S
C90 C91 1.457 . S
C90 H95 0.929 . S
C91 C90 1.457 . S
C91 C92 1.291 . S
C91 H104 0.931 . S
C92 C91 1.291 . S
C92 C93 1.373 . S
C92 H105 0.929 . S
C93 C92 1.373 . S
C93 C94 1.396 . S
C93 C100 1.403 . S
C94 C84 1.476 . S
C94 N89 1.318 . S
C94 C93 1.396 . S
H95 C90 0.929 . S
O96 Mn72 2.385 . S
O96 C74 1.234 . S
O97 Mn72 2.209 . S
O97 Mn73 2.215 . S
O97 C74 1.283 . S
O98 Mn72 2.094 . S
O98 C76 1.240 . S
O99 Mn73 2.117 . S
O99 C76 1.264 . S
C100 C93 1.403 . S
C100 C101 1.399 . S
C100 H106 0.929 . S
C101 C81 1.449 . S
C101 C100 1.399 . S
C101 H107 0.930 . S
H102 C82 0.931 . S
H103 C83 0.930 . S
H104 C91 0.931 . S
H105 C92 0.929 . S
H106 C100 0.929 . S
H107 C101 0.930 . S
Mn108 O113 2.095 . S
Mn108 O123 2.162 . S
Mn108 O124 2.297 . S
Mn108 O132 2.385 . S
Mn108 O133 2.209 . S
Mn108 O134 2.094 . S
Mn109 O114 2.121 . S
Mn109 N116 2.257 . S
Mn109 N125 2.282 . S
Mn109 O133 2.215 . S
Mn109 O135 2.117 . S
C110 O132 1.234 . S
C110 O133 1.283 . S
C111 O123 1.281 . S
C111 O124 1.236 . S
C112 O134 1.240 . S
C112 O135 1.264 . S
O113 Mn108 2.095 . S
O113 C122 1.250 . S
O114 Mn109 2.121 . S
O114 C122 1.258 . S
C115 N116 1.326 . S
C115 C119 1.460 . S
C115 H121 0.929 . S
N116 Mn109 2.257 . S
N116 C115 1.326 . S
N116 C120 1.362 . S
C117 C118 1.258 . S
C117 C120 1.431 . S
C117 C137 1.449 . S
C118 C117 1.258 . S
C118 C119 1.477 . S
C118 H138 0.931 . S
C119 C115 1.460 . S
C119 C118 1.477 . S
C119 H139 0.930 . S
C120 N116 1.362 . S
C120 C117 1.431 . S
C120 C130 1.476 . S
H121 C115 0.929 . S
C122 O113 1.250 . S
C122 O114 1.258 . S
O123 Mn108 2.162 . S
O123 C111 1.281 . S
O124 Mn108 2.297 . S
O124 C111 1.236 . S
N125 Mn109 2.282 . S
N125 C126 1.328 . S
N125 C130 1.318 . S
C126 N125 1.328 . S
C126 C127 1.457 . S
C126 H131 0.929 . S
C127 C126 1.457 . S
C127 C128 1.291 . S
C127 H140 0.931 . S
C128 C127 1.291 . S
C128 C129 1.373 . S
C128 H141 0.929 . S
C129 C128 1.373 . S
C129 C130 1.396 . S
C129 C136 1.403 . S
C130 C120 1.476 . S
C130 N125 1.318 . S
C130 C129 1.396 . S
H131 C126 0.929 . S
O132 Mn108 2.385 . S
O132 C110 1.234 . S
O133 Mn108 2.209 . S
O133 Mn109 2.215 . S
O133 C110 1.283 . S
O134 Mn108 2.094 . S
O134 C112 1.240 . S
O135 Mn109 2.117 . S
O135 C112 1.264 . S
C136 C129 1.403 . S
C136 C137 1.399 . S
C136 H142 0.929 . S
C137 C117 1.449 . S
C137 C136 1.399 . S
C137 H143 0.930 . S
H138 C118 0.931 . S
H139 C119 0.930 . S
H140 C127 0.931 . S
H141 C128 0.929 . S
H142 C136 0.929 . S
H143 C137 0.930 . S
Mn144 O149 2.095 . S
Mn144 O159 2.162 . S
Mn144 O160 2.297 . S
Mn144 O168 2.385 . S
Mn144 O169 2.209 . S
Mn144 O170 2.094 . S
Mn145 O150 2.121 . S
Mn145 N152 2.257 . S
Mn145 N161 2.282 . S
Mn145 O169 2.215 . S
Mn145 O171 2.117 . S
C146 O168 1.234 . S
C146 O169 1.283 . S
C147 O159 1.281 . S
C147 O160 1.236 . S
C148 O170 1.240 . S
C148 O171 1.264 . S
O149 Mn144 2.095 . S
O149 C158 1.250 . S
O150 Mn145 2.121 . S
O150 C158 1.258 . S
C151 N152 1.326 . S
C151 C155 1.460 . S
C151 H157 0.929 . S
N152 Mn145 2.257 . S
N152 C151 1.326 . S
N152 C156 1.362 . S
C153 C154 1.258 . S
C153 C156 1.431 . S
C153 C173 1.449 . S
C154 C153 1.258 . S
C154 C155 1.477 . S
C154 H174 0.931 . S
C155 C151 1.460 . S
C155 C154 1.477 . S
C155 H175 0.930 . S
C156 N152 1.362 . S
C156 C153 1.431 . S
C156 C166 1.476 . S
H157 C151 0.929 . S
C158 O149 1.250 . S
C158 O150 1.258 . S
O159 Mn144 2.162 . S
O159 C147 1.281 . S
O160 Mn144 2.297 . S
O160 C147 1.236 . S
N161 Mn145 2.282 . S
N161 C162 1.328 . S
N161 C166 1.318 . S
C162 N161 1.328 . S
C162 C163 1.457 . S
C162 H167 0.929 . S
C163 C162 1.457 . S
C163 C164 1.291 . S
C163 H176 0.931 . S
C164 C163 1.291 . S
C164 C165 1.373 . S
C164 H177 0.929 . S
C165 C164 1.373 . S
C165 C166 1.396 . S
C165 C172 1.403 . S
C166 C156 1.476 . S
C166 N161 1.318 . S
C166 C165 1.396 . S
H167 C162 0.929 . S
O168 Mn144 2.385 . S
O168 C146 1.234 . S
O169 Mn144 2.209 . S
O169 Mn145 2.215 . S
O169 C146 1.283 . S
O170 Mn144 2.094 . S
O170 C148 1.240 . S
O171 Mn145 2.117 . S
O171 C148 1.264 . S
C172 C165 1.403 . S
C172 C173 1.399 . S
C172 H178 0.929 . S
C173 C153 1.449 . S
C173 C172 1.399 . S
C173 H179 0.930 . S
H174 C154 0.931 . S
H175 C155 0.930 . S
H176 C163 0.931 . S
H177 C164 0.929 . S
H178 C172 0.929 . S
H179 C173 0.930 . S
Mn180 O185 2.095 . S
Mn180 O195 2.162 . S
Mn180 O196 2.297 . S
Mn180 O204 2.385 . S
Mn180 O205 2.209 . S
Mn180 O206 2.094 . S
Mn181 O186 2.121 . S
Mn181 N188 2.257 . S
Mn181 N197 2.282 . S
Mn181 O205 2.215 . S
Mn181 O207 2.117 . S
C182 O204 1.234 . S
C182 O205 1.283 . S
C183 O195 1.281 . S
C183 O196 1.236 . S
C184 O206 1.240 . S
C184 O207 1.264 . S
O185 Mn180 2.095 . S
O185 C194 1.250 . S
O186 Mn181 2.121 . S
O186 C194 1.258 . S
C187 N188 1.326 . S
C187 C191 1.460 . S
C187 H193 0.929 . S
N188 Mn181 2.257 . S
N188 C187 1.326 . S
N188 C192 1.362 . S
C189 C190 1.258 . S
C189 C192 1.431 . S
C189 C209 1.449 . S
C190 C189 1.258 . S
C190 C191 1.477 . S
C190 H210 0.931 . S
C191 C187 1.460 . S
C191 C190 1.477 . S
C191 H211 0.930 . S
C192 N188 1.362 . S
C192 C189 1.431 . S
C192 C202 1.476 . S
H193 C187 0.929 . S
C194 O185 1.250 . S
C194 O186 1.258 . S
O195 Mn180 2.162 . S
O195 C183 1.281 . S
O196 Mn180 2.297 . S
O196 C183 1.236 . S
N197 Mn181 2.282 . S
N197 C198 1.328 . S
N197 C202 1.318 . S
C198 N197 1.328 . S
C198 C199 1.457 . S
C198 H203 0.929 . S
C199 C198 1.457 . S
C199 C200 1.291 . S
C199 H212 0.931 . S
C200 C199 1.291 . S
C200 C201 1.373 . S
C200 H213 0.929 . S
C201 C200 1.373 . S
C201 C202 1.396 . S
C201 C208 1.403 . S
C202 C192 1.476 . S
C202 N197 1.318 . S
C202 C201 1.396 . S
H203 C198 0.929 . S
O204 Mn180 2.385 . S
O204 C182 1.234 . S
O205 Mn180 2.209 . S
O205 Mn181 2.215 . S
O205 C182 1.283 . S
O206 Mn180 2.094 . S
O206 C184 1.240 . S
O207 Mn181 2.117 . S
O207 C184 1.264 . S
C208 C201 1.403 . S
C208 C209 1.399 . S
C208 H214 0.929 . S
C209 C189 1.449 . S
C209 C208 1.399 . S
C209 H215 0.930 . S
H210 C190 0.931 . S
H211 C191 0.930 . S
H212 C199 0.931 . S
H213 C200 0.929 . S
H214 C208 0.929 . S
H215 C209 0.930 . S
H216 C234 0.951 . S
H217 C236 0.951 . S
H218 C238 0.950 . S
H219 C239 0.950 . S
H220 C241 0.950 . S
H221 C244 0.950 . S
H222 C245 0.950 . S
H223 C247 0.950 . S
H224 C248 0.950 . S
H225 C249 0.951 . S
H226 C251 0.951 . S
H227 C253 0.950 . S
H228 C254 0.950 . S
H229 C256 0.950 . S
H230 C259 0.950 . S
H231 C260 0.950 . S
H232 C262 0.950 . S
H233 C263 0.950 . S
C234 H216 0.951 . S
C234 C235 1.366 . S
C234 C236 1.388 . S
C235 C234 1.366 . S
C235 C239 1.385 . S
C236 H217 0.951 . S
C236 C234 1.388 . S
C236 C237 1.366 . S
C237 C236 1.366 . S
C237 C238 1.414 . S
C237 C240 1.499 . S
C238 H218 0.950 . S
C238 C237 1.414 . S
C238 C239 1.374 . S
C239 H219 0.950 . S
C239 C235 1.385 . S
C239 C238 1.374 . S
C240 C237 1.499 . S
C240 C241 1.373 . S
C240 C242 1.389 . S
C241 H220 0.950 . S
C241 C240 1.373 . S
C241 C257 1.377 . S
C242 C240 1.389 . S
C242 C243 1.524 . S
C242 C256 1.377 . S
C243 C242 1.524 . S
C243 C244 1.397 . S
C243 C248 1.363 . S
C244 H221 0.950 . S
C244 C243 1.397 . S
C244 C245 1.334 . S
C245 H222 0.950 . S
C245 C244 1.334 . S
C245 C246 1.287 . S
C246 C245 1.287 . S
C246 C247 1.524 . S
C246 H265 0.913 . S
C247 H223 0.950 . S
C247 C246 1.524 . S
C247 C248 1.415 . S
C248 H224 0.950 . S
C248 C243 1.363 . S
C248 C247 1.415 . S
C249 H225 0.951 . S
C249 C250 1.366 . S
C249 C251 1.388 . S
C250 C249 1.366 . S
C250 C254 1.385 . S
C251 H226 0.951 . S
C251 C249 1.388 . S
C251 C252 1.366 . S
C252 C251 1.366 . S
C252 C253 1.414 . S
C252 C255 1.499 . S
C253 H227 0.950 . S
C253 C252 1.414 . S
C253 C254 1.374 . S
C254 H228 0.950 . S
C254 C250 1.385 . S
C254 C253 1.374 . S
C255 C252 1.499 . S
C255 C256 1.373 . S
C255 C257 1.389 . S
C256 H229 0.950 . S
C256 C242 1.377 . S
C256 C255 1.373 . S
C257 C241 1.377 . S
C257 C255 1.389 . S
C257 C258 1.524 . S
C258 C257 1.524 . S
C258 C259 1.397 . S
C258 C263 1.363 . S
C259 H230 0.950 . S
C259 C258 1.397 . S
C259 C260 1.334 . S
C260 H231 0.950 . S
C260 C259 1.334 . S
C260 C261 1.287 . S
C261 C260 1.287 . S
C261 C262 1.524 . S
C261 H264 0.999 . S
C262 H232 0.950 . S
C262 C261 1.524 . S
C262 C263 1.415 . S
C263 H233 0.950 . S
C263 C258 1.363 . S
C263 C262 1.415 . S
H264 C261 0.999 . S
H265 C246 0.913 . S
H266 C284 0.951 . S
H267 C286 0.951 . S
H268 C288 0.950 . S
H269 C289 0.950 . S
H270 C291 0.950 . S
H271 C294 0.950 . S
H272 C295 0.950 . S
H273 C297 0.950 . S
H274 C298 0.950 . S
H275 C299 0.951 . S
H276 C301 0.951 . S
H277 C303 0.950 . S
H278 C304 0.950 . S
H279 C306 0.950 . S
H280 C309 0.950 . S
H281 C310 0.950 . S
H282 C312 0.950 . S
H283 C313 0.950 . S
C284 H266 0.951 . S
C284 C285 1.366 . S
C284 C286 1.388 . S
C285 C284 1.366 . S
C285 C289 1.385 . S
C286 H267 0.951 . S
C286 C284 1.388 . S
C286 C287 1.366 . S
C287 C286 1.366 . S
C287 C288 1.414 . S
C287 C290 1.499 . S
C288 H268 0.950 . S
C288 C287 1.414 . S
C288 C289 1.374 . S
C289 H269 0.950 . S
C289 C285 1.385 . S
C289 C288 1.374 . S
C290 C287 1.499 . S
C290 C291 1.373 . S
C290 C292 1.389 . S
C291 H270 0.950 . S
C291 C290 1.373 . S
C291 C307 1.377 . S
C292 C290 1.389 . S
C292 C293 1.524 . S
C292 C306 1.377 . S
C293 C292 1.524 . S
C293 C294 1.397 . S
C293 C298 1.363 . S
C294 H271 0.950 . S
C294 C293 1.397 . S
C294 C295 1.334 . S
C295 H272 0.950 . S
C295 C294 1.334 . S
C295 C296 1.287 . S
C296 C295 1.287 . S
C296 C297 1.524 . S
C296 H315 0.913 . S
C297 H273 0.950 . S
C297 C296 1.524 . S
C297 C298 1.415 . S
C298 H274 0.950 . S
C298 C293 1.363 . S
C298 C297 1.415 . S
C299 H275 0.951 . S
C299 C300 1.366 . S
C299 C301 1.388 . S
C300 C299 1.366 . S
C300 C304 1.385 . S
C301 H276 0.951 . S
C301 C299 1.388 . S
C301 C302 1.366 . S
C302 C301 1.366 . S
C302 C303 1.414 . S
C302 C305 1.499 . S
C303 H277 0.950 . S
C303 C302 1.414 . S
C303 C304 1.374 . S
C304 H278 0.950 . S
C304 C300 1.385 . S
C304 C303 1.374 . S
C305 C302 1.499 . S
C305 C306 1.373 . S
C305 C307 1.389 . S
C306 H279 0.950 . S
C306 C292 1.377 . S
C306 C305 1.373 . S
C307 C291 1.377 . S
C307 C305 1.389 . S
C307 C308 1.524 . S
C308 C307 1.524 . S
C308 C309 1.397 . S
C308 C313 1.363 . S
C309 H280 0.950 . S
C309 C308 1.397 . S
C309 C310 1.334 . S
C310 H281 0.950 . S
C310 C309 1.334 . S
C310 C311 1.287 . S
C311 C310 1.287 . S
C311 C312 1.524 . S
C311 H314 0.999 . S
C312 H282 0.950 . S
C312 C311 1.524 . S
C312 C313 1.415 . S
C313 H283 0.950 . S
C313 C308 1.363 . S
C313 C312 1.415 . S
H314 C311 0.999 . S
H315 C296 0.913 . S
H316 C334 0.951 . S
H317 C336 0.951 . S
H318 C338 0.950 . S
H319 C339 0.950 . S
H320 C341 0.950 . S
H321 C344 0.950 . S
H322 C345 0.950 . S
H323 C347 0.950 . S
H324 C348 0.950 . S
H325 C349 0.951 . S
H326 C351 0.951 . S
H327 C353 0.950 . S
H328 C354 0.950 . S
H329 C356 0.950 . S
H330 C359 0.950 . S
H331 C360 0.950 . S
H332 C362 0.950 . S
H333 C363 0.950 . S
C334 H316 0.951 . S
C334 C335 1.366 . S
C334 C336 1.388 . S
C335 C334 1.366 . S
C335 C339 1.385 . S
C336 H317 0.951 . S
C336 C334 1.388 . S
C336 C337 1.366 . S
C337 C336 1.366 . S
C337 C338 1.414 . S
C337 C340 1.499 . S
C338 H318 0.950 . S
C338 C337 1.414 . S
C338 C339 1.374 . S
C339 H319 0.950 . S
C339 C335 1.385 . S
C339 C338 1.374 . S
C340 C337 1.499 . S
C340 C341 1.373 . S
C340 C342 1.389 . S
C341 H320 0.950 . S
C341 C340 1.373 . S
C341 C357 1.377 . S
C342 C340 1.389 . S
C342 C343 1.524 . S
C342 C356 1.377 . S
C343 C342 1.524 . S
C343 C344 1.397 . S
C343 C348 1.363 . S
C344 H321 0.950 . S
C344 C343 1.397 . S
C344 C345 1.334 . S
C345 H322 0.950 . S
C345 C344 1.334 . S
C345 C346 1.287 . S
C346 C345 1.287 . S
C346 C347 1.524 . S
C346 H365 0.913 . S
C347 H323 0.950 . S
C347 C346 1.524 . S
C347 C348 1.415 . S
C348 H324 0.950 . S
C348 C343 1.363 . S
C348 C347 1.415 . S
C349 H325 0.951 . S
C349 C350 1.366 . S
C349 C351 1.388 . S
C350 C349 1.366 . S
C350 C354 1.385 . S
C351 H326 0.951 . S
C351 C349 1.388 . S
C351 C352 1.366 . S
C352 C351 1.366 . S
C352 C353 1.414 . S
C352 C355 1.499 . S
C353 H327 0.950 . S
C353 C352 1.414 . S
C353 C354 1.374 . S
C354 H328 0.950 . S
C354 C350 1.385 . S
C354 C353 1.374 . S
C355 C352 1.499 . S
C355 C356 1.373 . S
C355 C357 1.389 . S
C356 H329 0.950 . S
C356 C342 1.377 . S
C356 C355 1.373 . S
C357 C341 1.377 . S
C357 C355 1.389 . S
C357 C358 1.524 . S
C358 C357 1.524 . S
C358 C359 1.397 . S
C358 C363 1.363 . S
C359 H330 0.950 . S
C359 C358 1.397 . S
C359 C360 1.334 . S
C360 H331 0.950 . S
C360 C359 1.334 . S
C360 C361 1.287 . S
C361 C360 1.287 . S
C361 C362 1.524 . S
C361 H364 0.999 . S
C362 H332 0.950 . S
C362 C361 1.524 . S
C362 C363 1.415 . S
C363 H333 0.950 . S
C363 C358 1.363 . S
C363 C362 1.415 . S
H364 C361 0.999 . S
H365 C346 0.913 . S
H366 C384 0.951 . S
H367 C386 0.951 . S
H368 C388 0.950 . S
H369 C389 0.950 . S
H370 C391 0.950 . S
H371 C394 0.950 . S
H372 C395 0.950 . S
H373 C397 0.950 . S
H374 C398 0.950 . S
H375 C399 0.951 . S
H376 C401 0.951 . S
H377 C403 0.950 . S
H378 C404 0.950 . S
H379 C406 0.950 . S
H380 C409 0.950 . S
H381 C410 0.950 . S
H382 C412 0.950 . S
H383 C413 0.950 . S
C384 H366 0.951 . S
C384 C385 1.366 . S
C384 C386 1.388 . S
C385 C384 1.366 . S
C385 C389 1.385 . S
C386 H367 0.951 . S
C386 C384 1.388 . S
C386 C387 1.366 . S
C387 C386 1.366 . S
C387 C388 1.414 . S
C387 C390 1.499 . S
C388 H368 0.950 . S
C388 C387 1.414 . S
C388 C389 1.374 . S
C389 H369 0.950 . S
C389 C385 1.385 . S
C389 C388 1.374 . S
C390 C387 1.499 . S
C390 C391 1.373 . S
C390 C392 1.389 . S
C391 H370 0.950 . S
C391 C390 1.373 . S
C391 C407 1.377 . S
C392 C390 1.389 . S
C392 C393 1.524 . S
C392 C406 1.377 . S
C393 C392 1.524 . S
C393 C394 1.397 . S
C393 C398 1.363 . S
C394 H371 0.950 . S
C394 C393 1.397 . S
C394 C395 1.334 . S
C395 H372 0.950 . S
C395 C394 1.334 . S
C395 C396 1.287 . S
C396 C395 1.287 . S
C396 C397 1.524 . S
C396 H415 0.913 . S
C397 H373 0.950 . S
C397 C396 1.524 . S
C397 C398 1.415 . S
C398 H374 0.950 . S
C398 C393 1.363 . S
C398 C397 1.415 . S
C399 H375 0.951 . S
C399 C400 1.366 . S
C399 C401 1.388 . S
C400 C399 1.366 . S
C400 C404 1.385 . S
C401 H376 0.951 . S
C401 C399 1.388 . S
C401 C402 1.366 . S
C402 C401 1.366 . S
C402 C403 1.414 . S
C402 C405 1.499 . S
C403 H377 0.950 . S
C403 C402 1.414 . S
C403 C404 1.374 . S
C404 H378 0.950 . S
C404 C400 1.385 . S
C404 C403 1.374 . S
C405 C402 1.499 . S
C405 C406 1.373 . S
C405 C407 1.389 . S
C406 H379 0.950 . S
C406 C392 1.377 . S
C406 C405 1.373 . S
C407 C391 1.377 . S
C407 C405 1.389 . S
C407 C408 1.524 . S
C408 C407 1.524 . S
C408 C409 1.397 . S
C408 C413 1.363 . S
C409 H380 0.950 . S
C409 C408 1.397 . S
C409 C410 1.334 . S
C410 H381 0.950 . S
C410 C409 1.334 . S
C410 C411 1.287 . S
C411 C410 1.287 . S
C411 C412 1.524 . S
C411 H414 0.999 . S
C412 H382 0.950 . S
C412 C411 1.524 . S
C412 C413 1.415 . S
C413 H383 0.950 . S
C413 C408 1.363 . S
C413 C412 1.415 . S
H414 C411 0.999 . S
H415 C396 0.913 . S
H416 C434 0.951 . S
H417 C436 0.951 . S
H418 C438 0.950 . S
H419 C439 0.950 . S
H420 C441 0.950 . S
H421 C444 0.950 . S
H422 C445 0.950 . S
H423 C447 0.950 . S
H424 C448 0.950 . S
H425 C449 0.951 . S
H426 C451 0.951 . S
H427 C453 0.950 . S
H428 C454 0.950 . S
H429 C456 0.950 . S
H430 C459 0.950 . S
H431 C460 0.950 . S
H432 C462 0.950 . S
H433 C463 0.950 . S
C434 H416 0.951 . S
C434 C435 1.366 . S
C434 C436 1.388 . S
C435 C434 1.366 . S
C435 C439 1.385 . S
C436 H417 0.951 . S
C436 C434 1.388 . S
C436 C437 1.366 . S
C437 C436 1.366 . S
C437 C438 1.414 . S
C437 C440 1.499 . S
C438 H418 0.950 . S
C438 C437 1.414 . S
C438 C439 1.374 . S
C439 H419 0.950 . S
C439 C435 1.385 . S
C439 C438 1.374 . S
C440 C437 1.499 . S
C440 C441 1.373 . S
C440 C442 1.389 . S
C441 H420 0.950 . S
C441 C440 1.373 . S
C441 C457 1.377 . S
C442 C440 1.389 . S
C442 C443 1.524 . S
C442 C456 1.377 . S
C443 C442 1.524 . S
C443 C444 1.397 . S
C443 C448 1.363 . S
C444 H421 0.950 . S
C444 C443 1.397 . S
C444 C445 1.334 . S
C445 H422 0.950 . S
C445 C444 1.334 . S
C445 C446 1.287 . S
C446 C445 1.287 . S
C446 C447 1.524 . S
C446 H465 0.913 . S
C447 H423 0.950 . S
C447 C446 1.524 . S
C447 C448 1.415 . S
C448 H424 0.950 . S
C448 C443 1.363 . S
C448 C447 1.415 . S
C449 H425 0.951 . S
C449 C450 1.366 . S
C449 C451 1.388 . S
C450 C449 1.366 . S
C450 C454 1.385 . S
C451 H426 0.951 . S
C451 C449 1.388 . S
C451 C452 1.366 . S
C452 C451 1.366 . S
C452 C453 1.414 . S
C452 C455 1.499 . S
C453 H427 0.950 . S
C453 C452 1.414 . S
C453 C454 1.374 . S
C454 H428 0.950 . S
C454 C450 1.385 . S
C454 C453 1.374 . S
C455 C452 1.499 . S
C455 C456 1.373 . S
C455 C457 1.389 . S
C456 H429 0.950 . S
C456 C442 1.377 . S
C456 C455 1.373 . S
C457 C441 1.377 . S
C457 C455 1.389 . S
C457 C458 1.524 . S
C458 C457 1.524 . S
C458 C459 1.397 . S
C458 C463 1.363 . S
C459 H430 0.950 . S
C459 C458 1.397 . S
C459 C460 1.334 . S
C460 H431 0.950 . S
C460 C459 1.334 . S
C460 C461 1.287 . S
C461 C460 1.287 . S
C461 C462 1.524 . S
C461 H464 0.999 . S
C462 H432 0.950 . S
C462 C461 1.524 . S
C462 C463 1.415 . S
C463 H433 0.950 . S
C463 C458 1.363 . S
C463 C462 1.415 . S
H464 C461 0.999 . S
H465 C446 0.913 . S
H466 C484 0.951 . S
H467 C486 0.951 . S
H468 C488 0.950 . S
H469 C489 0.950 . S
H470 C491 0.950 . S
H471 C494 0.950 . S
H472 C495 0.950 . S
H473 C497 0.950 . S
H474 C498 0.950 . S
H475 C499 0.951 . S
H476 C501 0.951 . S
H477 C503 0.950 . S
H478 C504 0.950 . S
H479 C506 0.950 . S
H480 C509 0.950 . S
H481 C510 0.950 . S
H482 C512 0.950 . S
H483 C513 0.950 . S
C484 H466 0.951 . S
C484 C485 1.366 . S
C484 C486 1.388 . S
C485 C484 1.366 . S
C485 C489 1.385 . S
C486 H467 0.951 . S
C486 C484 1.388 . S
C486 C487 1.366 . S
C487 C486 1.366 . S
C487 C488 1.414 . S
C487 C490 1.499 . S
C488 H468 0.950 . S
C488 C487 1.414 . S
C488 C489 1.374 . S
C489 H469 0.950 . S
C489 C485 1.385 . S
C489 C488 1.374 . S
C490 C487 1.499 . S
C490 C491 1.373 . S
C490 C492 1.389 . S
C491 H470 0.950 . S
C491 C490 1.373 . S
C491 C507 1.377 . S
C492 C490 1.389 . S
C492 C493 1.524 . S
C492 C506 1.377 . S
C493 C492 1.524 . S
C493 C494 1.397 . S
C493 C498 1.363 . S
C494 H471 0.950 . S
C494 C493 1.397 . S
C494 C495 1.334 . S
C495 H472 0.950 . S
C495 C494 1.334 . S
C495 C496 1.287 . S
C496 C495 1.287 . S
C496 C497 1.524 . S
C496 H515 0.913 . S
C497 H473 0.950 . S
C497 C496 1.524 . S
C497 C498 1.415 . S
C498 H474 0.950 . S
C498 C493 1.363 . S
C498 C497 1.415 . S
C499 H475 0.951 . S
C499 C500 1.366 . S
C499 C501 1.388 . S
C500 C499 1.366 . S
C500 C504 1.385 . S
C501 H476 0.951 . S
C501 C499 1.388 . S
C501 C502 1.366 . S
C502 C501 1.366 . S
C502 C503 1.414 . S
C502 C505 1.499 . S
C503 H477 0.950 . S
C503 C502 1.414 . S
C503 C504 1.374 . S
C504 H478 0.950 . S
C504 C500 1.385 . S
C504 C503 1.374 . S
C505 C502 1.499 . S
C505 C506 1.373 . S
C505 C507 1.389 . S
C506 H479 0.950 . S
C506 C492 1.377 . S
C506 C505 1.373 . S
C507 C491 1.377 . S
C507 C505 1.389 . S
C507 C508 1.524 . S
C508 C507 1.524 . S
C508 C509 1.397 . S
C508 C513 1.363 . S
C509 H480 0.950 . S
C509 C508 1.397 . S
C509 C510 1.334 . S
C510 H481 0.950 . S
C510 C509 1.334 . S
C510 C511 1.287 . S
C511 C510 1.287 . S
C511 C512 1.524 . S
C511 H514 0.999 . S
C512 H482 0.950 . S
C512 C511 1.524 . S
C512 C513 1.415 . S
C513 H483 0.950 . S
C513 C508 1.363 . S
C513 C512 1.415 . S
H514 C511 0.999 . S
H515 C496 0.913 . S
H516 C534 0.951 . S
H517 C536 0.951 . S
H518 C538 0.950 . S
H519 C539 0.950 . S
H520 C541 0.950 . S
H521 C544 0.950 . S
H522 C545 0.950 . S
H523 C547 0.950 . S
H524 C548 0.950 . S
H525 C549 0.951 . S
H526 C551 0.951 . S
H527 C553 0.950 . S
H528 C554 0.950 . S
H529 C556 0.950 . S
H530 C559 0.950 . S
H531 C560 0.950 . S
H532 C562 0.950 . S
H533 C563 0.950 . S
C534 H516 0.951 . S
C534 C535 1.366 . S
C534 C536 1.388 . S
C535 C534 1.366 . S
C535 C539 1.385 . S
C536 H517 0.951 . S
C536 C534 1.388 . S
C536 C537 1.366 . S
C537 C536 1.366 . S
C537 C538 1.414 . S
C537 C540 1.499 . S
C538 H518 0.950 . S
C538 C537 1.414 . S
C538 C539 1.374 . S
C539 H519 0.950 . S
C539 C535 1.385 . S
C539 C538 1.374 . S
C540 C537 1.499 . S
C540 C541 1.373 1_556 S
C540 C542 1.389 1_565 S
C541 H520 0.950 . S
C541 C540 1.373 1_554 S
C541 C557 1.377 . S
C542 C540 1.389 1_545 S
C542 C543 1.524 . S
C542 C556 1.377 1_556 S
C543 C542 1.524 . S
C543 C544 1.397 . S
C543 C548 1.363 . S
C544 H521 0.950 . S
C544 C543 1.397 . S
C544 C545 1.334 . S
C545 H522 0.950 . S
C545 C544 1.334 . S
C545 C546 1.287 . S
C546 C545 1.287 . S
C546 C547 1.524 . S
C546 H565 0.913 . S
C547 H523 0.950 . S
C547 C546 1.524 . S
C547 C548 1.415 . S
C548 H524 0.950 . S
C548 C543 1.363 . S
C548 C547 1.415 . S
C549 H525 0.951 . S
C549 C550 1.366 . S
C549 C551 1.388 . S
C550 C549 1.366 . S
C550 C554 1.385 . S
C551 H526 0.951 . S
C551 C549 1.388 . S
C551 C552 1.366 . S
C552 C551 1.366 . S
C552 C553 1.414 . S
C552 C555 1.499 . S
C553 H527 0.950 . S
C553 C552 1.414 . S
C553 C554 1.374 . S
C554 H528 0.950 . S
C554 C550 1.385 . S
C554 C553 1.374 . S
C555 C552 1.499 . S
C555 C556 1.373 . S
C555 C557 1.389 1_545 S
C556 H529 0.950 . S
C556 C542 1.377 1_554 S
C556 C555 1.373 . S
C557 C541 1.377 . S
C557 C555 1.389 1_565 S
C557 C558 1.524 . S
C558 C557 1.524 . S
C558 C559 1.397 . S
C558 C563 1.363 . S
C559 H530 0.950 . S
C559 C558 1.397 . S
C559 C560 1.334 . S
C560 H531 0.950 . S
C560 C559 1.334 . S
C560 C561 1.287 . S
C561 C560 1.287 . S
C561 C562 1.524 . S
C561 H564 0.999 . S
C562 H532 0.950 . S
C562 C561 1.524 . S
C562 C563 1.415 . S
C563 H533 0.950 . S
C563 C558 1.363 . S
C563 C562 1.415 . S
H564 C561 0.999 . S
H565 C546 0.913 . S
H566 C584 0.951 . S
H567 C586 0.951 . S
H568 C588 0.950 . S
H569 C589 0.950 . S
H570 C591 0.950 . S
H571 C594 0.950 . S
H572 C595 0.950 . S
H573 C597 0.950 . S
H574 C598 0.950 . S
H575 C599 0.951 . S
H576 C601 0.951 . S
H577 C603 0.950 . S
H578 C604 0.950 . S
H579 C606 0.950 . S
H580 C609 0.950 . S
H581 C610 0.950 . S
H582 C612 0.950 . S
H583 C613 0.950 . S
C584 H566 0.951 . S
C584 C585 1.366 . S
C584 C586 1.388 . S
C585 C584 1.366 . S
C585 C589 1.385 . S
C586 H567 0.951 . S
C586 C584 1.388 . S
C586 C587 1.366 . S
C587 C586 1.366 . S
C587 C588 1.414 . S
C587 C590 1.499 . S
C588 H568 0.950 . S
C588 C587 1.414 . S
C588 C589 1.374 . S
C589 H569 0.950 . S
C589 C585 1.385 . S
C589 C588 1.374 . S
C590 C587 1.499 . S
C590 C591 1.373 . S
C590 C592 1.389 . S
C591 H570 0.950 . S
C591 C590 1.373 . S
C591 C607 1.377 . S
C592 C590 1.389 . S
C592 C593 1.524 . S
C592 C606 1.377 . S
C593 C592 1.524 . S
C593 C594 1.397 . S
C593 C598 1.363 . S
C594 H571 0.950 . S
C594 C593 1.397 . S
C594 C595 1.334 . S
C595 H572 0.950 . S
C595 C594 1.334 . S
C595 C596 1.287 . S
C596 C595 1.287 . S
C596 C597 1.524 . S
C596 H615 0.913 . S
C597 H573 0.950 . S
C597 C596 1.524 . S
C597 C598 1.415 . S
C598 H574 0.950 . S
C598 C593 1.363 . S
C598 C597 1.415 . S
C599 H575 0.951 . S
C599 C600 1.366 . S
C599 C601 1.388 . S
C600 C599 1.366 . S
C600 C604 1.385 . S
C601 H576 0.951 . S
C601 C599 1.388 . S
C601 C602 1.366 . S
C602 C601 1.366 . S
C602 C603 1.414 . S
C602 C605 1.499 . S
C603 H577 0.950 . S
C603 C602 1.414 . S
C603 C604 1.374 . S
C604 H578 0.950 . S
C604 C600 1.385 . S
C604 C603 1.374 . S
C605 C602 1.499 . S
C605 C606 1.373 . S
C605 C607 1.389 . S
C606 H579 0.950 . S
C606 C592 1.377 . S
C606 C605 1.373 . S
C607 C591 1.377 . S
C607 C605 1.389 . S
C607 C608 1.524 . S
C608 C607 1.524 . S
C608 C609 1.397 . S
C608 C613 1.363 . S
C609 H580 0.950 . S
C609 C608 1.397 . S
C609 C610 1.334 . S
C610 H581 0.950 . S
C610 C609 1.334 . S
C610 C611 1.287 . S
C611 C610 1.287 . S
C611 C612 1.524 . S
C611 H614 0.999 . S
C612 H582 0.950 . S
C612 C611 1.524 . S
C612 C613 1.415 . S
C613 H583 0.950 . S
C613 C608 1.363 . S
C613 C612 1.415 . S
H614 C611 0.999 . S
H615 C596 0.913 . S
H616 C634 0.951 . S
H617 C636 0.951 . S
H618 C638 0.950 . S
H619 C639 0.950 . S
H620 C641 0.950 . S
H621 C644 0.950 . S
H622 C645 0.950 . S
H623 C647 0.950 . S
H624 C648 0.950 . S
H625 C649 0.951 . S
H626 C651 0.951 . S
H627 C653 0.950 . S
H628 C654 0.950 . S
H629 C656 0.950 . S
H630 C659 0.950 . S
H631 C660 0.950 . S
H632 C662 0.950 . S
H633 C663 0.950 . S
C634 H616 0.951 . S
C634 C635 1.366 . S
C634 C636 1.388 . S
C635 C634 1.366 . S
C635 C639 1.385 . S
C636 H617 0.951 . S
C636 C634 1.388 . S
C636 C637 1.366 . S
C637 C636 1.366 . S
C637 C638 1.414 . S
C637 C640 1.499 . S
C638 H618 0.950 . S
C638 C637 1.414 . S
C638 C639 1.374 . S
C639 H619 0.950 . S
C639 C635 1.385 . S
C639 C638 1.374 . S
C640 C637 1.499 . S
C640 C641 1.373 1_455 S
C640 C642 1.389 . S
C641 H620 0.950 . S
C641 C640 1.373 1_655 S
C641 C657 1.377 1_556 S
C642 C640 1.389 . S
C642 C643 1.524 . S
C642 C656 1.377 1_556 S
C643 C642 1.524 . S
C643 C644 1.397 . S
C643 C648 1.363 1_556 S
C644 H621 0.950 . S
C644 C643 1.397 . S
C644 C645 1.334 . S
C645 H622 0.950 . S
C645 C644 1.334 . S
C645 C646 1.287 . S
C646 C645 1.287 . S
C646 C647 1.524 1_556 S
C646 H665 0.913 . S
C647 H623 0.950 . S
C647 C646 1.524 1_554 S
C647 C648 1.415 . S
C648 H624 0.950 . S
C648 C643 1.363 1_554 S
C648 C647 1.415 . S
C649 H625 0.951 . S
C649 C650 1.366 . S
C649 C651 1.388 . S
C650 C649 1.366 . S
C650 C654 1.385 . S
C651 H626 0.951 . S
C651 C649 1.388 . S
C651 C652 1.366 . S
C652 C651 1.366 . S
C652 C653 1.414 . S
C652 C655 1.499 . S
C653 H627 0.950 . S
C653 C652 1.414 . S
C653 C654 1.374 . S
C654 H628 0.950 . S
C654 C650 1.385 . S
C654 C653 1.374 . S
C655 C652 1.499 . S
C655 C656 1.373 1_655 S
C655 C657 1.389 . S
C656 H629 0.950 . S
C656 C642 1.377 1_554 S
C656 C655 1.373 1_455 S
C657 C641 1.377 1_554 S
C657 C655 1.389 . S
C657 C658 1.524 . S
C658 C657 1.524 . S
C658 C659 1.397 . S
C658 C663 1.363 1_554 S
C659 H630 0.950 . S
C659 C658 1.397 . S
C659 C660 1.334 . S
C660 H631 0.950 . S
C660 C659 1.334 . S
C660 C661 1.287 . S
C661 C660 1.287 . S
C661 C662 1.524 1_554 S
C661 H664 0.999 . S
C662 H632 0.950 . S
C662 C661 1.524 1_556 S
C662 C663 1.415 . S
C663 H633 0.950 . S
C663 C658 1.363 1_556 S
C663 C662 1.415 . S
H664 C661 0.999 . S
H665 C646 0.913 . S
H666 C684 0.951 . S
H667 C686 0.951 . S
H668 C688 0.950 . S
H669 C689 0.950 . S
H670 C691 0.950 . S
H671 C694 0.950 . S
H672 C695 0.950 . S
H673 C697 0.950 . S
H674 C698 0.950 . S
H675 C699 0.951 . S
H676 C701 0.951 . S
H677 C703 0.950 . S
H678 C704 0.950 . S
H679 C706 0.950 . S
H680 C709 0.950 1_545 S
H681 C710 0.950 . S
H682 C712 0.950 . S
H683 C713 0.950 . S
C684 H666 0.951 . S
C684 C685 1.366 . S
C684 C686 1.388 . S
C685 C684 1.366 . S
C685 C689 1.385 . S
C686 H667 0.951 . S
C686 C684 1.388 . S
C686 C687 1.366 . S
C687 C686 1.366 . S
C687 C688 1.414 . S
C687 C690 1.499 . S
C688 H668 0.950 . S
C688 C687 1.414 . S
C688 C689 1.374 . S
C689 H669 0.950 . S
C689 C685 1.385 . S
C689 C688 1.374 . S
C690 C687 1.499 . S
C690 C691 1.373 . S
C690 C692 1.389 . S
C691 H670 0.950 . S
C691 C690 1.373 . S
C691 C707 1.377 1_545 S
C692 C690 1.389 . S
C692 C693 1.524 . S
C692 C706 1.377 1_545 S
C693 C692 1.524 . S
C693 C694 1.397 . S
C693 C698 1.363 . S
C694 H671 0.950 . S
C694 C693 1.397 . S
C694 C695 1.334 . S
C695 H672 0.950 . S
C695 C694 1.334 . S
C695 C696 1.287 . S
C696 C695 1.287 . S
C696 C697 1.524 . S
C696 H715 0.913 . S
C697 H673 0.950 . S
C697 C696 1.524 . S
C697 C698 1.415 . S
C698 H674 0.950 . S
C698 C693 1.363 . S
C698 C697 1.415 . S
C699 H675 0.951 . S
C699 C700 1.366 . S
C699 C701 1.388 . S
C700 C699 1.366 . S
C700 C704 1.385 . S
C701 H676 0.951 . S
C701 C699 1.388 . S
C701 C702 1.366 . S
C702 C701 1.366 . S
C702 C703 1.414 . S
C702 C705 1.499 . S
C703 H677 0.950 . S
C703 C702 1.414 . S
C703 C704 1.374 . S
C704 H678 0.950 . S
C704 C700 1.385 . S
C704 C703 1.374 . S
C705 C702 1.499 . S
C705 C706 1.373 . S
C705 C707 1.389 . S
C706 H679 0.950 . S
C706 C692 1.377 1_565 S
C706 C705 1.373 . S
C707 C691 1.377 1_565 S
C707 C705 1.389 . S
C707 C708 1.524 . S
C708 C707 1.524 . S
C708 C709 1.397 . S
C708 C713 1.363 . S
C709 H680 0.950 1_565 S
C709 C708 1.397 . S
C709 C710 1.334 . S
C710 H681 0.950 . S
C710 C709 1.334 . S
C710 C711 1.287 . S
C711 C710 1.287 . S
C711 C712 1.524 . S
C711 H714 0.999 . S
C712 H682 0.950 . S
C712 C711 1.524 . S
C712 C713 1.415 . S
C713 H683 0.950 . S
C713 C708 1.363 . S
C713 C712 1.415 . S
H714 C711 0.999 . S
H715 C696 0.913 . S
H716 C734 0.951 . S
H717 C736 0.951 . S
H718 C738 0.950 . S
H719 C739 0.950 . S
H720 C741 0.950 . S
H721 C744 0.950 . S
H722 C745 0.950 . S
H723 C747 0.950 . S
H724 C748 0.950 . S
H725 C749 0.951 . S
H726 C751 0.951 . S
H727 C753 0.950 . S
H728 C754 0.950 . S
H729 C756 0.950 . S
H730 C759 0.950 . S
H731 C760 0.950 . S
H732 C762 0.950 . S
H733 C763 0.950 1_556 S
C734 H716 0.951 . S
C734 C735 1.366 . S
C734 C736 1.388 . S
C735 C734 1.366 . S
C735 C739 1.385 . S
C736 H717 0.951 . S
C736 C734 1.388 . S
C736 C737 1.366 . S
C737 C736 1.366 . S
C737 C738 1.414 . S
C737 C740 1.499 . S
C738 H718 0.950 . S
C738 C737 1.414 . S
C738 C739 1.374 . S
C739 H719 0.950 . S
C739 C735 1.385 . S
C739 C738 1.374 . S
C740 C737 1.499 . S
C740 C741 1.373 . S
C740 C742 1.389 . S
C741 H720 0.950 . S
C741 C740 1.373 . S
C741 C757 1.377 1_556 S
C742 C740 1.389 . S
C742 C743 1.524 . S
C742 C756 1.377 1_556 S
C743 C742 1.524 . S
C743 C744 1.397 . S
C743 C748 1.363 . S
C744 H721 0.950 . S
C744 C743 1.397 . S
C744 C745 1.334 . S
C745 H722 0.950 . S
C745 C744 1.334 . S
C745 C746 1.287 . S
C746 C745 1.287 . S
C746 C747 1.524 . S
C746 H765 0.913 . S
C747 H723 0.950 . S
C747 C746 1.524 . S
C747 C748 1.415 . S
C748 H724 0.950 . S
C748 C743 1.363 . S
C748 C747 1.415 . S
C749 H725 0.951 . S
C749 C750 1.366 . S
C749 C751 1.388 . S
C750 C749 1.366 . S
C750 C754 1.385 . S
C751 H726 0.951 . S
C751 C749 1.388 . S
C751 C752 1.366 . S
C752 C751 1.366 . S
C752 C753 1.414 . S
C752 C755 1.499 . S
C753 H727 0.950 . S
C753 C752 1.414 . S
C753 C754 1.374 . S
C754 H728 0.950 . S
C754 C750 1.385 . S
C754 C753 1.374 . S
C755 C752 1.499 . S
C755 C756 1.373 . S
C755 C757 1.389 . S
C756 H729 0.950 . S
C756 C742 1.377 1_554 S
C756 C755 1.373 . S
C757 C741 1.377 1_554 S
C757 C755 1.389 . S
C757 C758 1.524 . S
C758 C757 1.524 . S
C758 C759 1.397 . S
C758 C763 1.363 . S
C759 H730 0.950 . S
C759 C758 1.397 . S
C759 C760 1.334 . S
C760 H731 0.950 . S
C760 C759 1.334 . S
C760 C761 1.287 . S
C761 C760 1.287 . S
C761 C762 1.524 . S
C761 H764 0.999 . S
C762 H732 0.950 . S
C762 C761 1.524 . S
C762 C763 1.415 . S
C763 H733 0.950 1_554 S
C763 C758 1.363 . S
C763 C762 1.415 . S
H764 C761 0.999 . S
H765 C746 0.913 . S
H766 C784 0.951 . S
H767 C786 0.951 . S
H768 C788 0.950 . S
H769 C789 0.950 . S
H770 C791 0.950 . S
H771 C794 0.950 . S
H772 C795 0.950 . S
H773 C797 0.950 . S
H774 C798 0.950 . S
H775 C799 0.951 . S
H776 C801 0.951 . S
H777 C803 0.950 . S
H778 C804 0.950 . S
H779 C806 0.950 . S
H780 C809 0.950 . S
H781 C810 0.950 . S
H782 C812 0.950 . S
H783 C813 0.950 . S
C784 H766 0.951 . S
C784 C785 1.366 . S
C784 C786 1.388 . S
C785 C784 1.366 . S
C785 C789 1.385 . S
C786 H767 0.951 . S
C786 C784 1.388 . S
C786 C787 1.366 . S
C787 C786 1.366 . S
C787 C788 1.414 . S
C787 C790 1.499 . S
C788 H768 0.950 . S
C788 C787 1.414 . S
C788 C789 1.374 . S
C789 H769 0.950 . S
C789 C785 1.385 . S
C789 C788 1.374 . S
C790 C787 1.499 . S
C790 C791 1.373 1_455 S
C790 C792 1.389 . S
C791 H770 0.950 . S
C791 C790 1.373 1_655 S
C791 C807 1.377 . S
C792 C790 1.389 . S
C792 C793 1.524 . S
C792 C806 1.377 . S
C793 C792 1.524 . S
C793 C794 1.397 . S
C793 C798 1.363 . S
C794 H771 0.950 . S
C794 C793 1.397 . S
C794 C795 1.334 . S
C795 H772 0.950 . S
C795 C794 1.334 . S
C795 C796 1.287 . S
C796 C795 1.287 . S
C796 C797 1.524 . S
C796 H815 0.913 . S
C797 H773 0.950 . S
C797 C796 1.524 . S
C797 C798 1.415 . S
C798 H774 0.950 . S
C798 C793 1.363 . S
C798 C797 1.415 . S
C799 H775 0.951 . S
C799 C800 1.366 . S
C799 C801 1.388 . S
C800 C799 1.366 . S
C800 C804 1.385 . S
C801 H776 0.951 . S
C801 C799 1.388 . S
C801 C802 1.366 . S
C802 C801 1.366 . S
C802 C803 1.414 . S
C802 C805 1.499 . S
C803 H777 0.950 . S
C803 C802 1.414 . S
C803 C804 1.374 . S
C804 H778 0.950 . S
C804 C800 1.385 . S
C804 C803 1.374 . S
C805 C802 1.499 . S
C805 C806 1.373 1_655 S
C805 C807 1.389 . S
C806 H779 0.950 . S
C806 C792 1.377 . S
C806 C805 1.373 1_455 S
C807 C791 1.377 . S
C807 C805 1.389 . S
C807 C808 1.524 . S
C808 C807 1.524 . S
C808 C809 1.397 . S
C808 C813 1.363 . S
C809 H780 0.950 . S
C809 C808 1.397 . S
C809 C810 1.334 . S
C810 H781 0.950 . S
C810 C809 1.334 . S
C810 C811 1.287 . S
C811 C810 1.287 . S
C811 C812 1.524 . S
C811 H814 0.999 . S
C812 H782 0.950 . S
C812 C811 1.524 . S
C812 C813 1.415 . S
C813 H783 0.950 . S
C813 C808 1.363 . S
C813 C812 1.415 . S
H814 C811 0.999 . S
H815 C796 0.913 . S
C235 C3 0.825 . S
C250 C147 0.822 . S
C285 C38 0.855 . S
C300 C182 0.853 . S
C335 C2 0.855 . S
C350 C74 0.853 . S
C385 C111 0.822 . S
C400 C39 0.826 . S
C435 C146 0.863 . S
C450 C75 0.863 . S
C485 C110 0.863 . S
C500 C183 0.862 . S
C535 C112 1.349 . S
C550 C14 1.295 . S
C585 C158 1.298 . S
C600 C40 1.363 . S
C635 C184 1.367 . S
C650 C76 1.367 . S
C685 C4 1.363 . S
C700 C122 1.298 . S
C735 C50 1.294 . S
C750 C148 1.348 . S
C785 C194 1.290 . S
C800 C86 1.290 . S
