# Generated by pormake.
# Topology wjt, (5)-cn, num edge types: 1
# Building blocks:
#     Node 0, Type 0, BuildingBlock: XOMCOT_clean_sbu_0, # of connection points: 5
#     Node 1, Type 0, BuildingBlock: XOMCOT_clean_sbu_0, # of connection points: 5
#     Node 2, Type 0, BuildingBlock: XOMCOT_clean_sbu_0, # of connection points: 5
#     Node 3, Type 0, BuildingBlock: XOMCOT_clean_sbu_0, # of connection points: 5
#     Node 4, Type 0, BuildingBlock: XOMCOT_clean_sbu_0, # of connection points: 5
#     Node 5, Type 0, BuildingBlock: XOMCOT_clean_sbu_0, # of connection points: 5
#     Node 6, Type 0, BuildingBlock: XOMCOT_clean_sbu_0, # of connection points: 5
#     Node 7, Type 0, BuildingBlock: XOMCOT_clean_sbu_0, # of connection points: 5
#     Node 8, Type 0, BuildingBlock: XOMCOT_clean_sbu_0, # of connection points: 5
#     Node 9, Type 0, BuildingBlock: XOMCOT_clean_sbu_0, # of connection points: 5
#     Node 10, Type 0, BuildingBlock: XOMCOT_clean_sbu_0, # of connection points: 5
#     Node 11, Type 0, BuildingBlock: XOMCOT_clean_sbu_0, # of connection points: 5
#     Edge 12, Type (0, 0), BuildingBlock: KIFKEQ_clean_linker_1, # of connection points: 2
#     Edge 13, Type (0, 0), BuildingBlock: KIFKEQ_clean_linker_1, # of connection points: 2
#     Edge 14, Type (0, 0), BuildingBlock: KIFKEQ_clean_linker_1, # of connection points: 2
#     Edge 15, Type (0, 0), BuildingBlock: KIFKEQ_clean_linker_1, # of connection points: 2
#     Edge 16, Type (0, 0), BuildingBlock: KIFKEQ_clean_linker_1, # of connection points: 2
#     Edge 17, Type (0, 0), BuildingBlock: KIFKEQ_clean_linker_1, # of connection points: 2
#     Edge 18, Type (0, 0), BuildingBlock: KIFKEQ_clean_linker_1, # of connection points: 2
#     Edge 19, Type (0, 0), BuildingBlock: KIFKEQ_clean_linker_1, # of connection points: 2
#     Edge 20, Type (0, 0), BuildingBlock: KIFKEQ_clean_linker_1, # of connection points: 2
#     Edge 21, Type (0, 0), BuildingBlock: KIFKEQ_clean_linker_1, # of connection points: 2
#     Edge 22, Type (0, 0), BuildingBlock: KIFKEQ_clean_linker_1, # of connection points: 2
#     Edge 23, Type (0, 0), BuildingBlock: KIFKEQ_clean_linker_1, # of connection points: 2
#     Edge 24, Type (0, 0), BuildingBlock: KIFKEQ_clean_linker_1, # of connection points: 2
#     Edge 25, Type (0, 0), BuildingBlock: KIFKEQ_clean_linker_1, # of connection points: 2
#     Edge 26, Type (0, 0), BuildingBlock: KIFKEQ_clean_linker_1, # of connection points: 2
#     Edge 27, Type (0, 0), BuildingBlock: KIFKEQ_clean_linker_1, # of connection points: 2
#     Edge 28, Type (0, 0), BuildingBlock: KIFKEQ_clean_linker_1, # of connection points: 2
#     Edge 29, Type (0, 0), BuildingBlock: KIFKEQ_clean_linker_1, # of connection points: 2
#     Edge 30, Type (0, 0), BuildingBlock: KIFKEQ_clean_linker_1, # of connection points: 2
#     Edge 31, Type (0, 0), BuildingBlock: KIFKEQ_clean_linker_1, # of connection points: 2
#     Edge 32, Type (0, 0), BuildingBlock: KIFKEQ_clean_linker_1, # of connection points: 2
#     Edge 33, Type (0, 0), BuildingBlock: KIFKEQ_clean_linker_1, # of connection points: 2
#     Edge 34, Type (0, 0), BuildingBlock: KIFKEQ_clean_linker_1, # of connection points: 2
#     Edge 35, Type (0, 0), BuildingBlock: KIFKEQ_clean_linker_1, # of connection points: 2
#     Edge 36, Type (0, 0), BuildingBlock: KIFKEQ_clean_linker_1, # of connection points: 2
#     Edge 37, Type (0, 0), BuildingBlock: KIFKEQ_clean_linker_1, # of connection points: 2
#     Edge 38, Type (0, 0), BuildingBlock: KIFKEQ_clean_linker_1, # of connection points: 2
#     Edge 39, Type (0, 0), BuildingBlock: KIFKEQ_clean_linker_1, # of connection points: 2
#     Edge 40, Type (0, 0), BuildingBlock: KIFKEQ_clean_linker_1, # of connection points: 2
#     Edge 41, Type (0, 0), BuildingBlock: KIFKEQ_clean_linker_1, # of connection points: 2
# Relax obj value: 0.231
# Max RMSD: 0.184
# Mean RMSD: 0.184
data_MOF--net-wjt--node1-XOMCOT_clean_sbu_0--edge1-KIFKEQ_clean_linker_1
_symmetry_space_group_name_H-M    P1
_symmetry_Int_Tables_number       1
_symmetry_cell_setting            triclinic
loop_
_symmetry_equiv_pos_as_xyz
'x, y, z'
_cell_length_a     68.462636
_cell_length_b     68.411112
_cell_length_c     17.567784
_cell_angle_alpha  90.025456
_cell_angle_beta   89.979121
_cell_angle_gamma 119.97123
loop_
_atom_site_label
_atom_site_type_symbol
_atom_site_fract_x
_atom_site_fract_y
_atom_site_fract_z
_atom_type_partial_charge
Co0 Co 0.31684 0.43599 0.24367 0.0
C1 C 0.31117 0.43124 0.41066 0.0
C2 C 0.27922 0.41878 0.35647 0.0
C3 C 0.2758 0.41561 0.43402 0.0
N4 N 0.30159 0.42945 0.34197 0.0
N5 N 0.29606 0.42372 0.4677 0.0
H6 H 0.32877 0.43666 0.41915 0.0
H7 H 0.26607 0.41283 0.31405 0.0
C8 C 0.27791 0.44272 0.20062 0.0
O9 O 0.28254 0.45622 0.25942 0.0
N10 N 0.33147 0.44137 0.14629 0.0
C11 C 0.35321 0.4556 0.12848 0.0
C12 C 0.35563 0.45496 0.05062 0.0
C13 C 0.32112 0.43201 0.08027 0.0
N14 N 0.33534 0.44022 0.02063 0.0
C15 C 0.34222 0.47833 0.32037 0.0
C16 C 0.3415 0.50568 0.20634 0.0
C17 C 0.35404 0.51563 0.27255 0.0
C18 C 0.35399 0.50158 0.33019 0.0
C19 C 0.32922 0.48203 0.19981 0.0
N20 N 0.32954 0.46856 0.25694 0.0
H21 H 0.34478 0.46847 0.36213 0.0
H22 H 0.32032 0.47462 0.14737 0.0
H23 H 0.36614 0.46622 0.16879 0.0
H24 H 0.30342 0.41955 0.07601 0.0
O25 O 0.34119 0.43378 0.28859 0.0
O26 O 0.31055 0.40481 0.24015 0.0
O27 O 0.28918 0.43267 0.18934 0.0
C28 C 0.32996 0.41232 0.2742 0.0
H29 H 0.25971 0.40782 0.46307 0.0
H30 H 0.37089 0.46523 0.01841 0.0
H31 H 0.34164 0.51604 0.15954 0.0
H32 H 0.3643 0.50856 0.38064 0.0
Co33 Co 0.88577 0.31501 0.57405 0.0
C34 C 0.88584 0.30894 0.74108 0.0
C35 C 0.86519 0.27728 0.68619 0.0
C36 C 0.86559 0.27352 0.76318 0.0
N37 N 0.87725 0.29968 0.67246 0.0
N38 N 0.87865 0.29354 0.79749 0.0
H39 H 0.89782 0.32657 0.74969 0.0
H40 H 0.85747 0.26428 0.64342 0.0
C41 C 0.83973 0.27665 0.53113 0.0
O42 O 0.83106 0.28148 0.59002 0.0
N43 N 0.89483 0.32966 0.47647 0.0
C44 C 0.90329 0.35159 0.45941 0.0
C45 C 0.90663 0.35414 0.38172 0.0
C46 C 0.89346 0.31929 0.41004 0.0
N47 N 0.90031 0.33372 0.35057 0.0
C48 C 0.86953 0.34063 0.65325 0.0
C49 C 0.8412 0.34044 0.5412 0.0
C50 C 0.84397 0.35274 0.60829 0.0
C51 C 0.85819 0.35248 0.66476 0.0
C52 C 0.85254 0.32819 0.53275 0.0
N53 N 0.86637 0.32816 0.58905 0.0
H54 H 0.88193 0.34282 0.69452 0.0
H55 H 0.85086 0.31945 0.47976 0.0
H56 H 0.90647 0.36468 0.50029 0.0
H57 H 0.88716 0.30139 0.4058 0.0
O58 O 0.91269 0.33909 0.61829 0.0
O59 O 0.91024 0.30819 0.56868 0.0
O60 O 0.86104 0.28756 0.52003 0.0
C61 C 0.92254 0.32755 0.60267 0.0
H62 H 0.85761 0.25725 0.7911 0.0
H63 H 0.91309 0.36987 0.35106 0.0
H64 H 0.83077 0.34067 0.49528 0.0
H65 H 0.86168 0.36258 0.71586 0.0
Co66 Co 0.57742 0.88561 0.90823 0.0
C67 C 0.58275 0.88467 0.07463 0.0
C68 C 0.59173 0.86227 0.0211 0.0
C69 C 0.59405 0.86129 0.09893 0.0
N70 N 0.58366 0.87628 0.00604 0.0
N71 N 0.58812 0.8753 0.13244 0.0
H72 H 0.57918 0.8982 0.08233 0.0
H73 H 0.59619 0.85365 0.97909 0.0
C74 C 0.56708 0.83854 0.86398 0.0
O75 O 0.55382 0.8302 0.92357 0.0
N76 N 0.57204 0.89535 0.8118 0.0
C77 C 0.5578 0.90302 0.79603 0.0
C78 C 0.55737 0.90544 0.7182 0.0
C79 C 0.58048 0.89375 0.74445 0.0
N80 N 0.57163 0.89956 0.68618 0.0
C81 C 0.53628 0.87256 0.98863 0.0
C82 C 0.50681 0.84283 0.88199 0.0
C83 C 0.49807 0.84689 0.94866 0.0
C84 C 0.5132 0.86193 0.00219 0.0
C85 C 0.53026 0.85356 0.87134 0.0
N86 N 0.5448 0.86788 0.92539 0.0
H87 H 0.54707 0.88553 0.02754 0.0
H88 H 0.53669 0.85093 0.81844 0.0
H89 H 0.54777 0.90572 0.83778 0.0
H90 H 0.59206 0.88744 0.73795 0.0
O91 O 0.58262 0.91346 0.95353 0.0
O92 O 0.60919 0.90846 0.90043 0.0
O93 O 0.57804 0.85987 0.8528 0.0
C94 C 0.60374 0.92177 0.93618 0.0
H95 H 0.59959 0.851 0.12818 0.0
H96 H 0.54701 0.91062 0.68747 0.0
H97 H 0.49564 0.83178 0.8381 0.0
H98 H 0.50723 0.86647 0.0526 0.0
Co99 Co 0.69661 0.57626 0.24126 0.0
C100 C 0.70276 0.5817 0.40835 0.0
C101 C 0.73442 0.59324 0.3529 0.0
C102 C 0.7382 0.59721 0.43001 0.0
N103 N 0.71201 0.5827 0.33944 0.0
N104 N 0.71818 0.58995 0.46463 0.0
H105 H 0.68515 0.576 0.41731 0.0
H106 H 0.74736 0.59878 0.30982 0.0
C107 C 0.73449 0.56755 0.1994 0.0
O108 O 0.72998 0.55468 0.25985 0.0
N109 N 0.68188 0.57096 0.14395 0.0
C110 C 0.65995 0.55767 0.12685 0.0
C111 C 0.65746 0.55842 0.0491 0.0
C112 C 0.69231 0.57983 0.07752 0.0
N113 N 0.67791 0.57231 0.01795 0.0
C114 C 0.66938 0.53448 0.31966 0.0
C115 C 0.67068 0.50609 0.21063 0.0
C116 C 0.65796 0.49673 0.27695 0.0
C117 C 0.65753 0.51129 0.3318 0.0
C118 C 0.6829 0.52964 0.20163 0.0
N119 N 0.68254 0.54363 0.25674 0.0
H120 H 0.66675 0.5448 0.35931 0.0
H121 H 0.692 0.53657 0.14914 0.0
H122 H 0.64684 0.54784 0.1677 0.0
H123 H 0.71023 0.59125 0.07337 0.0
O124 O 0.67337 0.58054 0.28647 0.0
O125 O 0.70471 0.60783 0.23457 0.0
O126 O 0.72348 0.57778 0.18679 0.0
C127 C 0.68576 0.60179 0.26983 0.0
H128 H 0.75448 0.60564 0.45782 0.0
H129 H 0.64174 0.54921 0.01838 0.0
H130 H 0.67088 0.49532 0.16579 0.0
H131 H 0.64702 0.50474 0.38201 0.0
Co132 Co 0.12776 0.69598 0.58409 0.0
C133 C 0.12733 0.70239 0.751 0.0
C134 C 0.14795 0.73399 0.69556 0.0
C135 C 0.14788 0.73784 0.77258 0.0
N136 N 0.13579 0.71156 0.68213 0.0
N137 N 0.13484 0.71788 0.80707 0.0
H138 H 0.11547 0.68474 0.7604 0.0
H139 H 0.15566 0.74694 0.65271 0.0
C140 C 0.17319 0.73523 0.53956 0.0
O141 O 0.18237 0.73119 0.59877 0.0
N142 N 0.1192 0.68111 0.48667 0.0
C143 C 0.11379 0.65993 0.46787 0.0
C144 C 0.11107 0.65767 0.38987 0.0
C145 C 0.11913 0.69119 0.4211 0.0
N146 N 0.11459 0.67745 0.36042 0.0
C147 C 0.14521 0.67168 0.6646 0.0
C148 C 0.17367 0.67217 0.55246 0.0
C149 C 0.17064 0.65947 0.61876 0.0
C150 C 0.15655 0.65981 0.67567 0.0
C151 C 0.16227 0.68436 0.54433 0.0
N152 N 0.14814 0.684 0.60022 0.0
H153 H 0.13278 0.66941 0.70599 0.0
H154 H 0.16388 0.69307 0.49134 0.0
H155 H 0.1128 0.64737 0.50752 0.0
H156 H 0.12267 0.70843 0.41843 0.0
O157 O 0.10131 0.67134 0.62857 0.0
O158 O 0.10245 0.70153 0.57802 0.0
O159 O 0.15186 0.7237 0.52918 0.0
C160 C 0.09073 0.68212 0.61234 0.0
H161 H 0.15615 0.7541 0.80066 0.0
H162 H 0.10768 0.64285 0.35752 0.0
H163 H 0.18407 0.67202 0.50627 0.0
H164 H 0.15284 0.64949 0.72628 0.0
Co165 Co 0.43882 0.12347 0.89173 0.0
C166 C 0.43441 0.12522 0.05902 0.0
C167 C 0.41644 0.13889 0.00118 0.0
C168 C 0.41296 0.13929 0.0784 0.0
N169 N 0.4306 0.13081 0.98915 0.0
N170 N 0.42421 0.13052 0.11417 0.0
H171 H 0.44355 0.11651 0.07008 0.0
H172 H 0.40846 0.14342 0.95695 0.0
C173 C 0.44308 0.16892 0.85675 0.0
O174 O 0.4528 0.17695 0.9228 0.0
N175 N 0.4461 0.11585 0.7946 0.0
C176 C 0.4627 0.11161 0.7763 0.0
C177 C 0.46317 0.10992 0.69809 0.0
C178 C 0.43652 0.11632 0.72843 0.0
N179 N 0.44674 0.11305 0.66802 0.0
C180 C 0.48006 0.13563 0.96775 0.0
C181 C 0.5086 0.17298 0.88249 0.0
C182 C 0.51772 0.16611 0.94149 0.0
C183 C 0.50296 0.14703 0.98362 0.0
C184 C 0.48522 0.16094 0.86846 0.0
N185 N 0.47107 0.14287 0.9128 0.0
H186 H 0.4699 0.12007 0.99744 0.0
H187 H 0.47881 0.16563 0.81992 0.0
H188 H 0.4742 0.11073 0.8165 0.0
H189 H 0.42259 0.11951 0.72516 0.0
O190 O 0.43539 0.09607 0.93402 0.0
O191 O 0.40764 0.0988 0.88078 0.0
O192 O 0.43647 0.14848 0.83841 0.0
C193 C 0.41429 0.08626 0.9153 0.0
H194 H 0.40226 0.14465 0.10584 0.0
H195 H 0.47532 0.10753 0.66613 0.0
H196 H 0.51941 0.18719 0.84658 0.0
H197 H 0.50913 0.14006 0.02641 0.0
Co198 Co 0.57603 0.69113 0.4357 0.0
C199 C 0.57747 0.69724 0.26861 0.0
C200 C 0.59631 0.72889 0.32576 0.0
C201 C 0.59884 0.73266 0.24824 0.0
N202 N 0.58237 0.70667 0.33848 0.0
N203 N 0.58682 0.71264 0.21267 0.0
H204 H 0.56888 0.67939 0.25801 0.0
H205 H 0.60476 0.74142 0.36969 0.0
C206 C 0.56847 0.73021 0.47227 0.0
O207 O 0.55777 0.72719 0.40741 0.0
N208 N 0.57056 0.67625 0.5326 0.0
C209 C 0.55573 0.6547 0.55062 0.0
C210 C 0.55587 0.65243 0.6287 0.0
C211 C 0.57972 0.68666 0.5988 0.0
N212 N 0.57088 0.67265 0.65889 0.0
C213 C 0.53467 0.65987 0.36281 0.0
C214 C 0.50561 0.66711 0.45136 0.0
C215 C 0.49689 0.65189 0.39033 0.0
C216 C 0.51175 0.64821 0.3465 0.0
C217 C 0.529 0.679 0.46453 0.0
N218 N 0.54341 0.67608 0.418 0.0
H219 H 0.54513 0.65489 0.33269 0.0
H220 H 0.53529 0.68987 0.51368 0.0
H221 H 0.54496 0.64183 0.51038 0.0
H222 H 0.59232 0.70433 0.60259 0.0
O223 O 0.58165 0.66875 0.39033 0.0
O224 O 0.60788 0.70027 0.44431 0.0
O225 O 0.57661 0.71758 0.48999 0.0
C226 C 0.60268 0.68164 0.40825 0.0
H227 H 0.60908 0.74875 0.22045 0.0
H228 H 0.54497 0.63733 0.66072 0.0
H229 H 0.49447 0.66963 0.48875 0.0
H230 H 0.50555 0.63558 0.30185 0.0
Co231 Co 0.88755 0.573 0.76134 0.0
C232 C 0.88837 0.57985 0.59523 0.0
C233 C 0.86647 0.58964 0.64773 0.0
C234 C 0.86613 0.59247 0.57 0.0
N235 N 0.8797 0.58069 0.6633 0.0
N236 N 0.87979 0.58601 0.5371 0.0
H237 H 0.90134 0.57544 0.58818 0.0
H238 H 0.8579 0.5943 0.68927 0.0
C239 C 0.84161 0.5658 0.8046 0.0
O240 O 0.83277 0.55259 0.74515 0.0
N241 N 0.89593 0.56628 0.85806 0.0
C242 C 0.90224 0.55096 0.87384 0.0
C243 C 0.90464 0.55042 0.95163 0.0
C244 C 0.89514 0.57523 0.92533 0.0
N245 N 0.90013 0.5657 0.98357 0.0
C246 C 0.87127 0.53169 0.6786 0.0
C247 C 0.84173 0.50293 0.78703 0.0
C248 C 0.8449 0.4938 0.71968 0.0
C249 C 0.85972 0.50859 0.66501 0.0
C250 C 0.85331 0.52644 0.79763 0.0
N251 N 0.86775 0.54063 0.74311 0.0
H252 H 0.88412 0.54209 0.63876 0.0
H253 H 0.85138 0.53315 0.85102 0.0
H254 H 0.90416 0.54042 0.83207 0.0
H255 H 0.89012 0.58783 0.93173 0.0
O256 O 0.91452 0.57566 0.71796 0.0
O257 O 0.9124 0.60405 0.76967 0.0
O258 O 0.86292 0.57587 0.81576 0.0
C259 C 0.92463 0.59692 0.73559 0.0
H260 H 0.85641 0.59862 0.54038 0.0
H261 H 0.90898 0.53941 0.98235 0.0
H262 H 0.83082 0.49201 0.83164 0.0
H263 H 0.86353 0.50228 0.61384 0.0
Co264 Co 0.31689 0.88471 0.08374 0.0
C265 C 0.31068 0.88399 0.91722 0.0
C266 C 0.27915 0.86208 0.9705 0.0
C267 C 0.2759 0.86127 0.89268 0.0
N268 N 0.30128 0.87567 0.98577 0.0
N269 N 0.29593 0.87497 0.85932 0.0
H270 H 0.32798 0.89708 0.9096 0.0
H271 H 0.26599 0.85366 0.0123 0.0
C272 C 0.2785 0.83914 0.13203 0.0
O273 O 0.28297 0.82967 0.07463 0.0
N274 N 0.33208 0.8943 0.1802 0.0
C275 C 0.35379 0.90103 0.19602 0.0
C276 C 0.35673 0.90353 0.27378 0.0
C277 C 0.32231 0.89342 0.24748 0.0
N278 N 0.33687 0.89865 0.30577 0.0
C279 C 0.34181 0.86758 0.0052 0.0
C280 C 0.34249 0.84041 0.12004 0.0
C281 C 0.35476 0.84297 0.05311 0.0
C282 C 0.35395 0.85647 0.99503 0.0
C283 C 0.32991 0.85145 0.12712 0.0
N284 N 0.32961 0.86486 0.06974 0.0
H285 H 0.34371 0.87959 0.96266 0.0
H286 H 0.32133 0.85008 0.18021 0.0
H287 H 0.36627 0.90294 0.15437 0.0
H288 H 0.30462 0.888 0.25398 0.0
O289 O 0.34104 0.91116 0.03759 0.0
O290 O 0.31057 0.90958 0.08735 0.0
O291 O 0.28952 0.8606 0.14014 0.0
C292 C 0.3298 0.92139 0.05215 0.0
H293 H 0.26004 0.85131 0.86332 0.0
H294 H 0.3721 0.90798 0.30451 0.0
H295 H 0.34309 0.8305 0.16706 0.0
H296 H 0.36394 0.85974 0.94381 0.0
Co297 Co 0.43977 0.31983 0.43144 0.0
C298 C 0.43994 0.31236 0.26423 0.0
C299 C 0.41397 0.28357 0.32218 0.0
C300 C 0.41111 0.27962 0.2449 0.0
N301 N 0.43221 0.30406 0.33446 0.0
N302 N 0.42753 0.29779 0.20888 0.0
H303 H 0.4531 0.32928 0.25231 0.0
H304 H 0.40283 0.27272 0.36637 0.0
C305 C 0.4421 0.27751 0.46451 0.0
O306 O 0.44954 0.27769 0.39545 0.0
N307 N 0.44634 0.33489 0.52845 0.0
C308 C 0.4602 0.35682 0.54454 0.0
C309 C 0.46055 0.35955 0.62255 0.0
C310 C 0.43834 0.32467 0.59586 0.0
N311 N 0.44683 0.33923 0.65483 0.0
C312 C 0.48183 0.35025 0.36167 0.0
C313 C 0.50931 0.33996 0.44699 0.0
C314 C 0.51892 0.35651 0.39018 0.0
C315 C 0.50485 0.36157 0.34755 0.0
C316 C 0.4858 0.32838 0.45776 0.0
N317 N 0.47219 0.33308 0.4134 0.0
H318 H 0.47195 0.35609 0.33209 0.0
H319 H 0.47885 0.31648 0.50402 0.0
H320 H 0.46965 0.36979 0.50281 0.0
H321 H 0.42698 0.30674 0.60132 0.0
O322 O 0.43609 0.34339 0.38667 0.0
O323 O 0.40841 0.31294 0.44027 0.0
O324 O 0.4375 0.29264 0.48543 0.0
C325 C 0.41495 0.33196 0.40464 0.0
H326 H 0.39758 0.26493 0.21737 0.0
H327 H 0.47035 0.37529 0.65271 0.0
H328 H 0.51987 0.3363 0.4833 0.0
H329 H 0.51177 0.37506 0.30587 0.0
Co330 Co 0.12494 0.43351 0.75463 0.0
C331 C 0.12347 0.4247 0.58829 0.0
C332 C 0.14752 0.41817 0.6427 0.0
C333 C 0.14743 0.41397 0.56587 0.0
N334 N 0.13316 0.4259 0.65662 0.0
N335 N 0.13231 0.4182 0.53186 0.0
H336 H 0.11026 0.42872 0.57931 0.0
H337 H 0.15701 0.41497 0.68492 0.0
C338 C 0.17133 0.44266 0.80097 0.0
O339 O 0.18024 0.45662 0.74334 0.0
N340 N 0.11617 0.43961 0.85217 0.0
C341 C 0.10952 0.45446 0.87104 0.0
C342 C 0.1067 0.45379 0.9491 0.0
C343 C 0.11667 0.42975 0.91775 0.0
N344 N 0.11136 0.43829 0.97851 0.0
C345 C 0.14099 0.47396 0.66858 0.0
C346 C 0.16603 0.50439 0.78108 0.0
C347 C 0.16198 0.51245 0.71268 0.0
C348 C 0.15028 0.49686 0.65504 0.0
C349 C 0.15691 0.48099 0.79156 0.0
N350 N 0.14406 0.46597 0.73595 0.0
H351 H 0.12985 0.46283 0.62609 0.0
H352 H 0.159 0.47492 0.84605 0.0
H353 H 0.10763 0.4655 0.83138 0.0
H354 H 0.12103 0.41662 0.92031 0.0
O355 O 0.09796 0.43044 0.71073 0.0
O356 O 0.10039 0.40223 0.76248 0.0
O357 O 0.14991 0.43141 0.80945 0.0
C358 C 0.08807 0.40918 0.72791 0.0
H359 H 0.15743 0.40791 0.53754 0.0
H360 H 0.10235 0.46453 0.98149 0.0
H361 H 0.17494 0.51584 0.82747 0.0
H362 H 0.147 0.50218 0.60075 0.0
Co363 Co 0.69381 0.12057 0.09917 0.0
C364 C 0.69981 0.12596 0.93305 0.0
C365 C 0.7314 0.13686 0.98835 0.0
C366 C 0.73485 0.13858 0.9106 0.0
N367 N 0.70945 0.12951 0.00227 0.0
N368 N 0.71485 0.13169 0.87583 0.0
H369 H 0.68192 0.11781 0.92446 0.0
H370 H 0.74394 0.14017 0.03154 0.0
C371 C 0.73388 0.16688 0.13522 0.0
O372 O 0.73239 0.17454 0.06816 0.0
N373 N 0.67848 0.11142 0.19542 0.0
C374 C 0.65704 0.10572 0.21153 0.0
C375 C 0.65434 0.10417 0.2895 0.0
C376 C 0.68836 0.11274 0.26293 0.0
N377 N 0.67407 0.10862 0.32135 0.0
C378 C 0.66085 0.12866 0.029 0.0
C379 C 0.67164 0.16885 0.09937 0.0
C380 C 0.6544 0.16013 0.04441 0.0
C381 C 0.64885 0.13944 0.01074 0.0
C382 C 0.6832 0.15724 0.11673 0.0
N383 N 0.6786 0.13794 0.07852 0.0
H384 H 0.65517 0.11234 0.00411 0.0
H385 H 0.69527 0.16358 0.16247 0.0
H386 H 0.64458 0.10387 0.17 0.0
H387 H 0.70602 0.11797 0.26942 0.0
O388 O 0.67185 0.09232 0.05407 0.0
O389 O 0.70318 0.09802 0.11024 0.0
O390 O 0.71998 0.14649 0.15405 0.0
C391 C 0.6848 0.08439 0.07349 0.0
H392 H 0.75079 0.14405 0.88237 0.0
H393 H 0.63928 0.10074 0.32049 0.0
H394 H 0.67608 0.18437 0.12922 0.0
H395 H 0.63475 0.13108 0.9719 0.0
H396 H 0.24713 0.45712 0.2132 0.0
H397 H 0.26971 0.42324 0.05939 0.0
H398 H 0.22071 0.4556 0.11643 0.0
H399 H 0.2438 0.42235 0.96204 0.0
H400 H 0.21577 0.45439 0.78605 0.0
H401 H 0.24054 0.45277 0.88335 0.0
H402 H 0.18548 0.42551 0.04393 0.0
H403 H 0.16066 0.42673 0.94644 0.0
C404 C 0.24645 0.44929 0.15891 0.0
C405 C 0.26072 0.44045 0.14397 0.0
C406 C 0.23127 0.44839 0.10354 0.0
C407 C 0.23029 0.43899 0.03144 0.0
C408 C 0.24434 0.42991 0.01676 0.0
C409 C 0.25917 0.4304 0.07265 0.0
C410 C 0.2089 0.44789 0.84191 0.0
C411 C 0.18618 0.44064 0.8584 0.0
C412 C 0.22307 0.44689 0.89753 0.0
C413 C 0.21497 0.43906 0.97135 0.0
C414 C 0.19225 0.43175 0.98775 0.0
C415 C 0.17799 0.43232 0.93173 0.0
H416 H 0.76919 0.20992 0.11395 0.0
H417 H 0.73539 0.15924 0.28757 0.0
H418 H 0.79502 0.2358 0.21001 0.0
H419 H 0.76121 0.18502 0.38307 0.0
H420 H 0.79426 0.24728 0.54217 0.0
H421 H 0.76925 0.22059 0.44656 0.0
H422 H 0.82596 0.24056 0.29596 0.0
H423 H 0.85097 0.26722 0.39133 0.0
C424 C 0.76731 0.20425 0.17243 0.0
C425 C 0.75018 0.18246 0.1928 0.0
C426 C 0.78219 0.21904 0.22746 0.0
C427 C 0.78017 0.21251 0.30436 0.0
C428 C 0.76311 0.19069 0.32459 0.0
C429 C 0.74838 0.17584 0.26955 0.0
C430 C 0.80144 0.24591 0.48889 0.0
C431 C 0.82468 0.25946 0.47469 0.0
C432 C 0.7871 0.23053 0.43413 0.0
C433 C 0.79558 0.22846 0.36342 0.0
C434 C 0.81883 0.24189 0.34942 0.0
C435 C 0.8332 0.2571 0.40447 0.0
H436 H 0.58125 0.73475 0.62154 0.0
H437 H 0.55779 0.76358 0.45088 0.0
H438 H 0.58155 0.76105 0.71585 0.0
H439 H 0.55819 0.79005 0.54545 0.0
H440 H 0.5846 0.84861 0.71958 0.0
H441 H 0.58553 0.82301 0.62469 0.0
H442 H 0.55344 0.76784 0.78406 0.0
H443 H 0.55243 0.79342 0.8791 0.0
C444 C 0.57625 0.74676 0.60399 0.0
C445 C 0.56947 0.74698 0.52852 0.0
C446 C 0.57629 0.76177 0.65826 0.0
C447 C 0.56983 0.77763 0.63835 0.0
C448 C 0.56342 0.77815 0.56256 0.0
C449 C 0.56311 0.76291 0.50842 0.0
C450 C 0.57784 0.83106 0.73469 0.0
C451 C 0.56848 0.82312 0.80724 0.0
C452 C 0.57824 0.81634 0.67997 0.0
C453 C 0.56954 0.79336 0.69667 0.0
C454 C 0.56045 0.78548 0.76953 0.0
C455 C 0.5598 0.80014 0.82394 0.0
H456 H 0.852 0.58215 0.95038 0.0
H457 H 0.79726 0.55401 0.78829 0.0
H458 H 0.8269 0.58364 0.04608 0.0
H459 H 0.77221 0.55564 0.88406 0.0
H460 H 0.7407 0.58349 0.05314 0.0
H461 H 0.767 0.58424 0.958 0.0
H462 H 0.79286 0.5557 0.12121 0.0
H463 H 0.76641 0.55482 0.21667 0.0
C464 C 0.83468 0.57646 0.93484 0.0
C465 C 0.82669 0.56798 0.86143 0.0
C466 C 0.82025 0.57717 0.98997 0.0
C467 C 0.79754 0.56973 0.9728 0.0
C468 C 0.78965 0.56167 0.89897 0.0
C469 C 0.804 0.56066 0.84415 0.0
C470 C 0.75206 0.57751 0.06914 0.0
C471 C 0.7514 0.5691 0.1428 0.0
C472 C 0.76706 0.5778 0.01428 0.0
C473 C 0.78201 0.56999 0.0319 0.0
C474 C 0.78169 0.562 0.10597 0.0
C475 C 0.76645 0.56141 0.16059 0.0
H476 H 0.16183 0.74043 0.39469 0.0
H477 H 0.21773 0.76782 0.55201 0.0
H478 H 0.18635 0.76599 0.29579 0.0
H479 H 0.24223 0.7936 0.45317 0.0
H480 H 0.27308 0.85107 0.27621 0.0
H481 H 0.24716 0.82692 0.37491 0.0
H482 H 0.21986 0.77047 0.21971 0.0
H483 H 0.24596 0.79458 0.1209 0.0
C484 C 0.17929 0.75204 0.40846 0.0
C485 C 0.18778 0.75201 0.48138 0.0
C486 C 0.19338 0.7666 0.35157 0.0
C487 C 0.21626 0.7818 0.3665 0.0
C488 C 0.22464 0.78221 0.43998 0.0
C489 C 0.21061 0.76738 0.49655 0.0
C490 C 0.26146 0.83357 0.26274 0.0
C491 C 0.26164 0.8248 0.19041 0.0
C492 C 0.24669 0.81969 0.31961 0.0
C493 C 0.23147 0.79676 0.30527 0.0
C494 C 0.23126 0.7881 0.23242 0.0
C495 C 0.24628 0.80191 0.17588 0.0
H496 H 0.43114 0.23365 0.44173 0.0
H497 H 0.45117 0.28448 0.616 0.0
H498 H 0.42936 0.20673 0.53602 0.0
H499 H 0.45147 0.25856 0.70941 0.0
H500 H 0.43561 0.20408 0.88167 0.0
H501 H 0.43339 0.22903 0.78769 0.0
H502 H 0.4475 0.19408 0.60924 0.0
H503 H 0.44764 0.16815 0.70311 0.0
C504 C 0.43544 0.2391 0.50027 0.0
C505 C 0.44118 0.2611 0.52152 0.0
C506 C 0.43466 0.22373 0.55468 0.0
C507 C 0.44036 0.23017 0.63155 0.0
C508 C 0.44634 0.25243 0.65199 0.0
C509 C 0.4464 0.26752 0.59806 0.0
C510 C 0.43804 0.20173 0.82214 0.0
C511 C 0.44169 0.18414 0.79972 0.0
C512 C 0.43702 0.21621 0.76783 0.0
C513 C 0.44041 0.21399 0.68965 0.0
C514 C 0.44423 0.19631 0.66791 0.0
C515 C 0.44451 0.18142 0.722 0.0
H516 H 0.47511 0.64783 0.25677 0.0
H517 H 0.46386 0.62386 0.48837 0.0
H518 H 0.43675 0.61901 0.22329 0.0
H519 H 0.42587 0.59435 0.45495 0.0
H520 H 0.35694 0.54331 0.38906 0.0
H521 H 0.38846 0.58093 0.41642 0.0
H522 H 0.41918 0.58006 0.20219 0.0
H523 H 0.38721 0.54297 0.1742 0.0
C524 C 0.46418 0.63661 0.30083 0.0
C525 C 0.47239 0.63799 0.37508 0.0
C526 C 0.44228 0.61994 0.28158 0.0
C527 C 0.42819 0.60397 0.33588 0.0
C528 C 0.436 0.6064 0.41153 0.0
C529 C 0.45783 0.62332 0.43096 0.0
C530 C 0.37014 0.55158 0.34689 0.0
C531 C 0.36969 0.54026 0.27957 0.0
C532 C 0.38834 0.57302 0.36287 0.0
C533 C 0.40671 0.58349 0.31239 0.0
C534 C 0.40535 0.57278 0.24236 0.0
C535 C 0.38698 0.55145 0.22601 0.0
H536 H 0.82367 0.46883 0.59357 0.0
H537 H 0.84551 0.46346 0.81899 0.0
H538 H 0.81606 0.43078 0.56397 0.0
H539 H 0.83852 0.42573 0.78929 0.0
H540 H 0.82141 0.35623 0.73088 0.0
H541 H 0.81425 0.38703 0.75915 0.0
H542 H 0.83992 0.41561 0.53715 0.0
H543 H 0.84644 0.38447 0.50867 0.0
C544 C 0.8264 0.45929 0.6373 0.0
C545 C 0.83532 0.46915 0.70844 0.0
C546 C 0.82222 0.43756 0.62019 0.0
C547 C 0.82701 0.42523 0.67364 0.0
C548 C 0.83438 0.43453 0.74677 0.0
C549 C 0.8384 0.45622 0.76403 0.0
C550 C 0.82492 0.36881 0.68748 0.0
C551 C 0.83461 0.36804 0.61774 0.0
C552 C 0.821 0.38657 0.70386 0.0
C553 C 0.82686 0.4041 0.6511 0.0
C554 C 0.83498 0.40237 0.57909 0.0
C555 C 0.83873 0.38448 0.56252 0.0
H556 H 0.47353 0.8272 0.07692 0.0
H557 H 0.46745 0.8466 0.84839 0.0
H558 H 0.43534 0.81919 0.10549 0.0
H559 H 0.42954 0.83921 0.87703 0.0
H560 H 0.35931 0.82012 0.93328 0.0
H561 H 0.39105 0.81423 0.90766 0.0
H562 H 0.419 0.84221 0.12829 0.0
H563 H 0.38697 0.84746 0.15419 0.0
C564 C 0.46384 0.82939 0.03241 0.0
C565 C 0.47352 0.83766 0.96056 0.0
C566 C 0.44201 0.82495 0.04889 0.0
C567 C 0.42937 0.82885 0.99408 0.0
C568 C 0.43857 0.83574 0.9206 0.0
C569 C 0.46036 0.84001 0.90397 0.0
C570 C 0.37197 0.82441 0.977 0.0
C571 C 0.37074 0.83435 0.04558 0.0
C572 C 0.39027 0.82124 0.9621 0.0
C573 C 0.40787 0.8281 0.01521 0.0
C574 C 0.40573 0.8365 0.08614 0.0
C575 C 0.38732 0.83951 0.10124 0.0
H576 H 0.65532 0.47108 0.39955 0.0
H577 H 0.62621 0.46714 0.17855 0.0
H578 H 0.62547 0.43268 0.42781 0.0
H579 H 0.59581 0.42923 0.2073 0.0
H580 H 0.54277 0.36046 0.26186 0.0
H581 H 0.58078 0.39079 0.2317 0.0
H582 H 0.58741 0.41641 0.46108 0.0
H583 H 0.54991 0.3854 0.49133 0.0
C584 C 0.64271 0.46177 0.35649 0.0
C585 C 0.643 0.47207 0.28697 0.0
C586 C 0.62547 0.43984 0.37287 0.0
C587 C 0.60788 0.42782 0.32056 0.0
C588 C 0.60911 0.43769 0.24891 0.0
C589 C 0.62655 0.45951 0.23219 0.0
C590 C 0.55281 0.37215 0.30638 0.0
C591 C 0.54355 0.37062 0.37894 0.0
C592 C 0.57446 0.38973 0.28895 0.0
C593 C 0.58715 0.40646 0.34329 0.0
C594 C 0.5784 0.40384 0.41769 0.0
C595 C 0.55686 0.38602 0.43536 0.0
H596 H 0.1351 0.52672 0.64984 0.0
H597 H 0.20066 0.55216 0.75329 0.0
H598 H 0.14389 0.56479 0.62068 0.0
H599 H 0.20921 0.59102 0.72582 0.0
H600 H 0.18978 0.6511 0.7426 0.0
H601 H 0.1923 0.61709 0.76464 0.0
H602 H 0.17179 0.59631 0.53259 0.0
H603 H 0.1689 0.62998 0.51082 0.0
C604 C 0.15157 0.54046 0.66569 0.0
C605 C 0.16743 0.53628 0.70207 0.0
C606 C 0.15658 0.56234 0.64884 0.0
C607 C 0.17747 0.58085 0.66898 0.0
C608 C 0.19309 0.57698 0.70868 0.0
C609 C 0.18815 0.5548 0.72481 0.0
C610 C 0.18646 0.63957 0.69567 0.0
C611 C 0.1788 0.64305 0.62527 0.0
C612 C 0.18802 0.62018 0.70826 0.0
C613 C 0.18185 0.6039 0.65076 0.0
C614 C 0.17638 0.60849 0.57823 0.0
C615 C 0.17493 0.6279 0.56552 0.0
H616 H 0.64148 0.18419 0.13811 0.0
H617 H 0.63673 0.16142 0.90594 0.0
H618 H 0.61417 0.19601 0.11028 0.0
H619 H 0.60777 0.17069 0.88037 0.0
H620 H 0.55249 0.18283 0.83716 0.0
H621 H 0.591 0.19132 0.8597 0.0
H622 H 0.57647 0.17933 0.10053 0.0
H623 H 0.53918 0.17339 0.07849 0.0
C624 C 0.63482 0.18187 0.08089 0.0
C625 C 0.64087 0.17113 0.02507 0.0
C626 C 0.61874 0.18831 0.06507 0.0
C627 C 0.60788 0.18368 0.99361 0.0
C628 C 0.61545 0.17468 0.9362 0.0
C629 C 0.63189 0.16884 0.95141 0.0
C630 C 0.55785 0.18291 0.89519 0.0
C631 C 0.54245 0.17669 0.9557 0.0
C632 C 0.57991 0.18735 0.9082 0.0
C633 C 0.58693 0.18514 0.98175 0.0
C634 C 0.5721 0.18119 0.0429 0.0
C635 C 0.55035 0.17737 0.0301 0.0
H636 H 0.36806 0.42505 0.35488 0.0
H637 H 0.31313 0.36675 0.24667 0.0
H638 H 0.38569 0.40307 0.38741 0.0
H639 H 0.33122 0.34444 0.27984 0.0
H640 H 0.36931 0.31374 0.4347 0.0
H641 H 0.34582 0.33071 0.4037 0.0
H642 H 0.40318 0.38672 0.29648 0.0
H643 H 0.42629 0.37021 0.32679 0.0
C644 C 0.35965 0.40747 0.33811 0.0
C645 C 0.33932 0.39776 0.29703 0.0
C646 C 0.3698 0.39486 0.35696 0.0
C647 C 0.35998 0.37213 0.33544 0.0
C648 C 0.33912 0.36195 0.29719 0.0
C649 C 0.32888 0.37472 0.27788 0.0
C650 C 0.37676 0.32961 0.40418 0.0
C651 C 0.39975 0.34076 0.3842 0.0
C652 C 0.36332 0.33922 0.38611 0.0
C653 C 0.37278 0.36015 0.34845 0.0
C654 C 0.3955 0.37076 0.32653 0.0
C655 C 0.40876 0.36122 0.34404 0.0
H656 H 0.06231 0.42067 0.64396 0.0
H657 H 0.05949 0.36405 0.76311 0.0
H658 H 0.02257 0.39834 0.6145 0.0
H659 H 0.01892 0.34135 0.7328 0.0
H660 H 0.94988 0.30901 0.57738 0.0
H661 H 0.99028 0.32616 0.60865 0.0
H662 H 0.98907 0.38322 0.70806 0.0
H663 H 0.9494 0.36648 0.67754 0.0
C664 C 0.05323 0.40337 0.66384 0.0
C665 C 0.06406 0.39427 0.70706 0.0
C666 C 0.03039 0.39057 0.64674 0.0
C667 C 0.0176 0.36822 0.67211 0.0
C668 C 0.02845 0.35858 0.71255 0.0
C669 C 0.05157 0.37157 0.73015 0.0
C670 C 0.95829 0.32513 0.60635 0.0
C671 C 0.94649 0.33652 0.62394 0.0
C672 C 0.98131 0.33485 0.62459 0.0
C673 C 0.99281 0.35611 0.66007 0.0
C674 C 0.98073 0.36696 0.67982 0.0
C675 C 0.95794 0.35732 0.66215 0.0
H676 H 0.66655 0.06367 0.9403 0.0
H677 H 0.68889 0.05287 0.15775 0.0
H678 H 0.65179 0.024 0.90745 0.0
H679 H 0.67326 0.0127 0.12578 0.0
H680 H 0.6033 0.9432 0.06487 0.0
H681 H 0.62815 0.98274 0.09901 0.0
H682 H 0.66598 0.99282 0.89206 0.0
H683 H 0.64144 0.95277 0.85895 0.0
C684 C 0.66856 0.05281 0.9806 0.0
C685 C 0.67877 0.06122 0.0516 0.0
C686 C 0.66025 0.03018 0.96159 0.0
C687 C 0.66145 0.01535 0.01399 0.0
C688 C 0.67226 0.02388 0.0843 0.0
C689 C 0.6812 0.04677 0.10251 0.0
C690 C 0.61718 0.95375 0.02733 0.0
C691 C 0.62043 0.94502 0.95912 0.0
C692 C 0.63149 0.97631 0.04719 0.0
C693 C 0.649 0.99076 0.99831 0.0
C694 C 0.65265 0.98194 0.93085 0.0
C695 C 0.63867 0.9591 0.91197 0.0
H696 H 0.63905 0.68666 0.48984 0.0
H697 H 0.60378 0.66168 0.27696 0.0
H698 H 0.66353 0.67098 0.45755 0.0
H699 H 0.62864 0.64688 0.24366 0.0
H700 H 0.69134 0.63903 0.19247 0.0
H701 H 0.67497 0.66284 0.22562 0.0
H702 H 0.64809 0.62491 0.43286 0.0
H703 H 0.6636 0.60071 0.39861 0.0
C704 C 0.63694 0.67834 0.43552 0.0
C705 C 0.61952 0.67523 0.38602 0.0
C706 C 0.65086 0.66937 0.41714 0.0
C707 C 0.64799 0.65787 0.34795 0.0
C708 C 0.63134 0.65587 0.29692 0.0
C709 C 0.61706 0.66421 0.3162 0.0
C710 C 0.68221 0.63607 0.24553 0.0
C711 C 0.67856 0.618 0.29276 0.0
C712 C 0.67288 0.64962 0.26442 0.0
C713 C 0.66042 0.64573 0.33199 0.0
C714 C 0.65782 0.62839 0.38091 0.0
C715 C 0.66655 0.61448 0.36102 0.0
H716 H 0.0653 0.64363 0.69142 0.0
H717 H 0.06161 0.69829 0.58232 0.0
H718 H 0.02554 0.62551 0.72199 0.0
H719 H 0.02111 0.67972 0.61333 0.0
H720 H 0.95213 0.64276 0.76105 0.0
H721 H 0.99265 0.6658 0.73144 0.0
H722 H 0.99161 0.60713 0.63617 0.0
H723 H 0.95185 0.58441 0.66534 0.0
C724 C 0.05601 0.65185 0.67392 0.0
C725 C 0.06662 0.67229 0.63337 0.0
C726 C 0.03315 0.6414 0.69153 0.0
C727 C 0.02012 0.65103 0.66926 0.0
C728 C 0.03077 0.67194 0.63125 0.0
C729 C 0.05387 0.68248 0.61319 0.0
C730 C 0.96063 0.63489 0.73357 0.0
C731 C 0.94881 0.61169 0.71643 0.0
C732 C 0.98373 0.64809 0.71627 0.0
C733 C 0.99533 0.63819 0.68226 0.0
C734 C 0.98326 0.61518 0.66349 0.0
C735 C 0.96039 0.60215 0.68022 0.0
H736 H 0.42659 0.05843 0.98148 0.0
H737 H 0.3681 0.05944 0.89401 0.0
H738 H 0.40351 0.01887 0.01243 0.0
H739 H 0.34462 0.01901 0.92565 0.0
H740 H 0.31443 0.95098 0.0861 0.0
H741 H 0.33237 0.99115 0.04993 0.0
H742 H 0.38312 0.98474 0.92468 0.0
H743 H 0.36565 0.94536 0.96032 0.0
C744 C 0.40874 0.05022 0.96874 0.0
C745 C 0.39925 0.06211 0.93434 0.0
C746 C 0.3955 0.02746 0.98656 0.0
C747 C 0.37232 0.01579 0.97079 0.0
C748 C 0.36248 0.02765 0.93843 0.0
C749 C 0.37591 0.05068 0.91992 0.0
C750 C 0.32929 0.9582 0.05031 0.0
C751 C 0.33885 0.94509 0.0273 0.0
C752 C 0.33945 0.98109 0.0293 0.0
C753 C 0.35929 0.99109 0.98526 0.0
C754 C 0.36806 0.9776 0.95963 0.0
C755 C 0.35803 0.95499 0.98033 0.0
H756 H 0.33437 0.45445 0.53701 0.0
H757 H 0.26943 0.39559 0.57961 0.0
H758 H 0.34376 0.45645 0.67095 0.0
H759 H 0.27887 0.3976 0.71484 0.0
H760 H 0.29485 0.42827 0.95738 0.0
H761 H 0.28493 0.42239 0.82351 0.0
H762 H 0.35232 0.43663 0.76879 0.0
H763 H 0.36227 0.44257 0.90374 0.0
C764 C 0.3222 0.44171 0.57487 0.0
C765 C 0.30121 0.42473 0.54753 0.0
C766 C 0.32761 0.44285 0.65174 0.0
C767 C 0.31216 0.42707 0.7034 0.0
C768 C 0.29108 0.4101 0.67637 0.0
C769 C 0.28564 0.40895 0.59909 0.0
C770 C 0.30746 0.42974 0.9172 0.0
C771 C 0.32936 0.43584 0.94137 0.0
C772 C 0.30174 0.42636 0.84027 0.0
C773 C 0.31782 0.42903 0.78553 0.0
C774 C 0.33964 0.43474 0.80964 0.0
C775 C 0.34536 0.43816 0.88679 0.0
H776 H 0.89305 0.29382 0.28951 0.0
H777 H 0.90549 0.36037 0.22774 0.0
H778 H 0.88883 0.28341 0.15623 0.0
H779 H 0.90181 0.34986 0.09429 0.0
H780 H 0.85375 0.26794 0.91662 0.0
H781 H 0.86067 0.27745 0.05162 0.0
H782 H 0.92173 0.33908 0.99519 0.0
H783 H 0.91528 0.32942 0.86089 0.0
C784 C 0.89487 0.30632 0.24827 0.0
C785 C 0.89941 0.328 0.27075 0.0
C786 C 0.89248 0.30026 0.17149 0.0
C787 C 0.8949 0.31578 0.11502 0.0
C788 C 0.90004 0.3376 0.13675 0.0
C789 C 0.90217 0.34361 0.21361 0.0
C790 C 0.86886 0.2833 0.93296 0.0
C791 C 0.88374 0.29803 0.8775 0.0
C792 C 0.87278 0.28877 0.01029 0.0
C793 C 0.89159 0.30914 0.03368 0.0
C794 C 0.90686 0.32349 0.97861 0.0
C795 C 0.90307 0.31794 0.90152 0.0
H796 H 0.60789 0.86596 0.25118 0.0
H797 H 0.56435 0.89299 0.19737 0.0
H798 H 0.60403 0.87161 0.38634 0.0
H799 H 0.56193 0.90006 0.33013 0.0
H800 H 0.54034 0.88697 0.57542 0.0
H801 H 0.54467 0.88042 0.44204 0.0
H802 H 0.61435 0.89988 0.48292 0.0
H803 H 0.60962 0.90572 0.61735 0.0
C804 C 0.59766 0.87323 0.26771 0.0
C805 C 0.58661 0.87913 0.21261 0.0
C806 C 0.59565 0.87672 0.34526 0.0
C807 C 0.58261 0.88626 0.36931 0.0
C808 C 0.5718 0.89233 0.3141 0.0
C809 C 0.57358 0.88862 0.23719 0.0
C810 C 0.55663 0.89009 0.55565 0.0
C811 C 0.57468 0.89701 0.60653 0.0
C812 C 0.55916 0.88634 0.47916 0.0
C813 C 0.57992 0.88973 0.45141 0.0
C814 C 0.59804 0.89677 0.50243 0.0
C815 C 0.59539 0.90027 0.57928 0.0
H816 H 0.65117 0.55103 0.8951 0.0
H817 H 0.71809 0.60432 0.95673 0.0
H818 H 0.66175 0.55751 0.76168 0.0
H819 H 0.72853 0.61017 0.82349 0.0
H820 H 0.68251 0.59108 0.52803 0.0
H821 H 0.67287 0.58799 0.66232 0.0
H822 H 0.73417 0.58789 0.71879 0.0
H823 H 0.74365 0.59038 0.58368 0.0
C824 C 0.66803 0.56421 0.88095 0.0
C825 C 0.68371 0.57694 0.93808 0.0
C826 C 0.67409 0.5679 0.80408 0.0
C827 C 0.69601 0.58426 0.78229 0.0
C828 C 0.71161 0.59722 0.83875 0.0
C829 C 0.70551 0.59375 0.91554 0.0
C830 C 0.69391 0.59021 0.56868 0.0
C831 C 0.71372 0.59058 0.54465 0.0
C832 C 0.68837 0.58852 0.64577 0.0
C833 C 0.70263 0.58746 0.70088 0.0
C834 C 0.72291 0.58879 0.67746 0.0
C835 C 0.72837 0.59028 0.6001 0.0
H836 H 0.13269 0.7198 0.30018 0.0
H837 H 0.0989 0.64916 0.23804 0.0
H838 H 0.13577 0.73008 0.16764 0.0
H839 H 0.10304 0.6597 0.10442 0.0
H840 H 0.09665 0.68499 0.87224 0.0
H841 H 0.09032 0.67544 0.00704 0.0
H842 H 0.15683 0.73099 0.05802 0.0
H843 H 0.16291 0.74066 0.92323 0.0
C844 C 0.12581 0.70634 0.25884 0.0
C845 C 0.11561 0.68352 0.28098 0.0
C846 C 0.12784 0.71235 0.18217 0.0
C847 C 0.11984 0.69577 0.12516 0.0
C848 C 0.10924 0.67294 0.14688 0.0
C849 C 0.1071 0.66689 0.22379 0.0
C850 C 0.10989 0.69516 0.91234 0.0
C851 C 0.13035 0.71351 0.88717 0.0
C852 C 0.10629 0.68965 0.98957 0.0
C853 C 0.12312 0.70231 0.04342 0.0
C854 C 0.14337 0.72103 0.01832 0.0
C855 C 0.14689 0.72661 0.94109 0.0
H856 H 0.42254 0.13118 0.60781 0.0
H857 H 0.46073 0.09878 0.54576 0.0
H858 H 0.41495 0.13375 0.47518 0.0
H859 H 0.45444 0.10289 0.41231 0.0
H860 H 0.42297 0.09442 0.18067 0.0
H861 H 0.42701 0.0892 0.31573 0.0
H862 H 0.43224 0.1537 0.36344 0.0
H863 H 0.42726 0.15828 0.22821 0.0
C864 C 0.42932 0.12449 0.56634 0.0
C865 C 0.44221 0.11459 0.5885 0.0
C866 C 0.42521 0.12633 0.48963 0.0
C867 C 0.4341 0.1186 0.43263 0.0
C868 C 0.447 0.10873 0.45455 0.0
C869 C 0.45089 0.10664 0.53142 0.0
C870 C 0.42489 0.10739 0.22033 0.0
C871 C 0.42493 0.12681 0.19433 0.0
C872 C 0.42734 0.10449 0.29766 0.0
C873 C 0.43022 0.12113 0.35073 0.0
C874 C 0.42977 0.14037 0.32457 0.0
C875 C 0.42697 0.14308 0.24718 0.0
H876 H 0.61748 0.73657 0.10254 0.0
H877 H 0.55216 0.67774 0.14026 0.0
H878 H 0.61495 0.72694 0.96742 0.0
H879 H 0.5497 0.66809 0.00613 0.0
H880 H 0.5628 0.64469 0.77939 0.0
H881 H 0.5676 0.65487 0.91389 0.0
H882 H 0.59275 0.72463 0.85392 0.0
H883 H 0.58793 0.71459 0.72033 0.0
C884 C 0.60254 0.72172 0.08198 0.0
C885 C 0.58512 0.70783 0.13229 0.0
C886 C 0.6011 0.71616 0.0047 0.0
C887 C 0.58223 0.6966 0.97634 0.0
C888 C 0.5647 0.68296 0.0265 0.0
C889 C 0.5661 0.68853 0.1034 0.0
C890 C 0.56929 0.66218 0.79475 0.0
C891 C 0.57484 0.67873 0.73845 0.0
C892 C 0.57206 0.66802 0.87188 0.0
C893 C 0.58049 0.69055 0.8945 0.0
C894 C 0.5865 0.70717 0.83836 0.0
C895 C 0.58369 0.70134 0.76141 0.0
H896 H 0.90901 0.60482 0.05097 0.0
H897 H 0.88663 0.53474 0.09586 0.0
H898 H 0.90445 0.61069 0.18547 0.0
H899 H 0.88145 0.54029 0.22947 0.0
H900 H 0.89612 0.56094 0.47272 0.0
H901 H 0.90246 0.55766 0.33985 0.0
H902 H 0.8766 0.60195 0.28301 0.0
H903 H 0.87166 0.60661 0.41811 0.0
C904 C 0.90303 0.59067 0.08969 0.0
C905 C 0.89835 0.56937 0.06322 0.0
C906 C 0.9003 0.59398 0.16658 0.0
C907 C 0.89264 0.57599 0.21844 0.0
C908 C 0.88786 0.55466 0.19156 0.0
C909 C 0.89083 0.55144 0.11497 0.0
C910 C 0.8922 0.57048 0.43274 0.0
C911 C 0.88357 0.5843 0.45705 0.0
C912 C 0.89548 0.56822 0.35582 0.0
C913 C 0.88985 0.57935 0.30046 0.0
C914 C 0.88131 0.59328 0.32426 0.0
C915 C 0.87824 0.59576 0.40176 0.0
H916 H 0.306 0.90628 0.37495 0.0
H917 H 0.35457 0.88484 0.41624 0.0
H918 H 0.29536 0.90057 0.50932 0.0
H919 H 0.34363 0.87846 0.54951 0.0
H920 H 0.33721 0.8914 0.79444 0.0
H921 H 0.34679 0.89839 0.6617 0.0
H922 H 0.27661 0.87226 0.6055 0.0
H923 H 0.26705 0.8667 0.74067 0.0
C924 C 0.31433 0.90028 0.41285 0.0
C925 C 0.33128 0.89623 0.38542 0.0
C926 C 0.30815 0.89686 0.48966 0.0
C927 C 0.31867 0.88913 0.54048 0.0
C928 C 0.33551 0.88493 0.51256 0.0
C929 C 0.34184 0.8886 0.43612 0.0
C930 C 0.32373 0.88754 0.75462 0.0
C931 C 0.3013 0.87872 0.77918 0.0
C932 C 0.32925 0.89119 0.67774 0.0
C933 C 0.31249 0.88574 0.62255 0.0
C934 C 0.29001 0.87687 0.64658 0.0
C935 C 0.28447 0.87344 0.72411 0.0
H936 H 0.4137 0.30036 0.71886 0.0
H937 H 0.47136 0.36515 0.77507 0.0
H938 H 0.4094 0.28967 0.85138 0.0
H939 H 0.46598 0.35493 0.90875 0.0
H940 H 0.46637 0.32143 0.13106 0.0
H941 H 0.47068 0.3315 0.99657 0.0
H942 H 0.39814 0.29568 0.97132 0.0
H943 H 0.39406 0.28505 0.10536 0.0
C944 C 0.42549 0.31246 0.75904 0.0
C945 C 0.44314 0.33362 0.735 0.0
C946 C 0.42277 0.30637 0.8358 0.0
C947 C 0.43738 0.32135 0.89116 0.0
C948 C 0.45465 0.34274 0.86765 0.0
C949 C 0.45755 0.34875 0.79065 0.0
C950 C 0.4514 0.31567 0.09643 0.0
C951 C 0.4299 0.30244 0.12847 0.0
C952 C 0.45382 0.32157 0.01949 0.0
C953 C 0.43476 0.3146 0.97286 0.0
C954 C 0.41323 0.3011 0.00499 0.0
C955 C 0.41084 0.29498 0.08183 0.0
H956 H 0.16124 0.42597 0.41567 0.0
H957 H 0.09319 0.41028 0.4659 0.0
H958 H 0.15494 0.42948 0.28119 0.0
H959 H 0.08678 0.41365 0.33124 0.0
H960 H 0.09425 0.44929 0.10115 0.0
H961 H 0.09848 0.44281 0.23479 0.0
H962 H 0.1345 0.40847 0.17093 0.0
H963 H 0.13115 0.41559 0.03857 0.0
C964 C 0.1448 0.42285 0.39782 0.0
C965 C 0.12778 0.41797 0.4516 0.0
C966 C 0.14117 0.4249 0.32068 0.0
C967 C 0.12038 0.42199 0.29538 0.0
C968 C 0.10313 0.41645 0.34893 0.0
C969 C 0.10679 0.41446 0.42611 0.0
C970 C 0.10318 0.44046 0.11527 0.0
C971 C 0.11251 0.43324 0.05793 0.0
C972 C 0.10538 0.43651 0.19215 0.0
C973 C 0.11695 0.42521 0.21369 0.0
C974 C 0.12581 0.41755 0.15654 0.0
C975 C 0.12365 0.4215 0.07995 0.0
H976 H 0.70113 0.09674 0.39499 0.0
H977 H 0.66071 0.12828 0.42591 0.0
H978 H 0.7117 0.10283 0.52939 0.0
H979 H 0.67207 0.1356 0.55878 0.0
H980 H 0.6761 0.12471 0.80775 0.0
H981 H 0.66646 0.11828 0.67523 0.0
H982 H 0.73295 0.12932 0.62336 0.0
H983 H 0.74208 0.13383 0.75821 0.0
C984 C 0.69464 0.1051 0.4308 0.0
C985 C 0.67988 0.11177 0.40072 0.0
C986 C 0.70083 0.1088 0.50758 0.0
C987 C 0.69272 0.11967 0.55557 0.0
C988 C 0.67822 0.12665 0.52453 0.0
C989 C 0.6717 0.12252 0.44828 0.0
C990 C 0.68869 0.12539 0.76905 0.0
C991 C 0.70983 0.12941 0.79515 0.0
C992 C 0.68321 0.1221 0.69198 0.0
C993 C 0.69888 0.12331 0.63786 0.0
C994 C 0.72026 0.12786 0.66334 0.0
C995 C 0.72562 0.13076 0.741 0.0
loop_
_geom_bond_atom_site_label_1
_geom_bond_atom_site_label_2
_geom_bond_distance
_geom_bond_site_symmetry_2
_ccdc_geom_bond_type
Co0 N4 2.148 . S
Co0 N10 2.128 . S
Co0 N20 2.194 . S
Co0 O25 2.351 . S
Co0 O26 2.155 . S
Co0 O27 2.096 . S
C1 N4 1.301 . S
C1 N5 1.328 . S
C1 H6 0.930 . S
C2 C3 1.333 . S
C2 N4 1.317 . S
C2 H7 0.930 . S
C3 C2 1.333 . S
C3 N5 1.350 . S
C3 H29 0.931 . S
N4 Co0 2.148 . S
N4 C1 1.301 . S
N4 C2 1.317 . S
N5 C1 1.328 . S
N5 C3 1.350 . S
H6 C1 0.930 . S
H7 C2 0.930 . S
C8 O9 1.224 . S
C8 O27 1.247 . S
O9 C8 1.224 . S
N10 Co0 2.128 . S
N10 C11 1.355 . S
N10 C13 1.311 . S
C11 N10 1.355 . S
C11 C12 1.363 . S
C11 H23 0.929 . S
C12 C11 1.363 . S
C12 N14 1.375 . S
C12 H30 0.931 . S
C13 N10 1.311 . S
C13 N14 1.347 . S
C13 H24 0.929 . S
N14 C12 1.375 . S
N14 C13 1.347 . S
C15 C18 1.365 . S
C15 N20 1.328 . S
C15 H21 0.929 . S
C16 C17 1.362 . S
C16 C19 1.378 . S
C16 H31 0.929 . S
C17 C16 1.362 . S
C17 C18 1.366 . S
C18 C15 1.365 . S
C18 C17 1.366 . S
C18 H32 0.930 . S
C19 C16 1.378 . S
C19 N20 1.315 . S
C19 H22 0.930 . S
N20 Co0 2.194 . S
N20 C15 1.328 . S
N20 C19 1.315 . S
H21 C15 0.929 . S
H22 C19 0.930 . S
H23 C11 0.929 . S
H24 C13 0.929 . S
O25 Co0 2.351 . S
O25 C28 1.244 . S
O26 Co0 2.155 . S
O26 C28 1.240 . S
O27 Co0 2.096 . S
O27 C8 1.247 . S
C28 O25 1.244 . S
C28 O26 1.240 . S
H29 C3 0.931 . S
H30 C12 0.931 . S
H31 C16 0.929 . S
H32 C18 0.930 . S
Co33 N37 2.148 . S
Co33 N43 2.128 . S
Co33 N53 2.194 . S
Co33 O58 2.351 . S
Co33 O59 2.155 . S
Co33 O60 2.096 . S
C34 N37 1.301 . S
C34 N38 1.328 . S
C34 H39 0.930 . S
C35 C36 1.333 . S
C35 N37 1.317 . S
C35 H40 0.930 . S
C36 C35 1.333 . S
C36 N38 1.350 . S
C36 H62 0.931 . S
N37 Co33 2.148 . S
N37 C34 1.301 . S
N37 C35 1.317 . S
N38 C34 1.328 . S
N38 C36 1.350 . S
H39 C34 0.930 . S
H40 C35 0.930 . S
C41 O42 1.224 . S
C41 O60 1.247 . S
O42 C41 1.224 . S
N43 Co33 2.128 . S
N43 C44 1.355 . S
N43 C46 1.311 . S
C44 N43 1.355 . S
C44 C45 1.363 . S
C44 H56 0.929 . S
C45 C44 1.363 . S
C45 N47 1.375 . S
C45 H63 0.931 . S
C46 N43 1.311 . S
C46 N47 1.347 . S
C46 H57 0.929 . S
N47 C45 1.375 . S
N47 C46 1.347 . S
C48 C51 1.365 . S
C48 N53 1.328 . S
C48 H54 0.929 . S
C49 C50 1.362 . S
C49 C52 1.378 . S
C49 H64 0.929 . S
C50 C49 1.362 . S
C50 C51 1.366 . S
C51 C48 1.365 . S
C51 C50 1.366 . S
C51 H65 0.930 . S
C52 C49 1.378 . S
C52 N53 1.315 . S
C52 H55 0.930 . S
N53 Co33 2.194 . S
N53 C48 1.328 . S
N53 C52 1.315 . S
H54 C48 0.929 . S
H55 C52 0.930 . S
H56 C44 0.929 . S
H57 C46 0.929 . S
O58 Co33 2.351 . S
O58 C61 1.244 . S
O59 Co33 2.155 . S
O59 C61 1.240 . S
O60 Co33 2.096 . S
O60 C41 1.247 . S
C61 O58 1.244 . S
C61 O59 1.240 . S
H62 C36 0.931 . S
H63 C45 0.931 . S
H64 C49 0.929 . S
H65 C51 0.930 . S
Co66 N70 2.148 1_556 S
Co66 N76 2.128 . S
Co66 N86 2.194 . S
Co66 O91 2.351 . S
Co66 O92 2.155 . S
Co66 O93 2.096 . S
C67 N70 1.301 . S
C67 N71 1.328 . S
C67 H72 0.930 . S
C68 C69 1.333 . S
C68 N70 1.317 . S
C68 H73 0.930 . S
C69 C68 1.333 . S
C69 N71 1.350 . S
C69 H95 0.931 . S
N70 Co66 2.148 1_554 S
N70 C67 1.301 . S
N70 C68 1.317 . S
N71 C67 1.328 . S
N71 C69 1.350 . S
H72 C67 0.930 . S
H73 C68 0.930 . S
C74 O75 1.224 . S
C74 O93 1.247 . S
O75 C74 1.224 . S
N76 Co66 2.128 . S
N76 C77 1.355 . S
N76 C79 1.311 . S
C77 N76 1.355 . S
C77 C78 1.363 . S
C77 H89 0.929 . S
C78 C77 1.363 . S
C78 N80 1.375 . S
C78 H96 0.931 . S
C79 N76 1.311 . S
C79 N80 1.347 . S
C79 H90 0.929 . S
N80 C78 1.375 . S
N80 C79 1.347 . S
C81 C84 1.365 . S
C81 N86 1.328 . S
C81 H87 0.929 . S
C82 C83 1.362 . S
C82 C85 1.378 . S
C82 H97 0.929 . S
C83 C82 1.362 . S
C83 C84 1.366 . S
C84 C81 1.365 . S
C84 C83 1.366 . S
C84 H98 0.930 . S
C85 C82 1.378 . S
C85 N86 1.315 . S
C85 H88 0.930 . S
N86 Co66 2.194 . S
N86 C81 1.328 . S
N86 C85 1.315 . S
H87 C81 0.929 . S
H88 C85 0.930 . S
H89 C77 0.929 . S
H90 C79 0.929 . S
O91 Co66 2.351 . S
O91 C94 1.244 . S
O92 Co66 2.155 . S
O92 C94 1.240 . S
O93 Co66 2.096 . S
O93 C74 1.247 . S
C94 O91 1.244 . S
C94 O92 1.240 . S
H95 C69 0.931 . S
H96 C78 0.931 . S
H97 C82 0.929 . S
H98 C84 0.930 . S
Co99 N103 2.148 . S
Co99 N109 2.128 . S
Co99 N119 2.194 . S
Co99 O124 2.351 . S
Co99 O125 2.155 . S
Co99 O126 2.096 . S
C100 N103 1.301 . S
C100 N104 1.328 . S
C100 H105 0.930 . S
C101 C102 1.333 . S
C101 N103 1.317 . S
C101 H106 0.930 . S
C102 C101 1.333 . S
C102 N104 1.350 . S
C102 H128 0.931 . S
N103 Co99 2.148 . S
N103 C100 1.301 . S
N103 C101 1.317 . S
N104 C100 1.328 . S
N104 C102 1.350 . S
H105 C100 0.930 . S
H106 C101 0.930 . S
C107 O108 1.224 . S
C107 O126 1.247 . S
O108 C107 1.224 . S
N109 Co99 2.128 . S
N109 C110 1.355 . S
N109 C112 1.311 . S
C110 N109 1.355 . S
C110 C111 1.363 . S
C110 H122 0.929 . S
C111 C110 1.363 . S
C111 N113 1.375 . S
C111 H129 0.931 . S
C112 N109 1.311 . S
C112 N113 1.347 . S
C112 H123 0.929 . S
N113 C111 1.375 . S
N113 C112 1.347 . S
C114 C117 1.365 . S
C114 N119 1.328 . S
C114 H120 0.929 . S
C115 C116 1.362 . S
C115 C118 1.378 . S
C115 H130 0.929 . S
C116 C115 1.362 . S
C116 C117 1.366 . S
C117 C114 1.365 . S
C117 C116 1.366 . S
C117 H131 0.930 . S
C118 C115 1.378 . S
C118 N119 1.315 . S
C118 H121 0.930 . S
N119 Co99 2.194 . S
N119 C114 1.328 . S
N119 C118 1.315 . S
H120 C114 0.929 . S
H121 C118 0.930 . S
H122 C110 0.929 . S
H123 C112 0.929 . S
O124 Co99 2.351 . S
O124 C127 1.244 . S
O125 Co99 2.155 . S
O125 C127 1.240 . S
O126 Co99 2.096 . S
O126 C107 1.247 . S
C127 O124 1.244 . S
C127 O125 1.240 . S
H128 C102 0.931 . S
H129 C111 0.931 . S
H130 C115 0.929 . S
H131 C117 0.930 . S
Co132 N136 2.148 . S
Co132 N142 2.128 . S
Co132 N152 2.194 . S
Co132 O157 2.351 . S
Co132 O158 2.155 . S
Co132 O159 2.096 . S
C133 N136 1.301 . S
C133 N137 1.328 . S
C133 H138 0.930 . S
C134 C135 1.333 . S
C134 N136 1.317 . S
C134 H139 0.930 . S
C135 C134 1.333 . S
C135 N137 1.350 . S
C135 H161 0.931 . S
N136 Co132 2.148 . S
N136 C133 1.301 . S
N136 C134 1.317 . S
N137 C133 1.328 . S
N137 C135 1.350 . S
H138 C133 0.930 . S
H139 C134 0.930 . S
C140 O141 1.224 . S
C140 O159 1.247 . S
O141 C140 1.224 . S
N142 Co132 2.128 . S
N142 C143 1.355 . S
N142 C145 1.311 . S
C143 N142 1.355 . S
C143 C144 1.363 . S
C143 H155 0.929 . S
C144 C143 1.363 . S
C144 N146 1.375 . S
C144 H162 0.931 . S
C145 N142 1.311 . S
C145 N146 1.347 . S
C145 H156 0.929 . S
N146 C144 1.375 . S
N146 C145 1.347 . S
C147 C150 1.365 . S
C147 N152 1.328 . S
C147 H153 0.929 . S
C148 C149 1.362 . S
C148 C151 1.378 . S
C148 H163 0.929 . S
C149 C148 1.362 . S
C149 C150 1.366 . S
C150 C147 1.365 . S
C150 C149 1.366 . S
C150 H164 0.930 . S
C151 C148 1.378 . S
C151 N152 1.315 . S
C151 H154 0.930 . S
N152 Co132 2.194 . S
N152 C147 1.328 . S
N152 C151 1.315 . S
H153 C147 0.929 . S
H154 C151 0.930 . S
H155 C143 0.929 . S
H156 C145 0.929 . S
O157 Co132 2.351 . S
O157 C160 1.244 . S
O158 Co132 2.155 . S
O158 C160 1.240 . S
O159 Co132 2.096 . S
O159 C140 1.247 . S
C160 O157 1.244 . S
C160 O158 1.240 . S
H161 C135 0.931 . S
H162 C144 0.931 . S
H163 C148 0.929 . S
H164 C150 0.930 . S
Co165 N169 2.148 1_556 S
Co165 N175 2.128 . S
Co165 N185 2.194 . S
Co165 O190 2.351 . S
Co165 O191 2.155 . S
Co165 O192 2.096 . S
C166 N169 1.301 . S
C166 N170 1.328 . S
C166 H171 0.930 . S
C167 C168 1.333 . S
C167 N169 1.317 . S
C167 H172 0.930 . S
C168 C167 1.333 . S
C168 N170 1.350 . S
C168 H194 0.931 . S
N169 Co165 2.148 1_554 S
N169 C166 1.301 . S
N169 C167 1.317 . S
N170 C166 1.328 . S
N170 C168 1.350 . S
H171 C166 0.930 . S
H172 C167 0.930 . S
C173 O174 1.224 . S
C173 O192 1.247 . S
O174 C173 1.224 . S
N175 Co165 2.128 . S
N175 C176 1.355 . S
N175 C178 1.311 . S
C176 N175 1.355 . S
C176 C177 1.363 . S
C176 H188 0.929 . S
C177 C176 1.363 . S
C177 N179 1.375 . S
C177 H195 0.931 . S
C178 N175 1.311 . S
C178 N179 1.347 . S
C178 H189 0.929 . S
N179 C177 1.375 . S
N179 C178 1.347 . S
C180 C183 1.365 . S
C180 N185 1.328 . S
C180 H186 0.929 . S
C181 C182 1.362 . S
C181 C184 1.378 . S
C181 H196 0.929 . S
C182 C181 1.362 . S
C182 C183 1.366 . S
C183 C180 1.365 . S
C183 C182 1.366 . S
C183 H197 0.930 . S
C184 C181 1.378 . S
C184 N185 1.315 . S
C184 H187 0.930 . S
N185 Co165 2.194 . S
N185 C180 1.328 . S
N185 C184 1.315 . S
H186 C180 0.929 . S
H187 C184 0.930 . S
H188 C176 0.929 . S
H189 C178 0.929 . S
O190 Co165 2.351 . S
O190 C193 1.244 . S
O191 Co165 2.155 . S
O191 C193 1.240 . S
O192 Co165 2.096 . S
O192 C173 1.247 . S
C193 O190 1.244 . S
C193 O191 1.240 . S
H194 C168 0.931 . S
H195 C177 0.931 . S
H196 C181 0.929 . S
H197 C183 0.930 . S
Co198 N202 2.148 . S
Co198 N208 2.128 . S
Co198 N218 2.194 . S
Co198 O223 2.351 . S
Co198 O224 2.155 . S
Co198 O225 2.096 . S
C199 N202 1.301 . S
C199 N203 1.328 . S
C199 H204 0.930 . S
C200 C201 1.333 . S
C200 N202 1.317 . S
C200 H205 0.930 . S
C201 C200 1.333 . S
C201 N203 1.350 . S
C201 H227 0.931 . S
N202 Co198 2.148 . S
N202 C199 1.301 . S
N202 C200 1.317 . S
N203 C199 1.328 . S
N203 C201 1.350 . S
H204 C199 0.930 . S
H205 C200 0.930 . S
C206 O207 1.224 . S
C206 O225 1.247 . S
O207 C206 1.224 . S
N208 Co198 2.128 . S
N208 C209 1.355 . S
N208 C211 1.311 . S
C209 N208 1.355 . S
C209 C210 1.363 . S
C209 H221 0.929 . S
C210 C209 1.363 . S
C210 N212 1.375 . S
C210 H228 0.931 . S
C211 N208 1.311 . S
C211 N212 1.347 . S
C211 H222 0.929 . S
N212 C210 1.375 . S
N212 C211 1.347 . S
C213 C216 1.365 . S
C213 N218 1.328 . S
C213 H219 0.929 . S
C214 C215 1.362 . S
C214 C217 1.378 . S
C214 H229 0.929 . S
C215 C214 1.362 . S
C215 C216 1.366 . S
C216 C213 1.365 . S
C216 C215 1.366 . S
C216 H230 0.930 . S
C217 C214 1.378 . S
C217 N218 1.315 . S
C217 H220 0.930 . S
N218 Co198 2.194 . S
N218 C213 1.328 . S
N218 C217 1.315 . S
H219 C213 0.929 . S
H220 C217 0.930 . S
H221 C209 0.929 . S
H222 C211 0.929 . S
O223 Co198 2.351 . S
O223 C226 1.244 . S
O224 Co198 2.155 . S
O224 C226 1.240 . S
O225 Co198 2.096 . S
O225 C206 1.247 . S
C226 O223 1.244 . S
C226 O224 1.240 . S
H227 C201 0.931 . S
H228 C210 0.931 . S
H229 C214 0.929 . S
H230 C216 0.930 . S
Co231 N235 2.148 . S
Co231 N241 2.128 . S
Co231 N251 2.194 . S
Co231 O256 2.351 . S
Co231 O257 2.155 . S
Co231 O258 2.096 . S
C232 N235 1.301 . S
C232 N236 1.328 . S
C232 H237 0.930 . S
C233 C234 1.333 . S
C233 N235 1.317 . S
C233 H238 0.930 . S
C234 C233 1.333 . S
C234 N236 1.350 . S
C234 H260 0.931 . S
N235 Co231 2.148 . S
N235 C232 1.301 . S
N235 C233 1.317 . S
N236 C232 1.328 . S
N236 C234 1.350 . S
H237 C232 0.930 . S
H238 C233 0.930 . S
C239 O240 1.224 . S
C239 O258 1.247 . S
O240 C239 1.224 . S
N241 Co231 2.128 . S
N241 C242 1.355 . S
N241 C244 1.311 . S
C242 N241 1.355 . S
C242 C243 1.363 . S
C242 H254 0.929 . S
C243 C242 1.363 . S
C243 N245 1.375 . S
C243 H261 0.931 . S
C244 N241 1.311 . S
C244 N245 1.347 . S
C244 H255 0.929 . S
N245 C243 1.375 . S
N245 C244 1.347 . S
C246 C249 1.365 . S
C246 N251 1.328 . S
C246 H252 0.929 . S
C247 C248 1.362 . S
C247 C250 1.378 . S
C247 H262 0.929 . S
C248 C247 1.362 . S
C248 C249 1.366 . S
C249 C246 1.365 . S
C249 C248 1.366 . S
C249 H263 0.930 . S
C250 C247 1.378 . S
C250 N251 1.315 . S
C250 H253 0.930 . S
N251 Co231 2.194 . S
N251 C246 1.328 . S
N251 C250 1.315 . S
H252 C246 0.929 . S
H253 C250 0.930 . S
H254 C242 0.929 . S
H255 C244 0.929 . S
O256 Co231 2.351 . S
O256 C259 1.244 . S
O257 Co231 2.155 . S
O257 C259 1.240 . S
O258 Co231 2.096 . S
O258 C239 1.247 . S
C259 O256 1.244 . S
C259 O257 1.240 . S
H260 C234 0.931 . S
H261 C243 0.931 . S
H262 C247 0.929 . S
H263 C249 0.930 . S
Co264 N268 2.148 1_554 S
Co264 N274 2.128 . S
Co264 N284 2.194 . S
Co264 O289 2.351 . S
Co264 O290 2.155 . S
Co264 O291 2.096 . S
C265 N268 1.301 . S
C265 N269 1.328 . S
C265 H270 0.930 . S
C266 C267 1.333 . S
C266 N268 1.317 . S
C266 H271 0.930 . S
C267 C266 1.333 . S
C267 N269 1.350 . S
C267 H293 0.931 . S
N268 Co264 2.148 1_556 S
N268 C265 1.301 . S
N268 C266 1.317 . S
N269 C265 1.328 . S
N269 C267 1.350 . S
H270 C265 0.930 . S
H271 C266 0.930 . S
C272 O273 1.224 . S
C272 O291 1.247 . S
O273 C272 1.224 . S
N274 Co264 2.128 . S
N274 C275 1.355 . S
N274 C277 1.311 . S
C275 N274 1.355 . S
C275 C276 1.363 . S
C275 H287 0.929 . S
C276 C275 1.363 . S
C276 N278 1.375 . S
C276 H294 0.931 . S
C277 N274 1.311 . S
C277 N278 1.347 . S
C277 H288 0.929 . S
N278 C276 1.375 . S
N278 C277 1.347 . S
C279 C282 1.365 . S
C279 N284 1.328 . S
C279 H285 0.929 . S
C280 C281 1.362 . S
C280 C283 1.378 . S
C280 H295 0.929 . S
C281 C280 1.362 . S
C281 C282 1.366 . S
C282 C279 1.365 . S
C282 C281 1.366 . S
C282 H296 0.930 . S
C283 C280 1.378 . S
C283 N284 1.315 . S
C283 H286 0.930 . S
N284 Co264 2.194 . S
N284 C279 1.328 . S
N284 C283 1.315 . S
H285 C279 0.929 . S
H286 C283 0.930 . S
H287 C275 0.929 . S
H288 C277 0.929 . S
O289 Co264 2.351 . S
O289 C292 1.244 . S
O290 Co264 2.155 . S
O290 C292 1.240 . S
O291 Co264 2.096 . S
O291 C272 1.247 . S
C292 O289 1.244 . S
C292 O290 1.240 . S
H293 C267 0.931 . S
H294 C276 0.931 . S
H295 C280 0.929 . S
H296 C282 0.930 . S
Co297 N301 2.148 . S
Co297 N307 2.128 . S
Co297 N317 2.194 . S
Co297 O322 2.351 . S
Co297 O323 2.155 . S
Co297 O324 2.096 . S
C298 N301 1.301 . S
C298 N302 1.328 . S
C298 H303 0.930 . S
C299 C300 1.333 . S
C299 N301 1.317 . S
C299 H304 0.930 . S
C300 C299 1.333 . S
C300 N302 1.350 . S
C300 H326 0.931 . S
N301 Co297 2.148 . S
N301 C298 1.301 . S
N301 C299 1.317 . S
N302 C298 1.328 . S
N302 C300 1.350 . S
H303 C298 0.930 . S
H304 C299 0.930 . S
C305 O306 1.224 . S
C305 O324 1.247 . S
O306 C305 1.224 . S
N307 Co297 2.128 . S
N307 C308 1.355 . S
N307 C310 1.311 . S
C308 N307 1.355 . S
C308 C309 1.363 . S
C308 H320 0.929 . S
C309 C308 1.363 . S
C309 N311 1.375 . S
C309 H327 0.931 . S
C310 N307 1.311 . S
C310 N311 1.347 . S
C310 H321 0.929 . S
N311 C309 1.375 . S
N311 C310 1.347 . S
C312 C315 1.365 . S
C312 N317 1.328 . S
C312 H318 0.929 . S
C313 C314 1.362 . S
C313 C316 1.378 . S
C313 H328 0.929 . S
C314 C313 1.362 . S
C314 C315 1.366 . S
C315 C312 1.365 . S
C315 C314 1.366 . S
C315 H329 0.930 . S
C316 C313 1.378 . S
C316 N317 1.315 . S
C316 H319 0.930 . S
N317 Co297 2.194 . S
N317 C312 1.328 . S
N317 C316 1.315 . S
H318 C312 0.929 . S
H319 C316 0.930 . S
H320 C308 0.929 . S
H321 C310 0.929 . S
O322 Co297 2.351 . S
O322 C325 1.244 . S
O323 Co297 2.155 . S
O323 C325 1.240 . S
O324 Co297 2.096 . S
O324 C305 1.247 . S
C325 O322 1.244 . S
C325 O323 1.240 . S
H326 C300 0.931 . S
H327 C309 0.931 . S
H328 C313 0.929 . S
H329 C315 0.930 . S
Co330 N334 2.148 . S
Co330 N340 2.128 . S
Co330 N350 2.194 . S
Co330 O355 2.351 . S
Co330 O356 2.155 . S
Co330 O357 2.096 . S
C331 N334 1.301 . S
C331 N335 1.328 . S
C331 H336 0.930 . S
C332 C333 1.333 . S
C332 N334 1.317 . S
C332 H337 0.930 . S
C333 C332 1.333 . S
C333 N335 1.350 . S
C333 H359 0.931 . S
N334 Co330 2.148 . S
N334 C331 1.301 . S
N334 C332 1.317 . S
N335 C331 1.328 . S
N335 C333 1.350 . S
H336 C331 0.930 . S
H337 C332 0.930 . S
C338 O339 1.224 . S
C338 O357 1.247 . S
O339 C338 1.224 . S
N340 Co330 2.128 . S
N340 C341 1.355 . S
N340 C343 1.311 . S
C341 N340 1.355 . S
C341 C342 1.363 . S
C341 H353 0.929 . S
C342 C341 1.363 . S
C342 N344 1.375 . S
C342 H360 0.931 . S
C343 N340 1.311 . S
C343 N344 1.347 . S
C343 H354 0.929 . S
N344 C342 1.375 . S
N344 C343 1.347 . S
C345 C348 1.365 . S
C345 N350 1.328 . S
C345 H351 0.929 . S
C346 C347 1.362 . S
C346 C349 1.378 . S
C346 H361 0.929 . S
C347 C346 1.362 . S
C347 C348 1.366 . S
C348 C345 1.365 . S
C348 C347 1.366 . S
C348 H362 0.930 . S
C349 C346 1.378 . S
C349 N350 1.315 . S
C349 H352 0.930 . S
N350 Co330 2.194 . S
N350 C345 1.328 . S
N350 C349 1.315 . S
H351 C345 0.929 . S
H352 C349 0.930 . S
H353 C341 0.929 . S
H354 C343 0.929 . S
O355 Co330 2.351 . S
O355 C358 1.244 . S
O356 Co330 2.155 . S
O356 C358 1.240 . S
O357 Co330 2.096 . S
O357 C338 1.247 . S
C358 O355 1.244 . S
C358 O356 1.240 . S
H359 C333 0.931 . S
H360 C342 0.931 . S
H361 C346 0.929 . S
H362 C348 0.930 . S
Co363 N367 2.148 1_554 S
Co363 N373 2.128 . S
Co363 N383 2.194 . S
Co363 O388 2.351 . S
Co363 O389 2.155 . S
Co363 O390 2.096 . S
C364 N367 1.301 . S
C364 N368 1.328 . S
C364 H369 0.930 . S
C365 C366 1.333 . S
C365 N367 1.317 . S
C365 H370 0.930 . S
C366 C365 1.333 . S
C366 N368 1.350 . S
C366 H392 0.931 . S
N367 Co363 2.148 1_556 S
N367 C364 1.301 . S
N367 C365 1.317 . S
N368 C364 1.328 . S
N368 C366 1.350 . S
H369 C364 0.930 . S
H370 C365 0.930 . S
C371 O372 1.224 . S
C371 O390 1.247 . S
O372 C371 1.224 . S
N373 Co363 2.128 . S
N373 C374 1.355 . S
N373 C376 1.311 . S
C374 N373 1.355 . S
C374 C375 1.363 . S
C374 H386 0.929 . S
C375 C374 1.363 . S
C375 N377 1.375 . S
C375 H393 0.931 . S
C376 N373 1.311 . S
C376 N377 1.347 . S
C376 H387 0.929 . S
N377 C375 1.375 . S
N377 C376 1.347 . S
C378 C381 1.365 . S
C378 N383 1.328 . S
C378 H384 0.929 . S
C379 C380 1.362 . S
C379 C382 1.378 . S
C379 H394 0.929 . S
C380 C379 1.362 . S
C380 C381 1.366 . S
C381 C378 1.365 . S
C381 C380 1.366 . S
C381 H395 0.930 . S
C382 C379 1.378 . S
C382 N383 1.315 . S
C382 H385 0.930 . S
N383 Co363 2.194 . S
N383 C378 1.328 . S
N383 C382 1.315 . S
H384 C378 0.929 . S
H385 C382 0.930 . S
H386 C374 0.929 . S
H387 C376 0.929 . S
O388 Co363 2.351 . S
O388 C391 1.244 . S
O389 Co363 2.155 . S
O389 C391 1.240 . S
O390 Co363 2.096 . S
O390 C371 1.247 . S
C391 O388 1.244 . S
C391 O389 1.240 . S
H392 C366 0.931 . S
H393 C375 0.931 . S
H394 C379 0.929 . S
H395 C381 0.930 . S
H396 C404 0.950 . S
H397 C409 0.950 . S
H398 C406 0.950 . S
H399 C408 0.950 1_556 S
H400 C410 0.950 . S
H401 C412 0.950 . S
H402 C414 0.950 1_554 S
H403 C415 0.950 . S
C404 H396 0.950 . S
C404 C405 1.386 . S
C404 C406 1.391 . S
C405 C404 1.386 . S
C405 C409 1.393 . S
C406 H398 0.950 . S
C406 C404 1.391 . S
C406 C407 1.400 . S
C407 C406 1.400 . S
C407 C408 1.398 . S
C407 C413 1.491 1_554 S
C408 H399 0.950 1_554 S
C408 C407 1.398 . S
C408 C409 1.391 . S
C409 H397 0.950 . S
C409 C405 1.393 . S
C409 C408 1.391 . S
C410 H400 0.950 . S
C410 C411 1.386 . S
C410 C412 1.391 . S
C411 C410 1.386 . S
C411 C415 1.393 . S
C412 H401 0.950 . S
C412 C410 1.391 . S
C412 C413 1.400 . S
C413 C407 1.491 1_556 S
C413 C412 1.400 . S
C413 C414 1.398 . S
C414 H402 0.950 1_556 S
C414 C413 1.398 . S
C414 C415 1.391 . S
C415 H403 0.950 . S
C415 C411 1.393 . S
C415 C414 1.391 . S
H416 C424 0.950 . S
H417 C429 0.950 . S
H418 C426 0.950 . S
H419 C428 0.950 . S
H420 C430 0.950 . S
H421 C432 0.950 . S
H422 C434 0.950 . S
H423 C435 0.950 . S
C424 H416 0.950 . S
C424 C425 1.386 . S
C424 C426 1.391 . S
C425 C424 1.386 . S
C425 C429 1.393 . S
C426 H418 0.950 . S
C426 C424 1.391 . S
C426 C427 1.400 . S
C427 C426 1.400 . S
C427 C428 1.398 . S
C427 C433 1.491 . S
C428 H419 0.950 . S
C428 C427 1.398 . S
C428 C429 1.391 . S
C429 H417 0.950 . S
C429 C425 1.393 . S
C429 C428 1.391 . S
C430 H420 0.950 . S
C430 C431 1.386 . S
C430 C432 1.391 . S
C431 C430 1.386 . S
C431 C435 1.393 . S
C432 H421 0.950 . S
C432 C430 1.391 . S
C432 C433 1.400 . S
C433 C427 1.491 . S
C433 C432 1.400 . S
C433 C434 1.398 . S
C434 H422 0.950 . S
C434 C433 1.398 . S
C434 C435 1.391 . S
C435 H423 0.950 . S
C435 C431 1.393 . S
C435 C434 1.391 . S
H436 C444 0.950 . S
H437 C449 0.950 . S
H438 C446 0.950 . S
H439 C448 0.950 . S
H440 C450 0.950 . S
H441 C452 0.950 . S
H442 C454 0.950 . S
H443 C455 0.950 . S
C444 H436 0.950 . S
C444 C445 1.386 . S
C444 C446 1.391 . S
C445 C444 1.386 . S
C445 C449 1.393 . S
C446 H438 0.950 . S
C446 C444 1.391 . S
C446 C447 1.400 . S
C447 C446 1.400 . S
C447 C448 1.398 . S
C447 C453 1.491 . S
C448 H439 0.950 . S
C448 C447 1.398 . S
C448 C449 1.391 . S
C449 H437 0.950 . S
C449 C445 1.393 . S
C449 C448 1.391 . S
C450 H440 0.950 . S
C450 C451 1.386 . S
C450 C452 1.391 . S
C451 C450 1.386 . S
C451 C455 1.393 . S
C452 H441 0.950 . S
C452 C450 1.391 . S
C452 C453 1.400 . S
C453 C447 1.491 . S
C453 C452 1.400 . S
C453 C454 1.398 . S
C454 H442 0.950 . S
C454 C453 1.398 . S
C454 C455 1.391 . S
C455 H443 0.950 . S
C455 C451 1.393 . S
C455 C454 1.391 . S
H456 C464 0.950 . S
H457 C469 0.950 . S
H458 C466 0.950 1_554 S
H459 C468 0.950 . S
H460 C470 0.950 . S
H461 C472 0.950 1_556 S
H462 C474 0.950 . S
H463 C475 0.950 . S
C464 H456 0.950 . S
C464 C465 1.386 . S
C464 C466 1.391 . S
C465 C464 1.386 . S
C465 C469 1.393 . S
C466 H458 0.950 1_556 S
C466 C464 1.391 . S
C466 C467 1.400 . S
C467 C466 1.400 . S
C467 C468 1.398 . S
C467 C473 1.491 1_556 S
C468 H459 0.950 . S
C468 C467 1.398 . S
C468 C469 1.391 . S
C469 H457 0.950 . S
C469 C465 1.393 . S
C469 C468 1.391 . S
C470 H460 0.950 . S
C470 C471 1.386 . S
C470 C472 1.391 . S
C471 C470 1.386 . S
C471 C475 1.393 . S
C472 H461 0.950 1_554 S
C472 C470 1.391 . S
C472 C473 1.400 . S
C473 C467 1.491 1_554 S
C473 C472 1.400 . S
C473 C474 1.398 . S
C474 H462 0.950 . S
C474 C473 1.398 . S
C474 C475 1.391 . S
C475 H463 0.950 . S
C475 C471 1.393 . S
C475 C474 1.391 . S
H476 C484 0.950 . S
H477 C489 0.950 . S
H478 C486 0.950 . S
H479 C488 0.950 . S
H480 C490 0.950 . S
H481 C492 0.950 . S
H482 C494 0.950 . S
H483 C495 0.950 . S
C484 H476 0.950 . S
C484 C485 1.386 . S
C484 C486 1.391 . S
C485 C484 1.386 . S
C485 C489 1.393 . S
C486 H478 0.950 . S
C486 C484 1.391 . S
C486 C487 1.400 . S
C487 C486 1.400 . S
C487 C488 1.398 . S
C487 C493 1.491 . S
C488 H479 0.950 . S
C488 C487 1.398 . S
C488 C489 1.391 . S
C489 H477 0.950 . S
C489 C485 1.393 . S
C489 C488 1.391 . S
C490 H480 0.950 . S
C490 C491 1.386 . S
C490 C492 1.391 . S
C491 C490 1.386 . S
C491 C495 1.393 . S
C492 H481 0.950 . S
C492 C490 1.391 . S
C492 C493 1.400 . S
C493 C487 1.491 . S
C493 C492 1.400 . S
C493 C494 1.398 . S
C494 H482 0.950 . S
C494 C493 1.398 . S
C494 C495 1.391 . S
C495 H483 0.950 . S
C495 C491 1.393 . S
C495 C494 1.391 . S
H496 C504 0.950 . S
H497 C509 0.950 . S
H498 C506 0.950 . S
H499 C508 0.950 . S
H500 C510 0.950 . S
H501 C512 0.950 . S
H502 C514 0.950 . S
H503 C515 0.950 . S
C504 H496 0.950 . S
C504 C505 1.386 . S
C504 C506 1.391 . S
C505 C504 1.386 . S
C505 C509 1.393 . S
C506 H498 0.950 . S
C506 C504 1.391 . S
C506 C507 1.400 . S
C507 C506 1.400 . S
C507 C508 1.398 . S
C507 C513 1.491 . S
C508 H499 0.950 . S
C508 C507 1.398 . S
C508 C509 1.391 . S
C509 H497 0.950 . S
C509 C505 1.393 . S
C509 C508 1.391 . S
C510 H500 0.950 . S
C510 C511 1.386 . S
C510 C512 1.391 . S
C511 C510 1.386 . S
C511 C515 1.393 . S
C512 H501 0.950 . S
C512 C510 1.391 . S
C512 C513 1.400 . S
C513 C507 1.491 . S
C513 C512 1.400 . S
C513 C514 1.398 . S
C514 H502 0.950 . S
C514 C513 1.398 . S
C514 C515 1.391 . S
C515 H503 0.950 . S
C515 C511 1.393 . S
C515 C514 1.391 . S
H516 C524 0.950 . S
H517 C529 0.950 . S
H518 C526 0.950 . S
H519 C528 0.950 . S
H520 C530 0.950 . S
H521 C532 0.950 . S
H522 C534 0.950 . S
H523 C535 0.950 . S
C524 H516 0.950 . S
C524 C525 1.386 . S
C524 C526 1.391 . S
C525 C524 1.386 . S
C525 C529 1.393 . S
C526 H518 0.950 . S
C526 C524 1.391 . S
C526 C527 1.400 . S
C527 C526 1.400 . S
C527 C528 1.398 . S
C527 C533 1.491 . S
C528 H519 0.950 . S
C528 C527 1.398 . S
C528 C529 1.391 . S
C529 H517 0.950 . S
C529 C525 1.393 . S
C529 C528 1.391 . S
C530 H520 0.950 . S
C530 C531 1.386 . S
C530 C532 1.391 . S
C531 C530 1.386 . S
C531 C535 1.393 . S
C532 H521 0.950 . S
C532 C530 1.391 . S
C532 C533 1.400 . S
C533 C527 1.491 . S
C533 C532 1.400 . S
C533 C534 1.398 . S
C534 H522 0.950 . S
C534 C533 1.398 . S
C534 C535 1.391 . S
C535 H523 0.950 . S
C535 C531 1.393 . S
C535 C534 1.391 . S
H536 C544 0.950 . S
H537 C549 0.950 . S
H538 C546 0.950 . S
H539 C548 0.950 . S
H540 C550 0.950 . S
H541 C552 0.950 . S
H542 C554 0.950 . S
H543 C555 0.950 . S
C544 H536 0.950 . S
C544 C545 1.386 . S
C544 C546 1.391 . S
C545 C544 1.386 . S
C545 C549 1.393 . S
C546 H538 0.950 . S
C546 C544 1.391 . S
C546 C547 1.400 . S
C547 C546 1.400 . S
C547 C548 1.398 . S
C547 C553 1.491 . S
C548 H539 0.950 . S
C548 C547 1.398 . S
C548 C549 1.391 . S
C549 H537 0.950 . S
C549 C545 1.393 . S
C549 C548 1.391 . S
C550 H540 0.950 . S
C550 C551 1.386 . S
C550 C552 1.391 . S
C551 C550 1.386 . S
C551 C555 1.393 . S
C552 H541 0.950 . S
C552 C550 1.391 . S
C552 C553 1.400 . S
C553 C547 1.491 . S
C553 C552 1.400 . S
C553 C554 1.398 . S
C554 H542 0.950 . S
C554 C553 1.398 . S
C554 C555 1.391 . S
C555 H543 0.950 . S
C555 C551 1.393 . S
C555 C554 1.391 . S
H556 C564 0.950 1_554 S
H557 C569 0.950 . S
H558 C566 0.950 . S
H559 C568 0.950 . S
H560 C570 0.950 1_556 S
H561 C572 0.950 . S
H562 C574 0.950 . S
H563 C575 0.950 . S
C564 H556 0.950 1_556 S
C564 C565 1.386 . S
C564 C566 1.391 1_556 S
C565 C564 1.386 . S
C565 C569 1.393 . S
C566 H558 0.950 . S
C566 C564 1.391 1_554 S
C566 C567 1.400 1_554 S
C567 C566 1.400 1_556 S
C567 C568 1.398 . S
C567 C573 1.491 1_556 S
C568 H559 0.950 . S
C568 C567 1.398 . S
C568 C569 1.391 . S
C569 H557 0.950 . S
C569 C565 1.393 . S
C569 C568 1.391 . S
C570 H560 0.950 1_554 S
C570 C571 1.386 . S
C570 C572 1.391 1_554 S
C571 C570 1.386 . S
C571 C575 1.393 . S
C572 H561 0.950 . S
C572 C570 1.391 1_556 S
C572 C573 1.400 1_556 S
C573 C567 1.491 1_554 S
C573 C572 1.400 1_554 S
C573 C574 1.398 . S
C574 H562 0.950 . S
C574 C573 1.398 . S
C574 C575 1.391 . S
C575 H563 0.950 . S
C575 C571 1.393 . S
C575 C574 1.391 . S
H576 C584 0.950 . S
H577 C589 0.950 . S
H578 C586 0.950 . S
H579 C588 0.950 . S
H580 C590 0.950 . S
H581 C592 0.950 . S
H582 C594 0.950 . S
H583 C595 0.950 . S
C584 H576 0.950 . S
C584 C585 1.386 . S
C584 C586 1.391 . S
C585 C584 1.386 . S
C585 C589 1.393 . S
C586 H578 0.950 . S
C586 C584 1.391 . S
C586 C587 1.400 . S
C587 C586 1.400 . S
C587 C588 1.398 . S
C587 C593 1.491 . S
C588 H579 0.950 . S
C588 C587 1.398 . S
C588 C589 1.391 . S
C589 H577 0.950 . S
C589 C585 1.393 . S
C589 C588 1.391 . S
C590 H580 0.950 . S
C590 C591 1.386 . S
C590 C592 1.391 . S
C591 C590 1.386 . S
C591 C595 1.393 . S
C592 H581 0.950 . S
C592 C590 1.391 . S
C592 C593 1.400 . S
C593 C587 1.491 . S
C593 C592 1.400 . S
C593 C594 1.398 . S
C594 H582 0.950 . S
C594 C593 1.398 . S
C594 C595 1.391 . S
C595 H583 0.950 . S
C595 C591 1.393 . S
C595 C594 1.391 . S
H596 C604 0.950 . S
H597 C609 0.950 . S
H598 C606 0.950 . S
H599 C608 0.950 . S
H600 C610 0.950 . S
H601 C612 0.950 . S
H602 C614 0.950 . S
H603 C615 0.950 . S
C604 H596 0.950 . S
C604 C605 1.386 . S
C604 C606 1.391 . S
C605 C604 1.386 . S
C605 C609 1.393 . S
C606 H598 0.950 . S
C606 C604 1.391 . S
C606 C607 1.400 . S
C607 C606 1.400 . S
C607 C608 1.398 . S
C607 C613 1.491 . S
C608 H599 0.950 . S
C608 C607 1.398 . S
C608 C609 1.391 . S
C609 H597 0.950 . S
C609 C605 1.393 . S
C609 C608 1.391 . S
C610 H600 0.950 . S
C610 C611 1.386 . S
C610 C612 1.391 . S
C611 C610 1.386 . S
C611 C615 1.393 . S
C612 H601 0.950 . S
C612 C610 1.391 . S
C612 C613 1.400 . S
C613 C607 1.491 . S
C613 C612 1.400 . S
C613 C614 1.398 . S
C614 H602 0.950 . S
C614 C613 1.398 . S
C614 C615 1.391 . S
C615 H603 0.950 . S
C615 C611 1.393 . S
C615 C614 1.391 . S
H616 C624 0.950 . S
H617 C629 0.950 . S
H618 C626 0.950 . S
H619 C628 0.950 . S
H620 C630 0.950 . S
H621 C632 0.950 . S
H622 C634 0.950 . S
H623 C635 0.950 . S
C624 H616 0.950 . S
C624 C625 1.386 . S
C624 C626 1.391 . S
C625 C624 1.386 . S
C625 C629 1.393 1_554 S
C626 H618 0.950 . S
C626 C624 1.391 . S
C626 C627 1.400 . S
C627 C626 1.400 . S
C627 C628 1.398 1_554 S
C627 C633 1.491 1_554 S
C628 H619 0.950 . S
C628 C627 1.398 1_556 S
C628 C629 1.391 . S
C629 H617 0.950 . S
C629 C625 1.393 1_556 S
C629 C628 1.391 . S
C630 H620 0.950 . S
C630 C631 1.386 . S
C630 C632 1.391 . S
C631 C630 1.386 . S
C631 C635 1.393 1_556 S
C632 H621 0.950 . S
C632 C630 1.391 . S
C632 C633 1.400 . S
C633 C627 1.491 1_556 S
C633 C632 1.400 . S
C633 C634 1.398 1_556 S
C634 H622 0.950 . S
C634 C633 1.398 1_554 S
C634 C635 1.391 . S
C635 H623 0.950 . S
C635 C631 1.393 1_554 S
C635 C634 1.391 . S
H636 C644 0.950 . S
H637 C649 0.950 . S
H638 C646 0.950 . S
H639 C648 0.950 . S
H640 C650 0.950 . S
H641 C652 0.950 . S
H642 C654 0.950 . S
H643 C655 0.950 . S
C644 H636 0.950 . S
C644 C645 1.386 . S
C644 C646 1.391 . S
C645 C644 1.386 . S
C645 C649 1.393 . S
C646 H638 0.950 . S
C646 C644 1.391 . S
C646 C647 1.400 . S
C647 C646 1.400 . S
C647 C648 1.398 . S
C647 C653 1.491 . S
C648 H639 0.950 . S
C648 C647 1.398 . S
C648 C649 1.391 . S
C649 H637 0.950 . S
C649 C645 1.393 . S
C649 C648 1.391 . S
C650 H640 0.950 . S
C650 C651 1.386 . S
C650 C652 1.391 . S
C651 C650 1.386 . S
C651 C655 1.393 . S
C652 H641 0.950 . S
C652 C650 1.391 . S
C652 C653 1.400 . S
C653 C647 1.491 . S
C653 C652 1.400 . S
C653 C654 1.398 . S
C654 H642 0.950 . S
C654 C653 1.398 . S
C654 C655 1.391 . S
C655 H643 0.950 . S
C655 C651 1.393 . S
C655 C654 1.391 . S
H656 C664 0.950 . S
H657 C669 0.950 . S
H658 C666 0.950 . S
H659 C668 0.950 . S
H660 C670 0.950 . S
H661 C672 0.950 . S
H662 C674 0.950 . S
H663 C675 0.950 . S
C664 H656 0.950 . S
C664 C665 1.386 . S
C664 C666 1.391 . S
C665 C664 1.386 . S
C665 C669 1.393 . S
C666 H658 0.950 . S
C666 C664 1.391 . S
C666 C667 1.400 . S
C667 C666 1.400 . S
C667 C668 1.398 . S
C667 C673 1.491 1_455 S
C668 H659 0.950 . S
C668 C667 1.398 . S
C668 C669 1.391 . S
C669 H657 0.950 . S
C669 C665 1.393 . S
C669 C668 1.391 . S
C670 H660 0.950 . S
C670 C671 1.386 . S
C670 C672 1.391 . S
C671 C670 1.386 . S
C671 C675 1.393 . S
C672 H661 0.950 . S
C672 C670 1.391 . S
C672 C673 1.400 . S
C673 C667 1.491 1_655 S
C673 C672 1.400 . S
C673 C674 1.398 . S
C674 H662 0.950 . S
C674 C673 1.398 . S
C674 C675 1.391 . S
C675 H663 0.950 . S
C675 C671 1.393 . S
C675 C674 1.391 . S
H676 C684 0.950 . S
H677 C689 0.950 . S
H678 C686 0.950 . S
H679 C688 0.950 . S
H680 C690 0.950 . S
H681 C692 0.950 . S
H682 C694 0.950 . S
H683 C695 0.950 . S
C684 H676 0.950 . S
C684 C685 1.386 1_556 S
C684 C686 1.391 . S
C685 C684 1.386 1_554 S
C685 C689 1.393 . S
C686 H678 0.950 . S
C686 C684 1.391 . S
C686 C687 1.400 1_556 S
C687 C686 1.400 1_554 S
C687 C688 1.398 . S
C687 C693 1.491 1_544 S
C688 H679 0.950 . S
C688 C687 1.398 . S
C688 C689 1.391 . S
C689 H677 0.950 . S
C689 C685 1.393 . S
C689 C688 1.391 . S
C690 H680 0.950 . S
C690 C691 1.386 1_554 S
C690 C692 1.391 . S
C691 C690 1.386 1_556 S
C691 C695 1.393 . S
C692 H681 0.950 . S
C692 C690 1.391 . S
C692 C693 1.400 1_554 S
C693 C687 1.491 1_566 S
C693 C692 1.400 1_556 S
C693 C694 1.398 . S
C694 H682 0.950 . S
C694 C693 1.398 . S
C694 C695 1.391 . S
C695 H683 0.950 . S
C695 C691 1.393 . S
C695 C694 1.391 . S
H696 C704 0.950 . S
H697 C709 0.950 . S
H698 C706 0.950 . S
H699 C708 0.950 . S
H700 C710 0.950 . S
H701 C712 0.950 . S
H702 C714 0.950 . S
H703 C715 0.950 . S
C704 H696 0.950 . S
C704 C705 1.386 . S
C704 C706 1.391 . S
C705 C704 1.386 . S
C705 C709 1.393 . S
C706 H698 0.950 . S
C706 C704 1.391 . S
C706 C707 1.400 . S
C707 C706 1.400 . S
C707 C708 1.398 . S
C707 C713 1.491 . S
C708 H699 0.950 . S
C708 C707 1.398 . S
C708 C709 1.391 . S
C709 H697 0.950 . S
C709 C705 1.393 . S
C709 C708 1.391 . S
C710 H700 0.950 . S
C710 C711 1.386 . S
C710 C712 1.391 . S
C711 C710 1.386 . S
C711 C715 1.393 . S
C712 H701 0.950 . S
C712 C710 1.391 . S
C712 C713 1.400 . S
C713 C707 1.491 . S
C713 C712 1.400 . S
C713 C714 1.398 . S
C714 H702 0.950 . S
C714 C713 1.398 . S
C714 C715 1.391 . S
C715 H703 0.950 . S
C715 C711 1.393 . S
C715 C714 1.391 . S
H716 C724 0.950 . S
H717 C729 0.950 . S
H718 C726 0.950 . S
H719 C728 0.950 . S
H720 C730 0.950 . S
H721 C732 0.950 . S
H722 C734 0.950 . S
H723 C735 0.950 . S
C724 H716 0.950 . S
C724 C725 1.386 . S
C724 C726 1.391 . S
C725 C724 1.386 . S
C725 C729 1.393 . S
C726 H718 0.950 . S
C726 C724 1.391 . S
C726 C727 1.400 . S
C727 C726 1.400 . S
C727 C728 1.398 . S
C727 C733 1.491 1_455 S
C728 H719 0.950 . S
C728 C727 1.398 . S
C728 C729 1.391 . S
C729 H717 0.950 . S
C729 C725 1.393 . S
C729 C728 1.391 . S
C730 H720 0.950 . S
C730 C731 1.386 . S
C730 C732 1.391 . S
C731 C730 1.386 . S
C731 C735 1.393 . S
C732 H721 0.950 . S
C732 C730 1.391 . S
C732 C733 1.400 . S
C733 C727 1.491 1_655 S
C733 C732 1.400 . S
C733 C734 1.398 . S
C734 H722 0.950 . S
C734 C733 1.398 . S
C734 C735 1.391 . S
C735 H723 0.950 . S
C735 C731 1.393 . S
C735 C734 1.391 . S
H736 C744 0.950 . S
H737 C749 0.950 . S
H738 C746 0.950 . S
H739 C748 0.950 . S
H740 C750 0.950 . S
H741 C752 0.950 . S
H742 C754 0.950 . S
H743 C755 0.950 . S
C744 H736 0.950 . S
C744 C745 1.386 . S
C744 C746 1.391 . S
C745 C744 1.386 . S
C745 C749 1.393 1_556 S
C746 H738 0.950 . S
C746 C744 1.391 . S
C746 C747 1.400 . S
C747 C746 1.400 . S
C747 C748 1.398 1_556 S
C747 C753 1.491 1_546 S
C748 H739 0.950 . S
C748 C747 1.398 1_554 S
C748 C749 1.391 . S
C749 H737 0.950 . S
C749 C745 1.393 1_554 S
C749 C748 1.391 . S
C750 H740 0.950 . S
C750 C751 1.386 . S
C750 C752 1.391 . S
C751 C750 1.386 . S
C751 C755 1.393 1_554 S
C752 H741 0.950 . S
C752 C750 1.391 . S
C752 C753 1.400 . S
C753 C747 1.491 1_564 S
C753 C752 1.400 . S
C753 C754 1.398 1_554 S
C754 H742 0.950 . S
C754 C753 1.398 1_556 S
C754 C755 1.391 . S
C755 H743 0.950 . S
C755 C751 1.393 1_556 S
C755 C754 1.391 . S
H756 C764 0.950 . S
H757 C769 0.950 . S
H758 C766 0.950 . S
H759 C768 0.950 . S
H760 C770 0.950 . S
H761 C772 0.950 . S
H762 C774 0.950 . S
H763 C775 0.950 . S
C764 H756 0.950 . S
C764 C765 1.386 . S
C764 C766 1.391 . S
C765 C764 1.386 . S
C765 C769 1.393 . S
C766 H758 0.950 . S
C766 C764 1.391 . S
C766 C767 1.400 . S
C767 C766 1.400 . S
C767 C768 1.398 . S
C767 C773 1.491 . S
C768 H759 0.950 . S
C768 C767 1.398 . S
C768 C769 1.391 . S
C769 H757 0.950 . S
C769 C765 1.393 . S
C769 C768 1.391 . S
C770 H760 0.950 . S
C770 C771 1.386 . S
C770 C772 1.391 . S
C771 C770 1.386 . S
C771 C775 1.393 . S
C772 H761 0.950 . S
C772 C770 1.391 . S
C772 C773 1.400 . S
C773 C767 1.491 . S
C773 C772 1.400 . S
C773 C774 1.398 . S
C774 H762 0.950 . S
C774 C773 1.398 . S
C774 C775 1.391 . S
C775 H763 0.950 . S
C775 C771 1.393 . S
C775 C774 1.391 . S
H776 C784 0.950 . S
H777 C789 0.950 . S
H778 C786 0.950 . S
H779 C788 0.950 . S
H780 C790 0.950 . S
H781 C792 0.950 . S
H782 C794 0.949 1_554 S
H783 C795 0.950 . S
C784 H776 0.950 . S
C784 C785 1.386 . S
C784 C786 1.391 . S
C785 C784 1.386 . S
C785 C789 1.393 . S
C786 H778 0.950 . S
C786 C784 1.391 . S
C786 C787 1.400 . S
C787 C786 1.400 . S
C787 C788 1.398 . S
C787 C793 1.491 . S
C788 H779 0.950 . S
C788 C787 1.398 . S
C788 C789 1.391 . S
C789 H777 0.950 . S
C789 C785 1.393 . S
C789 C788 1.391 . S
C790 H780 0.950 . S
C790 C791 1.386 . S
C790 C792 1.391 1_556 S
C791 C790 1.386 . S
C791 C795 1.393 . S
C792 H781 0.950 . S
C792 C790 1.391 1_554 S
C792 C793 1.400 . S
C793 C787 1.491 . S
C793 C792 1.400 . S
C793 C794 1.397 1_554 S
C794 H782 0.949 1_556 S
C794 C793 1.397 1_556 S
C794 C795 1.393 . S
C795 H783 0.950 . S
C795 C791 1.393 . S
C795 C794 1.393 . S
H796 C804 0.950 . S
H797 C809 0.950 . S
H798 C806 0.950 . S
H799 C808 0.950 . S
H800 C810 0.950 . S
H801 C812 0.950 . S
H802 C814 0.950 . S
H803 C815 0.950 . S
C804 H796 0.950 . S
C804 C805 1.386 . S
C804 C806 1.391 . S
C805 C804 1.386 . S
C805 C809 1.393 . S
C806 H798 0.950 . S
C806 C804 1.391 . S
C806 C807 1.400 . S
C807 C806 1.400 . S
C807 C808 1.398 . S
C807 C813 1.491 . S
C808 H799 0.950 . S
C808 C807 1.398 . S
C808 C809 1.391 . S
C809 H797 0.950 . S
C809 C805 1.393 . S
C809 C808 1.391 . S
C810 H800 0.950 . S
C810 C811 1.386 . S
C810 C812 1.391 . S
C811 C810 1.386 . S
C811 C815 1.393 . S
C812 H801 0.950 . S
C812 C810 1.391 . S
C812 C813 1.400 . S
C813 C807 1.491 . S
C813 C812 1.400 . S
C813 C814 1.398 . S
C814 H802 0.950 . S
C814 C813 1.398 . S
C814 C815 1.391 . S
C815 H803 0.950 . S
C815 C811 1.393 . S
C815 C814 1.391 . S
H816 C824 0.950 . S
H817 C829 0.950 . S
H818 C826 0.950 . S
H819 C828 0.950 . S
H820 C830 0.950 . S
H821 C832 0.950 . S
H822 C834 0.950 . S
H823 C835 0.950 . S
C824 H816 0.950 . S
C824 C825 1.386 . S
C824 C826 1.391 . S
C825 C824 1.386 . S
C825 C829 1.393 . S
C826 H818 0.950 . S
C826 C824 1.391 . S
C826 C827 1.400 . S
C827 C826 1.400 . S
C827 C828 1.398 . S
C827 C833 1.491 . S
C828 H819 0.950 . S
C828 C827 1.398 . S
C828 C829 1.391 . S
C829 H817 0.950 . S
C829 C825 1.393 . S
C829 C828 1.391 . S
C830 H820 0.950 . S
C830 C831 1.386 . S
C830 C832 1.391 . S
C831 C830 1.386 . S
C831 C835 1.393 . S
C832 H821 0.950 . S
C832 C830 1.391 . S
C832 C833 1.400 . S
C833 C827 1.491 . S
C833 C832 1.400 . S
C833 C834 1.398 . S
C834 H822 0.950 . S
C834 C833 1.398 . S
C834 C835 1.391 . S
C835 H823 0.950 . S
C835 C831 1.393 . S
C835 C834 1.391 . S
H836 C844 0.950 . S
H837 C849 0.950 . S
H838 C846 0.950 . S
H839 C848 0.950 . S
H840 C850 0.950 . S
H841 C852 0.950 1_554 S
H842 C854 0.950 . S
H843 C855 0.950 . S
C844 H836 0.950 . S
C844 C845 1.386 . S
C844 C846 1.391 . S
C845 C844 1.386 . S
C845 C849 1.393 . S
C846 H838 0.950 . S
C846 C844 1.391 . S
C846 C847 1.400 . S
C847 C846 1.400 . S
C847 C848 1.398 . S
C847 C853 1.491 . S
C848 H839 0.950 . S
C848 C847 1.398 . S
C848 C849 1.391 . S
C849 H837 0.950 . S
C849 C845 1.393 . S
C849 C848 1.391 . S
C850 H840 0.950 . S
C850 C851 1.386 . S
C850 C852 1.391 . S
C851 C850 1.386 . S
C851 C855 1.393 . S
C852 H841 0.950 1_556 S
C852 C850 1.391 . S
C852 C853 1.400 1_556 S
C853 C847 1.491 . S
C853 C852 1.400 1_554 S
C853 C854 1.398 . S
C854 H842 0.950 . S
C854 C853 1.398 . S
C854 C855 1.391 1_554 S
C855 H843 0.950 . S
C855 C851 1.393 . S
C855 C854 1.391 1_556 S
H856 C864 0.950 . S
H857 C869 0.950 . S
H858 C866 0.950 . S
H859 C868 0.950 . S
H860 C870 0.950 . S
H861 C872 0.950 . S
H862 C874 0.950 . S
H863 C875 0.950 . S
C864 H856 0.950 . S
C864 C865 1.386 . S
C864 C866 1.391 . S
C865 C864 1.386 . S
C865 C869 1.393 . S
C866 H858 0.950 . S
C866 C864 1.391 . S
C866 C867 1.400 . S
C867 C866 1.400 . S
C867 C868 1.398 . S
C867 C873 1.491 . S
C868 H859 0.950 . S
C868 C867 1.398 . S
C868 C869 1.391 . S
C869 H857 0.950 . S
C869 C865 1.393 . S
C869 C868 1.391 . S
C870 H860 0.950 . S
C870 C871 1.386 . S
C870 C872 1.391 . S
C871 C870 1.386 . S
C871 C875 1.393 . S
C872 H861 0.950 . S
C872 C870 1.391 . S
C872 C873 1.400 . S
C873 C867 1.491 . S
C873 C872 1.400 . S
C873 C874 1.398 . S
C874 H862 0.950 . S
C874 C873 1.398 . S
C874 C875 1.391 . S
C875 H863 0.950 . S
C875 C871 1.393 . S
C875 C874 1.391 . S
H876 C884 0.950 . S
H877 C889 0.950 . S
H878 C886 0.950 . S
H879 C888 0.950 1_556 S
H880 C890 0.950 . S
H881 C892 0.950 . S
H882 C894 0.950 . S
H883 C895 0.950 . S
C884 H876 0.950 . S
C884 C885 1.386 . S
C884 C886 1.391 1_554 S
C885 C884 1.386 . S
C885 C889 1.393 . S
C886 H878 0.950 . S
C886 C884 1.391 1_556 S
C886 C887 1.400 . S
C887 C886 1.400 . S
C887 C888 1.398 1_556 S
C887 C893 1.491 . S
C888 H879 0.950 1_554 S
C888 C887 1.398 1_554 S
C888 C889 1.391 . S
C889 H877 0.950 . S
C889 C885 1.393 . S
C889 C888 1.391 . S
C890 H880 0.950 . S
C890 C891 1.386 . S
C890 C892 1.391 . S
C891 C890 1.386 . S
C891 C895 1.393 . S
C892 H881 0.950 . S
C892 C890 1.391 . S
C892 C893 1.400 . S
C893 C887 1.491 . S
C893 C892 1.400 . S
C893 C894 1.398 . S
C894 H882 0.950 . S
C894 C893 1.398 . S
C894 C895 1.391 . S
C895 H883 0.950 . S
C895 C891 1.393 . S
C895 C894 1.391 . S
H896 C904 0.950 . S
H897 C909 0.950 . S
H898 C906 0.950 . S
H899 C908 0.950 . S
H900 C910 0.950 . S
H901 C912 0.950 . S
H902 C914 0.950 . S
H903 C915 0.950 . S
C904 H896 0.950 . S
C904 C905 1.386 . S
C904 C906 1.391 . S
C905 C904 1.386 . S
C905 C909 1.393 . S
C906 H898 0.950 . S
C906 C904 1.391 . S
C906 C907 1.400 . S
C907 C906 1.400 . S
C907 C908 1.398 . S
C907 C913 1.491 . S
C908 H899 0.950 . S
C908 C907 1.398 . S
C908 C909 1.391 . S
C909 H897 0.950 . S
C909 C905 1.393 . S
C909 C908 1.391 . S
C910 H900 0.950 . S
C910 C911 1.386 . S
C910 C912 1.391 . S
C911 C910 1.386 . S
C911 C915 1.393 . S
C912 H901 0.950 . S
C912 C910 1.391 . S
C912 C913 1.400 . S
C913 C907 1.491 . S
C913 C912 1.400 . S
C913 C914 1.398 . S
C914 H902 0.950 . S
C914 C913 1.398 . S
C914 C915 1.391 . S
C915 H903 0.950 . S
C915 C911 1.393 . S
C915 C914 1.391 . S
H916 C924 0.950 . S
H917 C929 0.950 . S
H918 C926 0.950 . S
H919 C928 0.950 . S
H920 C930 0.950 . S
H921 C932 0.950 . S
H922 C934 0.950 . S
H923 C935 0.950 . S
C924 H916 0.950 . S
C924 C925 1.386 . S
C924 C926 1.391 . S
C925 C924 1.386 . S
C925 C929 1.393 . S
C926 H918 0.950 . S
C926 C924 1.391 . S
C926 C927 1.400 . S
C927 C926 1.400 . S
C927 C928 1.398 . S
C927 C933 1.491 . S
C928 H919 0.950 . S
C928 C927 1.398 . S
C928 C929 1.391 . S
C929 H917 0.950 . S
C929 C925 1.393 . S
C929 C928 1.391 . S
C930 H920 0.950 . S
C930 C931 1.386 . S
C930 C932 1.391 . S
C931 C930 1.386 . S
C931 C935 1.393 . S
C932 H921 0.950 . S
C932 C930 1.391 . S
C932 C933 1.400 . S
C933 C927 1.491 . S
C933 C932 1.400 . S
C933 C934 1.398 . S
C934 H922 0.950 . S
C934 C933 1.398 . S
C934 C935 1.391 . S
C935 H923 0.950 . S
C935 C931 1.393 . S
C935 C934 1.391 . S
H936 C944 0.950 . S
H937 C949 0.950 . S
H938 C946 0.950 . S
H939 C948 0.950 . S
H940 C950 0.950 . S
H941 C952 0.950 1_556 S
H942 C954 0.950 . S
H943 C955 0.950 . S
C944 H936 0.950 . S
C944 C945 1.386 . S
C944 C946 1.391 . S
C945 C944 1.386 . S
C945 C949 1.393 . S
C946 H938 0.950 . S
C946 C944 1.391 . S
C946 C947 1.400 . S
C947 C946 1.400 . S
C947 C948 1.398 . S
C947 C953 1.491 . S
C948 H939 0.950 . S
C948 C947 1.398 . S
C948 C949 1.391 . S
C949 H937 0.950 . S
C949 C945 1.393 . S
C949 C948 1.391 . S
C950 H940 0.950 . S
C950 C951 1.386 . S
C950 C952 1.391 . S
C951 C950 1.386 . S
C951 C955 1.393 . S
C952 H941 0.950 1_554 S
C952 C950 1.391 . S
C952 C953 1.400 1_554 S
C953 C947 1.491 . S
C953 C952 1.400 1_556 S
C953 C954 1.398 . S
C954 H942 0.950 . S
C954 C953 1.398 . S
C954 C955 1.391 1_556 S
C955 H943 0.950 . S
C955 C951 1.393 . S
C955 C954 1.391 1_554 S
H956 C964 0.950 . S
H957 C969 0.950 . S
H958 C966 0.950 . S
H959 C968 0.950 . S
H960 C970 0.950 . S
H961 C972 0.950 . S
H962 C974 0.950 . S
H963 C975 0.950 . S
C964 H956 0.950 . S
C964 C965 1.386 . S
C964 C966 1.391 . S
C965 C964 1.386 . S
C965 C969 1.393 . S
C966 H958 0.950 . S
C966 C964 1.391 . S
C966 C967 1.400 . S
C967 C966 1.400 . S
C967 C968 1.398 . S
C967 C973 1.491 . S
C968 H959 0.950 . S
C968 C967 1.398 . S
C968 C969 1.391 . S
C969 H957 0.950 . S
C969 C965 1.393 . S
C969 C968 1.391 . S
C970 H960 0.950 . S
C970 C971 1.386 . S
C970 C972 1.391 . S
C971 C970 1.386 . S
C971 C975 1.393 . S
C972 H961 0.950 . S
C972 C970 1.391 . S
C972 C973 1.400 . S
C973 C967 1.491 . S
C973 C972 1.400 . S
C973 C974 1.398 . S
C974 H962 0.950 . S
C974 C973 1.398 . S
C974 C975 1.391 . S
C975 H963 0.950 . S
C975 C971 1.393 . S
C975 C974 1.391 . S
H976 C984 0.950 . S
H977 C989 0.950 . S
H978 C986 0.950 . S
H979 C988 0.950 . S
H980 C990 0.950 . S
H981 C992 0.950 . S
H982 C994 0.950 . S
H983 C995 0.950 . S
C984 H976 0.950 . S
C984 C985 1.386 . S
C984 C986 1.391 . S
C985 C984 1.386 . S
C985 C989 1.393 . S
C986 H978 0.950 . S
C986 C984 1.391 . S
C986 C987 1.400 . S
C987 C986 1.400 . S
C987 C988 1.398 . S
C987 C993 1.491 . S
C988 H979 0.950 . S
C988 C987 1.398 . S
C988 C989 1.391 . S
C989 H977 0.950 . S
C989 C985 1.393 . S
C989 C988 1.391 . S
C990 H980 0.950 . S
C990 C991 1.386 . S
C990 C992 1.391 . S
C991 C990 1.386 . S
C991 C995 1.393 . S
C992 H981 0.950 . S
C992 C990 1.391 . S
C992 C993 1.400 . S
C993 C987 1.491 . S
C993 C992 1.400 . S
C993 C994 1.398 . S
C994 H982 0.950 . S
C994 C993 1.398 . S
C994 C995 1.391 . S
C995 H983 0.950 . S
C995 C991 1.393 . S
C995 C994 1.391 . S
C405 C8 1.297 . S
C411 C338 1.308 . S
C425 C371 1.285 . S
C431 C41 1.294 . S
C445 C206 1.303 . S
C451 C74 1.291 . S
C465 C239 1.303 . S
C471 C107 1.291 . S
C485 C140 1.307 . S
C491 C272 1.295 . S
C505 C305 1.289 . S
C511 C173 1.300 . S
C525 C215 1.623 . S
C531 C17 1.631 . S
C545 C248 1.619 . S
C551 C50 1.626 . S
C565 C83 1.627 . S
C571 C281 1.631 . S
C585 C116 1.619 . S
C591 C314 1.625 . S
C605 C347 1.628 . S
C611 C149 1.631 . S
C625 C380 1.628 . S
C631 C182 1.619 . S
C645 C28 1.405 . S
C651 C325 1.407 . S
C665 C358 1.412 . S
C671 C61 1.399 . S
C685 C391 1.410 . S
C691 C94 1.395 . S
C705 C226 1.398 . S
C711 C127 1.405 . S
C725 C160 1.409 . S
C731 C259 1.403 . S
C745 C193 1.403 . S
C751 C292 1.410 . S
C765 N5 1.067 . S
C771 N14 1.067 1_556 S
C785 N47 1.077 . S
C791 N38 1.076 . S
C805 N71 1.077 . S
C811 N80 1.077 . S
C825 N113 1.065 1_556 S
C831 N104 1.067 . S
C845 N146 1.072 . S
C851 N137 1.074 . S
C865 N179 1.072 . S
C871 N170 1.074 . S
C885 N203 1.077 . S
C891 N212 1.077 . S
C905 N245 1.076 1_554 S
C911 N236 1.077 . S
C925 N278 1.076 . S
C931 N269 1.077 . S
C945 N311 1.077 . S
C951 N302 1.077 . S
C965 N335 1.075 . S
C971 N344 1.073 1_554 S
C985 N377 1.077 . S
C991 N368 1.078 . S
