# Generated by pormake.
# Topology whz, (6)-cn, num edge types: 1
# Building blocks:
#     Node 0, Type 0, BuildingBlock: BETDEL_clean_sbu_0, # of connection points: 6
#     Node 1, Type 0, BuildingBlock: BETDEL_clean_sbu_0, # of connection points: 6
#     Node 2, Type 0, BuildingBlock: BETDEL_clean_sbu_0, # of connection points: 6
#     Node 3, Type 0, BuildingBlock: BETDEL_clean_sbu_0, # of connection points: 6
#     Node 4, Type 0, BuildingBlock: BETDEL_clean_sbu_0, # of connection points: 6
#     Node 5, Type 0, BuildingBlock: BETDEL_clean_sbu_0, # of connection points: 6
#     Node 6, Type 0, BuildingBlock: BETDEL_clean_sbu_0, # of connection points: 6
#     Node 7, Type 0, BuildingBlock: BETDEL_clean_sbu_0, # of connection points: 6
#     Node 8, Type 0, BuildingBlock: BETDEL_clean_sbu_0, # of connection points: 6
#     Node 9, Type 0, BuildingBlock: BETDEL_clean_sbu_0, # of connection points: 6
#     Node 10, Type 0, BuildingBlock: BETDEL_clean_sbu_0, # of connection points: 6
#     Node 11, Type 0, BuildingBlock: BETDEL_clean_sbu_0, # of connection points: 6
#     Node 12, Type 0, BuildingBlock: BETDEL_clean_sbu_0, # of connection points: 6
#     Node 13, Type 0, BuildingBlock: BETDEL_clean_sbu_0, # of connection points: 6
#     Node 14, Type 0, BuildingBlock: BETDEL_clean_sbu_0, # of connection points: 6
#     Node 15, Type 0, BuildingBlock: BETDEL_clean_sbu_0, # of connection points: 6
#     Edge 16, Type (0, 0), BuildingBlock: UVAHIK_clean_linker_0, # of connection points: 2
#     Edge 17, Type (0, 0), BuildingBlock: UVAHIK_clean_linker_0, # of connection points: 2
#     Edge 18, Type (0, 0), BuildingBlock: UVAHIK_clean_linker_0, # of connection points: 2
#     Edge 19, Type (0, 0), BuildingBlock: UVAHIK_clean_linker_0, # of connection points: 2
#     Edge 20, Type (0, 0), BuildingBlock: UVAHIK_clean_linker_0, # of connection points: 2
#     Edge 21, Type (0, 0), BuildingBlock: UVAHIK_clean_linker_0, # of connection points: 2
#     Edge 22, Type (0, 0), BuildingBlock: UVAHIK_clean_linker_0, # of connection points: 2
#     Edge 23, Type (0, 0), BuildingBlock: UVAHIK_clean_linker_0, # of connection points: 2
#     Edge 24, Type (0, 0), BuildingBlock: UVAHIK_clean_linker_0, # of connection points: 2
#     Edge 25, Type (0, 0), BuildingBlock: UVAHIK_clean_linker_0, # of connection points: 2
#     Edge 26, Type (0, 0), BuildingBlock: UVAHIK_clean_linker_0, # of connection points: 2
#     Edge 27, Type (0, 0), BuildingBlock: UVAHIK_clean_linker_0, # of connection points: 2
#     Edge 28, Type (0, 0), BuildingBlock: UVAHIK_clean_linker_0, # of connection points: 2
#     Edge 29, Type (0, 0), BuildingBlock: UVAHIK_clean_linker_0, # of connection points: 2
#     Edge 30, Type (0, 0), BuildingBlock: UVAHIK_clean_linker_0, # of connection points: 2
#     Edge 31, Type (0, 0), BuildingBlock: UVAHIK_clean_linker_0, # of connection points: 2
#     Edge 32, Type (0, 0), BuildingBlock: UVAHIK_clean_linker_0, # of connection points: 2
#     Edge 33, Type (0, 0), BuildingBlock: UVAHIK_clean_linker_0, # of connection points: 2
#     Edge 34, Type (0, 0), BuildingBlock: UVAHIK_clean_linker_0, # of connection points: 2
#     Edge 35, Type (0, 0), BuildingBlock: UVAHIK_clean_linker_0, # of connection points: 2
#     Edge 36, Type (0, 0), BuildingBlock: UVAHIK_clean_linker_0, # of connection points: 2
#     Edge 37, Type (0, 0), BuildingBlock: UVAHIK_clean_linker_0, # of connection points: 2
#     Edge 38, Type (0, 0), BuildingBlock: UVAHIK_clean_linker_0, # of connection points: 2
#     Edge 39, Type (0, 0), BuildingBlock: UVAHIK_clean_linker_0, # of connection points: 2
#     Edge 40, Type (0, 0), BuildingBlock: UVAHIK_clean_linker_0, # of connection points: 2
#     Edge 41, Type (0, 0), BuildingBlock: UVAHIK_clean_linker_0, # of connection points: 2
#     Edge 42, Type (0, 0), BuildingBlock: UVAHIK_clean_linker_0, # of connection points: 2
#     Edge 43, Type (0, 0), BuildingBlock: UVAHIK_clean_linker_0, # of connection points: 2
#     Edge 44, Type (0, 0), BuildingBlock: UVAHIK_clean_linker_0, # of connection points: 2
#     Edge 45, Type (0, 0), BuildingBlock: UVAHIK_clean_linker_0, # of connection points: 2
#     Edge 46, Type (0, 0), BuildingBlock: UVAHIK_clean_linker_0, # of connection points: 2
#     Edge 47, Type (0, 0), BuildingBlock: UVAHIK_clean_linker_0, # of connection points: 2
#     Edge 48, Type (0, 0), BuildingBlock: UVAHIK_clean_linker_0, # of connection points: 2
#     Edge 49, Type (0, 0), BuildingBlock: UVAHIK_clean_linker_0, # of connection points: 2
#     Edge 50, Type (0, 0), BuildingBlock: UVAHIK_clean_linker_0, # of connection points: 2
#     Edge 51, Type (0, 0), BuildingBlock: UVAHIK_clean_linker_0, # of connection points: 2
#     Edge 52, Type (0, 0), BuildingBlock: UVAHIK_clean_linker_0, # of connection points: 2
#     Edge 53, Type (0, 0), BuildingBlock: UVAHIK_clean_linker_0, # of connection points: 2
#     Edge 54, Type (0, 0), BuildingBlock: UVAHIK_clean_linker_0, # of connection points: 2
#     Edge 55, Type (0, 0), BuildingBlock: UVAHIK_clean_linker_0, # of connection points: 2
#     Edge 56, Type (0, 0), BuildingBlock: UVAHIK_clean_linker_0, # of connection points: 2
#     Edge 57, Type (0, 0), BuildingBlock: UVAHIK_clean_linker_0, # of connection points: 2
#     Edge 58, Type (0, 0), BuildingBlock: UVAHIK_clean_linker_0, # of connection points: 2
#     Edge 59, Type (0, 0), BuildingBlock: UVAHIK_clean_linker_0, # of connection points: 2
#     Edge 60, Type (0, 0), BuildingBlock: UVAHIK_clean_linker_0, # of connection points: 2
#     Edge 61, Type (0, 0), BuildingBlock: UVAHIK_clean_linker_0, # of connection points: 2
#     Edge 62, Type (0, 0), BuildingBlock: UVAHIK_clean_linker_0, # of connection points: 2
#     Edge 63, Type (0, 0), BuildingBlock: UVAHIK_clean_linker_0, # of connection points: 2
# Relax obj value: 0.444
# Max RMSD: 0.270
# Mean RMSD: 0.270
data_MOF--net-whz--node1-BETDEL_clean_sbu_0--edge1-UVAHIK_clean_linker_0
_symmetry_space_group_name_H-M    P1
_symmetry_Int_Tables_number       1
_symmetry_cell_setting            triclinic
loop_
_symmetry_equiv_pos_as_xyz
'x, y, z'
_cell_length_a     43.475771
_cell_length_b     43.546362
_cell_length_c     70.829851
_cell_angle_alpha  90.068473
_cell_angle_beta   89.962596
_cell_angle_gamma 89.990547
loop_
_atom_site_label
_atom_site_type_symbol
_atom_site_fract_x
_atom_site_fract_y
_atom_site_fract_z
_atom_type_partial_charge
Dy0 Dy 0.30967 0.18173 0.13388 0.0
C1 C 0.29391 0.13562 0.05957 0.0
C2 C 0.31568 0.20769 0.16865 0.0
Dy3 Dy 0.31098 0.15017 0.09605 0.0
O4 O 0.3154 0.22255 0.15281 0.0
O5 O 0.31337 0.17837 0.16549 0.0
O6 O 0.27047 0.20908 0.12344 0.0
O7 O 0.30619 0.19886 0.10469 0.0
C8 C 0.28073 0.21289 0.10646 0.0
C9 C 0.3348 0.11747 0.12518 0.0
O10 O 0.35389 0.17867 0.09347 0.0
O11 O 0.35949 0.1856 0.12567 0.0
O12 O 0.31678 0.12317 0.06867 0.0
O13 O 0.28076 0.15575 0.07042 0.0
O14 O 0.34491 0.11459 0.10793 0.0
O15 O 0.31191 0.13474 0.12504 0.0
O16 O 0.26721 0.15441 0.13786 0.0
O17 O 0.26295 0.13784 0.10684 0.0
C18 C 0.37049 0.1875 0.10823 0.0
C19 C 0.25157 0.1407 0.12425 0.0
Dy20 Dy 0.59613 0.55585 0.37979 0.0
C21 C 0.64536 0.54338 0.30582 0.0
C22 C 0.57282 0.5488 0.41491 0.0
Dy23 Dy 0.62952 0.55532 0.34278 0.0
O24 O 0.56188 0.53619 0.39977 0.0
O25 O 0.59669 0.56563 0.41098 0.0
O26 O 0.55386 0.56772 0.36383 0.0
O27 O 0.58465 0.53644 0.35202 0.0
C28 C 0.55845 0.54882 0.34998 0.0
C29 C 0.66167 0.57747 0.37262 0.0
O30 O 0.60419 0.60087 0.3421 0.0
O31 O 0.60031 0.60608 0.37444 0.0
O32 O 0.66478 0.547 0.31963 0.0
O33 O 0.61758 0.54693 0.3122 0.0
O34 O 0.66438 0.58897 0.3557 0.0
O35 O 0.64377 0.55506 0.37202 0.0
O36 O 0.61608 0.50878 0.38139 0.0
O37 O 0.63993 0.50661 0.35207 0.0
C38 C 0.59825 0.61787 0.35729 0.0
C39 C 0.63243 0.49389 0.36853 0.0
Dy40 Dy 0.22324 0.85536 0.63353 0.0
C41 C 0.23366 0.89085 0.5569 0.0
C42 C 0.21666 0.83493 0.66943 0.0
Dy43 Dy 0.2193 0.88176 0.59448 0.0
O44 O 0.21797 0.81763 0.65456 0.0
O45 O 0.2188 0.86368 0.66473 0.0
O46 O 0.26215 0.82667 0.62403 0.0
O47 O 0.2257 0.83442 0.60533 0.0
C48 C 0.25136 0.8208 0.60739 0.0
C49 C 0.19585 0.91696 0.62265 0.0
O50 O 0.17545 0.85448 0.59401 0.0
O51 O 0.1731 0.84896 0.62647 0.0
O52 O 0.21935 0.91056 0.56764 0.0
O53 O 0.23962 0.8664 0.56667 0.0
O54 O 0.18369 0.91632 0.60579 0.0
O55 O 0.21967 0.90094 0.62263 0.0
O56 O 0.26621 0.88249 0.6353 0.0
O57 O 0.26781 0.8958 0.60354 0.0
C58 C 0.16053 0.846 0.6095 0.0
C59 C 0.2805 0.89482 0.62068 0.0
Dy60 Dy 0.92831 0.47295 0.88401 0.0
C61 C 0.89276 0.49271 0.80787 0.0
C62 C 0.94726 0.46221 0.91991 0.0
Dy63 Dy 0.90227 0.47427 0.84467 0.0
O64 O 0.96525 0.46604 0.90551 0.0
O65 O 0.91867 0.46401 0.91471 0.0
O66 O 0.95787 0.51226 0.87646 0.0
O67 O 0.94955 0.4785 0.85594 0.0
C68 C 0.96324 0.50373 0.85925 0.0
C69 C 0.86568 0.44911 0.87163 0.0
O70 O 0.93194 0.43208 0.8424 0.0
O71 O 0.93391 0.42398 0.87459 0.0
O72 O 0.88106 0.46811 0.81551 0.0
O73 O 0.90917 0.50702 0.82039 0.0
O74 O 0.8652 0.43964 0.85417 0.0
O75 O 0.88282 0.47193 0.87266 0.0
O76 O 0.90071 0.51528 0.88763 0.0
O77 O 0.88886 0.52184 0.85595 0.0
C78 C 0.9386 0.41437 0.85707 0.0
C79 C 0.88923 0.53202 0.87375 0.0
Dy80 Dy 0.72471 0.88181 0.91979 0.0
C81 C 0.73679 0.82302 0.84853 0.0
C82 C 0.73508 0.89656 0.95706 0.0
Dy83 Dy 0.72544 0.84844 0.88265 0.0
O84 O 0.73946 0.91488 0.94278 0.0
O85 O 0.72413 0.87062 0.95095 0.0
O86 O 0.69252 0.91812 0.90701 0.0
O87 O 0.72522 0.89596 0.89049 0.0
C88 C 0.70317 0.91434 0.88994 0.0
C89 C 0.73195 0.81097 0.91269 0.0
O90 O 0.77131 0.87133 0.88105 0.0
O91 O 0.77452 0.88955 0.91176 0.0
O92 O 0.75197 0.81736 0.86385 0.0
O93 O 0.7148 0.84265 0.85172 0.0
O94 O 0.71322 0.80637 0.89878 0.0
O95 O 0.74403 0.83721 0.9106 0.0
O96 O 0.67893 0.8567 0.91951 0.0
O97 O 0.67492 0.85275 0.8871 0.0
C98 C 0.78691 0.88466 0.89485 0.0
C99 C 0.66246 0.85079 0.9041 0.0
Dy100 Dy 0.39903 0.47134 0.66858 0.0
C101 C 0.45353 0.4721 0.59562 0.0
C102 C 0.38862 0.48503 0.70612 0.0
Dy103 Dy 0.42819 0.47706 0.63043 0.0
O104 O 0.3686 0.47239 0.69481 0.0
O105 O 0.414 0.48962 0.69693 0.0
O106 O 0.36566 0.43568 0.65617 0.0
O107 O 0.38182 0.47218 0.63997 0.0
C108 C 0.36612 0.44816 0.6394 0.0
C109 C 0.46014 0.50466 0.658 0.0
O110 O 0.39949 0.5189 0.62804 0.0
O111 O 0.38486 0.51986 0.6596 0.0
O112 O 0.46861 0.47701 0.61108 0.0
O113 O 0.42424 0.46989 0.59906 0.0
O114 O 0.45433 0.51656 0.64165 0.0
O115 O 0.44709 0.47859 0.6591 0.0
O116 O 0.42587 0.42728 0.66917 0.0
O117 O 0.43543 0.42693 0.63701 0.0
C118 C 0.38623 0.53277 0.64253 0.0
C119 C 0.43631 0.41337 0.65377 0.0
Dy120 Dy 0.81035 0.15374 0.41997 0.0
C121 C 0.79554 0.21482 0.34906 0.0
C122 C 0.80069 0.14055 0.45752 0.0
Dy123 Dy 0.80714 0.18845 0.38297 0.0
O124 O 0.79973 0.12055 0.44381 0.0
O125 O 0.80777 0.16729 0.45068 0.0
O126 O 0.84502 0.12014 0.40674 0.0
O127 O 0.81119 0.14101 0.39045 0.0
C128 C 0.83441 0.12413 0.38966 0.0
C129 C 0.79734 0.22382 0.41364 0.0
O130 O 0.76253 0.16264 0.38139 0.0
O131 O 0.76263 0.13972 0.41108 0.0
O132 O 0.7804 0.22 0.36449 0.0
O133 O 0.81734 0.19488 0.352 0.0
O134 O 0.81612 0.2304 0.40005 0.0
O135 O 0.78755 0.19677 0.411 0.0
O136 O 0.85456 0.18107 0.42007 0.0
O137 O 0.85792 0.18818 0.38778 0.0
C138 C 0.74928 0.14552 0.39458 0.0
C139 C 0.87037 0.1893 0.40484 0.0
Dy140 Dy 0.12965 0.55821 0.16776 0.0
C141 C 0.07319 0.55308 0.09548 0.0
C142 C 0.14399 0.54457 0.20468 0.0
Dy143 Dy 0.0989 0.5511 0.13038 0.0
O144 O 0.15669 0.56646 0.19483 0.0
O145 O 0.12368 0.53065 0.19435 0.0
O146 O 0.16276 0.59348 0.15496 0.0
O147 O 0.14582 0.5572 0.13887 0.0
C148 C 0.16139 0.5813 0.13814 0.0
C149 C 0.0686 0.52359 0.1588 0.0
O150 O 0.12771 0.50935 0.12791 0.0
O151 O 0.14641 0.51068 0.15859 0.0
O152 O 0.05806 0.552 0.11123 0.0
O153 O 0.10258 0.55357 0.09876 0.0
O154 O 0.07367 0.51156 0.14238 0.0
O155 O 0.08118 0.54991 0.15948 0.0
O156 O 0.09937 0.60002 0.16878 0.0
O157 O 0.09161 0.60132 0.13652 0.0
C158 C 0.1433 0.49678 0.14192 0.0
C159 C 0.0894 0.61429 0.15342 0.0
Dy160 Dy 0.80433 0.67796 0.63254 0.0
C161 C 0.79581 0.63968 0.55599 0.0
C162 C 0.81137 0.69746 0.66859 0.0
Dy163 Dy 0.8086 0.65049 0.59357 0.0
O164 O 0.811 0.7152 0.65391 0.0
O165 O 0.80787 0.669 0.66363 0.0
O166 O 0.76607 0.70725 0.62292 0.0
O167 O 0.80224 0.69812 0.60414 0.0
C168 C 0.77675 0.71215 0.60611 0.0
C169 C 0.83108 0.61583 0.62218 0.0
O170 O 0.85321 0.67648 0.59325 0.0
O171 O 0.85462 0.68368 0.62564 0.0
O172 O 0.80588 0.61922 0.56788 0.0
O173 O 0.79329 0.66586 0.56461 0.0
O174 O 0.84358 0.61573 0.6054 0.0
O175 O 0.80759 0.63228 0.62181 0.0
O176 O 0.76092 0.65151 0.63409 0.0
O177 O 0.75942 0.6383 0.60228 0.0
C178 C 0.86774 0.68552 0.60876 0.0
C179 C 0.74659 0.63946 0.61939 0.0
Dy180 Dy 0.10605 0.06855 0.88403 0.0
C181 C 0.13861 0.04835 0.80703 0.0
C182 C 0.094 0.07244 0.92164 0.0
Dy183 Dy 0.13213 0.05977 0.84523 0.0
O184 O 0.07472 0.07908 0.90831 0.0
O185 O 0.12012 0.06405 0.91444 0.0
O186 O 0.05908 0.06504 0.87208 0.0
O187 O 0.09369 0.03757 0.86055 0.0
C188 C 0.06541 0.04446 0.85949 0.0
C189 C 0.17149 0.08161 0.87182 0.0
O190 O 0.10542 0.105 0.84241 0.0
O191 O 0.10354 0.11682 0.8742 0.0
O192 O 0.16027 0.0583 0.81816 0.0
O193 O 0.11344 0.04536 0.81673 0.0
O194 O 0.18003 0.06313 0.85834 0.0
O195 O 0.1439 0.0888 0.86922 0.0
O196 O 0.13269 0.0247 0.88806 0.0
O197 O 0.14365 1.01335 0.85677 0.0
C198 C 0.09872 0.1245 0.85638 0.0
C199 C 0.14434 1.00632 0.87496 0.0
Dy200 Dy 0.71762 0.3527 0.13297 0.0
C201 C 0.73851 0.38455 0.05599 0.0
C202 C 0.71239 0.34132 0.1706 0.0
Dy203 Dy 0.72729 0.37736 0.09412 0.0
O204 O 0.70625 0.32187 0.15727 0.0
O205 O 0.72108 0.36729 0.16339 0.0
O206 O 0.72079 0.30537 0.1215 0.0
O207 O 0.74895 0.33921 0.10985 0.0
C208 C 0.74175 0.31105 0.10902 0.0
C209 C 0.70568 0.41773 0.12008 0.0
O210 O 0.68206 0.35052 0.09127 0.0
O211 O 0.66942 0.35075 0.12292 0.0
O212 O 0.72723 0.40548 0.06715 0.0
O213 O 0.74308 0.35961 0.06563 0.0
O214 O 0.7252 0.42533 0.10697 0.0
O215 O 0.69781 0.39033 0.11769 0.0
O216 O 0.76172 0.37894 0.13714 0.0
O217 O 0.77377 0.38874 0.10581 0.0
C218 C 0.66206 0.345 0.10516 0.0
C219 C 0.78051 0.38994 0.12405 0.0
Dy220 Dy 0.43247 0.97237 0.38492 0.0
C221 C 0.39547 0.98376 0.30806 0.0
C222 C 0.45073 0.96432 0.42117 0.0
Dy223 Dy 0.4062 0.97072 0.34561 0.0
O224 O 0.42226 0.96679 0.41583 0.0
O225 O 0.46897 0.9661 0.40673 0.0
O226 O 0.4628 1.01067 0.37665 0.0
O227 O 0.45348 0.97616 0.35674 0.0
C228 C 0.46735 1.00148 0.35947 0.0
C229 C 0.3701 0.94782 0.37352 0.0
O230 O 0.43158 0.92584 0.34471 0.0
O231 O 0.43826 0.92261 0.37707 0.0
O232 O 0.37433 0.97749 0.3205 0.0
O233 O 0.4222 0.98238 0.31612 0.0
O234 O 0.37063 0.93585 0.35662 0.0
O235 O 0.38688 0.97103 0.37372 0.0
O236 O 0.40575 1.01547 0.38677 0.0
O237 O 0.39801 0.02055 0.35453 0.0
C238 C 0.44034 0.91048 0.35994 0.0
C239 C 0.39708 0.03191 0.37202 0.0
Dy240 Dy 0.22697 0.38004 0.41578 0.0
C241 C 0.21099 0.342 0.33945 0.0
C242 C 0.23868 0.38744 0.45389 0.0
Dy243 Dy 0.21608 0.35518 0.37693 0.0
O244 O 0.23222 0.40938 0.44209 0.0
O245 O 0.23804 0.36142 0.44491 0.0
O246 O 0.22525 0.42815 0.40316 0.0
O247 O 0.19755 0.39348 0.39226 0.0
C248 C 0.20585 0.42078 0.38995 0.0
C249 C 0.23874 0.31342 0.40129 0.0
O250 O 0.26056 0.38066 0.37263 0.0
O251 O 0.27436 0.38684 0.40394 0.0
O252 O 0.20592 0.32292 0.35312 0.0
O253 O 0.21837 0.36869 0.34625 0.0
O254 O 0.21745 0.30814 0.38897 0.0
O255 O 0.2471 0.34117 0.40002 0.0
O256 O 0.18093 0.35464 0.41882 0.0
O257 O 0.16794 0.35443 0.38719 0.0
C258 C 0.28066 0.38916 0.38567 0.0
C259 C 0.16071 0.34919 0.40504 0.0
Dy260 Dy 0.90584 0.9726 0.17002 0.0
C261 C 0.96753 0.98279 0.09907 0.0
C262 C 0.89112 0.98384 0.20723 0.0
Dy263 Dy 0.94029 0.97254 0.1329 0.0
O264 O 0.87279 0.98802 0.19292 0.0
O265 O 0.91702 0.97258 0.2012 0.0
O266 O 0.86915 0.94124 0.15691 0.0
O267 O 0.89257 0.97331 0.14058 0.0
C268 C 0.87366 0.95172 0.13987 0.0
C269 C 0.97677 0.97818 0.16353 0.0
O270 O 0.91837 0.01889 0.13123 0.0
O271 O 0.89888 0.02227 0.16169 0.0
O272 O 0.97385 0.99707 0.11463 0.0
O273 O 0.946 0.96247 0.10183 0.0
O274 O 0.98162 0.95951 0.14961 0.0
O275 O 0.95088 0.99081 0.16102 0.0
O276 O 0.92985 0.92629 0.16982 0.0
O277 O 0.93486 0.9222 0.13741 0.0
C278 C 0.90456 0.03456 0.14486 0.0
C279 C 0.9359 0.90974 0.15444 0.0
Dy280 Dy 0.31031 0.65694 0.91853 0.0
C281 C 0.3083 0.70894 0.84496 0.0
C282 C 0.29801 0.64555 0.95605 0.0
Dy283 Dy 0.30412 0.68612 0.88044 0.0
O284 O 0.31002 0.62582 0.94432 0.0
O285 O 0.29328 0.67125 0.9473 0.0
O286 O 0.34528 0.62317 0.90586 0.0
O287 O 0.30863 0.63971 0.8899 0.0
C288 C 0.33244 0.62368 0.88919 0.0
C289 C 0.27692 0.71817 0.90818 0.0
O290 O 0.26141 0.65852 0.87874 0.0
O291 O 0.2614 0.64342 0.91019 0.0
O292 O 0.30708 0.7253 0.86023 0.0
O293 O 0.30742 0.67987 0.84902 0.0
O294 O 0.26533 0.71355 0.89158 0.0
O295 O 0.30291 0.70492 0.90919 0.0
O296 O 0.35443 0.68362 0.91885 0.0
O297 O 0.35455 0.69268 0.88665 0.0
C298 C 0.24793 0.64522 0.89332 0.0
C299 C 0.36825 0.69377 0.90338 0.0
Dy300 Dy 0.62953 0.06037 0.6687 0.0
C301 C 0.57818 0.06115 0.59478 0.0
C302 C 0.63906 0.04392 0.70581 0.0
Dy303 Dy 0.60135 0.05605 0.63018 0.0
O304 O 0.65275 0.06672 0.69731 0.0
O305 O 0.62056 0.03056 0.69402 0.0
O306 O 0.66589 0.09388 0.65723 0.0
O307 O 0.64752 0.05953 0.64029 0.0
C308 C 0.66459 0.08257 0.64017 0.0
C309 C 0.56781 0.02898 0.6573 0.0
O310 O 0.62823 1.01289 0.62802 0.0
O311 O 0.64504 1.01256 0.65916 0.0
O312 O 0.56201 0.06088 0.61015 0.0
O313 O 0.60728 0.05899 0.59871 0.0
O314 O 0.57333 0.01743 0.6408 0.0
O315 O 0.58153 0.05464 0.65873 0.0
O316 O 0.60081 0.10335 0.66933 0.0
O317 O 0.59645 0.10637 0.63688 0.0
C318 C 0.64239 0.99927 0.64225 0.0
C319 C 0.59307 0.11872 0.65388 0.0
C320 C 0.31336 0.25452 0.18866 0.0
C321 C 0.3114 0.22244 0.18711 0.0
C322 C 0.30317 0.26932 0.205 0.0
C323 C 0.24602 0.25906 0.24167 0.0
H324 H 0.28847 0.32459 0.26804 0.0
C325 C 0.20926 0.30185 0.31469 0.0
C326 C 0.21464 0.33255 0.31968 0.0
C327 C 0.2184 0.29084 0.2971 0.0
C328 C 0.27603 0.30677 0.26058 0.0
H329 H 0.29918 0.18042 0.20165 0.0
H330 H 0.28123 0.20635 0.23026 0.0
H331 H 0.31312 0.2996 0.2411 0.0
H332 H 0.23167 0.37648 0.30988 0.0
H333 H 0.24712 0.35737 0.27877 0.0
H334 H 0.20881 0.26627 0.26088 0.0
C335 C 0.29042 0.22002 0.21879 0.0
C336 C 0.29029 0.29231 0.24529 0.0
C337 C 0.30093 0.2052 0.20254 0.0
C338 C 0.22737 0.35266 0.30633 0.0
C339 C 0.23647 0.34164 0.28864 0.0
C340 C 0.23163 0.2737 0.25679 0.0
C341 C 0.2906 0.25224 0.21991 0.0
C342 C 0.27561 0.26799 0.23593 0.0
C343 C 0.23298 0.31037 0.28408 0.0
C344 C 0.24667 0.29737 0.26664 0.0
H345 H 0.32135 0.26829 0.17691 0.0
H346 H 0.30353 0.29419 0.20553 0.0
H347 H 0.23392 0.24083 0.23437 0.0
H348 H 0.19947 0.28588 0.32476 0.0
H349 H 0.21559 0.26659 0.29417 0.0
C350 C 0.4992 0.4791 0.57528 0.0
C351 C 0.46763 0.47296 0.57687 0.0
C352 C 0.51229 0.48426 0.55766 0.0
C353 C 0.5026 0.47451 0.50696 0.0
H354 H 0.54567 0.5524 0.50358 0.0
C355 C 0.53229 0.52809 0.43572 0.0
C356 C 0.56104 0.5423 0.43381 0.0
C357 C 0.52184 0.51903 0.4534 0.0
C358 C 0.53418 0.53037 0.50434 0.0
H359 H 0.4252 0.46546 0.56151 0.0
H360 H 0.44833 0.47429 0.53041 0.0
H361 H 0.52647 0.53483 0.53402 0.0
H362 H 0.60137 0.5588 0.44859 0.0
H363 H 0.58343 0.54226 0.4797 0.0
H364 H 0.51053 0.46978 0.47735 0.0
C365 C 0.46281 0.47519 0.54284 0.0
C366 C 0.52315 0.52037 0.52173 0.0
C367 C 0.44961 0.47025 0.56055 0.0
C368 C 0.57899 0.54804 0.44984 0.0
C369 C 0.56869 0.5386 0.46758 0.0
C370 C 0.51394 0.48433 0.48959 0.0
C371 C 0.49404 0.4831 0.54137 0.0
C372 C 0.50705 0.49253 0.52312 0.0
C373 C 0.54017 0.52363 0.46947 0.0
C374 C 0.52949 0.51256 0.48806 0.0
H375 H 0.5136 0.48111 0.5877 0.0
H376 H 0.53651 0.48996 0.55678 0.0
H377 H 0.49045 0.45283 0.5078 0.0
H378 H 0.51798 0.52365 0.4235 0.0
H379 H 0.49944 0.5083 0.45446 0.0
C380 C 0.22597 0.84274 0.70373 0.0
C381 C 0.21874 0.82306 0.6887 0.0
C382 C 0.23416 0.83053 0.72123 0.0
C383 C 0.26981 0.76131 0.73991 0.0
H384 H 0.24688 0.79432 0.78877 0.0
C385 C 0.29846 0.70264 0.81062 0.0
C386 C 0.30526 0.72178 0.82598 0.0
C387 C 0.28991 0.71542 0.79336 0.0
C388 C 0.25382 0.78518 0.77519 0.0
H389 H 0.2117 0.77568 0.6803 0.0
H390 H 0.22552 0.75439 0.71094 0.0
H391 H 0.22399 0.81577 0.76024 0.0
H392 H 0.3109 0.76892 0.83523 0.0
H393 H 0.29659 0.79127 0.80495 0.0
H394 H 0.29971 0.73081 0.75481 0.0
C395 C 0.2256 0.7791 0.70914 0.0
C396 C 0.24059 0.79734 0.75892 0.0
C397 C 0.2175 0.79127 0.69169 0.0
C398 C 0.30547 0.75373 0.82357 0.0
C399 C 0.29706 0.7665 0.80633 0.0
C400 C 0.28308 0.74921 0.75617 0.0
C401 C 0.23512 0.79855 0.72382 0.0
C402 C 0.24838 0.78541 0.74116 0.0
C403 C 0.2882 0.74747 0.79128 0.0
C404 C 0.27518 0.761 0.77395 0.0
H405 H 0.22706 0.86736 0.70168 0.0
H406 H 0.24143 0.84601 0.73234 0.0
H407 H 0.27669 0.75213 0.72633 0.0
H408 H 0.29813 0.6779 0.81222 0.0
H409 H 0.28309 0.70022 0.782 0.0
C410 C 0.93725 0.46625 0.95443 0.0
C411 C 0.95804 0.46211 0.9395 0.0
C412 C 0.94814 0.47243 0.97258 0.0
C413 C 0.0183 0.47354 1.0023 0.0
H414 H 0.98038 0.54565 0.0246 0.0
C415 C 0.07752 0.54151 0.0612 0.0
C416 C 0.0591 0.54796 0.07696 0.0
C417 C 0.06406 0.53115 0.04449 0.0
C418 C 0.99101 0.52536 0.01862 0.0
H419 H 1.00618 0.45867 0.93183 0.0
H420 H 0.02522 0.46956 0.96339 0.0
H421 H 0.95783 0.52262 0.99644 0.0
H422 H 1.01234 0.5506 0.0875 0.0
H423 H 0.9888 0.53268 0.05827 0.0
H424 H 0.05181 0.47667 0.02429 0.0
C425 C 1.0006 0.46799 0.96124 0.0
C426 C 0.978 0.51202 1.0026 0.0
C427 C 0.98972 0.4619 0.94315 0.0
C428 C 0.027 0.54574 0.07548 0.0
C429 C 1.01354 0.53553 0.05877 0.0
C430 C 0.03135 0.48693 0.01827 0.0
C431 C 0.97994 0.47441 0.97598 0.0
C432 C 0.99172 0.48619 0.99416 0.0
C433 C 0.03202 0.52729 0.04332 0.0
C434 C 0.01803 0.51317 0.02644 0.0
H435 H 0.91267 0.46639 0.95191 0.0
H436 H 0.93174 0.47682 0.98378 0.0
H437 H 0.02916 0.45345 0.9962 0.0
H438 H 0.10235 0.5431 0.06204 0.0
H439 H 0.07875 0.52546 0.03263 0.0
C440 C 0.72591 0.81344 0.81445 0.0
C441 C 0.74495 0.8098 0.83023 0.0
C442 C 0.7344 0.80055 0.79715 0.0
C443 C 0.7864 0.74204 0.77656 0.0
H444 H 0.77194 0.78736 0.73036 0.0
C445 C 0.81709 0.73962 0.69179 0.0
C446 C 0.81102 0.70861 0.68804 0.0
C447 C 0.81221 0.75147 0.7098 0.0
C448 C 0.77659 0.77462 0.74317 0.0
H449 H 0.78779 0.79053 0.84052 0.0
H450 H 0.80307 0.76904 0.81037 0.0
H451 H 0.75606 0.80935 0.76036 0.0
H452 H 0.79677 0.66514 0.70005 0.0
H453 H 0.78724 0.68597 0.73144 0.0
H454 H 0.80795 0.70783 0.75944 0.0
C455 C 0.78122 0.7809 0.8113 0.0
C456 C 0.76695 0.78698 0.76031 0.0
C457 C 0.77257 0.7934 0.82854 0.0
C458 C 0.8016 0.68918 0.70269 0.0
C459 C 0.79628 0.70111 0.72066 0.0
C460 C 0.79636 0.72985 0.75943 0.0
C461 C 0.76219 0.78418 0.79544 0.0
C462 C 0.77173 0.7708 0.77718 0.0
C463 C 0.80073 0.73256 0.72425 0.0
C464 C 0.7915 0.74598 0.74256 0.0
H465 H 0.70446 0.826 0.81552 0.0
H466 H 0.7191 0.80316 0.7852 0.0
H467 H 0.79004 0.72881 0.7893 0.0
H468 H 0.82469 0.75492 0.68068 0.0
H469 H 0.81662 0.77562 0.71227 0.0
C470 C 0.7312 0.35186 0.20316 0.0
C471 C 0.7152 0.33285 0.19055 0.0
C472 C 0.739 0.34108 0.2211 0.0
C473 C 0.75288 0.26768 0.24517 0.0
H474 H 0.75384 0.31743 0.29057 0.0
C475 C 0.76349 0.25024 0.33013 0.0
C476 C 0.78835 0.22975 0.33104 0.0
C477 C 0.75583 0.26438 0.31317 0.0
C478 C 0.75359 0.30323 0.27801 0.0
H479 H 0.69264 0.28885 0.18703 0.0
H480 H 0.7054 0.27034 0.21851 0.0
H481 H 0.73477 0.3394 0.26115 0.0
H482 H 0.82507 0.20815 0.31518 0.0
H483 H 0.81186 0.23326 0.28532 0.0
H484 H 0.77079 0.23123 0.26208 0.0
C485 C 0.71281 0.29314 0.21443 0.0
C486 C 0.74291 0.31589 0.26115 0.0
C487 C 0.70524 0.30382 0.1965 0.0
C488 C 0.80572 0.22381 0.31476 0.0
C489 C 0.79808 0.23808 0.29772 0.0
C490 C 0.76345 0.255 0.26202 0.0
C491 C 0.7307 0.31121 0.22666 0.0
C492 C 0.74216 0.29813 0.24461 0.0
C493 C 0.77295 0.25841 0.29677 0.0
C494 C 0.76368 0.27255 0.27865 0.0
H495 H 0.73915 0.37436 0.19883 0.0
H496 H 0.75284 0.35552 0.2302 0.0
H497 H 0.75319 0.25359 0.23256 0.0
H498 H 0.74968 0.25516 0.34251 0.0
H499 H 0.73603 0.27947 0.31284 0.0
C500 C 1.00393 1.01393 0.08034 0.0
C501 C 0.98252 0.98987 0.08104 0.0
C502 C 0.01791 0.02186 0.06338 0.0
C503 C 0.05585 0.02507 0.02799 0.0
H504 H 1.00542 0.0287 0.98296 0.0
C505 C 0.10432 0.05207 0.9538 0.0
C506 C 0.08526 0.06857 0.94147 0.0
C507 C 0.0934 0.04316 0.9715 0.0
C508 C 0.01973 0.02815 0.99547 0.0
H509 H 0.95914 0.95478 0.06481 0.0
H510 H 0.98413 0.96834 0.03491 0.0
H511 H 0.98323 1.00988 0.01226 0.0
H512 H 0.04101 0.09085 0.93829 0.0
H513 H 0.02231 0.07631 0.96945 0.0
H514 H 0.092 0.04446 0.01136 0.0
C515 C 0.98973 0.98135 0.04749 0.0
C516 C 1.00715 0.01683 0.01217 0.0
C517 C 0.97555 0.97349 0.06454 0.0
C518 C 0.05602 0.0779 0.94753 0.0
C519 C 0.04522 0.06927 0.96527 0.0
C520 C 0.06837 0.0366 0.01131 0.0
C521 C 1.01095 1.00576 0.04675 0.0
C522 C 0.02498 1.01546 0.02866 0.0
C523 C 0.06337 0.0509 0.97717 0.0
C524 C 0.05034 0.03854 0.99492 0.0
H525 H 1.00962 0.02702 0.09287 0.0
H526 H 0.03365 0.04115 0.06324 0.0
H527 H 0.07031 0.0239 0.04042 0.0
H528 H 0.12697 0.04458 0.94937 0.0
H529 H 0.10793 0.02895 0.98031 0.0
C530 C 0.44086 0.97267 0.45538 0.0
C531 C 0.46141 0.96563 0.44074 0.0
C532 C 0.45208 0.98033 0.47324 0.0
C533 C 0.52189 0.98071 0.5031 0.0
H534 H 0.48857 0.05762 0.52184 0.0
C535 C 0.58355 0.049 0.56065 0.0
C536 C 0.56486 0.05739 0.57594 0.0
C537 C 0.5702 0.03908 0.54382 0.0
C538 C 0.49794 0.03604 0.51682 0.0
H539 H 0.50928 0.95847 0.43338 0.0
H540 H 0.52887 0.97185 0.46445 0.0
H541 H 0.46501 0.03289 0.49452 0.0
H542 H 0.51794 0.06438 0.58541 0.0
H543 H 0.49462 0.04717 0.55599 0.0
H544 H 0.55507 0.98408 0.52526 0.0
C545 C 0.50421 0.97149 0.46229 0.0
C546 C 0.48432 0.02175 0.50132 0.0
C547 C 0.49302 0.96396 0.44449 0.0
C548 C 0.5328 0.05794 0.57378 0.0
C549 C 0.51946 0.04814 0.55695 0.0
C550 C 0.53554 0.99502 0.51857 0.0
C551 C 0.48393 0.98085 0.47662 0.0
C552 C 0.49634 0.99408 0.49423 0.0
C553 C 0.53804 0.0376 0.54208 0.0
C554 C 0.52385 0.02295 0.52545 0.0
H555 H 0.41634 0.97398 0.45278 0.0
H556 H 0.43596 0.987 0.48417 0.0
H557 H 0.53142 0.95925 0.49801 0.0
H558 H 0.60837 0.0485 0.56203 0.0
H559 H 0.58499 0.03159 0.5324 0.0
C560 C 0.21425 0.07044 0.89517 0.0
C561 C 0.18782 0.08706 0.89001 0.0
C562 C 0.22743 0.07418 0.91321 0.0
C563 C 0.20713 0.10147 0.96166 0.0
H564 H 0.29519 0.10408 0.96999 0.0
C565 C 0.25768 0.14321 0.03249 0.0
C566 C 0.2836 0.12829 0.03999 0.0
C567 C 0.24721 0.13657 0.01423 0.0
C568 C 0.27053 0.10304 0.96798 0.0
H569 H 0.15518 0.12132 0.89957 0.0
H570 H 0.17805 0.12805 0.9306 0.0
H571 H 0.27516 0.09563 0.93809 0.0
H572 H 0.31906 0.09476 0.03402 0.0
H573 H 0.30075 0.08299 1.002 0.0
H574 H 0.20232 0.10898 0.99138 0.0
C575 C 0.18844 0.11167 0.92101 0.0
C576 C 0.25902 0.09818 0.94963 0.0
C577 C 0.17543 0.10801 0.90308 0.0
C578 C 0.29901 0.10665 0.02866 0.0
C579 C 0.28857 0.10004 0.01026 0.0
C580 C 0.21858 0.10633 0.97991 0.0
C581 C 0.21438 0.09453 0.92652 0.0
C582 C 0.2271 0.09782 0.94615 0.0
C583 C 0.26234 0.11478 1.00282 0.0
C584 C 0.25045 0.10767 0.98336 0.0
H585 H 0.22425 0.05398 0.88547 0.0
H586 H 0.2473 0.06046 0.91691 0.0
H587 H 0.18243 0.10053 0.95973 0.0
H588 H 0.24532 0.16012 0.04077 0.0
H589 H 0.22733 0.14887 0.00899 0.0
C590 C 0.6299 0.52199 0.27441 0.0
C591 C 0.65307 0.53365 0.28625 0.0
C592 C 0.63698 0.51088 0.25635 0.0
C593 C 0.69081 0.51585 0.21692 0.0
H594 H 0.66304 0.4336 0.20488 0.0
C595 C 0.72085 0.45611 0.14516 0.0
C596 C 0.69976 0.4347 0.13791 0.0
C597 C 0.71636 0.46916 0.16315 0.0
C598 C 0.67051 0.45685 0.20772 0.0
H599 H 0.70178 0.54355 0.2882 0.0
H600 H 0.71403 0.52499 0.25623 0.0
H601 H 0.65264 0.45505 0.23593 0.0
H602 H 0.65699 0.41098 0.14346 0.0
H603 H 0.64814 0.43474 0.174 0.0
H604 H 0.70763 0.51829 0.18851 0.0
C605 C 0.69043 0.52417 0.26111 0.0
C606 C 0.66473 0.46902 0.22568 0.0
C607 C 0.68344 0.53471 0.2794 0.0
C608 C 0.6737 0.42736 0.1487 0.0
C609 C 0.66889 0.44076 0.16642 0.0
C610 C 0.69609 0.5039 0.19875 0.0
C611 C 0.66732 0.5117 0.24949 0.0
C612 C 0.67464 0.49871 0.23049 0.0
C613 C 0.69041 0.46143 0.17419 0.0
C614 C 0.68578 0.47423 0.19376 0.0
H615 H 0.6063 0.52079 0.27927 0.0
H616 H 0.61864 0.50161 0.2477 0.0
H617 H 0.69862 0.53887 0.2202 0.0
H618 H 0.74141 0.46185 0.13727 0.0
H619 H 0.73374 0.48461 0.16856 0.0
C620 C 0.24323 0.92496 0.52868 0.0
C621 C 0.24364 0.89566 0.53697 0.0
C622 C 0.25478 0.92949 0.51034 0.0
C623 C 0.2741 0.88984 0.46532 0.0
H624 H 0.32967 0.95828 0.45805 0.0
C625 C 0.34347 0.90907 0.39488 0.0
C626 C 0.35044 0.93954 0.38997 0.0
C627 C 0.32886 0.90246 0.41224 0.0
C628 C 0.31375 0.93934 0.45957 0.0
H629 H 0.25576 0.848 0.53225 0.0
H630 H 0.27527 0.85577 0.5002 0.0
H631 H 0.30635 0.95001 0.48878 0.0
H632 H 0.34602 0.98695 0.39889 0.0
H633 H 0.31956 0.97584 0.42813 0.0
H634 H 0.28108 0.87946 0.43597 0.0
C635 C 0.26617 0.87531 0.50786 0.0
C636 C 0.30042 0.93455 0.47735 0.0
C637 C 0.25508 0.87088 0.52629 0.0
C638 C 0.34125 0.96316 0.40229 0.0
C639 C 0.32633 0.9567 0.4193 0.0
C640 C 0.28713 0.89488 0.44737 0.0
C641 C 0.26659 0.90475 0.4997 0.0
C642 C 0.28034 0.90982 0.48051 0.0
C643 C 0.32064 0.92624 0.42493 0.0
C644 C 0.30705 0.91989 0.44415 0.0
H645 H 0.23463 0.94453 0.53653 0.0
H646 H 0.25449 0.95244 0.50447 0.0
H647 H 0.25865 0.87057 0.46721 0.0
H648 H 0.35058 0.89037 0.38578 0.0
H649 H 0.32506 0.87867 0.41598 0.0
C650 C 0.86921 0.58429 0.64161 0.0
C651 C 0.84058 0.59899 0.63956 0.0
C652 C 0.87745 0.57072 0.65902 0.0
C653 C 0.86108 0.57835 0.70984 0.0
H654 H 0.89002 0.49478 0.71607 0.0
C655 C 0.8999 0.53215 0.78252 0.0
C656 C 0.8887 0.50322 0.78801 0.0
C657 C 0.89629 0.54265 0.76396 0.0
C658 C 0.88193 0.51817 0.71455 0.0
H659 H 0.79766 0.6093 0.65392 0.0
H660 H 0.81221 0.5868 0.68383 0.0
H661 H 0.88063 0.51511 0.68418 0.0
H662 H 0.86539 0.46233 0.77812 0.0
H663 H 0.85923 0.4806 0.74551 0.0
H664 H 0.86204 0.58162 0.73999 0.0
C665 C 0.8285 0.58589 0.67226 0.0
C666 C 0.87687 0.52988 0.69628 0.0
C667 C 0.82021 0.59888 0.65502 0.0
C668 C 0.87417 0.48478 0.77436 0.0
C669 C 0.87085 0.49517 0.75565 0.0
C670 C 0.86654 0.56686 0.72798 0.0
C671 C 0.85734 0.57201 0.67466 0.0
C672 C 0.86594 0.56001 0.69373 0.0
C673 C 0.88163 0.5244 0.75024 0.0
C674 C 0.87673 0.53651 0.73066 0.0
H675 H 0.88537 0.58385 0.62997 0.0
H676 H 0.89985 0.56008 0.66043 0.0
H677 H 0.85276 0.60169 0.70839 0.0
H678 H 0.91135 0.5469 0.79265 0.0
H679 H 0.90517 0.56511 0.76032 0.0
C680 C 0.83645 0.91875 0.12088 0.0
C681 C 0.8572 0.94342 0.12215 0.0
C682 C 0.82184 0.91187 0.10359 0.0
C683 C 0.82941 0.92728 0.05163 0.0
H684 H 0.74424 0.90144 0.04899 0.0
C685 C 0.76268 0.9286 0.98121 0.0
C686 C 0.74508 0.90251 0.97681 0.0
C687 C 0.77487 0.93263 0.99938 0.0
C688 C 0.76812 0.90845 0.0495 0.0
H689 H 0.87835 0.98048 0.10632 0.0
H690 H 0.8528 0.96919 0.07687 0.0
H691 H 0.76859 0.90909 0.07983 0.0
H692 H 0.72566 0.86065 0.98822 0.0
H693 H 0.74658 0.86788 0.02004 0.0
H694 H 0.82887 0.92722 0.0214 0.0
C695 C 0.84816 0.95443 0.08883 0.0
C696 C 0.78216 0.91272 0.06721 0.0
C697 C 0.86273 0.96111 0.1059 0.0
C698 C 0.73908 0.88105 0.99118 0.0
C699 C 0.75101 0.88523 0.00944 0.0
C700 C 0.81534 0.92333 0.03402 0.0
C701 C 0.82771 0.92955 0.08725 0.0
C702 C 0.81294 0.92264 0.06854 0.0
C703 C 0.76957 0.91079 0.01369 0.0
C704 C 0.78441 0.91421 0.03266 0.0
H705 H 0.83172 0.9047 0.13315 0.0
H706 H 0.80636 0.89243 0.10296 0.0
H707 H 0.85336 0.93404 0.05193 0.0
H708 H 0.76776 0.94555 0.97047 0.0
H709 H 0.78869 0.95281 1.0022 0.0
C710 C 0.31656 0.59814 0.85932 0.0
C711 C 0.34018 0.60492 0.87223 0.0
C712 C 0.32272 0.58309 0.84232 0.0
C713 C 0.38247 0.53848 0.81555 0.0
H714 H 0.3315 0.56202 0.77302 0.0
C715 C 0.40834 0.50427 0.73726 0.0
C716 C 0.38334 0.49499 0.726 0.0
C717 C 0.40371 0.51563 0.75559 0.0
C718 C 0.34574 0.55489 0.78477 0.0
H719 H 0.38898 0.60062 0.87742 0.0
H720 H 0.40022 0.57492 0.84721 0.0
H721 H 0.32358 0.58626 0.80353 0.0
H722 H 0.33383 0.49009 0.72531 0.0
H723 H 0.32559 0.51045 0.75725 0.0
H724 H 0.40531 0.50782 0.79627 0.0
C725 C 0.37661 0.58076 0.85049 0.0
C726 C 0.34116 0.56875 0.80241 0.0
C727 C 0.37027 0.59554 0.86783 0.0
C728 C 0.35356 0.49697 0.73363 0.0
C729 C 0.34887 0.50881 0.75189 0.0
C730 C 0.38735 0.52489 0.79775 0.0
C731 C 0.35291 0.57476 0.83729 0.0
C732 C 0.35913 0.56055 0.81823 0.0
C733 C 0.37388 0.51852 0.76309 0.0
C734 C 0.36883 0.53271 0.78215 0.0
H735 H 0.29301 0.60469 0.86232 0.0
H736 H 0.30354 0.5781 0.83307 0.0
H737 H 0.39666 0.5312 0.82727 0.0
H738 H 0.4316 0.50309 0.7318 0.0
H739 H 0.42348 0.52308 0.76369 0.0
C740 C 0.78043 0.10626 0.48333 0.0
C741 C 0.79183 0.13491 0.47753 0.0
C742 C 0.77003 0.10184 0.50192 0.0
C743 C 0.7425 0.14504 0.54441 0.0
H744 H 0.7529 0.06621 0.56887 0.0
C745 C 0.69907 0.11893 0.6215 0.0
C746 C 0.68333 0.09088 0.62329 0.0
C747 C 0.71517 0.12594 0.60472 0.0
C748 C 0.74968 0.08838 0.56225 0.0
H749 H 0.80175 0.18127 0.48683 0.0
H750 H 0.78424 0.1735 0.51924 0.0
H751 H 0.77537 0.07479 0.53783 0.0
H752 H 0.67261 0.04815 0.60891 0.0
H753 H 0.7003 0.06013 0.58024 0.0
H754 H 0.71657 0.15841 0.56894 0.0
C755 C 0.78276 0.15448 0.50942 0.0
C756 C 0.76249 0.09327 0.54434 0.0
C757 C 0.79308 0.15888 0.49084 0.0
C758 C 0.68443 0.07 0.60812 0.0
C759 C 0.70059 0.07677 0.59162 0.0
C760 C 0.72975 0.14015 0.56241 0.0
C761 C 0.7708 0.12596 0.51525 0.0
C762 C 0.75868 0.12149 0.53495 0.0
C763 C 0.71619 0.1048 0.58957 0.0
C764 C 0.73266 0.11153 0.57143 0.0
H765 H 0.77893 0.08739 0.4734 0.0
H766 H 0.76062 0.07966 0.50567 0.0
H767 H 0.73874 0.16701 0.53765 0.0
H768 H 0.69855 0.13555 0.63289 0.0
H769 H 0.72698 0.14775 0.60363 0.0
C770 C 0.17639 0.42798 0.36004 0.0
C771 C 0.19928 0.43849 0.37246 0.0
C772 C 0.17093 0.44286 0.34288 0.0
C773 C 0.20674 0.49361 0.30722 0.0
H774 H 0.12272 0.50125 0.28954 0.0
C775 C 0.17443 0.55071 0.23492 0.0
C776 C 0.15126 0.53587 0.22449 0.0
C777 C 0.18094 0.54166 0.25358 0.0
C778 C 0.14638 0.4991 0.29413 0.0
H779 H 0.23447 0.47301 0.37658 0.0
H780 H 0.22484 0.49934 0.34645 0.0
H781 H 0.13271 0.48083 0.32089 0.0
H782 H 0.11696 0.49981 0.22544 0.0
H783 H 0.12829 0.48402 0.25759 0.0
H784 H 0.22034 0.51153 0.28022 0.0
C785 C 0.21115 0.4794 0.35003 0.0
C786 C 0.15212 0.48738 0.31219 0.0
C787 C 0.21651 0.46451 0.36736 0.0
C788 C 0.13484 0.51188 0.23309 0.0
C789 C 0.14123 0.50293 0.25164 0.0
C790 C 0.20098 0.50535 0.28906 0.0
C791 C 0.18824 0.46874 0.33754 0.0
C792 C 0.18238 0.4839 0.31889 0.0
C793 C 0.16429 0.51769 0.26224 0.0
C794 C 0.1707 0.5077 0.28212 0.0
H795 H 0.16283 0.40787 0.36346 0.0
H796 H 0.15349 0.43359 0.33357 0.0
H797 H 0.23035 0.4911 0.31182 0.0
H798 H 0.18752 0.56926 0.22867 0.0
H799 H 0.19874 0.5537 0.2613 0.0
C800 C 0.781 0.60396 0.52952 0.0
C801 C 0.78604 0.63396 0.53616 0.0
C802 C 0.76925 0.59891 0.51131 0.0
C803 C 0.75985 0.63314 0.46391 0.0
H804 H 0.68991 0.57845 0.46005 0.0
C805 C 0.69218 0.61475 0.39298 0.0
C806 C 0.67899 0.5857 0.39002 0.0
C807 C 0.70621 0.62194 0.41041 0.0
C808 C 0.70979 0.59336 0.46065 0.0
H809 H 0.78361 0.68212 0.52868 0.0
H810 H 0.76391 0.67325 0.49673 0.0
H811 H 0.71371 0.58728 0.49058 0.0
H812 H 0.67135 0.54105 0.40271 0.0
H813 H 0.69668 0.55276 0.43218 0.0
H814 H 0.75649 0.63863 0.43386 0.0
C815 C 0.7688 0.65365 0.50564 0.0
C816 C 0.72336 0.59852 0.4783 0.0
C817 C 0.78 0.65872 0.52397 0.0
C818 C 0.68097 0.56382 0.40455 0.0
C819 C 0.6953 0.57072 0.42167 0.0
C820 C 0.74657 0.62756 0.44611 0.0
C821 C 0.76279 0.6237 0.49917 0.0
C822 C 0.74865 0.61835 0.48019 0.0
C823 C 0.70765 0.60006 0.42514 0.0
C824 C 0.72143 0.60734 0.44415 0.0
H825 H 0.78533 0.58442 0.53859 0.0
H826 H 0.7651 0.57554 0.50673 0.0
H827 H 0.77934 0.64855 0.46487 0.0
H828 H 0.69085 0.63214 0.38209 0.0
H829 H 0.71521 0.64487 0.41246 0.0
C830 C 0.11674 0.03082 0.77591 0.0
C831 C 0.14239 0.03927 0.78683 0.0
C832 C 0.12029 0.02073 0.75717 0.0
C833 C 0.17776 0.01739 0.71736 0.0
H834 H 0.1239 0.95362 0.69817 0.0
C835 C 0.20914 0.94243 0.65305 0.0
C836 C 0.18665 0.93568 0.63937 0.0
C837 C 0.20158 0.95783 0.66974 0.0
C838 C 0.13887 0.97174 0.7032 0.0
H839 H 0.19195 0.04368 0.78657 0.0
H840 H 0.19839 0.02538 0.75425 0.0
H841 H 0.11551 0.97443 0.7298 0.0
H842 H 0.13831 0.93988 0.63265 0.0
H843 H 0.12473 0.9666 0.66231 0.0
H844 H 0.20179 1.01374 0.69099 0.0
C845 C 0.17529 0.02722 0.75984 0.0
C846 C 0.13408 0.9838 0.72141 0.0
C847 C 0.17168 0.0376 0.77851 0.0
C848 C 0.15619 0.94501 0.64281 0.0
C849 C 0.14843 0.96007 0.65985 0.0
C850 C 0.18273 1.0051 0.69929 0.0
C851 C 0.14967 0.01847 0.74882 0.0
C852 C 0.1537 1.00659 0.72893 0.0
C853 C 0.17113 0.96666 0.67354 0.0
C854 C 0.16362 0.98183 0.69202 0.0
H855 H 0.09382 0.03189 0.78187 0.0
H856 H 0.09985 1.01484 0.74924 0.0
H857 H 0.19297 0.03541 0.72223 0.0
H858 H 0.23284 0.93553 0.65094 0.0
H859 H 0.2196 0.96207 0.67997 0.0
C860 C 0.74735 0.41866 0.02786 0.0
C861 C 0.74748 0.38916 0.03588 0.0
C862 C 0.75797 0.42338 0.00937 0.0
C863 C 0.77442 0.38497 0.96357 0.0
H864 H 0.82958 0.45377 0.95623 0.0
C865 C 0.84007 0.40872 0.89218 0.0
C866 C 0.84597 0.43961 0.88777 0.0
C867 C 0.8263 0.40085 0.9096 0.0
C868 C 0.81378 0.43473 0.95781 0.0
H869 H 0.75809 0.34133 0.03053 0.0
H870 H 0.77619 0.3495 0.99813 0.0
H871 H 0.80844 0.44386 0.98735 0.0
H872 H 0.84045 0.48643 0.89756 0.0
H873 H 0.81548 0.47312 0.92698 0.0
H874 H 0.77949 0.37615 0.93386 0.0
C875 C 0.76794 0.36902 1.00615 0.0
C876 C 0.80171 0.42899 0.9758 0.0
C877 C 0.75767 0.36435 0.02476 0.0
C878 C 0.83641 0.46237 0.90057 0.0
C879 C 0.82239 0.45465 0.91765 0.0
C880 C 0.78628 0.39093 0.94542 0.0
C881 C 0.7687 0.39869 0.99829 0.0
C882 C 0.78167 0.40421 0.97896 0.0
C883 C 0.81799 0.42377 0.92283 0.0
C884 C 0.80592 0.41616 0.94221 0.0
H885 H 0.73965 0.43826 0.03602 0.0
H886 H 0.75786 0.4465 1.00373 0.0
H887 H 0.75901 0.36569 0.96546 0.0
H888 H 0.84756 0.39067 0.88271 0.0
H889 H 0.82339 0.3768 0.913 0.0
C890 C 0.3223 0.09723 0.15715 0.0
C891 C 0.34343 0.09919 0.14213 0.0
C892 C 0.32954 0.08145 0.1737 0.0
C893 C 0.39324 0.05755 0.20387 0.0
H894 H 0.33199 1.00435 0.22653 0.0
C895 C 0.41522 0.99665 0.2757 0.0
C896 C 0.39023 0.99313 0.28811 0.0
C897 C 0.41073 1.00686 0.25712 0.0
C898 C 0.34928 0.01942 0.22061 0.0
H899 H 0.38901 0.08607 0.13287 0.0
H900 H 0.40214 0.05868 0.16231 0.0
H901 H 0.32265 0.0266 0.19553 0.0
H902 H 0.34085 0.99763 0.29073 0.0
H903 H 0.33293 0.01625 0.25861 0.0
H904 H 0.41939 0.05147 0.22921 0.0
C905 C 0.37972 0.06931 0.161 0.0
C906 C 0.34398 0.03202 0.2027 0.0
C907 C 0.3722 0.08481 0.14413 0.0
C908 C 0.36056 0.99987 0.28147 0.0
C909 C 0.35606 1.0104 0.26294 0.0
C910 C 0.39843 0.04522 0.22193 0.0
C911 C 0.35835 0.06739 0.17597 0.0
C912 C 0.36569 0.05156 0.19417 0.0
C913 C 0.3811 1.0142 0.25044 0.0
C914 C 0.37634 0.02623 0.23072 0.0
H915 H 0.29991 0.10803 0.15617 0.0
H916 H 0.31267 0.08084 0.18497 0.0
H917 H 0.4103 0.07278 0.19782 0.0
H918 H 0.43839 0.99156 0.28037 0.0
H919 H 0.4306 1.00884 0.24798 0.0
C920 C 0.33908 0.40865 0.61854 0.0
C921 C 0.34916 0.43882 0.62201 0.0
C922 C 0.32594 0.40076 0.60093 0.0
C923 C 0.32191 0.43013 0.55106 0.0
H924 H 0.25501 0.37218 0.54506 0.0
C925 C 0.25421 0.42121 0.48109 0.0
C926 C 0.24836 0.39168 0.47392 0.0
C927 C 0.26558 0.4252 0.49948 0.0
C928 C 0.27385 0.38828 0.54649 0.0
H929 H 0.35186 0.48454 0.61001 0.0
H930 H 0.3285 0.47133 0.58018 0.0
H931 H 0.27647 0.38176 0.57654 0.0
H932 H 0.24913 0.3432 0.48069 0.0
H933 H 0.26853 0.35019 0.51294 0.0
H934 H 0.319 0.43713 0.52119 0.0
C935 C 0.33155 0.45325 0.5905 0.0
C936 C 0.28626 0.39371 0.56457 0.0
C937 C 0.34478 0.46095 0.60782 0.0
C938 C 0.25336 0.36627 0.48579 0.0
C939 C 0.26439 0.37028 0.50431 0.0
C940 C 0.30934 0.42497 0.53314 0.0
C941 C 0.32252 0.42293 0.5865 0.0
C942 C 0.31022 0.41512 0.56719 0.0
C943 C 0.27114 0.3998 0.51131 0.0
C944 C 0.28489 0.40427 0.53057 0.0
H945 H 0.34225 0.39104 0.62915 0.0
H946 H 0.31933 0.37713 0.59845 0.0
H947 H 0.34096 0.44603 0.55223 0.0
H948 H 0.25062 0.44127 0.47234 0.0
H949 H 0.27011 0.4483 0.50443 0.0
C950 C 0.9068 0.98856 0.24133 0.0
C951 C 0.88528 0.99434 0.22693 0.0
C952 C 0.90274 1.00089 0.25951 0.0
C953 C 0.86457 0.06564 0.28384 0.0
H954 H 0.87938 0.01983 0.32986 0.0
C955 C 0.82603 0.11335 0.35554 0.0
C956 C 0.84364 0.10818 0.37189 0.0
C957 C 0.83313 0.09886 0.33851 0.0
C958 C 0.87561 0.03314 0.31717 0.0
H959 H 0.84227 0.01707 0.22049 0.0
H960 H 0.83518 0.03865 0.25209 0.0
H961 H 0.88701 0.99503 0.29913 0.0
H962 H 0.88275 0.08343 0.38304 0.0
H963 H 0.89573 0.05815 0.3529 0.0
H964 H 0.85366 0.10382 0.30158 0.0
C965 C 0.85534 0.02472 0.24935 0.0
C966 C 0.87986 0.01885 0.29952 0.0
C967 C 0.85925 1.01215 0.23125 0.0
C968 C 0.86876 0.08793 0.37071 0.0
C969 C 0.87604 0.07334 0.35344 0.0
C970 C 0.86062 0.07995 0.30138 0.0
C971 C 0.87722 0.01963 0.26368 0.0
C972 C 0.87388 0.03478 0.2826 0.0
C973 C 0.85834 0.07878 0.33704 0.0
C974 C 0.86546 0.06382 0.31838 0.0
H975 H 0.92716 0.97501 0.23845 0.0
H976 H 0.92013 0.99659 0.27012 0.0
H977 H 0.8605 0.07891 0.27116 0.0
H978 H 0.80631 0.12855 0.35587 0.0
H979 H 0.81836 0.10317 0.32649 0.0
C980 C 0.18541 0.56685 0.10753 0.0
C981 C 0.1796 0.58967 0.12113 0.0
C982 C 0.20036 0.5738 0.09063 0.0
C983 C 0.24653 0.63388 0.06548 0.0
H984 H 0.22064 0.58715 0.02162 0.0
C985 C 0.27989 0.66405 0.9877 0.0
C986 C 0.28855 0.63953 0.97588 0.0
C987 C 0.26878 0.65862 1.00599 0.0
C988 C 0.2284 0.6002 0.03374 0.0
H989 H 0.18544 0.63782 0.1277 0.0
H990 H 0.21088 0.65049 0.09766 0.0
H991 H 0.19643 0.57781 0.05197 0.0
H992 H 0.29275 0.59008 0.97411 0.0
H993 H 0.27277 0.58049 1.00597 0.0
H994 H 0.27778 0.65704 0.04674 0.0
C995 C 0.20439 0.62689 0.1003 0.0
C996 C 0.21457 0.59479 0.05128 0.0
C997 C 0.18974 0.61973 0.11753 0.0
C998 C 0.28633 0.60944 0.98288 0.0
C999 C 0.27472 0.60397 1.00109 0.0
C1000 C 0.26008 0.63963 0.04779 0.0
C1001 C 0.2095 0.60403 0.08644 0.0
C1002 C 0.22365 0.6112 0.06755 0.0
C1003 C 0.26555 0.62849 0.01282 0.0
C1004 C 0.25139 0.62261 0.03174 0.0
H1005 H 0.17827 0.54333 0.10992 0.0
H1006 H 0.20466 0.55522 0.08081 0.0
H1007 H 0.25447 0.64686 0.07758 0.0
H1008 H 0.2813 0.68751 0.9827 0.0
H1009 H 0.26174 0.67801 0.01456 0.0
C1010 C 0.66375 0.04887 0.73811 0.0
C1011 C 0.64366 0.03363 0.72567 0.0
C1012 C 0.66809 0.03802 0.75665 0.0
C1013 C 0.66117 0.96653 0.78481 0.0
H1014 H 0.66882 0.01982 0.82847 0.0
C1015 C 0.70857 0.92199 0.85526 0.0
C1016 C 0.69373 0.93015 0.8722 0.0
C1017 C 0.70077 0.9359 0.83818 0.0
C1018 C 0.66646 1.00463 0.81644 0.0
H1019 H 0.61194 0.99546 0.72314 0.0
H1020 H 0.61943 0.9767 0.75515 0.0
H1021 H 0.65876 0.04207 0.79721 0.0
H1022 H 0.65923 0.96001 0.88441 0.0
H1023 H 0.64559 0.98488 0.85424 0.0
H1024 H 0.66897 0.92916 0.80381 0.0
C1025 C 0.63216 0.99679 0.75067 0.0
C1026 C 0.66105 0.0174 0.79848 0.0
C1027 C 0.62775 1.00767 0.73228 0.0
C1028 C 0.67099 0.95311 0.87161 0.0
C1029 C 0.66332 0.96742 0.85436 0.0
C1030 C 0.66682 0.95387 0.80263 0.0
C1031 C 0.65261 1.01156 0.76311 0.0
C1032 C 0.65836 0.99848 0.78239 0.0
C1033 C 0.67797 0.95871 0.83737 0.0
C1034 C 0.66978 0.97267 0.8187 0.0
H1035 H 0.6763 0.06896 0.73346 0.0
H1036 H 0.68416 0.04989 0.76577 0.0
H1037 H 0.65958 0.95118 0.77281 0.0
H1038 H 0.72648 0.90469 0.85514 0.0
H1039 H 0.71296 0.92893 0.82553 0.0
C1040 C 0.41461 0.20467 0.08733 0.0
C1041 C 0.40159 0.2013 0.10543 0.0
C1042 C 0.44347 0.2188 0.08498 0.0
C1043 C 0.51374 0.24076 0.11226 0.0
H1044 H 0.52872 0.29791 0.0713 0.0
C1045 C 0.61021 0.32893 0.11671 0.0
C1046 C 0.63119 0.33114 0.10161 0.0
C1047 C 0.58281 0.31257 0.11486 0.0
C1048 C 0.52498 0.28172 0.08267 0.0
H1049 H 0.40899 0.21051 0.13521 0.0
H1050 H 0.45841 0.23524 0.13113 0.0
H1051 H 0.47994 0.26957 0.07267 0.0
H1052 H 0.63866 0.31895 0.07229 0.0
H1053 H 0.58991 0.29047 0.06895 0.0
H1054 H 0.55815 0.25355 0.12261 0.0
C1055 C 0.44686 0.22647 0.11871 0.0
C1056 C 0.49705 0.26541 0.08346 0.0
C1057 C 0.41822 0.21236 0.12105 0.0
C1058 C 0.62308 0.31774 0.0842 0.0
C1059 C 0.59522 0.30141 0.0823 0.0
C1060 C 0.54134 0.25715 0.11155 0.0
C1061 C 0.46004 0.22988 0.10067 0.0
C1062 C 0.49076 0.2452 0.09854 0.0
C1063 C 0.57522 0.29797 0.09782 0.0
C1064 C 0.54709 0.27833 0.097 0.0
H1065 H 0.40248 0.19652 0.07496 0.0
H1066 H 0.4529 0.22078 0.07088 0.0
H1067 H 0.51029 0.22479 0.12378 0.0
H1068 H 0.61524 0.33919 0.1303 0.0
H1069 H 0.56765 0.31093 0.12697 0.0
C1070 C 0.58135 0.66783 0.37162 0.0
C1071 C 0.58595 0.64972 0.35539 0.0
C1072 C 0.56703 0.69653 0.37047 0.0
C1073 C 0.5147 0.74283 0.34036 0.0
H1074 H 0.53994 0.80832 0.37407 0.0
C1075 C 0.45995 0.866 0.34019 0.0
C1076 C 0.45484 0.87953 0.35799 0.0
C1077 C 0.47601 0.83808 0.33857 0.0
C1078 C 0.53237 0.79022 0.36466 0.0
H1079 H 0.57945 0.64823 0.32506 0.0
H1080 H 0.55476 0.69872 0.323 0.0
H1081 H 0.5691 0.76068 0.3732 0.0
H1082 H 0.46202 0.87343 0.3881 0.0
H1083 H 0.48962 0.82516 0.38526 0.0
H1084 H 0.47788 0.77269 0.33185 0.0
C1085 C 0.56197 0.6904 0.3367 0.0
C1086 C 0.54914 0.76279 0.36416 0.0
C1087 C 0.57642 0.66155 0.33785 0.0
C1088 C 0.46555 0.86397 0.37411 0.0
C1089 C 0.48167 0.83627 0.37249 0.0
C1090 C 0.49794 0.77044 0.3408 0.0
C1091 C 0.55683 0.70821 0.35305 0.0
C1092 C 0.54029 0.73843 0.35226 0.0
C1093 C 0.48756 0.82312 0.35471 0.0
C1094 C 0.50624 0.79431 0.35321 0.0
H1095 H 0.58824 0.65959 0.3854 0.0
H1096 H 0.56315 0.70917 0.38343 0.0
H1097 H 0.50694 0.72457 0.33113 0.0
H1098 H 0.45212 0.87729 0.32745 0.0
H1099 H 0.48019 0.82868 0.32464 0.0
C1100 C 0.91277 0.70626 0.58992 0.0
C1101 C 0.89909 0.69948 0.60746 0.0
C1102 C 0.9414 0.72126 0.589 0.0
C1103 C 1.01071 0.73972 0.61807 0.0
H1104 H 0.02389 0.80446 0.58142 0.0
C1105 C 0.11365 0.82257 0.62456 0.0
C1106 C 0.12959 0.83117 0.60808 0.0
C1107 C 0.08578 0.80654 0.62352 0.0
C1108 C 0.02078 0.78621 0.59161 0.0
H1109 H 0.90536 0.70306 0.63778 0.0
H1110 H 0.95467 0.72903 0.63617 0.0
H1111 H 0.97563 0.77562 0.58121 0.0
H1112 H 0.12795 0.82999 0.57749 0.0
H1113 H 0.07926 0.80191 0.57569 0.0
H1114 H 0.05563 0.75029 0.62856 0.0
C1115 C 0.9436 0.72254 0.62307 0.0
C1116 C 0.99305 0.7696 0.59148 0.0
C1117 C 0.91506 0.7077 0.62399 0.0
C1118 C 0.11636 0.82387 0.59049 0.0
C1119 C 0.08834 0.80779 0.58946 0.0
C1120 C 0.03834 0.75629 0.6182 0.0
C1121 C 0.95719 0.72973 0.60559 0.0
C1122 C 0.98744 0.74634 0.60487 0.0
C1123 C 0.07286 0.79849 0.60599 0.0
C1124 C 0.0437 0.78006 0.60515 0.0
H1125 H 0.90119 0.70039 0.57688 0.0
H1126 H 0.95122 0.72609 0.57527 0.0
H1127 H 1.00766 0.72158 0.62834 0.0
H1128 H 0.12287 0.82786 0.63838 0.0
H1129 H 0.07433 0.80044 0.63657 0.0
C1130 C 0.96139 0.36577 0.86994 0.0
C1131 C 0.953 0.38357 0.8542 0.0
C1132 C 0.97588 0.33734 0.86768 0.0
C1133 C 0.02085 0.28976 0.8338 0.0
H1134 H 1.00233 0.22605 0.87025 0.0
C1135 C 0.07396 0.1642 0.83482 0.0
C1136 C 0.08453 0.15518 0.85277 0.0
C1137 C 0.05758 0.19193 0.83254 0.0
C1138 C 1.0078 0.24359 0.85994 0.0
H1139 H 0.95343 0.38503 0.82361 0.0
H1140 H 0.97842 0.33495 0.81964 0.0
H1141 H 0.97325 0.27372 0.87077 0.0
H1142 H 0.08725 0.16931 0.88219 0.0
H1143 H 0.05889 0.21664 0.8782 0.0
H1144 H 0.05556 0.25903 0.82305 0.0
C1145 C 0.97401 0.3433 0.83379 0.0
C1146 C 0.99122 0.27108 0.86029 0.0
C1147 C 0.95947 0.37196 0.83606 0.0
C1148 C 0.0793 0.17507 0.86814 0.0
C1149 C 0.06285 0.20232 0.86591 0.0
C1150 C 0.03737 0.26195 0.83335 0.0
C1151 C 0.98237 0.32554 0.8496 0.0
C1152 C 0.99802 0.29499 0.8476 0.0
C1153 C 0.0512 0.21086 0.84821 0.0
C1154 C 0.03154 0.23889 0.84677 0.0
H1155 H 0.95711 0.37389 0.88416 0.0
H1156 H 0.98251 0.32485 0.88024 0.0
H1157 H 0.02686 0.3076 0.82382 0.0
H1158 H 0.07754 0.1495 0.82267 0.0
H1159 H 0.04894 0.19798 0.8187 0.0
C1160 C 0.61838 0.82858 0.92308 0.0
C1161 C 0.63065 0.83809 0.90564 0.0
C1162 C 0.58992 0.81326 0.92394 0.0
C1163 C 0.53761 0.76697 0.89365 0.0
H1164 H 0.47727 0.78098 0.93303 0.0
C1165 C 0.41427 0.71863 0.88821 0.0
C1166 C 0.39941 0.70809 0.90464 0.0
C1167 C 0.44271 0.73363 0.88923 0.0
C1168 C 0.49402 0.77645 0.92206 0.0
H1169 H 0.62161 0.84009 0.87553 0.0
H1170 H 0.57231 0.814 0.87707 0.0
H1171 H 0.52565 0.80967 0.9333 0.0
H1172 H 0.40335 0.70505 0.9351 0.0
H1173 H 0.45322 0.73093 0.93685 0.0
H1174 H 0.50626 0.73383 0.88238 0.0
C1175 C 0.58487 0.81767 0.89008 0.0
C1176 C 0.5218 0.79298 0.9222 0.0
C1177 C 0.61316 0.83292 0.88922 0.0
C1178 C 0.41406 0.71275 0.92213 0.0
C1179 C 0.4426 0.72786 0.92316 0.0
C1180 C 0.50997 0.75046 0.89352 0.0
C1181 C 0.57307 0.80702 0.90738 0.0
C1182 C 0.54383 0.78876 0.90785 0.0
C1183 C 0.45732 0.7386 0.9067 0.0
C1184 C 0.48755 0.75518 0.90758 0.0
H1185 H 0.6312 0.83203 0.93601 0.0
H1186 H 0.58165 0.80535 0.93752 0.0
H1187 H 0.55426 0.76246 0.88261 0.0
H1188 H 0.40378 0.71569 0.87447 0.0
H1189 H 0.45294 0.74193 0.87626 0.0
C1190 C 0.45607 0.36796 0.67261 0.0
C1191 C 0.4508 0.38229 0.65509 0.0
C1192 C 0.47165 0.33967 0.67362 0.0
C1193 C 0.52516 0.29034 0.64565 0.0
H1194 H 0.50124 0.22618 0.68058 0.0
C1195 C 0.57218 0.16674 0.63888 0.0
C1196 C 0.57892 0.14993 0.65534 0.0
C1197 C 0.55755 0.19535 0.6399 0.0
C1198 C 0.50852 0.24398 0.6709 0.0
H1199 H 0.45717 0.37724 0.62484 0.0
H1200 H 0.48366 0.32826 0.62659 0.0
H1201 H 0.47329 0.27493 0.68042 0.0
H1202 H 0.57545 0.15053 0.68587 0.0
H1203 H 0.55005 0.20067 0.68765 0.0
H1204 H 0.56022 0.25954 0.63604 0.0
C1205 C 0.47641 0.33905 0.63963 0.0
C1206 C 0.49243 0.27201 0.6708 0.0
C1207 C 0.46091 0.36719 0.63863 0.0
C1208 C 0.57075 0.16278 0.67289 0.0
C1209 C 0.55593 0.19147 0.67391 0.0
C1210 C 0.54118 0.26242 0.64575 0.0
C1211 C 0.48243 0.325 0.65713 0.0
C1212 C 0.50026 0.29548 0.65799 0.0
C1213 C 0.54907 0.20817 0.6574 0.0
C1214 C 0.53291 0.23863 0.65819 0.0
H1215 H 0.44873 0.37887 0.6856 0.0
H1216 H 0.47595 0.32972 0.68736 0.0
H1217 H 0.53247 0.30803 0.6359 0.0
H1218 H 0.57793 0.15769 0.62508 0.0
H1219 H 0.55229 0.20714 0.62684 0.0
C1220 C 0.1224 0.3213 0.42606 0.0
C1221 C 0.12983 0.33555 0.40881 0.0
C1222 C 0.09474 0.30467 0.42802 0.0
C1223 C 0.04034 0.26127 0.39863 0.0
H1224 H 0.9808 0.27034 0.43897 0.0
C1225 C 0.91757 0.2139 0.39103 0.0
C1226 C 0.90187 0.2025 0.40691 0.0
C1227 C 0.94621 0.22822 0.39289 0.0
C1228 C 0.99739 0.26708 0.42775 0.0
H1229 H 0.11287 0.34492 0.38053 0.0
H1230 H 0.06555 0.31616 0.38395 0.0
H1231 H 0.02901 0.29956 0.43998 0.0
H1232 H 0.90458 0.197 0.4373 0.0
H1233 H 0.95497 0.22146 0.44049 0.0
H1234 H 1.00936 0.22884 0.38635 0.0
C1235 C 0.08111 0.31734 0.39587 0.0
C1236 C 0.025 0.28393 0.42834 0.0
C1237 C 0.10833 0.33399 0.39398 0.0
C1238 C 0.91595 0.20545 0.42473 0.0
C1239 C 0.9448 0.21974 0.42659 0.0
C1240 C 1.01306 0.2443 0.39812 0.0
C1241 C 0.07426 0.3018 0.4127 0.0
C1242 C 0.04643 0.28175 0.41352 0.0
C1243 C 0.96031 0.23146 0.41068 0.0
C1244 C 0.99075 0.24747 0.4124 0.0
H1245 H 0.13842 0.32196 0.43776 0.0
H1246 H 0.09001 0.29301 0.4412 0.0
H1247 H 0.05665 0.25858 0.38717 0.0
H1248 H 0.90748 0.21234 0.37708 0.0
H1249 H 0.95695 0.23742 0.38031 0.0
C1250 C 0.06282 0.65962 0.13867 0.0
C1251 C 0.074 0.64488 0.15496 0.0
C1252 C 0.04683 0.68746 0.13993 0.0
C1253 C 0.03215 0.75471 0.17105 0.0
H1254 H 0.96208 0.76618 0.13797 0.0
C1255 C 0.95599 0.86508 0.17369 0.0
C1256 C 0.94736 0.87753 0.15614 0.0
C1257 C 0.96972 0.83588 0.17479 0.0
C1258 C 0.98173 0.76356 0.14721 0.0
H1259 H 0.07734 0.64853 0.18542 0.0
H1260 H 0.04936 0.6972 0.18762 0.0
H1261 H 0.98992 0.71771 0.13752 0.0
H1262 H 0.94581 0.86836 0.12603 0.0
H1263 H 0.96957 0.81802 0.12793 0.0
H1264 H 0.02406 0.80082 0.18058 0.0
C1265 C 0.05317 0.68718 0.17381 0.0
C1266 C 0.99778 0.73566 0.14694 0.0
C1267 C 0.06916 0.65917 0.17256 0.0
C1268 C 0.95204 0.85964 0.13983 0.0
C1269 C 0.9656 0.83053 0.14092 0.0
C1270 C 1.01608 0.78272 0.1713 0.0
C1271 C 0.04146 0.70156 0.15751 0.0
C1272 C 0.0235 0.73092 0.15865 0.0
C1273 C 0.97498 0.81829 0.15838 0.0
C1274 C 0.99086 0.78772 0.15919 0.0
H1275 H 0.06614 0.64953 0.12483 0.0
H1276 H 0.03878 0.69804 0.12701 0.0
H1277 H 0.05194 0.75207 0.18017 0.0
H1278 H 0.95286 0.87818 0.18656 0.0
H1279 H 0.97627 0.82713 0.18851 0.0
C1280 C 0.24419 0.25062 0.09343 0.0
C1281 C 0.2746 0.24325 0.09826 0.0
C1282 C 0.23414 0.28114 0.09392 0.0
C1283 C 0.24688 0.34638 0.12358 0.0
H1284 H 0.19188 0.38977 0.0899 0.0
C1285 C 0.18891 0.46168 0.14514 0.0
C1286 C 0.15954 0.46769 0.13782 0.0
C1287 C 0.20567 0.43603 0.13891 0.0
C1288 C 0.20684 0.37781 0.09964 0.0
H1289 H 0.31892 0.26194 0.10612 0.0
H1290 H 0.30127 0.31532 0.10716 0.0
H1291 H 0.21716 0.34289 0.07915 0.0
H1292 H 0.12398 0.45093 0.11906 0.0
H1293 H 0.15208 0.40556 0.1091 0.0
H1294 H 0.2353 0.37985 0.1445 0.0
C1295 C 0.28533 0.29758 0.10277 0.0
C1296 C 0.2216 0.35114 0.09333 0.0
C1297 C 0.29554 0.26711 0.10186 0.0
C1298 C 0.14672 0.44698 0.12483 0.0
C1299 C 0.1631 0.42113 0.11891 0.0
C1300 C 0.23167 0.37271 0.13003 0.0
C1301 C 0.25419 0.30464 0.09969 0.0
C1302 C 0.24154 0.33499 0.10529 0.0
C1303 C 0.19314 0.41558 0.12548 0.0
C1304 C 0.21101 0.38859 0.11826 0.0
H1305 H 0.22749 0.23255 0.09109 0.0
H1306 H 0.20998 0.28591 0.09157 0.0
H1307 H 0.26175 0.33407 0.13323 0.0
H1308 H 0.19948 0.47751 0.155 0.0
H1309 H 0.22878 0.43283 0.14422 0.0
C1310 C 0.33194 0.41323 0.39288 0.0
C1311 C 0.31074 0.40206 0.37955 0.0
C1312 C 0.35932 0.42724 0.38703 0.0
C1313 C 0.41303 0.4362 0.34675 0.0
H1314 H 0.43437 0.51225 0.37204 0.0
C1315 C 0.5026 0.54634 0.34289 0.0
C1316 C 0.5312 0.53135 0.34346 0.0
C1317 C 0.47525 0.52954 0.34358 0.0
C1318 C 0.42861 0.4912 0.36468 0.0
H1319 H 0.30233 0.39616 0.34955 0.0
H1320 H 0.35008 0.42057 0.33943 0.0
H1321 H 0.38856 0.48427 0.3817 0.0
H1322 H 0.55352 0.48683 0.34316 0.0
H1323 H 0.50559 0.45738 0.34408 0.0
H1324 H 0.4535 0.44326 0.32981 0.0
C1325 C 0.34555 0.41836 0.3544 0.0
C1326 C 0.40254 0.47494 0.37041 0.0
C1327 C 0.31807 0.40448 0.36024 0.0
C1328 C 0.53185 0.49907 0.34259 0.0
C1329 C 0.50436 0.48219 0.34324 0.0
C1330 C 0.43944 0.45238 0.34114 0.0
C1331 C 0.36629 0.43033 0.36772 0.0
C1332 C 0.39439 0.44723 0.36155 0.0
C1333 C 0.47586 0.49732 0.34479 0.0
C1334 C 0.44742 0.48017 0.34999 0.0
H1335 H 0.32719 0.41166 0.40786 0.0
H1336 H 0.37501 0.43583 0.39767 0.0
H1337 H 0.40746 0.41484 0.33969 0.0
H1338 H 0.5014 0.57118 0.34352 0.0
H1339 H 0.45363 0.54185 0.34432 0.0
C1340 C 0.28776 0.78197 0.59519 0.0
C1341 C 0.25755 0.7896 0.60037 0.0
C1342 C 0.29796 0.75151 0.59618 0.0
C1343 C 0.28727 0.68724 0.62696 0.0
H1344 H 0.33766 0.64145 0.59169 0.0
C1345 C 0.34283 0.57023 0.64729 0.0
C1346 C 0.37093 0.5625 0.63876 0.0
C1347 C 0.3267 0.59655 0.64155 0.0
C1348 C 0.32408 0.65409 0.60188 0.0
H1349 H 0.21382 0.77136 0.60972 0.0
H1350 H 0.23173 0.7181 0.61169 0.0
H1351 H 0.31286 0.68886 0.58152 0.0
H1352 H 0.40499 0.57694 0.61829 0.0
H1353 H 0.37817 0.62348 0.60916 0.0
H1354 H 0.29977 0.65389 0.64769 0.0
C1355 C 0.24736 0.73559 0.60657 0.0
C1356 C 0.30956 0.68109 0.59591 0.0
C1357 C 0.23699 0.76595 0.60514 0.0
C1358 C 0.3832 0.5822 0.62501 0.0
C1359 C 0.36752 0.60875 0.61958 0.0
C1360 C 0.3023 0.6606 0.63307 0.0
C1361 C 0.27829 0.72833 0.60287 0.0
C1362 C 0.29117 0.69804 0.60841 0.0
C1363 C 0.33863 0.61604 0.6274 0.0
C1364 C 0.32127 0.64374 0.62069 0.0
H1365 H 0.30423 0.7999 0.59198 0.0
H1366 H 0.32195 0.74659 0.59334 0.0
H1367 H 0.2736 0.70016 0.637 0.0
H1368 H 0.33267 0.55523 0.65776 0.0
H1369 H 0.30444 0.60102 0.64783 0.0
C1370 C 0.99997 0.54229 0.84732 0.0
C1371 C 0.99374 0.51153 0.85177 0.0
C1372 C 0.03012 0.55347 0.84793 0.0
C1373 C 0.09574 0.54325 0.87737 0.0
H1374 H 0.13886 0.59706 0.84284 0.0
C1375 C 0.21152 0.6011 0.89776 0.0
C1376 C 0.21822 0.6298 0.88977 0.0
C1377 C 0.18545 0.58464 0.89195 0.0
C1378 C 0.12695 0.58251 0.85283 0.0
H1379 H 1.01403 0.46788 0.85935 0.0
H1380 H 0.06681 0.48752 0.86071 0.0
H1381 H 0.09202 0.57119 0.83254 0.0
H1382 H 0.20229 0.66455 0.87026 0.0
H1383 H 0.15603 0.63709 0.86108 0.0
H1384 H 0.12914 0.55581 0.89809 0.0
C1385 C 0.04846 0.50283 0.85642 0.0
C1386 C 0.10031 0.56739 0.84677 0.0
C1387 C 0.01837 0.4915 0.85536 0.0
C1388 C 0.19774 0.64234 0.87656 0.0
C1389 C 0.17139 0.6263 0.87109 0.0
C1390 C 0.12199 0.55887 0.88358 0.0
C1391 C 0.05438 0.5342 0.85352 0.0
C1392 C 0.08437 0.54774 0.85902 0.0
C1393 C 0.16518 0.59682 0.87831 0.0
C1394 C 0.13786 0.57903 0.87148 0.0
H1395 H 0.98125 0.55829 0.84501 0.0
H1396 H 0.03404 0.57778 0.84575 0.0
H1397 H 0.08355 0.52862 0.88721 0.0
H1398 H 0.2272 0.59073 0.90777 0.0
H1399 H 0.18183 0.56194 0.89774 0.0
C1400 C 0.73591 0.75531 0.91983 0.0
C1401 C 0.75045 0.78401 0.91831 0.0
C1402 C 0.75288 0.72815 0.91813 0.0
C1403 C 0.82183 0.70116 0.89359 0.0
H1404 H 0.80538 0.62453 0.91945 0.0
C1405 C 0.86256 0.58191 0.86541 0.0
C1406 C 0.87466 0.56174 0.87899 0.0
C1407 C 0.84846 0.60953 0.87099 0.0
C1408 C 0.81037 0.64578 0.91213 0.0
H1409 H 0.79459 0.80676 0.91556 0.0
H1410 H 0.82428 0.75932 0.91285 0.0
H1411 H 0.7806 0.67167 0.93029 0.0
H1412 H 0.88155 0.55516 0.90915 0.0
H1413 H 0.85728 0.60272 0.91863 0.0
H1414 H 0.8515 0.67519 0.87537 0.0
C1415 C 0.79966 0.75783 0.91505 0.0
C1416 C 0.79605 0.67276 0.91831 0.0
C1417 C 0.7827 0.78501 0.91693 0.0
C1418 C 0.87248 0.56994 0.8982 0.0
C1419 C 0.85833 0.59724 0.90372 0.0
C1420 C 0.83598 0.67411 0.88732 0.0
C1421 C 0.78475 0.72916 0.91477 0.0
C1422 C 0.80159 0.70079 0.90912 0.0
C1423 C 0.84597 0.61733 0.89025 0.0
C1424 C 0.83044 0.64609 0.89652 0.0
H1425 H 0.71106 0.75388 0.92071 0.0
H1426 H 0.74065 0.70649 0.91799 0.0
H1427 H 0.82619 0.72228 0.88598 0.0
H1428 H 0.86386 0.57635 0.85052 0.0
H1429 H 0.83901 0.6245 0.86026 0.0
C1430 C 0.69693 0.6374 0.63681 0.0
C1431 C 0.71647 0.62484 0.62304 0.0
C1432 C 0.67045 0.62183 0.64255 0.0
C1433 C 0.61866 0.55603 0.6303 0.0
H1434 H 0.59259 0.56685 0.6823 0.0
C1435 C 0.51502 0.49019 0.65992 0.0
C1436 C 0.49139 0.51059 0.66505 0.0
C1437 C 0.54532 0.5007 0.65812 0.0
C1438 C 0.59974 0.56348 0.66779 0.0
H1439 H 0.72348 0.58629 0.60424 0.0
H1440 H 0.67779 0.55832 0.61468 0.0
H1441 H 0.63922 0.59213 0.67115 0.0
H1442 H 0.48118 0.55701 0.6739 0.0
H1443 H 0.53439 0.57495 0.67187 0.0
H1444 H 0.57927 0.52684 0.62721 0.0
C1445 C 0.68232 0.58067 0.62076 0.0
C1446 C 0.62629 0.57827 0.66126 0.0
C1447 C 0.70856 0.59668 0.61471 0.0
C1448 C 0.49909 0.54067 0.67039 0.0
C1449 C 0.5295 0.551 0.669 0.0
C1450 C 0.59247 0.54077 0.63696 0.0
C1451 C 0.66312 0.59279 0.63503 0.0
C1452 C 0.63583 0.57534 0.64228 0.0
C1453 C 0.55255 0.53159 0.66182 0.0
C1454 C 0.58247 0.54473 0.65568 0.0
H1455 H 0.70239 0.65921 0.6434 0.0
H1456 H 0.6559 0.63259 0.65305 0.0
H1457 H 0.62477 0.55339 0.61557 0.0
H1458 H 0.50957 0.46712 0.65524 0.0
H1459 H 0.56271 0.48524 0.65265 0.0
C1460 C 0.78813 0.27859 0.42169 0.0
C1461 C 0.77616 0.24895 0.41893 0.0
C1462 C 0.76937 0.30446 0.41944 0.0
C1463 C 0.70449 0.3272 0.39042 0.0
H1464 H 0.70616 0.40278 0.41936 0.0
C1465 C 0.6634 0.44595 0.36164 0.0
C1466 C 0.64515 0.46347 0.37403 0.0
C1467 C 0.67732 0.41865 0.36784 0.0
C1468 C 0.70537 0.38178 0.41116 0.0
H1469 H 0.7345 0.22308 0.41335 0.0
H1470 H 0.70181 0.26824 0.40948 0.0
H1471 H 0.73291 0.35733 0.43129 0.0
H1472 H 0.62672 0.46534 0.40258 0.0
H1473 H 0.65107 0.41837 0.4132 0.0
H1474 H 0.67751 0.35185 0.37009 0.0
C1475 C 0.72575 0.27146 0.41322 0.0
C1476 C 0.72074 0.35582 0.41798 0.0
C1477 C 0.7444 0.24558 0.41574 0.0
C1478 C 0.64064 0.45265 0.39256 0.0
C1479 C 0.65477 0.42573 0.39877 0.0
C1480 C 0.68949 0.3533 0.38346 0.0
C1481 C 0.73837 0.30114 0.41419 0.0
C1482 C 0.72043 0.32823 0.40771 0.0
C1483 C 0.67358 0.40861 0.3866 0.0
C1484 C 0.68974 0.38086 0.39377 0.0
H1485 H 0.81256 0.28184 0.42393 0.0
H1486 H 0.77976 0.32702 0.4203 0.0
H1487 H 0.70427 0.30639 0.38203 0.0
H1488 H 0.6674 0.45358 0.3473 0.0
H1489 H 0.69178 0.40591 0.35815 0.0
C1490 C 0.82418 0.39608 0.1469 0.0
C1491 C 0.80944 0.40496 0.13014 0.0
C1492 C 0.85101 0.411 0.15293 0.0
C1493 C 0.91229 0.46524 0.13573 0.0
H1494 H 0.93322 0.46882 0.18893 0.0
C1495 C 1.01365 0.53701 0.16283 0.0
C1496 C 0.03809 0.51694 0.16686 0.0
C1497 C 0.98338 0.52603 0.16227 0.0
C1498 C 0.92743 0.46812 0.17406 0.0
H1499 H 0.81061 0.43707 0.10686 0.0
H1500 H 0.8561 0.46419 0.11774 0.0
H1501 H 0.88507 0.44455 0.17909 0.0
H1502 H 0.04992 0.47059 0.17503 0.0
H1503 H 0.99674 0.45186 0.17515 0.0
H1504 H 0.95433 0.48976 0.13095 0.0
C1505 C 0.84812 0.4448 0.12592 0.0
C1506 C 0.90003 0.45387 0.16831 0.0
C1507 C 0.8218 0.42933 0.11966 0.0
C1508 C 0.03142 0.48668 0.17236 0.0
C1509 C 1.00106 0.4759 0.17225 0.0
C1510 C 0.93916 0.4801 0.14154 0.0
C1511 C 0.86338 0.43579 0.14261 0.0
C1512 C 0.89213 0.4519 0.149 0.0
C1513 C 0.97705 0.49506 0.1662 0.0
C1514 C 0.9471 0.48148 0.16071 0.0
H1515 H 0.81519 0.3773 0.15526 0.0
H1516 H 0.86216 0.40273 0.16559 0.0
H1517 H 0.90785 0.46367 0.12074 0.0
H1518 H 0.01823 0.56018 0.15802 0.0
H1519 H 0.96521 0.54114 0.15746 0.0
C1520 C 0.74055 0.7507 0.59354 0.0
C1521 C 0.77079 0.74306 0.59862 0.0
C1522 C 0.73046 0.7812 0.59444 0.0
C1523 C 0.742 0.84564 0.62506 0.0
H1524 H 0.68994 0.89088 0.59055 0.0
C1525 C 0.6863 0.96222 0.64625 0.0
C1526 C 0.65776 0.96965 0.6382 0.0
C1527 C 0.70244 0.93605 0.64022 0.0
C1528 C 0.70401 0.8784 0.60053 0.0
H1529 H 0.81473 0.76135 0.60754 0.0
H1530 H 0.79703 0.81468 0.60931 0.0
H1531 H 0.71474 0.84363 0.58002 0.0
H1532 H 0.623 0.95482 0.61831 0.0
H1533 H 0.6499 0.90852 0.60869 0.0
H1534 H 0.73001 0.87897 0.64597 0.0
C1535 C 0.78126 0.79716 0.60437 0.0
C1536 C 0.71852 0.85149 0.59435 0.0
C1537 C 0.79153 0.76674 0.60305 0.0
C1538 C 0.6451 0.94979 0.62465 0.0
C1539 C 0.66083 0.92338 0.61894 0.0
C1540 C 0.727 0.87219 0.63139 0.0
C1541 C 0.75028 0.80443 0.6009 0.0
C1542 C 0.7375 0.83473 0.60658 0.0
C1543 C 0.6901 0.9164 0.62627 0.0
C1544 C 0.70744 0.88883 0.6193 0.0
H1545 H 0.72396 0.73276 0.59058 0.0
H1546 H 0.70642 0.78611 0.59177 0.0
H1547 H 0.75611 0.83286 0.63491 0.0
H1548 H 0.69677 0.97735 0.65655 0.0
H1549 H 0.72499 0.93182 0.64613 0.0
C1550 C 0.83591 0.91251 0.90369 0.0
C1551 C 0.81835 0.8961 0.8904 0.0
C1552 C 0.86464 0.9248 0.89868 0.0
C1553 C 0.90788 0.95095 0.85685 0.0
H1554 H 0.97853 0.9494 0.89019 0.0
C1555 C 1.01155 0.03311 0.85058 0.0
C1556 C 0.04097 0.02208 0.85507 0.0
C1557 C 0.98581 1.01404 0.85208 0.0
C1558 C 0.95913 0.94967 0.8806 0.0
H1559 H 0.81797 0.87899 0.86155 0.0
H1560 H 0.86758 0.90031 0.85299 0.0
H1561 H 0.93099 0.92352 0.89961 0.0
H1562 H 0.06688 0.98203 0.86375 0.0
H1563 H 0.02177 0.94851 0.86638 0.0
H1564 H 0.93577 0.97751 0.838 0.0
C1565 C 0.85908 0.90404 0.86719 0.0
C1566 C 0.93178 0.93519 0.88612 0.0
C1567 C 0.83059 0.89167 0.87218 0.0
C1568 C 0.04451 0.99098 0.85988 0.0
C1569 C 0.01864 0.97195 0.86167 0.0
C1570 C 0.93509 0.96564 0.85142 0.0
C1571 C 0.87631 0.9211 0.88026 0.0
C1572 C 0.90575 0.93581 0.87435 0.0
C1573 C 0.9889 0.98361 0.85842 0.0
C1574 C 0.96099 0.96539 0.86328 0.0
H1575 H 0.82724 0.91637 0.91784 0.0
H1576 H 0.87729 0.93799 0.90907 0.0
H1577 H 0.8882 0.95211 0.84751 0.0
H1578 H 1.0082 0.05712 0.84713 0.0
H1579 H 0.96327 0.02382 0.84957 0.0
C1580 C 0.87703 0.08371 0.15359 0.0
C1581 C 0.89309 0.06588 0.14026 0.0
C1582 C 0.86447 0.11223 0.14848 0.0
C1583 C 0.83629 0.15399 0.10674 0.0
H1584 H 0.83899 0.22553 0.13932 0.0
C1585 C 0.75279 0.25669 0.10115 0.0
C1586 C 0.76398 0.28631 0.10489 0.0
C1587 C 0.7721 0.23114 0.10262 0.0
C1588 C 0.83838 0.20587 0.12995 0.0
H1589 H 0.90926 0.06474 0.11122 0.0
H1590 H 0.88741 0.11401 0.10247 0.0
H1591 H 0.86578 0.17854 0.14871 0.0
H1592 H 0.80449 0.31271 0.11221 0.0
H1593 H 0.8384 0.26791 0.11483 0.0
H1594 H 0.8084 0.18106 0.08817 0.0
C1595 C 0.88424 0.1059 0.11679 0.0
C1596 C 0.8534 0.17885 0.13545 0.0
C1597 C 0.89692 0.07763 0.12189 0.0
C1598 C 0.79537 0.29016 0.10895 0.0
C1599 C 0.81465 0.26449 0.11072 0.0
C1600 C 0.82102 0.18087 0.10135 0.0
C1601 C 0.86751 0.12338 0.12992 0.0
C1602 C 0.85237 0.15251 0.12396 0.0
C1603 C 0.80294 0.23463 0.10818 0.0
C1604 C 0.82168 0.20707 0.11295 0.0
H1605 H 0.87363 0.07543 0.16785 0.0
H1606 H 0.85155 0.12508 0.15891 0.0
H1607 H 0.83481 0.13405 0.09763 0.0
H1608 H 0.72858 0.25312 0.09825 0.0
H1609 H 0.76229 0.2085 0.10067 0.0
C1610 C 0.52234 0.98982 0.35443 0.0
C1611 C 0.49726 1.00941 0.35117 0.0
C1612 C 0.55227 1.00166 0.35503 0.0
C1613 C 0.60278 0.06754 0.34543 0.0
H1614 H 0.63177 0.05554 0.39665 0.0
C1615 C 0.70023 0.14258 0.3762 0.0
C1616 C 0.72015 0.12983 0.38968 0.0
C1617 C 0.67414 0.12651 0.37017 0.0
C1618 C 0.62463 0.05873 0.38215 0.0
H1619 H 0.48377 0.05588 0.34436 0.0
H1620 H 0.5362 0.07627 0.34435 0.0
H1621 H 0.58674 0.02782 0.38563 0.0
H1622 H 0.72852 0.09014 0.40732 0.0
H1623 H 0.68397 0.06149 0.3963 0.0
H1624 H 0.64087 0.09795 0.34169 0.0
C1625 C 0.5328 0.05191 0.34662 0.0
C1626 C 0.59868 0.04279 0.37586 0.0
C1627 C 0.50283 0.0402 0.34643 0.0
C1628 C 0.71331 0.10078 0.39713 0.0
C1629 C 0.68761 0.08437 0.39079 0.0
C1630 C 0.62921 0.08301 0.35157 0.0
C1631 C 0.55754 0.03313 0.35202 0.0
C1632 C 0.58725 0.04731 0.35753 0.0
C1633 C 0.66766 0.09689 0.37711 0.0
C1634 C 0.64029 0.07925 0.37016 0.0
H1635 H 0.51855 0.96619 0.35862 0.0
H1636 H 0.571 0.98671 0.35918 0.0
H1637 H 0.59437 0.07146 0.33124 0.0
H1638 H 0.70486 0.16502 0.37025 0.0
H1639 H 0.65909 0.13748 0.36005 0.0
C1640 C 0.29155 0.29074 0.40269 0.0
C1641 C 0.25978 0.28799 0.40591 0.0
C1642 C 0.31 0.2644 0.40145 0.0
C1643 C 0.31208 0.18065 0.41099 0.0
H1644 H 0.36186 0.17649 0.36556 0.0
C1645 C 0.38628 0.0751 0.39428 0.0
C1646 C 0.38515 0.06329 0.37578 0.0
C1647 C 0.37377 0.10373 0.39857 0.0
C1648 C 0.34799 0.17729 0.37826 0.0
H1649 H 0.22277 0.25615 0.41168 0.0
H1650 H 0.25493 0.21039 0.41008 0.0
H1651 H 0.33587 0.22449 0.37392 0.0
H1652 H 0.37069 0.07304 0.34713 0.0
H1653 H 0.34851 0.12341 0.35469 0.0
H1654 H 0.32341 0.13336 0.41513 0.0
C1655 C 0.2657 0.23264 0.4084 0.0
C1656 C 0.33346 0.20488 0.3832 0.0
C1657 C 0.24727 0.25885 0.40939 0.0
C1658 C 0.37189 0.08139 0.36151 0.0
C1659 C 0.35932 0.11028 0.36584 0.0
C1660 C 0.32672 0.15319 0.40614 0.0
C1661 C 0.29702 0.23501 0.40368 0.0
C1662 C 0.31507 0.20677 0.39952 0.0
C1663 C 0.35971 0.12151 0.38451 0.0
C1664 C 0.34466 0.15108 0.38964 0.0
H1665 H 0.30169 0.31293 0.3997 0.0
H1666 H 0.33415 0.26694 0.39802 0.0
H1667 H 0.29814 0.18136 0.42367 0.0
H1668 H 0.3966 0.06209 0.40566 0.0
H1669 H 0.37502 0.11192 0.413 0.0
C1670 C 1.00297 0.0283 0.16924 0.0
C1671 C 1.00376 0.99604 0.16983 0.0
C1672 C 0.0303 0.04511 0.16767 0.0
C1673 C 0.10786 0.03313 0.14809 0.0
H1674 H 0.12186 0.11655 0.16508 0.0
C1675 C 0.21066 0.12934 0.14804 0.0
C1676 C 0.22183 0.12624 0.12947 0.0
C1677 C 0.18377 0.11454 0.15371 0.0
C1678 C 0.11844 0.09317 0.1603 0.0
H1679 H 0.0336 0.95638 0.17166 0.0
H1680 H 0.08131 0.98572 0.16979 0.0
H1681 H 0.07737 0.08825 0.17676 0.0
H1682 H 0.21284 0.1056 0.10216 0.0
H1683 H 0.16536 0.07997 0.11203 0.0
H1684 H 0.14915 0.03781 0.1319 0.0
C1685 C 0.05965 0.99802 0.16976 0.0
C1686 C 0.09278 0.07702 0.16691 0.0
C1687 C 0.03236 0.98123 0.17117 0.0
C1688 C 0.20496 0.10842 0.11657 0.0
C1689 C 0.17787 0.09356 0.12228 0.0
C1690 C 0.13353 0.04924 0.14153 0.0
C1691 C 0.05888 0.02997 0.16686 0.0
C1692 C 0.08715 0.04677 0.1609 0.0
C1693 C 0.16709 0.09626 0.14099 0.0
C1694 C 0.13917 0.07948 0.14752 0.0
H1695 H 0.98128 0.0404 0.16805 0.0
H1696 H 0.02876 0.06967 0.16552 0.0
H1697 H 0.10397 1.01012 0.1428 0.0
H1698 H 0.22295 0.14284 0.15843 0.0
H1699 H 0.17651 0.11682 0.16828 0.0
C1700 C 0.14988 0.96217 0.89743 0.0
C1701 C 0.15941 0.97746 0.88099 0.0
C1702 C 0.16479 0.93534 0.90338 0.0
C1703 C 0.22038 0.87518 0.88632 0.0
H1704 H 0.22154 0.85247 0.93927 0.0
C1705 C 0.29076 0.77277 0.91278 0.0
C1706 C 0.27042 0.74846 0.91651 0.0
C1707 C 0.28002 0.8031 0.9125 0.0
C1708 C 0.22154 0.85876 0.92447 0.0
H1709 H 0.19266 0.9773 0.85824 0.0
H1710 H 0.21976 0.93182 0.86904 0.0
H1711 H 0.19744 0.90075 0.92965 0.0
H1712 H 0.22382 0.73681 0.92443 0.0
H1713 H 0.20548 0.79003 0.92503 0.0
H1714 H 0.24538 0.8335 0.88139 0.0
C1715 C 0.19988 0.93936 0.87699 0.0
C1716 C 0.20739 0.88624 0.91885 0.0
C1717 C 0.18443 0.96567 0.87078 0.0
C1718 C 0.24011 0.75522 0.92199 0.0
C1719 C 0.22956 0.7856 0.92215 0.0
C1720 C 0.23515 0.84824 0.89202 0.0
C1721 C 0.19021 0.92354 0.89333 0.0
C1722 C 0.20627 0.89476 0.89962 0.0
C1723 C 0.24899 0.80956 0.91639 0.0
C1724 C 0.23566 0.83965 0.91109 0.0
H1725 H 0.13058 0.97072 0.90557 0.0
H1726 H 0.15601 0.92374 0.91576 0.0
H1727 H 0.21948 0.8801 0.87136 0.0
H1728 H 0.31399 0.76813 0.908 0.0
H1729 H 0.29535 0.82123 0.90791 0.0
C1730 C 0.32992 0.8976 0.63829 0.0
C1731 C 0.31041 0.90982 0.62442 0.0
C1732 C 0.3564 0.91329 0.6439 0.0
C1733 C 0.40838 0.97849 0.63091 0.0
H1734 H 0.4351 0.96858 0.68282 0.0
C1735 C 0.51309 0.04394 0.65946 0.0
C1736 C 0.5366 0.02338 0.6645 0.0
C1737 C 0.48265 0.0337 0.65793 0.0
C1738 C 0.42776 0.97171 0.66833 0.0
H1739 H 0.30339 0.94795 0.60536 0.0
H1740 H 0.34907 0.97617 0.61558 0.0
H1741 H 0.38807 0.94351 0.67214 0.0
H1742 H 0.54654 0.97699 0.67343 0.0
H1743 H 0.49311 0.95954 0.67189 0.0
H1744 H 0.448 1.00724 0.62737 0.0
C1745 C 0.34452 0.95396 0.62183 0.0
C1746 C 0.40098 0.95703 0.66207 0.0
C1747 C 0.31828 0.93782 0.61591 0.0
C1748 C 0.52871 0.99345 0.66999 0.0
C1749 C 0.49819 0.9834 0.66889 0.0
C1750 C 0.4348 0.99366 0.6373 0.0
C1751 C 0.36376 0.94213 0.63614 0.0
C1752 C 0.39122 0.95961 0.64313 0.0
C1753 C 0.47519 1.00294 0.66182 0.0
C1754 C 0.44504 0.99001 0.65598 0.0
H1755 H 0.32451 0.8759 0.645 0.0
H1756 H 0.37096 0.90274 0.65444 0.0
H1757 H 0.4021 0.98084 0.6162 0.0
H1758 H 0.51868 0.06689 0.65466 0.0
H1759 H 0.46531 0.04925 0.65254 0.0
loop_
_geom_bond_atom_site_label_1
_geom_bond_atom_site_label_2
_geom_bond_distance
_geom_bond_site_symmetry_2
_ccdc_geom_bond_type
Dy0 O4 2.398 . S
Dy0 O5 2.491 . S
Dy0 O6 2.403 . S
Dy0 O7 2.664 . S
Dy0 O11 2.326 . S
Dy0 O15 2.310 . S
Dy0 O16 2.351 . S
C1 O12 1.185 . S
C1 O13 1.355 . S
C2 O4 1.185 . S
C2 O5 1.355 . S
Dy3 O7 2.310 . S
Dy3 O10 2.351 . S
Dy3 O12 2.398 . S
Dy3 O13 2.491 . S
Dy3 O14 2.403 . S
Dy3 O15 2.664 . S
Dy3 O17 2.326 . S
O4 Dy0 2.398 . S
O4 C2 1.185 . S
O5 Dy0 2.491 . S
O5 C2 1.355 . S
O6 Dy0 2.403 . S
O6 C8 1.254 . S
O7 Dy0 2.664 . S
O7 Dy3 2.310 . S
O7 C8 1.268 . S
C8 O6 1.254 . S
C8 O7 1.268 . S
C9 O14 1.254 . S
C9 O15 1.268 . S
O10 Dy3 2.351 . S
O10 C18 1.249 . S
O11 Dy0 2.326 . S
O11 C18 1.267 . S
O12 C1 1.185 . S
O12 Dy3 2.398 . S
O13 C1 1.355 . S
O13 Dy3 2.491 . S
O14 Dy3 2.403 . S
O14 C9 1.254 . S
O15 Dy0 2.310 . S
O15 Dy3 2.664 . S
O15 C9 1.268 . S
O16 Dy0 2.351 . S
O16 C19 1.249 . S
O17 Dy3 2.326 . S
O17 C19 1.267 . S
C18 O10 1.249 . S
C18 O11 1.267 . S
C19 O16 1.249 . S
C19 O17 1.267 . S
Dy20 O24 2.398 . S
Dy20 O25 2.491 . S
Dy20 O26 2.403 . S
Dy20 O27 2.664 . S
Dy20 O31 2.326 . S
Dy20 O35 2.310 . S
Dy20 O36 2.351 . S
C21 O32 1.185 . S
C21 O33 1.355 . S
C22 O24 1.185 . S
C22 O25 1.355 . S
Dy23 O27 2.310 . S
Dy23 O30 2.351 . S
Dy23 O32 2.398 . S
Dy23 O33 2.491 . S
Dy23 O34 2.403 . S
Dy23 O35 2.664 . S
Dy23 O37 2.326 . S
O24 Dy20 2.398 . S
O24 C22 1.185 . S
O25 Dy20 2.491 . S
O25 C22 1.355 . S
O26 Dy20 2.403 . S
O26 C28 1.254 . S
O27 Dy20 2.664 . S
O27 Dy23 2.310 . S
O27 C28 1.268 . S
C28 O26 1.254 . S
C28 O27 1.268 . S
C29 O34 1.254 . S
C29 O35 1.268 . S
O30 Dy23 2.351 . S
O30 C38 1.249 . S
O31 Dy20 2.326 . S
O31 C38 1.267 . S
O32 C21 1.185 . S
O32 Dy23 2.398 . S
O33 C21 1.355 . S
O33 Dy23 2.491 . S
O34 Dy23 2.403 . S
O34 C29 1.254 . S
O35 Dy20 2.310 . S
O35 Dy23 2.664 . S
O35 C29 1.268 . S
O36 Dy20 2.351 . S
O36 C39 1.249 . S
O37 Dy23 2.326 . S
O37 C39 1.267 . S
C38 O30 1.249 . S
C38 O31 1.267 . S
C39 O36 1.249 . S
C39 O37 1.267 . S
Dy40 O44 2.398 . S
Dy40 O45 2.491 . S
Dy40 O46 2.403 . S
Dy40 O47 2.664 . S
Dy40 O51 2.326 . S
Dy40 O55 2.310 . S
Dy40 O56 2.351 . S
C41 O52 1.185 . S
C41 O53 1.355 . S
C42 O44 1.185 . S
C42 O45 1.355 . S
Dy43 O47 2.310 . S
Dy43 O50 2.351 . S
Dy43 O52 2.398 . S
Dy43 O53 2.491 . S
Dy43 O54 2.403 . S
Dy43 O55 2.664 . S
Dy43 O57 2.326 . S
O44 Dy40 2.398 . S
O44 C42 1.185 . S
O45 Dy40 2.491 . S
O45 C42 1.355 . S
O46 Dy40 2.403 . S
O46 C48 1.254 . S
O47 Dy40 2.664 . S
O47 Dy43 2.310 . S
O47 C48 1.268 . S
C48 O46 1.254 . S
C48 O47 1.268 . S
C49 O54 1.254 . S
C49 O55 1.268 . S
O50 Dy43 2.351 . S
O50 C58 1.249 . S
O51 Dy40 2.326 . S
O51 C58 1.267 . S
O52 C41 1.185 . S
O52 Dy43 2.398 . S
O53 C41 1.355 . S
O53 Dy43 2.491 . S
O54 Dy43 2.403 . S
O54 C49 1.254 . S
O55 Dy40 2.310 . S
O55 Dy43 2.664 . S
O55 C49 1.268 . S
O56 Dy40 2.351 . S
O56 C59 1.249 . S
O57 Dy43 2.326 . S
O57 C59 1.267 . S
C58 O50 1.249 . S
C58 O51 1.267 . S
C59 O56 1.249 . S
C59 O57 1.267 . S
Dy60 O64 2.398 . S
Dy60 O65 2.491 . S
Dy60 O66 2.403 . S
Dy60 O67 2.664 . S
Dy60 O71 2.326 . S
Dy60 O75 2.310 . S
Dy60 O76 2.351 . S
C61 O72 1.185 . S
C61 O73 1.355 . S
C62 O64 1.185 . S
C62 O65 1.355 . S
Dy63 O67 2.310 . S
Dy63 O70 2.351 . S
Dy63 O72 2.398 . S
Dy63 O73 2.491 . S
Dy63 O74 2.403 . S
Dy63 O75 2.664 . S
Dy63 O77 2.326 . S
O64 Dy60 2.398 . S
O64 C62 1.185 . S
O65 Dy60 2.491 . S
O65 C62 1.355 . S
O66 Dy60 2.403 . S
O66 C68 1.254 . S
O67 Dy60 2.664 . S
O67 Dy63 2.310 . S
O67 C68 1.268 . S
C68 O66 1.254 . S
C68 O67 1.268 . S
C69 O74 1.254 . S
C69 O75 1.268 . S
O70 Dy63 2.351 . S
O70 C78 1.249 . S
O71 Dy60 2.326 . S
O71 C78 1.267 . S
O72 C61 1.185 . S
O72 Dy63 2.398 . S
O73 C61 1.355 . S
O73 Dy63 2.491 . S
O74 Dy63 2.403 . S
O74 C69 1.254 . S
O75 Dy60 2.310 . S
O75 Dy63 2.664 . S
O75 C69 1.268 . S
O76 Dy60 2.351 . S
O76 C79 1.249 . S
O77 Dy63 2.326 . S
O77 C79 1.267 . S
C78 O70 1.249 . S
C78 O71 1.267 . S
C79 O76 1.249 . S
C79 O77 1.267 . S
Dy80 O84 2.398 . S
Dy80 O85 2.491 . S
Dy80 O86 2.403 . S
Dy80 O87 2.664 . S
Dy80 O91 2.326 . S
Dy80 O95 2.310 . S
Dy80 O96 2.351 . S
C81 O92 1.185 . S
C81 O93 1.355 . S
C82 O84 1.185 . S
C82 O85 1.355 . S
Dy83 O87 2.310 . S
Dy83 O90 2.351 . S
Dy83 O92 2.398 . S
Dy83 O93 2.491 . S
Dy83 O94 2.403 . S
Dy83 O95 2.664 . S
Dy83 O97 2.326 . S
O84 Dy80 2.398 . S
O84 C82 1.185 . S
O85 Dy80 2.491 . S
O85 C82 1.355 . S
O86 Dy80 2.403 . S
O86 C88 1.254 . S
O87 Dy80 2.664 . S
O87 Dy83 2.310 . S
O87 C88 1.268 . S
C88 O86 1.254 . S
C88 O87 1.268 . S
C89 O94 1.254 . S
C89 O95 1.268 . S
O90 Dy83 2.351 . S
O90 C98 1.249 . S
O91 Dy80 2.326 . S
O91 C98 1.267 . S
O92 C81 1.185 . S
O92 Dy83 2.398 . S
O93 C81 1.355 . S
O93 Dy83 2.491 . S
O94 Dy83 2.403 . S
O94 C89 1.254 . S
O95 Dy80 2.310 . S
O95 Dy83 2.664 . S
O95 C89 1.268 . S
O96 Dy80 2.351 . S
O96 C99 1.249 . S
O97 Dy83 2.326 . S
O97 C99 1.267 . S
C98 O90 1.249 . S
C98 O91 1.267 . S
C99 O96 1.249 . S
C99 O97 1.267 . S
Dy100 O104 2.398 . S
Dy100 O105 2.491 . S
Dy100 O106 2.403 . S
Dy100 O107 2.664 . S
Dy100 O111 2.326 . S
Dy100 O115 2.310 . S
Dy100 O116 2.351 . S
C101 O112 1.185 . S
C101 O113 1.355 . S
C102 O104 1.185 . S
C102 O105 1.355 . S
Dy103 O107 2.310 . S
Dy103 O110 2.351 . S
Dy103 O112 2.398 . S
Dy103 O113 2.491 . S
Dy103 O114 2.403 . S
Dy103 O115 2.664 . S
Dy103 O117 2.326 . S
O104 Dy100 2.398 . S
O104 C102 1.185 . S
O105 Dy100 2.491 . S
O105 C102 1.355 . S
O106 Dy100 2.403 . S
O106 C108 1.254 . S
O107 Dy100 2.664 . S
O107 Dy103 2.310 . S
O107 C108 1.268 . S
C108 O106 1.254 . S
C108 O107 1.268 . S
C109 O114 1.254 . S
C109 O115 1.268 . S
O110 Dy103 2.351 . S
O110 C118 1.249 . S
O111 Dy100 2.326 . S
O111 C118 1.267 . S
O112 C101 1.185 . S
O112 Dy103 2.398 . S
O113 C101 1.355 . S
O113 Dy103 2.491 . S
O114 Dy103 2.403 . S
O114 C109 1.254 . S
O115 Dy100 2.310 . S
O115 Dy103 2.664 . S
O115 C109 1.268 . S
O116 Dy100 2.351 . S
O116 C119 1.249 . S
O117 Dy103 2.326 . S
O117 C119 1.267 . S
C118 O110 1.249 . S
C118 O111 1.267 . S
C119 O116 1.249 . S
C119 O117 1.267 . S
Dy120 O124 2.398 . S
Dy120 O125 2.491 . S
Dy120 O126 2.403 . S
Dy120 O127 2.664 . S
Dy120 O131 2.326 . S
Dy120 O135 2.310 . S
Dy120 O136 2.351 . S
C121 O132 1.185 . S
C121 O133 1.355 . S
C122 O124 1.185 . S
C122 O125 1.355 . S
Dy123 O127 2.310 . S
Dy123 O130 2.351 . S
Dy123 O132 2.398 . S
Dy123 O133 2.491 . S
Dy123 O134 2.403 . S
Dy123 O135 2.664 . S
Dy123 O137 2.326 . S
O124 Dy120 2.398 . S
O124 C122 1.185 . S
O125 Dy120 2.491 . S
O125 C122 1.355 . S
O126 Dy120 2.403 . S
O126 C128 1.254 . S
O127 Dy120 2.664 . S
O127 Dy123 2.310 . S
O127 C128 1.268 . S
C128 O126 1.254 . S
C128 O127 1.268 . S
C129 O134 1.254 . S
C129 O135 1.268 . S
O130 Dy123 2.351 . S
O130 C138 1.249 . S
O131 Dy120 2.326 . S
O131 C138 1.267 . S
O132 C121 1.185 . S
O132 Dy123 2.398 . S
O133 C121 1.355 . S
O133 Dy123 2.491 . S
O134 Dy123 2.403 . S
O134 C129 1.254 . S
O135 Dy120 2.310 . S
O135 Dy123 2.664 . S
O135 C129 1.268 . S
O136 Dy120 2.351 . S
O136 C139 1.249 . S
O137 Dy123 2.326 . S
O137 C139 1.267 . S
C138 O130 1.249 . S
C138 O131 1.267 . S
C139 O136 1.249 . S
C139 O137 1.267 . S
Dy140 O144 2.398 . S
Dy140 O145 2.491 . S
Dy140 O146 2.403 . S
Dy140 O147 2.664 . S
Dy140 O151 2.326 . S
Dy140 O155 2.310 . S
Dy140 O156 2.351 . S
C141 O152 1.185 . S
C141 O153 1.355 . S
C142 O144 1.185 . S
C142 O145 1.355 . S
Dy143 O147 2.310 . S
Dy143 O150 2.351 . S
Dy143 O152 2.398 . S
Dy143 O153 2.491 . S
Dy143 O154 2.403 . S
Dy143 O155 2.664 . S
Dy143 O157 2.326 . S
O144 Dy140 2.398 . S
O144 C142 1.185 . S
O145 Dy140 2.491 . S
O145 C142 1.355 . S
O146 Dy140 2.403 . S
O146 C148 1.254 . S
O147 Dy140 2.664 . S
O147 Dy143 2.310 . S
O147 C148 1.268 . S
C148 O146 1.254 . S
C148 O147 1.268 . S
C149 O154 1.254 . S
C149 O155 1.268 . S
O150 Dy143 2.351 . S
O150 C158 1.249 . S
O151 Dy140 2.326 . S
O151 C158 1.267 . S
O152 C141 1.185 . S
O152 Dy143 2.398 . S
O153 C141 1.355 . S
O153 Dy143 2.491 . S
O154 Dy143 2.403 . S
O154 C149 1.254 . S
O155 Dy140 2.310 . S
O155 Dy143 2.664 . S
O155 C149 1.268 . S
O156 Dy140 2.351 . S
O156 C159 1.249 . S
O157 Dy143 2.326 . S
O157 C159 1.267 . S
C158 O150 1.249 . S
C158 O151 1.267 . S
C159 O156 1.249 . S
C159 O157 1.267 . S
Dy160 O164 2.398 . S
Dy160 O165 2.491 . S
Dy160 O166 2.403 . S
Dy160 O167 2.664 . S
Dy160 O171 2.326 . S
Dy160 O175 2.310 . S
Dy160 O176 2.351 . S
C161 O172 1.185 . S
C161 O173 1.355 . S
C162 O164 1.185 . S
C162 O165 1.355 . S
Dy163 O167 2.310 . S
Dy163 O170 2.351 . S
Dy163 O172 2.398 . S
Dy163 O173 2.491 . S
Dy163 O174 2.403 . S
Dy163 O175 2.664 . S
Dy163 O177 2.326 . S
O164 Dy160 2.398 . S
O164 C162 1.185 . S
O165 Dy160 2.491 . S
O165 C162 1.355 . S
O166 Dy160 2.403 . S
O166 C168 1.254 . S
O167 Dy160 2.664 . S
O167 Dy163 2.310 . S
O167 C168 1.268 . S
C168 O166 1.254 . S
C168 O167 1.268 . S
C169 O174 1.254 . S
C169 O175 1.268 . S
O170 Dy163 2.351 . S
O170 C178 1.249 . S
O171 Dy160 2.326 . S
O171 C178 1.267 . S
O172 C161 1.185 . S
O172 Dy163 2.398 . S
O173 C161 1.355 . S
O173 Dy163 2.491 . S
O174 Dy163 2.403 . S
O174 C169 1.254 . S
O175 Dy160 2.310 . S
O175 Dy163 2.664 . S
O175 C169 1.268 . S
O176 Dy160 2.351 . S
O176 C179 1.249 . S
O177 Dy163 2.326 . S
O177 C179 1.267 . S
C178 O170 1.249 . S
C178 O171 1.267 . S
C179 O176 1.249 . S
C179 O177 1.267 . S
Dy180 O184 2.398 . S
Dy180 O185 2.491 . S
Dy180 O186 2.403 1_545 S
Dy180 O187 2.664 . S
Dy180 O191 2.326 . S
Dy180 O195 2.310 . S
Dy180 O196 2.351 1_545 S
C181 O192 1.185 . S
C181 O193 1.355 . S
C182 O184 1.185 . S
C182 O185 1.355 . S
Dy183 O187 2.310 . S
Dy183 O190 2.351 . S
Dy183 O192 2.398 . S
Dy183 O193 2.491 . S
Dy183 O194 2.403 . S
Dy183 O195 2.664 . S
Dy183 O197 2.326 1_545 S
O184 Dy180 2.398 . S
O184 C182 1.185 . S
O185 Dy180 2.491 . S
O185 C182 1.355 . S
O186 Dy180 2.403 1_565 S
O186 C188 1.254 1_565 S
O187 Dy180 2.664 . S
O187 Dy183 2.310 . S
O187 C188 1.268 . S
C188 O186 1.254 1_545 S
C188 O187 1.268 . S
C189 O194 1.254 . S
C189 O195 1.268 . S
O190 Dy183 2.351 . S
O190 C198 1.249 . S
O191 Dy180 2.326 . S
O191 C198 1.267 . S
O192 C181 1.185 . S
O192 Dy183 2.398 . S
O193 C181 1.355 . S
O193 Dy183 2.491 . S
O194 Dy183 2.403 . S
O194 C189 1.254 . S
O195 Dy180 2.310 . S
O195 Dy183 2.664 . S
O195 C189 1.268 . S
O196 Dy180 2.351 1_565 S
O196 C199 1.249 . S
O197 Dy183 2.326 1_565 S
O197 C199 1.267 . S
C198 O190 1.249 . S
C198 O191 1.267 . S
C199 O196 1.249 . S
C199 O197 1.267 . S
Dy200 O204 2.398 . S
Dy200 O205 2.491 . S
Dy200 O206 2.403 . S
Dy200 O207 2.664 . S
Dy200 O211 2.326 . S
Dy200 O215 2.310 . S
Dy200 O216 2.351 . S
C201 O212 1.185 . S
C201 O213 1.355 . S
C202 O204 1.185 . S
C202 O205 1.355 . S
Dy203 O207 2.310 . S
Dy203 O210 2.351 . S
Dy203 O212 2.398 . S
Dy203 O213 2.491 . S
Dy203 O214 2.403 . S
Dy203 O215 2.664 . S
Dy203 O217 2.326 . S
O204 Dy200 2.398 . S
O204 C202 1.185 . S
O205 Dy200 2.491 . S
O205 C202 1.355 . S
O206 Dy200 2.403 . S
O206 C208 1.254 . S
O207 Dy200 2.664 . S
O207 Dy203 2.310 . S
O207 C208 1.268 . S
C208 O206 1.254 . S
C208 O207 1.268 . S
C209 O214 1.254 . S
C209 O215 1.268 . S
O210 Dy203 2.351 . S
O210 C218 1.249 . S
O211 Dy200 2.326 . S
O211 C218 1.267 . S
O212 C201 1.185 . S
O212 Dy203 2.398 . S
O213 C201 1.355 . S
O213 Dy203 2.491 . S
O214 Dy203 2.403 . S
O214 C209 1.254 . S
O215 Dy200 2.310 . S
O215 Dy203 2.664 . S
O215 C209 1.268 . S
O216 Dy200 2.351 . S
O216 C219 1.249 . S
O217 Dy203 2.326 . S
O217 C219 1.267 . S
C218 O210 1.249 . S
C218 O211 1.267 . S
C219 O216 1.249 . S
C219 O217 1.267 . S
Dy220 O224 2.398 . S
Dy220 O225 2.491 . S
Dy220 O226 2.403 1_565 S
Dy220 O227 2.664 . S
Dy220 O231 2.326 . S
Dy220 O235 2.310 . S
Dy220 O236 2.351 1_565 S
C221 O232 1.185 . S
C221 O233 1.355 . S
C222 O224 1.185 . S
C222 O225 1.355 . S
Dy223 O227 2.310 . S
Dy223 O230 2.351 . S
Dy223 O232 2.398 . S
Dy223 O233 2.491 . S
Dy223 O234 2.403 . S
Dy223 O235 2.664 . S
Dy223 O237 2.326 1_565 S
O224 Dy220 2.398 . S
O224 C222 1.185 . S
O225 Dy220 2.491 . S
O225 C222 1.355 . S
O226 Dy220 2.403 1_545 S
O226 C228 1.254 1_545 S
O227 Dy220 2.664 . S
O227 Dy223 2.310 . S
O227 C228 1.268 . S
C228 O226 1.254 1_565 S
C228 O227 1.268 . S
C229 O234 1.254 . S
C229 O235 1.268 . S
O230 Dy223 2.351 . S
O230 C238 1.249 . S
O231 Dy220 2.326 . S
O231 C238 1.267 . S
O232 C221 1.185 . S
O232 Dy223 2.398 . S
O233 C221 1.355 . S
O233 Dy223 2.491 . S
O234 Dy223 2.403 . S
O234 C229 1.254 . S
O235 Dy220 2.310 . S
O235 Dy223 2.664 . S
O235 C229 1.268 . S
O236 Dy220 2.351 1_545 S
O236 C239 1.249 . S
O237 Dy223 2.326 1_545 S
O237 C239 1.267 . S
C238 O230 1.249 . S
C238 O231 1.267 . S
C239 O236 1.249 . S
C239 O237 1.267 . S
Dy240 O244 2.398 . S
Dy240 O245 2.491 . S
Dy240 O246 2.403 . S
Dy240 O247 2.664 . S
Dy240 O251 2.326 . S
Dy240 O255 2.310 . S
Dy240 O256 2.351 . S
C241 O252 1.185 . S
C241 O253 1.355 . S
C242 O244 1.185 . S
C242 O245 1.355 . S
Dy243 O247 2.310 . S
Dy243 O250 2.351 . S
Dy243 O252 2.398 . S
Dy243 O253 2.491 . S
Dy243 O254 2.403 . S
Dy243 O255 2.664 . S
Dy243 O257 2.326 . S
O244 Dy240 2.398 . S
O244 C242 1.185 . S
O245 Dy240 2.491 . S
O245 C242 1.355 . S
O246 Dy240 2.403 . S
O246 C248 1.254 . S
O247 Dy240 2.664 . S
O247 Dy243 2.310 . S
O247 C248 1.268 . S
C248 O246 1.254 . S
C248 O247 1.268 . S
C249 O254 1.254 . S
C249 O255 1.268 . S
O250 Dy243 2.351 . S
O250 C258 1.249 . S
O251 Dy240 2.326 . S
O251 C258 1.267 . S
O252 C241 1.185 . S
O252 Dy243 2.398 . S
O253 C241 1.355 . S
O253 Dy243 2.491 . S
O254 Dy243 2.403 . S
O254 C249 1.254 . S
O255 Dy240 2.310 . S
O255 Dy243 2.664 . S
O255 C249 1.268 . S
O256 Dy240 2.351 . S
O256 C259 1.249 . S
O257 Dy243 2.326 . S
O257 C259 1.267 . S
C258 O250 1.249 . S
C258 O251 1.267 . S
C259 O256 1.249 . S
C259 O257 1.267 . S
Dy260 O264 2.398 . S
Dy260 O265 2.491 . S
Dy260 O266 2.403 . S
Dy260 O267 2.664 . S
Dy260 O271 2.326 1_565 S
Dy260 O275 2.310 . S
Dy260 O276 2.351 . S
C261 O272 1.185 . S
C261 O273 1.355 . S
C262 O264 1.185 . S
C262 O265 1.355 . S
Dy263 O267 2.310 . S
Dy263 O270 2.351 1_565 S
Dy263 O272 2.398 . S
Dy263 O273 2.491 . S
Dy263 O274 2.403 1_565 S
Dy263 O275 2.664 . S
Dy263 O277 2.326 . S
O264 Dy260 2.398 . S
O264 C262 1.185 . S
O265 Dy260 2.491 . S
O265 C262 1.355 . S
O266 Dy260 2.403 . S
O266 C268 1.254 . S
O267 Dy260 2.664 . S
O267 Dy263 2.310 . S
O267 C268 1.268 . S
C268 O266 1.254 . S
C268 O267 1.268 . S
C269 O274 1.254 1_565 S
C269 O275 1.268 . S
O270 Dy263 2.351 1_545 S
O270 C278 1.249 . S
O271 Dy260 2.326 1_545 S
O271 C278 1.267 . S
O272 C261 1.185 . S
O272 Dy263 2.398 . S
O273 C261 1.355 . S
O273 Dy263 2.491 . S
O274 Dy263 2.403 1_545 S
O274 C269 1.254 1_545 S
O275 Dy260 2.310 . S
O275 Dy263 2.664 . S
O275 C269 1.268 . S
O276 Dy260 2.351 . S
O276 C279 1.249 . S
O277 Dy263 2.326 . S
O277 C279 1.267 . S
C278 O270 1.249 . S
C278 O271 1.267 . S
C279 O276 1.249 . S
C279 O277 1.267 . S
Dy280 O284 2.398 . S
Dy280 O285 2.491 . S
Dy280 O286 2.403 . S
Dy280 O287 2.664 . S
Dy280 O291 2.326 . S
Dy280 O295 2.310 . S
Dy280 O296 2.351 . S
C281 O292 1.185 . S
C281 O293 1.355 . S
C282 O284 1.185 . S
C282 O285 1.355 . S
Dy283 O287 2.310 . S
Dy283 O290 2.351 . S
Dy283 O292 2.398 . S
Dy283 O293 2.491 . S
Dy283 O294 2.403 . S
Dy283 O295 2.664 . S
Dy283 O297 2.326 . S
O284 Dy280 2.398 . S
O284 C282 1.185 . S
O285 Dy280 2.491 . S
O285 C282 1.355 . S
O286 Dy280 2.403 . S
O286 C288 1.254 . S
O287 Dy280 2.664 . S
O287 Dy283 2.310 . S
O287 C288 1.268 . S
C288 O286 1.254 . S
C288 O287 1.268 . S
C289 O294 1.254 . S
C289 O295 1.268 . S
O290 Dy283 2.351 . S
O290 C298 1.249 . S
O291 Dy280 2.326 . S
O291 C298 1.267 . S
O292 C281 1.185 . S
O292 Dy283 2.398 . S
O293 C281 1.355 . S
O293 Dy283 2.491 . S
O294 Dy283 2.403 . S
O294 C289 1.254 . S
O295 Dy280 2.310 . S
O295 Dy283 2.664 . S
O295 C289 1.268 . S
O296 Dy280 2.351 . S
O296 C299 1.249 . S
O297 Dy283 2.326 . S
O297 C299 1.267 . S
C298 O290 1.249 . S
C298 O291 1.267 . S
C299 O296 1.249 . S
C299 O297 1.267 . S
Dy300 O304 2.398 . S
Dy300 O305 2.491 . S
Dy300 O306 2.403 . S
Dy300 O307 2.664 . S
Dy300 O311 2.326 1_545 S
Dy300 O315 2.310 . S
Dy300 O316 2.351 . S
C301 O312 1.185 . S
C301 O313 1.355 . S
C302 O304 1.185 . S
C302 O305 1.355 . S
Dy303 O307 2.310 . S
Dy303 O310 2.351 1_545 S
Dy303 O312 2.398 . S
Dy303 O313 2.491 . S
Dy303 O314 2.403 1_545 S
Dy303 O315 2.664 . S
Dy303 O317 2.326 . S
O304 Dy300 2.398 . S
O304 C302 1.185 . S
O305 Dy300 2.491 . S
O305 C302 1.355 . S
O306 Dy300 2.403 . S
O306 C308 1.254 . S
O307 Dy300 2.664 . S
O307 Dy303 2.310 . S
O307 C308 1.268 . S
C308 O306 1.254 . S
C308 O307 1.268 . S
C309 O314 1.254 1_545 S
C309 O315 1.268 . S
O310 Dy303 2.351 1_565 S
O310 C318 1.249 . S
O311 Dy300 2.326 1_565 S
O311 C318 1.267 . S
O312 C301 1.185 . S
O312 Dy303 2.398 . S
O313 C301 1.355 . S
O313 Dy303 2.491 . S
O314 Dy303 2.403 1_565 S
O314 C309 1.254 1_565 S
O315 Dy300 2.310 . S
O315 Dy303 2.664 . S
O315 C309 1.268 . S
O316 Dy300 2.351 . S
O316 C319 1.249 . S
O317 Dy303 2.326 . S
O317 C319 1.267 . S
C318 O310 1.249 . S
C318 O311 1.267 . S
C319 O316 1.249 . S
C319 O317 1.267 . S
C320 C321 1.349 . S
C320 C322 1.327 . S
C320 H345 0.950 . S
C321 C320 1.349 . S
C321 C337 1.349 . S
C322 C320 1.327 . S
C322 C341 1.429 . S
C322 H346 0.950 . S
C323 C340 1.574 . S
C323 C342 1.368 . S
C323 H347 0.949 . S
H324 C328 0.949 . S
C325 C326 1.349 . S
C325 C327 1.327 . S
C325 H348 0.950 . S
C326 C325 1.349 . S
C326 C338 1.349 . S
C327 C325 1.327 . S
C327 C343 1.429 . S
C327 H349 0.950 . S
C328 H324 0.949 . S
C328 C336 1.574 . S
C328 C344 1.368 . S
H329 C337 0.950 . S
H330 C335 0.950 . S
H331 C336 0.949 . S
H332 C338 0.950 . S
H333 C339 0.950 . S
H334 C340 0.949 . S
C335 H330 0.950 . S
C335 C337 1.327 . S
C335 C341 1.429 . S
C336 C328 1.574 . S
C336 H331 0.949 . S
C336 C342 1.368 . S
C337 C321 1.349 . S
C337 H329 0.950 . S
C337 C335 1.327 . S
C338 C326 1.349 . S
C338 H332 0.950 . S
C338 C339 1.327 . S
C339 H333 0.950 . S
C339 C338 1.327 . S
C339 C343 1.429 . S
C340 C323 1.574 . S
C340 H334 0.949 . S
C340 C344 1.368 . S
C341 C322 1.429 . S
C341 C335 1.429 . S
C341 C342 1.523 . S
C342 C323 1.368 . S
C342 C336 1.368 . S
C342 C341 1.523 . S
C343 C327 1.429 . S
C343 C339 1.429 . S
C343 C344 1.523 . S
C344 C328 1.368 . S
C344 C340 1.368 . S
C344 C343 1.523 . S
H345 C320 0.950 . S
H346 C322 0.950 . S
H347 C323 0.949 . S
H348 C325 0.950 . S
H349 C327 0.950 . S
C350 C351 1.349 . S
C350 C352 1.327 . S
C350 H375 0.950 . S
C351 C350 1.349 . S
C351 C367 1.349 . S
C352 C350 1.327 . S
C352 C371 1.429 . S
C352 H376 0.950 . S
C353 C370 1.574 . S
C353 C372 1.368 . S
C353 H377 0.949 . S
H354 C358 0.949 . S
C355 C356 1.349 . S
C355 C357 1.327 . S
C355 H378 0.950 . S
C356 C355 1.349 . S
C356 C368 1.349 . S
C357 C355 1.327 . S
C357 C373 1.429 . S
C357 H379 0.950 . S
C358 H354 0.949 . S
C358 C366 1.574 . S
C358 C374 1.368 . S
H359 C367 0.950 . S
H360 C365 0.950 . S
H361 C366 0.949 . S
H362 C368 0.950 . S
H363 C369 0.950 . S
H364 C370 0.949 . S
C365 H360 0.950 . S
C365 C367 1.327 . S
C365 C371 1.429 . S
C366 C358 1.574 . S
C366 H361 0.949 . S
C366 C372 1.368 . S
C367 C351 1.349 . S
C367 H359 0.950 . S
C367 C365 1.327 . S
C368 C356 1.349 . S
C368 H362 0.950 . S
C368 C369 1.327 . S
C369 H363 0.950 . S
C369 C368 1.327 . S
C369 C373 1.429 . S
C370 C353 1.574 . S
C370 H364 0.949 . S
C370 C374 1.368 . S
C371 C352 1.429 . S
C371 C365 1.429 . S
C371 C372 1.523 . S
C372 C353 1.368 . S
C372 C366 1.368 . S
C372 C371 1.523 . S
C373 C357 1.429 . S
C373 C369 1.429 . S
C373 C374 1.523 . S
C374 C358 1.368 . S
C374 C370 1.368 . S
C374 C373 1.523 . S
H375 C350 0.950 . S
H376 C352 0.950 . S
H377 C353 0.949 . S
H378 C355 0.950 . S
H379 C357 0.950 . S
C380 C381 1.349 . S
C380 C382 1.327 . S
C380 H405 0.950 . S
C381 C380 1.349 . S
C381 C397 1.349 . S
C382 C380 1.327 . S
C382 C401 1.429 . S
C382 H406 0.950 . S
C383 C400 1.574 . S
C383 C402 1.368 . S
C383 H407 0.949 . S
H384 C388 0.949 . S
C385 C386 1.349 . S
C385 C387 1.327 . S
C385 H408 0.950 . S
C386 C385 1.349 . S
C386 C398 1.349 . S
C387 C385 1.327 . S
C387 C403 1.429 . S
C387 H409 0.950 . S
C388 H384 0.949 . S
C388 C396 1.574 . S
C388 C404 1.368 . S
H389 C397 0.950 . S
H390 C395 0.950 . S
H391 C396 0.949 . S
H392 C398 0.950 . S
H393 C399 0.950 . S
H394 C400 0.949 . S
C395 H390 0.950 . S
C395 C397 1.327 . S
C395 C401 1.429 . S
C396 C388 1.574 . S
C396 H391 0.949 . S
C396 C402 1.368 . S
C397 C381 1.349 . S
C397 H389 0.950 . S
C397 C395 1.327 . S
C398 C386 1.349 . S
C398 H392 0.950 . S
C398 C399 1.327 . S
C399 H393 0.950 . S
C399 C398 1.327 . S
C399 C403 1.429 . S
C400 C383 1.574 . S
C400 H394 0.949 . S
C400 C404 1.368 . S
C401 C382 1.429 . S
C401 C395 1.429 . S
C401 C402 1.523 . S
C402 C383 1.368 . S
C402 C396 1.368 . S
C402 C401 1.523 . S
C403 C387 1.429 . S
C403 C399 1.429 . S
C403 C404 1.523 . S
C404 C388 1.368 . S
C404 C400 1.368 . S
C404 C403 1.523 . S
H405 C380 0.950 . S
H406 C382 0.950 . S
H407 C383 0.949 . S
H408 C385 0.950 . S
H409 C387 0.950 . S
C410 C411 1.349 . S
C410 C412 1.327 . S
C410 H435 0.950 . S
C411 C410 1.349 . S
C411 C427 1.349 . S
C412 C410 1.327 . S
C412 C431 1.429 . S
C412 H436 0.950 . S
C413 C430 1.574 1_556 S
C413 C432 1.368 1_455 S
C413 H437 0.949 . S
H414 C418 0.949 . S
C415 C416 1.349 . S
C415 C417 1.327 . S
C415 H438 0.950 . S
C416 C415 1.349 . S
C416 C428 1.349 . S
C417 C415 1.327 . S
C417 C433 1.429 . S
C417 H439 0.950 . S
C418 H414 0.949 . S
C418 C426 1.574 1_554 S
C418 C434 1.368 1_655 S
H419 C427 0.950 . S
H420 C425 0.950 . S
H421 C426 0.949 . S
H422 C428 0.950 . S
H423 C429 0.950 . S
H424 C430 0.949 . S
C425 H420 0.950 . S
C425 C427 1.327 . S
C425 C431 1.429 . S
C426 C418 1.574 1_556 S
C426 H421 0.949 . S
C426 C432 1.368 . S
C427 C411 1.349 . S
C427 H419 0.950 . S
C427 C425 1.327 . S
C428 C416 1.349 . S
C428 H422 0.950 . S
C428 C429 1.327 . S
C429 H423 0.950 . S
C429 C428 1.327 . S
C429 C433 1.429 . S
C430 C413 1.574 1_554 S
C430 H424 0.949 . S
C430 C434 1.368 . S
C431 C412 1.429 . S
C431 C425 1.429 . S
C431 C432 1.523 . S
C432 C413 1.368 1_655 S
C432 C426 1.368 . S
C432 C431 1.523 . S
C433 C417 1.429 . S
C433 C429 1.429 . S
C433 C434 1.523 . S
C434 C418 1.368 1_455 S
C434 C430 1.368 . S
C434 C433 1.523 . S
H435 C410 0.950 . S
H436 C412 0.950 . S
H437 C413 0.949 . S
H438 C415 0.950 . S
H439 C417 0.950 . S
C440 C441 1.349 . S
C440 C442 1.327 . S
C440 H465 0.950 . S
C441 C440 1.349 . S
C441 C457 1.349 . S
C442 C440 1.327 . S
C442 C461 1.429 . S
C442 H466 0.950 . S
C443 C460 1.574 . S
C443 C462 1.368 . S
C443 H467 0.949 . S
H444 C448 0.949 . S
C445 C446 1.349 . S
C445 C447 1.327 . S
C445 H468 0.950 . S
C446 C445 1.349 . S
C446 C458 1.349 . S
C447 C445 1.327 . S
C447 C463 1.429 . S
C447 H469 0.950 . S
C448 H444 0.949 . S
C448 C456 1.574 . S
C448 C464 1.368 . S
H449 C457 0.950 . S
H450 C455 0.950 . S
H451 C456 0.949 . S
H452 C458 0.950 . S
H453 C459 0.950 . S
H454 C460 0.949 . S
C455 H450 0.950 . S
C455 C457 1.327 . S
C455 C461 1.429 . S
C456 C448 1.574 . S
C456 H451 0.949 . S
C456 C462 1.368 . S
C457 C441 1.349 . S
C457 H449 0.950 . S
C457 C455 1.327 . S
C458 C446 1.349 . S
C458 H452 0.950 . S
C458 C459 1.327 . S
C459 H453 0.950 . S
C459 C458 1.327 . S
C459 C463 1.429 . S
C460 C443 1.574 . S
C460 H454 0.949 . S
C460 C464 1.368 . S
C461 C442 1.429 . S
C461 C455 1.429 . S
C461 C462 1.523 . S
C462 C443 1.368 . S
C462 C456 1.368 . S
C462 C461 1.523 . S
C463 C447 1.429 . S
C463 C459 1.429 . S
C463 C464 1.523 . S
C464 C448 1.368 . S
C464 C460 1.368 . S
C464 C463 1.523 . S
H465 C440 0.950 . S
H466 C442 0.950 . S
H467 C443 0.949 . S
H468 C445 0.950 . S
H469 C447 0.950 . S
C470 C471 1.349 . S
C470 C472 1.327 . S
C470 H495 0.950 . S
C471 C470 1.349 . S
C471 C487 1.349 . S
C472 C470 1.327 . S
C472 C491 1.429 . S
C472 H496 0.950 . S
C473 C490 1.574 . S
C473 C492 1.368 . S
C473 H497 0.949 . S
H474 C478 0.949 . S
C475 C476 1.349 . S
C475 C477 1.327 . S
C475 H498 0.950 . S
C476 C475 1.349 . S
C476 C488 1.349 . S
C477 C475 1.327 . S
C477 C493 1.429 . S
C477 H499 0.950 . S
C478 H474 0.949 . S
C478 C486 1.574 . S
C478 C494 1.368 . S
H479 C487 0.950 . S
H480 C485 0.950 . S
H481 C486 0.949 . S
H482 C488 0.950 . S
H483 C489 0.950 . S
H484 C490 0.949 . S
C485 H480 0.950 . S
C485 C487 1.327 . S
C485 C491 1.429 . S
C486 C478 1.574 . S
C486 H481 0.949 . S
C486 C492 1.368 . S
C487 C471 1.349 . S
C487 H479 0.950 . S
C487 C485 1.327 . S
C488 C476 1.349 . S
C488 H482 0.950 . S
C488 C489 1.327 . S
C489 H483 0.950 . S
C489 C488 1.327 . S
C489 C493 1.429 . S
C490 C473 1.574 . S
C490 H484 0.949 . S
C490 C494 1.368 . S
C491 C472 1.429 . S
C491 C485 1.429 . S
C491 C492 1.523 . S
C492 C473 1.368 . S
C492 C486 1.368 . S
C492 C491 1.523 . S
C493 C477 1.429 . S
C493 C489 1.429 . S
C493 C494 1.523 . S
C494 C478 1.368 . S
C494 C490 1.368 . S
C494 C493 1.523 . S
H495 C470 0.950 . S
H496 C472 0.950 . S
H497 C473 0.949 . S
H498 C475 0.950 . S
H499 C477 0.950 . S
C500 C501 1.349 . S
C500 C502 1.327 . S
C500 H525 0.950 . S
C501 C500 1.349 . S
C501 C517 1.349 . S
C502 C500 1.327 . S
C502 C521 1.429 . S
C502 H526 0.950 . S
C503 C520 1.574 . S
C503 C522 1.368 1_445 S
C503 H527 0.949 . S
H504 C508 0.949 . S
C505 C506 1.349 . S
C505 C507 1.327 . S
C505 H528 0.950 . S
C506 C505 1.349 . S
C506 C518 1.349 . S
C507 C505 1.327 . S
C507 C523 1.429 . S
C507 H529 0.950 . S
C508 H504 0.949 . S
C508 C516 1.574 . S
C508 C524 1.368 1_665 S
H509 C517 0.950 . S
H510 C515 0.950 . S
H511 C516 0.949 . S
H512 C518 0.950 . S
H513 C519 0.950 . S
H514 C520 0.949 . S
C515 H510 0.950 . S
C515 C517 1.327 . S
C515 C521 1.429 . S
C516 C508 1.574 . S
C516 H511 0.949 . S
C516 C522 1.368 1_556 S
C517 C501 1.349 . S
C517 H509 0.950 . S
C517 C515 1.327 . S
C518 C506 1.349 . S
C518 H512 0.950 . S
C518 C519 1.327 . S
C519 H513 0.950 . S
C519 C518 1.327 . S
C519 C523 1.429 . S
C520 C503 1.574 . S
C520 H514 0.949 . S
C520 C524 1.368 1_554 S
C521 C502 1.429 . S
C521 C515 1.429 . S
C521 C522 1.523 . S
C522 C503 1.368 1_665 S
C522 C516 1.368 1_554 S
C522 C521 1.523 . S
C523 C507 1.429 . S
C523 C519 1.429 . S
C523 C524 1.523 . S
C524 C508 1.368 1_445 S
C524 C520 1.368 1_556 S
C524 C523 1.523 . S
H525 C500 0.950 . S
H526 C502 0.950 . S
H527 C503 0.949 . S
H528 C505 0.950 . S
H529 C507 0.950 . S
C530 C531 1.349 . S
C530 C532 1.327 . S
C530 H555 0.950 . S
C531 C530 1.349 . S
C531 C547 1.349 . S
C532 C530 1.327 . S
C532 C551 1.429 . S
C532 H556 0.950 1_565 S
C533 C550 1.574 . S
C533 C552 1.368 . S
C533 H557 0.949 . S
H534 C538 0.949 . S
C535 C536 1.349 . S
C535 C537 1.327 . S
C535 H558 0.950 . S
C536 C535 1.349 . S
C536 C548 1.349 . S
C537 C535 1.327 . S
C537 C553 1.429 . S
C537 H559 0.950 1_545 S
C538 H534 0.949 . S
C538 C546 1.574 . S
C538 C554 1.368 . S
H539 C547 0.950 . S
H540 C545 0.950 . S
H541 C546 0.949 . S
H542 C548 0.950 . S
H543 C549 0.950 . S
H544 C550 0.949 . S
C545 H540 0.950 . S
C545 C547 1.327 . S
C545 C551 1.429 . S
C546 C538 1.574 . S
C546 H541 0.949 . S
C546 C552 1.368 1_545 S
C547 C531 1.349 . S
C547 H539 0.950 . S
C547 C545 1.327 . S
C548 C536 1.349 . S
C548 H542 0.950 . S
C548 C549 1.327 . S
C549 H543 0.950 . S
C549 C548 1.327 . S
C549 C553 1.429 . S
C550 C533 1.574 . S
C550 H544 0.949 . S
C550 C554 1.368 1_565 S
C551 C532 1.429 . S
C551 C545 1.429 . S
C551 C552 1.523 . S
C552 C533 1.368 . S
C552 C546 1.368 1_565 S
C552 C551 1.523 . S
C553 C537 1.429 . S
C553 C549 1.429 . S
C553 C554 1.523 . S
C554 C538 1.368 . S
C554 C550 1.368 1_545 S
C554 C553 1.523 . S
H555 C530 0.950 . S
H556 C532 0.950 1_545 S
H557 C533 0.949 . S
H558 C535 0.950 . S
H559 C537 0.950 1_565 S
C560 C561 1.349 . S
C560 C562 1.327 . S
C560 H585 0.950 . S
C561 C560 1.349 . S
C561 C577 1.349 . S
C562 C560 1.327 . S
C562 C581 1.429 . S
C562 H586 0.950 . S
C563 C580 1.574 1_556 S
C563 C582 1.368 . S
C563 H587 0.949 . S
H564 C568 0.949 . S
C565 C566 1.349 . S
C565 C567 1.327 . S
C565 H588 0.950 . S
C566 C565 1.349 . S
C566 C578 1.349 . S
C567 C565 1.327 . S
C567 C583 1.429 . S
C567 H589 0.950 . S
C568 H564 0.949 . S
C568 C576 1.574 1_554 S
C568 C584 1.368 . S
H569 C577 0.950 . S
H570 C575 0.950 . S
H571 C576 0.949 . S
H572 C578 0.950 . S
H573 C579 0.950 . S
H574 C580 0.949 . S
C575 H570 0.950 . S
C575 C577 1.327 . S
C575 C581 1.429 . S
C576 C568 1.574 1_556 S
C576 H571 0.949 . S
C576 C582 1.368 . S
C577 C561 1.349 . S
C577 H569 0.950 . S
C577 C575 1.327 . S
C578 C566 1.349 . S
C578 H572 0.950 . S
C578 C579 1.327 . S
C579 H573 0.950 . S
C579 C578 1.327 . S
C579 C583 1.429 . S
C580 C563 1.574 1_554 S
C580 H574 0.949 . S
C580 C584 1.368 . S
C581 C562 1.429 . S
C581 C575 1.429 . S
C581 C582 1.523 . S
C582 C563 1.368 . S
C582 C576 1.368 . S
C582 C581 1.523 . S
C583 C567 1.429 . S
C583 C579 1.429 . S
C583 C584 1.523 . S
C584 C568 1.368 . S
C584 C580 1.368 . S
C584 C583 1.523 . S
H585 C560 0.950 . S
H586 C562 0.950 . S
H587 C563 0.949 . S
H588 C565 0.950 . S
H589 C567 0.950 . S
C590 C591 1.349 . S
C590 C592 1.327 . S
C590 H615 0.950 . S
C591 C590 1.349 . S
C591 C607 1.349 . S
C592 C590 1.327 . S
C592 C611 1.429 . S
C592 H616 0.950 . S
C593 C610 1.574 . S
C593 C612 1.368 . S
C593 H617 0.949 . S
H594 C598 0.949 . S
C595 C596 1.349 . S
C595 C597 1.327 . S
C595 H618 0.950 . S
C596 C595 1.349 . S
C596 C608 1.349 . S
C597 C595 1.327 . S
C597 C613 1.429 . S
C597 H619 0.950 . S
C598 H594 0.949 . S
C598 C606 1.574 . S
C598 C614 1.368 . S
H599 C607 0.950 . S
H600 C605 0.950 . S
H601 C606 0.949 . S
H602 C608 0.950 . S
H603 C609 0.950 . S
H604 C610 0.949 . S
C605 H600 0.950 . S
C605 C607 1.327 . S
C605 C611 1.429 . S
C606 C598 1.574 . S
C606 H601 0.949 . S
C606 C612 1.368 . S
C607 C591 1.349 . S
C607 H599 0.950 . S
C607 C605 1.327 . S
C608 C596 1.349 . S
C608 H602 0.950 . S
C608 C609 1.327 . S
C609 H603 0.950 . S
C609 C608 1.327 . S
C609 C613 1.429 . S
C610 C593 1.574 . S
C610 H604 0.949 . S
C610 C614 1.368 . S
C611 C592 1.429 . S
C611 C605 1.429 . S
C611 C612 1.523 . S
C612 C593 1.368 . S
C612 C606 1.368 . S
C612 C611 1.523 . S
C613 C597 1.429 . S
C613 C609 1.429 . S
C613 C614 1.523 . S
C614 C598 1.368 . S
C614 C610 1.368 . S
C614 C613 1.523 . S
H615 C590 0.950 . S
H616 C592 0.950 . S
H617 C593 0.949 . S
H618 C595 0.950 . S
H619 C597 0.950 . S
C620 C621 1.349 . S
C620 C622 1.327 . S
C620 H645 0.950 . S
C621 C620 1.349 . S
C621 C637 1.349 . S
C622 C620 1.327 . S
C622 C641 1.429 . S
C622 H646 0.950 . S
C623 C640 1.574 . S
C623 C642 1.368 . S
C623 H647 0.949 . S
H624 C628 0.949 . S
C625 C626 1.349 . S
C625 C627 1.327 . S
C625 H648 0.950 . S
C626 C625 1.349 . S
C626 C638 1.349 . S
C627 C625 1.327 . S
C627 C643 1.429 . S
C627 H649 0.950 . S
C628 H624 0.949 . S
C628 C636 1.574 . S
C628 C644 1.368 . S
H629 C637 0.950 . S
H630 C635 0.950 . S
H631 C636 0.949 . S
H632 C638 0.950 . S
H633 C639 0.950 . S
H634 C640 0.949 . S
C635 H630 0.950 . S
C635 C637 1.327 . S
C635 C641 1.429 . S
C636 C628 1.574 . S
C636 H631 0.949 . S
C636 C642 1.368 . S
C637 C621 1.349 . S
C637 H629 0.950 . S
C637 C635 1.327 . S
C638 C626 1.349 . S
C638 H632 0.950 . S
C638 C639 1.327 . S
C639 H633 0.950 . S
C639 C638 1.327 . S
C639 C643 1.429 . S
C640 C623 1.574 . S
C640 H634 0.949 . S
C640 C644 1.368 . S
C641 C622 1.429 . S
C641 C635 1.429 . S
C641 C642 1.523 . S
C642 C623 1.368 . S
C642 C636 1.368 . S
C642 C641 1.523 . S
C643 C627 1.429 . S
C643 C639 1.429 . S
C643 C644 1.523 . S
C644 C628 1.368 . S
C644 C640 1.368 . S
C644 C643 1.523 . S
H645 C620 0.950 . S
H646 C622 0.950 . S
H647 C623 0.949 . S
H648 C625 0.950 . S
H649 C627 0.950 . S
C650 C651 1.349 . S
C650 C652 1.327 . S
C650 H675 0.950 . S
C651 C650 1.349 . S
C651 C667 1.349 . S
C652 C650 1.327 . S
C652 C671 1.429 . S
C652 H676 0.950 . S
C653 C670 1.574 . S
C653 C672 1.368 . S
C653 H677 0.949 . S
H654 C658 0.949 . S
C655 C656 1.349 . S
C655 C657 1.327 . S
C655 H678 0.950 . S
C656 C655 1.349 . S
C656 C668 1.349 . S
C657 C655 1.327 . S
C657 C673 1.429 . S
C657 H679 0.950 . S
C658 H654 0.949 . S
C658 C666 1.574 . S
C658 C674 1.368 . S
H659 C667 0.950 . S
H660 C665 0.950 . S
H661 C666 0.949 . S
H662 C668 0.950 . S
H663 C669 0.950 . S
H664 C670 0.949 . S
C665 H660 0.950 . S
C665 C667 1.327 . S
C665 C671 1.429 . S
C666 C658 1.574 . S
C666 H661 0.949 . S
C666 C672 1.368 . S
C667 C651 1.349 . S
C667 H659 0.950 . S
C667 C665 1.327 . S
C668 C656 1.349 . S
C668 H662 0.950 . S
C668 C669 1.327 . S
C669 H663 0.950 . S
C669 C668 1.327 . S
C669 C673 1.429 . S
C670 C653 1.574 . S
C670 H664 0.949 . S
C670 C674 1.368 . S
C671 C652 1.429 . S
C671 C665 1.429 . S
C671 C672 1.523 . S
C672 C653 1.368 . S
C672 C666 1.368 . S
C672 C671 1.523 . S
C673 C657 1.429 . S
C673 C669 1.429 . S
C673 C674 1.523 . S
C674 C658 1.368 . S
C674 C670 1.368 . S
C674 C673 1.523 . S
H675 C650 0.950 . S
H676 C652 0.950 . S
H677 C653 0.949 . S
H678 C655 0.950 . S
H679 C657 0.950 . S
C680 C681 1.349 . S
C680 C682 1.327 . S
C680 H705 0.950 . S
C681 C680 1.349 . S
C681 C697 1.349 . S
C682 C680 1.327 . S
C682 C701 1.429 . S
C682 H706 0.950 . S
C683 C700 1.574 1_554 S
C683 C702 1.368 . S
C683 H707 0.949 . S
H684 C688 0.960 . S
C685 C686 1.349 . S
C685 C687 1.327 . S
C685 H708 0.950 . S
C686 C685 1.349 . S
C686 C698 1.349 . S
C687 C685 1.327 . S
C687 C703 1.429 . S
C687 H709 0.950 . S
C688 H684 0.960 . S
C688 C696 1.530 1_556 S
C688 C704 1.401 . S
H689 C697 0.950 . S
H690 C695 0.950 . S
H691 C696 0.949 . S
H692 C698 0.950 . S
H693 C699 0.950 . S
H694 C700 0.949 . S
C695 H690 0.950 . S
C695 C697 1.327 . S
C695 C701 1.429 . S
C696 C688 1.530 1_554 S
C696 H691 0.949 . S
C696 C702 1.368 . S
C697 C681 1.349 . S
C697 H689 0.950 . S
C697 C695 1.327 . S
C698 C686 1.349 . S
C698 H692 0.950 . S
C698 C699 1.327 . S
C699 H693 0.950 . S
C699 C698 1.327 . S
C699 C703 1.429 . S
C700 C683 1.574 1_556 S
C700 H694 0.949 . S
C700 C704 1.368 . S
C701 C682 1.429 . S
C701 C695 1.429 . S
C701 C702 1.523 . S
C702 C683 1.368 . S
C702 C696 1.368 . S
C702 C701 1.523 . S
C703 C687 1.429 . S
C703 C699 1.429 . S
C703 C704 1.523 . S
C704 C688 1.401 . S
C704 C700 1.368 . S
C704 C703 1.523 . S
H705 C680 0.950 . S
H706 C682 0.950 . S
H707 C683 0.949 . S
H708 C685 0.950 . S
H709 C687 0.950 . S
C710 C711 1.349 . S
C710 C712 1.327 . S
C710 H735 0.950 . S
C711 C710 1.349 . S
C711 C727 1.349 . S
C712 C710 1.327 . S
C712 C731 1.429 . S
C712 H736 0.950 . S
C713 C730 1.574 . S
C713 C732 1.368 . S
C713 H737 0.949 . S
H714 C718 0.949 . S
C715 C716 1.349 . S
C715 C717 1.327 . S
C715 H738 0.950 . S
C716 C715 1.349 . S
C716 C728 1.349 . S
C717 C715 1.327 . S
C717 C733 1.429 . S
C717 H739 0.950 . S
C718 H714 0.949 . S
C718 C726 1.574 . S
C718 C734 1.368 . S
H719 C727 0.950 . S
H720 C725 0.950 . S
H721 C726 0.949 . S
H722 C728 0.950 . S
H723 C729 0.950 . S
H724 C730 0.949 . S
C725 H720 0.950 . S
C725 C727 1.327 . S
C725 C731 1.429 . S
C726 C718 1.574 . S
C726 H721 0.949 . S
C726 C732 1.368 . S
C727 C711 1.349 . S
C727 H719 0.950 . S
C727 C725 1.327 . S
C728 C716 1.349 . S
C728 H722 0.950 . S
C728 C729 1.327 . S
C729 H723 0.950 . S
C729 C728 1.327 . S
C729 C733 1.429 . S
C730 C713 1.574 . S
C730 H724 0.949 . S
C730 C734 1.368 . S
C731 C712 1.429 . S
C731 C725 1.429 . S
C731 C732 1.523 . S
C732 C713 1.368 . S
C732 C726 1.368 . S
C732 C731 1.523 . S
C733 C717 1.429 . S
C733 C729 1.429 . S
C733 C734 1.523 . S
C734 C718 1.368 . S
C734 C730 1.368 . S
C734 C733 1.523 . S
H735 C710 0.950 . S
H736 C712 0.950 . S
H737 C713 0.949 . S
H738 C715 0.950 . S
H739 C717 0.950 . S
C740 C741 1.349 . S
C740 C742 1.327 . S
C740 H765 0.950 . S
C741 C740 1.349 . S
C741 C757 1.349 . S
C742 C740 1.327 . S
C742 C761 1.429 . S
C742 H766 0.950 . S
C743 C760 1.574 . S
C743 C762 1.368 . S
C743 H767 0.949 . S
H744 C748 0.949 . S
C745 C746 1.349 . S
C745 C747 1.327 . S
C745 H768 0.950 . S
C746 C745 1.349 . S
C746 C758 1.349 . S
C747 C745 1.327 . S
C747 C763 1.429 . S
C747 H769 0.950 . S
C748 H744 0.949 . S
C748 C756 1.574 . S
C748 C764 1.368 . S
H749 C757 0.950 . S
H750 C755 0.950 . S
H751 C756 0.949 . S
H752 C758 0.950 . S
H753 C759 0.950 . S
H754 C760 0.949 . S
C755 H750 0.950 . S
C755 C757 1.327 . S
C755 C761 1.429 . S
C756 C748 1.574 . S
C756 H751 0.949 . S
C756 C762 1.368 . S
C757 C741 1.349 . S
C757 H749 0.950 . S
C757 C755 1.327 . S
C758 C746 1.349 . S
C758 H752 0.950 . S
C758 C759 1.327 . S
C759 H753 0.950 . S
C759 C758 1.327 . S
C759 C763 1.429 . S
C760 C743 1.574 . S
C760 H754 0.949 . S
C760 C764 1.368 . S
C761 C742 1.429 . S
C761 C755 1.429 . S
C761 C762 1.523 . S
C762 C743 1.368 . S
C762 C756 1.368 . S
C762 C761 1.523 . S
C763 C747 1.429 . S
C763 C759 1.429 . S
C763 C764 1.523 . S
C764 C748 1.368 . S
C764 C760 1.368 . S
C764 C763 1.523 . S
H765 C740 0.950 . S
H766 C742 0.950 . S
H767 C743 0.949 . S
H768 C745 0.950 . S
H769 C747 0.950 . S
C770 C771 1.349 . S
C770 C772 1.327 . S
C770 H795 0.950 . S
C771 C770 1.349 . S
C771 C787 1.349 . S
C772 C770 1.327 . S
C772 C791 1.429 . S
C772 H796 0.950 . S
C773 C790 1.574 . S
C773 C792 1.368 . S
C773 H797 0.949 . S
H774 C778 0.949 . S
C775 C776 1.349 . S
C775 C777 1.327 . S
C775 H798 0.950 . S
C776 C775 1.349 . S
C776 C788 1.349 . S
C777 C775 1.327 . S
C777 C793 1.429 . S
C777 H799 0.950 . S
C778 H774 0.949 . S
C778 C786 1.574 . S
C778 C794 1.368 . S
H779 C787 0.950 . S
H780 C785 0.950 . S
H781 C786 0.949 . S
H782 C788 0.950 . S
H783 C789 0.950 . S
H784 C790 0.949 . S
C785 H780 0.950 . S
C785 C787 1.327 . S
C785 C791 1.429 . S
C786 C778 1.574 . S
C786 H781 0.949 . S
C786 C792 1.368 . S
C787 C771 1.349 . S
C787 H779 0.950 . S
C787 C785 1.327 . S
C788 C776 1.349 . S
C788 H782 0.950 . S
C788 C789 1.327 . S
C789 H783 0.950 . S
C789 C788 1.327 . S
C789 C793 1.429 . S
C790 C773 1.574 . S
C790 H784 0.949 . S
C790 C794 1.368 . S
C791 C772 1.429 . S
C791 C785 1.429 . S
C791 C792 1.523 . S
C792 C773 1.368 . S
C792 C786 1.368 . S
C792 C791 1.523 . S
C793 C777 1.429 . S
C793 C789 1.429 . S
C793 C794 1.523 . S
C794 C778 1.368 . S
C794 C790 1.368 . S
C794 C793 1.523 . S
H795 C770 0.950 . S
H796 C772 0.950 . S
H797 C773 0.949 . S
H798 C775 0.950 . S
H799 C777 0.950 . S
C800 C801 1.349 . S
C800 C802 1.327 . S
C800 H825 0.950 . S
C801 C800 1.349 . S
C801 C817 1.349 . S
C802 C800 1.327 . S
C802 C821 1.429 . S
C802 H826 0.950 . S
C803 C820 1.574 . S
C803 C822 1.368 . S
C803 H827 0.949 . S
H804 C808 0.949 . S
C805 C806 1.349 . S
C805 C807 1.327 . S
C805 H828 0.950 . S
C806 C805 1.349 . S
C806 C818 1.349 . S
C807 C805 1.327 . S
C807 C823 1.429 . S
C807 H829 0.950 . S
C808 H804 0.949 . S
C808 C816 1.574 . S
C808 C824 1.368 . S
H809 C817 0.950 . S
H810 C815 0.950 . S
H811 C816 0.949 . S
H812 C818 0.950 . S
H813 C819 0.950 . S
H814 C820 0.949 . S
C815 H810 0.950 . S
C815 C817 1.327 . S
C815 C821 1.429 . S
C816 C808 1.574 . S
C816 H811 0.949 . S
C816 C822 1.368 . S
C817 C801 1.349 . S
C817 H809 0.950 . S
C817 C815 1.327 . S
C818 C806 1.349 . S
C818 H812 0.950 . S
C818 C819 1.327 . S
C819 H813 0.950 . S
C819 C818 1.327 . S
C819 C823 1.429 . S
C820 C803 1.574 . S
C820 H814 0.949 . S
C820 C824 1.368 . S
C821 C802 1.429 . S
C821 C815 1.429 . S
C821 C822 1.523 . S
C822 C803 1.368 . S
C822 C816 1.368 . S
C822 C821 1.523 . S
C823 C807 1.429 . S
C823 C819 1.429 . S
C823 C824 1.523 . S
C824 C808 1.368 . S
C824 C820 1.368 . S
C824 C823 1.523 . S
H825 C800 0.950 . S
H826 C802 0.950 . S
H827 C803 0.949 . S
H828 C805 0.950 . S
H829 C807 0.950 . S
C830 C831 1.349 1_565 S
C830 C832 1.327 . S
C830 H855 0.950 . S
C831 C830 1.349 1_545 S
C831 C847 1.349 . S
C832 C830 1.327 . S
C832 C851 1.429 . S
C832 H856 0.950 . S
C833 C850 1.574 . S
C833 C852 1.368 . S
C833 H857 0.949 . S
H834 C838 0.949 . S
C835 C836 1.349 . S
C835 C837 1.327 . S
C835 H858 0.950 . S
C836 C835 1.349 . S
C836 C848 1.349 . S
C837 C835 1.327 . S
C837 C853 1.429 . S
C837 H859 0.950 . S
C838 H834 0.949 . S
C838 C846 1.574 . S
C838 C854 1.368 . S
H839 C847 0.950 . S
H840 C845 0.953 . S
H841 C846 0.949 . S
H842 C848 0.950 . S
H843 C849 0.950 . S
H844 C850 0.949 . S
C845 H840 0.953 . S
C845 C847 1.331 . S
C845 C851 1.421 1_545 S
C846 C838 1.574 . S
C846 H841 0.949 . S
C846 C852 1.368 . S
C847 C831 1.349 . S
C847 H839 0.950 . S
C847 C845 1.331 . S
C848 C836 1.349 . S
C848 H842 0.950 . S
C848 C849 1.327 . S
C849 H843 0.950 . S
C849 C848 1.327 . S
C849 C853 1.429 . S
C850 C833 1.574 . S
C850 H844 0.949 . S
C850 C854 1.368 . S
C851 C832 1.429 . S
C851 C845 1.421 1_565 S
C851 C852 1.523 . S
C852 C833 1.368 . S
C852 C846 1.368 . S
C852 C851 1.523 . S
C853 C837 1.429 . S
C853 C849 1.429 . S
C853 C854 1.523 . S
C854 C838 1.368 . S
C854 C850 1.368 . S
C854 C853 1.523 . S
H855 C830 0.950 . S
H856 C832 0.950 . S
H857 C833 0.949 . S
H858 C835 0.950 . S
H859 C837 0.950 . S
C860 C861 1.349 . S
C860 C862 1.327 . S
C860 H885 0.950 . S
C861 C860 1.349 . S
C861 C877 1.349 . S
C862 C860 1.327 . S
C862 C881 1.429 . S
C862 H886 0.950 . S
C863 C880 1.574 1_554 S
C863 C882 1.368 . S
C863 H887 0.949 . S
H864 C868 0.949 . S
C865 C866 1.349 . S
C865 C867 1.327 . S
C865 H888 0.950 . S
C866 C865 1.349 . S
C866 C878 1.349 . S
C867 C865 1.327 . S
C867 C883 1.429 . S
C867 H889 0.950 . S
C868 H864 0.949 . S
C868 C876 1.574 1_556 S
C868 C884 1.368 . S
H869 C877 0.950 . S
H870 C875 0.950 . S
H871 C876 0.949 . S
H872 C878 0.950 . S
H873 C879 0.950 . S
H874 C880 0.949 . S
C875 H870 0.950 . S
C875 C877 1.327 . S
C875 C881 1.429 . S
C876 C868 1.574 1_554 S
C876 H871 0.949 . S
C876 C882 1.368 . S
C877 C861 1.349 . S
C877 H869 0.950 . S
C877 C875 1.327 . S
C878 C866 1.349 . S
C878 H872 0.950 . S
C878 C879 1.327 . S
C879 H873 0.950 . S
C879 C878 1.327 . S
C879 C883 1.429 . S
C880 C863 1.574 1_556 S
C880 H874 0.949 . S
C880 C884 1.368 . S
C881 C862 1.429 . S
C881 C875 1.429 . S
C881 C882 1.523 . S
C882 C863 1.368 . S
C882 C876 1.368 . S
C882 C881 1.523 . S
C883 C867 1.429 . S
C883 C879 1.429 . S
C883 C884 1.523 . S
C884 C868 1.368 . S
C884 C880 1.368 . S
C884 C883 1.523 . S
H885 C860 0.950 . S
H886 C862 0.950 . S
H887 C863 0.949 . S
H888 C865 0.950 . S
H889 C867 0.950 . S
C890 C891 1.349 . S
C890 C892 1.327 . S
C890 H915 0.950 . S
C891 C890 1.349 . S
C891 C907 1.349 . S
C892 C890 1.327 . S
C892 C911 1.429 . S
C892 H916 0.950 . S
C893 C910 1.574 . S
C893 C912 1.368 . S
C893 H917 0.949 . S
H894 C898 0.949 1_565 S
C895 C896 1.349 1_545 S
C895 C897 1.327 . S
C895 H918 0.950 . S
C896 C895 1.349 1_565 S
C896 C908 1.349 . S
C897 C895 1.327 . S
C897 C913 1.429 . S
C897 H919 0.950 . S
C898 H894 0.949 1_545 S
C898 C906 1.574 . S
C898 C914 1.368 . S
H899 C907 0.950 . S
H900 C905 0.950 . S
H901 C906 0.949 . S
H902 C908 0.950 . S
H903 C909 0.950 . S
H904 C910 0.949 . S
C905 H900 0.950 . S
C905 C907 1.327 . S
C905 C911 1.429 . S
C906 C898 1.574 . S
C906 H901 0.949 . S
C906 C912 1.368 . S
C907 C891 1.349 . S
C907 H899 0.950 . S
C907 C905 1.327 . S
C908 C896 1.349 . S
C908 H902 0.950 . S
C908 C909 1.327 . S
C909 H903 0.950 . S
C909 C908 1.327 . S
C909 C913 1.429 1_565 S
C910 C893 1.574 . S
C910 H904 0.949 . S
C910 C914 1.368 . S
C911 C892 1.429 . S
C911 C905 1.429 . S
C911 C912 1.523 . S
C912 C893 1.368 . S
C912 C906 1.368 . S
C912 C911 1.523 . S
C913 C897 1.429 . S
C913 C909 1.429 1_545 S
C913 C914 1.523 . S
C914 C898 1.368 . S
C914 C910 1.368 . S
C914 C913 1.523 . S
H915 C890 0.950 . S
H916 C892 0.950 . S
H917 C893 0.949 . S
H918 C895 0.950 . S
H919 C897 0.950 . S
C920 C921 1.349 . S
C920 C922 1.327 . S
C920 H945 0.950 . S
C921 C920 1.349 . S
C921 C937 1.349 . S
C922 C920 1.327 . S
C922 C941 1.429 . S
C922 H946 0.950 . S
C923 C940 1.574 . S
C923 C942 1.368 . S
C923 H947 0.949 . S
H924 C928 0.949 . S
C925 C926 1.349 . S
C925 C927 1.327 . S
C925 H948 0.950 . S
C926 C925 1.349 . S
C926 C938 1.349 . S
C927 C925 1.327 . S
C927 C943 1.429 . S
C927 H949 0.950 . S
C928 H924 0.949 . S
C928 C936 1.574 . S
C928 C944 1.368 . S
H929 C937 0.950 . S
H930 C935 0.950 . S
H931 C936 0.949 . S
H932 C938 0.950 . S
H933 C939 0.950 . S
H934 C940 0.949 . S
C935 H930 0.950 . S
C935 C937 1.327 . S
C935 C941 1.429 . S
C936 C928 1.574 . S
C936 H931 0.949 . S
C936 C942 1.368 . S
C937 C921 1.349 . S
C937 H929 0.950 . S
C937 C935 1.327 . S
C938 C926 1.349 . S
C938 H932 0.950 . S
C938 C939 1.327 . S
C939 H933 0.950 . S
C939 C938 1.327 . S
C939 C943 1.429 . S
C940 C923 1.574 . S
C940 H934 0.949 . S
C940 C944 1.368 . S
C941 C922 1.429 . S
C941 C935 1.429 . S
C941 C942 1.523 . S
C942 C923 1.368 . S
C942 C936 1.368 . S
C942 C941 1.523 . S
C943 C927 1.429 . S
C943 C939 1.429 . S
C943 C944 1.523 . S
C944 C928 1.368 . S
C944 C940 1.368 . S
C944 C943 1.523 . S
H945 C920 0.950 . S
H946 C922 0.950 . S
H947 C923 0.949 . S
H948 C925 0.950 . S
H949 C927 0.950 . S
C950 C951 1.349 . S
C950 C952 1.327 1_565 S
C950 H975 0.950 . S
C951 C950 1.349 . S
C951 C967 1.349 1_565 S
C952 C950 1.327 1_545 S
C952 C971 1.429 . S
C952 H976 0.950 . S
C953 C970 1.574 . S
C953 C972 1.368 . S
C953 H977 0.949 . S
H954 C958 0.949 . S
C955 C956 1.349 . S
C955 C957 1.327 . S
C955 H978 0.950 . S
C956 C955 1.349 . S
C956 C968 1.349 . S
C957 C955 1.327 . S
C957 C973 1.429 . S
C957 H979 0.950 . S
C958 H954 0.949 . S
C958 C966 1.574 . S
C958 C974 1.368 . S
H959 C967 0.950 . S
H960 C965 0.950 . S
H961 C966 0.949 . S
H962 C968 0.950 . S
H963 C969 0.950 . S
H964 C970 0.949 . S
C965 H960 0.950 . S
C965 C967 1.327 . S
C965 C971 1.429 . S
C966 C958 1.574 . S
C966 H961 0.949 . S
C966 C972 1.368 . S
C967 C951 1.349 1_545 S
C967 H959 0.950 . S
C967 C965 1.327 . S
C968 C956 1.349 . S
C968 H962 0.950 . S
C968 C969 1.327 . S
C969 H963 0.950 . S
C969 C968 1.327 . S
C969 C973 1.429 . S
C970 C953 1.574 . S
C970 H964 0.949 . S
C970 C974 1.368 . S
C971 C952 1.429 . S
C971 C965 1.429 . S
C971 C972 1.523 . S
C972 C953 1.368 . S
C972 C966 1.368 . S
C972 C971 1.523 . S
C973 C957 1.429 . S
C973 C969 1.429 . S
C973 C974 1.523 . S
C974 C958 1.368 . S
C974 C970 1.368 . S
C974 C973 1.523 . S
H975 C950 0.950 . S
H976 C952 0.950 . S
H977 C953 0.949 . S
H978 C955 0.950 . S
H979 C957 0.950 . S
C980 C981 1.349 . S
C980 C982 1.327 . S
C980 H1005 0.950 . S
C981 C980 1.349 . S
C981 C997 1.349 . S
C982 C980 1.327 . S
C982 C1001 1.429 . S
C982 H1006 0.950 . S
C983 C1000 1.574 1_554 S
C983 C1002 1.368 . S
C983 H1007 0.949 . S
H984 C988 0.949 . S
C985 C986 1.349 . S
C985 C987 1.327 . S
C985 H1008 0.950 . S
C986 C985 1.349 . S
C986 C998 1.349 . S
C987 C985 1.327 . S
C987 C1003 1.429 . S
C987 H1009 0.950 . S
C988 H984 0.949 . S
C988 C996 1.574 1_556 S
C988 C1004 1.368 . S
H989 C997 0.950 . S
H990 C995 0.950 . S
H991 C996 0.949 . S
H992 C998 0.950 . S
H993 C999 0.950 . S
H994 C1000 0.949 . S
C995 H990 0.950 . S
C995 C997 1.327 . S
C995 C1001 1.429 . S
C996 C988 1.574 1_554 S
C996 H991 0.949 . S
C996 C1002 1.368 . S
C997 C981 1.349 . S
C997 H989 0.950 . S
C997 C995 1.327 . S
C998 C986 1.349 . S
C998 H992 0.950 . S
C998 C999 1.327 . S
C999 H993 0.950 . S
C999 C998 1.327 . S
C999 C1003 1.429 . S
C1000 C983 1.574 1_556 S
C1000 H994 0.949 . S
C1000 C1004 1.368 . S
C1001 C982 1.429 . S
C1001 C995 1.429 . S
C1001 C1002 1.523 . S
C1002 C983 1.368 . S
C1002 C996 1.368 . S
C1002 C1001 1.523 . S
C1003 C987 1.429 . S
C1003 C999 1.429 . S
C1003 C1004 1.523 . S
C1004 C988 1.368 . S
C1004 C1000 1.368 . S
C1004 C1003 1.523 . S
H1005 C980 0.950 . S
H1006 C982 0.950 . S
H1007 C983 0.949 . S
H1008 C985 0.950 . S
H1009 C987 0.950 . S
C1010 C1011 1.349 . S
C1010 C1012 1.327 . S
C1010 H1035 0.950 . S
C1011 C1010 1.349 . S
C1011 C1027 1.349 1_545 S
C1012 C1010 1.327 . S
C1012 C1031 1.429 1_545 S
C1012 H1036 0.950 . S
C1013 C1030 1.574 . S
C1013 C1032 1.368 . S
C1013 H1037 0.949 . S
H1014 C1018 0.949 . S
C1015 C1016 1.349 . S
C1015 C1017 1.327 . S
C1015 H1038 0.950 . S
C1016 C1015 1.349 . S
C1016 C1028 1.349 . S
C1017 C1015 1.327 . S
C1017 C1033 1.429 . S
C1017 H1039 0.950 . S
C1018 H1014 0.949 . S
C1018 C1026 1.574 . S
C1018 C1034 1.368 . S
H1019 C1027 0.950 . S
H1020 C1025 0.950 . S
H1021 C1026 0.949 1_545 S
H1022 C1028 0.950 . S
H1023 C1029 0.950 . S
H1024 C1030 0.949 . S
C1025 H1020 0.950 . S
C1025 C1027 1.327 . S
C1025 C1031 1.429 . S
C1026 C1018 1.574 . S
C1026 H1021 0.949 1_565 S
C1026 C1032 1.368 . S
C1027 C1011 1.349 1_565 S
C1027 H1019 0.950 . S
C1027 C1025 1.327 . S
C1028 C1016 1.349 . S
C1028 H1022 0.950 . S
C1028 C1029 1.327 . S
C1029 H1023 0.950 . S
C1029 C1028 1.327 . S
C1029 C1033 1.429 . S
C1030 C1013 1.574 . S
C1030 H1024 0.949 . S
C1030 C1034 1.368 . S
C1031 C1012 1.429 1_565 S
C1031 C1025 1.429 . S
C1031 C1032 1.523 . S
C1032 C1013 1.368 . S
C1032 C1026 1.368 . S
C1032 C1031 1.523 . S
C1033 C1017 1.429 . S
C1033 C1029 1.429 . S
C1033 C1034 1.523 . S
C1034 C1018 1.368 . S
C1034 C1030 1.368 . S
C1034 C1033 1.523 . S
H1035 C1010 0.950 . S
H1036 C1012 0.950 . S
H1037 C1013 0.949 . S
H1038 C1015 0.950 . S
H1039 C1017 0.950 . S
C1040 C1041 1.349 . S
C1040 C1042 1.327 . S
C1040 H1065 0.950 . S
C1041 C1040 1.349 . S
C1041 C1057 1.349 . S
C1042 C1040 1.327 . S
C1042 C1061 1.429 . S
C1042 H1066 0.950 . S
C1043 C1060 1.574 . S
C1043 C1062 1.368 . S
C1043 H1067 0.949 . S
H1044 C1048 0.949 . S
C1045 C1046 1.349 . S
C1045 C1047 1.327 . S
C1045 H1068 0.950 . S
C1046 C1045 1.349 . S
C1046 C1058 1.349 . S
C1047 C1045 1.327 . S
C1047 C1063 1.429 . S
C1047 H1069 0.950 . S
C1048 H1044 0.949 . S
C1048 C1056 1.574 . S
C1048 C1064 1.368 . S
H1049 C1057 0.950 . S
H1050 C1055 0.950 . S
H1051 C1056 0.949 . S
H1052 C1058 0.950 . S
H1053 C1059 0.950 . S
H1054 C1060 0.949 . S
C1055 H1050 0.950 . S
C1055 C1057 1.327 . S
C1055 C1061 1.429 . S
C1056 C1048 1.574 . S
C1056 H1051 0.949 . S
C1056 C1062 1.368 . S
C1057 C1041 1.349 . S
C1057 H1049 0.950 . S
C1057 C1055 1.327 . S
C1058 C1046 1.349 . S
C1058 H1052 0.950 . S
C1058 C1059 1.327 . S
C1059 H1053 0.950 . S
C1059 C1058 1.327 . S
C1059 C1063 1.429 . S
C1060 C1043 1.574 . S
C1060 H1054 0.949 . S
C1060 C1064 1.368 . S
C1061 C1042 1.429 . S
C1061 C1055 1.429 . S
C1061 C1062 1.523 . S
C1062 C1043 1.368 . S
C1062 C1056 1.368 . S
C1062 C1061 1.523 . S
C1063 C1047 1.429 . S
C1063 C1059 1.429 . S
C1063 C1064 1.523 . S
C1064 C1048 1.368 . S
C1064 C1060 1.368 . S
C1064 C1063 1.523 . S
H1065 C1040 0.950 . S
H1066 C1042 0.950 . S
H1067 C1043 0.949 . S
H1068 C1045 0.950 . S
H1069 C1047 0.950 . S
C1070 C1071 1.349 . S
C1070 C1072 1.327 . S
C1070 H1095 0.950 . S
C1071 C1070 1.349 . S
C1071 C1087 1.349 . S
C1072 C1070 1.327 . S
C1072 C1091 1.429 . S
C1072 H1096 0.950 . S
C1073 C1090 1.574 . S
C1073 C1092 1.368 . S
C1073 H1097 0.949 . S
H1074 C1078 0.949 . S
C1075 C1076 1.349 . S
C1075 C1077 1.327 . S
C1075 H1098 0.950 . S
C1076 C1075 1.349 . S
C1076 C1088 1.349 . S
C1077 C1075 1.327 . S
C1077 C1093 1.429 . S
C1077 H1099 0.950 . S
C1078 H1074 0.949 . S
C1078 C1086 1.574 . S
C1078 C1094 1.368 . S
H1079 C1087 0.950 . S
H1080 C1085 0.950 . S
H1081 C1086 0.949 . S
H1082 C1088 0.950 . S
H1083 C1089 0.950 . S
H1084 C1090 0.949 . S
C1085 H1080 0.950 . S
C1085 C1087 1.327 . S
C1085 C1091 1.429 . S
C1086 C1078 1.574 . S
C1086 H1081 0.949 . S
C1086 C1092 1.368 . S
C1087 C1071 1.349 . S
C1087 H1079 0.950 . S
C1087 C1085 1.327 . S
C1088 C1076 1.349 . S
C1088 H1082 0.950 . S
C1088 C1089 1.327 . S
C1089 H1083 0.950 . S
C1089 C1088 1.327 . S
C1089 C1093 1.429 . S
C1090 C1073 1.574 . S
C1090 H1084 0.949 . S
C1090 C1094 1.368 . S
C1091 C1072 1.429 . S
C1091 C1085 1.429 . S
C1091 C1092 1.523 . S
C1092 C1073 1.368 . S
C1092 C1086 1.368 . S
C1092 C1091 1.523 . S
C1093 C1077 1.429 . S
C1093 C1089 1.429 . S
C1093 C1094 1.523 . S
C1094 C1078 1.368 . S
C1094 C1090 1.368 . S
C1094 C1093 1.523 . S
H1095 C1070 0.950 . S
H1096 C1072 0.950 . S
H1097 C1073 0.949 . S
H1098 C1075 0.950 . S
H1099 C1077 0.950 . S
C1100 C1101 1.349 . S
C1100 C1102 1.327 . S
C1100 H1125 0.950 . S
C1101 C1100 1.349 . S
C1101 C1117 1.349 . S
C1102 C1100 1.327 . S
C1102 C1121 1.429 . S
C1102 H1126 0.950 . S
C1103 C1120 1.574 1_655 S
C1103 C1122 1.368 . S
C1103 H1127 0.949 . S
H1104 C1108 0.949 . S
C1105 C1106 1.349 . S
C1105 C1107 1.327 . S
C1105 H1128 0.950 . S
C1106 C1105 1.349 . S
C1106 C1118 1.349 . S
C1107 C1105 1.327 . S
C1107 C1123 1.429 . S
C1107 H1129 0.950 . S
C1108 H1104 0.949 . S
C1108 C1116 1.574 1_455 S
C1108 C1124 1.368 . S
H1109 C1117 0.950 . S
H1110 C1115 0.950 . S
H1111 C1116 0.949 . S
H1112 C1118 0.950 . S
H1113 C1119 0.950 . S
H1114 C1120 0.949 . S
C1115 H1110 0.950 . S
C1115 C1117 1.327 . S
C1115 C1121 1.429 . S
C1116 C1108 1.574 1_655 S
C1116 H1111 0.949 . S
C1116 C1122 1.368 . S
C1117 C1101 1.349 . S
C1117 H1109 0.950 . S
C1117 C1115 1.327 . S
C1118 C1106 1.349 . S
C1118 H1112 0.950 . S
C1118 C1119 1.327 . S
C1119 H1113 0.950 . S
C1119 C1118 1.327 . S
C1119 C1123 1.429 . S
C1120 C1103 1.574 1_455 S
C1120 H1114 0.949 . S
C1120 C1124 1.368 . S
C1121 C1102 1.429 . S
C1121 C1115 1.429 . S
C1121 C1122 1.523 . S
C1122 C1103 1.368 . S
C1122 C1116 1.368 . S
C1122 C1121 1.523 . S
C1123 C1107 1.429 . S
C1123 C1119 1.429 . S
C1123 C1124 1.523 . S
C1124 C1108 1.368 . S
C1124 C1120 1.368 . S
C1124 C1123 1.523 . S
H1125 C1100 0.950 . S
H1126 C1102 0.950 . S
H1127 C1103 0.949 . S
H1128 C1105 0.950 . S
H1129 C1107 0.950 . S
C1130 C1131 1.349 . S
C1130 C1132 1.327 . S
C1130 H1155 0.950 . S
C1131 C1130 1.349 . S
C1131 C1147 1.349 . S
C1132 C1130 1.327 . S
C1132 C1151 1.429 . S
C1132 H1156 0.950 . S
C1133 C1150 1.574 . S
C1133 C1152 1.368 1_455 S
C1133 H1157 0.949 . S
H1134 C1138 0.949 . S
C1135 C1136 1.349 . S
C1135 C1137 1.327 . S
C1135 H1158 0.950 . S
C1136 C1135 1.349 . S
C1136 C1148 1.349 . S
C1137 C1135 1.327 . S
C1137 C1153 1.429 . S
C1137 H1159 0.950 . S
C1138 H1134 0.949 . S
C1138 C1146 1.574 . S
C1138 C1154 1.368 1_655 S
H1139 C1147 0.950 . S
H1140 C1145 0.950 . S
H1141 C1146 0.949 . S
H1142 C1148 0.950 . S
H1143 C1149 0.950 . S
H1144 C1150 0.949 . S
C1145 H1140 0.950 . S
C1145 C1147 1.327 . S
C1145 C1151 1.429 . S
C1146 C1138 1.574 . S
C1146 H1141 0.949 . S
C1146 C1152 1.368 . S
C1147 C1131 1.349 . S
C1147 H1139 0.950 . S
C1147 C1145 1.327 . S
C1148 C1136 1.349 . S
C1148 H1142 0.950 . S
C1148 C1149 1.327 . S
C1149 H1143 0.950 . S
C1149 C1148 1.327 . S
C1149 C1153 1.429 . S
C1150 C1133 1.574 . S
C1150 H1144 0.949 . S
C1150 C1154 1.368 . S
C1151 C1132 1.429 . S
C1151 C1145 1.429 . S
C1151 C1152 1.523 . S
C1152 C1133 1.368 1_655 S
C1152 C1146 1.368 . S
C1152 C1151 1.523 . S
C1153 C1137 1.429 . S
C1153 C1149 1.429 . S
C1153 C1154 1.523 . S
C1154 C1138 1.368 1_455 S
C1154 C1150 1.368 . S
C1154 C1153 1.523 . S
H1155 C1130 0.950 . S
H1156 C1132 0.950 . S
H1157 C1133 0.949 . S
H1158 C1135 0.950 . S
H1159 C1137 0.950 . S
C1160 C1161 1.349 . S
C1160 C1162 1.327 . S
C1160 H1185 0.950 . S
C1161 C1160 1.349 . S
C1161 C1177 1.349 . S
C1162 C1160 1.327 . S
C1162 C1181 1.429 . S
C1162 H1186 0.950 . S
C1163 C1180 1.574 . S
C1163 C1182 1.368 . S
C1163 H1187 0.949 . S
H1164 C1168 0.949 . S
C1165 C1166 1.349 . S
C1165 C1167 1.327 . S
C1165 H1188 0.950 . S
C1166 C1165 1.349 . S
C1166 C1178 1.349 . S
C1167 C1165 1.327 . S
C1167 C1183 1.429 . S
C1167 H1189 0.950 . S
C1168 H1164 0.949 . S
C1168 C1176 1.574 . S
C1168 C1184 1.368 . S
H1169 C1177 0.950 . S
H1170 C1175 0.950 . S
H1171 C1176 0.949 . S
H1172 C1178 0.950 . S
H1173 C1179 0.950 . S
H1174 C1180 0.949 . S
C1175 H1170 0.950 . S
C1175 C1177 1.327 . S
C1175 C1181 1.429 . S
C1176 C1168 1.574 . S
C1176 H1171 0.949 . S
C1176 C1182 1.368 . S
C1177 C1161 1.349 . S
C1177 H1169 0.950 . S
C1177 C1175 1.327 . S
C1178 C1166 1.349 . S
C1178 H1172 0.950 . S
C1178 C1179 1.327 . S
C1179 H1173 0.950 . S
C1179 C1178 1.327 . S
C1179 C1183 1.429 . S
C1180 C1163 1.574 . S
C1180 H1174 0.949 . S
C1180 C1184 1.368 . S
C1181 C1162 1.429 . S
C1181 C1175 1.429 . S
C1181 C1182 1.523 . S
C1182 C1163 1.368 . S
C1182 C1176 1.368 . S
C1182 C1181 1.523 . S
C1183 C1167 1.429 . S
C1183 C1179 1.429 . S
C1183 C1184 1.523 . S
C1184 C1168 1.368 . S
C1184 C1180 1.368 . S
C1184 C1183 1.523 . S
H1185 C1160 0.950 . S
H1186 C1162 0.950 . S
H1187 C1163 0.949 . S
H1188 C1165 0.950 . S
H1189 C1167 0.950 . S
C1190 C1191 1.349 . S
C1190 C1192 1.327 . S
C1190 H1215 0.950 . S
C1191 C1190 1.349 . S
C1191 C1207 1.349 . S
C1192 C1190 1.327 . S
C1192 C1211 1.429 . S
C1192 H1216 0.950 . S
C1193 C1210 1.574 . S
C1193 C1212 1.368 . S
C1193 H1217 0.949 . S
H1194 C1198 0.949 . S
C1195 C1196 1.349 . S
C1195 C1197 1.327 . S
C1195 H1218 0.950 . S
C1196 C1195 1.349 . S
C1196 C1208 1.349 . S
C1197 C1195 1.327 . S
C1197 C1213 1.429 . S
C1197 H1219 0.950 . S
C1198 H1194 0.949 . S
C1198 C1206 1.574 . S
C1198 C1214 1.368 . S
H1199 C1207 0.950 . S
H1200 C1205 0.950 . S
H1201 C1206 0.949 . S
H1202 C1208 0.950 . S
H1203 C1209 0.950 . S
H1204 C1210 0.949 . S
C1205 H1200 0.950 . S
C1205 C1207 1.327 . S
C1205 C1211 1.429 . S
C1206 C1198 1.574 . S
C1206 H1201 0.949 . S
C1206 C1212 1.368 . S
C1207 C1191 1.349 . S
C1207 H1199 0.950 . S
C1207 C1205 1.327 . S
C1208 C1196 1.349 . S
C1208 H1202 0.950 . S
C1208 C1209 1.327 . S
C1209 H1203 0.950 . S
C1209 C1208 1.327 . S
C1209 C1213 1.429 . S
C1210 C1193 1.574 . S
C1210 H1204 0.949 . S
C1210 C1214 1.368 . S
C1211 C1192 1.429 . S
C1211 C1205 1.429 . S
C1211 C1212 1.523 . S
C1212 C1193 1.368 . S
C1212 C1206 1.368 . S
C1212 C1211 1.523 . S
C1213 C1197 1.429 . S
C1213 C1209 1.429 . S
C1213 C1214 1.523 . S
C1214 C1198 1.368 . S
C1214 C1210 1.368 . S
C1214 C1213 1.523 . S
H1215 C1190 0.950 . S
H1216 C1192 0.950 . S
H1217 C1193 0.949 . S
H1218 C1195 0.950 . S
H1219 C1197 0.950 . S
C1220 C1221 1.349 . S
C1220 C1222 1.327 . S
C1220 H1245 0.950 . S
C1221 C1220 1.349 . S
C1221 C1237 1.349 . S
C1222 C1220 1.327 . S
C1222 C1241 1.429 . S
C1222 H1246 0.950 . S
C1223 C1240 1.574 1_455 S
C1223 C1242 1.368 . S
C1223 H1247 0.949 . S
H1224 C1228 0.949 . S
C1225 C1226 1.349 . S
C1225 C1227 1.327 . S
C1225 H1248 0.950 . S
C1226 C1225 1.349 . S
C1226 C1238 1.349 . S
C1227 C1225 1.327 . S
C1227 C1243 1.429 . S
C1227 H1249 0.950 . S
C1228 H1224 0.949 . S
C1228 C1236 1.574 1_655 S
C1228 C1244 1.368 . S
H1229 C1237 0.950 . S
H1230 C1235 0.950 . S
H1231 C1236 0.949 . S
H1232 C1238 0.950 . S
H1233 C1239 0.950 . S
H1234 C1240 0.949 . S
C1235 H1230 0.950 . S
C1235 C1237 1.327 . S
C1235 C1241 1.429 . S
C1236 C1228 1.574 1_455 S
C1236 H1231 0.949 . S
C1236 C1242 1.368 . S
C1237 C1221 1.349 . S
C1237 H1229 0.950 . S
C1237 C1235 1.327 . S
C1238 C1226 1.349 . S
C1238 H1232 0.950 . S
C1238 C1239 1.327 . S
C1239 H1233 0.950 . S
C1239 C1238 1.327 . S
C1239 C1243 1.429 . S
C1240 C1223 1.574 1_655 S
C1240 H1234 0.949 . S
C1240 C1244 1.368 . S
C1241 C1222 1.429 . S
C1241 C1235 1.429 . S
C1241 C1242 1.523 . S
C1242 C1223 1.368 . S
C1242 C1236 1.368 . S
C1242 C1241 1.523 . S
C1243 C1227 1.429 . S
C1243 C1239 1.429 . S
C1243 C1244 1.523 . S
C1244 C1228 1.368 . S
C1244 C1240 1.368 . S
C1244 C1243 1.523 . S
H1245 C1220 0.950 . S
H1246 C1222 0.950 . S
H1247 C1223 0.949 . S
H1248 C1225 0.950 . S
H1249 C1227 0.950 . S
C1250 C1251 1.349 . S
C1250 C1252 1.327 . S
C1250 H1275 0.950 . S
C1251 C1250 1.349 . S
C1251 C1267 1.349 . S
C1252 C1250 1.327 . S
C1252 C1271 1.429 . S
C1252 H1276 0.950 . S
C1253 C1270 1.574 . S
C1253 C1272 1.368 . S
C1253 H1277 0.949 . S
H1254 C1258 0.949 . S
C1255 C1256 1.349 . S
C1255 C1257 1.327 . S
C1255 H1278 0.950 . S
C1256 C1255 1.349 . S
C1256 C1268 1.349 . S
C1257 C1255 1.327 . S
C1257 C1273 1.429 . S
C1257 H1279 0.950 . S
C1258 H1254 0.949 . S
C1258 C1266 1.574 . S
C1258 C1274 1.368 . S
H1259 C1267 0.950 . S
H1260 C1265 0.950 . S
H1261 C1266 0.949 . S
H1262 C1268 0.950 . S
H1263 C1269 0.950 . S
H1264 C1270 0.949 . S
C1265 H1260 0.950 . S
C1265 C1267 1.327 . S
C1265 C1271 1.429 . S
C1266 C1258 1.574 . S
C1266 H1261 0.949 . S
C1266 C1272 1.368 1_655 S
C1267 C1251 1.349 . S
C1267 H1259 0.950 . S
C1267 C1265 1.327 . S
C1268 C1256 1.349 . S
C1268 H1262 0.950 . S
C1268 C1269 1.327 . S
C1269 H1263 0.950 . S
C1269 C1268 1.327 . S
C1269 C1273 1.429 . S
C1270 C1253 1.574 . S
C1270 H1264 0.949 . S
C1270 C1274 1.368 1_455 S
C1271 C1252 1.429 . S
C1271 C1265 1.429 . S
C1271 C1272 1.523 . S
C1272 C1253 1.368 . S
C1272 C1266 1.368 1_455 S
C1272 C1271 1.523 . S
C1273 C1257 1.429 . S
C1273 C1269 1.429 . S
C1273 C1274 1.523 . S
C1274 C1258 1.368 . S
C1274 C1270 1.368 1_655 S
C1274 C1273 1.523 . S
H1275 C1250 0.950 . S
H1276 C1252 0.950 . S
H1277 C1253 0.949 . S
H1278 C1255 0.950 . S
H1279 C1257 0.950 . S
C1280 C1281 1.349 . S
C1280 C1282 1.327 . S
C1280 H1305 0.950 . S
C1281 C1280 1.349 . S
C1281 C1297 1.349 . S
C1282 C1280 1.327 . S
C1282 C1301 1.429 . S
C1282 H1306 0.950 . S
C1283 C1300 1.574 . S
C1283 C1302 1.368 . S
C1283 H1307 0.949 . S
H1284 C1288 0.949 . S
C1285 C1286 1.349 . S
C1285 C1287 1.327 . S
C1285 H1308 0.950 . S
C1286 C1285 1.349 . S
C1286 C1298 1.349 . S
C1287 C1285 1.327 . S
C1287 C1303 1.429 . S
C1287 H1309 0.950 . S
C1288 H1284 0.949 . S
C1288 C1296 1.574 . S
C1288 C1304 1.368 . S
H1289 C1297 0.950 . S
H1290 C1295 0.950 . S
H1291 C1296 0.949 . S
H1292 C1298 0.950 . S
H1293 C1299 0.950 . S
H1294 C1300 0.949 . S
C1295 H1290 0.950 . S
C1295 C1297 1.327 . S
C1295 C1301 1.429 . S
C1296 C1288 1.574 . S
C1296 H1291 0.949 . S
C1296 C1302 1.368 . S
C1297 C1281 1.349 . S
C1297 H1289 0.950 . S
C1297 C1295 1.327 . S
C1298 C1286 1.349 . S
C1298 H1292 0.950 . S
C1298 C1299 1.327 . S
C1299 H1293 0.950 . S
C1299 C1298 1.327 . S
C1299 C1303 1.429 . S
C1300 C1283 1.574 . S
C1300 H1294 0.949 . S
C1300 C1304 1.368 . S
C1301 C1282 1.429 . S
C1301 C1295 1.429 . S
C1301 C1302 1.523 . S
C1302 C1283 1.368 . S
C1302 C1296 1.368 . S
C1302 C1301 1.523 . S
C1303 C1287 1.429 . S
C1303 C1299 1.429 . S
C1303 C1304 1.523 . S
C1304 C1288 1.368 . S
C1304 C1300 1.368 . S
C1304 C1303 1.523 . S
H1305 C1280 0.950 . S
H1306 C1282 0.950 . S
H1307 C1283 0.949 . S
H1308 C1285 0.950 . S
H1309 C1287 0.950 . S
C1310 C1311 1.349 . S
C1310 C1312 1.327 . S
C1310 H1335 0.950 . S
C1311 C1310 1.349 . S
C1311 C1327 1.349 . S
C1312 C1310 1.327 . S
C1312 C1331 1.429 . S
C1312 H1336 0.950 . S
C1313 C1330 1.574 . S
C1313 C1332 1.368 . S
C1313 H1337 0.949 . S
H1314 C1318 0.949 . S
C1315 C1316 1.349 . S
C1315 C1317 1.327 . S
C1315 H1338 0.950 . S
C1316 C1315 1.349 . S
C1316 C1328 1.349 . S
C1317 C1315 1.327 . S
C1317 C1333 1.429 . S
C1317 H1339 0.950 . S
C1318 H1314 0.949 . S
C1318 C1326 1.574 . S
C1318 C1334 1.368 . S
H1319 C1327 0.950 . S
H1320 C1325 0.950 . S
H1321 C1326 0.949 . S
H1322 C1328 0.950 . S
H1323 C1329 0.950 . S
H1324 C1330 0.949 . S
C1325 H1320 0.950 . S
C1325 C1327 1.327 . S
C1325 C1331 1.429 . S
C1326 C1318 1.574 . S
C1326 H1321 0.949 . S
C1326 C1332 1.368 . S
C1327 C1311 1.349 . S
C1327 H1319 0.950 . S
C1327 C1325 1.327 . S
C1328 C1316 1.349 . S
C1328 H1322 0.950 . S
C1328 C1329 1.327 . S
C1329 H1323 0.950 . S
C1329 C1328 1.327 . S
C1329 C1333 1.429 . S
C1330 C1313 1.574 . S
C1330 H1324 0.949 . S
C1330 C1334 1.368 . S
C1331 C1312 1.429 . S
C1331 C1325 1.429 . S
C1331 C1332 1.523 . S
C1332 C1313 1.368 . S
C1332 C1326 1.368 . S
C1332 C1331 1.523 . S
C1333 C1317 1.429 . S
C1333 C1329 1.429 . S
C1333 C1334 1.523 . S
C1334 C1318 1.368 . S
C1334 C1330 1.368 . S
C1334 C1333 1.523 . S
H1335 C1310 0.950 . S
H1336 C1312 0.950 . S
H1337 C1313 0.949 . S
H1338 C1315 0.950 . S
H1339 C1317 0.950 . S
C1340 C1341 1.349 . S
C1340 C1342 1.327 . S
C1340 H1365 0.950 . S
C1341 C1340 1.349 . S
C1341 C1357 1.349 . S
C1342 C1340 1.327 . S
C1342 C1361 1.429 . S
C1342 H1366 0.950 . S
C1343 C1360 1.574 . S
C1343 C1362 1.368 . S
C1343 H1367 0.949 . S
H1344 C1348 0.949 . S
C1345 C1346 1.349 . S
C1345 C1347 1.327 . S
C1345 H1368 0.950 . S
C1346 C1345 1.349 . S
C1346 C1358 1.349 . S
C1347 C1345 1.327 . S
C1347 C1363 1.429 . S
C1347 H1369 0.950 . S
C1348 H1344 0.949 . S
C1348 C1356 1.574 . S
C1348 C1364 1.368 . S
H1349 C1357 0.950 . S
H1350 C1355 0.950 . S
H1351 C1356 0.949 . S
H1352 C1358 0.950 . S
H1353 C1359 0.950 . S
H1354 C1360 0.949 . S
C1355 H1350 0.950 . S
C1355 C1357 1.327 . S
C1355 C1361 1.429 . S
C1356 C1348 1.574 . S
C1356 H1351 0.949 . S
C1356 C1362 1.368 . S
C1357 C1341 1.349 . S
C1357 H1349 0.950 . S
C1357 C1355 1.327 . S
C1358 C1346 1.349 . S
C1358 H1352 0.950 . S
C1358 C1359 1.327 . S
C1359 H1353 0.950 . S
C1359 C1358 1.327 . S
C1359 C1363 1.429 . S
C1360 C1343 1.574 . S
C1360 H1354 0.949 . S
C1360 C1364 1.368 . S
C1361 C1342 1.429 . S
C1361 C1355 1.429 . S
C1361 C1362 1.523 . S
C1362 C1343 1.368 . S
C1362 C1356 1.368 . S
C1362 C1361 1.523 . S
C1363 C1347 1.429 . S
C1363 C1359 1.429 . S
C1363 C1364 1.523 . S
C1364 C1348 1.368 . S
C1364 C1360 1.368 . S
C1364 C1363 1.523 . S
H1365 C1340 0.950 . S
H1366 C1342 0.950 . S
H1367 C1343 0.949 . S
H1368 C1345 0.950 . S
H1369 C1347 0.950 . S
C1370 C1371 1.349 . S
C1370 C1372 1.327 1_655 S
C1370 H1395 0.950 . S
C1371 C1370 1.349 . S
C1371 C1387 1.349 . S
C1372 C1370 1.327 1_455 S
C1372 C1391 1.429 . S
C1372 H1396 0.950 . S
C1373 C1390 1.574 . S
C1373 C1392 1.368 . S
C1373 H1397 0.949 . S
H1374 C1378 0.949 . S
C1375 C1376 1.349 . S
C1375 C1377 1.327 . S
C1375 H1398 0.950 . S
C1376 C1375 1.349 . S
C1376 C1388 1.349 . S
C1377 C1375 1.327 . S
C1377 C1393 1.429 . S
C1377 H1399 0.950 . S
C1378 H1374 0.949 . S
C1378 C1386 1.574 . S
C1378 C1394 1.368 . S
H1379 C1387 0.950 . S
H1380 C1385 0.950 . S
H1381 C1386 0.949 . S
H1382 C1388 0.950 . S
H1383 C1389 0.950 . S
H1384 C1390 0.949 . S
C1385 H1380 0.950 . S
C1385 C1387 1.327 1_455 S
C1385 C1391 1.429 . S
C1386 C1378 1.574 . S
C1386 H1381 0.949 . S
C1386 C1392 1.368 . S
C1387 C1371 1.349 . S
C1387 H1379 0.950 . S
C1387 C1385 1.327 1_655 S
C1388 C1376 1.349 . S
C1388 H1382 0.950 . S
C1388 C1389 1.327 . S
C1389 H1383 0.950 . S
C1389 C1388 1.327 . S
C1389 C1393 1.429 . S
C1390 C1373 1.574 . S
C1390 H1384 0.949 . S
C1390 C1394 1.368 . S
C1391 C1372 1.429 . S
C1391 C1385 1.429 . S
C1391 C1392 1.523 . S
C1392 C1373 1.368 . S
C1392 C1386 1.368 . S
C1392 C1391 1.523 . S
C1393 C1377 1.429 . S
C1393 C1389 1.429 . S
C1393 C1394 1.523 . S
C1394 C1378 1.368 . S
C1394 C1390 1.368 . S
C1394 C1393 1.523 . S
H1395 C1370 0.950 . S
H1396 C1372 0.950 . S
H1397 C1373 0.949 . S
H1398 C1375 0.950 . S
H1399 C1377 0.950 . S
C1400 C1401 1.349 . S
C1400 C1402 1.327 . S
C1400 H1425 0.950 . S
C1401 C1400 1.349 . S
C1401 C1417 1.349 . S
C1402 C1400 1.327 . S
C1402 C1421 1.429 . S
C1402 H1426 0.950 . S
C1403 C1420 1.574 . S
C1403 C1422 1.368 . S
C1403 H1427 0.949 . S
H1404 C1408 0.949 . S
C1405 C1406 1.349 . S
C1405 C1407 1.327 . S
C1405 H1428 0.950 . S
C1406 C1405 1.349 . S
C1406 C1418 1.349 . S
C1407 C1405 1.327 . S
C1407 C1423 1.429 . S
C1407 H1429 0.950 . S
C1408 H1404 0.949 . S
C1408 C1416 1.574 . S
C1408 C1424 1.368 . S
H1409 C1417 0.950 . S
H1410 C1415 0.950 . S
H1411 C1416 0.949 . S
H1412 C1418 0.950 . S
H1413 C1419 0.950 . S
H1414 C1420 0.949 . S
C1415 H1410 0.950 . S
C1415 C1417 1.327 . S
C1415 C1421 1.429 . S
C1416 C1408 1.574 . S
C1416 H1411 0.949 . S
C1416 C1422 1.368 . S
C1417 C1401 1.349 . S
C1417 H1409 0.950 . S
C1417 C1415 1.327 . S
C1418 C1406 1.349 . S
C1418 H1412 0.950 . S
C1418 C1419 1.327 . S
C1419 H1413 0.950 . S
C1419 C1418 1.327 . S
C1419 C1423 1.429 . S
C1420 C1403 1.574 . S
C1420 H1414 0.949 . S
C1420 C1424 1.368 . S
C1421 C1402 1.429 . S
C1421 C1415 1.429 . S
C1421 C1422 1.523 . S
C1422 C1403 1.368 . S
C1422 C1416 1.368 . S
C1422 C1421 1.523 . S
C1423 C1407 1.429 . S
C1423 C1419 1.429 . S
C1423 C1424 1.523 . S
C1424 C1408 1.368 . S
C1424 C1420 1.368 . S
C1424 C1423 1.523 . S
H1425 C1400 0.950 . S
H1426 C1402 0.950 . S
H1427 C1403 0.949 . S
H1428 C1405 0.950 . S
H1429 C1407 0.950 . S
C1430 C1431 1.349 . S
C1430 C1432 1.327 . S
C1430 H1455 0.950 . S
C1431 C1430 1.349 . S
C1431 C1447 1.349 . S
C1432 C1430 1.327 . S
C1432 C1451 1.429 . S
C1432 H1456 0.950 . S
C1433 C1450 1.574 . S
C1433 C1452 1.368 . S
C1433 H1457 0.949 . S
H1434 C1438 0.949 . S
C1435 C1436 1.349 . S
C1435 C1437 1.327 . S
C1435 H1458 0.950 . S
C1436 C1435 1.349 . S
C1436 C1448 1.349 . S
C1437 C1435 1.327 . S
C1437 C1453 1.429 . S
C1437 H1459 0.950 . S
C1438 H1434 0.949 . S
C1438 C1446 1.574 . S
C1438 C1454 1.368 . S
H1439 C1447 0.950 . S
H1440 C1445 0.950 . S
H1441 C1446 0.949 . S
H1442 C1448 0.950 . S
H1443 C1449 0.950 . S
H1444 C1450 0.949 . S
C1445 H1440 0.950 . S
C1445 C1447 1.327 . S
C1445 C1451 1.429 . S
C1446 C1438 1.574 . S
C1446 H1441 0.949 . S
C1446 C1452 1.368 . S
C1447 C1431 1.349 . S
C1447 H1439 0.950 . S
C1447 C1445 1.327 . S
C1448 C1436 1.349 . S
C1448 H1442 0.950 . S
C1448 C1449 1.327 . S
C1449 H1443 0.950 . S
C1449 C1448 1.327 . S
C1449 C1453 1.429 . S
C1450 C1433 1.574 . S
C1450 H1444 0.949 . S
C1450 C1454 1.368 . S
C1451 C1432 1.429 . S
C1451 C1445 1.429 . S
C1451 C1452 1.523 . S
C1452 C1433 1.368 . S
C1452 C1446 1.368 . S
C1452 C1451 1.523 . S
C1453 C1437 1.429 . S
C1453 C1449 1.429 . S
C1453 C1454 1.523 . S
C1454 C1438 1.368 . S
C1454 C1450 1.368 . S
C1454 C1453 1.523 . S
H1455 C1430 0.950 . S
H1456 C1432 0.950 . S
H1457 C1433 0.949 . S
H1458 C1435 0.950 . S
H1459 C1437 0.950 . S
C1460 C1461 1.349 . S
C1460 C1462 1.327 . S
C1460 H1485 0.950 . S
C1461 C1460 1.349 . S
C1461 C1477 1.349 . S
C1462 C1460 1.327 . S
C1462 C1481 1.429 . S
C1462 H1486 0.950 . S
C1463 C1480 1.574 . S
C1463 C1482 1.368 . S
C1463 H1487 0.949 . S
H1464 C1468 0.949 . S
C1465 C1466 1.349 . S
C1465 C1467 1.327 . S
C1465 H1488 0.950 . S
C1466 C1465 1.349 . S
C1466 C1478 1.349 . S
C1467 C1465 1.327 . S
C1467 C1483 1.429 . S
C1467 H1489 0.950 . S
C1468 H1464 0.949 . S
C1468 C1476 1.574 . S
C1468 C1484 1.368 . S
H1469 C1477 0.950 . S
H1470 C1475 0.950 . S
H1471 C1476 0.949 . S
H1472 C1478 0.950 . S
H1473 C1479 0.950 . S
H1474 C1480 0.949 . S
C1475 H1470 0.950 . S
C1475 C1477 1.327 . S
C1475 C1481 1.429 . S
C1476 C1468 1.574 . S
C1476 H1471 0.949 . S
C1476 C1482 1.368 . S
C1477 C1461 1.349 . S
C1477 H1469 0.950 . S
C1477 C1475 1.327 . S
C1478 C1466 1.349 . S
C1478 H1472 0.950 . S
C1478 C1479 1.327 . S
C1479 H1473 0.950 . S
C1479 C1478 1.327 . S
C1479 C1483 1.429 . S
C1480 C1463 1.574 . S
C1480 H1474 0.949 . S
C1480 C1484 1.368 . S
C1481 C1462 1.429 . S
C1481 C1475 1.429 . S
C1481 C1482 1.523 . S
C1482 C1463 1.368 . S
C1482 C1476 1.368 . S
C1482 C1481 1.523 . S
C1483 C1467 1.429 . S
C1483 C1479 1.429 . S
C1483 C1484 1.523 . S
C1484 C1468 1.368 . S
C1484 C1480 1.368 . S
C1484 C1483 1.523 . S
H1485 C1460 0.950 . S
H1486 C1462 0.950 . S
H1487 C1463 0.949 . S
H1488 C1465 0.950 . S
H1489 C1467 0.950 . S
C1490 C1491 1.349 . S
C1490 C1492 1.327 . S
C1490 H1515 0.950 . S
C1491 C1490 1.349 . S
C1491 C1507 1.349 . S
C1492 C1490 1.327 . S
C1492 C1511 1.429 . S
C1492 H1516 0.950 . S
C1493 C1510 1.574 . S
C1493 C1512 1.368 . S
C1493 H1517 0.949 . S
H1494 C1498 0.949 . S
C1495 C1496 1.349 . S
C1495 C1497 1.327 1_455 S
C1495 H1518 0.950 . S
C1496 C1495 1.349 . S
C1496 C1508 1.349 . S
C1497 C1495 1.327 1_655 S
C1497 C1513 1.429 . S
C1497 H1519 0.950 . S
C1498 H1494 0.949 . S
C1498 C1506 1.574 . S
C1498 C1514 1.368 . S
H1499 C1507 0.950 . S
H1500 C1505 0.950 . S
H1501 C1506 0.949 . S
H1502 C1508 0.950 . S
H1503 C1509 0.950 . S
H1504 C1510 0.949 . S
C1505 H1500 0.950 . S
C1505 C1507 1.327 . S
C1505 C1511 1.429 . S
C1506 C1498 1.574 . S
C1506 H1501 0.949 . S
C1506 C1512 1.368 . S
C1507 C1491 1.349 . S
C1507 H1499 0.950 . S
C1507 C1505 1.327 . S
C1508 C1496 1.349 . S
C1508 H1502 0.950 . S
C1508 C1509 1.327 1_455 S
C1509 H1503 0.950 . S
C1509 C1508 1.327 1_655 S
C1509 C1513 1.429 . S
C1510 C1493 1.574 . S
C1510 H1504 0.949 . S
C1510 C1514 1.368 . S
C1511 C1492 1.429 . S
C1511 C1505 1.429 . S
C1511 C1512 1.523 . S
C1512 C1493 1.368 . S
C1512 C1506 1.368 . S
C1512 C1511 1.523 . S
C1513 C1497 1.429 . S
C1513 C1509 1.429 . S
C1513 C1514 1.523 . S
C1514 C1498 1.368 . S
C1514 C1510 1.368 . S
C1514 C1513 1.523 . S
H1515 C1490 0.950 . S
H1516 C1492 0.950 . S
H1517 C1493 0.949 . S
H1518 C1495 0.950 . S
H1519 C1497 0.950 . S
C1520 C1521 1.349 . S
C1520 C1522 1.327 . S
C1520 H1545 0.950 . S
C1521 C1520 1.349 . S
C1521 C1537 1.349 . S
C1522 C1520 1.327 . S
C1522 C1541 1.429 . S
C1522 H1546 0.950 . S
C1523 C1540 1.574 . S
C1523 C1542 1.368 . S
C1523 H1547 0.949 . S
H1524 C1528 0.949 . S
C1525 C1526 1.349 . S
C1525 C1527 1.327 . S
C1525 H1548 0.950 . S
C1526 C1525 1.349 . S
C1526 C1538 1.349 . S
C1527 C1525 1.327 . S
C1527 C1543 1.429 . S
C1527 H1549 0.950 . S
C1528 H1524 0.949 . S
C1528 C1536 1.574 . S
C1528 C1544 1.368 . S
H1529 C1537 0.950 . S
H1530 C1535 0.950 . S
H1531 C1536 0.949 . S
H1532 C1538 0.950 . S
H1533 C1539 0.950 . S
H1534 C1540 0.949 . S
C1535 H1530 0.950 . S
C1535 C1537 1.327 . S
C1535 C1541 1.429 . S
C1536 C1528 1.574 . S
C1536 H1531 0.949 . S
C1536 C1542 1.368 . S
C1537 C1521 1.349 . S
C1537 H1529 0.950 . S
C1537 C1535 1.327 . S
C1538 C1526 1.349 . S
C1538 H1532 0.950 . S
C1538 C1539 1.327 . S
C1539 H1533 0.950 . S
C1539 C1538 1.327 . S
C1539 C1543 1.429 . S
C1540 C1523 1.574 . S
C1540 H1534 0.949 . S
C1540 C1544 1.368 . S
C1541 C1522 1.429 . S
C1541 C1535 1.429 . S
C1541 C1542 1.523 . S
C1542 C1523 1.368 . S
C1542 C1536 1.368 . S
C1542 C1541 1.523 . S
C1543 C1527 1.429 . S
C1543 C1539 1.429 . S
C1543 C1544 1.523 . S
C1544 C1528 1.368 . S
C1544 C1540 1.368 . S
C1544 C1543 1.523 . S
H1545 C1520 0.950 . S
H1546 C1522 0.950 . S
H1547 C1523 0.949 . S
H1548 C1525 0.950 . S
H1549 C1527 0.950 . S
C1550 C1551 1.349 . S
C1550 C1552 1.327 . S
C1550 H1575 0.950 . S
C1551 C1550 1.349 . S
C1551 C1567 1.349 . S
C1552 C1550 1.327 . S
C1552 C1571 1.429 . S
C1552 H1576 0.950 . S
C1553 C1570 1.574 . S
C1553 C1572 1.368 . S
C1553 H1577 0.949 . S
H1554 C1558 0.949 . S
C1555 C1556 1.349 1_545 S
C1555 C1557 1.327 1_445 S
C1555 H1578 0.950 . S
C1556 C1555 1.349 1_565 S
C1556 C1568 1.349 . S
C1557 C1555 1.327 1_665 S
C1557 C1573 1.429 . S
C1557 H1579 0.950 . S
C1558 H1554 0.949 . S
C1558 C1566 1.574 . S
C1558 C1574 1.368 . S
H1559 C1567 0.950 . S
H1560 C1565 0.950 . S
H1561 C1566 0.949 . S
H1562 C1568 0.950 . S
H1563 C1569 0.950 . S
H1564 C1570 0.949 . S
C1565 H1560 0.950 . S
C1565 C1567 1.327 . S
C1565 C1571 1.429 . S
C1566 C1558 1.574 . S
C1566 H1561 0.949 . S
C1566 C1572 1.368 . S
C1567 C1551 1.349 . S
C1567 H1559 0.950 . S
C1567 C1565 1.327 . S
C1568 C1556 1.349 . S
C1568 H1562 0.950 . S
C1568 C1569 1.327 1_455 S
C1569 H1563 0.950 . S
C1569 C1568 1.327 1_655 S
C1569 C1573 1.429 . S
C1570 C1553 1.574 . S
C1570 H1564 0.949 . S
C1570 C1574 1.368 . S
C1571 C1552 1.429 . S
C1571 C1565 1.429 . S
C1571 C1572 1.523 . S
C1572 C1553 1.368 . S
C1572 C1566 1.368 . S
C1572 C1571 1.523 . S
C1573 C1557 1.429 . S
C1573 C1569 1.429 . S
C1573 C1574 1.523 . S
C1574 C1558 1.368 . S
C1574 C1570 1.368 . S
C1574 C1573 1.523 . S
H1575 C1550 0.950 . S
H1576 C1552 0.950 . S
H1577 C1553 0.949 . S
H1578 C1555 0.950 . S
H1579 C1557 0.950 . S
C1580 C1581 1.349 . S
C1580 C1582 1.327 . S
C1580 H1605 0.950 . S
C1581 C1580 1.349 . S
C1581 C1597 1.349 . S
C1582 C1580 1.327 . S
C1582 C1601 1.429 . S
C1582 H1606 0.950 . S
C1583 C1600 1.574 . S
C1583 C1602 1.368 . S
C1583 H1607 0.949 . S
H1584 C1588 0.949 . S
C1585 C1586 1.349 . S
C1585 C1587 1.327 . S
C1585 H1608 0.950 . S
C1586 C1585 1.349 . S
C1586 C1598 1.349 . S
C1587 C1585 1.327 . S
C1587 C1603 1.429 . S
C1587 H1609 0.950 . S
C1588 H1584 0.949 . S
C1588 C1596 1.574 . S
C1588 C1604 1.368 . S
H1589 C1597 0.950 . S
H1590 C1595 0.950 . S
H1591 C1596 0.949 . S
H1592 C1598 0.950 . S
H1593 C1599 0.950 . S
H1594 C1600 0.949 . S
C1595 H1590 0.950 . S
C1595 C1597 1.327 . S
C1595 C1601 1.429 . S
C1596 C1588 1.574 . S
C1596 H1591 0.949 . S
C1596 C1602 1.368 . S
C1597 C1581 1.349 . S
C1597 H1589 0.950 . S
C1597 C1595 1.327 . S
C1598 C1586 1.349 . S
C1598 H1592 0.950 . S
C1598 C1599 1.327 . S
C1599 H1593 0.950 . S
C1599 C1598 1.327 . S
C1599 C1603 1.429 . S
C1600 C1583 1.574 . S
C1600 H1594 0.949 . S
C1600 C1604 1.368 . S
C1601 C1582 1.429 . S
C1601 C1595 1.429 . S
C1601 C1602 1.523 . S
C1602 C1583 1.368 . S
C1602 C1596 1.368 . S
C1602 C1601 1.523 . S
C1603 C1587 1.429 . S
C1603 C1599 1.429 . S
C1603 C1604 1.523 . S
C1604 C1588 1.368 . S
C1604 C1600 1.368 . S
C1604 C1603 1.523 . S
H1605 C1580 0.950 . S
H1606 C1582 0.950 . S
H1607 C1583 0.949 . S
H1608 C1585 0.950 . S
H1609 C1587 0.950 . S
C1610 C1611 1.349 1_565 S
C1610 C1612 1.327 1_565 S
C1610 H1635 0.950 . S
C1611 C1610 1.349 1_545 S
C1611 C1627 1.349 . S
C1612 C1610 1.327 1_545 S
C1612 C1631 1.429 . S
C1612 H1636 0.950 . S
C1613 C1630 1.574 . S
C1613 C1632 1.368 . S
C1613 H1637 0.949 . S
H1614 C1618 0.949 . S
C1615 C1616 1.349 . S
C1615 C1617 1.327 . S
C1615 H1638 0.950 . S
C1616 C1615 1.349 . S
C1616 C1628 1.349 . S
C1617 C1615 1.327 . S
C1617 C1633 1.429 . S
C1617 H1639 0.950 . S
C1618 H1614 0.949 . S
C1618 C1626 1.574 . S
C1618 C1634 1.368 . S
H1619 C1627 0.950 . S
H1620 C1625 0.950 . S
H1621 C1626 0.949 . S
H1622 C1628 0.950 . S
H1623 C1629 0.950 . S
H1624 C1630 0.949 . S
C1625 H1620 0.950 . S
C1625 C1627 1.327 . S
C1625 C1631 1.429 . S
C1626 C1618 1.574 . S
C1626 H1621 0.949 . S
C1626 C1632 1.368 . S
C1627 C1611 1.349 . S
C1627 H1619 0.950 . S
C1627 C1625 1.327 . S
C1628 C1616 1.349 . S
C1628 H1622 0.950 . S
C1628 C1629 1.327 . S
C1629 H1623 0.950 . S
C1629 C1628 1.327 . S
C1629 C1633 1.429 . S
C1630 C1613 1.574 . S
C1630 H1624 0.949 . S
C1630 C1634 1.368 . S
C1631 C1612 1.429 . S
C1631 C1625 1.429 . S
C1631 C1632 1.523 . S
C1632 C1613 1.368 . S
C1632 C1626 1.368 . S
C1632 C1631 1.523 . S
C1633 C1617 1.429 . S
C1633 C1629 1.429 . S
C1633 C1634 1.523 . S
C1634 C1618 1.368 . S
C1634 C1630 1.368 . S
C1634 C1633 1.523 . S
H1635 C1610 0.950 . S
H1636 C1612 0.950 . S
H1637 C1613 0.949 . S
H1638 C1615 0.950 . S
H1639 C1617 0.950 . S
C1640 C1641 1.349 . S
C1640 C1642 1.327 . S
C1640 H1665 0.950 . S
C1641 C1640 1.349 . S
C1641 C1657 1.349 . S
C1642 C1640 1.327 . S
C1642 C1661 1.429 . S
C1642 H1666 0.950 . S
C1643 C1660 1.574 . S
C1643 C1662 1.368 . S
C1643 H1667 0.949 . S
H1644 C1648 0.949 . S
C1645 C1646 1.349 . S
C1645 C1647 1.327 . S
C1645 H1668 0.950 . S
C1646 C1645 1.349 . S
C1646 C1658 1.349 . S
C1647 C1645 1.327 . S
C1647 C1663 1.429 . S
C1647 H1669 0.950 . S
C1648 H1644 0.949 . S
C1648 C1656 1.574 . S
C1648 C1664 1.368 . S
H1649 C1657 0.950 . S
H1650 C1655 0.950 . S
H1651 C1656 0.949 . S
H1652 C1658 0.950 . S
H1653 C1659 0.950 . S
H1654 C1660 0.949 . S
C1655 H1650 0.950 . S
C1655 C1657 1.327 . S
C1655 C1661 1.429 . S
C1656 C1648 1.574 . S
C1656 H1651 0.949 . S
C1656 C1662 1.368 . S
C1657 C1641 1.349 . S
C1657 H1649 0.950 . S
C1657 C1655 1.327 . S
C1658 C1646 1.349 . S
C1658 H1652 0.950 . S
C1658 C1659 1.327 . S
C1659 H1653 0.950 . S
C1659 C1658 1.327 . S
C1659 C1663 1.429 . S
C1660 C1643 1.574 . S
C1660 H1654 0.949 . S
C1660 C1664 1.368 . S
C1661 C1642 1.429 . S
C1661 C1655 1.429 . S
C1661 C1662 1.523 . S
C1662 C1643 1.368 . S
C1662 C1656 1.368 . S
C1662 C1661 1.523 . S
C1663 C1647 1.429 . S
C1663 C1659 1.429 . S
C1663 C1664 1.523 . S
C1664 C1648 1.368 . S
C1664 C1660 1.368 . S
C1664 C1663 1.523 . S
H1665 C1640 0.950 . S
H1666 C1642 0.950 . S
H1667 C1643 0.949 . S
H1668 C1645 0.950 . S
H1669 C1647 0.950 . S
C1670 C1671 1.349 . S
C1670 C1672 1.327 1_655 S
C1670 H1695 0.950 . S
C1671 C1670 1.349 . S
C1671 C1687 1.349 1_545 S
C1672 C1670 1.327 1_455 S
C1672 C1691 1.429 . S
C1672 H1696 0.950 . S
C1673 C1690 1.574 . S
C1673 C1692 1.368 . S
C1673 H1697 0.949 . S
H1674 C1678 0.949 . S
C1675 C1676 1.349 . S
C1675 C1677 1.327 . S
C1675 H1698 0.950 . S
C1676 C1675 1.349 . S
C1676 C1688 1.349 . S
C1677 C1675 1.327 . S
C1677 C1693 1.429 . S
C1677 H1699 0.950 . S
C1678 H1674 0.949 . S
C1678 C1686 1.574 . S
C1678 C1694 1.368 . S
H1679 C1687 0.950 . S
H1680 C1685 0.950 1_565 S
H1681 C1686 0.949 . S
H1682 C1688 0.950 . S
H1683 C1689 0.950 . S
H1684 C1690 0.949 . S
C1685 H1680 0.950 1_545 S
C1685 C1687 1.327 1_445 S
C1685 C1691 1.429 . S
C1686 C1678 1.574 . S
C1686 H1681 0.949 . S
C1686 C1692 1.368 . S
C1687 C1671 1.349 1_565 S
C1687 H1679 0.950 . S
C1687 C1685 1.327 1_665 S
C1688 C1676 1.349 . S
C1688 H1682 0.950 . S
C1688 C1689 1.327 . S
C1689 H1683 0.950 . S
C1689 C1688 1.327 . S
C1689 C1693 1.429 . S
C1690 C1673 1.574 . S
C1690 H1684 0.949 . S
C1690 C1694 1.368 . S
C1691 C1672 1.429 . S
C1691 C1685 1.429 . S
C1691 C1692 1.523 . S
C1692 C1673 1.368 . S
C1692 C1686 1.368 . S
C1692 C1691 1.523 . S
C1693 C1677 1.429 . S
C1693 C1689 1.429 . S
C1693 C1694 1.523 . S
C1694 C1678 1.368 . S
C1694 C1690 1.368 . S
C1694 C1693 1.523 . S
H1695 C1670 0.950 . S
H1696 C1672 0.950 . S
H1697 C1673 0.949 . S
H1698 C1675 0.950 . S
H1699 C1677 0.950 . S
C1700 C1701 1.349 . S
C1700 C1702 1.327 . S
C1700 H1725 0.950 . S
C1701 C1700 1.349 . S
C1701 C1717 1.349 . S
C1702 C1700 1.327 . S
C1702 C1721 1.429 . S
C1702 H1726 0.950 . S
C1703 C1720 1.574 . S
C1703 C1722 1.368 . S
C1703 H1727 0.949 . S
H1704 C1708 0.949 . S
C1705 C1706 1.349 . S
C1705 C1707 1.327 . S
C1705 H1728 0.950 . S
C1706 C1705 1.349 . S
C1706 C1718 1.349 . S
C1707 C1705 1.327 . S
C1707 C1723 1.429 . S
C1707 H1729 0.950 . S
C1708 H1704 0.949 . S
C1708 C1716 1.574 . S
C1708 C1724 1.368 . S
H1709 C1717 0.950 . S
H1710 C1715 0.950 . S
H1711 C1716 0.949 . S
H1712 C1718 0.950 . S
H1713 C1719 0.950 . S
H1714 C1720 0.949 . S
C1715 H1710 0.950 . S
C1715 C1717 1.327 . S
C1715 C1721 1.429 . S
C1716 C1708 1.574 . S
C1716 H1711 0.949 . S
C1716 C1722 1.368 . S
C1717 C1701 1.349 . S
C1717 H1709 0.950 . S
C1717 C1715 1.327 . S
C1718 C1706 1.349 . S
C1718 H1712 0.950 . S
C1718 C1719 1.327 . S
C1719 H1713 0.950 . S
C1719 C1718 1.327 . S
C1719 C1723 1.429 . S
C1720 C1703 1.574 . S
C1720 H1714 0.949 . S
C1720 C1724 1.368 . S
C1721 C1702 1.429 . S
C1721 C1715 1.429 . S
C1721 C1722 1.523 . S
C1722 C1703 1.368 . S
C1722 C1716 1.368 . S
C1722 C1721 1.523 . S
C1723 C1707 1.429 . S
C1723 C1719 1.429 . S
C1723 C1724 1.523 . S
C1724 C1708 1.368 . S
C1724 C1720 1.368 . S
C1724 C1723 1.523 . S
H1725 C1700 0.950 . S
H1726 C1702 0.950 . S
H1727 C1703 0.949 . S
H1728 C1705 0.950 . S
H1729 C1707 0.950 . S
C1730 C1731 1.349 . S
C1730 C1732 1.327 . S
C1730 H1755 0.950 . S
C1731 C1730 1.349 . S
C1731 C1747 1.349 . S
C1732 C1730 1.327 . S
C1732 C1751 1.429 . S
C1732 H1756 0.950 . S
C1733 C1750 1.574 . S
C1733 C1752 1.368 . S
C1733 H1757 0.949 . S
H1734 C1738 0.949 . S
C1735 C1736 1.349 . S
C1735 C1737 1.327 . S
C1735 H1758 0.950 1_565 S
C1736 C1735 1.349 . S
C1736 C1748 1.349 . S
C1737 C1735 1.327 . S
C1737 C1753 1.429 . S
C1737 H1759 0.950 . S
C1738 H1734 0.949 . S
C1738 C1746 1.574 . S
C1738 C1754 1.368 . S
H1739 C1747 0.950 . S
H1740 C1745 0.950 . S
H1741 C1746 0.949 . S
H1742 C1748 0.950 . S
H1743 C1749 0.950 . S
H1744 C1750 0.949 . S
C1745 H1740 0.950 . S
C1745 C1747 1.327 . S
C1745 C1751 1.429 . S
C1746 C1738 1.574 . S
C1746 H1741 0.949 . S
C1746 C1752 1.368 . S
C1747 C1731 1.349 . S
C1747 H1739 0.950 . S
C1747 C1745 1.327 . S
C1748 C1736 1.349 . S
C1748 H1742 0.950 . S
C1748 C1749 1.327 . S
C1749 H1743 0.950 . S
C1749 C1748 1.327 . S
C1749 C1753 1.429 . S
C1750 C1733 1.574 . S
C1750 H1744 0.949 . S
C1750 C1754 1.368 . S
C1751 C1732 1.429 . S
C1751 C1745 1.429 . S
C1751 C1752 1.523 . S
C1752 C1733 1.368 . S
C1752 C1746 1.368 . S
C1752 C1751 1.523 . S
C1753 C1737 1.429 . S
C1753 C1749 1.429 . S
C1753 C1754 1.523 . S
C1754 C1738 1.368 . S
C1754 C1750 1.368 . S
C1754 C1753 1.523 . S
H1755 C1730 0.950 . S
H1756 C1732 0.950 . S
H1757 C1733 0.949 . S
H1758 C1735 0.950 1_545 S
H1759 C1737 0.950 . S
C321 C2 1.014 . S
C326 C241 1.014 . S
C351 C101 1.014 . S
C356 C22 1.014 . S
C381 C42 1.014 . S
C386 C281 1.014 . S
C411 C62 1.014 . S
C416 C141 1.014 . S
C441 C81 1.014 . S
C446 C162 1.014 . S
C471 C202 1.014 . S
C476 C121 1.014 . S
C501 C261 1.014 . S
C506 C182 1.014 . S
C531 C222 1.014 . S
C536 C301 1.014 . S
C561 C189 1.616 . S
C566 C1 1.593 . S
C591 C21 1.593 . S
C596 C209 1.616 . S
C621 C41 1.593 . S
C626 C229 1.616 . S
C651 C169 1.616 . S
C656 C61 1.593 . S
C681 C268 1.616 . S
C686 C82 1.593 . S
C711 C288 1.616 . S
C716 C102 1.593 . S
C741 C122 1.593 . S
C746 C308 1.616 . S
C771 C248 1.616 . S
C776 C142 1.593 . S
C801 C161 1.593 . S
C806 C29 1.616 . S
C831 C181 1.593 . S
C836 C49 1.616 . S
C861 C201 1.593 . S
C866 C69 1.616 . S
C891 C9 1.616 . S
C896 C221 1.593 . S
C921 C108 1.616 . S
C926 C242 1.593 . S
C951 C262 1.593 . S
C956 C128 1.616 . S
C981 C148 1.616 . S
C986 C282 1.593 . S
C1011 C302 1.593 . S
C1016 C88 1.616 . S
C1041 C18 2.699 . S
C1046 C218 2.699 . S
C1071 C38 2.699 . S
C1076 C238 2.699 . S
C1101 C178 2.699 . S
C1106 C58 2.699 . S
C1131 C78 2.699 . S
C1136 C198 2.699 . S
C1161 C99 2.699 . S
C1166 C299 2.699 . S
C1191 C119 2.699 . S
C1196 C319 2.699 . S
C1221 C259 2.699 . S
C1226 C139 2.699 . S
C1251 C159 2.699 . S
C1256 C279 2.699 . S
C1281 C8 1.290 . S
C1286 C158 1.431 . S
C1311 C258 1.431 . S
C1316 C28 1.291 . S
C1341 C48 1.290 . S
C1346 C118 1.431 . S
C1371 C68 1.291 . S
C1376 C298 1.431 . S
C1401 C89 1.290 . S
C1406 C79 1.431 . S
C1431 C179 1.431 . S
C1436 C109 1.291 . S
C1461 C129 1.290 . S
C1466 C39 1.431 . S
C1491 C219 1.431 . S
C1496 C149 1.291 . S
C1521 C168 1.290 . S
C1526 C318 1.431 . S
C1551 C98 1.431 . S
C1556 C188 1.291 1_565 S
C1581 C278 1.431 . S
C1586 C208 1.290 . S
C1611 C228 1.291 1_545 S
C1616 C138 1.431 . S
C1641 C249 1.290 . S
C1646 C239 1.431 . S
C1671 C269 1.291 1_545 S
C1676 C19 1.431 . S
C1701 C199 1.431 . S
C1706 C289 1.290 . S
C1731 C59 1.431 . S
C1736 C309 1.291 1_565 S
