# Generated by pormake.
# Topology lcs-a, (4)-cn, num edge types: 1
# Building blocks:
#     Node 0, Type 0, BuildingBlock: QUQFOY_clean_sbu_3, # of connection points: 4
#     Node 1, Type 0, BuildingBlock: QUQFOY_clean_sbu_3, # of connection points: 4
#     Node 2, Type 0, BuildingBlock: QUQFOY_clean_sbu_3, # of connection points: 4
#     Node 3, Type 0, BuildingBlock: QUQFOY_clean_sbu_3, # of connection points: 4
#     Node 4, Type 0, BuildingBlock: QUQFOY_clean_sbu_3, # of connection points: 4
#     Node 5, Type 0, BuildingBlock: QUQFOY_clean_sbu_3, # of connection points: 4
#     Node 6, Type 0, BuildingBlock: QUQFOY_clean_sbu_3, # of connection points: 4
#     Node 7, Type 0, BuildingBlock: QUQFOY_clean_sbu_3, # of connection points: 4
#     Node 8, Type 0, BuildingBlock: QUQFOY_clean_sbu_3, # of connection points: 4
#     Node 9, Type 0, BuildingBlock: QUQFOY_clean_sbu_3, # of connection points: 4
#     Node 10, Type 0, BuildingBlock: QUQFOY_clean_sbu_3, # of connection points: 4
#     Node 11, Type 0, BuildingBlock: QUQFOY_clean_sbu_3, # of connection points: 4
#     Node 12, Type 0, BuildingBlock: QUQFOY_clean_sbu_3, # of connection points: 4
#     Node 13, Type 0, BuildingBlock: QUQFOY_clean_sbu_3, # of connection points: 4
#     Node 14, Type 0, BuildingBlock: QUQFOY_clean_sbu_3, # of connection points: 4
#     Node 15, Type 0, BuildingBlock: QUQFOY_clean_sbu_3, # of connection points: 4
#     Node 16, Type 0, BuildingBlock: QUQFOY_clean_sbu_3, # of connection points: 4
#     Node 17, Type 0, BuildingBlock: QUQFOY_clean_sbu_3, # of connection points: 4
#     Node 18, Type 0, BuildingBlock: QUQFOY_clean_sbu_3, # of connection points: 4
#     Node 19, Type 0, BuildingBlock: QUQFOY_clean_sbu_3, # of connection points: 4
#     Node 20, Type 0, BuildingBlock: QUQFOY_clean_sbu_3, # of connection points: 4
#     Node 21, Type 0, BuildingBlock: QUQFOY_clean_sbu_3, # of connection points: 4
#     Node 22, Type 0, BuildingBlock: QUQFOY_clean_sbu_3, # of connection points: 4
#     Node 23, Type 0, BuildingBlock: QUQFOY_clean_sbu_3, # of connection points: 4
#     Node 24, Type 0, BuildingBlock: QUQFOY_clean_sbu_3, # of connection points: 4
#     Node 25, Type 0, BuildingBlock: QUQFOY_clean_sbu_3, # of connection points: 4
#     Node 26, Type 0, BuildingBlock: QUQFOY_clean_sbu_3, # of connection points: 4
#     Node 27, Type 0, BuildingBlock: QUQFOY_clean_sbu_3, # of connection points: 4
#     Node 28, Type 0, BuildingBlock: QUQFOY_clean_sbu_3, # of connection points: 4
#     Node 29, Type 0, BuildingBlock: QUQFOY_clean_sbu_3, # of connection points: 4
#     Node 30, Type 0, BuildingBlock: QUQFOY_clean_sbu_3, # of connection points: 4
#     Node 31, Type 0, BuildingBlock: QUQFOY_clean_sbu_3, # of connection points: 4
#     Node 32, Type 0, BuildingBlock: QUQFOY_clean_sbu_3, # of connection points: 4
#     Node 33, Type 0, BuildingBlock: QUQFOY_clean_sbu_3, # of connection points: 4
#     Node 34, Type 0, BuildingBlock: QUQFOY_clean_sbu_3, # of connection points: 4
#     Node 35, Type 0, BuildingBlock: QUQFOY_clean_sbu_3, # of connection points: 4
#     Node 36, Type 0, BuildingBlock: QUQFOY_clean_sbu_3, # of connection points: 4
#     Node 37, Type 0, BuildingBlock: QUQFOY_clean_sbu_3, # of connection points: 4
#     Node 38, Type 0, BuildingBlock: QUQFOY_clean_sbu_3, # of connection points: 4
#     Node 39, Type 0, BuildingBlock: QUQFOY_clean_sbu_3, # of connection points: 4
#     Node 40, Type 0, BuildingBlock: QUQFOY_clean_sbu_3, # of connection points: 4
#     Node 41, Type 0, BuildingBlock: QUQFOY_clean_sbu_3, # of connection points: 4
#     Node 42, Type 0, BuildingBlock: QUQFOY_clean_sbu_3, # of connection points: 4
#     Node 43, Type 0, BuildingBlock: QUQFOY_clean_sbu_3, # of connection points: 4
#     Node 44, Type 0, BuildingBlock: QUQFOY_clean_sbu_3, # of connection points: 4
#     Node 45, Type 0, BuildingBlock: QUQFOY_clean_sbu_3, # of connection points: 4
#     Node 46, Type 0, BuildingBlock: QUQFOY_clean_sbu_3, # of connection points: 4
#     Node 47, Type 0, BuildingBlock: QUQFOY_clean_sbu_3, # of connection points: 4
#     Node 48, Type 0, BuildingBlock: QUQFOY_clean_sbu_3, # of connection points: 4
#     Node 49, Type 0, BuildingBlock: QUQFOY_clean_sbu_3, # of connection points: 4
#     Node 50, Type 0, BuildingBlock: QUQFOY_clean_sbu_3, # of connection points: 4
#     Node 51, Type 0, BuildingBlock: QUQFOY_clean_sbu_3, # of connection points: 4
#     Node 52, Type 0, BuildingBlock: QUQFOY_clean_sbu_3, # of connection points: 4
#     Node 53, Type 0, BuildingBlock: QUQFOY_clean_sbu_3, # of connection points: 4
#     Node 54, Type 0, BuildingBlock: QUQFOY_clean_sbu_3, # of connection points: 4
#     Node 55, Type 0, BuildingBlock: QUQFOY_clean_sbu_3, # of connection points: 4
#     Node 56, Type 0, BuildingBlock: QUQFOY_clean_sbu_3, # of connection points: 4
#     Node 57, Type 0, BuildingBlock: QUQFOY_clean_sbu_3, # of connection points: 4
#     Node 58, Type 0, BuildingBlock: QUQFOY_clean_sbu_3, # of connection points: 4
#     Node 59, Type 0, BuildingBlock: QUQFOY_clean_sbu_3, # of connection points: 4
#     Node 60, Type 0, BuildingBlock: QUQFOY_clean_sbu_3, # of connection points: 4
#     Node 61, Type 0, BuildingBlock: QUQFOY_clean_sbu_3, # of connection points: 4
#     Node 62, Type 0, BuildingBlock: QUQFOY_clean_sbu_3, # of connection points: 4
#     Node 63, Type 0, BuildingBlock: QUQFOY_clean_sbu_3, # of connection points: 4
#     Node 64, Type 0, BuildingBlock: QUQFOY_clean_sbu_3, # of connection points: 4
#     Node 65, Type 0, BuildingBlock: QUQFOY_clean_sbu_3, # of connection points: 4
#     Node 66, Type 0, BuildingBlock: QUQFOY_clean_sbu_3, # of connection points: 4
#     Node 67, Type 0, BuildingBlock: QUQFOY_clean_sbu_3, # of connection points: 4
#     Node 68, Type 0, BuildingBlock: QUQFOY_clean_sbu_3, # of connection points: 4
#     Node 69, Type 0, BuildingBlock: QUQFOY_clean_sbu_3, # of connection points: 4
#     Node 70, Type 0, BuildingBlock: QUQFOY_clean_sbu_3, # of connection points: 4
#     Node 71, Type 0, BuildingBlock: QUQFOY_clean_sbu_3, # of connection points: 4
#     Node 72, Type 0, BuildingBlock: QUQFOY_clean_sbu_3, # of connection points: 4
#     Node 73, Type 0, BuildingBlock: QUQFOY_clean_sbu_3, # of connection points: 4
#     Node 74, Type 0, BuildingBlock: QUQFOY_clean_sbu_3, # of connection points: 4
#     Node 75, Type 0, BuildingBlock: QUQFOY_clean_sbu_3, # of connection points: 4
#     Node 76, Type 0, BuildingBlock: QUQFOY_clean_sbu_3, # of connection points: 4
#     Node 77, Type 0, BuildingBlock: QUQFOY_clean_sbu_3, # of connection points: 4
#     Node 78, Type 0, BuildingBlock: QUQFOY_clean_sbu_3, # of connection points: 4
#     Node 79, Type 0, BuildingBlock: QUQFOY_clean_sbu_3, # of connection points: 4
#     Node 80, Type 0, BuildingBlock: QUQFOY_clean_sbu_3, # of connection points: 4
#     Node 81, Type 0, BuildingBlock: QUQFOY_clean_sbu_3, # of connection points: 4
#     Node 82, Type 0, BuildingBlock: QUQFOY_clean_sbu_3, # of connection points: 4
#     Node 83, Type 0, BuildingBlock: QUQFOY_clean_sbu_3, # of connection points: 4
#     Node 84, Type 0, BuildingBlock: QUQFOY_clean_sbu_3, # of connection points: 4
#     Node 85, Type 0, BuildingBlock: QUQFOY_clean_sbu_3, # of connection points: 4
#     Node 86, Type 0, BuildingBlock: QUQFOY_clean_sbu_3, # of connection points: 4
#     Node 87, Type 0, BuildingBlock: QUQFOY_clean_sbu_3, # of connection points: 4
#     Node 88, Type 0, BuildingBlock: QUQFOY_clean_sbu_3, # of connection points: 4
#     Node 89, Type 0, BuildingBlock: QUQFOY_clean_sbu_3, # of connection points: 4
#     Node 90, Type 0, BuildingBlock: QUQFOY_clean_sbu_3, # of connection points: 4
#     Node 91, Type 0, BuildingBlock: QUQFOY_clean_sbu_3, # of connection points: 4
#     Node 92, Type 0, BuildingBlock: QUQFOY_clean_sbu_3, # of connection points: 4
#     Node 93, Type 0, BuildingBlock: QUQFOY_clean_sbu_3, # of connection points: 4
#     Node 94, Type 0, BuildingBlock: QUQFOY_clean_sbu_3, # of connection points: 4
#     Node 95, Type 0, BuildingBlock: QUQFOY_clean_sbu_3, # of connection points: 4
#     Edge 96, Type (0, 0), BuildingBlock: EZIPEK_clean_linker_0, # of connection points: 2
#     Edge 97, Type (0, 0), BuildingBlock: EZIPEK_clean_linker_0, # of connection points: 2
#     Edge 98, Type (0, 0), BuildingBlock: EZIPEK_clean_linker_0, # of connection points: 2
#     Edge 99, Type (0, 0), BuildingBlock: EZIPEK_clean_linker_0, # of connection points: 2
#     Edge 100, Type (0, 0), BuildingBlock: EZIPEK_clean_linker_0, # of connection points: 2
#     Edge 101, Type (0, 0), BuildingBlock: EZIPEK_clean_linker_0, # of connection points: 2
#     Edge 102, Type (0, 0), BuildingBlock: EZIPEK_clean_linker_0, # of connection points: 2
#     Edge 103, Type (0, 0), BuildingBlock: EZIPEK_clean_linker_0, # of connection points: 2
#     Edge 104, Type (0, 0), BuildingBlock: EZIPEK_clean_linker_0, # of connection points: 2
#     Edge 105, Type (0, 0), BuildingBlock: EZIPEK_clean_linker_0, # of connection points: 2
#     Edge 106, Type (0, 0), BuildingBlock: EZIPEK_clean_linker_0, # of connection points: 2
#     Edge 107, Type (0, 0), BuildingBlock: EZIPEK_clean_linker_0, # of connection points: 2
#     Edge 108, Type (0, 0), BuildingBlock: EZIPEK_clean_linker_0, # of connection points: 2
#     Edge 109, Type (0, 0), BuildingBlock: EZIPEK_clean_linker_0, # of connection points: 2
#     Edge 110, Type (0, 0), BuildingBlock: EZIPEK_clean_linker_0, # of connection points: 2
#     Edge 111, Type (0, 0), BuildingBlock: EZIPEK_clean_linker_0, # of connection points: 2
#     Edge 112, Type (0, 0), BuildingBlock: EZIPEK_clean_linker_0, # of connection points: 2
#     Edge 113, Type (0, 0), BuildingBlock: EZIPEK_clean_linker_0, # of connection points: 2
#     Edge 114, Type (0, 0), BuildingBlock: EZIPEK_clean_linker_0, # of connection points: 2
#     Edge 115, Type (0, 0), BuildingBlock: EZIPEK_clean_linker_0, # of connection points: 2
#     Edge 116, Type (0, 0), BuildingBlock: EZIPEK_clean_linker_0, # of connection points: 2
#     Edge 117, Type (0, 0), BuildingBlock: EZIPEK_clean_linker_0, # of connection points: 2
#     Edge 118, Type (0, 0), BuildingBlock: EZIPEK_clean_linker_0, # of connection points: 2
#     Edge 119, Type (0, 0), BuildingBlock: EZIPEK_clean_linker_0, # of connection points: 2
#     Edge 120, Type (0, 0), BuildingBlock: EZIPEK_clean_linker_0, # of connection points: 2
#     Edge 121, Type (0, 0), BuildingBlock: EZIPEK_clean_linker_0, # of connection points: 2
#     Edge 122, Type (0, 0), BuildingBlock: EZIPEK_clean_linker_0, # of connection points: 2
#     Edge 123, Type (0, 0), BuildingBlock: EZIPEK_clean_linker_0, # of connection points: 2
#     Edge 124, Type (0, 0), BuildingBlock: EZIPEK_clean_linker_0, # of connection points: 2
#     Edge 125, Type (0, 0), BuildingBlock: EZIPEK_clean_linker_0, # of connection points: 2
#     Edge 126, Type (0, 0), BuildingBlock: EZIPEK_clean_linker_0, # of connection points: 2
#     Edge 127, Type (0, 0), BuildingBlock: EZIPEK_clean_linker_0, # of connection points: 2
#     Edge 128, Type (0, 0), BuildingBlock: EZIPEK_clean_linker_0, # of connection points: 2
#     Edge 129, Type (0, 0), BuildingBlock: EZIPEK_clean_linker_0, # of connection points: 2
#     Edge 130, Type (0, 0), BuildingBlock: EZIPEK_clean_linker_0, # of connection points: 2
#     Edge 131, Type (0, 0), BuildingBlock: EZIPEK_clean_linker_0, # of connection points: 2
#     Edge 132, Type (0, 0), BuildingBlock: EZIPEK_clean_linker_0, # of connection points: 2
#     Edge 133, Type (0, 0), BuildingBlock: EZIPEK_clean_linker_0, # of connection points: 2
#     Edge 134, Type (0, 0), BuildingBlock: EZIPEK_clean_linker_0, # of connection points: 2
#     Edge 135, Type (0, 0), BuildingBlock: EZIPEK_clean_linker_0, # of connection points: 2
#     Edge 136, Type (0, 0), BuildingBlock: EZIPEK_clean_linker_0, # of connection points: 2
#     Edge 137, Type (0, 0), BuildingBlock: EZIPEK_clean_linker_0, # of connection points: 2
#     Edge 138, Type (0, 0), BuildingBlock: EZIPEK_clean_linker_0, # of connection points: 2
#     Edge 139, Type (0, 0), BuildingBlock: EZIPEK_clean_linker_0, # of connection points: 2
#     Edge 140, Type (0, 0), BuildingBlock: EZIPEK_clean_linker_0, # of connection points: 2
#     Edge 141, Type (0, 0), BuildingBlock: EZIPEK_clean_linker_0, # of connection points: 2
#     Edge 142, Type (0, 0), BuildingBlock: EZIPEK_clean_linker_0, # of connection points: 2
#     Edge 143, Type (0, 0), BuildingBlock: EZIPEK_clean_linker_0, # of connection points: 2
#     Edge 144, Type (0, 0), BuildingBlock: EZIPEK_clean_linker_0, # of connection points: 2
#     Edge 145, Type (0, 0), BuildingBlock: EZIPEK_clean_linker_0, # of connection points: 2
#     Edge 146, Type (0, 0), BuildingBlock: EZIPEK_clean_linker_0, # of connection points: 2
#     Edge 147, Type (0, 0), BuildingBlock: EZIPEK_clean_linker_0, # of connection points: 2
#     Edge 148, Type (0, 0), BuildingBlock: EZIPEK_clean_linker_0, # of connection points: 2
#     Edge 149, Type (0, 0), BuildingBlock: EZIPEK_clean_linker_0, # of connection points: 2
#     Edge 150, Type (0, 0), BuildingBlock: EZIPEK_clean_linker_0, # of connection points: 2
#     Edge 151, Type (0, 0), BuildingBlock: EZIPEK_clean_linker_0, # of connection points: 2
#     Edge 152, Type (0, 0), BuildingBlock: EZIPEK_clean_linker_0, # of connection points: 2
#     Edge 153, Type (0, 0), BuildingBlock: EZIPEK_clean_linker_0, # of connection points: 2
#     Edge 154, Type (0, 0), BuildingBlock: EZIPEK_clean_linker_0, # of connection points: 2
#     Edge 155, Type (0, 0), BuildingBlock: EZIPEK_clean_linker_0, # of connection points: 2
#     Edge 156, Type (0, 0), BuildingBlock: EZIPEK_clean_linker_0, # of connection points: 2
#     Edge 157, Type (0, 0), BuildingBlock: EZIPEK_clean_linker_0, # of connection points: 2
#     Edge 158, Type (0, 0), BuildingBlock: EZIPEK_clean_linker_0, # of connection points: 2
#     Edge 159, Type (0, 0), BuildingBlock: EZIPEK_clean_linker_0, # of connection points: 2
#     Edge 160, Type (0, 0), BuildingBlock: EZIPEK_clean_linker_0, # of connection points: 2
#     Edge 161, Type (0, 0), BuildingBlock: EZIPEK_clean_linker_0, # of connection points: 2
#     Edge 162, Type (0, 0), BuildingBlock: EZIPEK_clean_linker_0, # of connection points: 2
#     Edge 163, Type (0, 0), BuildingBlock: EZIPEK_clean_linker_0, # of connection points: 2
#     Edge 164, Type (0, 0), BuildingBlock: EZIPEK_clean_linker_0, # of connection points: 2
#     Edge 165, Type (0, 0), BuildingBlock: EZIPEK_clean_linker_0, # of connection points: 2
#     Edge 166, Type (0, 0), BuildingBlock: EZIPEK_clean_linker_0, # of connection points: 2
#     Edge 167, Type (0, 0), BuildingBlock: EZIPEK_clean_linker_0, # of connection points: 2
#     Edge 168, Type (0, 0), BuildingBlock: EZIPEK_clean_linker_0, # of connection points: 2
#     Edge 169, Type (0, 0), BuildingBlock: EZIPEK_clean_linker_0, # of connection points: 2
#     Edge 170, Type (0, 0), BuildingBlock: EZIPEK_clean_linker_0, # of connection points: 2
#     Edge 171, Type (0, 0), BuildingBlock: EZIPEK_clean_linker_0, # of connection points: 2
#     Edge 172, Type (0, 0), BuildingBlock: EZIPEK_clean_linker_0, # of connection points: 2
#     Edge 173, Type (0, 0), BuildingBlock: EZIPEK_clean_linker_0, # of connection points: 2
#     Edge 174, Type (0, 0), BuildingBlock: EZIPEK_clean_linker_0, # of connection points: 2
#     Edge 175, Type (0, 0), BuildingBlock: EZIPEK_clean_linker_0, # of connection points: 2
#     Edge 176, Type (0, 0), BuildingBlock: EZIPEK_clean_linker_0, # of connection points: 2
#     Edge 177, Type (0, 0), BuildingBlock: EZIPEK_clean_linker_0, # of connection points: 2
#     Edge 178, Type (0, 0), BuildingBlock: EZIPEK_clean_linker_0, # of connection points: 2
#     Edge 179, Type (0, 0), BuildingBlock: EZIPEK_clean_linker_0, # of connection points: 2
#     Edge 180, Type (0, 0), BuildingBlock: EZIPEK_clean_linker_0, # of connection points: 2
#     Edge 181, Type (0, 0), BuildingBlock: EZIPEK_clean_linker_0, # of connection points: 2
#     Edge 182, Type (0, 0), BuildingBlock: EZIPEK_clean_linker_0, # of connection points: 2
#     Edge 183, Type (0, 0), BuildingBlock: EZIPEK_clean_linker_0, # of connection points: 2
#     Edge 184, Type (0, 0), BuildingBlock: EZIPEK_clean_linker_0, # of connection points: 2
#     Edge 185, Type (0, 0), BuildingBlock: EZIPEK_clean_linker_0, # of connection points: 2
#     Edge 186, Type (0, 0), BuildingBlock: EZIPEK_clean_linker_0, # of connection points: 2
#     Edge 187, Type (0, 0), BuildingBlock: EZIPEK_clean_linker_0, # of connection points: 2
#     Edge 188, Type (0, 0), BuildingBlock: EZIPEK_clean_linker_0, # of connection points: 2
#     Edge 189, Type (0, 0), BuildingBlock: EZIPEK_clean_linker_0, # of connection points: 2
#     Edge 190, Type (0, 0), BuildingBlock: EZIPEK_clean_linker_0, # of connection points: 2
#     Edge 191, Type (0, 0), BuildingBlock: EZIPEK_clean_linker_0, # of connection points: 2
#     Edge 192, Type (0, 0), BuildingBlock: EZIPEK_clean_linker_0, # of connection points: 2
#     Edge 193, Type (0, 0), BuildingBlock: EZIPEK_clean_linker_0, # of connection points: 2
#     Edge 194, Type (0, 0), BuildingBlock: EZIPEK_clean_linker_0, # of connection points: 2
#     Edge 195, Type (0, 0), BuildingBlock: EZIPEK_clean_linker_0, # of connection points: 2
#     Edge 196, Type (0, 0), BuildingBlock: EZIPEK_clean_linker_0, # of connection points: 2
#     Edge 197, Type (0, 0), BuildingBlock: EZIPEK_clean_linker_0, # of connection points: 2
#     Edge 198, Type (0, 0), BuildingBlock: EZIPEK_clean_linker_0, # of connection points: 2
#     Edge 199, Type (0, 0), BuildingBlock: EZIPEK_clean_linker_0, # of connection points: 2
#     Edge 200, Type (0, 0), BuildingBlock: EZIPEK_clean_linker_0, # of connection points: 2
#     Edge 201, Type (0, 0), BuildingBlock: EZIPEK_clean_linker_0, # of connection points: 2
#     Edge 202, Type (0, 0), BuildingBlock: EZIPEK_clean_linker_0, # of connection points: 2
#     Edge 203, Type (0, 0), BuildingBlock: EZIPEK_clean_linker_0, # of connection points: 2
#     Edge 204, Type (0, 0), BuildingBlock: EZIPEK_clean_linker_0, # of connection points: 2
#     Edge 205, Type (0, 0), BuildingBlock: EZIPEK_clean_linker_0, # of connection points: 2
#     Edge 206, Type (0, 0), BuildingBlock: EZIPEK_clean_linker_0, # of connection points: 2
#     Edge 207, Type (0, 0), BuildingBlock: EZIPEK_clean_linker_0, # of connection points: 2
#     Edge 208, Type (0, 0), BuildingBlock: EZIPEK_clean_linker_0, # of connection points: 2
#     Edge 209, Type (0, 0), BuildingBlock: EZIPEK_clean_linker_0, # of connection points: 2
#     Edge 210, Type (0, 0), BuildingBlock: EZIPEK_clean_linker_0, # of connection points: 2
#     Edge 211, Type (0, 0), BuildingBlock: EZIPEK_clean_linker_0, # of connection points: 2
#     Edge 212, Type (0, 0), BuildingBlock: EZIPEK_clean_linker_0, # of connection points: 2
#     Edge 213, Type (0, 0), BuildingBlock: EZIPEK_clean_linker_0, # of connection points: 2
#     Edge 214, Type (0, 0), BuildingBlock: EZIPEK_clean_linker_0, # of connection points: 2
#     Edge 215, Type (0, 0), BuildingBlock: EZIPEK_clean_linker_0, # of connection points: 2
#     Edge 216, Type (0, 0), BuildingBlock: EZIPEK_clean_linker_0, # of connection points: 2
#     Edge 217, Type (0, 0), BuildingBlock: EZIPEK_clean_linker_0, # of connection points: 2
#     Edge 218, Type (0, 0), BuildingBlock: EZIPEK_clean_linker_0, # of connection points: 2
#     Edge 219, Type (0, 0), BuildingBlock: EZIPEK_clean_linker_0, # of connection points: 2
#     Edge 220, Type (0, 0), BuildingBlock: EZIPEK_clean_linker_0, # of connection points: 2
#     Edge 221, Type (0, 0), BuildingBlock: EZIPEK_clean_linker_0, # of connection points: 2
#     Edge 222, Type (0, 0), BuildingBlock: EZIPEK_clean_linker_0, # of connection points: 2
#     Edge 223, Type (0, 0), BuildingBlock: EZIPEK_clean_linker_0, # of connection points: 2
#     Edge 224, Type (0, 0), BuildingBlock: EZIPEK_clean_linker_0, # of connection points: 2
#     Edge 225, Type (0, 0), BuildingBlock: EZIPEK_clean_linker_0, # of connection points: 2
#     Edge 226, Type (0, 0), BuildingBlock: EZIPEK_clean_linker_0, # of connection points: 2
#     Edge 227, Type (0, 0), BuildingBlock: EZIPEK_clean_linker_0, # of connection points: 2
#     Edge 228, Type (0, 0), BuildingBlock: EZIPEK_clean_linker_0, # of connection points: 2
#     Edge 229, Type (0, 0), BuildingBlock: EZIPEK_clean_linker_0, # of connection points: 2
#     Edge 230, Type (0, 0), BuildingBlock: EZIPEK_clean_linker_0, # of connection points: 2
#     Edge 231, Type (0, 0), BuildingBlock: EZIPEK_clean_linker_0, # of connection points: 2
#     Edge 232, Type (0, 0), BuildingBlock: EZIPEK_clean_linker_0, # of connection points: 2
#     Edge 233, Type (0, 0), BuildingBlock: EZIPEK_clean_linker_0, # of connection points: 2
#     Edge 234, Type (0, 0), BuildingBlock: EZIPEK_clean_linker_0, # of connection points: 2
#     Edge 235, Type (0, 0), BuildingBlock: EZIPEK_clean_linker_0, # of connection points: 2
#     Edge 236, Type (0, 0), BuildingBlock: EZIPEK_clean_linker_0, # of connection points: 2
#     Edge 237, Type (0, 0), BuildingBlock: EZIPEK_clean_linker_0, # of connection points: 2
#     Edge 238, Type (0, 0), BuildingBlock: EZIPEK_clean_linker_0, # of connection points: 2
#     Edge 239, Type (0, 0), BuildingBlock: EZIPEK_clean_linker_0, # of connection points: 2
#     Edge 240, Type (0, 0), BuildingBlock: EZIPEK_clean_linker_0, # of connection points: 2
#     Edge 241, Type (0, 0), BuildingBlock: EZIPEK_clean_linker_0, # of connection points: 2
#     Edge 242, Type (0, 0), BuildingBlock: EZIPEK_clean_linker_0, # of connection points: 2
#     Edge 243, Type (0, 0), BuildingBlock: EZIPEK_clean_linker_0, # of connection points: 2
#     Edge 244, Type (0, 0), BuildingBlock: EZIPEK_clean_linker_0, # of connection points: 2
#     Edge 245, Type (0, 0), BuildingBlock: EZIPEK_clean_linker_0, # of connection points: 2
#     Edge 246, Type (0, 0), BuildingBlock: EZIPEK_clean_linker_0, # of connection points: 2
#     Edge 247, Type (0, 0), BuildingBlock: EZIPEK_clean_linker_0, # of connection points: 2
#     Edge 248, Type (0, 0), BuildingBlock: EZIPEK_clean_linker_0, # of connection points: 2
#     Edge 249, Type (0, 0), BuildingBlock: EZIPEK_clean_linker_0, # of connection points: 2
#     Edge 250, Type (0, 0), BuildingBlock: EZIPEK_clean_linker_0, # of connection points: 2
#     Edge 251, Type (0, 0), BuildingBlock: EZIPEK_clean_linker_0, # of connection points: 2
#     Edge 252, Type (0, 0), BuildingBlock: EZIPEK_clean_linker_0, # of connection points: 2
#     Edge 253, Type (0, 0), BuildingBlock: EZIPEK_clean_linker_0, # of connection points: 2
#     Edge 254, Type (0, 0), BuildingBlock: EZIPEK_clean_linker_0, # of connection points: 2
#     Edge 255, Type (0, 0), BuildingBlock: EZIPEK_clean_linker_0, # of connection points: 2
#     Edge 256, Type (0, 0), BuildingBlock: EZIPEK_clean_linker_0, # of connection points: 2
#     Edge 257, Type (0, 0), BuildingBlock: EZIPEK_clean_linker_0, # of connection points: 2
#     Edge 258, Type (0, 0), BuildingBlock: EZIPEK_clean_linker_0, # of connection points: 2
#     Edge 259, Type (0, 0), BuildingBlock: EZIPEK_clean_linker_0, # of connection points: 2
#     Edge 260, Type (0, 0), BuildingBlock: EZIPEK_clean_linker_0, # of connection points: 2
#     Edge 261, Type (0, 0), BuildingBlock: EZIPEK_clean_linker_0, # of connection points: 2
#     Edge 262, Type (0, 0), BuildingBlock: EZIPEK_clean_linker_0, # of connection points: 2
#     Edge 263, Type (0, 0), BuildingBlock: EZIPEK_clean_linker_0, # of connection points: 2
#     Edge 264, Type (0, 0), BuildingBlock: EZIPEK_clean_linker_0, # of connection points: 2
#     Edge 265, Type (0, 0), BuildingBlock: EZIPEK_clean_linker_0, # of connection points: 2
#     Edge 266, Type (0, 0), BuildingBlock: EZIPEK_clean_linker_0, # of connection points: 2
#     Edge 267, Type (0, 0), BuildingBlock: EZIPEK_clean_linker_0, # of connection points: 2
#     Edge 268, Type (0, 0), BuildingBlock: EZIPEK_clean_linker_0, # of connection points: 2
#     Edge 269, Type (0, 0), BuildingBlock: EZIPEK_clean_linker_0, # of connection points: 2
#     Edge 270, Type (0, 0), BuildingBlock: EZIPEK_clean_linker_0, # of connection points: 2
#     Edge 271, Type (0, 0), BuildingBlock: EZIPEK_clean_linker_0, # of connection points: 2
#     Edge 272, Type (0, 0), BuildingBlock: EZIPEK_clean_linker_0, # of connection points: 2
#     Edge 273, Type (0, 0), BuildingBlock: EZIPEK_clean_linker_0, # of connection points: 2
#     Edge 274, Type (0, 0), BuildingBlock: EZIPEK_clean_linker_0, # of connection points: 2
#     Edge 275, Type (0, 0), BuildingBlock: EZIPEK_clean_linker_0, # of connection points: 2
#     Edge 276, Type (0, 0), BuildingBlock: EZIPEK_clean_linker_0, # of connection points: 2
#     Edge 277, Type (0, 0), BuildingBlock: EZIPEK_clean_linker_0, # of connection points: 2
#     Edge 278, Type (0, 0), BuildingBlock: EZIPEK_clean_linker_0, # of connection points: 2
#     Edge 279, Type (0, 0), BuildingBlock: EZIPEK_clean_linker_0, # of connection points: 2
#     Edge 280, Type (0, 0), BuildingBlock: EZIPEK_clean_linker_0, # of connection points: 2
#     Edge 281, Type (0, 0), BuildingBlock: EZIPEK_clean_linker_0, # of connection points: 2
#     Edge 282, Type (0, 0), BuildingBlock: EZIPEK_clean_linker_0, # of connection points: 2
#     Edge 283, Type (0, 0), BuildingBlock: EZIPEK_clean_linker_0, # of connection points: 2
#     Edge 284, Type (0, 0), BuildingBlock: EZIPEK_clean_linker_0, # of connection points: 2
#     Edge 285, Type (0, 0), BuildingBlock: EZIPEK_clean_linker_0, # of connection points: 2
#     Edge 286, Type (0, 0), BuildingBlock: EZIPEK_clean_linker_0, # of connection points: 2
#     Edge 287, Type (0, 0), BuildingBlock: EZIPEK_clean_linker_0, # of connection points: 2
# Relax obj value: 0.762
# Max RMSD: 0.640
# Mean RMSD: 0.639
data_MOF--net-lcs-a--node1-QUQFOY_clean_sbu_3--edge1-EZIPEK_clean_linker_0
_symmetry_space_group_name_H-M    P1
_symmetry_Int_Tables_number       1
_symmetry_cell_setting            triclinic
loop_
_symmetry_equiv_pos_as_xyz
'x, y, z'
_cell_length_a     60.49997
_cell_length_b     60.440577
_cell_length_c     60.464262
_cell_angle_alpha  90.01151
_cell_angle_beta   89.971987
_cell_angle_gamma 89.979832
loop_
_atom_site_label
_atom_site_type_symbol
_atom_site_fract_x
_atom_site_fract_y
_atom_site_fract_z
_atom_type_partial_charge
C0 C 0.0257 0.33572 0.43571 0.0
O1 O 0.02204 0.31739 0.44516 0.0
Cd2 Cd 0.05044 0.29119 0.45607 0.0
O3 O 0.04544 0.34083 0.43126 0.0
Cd4 Cd 0.06511 0.31298 0.40935 0.0
C5 C 0.02563 0.26969 0.41313 0.0
O6 O 0.08636 0.29681 0.43973 0.0
O7 O 0.09174 0.28418 0.40671 0.0
O8 O 0.08858 0.34389 0.3984 0.0
C9 C 0.09588 0.28278 0.42722 0.0
O10 O 0.03294 0.26527 0.43239 0.0
C11 C 0.08571 0.34207 0.37769 0.0
O12 O 0.03255 0.28666 0.40228 0.0
O13 O 0.07294 0.32661 0.37119 0.0
C14 C 0.91395 0.80643 0.68764 0.0
O15 O 0.9111 0.82404 0.69864 0.0
Cd16 Cd 0.95067 0.8339 0.70418 0.0
O17 O 0.93248 0.80331 0.67862 0.0
Cd18 Cd 0.95285 0.83709 0.672 0.0
C19 C 0.98157 0.79386 0.68482 0.0
O20 O 0.97273 0.86605 0.69304 0.0
O21 O 0.98438 0.85354 0.66073 0.0
O22 O 0.91957 0.85837 0.66602 0.0
C23 C 0.98585 0.86756 0.67638 0.0
O24 O 0.97442 0.80094 0.70329 0.0
C25 C 0.92203 0.8594 0.64513 0.0
O26 O 0.97625 0.80401 0.66715 0.0
O27 O 0.93875 0.8496 0.63676 0.0
C28 C 0.45264 0.6739 0.8968 0.0
O29 O 0.45278 0.67264 0.91783 0.0
Cd30 Cd 0.42566 0.69306 0.94374 0.0
O31 O 0.43769 0.68553 0.8881 0.0
Cd32 Cd 0.41911 0.69507 0.92084 0.0
C33 C 0.46346 0.72069 0.94726 0.0
O34 O 0.39738 0.72342 0.93713 0.0
O35 O 0.39698 0.72026 0.90133 0.0
O36 O 0.40695 0.65762 0.93534 0.0
C37 C 0.39049 0.73047 0.9185 0.0
O38 O 0.45268 0.71433 0.96406 0.0
C39 C 0.39602 0.65387 0.91763 0.0
O40 O 0.45641 0.71514 0.9282 0.0
O41 O 0.39557 0.66905 0.9032 0.0
C42 C 0.58269 0.19023 0.11374 0.0
O43 O 0.58053 0.18882 0.13444 0.0
Cd44 Cd 0.55878 0.15278 0.13781 0.0
O45 O 0.57673 0.17351 0.10285 0.0
Cd46 Cd 0.5604 0.15227 0.13394 0.0
C47 C 0.52644 0.17933 0.16121 0.0
O48 O 0.54485 0.14012 0.1009 0.0
O49 O 0.52672 0.12786 0.12854 0.0
O50 O 0.57644 0.12123 0.15669 0.0
C51 C 0.52859 0.12894 0.10765 0.0
O52 O 0.52369 0.15869 0.16005 0.0
C53 C 0.59508 0.12234 0.14706 0.0
O54 O 0.54443 0.18653 0.15371 0.0
O55 O 0.59818 0.13842 0.13397 0.0
C56 C 0.04637 0.67206 0.07999 0.0
O57 O 0.05549 0.67071 0.06108 0.0
Cd58 Cd 0.07304 0.70424 0.0431 0.0
O59 O 0.0497 0.68919 0.09156 0.0
Cd60 Cd 0.07832 0.70533 0.07091 0.0
C61 C 0.03154 0.73054 0.05058 0.0
O62 O 0.10097 0.73301 0.05509 0.0
O63 O 0.09565 0.73251 0.09113 0.0
O64 O 0.10065 0.67244 0.06119 0.0
C65 C 0.10505 0.74098 0.07427 0.0
O66 O 0.04077 0.72609 0.0323 0.0
C67 C 0.10611 0.66928 0.08143 0.0
O68 O 0.041 0.72412 0.06823 0.0
O69 O 0.09871 0.68278 0.09582 0.0
C70 C 0.58481 0.79898 0.37844 0.0
O71 O 0.58578 0.8009 0.35765 0.0
Cd72 Cd 0.55254 0.82256 0.34478 0.0
O73 O 0.56819 0.80778 0.38771 0.0
Cd74 Cd 0.55301 0.8249 0.35417 0.0
C75 C 0.53015 0.78103 0.33642 0.0
O76 O 0.52565 0.84041 0.37272 0.0
O77 O 0.51986 0.84507 0.338 0.0
O78 O 0.58822 0.84506 0.34409 0.0
C79 C 0.51443 0.84989 0.3578 0.0
O80 O 0.52816 0.79717 0.32325 0.0
C81 C 0.5849 0.85903 0.3597 0.0
O82 O 0.54257 0.78399 0.35292 0.0
O83 O 0.56717 0.85705 0.37059 0.0
C84 C 0.45726 0.33957 0.59744 0.0
O85 O 0.4534 0.34102 0.5768 0.0
Cd86 Cd 0.43084 0.31206 0.55515 0.0
O87 O 0.44857 0.32367 0.60798 0.0
Cd88 Cd 0.42554 0.31236 0.57892 0.0
C89 C 0.47047 0.28515 0.55611 0.0
O90 O 0.40041 0.28502 0.56659 0.0
O91 O 0.40419 0.29004 0.60208 0.0
O92 O 0.41039 0.34727 0.56121 0.0
C93 C 0.39452 0.28015 0.58627 0.0
O94 O 0.45979 0.28928 0.53859 0.0
C95 C 0.40292 0.35408 0.57979 0.0
O96 O 0.46279 0.29267 0.57419 0.0
O97 O 0.40595 0.34176 0.59649 0.0
C98 C 0.90944 0.21265 0.82405 0.0
O99 O 0.90769 0.20155 0.80637 0.0
Cd100 Cd 0.94597 0.18892 0.80173 0.0
O101 O 0.92532 0.20868 0.83699 0.0
Cd102 Cd 0.94751 0.17557 0.83812 0.0
C103 C 0.97711 0.22061 0.83379 0.0
O104 O 0.9638 0.15345 0.80703 0.0
O105 O 0.9816 0.15936 0.83825 0.0
O106 O 0.91601 0.15191 0.84322 0.0
C107 C 0.98042 0.14967 0.81964 0.0
O108 O 0.97114 0.21773 0.81386 0.0
C109 C 0.9202 0.14745 0.86335 0.0
O110 O 0.97039 0.20753 0.84889 0.0
O111 O 0.93723 0.15634 0.87205 0.0
C112 C 0.38829 0.05014 0.33471 0.0
O113 O 0.40442 0.06152 0.34146 0.0
Cd114 Cd 0.40304 0.09187 0.31195 0.0
O115 O 0.37686 0.05852 0.31939 0.0
Cd116 Cd 0.40025 0.09183 0.31399 0.0
C117 C 0.42099 0.05798 0.28292 0.0
O118 O 0.36728 0.1067 0.29945 0.0
O119 O 0.39564 0.11638 0.28042 0.0
O120 O 0.42037 0.118 0.33934 0.0
C121 C 0.37474 0.11729 0.28298 0.0
O122 O 0.41109 0.07454 0.27517 0.0
C123 C 0.40493 0.11761 0.35366 0.0
O124 O 0.4255 0.05905 0.30326 0.0
O125 O 0.38903 0.10435 0.35044 0.0
C126 C 0.19052 0.14556 0.57946 0.0
O127 O 0.18444 0.16496 0.58501 0.0
Cd128 Cd 0.16752 0.19232 0.55736 0.0
O129 O 0.18456 0.13817 0.56078 0.0
Cd130 Cd 0.16074 0.16801 0.55223 0.0
C131 C 0.20983 0.19085 0.53409 0.0
O132 O 0.14121 0.18813 0.5248 0.0
O133 O 0.14014 0.152 0.52403 0.0
O134 O 0.14085 0.17939 0.58686 0.0
C135 C 0.13393 0.1704 0.51593 0.0
O136 O 0.20045 0.20847 0.54046 0.0
C137 C 0.1324 0.16008 0.58895 0.0
O138 O 0.19978 0.17266 0.53714 0.0
O139 O 0.13752 0.14561 0.57461 0.0
C140 C 0.09891 0.96111 0.82933 0.0
O141 O 0.07992 0.95253 0.83091 0.0
Cd142 Cd 0.07839 0.92392 0.80015 0.0
O143 O 0.11196 0.95276 0.81519 0.0
Cd144 Cd 0.08621 0.92398 0.80372 0.0
C145 C 0.06853 0.95992 0.76918 0.0
O146 O 0.11453 0.90524 0.78852 0.0
O147 O 0.08445 0.89414 0.7736 0.0
O148 O 0.06636 0.90821 0.83735 0.0
C149 C 0.10527 0.89172 0.77557 0.0
O150 O 0.0619 0.94051 0.76508 0.0
C151 C 0.08487 0.90505 0.84708 0.0
O152 O 0.07868 0.96226 0.78717 0.0
O153 O 0.10226 0.91077 0.83694 0.0
C154 C 0.29419 0.87024 0.08472 0.0
O155 O 0.2996 0.85055 0.08979 0.0
Cd156 Cd 0.31697 0.82316 0.06426 0.0
O157 O 0.30017 0.87753 0.06599 0.0
Cd158 Cd 0.32797 0.85092 0.05771 0.0
C159 C 0.28044 0.83345 0.03207 0.0
O160 O 0.34784 0.82341 0.03694 0.0
O161 O 0.35152 0.85846 0.02807 0.0
O162 O 0.34334 0.847 0.09532 0.0
C163 C 0.35653 0.83821 0.02455 0.0
O164 O 0.28583 0.81508 0.04061 0.0
C165 C 0.35146 0.86659 0.09493 0.0
O166 O 0.29215 0.85039 0.03633 0.0
O167 O 0.34927 0.87785 0.07723 0.0
C168 C 0.43054 0.96832 0.16527 0.0
O169 O 0.4422 0.95142 0.16096 0.0
Cd170 Cd 0.44761 0.93753 0.19959 0.0
O171 O 0.42132 0.96943 0.18393 0.0
Cd172 Cd 0.41708 0.93392 0.20142 0.0
C173 C 0.4288 0.97624 0.23195 0.0
O174 O 0.43552 0.90314 0.21937 0.0
O175 O 0.40206 0.91416 0.22938 0.0
O176 O 0.41568 0.91487 0.16648 0.0
C177 C 0.41749 0.89981 0.23025 0.0
O178 O 0.44716 0.97065 0.22338 0.0
C179 C 0.39473 0.91276 0.16673 0.0
O180 O 0.4119 0.96437 0.22795 0.0
O181 O 0.3841 0.92165 0.18269 0.0
C182 C 0.30504 0.15031 0.42884 0.0
O183 O 0.31368 0.16921 0.43222 0.0
Cd184 Cd 0.33663 0.17817 0.46703 0.0
O185 O 0.30922 0.13504 0.44254 0.0
Cd186 Cd 0.33612 0.1549 0.46215 0.0
C187 C 0.2947 0.18416 0.48874 0.0
O188 O 0.35842 0.1541 0.4941 0.0
O189 O 0.34818 0.12267 0.47997 0.0
O190 O 0.36148 0.17495 0.43531 0.0
C191 C 0.35955 0.13301 0.49427 0.0
O192 O 0.31006 0.19835 0.48959 0.0
C193 C 0.36596 0.15672 0.42557 0.0
O194 O 0.29856 0.16618 0.4785 0.0
O195 O 0.35614 0.13945 0.43221 0.0
C196 C 0.11084 0.04118 0.65967 0.0
O197 O 0.09378 0.05256 0.65585 0.0
Cd198 Cd 0.09604 0.0757 0.69086 0.0
O199 O 0.12143 0.0459 0.67705 0.0
Cd200 Cd 0.09764 0.07729 0.68834 0.0
C201 C 0.07897 0.03921 0.71679 0.0
O202 O 0.13084 0.09459 0.6992 0.0
O203 O 0.10467 0.10106 0.72215 0.0
O204 O 0.07702 0.1068 0.66752 0.0
C205 C 0.12441 0.10515 0.71599 0.0
O206 O 0.09759 0.04752 0.72104 0.0
C207 C 0.09161 0.10781 0.65236 0.0
O208 O 0.06826 0.04827 0.70118 0.0
O209 O 0.10669 0.09334 0.6526 0.0
C210 C 0.19171 0.84474 0.90654 0.0
O211 O 0.17907 0.82875 0.90173 0.0
Cd212 Cd 0.17074 0.81248 0.93828 0.0
O213 O 0.19147 0.85167 0.92626 0.0
Cd214 Cd 0.15838 0.84162 0.94601 0.0
C215 C 0.20539 0.83358 0.9724 0.0
O216 O 0.13987 0.81048 0.96455 0.0
O217 O 0.14047 0.84422 0.97869 0.0
O218 O 0.13589 0.84531 0.91317 0.0
C219 C 0.13417 0.82413 0.97986 0.0
O220 O 0.20339 0.81577 0.96148 0.0
C221 C 0.12809 0.86419 0.91849 0.0
O222 O 0.1908 0.84865 0.97032 0.0
O223 O 0.13455 0.87253 0.93678 0.0
C224 C 0.34954 0.42678 0.04293 0.0
O225 O 0.3529 0.43529 0.06173 0.0
Cd226 Cd 0.31335 0.43635 0.07182 0.0
O227 O 0.33155 0.41672 0.03968 0.0
Cd228 Cd 0.31451 0.40021 0.07232 0.0
C229 C 0.28113 0.41196 0.03346 0.0
O230 O 0.29863 0.42098 0.10514 0.0
O231 O 0.28279 0.39127 0.09165 0.0
O232 O 0.34974 0.39264 0.08892 0.0
C233 C 0.28371 0.40607 0.10652 0.0
O234 O 0.28675 0.4306 0.04147 0.0
C235 C 0.34788 0.37169 0.08858 0.0
O236 O 0.28942 0.39422 0.04123 0.0
O237 O 0.33062 0.36364 0.07955 0.0
C238 C 0.83498 0.08394 0.96251 0.0
O239 O 0.83607 0.06669 0.95072 0.0
Cd240 Cd 0.80713 0.07147 0.92063 0.0
O241 O 0.82169 0.09894 0.95642 0.0
Cd242 Cd 0.81048 0.08176 0.92218 0.0
C243 C 0.77451 0.05782 0.95326 0.0
O244 O 0.79091 0.10963 0.90967 0.0
O245 O 0.78161 0.08071 0.89126 0.0
O246 O 0.84846 0.07543 0.90681 0.0
C247 C 0.77989 0.10156 0.89385 0.0
O248 O 0.77307 0.05088 0.93358 0.0
C249 C 0.85143 0.09633 0.90466 0.0
O250 O 0.79024 0.07082 0.95741 0.0
O251 O 0.83571 0.10895 0.91044 0.0
C252 C 0.13448 0.58588 0.20171 0.0
O253 O 0.1476 0.59206 0.18669 0.0
Cd254 Cd 0.13776 0.56116 0.16019 0.0
O255 O 0.12191 0.56987 0.19718 0.0
Cd256 Cd 0.13728 0.56104 0.16005 0.0
C257 C 0.158 0.52832 0.19096 0.0
O258 O 0.10075 0.55018 0.14867 0.0
O259 O 0.12634 0.528 0.13796 0.0
O260 O 0.15571 0.58319 0.12975 0.0
C261 C 0.1058 0.53254 0.13854 0.0
O262 O 0.1378 0.52896 0.18608 0.0
C263 C 0.14229 0.59936 0.13129 0.0
O264 O 0.16973 0.54257 0.181 0.0
O265 O 0.12841 0.59881 0.14696 0.0
C266 C 0.66209 0.88527 0.44566 0.0
O267 O 0.66376 0.90592 0.44199 0.0
Cd268 Cd 0.69717 0.92176 0.42019 0.0
O269 O 0.67739 0.873 0.43835 0.0
Cd270 Cd 0.69419 0.90115 0.4171 0.0
C271 C 0.72137 0.92498 0.46078 0.0
O272 O 0.72244 0.90502 0.39063 0.0
O273 O 0.71139 0.87184 0.39864 0.0
O274 O 0.66296 0.92492 0.40059 0.0
C275 C 0.72293 0.88433 0.38638 0.0
O276 O 0.71959 0.94108 0.44753 0.0
C277 C 0.65479 0.90762 0.39167 0.0
O278 O 0.71235 0.90682 0.45523 0.0
O279 O 0.66432 0.88936 0.39525 0.0
C280 C 0.86986 0.9182 0.19672 0.0
O281 O 0.84919 0.91434 0.19575 0.0
Cd282 Cd 0.8194 0.9419 0.18341 0.0
O283 O 0.87669 0.9367 0.18956 0.0
Cd284 Cd 0.84303 0.94868 0.17369 0.0
C285 C 0.82484 0.96205 0.22653 0.0
O286 O 0.81913 0.97611 0.15913 0.0
O287 O 0.85468 0.98094 0.15516 0.0
O288 O 0.82807 0.9165 0.15227 0.0
C289 C 0.83505 0.98762 0.15149 0.0
O290 O 0.80638 0.95653 0.21838 0.0
C291 C 0.84584 0.91481 0.14092 0.0
O292 O 0.84196 0.95967 0.21452 0.0
O293 O 0.86125 0.92845 0.14512 0.0
C294 C 0.1627 0.58192 0.53204 0.0
O295 O 0.16772 0.5652 0.54358 0.0
Cd296 Cd 0.19599 0.57796 0.57192 0.0
O297 O 0.16994 0.6004 0.53868 0.0
Cd298 Cd 0.18894 0.58721 0.57146 0.0
C299 C 0.22705 0.57447 0.53553 0.0
O300 O 0.20167 0.6194 0.58315 0.0
O301 O 0.21767 0.59367 0.60151 0.0
O302 O 0.15844 0.5708 0.59407 0.0
C303 C 0.21386 0.61429 0.59933 0.0
O304 O 0.23269 0.56721 0.55434 0.0
C305 C 0.14928 0.58992 0.59515 0.0
O306 O 0.20825 0.58328 0.53433 0.0
O307 O 0.15775 0.60553 0.58398 0.0
C308 C 0.19092 0.40474 0.27192 0.0
O309 O 0.20318 0.40031 0.28829 0.0
Cd310 Cd 0.20269 0.43867 0.30259 0.0
O311 O 0.17812 0.42116 0.27309 0.0
Cd312 Cd 0.16566 0.43697 0.30749 0.0
C313 C 0.17575 0.47074 0.26631 0.0
O314 O 0.18916 0.45132 0.33843 0.0
O315 O 0.15863 0.46823 0.32815 0.0
O316 O 0.15742 0.40156 0.32553 0.0
C317 C 0.17433 0.46606 0.34192 0.0
O318 O 0.19507 0.46458 0.27192 0.0
C319 C 0.13657 0.4042 0.3252 0.0
O320 O 0.15909 0.46352 0.27708 0.0
O321 O 0.12928 0.42146 0.31562 0.0
C322 C 0.37741 0.58617 0.80103 0.0
O323 O 0.35731 0.59173 0.80357 0.0
Cd324 Cd 0.32718 0.56542 0.81487 0.0
O325 O 0.38364 0.56756 0.80842 0.0
Cd326 Cd 0.35234 0.55533 0.8286 0.0
C327 C 0.3402 0.53801 0.77545 0.0
O328 O 0.32173 0.53392 0.84149 0.0
O329 O 0.35554 0.52095 0.84529 0.0
O330 O 0.34876 0.59011 0.84934 0.0
C331 C 0.33478 0.51874 0.84848 0.0
O332 O 0.3217 0.54695 0.77956 0.0
C333 C 0.36383 0.58469 0.86324 0.0
O334 O 0.35541 0.53937 0.78995 0.0
O335 O 0.37261 0.56565 0.86098 0.0
C336 C 0.89234 0.73218 0.648 0.0
O337 O 0.89229 0.73312 0.6271 0.0
Cd338 Cd 0.91551 0.69935 0.61694 0.0
O339 O 0.90284 0.71609 0.65616 0.0
Cd340 Cd 0.91358 0.69825 0.62137 0.0
C341 C 0.95032 0.72909 0.60118 0.0
O342 O 0.92603 0.67567 0.64952 0.0
O343 O 0.94267 0.66823 0.61925 0.0
O344 O 0.89087 0.67545 0.59483 0.0
C345 C 0.93937 0.66323 0.63942 0.0
O346 O 0.95167 0.70857 0.59758 0.0
C347 C 0.87378 0.67526 0.60712 0.0
O348 O 0.93267 0.73529 0.61042 0.0
O349 O 0.87432 0.68829 0.62356 0.0
C350 C 0.0331 0.1543 0.36176 0.0
O351 O 0.04503 0.16273 0.34661 0.0
Cd352 Cd 0.07475 0.19257 0.35216 0.0
O353 O 0.03685 0.16024 0.38153 0.0
Cd354 Cd 0.06917 0.18071 0.37353 0.0
C355 C 0.04002 0.22391 0.34796 0.0
O356 O 0.09574 0.20696 0.38523 0.0
O357 O 0.07802 0.18986 0.41141 0.0
O358 O 0.0924 0.1581 0.34638 0.0
C359 C 0.09292 0.20362 0.40587 0.0
O360 O 0.05772 0.22519 0.33688 0.0
C361 C 0.0956 0.1426 0.36026 0.0
O362 O 0.03826 0.20822 0.36192 0.0
O363 O 0.08605 0.14468 0.37887 0.0
C364 C 0.58396 0.27929 0.09332 0.0
O365 O 0.57743 0.28983 0.07653 0.0
Cd366 Cd 0.5536 0.32039 0.09291 0.0
O367 O 0.57846 0.28739 0.11179 0.0
Cd368 Cd 0.5574 0.31889 0.09659 0.0
C369 C 0.51493 0.29635 0.07737 0.0
O370 O 0.55246 0.32703 0.13412 0.0
O371 O 0.52885 0.3443 0.1144 0.0
O372 O 0.57118 0.34823 0.07007 0.0
C373 C 0.53665 0.34072 0.13356 0.0
O374 O 0.51355 0.3167 0.08185 0.0
C375 C 0.58936 0.35053 0.08043 0.0
O376 O 0.53401 0.28804 0.07867 0.0
O377 O 0.59395 0.33568 0.09451 0.0
C378 C 0.47964 0.85351 0.8781 0.0
O379 O 0.47831 0.85003 0.85752 0.0
Cd380 Cd 0.44558 0.8246 0.85378 0.0
O381 O 0.4648 0.8446 0.88979 0.0
Cd382 Cd 0.44399 0.82671 0.86029 0.0
C383 C 0.47718 0.79085 0.83919 0.0
O384 O 0.42457 0.81502 0.88989 0.0
O385 O 0.41404 0.79754 0.86118 0.0
O386 O 0.4212 0.84697 0.83148 0.0
C387 C 0.41075 0.80191 0.88147 0.0
O388 O 0.45847 0.79222 0.82995 0.0
C389 C 0.41733 0.86341 0.84413 0.0
O390 O 0.48027 0.80478 0.85441 0.0
O391 O 0.42873 0.86426 0.86172 0.0
C392 C 0.90001 0.28437 0.87189 0.0
O393 O 0.89742 0.28211 0.8927 0.0
Cd394 Cd 0.92038 0.30081 0.92309 0.0
O395 O 0.9146 0.2979 0.8654 0.0
Cd396 Cd 0.92291 0.31357 0.90015 0.0
C397 C 0.95395 0.26749 0.91463 0.0
O398 O 0.94521 0.33454 0.92448 0.0
O399 O 0.94801 0.34107 0.88912 0.0
O400 O 0.88698 0.32552 0.91719 0.0
C401 C 0.95336 0.3461 0.90885 0.0
O402 O 0.94667 0.27226 0.93366 0.0
C403 C 0.88331 0.33858 0.90092 0.0
O404 O 0.94675 0.27854 0.89826 0.0
O405 O 0.89673 0.3382 0.88478 0.0
C406 C 0.45357 0.15965 0.63879 0.0
O407 O 0.4513 0.16044 0.65957 0.0
Cd408 Cd 0.41895 0.18727 0.66317 0.0
O409 O 0.44008 0.17118 0.62783 0.0
Cd410 Cd 0.41841 0.18482 0.65892 0.0
C411 C 0.45021 0.22136 0.67752 0.0
O412 O 0.40029 0.1956 0.62712 0.0
O413 O 0.3911 0.21652 0.65405 0.0
O414 O 0.39255 0.16367 0.68405 0.0
C415 C 0.38838 0.21134 0.63384 0.0
O416 O 0.42972 0.22516 0.67757 0.0
C417 C 0.39165 0.14716 0.67097 0.0
O418 O 0.45559 0.2018 0.67255 0.0
O419 O 0.40602 0.14656 0.65574 0.0
C420 C 0.58958 0.72579 0.42058 0.0
O421 O 0.58228 0.72472 0.44024 0.0
Cd422 Cd 0.54971 0.70385 0.45023 0.0
O423 O 0.5808 0.71399 0.40556 0.0
Cd424 Cd 0.55315 0.68529 0.39995 0.0
C425 C 0.51469 0.72515 0.41028 0.0
O426 O 0.55007 0.66698 0.43642 0.0
O427 O 0.52394 0.66319 0.41208 0.0
O428 O 0.58011 0.65954 0.38582 0.0
C429 C 0.53179 0.65819 0.43087 0.0
O430 O 0.52046 0.723 0.43042 0.0
C431 C 0.5709 0.65622 0.36726 0.0
O432 O 0.52438 0.71451 0.39474 0.0
O433 O 0.55353 0.66734 0.36302 0.0
C434 C 0.03389 0.84168 0.13515 0.0
O435 O 0.03243 0.83363 0.15434 0.0
Cd436 Cd 0.07111 0.81758 0.15845 0.0
O437 O 0.05278 0.8416 0.12654 0.0
Cd438 Cd 0.07282 0.82315 0.15662 0.0
C439 C 0.04756 0.77777 0.16997 0.0
O440 O 0.08748 0.81876 0.12145 0.0
O441 O 0.10514 0.79862 0.14442 0.0
O442 O 0.10187 0.84326 0.17727 0.0
C443 C 0.10349 0.80589 0.12471 0.0
O444 O 0.06729 0.77618 0.16338 0.0
C445 C 0.09476 0.86235 0.17191 0.0
O446 O 0.04086 0.79738 0.17294 0.0
O447 O 0.07541 0.86277 0.16384 0.0
C448 C 0.61588 0.91035 0.71849 0.0
O449 O 0.59935 0.91876 0.70886 0.0
Cd450 Cd 0.61559 0.94412 0.67983 0.0
O451 O 0.63458 0.91655 0.71144 0.0
Cd452 Cd 0.62045 0.93968 0.68128 0.0
C453 C 0.60022 0.98211 0.70559 0.0
O454 O 0.65743 0.94405 0.67296 0.0
O455 O 0.63768 0.96529 0.65284 0.0
O456 O 0.59234 0.92398 0.65392 0.0
C457 C 0.65682 0.95784 0.65729 0.0
O458 O 0.60017 0.98286 0.68469 0.0
C459 C 0.60122 0.90485 0.65375 0.0
O460 O 0.60667 0.96396 0.71369 0.0
O461 O 0.61727 0.9021 0.66696 0.0
C462 C 0.84544 0.83356 0.46681 0.0
O463 O 0.84301 0.81467 0.45792 0.0
Cd464 Cd 0.81598 0.80875 0.42697 0.0
O465 O 0.8366 0.85005 0.45769 0.0
Cd466 Cd 0.8204 0.84243 0.42373 0.0
C467 C 0.77879 0.82306 0.4586 0.0
O468 O 0.80079 0.82746 0.39318 0.0
O469 O 0.79466 0.86177 0.40472 0.0
O470 O 0.8517 0.84279 0.39836 0.0
C471 C 0.79209 0.84665 0.39013 0.0
O472 O 0.78306 0.80483 0.44913 0.0
C473 C 0.854 0.86381 0.39928 0.0
O474 O 0.79033 0.84006 0.45359 0.0
O475 O 0.84249 0.87395 0.41379 0.0
C476 C 0.87694 0.1096 0.21811 0.0
O477 O 0.89609 0.10136 0.21586 0.0
Cd478 Cd 0.90735 0.08714 0.17742 0.0
O479 O 0.86551 0.11166 0.20086 0.0
Cd480 Cd 0.89066 0.09249 0.17666 0.0
C481 C 0.92036 0.05143 0.20339 0.0
O482 O 0.88059 0.06409 0.15383 0.0
O483 O 0.85416 0.08713 0.16109 0.0
O484 O 0.91063 0.10741 0.14328 0.0
C485 C 0.86035 0.06937 0.1518 0.0
O486 O 0.93355 0.05812 0.18855 0.0
C487 C 0.91119 0.12734 0.14991 0.0
O488 O 0.90188 0.06119 0.20505 0.0
O489 O 0.9043 0.13051 0.1695 0.0
C490 C 0.65778 0.14285 0.97355 0.0
O491 O 0.65838 0.1636 0.97 0.0
Cd492 Cd 0.68428 0.1823 0.94205 0.0
O493 O 0.66965 0.13059 0.96146 0.0
Cd494 Cd 0.68162 0.15809 0.9369 0.0
C495 C 0.71639 0.1811 0.97726 0.0
O496 O 0.70816 0.16753 0.91019 0.0
O497 O 0.69992 0.13269 0.91419 0.0
O498 O 0.64988 0.1797 0.92011 0.0
C499 C 0.71034 0.14758 0.90364 0.0
O500 O 0.71086 0.19876 0.96744 0.0
C501 C 0.64124 0.16207 0.91226 0.0
O502 O 0.7075 0.16315 0.97067 0.0
O503 O 0.64994 0.14383 0.91795 0.0
C504 C 0.62007 0.11073 0.78005 0.0
O505 O 0.59908 0.11135 0.7816 0.0
Cd506 Cd 0.575 0.08565 0.80473 0.0
O507 O 0.63042 0.0973 0.79235 0.0
Cd508 Cd 0.60078 0.08538 0.81436 0.0
C509 C 0.58344 0.05237 0.77031 0.0
O510 O 0.58113 0.06181 0.83856 0.0
O511 O 0.61723 0.0608 0.83932 0.0
O512 O 0.58439 0.12016 0.82964 0.0
C513 C 0.59883 0.05468 0.84756 0.0
O514 O 0.56457 0.05792 0.77749 0.0
C515 C 0.60209 0.12434 0.84053 0.0
O516 O 0.60035 0.061 0.77942 0.0
O517 O 0.61862 0.11171 0.8375 0.0
C518 C 0.64596 0.85218 0.52183 0.0
O519 O 0.64553 0.83332 0.53113 0.0
Cd520 Cd 0.67334 0.82174 0.56009 0.0
O521 O 0.65843 0.86698 0.5298 0.0
Cd522 Cd 0.67093 0.84995 0.56202 0.0
C523 C 0.7086 0.82613 0.5256 0.0
O524 O 0.69348 0.84024 0.59217 0.0
O525 O 0.6913 0.87517 0.58258 0.0
O526 O 0.63623 0.8369 0.57949 0.0
C527 C 0.69787 0.86056 0.59632 0.0
O528 O 0.70251 0.80872 0.53557 0.0
C529 C 0.63072 0.85663 0.58504 0.0
O530 O 0.6995 0.84429 0.53124 0.0
O531 O 0.64263 0.8724 0.57771 0.0
C532 C 0.92654 0.90875 0.26074 0.0
O533 O 0.9439 0.90231 0.27055 0.0
Cd534 Cd 0.95817 0.93656 0.28861 0.0
O535 O 0.9176 0.92651 0.26689 0.0
Cd536 Cd 0.92645 0.94057 0.30235 0.0
C537 C 0.93524 0.97655 0.26177 0.0
O538 O 0.95654 0.95502 0.32519 0.0
O539 O 0.92386 0.97151 0.32283 0.0
O540 O 0.92311 0.90824 0.32616 0.0
C541 C 0.94284 0.96992 0.33182 0.0
O542 O 0.95375 0.96664 0.2622 0.0
C543 C 0.90291 0.91181 0.331 0.0
O544 O 0.91995 0.97042 0.2749 0.0
O545 O 0.89336 0.92783 0.32105 0.0
C546 C 0.8398 0.12512 0.04134 0.0
O547 O 0.83983 0.1454 0.03631 0.0
Cd548 Cd 0.82379 0.16129 0.07185 0.0
O549 O 0.83473 0.12036 0.06092 0.0
Cd550 Cd 0.82729 0.15817 0.07332 0.0
C551 C 0.78664 0.17401 0.04394 0.0
O552 O 0.81833 0.12993 0.09736 0.0
O553 O 0.7995 0.15871 0.10537 0.0
O554 O 0.85411 0.1812 0.09482 0.0
C555 C 0.80401 0.13857 0.10975 0.0
O556 O 0.78413 0.1732 0.06464 0.0
C557 C 0.87117 0.17105 0.08781 0.0
O558 O 0.80617 0.17073 0.03732 0.0
O559 O 0.86775 0.15724 0.07241 0.0
C560 C 0.71904 0.65498 0.88613 0.0
O561 O 0.72235 0.63447 0.88944 0.0
Cd562 Cd 0.69414 0.61302 0.9134 0.0
O563 O 0.70251 0.66342 0.89564 0.0
Cd564 Cd 0.68849 0.62976 0.91042 0.0
C565 C 0.72941 0.60538 0.94286 0.0
O566 O 0.66598 0.62895 0.94115 0.0
O567 O 0.66181 0.65796 0.92054 0.0
O568 O 0.66329 0.60205 0.89094 0.0
C569 C 0.65666 0.64756 0.93797 0.0
O570 O 0.71748 0.58932 0.93668 0.0
C571 C 0.66683 0.60964 0.87166 0.0
O572 O 0.72458 0.62434 0.93504 0.0
O573 O 0.68158 0.62447 0.8705 0.0
C574 C 0.21425 0.8911 0.09713 0.0
O575 O 0.20316 0.90711 0.08909 0.0
Cd576 Cd 0.1715 0.90326 0.06133 0.0
O577 O 0.20841 0.87154 0.09236 0.0
Cd578 Cd 0.17615 0.88113 0.07374 0.0
C579 C 0.20661 0.90153 0.02858 0.0
O580 O 0.147 0.87112 0.04994 0.0
O581 O 0.16445 0.84425 0.06632 0.0
O582 O 0.15574 0.90776 0.09902 0.0
C583 C 0.14864 0.85043 0.05396 0.0
O584 O 0.18989 0.91408 0.02716 0.0
C585 C 0.15382 0.89325 0.11427 0.0
O586 O 0.20749 0.88834 0.04502 0.0
O587 O 0.16307 0.87471 0.11079 0.0
C588 C 0.8828 0.4578 0.84839 0.0
O589 O 0.86244 0.46201 0.85188 0.0
Cd590 Cd 0.83054 0.44844 0.82698 0.0
O591 O 0.8874 0.44595 0.83175 0.0
Cd592 Cd 0.85089 0.43524 0.82314 0.0
C593 C 0.83785 0.48301 0.79436 0.0
O594 O 0.82495 0.41467 0.80247 0.0
O595 O 0.85983 0.40742 0.79734 0.0
O596 O 0.83352 0.42474 0.85989 0.0
C597 C 0.83972 0.40266 0.79342 0.0
O598 O 0.81943 0.47911 0.80344 0.0
C599 C 0.84874 0.41044 0.86328 0.0
O600 O 0.8541 0.47061 0.79941 0.0
O601 O 0.86437 0.40927 0.84933 0.0
C602 C 0.25985 0.09294 0.60203 0.0
O603 O 0.27436 0.10411 0.59204 0.0
Cd604 Cd 0.29715 0.06886 0.58304 0.0
O605 O 0.26395 0.07251 0.6044 0.0
Cd606 Cd 0.30276 0.07977 0.58771 0.0
C607 C 0.27056 0.07369 0.54368 0.0
O608 O 0.33412 0.06961 0.56642 0.0
O609 O 0.3255 0.10462 0.56774 0.0
O610 O 0.32849 0.07899 0.61954 0.0
C611 C 0.33926 0.08962 0.56201 0.0
O612 O 0.27366 0.05499 0.55266 0.0
C613 C 0.32457 0.09891 0.62538 0.0
O614 O 0.27985 0.09027 0.55266 0.0
O615 O 0.30871 0.10856 0.61556 0.0
C616 C 0.14064 0.03856 0.8352 0.0
O617 O 0.16127 0.04003 0.83911 0.0
Cd618 Cd 0.18815 0.06323 0.81582 0.0
O619 O 0.13286 0.05001 0.81949 0.0
Cd620 Cd 0.16454 0.07151 0.81438 0.0
C621 C 0.18488 0.02928 0.78161 0.0
O622 O 0.18298 0.0971 0.79129 0.0
O623 O 0.14702 0.09853 0.79349 0.0
O624 O 0.17885 0.08256 0.85201 0.0
C625 C 0.16488 0.10636 0.78567 0.0
O626 O 0.20288 0.03627 0.78966 0.0
C627 C 0.16026 0.09149 0.85687 0.0
O628 O 0.16701 0.03788 0.78861 0.0
O629 O 0.1447 0.08973 0.84293 0.0
C630 C 0.76284 0.41721 0.40015 0.0
O631 O 0.77029 0.43674 0.39801 0.0
Cd632 Cd 0.79471 0.44932 0.42891 0.0
O633 O 0.77251 0.40423 0.41332 0.0
Cd634 Cd 0.80608 0.41916 0.42614 0.0
C635 C 0.76598 0.42648 0.46507 0.0
O636 O 0.83149 0.44177 0.44648 0.0
O637 O 0.83062 0.40543 0.45111 0.0
O638 O 0.82318 0.42785 0.39063 0.0
C639 C 0.83981 0.42408 0.4549 0.0
O640 O 0.76907 0.44648 0.45956 0.0
C641 C 0.83181 0.40857 0.38906 0.0
O642 O 0.77707 0.41145 0.45527 0.0
O643 O 0.82649 0.39406 0.40347 0.0
C644 C 0.87126 0.53583 0.65622 0.0
O645 O 0.85405 0.54632 0.66173 0.0
Cd646 Cd 0.86629 0.57637 0.68802 0.0
O647 O 0.88923 0.54344 0.66379 0.0
Cd648 Cd 0.87182 0.57478 0.68368 0.0
C649 C 0.85035 0.54841 0.7241 0.0
O650 O 0.90709 0.58592 0.69375 0.0
O651 O 0.88283 0.6027 0.71323 0.0
O652 O 0.84214 0.59794 0.66446 0.0
C653 C 0.90319 0.59992 0.70883 0.0
O654 O 0.84882 0.56923 0.72547 0.0
C655 C 0.85352 0.60067 0.64692 0.0
O656 O 0.85805 0.54127 0.70606 0.0
O657 O 0.87221 0.5911 0.64662 0.0
C658 C 0.62714 0.47892 0.15566 0.0
O659 O 0.64676 0.4731 0.15065 0.0
Cd660 Cd 0.66767 0.44099 0.16835 0.0
O661 O 0.61636 0.46652 0.16866 0.0
Cd662 Cd 0.64192 0.43744 0.17098 0.0
C663 C 0.67174 0.47352 0.20321 0.0
O664 O 0.65629 0.40966 0.19394 0.0
O665 O 0.6206 0.41427 0.19433 0.0
O666 O 0.65041 0.41601 0.13663 0.0
C667 C 0.63745 0.40372 0.20126 0.0
O668 O 0.68802 0.46276 0.19556 0.0
C669 C 0.63065 0.41839 0.12958 0.0
O670 O 0.65261 0.46907 0.19601 0.0
O671 O 0.61855 0.43209 0.13986 0.0
C672 C 0.55439 0.8337 0.91846 0.0
O673 O 0.56448 0.83585 0.93678 0.0
Cd674 Cd 0.58324 0.80319 0.95538 0.0
O675 O 0.55747 0.81622 0.90736 0.0
Cd676 Cd 0.58686 0.80072 0.92775 0.0
C677 C 0.54164 0.77677 0.95169 0.0
O678 O 0.60914 0.77258 0.94328 0.0
O679 O 0.6027 0.77252 0.90746 0.0
O680 O 0.61029 0.8328 0.93721 0.0
C681 C 0.61206 0.76384 0.92424 0.0
O682 O 0.5519 0.78195 0.9692 0.0
C683 C 0.61522 0.83606 0.91685 0.0
O684 O 0.54983 0.78262 0.93326 0.0
O685 O 0.60688 0.82307 0.90252 0.0
C686 C 0.39732 0.26563 0.18111 0.0
O687 O 0.39408 0.28438 0.18979 0.0
Cd688 Cd 0.43344 0.28962 0.20117 0.0
O689 O 0.41701 0.26049 0.17665 0.0
Cd690 Cd 0.43786 0.29385 0.16709 0.0
C691 C 0.46516 0.25063 0.17694 0.0
O692 O 0.45475 0.32233 0.19232 0.0
O693 O 0.47324 0.30812 0.16448 0.0
O694 O 0.40575 0.31549 0.15796 0.0
C695 C 0.47184 0.32238 0.17981 0.0
O696 O 0.45778 0.25684 0.19569 0.0
C697 C 0.40978 0.31726 0.13742 0.0
O698 O 0.46004 0.26146 0.15963 0.0
O699 O 0.42699 0.30753 0.13013 0.0
C700 C 0.94742 0.14591 0.36463 0.0
O701 O 0.94296 0.14882 0.38486 0.0
Cd702 Cd 0.91582 0.18035 0.38557 0.0
O703 O 0.93656 0.15767 0.35117 0.0
Cd704 Cd 0.91504 0.17753 0.37942 0.0
C705 C 0.95262 0.20958 0.39599 0.0
O706 O 0.89606 0.19322 0.3506 0.0
O707 O 0.89094 0.21149 0.38054 0.0
O708 O 0.89692 0.15688 0.41172 0.0
C709 C 0.88649 0.20919 0.36012 0.0
O710 O 0.93371 0.21302 0.40424 0.0
C711 C 0.88802 0.14308 0.39848 0.0
O712 O 0.95417 0.19282 0.38368 0.0
O713 O 0.89296 0.14451 0.37814 0.0
C714 C 0.08089 0.69934 0.6324 0.0
O715 O 0.08739 0.69426 0.65161 0.0
Cd716 Cd 0.05737 0.67275 0.67077 0.0
O717 O 0.06184 0.69235 0.62716 0.0
Cd718 Cd 0.05571 0.67044 0.66099 0.0
C719 C 0.03577 0.71471 0.6803 0.0
O720 O 0.02546 0.65352 0.65004 0.0
O721 O 0.02622 0.65268 0.68562 0.0
O722 O 0.09186 0.64979 0.66275 0.0
C723 C 0.01639 0.6472 0.66783 0.0
O724 O 0.03699 0.69961 0.69474 0.0
C725 C 0.08669 0.63888 0.64531 0.0
O726 O 0.04463 0.71073 0.66185 0.0
O727 O 0.06784 0.64248 0.63687 0.0
C728 C 0.53602 0.16946 0.60466 0.0
O729 O 0.54646 0.16464 0.58718 0.0
Cd730 Cd 0.57698 0.19373 0.58586 0.0
O731 O 0.5437 0.185 0.61643 0.0
Cd732 Cd 0.57574 0.19106 0.59271 0.0
C733 C 0.54551 0.2258 0.56755 0.0
O734 O 0.59181 0.20753 0.62238 0.0
O735 O 0.60609 0.22069 0.59275 0.0
O736 O 0.59315 0.15563 0.57785 0.0
C737 C 0.60616 0.22004 0.6138 0.0
O738 O 0.56601 0.22959 0.56672 0.0
C739 C 0.59384 0.14723 0.59725 0.0
O740 O 0.54021 0.20729 0.57549 0.0
O741 O 0.58555 0.15851 0.61282 0.0
C742 C 0.0962 0.30153 0.88547 0.0
O743 O 0.09449 0.30508 0.86494 0.0
Cd744 Cd 0.06244 0.33188 0.86279 0.0
O745 O 0.08315 0.31246 0.8976 0.0
Cd746 Cd 0.06433 0.33248 0.86746 0.0
C747 C 0.03479 0.29581 0.84764 0.0
O748 O 0.04845 0.35034 0.89747 0.0
O749 O 0.02936 0.355 0.86803 0.0
O750 O 0.08067 0.35542 0.83617 0.0
C751 C 0.03187 0.35928 0.88846 0.0
O752 O 0.02966 0.31555 0.84311 0.0
C753 C 0.09659 0.36169 0.84841 0.0
O754 O 0.05268 0.29315 0.85793 0.0
O755 O 0.09834 0.353 0.8674 0.0
C756 C 0.95091 0.84119 0.09978 0.0
O757 O 0.94117 0.84264 0.08134 0.0
Cd758 Cd 0.91515 0.80956 0.08141 0.0
O759 O 0.94436 0.82615 0.11278 0.0
Cd760 Cd 0.91578 0.81218 0.08834 0.0
C761 C 0.95124 0.78278 0.06331 0.0
O762 O 0.90372 0.79348 0.11848 0.0
O763 O 0.89168 0.77759 0.08925 0.0
O764 O 0.88941 0.84056 0.07193 0.0
C765 C 0.89168 0.77852 0.11028 0.0
O766 O 0.93142 0.77654 0.06128 0.0
C767 C 0.88756 0.85007 0.09073 0.0
O768 O 0.95387 0.80139 0.0723 0.0
O769 O 0.8996 0.84312 0.10635 0.0
C770 C 0.40304 0.69639 0.37661 0.0
O771 O 0.39916 0.6785 0.36649 0.0
Cd772 Cd 0.43955 0.6702 0.36743 0.0
O773 O 0.42264 0.69978 0.38292 0.0
Cd774 Cd 0.44686 0.6667 0.36792 0.0
C775 C 0.47239 0.70467 0.34737 0.0
O776 O 0.44817 0.66252 0.40703 0.0
O777 O 0.47413 0.64588 0.38923 0.0
O778 O 0.43395 0.62833 0.36487 0.0
C779 C 0.46502 0.65008 0.40773 0.0
O780 O 0.45304 0.70709 0.35459 0.0
C781 C 0.42014 0.6303 0.34933 0.0
O782 O 0.47955 0.685 0.34831 0.0
O783 O 0.41948 0.64924 0.34024 0.0
C784 C 0.93571 0.52243 0.84746 0.0
O785 O 0.95458 0.5256 0.83891 0.0
Cd786 Cd 0.9549 0.54628 0.80408 0.0
O787 O 0.91918 0.53278 0.83995 0.0
Cd788 Cd 0.90716 0.5608 0.81509 0.0
C789 C 0.91259 0.51713 0.78056 0.0
O790 O 0.93877 0.5829 0.80122 0.0
O791 O 0.90827 0.5803 0.78201 0.0
O792 O 0.90037 0.58209 0.8479 0.0
C793 C 0.9274 0.58853 0.78429 0.0
O794 O 0.93308 0.52189 0.78091 0.0
C795 C 0.88006 0.58589 0.84416 0.0
O796 O 0.89863 0.5275 0.79259 0.0
O797 O 0.87178 0.57761 0.82664 0.0
C798 C 0.69301 0.63017 0.07673 0.0
O799 O 0.69087 0.65062 0.08145 0.0
Cd800 Cd 0.66691 0.67941 0.06232 0.0
O801 O 0.68059 0.62244 0.06173 0.0
Cd802 Cd 0.65809 0.65432 0.05622 0.0
C803 C 0.70414 0.67901 0.03292 0.0
O804 O 0.64017 0.6776 0.03047 0.0
O805 O 0.63556 0.6419 0.02704 0.0
O806 O 0.64836 0.66419 0.09537 0.0
C807 C 0.63199 0.66135 0.01969 0.0
O808 O 0.69662 0.69634 0.04205 0.0
C809 C 0.63298 0.64971 0.09598 0.0
O810 O 0.6944 0.66071 0.03637 0.0
O811 O 0.62911 0.63914 0.07824 0.0
C812 C 0.63156 0.45681 0.34934 0.0
O813 O 0.61061 0.45724 0.34742 0.0
Cd814 Cd 0.58924 0.43448 0.31782 0.0
O815 O 0.64201 0.44393 0.3366 0.0
Cd816 Cd 0.60955 0.42897 0.32002 0.0
C817 C 0.58604 0.47564 0.29654 0.0
O818 O 0.601 0.40775 0.28822 0.0
O819 O 0.6354 0.409 0.29792 0.0
O820 O 0.6127 0.39901 0.3457 0.0
C821 C 0.62077 0.4011 0.28515 0.0
O822 O 0.56941 0.46303 0.29793 0.0
C823 C 0.59583 0.40235 0.3576 0.0
O824 O 0.60435 0.46876 0.30428 0.0
O825 O 0.58367 0.41874 0.35258 0.0
C826 C 0.80377 0.37432 0.57663 0.0
O827 O 0.80325 0.3542 0.57102 0.0
Cd828 Cd 0.83591 0.35216 0.54431 0.0
O829 O 0.81976 0.38537 0.56918 0.0
Cd830 Cd 0.83707 0.35488 0.54777 0.0
C831 C 0.80398 0.33736 0.51172 0.0
O832 O 0.85289 0.38906 0.53852 0.0
O833 O 0.86191 0.36414 0.51507 0.0
O834 O 0.86821 0.33051 0.56043 0.0
C835 C 0.86361 0.38419 0.52127 0.0
O836 O 0.82329 0.34222 0.50559 0.0
C837 C 0.86497 0.33484 0.58071 0.0
O838 O 0.80064 0.338 0.53228 0.0
O839 O 0.84781 0.34589 0.58541 0.0
C840 C 0.87519 0.4443 0.66042 0.0
O841 O 0.89384 0.43943 0.66881 0.0
Cd842 Cd 0.90149 0.40612 0.69373 0.0
O843 O 0.85983 0.4303 0.66218 0.0
Cd844 Cd 0.87861 0.40425 0.68506 0.0
C845 C 0.90136 0.44188 0.7231 0.0
O846 O 0.87597 0.38201 0.71661 0.0
O847 O 0.8451 0.38937 0.69974 0.0
O848 O 0.90733 0.38213 0.66329 0.0
C849 C 0.85506 0.37966 0.7155 0.0
O850 O 0.9169 0.4278 0.72316 0.0
C851 C 0.8921 0.37348 0.65157 0.0
O852 O 0.885 0.43871 0.71026 0.0
O853 O 0.87241 0.37984 0.65497 0.0
C854 C 0.78851 0.69823 0.90025 0.0
O855 O 0.80637 0.70887 0.8985 0.0
Cd856 Cd 0.81327 0.71126 0.93856 0.0
O857 O 0.78479 0.68777 0.91794 0.0
Cd858 Cd 0.81675 0.67329 0.93752 0.0
C859 C 0.77596 0.68268 0.96952 0.0
O860 O 0.84728 0.69756 0.95304 0.0
O861 O 0.83433 0.669 0.97121 0.0
O862 O 0.83563 0.66349 0.90388 0.0
C863 C 0.84845 0.68442 0.96951 0.0
O864 O 0.7825 0.70196 0.96404 0.0
C865 C 0.83501 0.6427 0.90691 0.0
O866 O 0.78526 0.66573 0.96123 0.0
O867 O 0.82558 0.63576 0.92443 0.0
C868 C 0.61203 0.55982 0.18849 0.0
O869 O 0.59738 0.57456 0.18924 0.0
Cd870 Cd 0.61128 0.59442 0.22331 0.0
O871 O 0.62709 0.56096 0.20304 0.0
Cd872 Cd 0.61219 0.59629 0.2193 0.0
C873 C 0.59576 0.55872 0.2505 0.0
O874 O 0.64831 0.60972 0.22805 0.0
O875 O 0.6239 0.62218 0.25038 0.0
O876 O 0.58912 0.62086 0.19416 0.0
C877 C 0.644 0.62236 0.24417 0.0
O878 O 0.61581 0.56432 0.25083 0.0
C879 C 0.60428 0.62123 0.17949 0.0
O880 O 0.5832 0.57017 0.23817 0.0
O881 O 0.62171 0.61041 0.18345 0.0
C882 C 0.69505 0.36596 0.41359 0.0
O883 O 0.69145 0.34609 0.40772 0.0
Cd884 Cd 0.68278 0.315 0.43415 0.0
O885 O 0.69162 0.37101 0.43366 0.0
Cd886 Cd 0.67232 0.33945 0.44701 0.0
C887 C 0.72526 0.32437 0.45849 0.0
O888 O 0.65935 0.30868 0.46811 0.0
O889 O 0.65968 0.34221 0.48269 0.0
O890 O 0.6474 0.34069 0.41525 0.0
C891 C 0.655 0.3217 0.48431 0.0
O892 O 0.71937 0.30701 0.44833 0.0
C893 C 0.63565 0.35617 0.42377 0.0
O894 O 0.71171 0.34042 0.45971 0.0
O895 O 0.64051 0.36226 0.44331 0.0
C896 C 0.82709 0.87213 0.54494 0.0
O897 O 0.8287 0.89299 0.5447 0.0
Cd898 Cd 0.80381 0.90709 0.57579 0.0
O899 O 0.81488 0.86435 0.55996 0.0
Cd900 Cd 0.8058 0.89919 0.57773 0.0
C901 C 0.77462 0.92068 0.54046 0.0
O902 O 0.7832 0.8785 0.59875 0.0
O903 O 0.77691 0.91266 0.60574 0.0
O904 O 0.84316 0.91474 0.58938 0.0
C905 C 0.7725 0.89251 0.60996 0.0
O906 O 0.77298 0.92999 0.55911 0.0
C907 C 0.84851 0.8961 0.59793 0.0
O908 O 0.7893 0.90597 0.53877 0.0
O909 O 0.83436 0.88074 0.59711 0.0
C910 C 0.34091 0.60361 0.45076 0.0
O911 O 0.33356 0.58656 0.44081 0.0
Cd912 Cd 0.30094 0.5871 0.4133 0.0
O913 O 0.33344 0.6223 0.44496 0.0
Cd914 Cd 0.31128 0.60925 0.41588 0.0
C915 C 0.27666 0.58174 0.45324 0.0
O916 O 0.28159 0.61793 0.39222 0.0
O917 O 0.299 0.64574 0.40678 0.0
O918 O 0.33287 0.58465 0.38949 0.0
C919 C 0.2845 0.63883 0.3933 0.0
O920 O 0.27205 0.5706 0.43611 0.0
C921 C 0.34675 0.6001 0.38582 0.0
O922 O 0.2915 0.59655 0.45162 0.0
O923 O 0.3446 0.61793 0.39667 0.0
C924 C 0.66842 0.09922 0.70975 0.0
O925 O 0.68455 0.10358 0.69716 0.0
Cd926 Cd 0.69762 0.06545 0.69119 0.0
O927 O 0.66038 0.07994 0.70938 0.0
Cd928 Cd 0.66564 0.05734 0.67677 0.0
C929 C 0.67153 0.03067 0.7238 0.0
O930 O 0.70008 0.04354 0.65787 0.0
O931 O 0.66993 0.02334 0.66129 0.0
O932 O 0.65774 0.08822 0.65256 0.0
C933 C 0.68932 0.02578 0.65353 0.0
O934 O 0.68997 0.04058 0.72215 0.0
C935 C 0.63912 0.08103 0.64589 0.0
O936 O 0.65677 0.03366 0.70907 0.0
O937 O 0.63258 0.06256 0.65377 0.0
C938 C 0.16444 0.3867 0.94687 0.0
O939 O 0.16453 0.40763 0.94437 0.0
Cd940 Cd 0.19234 0.43057 0.92295 0.0
O941 O 0.1785 0.37569 0.93593 0.0
Cd942 Cd 0.19353 0.40423 0.91339 0.0
C943 C 0.21984 0.42092 0.9609 0.0
O944 O 0.22289 0.42248 0.89562 0.0
O945 O 0.22046 0.38656 0.89193 0.0
O946 O 0.16308 0.42384 0.89413 0.0
C947 C 0.23033 0.40459 0.8872 0.0
O948 O 0.21549 0.44016 0.95383 0.0
C949 C 0.15912 0.40666 0.88242 0.0
O950 O 0.21257 0.40431 0.95033 0.0
O951 O 0.16997 0.38914 0.88675 0.0
C952 C 0.38017 0.42679 0.69275 0.0
O953 O 0.36857 0.42779 0.67544 0.0
Cd954 Cd 0.38502 0.46354 0.66083 0.0
O955 O 0.39505 0.44132 0.69488 0.0
Cd956 Cd 0.38608 0.46135 0.6598 0.0
C957 C 0.36547 0.48961 0.69634 0.0
O958 O 0.42402 0.46792 0.65093 0.0
O959 O 0.40376 0.496 0.64384 0.0
O960 O 0.36545 0.44583 0.62676 0.0
C961 C 0.42285 0.48717 0.64285 0.0
O962 O 0.38611 0.48776 0.69435 0.0
C963 C 0.37832 0.42922 0.62505 0.0
O964 O 0.35397 0.47989 0.68174 0.0
O965 O 0.39322 0.42712 0.63956 0.0
C966 C 0.66943 0.1001 0.04837 0.0
O967 O 0.66841 0.07965 0.05328 0.0
Cd968 Cd 0.69986 0.05976 0.07409 0.0
O969 O 0.68598 0.11087 0.05526 0.0
Cd970 Cd 0.70004 0.08227 0.0778 0.0
C971 C 0.72153 0.05471 0.03244 0.0
O972 O 0.72973 0.07297 0.10114 0.0
O973 O 0.72285 0.10789 0.09603 0.0
O974 O 0.66966 0.06239 0.09936 0.0
C975 C 0.73371 0.09306 0.10618 0.0
O976 O 0.71739 0.03842 0.0449 0.0
C977 C 0.66253 0.08081 0.10681 0.0
O978 O 0.71618 0.07385 0.03936 0.0
O979 O 0.67172 0.0983 0.09983 0.0
C980 C 0.6245 0.91091 0.8044 0.0
O981 O 0.64441 0.91132 0.81076 0.0
Cd982 Cd 0.6469 0.9445 0.83637 0.0
O983 O 0.61208 0.92571 0.8125 0.0
Cd984 Cd 0.64068 0.94163 0.83649 0.0
C985 C 0.66041 0.97177 0.79905 0.0
O986 O 0.61249 0.96116 0.85302 0.0
O987 O 0.64379 0.976 0.86039 0.0
O988 O 0.66482 0.9152 0.85862 0.0
C989 C 0.62296 0.97609 0.86327 0.0
O990 O 0.66395 0.97804 0.81863 0.0
C991 C 0.64782 0.90446 0.86504 0.0
O992 O 0.65207 0.95278 0.79693 0.0
O993 O 0.62924 0.9101 0.85724 0.0
C994 C 0.8596 0.08743 0.30335 0.0
O995 O 0.84206 0.07822 0.30999 0.0
Cd996 Cd 0.85665 0.04836 0.33586 0.0
O997 O 0.87734 0.07939 0.3109 0.0
Cd998 Cd 0.8601 0.05188 0.3356 0.0
C999 C 0.84003 0.01507 0.30513 0.0
O1000 O 0.89788 0.04849 0.34217 0.0
O1001 O 0.88032 0.02084 0.35533 0.0
O1002 O 0.83883 0.05856 0.37122 0.0
C1003 C 0.89872 0.03076 0.35316 0.0
O1004 O 0.84591 0.00946 0.32436 0.0
C1005 C 0.84295 0.07918 0.37107 0.0
O1006 O 0.84094 0.03551 0.3011 0.0
O1007 O 0.85217 0.08684 0.35391 0.0
C1008 C 0.39272 0.21208 0.11713 0.0
O1009 O 0.38739 0.21175 0.09676 0.0
Cd1010 Cd 0.41303 0.1958 0.06657 0.0
O1011 O 0.41048 0.20252 0.12269 0.0
Cd1012 Cd 0.41837 0.18563 0.08851 0.0
C1013 C 0.44347 0.23268 0.06875 0.0
O1014 O 0.44102 0.16391 0.06566 0.0
O1015 O 0.44644 0.16216 0.10135 0.0
O1016 O 0.38242 0.17063 0.07326 0.0
C1017 C 0.45148 0.15562 0.082 0.0
O1018 O 0.43302 0.22727 0.05146 0.0
C1019 C 0.38001 0.15838 0.09032 0.0
O1020 O 0.44033 0.22122 0.08609 0.0
O1021 O 0.39412 0.16006 0.10575 0.0
C1022 C 0.53176 0.654 0.85705 0.0
O1023 O 0.53817 0.6581 0.83756 0.0
Cd1024 Cd 0.57221 0.68194 0.84275 0.0
O1025 O 0.5442 0.66071 0.87246 0.0
Cd1026 Cd 0.5719 0.67763 0.84865 0.0
C1027 C 0.54369 0.72022 0.83348 0.0
O1028 O 0.58812 0.6834 0.88186 0.0
O1029 O 0.6035 0.70388 0.85753 0.0
O1030 O 0.59503 0.6559 0.82121 0.0
C1031 C 0.6035 0.69672 0.8773 0.0
O1032 O 0.56425 0.72136 0.82988 0.0
C1033 C 0.59482 0.63839 0.83299 0.0
O1034 O 0.53709 0.7016 0.8402 0.0
O1035 O 0.58201 0.63878 0.84959 0.0
C1036 C 0.0871 0.78294 0.60566 0.0
O1037 O 0.0817 0.79296 0.58797 0.0
Cd1038 Cd 0.05626 0.82667 0.58633 0.0
O1039 O 0.08138 0.79154 0.6239 0.0
Cd1040 Cd 0.06715 0.82481 0.60919 0.0
C1041 C 0.02124 0.79453 0.58992 0.0
O1042 O 0.0452 0.8566 0.61441 0.0
O1043 O 0.06215 0.84363 0.64337 0.0
O1044 O 0.09297 0.84264 0.58146 0.0
C1045 C 0.05043 0.85884 0.63477 0.0
O1046 O 0.02272 0.80807 0.57401 0.0
C1047 C 0.109 0.84282 0.59519 0.0
O1048 O 0.03556 0.79614 0.6053 0.0
O1049 O 0.10571 0.83316 0.61355 0.0
C1050 C 0.95219 0.34227 0.38384 0.0
O1051 O 0.95428 0.34589 0.36316 0.0
Cd1052 Cd 0.9372 0.32387 0.33131 0.0
O1053 O 0.93928 0.32685 0.38974 0.0
Cd1054 Cd 0.92438 0.32034 0.35407 0.0
C1055 C 0.97207 0.29199 0.33911 0.0
O1056 O 0.90466 0.29795 0.32855 0.0
O1057 O 0.89668 0.29472 0.36355 0.0
O1058 O 0.91418 0.35742 0.33807 0.0
C1059 C 0.89268 0.28934 0.3436 0.0
O1060 O 0.96706 0.29942 0.32021 0.0
C1061 C 0.9007 0.36091 0.354 0.0
O1062 O 0.96055 0.29819 0.35558 0.0
O1063 O 0.89967 0.34664 0.36935 0.0
C1064 C 0.38109 0.78099 0.39013 0.0
O1065 O 0.3839 0.78817 0.40973 0.0
Cd1066 Cd 0.40827 0.81956 0.42245 0.0
O1067 O 0.38955 0.79204 0.37444 0.0
Cd1068 Cd 0.40265 0.82329 0.39406 0.0
C1069 C 0.44256 0.78698 0.41302 0.0
O1070 O 0.42939 0.85 0.40398 0.0
O1071 O 0.42187 0.84643 0.3688 0.0
O1072 O 0.371 0.83787 0.41591 0.0
C1073 C 0.43284 0.85603 0.38405 0.0
O1074 O 0.44015 0.79735 0.43106 0.0
C1075 C 0.3612 0.84422 0.39825 0.0
O1076 O 0.42995 0.79163 0.39687 0.0
O1077 O 0.37017 0.83951 0.37979 0.0
C1078 C 0.97595 0.65316 0.12606 0.0
O1079 O 0.97312 0.64906 0.14652 0.0
Cd1080 Cd 0.94788 0.67162 0.17196 0.0
O1081 O 0.9643 0.66818 0.11732 0.0
Cd1082 Cd 0.94086 0.67436 0.14721 0.0
C1083 C 0.98263 0.70539 0.17234 0.0
O1084 O 0.91443 0.69673 0.16499 0.0
O1085 O 0.91734 0.69856 0.129 0.0
O1086 O 0.92073 0.6481 0.12554 0.0
C1087 C 0.90747 0.70446 0.1466 0.0
O1088 O 0.97494 0.69607 0.18946 0.0
C1089 C 0.91729 0.6338 0.14054 0.0
O1090 O 0.97444 0.69969 0.15378 0.0
O1091 O 0.92644 0.63712 0.15935 0.0
C1092 C 0.09421 0.21527 0.89372 0.0
O1093 O 0.08699 0.20264 0.90893 0.0
Cd1094 Cd 0.05973 0.1707 0.90245 0.0
O1095 O 0.08898 0.21065 0.87396 0.0
Cd1096 Cd 0.07157 0.1766 0.88179 0.0
C1097 C 0.02554 0.20311 0.90531 0.0
O1098 O 0.04851 0.14799 0.86884 0.0
O1099 O 0.06624 0.16651 0.84368 0.0
O1100 O 0.09403 0.15194 0.90761 0.0
C1101 C 0.05343 0.15055 0.84848 0.0
O1102 O 0.02542 0.18556 0.91672 0.0
C1103 C 0.11125 0.15308 0.89552 0.0
O1104 O 0.04124 0.20566 0.89148 0.0
O1105 O 0.11003 0.16582 0.87885 0.0
C1106 C 0.52871 0.34409 0.64546 0.0
O1107 O 0.53258 0.34589 0.66608 0.0
Cd1108 Cd 0.55709 0.31869 0.68762 0.0
O1109 O 0.53874 0.3291 0.63481 0.0
Cd1110 Cd 0.56273 0.31923 0.6634 0.0
C1111 C 0.52046 0.28757 0.68578 0.0
O1112 O 0.58983 0.29434 0.67628 0.0
O1113 O 0.5862 0.29874 0.64068 0.0
O1114 O 0.57716 0.35425 0.68104 0.0
C1115 C 0.59666 0.29014 0.65675 0.0
O1116 O 0.52986 0.29345 0.70353 0.0
C1117 C 0.58508 0.3608 0.66254 0.0
O1118 O 0.52805 0.29531 0.66774 0.0
O1119 O 0.58097 0.34914 0.64559 0.0
C1120 C 0.13482 0.40197 0.21149 0.0
O1121 O 0.11528 0.39517 0.21549 0.0
Cd1122 Cd 0.07981 0.41596 0.20327 0.0
O1123 O 0.13663 0.41998 0.20096 0.0
Cd1124 Cd 0.09903 0.42305 0.19078 0.0
C1125 C 0.08161 0.44614 0.24024 0.0
O1126 O 0.07097 0.44332 0.17237 0.0
O1127 O 0.10523 0.45135 0.16472 0.0
O1128 O 0.11542 0.39949 0.16366 0.0
C1129 C 0.0848 0.45493 0.16152 0.0
O1130 O 0.06477 0.43469 0.23554 0.0
C1131 C 0.1024 0.38312 0.16518 0.0
O1132 O 0.09847 0.44438 0.22776 0.0
O1133 O 0.08698 0.38415 0.1796 0.0
C1134 C 0.36111 0.38706 0.97013 0.0
O1135 O 0.35769 0.36673 0.97382 0.0
Cd1136 Cd 0.3314 0.35717 0.94262 0.0
O1137 O 0.35096 0.39498 0.95374 0.0
Cd1138 Cd 0.33284 0.36086 0.94109 0.0
C1139 C 0.29688 0.34485 0.97414 0.0
O1140 O 0.32263 0.38845 0.91657 0.0
O1141 O 0.30144 0.36031 0.91387 0.0
O1142 O 0.34741 0.3279 0.92017 0.0
C1143 C 0.30683 0.37927 0.9066 0.0
O1144 O 0.29578 0.33845 0.9543 0.0
C1145 C 0.36652 0.33613 0.91717 0.0
O1146 O 0.31399 0.35573 0.97908 0.0
O1147 O 0.37076 0.35352 0.92815 0.0
C1148 C 0.44145 0.58921 0.73754 0.0
O1149 O 0.45152 0.57177 0.74317 0.0
Cd1150 Cd 0.47469 0.54815 0.72055 0.0
O1151 O 0.44163 0.59501 0.71749 0.0
Cd1152 Cd 0.43703 0.56417 0.69197 0.0
C1153 C 0.43214 0.51898 0.73075 0.0
O1154 O 0.46625 0.53848 0.68294 0.0
O1155 O 0.46562 0.56765 0.66294 0.0
O1156 O 0.41733 0.59204 0.67058 0.0
C1157 C 0.4716 0.54768 0.66496 0.0
O1158 O 0.45296 0.51871 0.73357 0.0
C1159 C 0.40358 0.5791 0.66155 0.0
O1160 O 0.42284 0.53355 0.71831 0.0
O1161 O 0.40444 0.55881 0.66718 0.0
C1162 C 0.16619 0.61866 0.45181 0.0
O1163 O 0.16048 0.63843 0.45643 0.0
Cd1164 Cd 0.17258 0.67351 0.43613 0.0
O1165 O 0.17701 0.61526 0.43426 0.0
Cd1166 Cd 0.17649 0.65253 0.42229 0.0
C1167 C 0.2073 0.67018 0.468 0.0
O1168 O 0.1983 0.67924 0.40359 0.0
O1169 O 0.19893 0.64545 0.39124 0.0
O1170 O 0.13637 0.66525 0.41919 0.0
C1171 C 0.20608 0.66518 0.38994 0.0
O1172 O 0.19642 0.68782 0.46492 0.0
C1173 C 0.13234 0.65001 0.40509 0.0
O1174 O 0.20293 0.65347 0.45593 0.0
O1175 O 0.14806 0.63712 0.39996 0.0
C1176 C 0.12229 0.5793 0.29239 0.0
O1177 O 0.10196 0.57601 0.29591 0.0
Cd1178 Cd 0.10181 0.55454 0.33203 0.0
O1179 O 0.13535 0.57377 0.30769 0.0
Cd1180 Cd 0.10719 0.55757 0.33203 0.0
C1181 C 0.08704 0.51718 0.30513 0.0
O1182 O 0.1398 0.54806 0.34893 0.0
O1183 O 0.11356 0.52853 0.36205 0.0
O1184 O 0.08006 0.58063 0.35487 0.0
C1185 C 0.13408 0.53303 0.36224 0.0
O1186 O 0.0838 0.51695 0.32578 0.0
C1187 C 0.09074 0.59852 0.35172 0.0
O1188 O 0.09595 0.53449 0.29773 0.0
O1189 O 0.10716 0.59721 0.33878 0.0
C1190 C 0.16094 0.36082 0.03196 0.0
O1191 O 0.16642 0.34191 0.03944 0.0
Cd1192 Cd 0.19224 0.33476 0.07218 0.0
O1193 O 0.16775 0.37763 0.04242 0.0
Cd1194 Cd 0.1837 0.35886 0.07297 0.0
C1195 C 0.22613 0.33699 0.03971 0.0
O1196 O 0.2097 0.35912 0.10185 0.0
O1197 O 0.19552 0.39093 0.09282 0.0
O1198 O 0.15805 0.33155 0.09183 0.0
C1199 C 0.20796 0.37982 0.10564 0.0
O1200 O 0.2238 0.3205 0.05242 0.0
C1201 C 0.14406 0.34665 0.09644 0.0
O1202 O 0.21294 0.35326 0.04213 0.0
O1203 O 0.14762 0.36568 0.08826 0.0
C1204 C 0.37232 0.39269 0.77569 0.0
O1205 O 0.39065 0.39659 0.78528 0.0
Cd1206 Cd 0.39422 0.41845 0.82166 0.0
O1207 O 0.35489 0.39754 0.78617 0.0
Cd1208 Cd 0.37231 0.41033 0.81884 0.0
C1209 C 0.40165 0.45222 0.79098 0.0
O1210 O 0.36681 0.43693 0.84694 0.0
O1211 O 0.3371 0.42183 0.83374 0.0
O1212 O 0.39946 0.38415 0.83823 0.0
C1213 C 0.34581 0.43544 0.84713 0.0
O1214 O 0.41402 0.4501 0.80773 0.0
C1215 C 0.38538 0.36869 0.84031 0.0
O1216 O 0.38505 0.43942 0.78917 0.0
O1217 O 0.36648 0.37247 0.83196 0.0
C1218 C 0.34084 0.62424 0.53418 0.0
O1219 O 0.34727 0.64223 0.54292 0.0
Cd1220 Cd 0.31974 0.66632 0.56244 0.0
O1221 O 0.32161 0.61752 0.53894 0.0
Cd1222 Cd 0.31137 0.63814 0.57073 0.0
C1223 C 0.28051 0.66223 0.53013 0.0
O1224 O 0.2954 0.66422 0.59595 0.0
O1225 O 0.28288 0.62986 0.59383 0.0
O1226 O 0.34694 0.63683 0.58967 0.0
C1227 C 0.28236 0.64896 0.60291 0.0
O1228 O 0.29382 0.67794 0.53399 0.0
C1229 C 0.34358 0.61722 0.59701 0.0
O1230 O 0.2829 0.64414 0.54068 0.0
O1231 O 0.32594 0.60725 0.59105 0.0
C1232 C 0.2245 0.1235 0.40992 0.0
O1233 O 0.2186 0.10366 0.40722 0.0
Cd1234 Cd 0.1849 0.10493 0.43217 0.0
O1235 O 0.21252 0.13472 0.42281 0.0
Cd1236 Cd 0.18377 0.10613 0.42872 0.0
C1237 C 0.21222 0.0908 0.46874 0.0
O1238 O 0.16282 0.13899 0.43226 0.0
O1239 O 0.15259 0.11421 0.45544 0.0
O1240 O 0.15829 0.0833 0.40588 0.0
C1241 C 0.14932 0.13331 0.44711 0.0
O1242 O 0.20015 0.10771 0.47047 0.0
C1243 C 0.16241 0.09335 0.38787 0.0
O1244 O 0.21089 0.08041 0.45057 0.0
O1245 O 0.1787 0.10652 0.38841 0.0
C1246 C 0.71928 0.38963 0.59988 0.0
O1247 O 0.70811 0.4056 0.59193 0.0
Cd1248 Cd 0.67236 0.39959 0.56933 0.0
O1249 O 0.71113 0.37047 0.59808 0.0
Cd1250 Cd 0.67775 0.38124 0.58062 0.0
C1251 C 0.70186 0.40738 0.53456 0.0
O1252 O 0.65204 0.36526 0.55636 0.0
O1253 O 0.66983 0.34205 0.57705 0.0
O1254 O 0.64928 0.4064 0.59961 0.0
C1255 C 0.65528 0.34532 0.56232 0.0
O1256 O 0.68293 0.41628 0.53438 0.0
C1257 C 0.65176 0.39735 0.61841 0.0
O1258 O 0.70642 0.39414 0.55027 0.0
O1259 O 0.66672 0.38265 0.61951 0.0
C1260 C 0.36433 0.95984 0.32883 0.0
O1261 O 0.34425 0.95754 0.32313 0.0
Cd1262 Cd 0.33063 0.92171 0.3045 0.0
O1263 O 0.37687 0.94318 0.32728 0.0
Cd1264 Cd 0.34921 0.91911 0.31225 0.0
C1265 C 0.32814 0.95142 0.26922 0.0
O1266 O 0.35309 0.89067 0.28636 0.0
O1267 O 0.38035 0.89391 0.30925 0.0
O1268 O 0.31928 0.89826 0.33361 0.0
C1269 C 0.37201 0.88401 0.29271 0.0
O1270 O 0.31202 0.93858 0.27295 0.0
C1271 C 0.32633 0.90453 0.35238 0.0
O1272 O 0.34521 0.94946 0.2813 0.0
O1273 O 0.34194 0.91851 0.352 0.0
C1274 C 0.78114 0.61022 0.08003 0.0
O1275 O 0.79235 0.59369 0.07392 0.0
Cd1276 Cd 0.8245 0.60817 0.05147 0.0
O1277 O 0.78951 0.62899 0.07587 0.0
Cd1278 Cd 0.82297 0.61448 0.05745 0.0
C1279 C 0.7965 0.6012 0.01281 0.0
O1280 O 0.83673 0.64911 0.0513 0.0
O1281 O 0.85302 0.62563 0.03036 0.0
O1282 O 0.8468 0.58653 0.0779 0.0
C1283 C 0.85182 0.64546 0.03722 0.0
O1284 O 0.81712 0.59808 0.01137 0.0
C1285 C 0.84857 0.59886 0.09498 0.0
O1286 O 0.7896 0.60649 0.03179 0.0
O1287 O 0.8368 0.61627 0.09508 0.0
C1288 C 0.68101 0.53229 0.34782 0.0
O1289 O 0.6941 0.52871 0.33192 0.0
Cd1290 Cd 0.71334 0.55708 0.31059 0.0
O1291 O 0.67536 0.55195 0.35196 0.0
Cd1292 Cd 0.66858 0.57383 0.3188 0.0
C1293 C 0.68192 0.53527 0.27532 0.0
O1294 O 0.69736 0.59143 0.29746 0.0
O1295 O 0.68662 0.60952 0.3259 0.0
O1296 O 0.6393 0.58934 0.34144 0.0
C1297 C 0.69509 0.61004 0.30677 0.0
O1298 O 0.70245 0.53821 0.27853 0.0
C1299 C 0.62557 0.59343 0.32619 0.0
O1300 O 0.66736 0.54457 0.28772 0.0
O1301 O 0.63143 0.58777 0.30679 0.0
C1302 C 0.27307 0.87171 0.89717 0.0
O1303 O 0.27939 0.89077 0.90355 0.0
Cd1304 Cd 0.31197 0.89836 0.92959 0.0
O1305 O 0.28417 0.85513 0.90362 0.0
Cd1306 Cd 0.31195 0.87561 0.92202 0.0
C1307 C 0.27764 0.9005 0.96211 0.0
O1308 O 0.33909 0.87176 0.94842 0.0
O1309 O 0.3291 0.84104 0.9325 0.0
O1310 O 0.34366 0.8947 0.90315 0.0
C1311 C 0.34202 0.85105 0.94574 0.0
O1312 O 0.2924 0.91531 0.96084 0.0
C1313 C 0.33899 0.88737 0.88402 0.0
O1314 O 0.27935 0.88408 0.94905 0.0
O1315 O 0.31998 0.87887 0.88201 0.0
C1316 C 0.38088 0.03733 0.15295 0.0
O1317 O 0.36037 0.03455 0.14903 0.0
Cd1318 Cd 0.32957 0.05488 0.17089 0.0
O1319 O 0.38585 0.05105 0.16793 0.0
Cd1320 Cd 0.34972 0.06494 0.17366 0.0
C1321 C 0.32939 0.01853 0.20017 0.0
O1322 O 0.32889 0.08688 0.19838 0.0
O1323 O 0.36433 0.09203 0.19808 0.0
O1324 O 0.32941 0.07649 0.13828 0.0
C1325 C 0.34552 0.09747 0.20564 0.0
O1326 O 0.31172 0.02592 0.19179 0.0
C1327 C 0.34592 0.08809 0.1322 0.0
O1328 O 0.34744 0.0282 0.19538 0.0
O1329 O 0.36325 0.08719 0.14392 0.0
C1330 C 0.14506 0.96127 0.65244 0.0
O1331 O 0.16542 0.95596 0.65195 0.0
Cd1332 Cd 0.1838 0.92804 0.67788 0.0
O1333 O 0.13257 0.95107 0.66582 0.0
Cd1334 Cd 0.15839 0.92417 0.67627 0.0
C1335 C 0.18282 0.96273 0.71129 0.0
O1336 O 0.16925 0.89649 0.7016 0.0
O1337 O 0.13399 0.90115 0.69577 0.0
O1338 O 0.1763 0.9095 0.64151 0.0
C1339 C 0.14938 0.8906 0.70546 0.0
O1340 O 0.20001 0.95226 0.70551 0.0
C1341 C 0.15757 0.90332 0.63386 0.0
O1342 O 0.16459 0.95739 0.70221 0.0
O1343 O 0.14051 0.90813 0.64511 0.0
C1344 C 0.12226 0.23115 0.41498 0.0
C1345 C 0.10406 0.21836 0.42221 0.0
C1346 C 0.0937 0.24742 0.44815 0.0
C1347 C 0.10644 0.26215 0.43522 0.0
N1348 N 0.13922 0.26775 0.41392 0.0
N1349 N 0.08212 0.2092 0.45405 0.0
C1350 C 0.12349 0.25361 0.42173 0.0
C1351 C 0.09292 0.22474 0.4418 0.0
N1352 N 0.1374 0.22187 0.40106 0.0
N1353 N 0.08177 0.25543 0.4655 0.0
H1354 H 0.08348 0.19237 0.45046 0.0
H1355 H 0.07391 0.21257 0.46879 0.0
H1356 H 0.08406 0.27155 0.47122 0.0
H1357 H 0.07027 0.24622 0.47439 0.0
H1358 H 0.15114 0.2301 0.39482 0.0
H1359 H 0.13655 0.20514 0.39678 0.0
H1360 H 0.15175 0.2633 0.40301 0.0
H1361 H 0.13965 0.28425 0.41909 0.0
C1362 C 0.00468 0.8944 0.65378 0.0
C1363 C 0.0036 0.88399 0.67466 0.0
C1364 C 0.04254 0.87509 0.67211 0.0
C1365 C 0.0402 0.87634 0.64888 0.0
N1366 N 0.02543 0.89851 0.61939 0.0
N1367 N 0.02295 0.87285 0.70722 0.0
C1368 C 0.02342 0.89015 0.64023 0.0
C1369 C 0.02341 0.87812 0.68533 0.0
N1370 N 0.9865 0.90539 0.64629 0.0
N1371 N 0.06277 0.87113 0.6811 0.0
H1372 H 0.00862 0.87517 0.71659 0.0
H1373 H 0.03629 0.86599 0.71567 0.0
H1374 H 0.07688 0.86999 0.6712 0.0
H1375 H 0.06573 0.87158 0.69804 0.0
H1376 H 0.98516 0.91239 0.63063 0.0
H1377 H 0.97269 0.90746 0.65648 0.0
H1378 H 0.01365 0.90854 0.61187 0.0
H1379 H 0.03998 0.89652 0.61032 0.0
C1380 C 0.39449 0.7899 0.91815 0.0
C1381 C 0.39336 0.79053 0.89472 0.0
C1382 C 0.37101 0.75717 0.89475 0.0
C1383 C 0.38001 0.75247 0.91577 0.0
N1384 N 0.38917 0.76746 0.95132 0.0
N1385 N 0.36983 0.78278 0.86365 0.0
C1386 C 0.38773 0.77014 0.92898 0.0
C1387 C 0.37777 0.77684 0.88392 0.0
N1388 N 0.40137 0.80808 0.9296 0.0
N1389 N 0.35782 0.74179 0.88486 0.0
H1390 H 0.37365 0.79809 0.85663 0.0
H1391 H 0.35831 0.77362 0.85476 0.0
H1392 H 0.35297 0.72753 0.89336 0.0
H1393 H 0.35171 0.74309 0.86884 0.0
H1394 H 0.40283 0.80874 0.94673 0.0
H1395 H 0.40359 0.82334 0.92186 0.0
H1396 H 0.39603 0.77901 0.96206 0.0
H1397 H 0.38239 0.75362 0.9591 0.0
C1398 C 0.48826 0.14381 0.06632 0.0
C1399 C 0.46933 0.13911 0.07941 0.0
C1400 C 0.49077 0.11345 0.10204 0.0
C1401 C 0.51001 0.12289 0.09279 0.0
N1402 N 0.52662 0.13443 0.05871 0.0
N1403 N 0.45049 0.11319 0.1029 0.0
C1404 C 0.50856 0.13368 0.07218 0.0
C1405 C 0.4699 0.12141 0.09481 0.0
N1406 N 0.4874 0.15905 0.04969 0.0
N1407 N 0.49282 0.09781 0.11816 0.0
H1408 H 0.43522 0.11878 0.09709 0.0
H1409 H 0.44938 0.10023 0.11417 0.0
H1410 H 0.50825 0.09119 0.12224 0.0
H1411 H 0.47965 0.09109 0.12694 0.0
H1412 H 0.50143 0.1652 0.04183 0.0
H1413 H 0.4727 0.16589 0.04395 0.0
H1414 H 0.52632 0.14099 0.04279 0.0
H1415 H 0.54117 0.12608 0.06281 0.0
C1416 C 0.10805 0.7995 0.08419 0.0
C1417 C 0.11639 0.79673 0.10592 0.0
C1418 C 0.1326 0.76153 0.09571 0.0
C1419 C 0.11805 0.76124 0.07744 0.0
N1420 N 0.09998 0.7819 0.04883 0.0
N1421 N 0.14597 0.78198 0.12776 0.0
C1422 C 0.10876 0.78114 0.0696 0.0
C1423 C 0.13219 0.78008 0.11002 0.0
N1424 N 0.09875 0.81916 0.07824 0.0
N1425 N 0.14494 0.74317 0.10012 0.0
H1426 H 0.146 0.79623 0.13755 0.0
H1427 H 0.15828 0.7706 0.13162 0.0
H1428 H 0.14519 0.7298 0.08916 0.0
H1429 H 0.15462 0.74118 0.11419 0.0
H1430 H 0.08952 0.82155 0.06395 0.0
H1431 H 0.10112 0.83344 0.08766 0.0
H1432 H 0.09223 0.79567 0.04205 0.0
H1433 H 0.10183 0.7688 0.03776 0.0
C1434 C 0.46986 0.87191 0.39398 0.0
C1435 C 0.45252 0.86964 0.37847 0.0
C1436 C 0.4788 0.87016 0.34812 0.0
C1437 C 0.49536 0.86437 0.36368 0.0
N1438 N 0.50965 0.87398 0.39958 0.0
N1439 N 0.44083 0.88262 0.34313 0.0
C1440 C 0.49192 0.86997 0.38622 0.0
C1441 C 0.45707 0.874 0.35608 0.0
N1442 N 0.46508 0.87561 0.41571 0.0
N1443 N 0.4836 0.87165 0.32616 0.0
H1444 H 0.42499 0.8855 0.34942 0.0
H1445 H 0.44386 0.88931 0.32755 0.0
H1446 H 0.49977 0.87262 0.3203 0.0
H1447 H 0.47152 0.87284 0.31398 0.0
H1448 H 0.47671 0.87511 0.42836 0.0
H1449 H 0.44915 0.87987 0.4208 0.0
H1450 H 0.50844 0.87863 0.4161 0.0
H1451 H 0.52571 0.87474 0.39328 0.0
C1452 C 0.37846 0.22216 0.5952 0.0
C1453 C 0.37557 0.2253 0.61819 0.0
C1454 C 0.3673 0.26406 0.61202 0.0
C1455 C 0.37874 0.26221 0.59165 0.0
N1456 N 0.38692 0.23948 0.55993 0.0
N1457 N 0.35552 0.24546 0.64584 0.0
C1458 C 0.38109 0.24116 0.58165 0.0
C1459 C 0.36572 0.24507 0.62572 0.0
N1460 N 0.37845 0.20124 0.58673 0.0
N1461 N 0.35952 0.28427 0.61843 0.0
H1462 H 0.3531 0.23095 0.6549 0.0
H1463 H 0.34835 0.25945 0.65282 0.0
H1464 H 0.36044 0.29793 0.60788 0.0
H1465 H 0.35183 0.2874 0.63349 0.0
H1466 H 0.37957 0.1977 0.56992 0.0
H1467 H 0.37496 0.18754 0.59667 0.0
H1468 H 0.39163 0.22473 0.5524 0.0
H1469 H 0.38646 0.25304 0.5493 0.0
C1470 C 0.00553 0.11973 0.82841 0.0
C1471 C 0.99948 0.13617 0.813 0.0
C1472 C 0.03785 0.14776 0.81015 0.0
C1473 C 0.0412 0.13801 0.83113 0.0
N1474 N 0.03401 0.10605 0.85349 0.0
N1475 N 0.01036 0.16 0.78339 0.0
C1476 C 0.02703 0.12064 0.83778 0.0
C1477 C 0.01612 0.14755 0.80126 0.0
N1478 N 0.9897 0.10549 0.83581 0.0
N1479 N 0.05518 0.15718 0.79925 0.0
H1480 H 0.99432 0.15951 0.77702 0.0
H1481 H 0.02111 0.17075 0.77531 0.0
H1482 H 0.0713 0.1559 0.80529 0.0
H1483 H 0.05398 0.164 0.7835 0.0
H1484 H 0.99214 0.09386 0.84824 0.0
H1485 H 0.97384 0.10562 0.82893 0.0
H1486 H 0.02463 0.09284 0.85926 0.0
H1487 H 0.05014 0.10667 0.85965 0.0
C1488 C 0.33052 0.11018 0.24255 0.0
C1489 C 0.34413 0.114 0.2238 0.0
C1490 C 0.36969 0.13559 0.24627 0.0
C1491 C 0.36009 0.12555 0.26506 0.0
N1492 N 0.32544 0.11647 0.28204 0.0
N1493 N 0.36948 0.13885 0.20607 0.0
C1494 C 0.33833 0.11723 0.26355 0.0
C1495 C 0.3612 0.12999 0.22511 0.0
N1496 N 0.31096 0.09919 0.24046 0.0
N1497 N 0.38718 0.14957 0.24894 0.0
H1498 H 0.36258 0.13505 0.19069 0.0
H1499 H 0.38199 0.15063 0.20548 0.0
H1500 H 0.39225 0.15461 0.26466 0.0
H1501 H 0.39608 0.15658 0.236 0.0
H1502 H 0.30197 0.09313 0.25383 0.0
H1503 H 0.30337 0.09673 0.2252 0.0
H1504 H 0.30896 0.11152 0.28204 0.0
H1505 H 0.3308 0.12322 0.297 0.0
C1506 C 0.11566 0.13954 0.46981 0.0
C1507 C 0.13247 0.1486 0.45634 0.0
C1508 C 0.13095 0.18291 0.47727 0.0
C1509 C 0.12193 0.17033 0.49468 0.0
N1510 N 0.09617 0.14225 0.50503 0.0
N1511 N 0.14692 0.18213 0.44031 0.0
C1512 C 0.11024 0.15079 0.48963 0.0
C1513 C 0.1368 0.17163 0.45749 0.0
N1514 N 0.10616 0.11993 0.464 0.0
N1515 N 0.13434 0.205 0.4802 0.0
H1516 H 0.14866 0.17459 0.42489 0.0
H1517 H 0.15245 0.1984 0.44089 0.0
H1518 H 0.12897 0.21298 0.49456 0.0
H1519 H 0.14077 0.21548 0.46818 0.0
H1520 H 0.09386 0.1121 0.47313 0.0
H1521 H 0.11004 0.11223 0.44902 0.0
H1522 H 0.08782 0.12731 0.50331 0.0
H1523 H 0.09284 0.15086 0.51966 0.0
C1524 C 0.12214 0.8657 0.72288 0.0
C1525 C 0.14356 0.87496 0.72338 0.0
C1526 C 0.14189 0.8769 0.7634 0.0
C1527 C 0.11858 0.87671 0.7613 0.0
N1528 N 0.08806 0.85873 0.74328 0.0
N1529 N 0.17725 0.87834 0.74415 0.0
C1530 C 0.10912 0.86669 0.74241 0.0
C1531 C 0.1548 0.87644 0.7438 0.0
N1532 N 0.11445 0.85714 0.7035 0.0
N1533 N 0.15118 0.87747 0.78395 0.0
H1534 H 0.18673 0.8756 0.73 0.0
H1535 H 0.18642 0.88169 0.75831 0.0
H1536 H 0.14148 0.87622 0.79819 0.0
H1537 H 0.16811 0.87734 0.7869 0.0
H1538 H 0.09918 0.84948 0.70172 0.0
H1539 H 0.12443 0.85674 0.68939 0.0
H1540 H 0.0798 0.8518 0.72989 0.0
H1541 H 0.07945 0.85772 0.75821 0.0
C1542 C 0.35387 0.81828 0.96866 0.0
C1543 C 0.35851 0.83943 0.95978 0.0
C1544 C 0.37954 0.84916 0.99258 0.0
C1545 C 0.36795 0.83222 0.00367 0.0
N1546 N 0.35666 0.79428 0.00102 0.0
N1547 N 0.38544 0.86845 0.95768 0.0
C1548 C 0.35947 0.81436 0.99118 0.0
C1549 C 0.37513 0.85248 0.96981 0.0
N1550 N 0.34391 0.80262 0.95588 0.0
N1551 N 0.39292 0.86288 0.00445 0.0
H1552 H 0.38212 0.87036 0.94083 0.0
H1553 H 0.39799 0.87854 0.96373 0.0
H1554 H 0.39605 0.85987 0.02119 0.0
H1555 H 0.40077 0.87674 0.99796 0.0
H1556 H 0.3383 0.78748 0.96181 0.0
H1557 H 0.3423 0.80459 0.93882 0.0
H1558 H 0.35076 0.78029 0.99292 0.0
H1559 H 0.36219 0.79139 0.01712 0.0
C1560 C 0.42256 0.87678 0.26377 0.0
C1561 C 0.41277 0.87946 0.2428 0.0
C1562 C 0.37797 0.86472 0.25685 0.0
C1563 C 0.38585 0.86972 0.2782 0.0
N1564 N 0.41721 0.86369 0.3014 0.0
N1565 N 0.38495 0.86754 0.21724 0.0
C1566 C 0.40887 0.86991 0.28151 0.0
C1567 C 0.39189 0.86964 0.23857 0.0
N1568 N 0.44391 0.88301 0.26709 0.0
N1569 N 0.35707 0.85669 0.25445 0.0
H1570 H 0.3954 0.8716 0.20411 0.0
H1571 H 0.36951 0.86156 0.21259 0.0
H1572 H 0.34747 0.85277 0.26828 0.0
H1573 H 0.34981 0.85297 0.23931 0.0
H1574 H 0.45101 0.88396 0.28274 0.0
H1575 H 0.4541 0.88768 0.25396 0.0
H1576 H 0.43402 0.86077 0.30374 0.0
H1577 H 0.40678 0.85892 0.31434 0.0
C1578 C 0.37321 0.13032 0.53331 0.0
C1579 C 0.37031 0.12042 0.51238 0.0
C1580 C 0.36447 0.08446 0.52948 0.0
C1581 C 0.35903 0.09605 0.54906 0.0
N1582 N 0.36774 0.1264 0.57306 0.0
N1583 N 0.37661 0.08758 0.49111 0.0
C1584 C 0.36718 0.1178 0.55221 0.0
C1585 C 0.37076 0.09709 0.51072 0.0
N1586 N 0.38127 0.15133 0.53476 0.0
N1587 N 0.36258 0.062 0.5287 0.0
H1588 H 0.38193 0.09723 0.47779 0.0
H1589 H 0.37766 0.0706 0.48849 0.0
H1590 H 0.36027 0.0526 0.54296 0.0
H1591 H 0.36425 0.05267 0.51434 0.0
H1592 H 0.38359 0.15979 0.54955 0.0
H1593 H 0.38737 0.15957 0.52087 0.0
H1594 H 0.37215 0.1426 0.57681 0.0
H1595 H 0.36405 0.11658 0.58681 0.0
C1596 C 0.14344 0.13442 0.76608 0.0
C1597 C 0.16344 0.12248 0.76741 0.0
C1598 C 0.16269 0.11642 0.72779 0.0
C1599 C 0.13949 0.11948 0.72907 0.0
N1600 N 0.11053 0.14211 0.74418 0.0
N1601 N 0.19692 0.1125 0.74874 0.0
C1602 C 0.13079 0.13249 0.74646 0.0
C1603 C 0.17497 0.11747 0.74776 0.0
N1604 N 0.136 0.14524 0.78442 0.0
N1605 N 0.17257 0.1129 0.70782 0.0
H1606 H 0.20596 0.11491 0.76325 0.0
H1607 H 0.20609 0.10658 0.73544 0.0
H1608 H 0.16387 0.11461 0.69302 0.0
H1609 H 0.18949 0.11068 0.70572 0.0
H1610 H 0.12108 0.15375 0.7853 0.0
H1611 H 0.14563 0.14591 0.79875 0.0
H1612 H 0.10273 0.15129 0.75647 0.0
H1613 H 0.10208 0.1417 0.72912 0.0
C1614 C 0.10956 0.83256 0.01028 0.0
C1615 C 0.12417 0.81703 0.00088 0.0
C1616 C 0.14284 0.81307 0.03626 0.0
C1617 C 0.13451 0.83431 0.04181 0.0
N1618 N 0.10316 0.85872 0.04027 0.0
N1619 N 0.14775 0.78587 0.00687 0.0
C1620 C 0.11524 0.84207 0.03097 0.0
C1621 C 0.138 0.80454 0.0149 0.0
N1622 N 0.09217 0.83979 0.99791 0.0
N1623 N 0.15486 0.80131 0.05129 0.0
H1624 H 0.14328 0.77939 0.9915 0.0
H1625 H 0.15993 0.77701 0.01518 0.0
H1626 H 0.1563 0.80638 0.06771 0.0
H1627 H 0.16098 0.78549 0.0484 0.0
H1628 H 0.08086 0.85169 0.00304 0.0
H1629 H 0.089 0.8329 0.98237 0.0
H1630 H 0.0893 0.86584 0.03301 0.0
H1631 H 0.10667 0.86461 0.05612 0.0
C1632 C 0.23912 0.37809 0.13274 0.0
C1633 C 0.22322 0.39095 0.12145 0.0
C1634 C 0.24881 0.42188 0.11984 0.0
C1635 C 0.26599 0.40642 0.12318 0.0
N1636 N 0.27832 0.37311 0.14055 0.0
N1637 N 0.20899 0.42782 0.11777 0.0
C1638 C 0.26124 0.38585 0.1332 0.0
C1639 C 0.22669 0.41401 0.11971 0.0
N1640 N 0.23297 0.35854 0.14215 0.0
N1641 N 0.25393 0.44323 0.11471 0.0
H1642 H 0.19284 0.42185 0.11904 0.0
H1643 H 0.21024 0.44498 0.11709 0.0
H1644 H 0.27017 0.44898 0.11554 0.0
H1645 H 0.24237 0.45497 0.10976 0.0
H1646 H 0.24362 0.34838 0.15105 0.0
H1647 H 0.21642 0.35359 0.14239 0.0
H1648 H 0.27658 0.357 0.14635 0.0
H1649 H 0.29451 0.37917 0.14055 0.0
C1650 C 0.74698 0.15199 0.88493 0.0
C1651 C 0.72652 0.14086 0.88648 0.0
C1652 C 0.74384 0.10669 0.87399 0.0
C1653 C 0.76407 0.11564 0.88147 0.0
N1654 N 0.78703 0.14796 0.88357 0.0
N1655 N 0.70384 0.11137 0.87275 0.0
C1656 C 0.76637 0.13892 0.88304 0.0
C1657 C 0.72442 0.11945 0.87722 0.0
N1658 N 0.74761 0.17453 0.88547 0.0
N1659 N 0.74342 0.08637 0.86419 0.0
H1660 H 0.68983 0.1214 0.87413 0.0
H1661 H 0.70065 0.09525 0.86763 0.0
H1662 H 0.75795 0.07807 0.86001 0.0
H1663 H 0.72916 0.07883 0.85826 0.0
H1664 H 0.76205 0.18381 0.88445 0.0
H1665 H 0.73319 0.18398 0.88477 0.0
H1666 H 0.79026 0.16462 0.88645 0.0
H1667 H 0.80108 0.13833 0.8807 0.0
C1668 C 0.06605 0.49142 0.15499 0.0
C1669 C 0.07825 0.47319 0.1466 0.0
C1670 C 0.09656 0.4972 0.1199 0.0
C1671 C 0.0893 0.51537 0.13265 0.0
N1672 N 0.05803 0.53076 0.15151 0.0
N1673 N 0.09739 0.45708 0.11582 0.0
C1674 C 0.07071 0.51281 0.14648 0.0
C1675 C 0.09055 0.47558 0.12681 0.0
N1676 N 0.05149 0.4886 0.17199 0.0
N1677 N 0.11029 0.50093 0.1024 0.0
H1678 H 0.09267 0.44129 0.12104 0.0
H1679 H 0.10655 0.45728 0.10126 0.0
H1680 H 0.11401 0.51703 0.09731 0.0
H1681 H 0.11751 0.48855 0.09287 0.0
H1682 H 0.04449 0.50169 0.18074 0.0
H1683 H 0.04646 0.47305 0.17739 0.0
H1684 H 0.04349 0.52987 0.16069 0.0
H1685 H 0.06096 0.54613 0.1442 0.0
C1686 C 0.75803 0.83913 0.36914 0.0
C1687 C 0.77762 0.85155 0.37119 0.0
C1688 C 0.75774 0.88566 0.36382 0.0
C1689 C 0.73849 0.8742 0.37034 0.0
N1690 N 0.71799 0.8406 0.36515 0.0
N1691 N 0.79774 0.88327 0.35902 0.0
C1692 C 0.73784 0.85092 0.36782 0.0
C1693 C 0.77792 0.87371 0.36381 0.0
N1694 N 0.75882 0.81664 0.37042 0.0
N1695 N 0.7566 0.90756 0.3586 0.0
H1696 H 0.8123 0.87396 0.35948 0.0
H1697 H 0.79967 0.89962 0.35401 0.0
H1698 H 0.74141 0.91559 0.35697 0.0
H1699 H 0.77025 0.91727 0.35471 0.0
H1700 H 0.7449 0.80658 0.37129 0.0
H1701 H 0.77385 0.80817 0.3702 0.0
H1702 H 0.71622 0.82365 0.36272 0.0
H1703 H 0.70338 0.84972 0.36368 0.0
C1704 C 0.81758 0.02509 0.15119 0.0
C1705 C 0.83159 0.00946 0.1409 0.0
C1706 C 0.85325 0.03942 0.12498 0.0
C1707 C 0.84476 0.05337 0.14172 0.0
N1708 N 0.81408 0.06224 0.16584 0.0
N1709 N 0.85732 0.0016 0.11177 0.0
C1710 C 0.82501 0.04731 0.15292 0.0
C1711 C 0.84734 0.01673 0.12524 0.0
N1712 N 0.79736 0.01873 0.1589 0.0
N1713 N 0.86756 0.04795 0.10977 0.0
H1714 H 0.85213 0.98511 0.11138 0.0
H1715 H 0.87044 0.00521 0.10125 0.0
H1716 H 0.87154 0.06477 0.10969 0.0
H1717 H 0.874 0.03902 0.09654 0.0
H1718 H 0.78581 0.02965 0.1655 0.0
H1719 H 0.79109 0.00293 0.15604 0.0
H1720 H 0.80169 0.0579 0.17698 0.0
H1721 H 0.8171 0.07917 0.16509 0.0
C1722 C 0.25961 0.63627 0.63312 0.0
C1723 C 0.26419 0.65362 0.61831 0.0
C1724 C 0.22612 0.65358 0.60598 0.0
C1725 C 0.22524 0.63123 0.61308 0.0
N1726 N 0.23412 0.60671 0.64315 0.0
N1727 N 0.24989 0.68582 0.60057 0.0
C1728 C 0.23959 0.6244 0.63028 0.0
C1729 C 0.24638 0.66512 0.60875 0.0
N1730 N 0.27567 0.62992 0.64755 0.0
N1731 N 0.20796 0.66325 0.59679 0.0
H1732 H 0.26504 0.69378 0.60293 0.0
H1733 H 0.23815 0.69495 0.59194 0.0
H1734 H 0.1926 0.65539 0.59685 0.0
H1735 H 0.20759 0.67943 0.59095 0.0
H1736 H 0.27442 0.61643 0.65816 0.0
H1737 H 0.29034 0.63897 0.64878 0.0
H1738 H 0.24399 0.60064 0.65586 0.0
H1739 H 0.21865 0.59915 0.64186 0.0
C1740 C 0.15542 0.4783 0.37544 0.0
C1741 C 0.17406 0.48047 0.36151 0.0
C1742 C 0.1731 0.52038 0.36629 0.0
C1743 C 0.15072 0.51811 0.37262 0.0
N1744 N 0.12541 0.49717 0.39477 0.0
N1745 N 0.20471 0.50224 0.34917 0.0
C1746 C 0.14362 0.49771 0.38149 0.0
C1747 C 0.18473 0.50113 0.35954 0.0
N1748 N 0.14809 0.45762 0.38068 0.0
N1749 N 0.18253 0.54086 0.36612 0.0
H1750 H 0.21316 0.48791 0.34449 0.0
H1751 H 0.21257 0.517 0.34506 0.0
H1752 H 0.17387 0.5547 0.3718 0.0
H1753 H 0.19908 0.54371 0.36237 0.0
H1754 H 0.13364 0.4544 0.38942 0.0
H1755 H 0.15702 0.44357 0.37599 0.0
H1756 H 0.11922 0.48287 0.40206 0.0
H1757 H 0.11756 0.51176 0.3997 0.0
C1758 C 0.31356 0.46112 0.84863 0.0
C1759 C 0.33265 0.45252 0.85894 0.0
C1760 C 0.33997 0.48848 0.87545 0.0
C1761 C 0.32669 0.49793 0.85865 0.0
N1762 N 0.29534 0.49384 0.83424 0.0
N1763 N 0.35742 0.45499 0.88968 0.0
C1764 C 0.31118 0.48447 0.84727 0.0
C1765 C 0.34332 0.46523 0.87537 0.0
N1766 N 0.29808 0.44699 0.84033 0.0
N1767 N 0.35019 0.50208 0.89027 0.0
H1768 H 0.35915 0.43778 0.8897 0.0
H1769 H 0.36675 0.46311 0.90162 0.0
H1770 H 0.34731 0.51913 0.89024 0.0
H1771 H 0.36042 0.49665 0.90297 0.0
H1772 H 0.28312 0.45214 0.83358 0.0
H1773 H 0.29926 0.42993 0.84272 0.0
H1774 H 0.28564 0.48491 0.82318 0.0
H1775 H 0.29173 0.51067 0.83474 0.0
C1776 C 0.89693 0.7701 0.69547 0.0
C1777 C 0.89638 0.79013 0.68344 0.0
C1778 C 0.87859 0.77134 0.65237 0.0
C1779 C 0.88483 0.751 0.66215 0.0
N1780 N 0.88664 0.73126 0.69657 0.0
N1781 N 0.88176 0.81154 0.65342 0.0
C1782 C 0.88949 0.75045 0.68506 0.0
C1783 C 0.885 0.79135 0.663 0.0
N1784 N 0.90617 0.76974 0.71605 0.0
N1785 N 0.86654 0.77124 0.6333 0.0
H1786 H 0.88586 0.82619 0.66158 0.0
H1787 H 0.87499 0.81387 0.63779 0.0
H1788 H 0.86016 0.75659 0.62677 0.0
H1789 H 0.86112 0.78541 0.62519 0.0
H1790 H 0.90961 0.75524 0.72468 0.0
H1791 H 0.911 0.78425 0.72408 0.0
H1792 H 0.88867 0.73001 0.71362 0.0
H1793 H 0.87973 0.71727 0.68918 0.0
C1794 C 0.98111 0.12418 0.37465 0.0
C1795 C 0.96812 0.1343 0.35806 0.0
C1796 C 0.00124 0.14293 0.33682 0.0
C1797 C 0.01356 0.14005 0.35666 0.0
N1798 N 0.0181 0.11808 0.38944 0.0
N1799 N 0.96511 0.14026 0.31903 0.0
C1800 C 0.00441 0.12708 0.37391 0.0
C1801 C 0.97799 0.13938 0.33752 0.0
N1802 N 0.97088 0.11252 0.39104 0.0
N1803 N 0.01153 0.14928 0.31778 0.0
H1804 H 0.94844 0.13581 0.31953 0.0
H1805 H 0.97107 0.14324 0.30317 0.0
H1806 H 0.02856 0.14796 0.31569 0.0
H1807 H 0.00323 0.15465 0.3037 0.0
H1808 H 0.97896 0.10535 0.4044 0.0
H1809 H 0.95391 0.10934 0.39046 0.0
H1810 H 0.01278 0.10885 0.40293 0.0
H1811 H 0.03527 0.11906 0.38791 0.0
C1812 C 0.60555 0.22478 0.11381 0.0
C1813 C 0.58941 0.2114 0.10316 0.0
C1814 C 0.58307 0.24151 0.07691 0.0
C1815 C 0.59299 0.25641 0.09189 0.0
N1816 N 0.61781 0.26212 0.12232 0.0
N1817 N 0.56083 0.20876 0.07472 0.0
C1818 C 0.60584 0.24793 0.10951 0.0
C1819 C 0.57795 0.21993 0.08437 0.0
N1820 N 0.62051 0.21531 0.12781 0.0
N1821 N 0.57823 0.24792 0.05584 0.0
H1822 H 0.55488 0.19354 0.07997 0.0
H1823 H 0.55083 0.2159 0.06262 0.0
H1824 H 0.58359 0.26297 0.04938 0.0
H1825 H 0.572 0.23701 0.04402 0.0
H1826 H 0.63358 0.22394 0.13495 0.0
H1827 H 0.62114 0.19825 0.13042 0.0
H1828 H 0.62544 0.25751 0.13705 0.0
H1829 H 0.61958 0.27881 0.11819 0.0
C1830 C 0.50058 0.864 0.91181 0.0
C1831 C 0.49993 0.86266 0.88856 0.0
C1832 C 0.53966 0.85642 0.88752 0.0
C1833 C 0.53856 0.85047 0.91022 0.0
N1834 N 0.51926 0.85287 0.94532 0.0
N1835 N 0.51994 0.87027 0.85517 0.0
C1836 C 0.5197 0.85635 0.92301 0.0
C1837 C 0.51998 0.86317 0.87659 0.0
N1838 N 0.48276 0.87235 0.92283 0.0
N1839 N 0.55931 0.8546 0.87654 0.0
H1840 H 0.5058 0.87711 0.84802 0.0
H1841 H 0.53396 0.87136 0.84528 0.0
H1842 H 0.57402 0.85101 0.88483 0.0
H1843 H 0.5612 0.85673 0.85958 0.0
H1844 H 0.4825 0.87529 0.9398 0.0
H1845 H 0.46906 0.8785 0.91429 0.0
H1846 H 0.50491 0.85386 0.95478 0.0
H1847 H 0.5331 0.84847 0.9545 0.0
C1848 C 0.88361 0.22921 0.85096 0.0
C1849 C 0.89435 0.23079 0.83018 0.0
C1850 C 0.89398 0.27108 0.83299 0.0
C1851 C 0.88952 0.26874 0.85584 0.0
N1852 N 0.86721 0.24881 0.88201 0.0
N1853 N 0.90549 0.25287 0.79904 0.0
C1854 C 0.87997 0.24878 0.86342 0.0
C1855 C 0.89742 0.25171 0.82009 0.0
N1856 N 0.87864 0.20882 0.85931 0.0
N1857 N 0.89462 0.29173 0.82392 0.0
H1858 H 0.90729 0.23885 0.78916 0.0
H1859 H 0.91069 0.26748 0.79158 0.0
H1860 H 0.89072 0.30576 0.83323 0.0
H1861 H 0.89663 0.29476 0.8071 0.0
H1862 H 0.87334 0.20613 0.87547 0.0
H1863 H 0.88056 0.19445 0.8499 0.0
H1864 H 0.85888 0.23492 0.88787 0.0
H1865 H 0.86279 0.26351 0.88992 0.0
C1866 C 0.47586 0.15267 0.60496 0.0
C1867 C 0.47344 0.15 0.62799 0.0
C1868 C 0.51342 0.14899 0.63242 0.0
C1869 C 0.51536 0.15816 0.61085 0.0
N1870 N 0.49848 0.16724 0.57554 0.0
N1871 N 0.48899 0.13328 0.66036 0.0
C1872 C 0.49675 0.15885 0.59647 0.0
C1873 C 0.49202 0.1441 0.64079 0.0
N1874 N 0.45813 0.14917 0.59146 0.0
N1875 N 0.53194 0.14582 0.64497 0.0
H1876 H 0.47337 0.12786 0.66532 0.0
H1877 H 0.50176 0.1276 0.67037 0.0
H1878 H 0.54784 0.14807 0.63869 0.0
H1879 H 0.53168 0.14131 0.66157 0.0
H1880 H 0.45912 0.14925 0.57426 0.0
H1881 H 0.44305 0.14356 0.59772 0.0
H1882 H 0.48482 0.17078 0.56567 0.0
H1883 H 0.51335 0.17195 0.56832 0.0
C1884 C 0.61016 0.76588 0.37996 0.0
C1885 C 0.59999 0.784 0.39087 0.0
C1886 C 0.6035 0.76435 0.42591 0.0
C1887 C 0.60403 0.74449 0.41359 0.0
N1888 N 0.61783 0.72631 0.38113 0.0
N1889 N 0.5966 0.804 0.42505 0.0
C1890 C 0.6112 0.74533 0.39131 0.0
C1891 C 0.60012 0.78449 0.4143 0.0
N1892 N 0.61885 0.7685 0.35931 0.0
N1893 N 0.60619 0.76365 0.44827 0.0
H1894 H 0.59617 0.81898 0.4165 0.0
H1895 H 0.59445 0.80536 0.44207 0.0
H1896 H 0.61016 0.74889 0.45633 0.0
H1897 H 0.60673 0.77762 0.45832 0.0
H1898 H 0.62685 0.75598 0.35062 0.0
H1899 H 0.62035 0.78406 0.35202 0.0
H1900 H 0.62113 0.72501 0.36429 0.0
H1901 H 0.61984 0.71164 0.39006 0.0
C1902 C 0.99748 0.86111 0.13431 0.0
C1903 C 0.01409 0.84902 0.12291 0.0
C1904 C 0.99001 0.8473 0.09061 0.0
C1905 C 0.97192 0.85263 0.10432 0.0
N1906 N 0.95809 0.86796 0.13818 0.0
N1907 N 0.02496 0.82852 0.08987 0.0
C1908 C 0.97564 0.86104 0.12578 0.0
C1909 C 0.01038 0.84202 0.1007 0.0
N1910 N 0.00264 0.87247 0.15314 0.0
N1911 N 0.98751 0.84627 0.0682 0.0
H1912 H 0.03953 0.8225 0.09669 0.0
H1913 H 0.02137 0.82124 0.07465 0.0
H1914 H 0.97293 0.85102 0.06037 0.0
H1915 H 0.00072 0.84363 0.05744 0.0
H1916 H 0.99151 0.88274 0.16135 0.0
H1917 H 0.01876 0.87334 0.15922 0.0
H1918 H 0.95922 0.87195 0.1549 0.0
H1919 H 0.94218 0.86898 0.13155 0.0
C1920 C 0.63415 0.88656 0.77233 0.0
C1921 C 0.61768 0.89743 0.78492 0.0
C1922 C 0.59423 0.89906 0.75221 0.0
C1923 C 0.61372 0.89733 0.73932 0.0
N1924 N 0.64926 0.8799 0.73563 0.0
N1925 N 0.57877 0.90432 0.78902 0.0
C1926 C 0.63273 0.88758 0.74892 0.0
C1927 C 0.59641 0.90025 0.77558 0.0
N1928 N 0.65063 0.87533 0.78284 0.0
N1929 N 0.57406 0.89897 0.74213 0.0
H1930 H 0.57991 0.90258 0.80617 0.0
H1931 H 0.56322 0.90899 0.78333 0.0
H1932 H 0.5724 0.8956 0.72529 0.0
H1933 H 0.5591 0.89963 0.75059 0.0
H1934 H 0.66289 0.86639 0.77471 0.0
H1935 H 0.65051 0.87318 0.79998 0.0
H1936 H 0.66462 0.87475 0.74143 0.0
H1937 H 0.64721 0.87853 0.71854 0.0
C1938 C 0.84265 0.82409 0.50613 0.0
C1939 C 0.85343 0.83643 0.48974 0.0
C1940 C 0.85682 0.86704 0.5158 0.0
C1941 C 0.83877 0.85796 0.52823 0.0
N1942 N 0.81442 0.82584 0.53387 0.0
N1943 N 0.87542 0.86782 0.48018 0.0
C1944 C 0.83197 0.83565 0.52353 0.0
C1945 C 0.86254 0.85712 0.49531 0.0
N1946 N 0.84154 0.80165 0.50423 0.0
N1947 N 0.86869 0.88472 0.5234 0.0
H1948 H 0.88043 0.86006 0.46556 0.0
H1949 H 0.88017 0.88433 0.48165 0.0
H1950 H 0.8662 0.89213 0.5387 0.0
H1951 H 0.88292 0.89049 0.5156 0.0
H1952 H 0.83511 0.79147 0.51656 0.0
H1953 H 0.84977 0.79329 0.49155 0.0
H1954 H 0.80909 0.80994 0.53007 0.0
H1955 H 0.80337 0.83358 0.54442 0.0
C1956 C 0.88327 0.12132 0.25706 0.0
C1957 C 0.86812 0.11414 0.24064 0.0
C1958 C 0.84196 0.10455 0.26998 0.0
C1959 C 0.8598 0.10393 0.28498 0.0
N1960 N 0.89468 0.11961 0.29564 0.0
N1961 N 0.8308 0.10153 0.23194 0.0
C1962 C 0.87959 0.11516 0.27947 0.0
C1963 C 0.84654 0.10712 0.24713 0.0
N1964 N 0.90101 0.1339 0.25098 0.0
N1965 N 0.82076 0.10341 0.27759 0.0
H1966 H 0.83181 0.10501 0.21517 0.0
H1967 H 0.81647 0.09293 0.23618 0.0
H1968 H 0.8171 0.10386 0.29444 0.0
H1969 H 0.807 0.10533 0.26741 0.0
H1970 H 0.91236 0.14057 0.26204 0.0
H1971 H 0.90322 0.1392 0.23468 0.0
H1972 H 0.91055 0.12555 0.29267 0.0
H1973 H 0.89093 0.11748 0.31237 0.0
C1974 C 0.65128 0.13417 0.03338 0.0
C1975 C 0.65351 0.11082 0.03294 0.0
C1976 C 0.64303 0.11014 0.9941 0.0
C1977 C 0.64688 0.13325 0.99343 0.0
N1978 N 0.64082 0.16732 0.01314 0.0
N1979 N 0.63861 0.07741 0.01703 0.0
C1980 C 0.64633 0.14544 0.01339 0.0
C1981 C 0.64501 0.09891 0.01464 0.0
N1982 N 0.65449 0.14532 0.05274 0.0
N1983 N 0.63818 0.09915 0.97499 0.0
H1984 H 0.63758 0.06985 0.03249 0.0
H1985 H 0.63165 0.06804 0.00439 0.0
H1986 H 0.63479 0.10764 0.96033 0.0
H1987 H 0.63771 0.08199 0.97362 0.0
H1988 H 0.65574 0.16246 0.05384 0.0
H1989 H 0.65607 0.13701 0.0678 0.0
H1990 H 0.63938 0.17699 0.02731 0.0
H1991 H 0.63495 0.17503 0.99888 0.0
C1992 C 0.63508 0.11937 0.7219 0.0
C1993 C 0.65805 0.11559 0.72453 0.0
C1994 C 0.65528 0.12451 0.76375 0.0
C1995 C 0.63211 0.12218 0.76188 0.0
N1996 N 0.60065 0.13084 0.73913 0.0
N1997 N 0.69115 0.12011 0.74598 0.0
C1998 C 0.62213 0.12421 0.74085 0.0
C1999 C 0.66863 0.12074 0.74475 0.0
N2000 N 0.62566 0.11668 0.70155 0.0
N2001 N 0.6641 0.12979 0.78384 0.0
H2002 H 0.70098 0.118 0.73196 0.0
H2003 H 0.70008 0.12177 0.76057 0.0
H2004 H 0.65399 0.13313 0.79745 0.0
H2005 H 0.68085 0.13241 0.78668 0.0
H2006 H 0.60867 0.11636 0.69884 0.0
H2007 H 0.63522 0.1141 0.68739 0.0
H2008 H 0.59266 0.13347 0.72411 0.0
H2009 H 0.59177 0.13649 0.7528 0.0
C2010 C 0.62805 0.87848 0.49665 0.0
C2011 C 0.63495 0.85652 0.50043 0.0
C2012 C 0.64275 0.8524 0.46122 0.0
C2013 C 0.64454 0.87573 0.46008 0.0
N2014 N 0.62942 0.91057 0.47261 0.0
N2015 N 0.64103 0.82018 0.48509 0.0
C2016 C 0.63363 0.88872 0.4763 0.0
C2017 C 0.63912 0.84247 0.48216 0.0
N2018 N 0.61709 0.88937 0.51306 0.0
N2019 N 0.64459 0.84018 0.44234 0.0
H2020 H 0.63618 0.81243 0.49969 0.0
H2021 H 0.64702 0.80945 0.47302 0.0
H2022 H 0.64621 0.84777 0.42689 0.0
H2023 H 0.64228 0.82312 0.4417 0.0
H2024 H 0.61063 0.90525 0.51162 0.0
H2025 H 0.61322 0.88135 0.52782 0.0
H2026 H 0.62394 0.92151 0.48471 0.0
H2027 H 0.63054 0.91761 0.45697 0.0
C2028 C 0.90833 0.90453 0.20332 0.0
C2029 C 0.88552 0.90302 0.20831 0.0
C2030 C 0.89411 0.88976 0.24536 0.0
C2031 C 0.91613 0.89696 0.24216 0.0
N2032 N 0.946 0.90548 0.21757 0.0
N2033 N 0.85837 0.88215 0.22878 0.0
C2034 C 0.92397 0.90173 0.22066 0.0
C2035 C 0.87885 0.89152 0.22761 0.0
N2036 N 0.91464 0.90878 0.18206 0.0
N2037 N 0.88759 0.8831 0.26593 0.0
H2038 H 0.84798 0.88115 0.21508 0.0
H2039 H 0.85295 0.87278 0.24217 0.0
H2040 H 0.89895 0.8811 0.27879 0.0
H2041 H 0.8712 0.88033 0.27037 0.0
H2042 H 0.93097 0.9095 0.17676 0.0
H2043 H 0.90305 0.90989 0.1693 0.0
H2044 H 0.95293 0.911 0.20283 0.0
H2045 H 0.95743 0.90288 0.23023 0.0
C2046 C 0.86176 0.0993 0.9894 0.0
C2047 C 0.84424 0.08469 0.98491 0.0
C2048 C 0.82807 0.09084 0.02101 0.0
C2049 C 0.84387 0.10795 0.02458 0.0
N2050 N 0.87975 0.12319 0.01628 0.0
N2051 N 0.81856 0.05843 0.99945 0.0
C2052 C 0.86223 0.11035 0.01012 0.0
C2053 C 0.83027 0.07751 0.00198 0.0
N2054 N 0.87743 0.10269 0.97357 0.0
N2055 N 0.80981 0.08864 0.03419 0.0
H2056 H 0.8204 0.04856 0.98541 0.0
H2057 H 0.80937 0.0513 0.01216 0.0
H2058 H 0.80655 0.0984 0.04796 0.0
H2059 H 0.79674 0.07809 0.03037 0.0
H2060 H 0.88977 0.11464 0.97457 0.0
H2061 H 0.87774 0.09313 0.95917 0.0
H2062 H 0.89409 0.12497 0.00695 0.0
H2063 H 0.88056 0.13078 0.03177 0.0
C2064 C 0.77571 0.6729 0.87158 0.0
C2065 C 0.77368 0.69395 0.88158 0.0
C2066 C 0.73386 0.69253 0.87684 0.0
C2067 C 0.73581 0.66926 0.87505 0.0
N2068 N 0.7568 0.6396 0.85891 0.0
N2069 N 0.75209 0.72634 0.88865 0.0
C2070 C 0.75626 0.66016 0.86822 0.0
C2071 C 0.75312 0.7049 0.88175 0.0
N2072 N 0.79631 0.66484 0.8672 0.0
N2073 N 0.7138 0.7024 0.874 0.0
H2074 H 0.76644 0.7354 0.89189 0.0
H2075 H 0.73734 0.73472 0.89163 0.0
H2076 H 0.69999 0.69336 0.86893 0.0
H2077 H 0.71148 0.71947 0.87421 0.0
H2078 H 0.79955 0.64903 0.86125 0.0
H2079 H 0.8103 0.67475 0.86926 0.0
H2080 H 0.77116 0.63161 0.85385 0.0
H2081 H 0.74227 0.63126 0.85477 0.0
C2082 C 0.27208 0.90471 0.0934 0.0
C2083 C 0.27904 0.8831 0.09928 0.0
C2084 C 0.24524 0.8771 0.1199 0.0
C2085 C 0.23596 0.89475 0.10778 0.0
N2086 N 0.24231 0.93193 0.09535 0.0
N2087 N 0.27889 0.85763 0.12994 0.0
C2088 C 0.25012 0.91106 0.09885 0.0
C2089 C 0.26786 0.87216 0.11669 0.0
N2090 N 0.28631 0.9187 0.08288 0.0
N2091 N 0.23199 0.86442 0.13301 0.0
H2092 H 0.296 0.85567 0.12884 0.0
H2093 H 0.2717 0.84979 0.14348 0.0
H2094 H 0.2155 0.86872 0.13582 0.0
H2095 H 0.23714 0.84979 0.1405 0.0
H2096 H 0.28207 0.9344 0.07729 0.0
H2097 H 0.30287 0.91467 0.08031 0.0
H2098 H 0.25162 0.94477 0.08869 0.0
H2099 H 0.22675 0.93673 0.10105 0.0
C2100 C 0.91121 0.50527 0.87516 0.0
C2101 C 0.93083 0.50358 0.86247 0.0
C2102 C 0.92324 0.46456 0.85592 0.0
C2103 C 0.90082 0.46903 0.86112 0.0
N2104 N 0.87752 0.48721 0.8878 0.0
N2105 N 0.96021 0.47979 0.85047 0.0
C2106 C 0.89606 0.48731 0.87497 0.0
C2107 C 0.93865 0.48236 0.8565 0.0
N2108 N 0.9065 0.52485 0.88536 0.0
N2109 N 0.92944 0.44346 0.85085 0.0
H2110 H 0.97171 0.49244 0.8528 0.0
H2111 H 0.96683 0.46525 0.84409 0.0
H2112 H 0.91842 0.43025 0.85238 0.0
H2113 H 0.94551 0.43874 0.84694 0.0
H2114 H 0.89154 0.52839 0.89308 0.0
H2115 H 0.91801 0.53774 0.88558 0.0
H2116 H 0.87331 0.49987 0.89869 0.0
H2117 H 0.86764 0.47315 0.88927 0.0
C2118 C 0.24046 0.12687 0.61252 0.0
C2119 C 0.23887 0.10399 0.60836 0.0
C2120 C 0.20064 0.10931 0.59663 0.0
C2121 C 0.20526 0.1322 0.59373 0.0
N2122 N 0.23068 0.16297 0.59904 0.0
N2123 N 0.21544 0.07236 0.60245 0.0
C2124 C 0.22515 0.14129 0.60237 0.0
C2125 C 0.21814 0.09476 0.60272 0.0
N2126 N 0.25753 0.13467 0.62503 0.0
N2127 N 0.17956 0.10173 0.59377 0.0
H2128 H 0.22704 0.06161 0.60925 0.0
H2129 H 0.20175 0.06448 0.59563 0.0
H2130 H 0.16644 0.11233 0.5901 0.0
H2131 H 0.17468 0.08556 0.59706 0.0
H2132 H 0.25887 0.15115 0.62991 0.0
H2133 H 0.26886 0.1239 0.6324 0.0
H2134 H 0.24621 0.16934 0.60291 0.0
H2135 H 0.2208 0.1743 0.59072 0.0
C2136 C 0.13645 0.00261 0.85551 0.0
C2137 C 0.12662 0.02151 0.84601 0.0
C2138 C 0.09262 0.00094 0.83934 0.0
C2139 C 0.10521 0.98116 0.84173 0.0
N2140 N 0.13704 0.96253 0.85678 0.0
N2141 N 0.09275 0.0413 0.84064 0.0
C2142 C 0.12636 0.98181 0.8518 0.0
C2143 C 0.10364 0.02154 0.84188 0.0
N2144 N 0.15477 0.00477 0.86845 0.0
N2145 N 0.07084 1.00008 0.8334 0.0
H2146 H 0.10077 0.05621 0.84412 0.0
H2147 H 0.07584 0.04304 0.83812 0.0
H2148 H 0.06165 0.98556 0.83328 0.0
H2149 H 0.06148 0.01379 0.82895 0.0
H2150 H 0.16208 0.99164 0.87686 0.0
H2151 H 0.16082 0.02027 0.87302 0.0
H2152 H 0.1535 0.96179 0.86174 0.0
H2153 H 0.12939 0.94713 0.85529 0.0
C2154 C 0.72214 0.37529 0.3833 0.0
C2155 C 0.70575 0.38228 0.39849 0.0
C2156 C 0.72188 0.41936 0.39887 0.0
C2157 C 0.74163 0.4099 0.39052 0.0
N2158 N 0.75954 0.38113 0.36996 0.0
N2159 N 0.68429 0.4127 0.412 0.0
C2160 C 0.74115 0.38873 0.38058 0.0
C2161 C 0.70364 0.40512 0.40321 0.0
N2162 N 0.71935 0.35631 0.37143 0.0
N2163 N 0.72128 0.44136 0.4039 0.0
H2164 H 0.67065 0.40228 0.41379 0.0
H2165 H 0.68122 0.42906 0.41634 0.0
H2166 H 0.73408 0.45205 0.39958 0.0
H2167 H 0.70793 0.44933 0.41123 0.0
H2168 H 0.73042 0.35091 0.3594 0.0
H2169 H 0.70447 0.34763 0.37146 0.0
H2170 H 0.76153 0.36486 0.36465 0.0
H2171 H 0.77311 0.39141 0.36713 0.0
C2172 C 0.88909 0.47804 0.64062 0.0
C2173 C 0.87138 0.46695 0.65148 0.0
C2174 C 0.85005 0.50117 0.64919 0.0
C2175 C 0.86982 0.51321 0.64631 0.0
N2176 N 0.9073 0.51312 0.63311 0.0
N2177 N 0.83463 0.47007 0.66817 0.0
C2178 C 0.88911 0.50161 0.63985 0.0
C2179 C 0.85146 0.47884 0.65591 0.0
N2180 N 0.90552 0.46602 0.63083 0.0
N2181 N 0.83006 0.51102 0.64577 0.0
H2182 H 0.83493 0.45459 0.6756 0.0
H2183 H 0.82102 0.47945 0.6731 0.0
H2184 H 0.82877 0.52682 0.63895 0.0
H2185 H 0.8152 0.50232 0.64662 0.0
H2186 H 0.91813 0.47305 0.62145 0.0
H2187 H 0.90514 0.44877 0.63015 0.0
H2188 H 0.92279 0.50595 0.63088 0.0
H2189 H 0.90664 0.53008 0.62988 0.0
C2190 C 0.59369 0.52841 0.16766 0.0
C2191 C 0.61222 0.5426 0.17104 0.0
C2192 C 0.63467 0.5187 0.14747 0.0
C2193 C 0.6191 0.50174 0.15116 0.0
N2194 N 0.58088 0.49236 0.15452 0.0
N2195 N 0.64825 0.55465 0.15897 0.0
C2196 C 0.5974 0.50744 0.15761 0.0
C2197 C 0.632 0.53897 0.15896 0.0
N2198 N 0.57306 0.53457 0.17454 0.0
N2199 N 0.65151 0.51539 0.13284 0.0
H2200 H 0.6459 0.57038 0.1657 0.0
H2201 H 0.66406 0.55197 0.15272 0.0
H2202 H 0.65227 0.50116 0.12307 0.0
H2203 H 0.66295 0.5275 0.12852 0.0
H2204 H 0.55895 0.52497 0.17268 0.0
H2205 H 0.56956 0.54988 0.18154 0.0
H2206 H 0.56465 0.49429 0.15981 0.0
H2207 H 0.58366 0.47775 0.14568 0.0
C2208 C 0.61183 0.7044 0.91706 0.0
C2209 C 0.61812 0.70613 0.89462 0.0
C2210 C 0.63691 0.74072 0.90216 0.0
C2211 C 0.62356 0.7426 0.92125 0.0
N2212 N 0.60469 0.72438 0.95118 0.0
N2213 N 0.64648 0.71855 0.86986 0.0
C2214 C 0.61372 0.7235 0.93053 0.0
C2215 C 0.63433 0.72179 0.88858 0.0
N2216 N 0.60409 0.68477 0.92504 0.0
N2217 N 0.65009 0.75806 0.8963 0.0
H2218 H 0.645 0.70399 0.86066 0.0
H2219 H 0.65893 0.72913 0.8645 0.0
H2220 H 0.65181 0.77181 0.90665 0.0
H2221 H 0.65913 0.75885 0.88168 0.0
H2222 H 0.59933 0.68223 0.94138 0.0
H2223 H 0.60471 0.67035 0.91555 0.0
H2224 H 0.59494 0.71193 0.95795 0.0
H2225 H 0.60734 0.73778 0.96171 0.0
C2226 C 0.48719 0.35662 0.16511 0.0
C2227 C 0.48914 0.33937 0.18073 0.0
C2228 C 0.52883 0.33772 0.17421 0.0
C2229 C 0.52497 0.34851 0.15385 0.0
N2230 N 0.50536 0.37822 0.13631 0.0
N2231 N 0.51193 0.31798 0.20494 0.0
C2232 C 0.50573 0.36162 0.15158 0.0
C2233 C 0.51028 0.33208 0.18744 0.0
N2234 N 0.46703 0.36619 0.16189 0.0
N2235 N 0.54992 0.3329 0.18049 0.0
H2236 H 0.49812 0.31409 0.21458 0.0
H2237 H 0.52648 0.30997 0.20947 0.0
H2238 H 0.56347 0.33838 0.17129 0.0
H2239 H 0.55396 0.32577 0.19562 0.0
H2240 H 0.46357 0.37752 0.14941 0.0
H2241 H 0.45365 0.3624 0.17213 0.0
H2242 H 0.49204 0.38884 0.13395 0.0
H2243 H 0.51949 0.38235 0.12728 0.0
C2244 C 0.8807 0.23273 0.32659 0.0
C2245 C 0.87398 0.22649 0.34811 0.0
C2246 C 0.86282 0.26422 0.35604 0.0
C2247 C 0.87726 0.27085 0.33892 0.0
N2248 N 0.88871 0.26341 0.3016 0.0
N2249 N 0.84897 0.23341 0.37806 0.0
C2250 C 0.88231 0.2557 0.32181 0.0
C2251 C 0.86119 0.24135 0.36084 0.0
N2252 N 0.88584 0.21685 0.31141 0.0
N2253 N 0.8521 0.27998 0.36812 0.0
H2254 H 0.84763 0.21641 0.38092 0.0
H2255 H 0.83979 0.24324 0.38879 0.0
H2256 H 0.85325 0.29671 0.3639 0.0
H2257 H 0.84162 0.27661 0.38133 0.0
H2258 H 0.89212 0.22008 0.29574 0.0
H2259 H 0.88238 0.20019 0.31431 0.0
H2260 H 0.89345 0.25339 0.28845 0.0
H2261 H 0.88765 0.28018 0.29766 0.0
C2262 C 0.97772 0.64369 0.68229 0.0
C2263 C 0.99421 0.63693 0.66711 0.0
C2264 C 0.96666 0.63221 0.6383 0.0
C2265 C 0.95279 0.64618 0.6509 0.0
N2266 N 0.93873 0.65227 0.6876 0.0
N2267 N 0.00269 0.61429 0.63572 0.0
C2268 C 0.95612 0.64761 0.67401 0.0
C2269 C 0.98784 0.62711 0.64688 0.0
N2270 N 0.98298 0.64703 0.70395 0.0
N2271 N 0.95964 0.62471 0.61821 0.0
H2272 H 0.01809 0.61053 0.6426 0.0
H2273 H 0.9996 0.60676 0.62057 0.0
H2274 H 0.94345 0.62738 0.61283 0.0
H2275 H 0.96922 0.61528 0.60748 0.0
H2276 H 0.9724 0.65433 0.7154 0.0
H2277 H 0.998 0.6417 0.71052 0.0
H2278 H 0.93988 0.65317 0.70474 0.0
H2279 H 0.92256 0.65287 0.68162 0.0
C2280 C 0.62737 0.25534 0.61859 0.0
C2281 C 0.6191 0.23554 0.62778 0.0
C2282 C 0.61456 0.2535 0.66352 0.0
C2283 C 0.61422 0.27377 0.65189 0.0
N2284 N 0.62993 0.2954 0.62261 0.0
N2285 N 0.61745 0.21333 0.6606 0.0
C2286 C 0.62452 0.27511 0.6309 0.0
C2287 C 0.6172 0.23377 0.65104 0.0
N2288 N 0.63736 0.25501 0.59837 0.0
N2289 N 0.61151 0.2533 0.68587 0.0
H2290 H 0.6206 0.19914 0.65123 0.0
H2291 H 0.61591 0.21047 0.67749 0.0
H2292 H 0.61183 0.26785 0.69514 0.0
H2293 H 0.60993 0.239 0.69529 0.0
H2294 H 0.64367 0.26893 0.59049 0.0
H2295 H 0.64091 0.24012 0.59037 0.0
H2296 H 0.63615 0.29809 0.6068 0.0
H2297 H 0.62824 0.30968 0.63222 0.0
C2298 C 0.98737 0.35898 0.92881 0.0
C2299 C 0.97088 0.36284 0.91264 0.0
C2300 C 0.9975 0.38158 0.88919 0.0
C2301 C 0.01413 0.3704 0.90116 0.0
N2302 N 0.02669 0.36095 0.93759 0.0
N2303 N 0.9579 0.38737 0.88435 0.0
C2304 C 0.00969 0.36338 0.92299 0.0
C2305 C 0.9752 0.37793 0.89533 0.0
N2306 N 0.98167 0.35068 0.94899 0.0
N2307 N 0.00327 0.39422 0.87142 0.0
H2308 H 0.94162 0.38465 0.88945 0.0
H2309 H 0.95958 0.39846 0.87131 0.0
H2310 H 0.01987 0.39718 0.86764 0.0
H2311 H 0.99204 0.40207 0.86103 0.0
H2312 H 0.99299 0.34549 0.96084 0.0
H2313 H 0.96524 0.35006 0.95418 0.0
H2314 H 0.02479 0.35587 0.95391 0.0
H2315 H 0.0427 0.36603 0.9336 0.0
C2316 C 0.88603 0.76121 0.14735 0.0
C2317 C 0.88162 0.76111 0.12439 0.0
C2318 C 0.87721 0.72125 0.12521 0.0
C2319 C 0.88983 0.72129 0.14493 0.0
N2320 N 0.89862 0.73997 0.17902 0.0
N2321 N 0.86096 0.74326 0.09558 0.0
C2322 C 0.8912 0.74083 0.15776 0.0
C2323 C 0.87289 0.74176 0.11466 0.0
N2324 N 0.88505 0.78065 0.15877 0.0
N2325 N 0.87102 0.7015 0.1162 0.0
H2326 H 0.85635 0.75858 0.08907 0.0
H2327 H 0.85427 0.72978 0.08726 0.0
H2328 H 0.87394 0.68661 0.12448 0.0
H2329 H 0.8629 0.69979 0.10114 0.0
H2330 H 0.88719 0.7819 0.1758 0.0
H2331 H 0.87977 0.79525 0.15119 0.0
H2332 H 0.90272 0.75388 0.18829 0.0
H2333 H 0.90018 0.72507 0.18755 0.0
C2334 C 0.50068 0.6603 0.45499 0.0
C2335 C 0.51729 0.64644 0.44636 0.0
C2336 C 0.48981 0.62425 0.42774 0.0
C2337 C 0.47579 0.64302 0.42863 0.0
N2338 N 0.46235 0.67253 0.45177 0.0
N2339 N 0.52604 0.60916 0.43735 0.0
C2340 C 0.47913 0.6588 0.44564 0.0
C2341 C 0.51082 0.62572 0.43808 0.0
N2342 N 0.50658 0.67632 0.46965 0.0
N2343 N 0.48362 0.60635 0.41552 0.0
H2344 H 0.54184 0.61153 0.44394 0.0
H2345 H 0.52281 0.59337 0.43128 0.0
H2346 H 0.46796 0.60553 0.40826 0.0
H2347 H 0.4936 0.59257 0.41288 0.0
H2348 H 0.49576 0.68804 0.4761 0.0
H2349 H 0.52284 0.67729 0.47543 0.0
H2350 H 0.4639 0.68494 0.46359 0.0
H2351 H 0.4463 0.67027 0.44589 0.0
C2352 C 0.92205 0.62152 0.76191 0.0
C2353 C 0.93553 0.60301 0.7665 0.0
C2354 C 0.94021 0.59665 0.727 0.0
C2355 C 0.92061 0.60891 0.72373 0.0
N2356 N 0.90037 0.64131 0.73421 0.0
N2357 N 0.96304 0.57741 0.754 0.0
C2358 C 0.91435 0.62457 0.73993 0.0
C2359 C 0.94717 0.59263 0.74909 0.0
N2360 N 0.91484 0.63421 0.77912 0.0
N2361 N 0.9516 0.58886 0.70919 0.0
H2362 H 0.96819 0.57484 0.77028 0.0
H2363 H 0.97062 0.56736 0.74224 0.0
H2364 H 0.94697 0.59306 0.69309 0.0
H2365 H 0.96659 0.58048 0.71041 0.0
H2366 H 0.9038 0.64731 0.77758 0.0
H2367 H 0.92053 0.63138 0.79519 0.0
H2368 H 0.89488 0.65348 0.74507 0.0
H2369 H 0.89537 0.6435 0.71782 0.0
C2370 C 0.64344 0.67777 0.96384 0.0
C2371 C 0.64071 0.65637 0.95434 0.0
C2372 C 0.6167 0.64549 0.98495 0.0
C2373 C 0.62433 0.66427 0.9965 0.0
N2374 N 0.63177 0.70301 0.99302 0.0
N2375 N 0.61771 0.6241 0.95082 0.0
C2376 C 0.63306 0.68219 0.98443 0.0
C2377 C 0.62469 0.64167 0.96318 0.0
N2378 N 0.65681 0.69322 0.95421 0.0
N2379 N 0.60293 0.63106 0.99548 0.0
H2380 H 0.623 0.62176 0.93454 0.0
H2381 H 0.60577 0.61283 0.95592 0.0
H2382 H 0.59649 0.63473 0.0111 0.0
H2383 H 0.59778 0.61599 0.98896 0.0
H2384 H 0.66102 0.7081 0.96176 0.0
H2385 H 0.66415 0.69123 0.93881 0.0
H2386 H 0.63711 0.71714 0.98477 0.0
H2387 H 0.623 0.70613 0.00757 0.0
C2388 C 0.61417 0.38197 0.22758 0.0
C2389 C 0.63546 0.38847 0.22045 0.0
C2390 C 0.64919 0.38645 0.2582 0.0
C2391 C 0.62685 0.38781 0.26528 0.0
N2392 N 0.59043 0.37338 0.25898 0.0
N2393 N 0.67429 0.38295 0.22684 0.0
C2394 C 0.60999 0.38089 0.25064 0.0
C2395 C 0.65353 0.38603 0.23511 0.0
N2396 N 0.5982 0.37772 0.21225 0.0
N2397 N 0.66583 0.38566 0.27341 0.0
H2398 H 0.67696 0.38027 0.21 0.0
H2399 H 0.68833 0.38079 0.23652 0.0
H2400 H 0.66272 0.3824 0.29007 0.0
H2401 H 0.6825 0.38727 0.26954 0.0
H2402 H 0.58171 0.37467 0.21607 0.0
H2403 H 0.60193 0.37701 0.19539 0.0
H2404 H 0.57743 0.3676 0.24933 0.0
H2405 H 0.58819 0.37115 0.27596 0.0
C2406 C 0.88158 0.39503 0.4859 0.0
C2407 C 0.87293 0.4015 0.50656 0.0
C2408 C 0.85735 0.43482 0.49047 0.0
C2409 C 0.8592 0.42429 0.46966 0.0
N2410 N 0.88009 0.40032 0.44597 0.0
N2411 N 0.86599 0.43287 0.52979 0.0
C2412 C 0.87447 0.40673 0.46686 0.0
C2413 C 0.86554 0.42349 0.50931 0.0
N2414 N 0.89539 0.37723 0.48479 0.0
N2415 N 0.84627 0.45438 0.49228 0.0
H2416 H 0.87294 0.42455 0.54324 0.0
H2417 H 0.86159 0.44923 0.53294 0.0
H2418 H 0.84142 0.46338 0.4784 0.0
H2419 H 0.84207 0.46163 0.50732 0.0
H2420 H 0.90227 0.37118 0.47022 0.0
H2421 H 0.90082 0.36931 0.49916 0.0
H2422 H 0.89026 0.38694 0.4423 0.0
H2423 H 0.87453 0.40914 0.43221 0.0
C2424 C 0.85067 0.36821 0.77408 0.0
C2425 C 0.83452 0.38487 0.7773 0.0
C2426 C 0.82175 0.37951 0.73953 0.0
C2427 C 0.84284 0.37073 0.73481 0.0
N2428 N 0.87189 0.34688 0.74719 0.0
N2429 N 0.79885 0.39898 0.76621 0.0
C2430 C 0.85519 0.3612 0.75216 0.0
C2431 C 0.81776 0.38779 0.76116 0.0
N2432 N 0.86202 0.36025 0.79188 0.0
N2433 N 0.80609 0.37992 0.72333 0.0
H2434 H 0.79435 0.40248 0.78247 0.0
H2435 H 0.78733 0.40404 0.75448 0.0
H2436 H 0.809 0.37261 0.70794 0.0
H2437 H 0.78995 0.3854 0.7257 0.0
H2438 H 0.87418 0.34811 0.79097 0.0
H2439 H 0.85806 0.36523 0.80795 0.0
H2440 H 0.88266 0.34013 0.75877 0.0
H2441 H 0.87442 0.3415 0.73095 0.0
C2442 C 0.88006 0.65741 0.00972 0.0
C2443 C 0.86466 0.66337 0.0263 0.0
C2444 C 0.85618 0.69727 0.0066 0.0
C2445 C 0.86452 0.6869 0.98742 0.0
N2446 N 0.89091 0.66242 0.97123 0.0
N2447 N 0.84935 0.69412 0.04623 0.0
C2448 C 0.87959 0.66925 0.98949 0.0
C2449 C 0.85666 0.68531 0.02681 0.0
N2450 N 0.89407 0.64012 0.01328 0.0
N2451 N 0.84561 0.71707 0.00455 0.0
H2452 H 0.85109 0.68556 0.06113 0.0
H2453 H 0.84363 0.71027 0.04789 0.0
H2454 H 0.84533 0.72541 0.98941 0.0
H2455 H 0.83725 0.72493 0.01738 0.0
H2456 H 0.90611 0.63506 0.00206 0.0
H2457 H 0.89454 0.63204 0.02855 0.0
H2458 H 0.90081 0.64835 0.9707 0.0
H2459 H 0.88991 0.67126 0.9564 0.0
C2460 C 0.67145 0.64177 0.29532 0.0
C2461 C 0.69087 0.62917 0.29186 0.0
C2462 C 0.68425 0.62963 0.25215 0.0
C2463 C 0.66173 0.63366 0.2571 0.0
N2464 N 0.63791 0.65685 0.2788 0.0
N2465 N 0.72067 0.62096 0.26722 0.0
C2466 C 0.65654 0.64427 0.27731 0.0
C2467 C 0.69923 0.62728 0.27009 0.0
N2468 N 0.66702 0.64992 0.31586 0.0
N2469 N 0.69088 0.62799 0.23065 0.0
H2470 H 0.73124 0.61928 0.28079 0.0
H2471 H 0.72785 0.6176 0.25196 0.0
H2472 H 0.68013 0.63162 0.21764 0.0
H2473 H 0.70708 0.625 0.22575 0.0
H2474 H 0.65219 0.65744 0.32029 0.0
H2475 H 0.67887 0.64931 0.3284 0.0
H2476 H 0.63332 0.66563 0.29287 0.0
H2477 H 0.62802 0.65988 0.26498 0.0
C2478 C 0.62696 0.33199 0.53594 0.0
C2479 C 0.64554 0.32702 0.54916 0.0
C2480 C 0.66052 0.3033 0.52042 0.0
C2481 C 0.64592 0.3138 0.50546 0.0
N2482 N 0.61077 0.33076 0.49902 0.0
N2483 N 0.67115 0.29833 0.55894 0.0
C2484 C 0.62711 0.3251 0.5135 0.0
C2485 C 0.65926 0.30911 0.54313 0.0
N2486 N 0.61035 0.34449 0.5447 0.0
N2487 N 0.67665 0.28963 0.51258 0.0
H2488 H 0.66918 0.302 0.5757 0.0
H2489 H 0.68083 0.28445 0.55575 0.0
H2490 H 0.67714 0.2847 0.49606 0.0
H2491 H 0.68951 0.28353 0.52226 0.0
H2492 H 0.59634 0.34944 0.53607 0.0
H2493 H 0.61059 0.34914 0.56135 0.0
H2494 H 0.59674 0.33975 0.50326 0.0
H2495 H 0.61132 0.3256 0.48253 0.0
C2496 C 0.72929 0.85302 0.62251 0.0
C2497 C 0.71242 0.86733 0.61493 0.0
C2498 C 0.73464 0.89939 0.62486 0.0
C2499 C 0.75321 0.88535 0.62329 0.0
N2500 N 0.76824 0.84989 0.63259 0.0
N2501 N 0.69468 0.90245 0.62032 0.0
C2502 C 0.7504 0.86236 0.62667 0.0
C2503 C 0.71357 0.89011 0.62035 0.0
N2504 N 0.7251 0.83103 0.62528 0.0
N2505 N 0.73748 0.9212 0.62984 0.0
H2506 H 0.67923 0.89507 0.61801 0.0
H2507 H 0.69411 0.91938 0.62336 0.0
H2508 H 0.75289 0.9273 0.63466 0.0
H2509 H 0.72473 0.93272 0.63058 0.0
H2510 H 0.73688 0.81945 0.63005 0.0
H2511 H 0.70906 0.82475 0.62453 0.0
H2512 H 0.768 0.83279 0.63441 0.0
H2513 H 0.7834 0.85732 0.63627 0.0
C2514 C 0.24259 0.68362 0.38708 0.0
C2515 C 0.22672 0.6695 0.37741 0.0
C2516 C 0.25599 0.6454 0.36415 0.0
C2517 C 0.26946 0.65416 0.38117 0.0
N2518 N 0.28049 0.68764 0.39995 0.0
N2519 N 0.21891 0.64376 0.34842 0.0
C2520 C 0.26453 0.67554 0.3896 0.0
C2521 C 0.23387 0.65301 0.36251 0.0
N2522 N 0.23637 0.70422 0.39388 0.0
N2523 N 0.2644 0.62972 0.35026 0.0
H2524 H 0.20283 0.64999 0.34729 0.0
H2525 H 0.22227 0.63042 0.33808 0.0
H2526 H 0.28102 0.62508 0.35102 0.0
H2527 H 0.25566 0.62269 0.33723 0.0
H2528 H 0.24696 0.71567 0.40111 0.0
H2529 H 0.22057 0.71031 0.39051 0.0
H2530 H 0.2775 0.70229 0.40846 0.0
H2531 H 0.29718 0.68347 0.39885 0.0
C2532 C 0.68642 0.99927 0.62421 0.0
C2533 C 0.69909 0.00666 0.64226 0.0
C2534 C 0.69648 0.97026 0.65911 0.0
C2535 C 0.67691 0.96724 0.64662 0.0
N2536 N 0.6597 0.97201 0.61118 0.0
N2537 N 0.72446 0.99693 0.67077 0.0
C2538 C 0.67435 0.97927 0.62669 0.0
C2539 C 0.70771 0.99083 0.65703 0.0
N2540 N 0.68384 0.01303 0.60657 0.0
N2541 N 0.70379 0.95391 0.67278 0.0
H2542 H 0.73201 0.01239 0.66909 0.0
H2543 H 0.7305 0.98715 0.68357 0.0
H2544 H 0.6965 0.93827 0.67283 0.0
H2545 H 0.71813 0.95503 0.6822 0.0
H2546 H 0.67421 0.0094 0.59279 0.0
H2547 H 0.69224 0.02813 0.60594 0.0
H2548 H 0.65632 0.98029 0.59649 0.0
H2549 H 0.65156 0.95687 0.613 0.0
C2550 C 0.26795 0.42021 0.88248 0.0
C2551 C 0.25237 0.40391 0.87655 0.0
C2552 C 0.28147 0.37642 0.87453 0.0
C2553 C 0.29386 0.39015 0.88888 0.0
N2554 N 0.304 0.42764 0.89842 0.0
N2555 N 0.24602 0.37055 0.85623 0.0
C2556 C 0.28905 0.41311 0.88985 0.0
C2557 C 0.25998 0.38342 0.86839 0.0
N2558 N 0.26231 0.442 0.88105 0.0
N2559 N 0.29011 0.35667 0.86784 0.0
H2560 H 0.23051 0.37644 0.8514 0.0
H2561 H 0.2498 0.35473 0.8506 0.0
H2562 H 0.30629 0.35214 0.87189 0.0
H2563 H 0.28203 0.34556 0.85749 0.0
H2564 H 0.27311 0.45498 0.88435 0.0
H2565 H 0.24719 0.44687 0.87428 0.0
H2566 H 0.30037 0.44406 0.90211 0.0
H2567 H 0.32048 0.42337 0.90093 0.0
C2568 C 0.47885 0.51086 0.64937 0.0
C2569 C 0.47255 0.533 0.64534 0.0
C2570 C 0.44031 0.52069 0.625 0.0
C2571 C 0.44276 0.49981 0.63549 0.0
N2572 N 0.46994 0.47195 0.64441 0.0
N2573 N 0.45748 0.55637 0.6173 0.0
C2574 C 0.46407 0.49369 0.64318 0.0
C2575 C 0.45678 0.537 0.62872 0.0
N2576 N 0.49752 0.50689 0.66131 0.0
N2577 N 0.42224 0.52492 0.61223 0.0
H2578 H 0.46987 0.56801 0.62039 0.0
H2579 H 0.44728 0.55981 0.60386 0.0
H2580 H 0.41131 0.51239 0.6076 0.0
H2581 H 0.41833 0.5406 0.60624 0.0
H2582 H 0.50204 0.49132 0.66714 0.0
H2583 H 0.50807 0.51985 0.66574 0.0
H2584 H 0.48558 0.46663 0.64924 0.0
H2585 H 0.45996 0.45948 0.63789 0.0
C2586 C 0.7505 0.12129 0.13097 0.0
C2587 C 0.75159 0.09984 0.12153 0.0
C2588 C 0.79162 0.10114 0.12217 0.0
C2589 C 0.78984 0.12449 0.12407 0.0
N2590 N 0.77098 0.15416 0.14232 0.0
N2591 N 0.77225 0.06585 0.1212 0.0
C2592 C 0.77032 0.13366 0.13292 0.0
C2593 C 0.77194 0.08841 0.12154 0.0
N2594 N 0.73045 0.12979 0.13686 0.0
N2595 N 0.8119 0.09165 0.11964 0.0
H2596 H 0.75783 0.05657 0.12286 0.0
H2597 H 0.78664 0.05644 0.12174 0.0
H2598 H 0.8264 0.10045 0.12286 0.0
H2599 H 0.81425 0.07544 0.11435 0.0
H2600 H 0.72799 0.14592 0.14231 0.0
H2601 H 0.71616 0.1201 0.13642 0.0
H2602 H 0.75739 0.162 0.14938 0.0
H2603 H 0.78595 0.16251 0.1444 0.0
C2604 C 0.58222 0.02095 0.86531 0.0
C2605 C 0.59861 0.03769 0.86527 0.0
C2606 C 0.62473 0.01247 0.88246 0.0
C2607 C 0.61169 0.99505 0.87402 0.0
N2608 N 0.57463 0.98155 0.86989 0.0
N2609 N 0.63073 0.05232 0.88337 0.0
C2610 C 0.58904 0.9989 0.86975 0.0
C2611 C 0.61822 0.03445 0.87759 0.0
N2612 N 0.56073 0.02623 0.86101 0.0
N2613 N 0.64328 0.00767 0.89434 0.0
H2614 H 0.62512 0.06843 0.88058 0.0
H2615 H 0.64602 0.05133 0.89115 0.0
H2616 H 0.64712 0.99138 0.89868 0.0
H2617 H 0.65381 0.0195 0.90104 0.0
H2618 H 0.54804 0.01474 0.8596 0.0
H2619 H 0.55538 0.04263 0.86052 0.0
H2620 H 0.55792 0.98277 0.86605 0.0
H2621 H 0.57952 0.96588 0.87527 0.0
C2622 C 0.95342 0.00695 0.34227 0.0
C2623 C 0.94765 0.9856 0.34963 0.0
C2624 C 0.91914 0.00102 0.37336 0.0
C2625 C 0.91989 0.02021 0.35999 0.0
N2626 N 0.94466 0.04627 0.3429 0.0
N2627 N 0.93245 0.96321 0.3783 0.0
C2628 C 0.93959 0.02497 0.34827 0.0
C2629 C 0.93366 0.9833 0.36815 0.0
N2630 N 0.97025 0.00912 0.32745 0.0
N2631 N 0.9041 0.99978 0.39012 0.0
H2632 H 0.94291 0.95029 0.37352 0.0
H2633 H 0.9216 0.95943 0.3911 0.0
H2634 H 0.89421 0.01334 0.39427 0.0
H2635 H 0.90236 0.98621 0.40055 0.0
H2636 H 0.97411 0.02381 0.31936 0.0
H2637 H 0.98 0.99551 0.32312 0.0
H2638 H 0.95914 0.05086 0.33481 0.0
H2639 H 0.93534 0.05953 0.34884 0.0
C2640 C 0.37232 0.24597 0.13119 0.0
C2641 C 0.37958 0.22384 0.13435 0.0
C2642 C 0.38067 0.22945 0.17427 0.0
C2643 C 0.37989 0.25242 0.17035 0.0
N2644 N 0.36552 0.28198 0.14836 0.0
N2645 N 0.37951 0.19239 0.15856 0.0
C2646 C 0.37198 0.26041 0.14986 0.0
C2647 C 0.37967 0.21482 0.15596 0.0
N2648 N 0.36641 0.25312 0.11062 0.0
N2649 N 0.38468 0.22214 0.19523 0.0
H2650 H 0.37829 0.18178 0.14498 0.0
H2651 H 0.37871 0.1845 0.17383 0.0
H2652 H 0.3852 0.23317 0.20854 0.0
H2653 H 0.38773 0.2057 0.19933 0.0
H2654 H 0.36201 0.2693 0.10687 0.0
H2655 H 0.36444 0.24237 0.09732 0.0
H2656 H 0.35993 0.28956 0.13399 0.0
H2657 H 0.36467 0.29205 0.16236 0.0
C2658 C 0.48247 0.6448 0.89249 0.0
C2659 C 0.47003 0.66265 0.8832 0.0
C2660 C 0.492 0.65823 0.84955 0.0
C2661 C 0.50861 0.64778 0.86197 0.0
N2662 N 0.51834 0.62685 0.8942 0.0
N2663 N 0.46604 0.6879 0.85162 0.0
C2664 C 0.50328 0.63942 0.88307 0.0
C2665 C 0.47517 0.66956 0.86112 0.0
N2666 N 0.47427 0.63259 0.90959 0.0
N2667 N 0.49292 0.65831 0.82703 0.0
H2668 H 0.45651 0.69957 0.85984 0.0
H2669 H 0.4707 0.69328 0.83595 0.0
H2670 H 0.50467 0.64904 0.81842 0.0
H2671 H 0.48034 0.66493 0.81726 0.0
H2672 H 0.48221 0.61863 0.91583 0.0
H2673 H 0.45827 0.63459 0.91551 0.0
H2674 H 0.51656 0.62247 0.91077 0.0
H2675 H 0.53298 0.62153 0.88671 0.0
C2676 C 0.08869 0.74436 0.59008 0.0
C2677 C 0.09665 0.76024 0.60539 0.0
C2678 C 0.10864 0.73012 0.62937 0.0
C2679 C 0.09273 0.7164 0.61898 0.0
N2680 N 0.07393 0.70734 0.58506 0.0
N2681 N 0.12058 0.76785 0.63618 0.0
C2682 C 0.08496 0.72242 0.59769 0.0
C2683 C 0.10904 0.75291 0.62382 0.0
N2684 N 0.08511 0.75014 0.56857 0.0
N2685 N 0.12349 0.72128 0.64385 0.0
H2686 H 0.12246 0.78428 0.63114 0.0
H2687 H 0.1278 0.76405 0.65134 0.0
H2688 H 0.12484 0.70422 0.64614 0.0
H2689 H 0.13617 0.73036 0.65114 0.0
H2690 H 0.08013 0.739 0.55643 0.0
H2691 H 0.08998 0.76543 0.56228 0.0
H2692 H 0.06526 0.71143 0.57076 0.0
H2693 H 0.0736 0.69056 0.5891 0.0
C2694 C 0.98593 0.34707 0.43574 0.0
C2695 C 0.00675 0.34711 0.42474 0.0
C2696 C 0.98796 0.36088 0.39174 0.0
C2697 C 0.96793 0.35242 0.39994 0.0
N2698 N 0.9459 0.34478 0.43207 0.0
N2699 N 0.02661 0.35348 0.38988 0.0
C2700 C 0.96622 0.34808 0.42287 0.0
C2701 C 0.00776 0.3545 0.40225 0.0
N2702 N 0.98522 0.346 0.45828 0.0
N2703 N 0.9881 0.3745 0.37377 0.0
H2704 H 0.04171 0.34775 0.39544 0.0
H2705 H 0.02666 0.35652 0.3729 0.0
H2706 H 0.97345 0.38049 0.36687 0.0
H2707 H 0.00248 0.38205 0.36796 0.0
H2708 H 0.9707 0.34713 0.46745 0.0
H2709 H 0.99956 0.34606 0.46787 0.0
H2710 H 0.94346 0.339 0.4481 0.0
H2711 H 0.93139 0.34804 0.4233 0.0
C2712 C 0.37337 0.74948 0.36446 0.0
C2713 C 0.37336 0.75782 0.38629 0.0
C2714 C 0.38017 0.72077 0.40058 0.0
C2715 C 0.38648 0.71409 0.37906 0.0
N2716 N 0.38616 0.72064 0.33967 0.0
N2717 N 0.36565 0.74907 0.4245 0.0
C2718 C 0.38147 0.72774 0.3606 0.0
C2719 C 0.37282 0.74264 0.40411 0.0
N2720 N 0.36562 0.76246 0.34772 0.0
N2721 N 0.38183 0.70682 0.41817 0.0
H2722 H 0.35788 0.76428 0.42705 0.0
H2723 H 0.36583 0.73846 0.43813 0.0
H2724 H 0.38692 0.69036 0.4168 0.0
H2725 H 0.38692 0.69036 0.4168 0.0
H2726 H 0.36381 0.75704 0.33148 0.0
H2727 H 0.35875 0.77801 0.35088 0.0
H2728 H 0.3855 0.73084 0.32581 0.0
H2729 H 0.39147 0.70459 0.33626 0.0
C2730 C 0.99257 0.64395 0.08986 0.0
C2731 C 0.99439 0.64347 0.11312 0.0
C2732 C 0.03423 0.6477 0.1106 0.0
C2733 C 0.03132 0.6548 0.08845 0.0
N2734 N 0.00951 0.65414 0.05497 0.0
N2735 N 0.0172 0.63233 0.14368 0.0
C2736 C 0.01122 0.65038 0.07717 0.0
C2737 C 0.01542 0.64103 0.12294 0.0
N2738 N 0.97274 0.63883 0.08041 0.0
N2739 N 0.05479 0.64855 0.11986 0.0
H2740 H 0.00364 0.62546 0.15182 0.0
H2741 H 0.03214 0.6296 0.15173 0.0
H2742 H 0.0688 0.65209 0.11042 0.0
H2743 H 0.058 0.64595 0.13656 0.0
H2744 H 0.97009 0.63768 0.06345 0.0
H2745 H 0.95925 0.63395 0.09004 0.0
H2746 H 0.99466 0.65393 0.0463 0.0
H2747 H 0.0231 0.65751 0.04498 0.0
C2748 C 0.10072 0.24973 0.91695 0.0
C2749 C 0.10635 0.23623 0.8985 0.0
C2750 C 0.12056 0.26859 0.87894 0.0
C2751 C 0.10847 0.28188 0.89392 0.0
N2752 N 0.10022 0.28701 0.93235 0.0
N2753 N 0.13112 0.23124 0.86789 0.0
C2754 C 0.10286 0.27306 0.9148 0.0
C2755 C 0.11975 0.24523 0.8815 0.0
N2756 N 0.09283 0.24051 0.93596 0.0
N2757 N 0.13215 0.27848 0.86229 0.0
H2758 H 0.13129 0.21417 0.87065 0.0
H2759 H 0.14124 0.23633 0.85497 0.0
H2760 H 0.13411 0.29564 0.86172 0.0
H2761 H 0.14031 0.27001 0.84975 0.0
H2762 H 0.08524 0.24955 0.9485 0.0
H2763 H 0.09461 0.22376 0.93955 0.0
H2764 H 0.09717 0.28175 0.94845 0.0
H2765 H 0.10361 0.3039 0.93099 0.0
C2766 C 0.49318 0.36031 0.59829 0.0
C2767 C 0.47318 0.35435 0.60885 0.0
C2768 C 0.49053 0.36013 0.6448 0.0
C2769 C 0.51117 0.35701 0.63423 0.0
N2770 N 0.53319 0.36201 0.60155 0.0
N2771 N 0.45063 0.35664 0.64148 0.0
C2772 C 0.51282 0.36015 0.61108 0.0
C2773 C 0.47109 0.35731 0.632 0.0
N2774 N 0.49328 0.36617 0.5765 0.0
N2775 N 0.48967 0.36575 0.66663 0.0
H2776 H 0.43626 0.3564 0.6319 0.0
H2777 H 0.4479 0.35617 0.65847 0.0
H2778 H 0.50381 0.36998 0.6755 0.0
H2779 H 0.47504 0.36888 0.67514 0.0
H2780 H 0.50735 0.37135 0.56807 0.0
H2781 H 0.47871 0.3686 0.56764 0.0
H2782 H 0.53592 0.36174 0.58456 0.0
H2783 H 0.54749 0.36351 0.61111 0.0
C2784 C 0.17605 0.39946 0.21527 0.0
C2785 C 0.15495 0.39093 0.22091 0.0
C2786 C 0.17124 0.37465 0.25415 0.0
C2787 C 0.18824 0.39043 0.25251 0.0
N2788 N 0.21094 0.41325 0.22962 0.0
N2789 N 0.13555 0.36205 0.24069 0.0
C2790 C 0.19244 0.4006 0.23197 0.0
C2791 C 0.15358 0.37542 0.23859 0.0
N2792 N 0.18014 0.40638 0.1942 0.0
N2793 N 0.17183 0.35992 0.27118 0.0
H2794 H 0.12423 0.35988 0.22791 0.0
H2795 H 0.13236 0.35239 0.25457 0.0
H2796 H 0.18482 0.36006 0.28257 0.0
H2797 H 0.1607 0.34694 0.27309 0.0
H2798 H 0.19559 0.41178 0.18883 0.0
H2799 H 0.16855 0.4042 0.18159 0.0
H2800 H 0.21389 0.42341 0.21602 0.0
H2801 H 0.22292 0.41385 0.24206 0.0
C2802 C 0.36407 0.43576 0.00612 0.0
C2803 C 0.36685 0.42411 0.02613 0.0
C2804 C 0.38126 0.3922 0.00609 0.0
C2805 C 0.37234 0.40158 0.98661 0.0
N2806 N 0.36897 0.4356 0.96623 0.0
N2807 N 0.38486 0.3951 0.04618 0.0
C2808 C 0.36847 0.42466 0.98594 0.0
C2809 C 0.37845 0.40379 0.02637 0.0
N2810 N 0.35533 0.45656 0.00659 0.0
N2811 N 0.39193 0.37235 0.00493 0.0
H2812 H 0.38321 0.40411 0.06082 0.0
H2813 H 0.39202 0.37958 0.04816 0.0
H2814 H 0.3952 0.3648 0.98973 0.0
H2815 H 0.39878 0.36421 0.01844 0.0
H2816 H 0.35042 0.46516 0.99251 0.0
H2817 H 0.35255 0.46478 0.02154 0.0
H2818 H 0.36718 0.45267 0.9648 0.0
H2819 H 0.37379 0.42767 0.95166 0.0
C2820 C 0.4018 0.598 0.74733 0.0
C2821 C 0.42471 0.59817 0.75303 0.0
C2822 C 0.41493 0.60097 0.79221 0.0
C2823 C 0.39241 0.59886 0.78634 0.0
N2824 N 0.36483 0.60771 0.75897 0.0
N2825 N 0.45268 0.60716 0.77983 0.0
C2826 C 0.386 0.60188 0.76412 0.0
C2827 C 0.43113 0.60236 0.7752 0.0
N2828 N 0.39471 0.59191 0.72674 0.0
N2829 N 0.42064 0.60086 0.81403 0.0
H2830 H 0.46461 0.60844 0.76741 0.0
H2831 H 0.45829 0.61171 0.79546 0.0
H2832 H 0.40865 0.60145 0.82644 0.0
H2833 H 0.43685 0.59987 0.8197 0.0
H2834 H 0.37812 0.58913 0.72307 0.0
H2835 H 0.40503 0.58753 0.71375 0.0
H2836 H 0.35984 0.6114 0.74289 0.0
H2837 H 0.35323 0.61193 0.77098 0.0
C2838 C 0.17301 0.57254 0.49399 0.0
C2839 C 0.15629 0.57972 0.50862 0.0
C2840 C 0.14042 0.60172 0.47894 0.0
C2841 C 0.16101 0.60071 0.4677 0.0
N2842 N 0.1976 0.584 0.4649 0.0
N2843 N 0.12154 0.59774 0.51413 0.0
C2844 C 0.17734 0.58527 0.47481 0.0
C2845 C 0.13888 0.59289 0.50059 0.0
N2846 N 0.18532 0.55431 0.49901 0.0
N2847 N 0.12266 0.6113 0.46891 0.0
H2848 H 0.11987 0.5901 0.5295 0.0
H2849 H 0.10943 0.60939 0.51034 0.0
H2850 H 0.12356 0.61695 0.45264 0.0
H2851 H 0.10684 0.61147 0.47571 0.0
H2852 H 0.19693 0.54755 0.4882 0.0
H2853 H 0.18193 0.54453 0.5128 0.0
H2854 H 0.21065 0.57491 0.47153 0.0
H2855 H 0.20221 0.59295 0.45099 0.0
C2856 C 0.1172 0.60288 0.25878 0.0
C2857 C 0.13009 0.58705 0.27045 0.0
C2858 C 0.15318 0.58257 0.23759 0.0
C2859 C 0.13671 0.59305 0.22486 0.0
N2860 N 0.1035 0.61466 0.22292 0.0
N2861 N 0.15938 0.55933 0.26912 0.0
C2862 C 0.11898 0.60398 0.23538 0.0
C2863 C 0.14826 0.5766 0.25965 0.0
N2864 N 0.10343 0.61678 0.27007 0.0
N2865 N 0.17306 0.5773 0.22831 0.0
H2866 H 0.15571 0.55252 0.28444 0.0
H2867 H 0.17095 0.54997 0.26047 0.0
H2868 H 0.177 0.58125 0.212 0.0
H2869 H 0.18636 0.57151 0.23762 0.0
H2870 H 0.09478 0.62963 0.26254 0.0
H2871 H 0.1026 0.6169 0.28731 0.0
H2872 H 0.08878 0.62083 0.22939 0.0
H2873 H 0.10522 0.61648 0.20582 0.0
C2874 C 0.14117 0.38428 0.00369 0.0
C2875 C 0.1501 0.36347 0.00984 0.0
C2876 C 0.15456 0.35367 0.97085 0.0
C2877 C 0.15179 0.37638 0.96555 0.0
N2878 N 0.12925 0.40815 0.97357 0.0
N2879 N 0.15139 0.32509 0.999 0.0
C2880 C 0.14072 0.39016 0.98093 0.0
C2881 C 0.15241 0.34692 0.99332 0.0
N2882 N 0.13333 0.39825 0.0196 0.0
N2883 N 0.15899 0.33879 0.95447 0.0
H2884 H 0.14669 0.32 0.01478 0.0
H2885 H 0.15223 0.31216 0.98768 0.0
H2886 H 0.15704 0.34281 0.9378 0.0
H2887 H 0.16412 0.32261 0.95733 0.0
H2888 H 0.12914 0.41469 0.01668 0.0
H2889 H 0.13101 0.39305 0.03591 0.0
H2890 H 0.11989 0.41839 0.98377 0.0
H2891 H 0.12704 0.41115 0.95672 0.0
C2892 C 0.39186 0.38694 0.73942 0.0
C2893 C 0.37176 0.38912 0.75124 0.0
C2894 C 0.35486 0.40873 0.72051 0.0
C2895 C 0.376 0.41024 0.7103 0.0
N2896 N 0.41246 0.39492 0.70569 0.0
N2897 N 0.33231 0.38903 0.74719 0.0
C2898 C 0.39384 0.39721 0.7183 0.0
C2899 C 0.35256 0.3955 0.73969 0.0
N2900 N 0.40887 0.37546 0.74879 0.0
N2901 N 0.33747 0.4212 0.71326 0.0
H2902 H 0.33071 0.37819 0.76054 0.0
H2903 H 0.3177 0.39204 0.73856 0.0
H2904 H 0.33829 0.43176 0.69969 0.0
H2905 H 0.32262 0.42241 0.72191 0.0
H2906 H 0.42479 0.3747 0.74236 0.0
H2907 H 0.40658 0.36622 0.7632 0.0
H2908 H 0.42596 0.38522 0.71004 0.0
H2909 H 0.41379 0.4018 0.68991 0.0
C2910 C 0.3474 0.59141 0.50985 0.0
C2911 C 0.35349 0.61311 0.5162 0.0
C2912 C 0.366 0.62066 0.47866 0.0
C2913 C 0.35386 0.60189 0.47159 0.0
N2914 N 0.34269 0.56455 0.48092 0.0
N2915 N 0.38035 0.64176 0.50981 0.0
C2916 C 0.34814 0.58548 0.48731 0.0
C2917 C 0.36684 0.62567 0.50164 0.0
N2918 N 0.34069 0.57623 0.52504 0.0
N2919 N 0.37563 0.634 0.46322 0.0
H2920 H 0.38272 0.64384 0.52676 0.0
H2921 H 0.3911 0.65105 0.5001 0.0
H2922 H 0.37609 0.62954 0.44653 0.0
H2923 H 0.38275 0.64926 0.4668 0.0
H2924 H 0.34078 0.57925 0.54205 0.0
H2925 H 0.34078 0.57925 0.54205 0.0
H2926 H 0.33728 0.55259 0.49214 0.0
H2927 H 0.34544 0.5588 0.4649 0.0
C2928 C 0.26363 0.11786 0.39712 0.0
C2929 C 0.24585 0.13241 0.40156 0.0
C2930 C 0.27211 0.16263 0.40677 0.0
C2931 C 0.28838 0.14641 0.41124 0.0
N2932 N 0.3026 0.11018 0.40313 0.0
N2933 N 0.23296 0.17005 0.40138 0.0
C2934 C 0.28517 0.12452 0.40353 0.0
C2935 C 0.25007 0.15543 0.40309 0.0
N2936 N 0.25992 0.09829 0.38653 0.0
N2937 N 0.27779 0.18445 0.40571 0.0
H2938 H 0.21728 0.16503 0.3962 0.0
H2939 H 0.23424 0.18685 0.40494 0.0
H2940 H 0.29422 0.1896 0.40592 0.0
H2941 H 0.26675 0.19709 0.40197 0.0
H2942 H 0.27241 0.0873 0.38209 0.0
H2943 H 0.24457 0.09446 0.37968 0.0
H2944 H 0.30107 0.09329 0.40015 0.0
H2945 H 0.31874 0.11554 0.40612 0.0
C2946 C 0.77707 0.37055 0.60784 0.0
C2947 C 0.78605 0.38393 0.59073 0.0
C2948 C 0.75514 0.40956 0.59558 0.0
C2949 C 0.74312 0.39227 0.60562 0.0
N2950 N 0.74429 0.36012 0.62877 0.0
N2951 N 0.78458 0.41868 0.57033 0.0
C2952 C 0.75482 0.37411 0.61455 0.0
C2953 C 0.77578 0.40455 0.5856 0.0
N2954 N 0.78993 0.35468 0.61749 0.0
N2955 N 0.74685 0.43054 0.59576 0.0
H2956 H 0.79975 0.41644 0.56263 0.0
H2957 H 0.7762 0.43255 0.56456 0.0
H2958 H 0.73245 0.43446 0.60443 0.0
H2959 H 0.7556 0.44421 0.58999 0.0
H2960 H 0.78488 0.34499 0.63078 0.0
H2961 H 0.80657 0.35267 0.61336 0.0
H2962 H 0.7508 0.34513 0.63417 0.0
H2963 H 0.72865 0.36386 0.6351 0.0
C2964 C 0.39309 0.9899 0.32593 0.0
C2965 C 0.37292 0.98197 0.33505 0.0
C2966 C 0.36497 0.01913 0.3493 0.0
C2967 C 0.38539 0.02658 0.3407 0.0
N2968 N 0.42244 0.01663 0.32954 0.0
N2969 N 0.34329 0.9876 0.36127 0.0
C2970 C 0.40073 0.0111 0.33216 0.0
C2971 C 0.35997 0.99614 0.34867 0.0
N2972 N 0.40407 0.97838 0.30985 0.0
N2973 N 0.35026 0.03406 0.3577 0.0
H2974 H 0.33995 0.97067 0.36197 0.0
H2975 H 0.33443 0.99692 0.37274 0.0
H2976 H 0.35415 0.05079 0.35954 0.0
H2977 H 0.33406 0.02998 0.36189 0.0
H2978 H 0.41761 0.98488 0.30139 0.0
H2979 H 0.39829 0.96374 0.30288 0.0
H2980 H 0.4344 0.00526 0.32451 0.0
H2981 H 0.42894 0.03149 0.33529 0.0
C2982 C 0.72055 0.59815 0.07536 0.0
C2983 C 0.7124 0.61759 0.08579 0.0
C2984 C 0.7488 0.6246 0.1019 0.0
C2985 C 0.75779 0.60816 0.08785 0.0
N2986 N 0.75087 0.57212 0.07186 0.0
N2987 N 0.71563 0.63996 0.11852 0.0
C2988 C 0.74329 0.59254 0.07787 0.0
C2989 C 0.72555 0.6278 0.10229 0.0
N2990 N 0.70674 0.58503 0.06328 0.0
N2991 N 0.76253 0.63726 0.11457 0.0
H2992 H 0.69844 0.64089 0.11988 0.0
H2993 H 0.72412 0.64674 0.13187 0.0
H2994 H 0.77935 0.63372 0.11614 0.0
H2995 H 0.75731 0.6513 0.12309 0.0
H2996 H 0.71229 0.5732 0.05205 0.0
H2997 H 0.68962 0.5856 0.06508 0.0
H2998 H 0.74084 0.5597 0.06542 0.0
H2999 H 0.76645 0.56633 0.07627 0.0
C3000 C 0.6446 0.51408 0.35718 0.0
C3001 C 0.66817 0.51349 0.35701 0.0
C3002 C 0.66687 0.47352 0.36383 0.0
C3003 C 0.64356 0.47446 0.3617 0.0
N3004 N 0.61174 0.49629 0.37126 0.0
N3005 N 0.70135 0.49401 0.36737 0.0
C3006 C 0.63299 0.49505 0.3639 0.0
C3007 C 0.67924 0.49359 0.3629 0.0
N3008 N 0.633 0.53138 0.34848 0.0
N3009 N 0.67691 0.45344 0.36614 0.0
H3010 H 0.71044 0.50869 0.36721 0.0
H3011 H 0.71022 0.48036 0.37295 0.0
H3012 H 0.66775 0.43905 0.36884 0.0
H3013 H 0.69393 0.45107 0.36523 0.0
H3014 H 0.6159 0.53085 0.34667 0.0
H3015 H 0.64014 0.54474 0.34038 0.0
H3016 H 0.60373 0.51136 0.3739 0.0
H3017 H 0.60349 0.48242 0.37742 0.0
C3018 C 0.223 0.84042 0.87969 0.0
C3019 C 0.20796 0.8544 0.89093 0.0
C3020 C 0.23456 0.88465 0.88864 0.0
C3021 C 0.25132 0.86854 0.88599 0.0
N3022 N 0.26143 0.83394 0.86937 0.0
N3023 N 0.19671 0.89145 0.90009 0.0
C3024 C 0.24543 0.84731 0.87801 0.0
C3025 C 0.21276 0.87727 0.89294 0.0
N3026 N 0.21586 0.82086 0.87101 0.0
N3027 N 0.23949 0.90659 0.88676 0.0
H3028 H 0.18032 0.88633 0.90196 0.0
H3029 H 0.19971 0.90781 0.90456 0.0
H3030 H 0.255 0.91193 0.88143 0.0
H3031 H 0.2277 0.91911 0.88768 0.0
H3032 H 0.22588 0.80995 0.86228 0.0
H3033 H 0.19918 0.8166 0.87068 0.0
H3034 H 0.25902 0.81745 0.86507 0.0
H3035 H 0.27735 0.83986 0.86623 0.0
C3036 C 0.39261 0.00239 0.13274 0.0
C3037 C 0.3983 0.02253 0.14337 0.0
C3038 C 0.434 0.00728 0.15405 0.0
C3039 C 0.42565 0.986 0.14927 0.0
N3040 N 0.40145 0.96324 0.12779 0.0
N3041 N 0.42864 0.047 0.15102 0.0
C3042 C 0.40654 0.98363 0.13602 0.0
C3043 C 0.42059 0.02597 0.14957 0.0
N3044 N 0.37426 0.00148 0.11968 0.0
N3045 N 0.45387 0.00923 0.16453 0.0
H3046 H 0.41909 0.06064 0.14639 0.0
H3047 H 0.44512 0.05066 0.15434 0.0
H3048 H 0.46401 0.9955 0.16726 0.0
H3049 H 0.45987 0.02406 0.17092 0.0
H3050 H 0.36857 0.98725 0.11189 0.0
H3051 H 0.36573 0.01578 0.11511 0.0
H3052 H 0.38751 0.95977 0.11837 0.0
H3053 H 0.41196 0.94972 0.13007 0.0
C3054 C 0.11337 0.98338 0.63823 0.0
C3055 C 0.13649 0.98098 0.64053 0.0
C3056 C 0.14124 0.02084 0.6411 0.0
C3057 C 0.11827 0.0228 0.64533 0.0
N3058 N 0.08156 0.0079 0.64009 0.0
N3059 N 0.17147 0.99674 0.63012 0.0
C3060 C 0.10391 0.00477 0.64073 0.0
C3061 C 0.15027 0.99955 0.63726 0.0
N3062 N 0.10092 0.96505 0.63389 0.0
N3063 N 0.15429 0.03926 0.64177 0.0
H3064 H 0.17736 0.98134 0.62501 0.0
H3065 H 0.18217 0.00974 0.62657 0.0
H3066 H 0.14759 0.05514 0.64305 0.0
H3067 H 0.17149 0.03883 0.64145 0.0
H3068 H 0.08389 0.9651 0.63167 0.0
H3069 H 0.1083 0.94967 0.63105 0.0
H3070 H 0.07005 0.9952 0.63892 0.0
H3071 H 0.07434 0.02351 0.64013 0.0
C3072 C 0.96838 0.24844 0.39634 0.0
C3073 C 0.97163 0.22521 0.39895 0.0
C3074 C 0.0113 0.2318 0.40457 0.0
C3075 C 0.00778 0.25503 0.4045 0.0
N3076 N 0.98198 0.28553 0.40356 0.0
N3077 N 0.9977 0.19525 0.40663 0.0
C3078 C 0.98606 0.26341 0.40109 0.0
C3079 C 0.99333 0.21709 0.40316 0.0
N3080 N 0.94872 0.25622 0.3883 0.0
N3081 N 0.03189 0.2229 0.40674 0.0
H3082 H 0.98575 0.18283 0.4073 0.0
H3083 H 0.98575 0.18283 0.4073 0.0
H3084 H 0.04644 0.23219 0.40708 0.0
H3085 H 0.04644 0.23219 0.40708 0.0
H3086 H 0.94556 0.27281 0.38509 0.0
H3087 H 0.93609 0.24596 0.38267 0.0
H3088 H 0.96614 0.2922 0.4044 0.0
H3089 H 0.99429 0.29719 0.40653 0.0
C3090 C 0.9989 0.73309 0.68643 0.0
C3091 C 0.02218 0.73499 0.68335 0.0
C3092 C 0.01847 0.77528 0.67999 0.0
C3093 C 0.99542 0.77361 0.68401 0.0
N3094 N 0.96389 0.7513 0.69397 0.0
N3095 N 0.05399 0.75896 0.67739 0.0
C3096 C 0.98572 0.75261 0.6882 0.0
C3097 C 0.03181 0.7562 0.68021 0.0
N3098 N 0.98911 0.71267 0.686 0.0
N3099 N 0.02859 0.7951 0.67637 0.0
H3100 H 0.06547 0.74607 0.67776 0.0
H3101 H 0.06547 0.74607 0.67776 0.0
H3102 H 0.02038 0.81029 0.67612 0.0
H3103 H 0.02038 0.81029 0.67612 0.0
H3104 H 0.97209 0.71026 0.68538 0.0
H3105 H 0.99789 0.69793 0.68433 0.0
H3106 H 0.95647 0.73697 0.69997 0.0
H3107 H 0.95334 0.76495 0.6941 0.0
C3108 C 0.52256 0.74037 0.95924 0.0
C3109 C 0.52129 0.76284 0.95225 0.0
C3110 C 0.48232 0.75756 0.94226 0.0
C3111 C 0.48327 0.73521 0.94954 0.0
N3112 N 0.50343 0.70595 0.96759 0.0
N3113 N 0.49885 0.79277 0.93734 0.0
C3114 C 0.50314 0.72684 0.95893 0.0
C3115 C 0.50105 0.7713 0.94389 0.0
N3116 N 0.54264 0.73154 0.96477 0.0
N3117 N 0.46342 0.76673 0.93411 0.0
H3118 H 0.51146 0.80451 0.93824 0.0
H3119 H 0.51146 0.80451 0.93824 0.0
H3120 H 0.44839 0.75836 0.93269 0.0
H3121 H 0.44839 0.75836 0.93269 0.0
H3122 H 0.54535 0.71475 0.96746 0.0
H3123 H 0.55722 0.74073 0.96507 0.0
H3124 H 0.51635 0.69972 0.97708 0.0
H3125 H 0.49007 0.69511 0.96644 0.0
C3126 C 0.50037 0.23051 0.18627 0.0
C3127 C 0.47958 0.23088 0.1753 0.0
C3128 C 0.48823 0.1957 0.15724 0.0
C3129 C 0.50894 0.19497 0.1684 0.0
N3130 N 0.53225 0.20884 0.19753 0.0
N3131 N 0.45282 0.21161 0.15221 0.0
C3132 C 0.51421 0.21153 0.18419 0.0
C3133 C 0.47321 0.21286 0.1617 0.0
N3134 N 0.50757 0.24881 0.19745 0.0
N3135 N 0.48227 0.18069 0.1415 0.0
H3136 H 0.44018 0.22308 0.15484 0.0
H3137 H 0.44018 0.22308 0.15484 0.0
H3138 H 0.49215 0.16763 0.13609 0.0
H3139 H 0.49215 0.16763 0.13609 0.0
H3140 H 0.52358 0.25048 0.20356 0.0
H3141 H 0.49824 0.26322 0.19903 0.0
H3142 H 0.53583 0.21916 0.21084 0.0
H3143 H 0.54242 0.19491 0.19665 0.0
C3144 C 0.00894 0.76524 0.0436 0.0
C3145 C 0.01025 0.74316 0.05171 0.0
C3146 C 0.97267 0.74672 0.06679 0.0
C3147 C 0.97072 0.76842 0.05776 0.0
N3148 N 0.98568 0.79653 0.03377 0.0
N3149 N 0.9915 0.7125 0.06989 0.0
C3150 C 0.98852 0.77715 0.04507 0.0
C3151 C 0.99166 0.73385 0.06265 0.0
N3152 N 0.02755 0.7754 0.03574 0.0
N3153 N 0.95699 0.73769 0.08023 0.0
H3154 H 0.00436 0.70128 0.0673 0.0
H3155 H 0.00436 0.70128 0.0673 0.0
H3156 H 0.94271 0.74579 0.08549 0.0
H3157 H 0.94271 0.74579 0.08549 0.0
H3158 H 0.02837 0.79223 0.03216 0.0
H3159 H 0.04282 0.76749 0.0346 0.0
H3160 H 0.99711 0.8027 0.02246 0.0
H3161 H 0.97089 0.80541 0.03403 0.0
C3162 C 0.50708 0.72221 0.32992 0.0
C3163 C 0.48629 0.72449 0.34083 0.0
C3164 C 0.49285 0.76469 0.34387 0.0
C3165 C 0.51472 0.76186 0.33587 0.0
N3166 N 0.54352 0.73769 0.32282 0.0
N3167 N 0.45823 0.74862 0.35527 0.0
C3168 C 0.52208 0.74053 0.32932 0.0
C3169 C 0.47892 0.74609 0.34671 0.0
N3170 N 0.51184 0.70324 0.31861 0.0
N3171 N 0.48492 0.78494 0.34991 0.0
H3172 H 0.45143 0.76377 0.36007 0.0
H3173 H 0.45143 0.76377 0.36007 0.0
H3174 H 0.49382 0.79969 0.34904 0.0
H3175 H 0.49382 0.79969 0.34904 0.0
H3176 H 0.52593 0.70123 0.30893 0.0
H3177 H 0.50033 0.69064 0.3163 0.0
H3178 H 0.55071 0.72221 0.32044 0.0
H3179 H 0.55457 0.75086 0.32124 0.0
C3180 C 0.51049 0.27886 0.56662 0.0
C3181 C 0.49095 0.27115 0.55604 0.0
C3182 C 0.50986 0.23579 0.54831 0.0
C3183 C 0.52815 0.24248 0.56145 0.0
N3184 N 0.54529 0.27093 0.58403 0.0
N3185 N 0.47103 0.24051 0.5398 0.0
C3186 C 0.52837 0.26417 0.57068 0.0
C3187 C 0.49044 0.24921 0.54743 0.0
N3188 N 0.51258 0.30027 0.57339 0.0
N3189 N 0.51127 0.21678 0.53613 0.0
H3190 H 0.45623 0.24932 0.53934 0.0
H3191 H 0.46906 0.22385 0.53587 0.0
H3192 H 0.5254 0.20689 0.53589 0.0
H3193 H 0.49946 0.21212 0.5245 0.0
H3194 H 0.50079 0.31256 0.57059 0.0
H3195 H 0.50079 0.31256 0.57059 0.0
H3196 H 0.54576 0.28668 0.59113 0.0
H3197 H 0.55834 0.26079 0.58882 0.0
C3198 C 0.0279 0.25713 0.83368 0.0
C3199 C 0.0197 0.27684 0.84357 0.0
C3200 C 0.9832 0.25923 0.84763 0.0
C3201 C 0.99201 0.23928 0.83897 0.0
N3202 N 0.02373 0.21926 0.82441 0.0
N3203 N 0.9906 0.29489 0.86434 0.0
C3204 C 0.01448 0.2382 0.83244 0.0
C3205 C 0.99757 0.27749 0.85164 0.0
N3206 N 0.04856 0.25578 0.82481 0.0
N3207 N 0.96097 0.26102 0.85127 0.0
H3208 H 0.00077 0.30798 0.86901 0.0
H3209 H 0.97527 0.29549 0.87206 0.0
H3210 H 0.95006 0.24778 0.84951 0.0
H3211 H 0.95313 0.27605 0.85427 0.0
H3212 H 0.0596 0.26901 0.82388 0.0
H3213 H 0.0596 0.26901 0.82388 0.0
H3214 H 0.01537 0.2042 0.82309 0.0
H3215 H 0.01537 0.2042 0.82309 0.0
C3216 C 0.40575 0.02975 0.25606 0.0
C3217 C 0.42334 0.03704 0.26996 0.0
C3218 C 0.44311 0.0025 0.26137 0.0
C3219 C 0.42694 0.99708 0.24512 0.0
N3220 N 0.39406 0.00937 0.22495 0.0
N3221 N 0.46091 0.03164 0.28236 0.0
C3222 C 0.40888 0.01176 0.24175 0.0
C3223 C 0.44265 0.02376 0.27167 0.0
N3224 N 0.38525 0.03912 0.25618 0.0
N3225 N 0.45819 0.98702 0.26797 0.0
H3226 H 0.46161 0.04738 0.28937 0.0
H3227 H 0.47609 0.02348 0.28219 0.0
H3228 H 0.45837 0.97088 0.26191 0.0
H3229 H 0.46883 0.98943 0.2813 0.0
H3230 H 0.37993 0.05108 0.26741 0.0
H3231 H 0.37993 0.05108 0.26741 0.0
H3232 H 0.39537 0.99772 0.21229 0.0
H3233 H 0.39537 0.99772 0.21229 0.0
C3234 C 0.25288 0.18565 0.48817 0.0
C3235 C 0.27301 0.18775 0.50014 0.0
C3236 C 0.25142 0.19498 0.53413 0.0
C3237 C 0.23151 0.19115 0.5223 0.0
N3238 N 0.21376 0.18358 0.48697 0.0
N3239 N 0.29133 0.19081 0.53551 0.0
C3240 C 0.2324 0.18659 0.49926 0.0
C3241 C 0.27227 0.19173 0.52338 0.0
N3242 N 0.25244 0.18292 0.4658 0.0
N3243 N 0.25043 0.20181 0.55567 0.0
H3244 H 0.30681 0.18783 0.52857 0.0
H3245 H 0.2917 0.19099 0.55272 0.0
H3246 H 0.23558 0.20359 0.56425 0.0
H3247 H 0.26409 0.20735 0.56454 0.0
H3248 H 0.26647 0.18276 0.45575 0.0
H3249 H 0.26647 0.18276 0.45575 0.0
H3250 H 0.19773 0.18439 0.49331 0.0
H3251 H 0.19773 0.18439 0.49331 0.0
C3252 C 0.0587 0.99985 0.76221 0.0
C3253 C 0.06619 0.97917 0.75371 0.0
C3254 C 0.07636 0.99767 0.71894 0.0
C3255 C 0.07146 0.01866 0.72832 0.0
N3256 N 0.05895 0.04004 0.75945 0.0
N3257 N 0.08208 0.95913 0.72236 0.0
C3258 C 0.06269 0.0198 0.75008 0.0
C3259 C 0.07455 0.97822 0.7317 0.0
N3260 N 0.04715 1.00024 0.78164 0.0
N3261 N 0.08407 0.99559 0.69789 0.0
H3262 H 0.08233 0.94379 0.73022 0.0
H3263 H 0.08233 0.94379 0.73022 0.0
H3264 H 0.08614 0.00887 0.68709 0.0
H3265 H 0.08614 0.00887 0.68709 0.0
H3266 H 0.03954 0.01433 0.78797 0.0
H3267 H 0.04333 0.98589 0.79044 0.0
H3268 H 0.05529 0.04232 0.77612 0.0
H3269 H 0.06068 0.05481 0.75068 0.0
C3270 C 0.24556 0.8406 0.98006 0.0
C3271 C 0.22406 0.83605 0.98815 0.0
C3272 C 0.23925 0.83131 0.02573 0.0
C3273 C 0.26087 0.83519 0.01722 0.0
N3274 N 0.28413 0.84409 0.98547 0.0
N3275 N 0.1996 0.8283 0.0186 0.0
C3276 C 0.26382 0.84019 0.99444 0.0
C3277 C 0.22065 0.83185 0.01106 0.0
N3278 N 0.2494 0.84531 0.95836 0.0
N3279 N 0.23667 0.82716 0.04784 0.0
H3280 H 0.18579 0.82852 0.00829 0.0
H3281 H 0.19537 0.8255 0.035 0.0
H3282 H 0.24972 0.8278 0.05908 0.0
H3283 H 0.22179 0.8232 0.05544 0.0
H3284 H 0.23704 0.84643 0.94636 0.0
H3285 H 0.23704 0.84643 0.94636 0.0
H3286 H 0.29892 0.84379 0.99434 0.0
H3287 H 0.29892 0.84379 0.99434 0.0
C3288 C 0.2422 0.41557 0.01973 0.0
C3289 C 0.26489 0.41139 0.01518 0.0
C3290 C 0.25748 0.41185 0.97548 0.0
C3291 C 0.23507 0.41746 0.97972 0.0
N3292 N 0.20569 0.42507 0.00549 0.0
N3293 N 0.29372 0.40414 0.98806 0.0
C3294 C 0.22726 0.41933 0.0018 0.0
C3295 C 0.27229 0.40894 0.99309 0.0
N3296 N 0.235 0.41533 0.04119 0.0
N3297 N 0.26559 0.40958 0.95455 0.0
H3298 H 0.30609 0.40159 0.99982 0.0
H3299 H 0.30609 0.40159 0.99982 0.0
H3300 H 0.25621 0.41154 0.9402 0.0
H3301 H 0.25621 0.41154 0.9402 0.0
H3302 H 0.21853 0.41657 0.04592 0.0
H3303 H 0.24555 0.41238 0.05452 0.0
H3304 H 0.19912 0.42864 0.02097 0.0
H3305 H 0.19429 0.42715 0.99272 0.0
C3306 C 0.72478 0.06285 0.99146 0.0
C3307 C 0.73307 0.052 0.01069 0.0
C3308 C 0.76466 0.03867 0.98862 0.0
C3309 C 0.75818 0.05248 0.9709 0.0
N3310 N 0.73106 0.07685 0.95468 0.0
N3311 N 0.76311 0.03188 0.02799 0.0
C3312 C 0.73792 0.06418 0.97208 0.0
C3313 C 0.75343 0.04016 0.00931 0.0
N3314 N 0.70429 0.07222 0.99103 0.0
N3315 N 0.78145 0.02389 0.98552 0.0
H3316 H 0.75635 0.03349 0.04374 0.0
H3317 H 0.77901 0.02528 0.02821 0.0
H3318 H 0.78974 0.02244 0.97044 0.0
H3319 H 0.78563 0.01178 0.99704 0.0
H3320 H 0.69294 0.07136 0.00401 0.0
H3321 H 0.69294 0.07136 0.00401 0.0
H3322 H 0.71644 0.08603 0.95512 0.0
H3323 H 0.73997 0.07813 0.93996 0.0
C3324 C 0.15396 0.49214 0.21096 0.0
C3325 C 0.16611 0.51204 0.20813 0.0
C3326 C 0.18525 0.50456 0.24336 0.0
C3327 C 0.17279 0.48477 0.24615 0.0
N3328 N 0.14843 0.45764 0.22918 0.0
N3329 N 0.19941 0.53211 0.21798 0.0
C3330 C 0.15821 0.47793 0.22909 0.0
C3331 C 0.18369 0.51674 0.22312 0.0
N3332 N 0.13858 0.48662 0.19546 0.0
N3333 N 0.19775 0.51246 0.26046 0.0
H3334 H 0.19995 0.54063 0.2031 0.0
H3335 H 0.21363 0.53447 0.22739 0.0
H3336 H 0.19859 0.50475 0.27586 0.0
H3337 H 0.20546 0.52786 0.26023 0.0
H3338 H 0.12873 0.47247 0.19631 0.0
H3339 H 0.12873 0.47247 0.19631 0.0
H3340 H 0.15139 0.44532 0.24088 0.0
H3341 H 0.15139 0.44532 0.24088 0.0
C3342 C 0.76921 0.93334 0.5013 0.0
C3343 C 0.75981 0.92572 0.5214 0.0
C3344 C 0.72395 0.92143 0.50239 0.0
C3345 C 0.73419 0.92676 0.48186 0.0
N3346 N 0.76787 0.93777 0.4625 0.0
N3347 N 0.72847 0.91043 0.54081 0.0
C3348 C 0.7569 0.93288 0.48156 0.0
C3349 C 0.73712 0.91947 0.52196 0.0
N3350 N 0.79045 0.94076 0.50019 0.0
N3351 N 0.7015 0.91894 0.50331 0.0
H3352 H 0.73735 0.90906 0.55552 0.0
H3353 H 0.71301 0.9029 0.54153 0.0
H3354 H 0.69134 0.92058 0.48946 0.0
H3355 H 0.69268 0.91724 0.518 0.0
H3356 H 0.80087 0.94222 0.51387 0.0
H3357 H 0.80087 0.94222 0.51387 0.0
H3358 H 0.76087 0.93713 0.44675 0.0
H3359 H 0.76087 0.93713 0.44675 0.0
C3360 C 0.84413 0.96719 0.26341 0.0
C3361 C 0.82662 0.97278 0.24882 0.0
C3362 C 0.8148 0.00206 0.27443 0.0
C3363 C 0.83414 0.99876 0.28742 0.0
N3364 N 0.86856 0.97903 0.29288 0.0
N3365 N 0.79459 0.99427 0.24074 0.0
C3366 C 0.84903 0.98132 0.28174 0.0
C3367 C 0.81169 0.98978 0.25467 0.0
N3368 N 0.85561 0.94797 0.26009 0.0
N3369 N 0.79892 0.01686 0.28045 0.0
H3370 H 0.78293 0.0067 0.24356 0.0
H3371 H 0.78293 0.0067 0.24356 0.0
H3372 H 0.79925 0.02601 0.29509 0.0
H3373 H 0.79925 0.02601 0.29509 0.0
H3374 H 0.86715 0.94166 0.27118 0.0
H3375 H 0.85183 0.93695 0.24736 0.0
H3376 H 0.88068 0.96765 0.28854 0.0
H3377 H 0.87365 0.98949 0.30556 0.0
C3378 C 0.26294 0.5583 0.48547 0.0
C3379 C 0.26409 0.57908 0.47438 0.0
C3380 C 0.24536 0.59655 0.50575 0.0
C3381 C 0.24214 0.57568 0.516 0.0
N3382 N 0.24506 0.53599 0.5138 0.0
N3383 N 0.25294 0.61782 0.47391 0.0
C3384 C 0.25028 0.55631 0.50543 0.0
C3385 C 0.25439 0.59795 0.48442 0.0
N3386 N 0.27467 0.54069 0.47751 0.0
N3387 N 0.23968 0.61586 0.51586 0.0
H3388 H 0.25783 0.62064 0.45761 0.0
H3389 H 0.25783 0.62064 0.45761 0.0
H3390 H 0.23392 0.61701 0.5321 0.0
H3391 H 0.23392 0.61701 0.5321 0.0
H3392 H 0.2764 0.52585 0.48606 0.0
H3393 H 0.28429 0.54155 0.46322 0.0
H3394 H 0.2482 0.52124 0.50547 0.0
H3395 H 0.23607 0.53395 0.52838 0.0
C3396 C 0.34364 0.5358 0.7337 0.0
C3397 C 0.34395 0.52511 0.75467 0.0
C3398 C 0.35558 0.49045 0.73674 0.0
C3399 C 0.35576 0.50117 0.71588 0.0
N3400 N 0.34483 0.53221 0.69363 0.0
N3401 N 0.34716 0.49069 0.77525 0.0
C3402 C 0.34815 0.52329 0.7141 0.0
C3403 C 0.34888 0.50214 0.75591 0.0
N3404 N 0.34036 0.55815 0.73258 0.0
N3405 N 0.36143 0.46869 0.73839 0.0
H3406 H 0.34177 0.49753 0.79016 0.0
H3407 H 0.34177 0.49753 0.79016 0.0
H3408 H 0.36609 0.45921 0.72478 0.0
H3409 H 0.36141 0.46015 0.7534 0.0
H3410 H 0.34229 0.56733 0.71814 0.0
H3411 H 0.33721 0.56788 0.74646 0.0
H3412 H 0.33624 0.5469 0.69112 0.0
H3413 H 0.34869 0.52382 0.67905 0.0
C3414 C 0.98083 0.78269 0.5861 0.0
C3415 C 0.00327 0.77723 0.59093 0.0
C3416 C 0.991 0.74023 0.60283 0.0
C3417 C 0.96885 0.745 0.59639 0.0
N3418 N 0.9444 0.7692 0.57619 0.0
N3419 N 0.02925 0.74788 0.60068 0.0
C3420 C 0.9643 0.76577 0.58631 0.0
C3421 C 0.00816 0.75529 0.59808 0.0
N3422 N 0.97482 0.80423 0.5828 0.0
N3423 N 0.99667 0.72154 0.61409 0.0
H3424 H 0.04326 0.75696 0.59642 0.0
H3425 H 0.04326 0.75696 0.59642 0.0
H3426 H 0.98548 0.70972 0.61978 0.0
H3427 H 0.98548 0.70972 0.61978 0.0
H3428 H 0.9584 0.80929 0.58157 0.0
H3429 H 0.98584 0.81742 0.58381 0.0
H3430 H 0.94101 0.78314 0.56664 0.0
H3431 H 0.9322 0.75704 0.57525 0.0
C3432 C 0.02805 0.26403 0.3497 0.0
C3433 C 0.02253 0.24135 0.34605 0.0
C3434 C 0.98386 0.25202 0.33974 0.0
C3435 C 0.98949 0.27474 0.34185 0.0
N3436 N 0.01706 0.30282 0.34752 0.0
N3437 N 0.99393 0.21422 0.33758 0.0
C3438 C 0.01167 0.28087 0.34646 0.0
C3439 C 0.00028 0.23554 0.34124 0.0
N3440 N 0.04859 0.26934 0.35755 0.0
N3441 N 0.96269 0.24529 0.33596 0.0
H3442 H 0.00465 0.20069 0.33765 0.0
H3443 H 0.00465 0.20069 0.33765 0.0
H3444 H 0.94921 0.256 0.33468 0.0
H3445 H 0.94921 0.256 0.33468 0.0
H3446 H 0.05338 0.2852 0.36213 0.0
H3447 H 0.06054 0.25754 0.36143 0.0
H3448 H 0.03316 0.30875 0.34845 0.0
H3449 H 0.00532 0.3154 0.34616 0.0
C3450 C 0.45962 0.26701 0.08608 0.0
C3451 C 0.4601 0.25097 0.06889 0.0
C3452 C 0.49442 0.26791 0.05478 0.0
C3453 C 0.49511 0.28218 0.07341 0.0
N3454 N 0.47888 0.29374 0.10824 0.0
N3455 N 0.48073 0.23364 0.03925 0.0
C3456 C 0.47783 0.28137 0.08933 0.0
C3457 C 0.47812 0.25087 0.05368 0.0
N3458 N 0.44203 0.2689 0.10004 0.0
N3459 N 0.5091 0.27092 0.03786 0.0
H3460 H 0.46985 0.22033 0.03827 0.0
H3461 H 0.4949 0.23139 0.02971 0.0
H3462 H 0.52104 0.28337 0.03799 0.0
H3463 H 0.50801 0.26259 0.02281 0.0
H3464 H 0.42749 0.25973 0.09865 0.0
H3465 H 0.42749 0.25973 0.09865 0.0
H3466 H 0.46671 0.29298 0.12044 0.0
H3467 H 0.49226 0.30371 0.11244 0.0
C3468 C 0.51743 0.77851 0.83677 0.0
C3469 C 0.49456 0.77358 0.83359 0.0
C3470 C 0.506 0.73562 0.8232 0.0
C3471 C 0.52783 0.73948 0.83114 0.0
N3472 N 0.55334 0.76684 0.8467 0.0
N3473 N 0.46728 0.74491 0.82656 0.0
C3474 C 0.53326 0.76135 0.83814 0.0
C3475 C 0.48887 0.75149 0.82729 0.0
N3476 N 0.52502 0.79964 0.83871 0.0
N3477 N 0.50167 0.71704 0.81107 0.0
H3478 H 0.45403 0.75477 0.83124 0.0
H3479 H 0.46251 0.72866 0.82349 0.0
H3480 H 0.51388 0.70561 0.80685 0.0
H3481 H 0.48671 0.71446 0.80293 0.0
H3482 H 0.51535 0.81372 0.83623 0.0
H3483 H 0.51535 0.81372 0.83623 0.0
H3484 H 0.56612 0.7557 0.84974 0.0
H3485 H 0.56612 0.7557 0.84974 0.0
C3486 C 0.98482 0.21301 0.90375 0.0
C3487 C 0.00718 0.21972 0.90717 0.0
C3488 C 0.99449 0.25787 0.9134 0.0
C3489 C 0.9721 0.25102 0.91161 0.0
N3490 N 0.94558 0.22181 0.90671 0.0
N3491 N 0.03272 0.24978 0.9156 0.0
C3492 C 0.96717 0.22848 0.90721 0.0
C3493 C 0.0118 0.24231 0.91191 0.0
N3494 N 0.98052 0.1922 0.89598 0.0
N3495 N 1.0001 0.27942 0.91698 0.0
H3496 H 0.04677 0.23976 0.91563 0.0
H3497 H 0.04677 0.23976 0.91563 0.0
H3498 H 0.98871 0.29233 0.91827 0.0
H3499 H 0.98871 0.29233 0.91827 0.0
H3500 H 0.96493 0.1868 0.89119 0.0
H3501 H 0.99288 0.18076 0.8923 0.0
H3502 H 0.94062 0.20534 0.9061 0.0
H3503 H 0.93238 0.23282 0.9083 0.0
C3504 C 0.50351 0.25043 0.69614 0.0
C3505 C 0.50156 0.27145 0.68561 0.0
C3506 C 0.46612 0.25961 0.66958 0.0
C3507 C 0.4672 0.23912 0.68126 0.0
N3508 N 0.48485 0.21762 0.70983 0.0
N3509 N 0.47841 0.29641 0.66399 0.0
C3510 C 0.48532 0.23531 0.69576 0.0
C3511 C 0.48218 0.27615 0.67315 0.0
N3512 N 0.52321 0.24416 0.70527 0.0
N3513 N 0.45024 0.26402 0.65423 0.0
H3514 H 0.48861 0.31014 0.66623 0.0
H3515 H 0.48861 0.31014 0.66623 0.0
H3516 H 0.43818 0.25283 0.64909 0.0
H3517 H 0.43818 0.25283 0.64909 0.0
H3518 H 0.52633 0.22815 0.71084 0.0
H3519 H 0.53723 0.25415 0.7053 0.0
H3520 H 0.4964 0.21526 0.72238 0.0
H3521 H 0.47163 0.20658 0.71054 0.0
C3522 C 0.45671 0.74791 0.41093 0.0
C3523 C 0.46089 0.77097 0.40995 0.0
C3524 C 0.50039 0.76344 0.40342 0.0
C3525 C 0.49612 0.74044 0.40562 0.0
N3526 N 0.46931 0.7108 0.40938 0.0
N3527 N 0.48569 0.8009 0.40107 0.0
C3528 C 0.47417 0.73277 0.40844 0.0
C3529 C 0.48249 0.77882 0.40492 0.0
N3530 N 0.43607 0.73964 0.41446 0.0
N3531 N 0.52171 0.77048 0.40071 0.0
H3532 H 0.47302 0.81257 0.40221 0.0
H3533 H 0.50043 0.80766 0.39537 0.0
H3534 H 0.53485 0.75953 0.39836 0.0
H3535 H 0.52661 0.78695 0.40136 0.0
H3536 H 0.422 0.74941 0.41658 0.0
H3537 H 0.422 0.74941 0.41658 0.0
H3538 H 0.48105 0.69829 0.40737 0.0
H3539 H 0.48105 0.69829 0.40737 0.0
C3540 C 0.01639 0.75702 0.18929 0.0
C3541 C 0.03238 0.75801 0.17205 0.0
C3542 C 0.01843 0.72206 0.15835 0.0
C3543 C 0.00045 0.72282 0.17348 0.0
N3544 N 0.98173 0.74381 0.20247 0.0
N3545 N 0.04428 0.7433 0.1366 0.0
C3546 C 0.99928 0.74088 0.18866 0.0
C3547 C 0.03237 0.74094 0.15568 0.0
N3548 N 0.01714 0.77169 0.20646 0.0
N3549 N 0.02272 0.70306 0.14686 0.0
H3550 H 0.05331 0.75742 0.13267 0.0
H3551 H 0.04297 0.73234 0.12335 0.0
H3552 H 0.01359 0.68857 0.14896 0.0
H3553 H 0.03688 0.70091 0.13727 0.0
H3554 H 0.00553 0.77159 0.21924 0.0
H3555 H 0.03012 0.7828 0.20874 0.0
H3556 H 0.96764 0.73388 0.20262 0.0
H3557 H 0.96764 0.73388 0.20262 0.0
C3558 C 0.60042 0.02336 0.71645 0.0
C3559 C 0.59338 0.00112 0.72035 0.0
C3560 C 0.57912 0.01291 0.75688 0.0
C3561 C 0.58595 0.03503 0.75272 0.0
N3562 N 0.60214 0.06123 0.72686 0.0
N3563 N 0.56966 0.97704 0.74162 0.0
C3564 C 0.596 0.04018 0.73212 0.0
C3565 C 0.58091 0.99658 0.73985 0.0
N3566 N 0.61182 0.0295 0.69804 0.0
N3567 N 0.57195 0.00709 0.77753 0.0
H3568 H 0.56926 0.9653 0.72899 0.0
H3569 H 0.55859 0.97363 0.75437 0.0
H3570 H 0.57054 0.01833 0.79054 0.0
H3571 H 0.56938 0.99074 0.78235 0.0
H3572 H 0.61695 0.01879 0.68555 0.0
H3573 H 0.61695 0.01879 0.68555 0.0
H3574 H 0.59958 0.07491 0.73708 0.0
H3575 H 0.59958 0.07491 0.73708 0.0
C3576 C 0.74694 0.81457 0.51294 0.0
C3577 C 0.72657 0.82551 0.50837 0.0
C3578 C 0.74121 0.83631 0.47182 0.0
C3579 C 0.76099 0.82425 0.47581 0.0
N3580 N 0.78076 0.7983 0.4988 0.0
N3581 N 0.70442 0.84576 0.48134 0.0
C3582 C 0.76321 0.81224 0.49592 0.0
C3583 C 0.72382 0.83609 0.48746 0.0
N3584 N 0.75158 0.80779 0.53402 0.0
N3585 N 0.73775 0.84744 0.45254 0.0
H3586 H 0.69007 0.84572 0.49091 0.0
H3587 H 0.69007 0.84572 0.49091 0.0
H3588 H 0.74916 0.84822 0.43961 0.0
H3589 H 0.74916 0.84822 0.43961 0.0
H3590 H 0.76701 0.80189 0.53887 0.0
H3591 H 0.74089 0.81026 0.54731 0.0
H3592 H 0.78142 0.78657 0.51141 0.0
H3593 H 0.79406 0.79743 0.48788 0.0
C3594 C 0.94305 0.03232 0.23299 0.0
C3595 C 0.92528 0.03195 0.21771 0.0
C3596 C 0.91518 0.99444 0.22998 0.0
C3597 C 0.9318 0.99554 0.24651 0.0
N3598 N 0.95918 0.01678 0.2663 0.0
N3599 N 0.89317 0.01493 0.2029 0.0
C3600 C 0.94525 0.01476 0.2486 0.0
C3601 C 0.91094 0.01348 0.21669 0.0
N3602 N 0.95765 0.04957 0.23281 0.0
N3603 N 0.9042 0.97497 0.22643 0.0
H3604 H 0.88061 0.00319 0.20175 0.0
H3605 H 0.88061 0.00319 0.20175 0.0
H3606 H 0.90707 0.96072 0.23571 0.0
H3607 H 0.8936 0.9722 0.21318 0.0
H3608 H 0.97241 0.04959 0.24167 0.0
H3609 H 0.95574 0.0634 0.2227 0.0
H3610 H 0.96761 0.03128 0.2702 0.0
H3611 H 0.96091 0.00459 0.27838 0.0
C3612 C 0.75433 0.19172 0.99222 0.0
C3613 C 0.73357 0.18095 0.99529 0.0
C3614 C 0.74757 0.1653 0.03021 0.0
C3615 C 0.76775 0.17737 0.02805 0.0
N3616 N 0.78725 0.20678 0.00943 0.0
N3617 N 0.71018 0.15941 0.02011 0.0
C3618 C 0.77019 0.19197 0.00976 0.0
C3619 C 0.73011 0.16862 0.01506 0.0
N3620 N 0.75972 0.20046 0.97208 0.0
N3621 N 0.74428 0.14986 0.04629 0.0
H3622 H 0.69585 0.16157 0.01076 0.0
H3623 H 0.69585 0.16157 0.01076 0.0
H3624 H 0.75619 0.14488 0.05771 0.0
H3625 H 0.75619 0.14488 0.05771 0.0
H3626 H 0.77549 0.20626 0.9683 0.0
H3627 H 0.74937 0.19973 0.95834 0.0
H3628 H 0.78858 0.21932 0.99768 0.0
H3629 H 0.79866 0.20818 0.02228 0.0
C3630 C 0.76907 0.61086 0.95602 0.0
C3631 C 0.74741 0.6025 0.95984 0.0
C3632 C 0.76002 0.58904 0.99637 0.0
C3633 C 0.78077 0.59976 0.99352 0.0
N3634 N 0.80426 0.62182 0.96908 0.0
N3635 N 0.72136 0.58736 0.98615 0.0
C3636 C 0.78509 0.61071 0.97307 0.0
C3637 C 0.74268 0.59242 0.98064 0.0
N3638 N 0.77515 0.61954 0.93614 0.0
N3639 N 0.75706 0.57486 0.01373 0.0
H3640 H 0.70796 0.59026 0.97573 0.0
H3641 H 0.71663 0.58245 0.00197 0.0
H3642 H 0.7696 0.57114 0.02497 0.0
H3643 H 0.74314 0.5649 0.01553 0.0
H3644 H 0.76498 0.61998 0.92221 0.0
H3645 H 0.76498 0.61998 0.92221 0.0
H3646 H 0.81697 0.62389 0.98052 0.0
H3647 H 0.81697 0.62389 0.98052 0.0
C3648 C 0.23682 0.89945 0.97256 0.0
C3649 C 0.25936 0.90156 0.979 0.0
C3650 C 0.24697 0.90578 0.01777 0.0
C3651 C 0.22467 0.9019 0.01142 0.0
N3652 N 0.199 0.89427 0.98133 0.0
N3653 N 0.28586 0.90191 0.00887 0.0
C3654 C 0.21985 0.89855 0.98863 0.0
C3655 C 0.26442 0.90353 0.00193 0.0
N3656 N 0.23065 0.89816 0.95093 0.0
N3657 N 0.25148 0.91291 0.03869 0.0
H3658 H 0.2991 0.89952 0.99809 0.0
H3659 H 0.29031 0.90067 0.02546 0.0
H3660 H 0.2393 0.91519 0.05068 0.0
H3661 H 0.26692 0.91893 0.04327 0.0
H3662 H 0.24158 0.89925 0.93763 0.0
H3663 H 0.24158 0.89925 0.93763 0.0
H3664 H 0.1853 0.89233 0.99162 0.0
H3665 H 0.1853 0.89233 0.99162 0.0
C3666 C 0.85071 0.53781 0.76519 0.0
C3667 C 0.84493 0.53279 0.74283 0.0
C3668 C 0.83586 0.4947 0.75437 0.0
C3669 C 0.83996 0.50029 0.77679 0.0
N3670 N 0.84675 0.52837 0.8041 0.0
N3671 N 0.82593 0.50795 0.71794 0.0
C3672 C 0.84579 0.52228 0.78236 0.0
C3673 C 0.83579 0.51162 0.73794 0.0
N3674 N 0.86235 0.55655 0.77008 0.0
N3675 N 0.8323 0.47312 0.74864 0.0
H3676 H 0.82401 0.52029 0.70604 0.0
H3677 H 0.81726 0.49354 0.71422 0.0
H3678 H 0.83164 0.46032 0.7602 0.0
H3679 H 0.83183 0.46772 0.73227 0.0
H3680 H 0.8684 0.56003 0.7858 0.0
H3681 H 0.86824 0.56755 0.75825 0.0
H3682 H 0.84813 0.54476 0.8092 0.0
H3683 H 0.84418 0.51725 0.81704 0.0
C3684 C 0.21847 0.07615 0.50735 0.0
C3685 C 0.22739 0.08413 0.48711 0.0
C3686 C 0.26468 0.08303 0.50326 0.0
C3687 C 0.2558 0.07637 0.52399 0.0
N3688 N 0.22379 0.06916 0.54661 0.0
N3689 N 0.26004 0.095 0.46618 0.0
C3690 C 0.23255 0.07342 0.5262 0.0
C3691 C 0.25059 0.08738 0.48517 0.0
N3692 N 0.1966 0.07053 0.50832 0.0
N3693 N 0.28683 0.08563 0.50009 0.0
H3694 H 0.25122 0.09898 0.45189 0.0
H3695 H 0.25122 0.09898 0.45189 0.0
H3696 H 0.29874 0.08263 0.51222 0.0
H3697 H 0.29874 0.08263 0.51222 0.0
H3698 H 0.18938 0.06245 0.52169 0.0
H3699 H 0.18592 0.07229 0.49489 0.0
H3700 H 0.20694 0.06953 0.55007 0.0
H3701 H 0.23349 0.0668 0.56065 0.0
C3702 C 0.17833 0.01812 0.74183 0.0
C3703 C 0.18456 0.01216 0.76372 0.0
C3704 C 0.18995 0.97358 0.7512 0.0
C3705 C 0.1835 0.97975 0.72933 0.0
N3706 N 0.17154 0.00899 0.70431 0.0
N3707 N 0.19366 0.9838 0.79009 0.0
C3708 C 0.17754 0.00206 0.72491 0.0
C3709 C 0.18987 0.98976 0.76858 0.0
N3710 N 0.17324 0.03937 0.73624 0.0
N3711 N 0.19602 0.95218 0.75537 0.0
H3712 H 0.19369 0.99516 0.80308 0.0
H3713 H 0.19546 0.96758 0.7955 0.0
H3714 H 0.19434 0.93946 0.74384 0.0
H3715 H 0.20344 0.94692 0.76995 0.0
H3716 H 0.17366 0.05269 0.74722 0.0
H3717 H 0.17366 0.05269 0.74722 0.0
H3718 H 0.17087 0.99875 0.69042 0.0
H3719 H 0.17087 0.99875 0.69042 0.0
C3720 C 0.73146 0.407 0.47878 0.0
C3721 C 0.74993 0.42092 0.48304 0.0
C3722 C 0.7361 0.4269 0.52098 0.0
C3723 C 0.71838 0.41205 0.51687 0.0
N3724 N 0.69987 0.3873 0.49111 0.0
N3725 N 0.77203 0.44079 0.50964 0.0
C3726 C 0.71637 0.4019 0.4958 0.0
C3727 C 0.75281 0.43004 0.50455 0.0
N3728 N 0.7273 0.39847 0.45836 0.0
N3729 N 0.73648 0.43869 0.54027 0.0
H3730 H 0.78491 0.44284 0.49835 0.0
H3731 H 0.77614 0.44592 0.52555 0.0
H3732 H 0.72482 0.43654 0.5528 0.0
H3733 H 0.74719 0.45188 0.54309 0.0
H3734 H 0.7369 0.40162 0.44439 0.0
H3735 H 0.7369 0.40162 0.44439 0.0
H3736 H 0.68791 0.38226 0.50249 0.0
H3737 H 0.68791 0.38226 0.50249 0.0
C3738 C 0.67615 0.49658 0.26188 0.0
C3739 C 0.67549 0.51966 0.25755 0.0
C3740 C 0.67183 0.51246 0.21791 0.0
C3741 C 0.67405 0.48941 0.2218 0.0
N3742 N 0.67846 0.45905 0.2473 0.0
N3743 N 0.67084 0.54946 0.23101 0.0
C3744 C 0.67617 0.48131 0.2438 0.0
C3745 C 0.67266 0.52748 0.23566 0.0
N3746 N 0.67625 0.48942 0.28335 0.0
N3747 N 0.6694 0.52089 0.19717 0.0
H3748 H 0.67087 0.56187 0.24303 0.0
H3749 H 0.67087 0.56187 0.24303 0.0
H3750 H 0.6691 0.51126 0.18285 0.0
H3751 H 0.6691 0.51126 0.18285 0.0
H3752 H 0.67516 0.47294 0.28813 0.0
H3753 H 0.67589 0.50028 0.29676 0.0
H3754 H 0.68197 0.45193 0.26255 0.0
H3755 H 0.6778 0.4474 0.23459 0.0
C3756 C 0.90665 0.4766 0.77532 0.0
C3757 C 0.90566 0.49831 0.76655 0.0
C3758 C 0.90173 0.48324 0.72902 0.0
C3759 C 0.90189 0.46146 0.73799 0.0
N3760 N 0.89922 0.43764 0.76991 0.0
N3761 N 0.90006 0.52295 0.73588 0.0
C3762 C 0.90282 0.45821 0.76121 0.0
C3763 C 0.90225 0.5018 0.74362 0.0
N3764 N 0.91242 0.47346 0.79694 0.0
N3765 N 0.90225 0.48612 0.70658 0.0
H3766 H 0.90046 0.53676 0.74624 0.0
H3767 H 0.89659 0.52697 0.71955 0.0
H3768 H 0.90259 0.47299 0.69544 0.0
H3769 H 0.90389 0.50135 0.69876 0.0
H3770 H 0.9172 0.45812 0.80316 0.0
H3771 H 0.9141 0.48643 0.80821 0.0
H3772 H 0.89751 0.43472 0.7868 0.0
H3773 H 0.89585 0.42378 0.76018 0.0
C3774 C 0.71947 0.69062 0.99608 0.0
C3775 C 0.72261 0.67995 0.0168 0.0
C3776 C 0.7604 0.66987 0.00613 0.0
C3777 C 0.7573 0.68034 0.98529 0.0
N3778 N 0.73243 0.69613 0.95847 0.0
N3779 N 0.7457 0.65832 0.04126 0.0
C3780 C 0.73644 0.68959 0.97976 0.0
C3781 C 0.74282 0.66905 0.02156 0.0
N3782 N 0.70026 0.70182 0.99197 0.0
N3783 N 0.78018 0.66092 0.01216 0.0
H3784 H 0.73364 0.65783 0.05359 0.0
H3785 H 0.76025 0.64992 0.0452 0.0
H3786 H 0.79437 0.66106 0.00235 0.0
H3787 H 0.79437 0.66106 0.00235 0.0
H3788 H 0.69823 0.71256 0.97867 0.0
H3789 H 0.68664 0.70149 0.00254 0.0
H3790 H 0.71691 0.70069 0.95262 0.0
H3791 H 0.74423 0.69503 0.94592 0.0
C3792 C 0.58482 0.51734 0.29714 0.0
C3793 C 0.58481 0.49727 0.2849 0.0
C3794 C 0.58601 0.51825 0.25029 0.0
C3795 C 0.58837 0.53832 0.26229 0.0
N3796 N 0.58968 0.55737 0.29718 0.0
N3797 N 0.58369 0.47916 0.24896 0.0
C3798 C 0.58745 0.53798 0.28578 0.0
C3799 C 0.58462 0.4979 0.26147 0.0
N3800 N 0.58164 0.51661 0.31951 0.0
N3801 N 0.58591 0.51771 0.22781 0.0
H3802 H 0.58286 0.46318 0.25545 0.0
H3803 H 0.58286 0.46318 0.25545 0.0
H3804 H 0.58687 0.53178 0.21791 0.0
H3805 H 0.58687 0.53178 0.21791 0.0
H3806 H 0.57905 0.53052 0.32931 0.0
H3807 H 0.57994 0.50178 0.32818 0.0
H3808 H 0.59163 0.55831 0.31423 0.0
H3809 H 0.59023 0.57272 0.28931 0.0
C3810 C 0.752 0.311 0.48764 0.0
C3811 C 0.74697 0.32576 0.47 0.0
C3812 C 0.78009 0.34745 0.47871 0.0
C3813 C 0.78567 0.33237 0.49594 0.0
N3814 N 0.77973 0.29678 0.5129 0.0
N3815 N 0.75852 0.35701 0.44741 0.0
C3816 C 0.77243 0.31323 0.49922 0.0
C3817 C 0.76171 0.34334 0.46504 0.0
N3818 N 0.73671 0.29576 0.49436 0.0
N3819 N 0.79151 0.36652 0.47503 0.0
H3820 H 0.74576 0.3552 0.43594 0.0
H3821 H 0.74576 0.3552 0.43594 0.0
H3822 H 0.80479 0.37199 0.48455 0.0
H3823 H 0.80479 0.37199 0.48455 0.0
H3824 H 0.73833 0.28648 0.50878 0.0
H3825 H 0.72143 0.29368 0.4867 0.0
H3826 H 0.772 0.28145 0.51424 0.0
H3827 H 0.79484 0.29756 0.52117 0.0
C3828 C 0.67716 0.98047 0.76173 0.0
C3829 C 0.66331 0.98677 0.77967 0.0
C3830 C 0.65456 0.02164 0.76071 0.0
C3831 C 0.6678 0.01519 0.7425 0.0
N3832 N 0.68859 0.98688 0.72366 0.0
N3833 N 0.63668 0.01335 0.79448 0.0
C3834 C 0.67825 0.99412 0.74244 0.0
C3835 C 0.6515 0.00715 0.77867 0.0
N3836 N 0.69006 0.96198 0.76354 0.0
N3837 N 0.64432 0.0417 0.76156 0.0
H3838 H 0.63232 0.0037 0.80811 0.0
H3839 H 0.63232 0.0037 0.80811 0.0
H3840 H 0.64554 0.05373 0.74923 0.0
H3841 H 0.64554 0.05373 0.74923 0.0
H3842 H 0.70224 0.95768 0.75216 0.0
H3843 H 0.68988 0.95177 0.77744 0.0
H3844 H 0.69445 0.97082 0.72156 0.0
H3845 H 0.6897 0.99642 0.70932 0.0
C3846 C 0.08713 0.45864 0.27981 0.0
C3847 C 0.08073 0.4635 0.25782 0.0
C3848 C 0.07266 0.50175 0.26896 0.0
C3849 C 0.08231 0.49793 0.29011 0.0
N3850 N 0.10162 0.47257 0.31441 0.0
N3851 N 0.066 0.48976 0.23157 0.0
C3852 C 0.09 0.47623 0.29538 0.0
C3853 C 0.07318 0.48505 0.25248 0.0
N3854 N 0.09004 0.43713 0.28601 0.0
N3855 N 0.06249 0.52123 0.26398 0.0
H3856 H 0.06581 0.4781 0.21885 0.0
H3857 H 0.06048 0.50548 0.22699 0.0
H3858 H 0.06009 0.53408 0.27526 0.0
H3859 H 0.06009 0.53408 0.27526 0.0
H3860 H 0.09101 0.43233 0.30253 0.0
H3861 H 0.08895 0.42397 0.27489 0.0
H3862 H 0.10931 0.45763 0.31798 0.0
H3863 H 0.10542 0.48484 0.32586 0.0
C3864 C 0.28315 0.33372 0.01219 0.0
C3865 C 0.27849 0.34125 0.9904 0.0
C3866 C 0.23889 0.34313 1.00033 0.0
C3867 C 0.24407 0.33777 0.02265 0.0
N3868 N 0.27292 0.32979 0.04974 0.0
N3869 N 0.25188 0.35767 0.96537 0.0
C3870 C 0.26648 0.3336 0.02849 0.0
C3871 C 0.25631 0.34708 0.98485 0.0
N3872 N 0.30359 0.32647 0.01826 0.0
N3873 N 0.21731 0.3436 0.99362 0.0
H3874 H 0.26398 0.36183 0.95385 0.0
H3875 H 0.23653 0.36453 0.96166 0.0
H3876 H 0.20411 0.34014 0.00416 0.0
H3877 H 0.21257 0.34511 0.97712 0.0
H3878 H 0.31694 0.3249 0.00744 0.0
H3879 H 0.31694 0.3249 0.00744 0.0
H3880 H 0.26239 0.33038 0.06339 0.0
H3881 H 0.26239 0.33038 0.06339 0.0
C3882 C 0.40268 0.49202 0.7787 0.0
C3883 C 0.40632 0.4693 0.77388 0.0
C3884 C 0.42133 0.47957 0.73739 0.0
C3885 C 0.41906 0.50226 0.74309 0.0
N3886 N 0.40607 0.5303 0.76833 0.0
N3887 N 0.41686 0.4409 0.74796 0.0
C3888 C 0.40899 0.50846 0.76329 0.0
C3889 C 0.41478 0.4629 0.75285 0.0
N3890 N 0.39317 0.49864 0.79803 0.0
N3891 N 0.43043 0.47423 0.71736 0.0
H3892 H 0.41282 0.42839 0.75911 0.0
H3893 H 0.42225 0.4347 0.73289 0.0
H3894 H 0.43414 0.48615 0.70543 0.0
H3895 H 0.43435 0.45829 0.71226 0.0
H3896 H 0.3875 0.48785 0.81026 0.0
H3897 H 0.3875 0.48785 0.81026 0.0
H3898 H 0.39953 0.53549 0.78342 0.0
H3899 H 0.40998 0.54308 0.75743 0.0
C3900 C 0.22199 0.66793 0.50706 0.0
C3901 C 0.22604 0.66933 0.484 0.0
C3902 C 0.26612 0.66622 0.49109 0.0
C3903 C 0.26189 0.66521 0.5142 0.0
N3904 N 0.23483 0.66614 0.54403 0.0
N3905 N 0.25207 0.6736 0.4541 0.0
C3906 C 0.23977 0.66656 0.52205 0.0
C3907 C 0.24818 0.6696 0.47602 0.0
N3908 N 0.20112 0.66762 0.51551 0.0
N3909 N 0.28713 0.66276 0.48347 0.0
H3910 H 0.23943 0.67591 0.44259 0.0
H3911 H 0.26773 0.67629 0.44749 0.0
H3912 H 0.3006 0.66032 0.49395 0.0
H3913 H 0.29104 0.66057 0.46685 0.0
H3914 H 0.18682 0.66827 0.50588 0.0
H3915 H 0.18682 0.66827 0.50588 0.0
H3916 H 0.24664 0.66512 0.55657 0.0
H3917 H 0.24664 0.66512 0.55657 0.0
C3918 C 0.33147 0.00724 0.24006 0.0
C3919 C 0.3288 0.00112 0.21754 0.0
C3920 C 0.32538 0.96206 0.2288 0.0
C3921 C 0.32741 0.96847 0.25139 0.0
N3922 N 0.33145 0.99842 0.27814 0.0
N3923 N 0.32041 0.97322 0.19041 0.0
C3924 C 0.33024 0.99118 0.25682 0.0
C3925 C 0.32486 0.97865 0.2119 0.0
N3926 N 0.33452 0.02867 0.24642 0.0
N3927 N 0.3253 0.94008 0.22341 0.0
H3928 H 0.32092 0.98474 0.17757 0.0
H3929 H 0.3149 0.9577 0.1854 0.0
H3930 H 0.32593 0.92751 0.23519 0.0
H3931 H 0.32636 0.93417 0.20728 0.0
H3932 H 0.3353 0.04207 0.23557 0.0
H3933 H 0.3353 0.04207 0.23557 0.0
H3934 H 0.32989 0.98823 0.29198 0.0
H3935 H 0.32989 0.98823 0.29198 0.0
C3936 C 0.11131 0.35009 0.34554 0.0
C3937 C 0.09661 0.35783 0.36216 0.0
C3938 C 0.10774 0.39614 0.35422 0.0
C3939 C 0.12156 0.38849 0.33682 0.0
N3940 N 0.13239 0.35885 0.31253 0.0
N3941 N 0.07686 0.38845 0.37849 0.0
C3942 C 0.12209 0.36563 0.33146 0.0
C3943 C 0.0936 0.38094 0.36529 0.0
N3944 N 0.11594 0.32801 0.34389 0.0
N3945 N 0.10895 0.41766 0.36111 0.0
H3946 H 0.06605 0.3779 0.38677 0.0
H3947 H 0.07231 0.40504 0.37947 0.0
H3948 H 0.11924 0.42939 0.35381 0.0
H3949 H 0.10123 0.42345 0.37538 0.0
H3950 H 0.1284 0.32171 0.33381 0.0
H3951 H 0.10862 0.31607 0.35394 0.0
H3952 H 0.13154 0.34272 0.30653 0.0
H3953 H 0.13985 0.36993 0.30162 0.0
C3954 C 0.89786 0.89241 0.63703 0.0
C3955 C 0.90553 0.87092 0.63111 0.0
C3956 C 0.88127 0.87142 0.5989 0.0
C3957 C 0.87067 0.89074 0.60704 0.0
N3958 N 0.86783 0.91897 0.63507 0.0
N3959 N 0.90163 0.83842 0.60799 0.0
C3960 C 0.87883 0.90129 0.62631 0.0
C3961 C 0.89673 0.86011 0.61228 0.0
N3962 N 0.90906 0.90456 0.65243 0.0
N3963 N 0.87629 0.86364 0.57833 0.0
H3964 H 0.91176 0.82873 0.61798 0.0
H3965 H 0.89361 0.82917 0.59587 0.0
H3966 H 0.86458 0.87122 0.56838 0.0
H3967 H 0.88521 0.85117 0.57045 0.0
H3968 H 0.90536 0.92101 0.65598 0.0
H3969 H 0.92353 0.89897 0.65996 0.0
H3970 H 0.87144 0.92559 0.65056 0.0
H3971 H 0.85413 0.92615 0.62746 0.0
C3972 C 0.39396 0.60122 0.88745 0.0
C3973 C 0.37122 0.60002 0.88123 0.0
C3974 C 0.36337 0.63146 0.90577 0.0
C3975 C 0.38594 0.63224 0.91193 0.0
N3976 N 0.41996 0.61224 0.91581 0.0
N3977 N 0.33352 0.60925 0.89098 0.0
C3978 C 0.40021 0.61504 0.90535 0.0
C3979 C 0.35561 0.61368 0.89241 0.0
N3980 N 0.40999 0.59083 0.87536 0.0
N3981 N 0.34948 0.64801 0.91234 0.0
H3982 H 0.3273 0.59548 0.88266 0.0
H3983 H 0.32164 0.61768 0.90018 0.0
H3984 H 0.35449 0.6604 0.92328 0.0
H3985 H 0.33349 0.64987 0.90621 0.0
H3986 H 0.42681 0.59321 0.87823 0.0
H3987 H 0.40695 0.58205 0.86089 0.0
H3988 H 0.43042 0.5989 0.91263 0.0
H3989 H 0.42437 0.62168 0.92955 0.0
C3990 C 0.60607 0.08563 0.13292 0.0
C3991 C 0.61099 0.10384 0.14683 0.0
C3992 C 0.65033 0.0962 0.14268 0.0
C3993 C 0.64534 0.08278 0.12409 0.0
N3994 N 0.61857 0.06272 0.10244 0.0
N3995 N 0.63726 0.12463 0.16795 0.0
C3996 C 0.62326 0.07627 0.11989 0.0
C3997 C 0.63303 0.10815 0.1531 0.0
N3998 N 0.58487 0.07804 0.13157 0.0
N3999 N 0.6717 0.09783 0.14978 0.0
H4000 H 0.62452 0.13281 0.17628 0.0
H4001 H 0.65304 0.13051 0.17149 0.0
H4002 H 0.68446 0.08886 0.14235 0.0
H4003 H 0.67641 0.10631 0.164 0.0
H4004 H 0.58041 0.06387 0.12285 0.0
H4005 H 0.57214 0.08462 0.14116 0.0
H4006 H 0.60259 0.05967 0.09681 0.0
H4007 H 0.63079 0.0552 0.0929 0.0
C4008 C 0.1139 0.62831 0.08476 0.0
C4009 C 0.12026 0.65056 0.08883 0.0
C4010 C 0.14648 0.63812 0.11724 0.0
C4011 C 0.13957 0.61608 0.11363 0.0
N4012 N 0.12214 0.58935 0.08984 0.0
N4013 N 0.14714 0.67592 0.10371 0.0
C4014 C 0.12529 0.61093 0.09579 0.0
C4015 C 0.13814 0.65519 0.10336 0.0
N4016 N 0.09585 0.62374 0.07197 0.0
N4017 N 0.16031 0.64277 0.13448 0.0
H4018 H 0.14169 0.68849 0.09322 0.0
H4019 H 0.16126 0.68001 0.11266 0.0
H4020 H 0.16744 0.63037 0.14415 0.0
H4021 H 0.16392 0.65878 0.13972 0.0
H4022 H 0.08876 0.60807 0.07086 0.0
H4023 H 0.0868 0.63578 0.06365 0.0
H4024 H 0.11357 0.58461 0.07567 0.0
H4025 H 0.12996 0.57624 0.09787 0.0
C4026 C 0.60262 0.8825 0.3892 0.0
C4027 C 0.60108 0.87633 0.36642 0.0
C4028 C 0.63218 0.90097 0.35831 0.0
C4029 C 0.63309 0.90685 0.38091 0.0
N4030 N 0.61345 0.91121 0.41488 0.0
N4031 N 0.60994 0.88599 0.32854 0.0
C4032 C 0.6158 0.9008 0.39505 0.0
C4033 C 0.61442 0.88758 0.3506 0.0
N4034 N 0.59367 0.86975 0.4056 0.0
N4035 N 0.64887 0.90737 0.34458 0.0
H4036 H 0.59631 0.87744 0.3224 0.0
H4037 H 0.61833 0.89517 0.31662 0.0
H4038 H 0.66144 0.91792 0.34999 0.0
H4039 H 0.6506 0.90154 0.32845 0.0
H4040 H 0.59612 0.87308 0.42234 0.0
H4041 H 0.58668 0.85427 0.40287 0.0
H4042 H 0.6003 0.90804 0.42559 0.0
H4043 H 0.62342 0.92466 0.4191 0.0
C4044 C 0.40283 0.39581 0.57974 0.0
C4045 C 0.39141 0.37556 0.58303 0.0
C4046 C 0.36517 0.39394 0.60798 0.0
C4047 C 0.37786 0.41349 0.60633 0.0
N4048 N 0.40354 0.43561 0.58574 0.0
N4049 N 0.35801 0.35696 0.59388 0.0
C4050 C 0.3948 0.41527 0.59029 0.0
C4051 C 0.37116 0.37529 0.59491 0.0
N4052 N 0.42223 0.39613 0.56817 0.0
N4053 N 0.34838 0.39284 0.62304 0.0
H4054 H 0.36213 0.34328 0.58415 0.0
H4055 H 0.34232 0.35607 0.6009 0.0
H4056 H 0.34327 0.40663 0.63211 0.0
H4057 H 0.34009 0.3783 0.62707 0.0
H4058 H 0.43278 0.40971 0.5677 0.0
H4059 H 0.42837 0.38242 0.55974 0.0
H4060 H 0.41476 0.43852 0.57301 0.0
H4061 H 0.39783 0.44995 0.59351 0.0
C4062 C 0.88211 0.09938 0.87614 0.0
C4063 C 0.87215 0.10659 0.89618 0.0
C4064 C 0.89474 0.14038 0.89535 0.0
C4065 C 0.9054 0.13262 0.87601 0.0
N4066 N 0.91362 0.10223 0.85153 0.0
N4067 N 0.87355 0.13111 0.92784 0.0
C4068 C 0.90051 0.11127 0.86758 0.0
C4069 C 0.88003 0.12613 0.90677 0.0
N4070 N 0.87321 0.08229 0.86434 0.0
N4071 N 0.89742 0.16182 0.9021 0.0
H4072 H 0.86271 0.12126 0.93688 0.0
H4073 H 0.88063 0.14378 0.93713 0.0
H4074 H 0.90764 0.17311 0.89401 0.0
H4075 H 0.8879 0.16904 0.91452 0.0
H4076 H 0.87838 0.07818 0.84842 0.0
H4077 H 0.85936 0.07342 0.8694 0.0
H4078 H 0.91214 0.08588 0.84627 0.0
H4079 H 0.92746 0.11035 0.84516 0.0
C4080 C 0.38998 0.15285 0.36822 0.0
C4081 C 0.40324 0.13385 0.3718 0.0
C4082 C 0.40013 0.13908 0.41168 0.0
C4083 C 0.38277 0.15442 0.40796 0.0
N4084 N 0.36207 0.17762 0.38313 0.0
N4085 N 0.42312 0.10985 0.39634 0.0
C4086 C 0.37841 0.16236 0.38637 0.0
C4087 C 0.40943 0.12758 0.39342 0.0
N4088 N 0.38802 0.1612 0.34732 0.0
N4089 N 0.40718 0.13531 0.43281 0.0
H4090 H 0.43074 0.10186 0.38305 0.0
H4091 H 0.42638 0.10268 0.41165 0.0
H4092 H 0.40054 0.14382 0.44631 0.0
H4093 H 0.42069 0.1254 0.43676 0.0
H4094 H 0.3799 0.17592 0.34364 0.0
H4095 H 0.39633 0.15426 0.33386 0.0
H4096 H 0.35615 0.18215 0.36762 0.0
H4097 H 0.3538 0.18526 0.3962 0.0
C4098 C 0.09722 0.1425 0.60102 0.0
C4099 C 0.11695 0.15382 0.60697 0.0
C4100 C 0.11114 0.14297 0.64551 0.0
C4101 C 0.09493 0.1276 0.63845 0.0
N4102 N 0.07124 0.11321 0.61012 0.0
N4103 N 0.14287 0.16509 0.63521 0.0
C4104 C 0.08723 0.12783 0.61644 0.0
C4105 C 0.12365 0.15472 0.62944 0.0
N4106 N 0.08831 0.14575 0.58052 0.0
N4107 N 0.11498 0.14567 0.66762 0.0
H4108 H 0.15248 0.17406 0.62409 0.0
H4109 H 0.15004 0.16377 0.65081 0.0
H4110 H 0.10601 0.13708 0.67961 0.0
H4111 H 0.12534 0.15782 0.67406 0.0
H4112 H 0.07315 0.13925 0.57562 0.0
H4113 H 0.09518 0.1568 0.56916 0.0
H4114 H 0.06665 0.11061 0.59373 0.0
H4115 H 0.06315 0.10302 0.62148 0.0
C4116 C 0.09915 0.90924 0.88481 0.0
C4117 C 0.08734 0.89601 0.86965 0.0
C4118 C 0.09574 0.86352 0.89222 0.0
C4119 C 0.11224 0.87589 0.90363 0.0
N4120 N 0.13127 0.91104 0.90817 0.0
N4121 N 0.07392 0.8602 0.85871 0.0
C4122 C 0.11413 0.89904 0.89965 0.0
C4123 C 0.08512 0.87305 0.87349 0.0
N4124 N 0.09662 0.93166 0.88429 0.0
N4125 N 0.08989 0.84295 0.8995 0.0
H4126 H 0.0653 0.86689 0.84536 0.0
H4127 H 0.07411 0.84296 0.85918 0.0
H4128 H 0.09637 0.83601 0.9139 0.0
H4129 H 0.07684 0.83396 0.89274 0.0
H4130 H 0.1036 0.9422 0.896 0.0
H4131 H 0.08551 0.93925 0.87347 0.0
H4132 H 0.1343 0.92742 0.90373 0.0
H4133 H 0.14396 0.90428 0.91759 0.0
C4134 C 0.39059 0.87872 0.14298 0.0
C4135 C 0.38321 0.90028 0.14907 0.0
C4136 C 0.35259 0.89701 0.12302 0.0
C4137 C 0.36165 0.87698 0.11471 0.0
N4138 N 0.39098 0.84998 0.11498 0.0
N4139 N 0.35921 0.93149 0.14199 0.0
C4140 C 0.38108 0.86806 0.12427 0.0
C4141 C 0.36471 0.90983 0.13838 0.0
N4142 N 0.40606 0.86802 0.15551 0.0
N4143 N 0.33192 0.90347 0.11683 0.0
H4144 H 0.36794 0.94189 0.15259 0.0
H4145 H 0.34741 0.93989 0.13267 0.0
H4146 H 0.32245 0.89418 0.10603 0.0
H4147 H 0.32337 0.9165 0.12419 0.0
H4148 H 0.41019 0.85144 0.15327 0.0
H4149 H 0.41331 0.87496 0.1695 0.0
H4150 H 0.40655 0.84431 0.11966 0.0
H4151 H 0.38448 0.84168 0.10134 0.0
C4152 C 0.3874 0.32432 0.1025 0.0
C4153 C 0.39558 0.33157 0.12333 0.0
C4154 C 0.3708 0.36346 0.122 0.0
C4155 C 0.36426 0.35761 0.10023 0.0
N4156 N 0.37029 0.33504 0.06784 0.0
N4157 N 0.40015 0.36202 0.14886 0.0
C4158 C 0.37373 0.33878 0.08985 0.0
C4159 C 0.38885 0.35238 0.13183 0.0
N4160 N 0.39167 0.30336 0.09524 0.0
N4161 N 0.35913 0.37877 0.13388 0.0
H4162 H 0.41442 0.35513 0.15568 0.0
H4163 H 0.39694 0.37808 0.15429 0.0
H4164 H 0.34474 0.38627 0.12807 0.0
H4165 H 0.36225 0.38197 0.15053 0.0
H4166 H 0.3844 0.29663 0.08115 0.0
H4167 H 0.40065 0.29192 0.10445 0.0
H4168 H 0.37858 0.32279 0.05899 0.0
H4169 H 0.36087 0.34556 0.05794 0.0
C4170 C 0.85442 0.85922 0.11246 0.0
C4171 C 0.86992 0.86604 0.09631 0.0
C4172 C 0.8601 0.90451 0.10355 0.0
C4173 C 0.84936 0.89784 0.12343 0.0
N4174 N 0.83651 0.86806 0.14704 0.0
N4175 N 0.88702 0.89501 0.07526 0.0
C4176 C 0.84594 0.87497 0.12769 0.0
C4177 C 0.87226 0.88866 0.09111 0.0
N4178 N 0.84852 0.83743 0.1136 0.0
N4179 N 0.85866 0.92601 0.09673 0.0
H4180 H 0.89549 0.88356 0.06549 0.0
H4181 H 0.8915 0.91142 0.07251 0.0
H4182 H 0.84924 0.93773 0.10523 0.0
H4183 H 0.86479 0.93157 0.08163 0.0
H4184 H 0.83593 0.83157 0.1238 0.0
H4185 H 0.85478 0.82568 0.10258 0.0
H4186 H 0.8363 0.85158 0.15204 0.0
H4187 H 0.83023 0.87873 0.15898 0.0
C4188 C 0.13026 0.59464 0.6321 0.0
C4189 C 0.12955 0.59529 0.60862 0.0
C4190 C 0.10289 0.6253 0.60994 0.0
C4191 C 0.10222 0.62402 0.63339 0.0
N4192 N 0.11133 0.60344 0.66642 0.0
N4193 N 0.10936 0.6053 0.57601 0.0
C4194 C 0.11469 0.60743 0.64446 0.0
C4195 C 0.11355 0.60842 0.59795 0.0
N4196 N 0.14634 0.5828 0.64261 0.0
N4197 N 0.09494 0.64346 0.59907 0.0
H4198 H 0.11695 0.59255 0.56719 0.0
H4199 H 0.09678 0.61357 0.5676 0.0
H4200 H 0.08925 0.65753 0.60725 0.0
H4201 H 0.09675 0.64572 0.58207 0.0
H4202 H 0.14928 0.58395 0.65955 0.0
H4203 H 0.15742 0.57264 0.63418 0.0
H4204 H 0.11855 0.59018 0.67474 0.0
H4205 H 0.09976 0.61209 0.67583 0.0
C4206 C 0.84041 0.65628 0.62293 0.0
C4207 C 0.85768 0.65637 0.60709 0.0
C4208 C 0.85934 0.61602 0.6086 0.0
C4209 C 0.84767 0.61691 0.62899 0.0
N4210 N 0.81756 0.63461 0.64814 0.0
N4211 N 0.8734 0.63634 0.57666 0.0
C4212 C 0.83486 0.63602 0.63374 0.0
C4213 C 0.86373 0.63611 0.59704 0.0
N4214 N 0.82996 0.67571 0.62773 0.0
N4215 N 0.86639 0.59603 0.6008 0.0
H4216 H 0.87481 0.65097 0.56759 0.0
H4217 H 0.87804 0.62224 0.56797 0.0
H4218 H 0.86138 0.58121 0.60813 0.0
H4219 H 0.8767 0.59404 0.58718 0.0
H4220 H 0.8183 0.67769 0.64021 0.0
H4221 H 0.83301 0.69001 0.61852 0.0
H4222 H 0.8076 0.64788 0.65265 0.0
H4223 H 0.81174 0.61943 0.65387 0.0
C4224 C 0.12336 0.08899 0.374 0.0
C4225 C 0.14537 0.09579 0.37005 0.0
C4226 C 0.1323 0.12645 0.34716 0.0
C4227 C 0.11085 0.12344 0.35642 0.0
N4228 N 0.0841 0.09763 0.37043 0.0
N4229 N 0.16956 0.1116 0.34308 0.0
C4230 C 0.10574 0.10303 0.36695 0.0
C4231 C 0.14938 0.11139 0.35313 0.0
N4232 N 0.11966 0.06939 0.38455 0.0
N4233 N 0.13677 0.14417 0.33391 0.0
H4234 H 0.18168 0.09996 0.34714 0.0
H4235 H 0.17342 0.1215 0.32952 0.0
H4236 H 0.12454 0.15395 0.32683 0.0
H4237 H 0.15273 0.14902 0.32966 0.0
H4238 H 0.10416 0.06352 0.38908 0.0
H4239 H 0.13255 0.05834 0.38769 0.0
H4240 H 0.07876 0.08342 0.3785 0.0
H4241 H 0.07125 0.1073 0.3641 0.0
C4242 C 0.62156 0.37692 0.08213 0.0
C4243 C 0.59862 0.37282 0.08471 0.0
C4244 C 0.59773 0.39689 0.11664 0.0
C4245 C 0.62018 0.40308 0.11325 0.0
N4246 N 0.65198 0.40229 0.08899 0.0
N4247 N 0.56383 0.38667 0.09874 0.0
C4248 C 0.63173 0.39419 0.09473 0.0
C4249 C 0.58635 0.38594 0.09962 0.0
N4250 N 0.6336 0.36398 0.06812 0.0
N4251 N 0.58779 0.39899 0.13686 0.0
H4252 H 0.55475 0.37941 0.08606 0.0
H4253 H 0.55461 0.39701 0.10905 0.0
H4254 H 0.59634 0.40316 0.15123 0.0
H4255 H 0.57189 0.39307 0.14001 0.0
H4256 H 0.65079 0.36456 0.06721 0.0
H4257 H 0.62614 0.35202 0.05813 0.0
H4258 H 0.6603 0.3974 0.07471 0.0
H4259 H 0.65939 0.41545 0.09731 0.0
C4260 C 0.37668 0.86435 0.83816 0.0
C4261 C 0.3961 0.87618 0.8432 0.0
C4262 C 0.37336 0.90183 0.86511 0.0
C4263 C 0.35637 0.88556 0.86629 0.0
N4264 N 0.34402 0.84882 0.85428 0.0
N4265 N 0.41228 0.90924 0.85792 0.0
C4266 C 0.35821 0.86633 0.8525 0.0
C4267 C 0.3941 0.89617 0.85528 0.0
N4268 N 0.37608 0.85071 0.82022 0.0
N4269 N 0.36961 0.92256 0.87326 0.0
H4270 H 0.42704 0.90592 0.84958 0.0
H4271 H 0.41285 0.92271 0.86865 0.0
H4272 H 0.35426 0.92729 0.87956 0.0
H4273 H 0.38079 0.93554 0.8716 0.0
H4274 H 0.36172 0.8426 0.8152 0.0
H4275 H 0.38902 0.85017 0.80881 0.0
H4276 H 0.3467 0.83393 0.84598 0.0
H4277 H 0.33108 0.84768 0.86547 0.0
C4278 C 0.87161 0.37683 0.9096 0.0
C4279 C 0.86591 0.35581 0.90095 0.0
C4280 C 0.83849 0.37318 0.87677 0.0
C4281 C 0.8482 0.39398 0.88139 0.0
N4282 N 0.87139 0.41676 0.90403 0.0
N4283 N 0.84197 0.33308 0.87909 0.0
C4284 C 0.86353 0.39621 0.8989 0.0
C4285 C 0.84821 0.35372 0.88582 0.0
N4286 N 0.88557 0.37803 0.92729 0.0
N4287 N 0.82072 0.3722 0.8629 0.0
H4288 H 0.84858 0.3188 0.88625 0.0
H4289 H 0.83078 0.33003 0.8664 0.0
H4290 H 0.81365 0.38645 0.85618 0.0
H4291 H 0.81201 0.35777 0.85944 0.0
H4292 H 0.88975 0.3927 0.93526 0.0
H4293 H 0.89159 0.36385 0.93509 0.0
H4294 H 0.88435 0.41969 0.91494 0.0
H4295 H 0.86494 0.43103 0.89675 0.0
C4296 C 0.35512 0.14676 0.65312 0.0
C4297 C 0.37053 0.13547 0.66661 0.0
C4298 C 0.35128 0.10073 0.65812 0.0
C4299 C 0.33947 0.11149 0.64074 0.0
N4300 N 0.33686 0.14478 0.61807 0.0
N4301 N 0.38425 0.10114 0.68114 0.0
C4302 C 0.34291 0.1346 0.63736 0.0
C4303 C 0.36885 0.11223 0.66896 0.0
N4304 N 0.35306 0.16923 0.65423 0.0
N4305 N 0.34545 0.07994 0.66473 0.0
H4306 H 0.39655 0.1094 0.69001 0.0
H4307 H 0.38535 0.08394 0.68148 0.0
H4308 H 0.33177 0.07165 0.65834 0.0
H4309 H 0.3526 0.07208 0.67829 0.0
H4310 H 0.34088 0.17785 0.64558 0.0
H4311 H 0.36163 0.17889 0.66562 0.0
H4312 H 0.3409 0.16118 0.61456 0.0
H4313 H 0.33115 0.13643 0.60417 0.0
C4314 C 0.5873 0.64203 0.33142 0.0
C4315 C 0.57885 0.63795 0.3529 0.0
C4316 C 0.59375 0.60028 0.35194 0.0
C4317 C 0.60451 0.60529 0.33167 0.0
N4318 N 0.60203 0.62601 0.29775 0.0
N4319 N 0.56689 0.61117 0.37982 0.0
C4320 C 0.59822 0.62459 0.3199 0.0
C4321 C 0.57973 0.61632 0.36192 0.0
N4322 N 0.586 0.66274 0.3225 0.0
N4323 N 0.59734 0.58026 0.36174 0.0
H4324 H 0.55606 0.62253 0.38703 0.0
H4325 H 0.56537 0.5953 0.3863 0.0
H4326 H 0.60561 0.56753 0.35359 0.0
H4327 H 0.59253 0.57637 0.3778 0.0
H4328 H 0.59407 0.66725 0.30796 0.0
H4329 H 0.57789 0.6758 0.33034 0.0
H4330 H 0.59594 0.63884 0.288 0.0
H4331 H 0.60845 0.61286 0.28871 0.0
C4332 C 0.13349 0.87791 0.17063 0.0
C4333 C 0.11059 0.88091 0.16701 0.0
C4334 C 0.1183 0.9038 0.13451 0.0
C4335 C 0.1406 0.89628 0.13504 0.0
N4336 N 0.17109 0.8849 0.15775 0.0
N4337 N 0.08362 0.90721 0.15467 0.0
C4338 C 0.14877 0.88637 0.15473 0.0
C4339 C 0.10383 0.89757 0.15203 0.0
N4340 N 0.14028 0.86653 0.18889 0.0
N4341 N 0.11049 0.91549 0.11687 0.0
H4342 H 0.07355 0.90333 0.16817 0.0
H4343 H 0.07814 0.92054 0.14524 0.0
H4344 H 0.12063 0.9219 0.10456 0.0
H4345 H 0.09374 0.91853 0.1143 0.0
H4346 H 0.15654 0.86187 0.19193 0.0
H4347 H 0.12914 0.86213 0.20135 0.0
H4348 H 0.17857 0.87836 0.17178 0.0
H4349 H 0.18218 0.8919 0.14651 0.0
C4350 C 0.59928 0.88073 0.59687 0.0
C4351 C 0.61281 0.86201 0.60127 0.0
C4352 C 0.60433 0.86575 0.64075 0.0
C4353 C 0.59661 0.88747 0.63666 0.0
N4354 N 0.57619 0.91042 0.61148 0.0
N4355 N 0.62455 0.83389 0.62719 0.0
C4356 C 0.59056 0.89334 0.61483 0.0
C4357 C 0.61358 0.8532 0.62307 0.0
N4358 N 0.59561 0.88666 0.57542 0.0
N4359 N 0.60262 0.85738 0.66165 0.0
H4360 H 0.62986 0.82328 0.61474 0.0
H4361 H 0.62854 0.82838 0.64299 0.0
H4362 H 0.59518 0.86641 0.67438 0.0
H4363 H 0.60636 0.8411 0.66583 0.0
H4364 H 0.58806 0.9013 0.57048 0.0
H4365 H 0.60028 0.8763 0.56244 0.0
H4366 H 0.57067 0.91553 0.59603 0.0
H4367 H 0.56781 0.91795 0.62453 0.0
C4368 C 0.8859 0.86606 0.37171 0.0
C4369 C 0.86773 0.8763 0.38271 0.0
C4370 C 0.87686 0.91074 0.36339 0.0
C4371 C 0.89148 0.89933 0.34904 0.0
N4372 N 0.90646 0.86401 0.33743 0.0
N4373 N 0.84221 0.90764 0.3822 0.0
C4374 C 0.89509 0.87634 0.35256 0.0
C4375 C 0.8621 0.89845 0.37671 0.0
N4376 N 0.89513 0.84713 0.37986 0.0
N4377 N 0.87738 0.93327 0.36507 0.0
H4378 H 0.8292 0.8989 0.38924 0.0
H4379 H 0.83746 0.92326 0.37659 0.0
H4380 H 0.88927 0.943 0.35723 0.0
H4381 H 0.86789 0.94187 0.37665 0.0
H4382 H 0.90939 0.84012 0.37315 0.0
H4383 H 0.89047 0.8402 0.39494 0.0
H4384 H 0.90781 0.84685 0.33859 0.0
H4385 H 0.91225 0.87044 0.32253 0.0
C4386 C 0.90848 0.15424 0.09456 0.0
C4387 C 0.89227 0.17 0.10084 0.0
C4388 C 0.9051 0.16714 0.1391 0.0
C4389 C 0.91382 0.14603 0.13379 0.0
N4390 N 0.93284 0.12438 0.10644 0.0
N4391 N 0.88262 0.19835 0.12696 0.0
C4392 C 0.91882 0.14137 0.11136 0.0
C4393 C 0.89326 0.17898 0.12247 0.0
N4394 N 0.91352 0.15173 0.07272 0.0
N4395 N 0.90848 0.17565 0.15971 0.0
H4396 H 0.8762 0.20822 0.11432 0.0
H4397 H 0.8806 0.20481 0.14278 0.0
H4398 H 0.91877 0.16774 0.17108 0.0
H4399 H 0.90312 0.19122 0.16472 0.0
H4400 H 0.92548 0.14092 0.06673 0.0
H4401 H 0.90673 0.16216 0.06073 0.0
H4402 H 0.93572 0.11853 0.09052 0.0
H4403 H 0.94194 0.1164 0.11876 0.0
C4404 C 0.59499 0.13754 0.87906 0.0
C4405 C 0.60378 0.14186 0.85775 0.0
C4406 C 0.62823 0.17011 0.87369 0.0
C4407 C 0.62349 0.16171 0.89509 0.0
N4408 N 0.59989 0.14063 0.91897 0.0
N4409 N 0.62667 0.16383 0.83394 0.0
C4410 C 0.60564 0.14677 0.89799 0.0
C4411 C 0.61941 0.15906 0.8548 0.0
N4412 N 0.57707 0.12395 0.88111 0.0
N4413 N 0.64151 0.18822 0.87147 0.0
H4414 H 0.61954 0.15669 0.81992 0.0
H4415 H 0.64 0.17415 0.83052 0.0
H4416 H 0.64764 0.1969 0.88502 0.0
H4417 H 0.64459 0.19604 0.85644 0.0
H4418 H 0.56896 0.12086 0.89596 0.0
H4419 H 0.56917 0.11702 0.86743 0.0
H4420 H 0.58876 0.12806 0.92269 0.0
H4421 H 0.6068 0.14819 0.93288 0.0
C4422 C 0.61118 0.60259 0.84638 0.0
C4423 C 0.61259 0.62103 0.8319 0.0
C4424 C 0.65295 0.61877 0.83323 0.0
C4425 C 0.65091 0.60602 0.85287 0.0
N4426 N 0.63087 0.57628 0.86984 0.0
N4427 N 0.63401 0.63775 0.80299 0.0
C4428 C 0.63083 0.5946 0.85667 0.0
C4429 C 0.63333 0.62614 0.82232 0.0
N4430 N 0.59098 0.59349 0.85058 0.0
N4431 N 0.67351 0.62366 0.82535 0.0
H4432 H 0.61966 0.64101 0.79398 0.0
H4433 H 0.64845 0.64254 0.795 0.0
H4434 H 0.68763 0.61616 0.83186 0.0
H4435 H 0.67662 0.63415 0.81209 0.0
H4436 H 0.58808 0.58122 0.86229 0.0
H4437 H 0.57697 0.59832 0.8417 0.0
H4438 H 0.61694 0.56683 0.87335 0.0
H4439 H 0.64561 0.56945 0.87568 0.0
C4440 C 0.1393 0.09874 0.89148 0.0
C4441 C 0.15634 0.10527 0.87678 0.0
C4442 C 0.15073 0.14397 0.88744 0.0
C4443 C 0.13059 0.13774 0.89761 0.0
N4444 N 0.11276 0.10982 0.91963 0.0
N4445 N 0.18186 0.13306 0.86429 0.0
C4446 C 0.12719 0.11524 0.90317 0.0
C4447 C 0.16369 0.12755 0.87651 0.0
N4448 N 0.13388 0.07686 0.89299 0.0
N4449 N 0.15694 0.16568 0.88809 0.0
H4450 H 0.19185 0.12111 0.85687 0.0
H4451 H 0.18712 0.14918 0.86146 0.0
H4452 H 0.14764 0.17742 0.89672 0.0
H4453 H 0.1717 0.17177 0.88172 0.0
H4454 H 0.11997 0.07099 0.90125 0.0
H4455 H 0.14326 0.0646 0.88521 0.0
H4456 H 0.11027 0.09372 0.92521 0.0
H4457 H 0.1054 0.12182 0.92959 0.0
C4458 C 0.86378 0.37671 0.34594 0.0
C4459 C 0.88524 0.37984 0.35474 0.0
C4460 C 0.87151 0.41009 0.3779 0.0
C4461 C 0.84958 0.40342 0.37292 0.0
N4462 N 0.82426 0.38298 0.35025 0.0
N4463 N 0.91056 0.40044 0.37724 0.0
C4464 C 0.84556 0.38779 0.35595 0.0
C4465 C 0.88949 0.39726 0.36976 0.0
N4466 N 0.86097 0.36259 0.32852 0.0
N4467 N 0.87502 0.42827 0.39086 0.0
H4468 H 0.92401 0.3918 0.37067 0.0
H4469 H 0.91466 0.41093 0.39026 0.0
H4470 H 0.86211 0.43776 0.39723 0.0
H4471 H 0.89056 0.43499 0.39386 0.0
H4472 H 0.84603 0.36024 0.32035 0.0
H4473 H 0.87427 0.35444 0.32113 0.0
H4474 H 0.81972 0.37017 0.33971 0.0
H4475 H 0.81093 0.39192 0.35659 0.0
C4476 C 0.6541 0.86587 0.87874 0.0
C4477 C 0.64815 0.88802 0.88307 0.0
C4478 C 0.62529 0.87661 0.91444 0.0
C4479 C 0.62998 0.85417 0.90925 0.0
N4480 N 0.6546 0.82797 0.89201 0.0
N4481 N 0.63533 0.91514 0.90908 0.0
C4482 C 0.64646 0.84902 0.89326 0.0
C4483 C 0.63639 0.89353 0.90253 0.0
N4484 N 0.66584 0.86087 0.86011 0.0
N4485 N 0.60897 0.88191 0.92915 0.0
H4486 H 0.64335 0.92772 0.90037 0.0
H4487 H 0.62856 0.92016 0.92411 0.0
H4488 H 0.60019 0.87025 0.93824 0.0
H4489 H 0.60306 0.89795 0.93131 0.0
H4490 H 0.66843 0.84477 0.85455 0.0
H4491 H 0.67219 0.87309 0.8497 0.0
H4492 H 0.66774 0.82347 0.88181 0.0
H4493 H 0.6496 0.81553 0.90289 0.0
C4494 C 0.86098 0.08846 0.40603 0.0
C4495 C 0.8434 0.09291 0.39129 0.0
C4496 C 0.84878 0.13246 0.39705 0.0
C4497 C 0.87026 0.12767 0.405 0.0
N4498 N 0.89576 0.10192 0.4211 0.0
N4499 N 0.81636 0.11826 0.37777 0.0
C4500 C 0.87577 0.10591 0.41148 0.0
C4501 C 0.83546 0.11475 0.38921 0.0
N4502 N 0.86413 0.06739 0.4134 0.0
N4503 N 0.84205 0.15398 0.39578 0.0
H4504 H 0.80677 0.10498 0.37224 0.0
H4505 H 0.81025 0.13381 0.37366 0.0
H4506 H 0.85205 0.1669 0.4014 0.0
H4507 H 0.82635 0.15885 0.39074 0.0
H4508 H 0.87619 0.06303 0.42488 0.0
H4509 H 0.85307 0.05475 0.40944 0.0
H4510 H 0.90193 0.08613 0.42412 0.0
H4511 H 0.90638 0.1148 0.42554 0.0
C4512 C 0.62668 0.12138 0.59941 0.0
C4513 C 0.60385 0.12546 0.60283 0.0
C4514 C 0.60305 0.09796 0.63259 0.0
C4515 C 0.62599 0.09391 0.62942 0.0
N4516 N 0.65721 0.09595 0.6046 0.0
N4517 N 0.56911 0.11186 0.61642 0.0
C4518 C 0.63702 0.10373 0.61109 0.0
C4519 C 0.59166 0.11156 0.61721 0.0
N4520 N 0.63885 0.13503 0.58618 0.0
N4521 N 0.59242 0.09054 0.65111 0.0
H4522 H 0.56052 0.12157 0.60502 0.0
H4523 H 0.55924 0.10086 0.6253 0.0
H4524 H 0.60016 0.08162 0.66363 0.0
H4525 H 0.57633 0.09518 0.65514 0.0
H4526 H 0.65605 0.1345 0.58546 0.0
H4527 H 0.63191 0.14771 0.57682 0.0
H4528 H 0.66516 0.10124 0.59026 0.0
H4529 H 0.6648 0.08241 0.61215 0.0
C4530 C 0.14842 0.39211 0.84588 0.0
C4531 C 0.14288 0.4059 0.86405 0.0
C4532 C 0.10389 0.40056 0.85574 0.0
C4533 C 0.10987 0.38142 0.84372 0.0
N4534 N 0.13672 0.36125 0.82288 0.0
N4535 N 0.11543 0.4283 0.88241 0.0
C4536 C 0.13181 0.3784 0.83668 0.0
C4537 C 0.12061 0.41234 0.86731 0.0
N4538 N 0.16974 0.39148 0.83854 0.0
N4539 N 0.0821 0.40621 0.85709 0.0
H4540 H 0.12737 0.43829 0.88975 0.0
H4541 H 0.09938 0.43181 0.8875 0.0
H4542 H 0.06999 0.39712 0.84879 0.0
H4543 H 0.07632 0.42052 0.86473 0.0
H4544 H 0.1748 0.38252 0.82473 0.0
H4545 H 0.18189 0.40165 0.84541 0.0
H4546 H 0.15276 0.35649 0.81884 0.0
H4547 H 0.12427 0.3515 0.81593 0.0
C4548 C 0.40303 0.59445 0.36042 0.0
C4549 C 0.40198 0.6137 0.34712 0.0
C4550 C 0.36183 0.61379 0.35012 0.0
C4551 C 0.36374 0.59898 0.36827 0.0
N4552 N 0.38491 0.57206 0.38847 0.0
N4553 N 0.38055 0.63309 0.32005 0.0
C4554 C 0.38385 0.58773 0.37225 0.0
C4555 C 0.3813 0.62047 0.33874 0.0
N4556 N 0.42252 0.5832 0.36186 0.0
N4557 N 0.34159 0.62233 0.34485 0.0
H4558 H 0.39485 0.63658 0.31103 0.0
H4559 H 0.366 0.63805 0.31235 0.0
H4560 H 0.3271 0.6168 0.35243 0.0
H4561 H 0.33916 0.63495 0.33342 0.0
H4562 H 0.42441 0.56834 0.37034 0.0
H4563 H 0.43629 0.58801 0.3526 0.0
H4564 H 0.39958 0.56494 0.39394 0.0
H4565 H 0.37087 0.56661 0.39689 0.0
C4566 C 0.87722 0.62071 0.86624 0.0
C4567 C 0.86735 0.60061 0.85921 0.0
C4568 C 0.83473 0.60917 0.88183 0.0
C4569 C 0.8461 0.62753 0.89111 0.0
N4570 N 0.88061 0.64709 0.89596 0.0
N4571 N 0.83809 0.5737 0.86345 0.0
C4572 C 0.86806 0.63225 0.88441 0.0
C4573 C 0.84642 0.59425 0.8678 0.0
N4574 N 0.89485 0.62934 0.85503 0.0
N4575 N 0.81264 0.6064 0.88566 0.0
H4576 H 0.84633 0.56204 0.85377 0.0
H4577 H 0.82399 0.56748 0.87116 0.0
H4578 H 0.80337 0.61727 0.89532 0.0
H4579 H 0.80312 0.5946 0.87749 0.0
H4580 H 0.9013 0.64497 0.85839 0.0
H4581 H 0.9013 0.62216 0.84072 0.0
H4582 H 0.8974 0.64946 0.89288 0.0
H4583 H 0.87503 0.65508 0.9102 0.0
C4584 C 0.61486 0.66027 0.13243 0.0
C4585 C 0.62113 0.6438 0.11676 0.0
C4586 C 0.60279 0.61601 0.13963 0.0
C4587 C 0.60186 0.63108 0.15732 0.0
N4588 N 0.6067 0.66802 0.17105 0.0
N4589 N 0.6252 0.60445 0.10903 0.0
C4590 C 0.60749 0.6535 0.1538 0.0
C4591 C 0.61592 0.62121 0.12107 0.0
N4592 N 0.61542 0.68215 0.12685 0.0
N4593 N 0.59214 0.5962 0.14124 0.0
H4594 H 0.63751 0.6069 0.09723 0.0
H4595 H 0.623 0.58781 0.113 0.0
H4596 H 0.58192 0.59261 0.15468 0.0
H4597 H 0.59135 0.5849 0.12822 0.0
H4598 H 0.60945 0.69461 0.13716 0.0
H4599 H 0.61961 0.68762 0.11105 0.0
H4600 H 0.61305 0.68402 0.17021 0.0
H4601 H 0.60045 0.6635 0.1865 0.0
C4602 C 0.59829 0.40048 0.39799 0.0
C4603 C 0.59337 0.38946 0.37816 0.0
C4604 C 0.60595 0.35487 0.39478 0.0
C4605 C 0.61775 0.36731 0.4109 0.0
N4606 N 0.62513 0.40386 0.42692 0.0
N4607 N 0.58891 0.3554 0.35841 0.0
C4608 C 0.61349 0.39057 0.4128 0.0
C4609 C 0.59566 0.36625 0.37701 0.0
N4610 N 0.58941 0.42082 0.40203 0.0
N4611 N 0.60443 0.33241 0.39662 0.0
H4612 H 0.58043 0.36358 0.34578 0.0
H4613 H 0.5924 0.33881 0.35531 0.0
H4614 H 0.61065 0.32385 0.41025 0.0
H4615 H 0.59486 0.32271 0.38607 0.0
H4616 H 0.59125 0.42901 0.4171 0.0
H4617 H 0.57798 0.42804 0.39132 0.0
H4618 H 0.62396 0.42106 0.42653 0.0
H4619 H 0.63753 0.39859 0.4375 0.0
C4620 C 0.90611 0.36046 0.61474 0.0
C4621 C 0.89597 0.35567 0.63527 0.0
C4622 C 0.8756 0.32498 0.61875 0.0
C4623 C 0.88231 0.33265 0.59777 0.0
N4624 N 0.91128 0.34934 0.5764 0.0
N4625 N 0.87861 0.32873 0.6587 0.0
C4626 C 0.90045 0.34732 0.59607 0.0
C4627 C 0.88354 0.33599 0.6379 0.0
N4628 N 0.91957 0.37847 0.61277 0.0
N4629 N 0.86019 0.30856 0.61993 0.0
H4630 H 0.88447 0.33691 0.67275 0.0
H4631 H 0.87041 0.31397 0.66201 0.0
H4632 H 0.85481 0.30032 0.60571 0.0
H4633 H 0.85262 0.30346 0.63452 0.0
H4634 H 0.92539 0.3844 0.59768 0.0
H4635 H 0.92439 0.38788 0.62639 0.0
H4636 H 0.92536 0.359 0.57425 0.0
H4637 H 0.90738 0.33936 0.56287 0.0
C4638 C 0.33684 0.12599 0.11911 0.0
C4639 C 0.34492 0.10451 0.11412 0.0
C4640 C 0.36817 0.11948 0.08466 0.0
C4641 C 0.36289 0.14107 0.09215 0.0
N4642 N 0.33829 0.16555 0.11119 0.0
N4643 N 0.3624 0.07974 0.08868 0.0
C4644 C 0.34555 0.14448 0.10742 0.0
C4645 C 0.35842 0.10095 0.0954 0.0
N4646 N 0.32223 0.12865 0.13614 0.0
N4647 N 0.38376 0.11689 0.0685 0.0
H4648 H 0.35517 0.06622 0.09666 0.0
H4649 H 0.37134 0.07556 0.07459 0.0
H4650 H 0.39048 0.13036 0.06004 0.0
H4651 H 0.39023 0.10172 0.06362 0.0
H4652 H 0.31718 0.14389 0.14232 0.0
H4653 H 0.31517 0.11521 0.14435 0.0
H4654 H 0.32511 0.16958 0.12147 0.0
H4655 H 0.34479 0.17905 0.10257 0.0
C4656 C 0.14849 0.85049 0.6043 0.0
C4657 C 0.12917 0.85691 0.5927 0.0
C4658 C 0.13843 0.89583 0.5982 0.0
C4659 C 0.15468 0.88935 0.6138 0.0
N4660 N 0.18098 0.86184 0.62528 0.0
N4661 N 0.11311 0.88454 0.56906 0.0
C4662 C 0.16194 0.86706 0.61436 0.0
C4663 C 0.12669 0.87928 0.58626 0.0
N4664 N 0.15296 0.82846 0.60655 0.0
N4665 N 0.13343 0.91774 0.59596 0.0
H4666 H 0.10575 0.8724 0.55928 0.0
H4667 H 0.11132 0.90051 0.56287 0.0
H4668 H 0.14266 0.93002 0.60389 0.0
H4669 H 0.12002 0.92363 0.58694 0.0
H4670 H 0.16555 0.82202 0.61632 0.0
H4671 H 0.14362 0.81651 0.59828 0.0
H4672 H 0.18763 0.846 0.62608 0.0
H4673 H 0.19117 0.87391 0.63215 0.0
C4674 C 0.31339 0.87007 0.37131 0.0
C4675 C 0.32169 0.89182 0.37307 0.0
C4676 C 0.34382 0.88099 0.40504 0.0
C4677 C 0.34142 0.8587 0.39809 0.0
N4678 N 0.31965 0.83117 0.3797 0.0
N4679 N 0.33421 0.91966 0.39824 0.0
C4680 C 0.32417 0.85298 0.38333 0.0
C4681 C 0.33316 0.89786 0.39252 0.0
N4682 N 0.2957 0.86605 0.35796 0.0
N4683 N 0.35763 0.88593 0.42216 0.0
H4684 H 0.32583 0.93167 0.38906 0.0
H4685 H 0.34168 0.92556 0.41256 0.0
H4686 H 0.36454 0.87367 0.43212 0.0
H4687 H 0.36202 0.90194 0.42669 0.0
H4688 H 0.28819 0.85065 0.35637 0.0
H4689 H 0.28733 0.87898 0.35012 0.0
H4690 H 0.30884 0.82548 0.36759 0.0
H4691 H 0.32727 0.81875 0.38899 0.0
C4692 C 0.88059 0.61482 0.1456 0.0
C4693 C 0.90185 0.61515 0.13564 0.0
C4694 C 0.88812 0.59093 0.106 0.0
C4695 C 0.86618 0.59621 0.11234 0.0
N4696 N 0.84131 0.60626 0.14148 0.0
N4697 N 0.92706 0.60056 0.10864 0.0
C4698 C 0.86244 0.60563 0.13353 0.0
C4699 C 0.90603 0.60185 0.11675 0.0
N4700 N 0.87772 0.62407 0.16601 0.0
N4701 N 0.89176 0.57538 0.09005 0.0
H4702 H 0.94053 0.60721 0.11715 0.0
H4703 H 0.93104 0.5936 0.0934 0.0
H4704 H 0.87901 0.56581 0.08354 0.0
H4705 H 0.90742 0.56995 0.08541 0.0
H4706 H 0.86282 0.62442 0.17454 0.0
H4707 H 0.89083 0.63041 0.17519 0.0
H4708 H 0.83651 0.61406 0.15603 0.0
H4709 H 0.82837 0.59829 0.13327 0.0
C4710 C 0.6396 0.38925 0.65724 0.0
C4711 C 0.6352 0.39964 0.63675 0.0
C4712 C 0.59553 0.39548 0.64306 0.0
C4713 C 0.60029 0.37993 0.65998 0.0
N4714 N 0.62616 0.36526 0.68652 0.0
N4715 N 0.60966 0.4234 0.61772 0.0
C4716 C 0.62206 0.37845 0.66866 0.0
C4717 C 0.61328 0.40639 0.63209 0.0
N4718 N 0.66057 0.38996 0.66552 0.0
N4719 N 0.5741 0.39858 0.6367 0.0
H4720 H 0.62266 0.43281 0.61138 0.0
H4721 H 0.5941 0.42987 0.61427 0.0
H4722 H 0.56094 0.39147 0.64536 0.0
H4723 H 0.56941 0.40756 0.62279 0.0
H4724 H 0.66502 0.38391 0.68101 0.0
H4725 H 0.67309 0.39874 0.6575 0.0
H4726 H 0.64194 0.36112 0.69196 0.0
H4727 H 0.61356 0.35815 0.69586 0.0
C4728 C 0.13284 0.3381 0.13531 0.0
C4729 C 0.12651 0.34427 0.11361 0.0
C4730 C 0.09526 0.36516 0.12892 0.0
C4731 C 0.10556 0.36424 0.14991 0.0
N4732 N 0.13238 0.34803 0.17426 0.0
N4733 N 0.09876 0.35857 0.08927 0.0
C4734 C 0.12349 0.34965 0.15357 0.0
C4735 C 0.10634 0.35576 0.11034 0.0
N4736 N 0.14788 0.32157 0.13837 0.0
N4737 N 0.07552 0.37592 0.12683 0.0
H4738 H 0.10641 0.35085 0.07583 0.0
H4739 H 0.08526 0.36835 0.08503 0.0
H4740 H 0.06744 0.38282 0.14044 0.0
H4741 H 0.06649 0.37677 0.11222 0.0
H4742 H 0.15232 0.31553 0.15387 0.0
H4743 H 0.15382 0.31205 0.12529 0.0
H4744 H 0.14719 0.33996 0.17769 0.0
H4745 H 0.12506 0.35561 0.18793 0.0
C4746 C 0.40009 0.3423 0.8937 0.0
C4747 C 0.37978 0.33111 0.89689 0.0
C4748 C 0.37244 0.33272 0.85724 0.0
C4749 C 0.38887 0.34941 0.85557 0.0
N4750 N 0.42559 0.35907 0.86742 0.0
N4751 N 0.3549 0.30487 0.88059 0.0
C4752 C 0.4053 0.35054 0.87225 0.0
C4753 C 0.36873 0.32251 0.87815 0.0
N4754 N 0.41358 0.34582 0.91141 0.0
N4755 N 0.36033 0.32719 0.83905 0.0
H4756 H 0.35355 0.29659 0.89568 0.0
H4757 H 0.34672 0.29719 0.86754 0.0
H4758 H 0.36458 0.33288 0.8233 0.0
H4759 H 0.34649 0.31698 0.83947 0.0
H4760 H 0.42752 0.35589 0.91101 0.0
H4761 H 0.41031 0.33852 0.92673 0.0
H4762 H 0.4386 0.3597 0.87865 0.0
H4763 H 0.43008 0.36308 0.85124 0.0
C4764 C 0.36525 0.59031 0.64994 0.0
C4765 C 0.38791 0.58758 0.64459 0.0
C4766 C 0.38108 0.60245 0.60731 0.0
C4767 C 0.35884 0.6068 0.61324 0.0
N4768 N 0.3304 0.60823 0.6412 0.0
N4769 N 0.4183 0.59427 0.61958 0.0
C4770 C 0.35103 0.60149 0.6348 0.0
C4771 C 0.39608 0.5946 0.62367 0.0
N4772 N 0.3574 0.58254 0.66966 0.0
N4773 N 0.38766 0.605 0.58582 0.0
H4774 H 0.42979 0.5881 0.63082 0.0
H4775 H 0.42552 0.60157 0.60576 0.0
H4776 H 0.3771 0.61056 0.57337 0.0
H4777 H 0.40296 0.59978 0.5799 0.0
H4778 H 0.3407 0.5821 0.67375 0.0
H4779 H 0.3675 0.57523 0.68157 0.0
H4780 H 0.3245 0.60712 0.65733 0.0
H4781 H 0.31966 0.61677 0.63079 0.0
C4782 C 0.09531 0.63241 0.40262 0.0
C4783 C 0.11092 0.64723 0.39354 0.0
C4784 C 0.09741 0.63869 0.3565 0.0
C4785 C 0.08785 0.61915 0.36511 0.0
N4786 N 0.06911 0.60242 0.39592 0.0
N4787 N 0.1233 0.66885 0.36274 0.0
C4788 C 0.08363 0.61782 0.38815 0.0
C4789 C 0.11024 0.65227 0.37074 0.0
N4790 N 0.09238 0.63214 0.42497 0.0
N4791 N 0.09494 0.64331 0.33456 0.0
H4792 H 0.13225 0.67917 0.37332 0.0
H4793 H 0.12552 0.67212 0.34599 0.0
H4794 H 0.08536 0.63318 0.32435 0.0
H4795 H 0.10065 0.65772 0.32707 0.0
H4796 H 0.08148 0.62175 0.43326 0.0
H4797 H 0.10042 0.64359 0.4351 0.0
H4798 H 0.06627 0.59933 0.41259 0.0
H4799 H 0.05888 0.59349 0.3853 0.0
loop_
_geom_bond_atom_site_label_1
_geom_bond_atom_site_label_2
_geom_bond_distance
_geom_bond_site_symmetry_2
_ccdc_geom_bond_type
C0 O1 1.306 . S
C0 O3 1.160 . S
O1 C0 1.306 . S
O1 Cd2 2.228 . S
Cd2 O1 2.228 . S
Cd2 O6 2.273 . S
Cd2 O10 2.277 . S
O3 C0 1.160 . S
O3 Cd4 2.203 . S
Cd4 O3 2.203 . S
Cd4 O6 2.411 . S
Cd4 O7 2.333 . S
Cd4 O8 2.352 . S
Cd4 O12 2.277 . S
Cd4 O13 2.356 . S
C5 O10 1.209 . S
C5 O12 1.226 . S
O6 Cd2 2.273 . S
O6 Cd4 2.411 . S
O6 C9 1.320 . S
O7 Cd4 2.333 . S
O7 C9 1.214 . S
O8 Cd4 2.352 . S
O8 C11 1.258 . S
C9 O6 1.320 . S
C9 O7 1.214 . S
O10 Cd2 2.277 . S
O10 C5 1.209 . S
C11 O8 1.258 . S
C11 O13 1.282 . S
O12 Cd4 2.277 . S
O12 C5 1.226 . S
O13 Cd4 2.356 . S
O13 C11 1.282 . S
C14 O15 1.306 . S
C14 O17 1.160 . S
O15 C14 1.306 . S
O15 Cd16 2.228 . S
Cd16 O15 2.228 . S
Cd16 O20 2.273 . S
Cd16 O24 2.277 . S
O17 C14 1.160 . S
O17 Cd18 2.203 . S
Cd18 O17 2.203 . S
Cd18 O20 2.411 . S
Cd18 O21 2.333 . S
Cd18 O22 2.352 . S
Cd18 O26 2.277 . S
Cd18 O27 2.356 . S
C19 O24 1.209 . S
C19 O26 1.226 . S
O20 Cd16 2.273 . S
O20 Cd18 2.411 . S
O20 C23 1.320 . S
O21 Cd18 2.333 . S
O21 C23 1.214 . S
O22 Cd18 2.352 . S
O22 C25 1.258 . S
C23 O20 1.320 . S
C23 O21 1.214 . S
O24 Cd16 2.277 . S
O24 C19 1.209 . S
C25 O22 1.258 . S
C25 O27 1.282 . S
O26 Cd18 2.277 . S
O26 C19 1.226 . S
O27 Cd18 2.356 . S
O27 C25 1.282 . S
C28 O29 1.306 . S
C28 O31 1.160 . S
O29 C28 1.306 . S
O29 Cd30 2.228 . S
Cd30 O29 2.228 . S
Cd30 O34 2.273 . S
Cd30 O38 2.277 . S
O31 C28 1.160 . S
O31 Cd32 2.203 . S
Cd32 O31 2.203 . S
Cd32 O34 2.411 . S
Cd32 O35 2.333 . S
Cd32 O36 2.352 . S
Cd32 O40 2.277 . S
Cd32 O41 2.356 . S
C33 O38 1.209 . S
C33 O40 1.226 . S
O34 Cd30 2.273 . S
O34 Cd32 2.411 . S
O34 C37 1.320 . S
O35 Cd32 2.333 . S
O35 C37 1.214 . S
O36 Cd32 2.352 . S
O36 C39 1.258 . S
C37 O34 1.320 . S
C37 O35 1.214 . S
O38 Cd30 2.277 . S
O38 C33 1.209 . S
C39 O36 1.258 . S
C39 O41 1.282 . S
O40 Cd32 2.277 . S
O40 C33 1.226 . S
O41 Cd32 2.356 . S
O41 C39 1.282 . S
C42 O43 1.306 . S
C42 O45 1.160 . S
O43 C42 1.306 . S
O43 Cd44 2.228 . S
Cd44 O43 2.228 . S
Cd44 O48 2.273 . S
Cd44 O52 2.277 . S
O45 C42 1.160 . S
O45 Cd46 2.203 . S
Cd46 O45 2.203 . S
Cd46 O48 2.411 . S
Cd46 O49 2.333 . S
Cd46 O50 2.352 . S
Cd46 O54 2.277 . S
Cd46 O55 2.356 . S
C47 O52 1.209 . S
C47 O54 1.226 . S
O48 Cd44 2.273 . S
O48 Cd46 2.411 . S
O48 C51 1.320 . S
O49 Cd46 2.333 . S
O49 C51 1.214 . S
O50 Cd46 2.352 . S
O50 C53 1.258 . S
C51 O48 1.320 . S
C51 O49 1.214 . S
O52 Cd44 2.277 . S
O52 C47 1.209 . S
C53 O50 1.258 . S
C53 O55 1.282 . S
O54 Cd46 2.277 . S
O54 C47 1.226 . S
O55 Cd46 2.356 . S
O55 C53 1.282 . S
C56 O57 1.306 . S
C56 O59 1.160 . S
O57 C56 1.306 . S
O57 Cd58 2.228 . S
Cd58 O57 2.228 . S
Cd58 O62 2.273 . S
Cd58 O66 2.277 . S
O59 C56 1.160 . S
O59 Cd60 2.203 . S
Cd60 O59 2.203 . S
Cd60 O62 2.411 . S
Cd60 O63 2.333 . S
Cd60 O64 2.352 . S
Cd60 O68 2.277 . S
Cd60 O69 2.356 . S
C61 O66 1.209 . S
C61 O68 1.226 . S
O62 Cd58 2.273 . S
O62 Cd60 2.411 . S
O62 C65 1.320 . S
O63 Cd60 2.333 . S
O63 C65 1.214 . S
O64 Cd60 2.352 . S
O64 C67 1.258 . S
C65 O62 1.320 . S
C65 O63 1.214 . S
O66 Cd58 2.277 . S
O66 C61 1.209 . S
C67 O64 1.258 . S
C67 O69 1.282 . S
O68 Cd60 2.277 . S
O68 C61 1.226 . S
O69 Cd60 2.356 . S
O69 C67 1.282 . S
C70 O71 1.306 . S
C70 O73 1.160 . S
O71 C70 1.306 . S
O71 Cd72 2.228 . S
Cd72 O71 2.228 . S
Cd72 O76 2.273 . S
Cd72 O80 2.277 . S
O73 C70 1.160 . S
O73 Cd74 2.203 . S
Cd74 O73 2.203 . S
Cd74 O76 2.411 . S
Cd74 O77 2.333 . S
Cd74 O78 2.352 . S
Cd74 O82 2.277 . S
Cd74 O83 2.356 . S
C75 O80 1.209 . S
C75 O82 1.226 . S
O76 Cd72 2.273 . S
O76 Cd74 2.411 . S
O76 C79 1.320 . S
O77 Cd74 2.333 . S
O77 C79 1.214 . S
O78 Cd74 2.352 . S
O78 C81 1.258 . S
C79 O76 1.320 . S
C79 O77 1.214 . S
O80 Cd72 2.277 . S
O80 C75 1.209 . S
C81 O78 1.258 . S
C81 O83 1.282 . S
O82 Cd74 2.277 . S
O82 C75 1.226 . S
O83 Cd74 2.356 . S
O83 C81 1.282 . S
C84 O85 1.306 . S
C84 O87 1.160 . S
O85 C84 1.306 . S
O85 Cd86 2.228 . S
Cd86 O85 2.228 . S
Cd86 O90 2.273 . S
Cd86 O94 2.277 . S
O87 C84 1.160 . S
O87 Cd88 2.203 . S
Cd88 O87 2.203 . S
Cd88 O90 2.411 . S
Cd88 O91 2.333 . S
Cd88 O92 2.352 . S
Cd88 O96 2.277 . S
Cd88 O97 2.356 . S
C89 O94 1.209 . S
C89 O96 1.226 . S
O90 Cd86 2.273 . S
O90 Cd88 2.411 . S
O90 C93 1.320 . S
O91 Cd88 2.333 . S
O91 C93 1.214 . S
O92 Cd88 2.352 . S
O92 C95 1.258 . S
C93 O90 1.320 . S
C93 O91 1.214 . S
O94 Cd86 2.277 . S
O94 C89 1.209 . S
C95 O92 1.258 . S
C95 O97 1.282 . S
O96 Cd88 2.277 . S
O96 C89 1.226 . S
O97 Cd88 2.356 . S
O97 C95 1.282 . S
C98 O99 1.306 . S
C98 O101 1.160 . S
O99 C98 1.306 . S
O99 Cd100 2.228 . S
Cd100 O99 2.228 . S
Cd100 O104 2.273 . S
Cd100 O108 2.277 . S
O101 C98 1.160 . S
O101 Cd102 2.203 . S
Cd102 O101 2.203 . S
Cd102 O104 2.411 . S
Cd102 O105 2.333 . S
Cd102 O106 2.352 . S
Cd102 O110 2.277 . S
Cd102 O111 2.356 . S
C103 O108 1.209 . S
C103 O110 1.226 . S
O104 Cd100 2.273 . S
O104 Cd102 2.411 . S
O104 C107 1.320 . S
O105 Cd102 2.333 . S
O105 C107 1.214 . S
O106 Cd102 2.352 . S
O106 C109 1.258 . S
C107 O104 1.320 . S
C107 O105 1.214 . S
O108 Cd100 2.277 . S
O108 C103 1.209 . S
C109 O106 1.258 . S
C109 O111 1.282 . S
O110 Cd102 2.277 . S
O110 C103 1.226 . S
O111 Cd102 2.356 . S
O111 C109 1.282 . S
C112 O113 1.306 . S
C112 O115 1.160 . S
O113 C112 1.306 . S
O113 Cd114 2.228 . S
Cd114 O113 2.228 . S
Cd114 O118 2.273 . S
Cd114 O122 2.277 . S
O115 C112 1.160 . S
O115 Cd116 2.203 . S
Cd116 O115 2.203 . S
Cd116 O118 2.411 . S
Cd116 O119 2.333 . S
Cd116 O120 2.352 . S
Cd116 O124 2.277 . S
Cd116 O125 2.356 . S
C117 O122 1.209 . S
C117 O124 1.226 . S
O118 Cd114 2.273 . S
O118 Cd116 2.411 . S
O118 C121 1.320 . S
O119 Cd116 2.333 . S
O119 C121 1.214 . S
O120 Cd116 2.352 . S
O120 C123 1.258 . S
C121 O118 1.320 . S
C121 O119 1.214 . S
O122 Cd114 2.277 . S
O122 C117 1.209 . S
C123 O120 1.258 . S
C123 O125 1.282 . S
O124 Cd116 2.277 . S
O124 C117 1.226 . S
O125 Cd116 2.356 . S
O125 C123 1.282 . S
C126 O127 1.306 . S
C126 O129 1.160 . S
O127 C126 1.306 . S
O127 Cd128 2.228 . S
Cd128 O127 2.228 . S
Cd128 O132 2.273 . S
Cd128 O136 2.277 . S
O129 C126 1.160 . S
O129 Cd130 2.203 . S
Cd130 O129 2.203 . S
Cd130 O132 2.411 . S
Cd130 O133 2.333 . S
Cd130 O134 2.352 . S
Cd130 O138 2.277 . S
Cd130 O139 2.356 . S
C131 O136 1.209 . S
C131 O138 1.226 . S
O132 Cd128 2.273 . S
O132 Cd130 2.411 . S
O132 C135 1.320 . S
O133 Cd130 2.333 . S
O133 C135 1.214 . S
O134 Cd130 2.352 . S
O134 C137 1.258 . S
C135 O132 1.320 . S
C135 O133 1.214 . S
O136 Cd128 2.277 . S
O136 C131 1.209 . S
C137 O134 1.258 . S
C137 O139 1.282 . S
O138 Cd130 2.277 . S
O138 C131 1.226 . S
O139 Cd130 2.356 . S
O139 C137 1.282 . S
C140 O141 1.306 . S
C140 O143 1.160 . S
O141 C140 1.306 . S
O141 Cd142 2.228 . S
Cd142 O141 2.228 . S
Cd142 O146 2.273 . S
Cd142 O150 2.277 . S
O143 C140 1.160 . S
O143 Cd144 2.203 . S
Cd144 O143 2.203 . S
Cd144 O146 2.411 . S
Cd144 O147 2.333 . S
Cd144 O148 2.352 . S
Cd144 O152 2.277 . S
Cd144 O153 2.356 . S
C145 O150 1.209 . S
C145 O152 1.226 . S
O146 Cd142 2.273 . S
O146 Cd144 2.411 . S
O146 C149 1.320 . S
O147 Cd144 2.333 . S
O147 C149 1.214 . S
O148 Cd144 2.352 . S
O148 C151 1.258 . S
C149 O146 1.320 . S
C149 O147 1.214 . S
O150 Cd142 2.277 . S
O150 C145 1.209 . S
C151 O148 1.258 . S
C151 O153 1.282 . S
O152 Cd144 2.277 . S
O152 C145 1.226 . S
O153 Cd144 2.356 . S
O153 C151 1.282 . S
C154 O155 1.306 . S
C154 O157 1.160 . S
O155 C154 1.306 . S
O155 Cd156 2.228 . S
Cd156 O155 2.228 . S
Cd156 O160 2.273 . S
Cd156 O164 2.277 . S
O157 C154 1.160 . S
O157 Cd158 2.203 . S
Cd158 O157 2.203 . S
Cd158 O160 2.411 . S
Cd158 O161 2.333 . S
Cd158 O162 2.352 . S
Cd158 O166 2.277 . S
Cd158 O167 2.356 . S
C159 O164 1.209 . S
C159 O166 1.226 . S
O160 Cd156 2.273 . S
O160 Cd158 2.411 . S
O160 C163 1.320 . S
O161 Cd158 2.333 . S
O161 C163 1.214 . S
O162 Cd158 2.352 . S
O162 C165 1.258 . S
C163 O160 1.320 . S
C163 O161 1.214 . S
O164 Cd156 2.277 . S
O164 C159 1.209 . S
C165 O162 1.258 . S
C165 O167 1.282 . S
O166 Cd158 2.277 . S
O166 C159 1.226 . S
O167 Cd158 2.356 . S
O167 C165 1.282 . S
C168 O169 1.306 . S
C168 O171 1.160 . S
O169 C168 1.306 . S
O169 Cd170 2.228 . S
Cd170 O169 2.228 . S
Cd170 O174 2.273 . S
Cd170 O178 2.277 . S
O171 C168 1.160 . S
O171 Cd172 2.203 . S
Cd172 O171 2.203 . S
Cd172 O174 2.411 . S
Cd172 O175 2.333 . S
Cd172 O176 2.352 . S
Cd172 O180 2.277 . S
Cd172 O181 2.356 . S
C173 O178 1.209 . S
C173 O180 1.226 . S
O174 Cd170 2.273 . S
O174 Cd172 2.411 . S
O174 C177 1.320 . S
O175 Cd172 2.333 . S
O175 C177 1.214 . S
O176 Cd172 2.352 . S
O176 C179 1.258 . S
C177 O174 1.320 . S
C177 O175 1.214 . S
O178 Cd170 2.277 . S
O178 C173 1.209 . S
C179 O176 1.258 . S
C179 O181 1.282 . S
O180 Cd172 2.277 . S
O180 C173 1.226 . S
O181 Cd172 2.356 . S
O181 C179 1.282 . S
C182 O183 1.306 . S
C182 O185 1.160 . S
O183 C182 1.306 . S
O183 Cd184 2.228 . S
Cd184 O183 2.228 . S
Cd184 O188 2.273 . S
Cd184 O192 2.277 . S
O185 C182 1.160 . S
O185 Cd186 2.203 . S
Cd186 O185 2.203 . S
Cd186 O188 2.411 . S
Cd186 O189 2.333 . S
Cd186 O190 2.352 . S
Cd186 O194 2.277 . S
Cd186 O195 2.356 . S
C187 O192 1.209 . S
C187 O194 1.226 . S
O188 Cd184 2.273 . S
O188 Cd186 2.411 . S
O188 C191 1.320 . S
O189 Cd186 2.333 . S
O189 C191 1.214 . S
O190 Cd186 2.352 . S
O190 C193 1.258 . S
C191 O188 1.320 . S
C191 O189 1.214 . S
O192 Cd184 2.277 . S
O192 C187 1.209 . S
C193 O190 1.258 . S
C193 O195 1.282 . S
O194 Cd186 2.277 . S
O194 C187 1.226 . S
O195 Cd186 2.356 . S
O195 C193 1.282 . S
C196 O197 1.306 . S
C196 O199 1.160 . S
O197 C196 1.306 . S
O197 Cd198 2.228 . S
Cd198 O197 2.228 . S
Cd198 O202 2.273 . S
Cd198 O206 2.277 . S
O199 C196 1.160 . S
O199 Cd200 2.203 . S
Cd200 O199 2.203 . S
Cd200 O202 2.411 . S
Cd200 O203 2.333 . S
Cd200 O204 2.352 . S
Cd200 O208 2.277 . S
Cd200 O209 2.356 . S
C201 O206 1.209 . S
C201 O208 1.226 . S
O202 Cd198 2.273 . S
O202 Cd200 2.411 . S
O202 C205 1.320 . S
O203 Cd200 2.333 . S
O203 C205 1.214 . S
O204 Cd200 2.352 . S
O204 C207 1.258 . S
C205 O202 1.320 . S
C205 O203 1.214 . S
O206 Cd198 2.277 . S
O206 C201 1.209 . S
C207 O204 1.258 . S
C207 O209 1.282 . S
O208 Cd200 2.277 . S
O208 C201 1.226 . S
O209 Cd200 2.356 . S
O209 C207 1.282 . S
C210 O211 1.306 . S
C210 O213 1.160 . S
O211 C210 1.306 . S
O211 Cd212 2.228 . S
Cd212 O211 2.228 . S
Cd212 O216 2.273 . S
Cd212 O220 2.277 . S
O213 C210 1.160 . S
O213 Cd214 2.203 . S
Cd214 O213 2.203 . S
Cd214 O216 2.411 . S
Cd214 O217 2.333 . S
Cd214 O218 2.352 . S
Cd214 O222 2.277 . S
Cd214 O223 2.356 . S
C215 O220 1.209 . S
C215 O222 1.226 . S
O216 Cd212 2.273 . S
O216 Cd214 2.411 . S
O216 C219 1.320 . S
O217 Cd214 2.333 . S
O217 C219 1.214 . S
O218 Cd214 2.352 . S
O218 C221 1.258 . S
C219 O216 1.320 . S
C219 O217 1.214 . S
O220 Cd212 2.277 . S
O220 C215 1.209 . S
C221 O218 1.258 . S
C221 O223 1.282 . S
O222 Cd214 2.277 . S
O222 C215 1.226 . S
O223 Cd214 2.356 . S
O223 C221 1.282 . S
C224 O225 1.306 . S
C224 O227 1.160 . S
O225 C224 1.306 . S
O225 Cd226 2.228 . S
Cd226 O225 2.228 . S
Cd226 O230 2.273 . S
Cd226 O234 2.277 . S
O227 C224 1.160 . S
O227 Cd228 2.203 . S
Cd228 O227 2.203 . S
Cd228 O230 2.411 . S
Cd228 O231 2.333 . S
Cd228 O232 2.352 . S
Cd228 O236 2.277 . S
Cd228 O237 2.356 . S
C229 O234 1.209 . S
C229 O236 1.226 . S
O230 Cd226 2.273 . S
O230 Cd228 2.411 . S
O230 C233 1.320 . S
O231 Cd228 2.333 . S
O231 C233 1.214 . S
O232 Cd228 2.352 . S
O232 C235 1.258 . S
C233 O230 1.320 . S
C233 O231 1.214 . S
O234 Cd226 2.277 . S
O234 C229 1.209 . S
C235 O232 1.258 . S
C235 O237 1.282 . S
O236 Cd228 2.277 . S
O236 C229 1.226 . S
O237 Cd228 2.356 . S
O237 C235 1.282 . S
C238 O239 1.306 . S
C238 O241 1.160 . S
O239 C238 1.306 . S
O239 Cd240 2.228 . S
Cd240 O239 2.228 . S
Cd240 O244 2.273 . S
Cd240 O248 2.277 . S
O241 C238 1.160 . S
O241 Cd242 2.203 . S
Cd242 O241 2.203 . S
Cd242 O244 2.411 . S
Cd242 O245 2.333 . S
Cd242 O246 2.352 . S
Cd242 O250 2.277 . S
Cd242 O251 2.356 . S
C243 O248 1.209 . S
C243 O250 1.226 . S
O244 Cd240 2.273 . S
O244 Cd242 2.411 . S
O244 C247 1.320 . S
O245 Cd242 2.333 . S
O245 C247 1.214 . S
O246 Cd242 2.352 . S
O246 C249 1.258 . S
C247 O244 1.320 . S
C247 O245 1.214 . S
O248 Cd240 2.277 . S
O248 C243 1.209 . S
C249 O246 1.258 . S
C249 O251 1.282 . S
O250 Cd242 2.277 . S
O250 C243 1.226 . S
O251 Cd242 2.356 . S
O251 C249 1.282 . S
C252 O253 1.306 . S
C252 O255 1.160 . S
O253 C252 1.306 . S
O253 Cd254 2.228 . S
Cd254 O253 2.228 . S
Cd254 O258 2.273 . S
Cd254 O262 2.277 . S
O255 C252 1.160 . S
O255 Cd256 2.203 . S
Cd256 O255 2.203 . S
Cd256 O258 2.411 . S
Cd256 O259 2.333 . S
Cd256 O260 2.352 . S
Cd256 O264 2.277 . S
Cd256 O265 2.356 . S
C257 O262 1.209 . S
C257 O264 1.226 . S
O258 Cd254 2.273 . S
O258 Cd256 2.411 . S
O258 C261 1.320 . S
O259 Cd256 2.333 . S
O259 C261 1.214 . S
O260 Cd256 2.352 . S
O260 C263 1.258 . S
C261 O258 1.320 . S
C261 O259 1.214 . S
O262 Cd254 2.277 . S
O262 C257 1.209 . S
C263 O260 1.258 . S
C263 O265 1.282 . S
O264 Cd256 2.277 . S
O264 C257 1.226 . S
O265 Cd256 2.356 . S
O265 C263 1.282 . S
C266 O267 1.306 . S
C266 O269 1.160 . S
O267 C266 1.306 . S
O267 Cd268 2.228 . S
Cd268 O267 2.228 . S
Cd268 O272 2.273 . S
Cd268 O276 2.277 . S
O269 C266 1.160 . S
O269 Cd270 2.203 . S
Cd270 O269 2.203 . S
Cd270 O272 2.411 . S
Cd270 O273 2.333 . S
Cd270 O274 2.352 . S
Cd270 O278 2.277 . S
Cd270 O279 2.356 . S
C271 O276 1.209 . S
C271 O278 1.226 . S
O272 Cd268 2.273 . S
O272 Cd270 2.411 . S
O272 C275 1.320 . S
O273 Cd270 2.333 . S
O273 C275 1.214 . S
O274 Cd270 2.352 . S
O274 C277 1.258 . S
C275 O272 1.320 . S
C275 O273 1.214 . S
O276 Cd268 2.277 . S
O276 C271 1.209 . S
C277 O274 1.258 . S
C277 O279 1.282 . S
O278 Cd270 2.277 . S
O278 C271 1.226 . S
O279 Cd270 2.356 . S
O279 C277 1.282 . S
C280 O281 1.306 . S
C280 O283 1.160 . S
O281 C280 1.306 . S
O281 Cd282 2.228 . S
Cd282 O281 2.228 . S
Cd282 O286 2.273 . S
Cd282 O290 2.277 . S
O283 C280 1.160 . S
O283 Cd284 2.203 . S
Cd284 O283 2.203 . S
Cd284 O286 2.411 . S
Cd284 O287 2.333 . S
Cd284 O288 2.352 . S
Cd284 O292 2.277 . S
Cd284 O293 2.356 . S
C285 O290 1.209 . S
C285 O292 1.226 . S
O286 Cd282 2.273 . S
O286 Cd284 2.411 . S
O286 C289 1.320 . S
O287 Cd284 2.333 . S
O287 C289 1.214 . S
O288 Cd284 2.352 . S
O288 C291 1.258 . S
C289 O286 1.320 . S
C289 O287 1.214 . S
O290 Cd282 2.277 . S
O290 C285 1.209 . S
C291 O288 1.258 . S
C291 O293 1.282 . S
O292 Cd284 2.277 . S
O292 C285 1.226 . S
O293 Cd284 2.356 . S
O293 C291 1.282 . S
C294 O295 1.306 . S
C294 O297 1.160 . S
O295 C294 1.306 . S
O295 Cd296 2.228 . S
Cd296 O295 2.228 . S
Cd296 O300 2.273 . S
Cd296 O304 2.277 . S
O297 C294 1.160 . S
O297 Cd298 2.203 . S
Cd298 O297 2.203 . S
Cd298 O300 2.411 . S
Cd298 O301 2.333 . S
Cd298 O302 2.352 . S
Cd298 O306 2.277 . S
Cd298 O307 2.356 . S
C299 O304 1.209 . S
C299 O306 1.226 . S
O300 Cd296 2.273 . S
O300 Cd298 2.411 . S
O300 C303 1.320 . S
O301 Cd298 2.333 . S
O301 C303 1.214 . S
O302 Cd298 2.352 . S
O302 C305 1.258 . S
C303 O300 1.320 . S
C303 O301 1.214 . S
O304 Cd296 2.277 . S
O304 C299 1.209 . S
C305 O302 1.258 . S
C305 O307 1.282 . S
O306 Cd298 2.277 . S
O306 C299 1.226 . S
O307 Cd298 2.356 . S
O307 C305 1.282 . S
C308 O309 1.306 . S
C308 O311 1.160 . S
O309 C308 1.306 . S
O309 Cd310 2.228 . S
Cd310 O309 2.228 . S
Cd310 O314 2.273 . S
Cd310 O318 2.277 . S
O311 C308 1.160 . S
O311 Cd312 2.203 . S
Cd312 O311 2.203 . S
Cd312 O314 2.411 . S
Cd312 O315 2.333 . S
Cd312 O316 2.352 . S
Cd312 O320 2.277 . S
Cd312 O321 2.356 . S
C313 O318 1.209 . S
C313 O320 1.226 . S
O314 Cd310 2.273 . S
O314 Cd312 2.411 . S
O314 C317 1.320 . S
O315 Cd312 2.333 . S
O315 C317 1.214 . S
O316 Cd312 2.352 . S
O316 C319 1.258 . S
C317 O314 1.320 . S
C317 O315 1.214 . S
O318 Cd310 2.277 . S
O318 C313 1.209 . S
C319 O316 1.258 . S
C319 O321 1.282 . S
O320 Cd312 2.277 . S
O320 C313 1.226 . S
O321 Cd312 2.356 . S
O321 C319 1.282 . S
C322 O323 1.306 . S
C322 O325 1.160 . S
O323 C322 1.306 . S
O323 Cd324 2.228 . S
Cd324 O323 2.228 . S
Cd324 O328 2.273 . S
Cd324 O332 2.277 . S
O325 C322 1.160 . S
O325 Cd326 2.203 . S
Cd326 O325 2.203 . S
Cd326 O328 2.411 . S
Cd326 O329 2.333 . S
Cd326 O330 2.352 . S
Cd326 O334 2.277 . S
Cd326 O335 2.356 . S
C327 O332 1.209 . S
C327 O334 1.226 . S
O328 Cd324 2.273 . S
O328 Cd326 2.411 . S
O328 C331 1.320 . S
O329 Cd326 2.333 . S
O329 C331 1.214 . S
O330 Cd326 2.352 . S
O330 C333 1.258 . S
C331 O328 1.320 . S
C331 O329 1.214 . S
O332 Cd324 2.277 . S
O332 C327 1.209 . S
C333 O330 1.258 . S
C333 O335 1.282 . S
O334 Cd326 2.277 . S
O334 C327 1.226 . S
O335 Cd326 2.356 . S
O335 C333 1.282 . S
C336 O337 1.306 . S
C336 O339 1.160 . S
O337 C336 1.306 . S
O337 Cd338 2.228 . S
Cd338 O337 2.228 . S
Cd338 O342 2.273 . S
Cd338 O346 2.277 . S
O339 C336 1.160 . S
O339 Cd340 2.203 . S
Cd340 O339 2.203 . S
Cd340 O342 2.411 . S
Cd340 O343 2.333 . S
Cd340 O344 2.352 . S
Cd340 O348 2.277 . S
Cd340 O349 2.356 . S
C341 O346 1.209 . S
C341 O348 1.226 . S
O342 Cd338 2.273 . S
O342 Cd340 2.411 . S
O342 C345 1.320 . S
O343 Cd340 2.333 . S
O343 C345 1.214 . S
O344 Cd340 2.352 . S
O344 C347 1.258 . S
C345 O342 1.320 . S
C345 O343 1.214 . S
O346 Cd338 2.277 . S
O346 C341 1.209 . S
C347 O344 1.258 . S
C347 O349 1.282 . S
O348 Cd340 2.277 . S
O348 C341 1.226 . S
O349 Cd340 2.356 . S
O349 C347 1.282 . S
C350 O351 1.306 . S
C350 O353 1.160 . S
O351 C350 1.306 . S
O351 Cd352 2.228 . S
Cd352 O351 2.228 . S
Cd352 O356 2.273 . S
Cd352 O360 2.277 . S
O353 C350 1.160 . S
O353 Cd354 2.203 . S
Cd354 O353 2.203 . S
Cd354 O356 2.411 . S
Cd354 O357 2.333 . S
Cd354 O358 2.352 . S
Cd354 O362 2.277 . S
Cd354 O363 2.356 . S
C355 O360 1.209 . S
C355 O362 1.226 . S
O356 Cd352 2.273 . S
O356 Cd354 2.411 . S
O356 C359 1.320 . S
O357 Cd354 2.333 . S
O357 C359 1.214 . S
O358 Cd354 2.352 . S
O358 C361 1.258 . S
C359 O356 1.320 . S
C359 O357 1.214 . S
O360 Cd352 2.277 . S
O360 C355 1.209 . S
C361 O358 1.258 . S
C361 O363 1.282 . S
O362 Cd354 2.277 . S
O362 C355 1.226 . S
O363 Cd354 2.356 . S
O363 C361 1.282 . S
C364 O365 1.306 . S
C364 O367 1.160 . S
O365 C364 1.306 . S
O365 Cd366 2.228 . S
Cd366 O365 2.228 . S
Cd366 O370 2.273 . S
Cd366 O374 2.277 . S
O367 C364 1.160 . S
O367 Cd368 2.203 . S
Cd368 O367 2.203 . S
Cd368 O370 2.411 . S
Cd368 O371 2.333 . S
Cd368 O372 2.352 . S
Cd368 O376 2.277 . S
Cd368 O377 2.356 . S
C369 O374 1.209 . S
C369 O376 1.226 . S
O370 Cd366 2.273 . S
O370 Cd368 2.411 . S
O370 C373 1.320 . S
O371 Cd368 2.333 . S
O371 C373 1.214 . S
O372 Cd368 2.352 . S
O372 C375 1.258 . S
C373 O370 1.320 . S
C373 O371 1.214 . S
O374 Cd366 2.277 . S
O374 C369 1.209 . S
C375 O372 1.258 . S
C375 O377 1.282 . S
O376 Cd368 2.277 . S
O376 C369 1.226 . S
O377 Cd368 2.356 . S
O377 C375 1.282 . S
C378 O379 1.306 . S
C378 O381 1.160 . S
O379 C378 1.306 . S
O379 Cd380 2.228 . S
Cd380 O379 2.228 . S
Cd380 O384 2.273 . S
Cd380 O388 2.277 . S
O381 C378 1.160 . S
O381 Cd382 2.203 . S
Cd382 O381 2.203 . S
Cd382 O384 2.411 . S
Cd382 O385 2.333 . S
Cd382 O386 2.352 . S
Cd382 O390 2.277 . S
Cd382 O391 2.356 . S
C383 O388 1.209 . S
C383 O390 1.226 . S
O384 Cd380 2.273 . S
O384 Cd382 2.411 . S
O384 C387 1.320 . S
O385 Cd382 2.333 . S
O385 C387 1.214 . S
O386 Cd382 2.352 . S
O386 C389 1.258 . S
C387 O384 1.320 . S
C387 O385 1.214 . S
O388 Cd380 2.277 . S
O388 C383 1.209 . S
C389 O386 1.258 . S
C389 O391 1.282 . S
O390 Cd382 2.277 . S
O390 C383 1.226 . S
O391 Cd382 2.356 . S
O391 C389 1.282 . S
C392 O393 1.306 . S
C392 O395 1.160 . S
O393 C392 1.306 . S
O393 Cd394 2.228 . S
Cd394 O393 2.228 . S
Cd394 O398 2.273 . S
Cd394 O402 2.277 . S
O395 C392 1.160 . S
O395 Cd396 2.203 . S
Cd396 O395 2.203 . S
Cd396 O398 2.411 . S
Cd396 O399 2.333 . S
Cd396 O400 2.352 . S
Cd396 O404 2.277 . S
Cd396 O405 2.356 . S
C397 O402 1.209 . S
C397 O404 1.226 . S
O398 Cd394 2.273 . S
O398 Cd396 2.411 . S
O398 C401 1.320 . S
O399 Cd396 2.333 . S
O399 C401 1.214 . S
O400 Cd396 2.352 . S
O400 C403 1.258 . S
C401 O398 1.320 . S
C401 O399 1.214 . S
O402 Cd394 2.277 . S
O402 C397 1.209 . S
C403 O400 1.258 . S
C403 O405 1.282 . S
O404 Cd396 2.277 . S
O404 C397 1.226 . S
O405 Cd396 2.356 . S
O405 C403 1.282 . S
C406 O407 1.306 . S
C406 O409 1.160 . S
O407 C406 1.306 . S
O407 Cd408 2.228 . S
Cd408 O407 2.228 . S
Cd408 O412 2.273 . S
Cd408 O416 2.277 . S
O409 C406 1.160 . S
O409 Cd410 2.203 . S
Cd410 O409 2.203 . S
Cd410 O412 2.411 . S
Cd410 O413 2.333 . S
Cd410 O414 2.352 . S
Cd410 O418 2.277 . S
Cd410 O419 2.356 . S
C411 O416 1.209 . S
C411 O418 1.226 . S
O412 Cd408 2.273 . S
O412 Cd410 2.411 . S
O412 C415 1.320 . S
O413 Cd410 2.333 . S
O413 C415 1.214 . S
O414 Cd410 2.352 . S
O414 C417 1.258 . S
C415 O412 1.320 . S
C415 O413 1.214 . S
O416 Cd408 2.277 . S
O416 C411 1.209 . S
C417 O414 1.258 . S
C417 O419 1.282 . S
O418 Cd410 2.277 . S
O418 C411 1.226 . S
O419 Cd410 2.356 . S
O419 C417 1.282 . S
C420 O421 1.306 . S
C420 O423 1.160 . S
O421 C420 1.306 . S
O421 Cd422 2.228 . S
Cd422 O421 2.228 . S
Cd422 O426 2.273 . S
Cd422 O430 2.277 . S
O423 C420 1.160 . S
O423 Cd424 2.203 . S
Cd424 O423 2.203 . S
Cd424 O426 2.411 . S
Cd424 O427 2.333 . S
Cd424 O428 2.352 . S
Cd424 O432 2.277 . S
Cd424 O433 2.356 . S
C425 O430 1.209 . S
C425 O432 1.226 . S
O426 Cd422 2.273 . S
O426 Cd424 2.411 . S
O426 C429 1.320 . S
O427 Cd424 2.333 . S
O427 C429 1.214 . S
O428 Cd424 2.352 . S
O428 C431 1.258 . S
C429 O426 1.320 . S
C429 O427 1.214 . S
O430 Cd422 2.277 . S
O430 C425 1.209 . S
C431 O428 1.258 . S
C431 O433 1.282 . S
O432 Cd424 2.277 . S
O432 C425 1.226 . S
O433 Cd424 2.356 . S
O433 C431 1.282 . S
C434 O435 1.306 . S
C434 O437 1.160 . S
O435 C434 1.306 . S
O435 Cd436 2.228 . S
Cd436 O435 2.228 . S
Cd436 O440 2.273 . S
Cd436 O444 2.277 . S
O437 C434 1.160 . S
O437 Cd438 2.203 . S
Cd438 O437 2.203 . S
Cd438 O440 2.411 . S
Cd438 O441 2.333 . S
Cd438 O442 2.352 . S
Cd438 O446 2.277 . S
Cd438 O447 2.356 . S
C439 O444 1.209 . S
C439 O446 1.226 . S
O440 Cd436 2.273 . S
O440 Cd438 2.411 . S
O440 C443 1.320 . S
O441 Cd438 2.333 . S
O441 C443 1.214 . S
O442 Cd438 2.352 . S
O442 C445 1.258 . S
C443 O440 1.320 . S
C443 O441 1.214 . S
O444 Cd436 2.277 . S
O444 C439 1.209 . S
C445 O442 1.258 . S
C445 O447 1.282 . S
O446 Cd438 2.277 . S
O446 C439 1.226 . S
O447 Cd438 2.356 . S
O447 C445 1.282 . S
C448 O449 1.306 . S
C448 O451 1.160 . S
O449 C448 1.306 . S
O449 Cd450 2.228 . S
Cd450 O449 2.228 . S
Cd450 O454 2.273 . S
Cd450 O458 2.277 . S
O451 C448 1.160 . S
O451 Cd452 2.203 . S
Cd452 O451 2.203 . S
Cd452 O454 2.411 . S
Cd452 O455 2.333 . S
Cd452 O456 2.352 . S
Cd452 O460 2.277 . S
Cd452 O461 2.356 . S
C453 O458 1.209 . S
C453 O460 1.226 . S
O454 Cd450 2.273 . S
O454 Cd452 2.411 . S
O454 C457 1.320 . S
O455 Cd452 2.333 . S
O455 C457 1.214 . S
O456 Cd452 2.352 . S
O456 C459 1.258 . S
C457 O454 1.320 . S
C457 O455 1.214 . S
O458 Cd450 2.277 . S
O458 C453 1.209 . S
C459 O456 1.258 . S
C459 O461 1.282 . S
O460 Cd452 2.277 . S
O460 C453 1.226 . S
O461 Cd452 2.356 . S
O461 C459 1.282 . S
C462 O463 1.306 . S
C462 O465 1.160 . S
O463 C462 1.306 . S
O463 Cd464 2.228 . S
Cd464 O463 2.228 . S
Cd464 O468 2.273 . S
Cd464 O472 2.277 . S
O465 C462 1.160 . S
O465 Cd466 2.203 . S
Cd466 O465 2.203 . S
Cd466 O468 2.411 . S
Cd466 O469 2.333 . S
Cd466 O470 2.352 . S
Cd466 O474 2.277 . S
Cd466 O475 2.356 . S
C467 O472 1.209 . S
C467 O474 1.226 . S
O468 Cd464 2.273 . S
O468 Cd466 2.411 . S
O468 C471 1.320 . S
O469 Cd466 2.333 . S
O469 C471 1.214 . S
O470 Cd466 2.352 . S
O470 C473 1.258 . S
C471 O468 1.320 . S
C471 O469 1.214 . S
O472 Cd464 2.277 . S
O472 C467 1.209 . S
C473 O470 1.258 . S
C473 O475 1.282 . S
O474 Cd466 2.277 . S
O474 C467 1.226 . S
O475 Cd466 2.356 . S
O475 C473 1.282 . S
C476 O477 1.306 . S
C476 O479 1.160 . S
O477 C476 1.306 . S
O477 Cd478 2.228 . S
Cd478 O477 2.228 . S
Cd478 O482 2.273 . S
Cd478 O486 2.277 . S
O479 C476 1.160 . S
O479 Cd480 2.203 . S
Cd480 O479 2.203 . S
Cd480 O482 2.411 . S
Cd480 O483 2.333 . S
Cd480 O484 2.352 . S
Cd480 O488 2.277 . S
Cd480 O489 2.356 . S
C481 O486 1.209 . S
C481 O488 1.226 . S
O482 Cd478 2.273 . S
O482 Cd480 2.411 . S
O482 C485 1.320 . S
O483 Cd480 2.333 . S
O483 C485 1.214 . S
O484 Cd480 2.352 . S
O484 C487 1.258 . S
C485 O482 1.320 . S
C485 O483 1.214 . S
O486 Cd478 2.277 . S
O486 C481 1.209 . S
C487 O484 1.258 . S
C487 O489 1.282 . S
O488 Cd480 2.277 . S
O488 C481 1.226 . S
O489 Cd480 2.356 . S
O489 C487 1.282 . S
C490 O491 1.306 . S
C490 O493 1.160 . S
O491 C490 1.306 . S
O491 Cd492 2.228 . S
Cd492 O491 2.228 . S
Cd492 O496 2.273 . S
Cd492 O500 2.277 . S
O493 C490 1.160 . S
O493 Cd494 2.203 . S
Cd494 O493 2.203 . S
Cd494 O496 2.411 . S
Cd494 O497 2.333 . S
Cd494 O498 2.352 . S
Cd494 O502 2.277 . S
Cd494 O503 2.356 . S
C495 O500 1.209 . S
C495 O502 1.226 . S
O496 Cd492 2.273 . S
O496 Cd494 2.411 . S
O496 C499 1.320 . S
O497 Cd494 2.333 . S
O497 C499 1.214 . S
O498 Cd494 2.352 . S
O498 C501 1.258 . S
C499 O496 1.320 . S
C499 O497 1.214 . S
O500 Cd492 2.277 . S
O500 C495 1.209 . S
C501 O498 1.258 . S
C501 O503 1.282 . S
O502 Cd494 2.277 . S
O502 C495 1.226 . S
O503 Cd494 2.356 . S
O503 C501 1.282 . S
C504 O505 1.306 . S
C504 O507 1.160 . S
O505 C504 1.306 . S
O505 Cd506 2.228 . S
Cd506 O505 2.228 . S
Cd506 O510 2.273 . S
Cd506 O514 2.277 . S
O507 C504 1.160 . S
O507 Cd508 2.203 . S
Cd508 O507 2.203 . S
Cd508 O510 2.411 . S
Cd508 O511 2.333 . S
Cd508 O512 2.352 . S
Cd508 O516 2.277 . S
Cd508 O517 2.356 . S
C509 O514 1.209 . S
C509 O516 1.226 . S
O510 Cd506 2.273 . S
O510 Cd508 2.411 . S
O510 C513 1.320 . S
O511 Cd508 2.333 . S
O511 C513 1.214 . S
O512 Cd508 2.352 . S
O512 C515 1.258 . S
C513 O510 1.320 . S
C513 O511 1.214 . S
O514 Cd506 2.277 . S
O514 C509 1.209 . S
C515 O512 1.258 . S
C515 O517 1.282 . S
O516 Cd508 2.277 . S
O516 C509 1.226 . S
O517 Cd508 2.356 . S
O517 C515 1.282 . S
C518 O519 1.306 . S
C518 O521 1.160 . S
O519 C518 1.306 . S
O519 Cd520 2.228 . S
Cd520 O519 2.228 . S
Cd520 O524 2.273 . S
Cd520 O528 2.277 . S
O521 C518 1.160 . S
O521 Cd522 2.203 . S
Cd522 O521 2.203 . S
Cd522 O524 2.411 . S
Cd522 O525 2.333 . S
Cd522 O526 2.352 . S
Cd522 O530 2.277 . S
Cd522 O531 2.356 . S
C523 O528 1.209 . S
C523 O530 1.226 . S
O524 Cd520 2.273 . S
O524 Cd522 2.411 . S
O524 C527 1.320 . S
O525 Cd522 2.333 . S
O525 C527 1.214 . S
O526 Cd522 2.352 . S
O526 C529 1.258 . S
C527 O524 1.320 . S
C527 O525 1.214 . S
O528 Cd520 2.277 . S
O528 C523 1.209 . S
C529 O526 1.258 . S
C529 O531 1.282 . S
O530 Cd522 2.277 . S
O530 C523 1.226 . S
O531 Cd522 2.356 . S
O531 C529 1.282 . S
C532 O533 1.306 . S
C532 O535 1.160 . S
O533 C532 1.306 . S
O533 Cd534 2.228 . S
Cd534 O533 2.228 . S
Cd534 O538 2.273 . S
Cd534 O542 2.277 . S
O535 C532 1.160 . S
O535 Cd536 2.203 . S
Cd536 O535 2.203 . S
Cd536 O538 2.411 . S
Cd536 O539 2.333 . S
Cd536 O540 2.352 . S
Cd536 O544 2.277 . S
Cd536 O545 2.356 . S
C537 O542 1.209 . S
C537 O544 1.226 . S
O538 Cd534 2.273 . S
O538 Cd536 2.411 . S
O538 C541 1.320 . S
O539 Cd536 2.333 . S
O539 C541 1.214 . S
O540 Cd536 2.352 . S
O540 C543 1.258 . S
C541 O538 1.320 . S
C541 O539 1.214 . S
O542 Cd534 2.277 . S
O542 C537 1.209 . S
C543 O540 1.258 . S
C543 O545 1.282 . S
O544 Cd536 2.277 . S
O544 C537 1.226 . S
O545 Cd536 2.356 . S
O545 C543 1.282 . S
C546 O547 1.306 . S
C546 O549 1.160 . S
O547 C546 1.306 . S
O547 Cd548 2.228 . S
Cd548 O547 2.228 . S
Cd548 O552 2.273 . S
Cd548 O556 2.277 . S
O549 C546 1.160 . S
O549 Cd550 2.203 . S
Cd550 O549 2.203 . S
Cd550 O552 2.411 . S
Cd550 O553 2.333 . S
Cd550 O554 2.352 . S
Cd550 O558 2.277 . S
Cd550 O559 2.356 . S
C551 O556 1.209 . S
C551 O558 1.226 . S
O552 Cd548 2.273 . S
O552 Cd550 2.411 . S
O552 C555 1.320 . S
O553 Cd550 2.333 . S
O553 C555 1.214 . S
O554 Cd550 2.352 . S
O554 C557 1.258 . S
C555 O552 1.320 . S
C555 O553 1.214 . S
O556 Cd548 2.277 . S
O556 C551 1.209 . S
C557 O554 1.258 . S
C557 O559 1.282 . S
O558 Cd550 2.277 . S
O558 C551 1.226 . S
O559 Cd550 2.356 . S
O559 C557 1.282 . S
C560 O561 1.306 . S
C560 O563 1.160 . S
O561 C560 1.306 . S
O561 Cd562 2.228 . S
Cd562 O561 2.228 . S
Cd562 O566 2.273 . S
Cd562 O570 2.277 . S
O563 C560 1.160 . S
O563 Cd564 2.203 . S
Cd564 O563 2.203 . S
Cd564 O566 2.411 . S
Cd564 O567 2.333 . S
Cd564 O568 2.352 . S
Cd564 O572 2.277 . S
Cd564 O573 2.356 . S
C565 O570 1.209 . S
C565 O572 1.226 . S
O566 Cd562 2.273 . S
O566 Cd564 2.411 . S
O566 C569 1.320 . S
O567 Cd564 2.333 . S
O567 C569 1.214 . S
O568 Cd564 2.352 . S
O568 C571 1.258 . S
C569 O566 1.320 . S
C569 O567 1.214 . S
O570 Cd562 2.277 . S
O570 C565 1.209 . S
C571 O568 1.258 . S
C571 O573 1.282 . S
O572 Cd564 2.277 . S
O572 C565 1.226 . S
O573 Cd564 2.356 . S
O573 C571 1.282 . S
C574 O575 1.306 . S
C574 O577 1.160 . S
O575 C574 1.306 . S
O575 Cd576 2.228 . S
Cd576 O575 2.228 . S
Cd576 O580 2.273 . S
Cd576 O584 2.277 . S
O577 C574 1.160 . S
O577 Cd578 2.203 . S
Cd578 O577 2.203 . S
Cd578 O580 2.411 . S
Cd578 O581 2.333 . S
Cd578 O582 2.352 . S
Cd578 O586 2.277 . S
Cd578 O587 2.356 . S
C579 O584 1.209 . S
C579 O586 1.226 . S
O580 Cd576 2.273 . S
O580 Cd578 2.411 . S
O580 C583 1.320 . S
O581 Cd578 2.333 . S
O581 C583 1.214 . S
O582 Cd578 2.352 . S
O582 C585 1.258 . S
C583 O580 1.320 . S
C583 O581 1.214 . S
O584 Cd576 2.277 . S
O584 C579 1.209 . S
C585 O582 1.258 . S
C585 O587 1.282 . S
O586 Cd578 2.277 . S
O586 C579 1.226 . S
O587 Cd578 2.356 . S
O587 C585 1.282 . S
C588 O589 1.306 . S
C588 O591 1.160 . S
O589 C588 1.306 . S
O589 Cd590 2.228 . S
Cd590 O589 2.228 . S
Cd590 O594 2.273 . S
Cd590 O598 2.277 . S
O591 C588 1.160 . S
O591 Cd592 2.203 . S
Cd592 O591 2.203 . S
Cd592 O594 2.411 . S
Cd592 O595 2.333 . S
Cd592 O596 2.352 . S
Cd592 O600 2.277 . S
Cd592 O601 2.356 . S
C593 O598 1.209 . S
C593 O600 1.226 . S
O594 Cd590 2.273 . S
O594 Cd592 2.411 . S
O594 C597 1.320 . S
O595 Cd592 2.333 . S
O595 C597 1.214 . S
O596 Cd592 2.352 . S
O596 C599 1.258 . S
C597 O594 1.320 . S
C597 O595 1.214 . S
O598 Cd590 2.277 . S
O598 C593 1.209 . S
C599 O596 1.258 . S
C599 O601 1.282 . S
O600 Cd592 2.277 . S
O600 C593 1.226 . S
O601 Cd592 2.356 . S
O601 C599 1.282 . S
C602 O603 1.306 . S
C602 O605 1.160 . S
O603 C602 1.306 . S
O603 Cd604 2.228 . S
Cd604 O603 2.228 . S
Cd604 O608 2.273 . S
Cd604 O612 2.277 . S
O605 C602 1.160 . S
O605 Cd606 2.203 . S
Cd606 O605 2.203 . S
Cd606 O608 2.411 . S
Cd606 O609 2.333 . S
Cd606 O610 2.352 . S
Cd606 O614 2.277 . S
Cd606 O615 2.356 . S
C607 O612 1.209 . S
C607 O614 1.226 . S
O608 Cd604 2.273 . S
O608 Cd606 2.411 . S
O608 C611 1.320 . S
O609 Cd606 2.333 . S
O609 C611 1.214 . S
O610 Cd606 2.352 . S
O610 C613 1.258 . S
C611 O608 1.320 . S
C611 O609 1.214 . S
O612 Cd604 2.277 . S
O612 C607 1.209 . S
C613 O610 1.258 . S
C613 O615 1.282 . S
O614 Cd606 2.277 . S
O614 C607 1.226 . S
O615 Cd606 2.356 . S
O615 C613 1.282 . S
C616 O617 1.306 . S
C616 O619 1.160 . S
O617 C616 1.306 . S
O617 Cd618 2.228 . S
Cd618 O617 2.228 . S
Cd618 O622 2.273 . S
Cd618 O626 2.277 . S
O619 C616 1.160 . S
O619 Cd620 2.203 . S
Cd620 O619 2.203 . S
Cd620 O622 2.411 . S
Cd620 O623 2.333 . S
Cd620 O624 2.352 . S
Cd620 O628 2.277 . S
Cd620 O629 2.356 . S
C621 O626 1.209 . S
C621 O628 1.226 . S
O622 Cd618 2.273 . S
O622 Cd620 2.411 . S
O622 C625 1.320 . S
O623 Cd620 2.333 . S
O623 C625 1.214 . S
O624 Cd620 2.352 . S
O624 C627 1.258 . S
C625 O622 1.320 . S
C625 O623 1.214 . S
O626 Cd618 2.277 . S
O626 C621 1.209 . S
C627 O624 1.258 . S
C627 O629 1.282 . S
O628 Cd620 2.277 . S
O628 C621 1.226 . S
O629 Cd620 2.356 . S
O629 C627 1.282 . S
C630 O631 1.306 . S
C630 O633 1.160 . S
O631 C630 1.306 . S
O631 Cd632 2.228 . S
Cd632 O631 2.228 . S
Cd632 O636 2.273 . S
Cd632 O640 2.277 . S
O633 C630 1.160 . S
O633 Cd634 2.203 . S
Cd634 O633 2.203 . S
Cd634 O636 2.411 . S
Cd634 O637 2.333 . S
Cd634 O638 2.352 . S
Cd634 O642 2.277 . S
Cd634 O643 2.356 . S
C635 O640 1.209 . S
C635 O642 1.226 . S
O636 Cd632 2.273 . S
O636 Cd634 2.411 . S
O636 C639 1.320 . S
O637 Cd634 2.333 . S
O637 C639 1.214 . S
O638 Cd634 2.352 . S
O638 C641 1.258 . S
C639 O636 1.320 . S
C639 O637 1.214 . S
O640 Cd632 2.277 . S
O640 C635 1.209 . S
C641 O638 1.258 . S
C641 O643 1.282 . S
O642 Cd634 2.277 . S
O642 C635 1.226 . S
O643 Cd634 2.356 . S
O643 C641 1.282 . S
C644 O645 1.306 . S
C644 O647 1.160 . S
O645 C644 1.306 . S
O645 Cd646 2.228 . S
Cd646 O645 2.228 . S
Cd646 O650 2.273 . S
Cd646 O654 2.277 . S
O647 C644 1.160 . S
O647 Cd648 2.203 . S
Cd648 O647 2.203 . S
Cd648 O650 2.411 . S
Cd648 O651 2.333 . S
Cd648 O652 2.352 . S
Cd648 O656 2.277 . S
Cd648 O657 2.356 . S
C649 O654 1.209 . S
C649 O656 1.226 . S
O650 Cd646 2.273 . S
O650 Cd648 2.411 . S
O650 C653 1.320 . S
O651 Cd648 2.333 . S
O651 C653 1.214 . S
O652 Cd648 2.352 . S
O652 C655 1.258 . S
C653 O650 1.320 . S
C653 O651 1.214 . S
O654 Cd646 2.277 . S
O654 C649 1.209 . S
C655 O652 1.258 . S
C655 O657 1.282 . S
O656 Cd648 2.277 . S
O656 C649 1.226 . S
O657 Cd648 2.356 . S
O657 C655 1.282 . S
C658 O659 1.306 . S
C658 O661 1.160 . S
O659 C658 1.306 . S
O659 Cd660 2.228 . S
Cd660 O659 2.228 . S
Cd660 O664 2.273 . S
Cd660 O668 2.277 . S
O661 C658 1.160 . S
O661 Cd662 2.203 . S
Cd662 O661 2.203 . S
Cd662 O664 2.411 . S
Cd662 O665 2.333 . S
Cd662 O666 2.352 . S
Cd662 O670 2.277 . S
Cd662 O671 2.356 . S
C663 O668 1.209 . S
C663 O670 1.226 . S
O664 Cd660 2.273 . S
O664 Cd662 2.411 . S
O664 C667 1.320 . S
O665 Cd662 2.333 . S
O665 C667 1.214 . S
O666 Cd662 2.352 . S
O666 C669 1.258 . S
C667 O664 1.320 . S
C667 O665 1.214 . S
O668 Cd660 2.277 . S
O668 C663 1.209 . S
C669 O666 1.258 . S
C669 O671 1.282 . S
O670 Cd662 2.277 . S
O670 C663 1.226 . S
O671 Cd662 2.356 . S
O671 C669 1.282 . S
C672 O673 1.306 . S
C672 O675 1.160 . S
O673 C672 1.306 . S
O673 Cd674 2.228 . S
Cd674 O673 2.228 . S
Cd674 O678 2.273 . S
Cd674 O682 2.277 . S
O675 C672 1.160 . S
O675 Cd676 2.203 . S
Cd676 O675 2.203 . S
Cd676 O678 2.411 . S
Cd676 O679 2.333 . S
Cd676 O680 2.352 . S
Cd676 O684 2.277 . S
Cd676 O685 2.356 . S
C677 O682 1.209 . S
C677 O684 1.226 . S
O678 Cd674 2.273 . S
O678 Cd676 2.411 . S
O678 C681 1.320 . S
O679 Cd676 2.333 . S
O679 C681 1.214 . S
O680 Cd676 2.352 . S
O680 C683 1.258 . S
C681 O678 1.320 . S
C681 O679 1.214 . S
O682 Cd674 2.277 . S
O682 C677 1.209 . S
C683 O680 1.258 . S
C683 O685 1.282 . S
O684 Cd676 2.277 . S
O684 C677 1.226 . S
O685 Cd676 2.356 . S
O685 C683 1.282 . S
C686 O687 1.306 . S
C686 O689 1.160 . S
O687 C686 1.306 . S
O687 Cd688 2.228 . S
Cd688 O687 2.228 . S
Cd688 O692 2.273 . S
Cd688 O696 2.277 . S
O689 C686 1.160 . S
O689 Cd690 2.203 . S
Cd690 O689 2.203 . S
Cd690 O692 2.411 . S
Cd690 O693 2.333 . S
Cd690 O694 2.352 . S
Cd690 O698 2.277 . S
Cd690 O699 2.356 . S
C691 O696 1.209 . S
C691 O698 1.226 . S
O692 Cd688 2.273 . S
O692 Cd690 2.411 . S
O692 C695 1.320 . S
O693 Cd690 2.333 . S
O693 C695 1.214 . S
O694 Cd690 2.352 . S
O694 C697 1.258 . S
C695 O692 1.320 . S
C695 O693 1.214 . S
O696 Cd688 2.277 . S
O696 C691 1.209 . S
C697 O694 1.258 . S
C697 O699 1.282 . S
O698 Cd690 2.277 . S
O698 C691 1.226 . S
O699 Cd690 2.356 . S
O699 C697 1.282 . S
C700 O701 1.306 . S
C700 O703 1.160 . S
O701 C700 1.306 . S
O701 Cd702 2.228 . S
Cd702 O701 2.228 . S
Cd702 O706 2.273 . S
Cd702 O710 2.277 . S
O703 C700 1.160 . S
O703 Cd704 2.203 . S
Cd704 O703 2.203 . S
Cd704 O706 2.411 . S
Cd704 O707 2.333 . S
Cd704 O708 2.352 . S
Cd704 O712 2.277 . S
Cd704 O713 2.356 . S
C705 O710 1.209 . S
C705 O712 1.226 . S
O706 Cd702 2.273 . S
O706 Cd704 2.411 . S
O706 C709 1.320 . S
O707 Cd704 2.333 . S
O707 C709 1.214 . S
O708 Cd704 2.352 . S
O708 C711 1.258 . S
C709 O706 1.320 . S
C709 O707 1.214 . S
O710 Cd702 2.277 . S
O710 C705 1.209 . S
C711 O708 1.258 . S
C711 O713 1.282 . S
O712 Cd704 2.277 . S
O712 C705 1.226 . S
O713 Cd704 2.356 . S
O713 C711 1.282 . S
C714 O715 1.306 . S
C714 O717 1.160 . S
O715 C714 1.306 . S
O715 Cd716 2.228 . S
Cd716 O715 2.228 . S
Cd716 O720 2.273 . S
Cd716 O724 2.277 . S
O717 C714 1.160 . S
O717 Cd718 2.203 . S
Cd718 O717 2.203 . S
Cd718 O720 2.411 . S
Cd718 O721 2.333 . S
Cd718 O722 2.352 . S
Cd718 O726 2.277 . S
Cd718 O727 2.356 . S
C719 O724 1.209 . S
C719 O726 1.226 . S
O720 Cd716 2.273 . S
O720 Cd718 2.411 . S
O720 C723 1.320 . S
O721 Cd718 2.333 . S
O721 C723 1.214 . S
O722 Cd718 2.352 . S
O722 C725 1.258 . S
C723 O720 1.320 . S
C723 O721 1.214 . S
O724 Cd716 2.277 . S
O724 C719 1.209 . S
C725 O722 1.258 . S
C725 O727 1.282 . S
O726 Cd718 2.277 . S
O726 C719 1.226 . S
O727 Cd718 2.356 . S
O727 C725 1.282 . S
C728 O729 1.306 . S
C728 O731 1.160 . S
O729 C728 1.306 . S
O729 Cd730 2.228 . S
Cd730 O729 2.228 . S
Cd730 O734 2.273 . S
Cd730 O738 2.277 . S
O731 C728 1.160 . S
O731 Cd732 2.203 . S
Cd732 O731 2.203 . S
Cd732 O734 2.411 . S
Cd732 O735 2.333 . S
Cd732 O736 2.352 . S
Cd732 O740 2.277 . S
Cd732 O741 2.356 . S
C733 O738 1.209 . S
C733 O740 1.226 . S
O734 Cd730 2.273 . S
O734 Cd732 2.411 . S
O734 C737 1.320 . S
O735 Cd732 2.333 . S
O735 C737 1.214 . S
O736 Cd732 2.352 . S
O736 C739 1.258 . S
C737 O734 1.320 . S
C737 O735 1.214 . S
O738 Cd730 2.277 . S
O738 C733 1.209 . S
C739 O736 1.258 . S
C739 O741 1.282 . S
O740 Cd732 2.277 . S
O740 C733 1.226 . S
O741 Cd732 2.356 . S
O741 C739 1.282 . S
C742 O743 1.306 . S
C742 O745 1.160 . S
O743 C742 1.306 . S
O743 Cd744 2.228 . S
Cd744 O743 2.228 . S
Cd744 O748 2.273 . S
Cd744 O752 2.277 . S
O745 C742 1.160 . S
O745 Cd746 2.203 . S
Cd746 O745 2.203 . S
Cd746 O748 2.411 . S
Cd746 O749 2.333 . S
Cd746 O750 2.352 . S
Cd746 O754 2.277 . S
Cd746 O755 2.356 . S
C747 O752 1.209 . S
C747 O754 1.226 . S
O748 Cd744 2.273 . S
O748 Cd746 2.411 . S
O748 C751 1.320 . S
O749 Cd746 2.333 . S
O749 C751 1.214 . S
O750 Cd746 2.352 . S
O750 C753 1.258 . S
C751 O748 1.320 . S
C751 O749 1.214 . S
O752 Cd744 2.277 . S
O752 C747 1.209 . S
C753 O750 1.258 . S
C753 O755 1.282 . S
O754 Cd746 2.277 . S
O754 C747 1.226 . S
O755 Cd746 2.356 . S
O755 C753 1.282 . S
C756 O757 1.306 . S
C756 O759 1.160 . S
O757 C756 1.306 . S
O757 Cd758 2.228 . S
Cd758 O757 2.228 . S
Cd758 O762 2.273 . S
Cd758 O766 2.277 . S
O759 C756 1.160 . S
O759 Cd760 2.203 . S
Cd760 O759 2.203 . S
Cd760 O762 2.411 . S
Cd760 O763 2.333 . S
Cd760 O764 2.352 . S
Cd760 O768 2.277 . S
Cd760 O769 2.356 . S
C761 O766 1.209 . S
C761 O768 1.226 . S
O762 Cd758 2.273 . S
O762 Cd760 2.411 . S
O762 C765 1.320 . S
O763 Cd760 2.333 . S
O763 C765 1.214 . S
O764 Cd760 2.352 . S
O764 C767 1.258 . S
C765 O762 1.320 . S
C765 O763 1.214 . S
O766 Cd758 2.277 . S
O766 C761 1.209 . S
C767 O764 1.258 . S
C767 O769 1.282 . S
O768 Cd760 2.277 . S
O768 C761 1.226 . S
O769 Cd760 2.356 . S
O769 C767 1.282 . S
C770 O771 1.306 . S
C770 O773 1.160 . S
O771 C770 1.306 . S
O771 Cd772 2.228 . S
Cd772 O771 2.228 . S
Cd772 O776 2.273 . S
Cd772 O780 2.277 . S
O773 C770 1.160 . S
O773 Cd774 2.203 . S
Cd774 O773 2.203 . S
Cd774 O776 2.411 . S
Cd774 O777 2.333 . S
Cd774 O778 2.352 . S
Cd774 O782 2.277 . S
Cd774 O783 2.356 . S
C775 O780 1.209 . S
C775 O782 1.226 . S
O776 Cd772 2.273 . S
O776 Cd774 2.411 . S
O776 C779 1.320 . S
O777 Cd774 2.333 . S
O777 C779 1.214 . S
O778 Cd774 2.352 . S
O778 C781 1.258 . S
C779 O776 1.320 . S
C779 O777 1.214 . S
O780 Cd772 2.277 . S
O780 C775 1.209 . S
C781 O778 1.258 . S
C781 O783 1.282 . S
O782 Cd774 2.277 . S
O782 C775 1.226 . S
O783 Cd774 2.356 . S
O783 C781 1.282 . S
C784 O785 1.306 . S
C784 O787 1.160 . S
O785 C784 1.306 . S
O785 Cd786 2.228 . S
Cd786 O785 2.228 . S
Cd786 O790 2.273 . S
Cd786 O794 2.277 . S
O787 C784 1.160 . S
O787 Cd788 2.203 . S
Cd788 O787 2.203 . S
Cd788 O790 2.411 . S
Cd788 O791 2.333 . S
Cd788 O792 2.352 . S
Cd788 O796 2.277 . S
Cd788 O797 2.356 . S
C789 O794 1.209 . S
C789 O796 1.226 . S
O790 Cd786 2.273 . S
O790 Cd788 2.411 . S
O790 C793 1.320 . S
O791 Cd788 2.333 . S
O791 C793 1.214 . S
O792 Cd788 2.352 . S
O792 C795 1.258 . S
C793 O790 1.320 . S
C793 O791 1.214 . S
O794 Cd786 2.277 . S
O794 C789 1.209 . S
C795 O792 1.258 . S
C795 O797 1.282 . S
O796 Cd788 2.277 . S
O796 C789 1.226 . S
O797 Cd788 2.356 . S
O797 C795 1.282 . S
C798 O799 1.306 . S
C798 O801 1.160 . S
O799 C798 1.306 . S
O799 Cd800 2.228 . S
Cd800 O799 2.228 . S
Cd800 O804 2.273 . S
Cd800 O808 2.277 . S
O801 C798 1.160 . S
O801 Cd802 2.203 . S
Cd802 O801 2.203 . S
Cd802 O804 2.411 . S
Cd802 O805 2.333 . S
Cd802 O806 2.352 . S
Cd802 O810 2.277 . S
Cd802 O811 2.356 . S
C803 O808 1.209 . S
C803 O810 1.226 . S
O804 Cd800 2.273 . S
O804 Cd802 2.411 . S
O804 C807 1.320 . S
O805 Cd802 2.333 . S
O805 C807 1.214 . S
O806 Cd802 2.352 . S
O806 C809 1.258 . S
C807 O804 1.320 . S
C807 O805 1.214 . S
O808 Cd800 2.277 . S
O808 C803 1.209 . S
C809 O806 1.258 . S
C809 O811 1.282 . S
O810 Cd802 2.277 . S
O810 C803 1.226 . S
O811 Cd802 2.356 . S
O811 C809 1.282 . S
C812 O813 1.306 . S
C812 O815 1.160 . S
O813 C812 1.306 . S
O813 Cd814 2.228 . S
Cd814 O813 2.228 . S
Cd814 O818 2.273 . S
Cd814 O822 2.277 . S
O815 C812 1.160 . S
O815 Cd816 2.203 . S
Cd816 O815 2.203 . S
Cd816 O818 2.411 . S
Cd816 O819 2.333 . S
Cd816 O820 2.352 . S
Cd816 O824 2.277 . S
Cd816 O825 2.356 . S
C817 O822 1.209 . S
C817 O824 1.226 . S
O818 Cd814 2.273 . S
O818 Cd816 2.411 . S
O818 C821 1.320 . S
O819 Cd816 2.333 . S
O819 C821 1.214 . S
O820 Cd816 2.352 . S
O820 C823 1.258 . S
C821 O818 1.320 . S
C821 O819 1.214 . S
O822 Cd814 2.277 . S
O822 C817 1.209 . S
C823 O820 1.258 . S
C823 O825 1.282 . S
O824 Cd816 2.277 . S
O824 C817 1.226 . S
O825 Cd816 2.356 . S
O825 C823 1.282 . S
C826 O827 1.306 . S
C826 O829 1.160 . S
O827 C826 1.306 . S
O827 Cd828 2.228 . S
Cd828 O827 2.228 . S
Cd828 O832 2.273 . S
Cd828 O836 2.277 . S
O829 C826 1.160 . S
O829 Cd830 2.203 . S
Cd830 O829 2.203 . S
Cd830 O832 2.411 . S
Cd830 O833 2.333 . S
Cd830 O834 2.352 . S
Cd830 O838 2.277 . S
Cd830 O839 2.356 . S
C831 O836 1.209 . S
C831 O838 1.226 . S
O832 Cd828 2.273 . S
O832 Cd830 2.411 . S
O832 C835 1.320 . S
O833 Cd830 2.333 . S
O833 C835 1.214 . S
O834 Cd830 2.352 . S
O834 C837 1.258 . S
C835 O832 1.320 . S
C835 O833 1.214 . S
O836 Cd828 2.277 . S
O836 C831 1.209 . S
C837 O834 1.258 . S
C837 O839 1.282 . S
O838 Cd830 2.277 . S
O838 C831 1.226 . S
O839 Cd830 2.356 . S
O839 C837 1.282 . S
C840 O841 1.306 . S
C840 O843 1.160 . S
O841 C840 1.306 . S
O841 Cd842 2.228 . S
Cd842 O841 2.228 . S
Cd842 O846 2.273 . S
Cd842 O850 2.277 . S
O843 C840 1.160 . S
O843 Cd844 2.203 . S
Cd844 O843 2.203 . S
Cd844 O846 2.411 . S
Cd844 O847 2.333 . S
Cd844 O848 2.352 . S
Cd844 O852 2.277 . S
Cd844 O853 2.356 . S
C845 O850 1.209 . S
C845 O852 1.226 . S
O846 Cd842 2.273 . S
O846 Cd844 2.411 . S
O846 C849 1.320 . S
O847 Cd844 2.333 . S
O847 C849 1.214 . S
O848 Cd844 2.352 . S
O848 C851 1.258 . S
C849 O846 1.320 . S
C849 O847 1.214 . S
O850 Cd842 2.277 . S
O850 C845 1.209 . S
C851 O848 1.258 . S
C851 O853 1.282 . S
O852 Cd844 2.277 . S
O852 C845 1.226 . S
O853 Cd844 2.356 . S
O853 C851 1.282 . S
C854 O855 1.306 . S
C854 O857 1.160 . S
O855 C854 1.306 . S
O855 Cd856 2.228 . S
Cd856 O855 2.228 . S
Cd856 O860 2.273 . S
Cd856 O864 2.277 . S
O857 C854 1.160 . S
O857 Cd858 2.203 . S
Cd858 O857 2.203 . S
Cd858 O860 2.411 . S
Cd858 O861 2.333 . S
Cd858 O862 2.352 . S
Cd858 O866 2.277 . S
Cd858 O867 2.356 . S
C859 O864 1.209 . S
C859 O866 1.226 . S
O860 Cd856 2.273 . S
O860 Cd858 2.411 . S
O860 C863 1.320 . S
O861 Cd858 2.333 . S
O861 C863 1.214 . S
O862 Cd858 2.352 . S
O862 C865 1.258 . S
C863 O860 1.320 . S
C863 O861 1.214 . S
O864 Cd856 2.277 . S
O864 C859 1.209 . S
C865 O862 1.258 . S
C865 O867 1.282 . S
O866 Cd858 2.277 . S
O866 C859 1.226 . S
O867 Cd858 2.356 . S
O867 C865 1.282 . S
C868 O869 1.306 . S
C868 O871 1.160 . S
O869 C868 1.306 . S
O869 Cd870 2.228 . S
Cd870 O869 2.228 . S
Cd870 O874 2.273 . S
Cd870 O878 2.277 . S
O871 C868 1.160 . S
O871 Cd872 2.203 . S
Cd872 O871 2.203 . S
Cd872 O874 2.411 . S
Cd872 O875 2.333 . S
Cd872 O876 2.352 . S
Cd872 O880 2.277 . S
Cd872 O881 2.356 . S
C873 O878 1.209 . S
C873 O880 1.226 . S
O874 Cd870 2.273 . S
O874 Cd872 2.411 . S
O874 C877 1.320 . S
O875 Cd872 2.333 . S
O875 C877 1.214 . S
O876 Cd872 2.352 . S
O876 C879 1.258 . S
C877 O874 1.320 . S
C877 O875 1.214 . S
O878 Cd870 2.277 . S
O878 C873 1.209 . S
C879 O876 1.258 . S
C879 O881 1.282 . S
O880 Cd872 2.277 . S
O880 C873 1.226 . S
O881 Cd872 2.356 . S
O881 C879 1.282 . S
C882 O883 1.306 . S
C882 O885 1.160 . S
O883 C882 1.306 . S
O883 Cd884 2.228 . S
Cd884 O883 2.228 . S
Cd884 O888 2.273 . S
Cd884 O892 2.277 . S
O885 C882 1.160 . S
O885 Cd886 2.203 . S
Cd886 O885 2.203 . S
Cd886 O888 2.411 . S
Cd886 O889 2.333 . S
Cd886 O890 2.352 . S
Cd886 O894 2.277 . S
Cd886 O895 2.356 . S
C887 O892 1.209 . S
C887 O894 1.226 . S
O888 Cd884 2.273 . S
O888 Cd886 2.411 . S
O888 C891 1.320 . S
O889 Cd886 2.333 . S
O889 C891 1.214 . S
O890 Cd886 2.352 . S
O890 C893 1.258 . S
C891 O888 1.320 . S
C891 O889 1.214 . S
O892 Cd884 2.277 . S
O892 C887 1.209 . S
C893 O890 1.258 . S
C893 O895 1.282 . S
O894 Cd886 2.277 . S
O894 C887 1.226 . S
O895 Cd886 2.356 . S
O895 C893 1.282 . S
C896 O897 1.306 . S
C896 O899 1.160 . S
O897 C896 1.306 . S
O897 Cd898 2.228 . S
Cd898 O897 2.228 . S
Cd898 O902 2.273 . S
Cd898 O906 2.277 . S
O899 C896 1.160 . S
O899 Cd900 2.203 . S
Cd900 O899 2.203 . S
Cd900 O902 2.411 . S
Cd900 O903 2.333 . S
Cd900 O904 2.352 . S
Cd900 O908 2.277 . S
Cd900 O909 2.356 . S
C901 O906 1.209 . S
C901 O908 1.226 . S
O902 Cd898 2.273 . S
O902 Cd900 2.411 . S
O902 C905 1.320 . S
O903 Cd900 2.333 . S
O903 C905 1.214 . S
O904 Cd900 2.352 . S
O904 C907 1.258 . S
C905 O902 1.320 . S
C905 O903 1.214 . S
O906 Cd898 2.277 . S
O906 C901 1.209 . S
C907 O904 1.258 . S
C907 O909 1.282 . S
O908 Cd900 2.277 . S
O908 C901 1.226 . S
O909 Cd900 2.356 . S
O909 C907 1.282 . S
C910 O911 1.306 . S
C910 O913 1.160 . S
O911 C910 1.306 . S
O911 Cd912 2.228 . S
Cd912 O911 2.228 . S
Cd912 O916 2.273 . S
Cd912 O920 2.277 . S
O913 C910 1.160 . S
O913 Cd914 2.203 . S
Cd914 O913 2.203 . S
Cd914 O916 2.411 . S
Cd914 O917 2.333 . S
Cd914 O918 2.352 . S
Cd914 O922 2.277 . S
Cd914 O923 2.356 . S
C915 O920 1.209 . S
C915 O922 1.226 . S
O916 Cd912 2.273 . S
O916 Cd914 2.411 . S
O916 C919 1.320 . S
O917 Cd914 2.333 . S
O917 C919 1.214 . S
O918 Cd914 2.352 . S
O918 C921 1.258 . S
C919 O916 1.320 . S
C919 O917 1.214 . S
O920 Cd912 2.277 . S
O920 C915 1.209 . S
C921 O918 1.258 . S
C921 O923 1.282 . S
O922 Cd914 2.277 . S
O922 C915 1.226 . S
O923 Cd914 2.356 . S
O923 C921 1.282 . S
C924 O925 1.306 . S
C924 O927 1.160 . S
O925 C924 1.306 . S
O925 Cd926 2.228 . S
Cd926 O925 2.228 . S
Cd926 O930 2.273 . S
Cd926 O934 2.277 . S
O927 C924 1.160 . S
O927 Cd928 2.203 . S
Cd928 O927 2.203 . S
Cd928 O930 2.411 . S
Cd928 O931 2.333 . S
Cd928 O932 2.352 . S
Cd928 O936 2.277 . S
Cd928 O937 2.356 . S
C929 O934 1.209 . S
C929 O936 1.226 . S
O930 Cd926 2.273 . S
O930 Cd928 2.411 . S
O930 C933 1.320 . S
O931 Cd928 2.333 . S
O931 C933 1.214 . S
O932 Cd928 2.352 . S
O932 C935 1.258 . S
C933 O930 1.320 . S
C933 O931 1.214 . S
O934 Cd926 2.277 . S
O934 C929 1.209 . S
C935 O932 1.258 . S
C935 O937 1.282 . S
O936 Cd928 2.277 . S
O936 C929 1.226 . S
O937 Cd928 2.356 . S
O937 C935 1.282 . S
C938 O939 1.306 . S
C938 O941 1.160 . S
O939 C938 1.306 . S
O939 Cd940 2.228 . S
Cd940 O939 2.228 . S
Cd940 O944 2.273 . S
Cd940 O948 2.277 . S
O941 C938 1.160 . S
O941 Cd942 2.203 . S
Cd942 O941 2.203 . S
Cd942 O944 2.411 . S
Cd942 O945 2.333 . S
Cd942 O946 2.352 . S
Cd942 O950 2.277 . S
Cd942 O951 2.356 . S
C943 O948 1.209 . S
C943 O950 1.226 . S
O944 Cd940 2.273 . S
O944 Cd942 2.411 . S
O944 C947 1.320 . S
O945 Cd942 2.333 . S
O945 C947 1.214 . S
O946 Cd942 2.352 . S
O946 C949 1.258 . S
C947 O944 1.320 . S
C947 O945 1.214 . S
O948 Cd940 2.277 . S
O948 C943 1.209 . S
C949 O946 1.258 . S
C949 O951 1.282 . S
O950 Cd942 2.277 . S
O950 C943 1.226 . S
O951 Cd942 2.356 . S
O951 C949 1.282 . S
C952 O953 1.306 . S
C952 O955 1.160 . S
O953 C952 1.306 . S
O953 Cd954 2.228 . S
Cd954 O953 2.228 . S
Cd954 O958 2.273 . S
Cd954 O962 2.277 . S
O955 C952 1.160 . S
O955 Cd956 2.203 . S
Cd956 O955 2.203 . S
Cd956 O958 2.411 . S
Cd956 O959 2.333 . S
Cd956 O960 2.352 . S
Cd956 O964 2.277 . S
Cd956 O965 2.356 . S
C957 O962 1.209 . S
C957 O964 1.226 . S
O958 Cd954 2.273 . S
O958 Cd956 2.411 . S
O958 C961 1.320 . S
O959 Cd956 2.333 . S
O959 C961 1.214 . S
O960 Cd956 2.352 . S
O960 C963 1.258 . S
C961 O958 1.320 . S
C961 O959 1.214 . S
O962 Cd954 2.277 . S
O962 C957 1.209 . S
C963 O960 1.258 . S
C963 O965 1.282 . S
O964 Cd956 2.277 . S
O964 C957 1.226 . S
O965 Cd956 2.356 . S
O965 C963 1.282 . S
C966 O967 1.306 . S
C966 O969 1.160 . S
O967 C966 1.306 . S
O967 Cd968 2.228 . S
Cd968 O967 2.228 . S
Cd968 O972 2.273 . S
Cd968 O976 2.277 . S
O969 C966 1.160 . S
O969 Cd970 2.203 . S
Cd970 O969 2.203 . S
Cd970 O972 2.411 . S
Cd970 O973 2.333 . S
Cd970 O974 2.352 . S
Cd970 O978 2.277 . S
Cd970 O979 2.356 . S
C971 O976 1.209 . S
C971 O978 1.226 . S
O972 Cd968 2.273 . S
O972 Cd970 2.411 . S
O972 C975 1.320 . S
O973 Cd970 2.333 . S
O973 C975 1.214 . S
O974 Cd970 2.352 . S
O974 C977 1.258 . S
C975 O972 1.320 . S
C975 O973 1.214 . S
O976 Cd968 2.277 . S
O976 C971 1.209 . S
C977 O974 1.258 . S
C977 O979 1.282 . S
O978 Cd970 2.277 . S
O978 C971 1.226 . S
O979 Cd970 2.356 . S
O979 C977 1.282 . S
C980 O981 1.306 . S
C980 O983 1.160 . S
O981 C980 1.306 . S
O981 Cd982 2.228 . S
Cd982 O981 2.228 . S
Cd982 O986 2.273 . S
Cd982 O990 2.277 . S
O983 C980 1.160 . S
O983 Cd984 2.203 . S
Cd984 O983 2.203 . S
Cd984 O986 2.411 . S
Cd984 O987 2.333 . S
Cd984 O988 2.352 . S
Cd984 O992 2.277 . S
Cd984 O993 2.356 . S
C985 O990 1.209 . S
C985 O992 1.226 . S
O986 Cd982 2.273 . S
O986 Cd984 2.411 . S
O986 C989 1.320 . S
O987 Cd984 2.333 . S
O987 C989 1.214 . S
O988 Cd984 2.352 . S
O988 C991 1.258 . S
C989 O986 1.320 . S
C989 O987 1.214 . S
O990 Cd982 2.277 . S
O990 C985 1.209 . S
C991 O988 1.258 . S
C991 O993 1.282 . S
O992 Cd984 2.277 . S
O992 C985 1.226 . S
O993 Cd984 2.356 . S
O993 C991 1.282 . S
C994 O995 1.306 . S
C994 O997 1.160 . S
O995 C994 1.306 . S
O995 Cd996 2.228 . S
Cd996 O995 2.228 . S
Cd996 O1000 2.273 . S
Cd996 O1004 2.277 . S
O997 C994 1.160 . S
O997 Cd998 2.203 . S
Cd998 O997 2.203 . S
Cd998 O1000 2.411 . S
Cd998 O1001 2.333 . S
Cd998 O1002 2.352 . S
Cd998 O1006 2.277 . S
Cd998 O1007 2.356 . S
C999 O1004 1.209 . S
C999 O1006 1.226 . S
O1000 Cd996 2.273 . S
O1000 Cd998 2.411 . S
O1000 C1003 1.320 . S
O1001 Cd998 2.333 . S
O1001 C1003 1.214 . S
O1002 Cd998 2.352 . S
O1002 C1005 1.258 . S
C1003 O1000 1.320 . S
C1003 O1001 1.214 . S
O1004 Cd996 2.277 . S
O1004 C999 1.209 . S
C1005 O1002 1.258 . S
C1005 O1007 1.282 . S
O1006 Cd998 2.277 . S
O1006 C999 1.226 . S
O1007 Cd998 2.356 . S
O1007 C1005 1.282 . S
C1008 O1009 1.306 . S
C1008 O1011 1.160 . S
O1009 C1008 1.306 . S
O1009 Cd1010 2.228 . S
Cd1010 O1009 2.228 . S
Cd1010 O1014 2.273 . S
Cd1010 O1018 2.277 . S
O1011 C1008 1.160 . S
O1011 Cd1012 2.203 . S
Cd1012 O1011 2.203 . S
Cd1012 O1014 2.411 . S
Cd1012 O1015 2.333 . S
Cd1012 O1016 2.352 . S
Cd1012 O1020 2.277 . S
Cd1012 O1021 2.356 . S
C1013 O1018 1.209 . S
C1013 O1020 1.226 . S
O1014 Cd1010 2.273 . S
O1014 Cd1012 2.411 . S
O1014 C1017 1.320 . S
O1015 Cd1012 2.333 . S
O1015 C1017 1.214 . S
O1016 Cd1012 2.352 . S
O1016 C1019 1.258 . S
C1017 O1014 1.320 . S
C1017 O1015 1.214 . S
O1018 Cd1010 2.277 . S
O1018 C1013 1.209 . S
C1019 O1016 1.258 . S
C1019 O1021 1.282 . S
O1020 Cd1012 2.277 . S
O1020 C1013 1.226 . S
O1021 Cd1012 2.356 . S
O1021 C1019 1.282 . S
C1022 O1023 1.306 . S
C1022 O1025 1.160 . S
O1023 C1022 1.306 . S
O1023 Cd1024 2.228 . S
Cd1024 O1023 2.228 . S
Cd1024 O1028 2.273 . S
Cd1024 O1032 2.277 . S
O1025 C1022 1.160 . S
O1025 Cd1026 2.203 . S
Cd1026 O1025 2.203 . S
Cd1026 O1028 2.411 . S
Cd1026 O1029 2.333 . S
Cd1026 O1030 2.352 . S
Cd1026 O1034 2.277 . S
Cd1026 O1035 2.356 . S
C1027 O1032 1.209 . S
C1027 O1034 1.226 . S
O1028 Cd1024 2.273 . S
O1028 Cd1026 2.411 . S
O1028 C1031 1.320 . S
O1029 Cd1026 2.333 . S
O1029 C1031 1.214 . S
O1030 Cd1026 2.352 . S
O1030 C1033 1.258 . S
C1031 O1028 1.320 . S
C1031 O1029 1.214 . S
O1032 Cd1024 2.277 . S
O1032 C1027 1.209 . S
C1033 O1030 1.258 . S
C1033 O1035 1.282 . S
O1034 Cd1026 2.277 . S
O1034 C1027 1.226 . S
O1035 Cd1026 2.356 . S
O1035 C1033 1.282 . S
C1036 O1037 1.306 . S
C1036 O1039 1.160 . S
O1037 C1036 1.306 . S
O1037 Cd1038 2.228 . S
Cd1038 O1037 2.228 . S
Cd1038 O1042 2.273 . S
Cd1038 O1046 2.277 . S
O1039 C1036 1.160 . S
O1039 Cd1040 2.203 . S
Cd1040 O1039 2.203 . S
Cd1040 O1042 2.411 . S
Cd1040 O1043 2.333 . S
Cd1040 O1044 2.352 . S
Cd1040 O1048 2.277 . S
Cd1040 O1049 2.356 . S
C1041 O1046 1.209 . S
C1041 O1048 1.226 . S
O1042 Cd1038 2.273 . S
O1042 Cd1040 2.411 . S
O1042 C1045 1.320 . S
O1043 Cd1040 2.333 . S
O1043 C1045 1.214 . S
O1044 Cd1040 2.352 . S
O1044 C1047 1.258 . S
C1045 O1042 1.320 . S
C1045 O1043 1.214 . S
O1046 Cd1038 2.277 . S
O1046 C1041 1.209 . S
C1047 O1044 1.258 . S
C1047 O1049 1.282 . S
O1048 Cd1040 2.277 . S
O1048 C1041 1.226 . S
O1049 Cd1040 2.356 . S
O1049 C1047 1.282 . S
C1050 O1051 1.306 . S
C1050 O1053 1.160 . S
O1051 C1050 1.306 . S
O1051 Cd1052 2.228 . S
Cd1052 O1051 2.228 . S
Cd1052 O1056 2.273 . S
Cd1052 O1060 2.277 . S
O1053 C1050 1.160 . S
O1053 Cd1054 2.203 . S
Cd1054 O1053 2.203 . S
Cd1054 O1056 2.411 . S
Cd1054 O1057 2.333 . S
Cd1054 O1058 2.352 . S
Cd1054 O1062 2.277 . S
Cd1054 O1063 2.356 . S
C1055 O1060 1.209 . S
C1055 O1062 1.226 . S
O1056 Cd1052 2.273 . S
O1056 Cd1054 2.411 . S
O1056 C1059 1.320 . S
O1057 Cd1054 2.333 . S
O1057 C1059 1.214 . S
O1058 Cd1054 2.352 . S
O1058 C1061 1.258 . S
C1059 O1056 1.320 . S
C1059 O1057 1.214 . S
O1060 Cd1052 2.277 . S
O1060 C1055 1.209 . S
C1061 O1058 1.258 . S
C1061 O1063 1.282 . S
O1062 Cd1054 2.277 . S
O1062 C1055 1.226 . S
O1063 Cd1054 2.356 . S
O1063 C1061 1.282 . S
C1064 O1065 1.306 . S
C1064 O1067 1.160 . S
O1065 C1064 1.306 . S
O1065 Cd1066 2.228 . S
Cd1066 O1065 2.228 . S
Cd1066 O1070 2.273 . S
Cd1066 O1074 2.277 . S
O1067 C1064 1.160 . S
O1067 Cd1068 2.203 . S
Cd1068 O1067 2.203 . S
Cd1068 O1070 2.411 . S
Cd1068 O1071 2.333 . S
Cd1068 O1072 2.352 . S
Cd1068 O1076 2.277 . S
Cd1068 O1077 2.356 . S
C1069 O1074 1.209 . S
C1069 O1076 1.226 . S
O1070 Cd1066 2.273 . S
O1070 Cd1068 2.411 . S
O1070 C1073 1.320 . S
O1071 Cd1068 2.333 . S
O1071 C1073 1.214 . S
O1072 Cd1068 2.352 . S
O1072 C1075 1.258 . S
C1073 O1070 1.320 . S
C1073 O1071 1.214 . S
O1074 Cd1066 2.277 . S
O1074 C1069 1.209 . S
C1075 O1072 1.258 . S
C1075 O1077 1.282 . S
O1076 Cd1068 2.277 . S
O1076 C1069 1.226 . S
O1077 Cd1068 2.356 . S
O1077 C1075 1.282 . S
C1078 O1079 1.306 . S
C1078 O1081 1.160 . S
O1079 C1078 1.306 . S
O1079 Cd1080 2.228 . S
Cd1080 O1079 2.228 . S
Cd1080 O1084 2.273 . S
Cd1080 O1088 2.277 . S
O1081 C1078 1.160 . S
O1081 Cd1082 2.203 . S
Cd1082 O1081 2.203 . S
Cd1082 O1084 2.411 . S
Cd1082 O1085 2.333 . S
Cd1082 O1086 2.352 . S
Cd1082 O1090 2.277 . S
Cd1082 O1091 2.356 . S
C1083 O1088 1.209 . S
C1083 O1090 1.226 . S
O1084 Cd1080 2.273 . S
O1084 Cd1082 2.411 . S
O1084 C1087 1.320 . S
O1085 Cd1082 2.333 . S
O1085 C1087 1.214 . S
O1086 Cd1082 2.352 . S
O1086 C1089 1.258 . S
C1087 O1084 1.320 . S
C1087 O1085 1.214 . S
O1088 Cd1080 2.277 . S
O1088 C1083 1.209 . S
C1089 O1086 1.258 . S
C1089 O1091 1.282 . S
O1090 Cd1082 2.277 . S
O1090 C1083 1.226 . S
O1091 Cd1082 2.356 . S
O1091 C1089 1.282 . S
C1092 O1093 1.306 . S
C1092 O1095 1.160 . S
O1093 C1092 1.306 . S
O1093 Cd1094 2.228 . S
Cd1094 O1093 2.228 . S
Cd1094 O1098 2.273 . S
Cd1094 O1102 2.277 . S
O1095 C1092 1.160 . S
O1095 Cd1096 2.203 . S
Cd1096 O1095 2.203 . S
Cd1096 O1098 2.411 . S
Cd1096 O1099 2.333 . S
Cd1096 O1100 2.352 . S
Cd1096 O1104 2.277 . S
Cd1096 O1105 2.356 . S
C1097 O1102 1.209 . S
C1097 O1104 1.226 . S
O1098 Cd1094 2.273 . S
O1098 Cd1096 2.411 . S
O1098 C1101 1.320 . S
O1099 Cd1096 2.333 . S
O1099 C1101 1.214 . S
O1100 Cd1096 2.352 . S
O1100 C1103 1.258 . S
C1101 O1098 1.320 . S
C1101 O1099 1.214 . S
O1102 Cd1094 2.277 . S
O1102 C1097 1.209 . S
C1103 O1100 1.258 . S
C1103 O1105 1.282 . S
O1104 Cd1096 2.277 . S
O1104 C1097 1.226 . S
O1105 Cd1096 2.356 . S
O1105 C1103 1.282 . S
C1106 O1107 1.306 . S
C1106 O1109 1.160 . S
O1107 C1106 1.306 . S
O1107 Cd1108 2.228 . S
Cd1108 O1107 2.228 . S
Cd1108 O1112 2.273 . S
Cd1108 O1116 2.277 . S
O1109 C1106 1.160 . S
O1109 Cd1110 2.203 . S
Cd1110 O1109 2.203 . S
Cd1110 O1112 2.411 . S
Cd1110 O1113 2.333 . S
Cd1110 O1114 2.352 . S
Cd1110 O1118 2.277 . S
Cd1110 O1119 2.356 . S
C1111 O1116 1.209 . S
C1111 O1118 1.226 . S
O1112 Cd1108 2.273 . S
O1112 Cd1110 2.411 . S
O1112 C1115 1.320 . S
O1113 Cd1110 2.333 . S
O1113 C1115 1.214 . S
O1114 Cd1110 2.352 . S
O1114 C1117 1.258 . S
C1115 O1112 1.320 . S
C1115 O1113 1.214 . S
O1116 Cd1108 2.277 . S
O1116 C1111 1.209 . S
C1117 O1114 1.258 . S
C1117 O1119 1.282 . S
O1118 Cd1110 2.277 . S
O1118 C1111 1.226 . S
O1119 Cd1110 2.356 . S
O1119 C1117 1.282 . S
C1120 O1121 1.306 . S
C1120 O1123 1.160 . S
O1121 C1120 1.306 . S
O1121 Cd1122 2.228 . S
Cd1122 O1121 2.228 . S
Cd1122 O1126 2.273 . S
Cd1122 O1130 2.277 . S
O1123 C1120 1.160 . S
O1123 Cd1124 2.203 . S
Cd1124 O1123 2.203 . S
Cd1124 O1126 2.411 . S
Cd1124 O1127 2.333 . S
Cd1124 O1128 2.352 . S
Cd1124 O1132 2.277 . S
Cd1124 O1133 2.356 . S
C1125 O1130 1.209 . S
C1125 O1132 1.226 . S
O1126 Cd1122 2.273 . S
O1126 Cd1124 2.411 . S
O1126 C1129 1.320 . S
O1127 Cd1124 2.333 . S
O1127 C1129 1.214 . S
O1128 Cd1124 2.352 . S
O1128 C1131 1.258 . S
C1129 O1126 1.320 . S
C1129 O1127 1.214 . S
O1130 Cd1122 2.277 . S
O1130 C1125 1.209 . S
C1131 O1128 1.258 . S
C1131 O1133 1.282 . S
O1132 Cd1124 2.277 . S
O1132 C1125 1.226 . S
O1133 Cd1124 2.356 . S
O1133 C1131 1.282 . S
C1134 O1135 1.306 . S
C1134 O1137 1.160 . S
O1135 C1134 1.306 . S
O1135 Cd1136 2.228 . S
Cd1136 O1135 2.228 . S
Cd1136 O1140 2.273 . S
Cd1136 O1144 2.277 . S
O1137 C1134 1.160 . S
O1137 Cd1138 2.203 . S
Cd1138 O1137 2.203 . S
Cd1138 O1140 2.411 . S
Cd1138 O1141 2.333 . S
Cd1138 O1142 2.352 . S
Cd1138 O1146 2.277 . S
Cd1138 O1147 2.356 . S
C1139 O1144 1.209 . S
C1139 O1146 1.226 . S
O1140 Cd1136 2.273 . S
O1140 Cd1138 2.411 . S
O1140 C1143 1.320 . S
O1141 Cd1138 2.333 . S
O1141 C1143 1.214 . S
O1142 Cd1138 2.352 . S
O1142 C1145 1.258 . S
C1143 O1140 1.320 . S
C1143 O1141 1.214 . S
O1144 Cd1136 2.277 . S
O1144 C1139 1.209 . S
C1145 O1142 1.258 . S
C1145 O1147 1.282 . S
O1146 Cd1138 2.277 . S
O1146 C1139 1.226 . S
O1147 Cd1138 2.356 . S
O1147 C1145 1.282 . S
C1148 O1149 1.306 . S
C1148 O1151 1.160 . S
O1149 C1148 1.306 . S
O1149 Cd1150 2.228 . S
Cd1150 O1149 2.228 . S
Cd1150 O1154 2.273 . S
Cd1150 O1158 2.277 . S
O1151 C1148 1.160 . S
O1151 Cd1152 2.203 . S
Cd1152 O1151 2.203 . S
Cd1152 O1154 2.411 . S
Cd1152 O1155 2.333 . S
Cd1152 O1156 2.352 . S
Cd1152 O1160 2.277 . S
Cd1152 O1161 2.356 . S
C1153 O1158 1.209 . S
C1153 O1160 1.226 . S
O1154 Cd1150 2.273 . S
O1154 Cd1152 2.411 . S
O1154 C1157 1.320 . S
O1155 Cd1152 2.333 . S
O1155 C1157 1.214 . S
O1156 Cd1152 2.352 . S
O1156 C1159 1.258 . S
C1157 O1154 1.320 . S
C1157 O1155 1.214 . S
O1158 Cd1150 2.277 . S
O1158 C1153 1.209 . S
C1159 O1156 1.258 . S
C1159 O1161 1.282 . S
O1160 Cd1152 2.277 . S
O1160 C1153 1.226 . S
O1161 Cd1152 2.356 . S
O1161 C1159 1.282 . S
C1162 O1163 1.306 . S
C1162 O1165 1.160 . S
O1163 C1162 1.306 . S
O1163 Cd1164 2.228 . S
Cd1164 O1163 2.228 . S
Cd1164 O1168 2.273 . S
Cd1164 O1172 2.277 . S
O1165 C1162 1.160 . S
O1165 Cd1166 2.203 . S
Cd1166 O1165 2.203 . S
Cd1166 O1168 2.411 . S
Cd1166 O1169 2.333 . S
Cd1166 O1170 2.352 . S
Cd1166 O1174 2.277 . S
Cd1166 O1175 2.356 . S
C1167 O1172 1.209 . S
C1167 O1174 1.226 . S
O1168 Cd1164 2.273 . S
O1168 Cd1166 2.411 . S
O1168 C1171 1.320 . S
O1169 Cd1166 2.333 . S
O1169 C1171 1.214 . S
O1170 Cd1166 2.352 . S
O1170 C1173 1.258 . S
C1171 O1168 1.320 . S
C1171 O1169 1.214 . S
O1172 Cd1164 2.277 . S
O1172 C1167 1.209 . S
C1173 O1170 1.258 . S
C1173 O1175 1.282 . S
O1174 Cd1166 2.277 . S
O1174 C1167 1.226 . S
O1175 Cd1166 2.356 . S
O1175 C1173 1.282 . S
C1176 O1177 1.306 . S
C1176 O1179 1.160 . S
O1177 C1176 1.306 . S
O1177 Cd1178 2.228 . S
Cd1178 O1177 2.228 . S
Cd1178 O1182 2.273 . S
Cd1178 O1186 2.277 . S
O1179 C1176 1.160 . S
O1179 Cd1180 2.203 . S
Cd1180 O1179 2.203 . S
Cd1180 O1182 2.411 . S
Cd1180 O1183 2.333 . S
Cd1180 O1184 2.352 . S
Cd1180 O1188 2.277 . S
Cd1180 O1189 2.356 . S
C1181 O1186 1.209 . S
C1181 O1188 1.226 . S
O1182 Cd1178 2.273 . S
O1182 Cd1180 2.411 . S
O1182 C1185 1.320 . S
O1183 Cd1180 2.333 . S
O1183 C1185 1.214 . S
O1184 Cd1180 2.352 . S
O1184 C1187 1.258 . S
C1185 O1182 1.320 . S
C1185 O1183 1.214 . S
O1186 Cd1178 2.277 . S
O1186 C1181 1.209 . S
C1187 O1184 1.258 . S
C1187 O1189 1.282 . S
O1188 Cd1180 2.277 . S
O1188 C1181 1.226 . S
O1189 Cd1180 2.356 . S
O1189 C1187 1.282 . S
C1190 O1191 1.306 . S
C1190 O1193 1.160 . S
O1191 C1190 1.306 . S
O1191 Cd1192 2.228 . S
Cd1192 O1191 2.228 . S
Cd1192 O1196 2.273 . S
Cd1192 O1200 2.277 . S
O1193 C1190 1.160 . S
O1193 Cd1194 2.203 . S
Cd1194 O1193 2.203 . S
Cd1194 O1196 2.411 . S
Cd1194 O1197 2.333 . S
Cd1194 O1198 2.352 . S
Cd1194 O1202 2.277 . S
Cd1194 O1203 2.356 . S
C1195 O1200 1.209 . S
C1195 O1202 1.226 . S
O1196 Cd1192 2.273 . S
O1196 Cd1194 2.411 . S
O1196 C1199 1.320 . S
O1197 Cd1194 2.333 . S
O1197 C1199 1.214 . S
O1198 Cd1194 2.352 . S
O1198 C1201 1.258 . S
C1199 O1196 1.320 . S
C1199 O1197 1.214 . S
O1200 Cd1192 2.277 . S
O1200 C1195 1.209 . S
C1201 O1198 1.258 . S
C1201 O1203 1.282 . S
O1202 Cd1194 2.277 . S
O1202 C1195 1.226 . S
O1203 Cd1194 2.356 . S
O1203 C1201 1.282 . S
C1204 O1205 1.306 . S
C1204 O1207 1.160 . S
O1205 C1204 1.306 . S
O1205 Cd1206 2.228 . S
Cd1206 O1205 2.228 . S
Cd1206 O1210 2.273 . S
Cd1206 O1214 2.277 . S
O1207 C1204 1.160 . S
O1207 Cd1208 2.203 . S
Cd1208 O1207 2.203 . S
Cd1208 O1210 2.411 . S
Cd1208 O1211 2.333 . S
Cd1208 O1212 2.352 . S
Cd1208 O1216 2.277 . S
Cd1208 O1217 2.356 . S
C1209 O1214 1.209 . S
C1209 O1216 1.226 . S
O1210 Cd1206 2.273 . S
O1210 Cd1208 2.411 . S
O1210 C1213 1.320 . S
O1211 Cd1208 2.333 . S
O1211 C1213 1.214 . S
O1212 Cd1208 2.352 . S
O1212 C1215 1.258 . S
C1213 O1210 1.320 . S
C1213 O1211 1.214 . S
O1214 Cd1206 2.277 . S
O1214 C1209 1.209 . S
C1215 O1212 1.258 . S
C1215 O1217 1.282 . S
O1216 Cd1208 2.277 . S
O1216 C1209 1.226 . S
O1217 Cd1208 2.356 . S
O1217 C1215 1.282 . S
C1218 O1219 1.306 . S
C1218 O1221 1.160 . S
O1219 C1218 1.306 . S
O1219 Cd1220 2.228 . S
Cd1220 O1219 2.228 . S
Cd1220 O1224 2.273 . S
Cd1220 O1228 2.277 . S
O1221 C1218 1.160 . S
O1221 Cd1222 2.203 . S
Cd1222 O1221 2.203 . S
Cd1222 O1224 2.411 . S
Cd1222 O1225 2.333 . S
Cd1222 O1226 2.352 . S
Cd1222 O1230 2.277 . S
Cd1222 O1231 2.356 . S
C1223 O1228 1.209 . S
C1223 O1230 1.226 . S
O1224 Cd1220 2.273 . S
O1224 Cd1222 2.411 . S
O1224 C1227 1.320 . S
O1225 Cd1222 2.333 . S
O1225 C1227 1.214 . S
O1226 Cd1222 2.352 . S
O1226 C1229 1.258 . S
C1227 O1224 1.320 . S
C1227 O1225 1.214 . S
O1228 Cd1220 2.277 . S
O1228 C1223 1.209 . S
C1229 O1226 1.258 . S
C1229 O1231 1.282 . S
O1230 Cd1222 2.277 . S
O1230 C1223 1.226 . S
O1231 Cd1222 2.356 . S
O1231 C1229 1.282 . S
C1232 O1233 1.306 . S
C1232 O1235 1.160 . S
O1233 C1232 1.306 . S
O1233 Cd1234 2.228 . S
Cd1234 O1233 2.228 . S
Cd1234 O1238 2.273 . S
Cd1234 O1242 2.277 . S
O1235 C1232 1.160 . S
O1235 Cd1236 2.203 . S
Cd1236 O1235 2.203 . S
Cd1236 O1238 2.411 . S
Cd1236 O1239 2.333 . S
Cd1236 O1240 2.352 . S
Cd1236 O1244 2.277 . S
Cd1236 O1245 2.356 . S
C1237 O1242 1.209 . S
C1237 O1244 1.226 . S
O1238 Cd1234 2.273 . S
O1238 Cd1236 2.411 . S
O1238 C1241 1.320 . S
O1239 Cd1236 2.333 . S
O1239 C1241 1.214 . S
O1240 Cd1236 2.352 . S
O1240 C1243 1.258 . S
C1241 O1238 1.320 . S
C1241 O1239 1.214 . S
O1242 Cd1234 2.277 . S
O1242 C1237 1.209 . S
C1243 O1240 1.258 . S
C1243 O1245 1.282 . S
O1244 Cd1236 2.277 . S
O1244 C1237 1.226 . S
O1245 Cd1236 2.356 . S
O1245 C1243 1.282 . S
C1246 O1247 1.306 . S
C1246 O1249 1.160 . S
O1247 C1246 1.306 . S
O1247 Cd1248 2.228 . S
Cd1248 O1247 2.228 . S
Cd1248 O1252 2.273 . S
Cd1248 O1256 2.277 . S
O1249 C1246 1.160 . S
O1249 Cd1250 2.203 . S
Cd1250 O1249 2.203 . S
Cd1250 O1252 2.411 . S
Cd1250 O1253 2.333 . S
Cd1250 O1254 2.352 . S
Cd1250 O1258 2.277 . S
Cd1250 O1259 2.356 . S
C1251 O1256 1.209 . S
C1251 O1258 1.226 . S
O1252 Cd1248 2.273 . S
O1252 Cd1250 2.411 . S
O1252 C1255 1.320 . S
O1253 Cd1250 2.333 . S
O1253 C1255 1.214 . S
O1254 Cd1250 2.352 . S
O1254 C1257 1.258 . S
C1255 O1252 1.320 . S
C1255 O1253 1.214 . S
O1256 Cd1248 2.277 . S
O1256 C1251 1.209 . S
C1257 O1254 1.258 . S
C1257 O1259 1.282 . S
O1258 Cd1250 2.277 . S
O1258 C1251 1.226 . S
O1259 Cd1250 2.356 . S
O1259 C1257 1.282 . S
C1260 O1261 1.306 . S
C1260 O1263 1.160 . S
O1261 C1260 1.306 . S
O1261 Cd1262 2.228 . S
Cd1262 O1261 2.228 . S
Cd1262 O1266 2.273 . S
Cd1262 O1270 2.277 . S
O1263 C1260 1.160 . S
O1263 Cd1264 2.203 . S
Cd1264 O1263 2.203 . S
Cd1264 O1266 2.411 . S
Cd1264 O1267 2.333 . S
Cd1264 O1268 2.352 . S
Cd1264 O1272 2.277 . S
Cd1264 O1273 2.356 . S
C1265 O1270 1.209 . S
C1265 O1272 1.226 . S
O1266 Cd1262 2.273 . S
O1266 Cd1264 2.411 . S
O1266 C1269 1.320 . S
O1267 Cd1264 2.333 . S
O1267 C1269 1.214 . S
O1268 Cd1264 2.352 . S
O1268 C1271 1.258 . S
C1269 O1266 1.320 . S
C1269 O1267 1.214 . S
O1270 Cd1262 2.277 . S
O1270 C1265 1.209 . S
C1271 O1268 1.258 . S
C1271 O1273 1.282 . S
O1272 Cd1264 2.277 . S
O1272 C1265 1.226 . S
O1273 Cd1264 2.356 . S
O1273 C1271 1.282 . S
C1274 O1275 1.306 . S
C1274 O1277 1.160 . S
O1275 C1274 1.306 . S
O1275 Cd1276 2.228 . S
Cd1276 O1275 2.228 . S
Cd1276 O1280 2.273 . S
Cd1276 O1284 2.277 . S
O1277 C1274 1.160 . S
O1277 Cd1278 2.203 . S
Cd1278 O1277 2.203 . S
Cd1278 O1280 2.411 . S
Cd1278 O1281 2.333 . S
Cd1278 O1282 2.352 . S
Cd1278 O1286 2.277 . S
Cd1278 O1287 2.356 . S
C1279 O1284 1.209 . S
C1279 O1286 1.226 . S
O1280 Cd1276 2.273 . S
O1280 Cd1278 2.411 . S
O1280 C1283 1.320 . S
O1281 Cd1278 2.333 . S
O1281 C1283 1.214 . S
O1282 Cd1278 2.352 . S
O1282 C1285 1.258 . S
C1283 O1280 1.320 . S
C1283 O1281 1.214 . S
O1284 Cd1276 2.277 . S
O1284 C1279 1.209 . S
C1285 O1282 1.258 . S
C1285 O1287 1.282 . S
O1286 Cd1278 2.277 . S
O1286 C1279 1.226 . S
O1287 Cd1278 2.356 . S
O1287 C1285 1.282 . S
C1288 O1289 1.306 . S
C1288 O1291 1.160 . S
O1289 C1288 1.306 . S
O1289 Cd1290 2.228 . S
Cd1290 O1289 2.228 . S
Cd1290 O1294 2.273 . S
Cd1290 O1298 2.277 . S
O1291 C1288 1.160 . S
O1291 Cd1292 2.203 . S
Cd1292 O1291 2.203 . S
Cd1292 O1294 2.411 . S
Cd1292 O1295 2.333 . S
Cd1292 O1296 2.352 . S
Cd1292 O1300 2.277 . S
Cd1292 O1301 2.356 . S
C1293 O1298 1.209 . S
C1293 O1300 1.226 . S
O1294 Cd1290 2.273 . S
O1294 Cd1292 2.411 . S
O1294 C1297 1.320 . S
O1295 Cd1292 2.333 . S
O1295 C1297 1.214 . S
O1296 Cd1292 2.352 . S
O1296 C1299 1.258 . S
C1297 O1294 1.320 . S
C1297 O1295 1.214 . S
O1298 Cd1290 2.277 . S
O1298 C1293 1.209 . S
C1299 O1296 1.258 . S
C1299 O1301 1.282 . S
O1300 Cd1292 2.277 . S
O1300 C1293 1.226 . S
O1301 Cd1292 2.356 . S
O1301 C1299 1.282 . S
C1302 O1303 1.306 . S
C1302 O1305 1.160 . S
O1303 C1302 1.306 . S
O1303 Cd1304 2.228 . S
Cd1304 O1303 2.228 . S
Cd1304 O1308 2.273 . S
Cd1304 O1312 2.277 . S
O1305 C1302 1.160 . S
O1305 Cd1306 2.203 . S
Cd1306 O1305 2.203 . S
Cd1306 O1308 2.411 . S
Cd1306 O1309 2.333 . S
Cd1306 O1310 2.352 . S
Cd1306 O1314 2.277 . S
Cd1306 O1315 2.356 . S
C1307 O1312 1.209 . S
C1307 O1314 1.226 . S
O1308 Cd1304 2.273 . S
O1308 Cd1306 2.411 . S
O1308 C1311 1.320 . S
O1309 Cd1306 2.333 . S
O1309 C1311 1.214 . S
O1310 Cd1306 2.352 . S
O1310 C1313 1.258 . S
C1311 O1308 1.320 . S
C1311 O1309 1.214 . S
O1312 Cd1304 2.277 . S
O1312 C1307 1.209 . S
C1313 O1310 1.258 . S
C1313 O1315 1.282 . S
O1314 Cd1306 2.277 . S
O1314 C1307 1.226 . S
O1315 Cd1306 2.356 . S
O1315 C1313 1.282 . S
C1316 O1317 1.306 . S
C1316 O1319 1.160 . S
O1317 C1316 1.306 . S
O1317 Cd1318 2.228 . S
Cd1318 O1317 2.228 . S
Cd1318 O1322 2.273 . S
Cd1318 O1326 2.277 . S
O1319 C1316 1.160 . S
O1319 Cd1320 2.203 . S
Cd1320 O1319 2.203 . S
Cd1320 O1322 2.411 . S
Cd1320 O1323 2.333 . S
Cd1320 O1324 2.352 . S
Cd1320 O1328 2.277 . S
Cd1320 O1329 2.356 . S
C1321 O1326 1.209 . S
C1321 O1328 1.226 . S
O1322 Cd1318 2.273 . S
O1322 Cd1320 2.411 . S
O1322 C1325 1.320 . S
O1323 Cd1320 2.333 . S
O1323 C1325 1.214 . S
O1324 Cd1320 2.352 . S
O1324 C1327 1.258 . S
C1325 O1322 1.320 . S
C1325 O1323 1.214 . S
O1326 Cd1318 2.277 . S
O1326 C1321 1.209 . S
C1327 O1324 1.258 . S
C1327 O1329 1.282 . S
O1328 Cd1320 2.277 . S
O1328 C1321 1.226 . S
O1329 Cd1320 2.356 . S
O1329 C1327 1.282 . S
C1330 O1331 1.306 . S
C1330 O1333 1.160 . S
O1331 C1330 1.306 . S
O1331 Cd1332 2.228 . S
Cd1332 O1331 2.228 . S
Cd1332 O1336 2.273 . S
Cd1332 O1340 2.277 . S
O1333 C1330 1.160 . S
O1333 Cd1334 2.203 . S
Cd1334 O1333 2.203 . S
Cd1334 O1336 2.411 . S
Cd1334 O1337 2.333 . S
Cd1334 O1338 2.352 . S
Cd1334 O1342 2.277 . S
Cd1334 O1343 2.356 . S
C1335 O1340 1.209 . S
C1335 O1342 1.226 . S
O1336 Cd1332 2.273 . S
O1336 Cd1334 2.411 . S
O1336 C1339 1.320 . S
O1337 Cd1334 2.333 . S
O1337 C1339 1.214 . S
O1338 Cd1334 2.352 . S
O1338 C1341 1.258 . S
C1339 O1336 1.320 . S
C1339 O1337 1.214 . S
O1340 Cd1332 2.277 . S
O1340 C1335 1.209 . S
C1341 O1338 1.258 . S
C1341 O1343 1.282 . S
O1342 Cd1334 2.277 . S
O1342 C1335 1.226 . S
O1343 Cd1334 2.356 . S
O1343 C1341 1.282 . S
C1344 C1345 1.363 . S
C1344 C1350 1.379 . S
C1344 N1352 1.356 . S
C1345 C1344 1.363 . S
C1345 C1351 1.363 . S
C1346 C1347 1.363 . S
C1346 C1351 1.379 . S
C1346 N1353 1.356 . S
C1347 C1346 1.363 . S
C1347 C1350 1.363 . S
N1348 C1350 1.356 . S
N1348 H1360 0.984 . S
N1348 H1361 0.985 . S
N1349 C1351 1.356 . S
N1349 H1354 0.984 . S
N1349 H1355 0.985 . S
C1350 C1344 1.379 . S
C1350 C1347 1.363 . S
C1350 N1348 1.356 . S
C1351 C1345 1.363 . S
C1351 C1346 1.379 . S
C1351 N1349 1.356 . S
N1352 C1344 1.356 . S
N1352 H1358 0.984 . S
N1352 H1359 0.984 . S
N1353 C1346 1.356 . S
N1353 H1356 0.984 . S
N1353 H1357 0.985 . S
H1354 N1349 0.984 . S
H1355 N1349 0.985 . S
H1356 N1353 0.984 . S
H1357 N1353 0.985 . S
H1358 N1352 0.984 . S
H1359 N1352 0.984 . S
H1360 N1348 0.984 . S
H1361 N1348 0.985 . S
C1362 C1363 1.363 . S
C1362 C1368 1.379 . S
C1362 N1370 1.356 . S
C1363 C1362 1.363 . S
C1363 C1369 1.363 . S
C1364 C1365 1.363 . S
C1364 C1369 1.379 1_455 S
C1364 N1371 1.356 . S
C1365 C1364 1.363 . S
C1365 C1368 1.363 1_455 S
N1366 C1368 1.356 . S
N1366 H1378 0.984 . S
N1366 H1379 0.985 . S
N1367 C1369 1.356 . S
N1367 H1372 0.984 . S
N1367 H1373 0.985 1_655 S
C1368 C1362 1.379 . S
C1368 C1365 1.363 1_655 S
C1368 N1366 1.356 . S
C1369 C1363 1.363 . S
C1369 C1364 1.379 1_655 S
C1369 N1367 1.356 . S
N1370 C1362 1.356 . S
N1370 H1376 0.984 . S
N1370 H1377 0.984 . S
N1371 C1364 1.356 . S
N1371 H1374 0.984 . S
N1371 H1375 0.985 . S
H1372 N1367 0.984 . S
H1373 N1367 0.985 1_455 S
H1374 N1371 0.984 . S
H1375 N1371 0.985 . S
H1376 N1370 0.984 . S
H1377 N1370 0.984 . S
H1378 N1366 0.984 . S
H1379 N1366 0.985 . S
C1380 C1381 1.363 . S
C1380 C1386 1.379 . S
C1380 N1388 1.356 . S
C1381 C1380 1.363 . S
C1381 C1387 1.363 . S
C1382 C1383 1.363 . S
C1382 C1387 1.379 . S
C1382 N1389 1.356 . S
C1383 C1382 1.363 . S
C1383 C1386 1.363 . S
N1384 C1386 1.356 . S
N1384 H1396 0.984 . S
N1384 H1397 0.985 . S
N1385 C1387 1.356 . S
N1385 H1390 0.984 . S
N1385 H1391 0.985 . S
C1386 C1380 1.379 . S
C1386 C1383 1.363 . S
C1386 N1384 1.356 . S
C1387 C1381 1.363 . S
C1387 C1382 1.379 . S
C1387 N1385 1.356 . S
N1388 C1380 1.356 . S
N1388 H1394 0.984 . S
N1388 H1395 0.984 . S
N1389 C1382 1.356 . S
N1389 H1392 0.984 . S
N1389 H1393 0.985 . S
H1390 N1385 0.984 . S
H1391 N1385 0.985 . S
H1392 N1389 0.984 . S
H1393 N1389 0.985 . S
H1394 N1388 0.984 . S
H1395 N1388 0.984 . S
H1396 N1384 0.984 . S
H1397 N1384 0.985 . S
C1398 C1399 1.363 . S
C1398 C1404 1.379 . S
C1398 N1406 1.356 . S
C1399 C1398 1.363 . S
C1399 C1405 1.363 . S
C1400 C1401 1.363 . S
C1400 C1405 1.379 . S
C1400 N1407 1.356 . S
C1401 C1400 1.363 . S
C1401 C1404 1.363 . S
N1402 C1404 1.356 . S
N1402 H1414 0.984 . S
N1402 H1415 0.985 . S
N1403 C1405 1.356 . S
N1403 H1408 0.984 . S
N1403 H1409 0.985 . S
C1404 C1398 1.379 . S
C1404 C1401 1.363 . S
C1404 N1402 1.356 . S
C1405 C1399 1.363 . S
C1405 C1400 1.379 . S
C1405 N1403 1.356 . S
N1406 C1398 1.356 . S
N1406 H1412 0.984 . S
N1406 H1413 0.984 . S
N1407 C1400 1.356 . S
N1407 H1410 0.984 . S
N1407 H1411 0.985 . S
H1408 N1403 0.984 . S
H1409 N1403 0.985 . S
H1410 N1407 0.984 . S
H1411 N1407 0.985 . S
H1412 N1406 0.984 . S
H1413 N1406 0.984 . S
H1414 N1402 0.984 . S
H1415 N1402 0.985 . S
C1416 C1417 1.363 . S
C1416 C1422 1.379 . S
C1416 N1424 1.356 . S
C1417 C1416 1.363 . S
C1417 C1423 1.363 . S
C1418 C1419 1.363 . S
C1418 C1423 1.379 . S
C1418 N1425 1.356 . S
C1419 C1418 1.363 . S
C1419 C1422 1.363 . S
N1420 C1422 1.356 . S
N1420 H1432 0.984 . S
N1420 H1433 0.985 . S
N1421 C1423 1.356 . S
N1421 H1426 0.984 . S
N1421 H1427 0.985 . S
C1422 C1416 1.379 . S
C1422 C1419 1.363 . S
C1422 N1420 1.356 . S
C1423 C1417 1.363 . S
C1423 C1418 1.379 . S
C1423 N1421 1.356 . S
N1424 C1416 1.356 . S
N1424 H1430 0.984 . S
N1424 H1431 0.984 . S
N1425 C1418 1.356 . S
N1425 H1428 0.984 . S
N1425 H1429 0.985 . S
H1426 N1421 0.984 . S
H1427 N1421 0.985 . S
H1428 N1425 0.984 . S
H1429 N1425 0.985 . S
H1430 N1424 0.984 . S
H1431 N1424 0.984 . S
H1432 N1420 0.984 . S
H1433 N1420 0.985 . S
C1434 C1435 1.363 . S
C1434 C1440 1.379 . S
C1434 N1442 1.356 . S
C1435 C1434 1.363 . S
C1435 C1441 1.363 . S
C1436 C1437 1.363 . S
C1436 C1441 1.379 . S
C1436 N1443 1.356 . S
C1437 C1436 1.363 . S
C1437 C1440 1.363 . S
N1438 C1440 1.356 . S
N1438 H1450 0.984 . S
N1438 H1451 0.985 . S
N1439 C1441 1.356 . S
N1439 H1444 0.984 . S
N1439 H1445 0.985 . S
C1440 C1434 1.379 . S
C1440 C1437 1.363 . S
C1440 N1438 1.356 . S
C1441 C1435 1.363 . S
C1441 C1436 1.379 . S
C1441 N1439 1.356 . S
N1442 C1434 1.356 . S
N1442 H1448 0.984 . S
N1442 H1449 0.984 . S
N1443 C1436 1.356 . S
N1443 H1446 0.984 . S
N1443 H1447 0.985 . S
H1444 N1439 0.984 . S
H1445 N1439 0.985 . S
H1446 N1443 0.984 . S
H1447 N1443 0.985 . S
H1448 N1442 0.984 . S
H1449 N1442 0.984 . S
H1450 N1438 0.984 . S
H1451 N1438 0.985 . S
C1452 C1453 1.363 . S
C1452 C1458 1.379 . S
C1452 N1460 1.356 . S
C1453 C1452 1.363 . S
C1453 C1459 1.363 . S
C1454 C1455 1.363 . S
C1454 C1459 1.379 . S
C1454 N1461 1.356 . S
C1455 C1454 1.363 . S
C1455 C1458 1.363 . S
N1456 C1458 1.356 . S
N1456 H1468 0.984 . S
N1456 H1469 0.985 . S
N1457 C1459 1.356 . S
N1457 H1462 0.984 . S
N1457 H1463 0.985 . S
C1458 C1452 1.379 . S
C1458 C1455 1.363 . S
C1458 N1456 1.356 . S
C1459 C1453 1.363 . S
C1459 C1454 1.379 . S
C1459 N1457 1.356 . S
N1460 C1452 1.356 . S
N1460 H1466 0.984 . S
N1460 H1467 0.984 . S
N1461 C1454 1.356 . S
N1461 H1464 0.984 . S
N1461 H1465 0.985 . S
H1462 N1457 0.984 . S
H1463 N1457 0.985 . S
H1464 N1461 0.984 . S
H1465 N1461 0.985 . S
H1466 N1460 0.984 . S
H1467 N1460 0.984 . S
H1468 N1456 0.984 . S
H1469 N1456 0.985 . S
C1470 C1471 1.363 . S
C1470 C1476 1.379 . S
C1470 N1478 1.356 . S
C1471 C1470 1.363 . S
C1471 C1477 1.398 . S
C1472 C1473 1.363 . S
C1472 C1477 1.360 1_455 S
C1472 N1479 1.356 . S
C1473 C1472 1.363 . S
C1473 C1476 1.363 1_455 S
N1474 C1476 1.356 . S
N1474 H1486 0.984 . S
N1474 H1487 0.985 . S
N1475 C1477 1.352 1_455 S
N1475 H1480 0.960 1_455 S
N1475 H1481 1.015 . S
C1476 C1470 1.379 . S
C1476 C1473 1.363 1_655 S
C1476 N1474 1.356 . S
C1477 C1471 1.398 . S
C1477 C1472 1.360 1_655 S
C1477 N1475 1.352 1_655 S
N1478 C1470 1.356 . S
N1478 H1484 0.984 . S
N1478 H1485 0.984 . S
N1479 C1472 1.356 . S
N1479 H1482 0.984 . S
N1479 H1483 0.985 . S
H1480 N1475 0.960 1_655 S
H1481 N1475 1.015 . S
H1482 N1479 0.984 . S
H1483 N1479 0.985 . S
H1484 N1478 0.984 . S
H1485 N1478 0.984 . S
H1486 N1474 0.984 . S
H1487 N1474 0.985 . S
C1488 C1489 1.363 . S
C1488 C1494 1.379 . S
C1488 N1496 1.356 . S
C1489 C1488 1.363 . S
C1489 C1495 1.363 . S
C1490 C1491 1.363 . S
C1490 C1495 1.379 . S
C1490 N1497 1.356 . S
C1491 C1490 1.363 . S
C1491 C1494 1.363 . S
N1492 C1494 1.356 . S
N1492 H1504 0.984 . S
N1492 H1505 0.985 . S
N1493 C1495 1.356 . S
N1493 H1498 0.984 . S
N1493 H1499 0.985 . S
C1494 C1488 1.379 . S
C1494 C1491 1.363 . S
C1494 N1492 1.356 . S
C1495 C1489 1.363 . S
C1495 C1490 1.379 . S
C1495 N1493 1.356 . S
N1496 C1488 1.356 . S
N1496 H1502 0.984 . S
N1496 H1503 0.984 . S
N1497 C1490 1.356 . S
N1497 H1500 0.984 . S
N1497 H1501 0.985 . S
H1498 N1493 0.984 . S
H1499 N1493 0.985 . S
H1500 N1497 0.984 . S
H1501 N1497 0.985 . S
H1502 N1496 0.984 . S
H1503 N1496 0.984 . S
H1504 N1492 0.984 . S
H1505 N1492 0.985 . S
C1506 C1507 1.363 . S
C1506 C1512 1.379 . S
C1506 N1514 1.356 . S
C1507 C1506 1.363 . S
C1507 C1513 1.363 . S
C1508 C1509 1.363 . S
C1508 C1513 1.379 . S
C1508 N1515 1.356 . S
C1509 C1508 1.363 . S
C1509 C1512 1.363 . S
N1510 C1512 1.356 . S
N1510 H1522 0.984 . S
N1510 H1523 0.985 . S
N1511 C1513 1.356 . S
N1511 H1516 0.984 . S
N1511 H1517 0.985 . S
C1512 C1506 1.379 . S
C1512 C1509 1.363 . S
C1512 N1510 1.356 . S
C1513 C1507 1.363 . S
C1513 C1508 1.379 . S
C1513 N1511 1.356 . S
N1514 C1506 1.356 . S
N1514 H1520 0.984 . S
N1514 H1521 0.984 . S
N1515 C1508 1.356 . S
N1515 H1518 0.984 . S
N1515 H1519 0.985 . S
H1516 N1511 0.984 . S
H1517 N1511 0.985 . S
H1518 N1515 0.984 . S
H1519 N1515 0.985 . S
H1520 N1514 0.984 . S
H1521 N1514 0.984 . S
H1522 N1510 0.984 . S
H1523 N1510 0.985 . S
C1524 C1525 1.363 . S
C1524 C1530 1.379 . S
C1524 N1532 1.356 . S
C1525 C1524 1.363 . S
C1525 C1531 1.363 . S
C1526 C1527 1.363 . S
C1526 C1531 1.379 . S
C1526 N1533 1.356 . S
C1527 C1526 1.363 . S
C1527 C1530 1.363 . S
N1528 C1530 1.356 . S
N1528 H1540 0.984 . S
N1528 H1541 0.985 . S
N1529 C1531 1.356 . S
N1529 H1534 0.984 . S
N1529 H1535 0.985 . S
C1530 C1524 1.379 . S
C1530 C1527 1.363 . S
C1530 N1528 1.356 . S
C1531 C1525 1.363 . S
C1531 C1526 1.379 . S
C1531 N1529 1.356 . S
N1532 C1524 1.356 . S
N1532 H1538 0.984 . S
N1532 H1539 0.984 . S
N1533 C1526 1.356 . S
N1533 H1536 0.984 . S
N1533 H1537 0.985 . S
H1534 N1529 0.984 . S
H1535 N1529 0.985 . S
H1536 N1533 0.984 . S
H1537 N1533 0.985 . S
H1538 N1532 0.984 . S
H1539 N1532 0.984 . S
H1540 N1528 0.984 . S
H1541 N1528 0.985 . S
C1542 C1543 1.363 . S
C1542 C1548 1.379 . S
C1542 N1550 1.356 . S
C1543 C1542 1.363 . S
C1543 C1549 1.363 1_556 S
C1544 C1545 1.363 . S
C1544 C1549 1.379 . S
C1544 N1551 1.356 . S
C1545 C1544 1.363 . S
C1545 C1548 1.363 1_554 S
N1546 C1548 1.356 . S
N1546 H1558 0.984 . S
N1546 H1559 0.959 1_556 S
N1547 C1549 1.356 . S
N1547 H1552 0.984 . S
N1547 H1553 0.985 . S
C1548 C1542 1.379 . S
C1548 C1545 1.363 1_556 S
C1548 N1546 1.356 . S
C1549 C1543 1.363 1_554 S
C1549 C1544 1.379 . S
C1549 N1547 1.356 . S
N1550 C1542 1.356 . S
N1550 H1556 0.984 . S
N1550 H1557 0.984 . S
N1551 C1544 1.356 . S
N1551 H1554 0.984 . S
N1551 H1555 0.985 . S
H1552 N1547 0.984 . S
H1553 N1547 0.985 . S
H1554 N1551 0.984 . S
H1555 N1551 0.985 . S
H1556 N1550 0.984 . S
H1557 N1550 0.984 . S
H1558 N1546 0.984 . S
H1559 N1546 0.959 1_554 S
C1560 C1561 1.363 . S
C1560 C1566 1.379 . S
C1560 N1568 1.356 . S
C1561 C1560 1.363 . S
C1561 C1567 1.363 . S
C1562 C1563 1.363 . S
C1562 C1567 1.379 . S
C1562 N1569 1.356 . S
C1563 C1562 1.363 . S
C1563 C1566 1.363 . S
N1564 C1566 1.356 . S
N1564 H1576 0.984 . S
N1564 H1577 0.985 . S
N1565 C1567 1.356 . S
N1565 H1570 0.984 . S
N1565 H1571 0.985 . S
C1566 C1560 1.379 . S
C1566 C1563 1.363 . S
C1566 N1564 1.356 . S
C1567 C1561 1.363 . S
C1567 C1562 1.379 . S
C1567 N1565 1.356 . S
N1568 C1560 1.356 . S
N1568 H1574 0.984 . S
N1568 H1575 0.984 . S
N1569 C1562 1.356 . S
N1569 H1572 0.984 . S
N1569 H1573 0.985 . S
H1570 N1565 0.984 . S
H1571 N1565 0.985 . S
H1572 N1569 0.984 . S
H1573 N1569 0.985 . S
H1574 N1568 0.984 . S
H1575 N1568 0.984 . S
H1576 N1564 0.984 . S
H1577 N1564 0.985 . S
C1578 C1579 1.363 . S
C1578 C1584 1.379 . S
C1578 N1586 1.356 . S
C1579 C1578 1.363 . S
C1579 C1585 1.363 . S
C1580 C1581 1.363 . S
C1580 C1585 1.379 . S
C1580 N1587 1.356 . S
C1581 C1580 1.363 . S
C1581 C1584 1.363 . S
N1582 C1584 1.356 . S
N1582 H1594 0.984 . S
N1582 H1595 0.985 . S
N1583 C1585 1.356 . S
N1583 H1588 0.984 . S
N1583 H1589 0.985 . S
C1584 C1578 1.379 . S
C1584 C1581 1.363 . S
C1584 N1582 1.356 . S
C1585 C1579 1.363 . S
C1585 C1580 1.379 . S
C1585 N1583 1.356 . S
N1586 C1578 1.356 . S
N1586 H1592 0.984 . S
N1586 H1593 0.984 . S
N1587 C1580 1.356 . S
N1587 H1590 0.984 . S
N1587 H1591 0.985 . S
H1588 N1583 0.984 . S
H1589 N1583 0.985 . S
H1590 N1587 0.984 . S
H1591 N1587 0.985 . S
H1592 N1586 0.984 . S
H1593 N1586 0.984 . S
H1594 N1582 0.984 . S
H1595 N1582 0.985 . S
C1596 C1597 1.363 . S
C1596 C1602 1.379 . S
C1596 N1604 1.356 . S
C1597 C1596 1.363 . S
C1597 C1603 1.363 . S
C1598 C1599 1.363 . S
C1598 C1603 1.379 . S
C1598 N1605 1.356 . S
C1599 C1598 1.363 . S
C1599 C1602 1.363 . S
N1600 C1602 1.356 . S
N1600 H1612 0.984 . S
N1600 H1613 0.985 . S
N1601 C1603 1.356 . S
N1601 H1606 0.984 . S
N1601 H1607 0.985 . S
C1602 C1596 1.379 . S
C1602 C1599 1.363 . S
C1602 N1600 1.356 . S
C1603 C1597 1.363 . S
C1603 C1598 1.379 . S
C1603 N1601 1.356 . S
N1604 C1596 1.356 . S
N1604 H1610 0.984 . S
N1604 H1611 0.984 . S
N1605 C1598 1.356 . S
N1605 H1608 0.984 . S
N1605 H1609 0.985 . S
H1606 N1601 0.984 . S
H1607 N1601 0.985 . S
H1608 N1605 0.984 . S
H1609 N1605 0.985 . S
H1610 N1604 0.984 . S
H1611 N1604 0.984 . S
H1612 N1600 0.984 . S
H1613 N1600 0.985 . S
C1614 C1615 1.363 . S
C1614 C1620 1.379 . S
C1614 N1622 1.356 . S
C1615 C1614 1.363 . S
C1615 C1621 1.363 1_556 S
C1616 C1617 1.363 . S
C1616 C1621 1.379 . S
C1616 N1623 1.356 . S
C1617 C1616 1.363 . S
C1617 C1620 1.363 1_554 S
N1618 C1620 1.356 . S
N1618 H1630 0.984 . S
N1618 H1631 0.985 . S
N1619 C1621 1.356 . S
N1619 H1624 0.984 . S
N1619 H1625 0.985 . S
C1620 C1614 1.379 . S
C1620 C1617 1.363 1_556 S
C1620 N1618 1.356 . S
C1621 C1615 1.363 1_554 S
C1621 C1616 1.379 . S
C1621 N1619 1.356 . S
N1622 C1614 1.356 . S
N1622 H1628 0.984 . S
N1622 H1629 0.984 . S
N1623 C1616 1.356 . S
N1623 H1626 0.984 . S
N1623 H1627 0.985 . S
H1624 N1619 0.984 . S
H1625 N1619 0.985 . S
H1626 N1623 0.984 . S
H1627 N1623 0.985 . S
H1628 N1622 0.984 . S
H1629 N1622 0.984 . S
H1630 N1618 0.984 . S
H1631 N1618 0.985 . S
C1632 C1633 1.363 . S
C1632 C1638 1.379 . S
C1632 N1640 1.356 . S
C1633 C1632 1.363 . S
C1633 C1639 1.363 . S
C1634 C1635 1.363 . S
C1634 C1639 1.379 . S
C1634 N1641 1.356 . S
C1635 C1634 1.363 . S
C1635 C1638 1.363 . S
N1636 C1638 1.356 . S
N1636 H1648 0.984 . S
N1636 H1649 0.985 . S
N1637 C1639 1.356 . S
N1637 H1642 0.984 . S
N1637 H1643 0.985 . S
C1638 C1632 1.379 . S
C1638 C1635 1.363 . S
C1638 N1636 1.356 . S
C1639 C1633 1.363 . S
C1639 C1634 1.379 . S
C1639 N1637 1.356 . S
N1640 C1632 1.356 . S
N1640 H1646 0.984 . S
N1640 H1647 0.984 . S
N1641 C1634 1.356 . S
N1641 H1644 0.984 . S
N1641 H1645 0.985 . S
H1642 N1637 0.984 . S
H1643 N1637 0.985 . S
H1644 N1641 0.984 . S
H1645 N1641 0.985 . S
H1646 N1640 0.984 . S
H1647 N1640 0.984 . S
H1648 N1636 0.984 . S
H1649 N1636 0.985 . S
C1650 C1651 1.363 . S
C1650 C1656 1.379 . S
C1650 N1658 1.356 . S
C1651 C1650 1.363 . S
C1651 C1657 1.363 . S
C1652 C1653 1.363 . S
C1652 C1657 1.379 . S
C1652 N1659 1.356 . S
C1653 C1652 1.363 . S
C1653 C1656 1.363 . S
N1654 C1656 1.356 . S
N1654 H1666 0.984 . S
N1654 H1667 0.985 . S
N1655 C1657 1.356 . S
N1655 H1660 0.984 . S
N1655 H1661 0.985 . S
C1656 C1650 1.379 . S
C1656 C1653 1.363 . S
C1656 N1654 1.356 . S
C1657 C1651 1.363 . S
C1657 C1652 1.379 . S
C1657 N1655 1.356 . S
N1658 C1650 1.356 . S
N1658 H1664 0.984 . S
N1658 H1665 0.984 . S
N1659 C1652 1.356 . S
N1659 H1662 0.984 . S
N1659 H1663 0.985 . S
H1660 N1655 0.984 . S
H1661 N1655 0.985 . S
H1662 N1659 0.984 . S
H1663 N1659 0.985 . S
H1664 N1658 0.984 . S
H1665 N1658 0.984 . S
H1666 N1654 0.984 . S
H1667 N1654 0.985 . S
C1668 C1669 1.363 . S
C1668 C1674 1.379 . S
C1668 N1676 1.356 . S
C1669 C1668 1.363 . S
C1669 C1675 1.363 . S
C1670 C1671 1.363 . S
C1670 C1675 1.379 . S
C1670 N1677 1.356 . S
C1671 C1670 1.363 . S
C1671 C1674 1.363 . S
N1672 C1674 1.356 . S
N1672 H1684 0.984 . S
N1672 H1685 0.985 . S
N1673 C1675 1.356 . S
N1673 H1678 0.984 . S
N1673 H1679 0.985 . S
C1674 C1668 1.379 . S
C1674 C1671 1.363 . S
C1674 N1672 1.356 . S
C1675 C1669 1.363 . S
C1675 C1670 1.379 . S
C1675 N1673 1.356 . S
N1676 C1668 1.356 . S
N1676 H1682 0.984 . S
N1676 H1683 0.984 . S
N1677 C1670 1.356 . S
N1677 H1680 0.984 . S
N1677 H1681 0.985 . S
H1678 N1673 0.984 . S
H1679 N1673 0.985 . S
H1680 N1677 0.984 . S
H1681 N1677 0.985 . S
H1682 N1676 0.984 . S
H1683 N1676 0.984 . S
H1684 N1672 0.984 . S
H1685 N1672 0.985 . S
C1686 C1687 1.363 . S
C1686 C1692 1.379 . S
C1686 N1694 1.356 . S
C1687 C1686 1.363 . S
C1687 C1693 1.363 . S
C1688 C1689 1.363 . S
C1688 C1693 1.379 . S
C1688 N1695 1.356 . S
C1689 C1688 1.363 . S
C1689 C1692 1.363 . S
N1690 C1692 1.356 . S
N1690 H1702 0.984 . S
N1690 H1703 0.985 . S
N1691 C1693 1.356 . S
N1691 H1696 0.984 . S
N1691 H1697 0.985 . S
C1692 C1686 1.379 . S
C1692 C1689 1.363 . S
C1692 N1690 1.356 . S
C1693 C1687 1.363 . S
C1693 C1688 1.379 . S
C1693 N1691 1.356 . S
N1694 C1686 1.356 . S
N1694 H1700 0.984 . S
N1694 H1701 0.984 . S
N1695 C1688 1.356 . S
N1695 H1698 0.984 . S
N1695 H1699 0.985 . S
H1696 N1691 0.984 . S
H1697 N1691 0.985 . S
H1698 N1695 0.984 . S
H1699 N1695 0.985 . S
H1700 N1694 0.984 . S
H1701 N1694 0.984 . S
H1702 N1690 0.984 . S
H1703 N1690 0.985 . S
C1704 C1705 1.363 1_545 S
C1704 C1710 1.379 . S
C1704 N1712 1.356 . S
C1705 C1704 1.363 1_565 S
C1705 C1711 1.363 . S
C1706 C1707 1.363 1_565 S
C1706 C1711 1.379 . S
C1706 N1713 1.356 . S
C1707 C1706 1.363 1_545 S
C1707 C1710 1.363 . S
N1708 C1710 1.356 . S
N1708 H1720 0.984 . S
N1708 H1721 0.985 . S
N1709 C1711 1.356 . S
N1709 H1714 0.984 . S
N1709 H1715 0.985 . S
C1710 C1704 1.379 . S
C1710 C1707 1.363 . S
C1710 N1708 1.356 . S
C1711 C1705 1.363 . S
C1711 C1706 1.379 . S
C1711 N1709 1.356 . S
N1712 C1704 1.356 . S
N1712 H1718 0.984 . S
N1712 H1719 0.984 . S
N1713 C1706 1.356 . S
N1713 H1716 0.984 . S
N1713 H1717 0.985 . S
H1714 N1709 0.984 . S
H1715 N1709 0.985 . S
H1716 N1713 0.984 . S
H1717 N1713 0.985 . S
H1718 N1712 0.984 . S
H1719 N1712 0.984 . S
H1720 N1708 0.984 . S
H1721 N1708 0.985 . S
C1722 C1723 1.363 . S
C1722 C1728 1.379 . S
C1722 N1730 1.356 . S
C1723 C1722 1.363 . S
C1723 C1729 1.363 . S
C1724 C1725 1.363 . S
C1724 C1729 1.379 . S
C1724 N1731 1.356 . S
C1725 C1724 1.363 . S
C1725 C1728 1.363 . S
N1726 C1728 1.356 . S
N1726 H1738 0.984 . S
N1726 H1739 0.985 . S
N1727 C1729 1.356 . S
N1727 H1732 0.984 . S
N1727 H1733 0.985 . S
C1728 C1722 1.379 . S
C1728 C1725 1.363 . S
C1728 N1726 1.356 . S
C1729 C1723 1.363 . S
C1729 C1724 1.379 . S
C1729 N1727 1.356 . S
N1730 C1722 1.356 . S
N1730 H1736 0.984 . S
N1730 H1737 0.984 . S
N1731 C1724 1.356 . S
N1731 H1734 0.984 . S
N1731 H1735 0.985 . S
H1732 N1727 0.984 . S
H1733 N1727 0.985 . S
H1734 N1731 0.984 . S
H1735 N1731 0.985 . S
H1736 N1730 0.984 . S
H1737 N1730 0.984 . S
H1738 N1726 0.984 . S
H1739 N1726 0.985 . S
C1740 C1741 1.363 . S
C1740 C1746 1.379 . S
C1740 N1748 1.356 . S
C1741 C1740 1.363 . S
C1741 C1747 1.363 . S
C1742 C1743 1.363 . S
C1742 C1747 1.379 . S
C1742 N1749 1.356 . S
C1743 C1742 1.363 . S
C1743 C1746 1.363 . S
N1744 C1746 1.356 . S
N1744 H1756 0.984 . S
N1744 H1757 0.985 . S
N1745 C1747 1.356 . S
N1745 H1750 0.984 . S
N1745 H1751 0.985 . S
C1746 C1740 1.379 . S
C1746 C1743 1.363 . S
C1746 N1744 1.356 . S
C1747 C1741 1.363 . S
C1747 C1742 1.379 . S
C1747 N1745 1.356 . S
N1748 C1740 1.356 . S
N1748 H1754 0.984 . S
N1748 H1755 0.984 . S
N1749 C1742 1.356 . S
N1749 H1752 0.984 . S
N1749 H1753 0.985 . S
H1750 N1745 0.984 . S
H1751 N1745 0.985 . S
H1752 N1749 0.984 . S
H1753 N1749 0.985 . S
H1754 N1748 0.984 . S
H1755 N1748 0.984 . S
H1756 N1744 0.984 . S
H1757 N1744 0.985 . S
C1758 C1759 1.363 . S
C1758 C1764 1.379 . S
C1758 N1766 1.356 . S
C1759 C1758 1.363 . S
C1759 C1765 1.363 . S
C1760 C1761 1.363 . S
C1760 C1765 1.379 . S
C1760 N1767 1.356 . S
C1761 C1760 1.363 . S
C1761 C1764 1.363 . S
N1762 C1764 1.356 . S
N1762 H1774 0.984 . S
N1762 H1775 0.985 . S
N1763 C1765 1.356 . S
N1763 H1768 0.984 . S
N1763 H1769 0.985 . S
C1764 C1758 1.379 . S
C1764 C1761 1.363 . S
C1764 N1762 1.356 . S
C1765 C1759 1.363 . S
C1765 C1760 1.379 . S
C1765 N1763 1.356 . S
N1766 C1758 1.356 . S
N1766 H1772 0.984 . S
N1766 H1773 0.984 . S
N1767 C1760 1.356 . S
N1767 H1770 0.984 . S
N1767 H1771 0.985 . S
H1768 N1763 0.984 . S
H1769 N1763 0.985 . S
H1770 N1767 0.984 . S
H1771 N1767 0.985 . S
H1772 N1766 0.984 . S
H1773 N1766 0.984 . S
H1774 N1762 0.984 . S
H1775 N1762 0.985 . S
C1776 C1777 1.363 . S
C1776 C1782 1.379 . S
C1776 N1784 1.356 . S
C1777 C1776 1.363 . S
C1777 C1783 1.363 . S
C1778 C1779 1.363 . S
C1778 C1783 1.379 . S
C1778 N1785 1.356 . S
C1779 C1778 1.363 . S
C1779 C1782 1.363 . S
N1780 C1782 1.356 . S
N1780 H1792 0.984 . S
N1780 H1793 0.985 . S
N1781 C1783 1.356 . S
N1781 H1786 0.984 . S
N1781 H1787 0.985 . S
C1782 C1776 1.379 . S
C1782 C1779 1.363 . S
C1782 N1780 1.356 . S
C1783 C1777 1.363 . S
C1783 C1778 1.379 . S
C1783 N1781 1.356 . S
N1784 C1776 1.356 . S
N1784 H1790 0.984 . S
N1784 H1791 0.984 . S
N1785 C1778 1.356 . S
N1785 H1788 0.984 . S
N1785 H1789 0.985 . S
H1786 N1781 0.984 . S
H1787 N1781 0.985 . S
H1788 N1785 0.984 . S
H1789 N1785 0.985 . S
H1790 N1784 0.984 . S
H1791 N1784 0.984 . S
H1792 N1780 0.984 . S
H1793 N1780 0.985 . S
C1794 C1795 1.363 1_455 S
C1794 C1800 1.379 . S
C1794 N1802 1.356 . S
C1795 C1794 1.363 1_655 S
C1795 C1801 1.363 . S
C1796 C1797 1.380 . S
C1796 C1801 1.369 1_455 S
C1796 N1803 1.354 1_455 S
C1797 C1796 1.380 . S
C1797 C1800 1.363 . S
N1798 C1800 1.356 . S
N1798 H1810 0.984 . S
N1798 H1811 0.985 . S
N1799 C1801 1.356 . S
N1799 H1804 0.984 . S
N1799 H1805 0.985 . S
C1800 C1794 1.379 . S
C1800 C1797 1.363 . S
C1800 N1798 1.356 . S
C1801 C1795 1.363 . S
C1801 C1796 1.369 1_655 S
C1801 N1799 1.356 . S
N1802 C1794 1.356 . S
N1802 H1808 0.984 . S
N1802 H1809 0.984 . S
N1803 C1796 1.354 1_655 S
N1803 H1806 0.984 1_655 S
N1803 H1807 0.985 . S
H1804 N1799 0.984 . S
H1805 N1799 0.985 . S
H1806 N1803 0.984 1_455 S
H1807 N1803 0.985 . S
H1808 N1802 0.984 . S
H1809 N1802 0.984 . S
H1810 N1798 0.984 . S
H1811 N1798 0.985 . S
C1812 C1813 1.363 . S
C1812 C1818 1.379 . S
C1812 N1820 1.356 . S
C1813 C1812 1.363 . S
C1813 C1819 1.363 . S
C1814 C1815 1.363 . S
C1814 C1819 1.379 . S
C1814 N1821 1.356 . S
C1815 C1814 1.363 . S
C1815 C1818 1.363 . S
N1816 C1818 1.356 . S
N1816 H1828 0.984 . S
N1816 H1829 0.985 . S
N1817 C1819 1.356 . S
N1817 H1822 0.984 . S
N1817 H1823 0.985 . S
C1818 C1812 1.379 . S
C1818 C1815 1.363 . S
C1818 N1816 1.356 . S
C1819 C1813 1.363 . S
C1819 C1814 1.379 . S
C1819 N1817 1.356 . S
N1820 C1812 1.356 . S
N1820 H1826 0.984 . S
N1820 H1827 0.984 . S
N1821 C1814 1.356 . S
N1821 H1824 0.984 . S
N1821 H1825 0.985 . S
H1822 N1817 0.984 . S
H1823 N1817 0.985 . S
H1824 N1821 0.984 . S
H1825 N1821 0.985 . S
H1826 N1820 0.984 . S
H1827 N1820 0.984 . S
H1828 N1816 0.984 . S
H1829 N1816 0.985 . S
C1830 C1831 1.363 . S
C1830 C1836 1.379 . S
C1830 N1838 1.356 . S
C1831 C1830 1.363 . S
C1831 C1837 1.363 . S
C1832 C1833 1.363 . S
C1832 C1837 1.379 . S
C1832 N1839 1.356 . S
C1833 C1832 1.363 . S
C1833 C1836 1.363 . S
N1834 C1836 1.356 . S
N1834 H1846 0.984 . S
N1834 H1847 0.985 . S
N1835 C1837 1.356 . S
N1835 H1840 0.984 . S
N1835 H1841 0.985 . S
C1836 C1830 1.379 . S
C1836 C1833 1.363 . S
C1836 N1834 1.356 . S
C1837 C1831 1.363 . S
C1837 C1832 1.379 . S
C1837 N1835 1.356 . S
N1838 C1830 1.356 . S
N1838 H1844 0.984 . S
N1838 H1845 0.984 . S
N1839 C1832 1.356 . S
N1839 H1842 0.984 . S
N1839 H1843 0.985 . S
H1840 N1835 0.984 . S
H1841 N1835 0.985 . S
H1842 N1839 0.984 . S
H1843 N1839 0.985 . S
H1844 N1838 0.984 . S
H1845 N1838 0.984 . S
H1846 N1834 0.984 . S
H1847 N1834 0.985 . S
C1848 C1849 1.363 . S
C1848 C1854 1.379 . S
C1848 N1856 1.356 . S
C1849 C1848 1.363 . S
C1849 C1855 1.363 . S
C1850 C1851 1.363 . S
C1850 C1855 1.379 . S
C1850 N1857 1.356 . S
C1851 C1850 1.363 . S
C1851 C1854 1.363 . S
N1852 C1854 1.356 . S
N1852 H1864 0.984 . S
N1852 H1865 0.985 . S
N1853 C1855 1.356 . S
N1853 H1858 0.984 . S
N1853 H1859 0.985 . S
C1854 C1848 1.379 . S
C1854 C1851 1.363 . S
C1854 N1852 1.356 . S
C1855 C1849 1.363 . S
C1855 C1850 1.379 . S
C1855 N1853 1.356 . S
N1856 C1848 1.356 . S
N1856 H1862 0.984 . S
N1856 H1863 0.984 . S
N1857 C1850 1.356 . S
N1857 H1860 0.984 . S
N1857 H1861 0.985 . S
H1858 N1853 0.984 . S
H1859 N1853 0.985 . S
H1860 N1857 0.984 . S
H1861 N1857 0.985 . S
H1862 N1856 0.984 . S
H1863 N1856 0.984 . S
H1864 N1852 0.984 . S
H1865 N1852 0.985 . S
C1866 C1867 1.363 . S
C1866 C1872 1.379 . S
C1866 N1874 1.356 . S
C1867 C1866 1.363 . S
C1867 C1873 1.363 . S
C1868 C1869 1.363 . S
C1868 C1873 1.379 . S
C1868 N1875 1.356 . S
C1869 C1868 1.363 . S
C1869 C1872 1.363 . S
N1870 C1872 1.356 . S
N1870 H1882 0.984 . S
N1870 H1883 0.985 . S
N1871 C1873 1.356 . S
N1871 H1876 0.984 . S
N1871 H1877 0.985 . S
C1872 C1866 1.379 . S
C1872 C1869 1.363 . S
C1872 N1870 1.356 . S
C1873 C1867 1.363 . S
C1873 C1868 1.379 . S
C1873 N1871 1.356 . S
N1874 C1866 1.356 . S
N1874 H1880 0.984 . S
N1874 H1881 0.984 . S
N1875 C1868 1.356 . S
N1875 H1878 0.984 . S
N1875 H1879 0.985 . S
H1876 N1871 0.984 . S
H1877 N1871 0.985 . S
H1878 N1875 0.984 . S
H1879 N1875 0.985 . S
H1880 N1874 0.984 . S
H1881 N1874 0.984 . S
H1882 N1870 0.984 . S
H1883 N1870 0.985 . S
C1884 C1885 1.363 . S
C1884 C1890 1.379 . S
C1884 N1892 1.356 . S
C1885 C1884 1.363 . S
C1885 C1891 1.363 . S
C1886 C1887 1.363 . S
C1886 C1891 1.379 . S
C1886 N1893 1.356 . S
C1887 C1886 1.363 . S
C1887 C1890 1.363 . S
N1888 C1890 1.356 . S
N1888 H1900 0.984 . S
N1888 H1901 0.985 . S
N1889 C1891 1.356 . S
N1889 H1894 0.984 . S
N1889 H1895 0.985 . S
C1890 C1884 1.379 . S
C1890 C1887 1.363 . S
C1890 N1888 1.356 . S
C1891 C1885 1.363 . S
C1891 C1886 1.379 . S
C1891 N1889 1.356 . S
N1892 C1884 1.356 . S
N1892 H1898 0.984 . S
N1892 H1899 0.984 . S
N1893 C1886 1.356 . S
N1893 H1896 0.984 . S
N1893 H1897 0.985 . S
H1894 N1889 0.984 . S
H1895 N1889 0.985 . S
H1896 N1893 0.984 . S
H1897 N1893 0.985 . S
H1898 N1892 0.984 . S
H1899 N1892 0.984 . S
H1900 N1888 0.984 . S
H1901 N1888 0.985 . S
C1902 C1903 1.363 . S
C1902 C1908 1.379 1_455 S
C1902 N1910 1.356 1_455 S
C1903 C1902 1.363 . S
C1903 C1909 1.363 . S
C1904 C1905 1.363 1_455 S
C1904 C1909 1.379 . S
C1904 N1911 1.356 . S
C1905 C1904 1.363 1_655 S
C1905 C1908 1.363 . S
N1906 C1908 1.356 . S
N1906 H1918 0.984 . S
N1906 H1919 0.985 . S
N1907 C1909 1.356 . S
N1907 H1912 0.984 . S
N1907 H1913 0.985 . S
C1908 C1902 1.379 1_655 S
C1908 C1905 1.363 . S
C1908 N1906 1.356 . S
C1909 C1903 1.363 . S
C1909 C1904 1.379 . S
C1909 N1907 1.356 . S
N1910 C1902 1.356 1_655 S
N1910 H1916 0.983 . S
N1910 H1917 0.986 1_655 S
N1911 C1904 1.356 . S
N1911 H1914 0.984 . S
N1911 H1915 0.985 . S
H1912 N1907 0.984 . S
H1913 N1907 0.985 . S
H1914 N1911 0.984 . S
H1915 N1911 0.985 . S
H1916 N1910 0.983 . S
H1917 N1910 0.986 1_455 S
H1918 N1906 0.984 . S
H1919 N1906 0.985 . S
C1920 C1921 1.363 . S
C1920 C1926 1.379 . S
C1920 N1928 1.356 . S
C1921 C1920 1.363 . S
C1921 C1927 1.363 . S
C1922 C1923 1.363 . S
C1922 C1927 1.379 . S
C1922 N1929 1.356 . S
C1923 C1922 1.363 . S
C1923 C1926 1.363 . S
N1924 C1926 1.356 . S
N1924 H1936 0.984 . S
N1924 H1937 0.985 . S
N1925 C1927 1.356 . S
N1925 H1930 0.984 . S
N1925 H1931 0.985 . S
C1926 C1920 1.379 . S
C1926 C1923 1.363 . S
C1926 N1924 1.356 . S
C1927 C1921 1.363 . S
C1927 C1922 1.379 . S
C1927 N1925 1.356 . S
N1928 C1920 1.356 . S
N1928 H1934 0.984 . S
N1928 H1935 0.984 . S
N1929 C1922 1.356 . S
N1929 H1932 0.984 . S
N1929 H1933 0.985 . S
H1930 N1925 0.984 . S
H1931 N1925 0.985 . S
H1932 N1929 0.984 . S
H1933 N1929 0.985 . S
H1934 N1928 0.984 . S
H1935 N1928 0.984 . S
H1936 N1924 0.984 . S
H1937 N1924 0.985 . S
C1938 C1939 1.363 . S
C1938 C1944 1.379 . S
C1938 N1946 1.356 . S
C1939 C1938 1.363 . S
C1939 C1945 1.363 . S
C1940 C1941 1.363 . S
C1940 C1945 1.379 . S
C1940 N1947 1.356 . S
C1941 C1940 1.363 . S
C1941 C1944 1.363 . S
N1942 C1944 1.356 . S
N1942 H1954 0.984 . S
N1942 H1955 0.985 . S
N1943 C1945 1.356 . S
N1943 H1948 0.984 . S
N1943 H1949 0.985 . S
C1944 C1938 1.379 . S
C1944 C1941 1.363 . S
C1944 N1942 1.356 . S
C1945 C1939 1.363 . S
C1945 C1940 1.379 . S
C1945 N1943 1.356 . S
N1946 C1938 1.356 . S
N1946 H1952 0.984 . S
N1946 H1953 0.984 . S
N1947 C1940 1.356 . S
N1947 H1950 0.984 . S
N1947 H1951 0.985 . S
H1948 N1943 0.984 . S
H1949 N1943 0.985 . S
H1950 N1947 0.984 . S
H1951 N1947 0.985 . S
H1952 N1946 0.984 . S
H1953 N1946 0.984 . S
H1954 N1942 0.984 . S
H1955 N1942 0.985 . S
C1956 C1957 1.363 . S
C1956 C1962 1.379 . S
C1956 N1964 1.356 . S
C1957 C1956 1.363 . S
C1957 C1963 1.363 . S
C1958 C1959 1.363 . S
C1958 C1963 1.379 . S
C1958 N1965 1.356 . S
C1959 C1958 1.363 . S
C1959 C1962 1.363 . S
N1960 C1962 1.356 . S
N1960 H1972 0.984 . S
N1960 H1973 0.985 . S
N1961 C1963 1.356 . S
N1961 H1966 0.984 . S
N1961 H1967 0.985 . S
C1962 C1956 1.379 . S
C1962 C1959 1.363 . S
C1962 N1960 1.356 . S
C1963 C1957 1.363 . S
C1963 C1958 1.379 . S
C1963 N1961 1.356 . S
N1964 C1956 1.356 . S
N1964 H1970 0.984 . S
N1964 H1971 0.984 . S
N1965 C1958 1.356 . S
N1965 H1968 0.984 . S
N1965 H1969 0.985 . S
H1966 N1961 0.984 . S
H1967 N1961 0.985 . S
H1968 N1965 0.984 . S
H1969 N1965 0.985 . S
H1970 N1964 0.984 . S
H1971 N1964 0.984 . S
H1972 N1960 0.984 . S
H1973 N1960 0.985 . S
C1974 C1975 1.363 . S
C1974 C1980 1.379 . S
C1974 N1982 1.356 . S
C1975 C1974 1.363 . S
C1975 C1981 1.363 1_554 S
C1976 C1977 1.363 . S
C1976 C1981 1.379 . S
C1976 N1983 1.356 . S
C1977 C1976 1.363 . S
C1977 C1980 1.363 1_556 S
N1978 C1980 1.356 . S
N1978 H1990 0.984 . S
N1978 H1991 0.985 . S
N1979 C1981 1.356 . S
N1979 H1984 0.984 . S
N1979 H1985 0.985 . S
C1980 C1974 1.379 . S
C1980 C1977 1.363 1_554 S
C1980 N1978 1.356 . S
C1981 C1975 1.363 1_556 S
C1981 C1976 1.379 . S
C1981 N1979 1.356 . S
N1982 C1974 1.356 . S
N1982 H1988 0.984 . S
N1982 H1989 0.984 . S
N1983 C1976 1.356 . S
N1983 H1986 0.984 . S
N1983 H1987 0.985 . S
H1984 N1979 0.984 . S
H1985 N1979 0.985 . S
H1986 N1983 0.984 . S
H1987 N1983 0.985 . S
H1988 N1982 0.984 . S
H1989 N1982 0.984 . S
H1990 N1978 0.984 . S
H1991 N1978 0.985 . S
C1992 C1993 1.363 . S
C1992 C1998 1.379 . S
C1992 N2000 1.356 . S
C1993 C1992 1.363 . S
C1993 C1999 1.363 . S
C1994 C1995 1.363 . S
C1994 C1999 1.379 . S
C1994 N2001 1.356 . S
C1995 C1994 1.363 . S
C1995 C1998 1.363 . S
N1996 C1998 1.356 . S
N1996 H2008 0.984 . S
N1996 H2009 0.985 . S
N1997 C1999 1.356 . S
N1997 H2002 0.984 . S
N1997 H2003 0.985 . S
C1998 C1992 1.379 . S
C1998 C1995 1.363 . S
C1998 N1996 1.356 . S
C1999 C1993 1.363 . S
C1999 C1994 1.379 . S
C1999 N1997 1.356 . S
N2000 C1992 1.356 . S
N2000 H2006 0.984 . S
N2000 H2007 0.984 . S
N2001 C1994 1.356 . S
N2001 H2004 0.984 . S
N2001 H2005 0.985 . S
H2002 N1997 0.984 . S
H2003 N1997 0.985 . S
H2004 N2001 0.984 . S
H2005 N2001 0.985 . S
H2006 N2000 0.984 . S
H2007 N2000 0.984 . S
H2008 N1996 0.984 . S
H2009 N1996 0.985 . S
C2010 C2011 1.363 . S
C2010 C2016 1.379 . S
C2010 N2018 1.356 . S
C2011 C2010 1.363 . S
C2011 C2017 1.363 . S
C2012 C2013 1.363 . S
C2012 C2017 1.379 . S
C2012 N2019 1.356 . S
C2013 C2012 1.363 . S
C2013 C2016 1.363 . S
N2014 C2016 1.356 . S
N2014 H2026 0.984 . S
N2014 H2027 0.985 . S
N2015 C2017 1.356 . S
N2015 H2020 0.984 . S
N2015 H2021 0.985 . S
C2016 C2010 1.379 . S
C2016 C2013 1.363 . S
C2016 N2014 1.356 . S
C2017 C2011 1.363 . S
C2017 C2012 1.379 . S
C2017 N2015 1.356 . S
N2018 C2010 1.356 . S
N2018 H2024 0.984 . S
N2018 H2025 0.984 . S
N2019 C2012 1.356 . S
N2019 H2022 0.984 . S
N2019 H2023 0.985 . S
H2020 N2015 0.984 . S
H2021 N2015 0.985 . S
H2022 N2019 0.984 . S
H2023 N2019 0.985 . S
H2024 N2018 0.984 . S
H2025 N2018 0.984 . S
H2026 N2014 0.984 . S
H2027 N2014 0.985 . S
C2028 C2029 1.363 . S
C2028 C2034 1.379 . S
C2028 N2036 1.356 . S
C2029 C2028 1.363 . S
C2029 C2035 1.363 . S
C2030 C2031 1.363 . S
C2030 C2035 1.379 . S
C2030 N2037 1.356 . S
C2031 C2030 1.363 . S
C2031 C2034 1.363 . S
N2032 C2034 1.356 . S
N2032 H2044 0.984 . S
N2032 H2045 0.985 . S
N2033 C2035 1.356 . S
N2033 H2038 0.984 . S
N2033 H2039 0.985 . S
C2034 C2028 1.379 . S
C2034 C2031 1.363 . S
C2034 N2032 1.356 . S
C2035 C2029 1.363 . S
C2035 C2030 1.379 . S
C2035 N2033 1.356 . S
N2036 C2028 1.356 . S
N2036 H2042 0.984 . S
N2036 H2043 0.984 . S
N2037 C2030 1.356 . S
N2037 H2040 0.984 . S
N2037 H2041 0.985 . S
H2038 N2033 0.984 . S
H2039 N2033 0.985 . S
H2040 N2037 0.984 . S
H2041 N2037 0.985 . S
H2042 N2036 0.984 . S
H2043 N2036 0.984 . S
H2044 N2032 0.984 . S
H2045 N2032 0.985 . S
C2046 C2047 1.363 . S
C2046 C2052 1.388 . S
C2046 N2054 1.356 . S
C2047 C2046 1.363 . S
C2047 C2053 1.363 1_556 S
C2048 C2049 1.363 . S
C2048 C2053 1.379 . S
C2048 N2055 1.356 . S
C2049 C2048 1.363 . S
C2049 C2052 1.346 1_554 S
N2050 C2052 1.359 . S
N2050 H2062 0.984 . S
N2050 H2063 0.985 1_556 S
N2051 C2053 1.356 . S
N2051 H2056 0.984 . S
N2051 H2057 0.985 . S
C2052 C2046 1.388 . S
C2052 C2049 1.346 1_556 S
C2052 N2050 1.359 . S
C2053 C2047 1.363 1_554 S
C2053 C2048 1.379 . S
C2053 N2051 1.356 . S
N2054 C2046 1.356 . S
N2054 H2060 0.984 . S
N2054 H2061 0.984 . S
N2055 C2048 1.356 . S
N2055 H2058 0.984 . S
N2055 H2059 0.985 . S
H2056 N2051 0.984 . S
H2057 N2051 0.985 . S
H2058 N2055 0.984 . S
H2059 N2055 0.985 . S
H2060 N2054 0.984 . S
H2061 N2054 0.984 . S
H2062 N2050 0.984 . S
H2063 N2050 0.985 1_554 S
C2064 C2065 1.363 . S
C2064 C2070 1.379 . S
C2064 N2072 1.356 . S
C2065 C2064 1.363 . S
C2065 C2071 1.363 . S
C2066 C2067 1.363 . S
C2066 C2071 1.379 . S
C2066 N2073 1.356 . S
C2067 C2066 1.363 . S
C2067 C2070 1.363 . S
N2068 C2070 1.356 . S
N2068 H2080 0.984 . S
N2068 H2081 0.985 . S
N2069 C2071 1.356 . S
N2069 H2074 0.984 . S
N2069 H2075 0.985 . S
C2070 C2064 1.379 . S
C2070 C2067 1.363 . S
C2070 N2068 1.356 . S
C2071 C2065 1.363 . S
C2071 C2066 1.379 . S
C2071 N2069 1.356 . S
N2072 C2064 1.356 . S
N2072 H2078 0.984 . S
N2072 H2079 0.984 . S
N2073 C2066 1.356 . S
N2073 H2076 0.984 . S
N2073 H2077 0.985 . S
H2074 N2069 0.984 . S
H2075 N2069 0.985 . S
H2076 N2073 0.984 . S
H2077 N2073 0.985 . S
H2078 N2072 0.984 . S
H2079 N2072 0.984 . S
H2080 N2068 0.984 . S
H2081 N2068 0.985 . S
C2082 C2083 1.363 . S
C2082 C2088 1.379 . S
C2082 N2090 1.356 . S
C2083 C2082 1.363 . S
C2083 C2089 1.363 . S
C2084 C2085 1.363 . S
C2084 C2089 1.379 . S
C2084 N2091 1.356 . S
C2085 C2084 1.363 . S
C2085 C2088 1.363 . S
N2086 C2088 1.356 . S
N2086 H2098 0.984 . S
N2086 H2099 0.985 . S
N2087 C2089 1.356 . S
N2087 H2092 0.984 . S
N2087 H2093 0.985 . S
C2088 C2082 1.379 . S
C2088 C2085 1.363 . S
C2088 N2086 1.356 . S
C2089 C2083 1.363 . S
C2089 C2084 1.379 . S
C2089 N2087 1.356 . S
N2090 C2082 1.356 . S
N2090 H2096 0.984 . S
N2090 H2097 0.984 . S
N2091 C2084 1.356 . S
N2091 H2094 0.984 . S
N2091 H2095 0.985 . S
H2092 N2087 0.984 . S
H2093 N2087 0.985 . S
H2094 N2091 0.984 . S
H2095 N2091 0.985 . S
H2096 N2090 0.984 . S
H2097 N2090 0.984 . S
H2098 N2086 0.984 . S
H2099 N2086 0.985 . S
C2100 C2101 1.363 . S
C2100 C2106 1.379 . S
C2100 N2108 1.356 . S
C2101 C2100 1.363 . S
C2101 C2107 1.363 . S
C2102 C2103 1.363 . S
C2102 C2107 1.379 . S
C2102 N2109 1.356 . S
C2103 C2102 1.363 . S
C2103 C2106 1.363 . S
N2104 C2106 1.356 . S
N2104 H2116 0.984 . S
N2104 H2117 0.985 . S
N2105 C2107 1.356 . S
N2105 H2110 0.984 . S
N2105 H2111 0.985 . S
C2106 C2100 1.379 . S
C2106 C2103 1.363 . S
C2106 N2104 1.356 . S
C2107 C2101 1.363 . S
C2107 C2102 1.379 . S
C2107 N2105 1.356 . S
N2108 C2100 1.356 . S
N2108 H2114 0.984 . S
N2108 H2115 0.984 . S
N2109 C2102 1.356 . S
N2109 H2112 0.984 . S
N2109 H2113 0.985 . S
H2110 N2105 0.984 . S
H2111 N2105 0.985 . S
H2112 N2109 0.984 . S
H2113 N2109 0.985 . S
H2114 N2108 0.984 . S
H2115 N2108 0.984 . S
H2116 N2104 0.984 . S
H2117 N2104 0.985 . S
C2118 C2119 1.363 . S
C2118 C2124 1.379 . S
C2118 N2126 1.356 . S
C2119 C2118 1.363 . S
C2119 C2125 1.363 . S
C2120 C2121 1.363 . S
C2120 C2125 1.379 . S
C2120 N2127 1.356 . S
C2121 C2120 1.363 . S
C2121 C2124 1.363 . S
N2122 C2124 1.356 . S
N2122 H2134 0.984 . S
N2122 H2135 0.985 . S
N2123 C2125 1.356 . S
N2123 H2128 0.984 . S
N2123 H2129 0.985 . S
C2124 C2118 1.379 . S
C2124 C2121 1.363 . S
C2124 N2122 1.356 . S
C2125 C2119 1.363 . S
C2125 C2120 1.379 . S
C2125 N2123 1.356 . S
N2126 C2118 1.356 . S
N2126 H2132 0.984 . S
N2126 H2133 0.984 . S
N2127 C2120 1.356 . S
N2127 H2130 0.984 . S
N2127 H2131 0.985 . S
H2128 N2123 0.984 . S
H2129 N2123 0.985 . S
H2130 N2127 0.984 . S
H2131 N2127 0.985 . S
H2132 N2126 0.984 . S
H2133 N2126 0.984 . S
H2134 N2122 0.984 . S
H2135 N2122 0.985 . S
C2136 C2137 1.363 . S
C2136 C2142 1.379 1_545 S
C2136 N2144 1.356 . S
C2137 C2136 1.363 . S
C2137 C2143 1.363 . S
C2138 C2139 1.363 1_545 S
C2138 C2143 1.379 . S
C2138 N2145 1.356 . S
C2139 C2138 1.363 1_565 S
C2139 C2142 1.363 . S
N2140 C2142 1.356 . S
N2140 H2152 0.984 . S
N2140 H2153 0.985 . S
N2141 C2143 1.356 . S
N2141 H2146 0.984 . S
N2141 H2147 0.985 . S
C2142 C2136 1.379 1_565 S
C2142 C2139 1.363 . S
C2142 N2140 1.356 . S
C2143 C2137 1.363 . S
C2143 C2138 1.379 . S
C2143 N2141 1.356 . S
N2144 C2136 1.356 . S
N2144 H2150 0.984 1_545 S
N2144 H2151 0.984 . S
N2145 C2138 1.356 . S
N2145 H2148 0.984 . S
N2145 H2149 0.985 . S
H2146 N2141 0.984 . S
H2147 N2141 0.985 . S
H2148 N2145 0.984 . S
H2149 N2145 0.985 . S
H2150 N2144 0.984 1_565 S
H2151 N2144 0.984 . S
H2152 N2140 0.984 . S
H2153 N2140 0.985 . S
C2154 C2155 1.363 . S
C2154 C2160 1.379 . S
C2154 N2162 1.356 . S
C2155 C2154 1.363 . S
C2155 C2161 1.363 . S
C2156 C2157 1.363 . S
C2156 C2161 1.379 . S
C2156 N2163 1.356 . S
C2157 C2156 1.363 . S
C2157 C2160 1.363 . S
N2158 C2160 1.356 . S
N2158 H2170 0.984 . S
N2158 H2171 0.985 . S
N2159 C2161 1.356 . S
N2159 H2164 0.984 . S
N2159 H2165 0.985 . S
C2160 C2154 1.379 . S
C2160 C2157 1.363 . S
C2160 N2158 1.356 . S
C2161 C2155 1.363 . S
C2161 C2156 1.379 . S
C2161 N2159 1.356 . S
N2162 C2154 1.356 . S
N2162 H2168 0.984 . S
N2162 H2169 0.984 . S
N2163 C2156 1.356 . S
N2163 H2166 0.984 . S
N2163 H2167 0.985 . S
H2164 N2159 0.984 . S
H2165 N2159 0.985 . S
H2166 N2163 0.984 . S
H2167 N2163 0.985 . S
H2168 N2162 0.984 . S
H2169 N2162 0.984 . S
H2170 N2158 0.984 . S
H2171 N2158 0.985 . S
C2172 C2173 1.363 . S
C2172 C2178 1.379 . S
C2172 N2180 1.356 . S
C2173 C2172 1.363 . S
C2173 C2179 1.363 . S
C2174 C2175 1.363 . S
C2174 C2179 1.379 . S
C2174 N2181 1.356 . S
C2175 C2174 1.363 . S
C2175 C2178 1.363 . S
N2176 C2178 1.356 . S
N2176 H2188 0.984 . S
N2176 H2189 0.985 . S
N2177 C2179 1.356 . S
N2177 H2182 0.984 . S
N2177 H2183 0.985 . S
C2178 C2172 1.379 . S
C2178 C2175 1.363 . S
C2178 N2176 1.356 . S
C2179 C2173 1.363 . S
C2179 C2174 1.379 . S
C2179 N2177 1.356 . S
N2180 C2172 1.356 . S
N2180 H2186 0.984 . S
N2180 H2187 0.984 . S
N2181 C2174 1.356 . S
N2181 H2184 0.984 . S
N2181 H2185 0.985 . S
H2182 N2177 0.984 . S
H2183 N2177 0.985 . S
H2184 N2181 0.984 . S
H2185 N2181 0.985 . S
H2186 N2180 0.984 . S
H2187 N2180 0.984 . S
H2188 N2176 0.984 . S
H2189 N2176 0.985 . S
C2190 C2191 1.363 . S
C2190 C2196 1.379 . S
C2190 N2198 1.356 . S
C2191 C2190 1.363 . S
C2191 C2197 1.363 . S
C2192 C2193 1.363 . S
C2192 C2197 1.379 . S
C2192 N2199 1.356 . S
C2193 C2192 1.363 . S
C2193 C2196 1.363 . S
N2194 C2196 1.356 . S
N2194 H2206 0.984 . S
N2194 H2207 0.985 . S
N2195 C2197 1.356 . S
N2195 H2200 0.984 . S
N2195 H2201 0.985 . S
C2196 C2190 1.379 . S
C2196 C2193 1.363 . S
C2196 N2194 1.356 . S
C2197 C2191 1.363 . S
C2197 C2192 1.379 . S
C2197 N2195 1.356 . S
N2198 C2190 1.356 . S
N2198 H2204 0.984 . S
N2198 H2205 0.984 . S
N2199 C2192 1.356 . S
N2199 H2202 0.984 . S
N2199 H2203 0.985 . S
H2200 N2195 0.984 . S
H2201 N2195 0.985 . S
H2202 N2199 0.984 . S
H2203 N2199 0.985 . S
H2204 N2198 0.984 . S
H2205 N2198 0.984 . S
H2206 N2194 0.984 . S
H2207 N2194 0.985 . S
C2208 C2209 1.363 . S
C2208 C2214 1.379 . S
C2208 N2216 1.356 . S
C2209 C2208 1.363 . S
C2209 C2215 1.363 . S
C2210 C2211 1.363 . S
C2210 C2215 1.379 . S
C2210 N2217 1.356 . S
C2211 C2210 1.363 . S
C2211 C2214 1.363 . S
N2212 C2214 1.356 . S
N2212 H2224 0.984 . S
N2212 H2225 0.985 . S
N2213 C2215 1.356 . S
N2213 H2218 0.984 . S
N2213 H2219 0.985 . S
C2214 C2208 1.379 . S
C2214 C2211 1.363 . S
C2214 N2212 1.356 . S
C2215 C2209 1.363 . S
C2215 C2210 1.379 . S
C2215 N2213 1.356 . S
N2216 C2208 1.356 . S
N2216 H2222 0.984 . S
N2216 H2223 0.984 . S
N2217 C2210 1.356 . S
N2217 H2220 0.984 . S
N2217 H2221 0.985 . S
H2218 N2213 0.984 . S
H2219 N2213 0.985 . S
H2220 N2217 0.984 . S
H2221 N2217 0.985 . S
H2222 N2216 0.984 . S
H2223 N2216 0.984 . S
H2224 N2212 0.984 . S
H2225 N2212 0.985 . S
C2226 C2227 1.363 . S
C2226 C2232 1.379 . S
C2226 N2234 1.356 . S
C2227 C2226 1.363 . S
C2227 C2233 1.363 . S
C2228 C2229 1.363 . S
C2228 C2233 1.379 . S
C2228 N2235 1.356 . S
C2229 C2228 1.363 . S
C2229 C2232 1.363 . S
N2230 C2232 1.356 . S
N2230 H2242 0.984 . S
N2230 H2243 0.985 . S
N2231 C2233 1.356 . S
N2231 H2236 0.984 . S
N2231 H2237 0.985 . S
C2232 C2226 1.379 . S
C2232 C2229 1.363 . S
C2232 N2230 1.356 . S
C2233 C2227 1.363 . S
C2233 C2228 1.379 . S
C2233 N2231 1.356 . S
N2234 C2226 1.356 . S
N2234 H2240 0.984 . S
N2234 H2241 0.984 . S
N2235 C2228 1.356 . S
N2235 H2238 0.984 . S
N2235 H2239 0.985 . S
H2236 N2231 0.984 . S
H2237 N2231 0.985 . S
H2238 N2235 0.984 . S
H2239 N2235 0.985 . S
H2240 N2234 0.984 . S
H2241 N2234 0.984 . S
H2242 N2230 0.984 . S
H2243 N2230 0.985 . S
C2244 C2245 1.363 . S
C2244 C2250 1.379 . S
C2244 N2252 1.356 . S
C2245 C2244 1.363 . S
C2245 C2251 1.363 . S
C2246 C2247 1.363 . S
C2246 C2251 1.379 . S
C2246 N2253 1.356 . S
C2247 C2246 1.363 . S
C2247 C2250 1.363 . S
N2248 C2250 1.356 . S
N2248 H2260 0.984 . S
N2248 H2261 0.985 . S
N2249 C2251 1.356 . S
N2249 H2254 0.984 . S
N2249 H2255 0.985 . S
C2250 C2244 1.379 . S
C2250 C2247 1.363 . S
C2250 N2248 1.356 . S
C2251 C2245 1.363 . S
C2251 C2246 1.379 . S
C2251 N2249 1.356 . S
N2252 C2244 1.356 . S
N2252 H2258 0.984 . S
N2252 H2259 0.984 . S
N2253 C2246 1.356 . S
N2253 H2256 0.984 . S
N2253 H2257 0.985 . S
H2254 N2249 0.984 . S
H2255 N2249 0.985 . S
H2256 N2253 0.984 . S
H2257 N2253 0.985 . S
H2258 N2252 0.984 . S
H2259 N2252 0.984 . S
H2260 N2248 0.984 . S
H2261 N2248 0.985 . S
C2262 C2263 1.392 . S
C2262 C2268 1.363 1_455 S
C2262 N2270 1.353 1_455 S
C2263 C2262 1.392 . S
C2263 C2269 1.363 . S
C2264 C2265 1.363 1_455 S
C2264 C2269 1.379 . S
C2264 N2271 1.356 . S
C2265 C2264 1.363 1_655 S
C2265 C2268 1.363 . S
N2266 C2268 1.356 . S
N2266 H2278 0.984 . S
N2266 H2279 0.985 . S
N2267 C2269 1.356 . S
N2267 H2272 0.984 . S
N2267 H2273 0.985 . S
C2268 C2262 1.363 1_655 S
C2268 C2265 1.363 . S
C2268 N2266 1.356 . S
C2269 C2263 1.363 . S
C2269 C2264 1.379 . S
C2269 N2267 1.356 . S
N2270 C2262 1.353 1_655 S
N2270 H2276 0.984 . S
N2270 H2277 0.984 1_655 S
N2271 C2264 1.356 . S
N2271 H2274 0.984 . S
N2271 H2275 0.985 . S
H2272 N2267 0.984 . S
H2273 N2267 0.985 . S
H2274 N2271 0.984 . S
H2275 N2271 0.985 . S
H2276 N2270 0.984 . S
H2277 N2270 0.984 1_455 S
H2278 N2266 0.984 . S
H2279 N2266 0.985 . S
C2280 C2281 1.363 . S
C2280 C2286 1.379 . S
C2280 N2288 1.356 . S
C2281 C2280 1.363 . S
C2281 C2287 1.363 . S
C2282 C2283 1.363 . S
C2282 C2287 1.379 . S
C2282 N2289 1.356 . S
C2283 C2282 1.363 . S
C2283 C2286 1.363 . S
N2284 C2286 1.356 . S
N2284 H2296 0.984 . S
N2284 H2297 0.985 . S
N2285 C2287 1.356 . S
N2285 H2290 0.984 . S
N2285 H2291 0.985 . S
C2286 C2280 1.379 . S
C2286 C2283 1.363 . S
C2286 N2284 1.356 . S
C2287 C2281 1.363 . S
C2287 C2282 1.379 . S
C2287 N2285 1.356 . S
N2288 C2280 1.356 . S
N2288 H2294 0.984 . S
N2288 H2295 0.984 . S
N2289 C2282 1.356 . S
N2289 H2292 0.984 . S
N2289 H2293 0.985 . S
H2290 N2285 0.984 . S
H2291 N2285 0.985 . S
H2292 N2289 0.984 . S
H2293 N2289 0.985 . S
H2294 N2288 0.984 . S
H2295 N2288 0.984 . S
H2296 N2284 0.984 . S
H2297 N2284 0.985 . S
C2298 C2299 1.363 1_455 S
C2298 C2304 1.379 . S
C2298 N2306 1.356 . S
C2299 C2298 1.363 1_655 S
C2299 C2305 1.363 . S
C2300 C2301 1.363 . S
C2300 C2305 1.379 1_455 S
C2300 N2307 1.354 1_455 S
C2301 C2300 1.363 . S
C2301 C2304 1.363 . S
N2302 C2304 1.356 . S
N2302 H2314 0.984 . S
N2302 H2315 0.985 . S
N2303 C2305 1.356 . S
N2303 H2308 0.984 . S
N2303 H2309 0.985 . S
C2304 C2298 1.379 . S
C2304 C2301 1.363 . S
C2304 N2302 1.356 . S
C2305 C2299 1.363 . S
C2305 C2300 1.379 1_655 S
C2305 N2303 1.356 . S
N2306 C2298 1.356 . S
N2306 H2312 0.984 . S
N2306 H2313 0.984 . S
N2307 C2300 1.354 1_655 S
N2307 H2310 0.966 1_655 S
N2307 H2311 1.007 . S
H2308 N2303 0.984 . S
H2309 N2303 0.985 . S
H2310 N2307 0.966 1_455 S
H2311 N2307 1.007 . S
H2312 N2306 0.984 . S
H2313 N2306 0.984 . S
H2314 N2302 0.984 . S
H2315 N2302 0.985 . S
C2316 C2317 1.363 . S
C2316 C2322 1.379 . S
C2316 N2324 1.356 . S
C2317 C2316 1.363 . S
C2317 C2323 1.363 . S
C2318 C2319 1.363 . S
C2318 C2323 1.379 . S
C2318 N2325 1.356 . S
C2319 C2318 1.363 . S
C2319 C2322 1.363 . S
N2320 C2322 1.356 . S
N2320 H2332 0.984 . S
N2320 H2333 0.985 . S
N2321 C2323 1.356 . S
N2321 H2326 0.984 . S
N2321 H2327 0.985 . S
C2322 C2316 1.379 . S
C2322 C2319 1.363 . S
C2322 N2320 1.356 . S
C2323 C2317 1.363 . S
C2323 C2318 1.379 . S
C2323 N2321 1.356 . S
N2324 C2316 1.356 . S
N2324 H2330 0.984 . S
N2324 H2331 0.984 . S
N2325 C2318 1.356 . S
N2325 H2328 0.984 . S
N2325 H2329 0.985 . S
H2326 N2321 0.984 . S
H2327 N2321 0.985 . S
H2328 N2325 0.984 . S
H2329 N2325 0.985 . S
H2330 N2324 0.984 . S
H2331 N2324 0.984 . S
H2332 N2320 0.984 . S
H2333 N2320 0.985 . S
C2334 C2335 1.363 . S
C2334 C2340 1.379 . S
C2334 N2342 1.356 . S
C2335 C2334 1.363 . S
C2335 C2341 1.363 . S
C2336 C2337 1.363 . S
C2336 C2341 1.379 . S
C2336 N2343 1.356 . S
C2337 C2336 1.363 . S
C2337 C2340 1.363 . S
N2338 C2340 1.356 . S
N2338 H2350 0.984 . S
N2338 H2351 0.985 . S
N2339 C2341 1.356 . S
N2339 H2344 0.984 . S
N2339 H2345 0.985 . S
C2340 C2334 1.379 . S
C2340 C2337 1.363 . S
C2340 N2338 1.356 . S
C2341 C2335 1.363 . S
C2341 C2336 1.379 . S
C2341 N2339 1.356 . S
N2342 C2334 1.356 . S
N2342 H2348 0.984 . S
N2342 H2349 0.984 . S
N2343 C2336 1.356 . S
N2343 H2346 0.984 . S
N2343 H2347 0.985 . S
H2344 N2339 0.984 . S
H2345 N2339 0.985 . S
H2346 N2343 0.984 . S
H2347 N2343 0.985 . S
H2348 N2342 0.984 . S
H2349 N2342 0.984 . S
H2350 N2338 0.984 . S
H2351 N2338 0.985 . S
C2352 C2353 1.363 . S
C2352 C2358 1.379 . S
C2352 N2360 1.356 . S
C2353 C2352 1.363 . S
C2353 C2359 1.363 . S
C2354 C2355 1.363 . S
C2354 C2359 1.379 . S
C2354 N2361 1.356 . S
C2355 C2354 1.363 . S
C2355 C2358 1.363 . S
N2356 C2358 1.356 . S
N2356 H2368 0.984 . S
N2356 H2369 0.985 . S
N2357 C2359 1.356 . S
N2357 H2362 0.984 . S
N2357 H2363 0.985 . S
C2358 C2352 1.379 . S
C2358 C2355 1.363 . S
C2358 N2356 1.356 . S
C2359 C2353 1.363 . S
C2359 C2354 1.379 . S
C2359 N2357 1.356 . S
N2360 C2352 1.356 . S
N2360 H2366 0.984 . S
N2360 H2367 0.984 . S
N2361 C2354 1.356 . S
N2361 H2364 0.984 . S
N2361 H2365 0.985 . S
H2362 N2357 0.984 . S
H2363 N2357 0.985 . S
H2364 N2361 0.984 . S
H2365 N2361 0.985 . S
H2366 N2360 0.984 . S
H2367 N2360 0.984 . S
H2368 N2356 0.984 . S
H2369 N2356 0.985 . S
C2370 C2371 1.363 . S
C2370 C2376 1.379 . S
C2370 N2378 1.356 . S
C2371 C2370 1.363 . S
C2371 C2377 1.363 1_556 S
C2372 C2373 1.363 . S
C2372 C2377 1.379 . S
C2372 N2379 1.356 . S
C2373 C2372 1.363 . S
C2373 C2376 1.363 1_554 S
N2374 C2376 1.356 . S
N2374 H2386 0.984 . S
N2374 H2387 0.986 1_556 S
N2375 C2377 1.356 . S
N2375 H2380 0.984 . S
N2375 H2381 0.985 . S
C2376 C2370 1.379 . S
C2376 C2373 1.363 1_556 S
C2376 N2374 1.356 . S
C2377 C2371 1.363 1_554 S
C2377 C2372 1.379 . S
C2377 N2375 1.356 . S
N2378 C2370 1.356 . S
N2378 H2384 0.984 . S
N2378 H2385 0.984 . S
N2379 C2372 1.356 . S
N2379 H2382 0.984 . S
N2379 H2383 0.985 . S
H2380 N2375 0.984 . S
H2381 N2375 0.985 . S
H2382 N2379 0.984 . S
H2383 N2379 0.985 . S
H2384 N2378 0.984 . S
H2385 N2378 0.984 . S
H2386 N2374 0.984 . S
H2387 N2374 0.986 1_554 S
C2388 C2389 1.363 . S
C2388 C2394 1.379 . S
C2388 N2396 1.356 . S
C2389 C2388 1.363 . S
C2389 C2395 1.363 . S
C2390 C2391 1.363 . S
C2390 C2395 1.379 . S
C2390 N2397 1.356 . S
C2391 C2390 1.363 . S
C2391 C2394 1.363 . S
N2392 C2394 1.356 . S
N2392 H2404 0.984 . S
N2392 H2405 0.985 . S
N2393 C2395 1.356 . S
N2393 H2398 0.984 . S
N2393 H2399 0.985 . S
C2394 C2388 1.379 . S
C2394 C2391 1.363 . S
C2394 N2392 1.356 . S
C2395 C2389 1.363 . S
C2395 C2390 1.379 . S
C2395 N2393 1.356 . S
N2396 C2388 1.356 . S
N2396 H2402 0.984 . S
N2396 H2403 0.984 . S
N2397 C2390 1.356 . S
N2397 H2400 0.984 . S
N2397 H2401 0.985 . S
H2398 N2393 0.984 . S
H2399 N2393 0.985 . S
H2400 N2397 0.984 . S
H2401 N2397 0.985 . S
H2402 N2396 0.984 . S
H2403 N2396 0.984 . S
H2404 N2392 0.984 . S
H2405 N2392 0.985 . S
C2406 C2407 1.363 . S
C2406 C2412 1.379 . S
C2406 N2414 1.356 . S
C2407 C2406 1.363 . S
C2407 C2413 1.363 . S
C2408 C2409 1.363 . S
C2408 C2413 1.379 . S
C2408 N2415 1.356 . S
C2409 C2408 1.363 . S
C2409 C2412 1.363 . S
N2410 C2412 1.356 . S
N2410 H2422 0.984 . S
N2410 H2423 0.985 . S
N2411 C2413 1.356 . S
N2411 H2416 0.984 . S
N2411 H2417 0.985 . S
C2412 C2406 1.379 . S
C2412 C2409 1.363 . S
C2412 N2410 1.356 . S
C2413 C2407 1.363 . S
C2413 C2408 1.379 . S
C2413 N2411 1.356 . S
N2414 C2406 1.356 . S
N2414 H2420 0.984 . S
N2414 H2421 0.984 . S
N2415 C2408 1.356 . S
N2415 H2418 0.984 . S
N2415 H2419 0.985 . S
H2416 N2411 0.984 . S
H2417 N2411 0.985 . S
H2418 N2415 0.984 . S
H2419 N2415 0.985 . S
H2420 N2414 0.984 . S
H2421 N2414 0.984 . S
H2422 N2410 0.984 . S
H2423 N2410 0.985 . S
C2424 C2425 1.363 . S
C2424 C2430 1.379 . S
C2424 N2432 1.356 . S
C2425 C2424 1.363 . S
C2425 C2431 1.363 . S
C2426 C2427 1.363 . S
C2426 C2431 1.379 . S
C2426 N2433 1.356 . S
C2427 C2426 1.363 . S
C2427 C2430 1.363 . S
N2428 C2430 1.356 . S
N2428 H2440 0.984 . S
N2428 H2441 0.985 . S
N2429 C2431 1.356 . S
N2429 H2434 0.984 . S
N2429 H2435 0.985 . S
C2430 C2424 1.379 . S
C2430 C2427 1.363 . S
C2430 N2428 1.356 . S
C2431 C2425 1.363 . S
C2431 C2426 1.379 . S
C2431 N2429 1.356 . S
N2432 C2424 1.356 . S
N2432 H2438 0.984 . S
N2432 H2439 0.984 . S
N2433 C2426 1.356 . S
N2433 H2436 0.984 . S
N2433 H2437 0.985 . S
H2434 N2429 0.984 . S
H2435 N2429 0.985 . S
H2436 N2433 0.984 . S
H2437 N2433 0.985 . S
H2438 N2432 0.984 . S
H2439 N2432 0.984 . S
H2440 N2428 0.984 . S
H2441 N2428 0.985 . S
C2442 C2443 1.363 1_556 S
C2442 C2448 1.379 . S
C2442 N2450 1.356 . S
C2443 C2442 1.363 1_554 S
C2443 C2449 1.363 . S
C2444 C2445 1.363 1_554 S
C2444 C2449 1.379 . S
C2444 N2451 1.356 . S
C2445 C2444 1.363 1_556 S
C2445 C2448 1.363 . S
N2446 C2448 1.356 . S
N2446 H2458 0.984 . S
N2446 H2459 0.985 . S
N2447 C2449 1.356 . S
N2447 H2452 0.984 . S
N2447 H2453 0.985 . S
C2448 C2442 1.379 . S
C2448 C2445 1.363 . S
C2448 N2446 1.356 . S
C2449 C2443 1.363 . S
C2449 C2444 1.379 . S
C2449 N2447 1.356 . S
N2450 C2442 1.356 . S
N2450 H2456 0.984 . S
N2450 H2457 0.984 . S
N2451 C2444 1.356 . S
N2451 H2454 0.981 1_554 S
N2451 H2455 0.985 . S
H2452 N2447 0.984 . S
H2453 N2447 0.985 . S
H2454 N2451 0.981 1_556 S
H2455 N2451 0.985 . S
H2456 N2450 0.984 . S
H2457 N2450 0.984 . S
H2458 N2446 0.984 . S
H2459 N2446 0.985 . S
C2460 C2461 1.363 . S
C2460 C2466 1.379 . S
C2460 N2468 1.356 . S
C2461 C2460 1.363 . S
C2461 C2467 1.363 . S
C2462 C2463 1.363 . S
C2462 C2467 1.379 . S
C2462 N2469 1.356 . S
C2463 C2462 1.363 . S
C2463 C2466 1.363 . S
N2464 C2466 1.356 . S
N2464 H2476 0.984 . S
N2464 H2477 0.985 . S
N2465 C2467 1.356 . S
N2465 H2470 0.984 . S
N2465 H2471 0.985 . S
C2466 C2460 1.379 . S
C2466 C2463 1.363 . S
C2466 N2464 1.356 . S
C2467 C2461 1.363 . S
C2467 C2462 1.379 . S
C2467 N2465 1.356 . S
N2468 C2460 1.356 . S
N2468 H2474 0.984 . S
N2468 H2475 0.984 . S
N2469 C2462 1.356 . S
N2469 H2472 0.984 . S
N2469 H2473 0.985 . S
H2470 N2465 0.984 . S
H2471 N2465 0.985 . S
H2472 N2469 0.984 . S
H2473 N2469 0.985 . S
H2474 N2468 0.984 . S
H2475 N2468 0.984 . S
H2476 N2464 0.984 . S
H2477 N2464 0.985 . S
C2478 C2479 1.363 . S
C2478 C2484 1.379 . S
C2478 N2486 1.356 . S
C2479 C2478 1.363 . S
C2479 C2485 1.363 . S
C2480 C2481 1.363 . S
C2480 C2485 1.379 . S
C2480 N2487 1.356 . S
C2481 C2480 1.363 . S
C2481 C2484 1.363 . S
N2482 C2484 1.356 . S
N2482 H2494 0.984 . S
N2482 H2495 0.985 . S
N2483 C2485 1.356 . S
N2483 H2488 0.984 . S
N2483 H2489 0.985 . S
C2484 C2478 1.379 . S
C2484 C2481 1.363 . S
C2484 N2482 1.356 . S
C2485 C2479 1.363 . S
C2485 C2480 1.379 . S
C2485 N2483 1.356 . S
N2486 C2478 1.356 . S
N2486 H2492 0.984 . S
N2486 H2493 0.984 . S
N2487 C2480 1.356 . S
N2487 H2490 0.984 . S
N2487 H2491 0.985 . S
H2488 N2483 0.984 . S
H2489 N2483 0.985 . S
H2490 N2487 0.984 . S
H2491 N2487 0.985 . S
H2492 N2486 0.984 . S
H2493 N2486 0.984 . S
H2494 N2482 0.984 . S
H2495 N2482 0.985 . S
C2496 C2497 1.363 . S
C2496 C2502 1.379 . S
C2496 N2504 1.356 . S
C2497 C2496 1.363 . S
C2497 C2503 1.363 . S
C2498 C2499 1.363 . S
C2498 C2503 1.379 . S
C2498 N2505 1.356 . S
C2499 C2498 1.363 . S
C2499 C2502 1.363 . S
N2500 C2502 1.356 . S
N2500 H2512 0.984 . S
N2500 H2513 0.985 . S
N2501 C2503 1.356 . S
N2501 H2506 0.984 . S
N2501 H2507 0.985 . S
C2502 C2496 1.379 . S
C2502 C2499 1.363 . S
C2502 N2500 1.356 . S
C2503 C2497 1.363 . S
C2503 C2498 1.379 . S
C2503 N2501 1.356 . S
N2504 C2496 1.356 . S
N2504 H2510 0.984 . S
N2504 H2511 0.984 . S
N2505 C2498 1.356 . S
N2505 H2508 0.984 . S
N2505 H2509 0.985 . S
H2506 N2501 0.984 . S
H2507 N2501 0.985 . S
H2508 N2505 0.984 . S
H2509 N2505 0.985 . S
H2510 N2504 0.984 . S
H2511 N2504 0.984 . S
H2512 N2500 0.984 . S
H2513 N2500 0.985 . S
C2514 C2515 1.363 . S
C2514 C2520 1.379 . S
C2514 N2522 1.356 . S
C2515 C2514 1.363 . S
C2515 C2521 1.363 . S
C2516 C2517 1.363 . S
C2516 C2521 1.379 . S
C2516 N2523 1.356 . S
C2517 C2516 1.363 . S
C2517 C2520 1.363 . S
N2518 C2520 1.356 . S
N2518 H2530 0.984 . S
N2518 H2531 0.985 . S
N2519 C2521 1.356 . S
N2519 H2524 0.984 . S
N2519 H2525 0.985 . S
C2520 C2514 1.379 . S
C2520 C2517 1.363 . S
C2520 N2518 1.356 . S
C2521 C2515 1.363 . S
C2521 C2516 1.379 . S
C2521 N2519 1.356 . S
N2522 C2514 1.356 . S
N2522 H2528 0.984 . S
N2522 H2529 0.984 . S
N2523 C2516 1.356 . S
N2523 H2526 0.984 . S
N2523 H2527 0.985 . S
H2524 N2519 0.984 . S
H2525 N2519 0.985 . S
H2526 N2523 0.984 . S
H2527 N2523 0.985 . S
H2528 N2522 0.984 . S
H2529 N2522 0.984 . S
H2530 N2518 0.984 . S
H2531 N2518 0.985 . S
C2532 C2533 1.363 . S
C2532 C2538 1.379 . S
C2532 N2540 1.356 . S
C2533 C2532 1.363 . S
C2533 C2539 1.362 . S
C2534 C2535 1.363 . S
C2534 C2539 1.379 1_565 S
C2534 N2541 1.356 . S
C2535 C2534 1.363 . S
C2535 C2538 1.363 1_565 S
N2536 C2538 1.356 . S
N2536 H2548 0.984 . S
N2536 H2549 0.985 . S
N2537 C2539 1.356 1_565 S
N2537 H2542 0.984 1_565 S
N2537 H2543 0.985 . S
C2538 C2532 1.379 . S
C2538 C2535 1.363 1_545 S
C2538 N2536 1.356 . S
C2539 C2533 1.362 . S
C2539 C2534 1.379 1_545 S
C2539 N2537 1.356 1_545 S
N2540 C2532 1.356 . S
N2540 H2546 0.984 . S
N2540 H2547 0.984 . S
N2541 C2534 1.356 . S
N2541 H2544 0.984 . S
N2541 H2545 0.985 . S
H2542 N2537 0.984 1_545 S
H2543 N2537 0.985 . S
H2544 N2541 0.984 . S
H2545 N2541 0.985 . S
H2546 N2540 0.984 . S
H2547 N2540 0.984 . S
H2548 N2536 0.984 . S
H2549 N2536 0.985 . S
C2550 C2551 1.363 . S
C2550 C2556 1.379 . S
C2550 N2558 1.356 . S
C2551 C2550 1.363 . S
C2551 C2557 1.363 . S
C2552 C2553 1.363 . S
C2552 C2557 1.379 . S
C2552 N2559 1.356 . S
C2553 C2552 1.363 . S
C2553 C2556 1.363 . S
N2554 C2556 1.356 . S
N2554 H2566 0.984 . S
N2554 H2567 0.985 . S
N2555 C2557 1.356 . S
N2555 H2560 0.984 . S
N2555 H2561 0.985 . S
C2556 C2550 1.379 . S
C2556 C2553 1.363 . S
C2556 N2554 1.356 . S
C2557 C2551 1.363 . S
C2557 C2552 1.379 . S
C2557 N2555 1.356 . S
N2558 C2550 1.356 . S
N2558 H2564 0.984 . S
N2558 H2565 0.984 . S
N2559 C2552 1.356 . S
N2559 H2562 0.984 . S
N2559 H2563 0.985 . S
H2560 N2555 0.984 . S
H2561 N2555 0.985 . S
H2562 N2559 0.984 . S
H2563 N2559 0.985 . S
H2564 N2558 0.984 . S
H2565 N2558 0.984 . S
H2566 N2554 0.984 . S
H2567 N2554 0.985 . S
C2568 C2569 1.363 . S
C2568 C2574 1.379 . S
C2568 N2576 1.356 . S
C2569 C2568 1.363 . S
C2569 C2575 1.363 . S
C2570 C2571 1.363 . S
C2570 C2575 1.379 . S
C2570 N2577 1.356 . S
C2571 C2570 1.363 . S
C2571 C2574 1.363 . S
N2572 C2574 1.356 . S
N2572 H2584 0.984 . S
N2572 H2585 0.985 . S
N2573 C2575 1.356 . S
N2573 H2578 0.984 . S
N2573 H2579 0.985 . S
C2574 C2568 1.379 . S
C2574 C2571 1.363 . S
C2574 N2572 1.356 . S
C2575 C2569 1.363 . S
C2575 C2570 1.379 . S
C2575 N2573 1.356 . S
N2576 C2568 1.356 . S
N2576 H2582 0.984 . S
N2576 H2583 0.984 . S
N2577 C2570 1.356 . S
N2577 H2580 0.984 . S
N2577 H2581 0.985 . S
H2578 N2573 0.984 . S
H2579 N2573 0.985 . S
H2580 N2577 0.984 . S
H2581 N2577 0.985 . S
H2582 N2576 0.984 . S
H2583 N2576 0.984 . S
H2584 N2572 0.984 . S
H2585 N2572 0.985 . S
C2586 C2587 1.363 . S
C2586 C2592 1.379 . S
C2586 N2594 1.356 . S
C2587 C2586 1.363 . S
C2587 C2593 1.363 . S
C2588 C2589 1.363 . S
C2588 C2593 1.379 . S
C2588 N2595 1.356 . S
C2589 C2588 1.363 . S
C2589 C2592 1.363 . S
N2590 C2592 1.356 . S
N2590 H2602 0.984 . S
N2590 H2603 0.985 . S
N2591 C2593 1.356 . S
N2591 H2596 0.984 . S
N2591 H2597 0.985 . S
C2592 C2586 1.379 . S
C2592 C2589 1.363 . S
C2592 N2590 1.356 . S
C2593 C2587 1.363 . S
C2593 C2588 1.379 . S
C2593 N2591 1.356 . S
N2594 C2586 1.356 . S
N2594 H2600 0.984 . S
N2594 H2601 0.984 . S
N2595 C2588 1.356 . S
N2595 H2598 0.984 . S
N2595 H2599 0.985 . S
H2596 N2591 0.984 . S
H2597 N2591 0.985 . S
H2598 N2595 0.984 . S
H2599 N2595 0.985 . S
H2600 N2594 0.984 . S
H2601 N2594 0.984 . S
H2602 N2590 0.984 . S
H2603 N2590 0.985 . S
C2604 C2605 1.363 1_565 S
C2604 C2610 1.379 . S
C2604 N2612 1.356 . S
C2605 C2604 1.363 1_545 S
C2605 C2611 1.363 . S
C2606 C2607 1.363 . S
C2606 C2611 1.379 1_565 S
C2606 N2613 1.356 . S
C2607 C2606 1.363 . S
C2607 C2610 1.363 . S
N2608 C2610 1.356 . S
N2608 H2620 0.984 . S
N2608 H2621 0.985 . S
N2609 C2611 1.356 . S
N2609 H2614 0.984 . S
N2609 H2615 0.985 . S
C2610 C2604 1.379 . S
C2610 C2607 1.363 . S
C2610 N2608 1.356 . S
C2611 C2605 1.363 . S
C2611 C2606 1.379 1_545 S
C2611 N2609 1.356 . S
N2612 C2604 1.356 . S
N2612 H2618 0.984 . S
N2612 H2619 0.984 . S
N2613 C2606 1.356 . S
N2613 H2616 0.984 . S
N2613 H2617 0.985 1_565 S
H2614 N2609 0.984 . S
H2615 N2609 0.985 . S
H2616 N2613 0.984 . S
H2617 N2613 0.985 1_545 S
H2618 N2612 0.984 . S
H2619 N2612 0.984 . S
H2620 N2608 0.984 . S
H2621 N2608 0.985 . S
C2622 C2623 1.363 1_545 S
C2622 C2628 1.379 . S
C2622 N2630 1.356 . S
C2623 C2622 1.363 1_565 S
C2623 C2629 1.363 . S
C2624 C2625 1.363 . S
C2624 C2629 1.379 1_545 S
C2624 N2631 1.359 . S
C2625 C2624 1.363 . S
C2625 C2628 1.363 . S
N2626 C2628 1.356 . S
N2626 H2638 0.984 . S
N2626 H2639 0.985 . S
N2627 C2629 1.356 . S
N2627 H2632 0.984 . S
N2627 H2633 0.985 . S
C2628 C2622 1.379 . S
C2628 C2625 1.363 . S
C2628 N2626 1.356 . S
C2629 C2623 1.363 . S
C2629 C2624 1.379 1_565 S
C2629 N2627 1.356 . S
N2630 C2622 1.356 . S
N2630 H2636 0.984 . S
N2630 H2637 0.984 . S
N2631 C2624 1.359 . S
N2631 H2634 1.006 . S
N2631 H2635 0.962 1_545 S
H2632 N2627 0.984 . S
H2633 N2627 0.985 . S
H2634 N2631 1.006 . S
H2635 N2631 0.962 1_565 S
H2636 N2630 0.984 . S
H2637 N2630 0.984 . S
H2638 N2626 0.984 . S
H2639 N2626 0.985 . S
C2640 C2641 1.363 . S
C2640 C2646 1.379 . S
C2640 N2648 1.356 . S
C2641 C2640 1.363 . S
C2641 C2647 1.363 . S
C2642 C2643 1.363 . S
C2642 C2647 1.379 . S
C2642 N2649 1.356 . S
C2643 C2642 1.363 . S
C2643 C2646 1.363 . S
N2644 C2646 1.356 . S
N2644 H2656 0.984 . S
N2644 H2657 0.985 . S
N2645 C2647 1.356 . S
N2645 H2650 0.984 . S
N2645 H2651 0.985 . S
C2646 C2640 1.379 . S
C2646 C2643 1.363 . S
C2646 N2644 1.356 . S
C2647 C2641 1.363 . S
C2647 C2642 1.379 . S
C2647 N2645 1.356 . S
N2648 C2640 1.356 . S
N2648 H2654 0.984 . S
N2648 H2655 0.984 . S
N2649 C2642 1.356 . S
N2649 H2652 0.984 . S
N2649 H2653 0.985 . S
H2650 N2645 0.984 . S
H2651 N2645 0.985 . S
H2652 N2649 0.984 . S
H2653 N2649 0.985 . S
H2654 N2648 0.984 . S
H2655 N2648 0.984 . S
H2656 N2644 0.984 . S
H2657 N2644 0.985 . S
C2658 C2659 1.363 . S
C2658 C2664 1.379 . S
C2658 N2666 1.356 . S
C2659 C2658 1.363 . S
C2659 C2665 1.363 . S
C2660 C2661 1.363 . S
C2660 C2665 1.379 . S
C2660 N2667 1.356 . S
C2661 C2660 1.363 . S
C2661 C2664 1.363 . S
N2662 C2664 1.356 . S
N2662 H2674 0.984 . S
N2662 H2675 0.985 . S
N2663 C2665 1.356 . S
N2663 H2668 0.984 . S
N2663 H2669 0.985 . S
C2664 C2658 1.379 . S
C2664 C2661 1.363 . S
C2664 N2662 1.356 . S
C2665 C2659 1.363 . S
C2665 C2660 1.379 . S
C2665 N2663 1.356 . S
N2666 C2658 1.356 . S
N2666 H2672 0.984 . S
N2666 H2673 0.984 . S
N2667 C2660 1.356 . S
N2667 H2670 0.984 . S
N2667 H2671 0.985 . S
H2668 N2663 0.984 . S
H2669 N2663 0.985 . S
H2670 N2667 0.984 . S
H2671 N2667 0.985 . S
H2672 N2666 0.984 . S
H2673 N2666 0.984 . S
H2674 N2662 0.984 . S
H2675 N2662 0.985 . S
C2676 C2677 1.363 . S
C2676 C2682 1.379 . S
C2676 N2684 1.356 . S
C2677 C2676 1.363 . S
C2677 C2683 1.363 . S
C2678 C2679 1.363 . S
C2678 C2683 1.379 . S
C2678 N2685 1.356 . S
C2679 C2678 1.363 . S
C2679 C2682 1.363 . S
N2680 C2682 1.356 . S
N2680 H2692 0.984 . S
N2680 H2693 0.985 . S
N2681 C2683 1.356 . S
N2681 H2686 0.984 . S
N2681 H2687 0.985 . S
C2682 C2676 1.379 . S
C2682 C2679 1.363 . S
C2682 N2680 1.356 . S
C2683 C2677 1.363 . S
C2683 C2678 1.379 . S
C2683 N2681 1.356 . S
N2684 C2676 1.356 . S
N2684 H2690 0.984 . S
N2684 H2691 0.984 . S
N2685 C2678 1.356 . S
N2685 H2688 0.984 . S
N2685 H2689 0.985 . S
H2686 N2681 0.984 . S
H2687 N2681 0.985 . S
H2688 N2685 0.984 . S
H2689 N2685 0.985 . S
H2690 N2684 0.984 . S
H2691 N2684 0.984 . S
H2692 N2680 0.984 . S
H2693 N2680 0.985 . S
C2694 C2695 1.363 1_655 S
C2694 C2700 1.379 . S
C2694 N2702 1.356 . S
C2695 C2694 1.363 1_455 S
C2695 C2701 1.363 . S
C2696 C2697 1.384 . S
C2696 C2701 1.367 1_655 S
C2696 N2703 1.354 1_655 S
C2697 C2696 1.384 . S
C2697 C2700 1.363 . S
N2698 C2700 1.356 . S
N2698 H2710 0.984 . S
N2698 H2711 0.985 . S
N2699 C2701 1.356 . S
N2699 H2704 0.984 . S
N2699 H2705 0.985 . S
C2700 C2694 1.379 . S
C2700 C2697 1.363 . S
C2700 N2698 1.356 . S
C2701 C2695 1.363 . S
C2701 C2696 1.367 1_455 S
C2701 N2699 1.356 . S
N2702 C2694 1.356 . S
N2702 H2708 0.984 . S
N2702 H2709 0.984 . S
N2703 C2696 1.354 1_455 S
N2703 H2706 0.984 1_455 S
N2703 H2707 0.985 . S
H2704 N2699 0.984 . S
H2705 N2699 0.985 . S
H2706 N2703 0.984 1_655 S
H2707 N2703 0.985 . S
H2708 N2702 0.984 . S
H2709 N2702 0.984 . S
H2710 N2698 0.984 . S
H2711 N2698 0.985 . S
C2712 C2713 1.363 . S
C2712 C2718 1.379 . S
C2712 N2720 1.356 . S
C2713 C2712 1.363 . S
C2713 C2719 1.363 . S
C2714 C2715 1.363 . S
C2714 C2719 1.379 . S
C2714 N2721 1.356 . S
C2715 C2714 1.363 . S
C2715 C2718 1.363 . S
N2716 C2718 1.356 . S
N2716 H2728 0.984 . S
N2716 H2729 0.985 . S
N2717 C2719 1.356 . S
N2717 H2722 0.984 . S
N2717 H2723 0.985 . S
C2718 C2712 1.379 . S
C2718 C2715 1.363 . S
C2718 N2716 1.356 . S
C2719 C2713 1.363 . S
C2719 C2714 1.379 . S
C2719 N2717 1.356 . S
N2720 C2712 1.356 . S
N2720 H2726 0.984 . S
N2720 H2727 0.984 . S
N2721 C2714 1.356 . S
N2721 H2724 0.984 . S
N2721 H2725 0.985 . S
H2722 N2717 0.984 . S
H2723 N2717 0.985 . S
H2724 N2721 0.984 . S
H2725 N2721 0.985 . S
H2726 N2720 0.984 . S
H2727 N2720 0.984 . S
H2728 N2716 0.984 . S
H2729 N2716 0.985 . S
C2730 C2731 1.363 . S
C2730 C2736 1.379 . S
C2730 N2738 1.356 . S
C2731 C2730 1.363 . S
C2731 C2737 1.363 . S
C2732 C2733 1.363 . S
C2732 C2737 1.379 1_455 S
C2732 N2739 1.356 . S
C2733 C2732 1.363 . S
C2733 C2736 1.363 1_455 S
N2734 C2736 1.356 . S
N2734 H2746 0.984 . S
N2734 H2747 0.985 . S
N2735 C2737 1.355 1_455 S
N2735 H2740 0.977 1_455 S
N2735 H2741 0.993 . S
C2736 C2730 1.379 . S
C2736 C2733 1.363 1_655 S
C2736 N2734 1.356 . S
C2737 C2731 1.363 . S
C2737 C2732 1.379 1_655 S
C2737 N2735 1.355 1_655 S
N2738 C2730 1.356 . S
N2738 H2744 0.984 . S
N2738 H2745 0.984 . S
N2739 C2732 1.356 . S
N2739 H2742 0.984 . S
N2739 H2743 0.985 . S
H2740 N2735 0.977 1_655 S
H2741 N2735 0.993 . S
H2742 N2739 0.984 . S
H2743 N2739 0.985 . S
H2744 N2738 0.984 . S
H2745 N2738 0.984 . S
H2746 N2734 0.984 . S
H2747 N2734 0.985 . S
C2748 C2749 1.363 . S
C2748 C2754 1.379 . S
C2748 N2756 1.356 . S
C2749 C2748 1.363 . S
C2749 C2755 1.363 . S
C2750 C2751 1.363 . S
C2750 C2755 1.379 . S
C2750 N2757 1.356 . S
C2751 C2750 1.363 . S
C2751 C2754 1.363 . S
N2752 C2754 1.356 . S
N2752 H2764 0.984 . S
N2752 H2765 0.985 . S
N2753 C2755 1.356 . S
N2753 H2758 0.984 . S
N2753 H2759 0.985 . S
C2754 C2748 1.379 . S
C2754 C2751 1.363 . S
C2754 N2752 1.356 . S
C2755 C2749 1.363 . S
C2755 C2750 1.379 . S
C2755 N2753 1.356 . S
N2756 C2748 1.356 . S
N2756 H2762 0.984 . S
N2756 H2763 0.984 . S
N2757 C2750 1.356 . S
N2757 H2760 0.984 . S
N2757 H2761 0.985 . S
H2758 N2753 0.984 . S
H2759 N2753 0.985 . S
H2760 N2757 0.984 . S
H2761 N2757 0.985 . S
H2762 N2756 0.984 . S
H2763 N2756 0.984 . S
H2764 N2752 0.984 . S
H2765 N2752 0.985 . S
C2766 C2767 1.363 . S
C2766 C2772 1.379 . S
C2766 N2774 1.356 . S
C2767 C2766 1.363 . S
C2767 C2773 1.363 . S
C2768 C2769 1.363 . S
C2768 C2773 1.379 . S
C2768 N2775 1.356 . S
C2769 C2768 1.363 . S
C2769 C2772 1.363 . S
N2770 C2772 1.356 . S
N2770 H2782 0.984 . S
N2770 H2783 0.985 . S
N2771 C2773 1.356 . S
N2771 H2776 0.984 . S
N2771 H2777 0.985 . S
C2772 C2766 1.379 . S
C2772 C2769 1.363 . S
C2772 N2770 1.356 . S
C2773 C2767 1.363 . S
C2773 C2768 1.379 . S
C2773 N2771 1.356 . S
N2774 C2766 1.356 . S
N2774 H2780 0.984 . S
N2774 H2781 0.984 . S
N2775 C2768 1.356 . S
N2775 H2778 0.984 . S
N2775 H2779 0.985 . S
H2776 N2771 0.984 . S
H2777 N2771 0.985 . S
H2778 N2775 0.984 . S
H2779 N2775 0.985 . S
H2780 N2774 0.984 . S
H2781 N2774 0.984 . S
H2782 N2770 0.984 . S
H2783 N2770 0.985 . S
C2784 C2785 1.363 . S
C2784 C2790 1.379 . S
C2784 N2792 1.356 . S
C2785 C2784 1.363 . S
C2785 C2791 1.363 . S
C2786 C2787 1.363 . S
C2786 C2791 1.379 . S
C2786 N2793 1.356 . S
C2787 C2786 1.363 . S
C2787 C2790 1.363 . S
N2788 C2790 1.356 . S
N2788 H2800 0.984 . S
N2788 H2801 0.985 . S
N2789 C2791 1.356 . S
N2789 H2794 0.984 . S
N2789 H2795 0.985 . S
C2790 C2784 1.379 . S
C2790 C2787 1.363 . S
C2790 N2788 1.356 . S
C2791 C2785 1.363 . S
C2791 C2786 1.379 . S
C2791 N2789 1.356 . S
N2792 C2784 1.356 . S
N2792 H2798 0.984 . S
N2792 H2799 0.984 . S
N2793 C2786 1.356 . S
N2793 H2796 0.984 . S
N2793 H2797 0.985 . S
H2794 N2789 0.984 . S
H2795 N2789 0.985 . S
H2796 N2793 0.984 . S
H2797 N2793 0.985 . S
H2798 N2792 0.984 . S
H2799 N2792 0.984 . S
H2800 N2788 0.984 . S
H2801 N2788 0.985 . S
C2802 C2803 1.363 1_556 S
C2802 C2808 1.379 . S
C2802 N2810 1.356 . S
C2803 C2802 1.363 1_554 S
C2803 C2809 1.363 . S
C2804 C2805 1.363 1_554 S
C2804 C2809 1.379 . S
C2804 N2811 1.356 . S
C2805 C2804 1.363 1_556 S
C2805 C2808 1.363 . S
N2806 C2808 1.356 . S
N2806 H2818 0.984 . S
N2806 H2819 0.985 . S
N2807 C2809 1.356 . S
N2807 H2812 0.984 . S
N2807 H2813 0.985 . S
C2808 C2802 1.379 . S
C2808 C2805 1.363 . S
C2808 N2806 1.356 . S
C2809 C2803 1.363 . S
C2809 C2804 1.379 . S
C2809 N2807 1.356 . S
N2810 C2802 1.356 . S
N2810 H2816 0.984 . S
N2810 H2817 0.984 . S
N2811 C2804 1.356 . S
N2811 H2814 0.970 1_554 S
N2811 H2815 0.985 . S
H2812 N2807 0.984 . S
H2813 N2807 0.985 . S
H2814 N2811 0.970 1_556 S
H2815 N2811 0.985 . S
H2816 N2810 0.984 . S
H2817 N2810 0.984 . S
H2818 N2806 0.984 . S
H2819 N2806 0.985 . S
C2820 C2821 1.363 . S
C2820 C2826 1.379 . S
C2820 N2828 1.356 . S
C2821 C2820 1.363 . S
C2821 C2827 1.363 . S
C2822 C2823 1.363 . S
C2822 C2827 1.379 . S
C2822 N2829 1.356 . S
C2823 C2822 1.363 . S
C2823 C2826 1.363 . S
N2824 C2826 1.356 . S
N2824 H2836 0.984 . S
N2824 H2837 0.985 . S
N2825 C2827 1.356 . S
N2825 H2830 0.984 . S
N2825 H2831 0.985 . S
C2826 C2820 1.379 . S
C2826 C2823 1.363 . S
C2826 N2824 1.356 . S
C2827 C2821 1.363 . S
C2827 C2822 1.379 . S
C2827 N2825 1.356 . S
N2828 C2820 1.356 . S
N2828 H2834 0.984 . S
N2828 H2835 0.984 . S
N2829 C2822 1.356 . S
N2829 H2832 0.984 . S
N2829 H2833 0.985 . S
H2830 N2825 0.984 . S
H2831 N2825 0.985 . S
H2832 N2829 0.984 . S
H2833 N2829 0.985 . S
H2834 N2828 0.984 . S
H2835 N2828 0.984 . S
H2836 N2824 0.984 . S
H2837 N2824 0.985 . S
C2838 C2839 1.363 . S
C2838 C2844 1.379 . S
C2838 N2846 1.356 . S
C2839 C2838 1.363 . S
C2839 C2845 1.363 . S
C2840 C2841 1.363 . S
C2840 C2845 1.379 . S
C2840 N2847 1.356 . S
C2841 C2840 1.363 . S
C2841 C2844 1.363 . S
N2842 C2844 1.356 . S
N2842 H2854 0.984 . S
N2842 H2855 0.985 . S
N2843 C2845 1.356 . S
N2843 H2848 0.984 . S
N2843 H2849 0.985 . S
C2844 C2838 1.379 . S
C2844 C2841 1.363 . S
C2844 N2842 1.356 . S
C2845 C2839 1.363 . S
C2845 C2840 1.379 . S
C2845 N2843 1.356 . S
N2846 C2838 1.356 . S
N2846 H2852 0.984 . S
N2846 H2853 0.984 . S
N2847 C2840 1.356 . S
N2847 H2850 0.984 . S
N2847 H2851 0.985 . S
H2848 N2843 0.984 . S
H2849 N2843 0.985 . S
H2850 N2847 0.984 . S
H2851 N2847 0.985 . S
H2852 N2846 0.984 . S
H2853 N2846 0.984 . S
H2854 N2842 0.984 . S
H2855 N2842 0.985 . S
C2856 C2857 1.363 . S
C2856 C2862 1.379 . S
C2856 N2864 1.356 . S
C2857 C2856 1.363 . S
C2857 C2863 1.363 . S
C2858 C2859 1.363 . S
C2858 C2863 1.379 . S
C2858 N2865 1.356 . S
C2859 C2858 1.363 . S
C2859 C2862 1.363 . S
N2860 C2862 1.356 . S
N2860 H2872 0.984 . S
N2860 H2873 0.985 . S
N2861 C2863 1.356 . S
N2861 H2866 0.984 . S
N2861 H2867 0.985 . S
C2862 C2856 1.379 . S
C2862 C2859 1.363 . S
C2862 N2860 1.356 . S
C2863 C2857 1.363 . S
C2863 C2858 1.379 . S
C2863 N2861 1.356 . S
N2864 C2856 1.356 . S
N2864 H2870 0.984 . S
N2864 H2871 0.984 . S
N2865 C2858 1.356 . S
N2865 H2868 0.984 . S
N2865 H2869 0.985 . S
H2866 N2861 0.984 . S
H2867 N2861 0.985 . S
H2868 N2865 0.984 . S
H2869 N2865 0.985 . S
H2870 N2864 0.984 . S
H2871 N2864 0.984 . S
H2872 N2860 0.984 . S
H2873 N2860 0.985 . S
C2874 C2875 1.363 . S
C2874 C2880 1.379 . S
C2874 N2882 1.356 . S
C2875 C2874 1.363 . S
C2875 C2881 1.363 1_554 S
C2876 C2877 1.363 . S
C2876 C2881 1.379 . S
C2876 N2883 1.356 . S
C2877 C2876 1.363 . S
C2877 C2880 1.363 1_556 S
N2878 C2880 1.356 . S
N2878 H2890 0.984 . S
N2878 H2891 0.985 . S
N2879 C2881 1.356 . S
N2879 H2884 0.984 . S
N2879 H2885 0.985 . S
C2880 C2874 1.379 . S
C2880 C2877 1.363 1_554 S
C2880 N2878 1.356 . S
C2881 C2875 1.363 1_556 S
C2881 C2876 1.379 . S
C2881 N2879 1.356 . S
N2882 C2874 1.356 . S
N2882 H2888 0.984 . S
N2882 H2889 0.984 . S
N2883 C2876 1.356 . S
N2883 H2886 0.984 . S
N2883 H2887 0.985 . S
H2884 N2879 0.984 . S
H2885 N2879 0.985 . S
H2886 N2883 0.984 . S
H2887 N2883 0.985 . S
H2888 N2882 0.984 . S
H2889 N2882 0.984 . S
H2890 N2878 0.984 . S
H2891 N2878 0.985 . S
C2892 C2893 1.363 . S
C2892 C2898 1.379 . S
C2892 N2900 1.356 . S
C2893 C2892 1.363 . S
C2893 C2899 1.363 . S
C2894 C2895 1.363 . S
C2894 C2899 1.379 . S
C2894 N2901 1.356 . S
C2895 C2894 1.363 . S
C2895 C2898 1.363 . S
N2896 C2898 1.356 . S
N2896 H2908 0.984 . S
N2896 H2909 0.985 . S
N2897 C2899 1.356 . S
N2897 H2902 0.984 . S
N2897 H2903 0.985 . S
C2898 C2892 1.379 . S
C2898 C2895 1.363 . S
C2898 N2896 1.356 . S
C2899 C2893 1.363 . S
C2899 C2894 1.379 . S
C2899 N2897 1.356 . S
N2900 C2892 1.356 . S
N2900 H2906 0.984 . S
N2900 H2907 0.984 . S
N2901 C2894 1.356 . S
N2901 H2904 0.984 . S
N2901 H2905 0.985 . S
H2902 N2897 0.984 . S
H2903 N2897 0.985 . S
H2904 N2901 0.984 . S
H2905 N2901 0.985 . S
H2906 N2900 0.984 . S
H2907 N2900 0.984 . S
H2908 N2896 0.984 . S
H2909 N2896 0.985 . S
C2910 C2911 1.363 . S
C2910 C2916 1.379 . S
C2910 N2918 1.356 . S
C2911 C2910 1.363 . S
C2911 C2917 1.363 . S
C2912 C2913 1.363 . S
C2912 C2917 1.379 . S
C2912 N2919 1.356 . S
C2913 C2912 1.363 . S
C2913 C2916 1.363 . S
N2914 C2916 1.356 . S
N2914 H2926 0.984 . S
N2914 H2927 0.985 . S
N2915 C2917 1.356 . S
N2915 H2920 0.984 . S
N2915 H2921 0.985 . S
C2916 C2910 1.379 . S
C2916 C2913 1.363 . S
C2916 N2914 1.356 . S
C2917 C2911 1.363 . S
C2917 C2912 1.379 . S
C2917 N2915 1.356 . S
N2918 C2910 1.356 . S
N2918 H2924 0.984 . S
N2918 H2925 0.984 . S
N2919 C2912 1.356 . S
N2919 H2922 0.984 . S
N2919 H2923 0.985 . S
H2920 N2915 0.984 . S
H2921 N2915 0.985 . S
H2922 N2919 0.984 . S
H2923 N2919 0.985 . S
H2924 N2918 0.984 . S
H2925 N2918 0.984 . S
H2926 N2914 0.984 . S
H2927 N2914 0.985 . S
C2928 C2929 1.363 . S
C2928 C2934 1.379 . S
C2928 N2936 1.356 . S
C2929 C2928 1.363 . S
C2929 C2935 1.363 . S
C2930 C2931 1.363 . S
C2930 C2935 1.379 . S
C2930 N2937 1.356 . S
C2931 C2930 1.363 . S
C2931 C2934 1.363 . S
N2932 C2934 1.356 . S
N2932 H2944 0.984 . S
N2932 H2945 0.985 . S
N2933 C2935 1.356 . S
N2933 H2938 0.984 . S
N2933 H2939 0.985 . S
C2934 C2928 1.379 . S
C2934 C2931 1.363 . S
C2934 N2932 1.356 . S
C2935 C2929 1.363 . S
C2935 C2930 1.379 . S
C2935 N2933 1.356 . S
N2936 C2928 1.356 . S
N2936 H2942 0.984 . S
N2936 H2943 0.984 . S
N2937 C2930 1.356 . S
N2937 H2940 0.984 . S
N2937 H2941 0.985 . S
H2938 N2933 0.984 . S
H2939 N2933 0.985 . S
H2940 N2937 0.984 . S
H2941 N2937 0.985 . S
H2942 N2936 0.984 . S
H2943 N2936 0.984 . S
H2944 N2932 0.984 . S
H2945 N2932 0.985 . S
C2946 C2947 1.363 . S
C2946 C2952 1.379 . S
C2946 N2954 1.356 . S
C2947 C2946 1.363 . S
C2947 C2953 1.363 . S
C2948 C2949 1.363 . S
C2948 C2953 1.379 . S
C2948 N2955 1.356 . S
C2949 C2948 1.363 . S
C2949 C2952 1.363 . S
N2950 C2952 1.356 . S
N2950 H2962 0.984 . S
N2950 H2963 0.985 . S
N2951 C2953 1.356 . S
N2951 H2956 0.984 . S
N2951 H2957 0.985 . S
C2952 C2946 1.379 . S
C2952 C2949 1.363 . S
C2952 N2950 1.356 . S
C2953 C2947 1.363 . S
C2953 C2948 1.379 . S
C2953 N2951 1.356 . S
N2954 C2946 1.356 . S
N2954 H2960 0.984 . S
N2954 H2961 0.984 . S
N2955 C2948 1.356 . S
N2955 H2958 0.984 . S
N2955 H2959 0.985 . S
H2956 N2951 0.984 . S
H2957 N2951 0.985 . S
H2958 N2955 0.984 . S
H2959 N2955 0.985 . S
H2960 N2954 0.984 . S
H2961 N2954 0.984 . S
H2962 N2950 0.984 . S
H2963 N2950 0.985 . S
C2964 C2965 1.363 . S
C2964 C2970 1.379 . S
C2964 N2972 1.356 . S
C2965 C2964 1.363 . S
C2965 C2971 1.363 . S
C2966 C2967 1.363 . S
C2966 C2971 1.379 1_545 S
C2966 N2973 1.356 . S
C2967 C2966 1.363 . S
C2967 C2970 1.363 1_545 S
N2968 C2970 1.356 . S
N2968 H2980 0.984 . S
N2968 H2981 0.985 . S
N2969 C2971 1.356 . S
N2969 H2974 0.984 . S
N2969 H2975 0.985 1_565 S
C2970 C2964 1.379 . S
C2970 C2967 1.363 1_565 S
C2970 N2968 1.356 . S
C2971 C2965 1.363 . S
C2971 C2966 1.379 1_565 S
C2971 N2969 1.356 . S
N2972 C2964 1.356 . S
N2972 H2978 0.984 . S
N2972 H2979 0.984 . S
N2973 C2966 1.356 . S
N2973 H2976 0.984 . S
N2973 H2977 0.985 . S
H2974 N2969 0.984 . S
H2975 N2969 0.985 1_545 S
H2976 N2973 0.984 . S
H2977 N2973 0.985 . S
H2978 N2972 0.984 . S
H2979 N2972 0.984 . S
H2980 N2968 0.984 . S
H2981 N2968 0.985 . S
C2982 C2983 1.363 . S
C2982 C2988 1.379 . S
C2982 N2990 1.356 . S
C2983 C2982 1.363 . S
C2983 C2989 1.363 . S
C2984 C2985 1.363 . S
C2984 C2989 1.379 . S
C2984 N2991 1.356 . S
C2985 C2984 1.363 . S
C2985 C2988 1.363 . S
N2986 C2988 1.356 . S
N2986 H2998 0.984 . S
N2986 H2999 0.985 . S
N2987 C2989 1.356 . S
N2987 H2992 0.984 . S
N2987 H2993 0.985 . S
C2988 C2982 1.379 . S
C2988 C2985 1.363 . S
C2988 N2986 1.356 . S
C2989 C2983 1.363 . S
C2989 C2984 1.379 . S
C2989 N2987 1.356 . S
N2990 C2982 1.356 . S
N2990 H2996 0.984 . S
N2990 H2997 0.984 . S
N2991 C2984 1.356 . S
N2991 H2994 0.984 . S
N2991 H2995 0.985 . S
H2992 N2987 0.984 . S
H2993 N2987 0.985 . S
H2994 N2991 0.984 . S
H2995 N2991 0.985 . S
H2996 N2990 0.984 . S
H2997 N2990 0.984 . S
H2998 N2986 0.984 . S
H2999 N2986 0.985 . S
C3000 C3001 1.363 . S
C3000 C3006 1.379 . S
C3000 N3008 1.356 . S
C3001 C3000 1.363 . S
C3001 C3007 1.363 . S
C3002 C3003 1.363 . S
C3002 C3007 1.379 . S
C3002 N3009 1.356 . S
C3003 C3002 1.363 . S
C3003 C3006 1.363 . S
N3004 C3006 1.356 . S
N3004 H3016 0.984 . S
N3004 H3017 0.985 . S
N3005 C3007 1.356 . S
N3005 H3010 0.984 . S
N3005 H3011 0.985 . S
C3006 C3000 1.379 . S
C3006 C3003 1.363 . S
C3006 N3004 1.356 . S
C3007 C3001 1.363 . S
C3007 C3002 1.379 . S
C3007 N3005 1.356 . S
N3008 C3000 1.356 . S
N3008 H3014 0.984 . S
N3008 H3015 0.984 . S
N3009 C3002 1.356 . S
N3009 H3012 0.984 . S
N3009 H3013 0.985 . S
H3010 N3005 0.984 . S
H3011 N3005 0.985 . S
H3012 N3009 0.984 . S
H3013 N3009 0.985 . S
H3014 N3008 0.984 . S
H3015 N3008 0.984 . S
H3016 N3004 0.984 . S
H3017 N3004 0.985 . S
C3018 C3019 1.363 . S
C3018 C3024 1.379 . S
C3018 N3026 1.356 . S
C3019 C3018 1.363 . S
C3019 C3025 1.363 . S
C3020 C3021 1.363 . S
C3020 C3025 1.379 . S
C3020 N3027 1.356 . S
C3021 C3020 1.363 . S
C3021 C3024 1.363 . S
N3022 C3024 1.356 . S
N3022 H3034 0.984 . S
N3022 H3035 0.985 . S
N3023 C3025 1.356 . S
N3023 H3028 0.984 . S
N3023 H3029 0.985 . S
C3024 C3018 1.379 . S
C3024 C3021 1.363 . S
C3024 N3022 1.356 . S
C3025 C3019 1.363 . S
C3025 C3020 1.379 . S
C3025 N3023 1.356 . S
N3026 C3018 1.356 . S
N3026 H3032 0.984 . S
N3026 H3033 0.984 . S
N3027 C3020 1.356 . S
N3027 H3030 0.984 . S
N3027 H3031 0.985 . S
H3028 N3023 0.984 . S
H3029 N3023 0.985 . S
H3030 N3027 0.984 . S
H3031 N3027 0.985 . S
H3032 N3026 0.984 . S
H3033 N3026 0.984 . S
H3034 N3022 0.984 . S
H3035 N3022 0.985 . S
C3036 C3037 1.363 . S
C3036 C3042 1.379 1_545 S
C3036 N3044 1.355 1_545 S
C3037 C3036 1.363 . S
C3037 C3043 1.363 . S
C3038 C3039 1.363 1_545 S
C3038 C3043 1.379 . S
C3038 N3045 1.356 . S
C3039 C3038 1.363 1_565 S
C3039 C3042 1.363 . S
N3040 C3042 1.356 . S
N3040 H3052 0.984 . S
N3040 H3053 0.985 . S
N3041 C3043 1.356 . S
N3041 H3046 0.984 . S
N3041 H3047 0.985 . S
C3042 C3036 1.379 1_565 S
C3042 C3039 1.363 . S
C3042 N3040 1.356 . S
C3043 C3037 1.363 . S
C3043 C3038 1.379 . S
C3043 N3041 1.356 . S
N3044 C3036 1.355 1_565 S
N3044 H3050 0.994 . S
N3044 H3051 0.976 1_565 S
N3045 C3038 1.356 . S
N3045 H3048 0.984 . S
N3045 H3049 0.985 . S
H3046 N3041 0.984 . S
H3047 N3041 0.985 . S
H3048 N3045 0.984 . S
H3049 N3045 0.985 . S
H3050 N3044 0.994 . S
H3051 N3044 0.976 1_545 S
H3052 N3040 0.984 . S
H3053 N3040 0.985 . S
C3054 C3055 1.363 . S
C3054 C3060 1.379 . S
C3054 N3062 1.356 . S
C3055 C3054 1.363 . S
C3055 C3061 1.394 . S
C3056 C3057 1.363 . S
C3056 C3061 1.361 1_545 S
C3056 N3063 1.356 . S
C3057 C3056 1.363 . S
C3057 C3060 1.363 1_545 S
N3058 C3060 1.356 . S
N3058 H3070 0.984 . S
N3058 H3071 0.985 . S
N3059 C3061 1.352 1_545 S
N3059 H3064 0.962 1_545 S
N3059 H3065 1.012 . S
C3060 C3054 1.379 . S
C3060 C3057 1.363 1_565 S
C3060 N3058 1.356 . S
C3061 C3055 1.394 . S
C3061 C3056 1.361 1_565 S
C3061 N3059 1.352 1_565 S
N3062 C3054 1.356 . S
N3062 H3068 0.984 . S
N3062 H3069 0.984 . S
N3063 C3056 1.356 . S
N3063 H3066 0.984 . S
N3063 H3067 0.985 . S
H3064 N3059 0.962 1_565 S
H3065 N3059 1.012 . S
H3066 N3063 0.984 . S
H3067 N3063 0.985 . S
H3068 N3062 0.984 . S
H3069 N3062 0.984 . S
H3070 N3058 0.984 . S
H3071 N3058 0.985 . S
C3072 C3073 1.363 . S
C3072 C3078 1.382 . S
C3072 N3080 1.356 . S
C3073 C3072 1.363 . S
C3073 C3079 1.359 1_655 S
C3074 C3075 1.363 . S
C3074 C3079 1.383 . S
C3074 N3081 1.356 . S
C3075 C3074 1.363 . S
C3075 C3078 1.360 1_455 S
N3076 C3078 1.355 1_455 S
N3076 H3088 0.984 1_455 S
N3076 H3089 0.985 . S
N3077 C3079 1.355 1_655 S
N3077 H3082 0.984 . S
N3077 H3083 0.985 1_655 S
C3078 C3072 1.382 . S
C3078 C3075 1.360 1_655 S
C3078 N3076 1.355 1_655 S
C3079 C3073 1.359 1_455 S
C3079 C3074 1.383 . S
C3079 N3077 1.355 1_455 S
N3080 C3072 1.356 . S
N3080 H3086 0.984 . S
N3080 H3087 0.984 . S
N3081 C3074 1.356 . S
N3081 H3084 0.984 . S
N3081 H3085 0.985 . S
H3082 N3077 0.984 . S
H3083 N3077 0.985 1_455 S
H3084 N3081 0.984 . S
H3085 N3081 0.985 . S
H3086 N3080 0.984 . S
H3087 N3080 0.984 . S
H3088 N3076 0.984 1_655 S
H3089 N3076 0.985 . S
C3090 C3091 1.387 . S
C3090 C3096 1.354 1_455 S
C3090 N3098 1.366 . S
C3091 C3090 1.387 . S
C3091 C3097 1.363 . S
C3092 C3093 1.387 . S
C3092 C3097 1.355 1_655 S
C3092 N3099 1.366 . S
C3093 C3092 1.387 . S
C3093 C3096 1.363 . S
N3094 C3096 1.356 . S
N3094 H3106 0.984 . S
N3094 H3107 0.985 . S
N3095 C3097 1.356 . S
N3095 H3100 0.984 . S
N3095 H3101 0.985 . S
C3096 C3090 1.354 1_655 S
C3096 C3093 1.363 . S
C3096 N3094 1.356 . S
C3097 C3091 1.363 . S
C3097 C3092 1.355 1_455 S
C3097 N3095 1.356 . S
N3098 C3090 1.366 . S
N3098 H3104 0.984 1_455 S
N3098 H3105 0.984 . S
N3099 C3092 1.366 . S
N3099 H3102 0.984 . S
N3099 H3103 0.985 1_655 S
H3100 N3095 0.984 . S
H3101 N3095 0.985 . S
H3102 N3099 0.984 . S
H3103 N3099 0.985 1_455 S
H3104 N3098 0.984 1_655 S
H3105 N3098 0.984 . S
H3106 N3094 0.984 . S
H3107 N3094 0.985 . S
C3108 C3109 1.363 . S
C3108 C3114 1.379 . S
C3108 N3116 1.356 . S
C3109 C3108 1.363 . S
C3109 C3115 1.363 . S
C3110 C3111 1.363 . S
C3110 C3115 1.379 . S
C3110 N3117 1.356 . S
C3111 C3110 1.363 . S
C3111 C3114 1.363 . S
N3112 C3114 1.356 . S
N3112 H3124 0.984 . S
N3112 H3125 0.985 . S
N3113 C3115 1.356 . S
N3113 H3118 0.984 . S
N3113 H3119 0.985 . S
C3114 C3108 1.379 . S
C3114 C3111 1.363 . S
C3114 N3112 1.356 . S
C3115 C3109 1.363 . S
C3115 C3110 1.379 . S
C3115 N3113 1.356 . S
N3116 C3108 1.356 . S
N3116 H3122 0.984 . S
N3116 H3123 0.984 . S
N3117 C3110 1.356 . S
N3117 H3120 0.984 . S
N3117 H3121 0.985 . S
H3118 N3113 0.984 . S
H3119 N3113 0.985 . S
H3120 N3117 0.984 . S
H3121 N3117 0.985 . S
H3122 N3116 0.984 . S
H3123 N3116 0.984 . S
H3124 N3112 0.984 . S
H3125 N3112 0.985 . S
C3126 C3127 1.363 . S
C3126 C3132 1.379 . S
C3126 N3134 1.356 . S
C3127 C3126 1.363 . S
C3127 C3133 1.363 . S
C3128 C3129 1.363 . S
C3128 C3133 1.379 . S
C3128 N3135 1.356 . S
C3129 C3128 1.363 . S
C3129 C3132 1.363 . S
N3130 C3132 1.356 . S
N3130 H3142 0.984 . S
N3130 H3143 0.985 . S
N3131 C3133 1.356 . S
N3131 H3136 0.984 . S
N3131 H3137 0.985 . S
C3132 C3126 1.379 . S
C3132 C3129 1.363 . S
C3132 N3130 1.356 . S
C3133 C3127 1.363 . S
C3133 C3128 1.379 . S
C3133 N3131 1.356 . S
N3134 C3126 1.356 . S
N3134 H3140 0.984 . S
N3134 H3141 0.984 . S
N3135 C3128 1.356 . S
N3135 H3138 0.984 . S
N3135 H3139 0.985 . S
H3136 N3131 0.984 . S
H3137 N3131 0.985 . S
H3138 N3135 0.984 . S
H3139 N3135 0.985 . S
H3140 N3134 0.984 . S
H3141 N3134 0.984 . S
H3142 N3130 0.984 . S
H3143 N3130 0.985 . S
C3144 C3145 1.363 . S
C3144 C3150 1.381 . S
C3144 N3152 1.356 . S
C3145 C3144 1.363 . S
C3145 C3151 1.358 1_455 S
C3146 C3147 1.363 . S
C3146 C3151 1.383 . S
C3146 N3153 1.356 . S
C3147 C3146 1.363 . S
C3147 C3150 1.360 1_655 S
N3148 C3150 1.355 1_655 S
N3148 H3160 0.984 1_655 S
N3148 H3161 0.985 . S
N3149 C3151 1.355 1_455 S
N3149 H3154 0.984 . S
N3149 H3155 0.985 1_455 S
C3150 C3144 1.381 . S
C3150 C3147 1.360 1_455 S
C3150 N3148 1.355 1_455 S
C3151 C3145 1.358 1_655 S
C3151 C3146 1.383 . S
C3151 N3149 1.355 1_655 S
N3152 C3144 1.356 . S
N3152 H3158 0.984 . S
N3152 H3159 0.984 . S
N3153 C3146 1.356 . S
N3153 H3156 0.984 . S
N3153 H3157 0.985 . S
H3154 N3149 0.984 . S
H3155 N3149 0.985 1_655 S
H3156 N3153 0.984 . S
H3157 N3153 0.985 . S
H3158 N3152 0.984 . S
H3159 N3152 0.984 . S
H3160 N3148 0.984 1_455 S
H3161 N3148 0.985 . S
C3162 C3163 1.363 . S
C3162 C3168 1.379 . S
C3162 N3170 1.356 . S
C3163 C3162 1.363 . S
C3163 C3169 1.363 . S
C3164 C3165 1.363 . S
C3164 C3169 1.379 . S
C3164 N3171 1.356 . S
C3165 C3164 1.363 . S
C3165 C3168 1.363 . S
N3166 C3168 1.356 . S
N3166 H3178 0.984 . S
N3166 H3179 0.985 . S
N3167 C3169 1.356 . S
N3167 H3172 0.984 . S
N3167 H3173 0.985 . S
C3168 C3162 1.379 . S
C3168 C3165 1.363 . S
C3168 N3166 1.356 . S
C3169 C3163 1.363 . S
C3169 C3164 1.379 . S
C3169 N3167 1.356 . S
N3170 C3162 1.356 . S
N3170 H3176 0.984 . S
N3170 H3177 0.984 . S
N3171 C3164 1.356 . S
N3171 H3174 0.984 . S
N3171 H3175 0.985 . S
H3172 N3167 0.984 . S
H3173 N3167 0.985 . S
H3174 N3171 0.984 . S
H3175 N3171 0.985 . S
H3176 N3170 0.984 . S
H3177 N3170 0.984 . S
H3178 N3166 0.984 . S
H3179 N3166 0.985 . S
C3180 C3181 1.363 . S
C3180 C3186 1.379 . S
C3180 N3188 1.356 . S
C3181 C3180 1.363 . S
C3181 C3187 1.363 . S
C3182 C3183 1.363 . S
C3182 C3187 1.379 . S
C3182 N3189 1.356 . S
C3183 C3182 1.363 . S
C3183 C3186 1.363 . S
N3184 C3186 1.356 . S
N3184 H3196 0.984 . S
N3184 H3197 0.985 . S
N3185 C3187 1.356 . S
N3185 H3190 0.984 . S
N3185 H3191 0.985 . S
C3186 C3180 1.379 . S
C3186 C3183 1.363 . S
C3186 N3184 1.356 . S
C3187 C3181 1.363 . S
C3187 C3182 1.379 . S
C3187 N3185 1.356 . S
N3188 C3180 1.356 . S
N3188 H3194 0.984 . S
N3188 H3195 0.984 . S
N3189 C3182 1.356 . S
N3189 H3192 0.984 . S
N3189 H3193 0.985 . S
H3190 N3185 0.984 . S
H3191 N3185 0.985 . S
H3192 N3189 0.984 . S
H3193 N3189 0.985 . S
H3194 N3188 0.984 . S
H3195 N3188 0.984 . S
H3196 N3184 0.984 . S
H3197 N3184 0.985 . S
C3198 C3199 1.363 . S
C3198 C3204 1.356 1_455 S
C3198 N3206 1.356 . S
C3199 C3198 1.363 . S
C3199 C3205 1.389 . S
C3200 C3201 1.363 . S
C3200 C3205 1.353 1_655 S
C3200 N3207 1.356 . S
C3201 C3200 1.363 . S
C3201 C3204 1.386 . S
N3202 C3204 1.365 . S
N3202 H3214 0.984 1_655 S
N3202 H3215 0.985 . S
N3203 C3205 1.366 . S
N3203 H3208 0.984 . S
N3203 H3209 0.985 1_455 S
C3204 C3198 1.356 1_655 S
C3204 C3201 1.386 . S
C3204 N3202 1.365 . S
C3205 C3199 1.389 . S
C3205 C3200 1.353 1_455 S
C3205 N3203 1.366 . S
N3206 C3198 1.356 . S
N3206 H3212 0.984 . S
N3206 H3213 0.984 . S
N3207 C3200 1.356 . S
N3207 H3210 0.984 . S
N3207 H3211 0.985 . S
H3208 N3203 0.984 . S
H3209 N3203 0.985 1_655 S
H3210 N3207 0.984 . S
H3211 N3207 0.985 . S
H3212 N3206 0.984 . S
H3213 N3206 0.984 . S
H3214 N3202 0.984 1_455 S
H3215 N3202 0.985 . S
C3216 C3217 1.363 . S
C3216 C3222 1.379 . S
C3216 N3224 1.356 . S
C3217 C3216 1.363 . S
C3217 C3223 1.363 1_545 S
C3218 C3219 1.363 . S
C3218 C3223 1.379 . S
C3218 N3225 1.356 . S
C3219 C3218 1.363 . S
C3219 C3222 1.363 1_565 S
N3220 C3222 1.360 . S
N3220 H3232 1.006 . S
N3220 H3233 0.960 1_545 S
N3221 C3223 1.360 . S
N3221 H3226 0.961 1_565 S
N3221 H3227 1.005 . S
C3222 C3216 1.379 . S
C3222 C3219 1.363 1_545 S
C3222 N3220 1.360 . S
C3223 C3217 1.363 1_565 S
C3223 C3218 1.379 . S
C3223 N3221 1.360 . S
N3224 C3216 1.356 . S
N3224 H3230 0.984 . S
N3224 H3231 0.984 . S
N3225 C3218 1.356 . S
N3225 H3228 0.984 . S
N3225 H3229 0.985 . S
H3226 N3221 0.961 1_545 S
H3227 N3221 1.005 . S
H3228 N3225 0.984 . S
H3229 N3225 0.985 . S
H3230 N3224 0.984 . S
H3231 N3224 0.984 . S
H3232 N3220 1.006 . S
H3233 N3220 0.960 1_565 S
C3234 C3235 1.363 . S
C3234 C3240 1.379 . S
C3234 N3242 1.356 . S
C3235 C3234 1.363 . S
C3235 C3241 1.363 . S
C3236 C3237 1.363 . S
C3236 C3241 1.379 . S
C3236 N3243 1.356 . S
C3237 C3236 1.363 . S
C3237 C3240 1.363 . S
N3238 C3240 1.356 . S
N3238 H3250 0.984 . S
N3238 H3251 0.985 . S
N3239 C3241 1.356 . S
N3239 H3244 0.984 . S
N3239 H3245 0.985 . S
C3240 C3234 1.379 . S
C3240 C3237 1.363 . S
C3240 N3238 1.356 . S
C3241 C3235 1.363 . S
C3241 C3236 1.379 . S
C3241 N3239 1.356 . S
N3242 C3234 1.356 . S
N3242 H3248 0.984 . S
N3242 H3249 0.984 . S
N3243 C3236 1.356 . S
N3243 H3246 0.984 . S
N3243 H3247 0.985 . S
H3244 N3239 0.984 . S
H3245 N3239 0.985 . S
H3246 N3243 0.984 . S
H3247 N3243 0.985 . S
H3248 N3242 0.984 . S
H3249 N3242 0.984 . S
H3250 N3238 0.984 . S
H3251 N3238 0.985 . S
C3252 C3253 1.363 1_545 S
C3252 C3258 1.379 . S
C3252 N3260 1.361 . S
C3253 C3252 1.363 1_565 S
C3253 C3259 1.363 . S
C3254 C3255 1.363 1_565 S
C3254 C3259 1.379 . S
C3254 N3261 1.361 . S
C3255 C3254 1.363 1_545 S
C3255 C3258 1.363 . S
N3256 C3258 1.356 . S
N3256 H3268 0.984 . S
N3256 H3269 0.985 . S
N3257 C3259 1.356 . S
N3257 H3262 0.984 . S
N3257 H3263 0.985 . S
C3258 C3252 1.379 . S
C3258 C3255 1.363 . S
C3258 N3256 1.356 . S
C3259 C3253 1.363 . S
C3259 C3254 1.379 . S
C3259 N3257 1.356 . S
N3260 C3252 1.361 . S
N3260 H3266 1.010 . S
N3260 H3267 0.955 1_545 S
N3261 C3254 1.361 . S
N3261 H3264 0.953 1_565 S
N3261 H3265 1.012 . S
H3262 N3257 0.984 . S
H3263 N3257 0.985 . S
H3264 N3261 0.953 1_545 S
H3265 N3261 1.012 . S
H3266 N3260 1.010 . S
H3267 N3260 0.955 1_565 S
H3268 N3256 0.984 . S
H3269 N3256 0.985 . S
C3270 C3271 1.363 . S
C3270 C3276 1.353 1_556 S
C3270 N3278 1.356 . S
C3271 C3270 1.363 . S
C3271 C3277 1.386 . S
C3272 C3273 1.363 . S
C3272 C3277 1.356 1_554 S
C3272 N3279 1.356 . S
C3273 C3272 1.363 . S
C3273 C3276 1.389 . S
N3274 C3276 1.366 . S
N3274 H3286 0.984 1_554 S
N3274 H3287 0.985 . S
N3275 C3277 1.365 . S
N3275 H3280 0.984 . S
N3275 H3281 0.985 1_556 S
C3276 C3270 1.353 1_554 S
C3276 C3273 1.389 . S
C3276 N3274 1.366 . S
C3277 C3271 1.386 . S
C3277 C3272 1.356 1_556 S
C3277 N3275 1.365 . S
N3278 C3270 1.356 . S
N3278 H3284 0.984 . S
N3278 H3285 0.984 . S
N3279 C3272 1.356 . S
N3279 H3282 0.984 . S
N3279 H3283 0.985 . S
H3280 N3275 0.984 . S
H3281 N3275 0.985 1_554 S
H3282 N3279 0.984 . S
H3283 N3279 0.985 . S
H3284 N3278 0.984 . S
H3285 N3278 0.984 . S
H3286 N3274 0.984 1_556 S
H3287 N3274 0.985 . S
C3288 C3289 1.363 . S
C3288 C3294 1.383 . S
C3288 N3296 1.356 . S
C3289 C3288 1.363 . S
C3289 C3295 1.360 1_554 S
C3290 C3291 1.363 . S
C3290 C3295 1.382 . S
C3290 N3297 1.356 . S
C3291 C3290 1.363 . S
C3291 C3294 1.359 1_556 S
N3292 C3294 1.355 1_556 S
N3292 H3304 0.984 1_556 S
N3292 H3305 0.985 . S
N3293 C3295 1.355 1_554 S
N3293 H3298 0.984 . S
N3293 H3299 0.985 1_554 S
C3294 C3288 1.383 . S
C3294 C3291 1.359 1_554 S
C3294 N3292 1.355 1_554 S
C3295 C3289 1.360 1_556 S
C3295 C3290 1.382 . S
C3295 N3293 1.355 1_556 S
N3296 C3288 1.356 . S
N3296 H3302 0.984 . S
N3296 H3303 0.984 . S
N3297 C3290 1.356 . S
N3297 H3300 0.984 . S
N3297 H3301 0.985 . S
H3298 N3293 0.984 . S
H3299 N3293 0.985 1_556 S
H3300 N3297 0.984 . S
H3301 N3297 0.985 . S
H3302 N3296 0.984 . S
H3303 N3296 0.984 . S
H3304 N3292 0.984 1_554 S
H3305 N3292 0.985 . S
C3306 C3307 1.358 1_556 S
C3306 C3312 1.383 . S
C3306 N3314 1.355 1_556 S
C3307 C3306 1.358 1_554 S
C3307 C3313 1.363 . S
C3308 C3309 1.360 1_554 S
C3308 C3313 1.382 . S
C3308 N3315 1.355 1_554 S
C3309 C3308 1.360 1_556 S
C3309 C3312 1.363 . S
N3310 C3312 1.356 . S
N3310 H3322 0.984 . S
N3310 H3323 0.985 . S
N3311 C3313 1.356 . S
N3311 H3316 0.984 . S
N3311 H3317 0.985 . S
C3312 C3306 1.383 . S
C3312 C3309 1.363 . S
C3312 N3310 1.356 . S
C3313 C3307 1.363 . S
C3313 C3308 1.382 . S
C3313 N3311 1.356 . S
N3314 C3306 1.355 1_554 S
N3314 H3320 0.984 1_554 S
N3314 H3321 0.984 . S
N3315 C3308 1.355 1_556 S
N3315 H3318 0.984 . S
N3315 H3319 0.985 1_556 S
H3316 N3311 0.984 . S
H3317 N3311 0.985 . S
H3318 N3315 0.984 . S
H3319 N3315 0.985 1_554 S
H3320 N3314 0.984 1_556 S
H3321 N3314 0.984 . S
H3322 N3310 0.984 . S
H3323 N3310 0.985 . S
C3324 C3325 1.363 . S
C3324 C3330 1.379 . S
C3324 N3332 1.356 . S
C3325 C3324 1.363 . S
C3325 C3331 1.363 . S
C3326 C3327 1.363 . S
C3326 C3331 1.379 . S
C3326 N3333 1.356 . S
C3327 C3326 1.363 . S
C3327 C3330 1.363 . S
N3328 C3330 1.356 . S
N3328 H3340 0.984 . S
N3328 H3341 0.985 . S
N3329 C3331 1.356 . S
N3329 H3334 0.984 . S
N3329 H3335 0.985 . S
C3330 C3324 1.379 . S
C3330 C3327 1.363 . S
C3330 N3328 1.356 . S
C3331 C3325 1.363 . S
C3331 C3326 1.379 . S
C3331 N3329 1.356 . S
N3332 C3324 1.356 . S
N3332 H3338 0.984 . S
N3332 H3339 0.984 . S
N3333 C3326 1.356 . S
N3333 H3336 0.984 . S
N3333 H3337 0.985 . S
H3334 N3329 0.984 . S
H3335 N3329 0.985 . S
H3336 N3333 0.984 . S
H3337 N3333 0.985 . S
H3338 N3332 0.984 . S
H3339 N3332 0.984 . S
H3340 N3328 0.984 . S
H3341 N3328 0.985 . S
C3342 C3343 1.363 . S
C3342 C3348 1.379 . S
C3342 N3350 1.356 . S
C3343 C3342 1.363 . S
C3343 C3349 1.363 . S
C3344 C3345 1.363 . S
C3344 C3349 1.379 . S
C3344 N3351 1.356 . S
C3345 C3344 1.363 . S
C3345 C3348 1.363 . S
N3346 C3348 1.356 . S
N3346 H3358 0.984 . S
N3346 H3359 0.985 . S
N3347 C3349 1.356 . S
N3347 H3352 0.984 . S
N3347 H3353 0.985 . S
C3348 C3342 1.379 . S
C3348 C3345 1.363 . S
C3348 N3346 1.356 . S
C3349 C3343 1.363 . S
C3349 C3344 1.379 . S
C3349 N3347 1.356 . S
N3350 C3342 1.356 . S
N3350 H3356 0.984 . S
N3350 H3357 0.984 . S
N3351 C3344 1.356 . S
N3351 H3354 0.984 . S
N3351 H3355 0.985 . S
H3352 N3347 0.984 . S
H3353 N3347 0.985 . S
H3354 N3351 0.984 . S
H3355 N3351 0.985 . S
H3356 N3350 0.984 . S
H3357 N3350 0.984 . S
H3358 N3346 0.984 . S
H3359 N3346 0.985 . S
C3360 C3361 1.363 . S
C3360 C3366 1.402 . S
C3360 N3368 1.356 . S
C3361 C3360 1.363 . S
C3361 C3367 1.335 1_565 S
C3362 C3363 1.363 . S
C3362 C3367 1.405 . S
C3362 N3369 1.356 . S
C3363 C3362 1.363 . S
C3363 C3366 1.339 1_545 S
N3364 C3366 1.350 1_545 S
N3364 H3376 0.984 1_545 S
N3364 H3377 0.985 . S
N3365 C3367 1.349 1_565 S
N3365 H3370 0.984 . S
N3365 H3371 0.985 1_565 S
C3366 C3360 1.402 . S
C3366 C3363 1.339 1_565 S
C3366 N3364 1.350 1_565 S
C3367 C3361 1.335 1_545 S
C3367 C3362 1.405 . S
C3367 N3365 1.349 1_545 S
N3368 C3360 1.356 . S
N3368 H3374 0.984 . S
N3368 H3375 0.984 . S
N3369 C3362 1.356 . S
N3369 H3372 0.984 . S
N3369 H3373 0.985 . S
H3370 N3365 0.984 . S
H3371 N3365 0.985 1_545 S
H3372 N3369 0.984 . S
H3373 N3369 0.985 . S
H3374 N3368 0.984 . S
H3375 N3368 0.984 . S
H3376 N3364 0.984 1_565 S
H3377 N3364 0.985 . S
C3378 C3379 1.363 . S
C3378 C3384 1.379 . S
C3378 N3386 1.356 . S
C3379 C3378 1.363 . S
C3379 C3385 1.363 . S
C3380 C3381 1.363 . S
C3380 C3385 1.379 . S
C3380 N3387 1.356 . S
C3381 C3380 1.363 . S
C3381 C3384 1.363 . S
N3382 C3384 1.356 . S
N3382 H3394 0.984 . S
N3382 H3395 0.985 . S
N3383 C3385 1.356 . S
N3383 H3388 0.984 . S
N3383 H3389 0.985 . S
C3384 C3378 1.379 . S
C3384 C3381 1.363 . S
C3384 N3382 1.356 . S
C3385 C3379 1.363 . S
C3385 C3380 1.379 . S
C3385 N3383 1.356 . S
N3386 C3378 1.356 . S
N3386 H3392 0.984 . S
N3386 H3393 0.984 . S
N3387 C3380 1.356 . S
N3387 H3390 0.984 . S
N3387 H3391 0.985 . S
H3388 N3383 0.984 . S
H3389 N3383 0.985 . S
H3390 N3387 0.984 . S
H3391 N3387 0.985 . S
H3392 N3386 0.984 . S
H3393 N3386 0.984 . S
H3394 N3382 0.984 . S
H3395 N3382 0.985 . S
C3396 C3397 1.363 . S
C3396 C3402 1.379 . S
C3396 N3404 1.356 . S
C3397 C3396 1.363 . S
C3397 C3403 1.363 . S
C3398 C3399 1.363 . S
C3398 C3403 1.379 . S
C3398 N3405 1.356 . S
C3399 C3398 1.363 . S
C3399 C3402 1.363 . S
N3400 C3402 1.356 . S
N3400 H3412 0.984 . S
N3400 H3413 0.985 . S
N3401 C3403 1.356 . S
N3401 H3406 0.984 . S
N3401 H3407 0.985 . S
C3402 C3396 1.379 . S
C3402 C3399 1.363 . S
C3402 N3400 1.356 . S
C3403 C3397 1.363 . S
C3403 C3398 1.379 . S
C3403 N3401 1.356 . S
N3404 C3396 1.356 . S
N3404 H3410 0.984 . S
N3404 H3411 0.984 . S
N3405 C3398 1.356 . S
N3405 H3408 0.984 . S
N3405 H3409 0.985 . S
H3406 N3401 0.984 . S
H3407 N3401 0.985 . S
H3408 N3405 0.984 . S
H3409 N3405 0.985 . S
H3410 N3404 0.984 . S
H3411 N3404 0.984 . S
H3412 N3400 0.984 . S
H3413 N3400 0.985 . S
C3414 C3415 1.363 1_655 S
C3414 C3420 1.379 . S
C3414 N3422 1.356 1_655 S
C3415 C3414 1.363 1_455 S
C3415 C3421 1.363 . S
C3416 C3417 1.363 1_455 S
C3416 C3421 1.379 . S
C3416 N3423 1.356 1_455 S
C3417 C3416 1.363 1_655 S
C3417 C3420 1.363 . S
N3418 C3420 1.356 . S
N3418 H3430 0.984 . S
N3418 H3431 0.985 . S
N3419 C3421 1.356 . S
N3419 H3424 0.984 . S
N3419 H3425 0.985 . S
C3420 C3414 1.379 . S
C3420 C3417 1.363 . S
C3420 N3418 1.356 . S
C3421 C3415 1.363 . S
C3421 C3416 1.379 . S
C3421 N3419 1.356 . S
N3422 C3414 1.356 1_455 S
N3422 H3428 0.984 1_455 S
N3422 H3429 0.984 . S
N3423 C3416 1.356 1_655 S
N3423 H3426 0.984 . S
N3423 H3427 0.985 1_655 S
H3424 N3419 0.984 . S
H3425 N3419 0.985 . S
H3426 N3423 0.984 . S
H3427 N3423 0.985 1_455 S
H3428 N3422 0.984 1_655 S
H3429 N3422 0.984 . S
H3430 N3418 0.984 . S
H3431 N3418 0.985 . S
C3432 C3433 1.363 . S
C3432 C3438 1.379 1_455 S
C3432 N3440 1.356 . S
C3433 C3432 1.363 . S
C3433 C3439 1.363 . S
C3434 C3435 1.363 . S
C3434 C3439 1.379 1_655 S
C3434 N3441 1.356 . S
C3435 C3434 1.363 . S
C3435 C3438 1.363 . S
N3436 C3438 1.356 . S
N3436 H3448 0.984 . S
N3436 H3449 0.985 . S
N3437 C3439 1.356 . S
N3437 H3442 0.984 . S
N3437 H3443 0.985 . S
C3438 C3432 1.379 1_655 S
C3438 C3435 1.363 . S
C3438 N3436 1.356 . S
C3439 C3433 1.363 . S
C3439 C3434 1.379 1_455 S
C3439 N3437 1.356 . S
N3440 C3432 1.356 . S
N3440 H3446 0.984 . S
N3440 H3447 0.984 . S
N3441 C3434 1.356 . S
N3441 H3444 0.984 . S
N3441 H3445 0.985 . S
H3442 N3437 0.984 . S
H3443 N3437 0.985 . S
H3444 N3441 0.984 . S
H3445 N3441 0.985 . S
H3446 N3440 0.984 . S
H3447 N3440 0.984 . S
H3448 N3436 0.984 . S
H3449 N3436 0.985 . S
C3450 C3451 1.363 . S
C3450 C3456 1.379 . S
C3450 N3458 1.356 . S
C3451 C3450 1.363 . S
C3451 C3457 1.363 . S
C3452 C3453 1.363 . S
C3452 C3457 1.379 . S
C3452 N3459 1.356 . S
C3453 C3452 1.363 . S
C3453 C3456 1.363 . S
N3454 C3456 1.356 . S
N3454 H3466 0.984 . S
N3454 H3467 0.985 . S
N3455 C3457 1.356 . S
N3455 H3460 0.984 . S
N3455 H3461 0.985 . S
C3456 C3450 1.379 . S
C3456 C3453 1.363 . S
C3456 N3454 1.356 . S
C3457 C3451 1.363 . S
C3457 C3452 1.379 . S
C3457 N3455 1.356 . S
N3458 C3450 1.356 . S
N3458 H3464 0.984 . S
N3458 H3465 0.984 . S
N3459 C3452 1.356 . S
N3459 H3462 0.984 . S
N3459 H3463 0.985 . S
H3460 N3455 0.984 . S
H3461 N3455 0.985 . S
H3462 N3459 0.984 . S
H3463 N3459 0.985 . S
H3464 N3458 0.984 . S
H3465 N3458 0.984 . S
H3466 N3454 0.984 . S
H3467 N3454 0.985 . S
C3468 C3469 1.363 . S
C3468 C3474 1.379 . S
C3468 N3476 1.356 . S
C3469 C3468 1.363 . S
C3469 C3475 1.363 . S
C3470 C3471 1.363 . S
C3470 C3475 1.379 . S
C3470 N3477 1.356 . S
C3471 C3470 1.363 . S
C3471 C3474 1.363 . S
N3472 C3474 1.356 . S
N3472 H3484 0.984 . S
N3472 H3485 0.985 . S
N3473 C3475 1.356 . S
N3473 H3478 0.984 . S
N3473 H3479 0.985 . S
C3474 C3468 1.379 . S
C3474 C3471 1.363 . S
C3474 N3472 1.356 . S
C3475 C3469 1.363 . S
C3475 C3470 1.379 . S
C3475 N3473 1.356 . S
N3476 C3468 1.356 . S
N3476 H3482 0.984 . S
N3476 H3483 0.984 . S
N3477 C3470 1.356 . S
N3477 H3480 0.984 . S
N3477 H3481 0.985 . S
H3478 N3473 0.984 . S
H3479 N3473 0.985 . S
H3480 N3477 0.984 . S
H3481 N3477 0.985 . S
H3482 N3476 0.984 . S
H3483 N3476 0.984 . S
H3484 N3472 0.984 . S
H3485 N3472 0.985 . S
C3486 C3487 1.363 1_655 S
C3486 C3492 1.379 . S
C3486 N3494 1.356 1_655 S
C3487 C3486 1.363 1_455 S
C3487 C3493 1.363 . S
C3488 C3489 1.363 1_455 S
C3488 C3493 1.379 . S
C3488 N3495 1.356 1_455 S
C3489 C3488 1.363 1_655 S
C3489 C3492 1.363 . S
N3490 C3492 1.356 . S
N3490 H3502 0.984 . S
N3490 H3503 0.985 . S
N3491 C3493 1.356 . S
N3491 H3496 0.984 . S
N3491 H3497 0.985 . S
C3492 C3486 1.379 . S
C3492 C3489 1.363 . S
C3492 N3490 1.356 . S
C3493 C3487 1.363 . S
C3493 C3488 1.379 . S
C3493 N3491 1.356 . S
N3494 C3486 1.356 1_455 S
N3494 H3500 0.984 1_455 S
N3494 H3501 0.984 . S
N3495 C3488 1.356 1_655 S
N3495 H3498 0.984 . S
N3495 H3499 0.985 1_655 S
H3496 N3491 0.984 . S
H3497 N3491 0.985 . S
H3498 N3495 0.984 . S
H3499 N3495 0.985 1_455 S
H3500 N3494 0.984 1_655 S
H3501 N3494 0.984 . S
H3502 N3490 0.984 . S
H3503 N3490 0.985 . S
C3504 C3505 1.363 . S
C3504 C3510 1.379 . S
C3504 N3512 1.356 . S
C3505 C3504 1.363 . S
C3505 C3511 1.363 . S
C3506 C3507 1.363 . S
C3506 C3511 1.379 . S
C3506 N3513 1.356 . S
C3507 C3506 1.363 . S
C3507 C3510 1.363 . S
N3508 C3510 1.356 . S
N3508 H3520 0.984 . S
N3508 H3521 0.985 . S
N3509 C3511 1.356 . S
N3509 H3514 0.984 . S
N3509 H3515 0.985 . S
C3510 C3504 1.379 . S
C3510 C3507 1.363 . S
C3510 N3508 1.356 . S
C3511 C3505 1.363 . S
C3511 C3506 1.379 . S
C3511 N3509 1.356 . S
N3512 C3504 1.356 . S
N3512 H3518 0.984 . S
N3512 H3519 0.984 . S
N3513 C3506 1.356 . S
N3513 H3516 0.984 . S
N3513 H3517 0.985 . S
H3514 N3509 0.984 . S
H3515 N3509 0.985 . S
H3516 N3513 0.984 . S
H3517 N3513 0.985 . S
H3518 N3512 0.984 . S
H3519 N3512 0.984 . S
H3520 N3508 0.984 . S
H3521 N3508 0.985 . S
C3522 C3523 1.363 . S
C3522 C3528 1.379 . S
C3522 N3530 1.356 . S
C3523 C3522 1.363 . S
C3523 C3529 1.363 . S
C3524 C3525 1.363 . S
C3524 C3529 1.379 . S
C3524 N3531 1.356 . S
C3525 C3524 1.363 . S
C3525 C3528 1.363 . S
N3526 C3528 1.356 . S
N3526 H3538 0.984 . S
N3526 H3539 0.985 . S
N3527 C3529 1.356 . S
N3527 H3532 0.984 . S
N3527 H3533 0.985 . S
C3528 C3522 1.379 . S
C3528 C3525 1.363 . S
C3528 N3526 1.356 . S
C3529 C3523 1.363 . S
C3529 C3524 1.379 . S
C3529 N3527 1.356 . S
N3530 C3522 1.356 . S
N3530 H3536 0.984 . S
N3530 H3537 0.984 . S
N3531 C3524 1.356 . S
N3531 H3534 0.984 . S
N3531 H3535 0.985 . S
H3532 N3527 0.984 . S
H3533 N3527 0.985 . S
H3534 N3531 0.984 . S
H3535 N3531 0.985 . S
H3536 N3530 0.984 . S
H3537 N3530 0.984 . S
H3538 N3526 0.984 . S
H3539 N3526 0.985 . S
C3540 C3541 1.363 . S
C3540 C3546 1.379 1_455 S
C3540 N3548 1.356 . S
C3541 C3540 1.363 . S
C3541 C3547 1.363 . S
C3542 C3543 1.363 . S
C3542 C3547 1.379 1_655 S
C3542 N3549 1.356 . S
C3543 C3542 1.363 . S
C3543 C3546 1.363 . S
N3544 C3546 1.356 . S
N3544 H3556 0.984 . S
N3544 H3557 0.985 . S
N3545 C3547 1.356 . S
N3545 H3550 0.984 . S
N3545 H3551 0.985 . S
C3546 C3540 1.379 1_655 S
C3546 C3543 1.363 . S
C3546 N3544 1.356 . S
C3547 C3541 1.363 . S
C3547 C3542 1.379 1_455 S
C3547 N3545 1.356 . S
N3548 C3540 1.356 . S
N3548 H3554 0.984 . S
N3548 H3555 0.984 . S
N3549 C3542 1.356 . S
N3549 H3552 0.984 . S
N3549 H3553 0.985 . S
H3550 N3545 0.984 . S
H3551 N3545 0.985 . S
H3552 N3549 0.984 . S
H3553 N3549 0.985 . S
H3554 N3548 0.984 . S
H3555 N3548 0.984 . S
H3556 N3544 0.984 . S
H3557 N3544 0.985 . S
C3558 C3559 1.363 1_545 S
C3558 C3564 1.379 . S
C3558 N3566 1.356 . S
C3559 C3558 1.363 1_565 S
C3559 C3565 1.363 . S
C3560 C3561 1.363 1_565 S
C3560 C3565 1.379 . S
C3560 N3567 1.356 . S
C3561 C3560 1.363 1_545 S
C3561 C3564 1.363 . S
N3562 C3564 1.356 . S
N3562 H3574 0.984 . S
N3562 H3575 0.985 . S
N3563 C3565 1.356 . S
N3563 H3568 0.984 . S
N3563 H3569 0.985 . S
C3564 C3558 1.379 . S
C3564 C3561 1.363 . S
C3564 N3562 1.356 . S
C3565 C3559 1.363 . S
C3565 C3560 1.379 . S
C3565 N3563 1.356 . S
N3566 C3558 1.356 . S
N3566 H3572 0.984 . S
N3566 H3573 0.984 1_545 S
N3567 C3560 1.356 . S
N3567 H3570 0.984 1_565 S
N3567 H3571 0.985 . S
H3568 N3563 0.984 . S
H3569 N3563 0.985 . S
H3570 N3567 0.984 1_545 S
H3571 N3567 0.985 . S
H3572 N3566 0.984 . S
H3573 N3566 0.984 1_565 S
H3574 N3562 0.984 . S
H3575 N3562 0.985 . S
C3576 C3577 1.363 . S
C3576 C3582 1.379 . S
C3576 N3584 1.356 . S
C3577 C3576 1.363 . S
C3577 C3583 1.363 . S
C3578 C3579 1.363 . S
C3578 C3583 1.379 . S
C3578 N3585 1.356 . S
C3579 C3578 1.363 . S
C3579 C3582 1.363 . S
N3580 C3582 1.356 . S
N3580 H3592 0.984 . S
N3580 H3593 0.985 . S
N3581 C3583 1.356 . S
N3581 H3586 0.984 . S
N3581 H3587 0.985 . S
C3582 C3576 1.379 . S
C3582 C3579 1.363 . S
C3582 N3580 1.356 . S
C3583 C3577 1.363 . S
C3583 C3578 1.379 . S
C3583 N3581 1.356 . S
N3584 C3576 1.356 . S
N3584 H3590 0.984 . S
N3584 H3591 0.984 . S
N3585 C3578 1.356 . S
N3585 H3588 0.984 . S
N3585 H3589 0.985 . S
H3586 N3581 0.984 . S
H3587 N3581 0.985 . S
H3588 N3585 0.984 . S
H3589 N3585 0.985 . S
H3590 N3584 0.984 . S
H3591 N3584 0.984 . S
H3592 N3580 0.984 . S
H3593 N3580 0.985 . S
C3594 C3595 1.363 . S
C3594 C3600 1.379 . S
C3594 N3602 1.356 . S
C3595 C3594 1.363 . S
C3595 C3601 1.363 1_545 S
C3596 C3597 1.363 . S
C3596 C3601 1.379 . S
C3596 N3603 1.356 . S
C3597 C3596 1.363 . S
C3597 C3600 1.363 1_565 S
N3598 C3600 1.356 . S
N3598 H3610 0.984 . S
N3598 H3611 0.985 1_545 S
N3599 C3601 1.356 . S
N3599 H3604 0.984 1_565 S
N3599 H3605 0.985 . S
C3600 C3594 1.379 . S
C3600 C3597 1.363 1_545 S
C3600 N3598 1.356 . S
C3601 C3595 1.363 1_565 S
C3601 C3596 1.379 . S
C3601 N3599 1.356 . S
N3602 C3594 1.356 . S
N3602 H3608 0.984 . S
N3602 H3609 0.984 . S
N3603 C3596 1.356 . S
N3603 H3606 0.984 . S
N3603 H3607 0.985 . S
H3604 N3599 0.984 1_545 S
H3605 N3599 0.985 . S
H3606 N3603 0.984 . S
H3607 N3603 0.985 . S
H3608 N3602 0.984 . S
H3609 N3602 0.984 . S
H3610 N3598 0.984 . S
H3611 N3598 0.985 1_565 S
C3612 C3613 1.363 . S
C3612 C3618 1.379 1_556 S
C3612 N3620 1.356 . S
C3613 C3612 1.363 . S
C3613 C3619 1.363 . S
C3614 C3615 1.363 . S
C3614 C3619 1.379 1_554 S
C3614 N3621 1.356 . S
C3615 C3614 1.363 . S
C3615 C3618 1.363 . S
N3616 C3618 1.356 . S
N3616 H3628 0.984 . S
N3616 H3629 0.985 . S
N3617 C3619 1.356 . S
N3617 H3622 0.984 . S
N3617 H3623 0.985 . S
C3618 C3612 1.379 1_554 S
C3618 C3615 1.363 . S
C3618 N3616 1.356 . S
C3619 C3613 1.363 . S
C3619 C3614 1.379 1_556 S
C3619 N3617 1.356 . S
N3620 C3612 1.356 . S
N3620 H3626 0.984 . S
N3620 H3627 0.984 . S
N3621 C3614 1.356 . S
N3621 H3624 0.984 . S
N3621 H3625 0.985 . S
H3622 N3617 0.984 . S
H3623 N3617 0.985 . S
H3624 N3621 0.984 . S
H3625 N3621 0.985 . S
H3626 N3620 0.984 . S
H3627 N3620 0.984 . S
H3628 N3616 0.984 . S
H3629 N3616 0.985 . S
C3630 C3631 1.363 . S
C3630 C3636 1.379 . S
C3630 N3638 1.356 . S
C3631 C3630 1.363 . S
C3631 C3637 1.363 1_556 S
C3632 C3633 1.363 . S
C3632 C3637 1.379 . S
C3632 N3639 1.356 . S
C3633 C3632 1.363 . S
C3633 C3636 1.363 1_554 S
N3634 C3636 1.356 1_554 S
N3634 H3646 0.984 1_554 S
N3634 H3647 0.985 . S
N3635 C3637 1.356 1_556 S
N3635 H3640 0.984 . S
N3635 H3641 0.985 1_556 S
C3636 C3630 1.379 . S
C3636 C3633 1.363 1_556 S
C3636 N3634 1.356 1_556 S
C3637 C3631 1.363 1_554 S
C3637 C3632 1.379 . S
C3637 N3635 1.356 1_554 S
N3638 C3630 1.356 . S
N3638 H3644 0.984 . S
N3638 H3645 0.984 . S
N3639 C3632 1.356 . S
N3639 H3642 0.984 . S
N3639 H3643 0.985 . S
H3640 N3635 0.984 . S
H3641 N3635 0.985 1_554 S
H3642 N3639 0.984 . S
H3643 N3639 0.985 . S
H3644 N3638 0.984 . S
H3645 N3638 0.984 . S
H3646 N3634 0.984 1_556 S
H3647 N3634 0.985 . S
C3648 C3649 1.363 . S
C3648 C3654 1.379 . S
C3648 N3656 1.356 . S
C3649 C3648 1.363 . S
C3649 C3655 1.363 1_556 S
C3650 C3651 1.363 . S
C3650 C3655 1.379 . S
C3650 N3657 1.356 . S
C3651 C3650 1.363 . S
C3651 C3654 1.363 1_554 S
N3652 C3654 1.356 1_554 S
N3652 H3664 0.984 1_554 S
N3652 H3665 0.985 . S
N3653 C3655 1.356 1_556 S
N3653 H3658 0.984 . S
N3653 H3659 0.985 1_556 S
C3654 C3648 1.379 . S
C3654 C3651 1.363 1_556 S
C3654 N3652 1.356 1_556 S
C3655 C3649 1.363 1_554 S
C3655 C3650 1.379 . S
C3655 N3653 1.356 1_554 S
N3656 C3648 1.356 . S
N3656 H3662 0.984 . S
N3656 H3663 0.984 . S
N3657 C3650 1.356 . S
N3657 H3660 0.984 . S
N3657 H3661 0.985 . S
H3658 N3653 0.984 . S
H3659 N3653 0.985 1_554 S
H3660 N3657 0.984 . S
H3661 N3657 0.985 . S
H3662 N3656 0.984 . S
H3663 N3656 0.984 . S
H3664 N3652 0.984 1_556 S
H3665 N3652 0.985 . S
C3666 C3667 1.363 . S
C3666 C3672 1.379 . S
C3666 N3674 1.356 . S
C3667 C3666 1.363 . S
C3667 C3673 1.363 . S
C3668 C3669 1.363 . S
C3668 C3673 1.379 . S
C3668 N3675 1.356 . S
C3669 C3668 1.363 . S
C3669 C3672 1.363 . S
N3670 C3672 1.356 . S
N3670 H3682 0.984 . S
N3670 H3683 0.985 . S
N3671 C3673 1.356 . S
N3671 H3676 0.984 . S
N3671 H3677 0.985 . S
C3672 C3666 1.379 . S
C3672 C3669 1.363 . S
C3672 N3670 1.356 . S
C3673 C3667 1.363 . S
C3673 C3668 1.379 . S
C3673 N3671 1.356 . S
N3674 C3666 1.356 . S
N3674 H3680 0.984 . S
N3674 H3681 0.984 . S
N3675 C3668 1.356 . S
N3675 H3678 0.984 . S
N3675 H3679 0.985 . S
H3676 N3671 0.984 . S
H3677 N3671 0.985 . S
H3678 N3675 0.984 . S
H3679 N3675 0.985 . S
H3680 N3674 0.984 . S
H3681 N3674 0.984 . S
H3682 N3670 0.984 . S
H3683 N3670 0.985 . S
C3684 C3685 1.363 . S
C3684 C3690 1.379 . S
C3684 N3692 1.356 . S
C3685 C3684 1.363 . S
C3685 C3691 1.363 . S
C3686 C3687 1.363 . S
C3686 C3691 1.379 . S
C3686 N3693 1.356 . S
C3687 C3686 1.363 . S
C3687 C3690 1.363 . S
N3688 C3690 1.356 . S
N3688 H3700 0.984 . S
N3688 H3701 0.985 . S
N3689 C3691 1.356 . S
N3689 H3694 0.984 . S
N3689 H3695 0.985 . S
C3690 C3684 1.379 . S
C3690 C3687 1.363 . S
C3690 N3688 1.356 . S
C3691 C3685 1.363 . S
C3691 C3686 1.379 . S
C3691 N3689 1.356 . S
N3692 C3684 1.356 . S
N3692 H3698 0.984 . S
N3692 H3699 0.984 . S
N3693 C3686 1.356 . S
N3693 H3696 0.984 . S
N3693 H3697 0.985 . S
H3694 N3689 0.984 . S
H3695 N3689 0.985 . S
H3696 N3693 0.984 . S
H3697 N3693 0.985 . S
H3698 N3692 0.984 . S
H3699 N3692 0.984 . S
H3700 N3688 0.984 . S
H3701 N3688 0.985 . S
C3702 C3703 1.363 . S
C3702 C3708 1.379 . S
C3702 N3710 1.356 . S
C3703 C3702 1.363 . S
C3703 C3709 1.363 1_545 S
C3704 C3705 1.363 . S
C3704 C3709 1.379 . S
C3704 N3711 1.356 . S
C3705 C3704 1.363 . S
C3705 C3708 1.363 1_565 S
N3706 C3708 1.356 1_565 S
N3706 H3718 0.984 1_565 S
N3706 H3719 0.985 . S
N3707 C3709 1.356 1_545 S
N3707 H3712 0.984 . S
N3707 H3713 0.985 1_545 S
C3708 C3702 1.379 . S
C3708 C3705 1.363 1_545 S
C3708 N3706 1.356 1_545 S
C3709 C3703 1.363 1_565 S
C3709 C3704 1.379 . S
C3709 N3707 1.356 1_565 S
N3710 C3702 1.356 . S
N3710 H3716 0.984 . S
N3710 H3717 0.984 . S
N3711 C3704 1.356 . S
N3711 H3714 0.984 . S
N3711 H3715 0.985 . S
H3712 N3707 0.984 . S
H3713 N3707 0.985 1_565 S
H3714 N3711 0.984 . S
H3715 N3711 0.985 . S
H3716 N3710 0.984 . S
H3717 N3710 0.984 . S
H3718 N3706 0.984 1_545 S
H3719 N3706 0.985 . S
C3720 C3721 1.363 . S
C3720 C3726 1.379 . S
C3720 N3728 1.356 . S
C3721 C3720 1.363 . S
C3721 C3727 1.363 . S
C3722 C3723 1.363 . S
C3722 C3727 1.379 . S
C3722 N3729 1.356 . S
C3723 C3722 1.363 . S
C3723 C3726 1.363 . S
N3724 C3726 1.356 . S
N3724 H3736 0.984 . S
N3724 H3737 0.985 . S
N3725 C3727 1.356 . S
N3725 H3730 0.984 . S
N3725 H3731 0.985 . S
C3726 C3720 1.379 . S
C3726 C3723 1.363 . S
C3726 N3724 1.356 . S
C3727 C3721 1.363 . S
C3727 C3722 1.379 . S
C3727 N3725 1.356 . S
N3728 C3720 1.356 . S
N3728 H3734 0.984 . S
N3728 H3735 0.984 . S
N3729 C3722 1.356 . S
N3729 H3732 0.984 . S
N3729 H3733 0.985 . S
H3730 N3725 0.984 . S
H3731 N3725 0.985 . S
H3732 N3729 0.984 . S
H3733 N3729 0.985 . S
H3734 N3728 0.984 . S
H3735 N3728 0.984 . S
H3736 N3724 0.984 . S
H3737 N3724 0.985 . S
C3738 C3739 1.363 . S
C3738 C3744 1.379 . S
C3738 N3746 1.356 . S
C3739 C3738 1.363 . S
C3739 C3745 1.363 . S
C3740 C3741 1.363 . S
C3740 C3745 1.379 . S
C3740 N3747 1.356 . S
C3741 C3740 1.363 . S
C3741 C3744 1.363 . S
N3742 C3744 1.356 . S
N3742 H3754 0.984 . S
N3742 H3755 0.985 . S
N3743 C3745 1.356 . S
N3743 H3748 0.984 . S
N3743 H3749 0.985 . S
C3744 C3738 1.379 . S
C3744 C3741 1.363 . S
C3744 N3742 1.356 . S
C3745 C3739 1.363 . S
C3745 C3740 1.379 . S
C3745 N3743 1.356 . S
N3746 C3738 1.356 . S
N3746 H3752 0.984 . S
N3746 H3753 0.984 . S
N3747 C3740 1.356 . S
N3747 H3750 0.984 . S
N3747 H3751 0.985 . S
H3748 N3743 0.984 . S
H3749 N3743 0.985 . S
H3750 N3747 0.984 . S
H3751 N3747 0.985 . S
H3752 N3746 0.984 . S
H3753 N3746 0.984 . S
H3754 N3742 0.984 . S
H3755 N3742 0.985 . S
C3756 C3757 1.363 . S
C3756 C3762 1.379 . S
C3756 N3764 1.356 . S
C3757 C3756 1.363 . S
C3757 C3763 1.363 . S
C3758 C3759 1.363 . S
C3758 C3763 1.379 . S
C3758 N3765 1.356 . S
C3759 C3758 1.363 . S
C3759 C3762 1.363 . S
N3760 C3762 1.356 . S
N3760 H3772 0.984 . S
N3760 H3773 0.985 . S
N3761 C3763 1.356 . S
N3761 H3766 0.984 . S
N3761 H3767 0.985 . S
C3762 C3756 1.379 . S
C3762 C3759 1.363 . S
C3762 N3760 1.356 . S
C3763 C3757 1.363 . S
C3763 C3758 1.379 . S
C3763 N3761 1.356 . S
N3764 C3756 1.356 . S
N3764 H3770 0.984 . S
N3764 H3771 0.984 . S
N3765 C3758 1.356 . S
N3765 H3768 0.984 . S
N3765 H3769 0.985 . S
H3766 N3761 0.984 . S
H3767 N3761 0.985 . S
H3768 N3765 0.984 . S
H3769 N3765 0.985 . S
H3770 N3764 0.984 . S
H3771 N3764 0.984 . S
H3772 N3760 0.984 . S
H3773 N3760 0.985 . S
C3774 C3775 1.388 . S
C3774 C3780 1.354 1_554 S
C3774 N3782 1.366 . S
C3775 C3774 1.388 . S
C3775 C3781 1.363 . S
C3776 C3777 1.387 . S
C3776 C3781 1.355 1_556 S
C3776 N3783 1.366 . S
C3777 C3776 1.387 . S
C3777 C3780 1.363 . S
N3778 C3780 1.356 . S
N3778 H3790 0.984 . S
N3778 H3791 0.985 . S
N3779 C3781 1.356 . S
N3779 H3784 0.984 . S
N3779 H3785 0.985 . S
C3780 C3774 1.354 1_556 S
C3780 C3777 1.363 . S
C3780 N3778 1.356 . S
C3781 C3775 1.363 . S
C3781 C3776 1.355 1_554 S
C3781 N3779 1.356 . S
N3782 C3774 1.366 . S
N3782 H3788 0.984 1_554 S
N3782 H3789 0.984 . S
N3783 C3776 1.366 . S
N3783 H3786 0.984 . S
N3783 H3787 0.985 1_556 S
H3784 N3779 0.984 . S
H3785 N3779 0.985 . S
H3786 N3783 0.984 . S
H3787 N3783 0.985 1_554 S
H3788 N3782 0.984 1_556 S
H3789 N3782 0.984 . S
H3790 N3778 0.984 . S
H3791 N3778 0.985 . S
C3792 C3793 1.363 . S
C3792 C3798 1.379 . S
C3792 N3800 1.356 . S
C3793 C3792 1.363 . S
C3793 C3799 1.363 . S
C3794 C3795 1.363 . S
C3794 C3799 1.379 . S
C3794 N3801 1.356 . S
C3795 C3794 1.363 . S
C3795 C3798 1.363 . S
N3796 C3798 1.356 . S
N3796 H3808 0.984 . S
N3796 H3809 0.985 . S
N3797 C3799 1.356 . S
N3797 H3802 0.984 . S
N3797 H3803 0.985 . S
C3798 C3792 1.379 . S
C3798 C3795 1.363 . S
C3798 N3796 1.356 . S
C3799 C3793 1.363 . S
C3799 C3794 1.379 . S
C3799 N3797 1.356 . S
N3800 C3792 1.356 . S
N3800 H3806 0.984 . S
N3800 H3807 0.984 . S
N3801 C3794 1.356 . S
N3801 H3804 0.984 . S
N3801 H3805 0.985 . S
H3802 N3797 0.984 . S
H3803 N3797 0.985 . S
H3804 N3801 0.984 . S
H3805 N3801 0.985 . S
H3806 N3800 0.984 . S
H3807 N3800 0.984 . S
H3808 N3796 0.984 . S
H3809 N3796 0.985 . S
C3810 C3811 1.363 . S
C3810 C3816 1.379 . S
C3810 N3818 1.356 . S
C3811 C3810 1.363 . S
C3811 C3817 1.363 . S
C3812 C3813 1.363 . S
C3812 C3817 1.379 . S
C3812 N3819 1.356 . S
C3813 C3812 1.363 . S
C3813 C3816 1.363 . S
N3814 C3816 1.356 . S
N3814 H3826 0.984 . S
N3814 H3827 0.985 . S
N3815 C3817 1.356 . S
N3815 H3820 0.984 . S
N3815 H3821 0.985 . S
C3816 C3810 1.379 . S
C3816 C3813 1.363 . S
C3816 N3814 1.356 . S
C3817 C3811 1.363 . S
C3817 C3812 1.379 . S
C3817 N3815 1.356 . S
N3818 C3810 1.356 . S
N3818 H3824 0.984 . S
N3818 H3825 0.984 . S
N3819 C3812 1.356 . S
N3819 H3822 0.984 . S
N3819 H3823 0.985 . S
H3820 N3815 0.984 . S
H3821 N3815 0.985 . S
H3822 N3819 0.984 . S
H3823 N3819 0.985 . S
H3824 N3818 0.984 . S
H3825 N3818 0.984 . S
H3826 N3814 0.984 . S
H3827 N3814 0.985 . S
C3828 C3829 1.363 . S
C3828 C3834 1.379 . S
C3828 N3836 1.356 . S
C3829 C3828 1.363 . S
C3829 C3835 1.363 1_565 S
C3830 C3831 1.363 . S
C3830 C3835 1.379 . S
C3830 N3837 1.356 . S
C3831 C3830 1.363 . S
C3831 C3834 1.363 1_545 S
N3832 C3834 1.353 1_545 S
N3832 H3844 0.969 1_545 S
N3832 H3845 1.003 . S
N3833 C3835 1.353 1_565 S
N3833 H3838 1.003 . S
N3833 H3839 0.969 1_565 S
C3834 C3828 1.379 . S
C3834 C3831 1.363 1_565 S
C3834 N3832 1.353 1_565 S
C3835 C3829 1.363 1_545 S
C3835 C3830 1.379 . S
C3835 N3833 1.353 1_545 S
N3836 C3828 1.356 . S
N3836 H3842 0.984 . S
N3836 H3843 0.984 . S
N3837 C3830 1.356 . S
N3837 H3840 0.984 . S
N3837 H3841 0.985 . S
H3838 N3833 1.003 . S
H3839 N3833 0.969 1_545 S
H3840 N3837 0.984 . S
H3841 N3837 0.985 . S
H3842 N3836 0.984 . S
H3843 N3836 0.984 . S
H3844 N3832 0.969 1_565 S
H3845 N3832 1.003 . S
C3846 C3847 1.363 . S
C3846 C3852 1.379 . S
C3846 N3854 1.356 . S
C3847 C3846 1.363 . S
C3847 C3853 1.363 . S
C3848 C3849 1.363 . S
C3848 C3853 1.379 . S
C3848 N3855 1.356 . S
C3849 C3848 1.363 . S
C3849 C3852 1.363 . S
N3850 C3852 1.356 . S
N3850 H3862 0.984 . S
N3850 H3863 0.985 . S
N3851 C3853 1.356 . S
N3851 H3856 0.984 . S
N3851 H3857 0.985 . S
C3852 C3846 1.379 . S
C3852 C3849 1.363 . S
C3852 N3850 1.356 . S
C3853 C3847 1.363 . S
C3853 C3848 1.379 . S
C3853 N3851 1.356 . S
N3854 C3846 1.356 . S
N3854 H3860 0.984 . S
N3854 H3861 0.984 . S
N3855 C3848 1.356 . S
N3855 H3858 0.984 . S
N3855 H3859 0.985 . S
H3856 N3851 0.984 . S
H3857 N3851 0.985 . S
H3858 N3855 0.984 . S
H3859 N3855 0.985 . S
H3860 N3854 0.984 . S
H3861 N3854 0.984 . S
H3862 N3850 0.984 . S
H3863 N3850 0.985 . S
C3864 C3865 1.363 . S
C3864 C3870 1.379 1_556 S
C3864 N3872 1.356 . S
C3865 C3864 1.363 . S
C3865 C3871 1.363 . S
C3866 C3867 1.363 . S
C3866 C3871 1.379 1_554 S
C3866 N3873 1.356 . S
C3867 C3866 1.363 . S
C3867 C3870 1.363 . S
N3868 C3870 1.356 . S
N3868 H3880 0.984 . S
N3868 H3881 0.985 . S
N3869 C3871 1.356 . S
N3869 H3874 0.984 . S
N3869 H3875 0.985 . S
C3870 C3864 1.379 1_554 S
C3870 C3867 1.363 . S
C3870 N3868 1.356 . S
C3871 C3865 1.363 . S
C3871 C3866 1.379 1_556 S
C3871 N3869 1.356 . S
N3872 C3864 1.356 . S
N3872 H3878 0.984 . S
N3872 H3879 0.984 . S
N3873 C3866 1.356 . S
N3873 H3876 0.984 . S
N3873 H3877 0.985 . S
H3874 N3869 0.984 . S
H3875 N3869 0.985 . S
H3876 N3873 0.984 . S
H3877 N3873 0.985 . S
H3878 N3872 0.984 . S
H3879 N3872 0.984 . S
H3880 N3868 0.984 . S
H3881 N3868 0.985 . S
C3882 C3883 1.363 . S
C3882 C3888 1.379 . S
C3882 N3890 1.356 . S
C3883 C3882 1.363 . S
C3883 C3889 1.363 . S
C3884 C3885 1.363 . S
C3884 C3889 1.379 . S
C3884 N3891 1.356 . S
C3885 C3884 1.363 . S
C3885 C3888 1.363 . S
N3886 C3888 1.356 . S
N3886 H3898 0.984 . S
N3886 H3899 0.985 . S
N3887 C3889 1.356 . S
N3887 H3892 0.984 . S
N3887 H3893 0.985 . S
C3888 C3882 1.379 . S
C3888 C3885 1.363 . S
C3888 N3886 1.356 . S
C3889 C3883 1.363 . S
C3889 C3884 1.379 . S
C3889 N3887 1.356 . S
N3890 C3882 1.356 . S
N3890 H3896 0.984 . S
N3890 H3897 0.984 . S
N3891 C3884 1.356 . S
N3891 H3894 0.984 . S
N3891 H3895 0.985 . S
H3892 N3887 0.984 . S
H3893 N3887 0.985 . S
H3894 N3891 0.984 . S
H3895 N3891 0.985 . S
H3896 N3890 0.984 . S
H3897 N3890 0.984 . S
H3898 N3886 0.984 . S
H3899 N3886 0.985 . S
C3900 C3901 1.363 . S
C3900 C3906 1.379 . S
C3900 N3908 1.356 . S
C3901 C3900 1.363 . S
C3901 C3907 1.363 . S
C3902 C3903 1.363 . S
C3902 C3907 1.379 . S
C3902 N3909 1.356 . S
C3903 C3902 1.363 . S
C3903 C3906 1.363 . S
N3904 C3906 1.356 . S
N3904 H3916 0.984 . S
N3904 H3917 0.985 . S
N3905 C3907 1.356 . S
N3905 H3910 0.984 . S
N3905 H3911 0.985 . S
C3906 C3900 1.379 . S
C3906 C3903 1.363 . S
C3906 N3904 1.356 . S
C3907 C3901 1.363 . S
C3907 C3902 1.379 . S
C3907 N3905 1.356 . S
N3908 C3900 1.356 . S
N3908 H3914 0.984 . S
N3908 H3915 0.984 . S
N3909 C3902 1.356 . S
N3909 H3912 0.984 . S
N3909 H3913 0.985 . S
H3910 N3905 0.984 . S
H3911 N3905 0.985 . S
H3912 N3909 0.984 . S
H3913 N3909 0.985 . S
H3914 N3908 0.984 . S
H3915 N3908 0.984 . S
H3916 N3904 0.984 . S
H3917 N3904 0.985 . S
C3918 C3919 1.363 . S
C3918 C3924 1.379 1_545 S
C3918 N3926 1.356 . S
C3919 C3918 1.363 . S
C3919 C3925 1.363 . S
C3920 C3921 1.363 . S
C3920 C3925 1.379 1_565 S
C3920 N3927 1.356 . S
C3921 C3920 1.363 . S
C3921 C3924 1.363 . S
N3922 C3924 1.356 . S
N3922 H3934 0.984 . S
N3922 H3935 0.985 . S
N3923 C3925 1.356 . S
N3923 H3928 0.984 . S
N3923 H3929 0.985 . S
C3924 C3918 1.379 1_565 S
C3924 C3921 1.363 . S
C3924 N3922 1.356 . S
C3925 C3919 1.363 . S
C3925 C3920 1.379 1_545 S
C3925 N3923 1.356 . S
N3926 C3918 1.356 . S
N3926 H3932 0.984 . S
N3926 H3933 0.984 . S
N3927 C3920 1.356 . S
N3927 H3930 0.984 . S
N3927 H3931 0.985 . S
H3928 N3923 0.984 . S
H3929 N3923 0.985 . S
H3930 N3927 0.984 . S
H3931 N3927 0.985 . S
H3932 N3926 0.984 . S
H3933 N3926 0.984 . S
H3934 N3922 0.984 . S
H3935 N3922 0.985 . S
C3936 C3937 1.363 . S
C3936 C3942 1.379 . S
C3936 N3944 1.356 . S
C3937 C3936 1.363 . S
C3937 C3943 1.363 . S
C3938 C3939 1.363 . S
C3938 C3943 1.379 . S
C3938 N3945 1.356 . S
C3939 C3938 1.363 . S
C3939 C3942 1.363 . S
N3940 C3942 1.356 . S
N3940 H3952 0.984 . S
N3940 H3953 0.985 . S
N3941 C3943 1.356 . S
N3941 H3946 0.984 . S
N3941 H3947 0.985 . S
C3942 C3936 1.379 . S
C3942 C3939 1.363 . S
C3942 N3940 1.356 . S
C3943 C3937 1.363 . S
C3943 C3938 1.379 . S
C3943 N3941 1.356 . S
N3944 C3936 1.356 . S
N3944 H3950 0.984 . S
N3944 H3951 0.984 . S
N3945 C3938 1.356 . S
N3945 H3948 0.984 . S
N3945 H3949 0.985 . S
H3946 N3941 0.984 . S
H3947 N3941 0.985 . S
H3948 N3945 0.984 . S
H3949 N3945 0.985 . S
H3950 N3944 0.984 . S
H3951 N3944 0.984 . S
H3952 N3940 0.984 . S
H3953 N3940 0.985 . S
C3954 C3955 1.363 . S
C3954 C3960 1.379 . S
C3954 N3962 1.356 . S
C3955 C3954 1.363 . S
C3955 C3961 1.363 . S
C3956 C3957 1.363 . S
C3956 C3961 1.379 . S
C3956 N3963 1.356 . S
C3957 C3956 1.363 . S
C3957 C3960 1.363 . S
N3958 C3960 1.356 . S
N3958 H3970 0.984 . S
N3958 H3971 0.985 . S
N3959 C3961 1.356 . S
N3959 H3964 0.984 . S
N3959 H3965 0.985 . S
C3960 C3954 1.379 . S
C3960 C3957 1.363 . S
C3960 N3958 1.356 . S
C3961 C3955 1.363 . S
C3961 C3956 1.379 . S
C3961 N3959 1.356 . S
N3962 C3954 1.356 . S
N3962 H3968 0.984 . S
N3962 H3969 0.984 . S
N3963 C3956 1.356 . S
N3963 H3966 0.984 . S
N3963 H3967 0.985 . S
H3964 N3959 0.984 . S
H3965 N3959 0.985 . S
H3966 N3963 0.984 . S
H3967 N3963 0.985 . S
H3968 N3962 0.984 . S
H3969 N3962 0.984 . S
H3970 N3958 0.984 . S
H3971 N3958 0.985 . S
C3972 C3973 1.363 . S
C3972 C3978 1.379 . S
C3972 N3980 1.356 . S
C3973 C3972 1.363 . S
C3973 C3979 1.363 . S
C3974 C3975 1.363 . S
C3974 C3979 1.379 . S
C3974 N3981 1.356 . S
C3975 C3974 1.363 . S
C3975 C3978 1.363 . S
N3976 C3978 1.356 . S
N3976 H3988 0.984 . S
N3976 H3989 0.985 . S
N3977 C3979 1.356 . S
N3977 H3982 0.984 . S
N3977 H3983 0.985 . S
C3978 C3972 1.379 . S
C3978 C3975 1.363 . S
C3978 N3976 1.356 . S
C3979 C3973 1.363 . S
C3979 C3974 1.379 . S
C3979 N3977 1.356 . S
N3980 C3972 1.356 . S
N3980 H3986 0.984 . S
N3980 H3987 0.984 . S
N3981 C3974 1.356 . S
N3981 H3984 0.984 . S
N3981 H3985 0.985 . S
H3982 N3977 0.984 . S
H3983 N3977 0.985 . S
H3984 N3981 0.984 . S
H3985 N3981 0.985 . S
H3986 N3980 0.984 . S
H3987 N3980 0.984 . S
H3988 N3976 0.984 . S
H3989 N3976 0.985 . S
C3990 C3991 1.363 . S
C3990 C3996 1.379 . S
C3990 N3998 1.356 . S
C3991 C3990 1.363 . S
C3991 C3997 1.363 . S
C3992 C3993 1.363 . S
C3992 C3997 1.379 . S
C3992 N3999 1.356 . S
C3993 C3992 1.363 . S
C3993 C3996 1.363 . S
N3994 C3996 1.356 . S
N3994 H4006 0.984 . S
N3994 H4007 0.985 . S
N3995 C3997 1.356 . S
N3995 H4000 0.984 . S
N3995 H4001 0.985 . S
C3996 C3990 1.379 . S
C3996 C3993 1.363 . S
C3996 N3994 1.356 . S
C3997 C3991 1.363 . S
C3997 C3992 1.379 . S
C3997 N3995 1.356 . S
N3998 C3990 1.356 . S
N3998 H4004 0.984 . S
N3998 H4005 0.984 . S
N3999 C3992 1.356 . S
N3999 H4002 0.984 . S
N3999 H4003 0.985 . S
H4000 N3995 0.984 . S
H4001 N3995 0.985 . S
H4002 N3999 0.984 . S
H4003 N3999 0.985 . S
H4004 N3998 0.984 . S
H4005 N3998 0.984 . S
H4006 N3994 0.984 . S
H4007 N3994 0.985 . S
C4008 C4009 1.363 . S
C4008 C4014 1.379 . S
C4008 N4016 1.356 . S
C4009 C4008 1.363 . S
C4009 C4015 1.363 . S
C4010 C4011 1.363 . S
C4010 C4015 1.379 . S
C4010 N4017 1.356 . S
C4011 C4010 1.363 . S
C4011 C4014 1.363 . S
N4012 C4014 1.356 . S
N4012 H4024 0.984 . S
N4012 H4025 0.985 . S
N4013 C4015 1.356 . S
N4013 H4018 0.984 . S
N4013 H4019 0.985 . S
C4014 C4008 1.379 . S
C4014 C4011 1.363 . S
C4014 N4012 1.356 . S
C4015 C4009 1.363 . S
C4015 C4010 1.379 . S
C4015 N4013 1.356 . S
N4016 C4008 1.356 . S
N4016 H4022 0.984 . S
N4016 H4023 0.984 . S
N4017 C4010 1.356 . S
N4017 H4020 0.984 . S
N4017 H4021 0.985 . S
H4018 N4013 0.984 . S
H4019 N4013 0.985 . S
H4020 N4017 0.984 . S
H4021 N4017 0.985 . S
H4022 N4016 0.984 . S
H4023 N4016 0.984 . S
H4024 N4012 0.984 . S
H4025 N4012 0.985 . S
C4026 C4027 1.363 . S
C4026 C4032 1.379 . S
C4026 N4034 1.356 . S
C4027 C4026 1.363 . S
C4027 C4033 1.363 . S
C4028 C4029 1.363 . S
C4028 C4033 1.379 . S
C4028 N4035 1.356 . S
C4029 C4028 1.363 . S
C4029 C4032 1.363 . S
N4030 C4032 1.356 . S
N4030 H4042 0.984 . S
N4030 H4043 0.985 . S
N4031 C4033 1.356 . S
N4031 H4036 0.984 . S
N4031 H4037 0.985 . S
C4032 C4026 1.379 . S
C4032 C4029 1.363 . S
C4032 N4030 1.356 . S
C4033 C4027 1.363 . S
C4033 C4028 1.379 . S
C4033 N4031 1.356 . S
N4034 C4026 1.356 . S
N4034 H4040 0.984 . S
N4034 H4041 0.984 . S
N4035 C4028 1.356 . S
N4035 H4038 0.984 . S
N4035 H4039 0.985 . S
H4036 N4031 0.984 . S
H4037 N4031 0.985 . S
H4038 N4035 0.984 . S
H4039 N4035 0.985 . S
H4040 N4034 0.984 . S
H4041 N4034 0.984 . S
H4042 N4030 0.984 . S
H4043 N4030 0.985 . S
C4044 C4045 1.363 . S
C4044 C4050 1.379 . S
C4044 N4052 1.356 . S
C4045 C4044 1.363 . S
C4045 C4051 1.363 . S
C4046 C4047 1.363 . S
C4046 C4051 1.379 . S
C4046 N4053 1.356 . S
C4047 C4046 1.363 . S
C4047 C4050 1.363 . S
N4048 C4050 1.356 . S
N4048 H4060 0.984 . S
N4048 H4061 0.985 . S
N4049 C4051 1.356 . S
N4049 H4054 0.984 . S
N4049 H4055 0.985 . S
C4050 C4044 1.379 . S
C4050 C4047 1.363 . S
C4050 N4048 1.356 . S
C4051 C4045 1.363 . S
C4051 C4046 1.379 . S
C4051 N4049 1.356 . S
N4052 C4044 1.356 . S
N4052 H4058 0.984 . S
N4052 H4059 0.984 . S
N4053 C4046 1.356 . S
N4053 H4056 0.984 . S
N4053 H4057 0.985 . S
H4054 N4049 0.984 . S
H4055 N4049 0.985 . S
H4056 N4053 0.984 . S
H4057 N4053 0.985 . S
H4058 N4052 0.984 . S
H4059 N4052 0.984 . S
H4060 N4048 0.984 . S
H4061 N4048 0.985 . S
C4062 C4063 1.363 . S
C4062 C4068 1.379 . S
C4062 N4070 1.356 . S
C4063 C4062 1.363 . S
C4063 C4069 1.363 . S
C4064 C4065 1.363 . S
C4064 C4069 1.379 . S
C4064 N4071 1.356 . S
C4065 C4064 1.363 . S
C4065 C4068 1.363 . S
N4066 C4068 1.356 . S
N4066 H4078 0.984 . S
N4066 H4079 0.985 . S
N4067 C4069 1.356 . S
N4067 H4072 0.984 . S
N4067 H4073 0.985 . S
C4068 C4062 1.379 . S
C4068 C4065 1.363 . S
C4068 N4066 1.356 . S
C4069 C4063 1.363 . S
C4069 C4064 1.379 . S
C4069 N4067 1.356 . S
N4070 C4062 1.356 . S
N4070 H4076 0.984 . S
N4070 H4077 0.984 . S
N4071 C4064 1.356 . S
N4071 H4074 0.984 . S
N4071 H4075 0.985 . S
H4072 N4067 0.984 . S
H4073 N4067 0.985 . S
H4074 N4071 0.984 . S
H4075 N4071 0.985 . S
H4076 N4070 0.984 . S
H4077 N4070 0.984 . S
H4078 N4066 0.984 . S
H4079 N4066 0.985 . S
C4080 C4081 1.363 . S
C4080 C4086 1.379 . S
C4080 N4088 1.356 . S
C4081 C4080 1.363 . S
C4081 C4087 1.363 . S
C4082 C4083 1.363 . S
C4082 C4087 1.379 . S
C4082 N4089 1.356 . S
C4083 C4082 1.363 . S
C4083 C4086 1.363 . S
N4084 C4086 1.356 . S
N4084 H4096 0.984 . S
N4084 H4097 0.985 . S
N4085 C4087 1.356 . S
N4085 H4090 0.984 . S
N4085 H4091 0.985 . S
C4086 C4080 1.379 . S
C4086 C4083 1.363 . S
C4086 N4084 1.356 . S
C4087 C4081 1.363 . S
C4087 C4082 1.379 . S
C4087 N4085 1.356 . S
N4088 C4080 1.356 . S
N4088 H4094 0.984 . S
N4088 H4095 0.984 . S
N4089 C4082 1.356 . S
N4089 H4092 0.984 . S
N4089 H4093 0.985 . S
H4090 N4085 0.984 . S
H4091 N4085 0.985 . S
H4092 N4089 0.984 . S
H4093 N4089 0.985 . S
H4094 N4088 0.984 . S
H4095 N4088 0.984 . S
H4096 N4084 0.984 . S
H4097 N4084 0.985 . S
C4098 C4099 1.363 . S
C4098 C4104 1.379 . S
C4098 N4106 1.356 . S
C4099 C4098 1.363 . S
C4099 C4105 1.363 . S
C4100 C4101 1.363 . S
C4100 C4105 1.379 . S
C4100 N4107 1.356 . S
C4101 C4100 1.363 . S
C4101 C4104 1.363 . S
N4102 C4104 1.356 . S
N4102 H4114 0.984 . S
N4102 H4115 0.985 . S
N4103 C4105 1.356 . S
N4103 H4108 0.984 . S
N4103 H4109 0.985 . S
C4104 C4098 1.379 . S
C4104 C4101 1.363 . S
C4104 N4102 1.356 . S
C4105 C4099 1.363 . S
C4105 C4100 1.379 . S
C4105 N4103 1.356 . S
N4106 C4098 1.356 . S
N4106 H4112 0.984 . S
N4106 H4113 0.984 . S
N4107 C4100 1.356 . S
N4107 H4110 0.984 . S
N4107 H4111 0.985 . S
H4108 N4103 0.984 . S
H4109 N4103 0.985 . S
H4110 N4107 0.984 . S
H4111 N4107 0.985 . S
H4112 N4106 0.984 . S
H4113 N4106 0.984 . S
H4114 N4102 0.984 . S
H4115 N4102 0.985 . S
C4116 C4117 1.363 . S
C4116 C4122 1.379 . S
C4116 N4124 1.356 . S
C4117 C4116 1.363 . S
C4117 C4123 1.363 . S
C4118 C4119 1.363 . S
C4118 C4123 1.379 . S
C4118 N4125 1.356 . S
C4119 C4118 1.363 . S
C4119 C4122 1.363 . S
N4120 C4122 1.356 . S
N4120 H4132 0.984 . S
N4120 H4133 0.985 . S
N4121 C4123 1.356 . S
N4121 H4126 0.984 . S
N4121 H4127 0.985 . S
C4122 C4116 1.379 . S
C4122 C4119 1.363 . S
C4122 N4120 1.356 . S
C4123 C4117 1.363 . S
C4123 C4118 1.379 . S
C4123 N4121 1.356 . S
N4124 C4116 1.356 . S
N4124 H4130 0.984 . S
N4124 H4131 0.984 . S
N4125 C4118 1.356 . S
N4125 H4128 0.984 . S
N4125 H4129 0.985 . S
H4126 N4121 0.984 . S
H4127 N4121 0.985 . S
H4128 N4125 0.984 . S
H4129 N4125 0.985 . S
H4130 N4124 0.984 . S
H4131 N4124 0.984 . S
H4132 N4120 0.984 . S
H4133 N4120 0.985 . S
C4134 C4135 1.363 . S
C4134 C4140 1.379 . S
C4134 N4142 1.356 . S
C4135 C4134 1.363 . S
C4135 C4141 1.363 . S
C4136 C4137 1.363 . S
C4136 C4141 1.379 . S
C4136 N4143 1.356 . S
C4137 C4136 1.363 . S
C4137 C4140 1.363 . S
N4138 C4140 1.356 . S
N4138 H4150 0.984 . S
N4138 H4151 0.985 . S
N4139 C4141 1.356 . S
N4139 H4144 0.984 . S
N4139 H4145 0.985 . S
C4140 C4134 1.379 . S
C4140 C4137 1.363 . S
C4140 N4138 1.356 . S
C4141 C4135 1.363 . S
C4141 C4136 1.379 . S
C4141 N4139 1.356 . S
N4142 C4134 1.356 . S
N4142 H4148 0.984 . S
N4142 H4149 0.984 . S
N4143 C4136 1.356 . S
N4143 H4146 0.984 . S
N4143 H4147 0.985 . S
H4144 N4139 0.984 . S
H4145 N4139 0.985 . S
H4146 N4143 0.984 . S
H4147 N4143 0.985 . S
H4148 N4142 0.984 . S
H4149 N4142 0.984 . S
H4150 N4138 0.984 . S
H4151 N4138 0.985 . S
C4152 C4153 1.363 . S
C4152 C4158 1.379 . S
C4152 N4160 1.356 . S
C4153 C4152 1.363 . S
C4153 C4159 1.363 . S
C4154 C4155 1.363 . S
C4154 C4159 1.379 . S
C4154 N4161 1.356 . S
C4155 C4154 1.363 . S
C4155 C4158 1.363 . S
N4156 C4158 1.356 . S
N4156 H4168 0.984 . S
N4156 H4169 0.985 . S
N4157 C4159 1.356 . S
N4157 H4162 0.984 . S
N4157 H4163 0.985 . S
C4158 C4152 1.379 . S
C4158 C4155 1.363 . S
C4158 N4156 1.356 . S
C4159 C4153 1.363 . S
C4159 C4154 1.379 . S
C4159 N4157 1.356 . S
N4160 C4152 1.356 . S
N4160 H4166 0.984 . S
N4160 H4167 0.984 . S
N4161 C4154 1.356 . S
N4161 H4164 0.984 . S
N4161 H4165 0.985 . S
H4162 N4157 0.984 . S
H4163 N4157 0.985 . S
H4164 N4161 0.984 . S
H4165 N4161 0.985 . S
H4166 N4160 0.984 . S
H4167 N4160 0.984 . S
H4168 N4156 0.984 . S
H4169 N4156 0.985 . S
C4170 C4171 1.363 . S
C4170 C4176 1.379 . S
C4170 N4178 1.356 . S
C4171 C4170 1.363 . S
C4171 C4177 1.363 . S
C4172 C4173 1.363 . S
C4172 C4177 1.379 . S
C4172 N4179 1.356 . S
C4173 C4172 1.363 . S
C4173 C4176 1.363 . S
N4174 C4176 1.356 . S
N4174 H4186 0.984 . S
N4174 H4187 0.985 . S
N4175 C4177 1.356 . S
N4175 H4180 0.984 . S
N4175 H4181 0.985 . S
C4176 C4170 1.379 . S
C4176 C4173 1.363 . S
C4176 N4174 1.356 . S
C4177 C4171 1.363 . S
C4177 C4172 1.379 . S
C4177 N4175 1.356 . S
N4178 C4170 1.356 . S
N4178 H4184 0.984 . S
N4178 H4185 0.984 . S
N4179 C4172 1.356 . S
N4179 H4182 0.984 . S
N4179 H4183 0.985 . S
H4180 N4175 0.984 . S
H4181 N4175 0.985 . S
H4182 N4179 0.984 . S
H4183 N4179 0.985 . S
H4184 N4178 0.984 . S
H4185 N4178 0.984 . S
H4186 N4174 0.984 . S
H4187 N4174 0.985 . S
C4188 C4189 1.363 . S
C4188 C4194 1.379 . S
C4188 N4196 1.356 . S
C4189 C4188 1.363 . S
C4189 C4195 1.363 . S
C4190 C4191 1.363 . S
C4190 C4195 1.379 . S
C4190 N4197 1.356 . S
C4191 C4190 1.363 . S
C4191 C4194 1.363 . S
N4192 C4194 1.356 . S
N4192 H4204 0.984 . S
N4192 H4205 0.985 . S
N4193 C4195 1.356 . S
N4193 H4198 0.984 . S
N4193 H4199 0.985 . S
C4194 C4188 1.379 . S
C4194 C4191 1.363 . S
C4194 N4192 1.356 . S
C4195 C4189 1.363 . S
C4195 C4190 1.379 . S
C4195 N4193 1.356 . S
N4196 C4188 1.356 . S
N4196 H4202 0.984 . S
N4196 H4203 0.984 . S
N4197 C4190 1.356 . S
N4197 H4200 0.984 . S
N4197 H4201 0.985 . S
H4198 N4193 0.984 . S
H4199 N4193 0.985 . S
H4200 N4197 0.984 . S
H4201 N4197 0.985 . S
H4202 N4196 0.984 . S
H4203 N4196 0.984 . S
H4204 N4192 0.984 . S
H4205 N4192 0.985 . S
C4206 C4207 1.363 . S
C4206 C4212 1.379 . S
C4206 N4214 1.356 . S
C4207 C4206 1.363 . S
C4207 C4213 1.363 . S
C4208 C4209 1.363 . S
C4208 C4213 1.379 . S
C4208 N4215 1.356 . S
C4209 C4208 1.363 . S
C4209 C4212 1.363 . S
N4210 C4212 1.356 . S
N4210 H4222 0.984 . S
N4210 H4223 0.985 . S
N4211 C4213 1.356 . S
N4211 H4216 0.984 . S
N4211 H4217 0.985 . S
C4212 C4206 1.379 . S
C4212 C4209 1.363 . S
C4212 N4210 1.356 . S
C4213 C4207 1.363 . S
C4213 C4208 1.379 . S
C4213 N4211 1.356 . S
N4214 C4206 1.356 . S
N4214 H4220 0.984 . S
N4214 H4221 0.984 . S
N4215 C4208 1.356 . S
N4215 H4218 0.984 . S
N4215 H4219 0.985 . S
H4216 N4211 0.984 . S
H4217 N4211 0.985 . S
H4218 N4215 0.984 . S
H4219 N4215 0.985 . S
H4220 N4214 0.984 . S
H4221 N4214 0.984 . S
H4222 N4210 0.984 . S
H4223 N4210 0.985 . S
C4224 C4225 1.363 . S
C4224 C4230 1.379 . S
C4224 N4232 1.356 . S
C4225 C4224 1.363 . S
C4225 C4231 1.363 . S
C4226 C4227 1.363 . S
C4226 C4231 1.379 . S
C4226 N4233 1.356 . S
C4227 C4226 1.363 . S
C4227 C4230 1.363 . S
N4228 C4230 1.356 . S
N4228 H4240 0.984 . S
N4228 H4241 0.985 . S
N4229 C4231 1.356 . S
N4229 H4234 0.984 . S
N4229 H4235 0.985 . S
C4230 C4224 1.379 . S
C4230 C4227 1.363 . S
C4230 N4228 1.356 . S
C4231 C4225 1.363 . S
C4231 C4226 1.379 . S
C4231 N4229 1.356 . S
N4232 C4224 1.356 . S
N4232 H4238 0.984 . S
N4232 H4239 0.984 . S
N4233 C4226 1.356 . S
N4233 H4236 0.984 . S
N4233 H4237 0.985 . S
H4234 N4229 0.984 . S
H4235 N4229 0.985 . S
H4236 N4233 0.984 . S
H4237 N4233 0.985 . S
H4238 N4232 0.984 . S
H4239 N4232 0.984 . S
H4240 N4228 0.984 . S
H4241 N4228 0.985 . S
C4242 C4243 1.363 . S
C4242 C4248 1.379 . S
C4242 N4250 1.356 . S
C4243 C4242 1.363 . S
C4243 C4249 1.363 . S
C4244 C4245 1.363 . S
C4244 C4249 1.379 . S
C4244 N4251 1.356 . S
C4245 C4244 1.363 . S
C4245 C4248 1.363 . S
N4246 C4248 1.356 . S
N4246 H4258 0.984 . S
N4246 H4259 0.985 . S
N4247 C4249 1.356 . S
N4247 H4252 0.984 . S
N4247 H4253 0.985 . S
C4248 C4242 1.379 . S
C4248 C4245 1.363 . S
C4248 N4246 1.356 . S
C4249 C4243 1.363 . S
C4249 C4244 1.379 . S
C4249 N4247 1.356 . S
N4250 C4242 1.356 . S
N4250 H4256 0.984 . S
N4250 H4257 0.984 . S
N4251 C4244 1.356 . S
N4251 H4254 0.984 . S
N4251 H4255 0.985 . S
H4252 N4247 0.984 . S
H4253 N4247 0.985 . S
H4254 N4251 0.984 . S
H4255 N4251 0.985 . S
H4256 N4250 0.984 . S
H4257 N4250 0.984 . S
H4258 N4246 0.984 . S
H4259 N4246 0.985 . S
C4260 C4261 1.363 . S
C4260 C4266 1.379 . S
C4260 N4268 1.356 . S
C4261 C4260 1.363 . S
C4261 C4267 1.363 . S
C4262 C4263 1.363 . S
C4262 C4267 1.379 . S
C4262 N4269 1.356 . S
C4263 C4262 1.363 . S
C4263 C4266 1.363 . S
N4264 C4266 1.356 . S
N4264 H4276 0.984 . S
N4264 H4277 0.985 . S
N4265 C4267 1.356 . S
N4265 H4270 0.984 . S
N4265 H4271 0.985 . S
C4266 C4260 1.379 . S
C4266 C4263 1.363 . S
C4266 N4264 1.356 . S
C4267 C4261 1.363 . S
C4267 C4262 1.379 . S
C4267 N4265 1.356 . S
N4268 C4260 1.356 . S
N4268 H4274 0.984 . S
N4268 H4275 0.984 . S
N4269 C4262 1.356 . S
N4269 H4272 0.984 . S
N4269 H4273 0.985 . S
H4270 N4265 0.984 . S
H4271 N4265 0.985 . S
H4272 N4269 0.984 . S
H4273 N4269 0.985 . S
H4274 N4268 0.984 . S
H4275 N4268 0.984 . S
H4276 N4264 0.984 . S
H4277 N4264 0.985 . S
C4278 C4279 1.363 . S
C4278 C4284 1.379 . S
C4278 N4286 1.356 . S
C4279 C4278 1.363 . S
C4279 C4285 1.363 . S
C4280 C4281 1.363 . S
C4280 C4285 1.379 . S
C4280 N4287 1.356 . S
C4281 C4280 1.363 . S
C4281 C4284 1.363 . S
N4282 C4284 1.356 . S
N4282 H4294 0.984 . S
N4282 H4295 0.985 . S
N4283 C4285 1.356 . S
N4283 H4288 0.984 . S
N4283 H4289 0.985 . S
C4284 C4278 1.379 . S
C4284 C4281 1.363 . S
C4284 N4282 1.356 . S
C4285 C4279 1.363 . S
C4285 C4280 1.379 . S
C4285 N4283 1.356 . S
N4286 C4278 1.356 . S
N4286 H4292 0.984 . S
N4286 H4293 0.984 . S
N4287 C4280 1.356 . S
N4287 H4290 0.984 . S
N4287 H4291 0.985 . S
H4288 N4283 0.984 . S
H4289 N4283 0.985 . S
H4290 N4287 0.984 . S
H4291 N4287 0.985 . S
H4292 N4286 0.984 . S
H4293 N4286 0.984 . S
H4294 N4282 0.984 . S
H4295 N4282 0.985 . S
C4296 C4297 1.363 . S
C4296 C4302 1.379 . S
C4296 N4304 1.356 . S
C4297 C4296 1.363 . S
C4297 C4303 1.363 . S
C4298 C4299 1.363 . S
C4298 C4303 1.379 . S
C4298 N4305 1.356 . S
C4299 C4298 1.363 . S
C4299 C4302 1.363 . S
N4300 C4302 1.356 . S
N4300 H4312 0.984 . S
N4300 H4313 0.985 . S
N4301 C4303 1.356 . S
N4301 H4306 0.984 . S
N4301 H4307 0.985 . S
C4302 C4296 1.379 . S
C4302 C4299 1.363 . S
C4302 N4300 1.356 . S
C4303 C4297 1.363 . S
C4303 C4298 1.379 . S
C4303 N4301 1.356 . S
N4304 C4296 1.356 . S
N4304 H4310 0.984 . S
N4304 H4311 0.984 . S
N4305 C4298 1.356 . S
N4305 H4308 0.984 . S
N4305 H4309 0.985 . S
H4306 N4301 0.984 . S
H4307 N4301 0.985 . S
H4308 N4305 0.984 . S
H4309 N4305 0.985 . S
H4310 N4304 0.984 . S
H4311 N4304 0.984 . S
H4312 N4300 0.984 . S
H4313 N4300 0.985 . S
C4314 C4315 1.363 . S
C4314 C4320 1.379 . S
C4314 N4322 1.356 . S
C4315 C4314 1.363 . S
C4315 C4321 1.363 . S
C4316 C4317 1.363 . S
C4316 C4321 1.379 . S
C4316 N4323 1.356 . S
C4317 C4316 1.363 . S
C4317 C4320 1.363 . S
N4318 C4320 1.356 . S
N4318 H4330 0.984 . S
N4318 H4331 0.985 . S
N4319 C4321 1.356 . S
N4319 H4324 0.984 . S
N4319 H4325 0.985 . S
C4320 C4314 1.379 . S
C4320 C4317 1.363 . S
C4320 N4318 1.356 . S
C4321 C4315 1.363 . S
C4321 C4316 1.379 . S
C4321 N4319 1.356 . S
N4322 C4314 1.356 . S
N4322 H4328 0.984 . S
N4322 H4329 0.984 . S
N4323 C4316 1.356 . S
N4323 H4326 0.984 . S
N4323 H4327 0.985 . S
H4324 N4319 0.984 . S
H4325 N4319 0.985 . S
H4326 N4323 0.984 . S
H4327 N4323 0.985 . S
H4328 N4322 0.984 . S
H4329 N4322 0.984 . S
H4330 N4318 0.984 . S
H4331 N4318 0.985 . S
C4332 C4333 1.363 . S
C4332 C4338 1.379 . S
C4332 N4340 1.356 . S
C4333 C4332 1.363 . S
C4333 C4339 1.363 . S
C4334 C4335 1.363 . S
C4334 C4339 1.379 . S
C4334 N4341 1.356 . S
C4335 C4334 1.363 . S
C4335 C4338 1.363 . S
N4336 C4338 1.356 . S
N4336 H4348 0.984 . S
N4336 H4349 0.985 . S
N4337 C4339 1.356 . S
N4337 H4342 0.984 . S
N4337 H4343 0.985 . S
C4338 C4332 1.379 . S
C4338 C4335 1.363 . S
C4338 N4336 1.356 . S
C4339 C4333 1.363 . S
C4339 C4334 1.379 . S
C4339 N4337 1.356 . S
N4340 C4332 1.356 . S
N4340 H4346 0.984 . S
N4340 H4347 0.984 . S
N4341 C4334 1.356 . S
N4341 H4344 0.984 . S
N4341 H4345 0.985 . S
H4342 N4337 0.984 . S
H4343 N4337 0.985 . S
H4344 N4341 0.984 . S
H4345 N4341 0.985 . S
H4346 N4340 0.984 . S
H4347 N4340 0.984 . S
H4348 N4336 0.984 . S
H4349 N4336 0.985 . S
C4350 C4351 1.363 . S
C4350 C4356 1.379 . S
C4350 N4358 1.356 . S
C4351 C4350 1.363 . S
C4351 C4357 1.363 . S
C4352 C4353 1.363 . S
C4352 C4357 1.379 . S
C4352 N4359 1.356 . S
C4353 C4352 1.363 . S
C4353 C4356 1.363 . S
N4354 C4356 1.356 . S
N4354 H4366 0.984 . S
N4354 H4367 0.985 . S
N4355 C4357 1.356 . S
N4355 H4360 0.984 . S
N4355 H4361 0.985 . S
C4356 C4350 1.379 . S
C4356 C4353 1.363 . S
C4356 N4354 1.356 . S
C4357 C4351 1.363 . S
C4357 C4352 1.379 . S
C4357 N4355 1.356 . S
N4358 C4350 1.356 . S
N4358 H4364 0.984 . S
N4358 H4365 0.984 . S
N4359 C4352 1.356 . S
N4359 H4362 0.984 . S
N4359 H4363 0.985 . S
H4360 N4355 0.984 . S
H4361 N4355 0.985 . S
H4362 N4359 0.984 . S
H4363 N4359 0.985 . S
H4364 N4358 0.984 . S
H4365 N4358 0.984 . S
H4366 N4354 0.984 . S
H4367 N4354 0.985 . S
C4368 C4369 1.363 . S
C4368 C4374 1.379 . S
C4368 N4376 1.356 . S
C4369 C4368 1.363 . S
C4369 C4375 1.363 . S
C4370 C4371 1.363 . S
C4370 C4375 1.379 . S
C4370 N4377 1.356 . S
C4371 C4370 1.363 . S
C4371 C4374 1.363 . S
N4372 C4374 1.356 . S
N4372 H4384 0.984 . S
N4372 H4385 0.985 . S
N4373 C4375 1.356 . S
N4373 H4378 0.984 . S
N4373 H4379 0.985 . S
C4374 C4368 1.379 . S
C4374 C4371 1.363 . S
C4374 N4372 1.356 . S
C4375 C4369 1.363 . S
C4375 C4370 1.379 . S
C4375 N4373 1.356 . S
N4376 C4368 1.356 . S
N4376 H4382 0.984 . S
N4376 H4383 0.984 . S
N4377 C4370 1.356 . S
N4377 H4380 0.984 . S
N4377 H4381 0.985 . S
H4378 N4373 0.984 . S
H4379 N4373 0.985 . S
H4380 N4377 0.984 . S
H4381 N4377 0.985 . S
H4382 N4376 0.984 . S
H4383 N4376 0.984 . S
H4384 N4372 0.984 . S
H4385 N4372 0.985 . S
C4386 C4387 1.363 . S
C4386 C4392 1.379 . S
C4386 N4394 1.356 . S
C4387 C4386 1.363 . S
C4387 C4393 1.363 . S
C4388 C4389 1.363 . S
C4388 C4393 1.379 . S
C4388 N4395 1.356 . S
C4389 C4388 1.363 . S
C4389 C4392 1.363 . S
N4390 C4392 1.356 . S
N4390 H4402 0.984 . S
N4390 H4403 0.985 . S
N4391 C4393 1.356 . S
N4391 H4396 0.984 . S
N4391 H4397 0.985 . S
C4392 C4386 1.379 . S
C4392 C4389 1.363 . S
C4392 N4390 1.356 . S
C4393 C4387 1.363 . S
C4393 C4388 1.379 . S
C4393 N4391 1.356 . S
N4394 C4386 1.356 . S
N4394 H4400 0.984 . S
N4394 H4401 0.984 . S
N4395 C4388 1.356 . S
N4395 H4398 0.984 . S
N4395 H4399 0.985 . S
H4396 N4391 0.984 . S
H4397 N4391 0.985 . S
H4398 N4395 0.984 . S
H4399 N4395 0.985 . S
H4400 N4394 0.984 . S
H4401 N4394 0.984 . S
H4402 N4390 0.984 . S
H4403 N4390 0.985 . S
C4404 C4405 1.363 . S
C4404 C4410 1.379 . S
C4404 N4412 1.356 . S
C4405 C4404 1.363 . S
C4405 C4411 1.363 . S
C4406 C4407 1.363 . S
C4406 C4411 1.379 . S
C4406 N4413 1.356 . S
C4407 C4406 1.363 . S
C4407 C4410 1.363 . S
N4408 C4410 1.356 . S
N4408 H4420 0.984 . S
N4408 H4421 0.985 . S
N4409 C4411 1.356 . S
N4409 H4414 0.984 . S
N4409 H4415 0.985 . S
C4410 C4404 1.379 . S
C4410 C4407 1.363 . S
C4410 N4408 1.356 . S
C4411 C4405 1.363 . S
C4411 C4406 1.379 . S
C4411 N4409 1.356 . S
N4412 C4404 1.356 . S
N4412 H4418 0.984 . S
N4412 H4419 0.984 . S
N4413 C4406 1.356 . S
N4413 H4416 0.984 . S
N4413 H4417 0.985 . S
H4414 N4409 0.984 . S
H4415 N4409 0.985 . S
H4416 N4413 0.984 . S
H4417 N4413 0.985 . S
H4418 N4412 0.984 . S
H4419 N4412 0.984 . S
H4420 N4408 0.984 . S
H4421 N4408 0.985 . S
C4422 C4423 1.363 . S
C4422 C4428 1.379 . S
C4422 N4430 1.356 . S
C4423 C4422 1.363 . S
C4423 C4429 1.363 . S
C4424 C4425 1.363 . S
C4424 C4429 1.379 . S
C4424 N4431 1.356 . S
C4425 C4424 1.363 . S
C4425 C4428 1.363 . S
N4426 C4428 1.356 . S
N4426 H4438 0.984 . S
N4426 H4439 0.985 . S
N4427 C4429 1.356 . S
N4427 H4432 0.984 . S
N4427 H4433 0.985 . S
C4428 C4422 1.379 . S
C4428 C4425 1.363 . S
C4428 N4426 1.356 . S
C4429 C4423 1.363 . S
C4429 C4424 1.379 . S
C4429 N4427 1.356 . S
N4430 C4422 1.356 . S
N4430 H4436 0.984 . S
N4430 H4437 0.984 . S
N4431 C4424 1.356 . S
N4431 H4434 0.984 . S
N4431 H4435 0.985 . S
H4432 N4427 0.984 . S
H4433 N4427 0.985 . S
H4434 N4431 0.984 . S
H4435 N4431 0.985 . S
H4436 N4430 0.984 . S
H4437 N4430 0.984 . S
H4438 N4426 0.984 . S
H4439 N4426 0.985 . S
C4440 C4441 1.363 . S
C4440 C4446 1.379 . S
C4440 N4448 1.356 . S
C4441 C4440 1.363 . S
C4441 C4447 1.363 . S
C4442 C4443 1.363 . S
C4442 C4447 1.379 . S
C4442 N4449 1.356 . S
C4443 C4442 1.363 . S
C4443 C4446 1.363 . S
N4444 C4446 1.356 . S
N4444 H4456 0.984 . S
N4444 H4457 0.985 . S
N4445 C4447 1.356 . S
N4445 H4450 0.984 . S
N4445 H4451 0.985 . S
C4446 C4440 1.379 . S
C4446 C4443 1.363 . S
C4446 N4444 1.356 . S
C4447 C4441 1.363 . S
C4447 C4442 1.379 . S
C4447 N4445 1.356 . S
N4448 C4440 1.356 . S
N4448 H4454 0.984 . S
N4448 H4455 0.984 . S
N4449 C4442 1.356 . S
N4449 H4452 0.984 . S
N4449 H4453 0.985 . S
H4450 N4445 0.984 . S
H4451 N4445 0.985 . S
H4452 N4449 0.984 . S
H4453 N4449 0.985 . S
H4454 N4448 0.984 . S
H4455 N4448 0.984 . S
H4456 N4444 0.984 . S
H4457 N4444 0.985 . S
C4458 C4459 1.363 . S
C4458 C4464 1.379 . S
C4458 N4466 1.356 . S
C4459 C4458 1.363 . S
C4459 C4465 1.363 . S
C4460 C4461 1.363 . S
C4460 C4465 1.379 . S
C4460 N4467 1.356 . S
C4461 C4460 1.363 . S
C4461 C4464 1.363 . S
N4462 C4464 1.356 . S
N4462 H4474 0.984 . S
N4462 H4475 0.985 . S
N4463 C4465 1.356 . S
N4463 H4468 0.984 . S
N4463 H4469 0.985 . S
C4464 C4458 1.379 . S
C4464 C4461 1.363 . S
C4464 N4462 1.356 . S
C4465 C4459 1.363 . S
C4465 C4460 1.379 . S
C4465 N4463 1.356 . S
N4466 C4458 1.356 . S
N4466 H4472 0.984 . S
N4466 H4473 0.984 . S
N4467 C4460 1.356 . S
N4467 H4470 0.984 . S
N4467 H4471 0.985 . S
H4468 N4463 0.984 . S
H4469 N4463 0.985 . S
H4470 N4467 0.984 . S
H4471 N4467 0.985 . S
H4472 N4466 0.984 . S
H4473 N4466 0.984 . S
H4474 N4462 0.984 . S
H4475 N4462 0.985 . S
C4476 C4477 1.363 . S
C4476 C4482 1.379 . S
C4476 N4484 1.356 . S
C4477 C4476 1.363 . S
C4477 C4483 1.363 . S
C4478 C4479 1.363 . S
C4478 C4483 1.379 . S
C4478 N4485 1.356 . S
C4479 C4478 1.363 . S
C4479 C4482 1.363 . S
N4480 C4482 1.356 . S
N4480 H4492 0.984 . S
N4480 H4493 0.985 . S
N4481 C4483 1.356 . S
N4481 H4486 0.984 . S
N4481 H4487 0.985 . S
C4482 C4476 1.379 . S
C4482 C4479 1.363 . S
C4482 N4480 1.356 . S
C4483 C4477 1.363 . S
C4483 C4478 1.379 . S
C4483 N4481 1.356 . S
N4484 C4476 1.356 . S
N4484 H4490 0.984 . S
N4484 H4491 0.984 . S
N4485 C4478 1.356 . S
N4485 H4488 0.984 . S
N4485 H4489 0.985 . S
H4486 N4481 0.984 . S
H4487 N4481 0.985 . S
H4488 N4485 0.984 . S
H4489 N4485 0.985 . S
H4490 N4484 0.984 . S
H4491 N4484 0.984 . S
H4492 N4480 0.984 . S
H4493 N4480 0.985 . S
C4494 C4495 1.363 . S
C4494 C4500 1.379 . S
C4494 N4502 1.356 . S
C4495 C4494 1.363 . S
C4495 C4501 1.363 . S
C4496 C4497 1.363 . S
C4496 C4501 1.379 . S
C4496 N4503 1.356 . S
C4497 C4496 1.363 . S
C4497 C4500 1.363 . S
N4498 C4500 1.356 . S
N4498 H4510 0.984 . S
N4498 H4511 0.985 . S
N4499 C4501 1.356 . S
N4499 H4504 0.984 . S
N4499 H4505 0.985 . S
C4500 C4494 1.379 . S
C4500 C4497 1.363 . S
C4500 N4498 1.356 . S
C4501 C4495 1.363 . S
C4501 C4496 1.379 . S
C4501 N4499 1.356 . S
N4502 C4494 1.356 . S
N4502 H4508 0.984 . S
N4502 H4509 0.984 . S
N4503 C4496 1.356 . S
N4503 H4506 0.984 . S
N4503 H4507 0.985 . S
H4504 N4499 0.984 . S
H4505 N4499 0.985 . S
H4506 N4503 0.984 . S
H4507 N4503 0.985 . S
H4508 N4502 0.984 . S
H4509 N4502 0.984 . S
H4510 N4498 0.984 . S
H4511 N4498 0.985 . S
C4512 C4513 1.363 . S
C4512 C4518 1.379 . S
C4512 N4520 1.356 . S
C4513 C4512 1.363 . S
C4513 C4519 1.363 . S
C4514 C4515 1.363 . S
C4514 C4519 1.379 . S
C4514 N4521 1.356 . S
C4515 C4514 1.363 . S
C4515 C4518 1.363 . S
N4516 C4518 1.356 . S
N4516 H4528 0.984 . S
N4516 H4529 0.985 . S
N4517 C4519 1.356 . S
N4517 H4522 0.984 . S
N4517 H4523 0.985 . S
C4518 C4512 1.379 . S
C4518 C4515 1.363 . S
C4518 N4516 1.356 . S
C4519 C4513 1.363 . S
C4519 C4514 1.379 . S
C4519 N4517 1.356 . S
N4520 C4512 1.356 . S
N4520 H4526 0.984 . S
N4520 H4527 0.984 . S
N4521 C4514 1.356 . S
N4521 H4524 0.984 . S
N4521 H4525 0.985 . S
H4522 N4517 0.984 . S
H4523 N4517 0.985 . S
H4524 N4521 0.984 . S
H4525 N4521 0.985 . S
H4526 N4520 0.984 . S
H4527 N4520 0.984 . S
H4528 N4516 0.984 . S
H4529 N4516 0.985 . S
C4530 C4531 1.363 . S
C4530 C4536 1.379 . S
C4530 N4538 1.356 . S
C4531 C4530 1.363 . S
C4531 C4537 1.363 . S
C4532 C4533 1.363 . S
C4532 C4537 1.379 . S
C4532 N4539 1.356 . S
C4533 C4532 1.363 . S
C4533 C4536 1.363 . S
N4534 C4536 1.356 . S
N4534 H4546 0.984 . S
N4534 H4547 0.985 . S
N4535 C4537 1.356 . S
N4535 H4540 0.984 . S
N4535 H4541 0.985 . S
C4536 C4530 1.379 . S
C4536 C4533 1.363 . S
C4536 N4534 1.356 . S
C4537 C4531 1.363 . S
C4537 C4532 1.379 . S
C4537 N4535 1.356 . S
N4538 C4530 1.356 . S
N4538 H4544 0.984 . S
N4538 H4545 0.984 . S
N4539 C4532 1.356 . S
N4539 H4542 0.984 . S
N4539 H4543 0.985 . S
H4540 N4535 0.984 . S
H4541 N4535 0.985 . S
H4542 N4539 0.984 . S
H4543 N4539 0.985 . S
H4544 N4538 0.984 . S
H4545 N4538 0.984 . S
H4546 N4534 0.984 . S
H4547 N4534 0.985 . S
C4548 C4549 1.363 . S
C4548 C4554 1.379 . S
C4548 N4556 1.356 . S
C4549 C4548 1.363 . S
C4549 C4555 1.363 . S
C4550 C4551 1.363 . S
C4550 C4555 1.379 . S
C4550 N4557 1.356 . S
C4551 C4550 1.363 . S
C4551 C4554 1.363 . S
N4552 C4554 1.356 . S
N4552 H4564 0.984 . S
N4552 H4565 0.985 . S
N4553 C4555 1.356 . S
N4553 H4558 0.984 . S
N4553 H4559 0.985 . S
C4554 C4548 1.379 . S
C4554 C4551 1.363 . S
C4554 N4552 1.356 . S
C4555 C4549 1.363 . S
C4555 C4550 1.379 . S
C4555 N4553 1.356 . S
N4556 C4548 1.356 . S
N4556 H4562 0.984 . S
N4556 H4563 0.984 . S
N4557 C4550 1.356 . S
N4557 H4560 0.984 . S
N4557 H4561 0.985 . S
H4558 N4553 0.984 . S
H4559 N4553 0.985 . S
H4560 N4557 0.984 . S
H4561 N4557 0.985 . S
H4562 N4556 0.984 . S
H4563 N4556 0.984 . S
H4564 N4552 0.984 . S
H4565 N4552 0.985 . S
C4566 C4567 1.363 . S
C4566 C4572 1.379 . S
C4566 N4574 1.356 . S
C4567 C4566 1.363 . S
C4567 C4573 1.363 . S
C4568 C4569 1.363 . S
C4568 C4573 1.379 . S
C4568 N4575 1.356 . S
C4569 C4568 1.363 . S
C4569 C4572 1.363 . S
N4570 C4572 1.356 . S
N4570 H4582 0.984 . S
N4570 H4583 0.985 . S
N4571 C4573 1.356 . S
N4571 H4576 0.984 . S
N4571 H4577 0.985 . S
C4572 C4566 1.379 . S
C4572 C4569 1.363 . S
C4572 N4570 1.356 . S
C4573 C4567 1.363 . S
C4573 C4568 1.379 . S
C4573 N4571 1.356 . S
N4574 C4566 1.356 . S
N4574 H4580 0.984 . S
N4574 H4581 0.984 . S
N4575 C4568 1.356 . S
N4575 H4578 0.984 . S
N4575 H4579 0.985 . S
H4576 N4571 0.984 . S
H4577 N4571 0.985 . S
H4578 N4575 0.984 . S
H4579 N4575 0.985 . S
H4580 N4574 0.984 . S
H4581 N4574 0.984 . S
H4582 N4570 0.984 . S
H4583 N4570 0.985 . S
C4584 C4585 1.363 . S
C4584 C4590 1.379 . S
C4584 N4592 1.356 . S
C4585 C4584 1.363 . S
C4585 C4591 1.363 . S
C4586 C4587 1.363 . S
C4586 C4591 1.379 . S
C4586 N4593 1.356 . S
C4587 C4586 1.363 . S
C4587 C4590 1.363 . S
N4588 C4590 1.356 . S
N4588 H4600 0.984 . S
N4588 H4601 0.985 . S
N4589 C4591 1.356 . S
N4589 H4594 0.984 . S
N4589 H4595 0.985 . S
C4590 C4584 1.379 . S
C4590 C4587 1.363 . S
C4590 N4588 1.356 . S
C4591 C4585 1.363 . S
C4591 C4586 1.379 . S
C4591 N4589 1.356 . S
N4592 C4584 1.356 . S
N4592 H4598 0.984 . S
N4592 H4599 0.984 . S
N4593 C4586 1.356 . S
N4593 H4596 0.984 . S
N4593 H4597 0.985 . S
H4594 N4589 0.984 . S
H4595 N4589 0.985 . S
H4596 N4593 0.984 . S
H4597 N4593 0.985 . S
H4598 N4592 0.984 . S
H4599 N4592 0.984 . S
H4600 N4588 0.984 . S
H4601 N4588 0.985 . S
C4602 C4603 1.363 . S
C4602 C4608 1.379 . S
C4602 N4610 1.356 . S
C4603 C4602 1.363 . S
C4603 C4609 1.363 . S
C4604 C4605 1.363 . S
C4604 C4609 1.379 . S
C4604 N4611 1.356 . S
C4605 C4604 1.363 . S
C4605 C4608 1.363 . S
N4606 C4608 1.356 . S
N4606 H4618 0.984 . S
N4606 H4619 0.985 . S
N4607 C4609 1.356 . S
N4607 H4612 0.984 . S
N4607 H4613 0.985 . S
C4608 C4602 1.379 . S
C4608 C4605 1.363 . S
C4608 N4606 1.356 . S
C4609 C4603 1.363 . S
C4609 C4604 1.379 . S
C4609 N4607 1.356 . S
N4610 C4602 1.356 . S
N4610 H4616 0.984 . S
N4610 H4617 0.984 . S
N4611 C4604 1.356 . S
N4611 H4614 0.984 . S
N4611 H4615 0.985 . S
H4612 N4607 0.984 . S
H4613 N4607 0.985 . S
H4614 N4611 0.984 . S
H4615 N4611 0.985 . S
H4616 N4610 0.984 . S
H4617 N4610 0.984 . S
H4618 N4606 0.984 . S
H4619 N4606 0.985 . S
C4620 C4621 1.363 . S
C4620 C4626 1.379 . S
C4620 N4628 1.356 . S
C4621 C4620 1.363 . S
C4621 C4627 1.363 . S
C4622 C4623 1.363 . S
C4622 C4627 1.379 . S
C4622 N4629 1.356 . S
C4623 C4622 1.363 . S
C4623 C4626 1.363 . S
N4624 C4626 1.356 . S
N4624 H4636 0.984 . S
N4624 H4637 0.985 . S
N4625 C4627 1.356 . S
N4625 H4630 0.984 . S
N4625 H4631 0.985 . S
C4626 C4620 1.379 . S
C4626 C4623 1.363 . S
C4626 N4624 1.356 . S
C4627 C4621 1.363 . S
C4627 C4622 1.379 . S
C4627 N4625 1.356 . S
N4628 C4620 1.356 . S
N4628 H4634 0.984 . S
N4628 H4635 0.984 . S
N4629 C4622 1.356 . S
N4629 H4632 0.984 . S
N4629 H4633 0.985 . S
H4630 N4625 0.984 . S
H4631 N4625 0.985 . S
H4632 N4629 0.984 . S
H4633 N4629 0.985 . S
H4634 N4628 0.984 . S
H4635 N4628 0.984 . S
H4636 N4624 0.984 . S
H4637 N4624 0.985 . S
C4638 C4639 1.363 . S
C4638 C4644 1.379 . S
C4638 N4646 1.356 . S
C4639 C4638 1.363 . S
C4639 C4645 1.363 . S
C4640 C4641 1.363 . S
C4640 C4645 1.379 . S
C4640 N4647 1.356 . S
C4641 C4640 1.363 . S
C4641 C4644 1.363 . S
N4642 C4644 1.356 . S
N4642 H4654 0.984 . S
N4642 H4655 0.985 . S
N4643 C4645 1.356 . S
N4643 H4648 0.984 . S
N4643 H4649 0.985 . S
C4644 C4638 1.379 . S
C4644 C4641 1.363 . S
C4644 N4642 1.356 . S
C4645 C4639 1.363 . S
C4645 C4640 1.379 . S
C4645 N4643 1.356 . S
N4646 C4638 1.356 . S
N4646 H4652 0.984 . S
N4646 H4653 0.984 . S
N4647 C4640 1.356 . S
N4647 H4650 0.984 . S
N4647 H4651 0.985 . S
H4648 N4643 0.984 . S
H4649 N4643 0.985 . S
H4650 N4647 0.984 . S
H4651 N4647 0.985 . S
H4652 N4646 0.984 . S
H4653 N4646 0.984 . S
H4654 N4642 0.984 . S
H4655 N4642 0.985 . S
C4656 C4657 1.363 . S
C4656 C4662 1.379 . S
C4656 N4664 1.356 . S
C4657 C4656 1.363 . S
C4657 C4663 1.363 . S
C4658 C4659 1.363 . S
C4658 C4663 1.379 . S
C4658 N4665 1.356 . S
C4659 C4658 1.363 . S
C4659 C4662 1.363 . S
N4660 C4662 1.356 . S
N4660 H4672 0.984 . S
N4660 H4673 0.985 . S
N4661 C4663 1.356 . S
N4661 H4666 0.984 . S
N4661 H4667 0.985 . S
C4662 C4656 1.379 . S
C4662 C4659 1.363 . S
C4662 N4660 1.356 . S
C4663 C4657 1.363 . S
C4663 C4658 1.379 . S
C4663 N4661 1.356 . S
N4664 C4656 1.356 . S
N4664 H4670 0.984 . S
N4664 H4671 0.984 . S
N4665 C4658 1.356 . S
N4665 H4668 0.984 . S
N4665 H4669 0.985 . S
H4666 N4661 0.984 . S
H4667 N4661 0.985 . S
H4668 N4665 0.984 . S
H4669 N4665 0.985 . S
H4670 N4664 0.984 . S
H4671 N4664 0.984 . S
H4672 N4660 0.984 . S
H4673 N4660 0.985 . S
C4674 C4675 1.363 . S
C4674 C4680 1.379 . S
C4674 N4682 1.356 . S
C4675 C4674 1.363 . S
C4675 C4681 1.363 . S
C4676 C4677 1.363 . S
C4676 C4681 1.379 . S
C4676 N4683 1.356 . S
C4677 C4676 1.363 . S
C4677 C4680 1.363 . S
N4678 C4680 1.356 . S
N4678 H4690 0.984 . S
N4678 H4691 0.985 . S
N4679 C4681 1.356 . S
N4679 H4684 0.984 . S
N4679 H4685 0.985 . S
C4680 C4674 1.379 . S
C4680 C4677 1.363 . S
C4680 N4678 1.356 . S
C4681 C4675 1.363 . S
C4681 C4676 1.379 . S
C4681 N4679 1.356 . S
N4682 C4674 1.356 . S
N4682 H4688 0.984 . S
N4682 H4689 0.984 . S
N4683 C4676 1.356 . S
N4683 H4686 0.984 . S
N4683 H4687 0.985 . S
H4684 N4679 0.984 . S
H4685 N4679 0.985 . S
H4686 N4683 0.984 . S
H4687 N4683 0.985 . S
H4688 N4682 0.984 . S
H4689 N4682 0.984 . S
H4690 N4678 0.984 . S
H4691 N4678 0.985 . S
C4692 C4693 1.363 . S
C4692 C4698 1.379 . S
C4692 N4700 1.356 . S
C4693 C4692 1.363 . S
C4693 C4699 1.363 . S
C4694 C4695 1.363 . S
C4694 C4699 1.379 . S
C4694 N4701 1.356 . S
C4695 C4694 1.363 . S
C4695 C4698 1.363 . S
N4696 C4698 1.356 . S
N4696 H4708 0.984 . S
N4696 H4709 0.985 . S
N4697 C4699 1.356 . S
N4697 H4702 0.984 . S
N4697 H4703 0.985 . S
C4698 C4692 1.379 . S
C4698 C4695 1.363 . S
C4698 N4696 1.356 . S
C4699 C4693 1.363 . S
C4699 C4694 1.379 . S
C4699 N4697 1.356 . S
N4700 C4692 1.356 . S
N4700 H4706 0.984 . S
N4700 H4707 0.984 . S
N4701 C4694 1.356 . S
N4701 H4704 0.984 . S
N4701 H4705 0.985 . S
H4702 N4697 0.984 . S
H4703 N4697 0.985 . S
H4704 N4701 0.984 . S
H4705 N4701 0.985 . S
H4706 N4700 0.984 . S
H4707 N4700 0.984 . S
H4708 N4696 0.984 . S
H4709 N4696 0.985 . S
C4710 C4711 1.363 . S
C4710 C4716 1.379 . S
C4710 N4718 1.356 . S
C4711 C4710 1.363 . S
C4711 C4717 1.363 . S
C4712 C4713 1.363 . S
C4712 C4717 1.379 . S
C4712 N4719 1.356 . S
C4713 C4712 1.363 . S
C4713 C4716 1.363 . S
N4714 C4716 1.356 . S
N4714 H4726 0.984 . S
N4714 H4727 0.985 . S
N4715 C4717 1.356 . S
N4715 H4720 0.984 . S
N4715 H4721 0.985 . S
C4716 C4710 1.379 . S
C4716 C4713 1.363 . S
C4716 N4714 1.356 . S
C4717 C4711 1.363 . S
C4717 C4712 1.379 . S
C4717 N4715 1.356 . S
N4718 C4710 1.356 . S
N4718 H4724 0.984 . S
N4718 H4725 0.984 . S
N4719 C4712 1.356 . S
N4719 H4722 0.984 . S
N4719 H4723 0.985 . S
H4720 N4715 0.984 . S
H4721 N4715 0.985 . S
H4722 N4719 0.984 . S
H4723 N4719 0.985 . S
H4724 N4718 0.984 . S
H4725 N4718 0.984 . S
H4726 N4714 0.984 . S
H4727 N4714 0.985 . S
C4728 C4729 1.363 . S
C4728 C4734 1.379 . S
C4728 N4736 1.356 . S
C4729 C4728 1.363 . S
C4729 C4735 1.363 . S
C4730 C4731 1.363 . S
C4730 C4735 1.379 . S
C4730 N4737 1.356 . S
C4731 C4730 1.363 . S
C4731 C4734 1.363 . S
N4732 C4734 1.356 . S
N4732 H4744 0.984 . S
N4732 H4745 0.985 . S
N4733 C4735 1.356 . S
N4733 H4738 0.984 . S
N4733 H4739 0.985 . S
C4734 C4728 1.379 . S
C4734 C4731 1.363 . S
C4734 N4732 1.356 . S
C4735 C4729 1.363 . S
C4735 C4730 1.379 . S
C4735 N4733 1.356 . S
N4736 C4728 1.356 . S
N4736 H4742 0.984 . S
N4736 H4743 0.984 . S
N4737 C4730 1.356 . S
N4737 H4740 0.984 . S
N4737 H4741 0.985 . S
H4738 N4733 0.984 . S
H4739 N4733 0.985 . S
H4740 N4737 0.984 . S
H4741 N4737 0.985 . S
H4742 N4736 0.984 . S
H4743 N4736 0.984 . S
H4744 N4732 0.984 . S
H4745 N4732 0.985 . S
C4746 C4747 1.363 . S
C4746 C4752 1.379 . S
C4746 N4754 1.356 . S
C4747 C4746 1.363 . S
C4747 C4753 1.363 . S
C4748 C4749 1.363 . S
C4748 C4753 1.379 . S
C4748 N4755 1.356 . S
C4749 C4748 1.363 . S
C4749 C4752 1.363 . S
N4750 C4752 1.356 . S
N4750 H4762 0.984 . S
N4750 H4763 0.985 . S
N4751 C4753 1.356 . S
N4751 H4756 0.984 . S
N4751 H4757 0.985 . S
C4752 C4746 1.379 . S
C4752 C4749 1.363 . S
C4752 N4750 1.356 . S
C4753 C4747 1.363 . S
C4753 C4748 1.379 . S
C4753 N4751 1.356 . S
N4754 C4746 1.356 . S
N4754 H4760 0.984 . S
N4754 H4761 0.984 . S
N4755 C4748 1.356 . S
N4755 H4758 0.984 . S
N4755 H4759 0.985 . S
H4756 N4751 0.984 . S
H4757 N4751 0.985 . S
H4758 N4755 0.984 . S
H4759 N4755 0.985 . S
H4760 N4754 0.984 . S
H4761 N4754 0.984 . S
H4762 N4750 0.984 . S
H4763 N4750 0.985 . S
C4764 C4765 1.363 . S
C4764 C4770 1.379 . S
C4764 N4772 1.356 . S
C4765 C4764 1.363 . S
C4765 C4771 1.363 . S
C4766 C4767 1.363 . S
C4766 C4771 1.379 . S
C4766 N4773 1.356 . S
C4767 C4766 1.363 . S
C4767 C4770 1.363 . S
N4768 C4770 1.356 . S
N4768 H4780 0.984 . S
N4768 H4781 0.985 . S
N4769 C4771 1.356 . S
N4769 H4774 0.984 . S
N4769 H4775 0.985 . S
C4770 C4764 1.379 . S
C4770 C4767 1.363 . S
C4770 N4768 1.356 . S
C4771 C4765 1.363 . S
C4771 C4766 1.379 . S
C4771 N4769 1.356 . S
N4772 C4764 1.356 . S
N4772 H4778 0.984 . S
N4772 H4779 0.984 . S
N4773 C4766 1.356 . S
N4773 H4776 0.984 . S
N4773 H4777 0.985 . S
H4774 N4769 0.984 . S
H4775 N4769 0.985 . S
H4776 N4773 0.984 . S
H4777 N4773 0.985 . S
H4778 N4772 0.984 . S
H4779 N4772 0.984 . S
H4780 N4768 0.984 . S
H4781 N4768 0.985 . S
C4782 C4783 1.363 . S
C4782 C4788 1.379 . S
C4782 N4790 1.356 . S
C4783 C4782 1.363 . S
C4783 C4789 1.363 . S
C4784 C4785 1.363 . S
C4784 C4789 1.379 . S
C4784 N4791 1.356 . S
C4785 C4784 1.363 . S
C4785 C4788 1.363 . S
N4786 C4788 1.356 . S
N4786 H4798 0.984 . S
N4786 H4799 0.985 . S
N4787 C4789 1.356 . S
N4787 H4792 0.984 . S
N4787 H4793 0.985 . S
C4788 C4782 1.379 . S
C4788 C4785 1.363 . S
C4788 N4786 1.356 . S
C4789 C4783 1.363 . S
C4789 C4784 1.379 . S
C4789 N4787 1.356 . S
N4790 C4782 1.356 . S
N4790 H4796 0.984 . S
N4790 H4797 0.984 . S
N4791 C4784 1.356 . S
N4791 H4794 0.984 . S
N4791 H4795 0.985 . S
H4792 N4787 0.984 . S
H4793 N4787 0.985 . S
H4794 N4791 0.984 . S
H4795 N4791 0.985 . S
H4796 N4790 0.984 . S
H4797 N4790 0.984 . S
H4798 N4786 0.984 . S
H4799 N4786 0.985 . S
C1345 C359 2.423 . S
C1347 C9 2.423 . S
C1363 C23 2.422 . S
C1365 C1045 2.423 . S
C1381 C387 2.423 . S
C1383 C37 2.422 . S
C1399 C1017 2.423 . S
C1401 C51 2.423 . S
C1417 C443 2.423 . S
C1419 C65 2.423 . S
C1435 C1073 2.423 . S
C1437 C79 2.423 . S
C1453 C415 2.423 . S
C1455 C93 2.423 . S
C1471 C107 2.423 . S
C1473 C1101 2.423 . S
C1489 C1325 2.423 . S
C1491 C121 2.423 . S
C1507 C1241 2.423 . S
C1509 C135 2.423 . S
C1525 C1339 2.423 . S
C1527 C149 2.423 . S
C1543 C1311 2.423 . S
C1545 C163 2.423 . S
C1561 C177 2.422 . S
C1563 C1269 2.423 . S
C1579 C191 2.422 . S
C1581 C611 2.423 . S
C1597 C625 2.423 . S
C1599 C205 2.423 . S
C1615 C219 2.423 . S
C1617 C583 2.423 . S
C1633 C1199 2.423 . S
C1635 C233 2.423 . S
C1651 C499 2.423 . S
C1653 C247 2.423 . S
C1669 C1129 2.423 . S
C1671 C261 2.423 . S
C1687 C471 2.423 . S
C1689 C275 2.422 . S
C1705 C289 2.423 . S
C1707 C485 2.423 . S
C1723 C1227 2.423 . S
C1725 C303 2.423 . S
C1741 C317 2.422 . S
C1743 C1185 2.423 . S
C1759 C1213 2.423 . S
C1761 C331 2.423 . S
C1777 C14 2.608 . S
C1779 C336 2.609 . S
C1795 C700 2.608 . S
C1797 C350 2.609 . S
C1813 C42 2.608 . S
C1815 C364 2.609 . S
C1831 C378 2.609 . S
C1833 C672 2.608 . S
C1849 C98 2.608 . S
C1851 C392 2.609 . S
C1867 C406 2.609 . S
C1869 C728 2.608 . S
C1885 C70 2.608 . S
C1887 C420 2.609 . S
C1903 C434 2.609 . S
C1905 C756 2.608 . S
C1921 C980 2.608 . S
C1923 C448 2.609 . S
C1939 C462 2.609 . S
C1941 C896 2.608 . S
C1957 C476 2.609 . S
C1959 C994 2.608 . S
C1975 C966 2.608 . S
C1977 C490 2.609 . S
C1993 C924 2.608 . S
C1995 C504 2.609 . S
C2011 C518 2.609 . S
C2013 C266 2.608 . S
C2029 C280 2.608 . S
C2031 C532 2.609 . S
C2047 C238 2.608 . S
C2049 C546 2.609 . S
C2065 C854 2.608 . S
C2067 C560 2.609 . S
C2083 C154 2.608 . S
C2085 C574 2.609 . S
C2101 C784 2.608 . S
C2103 C588 2.609 . S
C2119 C602 2.609 . S
C2121 C126 2.608 . S
C2137 C616 2.609 . S
C2139 C140 2.608 . S
C2155 C882 2.608 . S
C2157 C630 2.609 . S
C2173 C840 2.608 . S
C2175 C644 2.609 . S
C2191 C868 2.608 . S
C2193 C658 2.609 . S
C2209 C1031 2.423 . S
C2211 C681 2.422 . S
C2227 C695 2.422 . S
C2229 C373 2.423 . S
C2245 C709 2.422 . S
C2247 C1059 2.423 . S
C2263 C723 2.422 . S
C2265 C345 2.423 . S
C2281 C737 2.423 . S
C2283 C1115 2.423 . S
C2299 C401 2.423 . S
C2301 C751 2.423 . S
C2317 C765 2.423 . S
C2319 C1087 2.423 . S
C2335 C429 2.423 . S
C2337 C779 2.423 . S
C2353 C793 2.422 . S
C2355 C653 2.423 . S
C2371 C569 2.423 . S
C2373 C807 2.422 . S
C2389 C667 2.423 . S
C2391 C821 2.423 . S
C2407 C835 2.423 . S
C2409 C639 2.423 . S
C2425 C597 2.423 . S
C2427 C849 2.422 . S
C2443 C1283 2.423 . S
C2445 C863 2.422 . S
C2461 C1297 2.423 . S
C2463 C877 2.423 . S
C2479 C1255 2.423 . S
C2481 C891 2.423 . S
C2497 C527 2.423 . S
C2499 C905 2.422 . S
C2515 C1171 2.423 . S
C2517 C919 2.423 . S
C2533 C933 2.422 . S
C2535 C457 2.423 . S
C2551 C947 2.422 . S
C2553 C1143 2.423 . S
C2569 C1157 2.423 . S
C2571 C961 2.423 . S
C2587 C975 2.423 . S
C2589 C555 2.423 . S
C2605 C513 2.423 . S
C2607 C989 2.422 . S
C2623 C541 2.423 . S
C2625 C1003 2.423 . S
C2641 C1008 2.609 . S
C2643 C686 2.608 . S
C2659 C28 2.608 . S
C2661 C1022 2.609 . S
C2677 C1036 2.609 . S
C2679 C714 2.608 . S
C2695 C0 2.608 . S
C2697 C1050 2.609 . S
C2713 C1064 2.609 . S
C2715 C770 2.608 . S
C2731 C1078 2.609 . S
C2733 C56 2.608 . S
C2749 C1092 2.609 . S
C2751 C742 2.608 . S
C2767 C84 2.608 . S
C2769 C1106 2.609 . S
C2785 C1120 2.609 . S
C2787 C308 2.608 . S
C2803 C224 2.608 . S
C2805 C1134 2.609 . S
C2821 C1148 2.609 . S
C2823 C322 2.608 . S
C2839 C294 2.608 . S
C2841 C1162 2.609 . S
C2857 C1176 2.609 . S
C2859 C252 2.608 . S
C2875 C1190 2.609 . S
C2877 C938 2.608 . S
C2893 C1204 2.609 . S
C2895 C952 2.608 . S
C2911 C1218 2.609 . S
C2913 C910 2.608 . S
C2929 C1232 2.609 . S
C2931 C182 2.608 . S
C2947 C826 2.608 . S
C2949 C1246 2.609 . S
C2965 C1260 2.609 . S
C2967 C112 2.608 . S
C2983 C798 2.608 . S
C2985 C1274 2.609 . S
C3001 C1288 2.609 . S
C3003 C812 2.608 . S
C3019 C210 2.608 . S
C3021 C1302 2.609 . S
C3037 C1316 2.609 . S
C3039 C168 2.608 . S
C3055 C1330 2.609 . S
C3057 C196 2.608 . S
C3073 C705 1.139 . S
C3075 C5 1.139 . S
C3091 C719 1.139 . S
C3093 C19 1.139 . S
C3109 C677 1.139 . S
C3111 C33 1.139 . S
C3127 C691 1.139 . S
C3129 C47 1.139 . S
C3145 C61 1.139 . S
C3147 C761 1.139 . S
C3163 C775 1.139 . S
C3165 C75 1.139 . S
C3181 C89 1.139 . S
C3183 C733 1.139 . S
C3199 C747 1.139 . S
C3201 C103 1.139 . S
C3217 C117 1.139 . S
C3219 C173 1.139 . S
C3235 C187 1.139 . S
C3237 C131 1.139 . S
C3253 C145 1.139 . S
C3255 C201 1.139 . S
C3271 C215 1.139 . S
C3273 C159 1.139 . S
C3289 C229 1.139 . S
C3291 C943 1.139 . S
C3307 C971 1.139 . S
C3309 C243 1.139 . S
C3325 C257 1.139 . S
C3327 C313 1.139 . S
C3343 C901 1.139 . S
C3345 C271 1.139 . S
C3361 C285 1.139 . S
C3363 C999 1.139 . S
C3379 C915 1.139 . S
C3381 C299 1.139 . S
C3397 C327 1.139 . S
C3399 C957 1.139 . S
C3415 C1041 1.108 . S
C3417 C341 1.108 . S
C3433 C355 1.108 . S
C3435 C1055 1.108 . S
C3451 C1013 1.108 . S
C3453 C369 1.108 . S
C3469 C383 1.108 . S
C3471 C1027 1.108 . S
C3487 C1097 1.108 . S
C3489 C397 1.108 . S
C3505 C1111 1.108 . S
C3507 C411 1.108 . S
C3523 C1069 1.108 . S
C3525 C425 1.108 . S
C3541 C439 1.108 . S
C3543 C1083 1.108 . S
C3559 C453 1.108 . S
C3561 C509 1.108 . S
C3577 C523 1.108 . S
C3579 C467 1.108 . S
C3595 C481 1.108 . S
C3597 C537 1.108 . S
C3613 C495 1.108 . S
C3615 C551 1.108 . S
C3631 C565 1.108 . S
C3633 C1279 1.108 . S
C3649 C1307 1.108 . S
C3651 C579 1.108 . S
C3667 C649 1.108 . S
C3669 C593 1.108 . S
C3685 C1237 1.108 . S
C3687 C607 1.108 . S
C3703 C621 1.108 . S
C3705 C1335 1.108 . S
C3721 C635 1.108 . S
C3723 C1251 1.108 . S
C3739 C1293 1.108 . S
C3741 C663 1.108 . S
C3757 C789 1.139 . S
C3759 C845 1.139 . S
C3775 C803 1.139 . S
C3777 C859 1.139 . S
C3793 C817 1.139 . S
C3795 C873 1.139 . S
C3811 C887 1.139 . S
C3813 C831 1.139 . S
C3829 C985 1.139 . S
C3831 C929 1.139 . S
C3847 C1125 1.108 . S
C3849 C1181 1.108 . S
C3865 C1139 1.108 . S
C3867 C1195 1.108 . S
C3883 C1209 1.108 . S
C3885 C1153 1.108 . S
C3901 C1167 1.108 . S
C3903 C1223 1.108 . S
C3919 C1321 1.108 . S
C3921 C1265 1.108 . S
C3937 C11 1.449 . S
C3939 C319 1.449 . S
C3955 C25 1.449 . S
C3957 C907 1.449 . S
C3973 C333 1.449 . S
C3975 C39 1.449 . S
C3991 C53 1.449 . S
C3993 C977 1.449 . S
C4009 C67 1.449 . S
C4011 C263 1.449 . S
C4027 C81 1.449 . S
C4029 C277 1.449 . S
C4045 C95 1.449 . S
C4047 C963 1.449 . S
C4063 C249 1.449 . S
C4065 C109 1.449 . S
C4081 C123 1.449 . S
C4083 C193 1.449 . S
C4099 C137 1.449 . S
C4101 C207 1.449 . S
C4117 C151 1.449 . S
C4119 C221 1.449 . S
C4135 C179 1.449 . S
C4137 C165 1.449 . S
C4153 C697 1.449 . S
C4155 C235 1.449 . S
C4171 C767 1.449 . S
C4173 C291 1.449 . S
C4189 C305 1.449 . S
C4191 C725 1.449 . S
C4207 C347 1.421 . S
C4209 C655 1.421 . S
C4225 C1243 1.421 . S
C4227 C361 1.421 . S
C4243 C375 1.421 . S
C4245 C669 1.421 . S
C4261 C389 1.421 . S
C4263 C1313 1.421 . S
C4279 C403 1.421 . S
C4281 C599 1.421 . S
C4297 C417 1.421 . S
C4299 C613 1.421 . S
C4315 C431 1.421 . S
C4317 C1299 1.421 . S
C4333 C445 1.421 . S
C4335 C585 1.421 . S
C4351 C529 1.421 . S
C4353 C459 1.421 . S
C4369 C473 1.421 . S
C4371 C543 1.421 . S
C4387 C557 1.421 . S
C4389 C487 1.421 . S
C4405 C515 1.421 . S
C4407 C501 1.421 . S
C4423 C1033 1.421 . S
C4425 C571 1.421 . S
C4441 C627 1.421 . S
C4443 C1103 1.421 . S
C4459 C1061 1.421 . S
C4461 C641 1.421 . S
C4477 C991 1.449 . S
C4479 C683 1.449 . S
C4495 C1005 1.449 . S
C4497 C711 1.449 . S
C4513 C739 1.449 . S
C4515 C935 1.449 . S
C4531 C949 1.449 . S
C4533 C753 1.449 . S
C4549 C781 1.449 . S
C4551 C921 1.449 . S
C4567 C795 1.449 . S
C4569 C865 1.449 . S
C4585 C809 1.449 . S
C4587 C879 1.449 . S
C4603 C823 1.449 . S
C4605 C893 1.449 . S
C4621 C851 1.449 . S
C4623 C837 1.449 . S
C4639 C1327 1.421 . S
C4641 C1019 1.421 . S
C4657 C1047 1.421 . S
C4659 C1341 1.421 . S
C4675 C1271 1.421 . S
C4677 C1075 1.421 . S
C4693 C1089 1.421 . S
C4695 C1285 1.421 . S
C4711 C1257 1.421 . S
C4713 C1117 1.421 . S
C4729 C1201 1.421 . S
C4731 C1131 1.421 . S
C4747 C1145 1.421 . S
C4749 C1215 1.421 . S
C4765 C1159 1.421 . S
C4767 C1229 1.421 . S
C4783 C1173 1.421 . S
C4785 C1187 1.421 . S
