# Generated by pormake.
# Topology snp, (6)-cn, num edge types: 1
# Building blocks:
#     Node 0, Type 0, BuildingBlock: PAMTUU_clean_sbu_0, # of connection points: 6
#     Node 1, Type 0, BuildingBlock: PAMTUU_clean_sbu_0, # of connection points: 6
#     Node 2, Type 0, BuildingBlock: PAMTUU_clean_sbu_0, # of connection points: 6
#     Node 3, Type 0, BuildingBlock: PAMTUU_clean_sbu_0, # of connection points: 6
#     Edge 4, Type (0, 0), BuildingBlock: EZIPEK_clean_linker_0, # of connection points: 2
#     Edge 5, Type (0, 0), BuildingBlock: EZIPEK_clean_linker_0, # of connection points: 2
#     Edge 6, Type (0, 0), BuildingBlock: EZIPEK_clean_linker_0, # of connection points: 2
#     Edge 7, Type (0, 0), BuildingBlock: EZIPEK_clean_linker_0, # of connection points: 2
#     Edge 8, Type (0, 0), BuildingBlock: EZIPEK_clean_linker_0, # of connection points: 2
#     Edge 9, Type (0, 0), BuildingBlock: EZIPEK_clean_linker_0, # of connection points: 2
#     Edge 10, Type (0, 0), BuildingBlock: EZIPEK_clean_linker_0, # of connection points: 2
#     Edge 11, Type (0, 0), BuildingBlock: EZIPEK_clean_linker_0, # of connection points: 2
#     Edge 12, Type (0, 0), BuildingBlock: EZIPEK_clean_linker_0, # of connection points: 2
#     Edge 13, Type (0, 0), BuildingBlock: EZIPEK_clean_linker_0, # of connection points: 2
#     Edge 14, Type (0, 0), BuildingBlock: EZIPEK_clean_linker_0, # of connection points: 2
#     Edge 15, Type (0, 0), BuildingBlock: EZIPEK_clean_linker_0, # of connection points: 2
# Relax obj value: 0.532
# Max RMSD: 0.257
# Mean RMSD: 0.237
data_MOF--net-snp--node1-PAMTUU_clean_sbu_0--edge1-EZIPEK_clean_linker_0
_symmetry_space_group_name_H-M    P1
_symmetry_Int_Tables_number       1
_symmetry_cell_setting            triclinic
loop_
_symmetry_equiv_pos_as_xyz
'x, y, z'
_cell_length_a     19.35075
_cell_length_b     19.790648
_cell_length_c     25.246459
_cell_angle_alpha  95.419297
_cell_angle_beta   80.16368
_cell_angle_gamma 103.01449
loop_
_atom_site_label
_atom_site_type_symbol
_atom_site_fract_x
_atom_site_fract_y
_atom_site_fract_z
_atom_type_partial_charge
Tb0 Tb 0.19209 0.8658 0.30443 0.0
Tb1 Tb 0.2529 0.02019 0.35428 0.0
C2 C 0.0951 0.96947 0.33416 0.0
C3 C 0.17922 0.72074 0.20785 0.0
C4 C 0.24801 0.73685 1.10188 0.0
C5 C 0.17444 0.73598 0.11476 0.0
C6 C 0.13989 0.72718 0.16742 0.0
C7 C 0.24967 0.70975 0.19282 0.0
C8 C 0.28398 0.71761 0.13974 0.0
C9 C 0.15518 0.7452 0.26355 0.0
O10 O 0.19494 0.93284 0.23858 0.0
O11 O 0.26252 0.03602 0.26771 0.0
O12 O 0.33778 0.96129 0.34114 0.0
O13 O 0.30329 0.8957 0.26796 0.0
O14 O 0.23776 0.1142 0.39481 0.0
O15 O 0.34436 0.09583 0.36912 0.0
O16 O 0.19276 0.96242 0.42353 0.0
O17 O 0.20132 0.85356 0.38817 0.0
O18 O 0.10168 0.90793 0.34439 0.0
O19 O 0.15184 0.02046 0.32955 0.0
C20 C 0.23134 -0.00309 0.22919 0.0
O21 O 0.20493 0.76264 0.29435 0.0
O22 O 0.116 0.79187 0.268 0.0
C23 C 0.35387 0.92694 0.29536 0.0
C24 C 0.32411 0.15969 0.45182 0.0
C25 C 0.35459 0.2173 0.55347 0.0
C26 C 0.40813 0.22786 0.50816 0.0
C27 C 0.39264 0.19975 0.45741 0.0
C28 C 0.27276 0.14462 0.49795 0.0
C29 C 0.28775 0.17355 0.54814 0.0
C30 C 0.30577 0.13601 0.39792 0.0
C31 C 0.18472 0.89566 0.42952 0.0
H32 H 0.1455 0.74889 1.08529 0.0
H33 H 0.08506 0.73402 0.1775 0.0
H34 H 0.28091 0.70279 0.22286 0.0
H35 H 0.34039 0.71626 0.12976 0.0
H36 H 0.46054 0.26015 0.51162 0.0
H37 H 0.43338 0.21092 0.42236 0.0
H38 H 0.21996 0.11266 0.49517 0.0
H39 H 0.24563 0.16449 0.58264 0.0
Tb40 Tb 0.08925 0.26924 0.83387 0.0
Tb41 Tb 0.03457 0.28703 0.71245 0.0
C42 C 0.09588 0.41822 0.78823 0.0
C43 C 0.13423 0.20042 0.96374 0.0
C44 C 0.16541 0.1292 1.04821 0.0
C45 C 0.12282 0.17945 1.05986 0.0
C46 C 0.10766 0.21452 1.01836 0.0
C47 C 0.17476 0.14824 0.95206 0.0
C48 C 0.1898 0.11308 0.99356 0.0
C49 C 0.12976 0.24811 0.92154 0.0
O50 O -0.02576 0.27308 0.84833 0.0
O51 O 0.94871 0.31368 0.77104 0.0
O52 O -0.02384 0.19784 0.75419 0.0
O53 O 0.06463 0.16915 0.7899 0.0
O54 O -0.00549 0.32092 0.64684 0.0
O55 O 0.01773 0.21782 0.6466 0.0
O56 O 0.14228 0.26842 0.69795 0.0
O57 O 0.18567 0.30719 0.77755 0.0
O58 O 0.10006 0.38021 0.82753 0.0
O59 O 0.08272 0.39293 0.73929 0.0
C60 C 0.93281 0.29881 0.82192 0.0
O61 O 0.16576 0.24201 0.87344 0.0
O62 O 0.07004 0.26734 0.91963 0.0
C63 C 0.00774 0.15164 0.76611 0.0
C64 C -0.02877 0.23612 0.56743 0.0
C65 C 0.91355 0.17411 0.47298 0.0
C66 C -0.03436 0.14784 0.49222 0.0
C67 C -0.00628 0.17807 0.53876 0.0
C68 C 0.92067 0.26388 0.54727 0.0
C69 C 0.89188 0.233 0.50078 0.0
C70 C -0.00725 0.25949 0.6217 0.0
C71 C 0.19523 0.28983 0.72576 0.0
H72 H 0.10291 0.19303 1.10135 0.0
H73 H 0.07731 0.25488 1.02928 0.0
H74 H 0.19715 0.1361 0.91086 0.0
H75 H 0.22248 0.07454 0.98302 0.0
H76 H -0.01642 0.10279 0.47174 0.0
H77 H 0.03205 0.15464 0.55309 0.0
H78 H 0.90117 0.30762 0.56867 0.0
H79 H 0.85185 0.25446 0.48688 0.0
Tb80 Tb 0.80121 0.89469 0.19748 0.0
Tb81 Tb 0.79518 0.02799 0.15297 0.0
C82 C 0.9476 0.0182 0.172 0.0
C83 C 0.77284 0.73717 0.27074 0.0
C84 C 0.70513 0.67686 0.36729 0.0
C85 C 0.77829 0.67894 0.34943 0.0
C86 C 0.81187 0.70861 0.30127 0.0
C87 C 0.69848 0.7312 0.28692 0.0
C88 C 0.66453 0.70017 0.33468 0.0
C89 C 0.81162 0.77977 0.22612 0.0
O90 O 0.82812 0.96209 0.2677 0.0
O91 O 0.78966 0.05238 0.2409 0.0
O92 O 0.68214 0.98029 0.16322 0.0
O93 O 0.68937 0.9026 0.22299 0.0
O94 O 0.86546 0.10741 0.10873 0.0
O95 O 0.76776 0.12471 0.15919 0.0
O96 O 0.79343 0.96411 1.07679 0.0
O97 O 0.82266 0.87122 0.10951 0.0
O98 O 0.88422 -0.0178 0.16188 0.0
O99 O 0.8854 -0.01835 0.16258 0.0
C100 C 0.81548 0.02502 0.27697 0.0
O101 O 0.77423 0.78603 0.18903 0.0
O102 O 0.85078 0.83917 0.24057 0.0
C103 C 0.65173 0.93675 0.20081 0.0
C104 C 0.80603 0.18641 1.08059 0.0
C105 C 0.77811 0.24866 0.99389 0.0
C106 C 0.7212 0.22062 1.03305 0.0
C107 C 0.73504 0.18923 1.07624 0.0
C108 C 0.8629 0.21818 1.04294 0.0
C109 C 0.84903 0.24871 0.99976 0.0
C110 C 0.82215 0.15016 0.12345 0.0
C111 C 0.81378 0.90397 1.06866 0.0
H112 H 0.81014 0.66059 0.37411 0.0
H113 H 0.86901 0.71231 0.28927 0.0
H114 H 0.66724 0.75319 0.26403 0.0
H115 H 0.60792 0.69847 0.34794 0.0
H116 H 0.66635 0.22055 1.02903 0.0
H117 H 0.69012 0.1658 1.10527 0.0
H118 H 0.91794 0.21746 1.04599 0.0
H119 H 0.89364 0.27005 0.96959 0.0
Tb120 Tb 0.07047 0.84113 0.76529 0.0
Tb121 Tb 0.92836 0.73026 0.7342 0.0
C122 C 0.94617 0.88766 0.72088 0.0
C123 C 0.21708 0.92049 0.83763 0.0
C124 C 0.27326 0.87826 0.92075 0.0
C125 C 0.3188 0.89966 0.87319 0.0
C126 C 0.29059 0.92052 0.83154 0.0
C127 C 0.17345 0.9054 0.88735 0.0
C128 C 0.2015 0.8845 0.92868 0.0
C129 C 0.18353 0.91971 0.78972 0.0
O130 O -0.01265 0.85233 0.83343 0.0
O131 O 0.90705 0.74859 0.8227 0.0
O132 O 0.0114 0.67533 0.74061 0.0
O133 O 0.06539 0.74698 0.80433 0.0
O134 O 0.81677 0.69191 0.74155 0.0
O135 O 0.89064 0.63374 0.69566 0.0
O136 O -0.01398 0.77525 0.65762 0.0
O137 O 0.09744 0.802 0.68224 0.0
O138 O 0.01467 0.89803 0.72469 0.0
O139 O 0.90072 0.82879 0.73008 0.0
C140 C 0.9292 0.80675 0.85118 0.0
O141 O 0.18256 0.8629 0.75902 0.0
O142 O 0.12161 0.93776 0.79739 0.0
C143 C 0.05015 0.68599 0.77932 0.0
C144 C 0.78503 0.6324 0.66186 0.0
C145 C 0.7106 0.62553 0.57501 0.0
C146 C 0.6753 0.59451 0.62278 0.0
C147 C 0.71267 0.59777 0.66615 0.0
C148 C 0.81975 0.66345 0.61404 0.0
C149 C 0.78292 0.65965 0.57089 0.0
C150 C 0.82386 0.63927 0.70766 0.0
C151 C 0.05638 0.7963 0.64504 0.0
H152 H 0.37447 0.89537 0.86695 0.0
H153 H 0.32476 0.93136 0.79327 0.0
H154 H 0.11648 0.90446 0.89295 0.0
H155 H 0.16607 0.86876 0.96559 0.0
H156 H 0.61923 0.56857 0.6265 0.0
H157 H 0.68507 0.57418 0.70311 0.0
H158 H 0.8752 0.69127 0.61018 0.0
H159 H 0.81063 0.68428 0.53432 0.0
C160 C -0.01181 0.93449 0.22331 0.0
C161 C -0.01634 0.00275 0.21488 0.0
C162 C 0.03044 0.04513 0.29863 0.0
C163 C 0.03532 0.97678 0.30675 0.0
N164 N -0.0109 0.8545 0.28953 0.0
N165 N 0.0196 0.1258 0.23563 0.0
C166 C 0.00513 0.92063 0.27297 0.0
C167 C 0.01018 0.05907 0.25011 0.0
N168 N -0.01855 0.88408 0.18265 0.0
N169 N 0.04499 0.09608 0.33806 0.0
H170 H 0.00721 0.13781 0.19946 0.0
H171 H 0.04503 0.16911 0.25704 0.0
H172 H 0.05556 0.08494 0.37514 0.0
H173 H 0.04102 0.14725 0.3361 0.0
H174 H -0.00686 0.83554 0.18457 0.0
H175 H -0.03007 0.89301 0.1455 0.0
H176 H -0.03373 0.8115 0.26647 0.0
H177 H -0.01027 0.8441 0.32916 0.0
C178 C -0.02925 -0.00831 0.67464 0.0
C179 C 0.92092 0.94826 0.7104 0.0
C180 C 0.91546 0.04294 0.77775 0.0
C181 C -0.02058 0.08051 0.74808 0.0
N182 N 0.06823 0.09263 0.66744 0.0
N183 N 0.81893 0.93958 0.77896 0.0
C184 C 0.00644 0.05635 0.69547 0.0
C185 C 0.88328 0.97709 0.75606 0.0
N186 N -0.01096 0.9663 0.62331 0.0
N187 N 0.88837 0.06855 0.82724 0.0
H188 H 0.79658 0.89126 0.76166 0.0
H189 H 0.7859 0.95815 0.81136 0.0
H190 H 0.91208 0.11627 0.84457 0.0
H191 H 0.84473 0.04129 0.85236 0.0
H192 H 0.02358 -0.00442 0.59352 0.0
H193 H -0.03564 0.91628 0.61041 0.0
H194 H 0.09288 0.07507 0.63041 0.0
H195 H 0.09797 0.13831 0.68324 0.0
C196 C 0.55202 -0.00452 0.24421 0.0
C197 C 0.57499 0.9333 0.22418 0.0
C198 C 0.45453 0.86584 0.25708 0.0
C199 C 0.43016 0.92864 0.27168 0.0
N200 N 0.45232 0.05282 0.26504 0.0
N201 N 0.54502 0.80963 0.20387 0.0
C202 C 0.47793 -0.00664 0.26131 0.0
C203 C 0.52536 0.86841 0.22853 0.0
N204 N 0.60101 0.05641 0.24951 0.0
N205 N 0.41091 0.80394 0.272 0.0
H206 H 0.59593 0.80978 0.18201 0.0
H207 H 0.50913 0.76207 0.20087 0.0
H208 H 0.35932 0.8002 0.29359 0.0
H209 H 0.42803 0.75717 0.26729 0.0
H210 H 0.58719 0.10132 0.26919 0.0
H211 H 0.65621 0.06045 0.23982 0.0
H212 H 0.48394 0.10019 0.2524 0.0
H213 H 0.398 0.05328 0.27486 0.0
C214 C 0.05583 0.52153 0.8419 0.0
C215 C 0.10316 0.4946 0.79993 0.0
C216 C 0.13534 0.60607 0.75783 0.0
C217 C 0.07807 0.62756 0.7932 0.0
N218 N -0.01379 0.61002 0.87092 0.0
N219 N 0.21082 0.52124 0.7365 0.0
C220 C 0.0404 0.58741 0.83683 0.0
C221 C 0.15007 0.54016 0.76331 0.0
N222 N 0.02681 0.48551 0.88687 0.0
N223 N 0.17345 0.64757 0.71782 0.0
H224 H 0.22528 0.47641 0.74555 0.0
H225 H 0.25038 0.55293 0.71109 0.0
H226 H 0.16624 0.69769 0.71478 0.0
H227 H 0.21026 0.63175 0.68677 0.0
H228 H -0.00108 0.50631 0.92114 0.0
H229 H 0.03546 0.4371 0.89282 0.0
H230 H 0.95023 0.57979 0.89939 0.0
H231 H -0.0253 0.65863 0.869 0.0
C232 C 0.30494 0.24077 0.6989 0.0
C233 C 0.26798 0.29399 0.695 0.0
C234 C 0.34405 0.32362 0.60929 0.0
C235 C 0.36148 0.25781 0.60548 0.0
N236 N 0.37576 0.16109 0.64923 0.0
N237 N 0.25411 0.3888 0.64696 0.0
C238 C 0.34969 0.22011 0.65218 0.0
C239 C 0.28987 0.33794 0.65118 0.0
N240 N 0.29358 0.20773 0.74566 0.0
N241 N 0.37541 0.36972 0.57087 0.0
H242 H 0.21203 0.39874 0.67606 0.0
H243 H 0.26248 0.41732 0.61295 0.0
H244 H 0.41531 0.35936 0.53986 0.0
H245 H 0.3678 0.42047 0.57339 0.0
H246 H 0.32114 0.17043 0.75194 0.0
H247 H 0.26016 0.22183 0.77984 0.0
H248 H 0.36352 0.12604 0.67943 0.0
H249 H 0.40929 0.14717 0.61487 0.0
C250 C 0.84474 0.3548 0.88289 0.0
C251 C 0.85895 0.29793 0.84833 0.0
C252 C 0.76226 0.21938 0.90017 0.0
C253 C 0.76646 0.27109 0.94281 0.0
N254 N 0.78839 0.39157 0.9714 0.0
N255 N 0.81024 0.18678 0.80808 0.0
C256 C 0.79748 0.34102 0.93191 0.0
C257 C 0.80966 0.23355 0.85132 0.0
N258 N 0.87755 0.42035 0.86879 0.0
N259 N 0.71941 0.15538 0.90916 0.0
H260 H 0.84334 0.19945 0.77166 0.0
H261 H 0.77492 0.13873 0.80665 0.0
H262 H 0.68375 0.14587 0.94494 0.0
H263 H 0.71859 0.1126 0.88179 0.0
H264 H 0.86741 0.46498 0.89108 0.0
H265 H 0.91114 0.42903 0.83192 0.0
H266 H 0.81445 0.44349 0.96866 0.0
H267 H 0.7539 0.37978 1.0075 0.0
C268 C 0.67347 0.57241 0.4879 0.0
C269 C 0.6735 0.62652 0.52874 0.0
C270 C 0.66722 0.70856 0.46461 0.0
C271 C 0.67463 0.65634 0.42265 0.0
N272 N 0.66088 0.53519 0.39484 0.0
N273 N 0.64339 0.73574 0.56092 0.0
C274 C 0.66873 0.58667 0.43473 0.0
C275 C 0.65986 0.69083 0.51862 0.0
N276 N 0.6832 0.50944 0.49935 0.0
N277 N 0.67384 0.776 0.45289 0.0
H278 H 0.63886 0.72309 0.60079 0.0
H279 H 0.62756 0.78162 0.55669 0.0
H280 H 0.67935 0.79162 0.41387 0.0
H281 H 0.67809 0.81741 0.48168 0.0
H282 H 0.69227 0.47023 0.47021 0.0
H283 H 0.68441 0.49743 0.53849 0.0
H284 H 0.65147 0.48255 0.40146 0.0
H285 H 0.65748 0.54543 0.35564 0.0
C286 C 0.28469 0.76839 0.95527 0.0
C287 C 0.29663 0.842 0.96065 0.0
C288 C 0.31522 0.84101 1.05365 0.0
C289 C 0.28699 0.7683 1.05159 0.0
N290 N 0.25376 0.66039 1.0011 0.0
N291 N 0.32721 0.94981 1.01249 0.0
C292 C 0.27631 0.73103 1.00207 0.0
C293 C 0.31503 0.87887 1.00878 0.0
N294 N 0.27869 0.73477 0.90589 0.0
N295 N 0.33992 0.87378 1.09901 0.0
H296 H 0.33026 0.97878 0.97938 0.0
H297 H 0.33106 0.97975 1.04848 0.0
H298 H 0.33975 0.84755 0.13291 0.0
H299 H 0.36599 0.9258 1.10159 0.0
H300 H 0.27439 0.68153 0.89831 0.0
H301 H 0.2832 0.76108 0.87116 0.0
H302 H 0.2367 0.62976 0.96803 0.0
H303 H 0.25072 0.63241 1.03479 0.0
C304 C 0.91043 0.86462 0.99964 0.0
C305 C 0.83957 0.87683 1.01208 0.0
C306 C 0.82333 0.83777 0.91781 0.0
C307 C 0.89251 0.82096 0.90758 0.0
N308 N -0.00708 0.80172 0.94405 0.0
N309 N 0.72454 0.86569 0.9841 0.0
C310 C 0.93281 0.82885 0.95033 0.0
C311 C 0.79475 0.86074 0.97136 0.0
N312 N -0.04072 0.89255 1.03289 0.0
N313 N 0.78588 0.83392 0.87607 0.0
H314 H 0.70256 0.88235 1.02242 0.0
H315 H 0.68696 0.84853 0.95813 0.0
H316 H 0.80392 0.8151 0.83739 0.0
H317 H 0.73924 0.8528 0.87897 0.0
H318 H 0.01323 0.89078 1.02255 0.0
H319 H 0.94812 0.92553 1.06634 0.0
H320 H 0.02006 0.79882 0.97578 0.0
H321 H 0.01124 0.77554 0.90848 0.0
C322 C 0.18123 0.90126 0.53074 0.0
C323 C 0.15412 0.86734 0.48415 0.0
C324 C 0.06998 0.78082 0.54225 0.0
C325 C 0.09046 0.82014 0.58935 0.0
N326 N 0.15615 0.92902 0.62612 0.0
N327 N 0.0606 0.78213 0.4479 0.0
C328 C 0.1436 0.88338 0.58298 0.0
C329 C 0.09524 0.80898 0.4905 0.0
N330 N 0.24463 0.94931 0.52547 0.0
N331 N 0.02871 0.71518 0.54633 0.0
H332 H 0.07502 0.80196 0.40987 0.0
H333 H 0.01281 0.74479 0.45178 0.0
H334 H 0.01191 0.69136 0.5828 0.0
H335 H 0.01793 0.68169 0.51293 0.0
H336 H 0.27061 0.97059 0.55803 0.0
H337 H 0.2754 0.96214 0.48825 0.0
H338 H 0.18755 0.97906 0.62223 0.0
H339 H 0.12967 0.92074 0.66504 0.0
C340 C 0.23994 0.133 0.12374 0.0
C341 C 0.18702 0.09545 1.09291 0.0
C342 C 0.18718 -0.01032 0.1377 0.0
C343 C 0.22817 0.02902 0.17642 0.0
N344 N 0.30956 0.13734 0.19587 0.0
N345 N 0.10381 -0.01131 1.07644 0.0
C346 C 0.25902 0.10065 0.16649 0.0
C347 C 0.15909 0.02413 1.10163 0.0
N348 N 0.27497 0.1986 0.11014 0.0
N349 N 0.18021 0.91927 0.13146 0.0
H350 H 0.08113 0.01125 1.04984 0.0
H351 H 0.07639 0.93911 1.08689 0.0
H352 H 0.20912 0.89287 0.15035 0.0
H353 H 0.15606 0.88893 1.10083 0.0
H354 H 0.31897 0.22731 0.12669 0.0
H355 H 0.26297 0.22336 1.07925 0.0
H356 H 0.32295 0.19135 0.19959 0.0
H357 H 0.34148 0.11339 0.21394 0.0
C358 C 0.81392 0.03453 0.37889 0.0
C359 C 0.83289 0.0667 0.32858 0.0
C360 C 0.9 0.17166 0.3743 0.0
C361 C 0.88182 0.13907 0.42401 0.0
N362 N 0.81062 0.04523 0.47628 0.0
N363 N 0.88419 0.17247 0.28148 0.0
C364 C 0.83591 0.07193 0.4269 0.0
C365 C 0.87209 0.13738 0.32744 0.0
N366 N 0.77349 0.9683 0.38109 0.0
N367 N 0.94872 0.23367 0.37069 0.0
H368 H 0.87745 0.14917 0.24359 0.0
H369 H 0.89983 0.22634 0.28105 0.0
H370 H -0.02913 0.26042 0.4035 0.0
H371 H -0.02758 0.25599 0.33447 0.0
H372 H 0.76717 0.93734 0.41341 0.0
H373 H 0.74645 0.94334 0.34996 0.0
H374 H 0.77173 -0.00014 0.48286 0.0
H375 H 0.8245 0.07151 0.51202 0.0
loop_
_geom_bond_atom_site_label_1
_geom_bond_atom_site_label_2
_geom_bond_distance
_geom_bond_site_symmetry_2
_ccdc_geom_bond_type
Tb0 C9 2.764 . S
Tb0 O10 2.325 1_565 S
Tb0 O13 2.303 1_565 S
Tb0 O17 2.322 . S
Tb0 O18 2.349 . S
Tb0 O21 2.415 . S
Tb0 O22 2.399 . S
Tb1 O11 2.322 . S
Tb1 O12 2.349 . S
Tb1 O14 2.415 . S
Tb1 O15 2.399 . S
Tb1 O16 2.325 . S
Tb1 O19 2.303 . S
Tb1 C30 2.764 . S
C2 O18 1.261 1_545 S
C2 O19 1.257 . S
C3 C6 1.358 . S
C3 C7 1.332 . S
C3 C9 1.504 . S
C4 C5 1.373 . S
C4 C8 1.308 . S
C5 C4 1.373 . S
C5 C6 1.429 1_556 S
C5 H32 0.932 . S
C6 C3 1.358 . S
C6 C5 1.429 1_554 S
C6 H33 0.930 . S
C7 C3 1.332 . S
C7 C8 1.394 1_554 S
C7 H34 0.932 . S
C8 C4 1.308 . S
C8 C7 1.394 1_556 S
C8 H35 0.929 . S
C9 Tb0 2.764 . S
C9 C3 1.504 . S
C9 O21 1.239 . S
C9 O22 1.263 . S
O10 Tb0 2.325 1_545 S
O10 C20 1.236 . S
O11 Tb1 2.322 . S
O11 C20 1.257 . S
O12 Tb1 2.349 . S
O12 C23 1.261 . S
O13 Tb0 2.303 1_545 S
O13 C23 1.257 . S
O14 Tb1 2.415 . S
O14 C30 1.239 . S
O15 Tb1 2.399 . S
O15 C30 1.263 . S
O16 Tb1 2.325 . S
O16 C31 1.236 1_545 S
O17 Tb0 2.322 . S
O17 C31 1.257 . S
O18 Tb0 2.349 . S
O18 C2 1.261 1_565 S
O19 Tb1 2.303 . S
O19 C2 1.257 . S
C20 O10 1.236 . S
C20 O11 1.257 . S
O21 Tb0 2.415 . S
O21 C9 1.239 . S
O22 Tb0 2.399 . S
O22 C9 1.263 . S
C23 O12 1.261 . S
C23 O13 1.257 . S
C24 C27 1.358 . S
C24 C28 1.332 . S
C24 C30 1.504 . S
C25 C26 1.373 . S
C25 C29 1.308 . S
C26 C25 1.373 . S
C26 C27 1.429 . S
C26 H36 0.932 . S
C27 C24 1.358 . S
C27 C26 1.429 . S
C27 H37 0.930 . S
C28 C24 1.332 . S
C28 C29 1.394 . S
C28 H38 0.932 . S
C29 C25 1.308 . S
C29 C28 1.394 . S
C29 H39 0.929 . S
C30 Tb1 2.764 . S
C30 O14 1.239 . S
C30 O15 1.263 . S
C30 C24 1.504 . S
C31 O16 1.236 1_565 S
C31 O17 1.257 . S
H32 C5 0.932 . S
H33 C6 0.930 . S
H34 C7 0.932 . S
H35 C8 0.929 . S
H36 C26 0.932 . S
H37 C27 0.930 . S
H38 C28 0.932 . S
H39 C29 0.929 . S
Tb40 C49 2.764 . S
Tb40 O50 2.325 . S
Tb40 O53 2.303 . S
Tb40 O57 2.322 . S
Tb40 O58 2.349 . S
Tb40 O61 2.415 . S
Tb40 O62 2.399 . S
Tb41 O51 2.322 . S
Tb41 O52 2.349 . S
Tb41 O54 2.415 . S
Tb41 O55 2.399 1_455 S
Tb41 O56 2.325 . S
Tb41 O59 2.303 . S
Tb41 C70 2.764 1_455 S
C42 O58 1.261 . S
C42 O59 1.257 . S
C43 C46 1.358 . S
C43 C47 1.332 . S
C43 C49 1.504 . S
C44 C45 1.373 . S
C44 C48 1.308 . S
C45 C44 1.373 . S
C45 C46 1.429 . S
C45 H72 0.932 . S
C46 C43 1.358 . S
C46 C45 1.429 . S
C46 H73 0.930 . S
C47 C43 1.332 . S
C47 C48 1.394 . S
C47 H74 0.932 . S
C48 C44 1.308 . S
C48 C47 1.394 . S
C48 H75 0.929 . S
C49 Tb40 2.764 . S
C49 C43 1.504 . S
C49 O61 1.239 . S
C49 O62 1.263 . S
O50 Tb40 2.325 . S
O50 C60 1.236 . S
O51 Tb41 2.322 . S
O51 C60 1.257 . S
O52 Tb41 2.349 . S
O52 C63 1.261 . S
O53 Tb40 2.303 . S
O53 C63 1.257 . S
O54 Tb41 2.415 . S
O54 C70 1.239 1_455 S
O55 Tb41 2.399 1_655 S
O55 C70 1.263 . S
O56 Tb41 2.325 . S
O56 C71 1.236 . S
O57 Tb40 2.322 . S
O57 C71 1.257 . S
O58 Tb40 2.349 . S
O58 C42 1.261 . S
O59 Tb41 2.303 . S
O59 C42 1.257 . S
C60 O50 1.236 . S
C60 O51 1.257 . S
O61 Tb40 2.415 . S
O61 C49 1.239 . S
O62 Tb40 2.399 . S
O62 C49 1.263 . S
C63 O52 1.261 . S
C63 O53 1.257 . S
C64 C67 1.358 . S
C64 C68 1.332 . S
C64 C70 1.504 . S
C65 C66 1.373 . S
C65 C69 1.308 . S
C66 C65 1.373 . S
C66 C67 1.429 . S
C66 H76 0.932 . S
C67 C64 1.358 . S
C67 C66 1.429 . S
C67 H77 0.930 . S
C68 C64 1.332 . S
C68 C69 1.394 . S
C68 H78 0.932 1_655 S
C69 C65 1.308 . S
C69 C68 1.394 . S
C69 H79 0.929 . S
C70 Tb41 2.764 1_655 S
C70 O54 1.239 1_655 S
C70 O55 1.263 . S
C70 C64 1.504 . S
C71 O56 1.236 . S
C71 O57 1.257 . S
H72 C45 0.932 . S
H73 C46 0.930 . S
H74 C47 0.932 . S
H75 C48 0.929 . S
H76 C66 0.932 . S
H77 C67 0.930 . S
H78 C68 0.932 1_455 S
H79 C69 0.929 . S
Tb80 C89 2.764 . S
Tb80 O90 2.325 1_565 S
Tb80 O93 2.303 . S
Tb80 O97 2.322 . S
Tb80 O98 2.349 . S
Tb80 O101 2.415 . S
Tb80 O102 2.399 . S
Tb81 O91 2.322 . S
Tb81 O92 2.349 . S
Tb81 O94 2.415 . S
Tb81 O95 2.399 . S
Tb81 O96 2.325 1_545 S
Tb81 O99 2.303 . S
Tb81 C110 2.764 1_554 S
C82 O98 1.261 . S
C82 O99 1.257 1_565 S
C83 C86 1.358 . S
C83 C87 1.332 . S
C83 C89 1.504 . S
C84 C85 1.373 . S
C84 C88 1.308 . S
C85 C84 1.373 . S
C85 C86 1.429 . S
C85 H112 0.932 . S
C86 C83 1.358 . S
C86 C85 1.429 . S
C86 H113 0.930 . S
C87 C83 1.332 . S
C87 C88 1.394 . S
C87 H114 0.932 . S
C88 C84 1.308 . S
C88 C87 1.394 . S
C88 H115 0.929 . S
C89 Tb80 2.764 . S
C89 C83 1.504 . S
C89 O101 1.239 . S
C89 O102 1.263 . S
O90 Tb80 2.325 1_545 S
O90 C100 1.236 . S
O91 Tb81 2.322 . S
O91 C100 1.257 . S
O92 Tb81 2.349 . S
O92 C103 1.261 . S
O93 Tb80 2.303 . S
O93 C103 1.257 1_565 S
O94 Tb81 2.415 . S
O94 C110 1.239 1_554 S
O95 Tb81 2.399 . S
O95 C110 1.263 1_554 S
O96 Tb81 2.325 1_565 S
O96 C111 1.236 . S
O97 Tb80 2.322 . S
O97 C111 1.257 . S
O98 Tb80 2.349 . S
O98 C82 1.261 . S
O99 Tb81 2.303 . S
O99 C82 1.257 1_545 S
C100 O90 1.236 . S
C100 O91 1.257 . S
O101 Tb80 2.415 . S
O101 C89 1.239 . S
O102 Tb80 2.399 . S
O102 C89 1.263 . S
C103 O92 1.261 . S
C103 O93 1.257 1_545 S
C104 C107 1.358 . S
C104 C108 1.332 . S
C104 C110 1.504 . S
C105 C106 1.373 . S
C105 C109 1.308 . S
C106 C105 1.373 . S
C106 C107 1.429 . S
C106 H116 0.932 . S
C107 C104 1.358 . S
C107 C106 1.429 . S
C107 H117 0.930 . S
C108 C104 1.332 . S
C108 C109 1.394 . S
C108 H118 0.932 . S
C109 C105 1.308 . S
C109 C108 1.394 . S
C109 H119 0.929 1_655 S
C110 Tb81 2.764 1_556 S
C110 O94 1.239 1_556 S
C110 O95 1.263 1_556 S
C110 C104 1.504 . S
C111 O96 1.236 . S
C111 O97 1.257 . S
H112 C85 0.932 . S
H113 C86 0.930 . S
H114 C87 0.932 . S
H115 C88 0.929 . S
H116 C106 0.932 . S
H117 C107 0.930 . S
H118 C108 0.932 . S
H119 C109 0.929 1_455 S
Tb120 C129 2.764 . S
Tb120 O130 2.325 1_455 S
Tb120 O133 2.303 . S
Tb120 O137 2.322 . S
Tb120 O138 2.349 . S
Tb120 O141 2.415 . S
Tb120 O142 2.399 . S
Tb121 O131 2.322 . S
Tb121 O132 2.349 . S
Tb121 O134 2.415 . S
Tb121 O135 2.399 . S
Tb121 O136 2.325 1_655 S
Tb121 O139 2.303 . S
Tb121 C150 2.764 . S
C122 O138 1.261 . S
C122 O139 1.257 1_455 S
C123 C126 1.358 . S
C123 C127 1.332 . S
C123 C129 1.504 . S
C124 C125 1.373 . S
C124 C128 1.308 . S
C125 C124 1.373 . S
C125 C126 1.429 . S
C125 H152 0.932 . S
C126 C123 1.358 . S
C126 C125 1.429 . S
C126 H153 0.930 . S
C127 C123 1.332 . S
C127 C128 1.394 . S
C127 H154 0.932 . S
C128 C124 1.308 . S
C128 C127 1.394 . S
C128 H155 0.929 . S
C129 Tb120 2.764 . S
C129 C123 1.504 . S
C129 O141 1.239 . S
C129 O142 1.263 . S
O130 Tb120 2.325 1_655 S
O130 C140 1.236 . S
O131 Tb121 2.322 . S
O131 C140 1.257 . S
O132 Tb121 2.349 . S
O132 C143 1.261 . S
O133 Tb120 2.303 . S
O133 C143 1.257 1_455 S
O134 Tb121 2.415 . S
O134 C150 1.239 . S
O135 Tb121 2.399 . S
O135 C150 1.263 . S
O136 Tb121 2.325 1_455 S
O136 C151 1.236 . S
O137 Tb120 2.322 . S
O137 C151 1.257 . S
O138 Tb120 2.349 . S
O138 C122 1.261 . S
O139 Tb121 2.303 . S
O139 C122 1.257 1_655 S
C140 O130 1.236 . S
C140 O131 1.257 . S
O141 Tb120 2.415 . S
O141 C129 1.239 . S
O142 Tb120 2.399 . S
O142 C129 1.263 . S
C143 O132 1.261 . S
C143 O133 1.257 1_655 S
C144 C147 1.358 . S
C144 C148 1.332 . S
C144 C150 1.504 . S
C145 C146 1.373 . S
C145 C149 1.308 . S
C146 C145 1.373 . S
C146 C147 1.429 . S
C146 H156 0.932 . S
C147 C144 1.358 . S
C147 C146 1.429 . S
C147 H157 0.930 . S
C148 C144 1.332 . S
C148 C149 1.394 . S
C148 H158 0.932 . S
C149 C145 1.308 . S
C149 C148 1.394 . S
C149 H159 0.929 . S
C150 Tb121 2.764 . S
C150 O134 1.239 . S
C150 O135 1.263 . S
C150 C144 1.504 . S
C151 O136 1.236 . S
C151 O137 1.257 . S
H152 C125 0.932 . S
H153 C126 0.930 . S
H154 C127 0.932 . S
H155 C128 0.929 . S
H156 C146 0.932 . S
H157 C147 0.930 . S
H158 C148 0.932 . S
H159 C149 0.929 . S
C160 C161 1.363 1_565 S
C160 C166 1.379 . S
C160 N168 1.356 1_455 S
C161 C160 1.363 1_545 S
C161 C167 1.363 . S
C162 C163 1.363 . S
C162 C167 1.379 . S
C162 N169 1.356 . S
C163 C162 1.363 . S
C163 C166 1.363 1_545 S
N164 C166 1.356 . S
N164 H176 0.984 . S
N164 H177 0.985 . S
N165 C167 1.356 . S
N165 H170 0.984 . S
N165 H171 0.985 . S
C166 C160 1.379 . S
C166 C163 1.363 1_565 S
C166 N164 1.356 . S
C167 C161 1.363 . S
C167 C162 1.379 . S
C167 N165 1.356 . S
N168 C160 1.356 1_655 S
N168 H174 0.984 . S
N168 H175 0.984 . S
N169 C162 1.356 . S
N169 H172 0.984 . S
N169 H173 0.985 . S
H170 N165 0.984 . S
H171 N165 0.985 . S
H172 N169 0.984 . S
H173 N169 0.985 . S
H174 N168 0.984 . S
H175 N168 0.984 . S
H176 N164 0.984 . S
H177 N164 0.985 . S
C178 C179 1.363 . S
C178 C184 1.379 1_565 S
C178 N186 1.356 . S
C179 C178 1.363 . S
C179 C185 1.363 . S
C180 C181 1.363 . S
C180 C185 1.379 1_545 S
C180 N187 1.356 . S
C181 C180 1.363 . S
C181 C184 1.363 . S
N182 C184 1.356 . S
N182 H194 0.984 . S
N182 H195 0.985 . S
N183 C185 1.356 1_655 S
N183 H188 0.984 . S
N183 H189 0.985 . S
C184 C178 1.379 1_545 S
C184 C181 1.363 . S
C184 N182 1.356 . S
C185 C179 1.363 . S
C185 C180 1.379 1_565 S
C185 N183 1.356 1_455 S
N186 C178 1.356 . S
N186 H192 0.984 . S
N186 H193 0.984 . S
N187 C180 1.356 . S
N187 H190 0.984 . S
N187 H191 0.985 1_455 S
H188 N183 0.984 . S
H189 N183 0.985 . S
H190 N187 0.984 . S
H191 N187 0.985 1_655 S
H192 N186 0.984 . S
H193 N186 0.984 . S
H194 N182 0.984 . S
H195 N182 0.985 . S
C196 C197 1.363 . S
C196 C202 1.379 . S
C196 N204 1.356 . S
C197 C196 1.363 . S
C197 C203 1.363 1_545 S
C198 C199 1.363 1_565 S
C198 C203 1.379 . S
C198 N205 1.356 . S
C199 C198 1.363 1_545 S
C199 C202 1.363 . S
N200 C202 1.356 . S
N200 H212 0.984 . S
N200 H213 0.985 . S
N201 C203 1.356 . S
N201 H206 0.984 . S
N201 H207 0.985 . S
C202 C196 1.379 . S
C202 C199 1.363 . S
C202 N200 1.356 . S
C203 C197 1.363 1_565 S
C203 C198 1.379 . S
C203 N201 1.356 . S
N204 C196 1.356 . S
N204 H210 0.984 . S
N204 H211 0.984 . S
N205 C198 1.356 . S
N205 H208 0.984 . S
N205 H209 0.985 . S
H206 N201 0.984 . S
H207 N201 0.985 . S
H208 N205 0.984 . S
H209 N205 0.985 . S
H210 N204 0.984 . S
H211 N204 0.984 . S
H212 N200 0.984 . S
H213 N200 0.985 . S
C214 C215 1.363 . S
C214 C220 1.379 . S
C214 N222 1.356 . S
C215 C214 1.363 . S
C215 C221 1.363 . S
C216 C217 1.363 . S
C216 C221 1.379 . S
C216 N223 1.356 . S
C217 C216 1.363 . S
C217 C220 1.363 . S
N218 C220 1.356 1_655 S
N218 H230 0.984 . S
N218 H231 0.985 . S
N219 C221 1.356 . S
N219 H224 0.984 . S
N219 H225 0.985 . S
C220 C214 1.379 . S
C220 C217 1.363 . S
C220 N218 1.356 1_455 S
C221 C215 1.363 . S
C221 C216 1.379 . S
C221 N219 1.356 . S
N222 C214 1.356 . S
N222 H228 0.984 . S
N222 H229 0.984 . S
N223 C216 1.356 . S
N223 H226 0.984 . S
N223 H227 0.985 . S
H224 N219 0.984 . S
H225 N219 0.985 . S
H226 N223 0.984 . S
H227 N223 0.985 . S
H228 N222 0.984 . S
H229 N222 0.984 . S
H230 N218 0.984 . S
H231 N218 0.985 . S
C232 C233 1.363 . S
C232 C238 1.379 . S
C232 N240 1.356 . S
C233 C232 1.363 . S
C233 C239 1.363 . S
C234 C235 1.363 . S
C234 C239 1.379 . S
C234 N241 1.356 . S
C235 C234 1.363 . S
C235 C238 1.363 . S
N236 C238 1.356 . S
N236 H248 0.984 . S
N236 H249 0.985 . S
N237 C239 1.356 . S
N237 H242 0.984 . S
N237 H243 0.985 . S
C238 C232 1.379 . S
C238 C235 1.363 . S
C238 N236 1.356 . S
C239 C233 1.363 . S
C239 C234 1.379 . S
C239 N237 1.356 . S
N240 C232 1.356 . S
N240 H246 0.984 . S
N240 H247 0.984 . S
N241 C234 1.356 . S
N241 H244 0.984 . S
N241 H245 0.985 . S
H242 N237 0.984 . S
H243 N237 0.985 . S
H244 N241 0.984 . S
H245 N241 0.985 . S
H246 N240 0.984 . S
H247 N240 0.984 . S
H248 N236 0.984 . S
H249 N236 0.985 . S
C250 C251 1.363 . S
C250 C256 1.379 1_455 S
C250 N258 1.356 . S
C251 C250 1.363 . S
C251 C257 1.363 1_455 S
C252 C253 1.363 . S
C252 C257 1.379 . S
C252 N259 1.356 . S
C253 C252 1.363 . S
C253 C256 1.363 . S
N254 C256 1.356 . S
N254 H266 0.984 . S
N254 H267 0.985 . S
N255 C257 1.356 . S
N255 H260 0.984 1_655 S
N255 H261 0.985 . S
C256 C250 1.379 1_655 S
C256 C253 1.363 . S
C256 N254 1.356 . S
C257 C251 1.363 1_655 S
C257 C252 1.379 . S
C257 N255 1.356 . S
N258 C250 1.356 . S
N258 H264 0.984 . S
N258 H265 0.984 . S
N259 C252 1.356 . S
N259 H262 0.984 . S
N259 H263 0.985 . S
H260 N255 0.984 1_455 S
H261 N255 0.985 . S
H262 N259 0.984 . S
H263 N259 0.985 . S
H264 N258 0.984 . S
H265 N258 0.984 . S
H266 N254 0.984 . S
H267 N254 0.985 . S
C268 C269 1.363 . S
C268 C274 1.379 . S
C268 N276 1.356 . S
C269 C268 1.363 . S
C269 C275 1.363 . S
C270 C271 1.363 . S
C270 C275 1.379 . S
C270 N277 1.356 . S
C271 C270 1.363 . S
C271 C274 1.363 . S
N272 C274 1.356 . S
N272 H284 0.984 . S
N272 H285 0.985 . S
N273 C275 1.356 . S
N273 H278 0.984 . S
N273 H279 0.985 . S
C274 C268 1.379 . S
C274 C271 1.363 . S
C274 N272 1.356 . S
C275 C269 1.363 . S
C275 C270 1.379 . S
C275 N273 1.356 . S
N276 C268 1.356 . S
N276 H282 0.984 . S
N276 H283 0.984 . S
N277 C270 1.356 . S
N277 H280 0.984 . S
N277 H281 0.985 . S
H278 N273 0.984 . S
H279 N273 0.985 . S
H280 N277 0.984 . S
H281 N277 0.985 . S
H282 N276 0.984 . S
H283 N276 0.984 . S
H284 N272 0.984 . S
H285 N272 0.985 . S
C286 C287 1.363 . S
C286 C292 1.379 . S
C286 N294 1.356 . S
C287 C286 1.363 . S
C287 C293 1.363 . S
C288 C289 1.363 . S
C288 C293 1.379 . S
C288 N295 1.356 . S
C289 C288 1.363 . S
C289 C292 1.363 . S
N290 C292 1.356 . S
N290 H302 0.984 . S
N290 H303 0.985 . S
N291 C293 1.356 . S
N291 H296 0.984 . S
N291 H297 0.985 . S
C292 C286 1.379 . S
C292 C289 1.363 . S
C292 N290 1.356 . S
C293 C287 1.363 . S
C293 C288 1.379 . S
C293 N291 1.356 . S
N294 C286 1.356 . S
N294 H300 0.984 . S
N294 H301 0.984 . S
N295 C288 1.356 . S
N295 H298 0.984 . S
N295 H299 0.985 . S
H296 N291 0.984 . S
H297 N291 0.985 . S
H298 N295 0.984 . S
H299 N295 0.985 . S
H300 N294 0.984 . S
H301 N294 0.984 . S
H302 N290 0.984 . S
H303 N290 0.985 . S
C304 C305 1.363 . S
C304 C310 1.379 . S
C304 N312 1.356 . S
C305 C304 1.363 . S
C305 C311 1.363 . S
C306 C307 1.363 . S
C306 C311 1.379 . S
C306 N313 1.356 . S
C307 C306 1.363 . S
C307 C310 1.363 . S
N308 C310 1.356 . S
N308 H320 0.984 . S
N308 H321 0.985 . S
N309 C311 1.356 . S
N309 H314 0.984 . S
N309 H315 0.985 . S
C310 C304 1.379 . S
C310 C307 1.363 . S
C310 N308 1.356 . S
C311 C305 1.363 . S
C311 C306 1.379 . S
C311 N309 1.356 . S
N312 C304 1.356 . S
N312 H318 0.984 . S
N312 H319 0.984 . S
N313 C306 1.356 . S
N313 H316 0.984 . S
N313 H317 0.985 . S
H314 N309 0.984 . S
H315 N309 0.985 . S
H316 N313 0.984 . S
H317 N313 0.985 . S
H318 N312 0.984 . S
H319 N312 0.984 . S
H320 N308 0.984 . S
H321 N308 0.985 . S
C322 C323 1.363 . S
C322 C328 1.379 . S
C322 N330 1.356 . S
C323 C322 1.363 . S
C323 C329 1.363 . S
C324 C325 1.363 . S
C324 C329 1.379 . S
C324 N331 1.356 . S
C325 C324 1.363 . S
C325 C328 1.363 . S
N326 C328 1.356 . S
N326 H338 0.984 . S
N326 H339 0.985 . S
N327 C329 1.356 . S
N327 H332 0.984 . S
N327 H333 0.985 . S
C328 C322 1.379 . S
C328 C325 1.363 . S
C328 N326 1.356 . S
C329 C323 1.363 . S
C329 C324 1.379 . S
C329 N327 1.356 . S
N330 C322 1.356 . S
N330 H336 0.984 1_565 S
N330 H337 0.984 . S
N331 C324 1.356 . S
N331 H334 0.984 . S
N331 H335 0.985 . S
H332 N327 0.984 . S
H333 N327 0.985 . S
H334 N331 0.984 . S
H335 N331 0.985 . S
H336 N330 0.984 1_545 S
H337 N330 0.984 . S
H338 N326 0.984 . S
H339 N326 0.985 . S
C340 C341 1.363 1_554 S
C340 C346 1.379 . S
C340 N348 1.356 1_554 S
C341 C340 1.363 1_556 S
C341 C347 1.363 . S
C342 C343 1.363 . S
C342 C347 1.379 1_554 S
C342 N349 1.356 . S
C343 C342 1.363 . S
C343 C346 1.363 . S
N344 C346 1.356 . S
N344 H356 0.984 . S
N344 H357 0.985 . S
N345 C347 1.356 . S
N345 H350 0.984 . S
N345 H351 0.985 . S
C346 C340 1.379 . S
C346 C343 1.363 . S
C346 N344 1.356 . S
C347 C341 1.363 . S
C347 C342 1.379 1_556 S
C347 N345 1.356 . S
N348 C340 1.356 1_556 S
N348 H354 0.984 1_556 S
N348 H355 0.984 . S
N349 C342 1.356 . S
N349 H352 0.984 . S
N349 H353 0.985 . S
H350 N345 0.984 . S
H351 N345 0.985 . S
H352 N349 0.984 . S
H353 N349 0.985 . S
H354 N348 0.984 1_554 S
H355 N348 0.984 . S
H356 N344 0.984 . S
H357 N344 0.985 . S
C358 C359 1.363 . S
C358 C364 1.379 . S
C358 N366 1.356 . S
C359 C358 1.363 . S
C359 C365 1.363 . S
C360 C361 1.363 . S
C360 C365 1.379 . S
C360 N367 1.356 . S
C361 C360 1.363 . S
C361 C364 1.363 . S
N362 C364 1.356 . S
N362 H374 0.984 . S
N362 H375 0.985 . S
N363 C365 1.356 . S
N363 H368 0.984 . S
N363 H369 0.985 . S
C364 C358 1.379 . S
C364 C361 1.363 . S
C364 N362 1.356 . S
C365 C359 1.363 . S
C365 C360 1.379 . S
C365 N363 1.356 . S
N366 C358 1.356 . S
N366 H372 0.984 . S
N366 H373 0.984 . S
N367 C360 1.356 . S
N367 H370 0.984 . S
N367 H371 0.985 . S
H368 N363 0.984 . S
H369 N363 0.985 . S
H370 N367 0.984 . S
H371 N367 0.985 . S
H372 N366 0.984 . S
H373 N366 0.984 . S
H374 N362 0.984 . S
H375 N362 0.985 . S
C161 C82 1.536 1_445 S
C163 C2 1.507 . S
C179 C122 1.070 . S
C181 C63 1.070 . S
C197 C103 1.097 . S
C199 C23 1.120 . S
C215 C42 1.154 . S
C217 C143 1.153 1_455 S
C233 C71 0.606 . S
C235 C25 0.668 . S
C251 C60 0.762 . S
C253 C105 0.758 . S
C269 C145 0.468 . S
C271 C84 0.506 . S
C287 C124 0.357 . S
C289 C4 0.723 . S
C305 C111 3.491 1_556 S
C307 C140 3.353 . S
C323 C31 3.652 . S
C325 C151 3.627 . S
C341 C44 2.722 . S
C343 C20 2.831 . S
C359 C100 2.517 . S
C361 C65 2.464 . S
