# Generated by pormake.
# Topology fnu, (5)-cn, num edge types: 1
# Building blocks:
#     Node 0, Type 0, BuildingBlock: BEQFEK_clean_sbu_0, # of connection points: 5
#     Node 1, Type 0, BuildingBlock: BEQFEK_clean_sbu_0, # of connection points: 5
#     Node 2, Type 0, BuildingBlock: BEQFEK_clean_sbu_0, # of connection points: 5
#     Node 3, Type 0, BuildingBlock: BEQFEK_clean_sbu_0, # of connection points: 5
#     Node 4, Type 0, BuildingBlock: BEQFEK_clean_sbu_0, # of connection points: 5
#     Node 5, Type 0, BuildingBlock: BEQFEK_clean_sbu_0, # of connection points: 5
#     Edge 6, Type (0, 0), BuildingBlock: FUNLAD_clean_linker_0, # of connection points: 2
#     Edge 7, Type (0, 0), BuildingBlock: FUNLAD_clean_linker_0, # of connection points: 2
#     Edge 8, Type (0, 0), BuildingBlock: FUNLAD_clean_linker_0, # of connection points: 2
#     Edge 9, Type (0, 0), BuildingBlock: FUNLAD_clean_linker_0, # of connection points: 2
#     Edge 10, Type (0, 0), BuildingBlock: FUNLAD_clean_linker_0, # of connection points: 2
#     Edge 11, Type (0, 0), BuildingBlock: FUNLAD_clean_linker_0, # of connection points: 2
#     Edge 12, Type (0, 0), BuildingBlock: FUNLAD_clean_linker_0, # of connection points: 2
#     Edge 13, Type (0, 0), BuildingBlock: FUNLAD_clean_linker_0, # of connection points: 2
#     Edge 14, Type (0, 0), BuildingBlock: FUNLAD_clean_linker_0, # of connection points: 2
#     Edge 15, Type (0, 0), BuildingBlock: FUNLAD_clean_linker_0, # of connection points: 2
#     Edge 16, Type (0, 0), BuildingBlock: FUNLAD_clean_linker_0, # of connection points: 2
#     Edge 17, Type (0, 0), BuildingBlock: FUNLAD_clean_linker_0, # of connection points: 2
#     Edge 18, Type (0, 0), BuildingBlock: FUNLAD_clean_linker_0, # of connection points: 2
#     Edge 19, Type (0, 0), BuildingBlock: FUNLAD_clean_linker_0, # of connection points: 2
#     Edge 20, Type (0, 0), BuildingBlock: FUNLAD_clean_linker_0, # of connection points: 2
# Relax obj value: 0.175
# Max RMSD: 0.164
# Mean RMSD: 0.164
data_MOF--net-fnu--node1-BEQFEK_clean_sbu_0--edge1-FUNLAD_clean_linker_0
_symmetry_space_group_name_H-M    P1
_symmetry_Int_Tables_number       1
_symmetry_cell_setting            triclinic
loop_
_symmetry_equiv_pos_as_xyz
'x, y, z'
_cell_length_a     28.378467
_cell_length_b     33.503571
_cell_length_c     41.370749
_cell_angle_alpha  89.929091
_cell_angle_beta   97.724371
_cell_angle_gamma 126.21858
loop_
_atom_site_label
_atom_site_type_symbol
_atom_site_fract_x
_atom_site_fract_y
_atom_site_fract_z
_atom_type_partial_charge
Co0 Co 0.99843 0.02843 0.18345 0.0
Co1 Co 0.0478 0.04802 0.25842 0.0
C2 C 0.99277 0.94969 0.22095 0.0
O3 O 0.98706 0.96781 0.19518 0.0
O4 O 1.01296 0.97481 0.24894 0.0
C5 C 0.90521 0.96958 0.13079 0.0
O6 O 0.88344 0.93728 0.15261 0.0
C7 C 0.04392 0.04376 0.32992 0.0
C8 C 0.13508 0.10764 0.35064 0.0
C9 C 0.08176 0.0694 0.35951 0.0
N10 N 0.07364 0.06611 0.30502 0.0
N11 N 0.12806 0.10432 0.31768 0.0
C12 C 0.98174 0.99725 0.32511 0.0
H13 H 0.96935 0.97788 0.30035 0.0
H14 H 0.95103 1.00697 0.32726 0.0
H15 H 0.97665 0.97213 0.34411 0.0
C16 C 0.93838 0.06813 0.20311 0.0
N17 N 0.97018 0.05078 0.21125 0.0
N18 N 0.99291 0.06286 0.2426 0.0
C19 C 0.97725 0.09 0.25521 0.0
C20 C 0.94147 0.09351 0.23055 0.0
C21 C 0.91309 0.06699 0.1686 0.0
H22 H 0.94847 0.08381 0.15326 0.0
H23 H 0.87827 0.02784 0.15859 0.0
H24 H 0.89312 0.08724 0.16701 0.0
O25 O 0.08338 0.07912 0.18366 0.0
O26 O 0.12037 0.08956 0.23647 0.0
H27 H 0.0505 0.13712 0.29364 0.0
H28 H 0.99091 0.14345 0.2918 0.0
C29 C 1.00176 0.11693 0.28883 0.0
H30 H 0.98278 0.08953 0.30712 0.0
H31 H 0.16067 0.12793 0.3038 0.0
O32 O 0.95454 1.01202 0.13885 0.0
C33 C 0.12753 0.09906 0.2068 0.0
Co34 Co 0.06318 1.01511 0.83154 0.0
Co35 Co 0.05345 0.02122 0.75591 0.0
C36 C 0.12331 0.98851 0.79333 0.0
O37 O 0.1119 0.99666 0.82011 0.0
O38 O 0.10242 0.99431 0.76576 0.0
C39 C 0.04107 0.9715 0.88811 0.0
O40 O 0.0327 0.93672 0.86803 0.0
C41 C 0.06879 0.02961 0.68496 0.0
C42 C 1.01193 0.05268 0.66753 0.0
C43 C 0.04693 0.04086 0.65696 0.0
N44 N 0.0479 0.03511 0.71075 0.0
N45 N 1.01396 0.04885 0.69996 0.0
C46 C 0.10367 1.00913 0.68672 0.0
H47 H 0.08638 0.97896 0.70319 0.0
H48 H 0.15054 0.03906 0.69713 0.0
H49 H 0.10151 0.99424 0.6622 0.0
C50 C 0.11054 0.1197 0.83333 0.0
N51 N 0.08825 0.07616 0.81659 0.0
N52 N 0.08727 0.08104 0.78497 0.0
C53 C 0.11033 0.12912 0.78079 0.0
C54 C 0.12597 0.15519 0.81137 0.0
C55 C 0.11296 0.1257 0.86953 0.0
H56 H 0.07078 0.09413 0.87646 0.0
H57 H 0.14928 0.1251 0.88264 0.0
H58 H 0.12012 0.16076 0.87742 0.0
O59 O 0.98043 0.96428 0.81459 0.0
O60 O 0.96773 0.96901 0.76129 0.0
H61 H 0.07819 0.14409 0.73636 0.0
H62 H 0.15549 0.19099 0.75172 0.0
C63 C 0.11968 0.15037 0.74846 0.0
H64 H 0.13106 0.13176 0.73243 0.0
H65 H 0.99096 0.05454 0.71471 0.0
O66 O 0.06346 1.01444 0.87862 0.0
C67 C 0.9469 0.94971 0.78711 0.0
Co68 Co 0.68376 0.31674 0.51939 0.0
Co69 Co 0.71334 0.34885 0.59466 0.0
C70 C 0.65441 0.24242 0.56645 0.0
O71 O 0.65357 0.25439 0.53745 0.0
O72 O 0.67626 0.2743 0.5914 0.0
C73 C 0.69204 0.28497 0.46194 0.0
O74 O 0.70563 0.26252 0.48303 0.0
C75 C 0.69454 0.35226 0.66411 0.0
C76 C 0.77822 0.42461 0.68413 0.0
C77 C 0.72667 0.38392 0.69298 0.0
N78 N 0.7261 0.37343 0.63961 0.0
N79 N 0.77572 0.41688 0.65186 0.0
C80 C 0.63663 0.30168 0.6602 0.0
H81 H 0.62892 0.28059 0.63707 0.0
H82 H 0.60034 0.30563 0.65933 0.0
H83 H 0.63534 0.28086 0.68137 0.0
C84 C 0.62294 0.36284 0.51827 0.0
N85 N 0.65298 0.34779 0.53483 0.0
N86 N 0.66593 0.36324 0.56618 0.0
C87 C 0.6449 0.3898 0.57034 0.0
C88 C 0.61657 0.39004 0.54007 0.0
C89 C 0.60644 0.35544 0.48171 0.0
H90 H 0.6474 0.37496 0.47066 0.0
H91 H 0.58007 0.31526 0.47342 0.0
H92 H 0.58091 0.36977 0.47286 0.0
O93 O 0.76979 0.35993 0.52956 0.0
O94 O 0.7953 0.38637 0.58222 0.0
H95 H 0.70176 0.443 0.61158 0.0
H96 H 0.63256 0.43513 0.6 0.0
C97 C 0.65363 0.41575 0.60237 0.0
H98 H 0.63442 0.38819 0.62058 0.0
H99 H 0.80874 0.44086 0.6383 0.0
O100 O 0.671 0.3065 0.47168 0.0
C101 C 0.80939 0.38561 0.55434 0.0
Co102 Co 0.7724 0.40293 0.16448 0.0
Co103 Co 0.71652 0.37856 0.09016 0.0
C104 C 0.78293 0.33936 0.12107 0.0
O105 O 0.79271 0.36167 0.14852 0.0
O106 O 0.75397 0.3418 0.0957 0.0
C107 C 0.86054 0.43118 0.22037 0.0
O108 O 0.88394 0.41964 0.2004 0.0
C109 C 0.72001 0.38599 0.01894 0.0
C110 C 0.6266 0.3526 0.9989 0.0
C111 C 0.68118 0.37288 0.98964 0.0
N112 N 0.68962 0.37406 0.04406 0.0
N113 N 0.63387 0.35436 0.03184 0.0
C114 C 0.78392 0.40639 0.02317 0.0
H115 H 0.79845 0.40006 0.04763 0.0
H116 H 0.81108 0.44706 0.02137 0.0
H117 H 0.79156 0.38909 1.00364 0.0
C118 C 0.82305 0.50401 0.14975 0.0
N119 N 0.79443 0.45595 0.13934 0.0
N120 N 0.76903 0.44723 0.10857 0.0
C121 C 0.77956 0.49004 0.09875 0.0
C122 C 0.81388 0.52734 0.12478 0.0
C123 C 0.85516 0.52633 0.18397 0.0
H124 H 0.82265 0.51134 0.20108 0.0
H125 H 0.88548 0.51607 0.19113 0.0
H126 H 0.88171 0.56747 0.18617 0.0
O127 O 0.68631 0.3619 0.16526 0.0
O128 O 0.64513 0.34341 0.11272 0.0
H129 H 0.70256 0.46182 0.06266 0.0
H130 H 0.75614 0.52901 0.06672 0.0
C131 C 0.75043 0.49327 0.06698 0.0
H132 H 0.77024 0.48998 0.04673 0.0
H133 H 0.60046 0.34122 0.04596 0.0
O134 O 0.81374 0.42737 0.2098 0.0
C135 C 0.64053 0.34046 0.14308 0.0
Co136 Co 0.32566 0.64971 0.85507 0.0
Co137 Co 0.38435 0.68697 0.92866 0.0
C138 C 0.30881 0.5781 0.90285 0.0
O139 O 0.2989 0.5889 0.87466 0.0
O140 O 0.34209 0.6118 0.9267 0.0
C141 C 0.2498 0.58766 0.79584 0.0
O142 O 0.23386 0.55019 0.8134 0.0
C143 C 0.38803 0.69911 1.00051 0.0
C144 C 0.48194 0.76205 0.01638 0.0
C145 C 0.42976 0.72857 0.02824 0.0
N146 N 0.41465 0.7146 0.97382 0.0
N147 N 0.47066 0.7525 0.98357 0.0
C148 C 0.32496 0.65516 0.99935 0.0
H149 H 0.30751 0.63196 0.97563 0.0
H150 H 0.29769 0.66837 1.00178 0.0
H151 H 0.321 0.63258 0.01991 0.0
C152 C 0.284 0.7086 0.86537 0.0
N153 N 0.30933 0.68719 0.8776 0.0
N154 N 0.3356 0.7058 0.90804 0.0
C155 C 0.32905 0.74136 0.91577 0.0
C156 C 0.2965 0.74456 0.88871 0.0
C157 C 0.25148 0.69673 0.83102 0.0
H158 H 0.22093 0.65585 0.82496 0.0
H159 H 0.22538 0.71171 0.82784 0.0
H160 H 0.28377 0.71279 0.81376 0.0
O161 O 0.41157 0.68931 0.85364 0.0
O162 O 0.45446 0.71661 0.9056 0.0
H163 H 0.40823 0.79236 0.94984 0.0
H164 H 0.35498 0.80619 0.94602 0.0
C165 C 0.36042 0.77601 0.94652 0.0
H166 H 0.34256 0.75467 0.96777 0.0
H167 H 0.50162 0.77123 0.96786 0.0
O168 O 0.28621 0.63193 0.80928 0.0
C169 C 0.458 0.71413 0.87532 0.0
Co170 Co 0.43404 0.69095 0.49493 0.0
Co171 Co 0.38948 0.68373 0.42035 0.0
C172 C 0.4608 0.646 0.44612 0.0
O173 O 0.46719 0.66249 0.47511 0.0
O174 O 0.43026 0.64946 0.42215 0.0
C175 C 0.45563 0.66461 0.55521 0.0
O176 O 0.45035 0.63049 0.53605 0.0
C177 C 0.39368 0.69835 0.34888 0.0
C178 C 0.30516 0.68029 0.33285 0.0
C179 C 0.35541 0.69276 0.32121 0.0
N180 N 0.36678 0.68926 0.37535 0.0
N181 N 0.31417 0.67903 0.36546 0.0
C182 C 0.45314 0.7092 0.34997 0.0
H183 H 0.46684 0.6999 0.37335 0.0
H184 H 0.48634 0.74948 0.34814 0.0
H185 H 0.4525 0.68819 0.32898 0.0
C186 C 0.48074 0.79475 0.49225 0.0
N187 N 0.45533 0.74951 0.47712 0.0
N188 N 0.43685 0.74802 0.4459 0.0
C189 C 0.44968 0.79305 0.44034 0.0
C190 C 0.4775 0.82399 0.46974 0.0
C191 C 0.50555 0.80874 0.52806 0.0
H192 H 0.46852 0.79162 0.54227 0.0
H193 H 0.53132 0.79412 0.53535 0.0
H194 H 0.5347 0.84965 0.53413 0.0
O195 O 0.3473 0.64406 0.49018 0.0
O196 O 0.31314 0.64 0.43804 0.0
H197 H 0.38054 0.7775 0.40232 0.0
H198 H 0.4429 0.8426 0.40982 0.0
C199 C 0.42948 0.80403 0.40859 0.0
H200 H 0.44839 0.79836 0.38883 0.0
H201 H 0.28363 0.6699 0.38092 0.0
O202 O 0.45833 0.70026 0.54244 0.0
C203 C 0.30416 0.6277 0.46699 0.0
C204 C 0.23887 0.15057 0.22188 0.0
C205 C 0.1881 0.13233 0.19838 0.0
C206 C 0.29545 0.17967 0.21302 0.0
C207 C 0.30245 0.19112 0.18037 0.0
C208 C 0.25176 0.17394 0.15725 0.0
C209 C 0.19545 0.14483 0.16603 0.0
C210 C 0.36122 0.22119 0.16919 0.0
C211 C 0.41055 0.22822 0.18533 0.0
C212 C 0.46865 0.25737 0.17345 0.0
C213 C 0.52048 0.27773 0.19636 0.0
C214 C 0.57594 0.30473 0.18646 0.0
C215 C 0.58114 0.31164 0.15321 0.0
H216 H 0.43474 0.24748 0.12142 0.0
C217 C 0.52922 0.29071 0.1301 0.0
C218 C 0.47359 0.26384 0.14006 0.0
H219 H 0.53148 0.29496 0.10427 0.0
H220 H 0.23493 0.14196 0.24706 0.0
H221 H 0.33324 0.19331 0.23195 0.0
H222 H 0.25557 0.18243 0.13203 0.0
H223 H 0.15755 0.13179 0.14723 0.0
H224 H 0.36316 0.23727 0.14617 0.0
H225 H 0.40918 0.21266 0.20849 0.0
H226 H 0.51815 0.27301 0.22215 0.0
H227 H 0.6148 0.32 0.20501 0.0
C228 C 0.9623 0.1748 0.21909 0.0
C229 C 0.924 0.12724 0.22921 0.0
C230 C 0.94044 0.20067 0.2063 0.0
C231 C 0.87965 0.17921 0.20331 0.0
C232 C 0.84253 0.13339 0.21599 0.0
C233 C 0.86433 0.10735 0.22845 0.0
C234 C 0.85303 0.20264 0.18651 0.0
C235 C 0.87571 0.23319 0.16262 0.0
C236 C 0.84868 0.25636 0.14601 0.0
C237 C 0.88572 0.30366 0.13514 0.0
C238 C 0.86291 0.3292 0.1232 0.0
C239 C 0.80233 0.30725 0.12095 0.0
H240 H 0.75709 0.19601 0.14866 0.0
C241 C 0.76446 0.25842 0.12926 0.0
C242 C 0.78732 0.23309 0.14161 0.0
H243 H 0.7178 0.24125 0.12853 0.0
H244 H 1.00828 0.19035 0.21884 0.0
H245 H 0.97097 0.23668 0.19794 0.0
H246 H 0.79572 0.11625 0.21443 0.0
H247 H 0.83374 0.07019 0.23535 0.0
H248 H 0.81202 0.19276 0.1934 0.0
H249 H 0.91681 0.24336 0.1557 0.0
H250 H 0.93302 0.32224 0.13786 0.0
H251 H 0.8932 0.36738 0.11788 0.0
C252 C 0.80629 0.58736 0.15467 0.0
C253 C 0.82633 0.57681 0.12901 0.0
C254 C 0.82714 0.63608 0.1636 0.0
C255 C 0.86832 0.67534 0.14685 0.0
C256 C 0.88496 0.66415 0.11963 0.0
C257 C 0.86443 0.61529 0.11089 0.0
C258 C 0.89461 0.72816 0.15696 0.0
C259 C 0.90274 0.746 0.18817 0.0
C260 C 0.93101 0.79938 0.19836 0.0
C261 C 0.92095 0.81253 0.2277 0.0
C262 C 0.94396 0.86212 0.23672 0.0
C263 C 0.97733 0.89923 0.21642 0.0
H264 H 0.97975 0.82997 0.15769 0.0
C265 C 0.99024 0.88649 0.18825 0.0
C266 C 0.96798 0.83749 0.17947 0.0
H267 H 1.01672 0.91456 0.17239 0.0
H268 H 0.77617 0.55802 0.16872 0.0
H269 H 0.81129 0.64278 0.18379 0.0
H270 H 0.91585 0.69359 0.10592 0.0
H271 H 0.88048 0.608 0.09105 0.0
H272 H 0.9093 0.75314 0.13783 0.0
H273 H 0.8878 0.72067 0.20715 0.0
H274 H 0.89356 0.78413 0.2431 0.0
H275 H 0.93319 0.87092 0.25849 0.0
C276 C 0.19877 0.23697 0.84517 0.0
C277 C 0.15085 0.20799 0.81948 0.0
C278 C 0.2174 0.28448 0.85607 0.0
C279 C 0.18843 0.30411 0.84137 0.0
C280 C 0.14251 0.27596 0.81452 0.0
C281 C 0.12377 0.22836 0.80373 0.0
C282 C 0.20454 0.35358 0.85283 0.0
C283 C 0.2355 0.37864 0.8826 0.0
C284 C 0.24955 0.42781 0.89265 0.0
C285 C 0.30244 0.46327 0.914 0.0
C286 C 0.31992 0.51185 0.92034 0.0
C287 C 0.2844 0.52539 0.90553 0.0
H288 H 0.16922 0.41355 0.86535 0.0
C289 C 0.2291 0.48864 0.88671 0.0
C290 C 0.21167 0.44041 0.8805 0.0
H291 H 0.20055 0.49798 0.87525 0.0
H292 H 0.22107 0.22236 0.85734 0.0
H293 H 0.25431 0.30536 0.87598 0.0
H294 H 0.1198 0.29026 0.80238 0.0
H295 H 0.08661 0.20676 0.78395 0.0
H296 H 0.18895 0.36963 0.83577 0.0
H297 H 0.25279 0.36402 0.89978 0.0
H298 H 0.33191 0.45425 0.92424 0.0
H299 H 0.36298 0.53955 0.93469 0.0
C300 C 0.52134 0.73773 0.83149 0.0
C301 C 0.51696 0.74078 0.8648 0.0
C302 C 0.57668 0.76268 0.82141 0.0
C303 C 0.62919 0.7916 0.84443 0.0
C304 C 0.62469 0.79448 0.87768 0.0
C305 C 0.56941 0.76955 0.88776 0.0
C306 C 0.68938 0.81769 0.83535 0.0
C307 C 0.70191 0.82703 0.80459 0.0
C308 C 0.76345 0.85375 0.79742 0.0
C309 C 0.78047 0.88288 0.77078 0.0
C310 C 0.83967 0.91197 0.76564 0.0
C311 C 0.88262 0.91214 0.78706 0.0
H312 H 0.79405 0.82737 0.8369 0.0
C313 C 0.8645 0.88018 0.81216 0.0
C314 C 0.80577 0.85115 0.81715 0.0
H315 H 0.89635 0.87879 0.82879 0.0
H316 H 0.48191 0.71572 0.81308 0.0
H317 H 0.57774 0.75831 0.7957 0.0
H318 H 0.66424 0.81616 0.89607 0.0
H319 H 0.56789 0.77281 0.91358 0.0
H320 H 0.72566 0.83147 0.85555 0.0
H321 H 0.66735 0.81771 0.78439 0.0
H322 H 0.74852 0.88486 0.75479 0.0
H323 H 0.85232 0.93628 0.74614 0.0
C324 C 0.20079 0.98421 0.82463 0.0
C325 C 0.15945 0.96974 0.79589 0.0
C326 C 0.22573 0.95919 0.83212 0.0
C327 C 0.20971 0.9187 0.81113 0.0
C328 C 0.1723 0.90683 0.78099 0.0
C329 C 0.14709 0.93207 0.77343 0.0
C330 C 0.23055 0.88799 0.8207 0.0
C331 C 0.23973 0.88002 0.85225 0.0
C332 C 0.25837 0.84807 0.86262 0.0
C333 C 0.24225 0.82407 0.89142 0.0
C334 C 0.25689 0.79199 0.90102 0.0
C335 C 0.28856 0.78394 0.88218 0.0
H336 H 0.3079 0.8611 0.82322 0.0
C337 C 0.30778 0.81026 0.85456 0.0
C338 C 0.29268 0.84179 0.84477 0.0
H339 H 0.33331 0.80539 0.83996 0.0
H340 H 0.21199 1.01372 0.8422 0.0
H341 H 0.25647 0.97094 0.85481 0.0
H342 H 0.16014 0.87633 0.76407 0.0
H343 H 0.11528 0.92006 0.75117 0.0
H344 H 0.23436 0.86887 0.80119 0.0
H345 H 0.22975 0.89505 0.87124 0.0
H346 H 0.21662 0.82891 0.90595 0.0
H347 H 0.24161 0.77211 0.92239 0.0
C348 C 0.88527 0.40556 0.5199 0.0
C349 C 0.87218 0.41491 0.54938 0.0
C350 C 0.94314 0.43397 0.51344 0.0
C351 C 0.9899 0.47322 0.53611 0.0
C352 C 0.97729 0.48171 0.56607 0.0
C353 C 0.91901 0.45292 0.57266 0.0
C354 C 0.05215 0.50472 0.52954 0.0
C355 C 0.06608 0.51044 0.49899 0.0
C356 C 0.12772 0.54043 0.49154 0.0
C357 C 0.13684 0.55382 0.45947 0.0
C358 C 0.19375 0.58139 0.45119 0.0
C359 C 0.24303 0.59607 0.4748 0.0
H360 H 0.17214 0.54361 0.53968 0.0
C361 C 0.23377 0.58188 0.50675 0.0
C362 C 0.17696 0.55432 0.515 0.0
H363 H 0.27057 0.59217 0.5256 0.0
H364 H 0.85061 0.37603 0.50154 0.0
H365 H 0.95076 0.42443 0.49072 0.0
H366 H 1.01252 0.51119 0.58425 0.0
H367 H 0.91053 0.461 0.59563 0.0
H368 H 0.08709 0.52497 0.55059 0.0
H369 H 0.0307 0.49364 0.47801 0.0
H370 H 0.09977 0.54323 0.44073 0.0
H371 H 0.19912 0.59163 0.42639 0.0
C372 C 0.62896 0.4696 0.53188 0.0
C373 C 0.59167 0.41761 0.5311 0.0
C374 C 0.6071 0.49493 0.5178 0.0
C375 C 0.54738 0.46855 0.50271 0.0
C376 C 0.5097 0.41673 0.50351 0.0
C377 C 0.53173 0.39147 0.51725 0.0
C378 C 0.52239 0.49363 0.4866 0.0
C379 C 0.55484 0.53706 0.4732 0.0
C380 C 0.53062 0.56388 0.45945 0.0
C381 C 0.56887 0.61601 0.46138 0.0
C382 C 0.54665 0.64315 0.45338 0.0
C383 C 0.48594 0.61874 0.44234 0.0
H384 H 0.43987 0.49915 0.44312 0.0
C385 C 0.44832 0.56661 0.43751 0.0
C386 C 0.47041 0.53931 0.44601 0.0
H387 H 0.40112 0.54695 0.4297 0.0
H388 H 0.67548 0.49042 0.54226 0.0
H389 H 0.63714 0.53501 0.51874 0.0
H390 H 0.46342 0.39549 0.49253 0.0
H391 H 0.50233 0.35128 0.51615 0.0
H392 H 0.47531 0.47513 0.48569 0.0
H393 H 0.60192 0.55553 0.47414 0.0
H394 H 0.61549 0.63596 0.47124 0.0
H395 H 0.57629 0.68332 0.45798 0.0
C396 C 0.46932 0.88119 0.50295 0.0
C397 C 0.49255 0.87382 0.47761 0.0
C398 C 0.49018 0.92908 0.51449 0.0
C399 C 0.53506 0.9709 0.50088 0.0
C400 C 0.55589 0.96302 0.4743 0.0
C401 C 0.53492 0.91499 0.46279 0.0
C402 C 0.56259 0.02319 0.51381 0.0
C403 C 0.55319 0.03687 0.54164 0.0
C404 C 0.58374 0.09001 0.55342 0.0
C405 C 0.55416 0.10396 0.56955 0.0
C406 C 0.57963 0.15439 0.57724 0.0
C407 C 0.6355 0.19135 0.56947 0.0
H408 H 0.66674 0.11789 0.53692 0.0
C409 C 0.66692 0.17726 0.55582 0.0
C410 C 0.64158 0.1272 0.54806 0.0
H411 H 0.70985 0.20523 0.54925 0.0
H412 H 0.43609 0.8498 0.51455 0.0
H413 H 0.47141 0.93268 0.53433 0.0
H414 H 0.58998 0.9943 0.46303 0.0
H415 H 0.55367 0.91023 0.44332 0.0
H416 H 0.59316 0.05217 0.49961 0.0
H417 H 0.52118 1.00917 0.55577 0.0
H418 H 0.50989 0.07598 0.57442 0.0
H419 H 0.55407 0.16445 0.58708 0.0
C420 C 1.00701 0.02284 0.59696 0.0
C421 C 0.05464 0.03891 0.62229 0.0
C422 C 1.01388 0.02342 0.56406 0.0
C423 C 0.06914 0.04104 0.55555 0.0
C424 C 0.11652 0.05637 0.58097 0.0
C425 C 0.1095 0.05556 0.61394 0.0
C426 C 0.07924 0.04382 0.52073 0.0
C427 C 0.04359 0.04326 0.49515 0.0
C428 C 0.05413 0.04781 0.46039 0.0
C429 C 1.00747 0.0354 0.43536 0.0
C430 C 1.01567 0.04131 0.40258 0.0
C431 C 0.07091 0.05983 0.39389 0.0
H432 H 0.14735 0.07786 0.46994 0.0
C433 C 0.11771 0.07242 0.41887 0.0
C434 C 0.10954 0.06646 0.45166 0.0
H435 H 0.16108 0.08733 0.4131 0.0
H436 H 0.96404 1.00953 0.60259 0.0
H437 H 0.97543 1.0096 0.54561 0.0
H438 H 0.15959 0.07 0.57532 0.0
H439 H 0.14747 0.06933 0.63284 0.0
H440 H 0.11849 0.04756 0.51647 0.0
H441 H 1.00454 0.03976 0.49951 0.0
H442 H 0.96449 0.02164 0.44123 0.0
H443 H 0.97917 0.03296 0.38436 0.0
C444 C 0.64765 0.33961 0.93038 0.0
C445 C 0.69213 0.3763 0.95519 0.0
C446 C 0.65643 0.34258 0.89768 0.0
C447 C 0.70982 0.38294 0.88881 0.0
C448 C 0.75418 0.41959 0.91371 0.0
C449 C 0.74544 0.41645 0.94642 0.0
C450 C 0.72198 0.38813 0.85433 0.0
C451 C 0.6806 0.36124 0.82738 0.0
C452 C 0.69356 0.36713 0.79305 0.0
C453 C 0.64642 0.34772 0.7667 0.0
C454 C 0.65649 0.35246 0.73416 0.0
C455 C 0.71405 0.37648 0.72715 0.0
H456 H 0.78869 0.40471 0.80505 0.0
C457 C 0.76112 0.39552 0.75343 0.0
C458 C 0.75109 0.39057 0.78589 0.0
H459 H 0.80601 0.41393 0.7489 0.0
H460 H 0.60604 0.30809 0.93632 0.0
H461 H 0.62134 0.31275 0.87977 0.0
H462 H 0.79579 0.45119 0.90782 0.0
H463 H 0.78001 0.44619 0.96459 0.0
H464 H 0.76723 0.41695 0.85126 0.0
H465 H 0.63456 0.33485 0.83007 0.0
H466 H 0.60157 0.32933 0.77129 0.0
H467 H 0.61934 0.33846 0.71469 0.0
C468 C 0.41572 0.72821 0.27526 0.0
C469 C 0.36135 0.69433 0.28592 0.0
C470 C 0.4193 0.73002 0.24169 0.0
C471 C 0.36843 0.69771 0.21796 0.0
C472 C 0.31423 0.66417 0.22882 0.0
C473 C 0.31069 0.66255 0.26222 0.0
C474 C 0.36876 0.69841 0.18179 0.0
C475 C 0.41806 0.72119 0.16787 0.0
C476 C 0.41806 0.72123 0.13167 0.0
C477 C 0.47003 0.73559 0.12033 0.0
C478 C 0.47315 0.7374 0.08687 0.0
C479 C 0.42426 0.72471 0.06361 0.0
H480 H 0.32882 0.69949 0.11583 0.0
C481 C 0.37229 0.71077 0.07479 0.0
C482 C 0.36917 0.70911 0.10839 0.0
H483 H 0.33455 0.70262 0.05779 0.0
H484 H 0.45524 0.75447 0.29266 0.0
H485 H 0.46176 0.75762 0.23469 0.0
H486 H 0.27415 0.639 0.21135 0.0
H487 H 0.26797 0.63608 0.2695 0.0
H488 H 0.32584 0.67745 0.1661 0.0
H489 H 0.46078 0.73932 0.18346 0.0
H490 H 0.50863 0.74555 0.13747 0.0
H491 H 0.51406 0.7486 0.07919 0.0
C492 C 0.85101 0.90563 0.08293 0.0
C493 C 0.87847 0.95456 0.0961 0.0
C494 C 0.84133 0.89481 0.04908 0.0
C495 C 0.85836 0.93279 0.0283 0.0
C496 C 0.87787 0.97976 0.04129 0.0
C497 C 0.88867 0.99083 0.07508 0.0
C498 C 0.86879 0.92849 0.99499 0.0
C499 C 0.8979 0.90949 0.98955 0.0
C500 C 0.93491 0.9256 0.96362 0.0
C501 C 0.94406 0.8932 0.94952 0.0
C502 C 0.98095 0.90878 0.9259 0.0
C503 C 1.01014 0.95739 0.91657 0.0
H504 H 0.96228 1.00153 0.96692 0.0
C505 C 1.0033 0.99054 0.93202 0.0
C506 C 0.96601 0.97481 0.95526 0.0
H507 H 1.02539 0.02832 0.92553 0.0
H508 H 0.84221 0.87694 0.09875 0.0
H509 H 0.82494 0.85795 0.03944 0.0
H510 H 0.89076 1.00942 0.02561 0.0
H511 H 0.90891 0.02862 0.08481 0.0
H512 H 0.86585 0.9514 0.97743 0.0
H513 H 0.90133 0.88661 1.00692 0.0
H514 H 0.92187 0.85558 0.95636 0.0
H515 H 0.98553 0.88243 0.91445 0.0
C516 C 0.89986 0.41185 0.27032 0.0
C517 C 0.88018 0.43855 0.25586 0.0
C518 C 0.90021 0.40594 0.30373 0.0
C519 C 0.88159 0.42727 0.32284 0.0
C520 C 0.87031 0.45972 0.30923 0.0
C521 C 0.86885 0.46485 0.27578 0.0
C522 C 0.86245 0.40941 0.35445 0.0
C523 C 0.82967 0.36054 0.35827 0.0
C524 C 0.79122 0.33933 0.38351 0.0
C525 C 0.78085 0.29731 0.39757 0.0
C526 C 0.74522 0.27737 0.42184 0.0
C527 C 0.71855 0.29866 0.43187 0.0
H528 H 0.76656 0.38969 0.3805 0.0
C529 C 0.72558 0.33851 0.41602 0.0
C530 C 0.76171 0.35875 0.39213 0.0
H531 H 0.70538 0.3556 0.42304 0.0
H532 H 0.90935 0.39161 0.25541 0.0
H533 H 0.91067 0.38178 0.314 0.0
H534 H 0.85656 0.47699 0.32368 0.0
H535 H 0.85446 0.48629 0.26511 0.0
H536 H 0.86488 0.43493 0.37202 0.0
H537 H 0.82663 0.33457 0.34084 0.0
H538 H 0.80185 0.28093 0.39055 0.0
H539 H 0.74031 0.24644 0.43353 0.0
C540 C 0.42362 0.68021 0.60377 0.0
C541 C 0.43808 0.65274 0.58779 0.0
C542 C 0.39175 0.66159 0.62955 0.0
C543 C 0.37422 0.61539 0.63994 0.0
C544 C 0.39396 0.59053 0.62635 0.0
C545 C 0.42536 0.60887 0.60025 0.0
C546 C 0.33568 0.59292 0.66503 0.0
C547 C 0.29212 0.59761 0.66678 0.0
C548 C 0.26312 0.5854 0.69593 0.0
C549 C 0.25599 0.61952 0.70939 0.0
C550 C 0.24516 0.61727 0.74143 0.0
C551 C 0.24009 0.58018 0.75998 0.0
H552 H 0.25404 0.51705 0.70257 0.0
C553 C 0.23872 0.54195 0.74486 0.0
C554 C 0.25062 0.54473 0.71298 0.0
H555 H 0.23442 0.51272 0.75861 0.0
H556 H 0.43358 0.71455 0.59511 0.0
H557 H 0.37962 0.68281 0.64078 0.0
H558 H 0.38233 0.55556 0.63474 0.0
H559 H 0.43661 0.58722 0.58867 0.0
H560 H 0.34462 0.5734 0.68286 0.0
H561 H 0.28368 0.61735 0.64888 0.0
H562 H 0.26455 0.65071 0.69637 0.0
H563 H 0.24561 0.64678 0.75255 0.0
loop_
_geom_bond_atom_site_label_1
_geom_bond_atom_site_label_2
_geom_bond_distance
_geom_bond_site_symmetry_2
_ccdc_geom_bond_type
Co0 O3 1.970 1_455 S
Co0 N17 1.989 1_465 S
Co0 O25 1.967 1_565 S
Co0 O32 1.920 1_565 S
Co1 O4 1.972 1_445 S
Co1 N10 2.022 . S
Co1 N18 1.993 1_455 S
Co1 O26 1.941 . S
C2 O3 1.258 . S
C2 O4 1.262 . S
O3 Co0 1.970 1_655 S
O3 C2 1.258 . S
O4 Co1 1.972 1_665 S
O4 C2 1.262 . S
C5 O6 1.235 . S
C5 O32 1.289 1_665 S
O6 C5 1.235 . S
C7 C9 1.400 1_565 S
C7 N10 1.351 1_665 S
C7 C12 1.501 . S
C8 C9 1.387 1_455 S
C8 N11 1.341 . S
C9 C7 1.400 1_545 S
C9 C8 1.387 1_655 S
N10 Co1 2.022 . S
N10 C7 1.351 1_445 S
N10 N11 1.365 . S
N11 C8 1.341 . S
N11 N10 1.365 . S
N11 H31 0.862 . S
C12 C7 1.501 . S
C12 H13 0.961 . S
C12 H14 0.961 . S
C12 H15 0.960 . S
H13 C12 0.961 . S
H14 C12 0.961 . S
H15 C12 0.960 . S
C16 N17 1.342 . S
C16 C20 1.401 . S
C16 C21 1.499 . S
N17 Co0 1.989 1_645 S
N17 C16 1.342 . S
N17 N18 1.388 . S
N18 Co1 1.993 1_655 S
N18 N17 1.388 . S
N18 C19 1.346 . S
C19 N18 1.346 . S
C19 C20 1.396 . S
C19 C29 1.510 . S
C20 C16 1.401 . S
C20 C19 1.396 . S
C21 C16 1.499 . S
C21 H22 0.959 . S
C21 H23 0.960 . S
C21 H24 0.961 . S
H22 C21 0.959 . S
H23 C21 0.960 . S
H24 C21 0.961 . S
O25 Co0 1.967 1_545 S
O25 C33 1.258 . S
O26 Co1 1.941 . S
O26 C33 1.266 . S
H27 C29 0.959 . S
H28 C29 0.961 . S
C29 C19 1.510 . S
C29 H27 0.959 . S
C29 H28 0.961 . S
C29 H30 0.960 . S
H30 C29 0.960 . S
H31 N11 0.862 . S
O32 Co0 1.920 1_545 S
O32 C5 1.289 1_445 S
C33 O25 1.258 . S
C33 O26 1.266 . S
Co34 O37 1.970 1_545 S
Co34 N51 1.989 . S
Co34 O59 1.967 1_445 S
Co34 O66 1.920 . S
Co35 O38 1.966 . S
Co35 N44 2.023 . S
Co35 N52 1.993 1_565 S
Co35 O60 1.941 1_455 S
C36 O37 1.258 . S
C36 O38 1.263 . S
O37 Co34 1.970 1_565 S
O37 C36 1.258 . S
O38 Co35 1.966 . S
O38 C36 1.263 . S
C39 O40 1.235 . S
C39 O66 1.289 . S
O40 C39 1.235 . S
C41 C43 1.400 . S
C41 N44 1.358 1_545 S
C41 C46 1.501 1_545 S
C42 C43 1.387 1_655 S
C42 N45 1.341 . S
C43 C41 1.400 . S
C43 C42 1.387 1_455 S
N44 Co35 2.023 . S
N44 C41 1.358 1_565 S
N44 N45 1.353 1_465 S
N45 C42 1.341 . S
N45 N44 1.353 1_645 S
N45 H65 0.862 . S
C46 C41 1.501 1_565 S
C46 H47 0.961 . S
C46 H48 0.961 1_565 S
C46 H49 0.960 . S
H47 C46 0.961 . S
H48 C46 0.961 1_545 S
H49 C46 0.960 . S
C50 N51 1.342 . S
C50 C54 1.401 . S
C50 C55 1.499 . S
N51 Co34 1.989 . S
N51 C50 1.342 . S
N51 N52 1.388 . S
N52 Co35 1.993 1_545 S
N52 N51 1.388 . S
N52 C53 1.346 . S
C53 N52 1.346 . S
C53 C54 1.396 . S
C53 C63 1.510 . S
C54 C50 1.401 . S
C54 C53 1.396 . S
C55 C50 1.499 . S
C55 H56 0.959 . S
C55 H57 0.960 . S
C55 H58 0.961 . S
H56 C55 0.959 . S
H57 C55 0.960 . S
H58 C55 0.961 . S
O59 Co34 1.967 1_665 S
O59 C67 1.258 . S
O60 Co35 1.941 1_655 S
O60 C67 1.266 . S
H61 C63 0.959 . S
H62 C63 0.961 . S
C63 C53 1.510 . S
C63 H61 0.959 . S
C63 H62 0.961 . S
C63 H64 0.960 . S
H64 C63 0.960 . S
H65 N45 0.862 . S
O66 Co34 1.920 . S
O66 C39 1.289 . S
C67 O59 1.258 . S
C67 O60 1.266 . S
Co68 O71 1.970 . S
Co68 N85 1.989 . S
Co68 O93 1.967 . S
Co68 O100 1.920 . S
Co69 O72 1.966 . S
Co69 N78 2.022 . S
Co69 N86 1.993 . S
Co69 O94 1.941 . S
C70 O71 1.258 . S
C70 O72 1.263 . S
O71 Co68 1.970 . S
O71 C70 1.258 . S
O72 Co69 1.966 . S
O72 C70 1.263 . S
C73 O74 1.235 . S
C73 O100 1.289 . S
O74 C73 1.235 . S
C75 C77 1.400 . S
C75 N78 1.351 . S
C75 C80 1.501 . S
C76 C77 1.387 . S
C76 N79 1.341 . S
C77 C75 1.400 . S
C77 C76 1.387 . S
N78 Co69 2.022 . S
N78 C75 1.351 . S
N78 N79 1.365 . S
N79 C76 1.341 . S
N79 N78 1.365 . S
N79 H99 0.862 . S
C80 C75 1.501 . S
C80 H81 0.961 . S
C80 H82 0.961 . S
C80 H83 0.960 . S
H81 C80 0.961 . S
H82 C80 0.961 . S
H83 C80 0.960 . S
C84 N85 1.342 . S
C84 C88 1.401 . S
C84 C89 1.499 . S
N85 Co68 1.989 . S
N85 C84 1.342 . S
N85 N86 1.388 . S
N86 Co69 1.993 . S
N86 N85 1.388 . S
N86 C87 1.346 . S
C87 N86 1.346 . S
C87 C88 1.396 . S
C87 C97 1.510 . S
C88 C84 1.401 . S
C88 C87 1.396 . S
C89 C84 1.499 . S
C89 H90 0.959 . S
C89 H91 0.960 . S
C89 H92 0.961 . S
H90 C89 0.959 . S
H91 C89 0.960 . S
H92 C89 0.961 . S
O93 Co68 1.967 . S
O93 C101 1.258 . S
O94 Co69 1.941 . S
O94 C101 1.266 . S
H95 C97 0.959 . S
H96 C97 0.961 . S
C97 C87 1.510 . S
C97 H95 0.959 . S
C97 H96 0.961 . S
C97 H98 0.960 . S
H98 C97 0.960 . S
H99 N79 0.862 . S
O100 Co68 1.920 . S
O100 C73 1.289 . S
C101 O93 1.258 . S
C101 O94 1.266 . S
Co102 O105 1.970 . S
Co102 N119 1.989 . S
Co102 O127 1.967 . S
Co102 O134 1.920 . S
Co103 O106 1.966 . S
Co103 N112 2.022 . S
Co103 N120 1.993 . S
Co103 O128 1.941 . S
C104 O105 1.258 . S
C104 O106 1.263 . S
O105 Co102 1.970 . S
O105 C104 1.258 . S
O106 Co103 1.966 . S
O106 C104 1.263 . S
C107 O108 1.235 . S
C107 O134 1.289 . S
O108 C107 1.235 . S
C109 C111 1.400 1_554 S
C109 N112 1.351 . S
C109 C114 1.501 . S
C110 C111 1.387 . S
C110 N113 1.341 1_556 S
C111 C109 1.400 1_556 S
C111 C110 1.387 . S
N112 Co103 2.022 . S
N112 C109 1.351 . S
N112 N113 1.365 . S
N113 C110 1.341 1_554 S
N113 N112 1.365 . S
N113 H133 0.862 . S
C114 C109 1.501 . S
C114 H115 0.961 . S
C114 H116 0.961 . S
C114 H117 0.960 . S
H115 C114 0.961 . S
H116 C114 0.961 . S
H117 C114 0.960 . S
C118 N119 1.342 . S
C118 C122 1.401 . S
C118 C123 1.499 . S
N119 Co102 1.989 . S
N119 C118 1.342 . S
N119 N120 1.388 . S
N120 Co103 1.993 . S
N120 N119 1.388 . S
N120 C121 1.346 . S
C121 N120 1.346 . S
C121 C122 1.396 . S
C121 C131 1.510 . S
C122 C118 1.401 . S
C122 C121 1.396 . S
C123 C118 1.499 . S
C123 H124 0.959 . S
C123 H125 0.960 . S
C123 H126 0.961 . S
H124 C123 0.959 . S
H125 C123 0.960 . S
H126 C123 0.961 . S
O127 Co102 1.967 . S
O127 C135 1.258 . S
O128 Co103 1.941 . S
O128 C135 1.266 . S
H129 C131 0.959 . S
H130 C131 0.961 . S
C131 C121 1.510 . S
C131 H129 0.959 . S
C131 H130 0.961 . S
C131 H132 0.960 . S
H132 C131 0.960 . S
H133 N113 0.862 . S
O134 Co102 1.920 . S
O134 C107 1.289 . S
C135 O127 1.258 . S
C135 O128 1.266 . S
Co136 O139 1.970 . S
Co136 N153 1.989 . S
Co136 O161 1.967 . S
Co136 O168 1.920 . S
Co137 O140 1.966 . S
Co137 N146 2.022 . S
Co137 N154 1.993 . S
Co137 O162 1.941 . S
C138 O139 1.258 . S
C138 O140 1.263 . S
O139 Co136 1.970 . S
O139 C138 1.258 . S
O140 Co137 1.966 . S
O140 C138 1.263 . S
C141 O142 1.235 . S
C141 O168 1.289 . S
O142 C141 1.235 . S
C143 C145 1.400 1_556 S
C143 N146 1.351 . S
C143 C148 1.501 . S
C144 C145 1.387 . S
C144 N147 1.341 1_554 S
C145 C143 1.400 1_554 S
C145 C144 1.387 . S
N146 Co137 2.022 . S
N146 C143 1.351 . S
N146 N147 1.365 . S
N147 C144 1.341 1_556 S
N147 N146 1.365 . S
N147 H167 0.862 . S
C148 C143 1.501 . S
C148 H149 0.961 . S
C148 H150 0.961 . S
C148 H151 0.960 . S
H149 C148 0.961 . S
H150 C148 0.961 . S
H151 C148 0.960 . S
C152 N153 1.342 . S
C152 C156 1.401 . S
C152 C157 1.499 . S
N153 Co136 1.989 . S
N153 C152 1.342 . S
N153 N154 1.388 . S
N154 Co137 1.993 . S
N154 N153 1.388 . S
N154 C155 1.346 . S
C155 N154 1.346 . S
C155 C156 1.396 . S
C155 C165 1.510 . S
C156 C152 1.401 . S
C156 C155 1.396 . S
C157 C152 1.499 . S
C157 H158 0.959 . S
C157 H159 0.960 . S
C157 H160 0.961 . S
H158 C157 0.959 . S
H159 C157 0.960 . S
H160 C157 0.961 . S
O161 Co136 1.967 . S
O161 C169 1.258 . S
O162 Co137 1.941 . S
O162 C169 1.266 . S
H163 C165 0.959 . S
H164 C165 0.961 . S
C165 C155 1.510 . S
C165 H163 0.959 . S
C165 H164 0.961 . S
C165 H166 0.960 . S
H166 C165 0.960 . S
H167 N147 0.862 . S
O168 Co136 1.920 . S
O168 C141 1.289 . S
C169 O161 1.258 . S
C169 O162 1.266 . S
Co170 O173 1.970 . S
Co170 N187 1.989 . S
Co170 O195 1.967 . S
Co170 O202 1.920 . S
Co171 O174 1.966 . S
Co171 N180 2.022 . S
Co171 N188 1.993 . S
Co171 O196 1.941 . S
C172 O173 1.258 . S
C172 O174 1.263 . S
O173 Co170 1.970 . S
O173 C172 1.258 . S
O174 Co171 1.966 . S
O174 C172 1.263 . S
C175 O176 1.235 . S
C175 O202 1.289 . S
O176 C175 1.235 . S
C177 C179 1.400 . S
C177 N180 1.351 . S
C177 C182 1.501 . S
C178 C179 1.387 . S
C178 N181 1.341 . S
C179 C177 1.400 . S
C179 C178 1.387 . S
N180 Co171 2.022 . S
N180 C177 1.351 . S
N180 N181 1.365 . S
N181 C178 1.341 . S
N181 N180 1.365 . S
N181 H201 0.862 . S
C182 C177 1.501 . S
C182 H183 0.961 . S
C182 H184 0.961 . S
C182 H185 0.960 . S
H183 C182 0.961 . S
H184 C182 0.961 . S
H185 C182 0.960 . S
C186 N187 1.342 . S
C186 C190 1.401 . S
C186 C191 1.499 . S
N187 Co170 1.989 . S
N187 C186 1.342 . S
N187 N188 1.388 . S
N188 Co171 1.993 . S
N188 N187 1.388 . S
N188 C189 1.346 . S
C189 N188 1.346 . S
C189 C190 1.396 . S
C189 C199 1.510 . S
C190 C186 1.401 . S
C190 C189 1.396 . S
C191 C186 1.499 . S
C191 H192 0.959 . S
C191 H193 0.960 . S
C191 H194 0.961 . S
H192 C191 0.959 . S
H193 C191 0.960 . S
H194 C191 0.961 . S
O195 Co170 1.967 . S
O195 C203 1.258 . S
O196 Co171 1.941 . S
O196 C203 1.266 . S
H197 C199 0.959 . S
H198 C199 0.961 . S
C199 C189 1.510 . S
C199 H197 0.959 . S
C199 H198 0.961 . S
C199 H200 0.960 . S
H200 C199 0.960 . S
H201 N181 0.862 . S
O202 Co170 1.920 . S
O202 C175 1.289 . S
C203 O195 1.258 . S
C203 O196 1.266 . S
C204 C205 1.386 . S
C204 C206 1.383 . S
C204 H220 0.951 . S
C205 C204 1.386 . S
C205 C209 1.383 . S
C206 C204 1.383 . S
C206 C207 1.402 . S
C206 H221 0.951 . S
C207 C206 1.402 . S
C207 C208 1.375 . S
C207 C210 1.481 . S
C208 C207 1.375 . S
C208 C209 1.367 . S
C208 H222 0.951 . S
C209 C205 1.383 . S
C209 C208 1.367 . S
C209 H223 0.950 . S
C210 C207 1.481 . S
C210 C211 1.297 . S
C210 H224 0.950 . S
C211 C210 1.297 . S
C211 C212 1.479 . S
C211 H225 0.950 . S
C212 C211 1.479 . S
C212 C213 1.375 . S
C212 C218 1.404 . S
C213 C212 1.375 . S
C213 C214 1.369 . S
C213 H226 0.950 . S
C214 C213 1.369 . S
C214 C215 1.392 . S
C214 H227 0.951 . S
C215 C214 1.392 . S
C215 C217 1.384 . S
H216 C218 0.949 . S
C217 C215 1.384 . S
C217 C218 1.385 . S
C217 H219 0.950 . S
C218 C212 1.404 . S
C218 H216 0.949 . S
C218 C217 1.385 . S
H219 C217 0.950 . S
H220 C204 0.951 . S
H221 C206 0.951 . S
H222 C208 0.951 . S
H223 C209 0.950 . S
H224 C210 0.950 . S
H225 C211 0.950 . S
H226 C213 0.950 . S
H227 C214 0.951 . S
C228 C229 1.386 . S
C228 C230 1.383 . S
C228 H244 0.951 . S
C229 C228 1.386 . S
C229 C233 1.383 . S
C230 C228 1.383 . S
C230 C231 1.402 . S
C230 H245 0.951 . S
C231 C230 1.402 . S
C231 C232 1.375 . S
C231 C234 1.481 . S
C232 C231 1.375 . S
C232 C233 1.367 . S
C232 H246 0.951 . S
C233 C229 1.383 . S
C233 C232 1.367 . S
C233 H247 0.950 . S
C234 C231 1.481 . S
C234 C235 1.297 . S
C234 H248 0.950 . S
C235 C234 1.297 . S
C235 C236 1.479 . S
C235 H249 0.950 . S
C236 C235 1.479 . S
C236 C237 1.375 . S
C236 C242 1.404 . S
C237 C236 1.375 . S
C237 C238 1.369 . S
C237 H250 0.950 . S
C238 C237 1.369 . S
C238 C239 1.392 . S
C238 H251 0.951 . S
C239 C238 1.392 . S
C239 C241 1.384 . S
H240 C242 0.949 . S
C241 C239 1.384 . S
C241 C242 1.385 . S
C241 H243 0.950 . S
C242 C236 1.404 . S
C242 H240 0.949 . S
C242 C241 1.385 . S
H243 C241 0.950 . S
H244 C228 0.951 . S
H245 C230 0.951 . S
H246 C232 0.951 . S
H247 C233 0.950 . S
H248 C234 0.950 . S
H249 C235 0.950 . S
H250 C237 0.950 . S
H251 C238 0.951 . S
C252 C253 1.386 . S
C252 C254 1.383 . S
C252 H268 0.951 . S
C253 C252 1.386 . S
C253 C257 1.383 . S
C254 C252 1.383 . S
C254 C255 1.402 . S
C254 H269 0.951 . S
C255 C254 1.402 . S
C255 C256 1.375 . S
C255 C258 1.481 . S
C256 C255 1.375 . S
C256 C257 1.367 . S
C256 H270 0.951 . S
C257 C253 1.383 . S
C257 C256 1.367 . S
C257 H271 0.950 . S
C258 C255 1.481 . S
C258 C259 1.297 . S
C258 H272 0.950 . S
C259 C258 1.297 . S
C259 C260 1.479 . S
C259 H273 0.950 . S
C260 C259 1.479 . S
C260 C261 1.375 . S
C260 C266 1.404 . S
C261 C260 1.375 . S
C261 C262 1.369 . S
C261 H274 0.950 . S
C262 C261 1.369 . S
C262 C263 1.392 . S
C262 H275 0.951 . S
C263 C262 1.392 . S
C263 C265 1.384 . S
H264 C266 0.949 . S
C265 C263 1.384 . S
C265 C266 1.385 . S
C265 H267 0.950 1_655 S
C266 C260 1.404 . S
C266 H264 0.949 . S
C266 C265 1.385 . S
H267 C265 0.950 1_455 S
H268 C252 0.951 . S
H269 C254 0.951 . S
H270 C256 0.951 . S
H271 C257 0.950 . S
H272 C258 0.950 . S
H273 C259 0.950 . S
H274 C261 0.950 . S
H275 C262 0.951 . S
C276 C277 1.386 . S
C276 C278 1.383 . S
C276 H292 0.951 . S
C277 C276 1.386 . S
C277 C281 1.383 . S
C278 C276 1.383 . S
C278 C279 1.402 . S
C278 H293 0.951 . S
C279 C278 1.402 . S
C279 C280 1.375 . S
C279 C282 1.481 . S
C280 C279 1.375 . S
C280 C281 1.367 . S
C280 H294 0.951 . S
C281 C277 1.383 . S
C281 C280 1.367 . S
C281 H295 0.950 . S
C282 C279 1.481 . S
C282 C283 1.297 . S
C282 H296 0.950 . S
C283 C282 1.297 . S
C283 C284 1.479 . S
C283 H297 0.950 . S
C284 C283 1.479 . S
C284 C285 1.375 . S
C284 C290 1.404 . S
C285 C284 1.375 . S
C285 C286 1.369 . S
C285 H298 0.950 . S
C286 C285 1.369 . S
C286 C287 1.392 . S
C286 H299 0.951 . S
C287 C286 1.392 . S
C287 C289 1.384 . S
H288 C290 0.949 . S
C289 C287 1.384 . S
C289 C290 1.385 . S
C289 H291 0.950 . S
C290 C284 1.404 . S
C290 H288 0.949 . S
C290 C289 1.385 . S
H291 C289 0.950 . S
H292 C276 0.951 . S
H293 C278 0.951 . S
H294 C280 0.951 . S
H295 C281 0.950 . S
H296 C282 0.950 . S
H297 C283 0.950 . S
H298 C285 0.950 . S
H299 C286 0.951 . S
C300 C301 1.386 . S
C300 C302 1.383 . S
C300 H316 0.951 . S
C301 C300 1.386 . S
C301 C305 1.383 . S
C302 C300 1.383 . S
C302 C303 1.402 . S
C302 H317 0.951 . S
C303 C302 1.402 . S
C303 C304 1.375 . S
C303 C306 1.481 . S
C304 C303 1.375 . S
C304 C305 1.367 . S
C304 H318 0.951 . S
C305 C301 1.383 . S
C305 C304 1.367 . S
C305 H319 0.950 . S
C306 C303 1.481 . S
C306 C307 1.297 . S
C306 H320 0.950 . S
C307 C306 1.297 . S
C307 C308 1.479 . S
C307 H321 0.950 . S
C308 C307 1.479 . S
C308 C309 1.375 . S
C308 C314 1.404 . S
C309 C308 1.375 . S
C309 C310 1.369 . S
C309 H322 0.950 . S
C310 C309 1.369 . S
C310 C311 1.392 . S
C310 H323 0.951 . S
C311 C310 1.392 . S
C311 C313 1.384 . S
H312 C314 0.949 . S
C313 C311 1.384 . S
C313 C314 1.385 . S
C313 H315 0.950 . S
C314 C308 1.404 . S
C314 H312 0.949 . S
C314 C313 1.385 . S
H315 C313 0.950 . S
H316 C300 0.951 . S
H317 C302 0.951 . S
H318 C304 0.951 . S
H319 C305 0.950 . S
H320 C306 0.950 . S
H321 C307 0.950 . S
H322 C309 0.950 . S
H323 C310 0.951 . S
C324 C325 1.386 . S
C324 C326 1.383 . S
C324 H340 0.951 . S
C325 C324 1.386 . S
C325 C329 1.383 . S
C326 C324 1.383 . S
C326 C327 1.402 . S
C326 H341 0.951 . S
C327 C326 1.402 . S
C327 C328 1.375 . S
C327 C330 1.481 . S
C328 C327 1.375 . S
C328 C329 1.367 . S
C328 H342 0.951 . S
C329 C325 1.383 . S
C329 C328 1.367 . S
C329 H343 0.950 . S
C330 C327 1.481 . S
C330 C331 1.297 . S
C330 H344 0.950 . S
C331 C330 1.297 . S
C331 C332 1.479 . S
C331 H345 0.950 . S
C332 C331 1.479 . S
C332 C333 1.375 . S
C332 C338 1.404 . S
C333 C332 1.375 . S
C333 C334 1.369 . S
C333 H346 0.950 . S
C334 C333 1.369 . S
C334 C335 1.392 . S
C334 H347 0.951 . S
C335 C334 1.392 . S
C335 C337 1.384 . S
H336 C338 0.949 . S
C337 C335 1.384 . S
C337 C338 1.385 . S
C337 H339 0.950 . S
C338 C332 1.404 . S
C338 H336 0.949 . S
C338 C337 1.385 . S
H339 C337 0.950 . S
H340 C324 0.951 . S
H341 C326 0.951 . S
H342 C328 0.951 . S
H343 C329 0.950 . S
H344 C330 0.950 . S
H345 C331 0.950 . S
H346 C333 0.950 . S
H347 C334 0.951 . S
C348 C349 1.386 . S
C348 C350 1.383 . S
C348 H364 0.951 . S
C349 C348 1.386 . S
C349 C353 1.383 . S
C350 C348 1.383 . S
C350 C351 1.402 . S
C350 H365 0.951 . S
C351 C350 1.402 . S
C351 C352 1.375 . S
C351 C354 1.492 . S
C352 C351 1.375 . S
C352 C353 1.367 . S
C352 H366 0.951 . S
C353 C349 1.383 . S
C353 C352 1.367 . S
C353 H367 0.950 . S
C354 C351 1.492 . S
C354 C355 1.285 1_655 S
C354 H368 0.952 1_655 S
C355 C354 1.285 1_455 S
C355 C356 1.479 . S
C355 H369 0.950 1_455 S
C356 C355 1.479 . S
C356 C357 1.375 . S
C356 C362 1.404 . S
C357 C356 1.375 . S
C357 C358 1.369 . S
C357 H370 0.950 . S
C358 C357 1.369 . S
C358 C359 1.392 . S
C358 H371 0.951 . S
C359 C358 1.392 . S
C359 C361 1.384 . S
H360 C362 0.949 . S
C361 C359 1.384 . S
C361 C362 1.385 . S
C361 H363 0.950 . S
C362 C356 1.404 . S
C362 H360 0.949 . S
C362 C361 1.385 . S
H363 C361 0.950 . S
H364 C348 0.951 . S
H365 C350 0.951 . S
H366 C352 0.951 . S
H367 C353 0.950 . S
H368 C354 0.952 1_455 S
H369 C355 0.950 1_655 S
H370 C357 0.950 . S
H371 C358 0.951 . S
C372 C373 1.386 . S
C372 C374 1.383 . S
C372 H388 0.951 . S
C373 C372 1.386 . S
C373 C377 1.383 . S
C374 C372 1.383 . S
C374 C375 1.402 . S
C374 H389 0.951 . S
C375 C374 1.402 . S
C375 C376 1.375 . S
C375 C378 1.481 . S
C376 C375 1.375 . S
C376 C377 1.367 . S
C376 H390 0.951 . S
C377 C373 1.383 . S
C377 C376 1.367 . S
C377 H391 0.950 . S
C378 C375 1.481 . S
C378 C379 1.297 . S
C378 H392 0.950 . S
C379 C378 1.297 . S
C379 C380 1.479 . S
C379 H393 0.950 . S
C380 C379 1.479 . S
C380 C381 1.375 . S
C380 C386 1.404 . S
C381 C380 1.375 . S
C381 C382 1.369 . S
C381 H394 0.950 . S
C382 C381 1.369 . S
C382 C383 1.392 . S
C382 H395 0.951 . S
C383 C382 1.392 . S
C383 C385 1.384 . S
H384 C386 0.949 . S
C385 C383 1.384 . S
C385 C386 1.385 . S
C385 H387 0.950 . S
C386 C380 1.404 . S
C386 H384 0.949 . S
C386 C385 1.385 . S
H387 C385 0.950 . S
H388 C372 0.951 . S
H389 C374 0.951 . S
H390 C376 0.951 . S
H391 C377 0.950 . S
H392 C378 0.950 . S
H393 C379 0.950 . S
H394 C381 0.950 . S
H395 C382 0.951 . S
C396 C397 1.386 . S
C396 C398 1.383 . S
C396 H412 0.951 . S
C397 C396 1.386 . S
C397 C401 1.383 . S
C398 C396 1.383 . S
C398 C399 1.402 . S
C398 H413 0.951 . S
C399 C398 1.402 . S
C399 C400 1.375 . S
C399 C402 1.481 1_565 S
C400 C399 1.375 . S
C400 C401 1.367 . S
C400 H414 0.951 . S
C401 C397 1.383 . S
C401 C400 1.367 . S
C401 H415 0.950 . S
C402 C399 1.481 1_545 S
C402 C403 1.297 . S
C402 H416 0.950 . S
C403 C402 1.297 . S
C403 C404 1.479 . S
C403 H417 0.950 . S
C404 C403 1.479 . S
C404 C405 1.375 . S
C404 C410 1.404 . S
C405 C404 1.375 . S
C405 C406 1.369 . S
C405 H418 0.950 . S
C406 C405 1.369 . S
C406 C407 1.392 . S
C406 H419 0.951 . S
C407 C406 1.392 . S
C407 C409 1.384 . S
H408 C410 0.949 . S
C409 C407 1.384 . S
C409 C410 1.385 . S
C409 H411 0.950 . S
C410 C404 1.404 . S
C410 H408 0.949 . S
C410 C409 1.385 . S
H411 C409 0.950 . S
H412 C396 0.951 . S
H413 C398 0.951 . S
H414 C400 0.951 . S
H415 C401 0.950 . S
H416 C402 0.950 . S
H417 C403 0.950 . S
H418 C405 0.950 . S
H419 C406 0.951 . S
C420 C421 1.386 1_655 S
C420 C422 1.383 . S
C420 H436 0.950 1_545 S
C421 C420 1.386 1_455 S
C421 C425 1.383 . S
C422 C420 1.383 . S
C422 C423 1.402 1_655 S
C422 H437 0.951 1_545 S
C423 C422 1.402 1_455 S
C423 C424 1.375 . S
C423 C426 1.481 . S
C424 C423 1.375 . S
C424 C425 1.367 . S
C424 H438 0.951 . S
C425 C421 1.383 . S
C425 C424 1.367 . S
C425 H439 0.950 . S
C426 C423 1.481 . S
C426 C427 1.297 . S
C426 H440 0.950 . S
C427 C426 1.297 . S
C427 C428 1.479 1_455 S
C427 H441 0.950 1_455 S
C428 C427 1.479 1_655 S
C428 C429 1.375 1_545 S
C428 C434 1.404 1_655 S
C429 C428 1.375 1_565 S
C429 C430 1.369 . S
C429 H442 0.950 . S
C430 C429 1.369 . S
C430 C431 1.392 . S
C430 H443 0.951 . S
C431 C430 1.392 . S
C431 C433 1.384 1_665 S
H432 C434 0.949 . S
C433 C431 1.384 1_445 S
C433 C434 1.385 . S
C433 H435 0.950 . S
C434 C428 1.404 1_455 S
C434 H432 0.949 . S
C434 C433 1.385 . S
H435 C433 0.950 . S
H436 C420 0.950 1_565 S
H437 C422 0.951 1_565 S
H438 C424 0.951 . S
H439 C425 0.950 . S
H440 C426 0.950 . S
H441 C427 0.950 1_655 S
H442 C429 0.950 . S
H443 C430 0.951 . S
C444 C445 1.386 . S
C444 C446 1.383 . S
C444 H460 0.951 . S
C445 C444 1.386 . S
C445 C449 1.383 . S
C446 C444 1.383 . S
C446 C447 1.402 . S
C446 H461 0.951 . S
C447 C446 1.402 . S
C447 C448 1.375 . S
C447 C450 1.481 . S
C448 C447 1.375 . S
C448 C449 1.367 . S
C448 H462 0.951 . S
C449 C445 1.383 . S
C449 C448 1.367 . S
C449 H463 0.950 . S
C450 C447 1.481 . S
C450 C451 1.297 . S
C450 H464 0.950 . S
C451 C450 1.297 . S
C451 C452 1.479 . S
C451 H465 0.950 . S
C452 C451 1.479 . S
C452 C453 1.375 . S
C452 C458 1.404 . S
C453 C452 1.375 . S
C453 C454 1.369 . S
C453 H466 0.950 . S
C454 C453 1.369 . S
C454 C455 1.392 . S
C454 H467 0.951 . S
C455 C454 1.392 . S
C455 C457 1.384 . S
H456 C458 0.949 . S
C457 C455 1.384 . S
C457 C458 1.385 . S
C457 H459 0.950 . S
C458 C452 1.404 . S
C458 H456 0.949 . S
C458 C457 1.385 . S
H459 C457 0.950 . S
H460 C444 0.951 . S
H461 C446 0.951 . S
H462 C448 0.951 . S
H463 C449 0.950 . S
H464 C450 0.950 . S
H465 C451 0.950 . S
H466 C453 0.950 . S
H467 C454 0.951 . S
C468 C469 1.386 . S
C468 C470 1.383 . S
C468 H484 0.951 . S
C469 C468 1.386 . S
C469 C473 1.383 . S
C470 C468 1.383 . S
C470 C471 1.402 . S
C470 H485 0.951 . S
C471 C470 1.402 . S
C471 C472 1.375 . S
C471 C474 1.481 . S
C472 C471 1.375 . S
C472 C473 1.367 . S
C472 H486 0.951 . S
C473 C469 1.383 . S
C473 C472 1.367 . S
C473 H487 0.950 . S
C474 C471 1.481 . S
C474 C475 1.297 . S
C474 H488 0.950 . S
C475 C474 1.297 . S
C475 C476 1.479 . S
C475 H489 0.950 . S
C476 C475 1.479 . S
C476 C477 1.375 . S
C476 C482 1.404 . S
C477 C476 1.375 . S
C477 C478 1.369 . S
C477 H490 0.950 . S
C478 C477 1.369 . S
C478 C479 1.392 . S
C478 H491 0.951 . S
C479 C478 1.392 . S
C479 C481 1.384 . S
H480 C482 0.949 . S
C481 C479 1.384 . S
C481 C482 1.385 . S
C481 H483 0.950 . S
C482 C476 1.404 . S
C482 H480 0.949 . S
C482 C481 1.385 . S
H483 C481 0.950 . S
H484 C468 0.951 . S
H485 C470 0.951 . S
H486 C472 0.951 . S
H487 C473 0.950 . S
H488 C474 0.950 . S
H489 C475 0.950 . S
H490 C477 0.950 . S
H491 C478 0.951 . S
C492 C493 1.386 . S
C492 C494 1.383 . S
C492 H508 0.951 . S
C493 C492 1.386 . S
C493 C497 1.383 1_565 S
C494 C492 1.383 . S
C494 C495 1.402 . S
C494 H509 0.951 . S
C495 C494 1.402 . S
C495 C496 1.375 1_565 S
C495 C498 1.481 1_565 S
C496 C495 1.375 1_545 S
C496 C497 1.367 . S
C496 H510 0.951 . S
C497 C493 1.383 1_545 S
C497 C496 1.367 . S
C497 H511 0.950 . S
C498 C495 1.481 1_545 S
C498 C499 1.297 1_644 S
C498 H512 0.950 1_554 S
C499 C498 1.297 1_466 S
C499 C500 1.479 1_565 S
C499 H513 0.950 1_455 S
C500 C499 1.479 1_545 S
C500 C501 1.375 1_545 S
C500 C506 1.404 . S
C501 C500 1.375 1_565 S
C501 C502 1.369 . S
C501 H514 0.950 . S
C502 C501 1.369 . S
C502 C503 1.392 1_565 S
C502 H515 0.951 . S
C503 C502 1.392 1_545 S
C503 C505 1.384 . S
H504 C506 0.949 . S
C505 C503 1.384 . S
C505 C506 1.385 . S
C505 H507 0.950 . S
C506 C500 1.404 . S
C506 H504 0.949 . S
C506 C505 1.385 . S
H507 C505 0.950 . S
H508 C492 0.951 . S
H509 C494 0.951 . S
H510 C496 0.951 . S
H511 C497 0.950 . S
H512 C498 0.950 1_556 S
H513 C499 0.950 1_655 S
H514 C501 0.950 . S
H515 C502 0.951 . S
C516 C517 1.386 . S
C516 C518 1.383 . S
C516 H532 0.951 . S
C517 C516 1.386 . S
C517 C521 1.383 . S
C518 C516 1.383 . S
C518 C519 1.402 . S
C518 H533 0.951 . S
C519 C518 1.402 . S
C519 C520 1.375 . S
C519 C522 1.481 . S
C520 C519 1.375 . S
C520 C521 1.367 . S
C520 H534 0.951 . S
C521 C517 1.383 . S
C521 C520 1.367 . S
C521 H535 0.950 . S
C522 C519 1.481 . S
C522 C523 1.297 . S
C522 H536 0.950 . S
C523 C522 1.297 . S
C523 C524 1.479 . S
C523 H537 0.950 . S
C524 C523 1.479 . S
C524 C525 1.375 . S
C524 C530 1.404 . S
C525 C524 1.375 . S
C525 C526 1.369 . S
C525 H538 0.950 . S
C526 C525 1.369 . S
C526 C527 1.392 . S
C526 H539 0.951 . S
C527 C526 1.392 . S
C527 C529 1.384 . S
H528 C530 0.949 . S
C529 C527 1.384 . S
C529 C530 1.385 . S
C529 H531 0.950 . S
C530 C524 1.404 . S
C530 H528 0.949 . S
C530 C529 1.385 . S
H531 C529 0.950 . S
H532 C516 0.951 . S
H533 C518 0.951 . S
H534 C520 0.951 . S
H535 C521 0.950 . S
H536 C522 0.950 . S
H537 C523 0.950 . S
H538 C525 0.950 . S
H539 C526 0.951 . S
C540 C541 1.386 . S
C540 C542 1.383 . S
C540 H556 0.951 . S
C541 C540 1.386 . S
C541 C545 1.383 . S
C542 C540 1.383 . S
C542 C543 1.402 . S
C542 H557 0.951 . S
C543 C542 1.402 . S
C543 C544 1.375 . S
C543 C546 1.481 . S
C544 C543 1.375 . S
C544 C545 1.367 . S
C544 H558 0.951 . S
C545 C541 1.383 . S
C545 C544 1.367 . S
C545 H559 0.950 . S
C546 C543 1.481 . S
C546 C547 1.297 . S
C546 H560 0.950 . S
C547 C546 1.297 . S
C547 C548 1.479 . S
C547 H561 0.950 . S
C548 C547 1.479 . S
C548 C549 1.375 . S
C548 C554 1.404 . S
C549 C548 1.375 . S
C549 C550 1.369 . S
C549 H562 0.950 . S
C550 C549 1.369 . S
C550 C551 1.392 . S
C550 H563 0.951 . S
C551 C550 1.392 . S
C551 C553 1.384 . S
H552 C554 0.949 . S
C553 C551 1.384 . S
C553 C554 1.385 . S
C553 H555 0.950 . S
C554 C548 1.404 . S
C554 H552 0.949 . S
C554 C553 1.385 . S
H555 C553 0.950 . S
H556 C540 0.951 . S
H557 C542 0.951 . S
H558 C544 0.951 . S
H559 C545 0.950 . S
H560 C546 0.950 . S
H561 C547 0.950 . S
H562 C549 0.950 . S
H563 C550 0.951 . S
C205 C33 1.216 . S
C215 C135 1.260 . S
C229 C20 1.824 . S
C239 C104 1.823 . S
C253 C122 1.822 . S
C263 C2 1.842 . S
C277 C54 1.852 . S
C287 C138 1.813 . S
C301 C169 1.233 . S
C311 C67 1.242 . S
C325 C36 1.846 . S
C335 C156 1.802 . S
C349 C101 1.225 . S
C359 C203 1.254 . S
C373 C88 1.824 . S
C383 C172 1.823 . S
C397 C190 1.821 . S
C407 C70 1.839 . S
C421 C43 2.002 . S
C431 C9 1.970 1_565 S
C445 C111 2.011 . S
C455 C77 1.947 . S
C469 C179 1.964 . S
C479 C145 1.998 . S
C493 C5 0.306 . S
C503 C39 0.099 . S
C517 C107 0.309 . S
C527 C73 0.100 . S
C541 C175 0.271 . S
C551 C141 0.288 . S
