# Generated by pormake.
# Topology crs, (6)-cn, num edge types: 1
# Building blocks:
#     Node 0, Type 0, BuildingBlock: BETFEN_clean_sbu_0, # of connection points: 6
#     Node 1, Type 0, BuildingBlock: BETFEN_clean_sbu_0, # of connection points: 6
#     Node 2, Type 0, BuildingBlock: BETFEN_clean_sbu_0, # of connection points: 6
#     Node 3, Type 0, BuildingBlock: BETFEN_clean_sbu_0, # of connection points: 6
#     Node 4, Type 0, BuildingBlock: BETFEN_clean_sbu_0, # of connection points: 6
#     Node 5, Type 0, BuildingBlock: BETFEN_clean_sbu_0, # of connection points: 6
#     Node 6, Type 0, BuildingBlock: BETFEN_clean_sbu_0, # of connection points: 6
#     Node 7, Type 0, BuildingBlock: BETFEN_clean_sbu_0, # of connection points: 6
#     Node 8, Type 0, BuildingBlock: BETFEN_clean_sbu_0, # of connection points: 6
#     Node 9, Type 0, BuildingBlock: BETFEN_clean_sbu_0, # of connection points: 6
#     Node 10, Type 0, BuildingBlock: BETFEN_clean_sbu_0, # of connection points: 6
#     Node 11, Type 0, BuildingBlock: BETFEN_clean_sbu_0, # of connection points: 6
#     Node 12, Type 0, BuildingBlock: BETFEN_clean_sbu_0, # of connection points: 6
#     Node 13, Type 0, BuildingBlock: BETFEN_clean_sbu_0, # of connection points: 6
#     Node 14, Type 0, BuildingBlock: BETFEN_clean_sbu_0, # of connection points: 6
#     Node 15, Type 0, BuildingBlock: BETFEN_clean_sbu_0, # of connection points: 6
#     Edge 16, Type (0, 0), BuildingBlock: AJUNOK_clean_linker_0, # of connection points: 2
#     Edge 17, Type (0, 0), BuildingBlock: AJUNOK_clean_linker_0, # of connection points: 2
#     Edge 18, Type (0, 0), BuildingBlock: AJUNOK_clean_linker_0, # of connection points: 2
#     Edge 19, Type (0, 0), BuildingBlock: AJUNOK_clean_linker_0, # of connection points: 2
#     Edge 20, Type (0, 0), BuildingBlock: AJUNOK_clean_linker_0, # of connection points: 2
#     Edge 21, Type (0, 0), BuildingBlock: AJUNOK_clean_linker_0, # of connection points: 2
#     Edge 22, Type (0, 0), BuildingBlock: AJUNOK_clean_linker_0, # of connection points: 2
#     Edge 23, Type (0, 0), BuildingBlock: AJUNOK_clean_linker_0, # of connection points: 2
#     Edge 24, Type (0, 0), BuildingBlock: AJUNOK_clean_linker_0, # of connection points: 2
#     Edge 25, Type (0, 0), BuildingBlock: AJUNOK_clean_linker_0, # of connection points: 2
#     Edge 26, Type (0, 0), BuildingBlock: AJUNOK_clean_linker_0, # of connection points: 2
#     Edge 27, Type (0, 0), BuildingBlock: AJUNOK_clean_linker_0, # of connection points: 2
#     Edge 28, Type (0, 0), BuildingBlock: AJUNOK_clean_linker_0, # of connection points: 2
#     Edge 29, Type (0, 0), BuildingBlock: AJUNOK_clean_linker_0, # of connection points: 2
#     Edge 30, Type (0, 0), BuildingBlock: AJUNOK_clean_linker_0, # of connection points: 2
#     Edge 31, Type (0, 0), BuildingBlock: AJUNOK_clean_linker_0, # of connection points: 2
#     Edge 32, Type (0, 0), BuildingBlock: AJUNOK_clean_linker_0, # of connection points: 2
#     Edge 33, Type (0, 0), BuildingBlock: AJUNOK_clean_linker_0, # of connection points: 2
#     Edge 34, Type (0, 0), BuildingBlock: AJUNOK_clean_linker_0, # of connection points: 2
#     Edge 35, Type (0, 0), BuildingBlock: AJUNOK_clean_linker_0, # of connection points: 2
#     Edge 36, Type (0, 0), BuildingBlock: AJUNOK_clean_linker_0, # of connection points: 2
#     Edge 37, Type (0, 0), BuildingBlock: AJUNOK_clean_linker_0, # of connection points: 2
#     Edge 38, Type (0, 0), BuildingBlock: AJUNOK_clean_linker_0, # of connection points: 2
#     Edge 39, Type (0, 0), BuildingBlock: AJUNOK_clean_linker_0, # of connection points: 2
#     Edge 40, Type (0, 0), BuildingBlock: AJUNOK_clean_linker_0, # of connection points: 2
#     Edge 41, Type (0, 0), BuildingBlock: AJUNOK_clean_linker_0, # of connection points: 2
#     Edge 42, Type (0, 0), BuildingBlock: AJUNOK_clean_linker_0, # of connection points: 2
#     Edge 43, Type (0, 0), BuildingBlock: AJUNOK_clean_linker_0, # of connection points: 2
#     Edge 44, Type (0, 0), BuildingBlock: AJUNOK_clean_linker_0, # of connection points: 2
#     Edge 45, Type (0, 0), BuildingBlock: AJUNOK_clean_linker_0, # of connection points: 2
#     Edge 46, Type (0, 0), BuildingBlock: AJUNOK_clean_linker_0, # of connection points: 2
#     Edge 47, Type (0, 0), BuildingBlock: AJUNOK_clean_linker_0, # of connection points: 2
#     Edge 48, Type (0, 0), BuildingBlock: AJUNOK_clean_linker_0, # of connection points: 2
#     Edge 49, Type (0, 0), BuildingBlock: AJUNOK_clean_linker_0, # of connection points: 2
#     Edge 50, Type (0, 0), BuildingBlock: AJUNOK_clean_linker_0, # of connection points: 2
#     Edge 51, Type (0, 0), BuildingBlock: AJUNOK_clean_linker_0, # of connection points: 2
#     Edge 52, Type (0, 0), BuildingBlock: AJUNOK_clean_linker_0, # of connection points: 2
#     Edge 53, Type (0, 0), BuildingBlock: AJUNOK_clean_linker_0, # of connection points: 2
#     Edge 54, Type (0, 0), BuildingBlock: AJUNOK_clean_linker_0, # of connection points: 2
#     Edge 55, Type (0, 0), BuildingBlock: AJUNOK_clean_linker_0, # of connection points: 2
#     Edge 56, Type (0, 0), BuildingBlock: AJUNOK_clean_linker_0, # of connection points: 2
#     Edge 57, Type (0, 0), BuildingBlock: AJUNOK_clean_linker_0, # of connection points: 2
#     Edge 58, Type (0, 0), BuildingBlock: AJUNOK_clean_linker_0, # of connection points: 2
#     Edge 59, Type (0, 0), BuildingBlock: AJUNOK_clean_linker_0, # of connection points: 2
#     Edge 60, Type (0, 0), BuildingBlock: AJUNOK_clean_linker_0, # of connection points: 2
#     Edge 61, Type (0, 0), BuildingBlock: AJUNOK_clean_linker_0, # of connection points: 2
#     Edge 62, Type (0, 0), BuildingBlock: AJUNOK_clean_linker_0, # of connection points: 2
#     Edge 63, Type (0, 0), BuildingBlock: AJUNOK_clean_linker_0, # of connection points: 2
# Relax obj value: 0.594
# Max RMSD: 0.397
# Mean RMSD: 0.329
data_MOF--net-crs--node1-BETFEN_clean_sbu_0--edge1-AJUNOK_clean_linker_0
_symmetry_space_group_name_H-M    P1
_symmetry_Int_Tables_number       1
_symmetry_cell_setting            triclinic
loop_
_symmetry_equiv_pos_as_xyz
'x, y, z'
_cell_length_a     45.257386
_cell_length_b     43.933723
_cell_length_c     34.775572
_cell_angle_alpha  70.919641
_cell_angle_beta   68.969618
_cell_angle_gamma 58.732143
loop_
_atom_site_label
_atom_site_type_symbol
_atom_site_fract_x
_atom_site_fract_y
_atom_site_fract_z
_atom_type_partial_charge
Pr0 Pr 0.01294 0.03169 0.97319 0.0
Pr1 Pr 0.98856 0.99082 0.05447 0.0
C2 C 0.04427 0.06906 0.91268 0.0
C3 C 0.06421 0.08554 0.91606 0.0
C4 C 0.10112 0.07109 0.89955 0.0
C5 C 0.12122 0.08167 0.90982 0.0
C6 C 0.1047 0.10678 0.93686 0.0
C7 C 0.0676 0.12199 0.95207 0.0
C8 C 0.04761 0.11174 0.94154 0.0
C9 C 0.02257 0.96634 0.96483 0.0
C10 C 0.06221 0.98958 0.04392 0.0
C11 C 0.95534 0.95443 0.11327 0.0
C12 C 0.92849 0.94677 0.10992 0.0
C13 C 0.89878 0.94946 0.1432 0.0
C14 C 0.87175 0.94519 0.13854 0.0
C15 C 0.87417 0.93864 0.10042 0.0
C16 C 0.90339 0.93676 0.06693 0.0
C17 C 0.93024 0.94106 0.07153 0.0
C18 C 0.98202 0.05371 0.06564 0.0
C19 C 0.93734 0.03701 0.98571 0.0
O20 O 0.01003 0.08364 0.92953 0.0
O21 O 0.05957 0.0337 0.92093 0.0
O22 O 0.02893 0.97032 0.99491 0.0
O23 O 0.01237 0.99587 0.93778 0.0
O24 O 0.0454 0.96957 0.06311 0.0
O25 O 0.05225 0.01598 1.01249 0.0
O26 O 0.98772 0.93803 0.09102 0.0
O27 O 0.94477 0.98866 0.11121 0.0
O28 O 0.97447 0.05227 0.03449 0.0
O29 O 0.99035 0.02351 0.09195 0.0
O30 O 0.95629 0.05445 0.96463 0.0
O31 O 0.94681 1.01005 1.01669 0.0
H32 H 0.11457 0.05058 0.88009 0.0
H33 H 0.1497 0.06982 0.89708 0.0
H34 H 0.05393 0.1405 0.97401 0.0
H35 H 0.0193 0.12317 0.95519 0.0
H36 H 0.89651 0.95488 0.17263 0.0
H37 H 0.84945 0.94619 0.16481 0.0
H38 H 0.90579 0.93118 0.03751 0.0
H39 H 0.95223 0.94012 0.04496 0.0
Pr40 Pr 0.00331 0.27712 0.30231 0.0
Pr41 Pr 0.98973 0.2461 0.2428 0.0
C42 C -0.00074 0.32364 0.3405 0.0
C43 C 0.99505 0.33401 0.37884 0.0
C44 C 0.01812 0.31172 0.40588 0.0
C45 C 0.01841 0.32601 0.43622 0.0
C46 C 0.99611 0.36277 0.43916 0.0
C47 C 0.97075 0.3837 0.41476 0.0
C48 C 0.97023 0.36939 0.38496 0.0
C49 C 0.05064 0.20199 0.30846 0.0
C50 C 0.94111 0.24837 0.34398 0.0
C51 C 0.99397 0.20248 0.19964 0.0
C52 C 0.99041 0.19902 0.16073 0.0
C53 C 0.957 0.20904 0.15524 0.0
C54 C 0.95466 0.19558 0.12564 0.0
C55 C 0.98563 0.17186 0.10141 0.0
C56 C 0.01879 0.1661 0.10283 0.0
C57 C 0.02119 0.17936 0.13247 0.0
C58 C 0.94291 0.32135 0.23589 0.0
C59 C 0.053 0.274 0.20327 0.0
O60 O 0.97137 0.32597 0.33405 0.0
O61 O 0.02943 0.29731 0.32567 0.0
O62 O 0.02746 0.22033 0.28672 0.0
O63 O 0.04768 0.2226 0.3306 0.0
O64 O 0.95176 0.23531 0.30908 0.0
O65 O 0.95618 0.26554 0.34859 0.0
O66 O 0.02105 0.20677 0.19754 0.0
O67 O 0.96527 0.2192 0.2271 0.0
O68 O 0.96573 0.30289 0.25806 0.0
O69 O 0.94663 0.30088 0.21301 0.0
O70 O 0.04033 0.28891 0.23697 0.0
O71 O 0.03962 0.25498 0.1991 0.0
H72 H 0.03718 0.28407 0.40205 0.0
H73 H 0.03751 0.30902 0.4555 0.0
H74 H 0.95322 0.41213 0.41607 0.0
H75 H 0.95212 0.38692 0.36451 0.0
H76 H 0.93275 0.2244 0.17627 0.0
H77 H 0.92883 0.19996 0.12548 0.0
H78 H 0.04305 0.14747 0.08494 0.0
H79 H 0.04733 0.17121 0.13587 0.0
Pr80 Pr 0.7484 0.276 0.55182 0.0
Pr81 Pr 0.74456 0.2506 0.49627 0.0
C82 C 0.7616 0.29973 0.60262 0.0
C83 C 0.77256 0.32789 0.59343 0.0
C84 C 0.75858 0.351 0.62202 0.0
C85 C 0.77043 0.37659 0.61426 0.0
C86 C 0.79651 0.37897 0.57802 0.0
C87 C 0.80823 0.35797 0.5478 0.0
C88 C 0.79594 0.33287 0.55525 0.0
C89 C 0.6786 0.28292 0.57482 0.0
C90 C 0.72801 0.33518 0.46901 0.0
C91 C 0.73031 0.22862 0.4448 0.0
C92 C 0.71797 0.20187 0.45244 0.0
C93 C 0.73239 0.17899 0.42348 0.0
C94 C 0.71989 0.15429 0.42965 0.0
C95 C 0.69272 0.15253 0.46472 0.0
C96 C 0.68019 0.17353 0.49526 0.0
C97 C 0.69299 0.1979 0.48934 0.0
C98 C 0.81471 0.24234 0.47374 0.0
C99 C 0.76433 0.19101 0.57853 0.0
O100 O 0.78497 0.27027 0.587 0.0
O101 O 0.7297 0.31158 0.59853 0.0
O102 O 0.70689 0.25525 0.5634 0.0
O103 O 0.68594 0.30916 0.56889 0.0
O104 O 0.72003 0.31199 0.46445 0.0
O105 O 0.74415 0.32615 0.49848 0.0
O106 O 0.70759 0.25816 0.46049 0.0
O107 O 0.7622 0.21513 0.44998 0.0
O108 O 0.78674 0.27038 0.48513 0.0
O109 O 0.80668 0.21689 0.47824 0.0
O110 O 0.77329 0.21354 0.5832 0.0
O111 O 0.7471 0.20172 0.54968 0.0
H112 H 0.73961 0.34829 0.651 0.0
H113 H 0.7615 0.39236 0.6381 0.0
H114 H 0.82864 0.35926 0.51986 0.0
H115 H 0.80575 0.31637 0.53197 0.0
H116 H 0.75244 0.18107 0.39547 0.0
H117 H 0.72956 0.13848 0.40561 0.0
H118 H 0.65915 0.17247 0.52246 0.0
H119 H 0.68249 0.21446 0.51285 0.0
Pr120 Pr 0.7359 1.00188 0.74601 0.0
Pr121 Pr 0.75482 0.02259 0.80477 0.0
C122 C 0.69537 1.00154 0.70556 0.0
C123 C 0.68547 0.99719 0.67247 0.0
C124 C 0.70599 0.9665 0.65313 0.0
C125 C 0.69214 0.96035 0.62776 0.0
C126 C 0.65757 0.98456 0.62214 0.0
C127 C 0.63815 0.01616 0.63958 0.0
C128 C 0.6521 0.02255 0.66418 0.0
C129 C 0.8076 0.95203 0.74537 0.0
C130 C 0.76462 0.06322 0.70356 0.0
C131 C 0.78337 0.04058 0.84431 0.0
C132 C 0.79795 0.03387 0.87941 0.0
C133 C 0.78536 0.06303 0.89899 0.0
C134 C 0.80418 0.0612 0.92445 0.0
C135 C 0.83586 0.03011 0.93065 0.0
C136 C 0.84639 0.99948 0.9147 0.0
C137 C 0.82756 1.00135 0.88906 0.0
C138 C 0.68206 0.06156 0.80598 0.0
C139 C 0.73149 0.95818 0.84411 0.0
O140 O 0.69888 0.03017 0.70162 0.0
O141 O 0.71384 0.97299 0.72982 0.0
O142 O 0.78871 0.97724 0.76651 0.0
O143 O 0.79006 0.95295 0.72222 0.0
O144 O 0.76558 0.06157 0.74179 0.0
O145 O 0.75643 0.04131 0.69599 0.0
O146 O 0.8024 0.01949 0.81628 0.0
O147 O 0.74917 0.05275 0.85087 0.0
O148 O 0.70723 0.05452 0.77356 0.0
O149 O 0.69461 0.04582 0.83937 0.0
O150 O 0.71565 0.97283 0.81266 0.0
O151 O 0.75262 0.96947 0.84645 0.0
H152 H 0.73186 0.94658 0.65916 0.0
H153 H 0.70746 0.93574 0.61468 0.0
H154 H 0.61135 0.03505 0.636 0.0
H155 H 0.63583 0.04634 0.67888 0.0
H156 H 0.76255 0.08834 0.89191 0.0
H157 H 0.79567 0.08528 0.93603 0.0
H158 H 0.87059 0.97504 0.91958 0.0
H159 H 0.83753 0.97833 0.87464 0.0
Pr160 Pr 0.50169 0.7739 0.3003 0.0
Pr161 Pr 0.48739 0.74852 0.25096 0.0
C162 C 0.50342 0.81395 0.3432 0.0
C163 C 0.50522 0.81913 0.38205 0.0
C164 C 0.53685 0.81646 0.38431 0.0
C165 C 0.53645 0.83225 0.41353 0.0
C166 C 0.50435 0.85119 0.44064 0.0
C167 C 0.47366 0.84973 0.44218 0.0
C168 C 0.47401 0.834 0.41287 0.0
C169 C 0.54775 0.69786 0.30691 0.0
C170 C 0.44374 0.74209 0.34761 0.0
C171 C 0.47759 0.72492 0.19633 0.0
C172 C 0.49005 0.7036 0.16367 0.0
C173 C 0.47769 0.7204 0.12671 0.0
C174 C 0.48162 0.69955 0.10046 0.0
C175 C 0.49729 0.6616 0.11136 0.0
C176 C 0.51223 0.6451 0.14657 0.0
C177 C 0.5089 0.66582 0.17218 0.0
C178 C 0.43192 0.81839 0.26457 0.0
C179 C 0.55297 0.77167 0.20523 0.0
O180 O 0.47417 0.81554 0.342 0.0
O181 O 0.53199 0.79203 0.32022 0.0
O182 O 0.53978 0.71956 0.27359 0.0
O183 O 0.5298 0.71494 0.33846 0.0
O184 O 0.4616 0.72271 0.31736 0.0
O185 O 0.45071 0.76827 0.34512 0.0
O186 O 0.48061 0.7076 0.23442 0.0
O187 O 0.47987 0.75511 0.18673 0.0
O188 O 0.46483 0.80993 0.25394 0.0
O189 O 0.42796 0.79009 0.2706 0.0
O190 O 0.54168 0.78569 0.23903 0.0
O191 O 0.53787 0.75392 0.20233 0.0
H192 H 0.56125 0.80522 0.361 0.0
H193 H 0.56039 0.8332 0.41164 0.0
H194 H 0.44862 0.86412 0.463 0.0
H195 H 0.44913 0.83643 0.41211 0.0
H196 H 0.46319 0.74961 0.11937 0.0
H197 H 0.47102 0.71319 0.07278 0.0
H198 H 0.52444 0.616 0.15627 0.0
H199 H 0.51895 0.65208 0.20027 0.0
Pr200 Pr 0.25096 0.77147 0.55257 0.0
Pr201 Pr 0.24519 0.74783 0.49697 0.0
C202 C 0.26467 0.79411 0.60395 0.0
C203 C 0.27711 0.82107 0.59499 0.0
C204 C 0.26396 0.84383 0.62371 0.0
C205 C 0.27684 0.86852 0.61615 0.0
C206 C 0.3031 0.87044 0.57991 0.0
C207 C 0.31388 0.84995 0.54943 0.0
C208 C 0.30086 0.82544 0.55688 0.0
C209 C 0.18034 0.78023 0.57469 0.0
C210 C 0.23327 0.83129 0.46999 0.0
C211 C 0.22973 0.72698 0.44538 0.0
C212 C 0.21756 0.70015 0.45249 0.0
C213 C 0.22927 0.68022 0.42121 0.0
C214 C 0.21796 0.65448 0.42765 0.0
C215 C 0.19481 0.64839 0.46549 0.0
C216 C 0.18456 0.66711 0.49762 0.0
C217 C 0.19605 0.6927 0.49125 0.0
C218 C 0.31611 0.73768 0.47485 0.0
C219 C 0.2657 0.68786 0.57873 0.0
O220 O 0.28735 0.76416 0.58908 0.0
O221 O 0.23285 0.80727 0.59876 0.0
O222 O 0.20849 0.75218 0.56444 0.0
O223 O 0.18823 0.80611 0.56851 0.0
O224 O 0.22166 0.81063 0.46629 0.0
O225 O 0.25081 0.81936 0.49882 0.0
O226 O 0.20719 0.75593 0.46224 0.0
O227 O 0.26186 0.71343 0.44986 0.0
O228 O 0.28839 0.76605 0.48546 0.0
O229 O 0.30761 0.71226 0.48071 0.0
O230 O 0.27748 0.70883 0.58103 0.0
O231 O 0.24593 0.6999 0.55217 0.0
H232 H 0.24468 0.84162 0.65257 0.0
H233 H 0.26823 0.88417 0.63998 0.0
H234 H 0.33398 0.85132 0.52115 0.0
H235 H 0.31028 0.80904 0.53354 0.0
H236 H 0.24655 0.68511 0.39152 0.0
H237 H 0.22575 0.64082 0.40217 0.0
H238 H 0.16669 0.66282 0.52703 0.0
H239 H 0.18762 0.70712 0.51626 0.0
Pr240 Pr 0.2348 0.50047 0.74309 0.0
Pr241 Pr 0.26218 0.51912 0.80373 0.0
C242 C 0.20121 0.49394 0.69908 0.0
C243 C 0.18553 0.50278 0.66419 0.0
C244 C 0.20394 0.4793 0.635 0.0
C245 C 0.18636 0.47948 0.6093 0.0
C246 C 0.15015 0.50325 0.61237 0.0
C247 C 0.13278 0.52959 0.638 0.0
C248 C 0.15035 0.52925 0.66404 0.0
C249 C 0.30773 0.45263 0.74336 0.0
C250 C 0.26379 0.56231 0.70453 0.0
C251 C 0.30652 0.51319 0.84336 0.0
C252 C 0.31203 0.51774 0.87987 0.0
C253 C 0.29292 0.55107 0.89377 0.0
C254 C 0.30442 0.5572 0.92157 0.0
C255 C 0.33477 0.52997 0.936 0.0
C256 C 0.35181 0.49565 0.92518 0.0
C257 C 0.34057 0.48963 0.89712 0.0
C258 C 0.19031 0.5697 0.80577 0.0
C259 C 0.22883 0.45903 0.84294 0.0
O260 O 0.18372 0.51195 0.73027 0.0
O261 O 0.23575 0.48011 0.69142 0.0
O262 O 0.28641 0.47971 0.76076 0.0
O263 O 0.29054 0.44931 0.72349 0.0
O264 O 0.27941 0.54952 0.73612 0.0
O265 O 0.2427 0.55084 0.70228 0.0
O266 O 0.29945 0.48675 0.84761 0.0
O267 O 0.29094 0.54224 0.81722 0.0
O268 O 0.20862 0.54373 0.78524 0.0
O269 O 0.20914 0.56798 0.82801 0.0
O270 O 0.22063 0.46569 0.80718 0.0
O271 O 0.24453 0.47504 0.84888 0.0
H272 H 0.23107 0.45851 0.63464 0.0
H273 H 0.20021 0.45873 0.59011 0.0
H274 H 0.10486 0.5485 0.64028 0.0
H275 H 0.13568 0.5478 0.68608 0.0
H276 H 0.27063 0.57306 0.88114 0.0
H277 H 0.29111 0.58386 0.92961 0.0
H278 H 0.37548 0.47444 0.9358 0.0
H279 H 0.35569 0.46376 0.8867 0.0
Pr280 Pr 0.01114 0.52982 0.48003 0.0
Pr281 Pr 0.98225 0.49401 0.56684 0.0
C282 C 0.04704 0.56272 0.41956 0.0
C283 C 0.07081 0.5727 0.4265 0.0
C284 C 0.10111 0.57296 0.39607 0.0
C285 C 0.12449 0.57974 0.40576 0.0
C286 C 0.11784 0.58576 0.44607 0.0
C287 C 0.08819 0.58425 0.47649 0.0
C288 C 0.06486 0.57812 0.46662 0.0
C289 C 0.01357 0.46581 0.48008 0.0
C290 C 0.06057 0.48361 0.5514 0.0
C291 C 0.94877 0.45905 0.62731 0.0
C292 C 0.92639 0.44597 0.62262 0.0
C293 C 0.88937 0.46305 0.63824 0.0
C294 C 0.8675 0.45485 0.6278 0.0
C295 C 0.88241 0.42962 0.60134 0.0
C296 C 0.91944 0.41223 0.58641 0.0
C297 C 0.94119 0.42009 0.5971 0.0
C298 C 0.98037 0.55715 0.56844 0.0
C299 C 0.93285 0.53987 0.49533 0.0
O300 O 0.01324 0.58041 0.43717 0.0
O301 O 0.05817 0.52784 0.42585 0.0
O302 O 0.02116 0.47097 0.50815 0.0
O303 O 0.00706 0.49291 0.44922 0.0
O304 O 0.03961 0.46864 0.57437 0.0
O305 O 0.05272 0.50923 0.51863 0.0
O306 O 0.98281 0.44273 0.60995 0.0
O307 O 0.9357 0.49429 0.62076 0.0
O308 O 0.97266 0.55298 0.53959 0.0
O309 O 0.98682 0.52952 0.59864 0.0
O310 O 0.95405 0.55453 0.47205 0.0
O311 O 0.94021 0.51462 0.52859 0.0
H312 H 0.10655 0.56807 0.3651 0.0
H313 H 0.1471 0.58124 0.38164 0.0
H314 H 0.08281 0.58852 0.50772 0.0
H315 H 0.04193 0.57747 0.49034 0.0
H316 H 0.87731 0.48331 0.65772 0.0
H317 H 0.83911 0.46789 0.6408 0.0
H318 H 0.9317 0.39252 0.56618 0.0
H319 H 0.96956 0.40659 0.58414 0.0
Pr320 Pr 0.24904 0.27508 0.05162 0.0
Pr321 Pr 0.24461 0.24889 0.99665 0.0
C322 C 0.26486 0.29702 0.10169 0.0
C323 C 0.27675 0.32433 0.09273 0.0
C324 C 0.27001 0.34138 0.12469 0.0
C325 C 0.28274 0.36626 0.11662 0.0
C326 C 0.30242 0.37419 0.0765 0.0
C327 C 0.30675 0.35915 0.04375 0.0
C328 C 0.29395 0.33432 0.05183 0.0
C329 C 0.17919 0.28243 0.07553 0.0
C330 C 0.22643 0.33425 0.96943 0.0
C331 C 0.23145 0.22411 0.94701 0.0
C332 C 0.21996 0.19635 0.95659 0.0
C333 C 0.23135 0.17519 0.92675 0.0
C334 C 0.21815 0.15078 0.93434 0.0
C335 C 0.19324 0.14769 0.97166 0.0
C336 C 0.18472 0.16611 1.00328 0.0
C337 C 0.1982 0.19026 0.99585 0.0
C338 C 0.31443 0.24181 0.97452 0.0
C339 C 0.26484 0.19047 0.07942 0.0
O340 O 0.28744 0.26808 0.08487 0.0
O341 O 0.23253 0.3098 0.09838 0.0
O342 O 0.20716 0.25452 0.06393 0.0
O343 O 0.18696 0.30832 0.06979 0.0
O344 O 0.21917 0.31048 0.96474 0.0
O345 O 0.24292 0.32542 0.99852 0.0
O346 O 0.20817 0.254 0.9618 0.0
O347 O 0.26326 0.21196 0.95162 0.0
O348 O 0.28602 0.26974 0.98483 0.0
O349 O 0.30702 0.21592 0.97896 0.0
O350 O 0.27464 0.21288 0.0824 0.0
O351 O 0.24693 0.20077 0.05138 0.0
H352 H 0.25592 0.3346 0.15612 0.0
H353 H 0.27915 0.37755 0.14234 0.0
H354 H 0.3215 0.36526 1.01248 0.0
H355 H 0.2984 0.32213 0.02648 0.0
H356 H 0.24901 0.17883 0.89684 0.0
H357 H 0.22473 0.13697 0.90948 0.0
H358 H 0.16533 0.16417 0.03215 0.0
H359 H 0.19017 0.20552 1.01987 0.0
Pr360 Pr 0.23153 1.00511 0.24969 0.0
Pr361 Pr 0.26001 0.02466 0.3079 0.0
C362 C 0.18752 1.00365 0.21658 0.0
C363 C 0.17545 1.00073 0.18488 0.0
C364 C 0.19719 0.97451 0.15889 0.0
C365 C 0.18279 0.97048 0.13238 0.0
C366 C 0.1467 0.99257 0.13202 0.0
C367 C 0.12532 0.01851 0.15827 0.0
C368 C 0.13967 0.02279 0.18407 0.0
C369 C 0.30496 0.95796 0.24336 0.0
C370 C 0.26376 0.06491 0.20712 0.0
C371 C 0.30248 0.02211 0.34782 0.0
C372 C 0.30823 0.02898 0.3826 0.0
C373 C 0.29363 0.06423 0.38996 0.0
C374 C 0.30617 0.07082 0.41627 0.0
C375 C 0.33296 0.0422 0.43588 0.0
C376 C 0.34525 1.00667 0.43142 0.0
C377 C 0.33313 1.00013 0.40474 0.0
C378 C 0.18588 0.07126 0.3131 0.0
C379 C 0.23258 0.96059 0.34743 0.0
O380 O 0.18745 0.03388 0.21508 0.0
O381 O 0.21132 0.97444 0.23429 0.0
O382 O 0.28573 0.9837 0.26398 0.0
O383 O 0.28618 0.95877 0.22182 0.0
O384 O 0.27651 0.05506 0.24049 0.0
O385 O 0.24453 0.05144 0.20414 0.0
O386 O 0.29438 0.99585 0.35498 0.0
O387 O 0.28854 0.04941 0.31907 0.0
O388 O 0.20673 0.04512 0.29364 0.0
O389 O 0.20399 0.07321 0.33327 0.0
O390 O 0.21783 0.97157 0.31567 0.0
O391 O 0.25064 0.97535 0.35021 0.0
H392 H 0.22492 0.957 0.15952 0.0
H393 H 0.19964 0.95037 0.11226 0.0
H394 H 0.09723 0.03538 0.15911 0.0
H395 H 0.12247 0.04273 0.20441 0.0
H396 H 0.27421 0.08692 0.37349 0.0
H397 H 0.29646 0.09839 0.41946 0.0
H398 H 0.36606 0.98428 0.44621 0.0
H399 H 0.3449 0.97275 0.39938 0.0
Pr400 Pr 0.50571 0.27063 0.80349 0.0
Pr401 Pr 0.48826 0.25354 0.74863 0.0
C402 C 0.52407 0.29732 0.8461 0.0
C403 C 0.51494 0.31479 0.88107 0.0
C404 C 0.54284 0.31018 0.89469 0.0
C405 C 0.53641 0.33196 0.92119 0.0
C406 C 0.50187 0.35875 0.93454 0.0
C407 C 0.47331 0.36011 0.92515 0.0
C408 C 0.47986 0.33858 0.89801 0.0
C409 C 0.54717 0.19586 0.80272 0.0
C410 C 0.4402 0.25036 0.84793 0.0
C411 C 0.46938 0.22803 0.70515 0.0
C412 C 0.47937 0.2057 0.67451 0.0
C413 C 0.46076 0.22057 0.64286 0.0
C414 C 0.46529 0.19869 0.61758 0.0
C415 C 0.48862 0.1615 0.62347 0.0
C416 C 0.50843 0.14699 0.65398 0.0
C417 C 0.50394 0.16888 0.67919 0.0
C418 C 0.44588 0.32818 0.75344 0.0
C419 C 0.55471 0.27163 0.70506 0.0
O420 O 0.5087 0.31673 0.81489 0.0
O421 O 0.53003 0.26374 0.85447 0.0
O422 O 0.54154 0.21993 0.77017 0.0
O423 O 0.52797 0.21011 0.83603 0.0
O424 O 0.45236 0.237 0.81325 0.0
O425 O 0.45383 0.26937 0.8511 0.0
O426 O 0.47647 0.21171 0.74196 0.0
O427 O 0.47168 0.25834 0.69157 0.0
O428 O 0.45212 0.30243 0.78407 0.0
O429 O 0.46431 0.31576 0.71883 0.0
O430 O 0.54011 0.28811 0.73771 0.0
O431 O 0.5429 0.25022 0.70404 0.0
H432 H 0.57004 0.2915 0.88239 0.0
H433 H 0.55895 0.33003 0.92798 0.0
H434 H 0.44624 0.37974 0.93615 0.0
H435 H 0.45786 0.34198 0.88847 0.0
H436 H 0.44152 0.24889 0.63884 0.0
H437 H 0.44973 0.21062 0.59432 0.0
H438 H 0.52606 0.11828 0.65995 0.0
H439 H 0.51854 0.15666 0.70347 0.0
Pr440 Pr 0.00502 0.77563 0.80584 0.0
Pr441 Pr 0.99161 0.75009 0.7427 0.0
C442 C -0.00232 0.81984 0.85024 0.0
C443 C -0.00077 0.82414 0.8895 0.0
C444 C 0.03111 0.80551 0.90286 0.0
C445 C 0.03543 0.81882 0.93081 0.0
C446 C 0.00797 0.85069 0.94532 0.0
C447 C 0.97435 0.86552 0.93743 0.0
C448 C 0.9701 0.85247 0.90929 0.0
C449 C 0.05424 0.70227 0.8082 0.0
C450 C 0.94115 0.74958 0.8418 0.0
C451 C 0.98534 0.71345 0.70047 0.0
C452 C -0.00327 0.69454 0.66615 0.0
C453 C 0.98297 0.71372 0.63026 0.0
C454 C 0.9852 0.69525 0.60274 0.0
C455 C 0.0008 0.65741 0.61112 0.0
C456 C 0.01735 0.63833 0.64494 0.0
C457 C 0.01534 0.65676 0.67225 0.0
C458 C 0.94333 0.82414 0.74242 0.0
C459 C 0.05561 0.7749 0.70594 0.0
O460 O 0.97127 0.81515 0.85085 0.0
O461 O 0.02749 0.80271 0.82429 0.0
O462 O 0.0318 0.71958 0.78527 0.0
O463 O 0.04858 0.72215 0.8332 0.0
O464 O 0.95 0.74172 0.80434 0.0
O465 O 0.95876 0.76145 0.85121 0.0
O466 O -8e-05 0.6973 0.73272 0.0
O467 O 0.97459 0.74829 0.69111 0.0
O468 O 0.96669 0.80461 0.7635 0.0
O469 O 0.94577 0.80521 0.71881 0.0
O470 O 0.04374 0.78779 0.74118 0.0
O471 O 0.0417 0.75748 0.69951 0.0
H472 H 0.05376 0.78312 0.88856 0.0
H473 H 0.06158 0.8072 0.93646 0.0
H474 H 0.95298 0.89041 0.94799 0.0
H475 H 0.9452 0.86706 0.8996 0.0
H476 H 0.96836 0.74298 0.62485 0.0
H477 H 0.97307 0.71053 0.57631 0.0
H478 H 0.02957 0.60905 0.65228 0.0
H479 H 0.02608 0.64134 0.69969 0.0
Pr480 Pr 0.73492 0.50411 0.243 0.0
Pr481 Pr 0.7618 0.52017 0.30486 0.0
C482 C 0.69073 0.50745 0.20491 0.0
C483 C 0.68192 0.5034 0.17055 0.0
C484 C 0.69997 0.47067 0.15546 0.0
C485 C 0.68657 0.46553 0.12876 0.0
C486 C 0.65503 0.49301 0.11685 0.0
C487 C 0.63838 0.52645 0.12988 0.0
C488 C 0.65165 0.53153 0.1566 0.0
C489 C 0.80807 0.45495 0.23793 0.0
C490 C 0.76849 0.56278 0.20418 0.0
C491 C 0.80482 0.51529 0.34554 0.0
C492 C 0.81025 0.51799 0.38324 0.0
C493 C 0.79403 0.55135 0.39639 0.0
C494 C 0.80741 0.55547 0.42385 0.0
C495 C 0.8371 0.52635 0.43803 0.0
C496 C 0.85046 0.49206 0.42885 0.0
C497 C 0.83709 0.48792 0.40157 0.0
C498 C 0.68856 0.56913 0.3105 0.0
C499 C 0.73101 0.45966 0.34275 0.0
O500 O 0.69629 0.53496 0.20043 0.0
O501 O 0.70859 0.47838 0.22927 0.0
O502 O 0.78856 0.47962 0.26012 0.0
O503 O 0.78982 0.45743 0.21439 0.0
O504 O 0.77786 0.55404 0.23981 0.0
O505 O 0.75109 0.54875 0.19821 0.0
O506 O 0.80063 0.48768 0.34666 0.0
O507 O 0.78726 0.54508 0.32165 0.0
O508 O 0.70807 0.54453 0.28814 0.0
O509 O 0.70692 0.56686 0.33369 0.0
O510 O 0.72155 0.4682 0.30731 0.0
O511 O 0.74687 0.47485 0.34953 0.0
H512 H 0.7235 0.44861 0.16563 0.0
H513 H 0.70015 0.43973 0.11852 0.0
H514 H 0.61398 0.54805 0.12122 0.0
H515 H 0.63717 0.55689 0.16808 0.0
H516 H 0.77304 0.57489 0.38295 0.0
H517 H 0.79688 0.58211 0.43062 0.0
H518 H 0.87336 0.46927 0.43969 0.0
H519 H 0.84988 0.46191 0.39198 0.0
Pr520 Pr 0.75233 0.77018 0.05058 0.0
Pr521 Pr 0.7425 0.74957 0.99818 0.0
C522 C 0.75894 0.80662 0.09309 0.0
C523 C 0.76754 0.83647 0.08384 0.0
C524 C 0.7477 0.86289 0.10944 0.0
C525 C 0.75874 0.88834 0.10535 0.0
C526 C 0.78976 0.8873 0.07573 0.0
C527 C 0.80732 0.8634 0.04716 0.0
C528 C 0.79618 0.83813 0.05106 0.0
C529 C 0.69004 0.76118 0.09055 0.0
C530 C 0.72545 0.83265 0.96962 0.0
C531 C 0.73271 0.71414 0.95767 0.0
C532 C 0.72229 0.68534 0.96889 0.0
C533 C 0.74043 0.65822 0.94442 0.0
C534 C 0.72725 0.63416 0.95012 0.0
C535 C 0.69573 0.63739 0.98015 0.0
C536 C 0.68013 0.66165 1.00793 0.0
C537 C 0.6934 0.68554 1.0024 0.0
C538 C 0.80533 0.7569 0.95764 0.0
C539 C 0.77401 0.68653 0.07712 0.0
O540 O 0.78467 0.77593 0.0819 0.0
O541 O 0.72879 0.8154 0.08625 0.0
O542 O 0.6961 0.77696 0.05265 0.0
O543 O 0.717 0.7483 0.10613 0.0
O544 O 0.71519 0.81073 0.96642 0.0
O545 O 0.74432 0.82124 0.99703 0.0
O546 O 0.7082 0.74545 0.96828 0.0
O547 O 0.76355 0.70431 0.96347 0.0
O548 O 0.79889 0.74225 0.99608 0.0
O549 O 0.77854 0.76942 0.94188 0.0
O550 O 0.78245 0.70959 0.08105 0.0
O551 O 0.75463 0.69718 0.05047 0.0
H552 H 0.72499 0.86242 0.13424 0.0
H553 H 0.74506 0.90648 0.12777 0.0
H554 H 0.83142 0.86228 0.0242 0.0
H555 H 0.81121 0.81859 0.03017 0.0
H556 H 0.76334 0.6572 0.91912 0.0
H557 H 0.73948 0.61573 0.92828 0.0
H558 H 0.6557 0.66447 0.03123 0.0
H559 H 0.67968 0.70562 1.02248 0.0
Pr560 Pr 0.51428 0.0259 0.48246 0.0
Pr561 Pr 0.48771 0.98922 0.56536 0.0
C562 C 0.54718 0.06108 0.42096 0.0
C563 C 0.56804 0.07643 0.42439 0.0
C564 C 0.60386 0.06463 0.40286 0.0
C565 C 0.62515 0.07504 0.41097 0.0
C566 C 0.61083 0.09722 0.44091 0.0
C567 C 0.57478 0.10956 0.4616 0.0
C568 C 0.55366 0.09916 0.45364 0.0
C569 C 0.51106 0.96665 0.47569 0.0
C570 C 0.56718 0.97514 0.55021 0.0
C571 C 0.45267 0.95513 0.62466 0.0
C572 C 0.42961 0.94461 0.61713 0.0
C573 C 0.39998 0.94322 0.64798 0.0
C574 C 0.37722 0.93535 0.63879 0.0
C575 C 0.38401 0.92902 0.5987 0.0
C576 C 0.4131 0.93133 0.56767 0.0
C577 C 0.43562 0.93919 0.5768 0.0
C578 C 0.48935 0.05017 0.57045 0.0
C579 C 0.43392 0.04064 0.49977 0.0
O580 O 0.513 0.07679 0.43766 0.0
O581 O 0.5614 0.02575 0.4295 0.0
O582 O 0.52205 0.9668 0.50436 0.0
O583 O 0.50471 0.99605 0.44808 0.0
O584 O 0.54595 0.96018 0.57143 0.0
O585 O 0.5588 1.00244 0.51885 0.0
O586 O 0.48654 0.93803 0.60718 0.0
O587 O 0.44087 0.99007 0.61926 0.0
O588 O 0.4785 0.04873 0.54259 0.0
O589 O 0.49714 0.02087 0.59834 0.0
O590 O 0.45515 0.05558 0.47819 0.0
O591 O 0.44318 0.01257 0.52985 0.0
H592 H 0.61554 0.04671 0.38055 0.0
H593 H 0.65261 0.06597 0.39364 0.0
H594 H 0.56295 0.12672 0.48478 0.0
H595 H 0.52632 0.10816 0.47147 0.0
H596 H 0.39456 0.9481 0.67895 0.0
H597 H 0.35497 0.93325 0.66313 0.0
H598 H 0.41872 0.92639 0.53663 0.0
H599 H 0.45784 0.94104 0.55228 0.0
Pr600 Pr 0.50462 0.53698 0.98068 0.0
Pr601 Pr 0.48591 0.49227 0.06226 0.0
C602 C 0.53256 0.57754 0.92168 0.0
C603 C 0.55681 0.58834 0.92604 0.0
C604 C 0.59237 0.5746 0.90306 0.0
C605 C 0.61718 0.57922 0.91245 0.0
C606 C 0.60654 0.59781 0.94475 0.0
C607 C 0.57104 0.6118 0.9674 0.0
C608 C 0.54641 0.60708 0.95825 0.0
C609 C 0.50668 0.47641 0.969 0.0
C610 C 0.56288 0.4875 0.04236 0.0
C611 C 0.45644 0.45263 0.12054 0.0
C612 C 0.43376 0.44211 0.11219 0.0
C613 C 0.4044 0.43975 0.1427 0.0
C614 C 0.3811 0.43363 0.13206 0.0
C615 C 0.38696 0.4301 0.09081 0.0
C616 C 0.41565 0.43372 0.06022 0.0
C617 C 0.43882 0.43952 0.07092 0.0
C618 C 0.48115 0.55505 0.07183 0.0
C619 C 0.42795 0.54187 1.00058 0.0
O620 O 0.49973 0.59166 0.94391 0.0
O621 O 0.546 0.54284 0.92273 0.0
O622 O 0.51819 0.476 0.99766 0.0
O623 O 0.49743 0.50724 0.9438 0.0
O624 O 0.54532 0.46841 0.06307 0.0
O625 O 0.55037 0.51606 1.01372 0.0
O626 O 0.48995 0.43811 0.10045 0.0
O627 O 0.44282 0.48744 0.11876 0.0
O628 O 0.47025 0.5534 0.04417 0.0
O629 O 0.49294 0.52438 0.09695 0.0
O630 O 0.44531 0.56114 0.98019 0.0
O631 O 0.44034 0.51324 0.02906 0.0
H632 H 0.60111 0.55943 0.87868 0.0
H633 H 0.64445 0.56868 0.89433 0.0
H634 H 0.56242 0.62626 0.99244 0.0
H635 H 0.51947 0.61727 0.97732 0.0
H636 H 0.39943 0.44285 0.1744 0.0
H637 H 0.35902 0.43085 0.15613 0.0
H638 H 0.4203 0.43179 0.02807 0.0
H639 H 0.46043 0.44276 0.04664 0.0
C640 C 0.9754 0.11763 0.04467 0.0
C641 C 0.98115 0.08525 0.074 0.0
C642 C 0.97691 0.14623 0.05283 0.0
C643 C 0.98424 0.14293 0.09046 0.0
H644 H 0.97004 0.1207 1.01533 0.0
H645 H 0.97255 0.17076 0.02972 0.0
S646 S 0.00057 0.0647 0.17759 0.0
N647 N 0.99389 0.05255 0.14257 0.0
N648 N -0.00333 0.10576 0.15709 0.0
C649 C 0.98968 0.11103 0.11984 0.0
C650 C 0.98812 0.08233 0.11185 0.0
C651 C 0.85943 0.23074 0.40395 0.0
C652 C 0.8474 0.24351 0.44184 0.0
C653 C 0.88968 0.23189 0.37307 0.0
C654 C 0.90994 0.24543 0.37857 0.0
H655 H 0.84489 0.2203 0.39766 0.0
H656 H 0.89694 0.22239 0.34438 0.0
S657 S 0.8911 0.27986 0.47389 0.0
N658 N 0.85906 0.26877 0.48372 0.0
N659 N 0.91571 0.2706 0.42696 0.0
C660 C 0.89841 0.25767 0.41692 0.0
C661 C 0.86733 0.25683 0.44805 0.0
C662 C 0.77901 0.11628 0.67564 0.0
C663 C 0.76906 0.09298 0.66923 0.0
C664 C 0.77906 0.14705 0.64561 0.0
C665 C 0.76899 0.15597 0.60793 0.0
H666 H 0.78591 0.11132 0.70462 0.0
H667 H 0.78583 0.1646 0.65268 0.0
S668 S 0.74278 0.10285 0.5743 0.0
N669 N 0.75057 0.08048 0.62083 0.0
N670 N 0.75082 0.13746 0.56497 0.0
C671 C 0.76041 0.13206 0.60043 0.0
C672 C 0.76042 0.10086 0.63083 0.0
C673 C 0.91956 0.02827 0.93281 0.0
C674 C 0.90955 0.04123 0.96965 0.0
C675 C 0.8957 0.02374 0.92132 0.0
C676 C 0.86098 0.0323 0.94615 0.0
H677 H 0.94647 0.02013 0.91369 0.0
H678 H 0.90443 0.01375 0.89254 0.0
S679 S 0.82235 0.06711 0.04579 0.0
N680 N 0.86343 0.06203 0.03133 0.0
N681 N 0.81779 0.05472 1.00906 0.0
C682 C 0.85057 0.04579 0.98285 0.0
C683 C 0.87513 0.04986 0.99482 0.0
C684 C 0.10825 0.95703 0.08665 0.0
C685 C 0.08727 0.98875 0.06261 0.0
C686 C 0.12978 0.95754 0.10701 0.0
C687 C 0.13046 0.98987 0.10416 0.0
H688 H 0.10744 0.93198 0.09046 0.0
H689 H 0.14452 0.93304 0.12671 0.0
S690 S 0.08032 0.0801 0.04625 0.0
N691 N 0.06858 0.0535 0.03782 0.0
N692 N 0.10971 0.05365 0.07493 0.0
C693 C 0.11069 0.02127 0.07913 0.0
C694 C 0.0888 0.02096 0.05875 0.0
C695 C 0.97771 0.43513 0.49179 0.0
C696 C 0.01132 0.43354 0.48153 0.0
C697 C 0.97347 0.40926 0.48237 0.0
C698 C 0.00263 0.38154 0.46134 0.0
H699 H 0.95421 0.4577 0.50471 0.0
H700 H 0.94678 0.4127 0.48852 0.0
S701 S 0.09662 0.36514 0.43008 0.0
N702 N 0.07447 0.40131 0.4524 0.0
N703 N 0.06679 0.35303 0.43304 0.0
C704 C 0.03682 0.3784 0.45357 0.0
C705 C 0.04106 0.40455 0.46381 0.0
C706 C 0.64104 0.24991 0.61735 0.0
C707 C 0.64556 0.28144 0.60605 0.0
C708 C 0.61151 0.24725 0.64856 0.0
C709 C 0.58525 0.27571 0.67077 0.0
H710 H 0.66072 0.2268 0.60225 0.0
H711 H 0.60972 0.22223 0.65604 0.0
S712 S 0.58311 0.36491 0.65236 0.0
N713 N 0.61964 0.34254 0.61899 0.0
N714 N 0.56538 0.33704 0.67775 0.0
C715 C 0.58924 0.30747 0.65954 0.0
C716 C 0.6189 0.31046 0.62728 0.0
C717 C 0.73162 0.92095 0.91678 0.0
C718 C 0.72628 0.92797 0.87668 0.0
C719 C 0.7295 0.89119 0.94699 0.0
C720 C 0.72217 0.86673 0.93861 0.0
H721 H 0.73796 0.93838 0.92484 0.0
H722 H 0.73453 0.88688 0.97701 0.0
S723 S 0.7073 0.87198 0.83783 0.0
N724 N 0.71363 0.90753 0.83005 0.0
N725 N 0.71004 0.85157 0.88651 0.0
C726 C 0.71624 0.87369 0.8988 0.0
C727 C 0.71821 0.90421 0.86801 0.0
C728 C 0.13577 0.25524 0.11032 0.0
C729 C 0.14612 0.28145 0.10697 0.0
C730 C 0.10541 0.25358 0.14058 0.0
C731 C 0.08421 0.27755 0.16972 0.0
H732 H 0.15128 0.23576 0.08936 0.0
H733 H 0.099 0.23271 0.14166 0.0
S734 S 0.10044 0.35042 0.17575 0.0
N735 N 0.1325 0.33173 0.13642 0.0
N736 N 0.07676 0.32803 0.19315 0.0
C737 C 0.09456 0.30362 0.1669 0.0
C738 C 0.12501 0.30572 0.13571 0.0
C739 C 0.70833 0.43244 0.41575 0.0
C740 C 0.72772 0.4286 0.37419 0.0
C741 C 0.70751 0.40225 0.44632 0.0
C742 C 0.72601 0.36736 0.43621 0.0
H743 H 0.69402 0.45883 0.42472 0.0
H744 H 0.69265 0.40614 0.4781 0.0
S745 S 0.78521 0.34231 0.33378 0.0
N746 N 0.7686 0.38678 0.3258 0.0
N747 N 0.76699 0.33037 0.38295 0.0
C748 C 0.746 0.3632 0.39504 0.0
C749 C 0.74688 0.39376 0.36409 0.0
C750 C 0.58829 0.9663 0.61154 0.0
C751 C 0.59547 0.96848 0.56818 0.0
C752 C 0.60966 0.96997 0.62873 0.0
C753 C 0.63937 0.9752 0.60336 0.0
H754 H 0.56451 0.9645 0.63203 0.0
H755 H 0.60206 0.97022 0.66198 0.0
S756 S 0.67212 0.9781 0.4888 0.0
N757 N 0.63586 0.97326 0.50064 0.0
N758 N 0.67685 0.97902 0.53334 0.0
C759 C 0.64837 0.97483 0.5604 0.0
C760 C 0.62616 0.97177 0.54272 0.0
C761 C 0.0214 0.90657 0.99466 0.0
C762 C 0.02579 0.93271 0.95978 0.0
C763 C 0.01669 0.87868 0.99044 0.0
C764 C 0.01758 0.87585 0.95097 0.0
H765 H 0.0196 0.90884 0.02552 0.0
H766 H 0.01118 0.86018 1.01805 0.0
S767 S 0.0346 0.93341 0.84928 0.0
N768 N 0.03493 0.95118 0.88414 0.0
N769 N 0.02722 0.8984 0.87617 0.0
C770 C 0.02491 0.89996 0.91565 0.0
C771 C 0.02892 0.92847 0.92001 0.0
C772 C 0.15908 0.09016 0.95914 0.0
C773 C 0.12601 0.11671 0.94981 0.0
C774 C 0.18043 0.09957 0.969 0.0
C775 C 0.16872 0.13556 0.97117 0.0
H776 H 0.16884 0.06206 0.95803 0.0
H777 H 0.20652 0.07894 0.97374 0.0
S778 S 0.08472 0.21502 0.95053 0.0
N779 N 0.08335 0.18066 0.94298 0.0
N780 N 0.12228 0.1975 0.96464 0.0
C781 C 0.13521 0.1619 0.96405 0.0
C782 C 0.1141 0.15271 0.95262 0.0
C783 C 0.62781 0.61353 0.34556 0.0
C784 C 0.65133 0.59917 0.30907 0.0
C785 C 0.59425 0.64436 0.34483 0.0
C786 C 0.58255 0.66311 0.30737 0.0
H787 H 0.63563 0.60103 0.37511 0.0
H788 H 0.57768 0.65408 0.37391 0.0
S789 S 0.63531 0.63876 0.2022 0.0
N790 N 0.66088 0.60733 0.23399 0.0
N791 N 0.59879 0.66523 0.23215 0.0
C792 C 0.60604 0.64913 0.27052 0.0
C793 C 0.64 0.61733 0.27146 0.0
C794 C 0.30848 0.92355 0.58276 0.0
C795 C 0.32446 0.88711 0.57876 0.0
C796 C 0.32796 0.93757 0.58856 0.0
C797 C 0.36374 0.91538 0.59051 0.0
H798 H 0.28066 0.94091 0.58249 0.0
H799 H 0.31487 0.96554 0.59228 0.0
S800 S 0.41695 0.81812 0.58361 0.0
N801 N 0.37762 0.82918 0.57819 0.0
N802 N 0.41411 0.85566 0.58873 0.0
C803 C 0.37999 0.87924 0.58591 0.0
C804 C 0.36035 0.86504 0.58006 0.0
C805 C 0.11831 0.6666 0.8082 0.0
C806 C 0.08851 0.66807 0.802 0.0
C807 C 0.1507 0.63505 0.80758 0.0
C808 C 0.15558 0.6027 0.80078 0.0
H809 H 0.11657 0.69022 0.81429 0.0
H810 H 0.17218 0.63606 0.81324 0.0
S811 S 0.08662 0.59155 0.78101 0.0
N812 N 0.06628 0.63426 0.78709 0.0
N813 N 0.12764 0.57439 0.78606 0.0
C814 C 0.12652 0.60372 0.79284 0.0
C815 C 0.09297 0.63645 0.79341 0.0
C816 C 0.85166 0.36967 0.58776 0.0
C817 C 0.81858 0.39415 0.57822 0.0
C818 C 0.87197 0.38167 0.59477 0.0
C819 C 0.86024 0.41873 0.59183 0.0
H820 H 0.86124 0.34079 0.59161 0.0
H821 H 0.89662 0.36152 0.60386 0.0
S822 S 0.77676 0.49398 0.56311 0.0
N823 N 0.77532 0.45696 0.5638 0.0
N824 N 0.81446 0.48015 0.57528 0.0
C825 C 0.82765 0.44374 0.58059 0.0
C826 C 0.80657 0.4313 0.57411 0.0
C827 C 0.33837 0.89109 0.25581 0.0
C828 C 0.3379 0.92415 0.25216 0.0
C829 C 0.36865 0.85792 0.26035 0.0
C830 C 0.40083 0.85556 0.26071 0.0
H831 H 0.31486 0.89072 0.25496 0.0
H832 H 0.36672 0.83375 0.26284 0.0
S833 S 0.41395 0.93399 0.25426 0.0
N834 N 0.37217 0.9526 0.25115 0.0
N835 N 0.42987 0.88984 0.25872 0.0
C836 C 0.4009 0.88836 0.25788 0.0
C837 C 0.36933 0.92265 0.25395 0.0
C838 C 0.34587 0.39016 0.77618 0.0
C839 C 0.34291 0.42378 0.7516 0.0
C840 C 0.37931 0.35997 0.77846 0.0
C841 C 0.41121 0.36187 0.75519 0.0
H842 H 0.32209 0.38685 0.79274 0.0
H843 H 0.38012 0.33446 0.79694 0.0
S844 S 0.4181 0.444 0.68743 0.0
N845 N 0.3748 0.45763 0.7052 0.0
N846 N 0.43753 0.4007 0.70817 0.0
C847 C 0.4086 0.39555 0.73126 0.0
C848 C 0.37452 0.42653 0.72976 0.0
C849 C 0.15176 0.7547 0.64579 0.0
C850 C 0.14811 0.77909 0.60742 0.0
C851 C 0.1218 0.75443 0.67794 0.0
C852 C 0.08678 0.77819 0.67303 0.0
H853 H 0.17805 0.73596 0.65127 0.0
H854 H 0.1261 0.735 0.70666 0.0
S855 S 0.06242 0.84671 0.57854 0.0
N856 N 0.10634 0.82777 0.56685 0.0
N857 N 0.05047 0.82622 0.62616 0.0
C858 C 0.08279 0.80241 0.63474 0.0
C859 C 0.11326 0.80321 0.60237 0.0
C860 C 0.20681 0.91619 0.38493 0.0
C861 C 0.23159 0.92849 0.37961 0.0
C862 C 0.20713 0.88482 0.41406 0.0
C863 C 0.23215 0.86468 0.43909 0.0
H864 H 0.18704 0.93084 0.36643 0.0
H865 H 0.18759 0.87645 0.41714 0.0
S866 S 0.30512 0.88311 0.43422 0.0
N867 N 0.28353 0.91598 0.39986 0.0
N868 N 0.28361 0.85851 0.45458 0.0
C869 C 0.25726 0.87657 0.43355 0.0
C870 C 0.25713 0.90802 0.40388 0.0
C871 C 0.02508 0.60394 0.57931 0.0
C872 C -0.00347 0.63727 0.58856 0.0
C873 C 0.01969 0.57896 0.57016 0.0
C874 C 0.98621 0.58713 0.56717 0.0
H875 H 0.05128 0.59593 0.58239 0.0
H876 H 0.04182 0.55256 0.56672 0.0
S877 S 0.903 0.67147 0.58533 0.0
N878 N 0.93329 0.67781 0.59291 0.0
N879 N 0.92428 0.63112 0.57199 0.0
C880 C 0.95791 0.62136 0.5728 0.0
C881 C 0.96291 0.64658 0.58396 0.0
C882 C 0.35061 0.77054 0.42159 0.0
C883 C 0.34977 0.73774 0.44411 0.0
C884 C 0.38095 0.77134 0.39083 0.0
C885 C 0.41206 0.73938 0.38043 0.0
H886 H 0.32733 0.79596 0.4271 0.0
H887 H 0.37974 0.79746 0.37443 0.0
S888 S 0.42495 0.64621 0.43141 0.0
N889 N 0.3839 0.67222 0.45464 0.0
N890 N 0.44031 0.67383 0.39661 0.0
C891 C 0.41173 0.70637 0.40268 0.0
C892 C 0.38089 0.70554 0.43445 0.0
C893 C 0.2515 0.10747 0.13977 0.0
C894 C 0.26858 0.09434 0.17272 0.0
C895 C 0.2517 0.13759 0.10937 0.0
C896 C 0.26889 0.15637 0.11021 0.0
H897 H 0.23681 0.0951 0.13786 0.0
H898 H 0.23718 0.14675 0.08561 0.0
S899 S 0.3208 0.13132 0.18707 0.0
N900 N 0.30566 0.10116 0.20241 0.0
N901 N 0.30579 0.15801 0.14514 0.0
C902 C 0.28739 0.14283 0.14186 0.0
C903 C 0.2873 0.11185 0.17303 0.0
C904 C 0.87033 0.74379 0.94406 0.0
C905 C 0.841 0.75297 0.92916 0.0
C906 C 0.90282 0.74234 0.91611 0.0
C907 C 0.90772 0.74893 0.87213 0.0
H908 H 0.86794 0.73851 0.97743 0.0
H909 H 0.92427 0.73595 0.92907 0.0
S910 S 0.83941 0.77443 0.81665 0.0
N911 N 0.8195 0.76946 0.86666 0.0
N912 N 0.87991 0.76521 0.81556 0.0
C913 C 0.87878 0.75748 0.85711 0.0
C914 C 0.84573 0.75988 0.88515 0.0
C915 C 0.2348 0.62271 0.66169 0.0
C916 C 0.26616 0.59371 0.67271 0.0
C917 C 0.23525 0.65293 0.63159 0.0
C918 C 0.26706 0.65562 0.61125 0.0
H919 H 0.2095 0.62218 0.67673 0.0
H920 H 0.21032 0.67454 0.6243 0.0
S921 S 0.357 0.58569 0.62561 0.0
N922 N 0.33033 0.56861 0.65908 0.0
N923 N 0.33111 0.62579 0.60236 0.0
C924 C 0.29874 0.62681 0.62162 0.0
C925 C 0.29831 0.59578 0.6524 0.0
C926 C 0.37849 0.0607 0.42733 0.0
C927 C 0.35289 0.04947 0.45423 0.0
C928 C 0.40295 0.06107 0.44278 0.0
C929 C 0.40259 0.05 0.48564 0.0
H930 H 0.38105 0.06703 0.39381 0.0
H931 H 0.42386 0.06733 0.42062 0.0
S932 S 0.33636 0.02488 0.56962 0.0
N933 N 0.32558 0.03148 0.5259 0.0
N934 N 0.37112 0.03268 0.55538 0.0
C935 C 0.37517 0.04158 0.51317 0.0
C936 C 0.35046 0.04103 0.49735 0.0
C937 C 0.83995 0.87828 0.09769 0.0
C938 C 0.80925 0.90256 0.08246 0.0
C939 C 0.85989 0.89066 0.10494 0.0
C940 C 0.84974 0.92771 0.09717 0.0
H941 H 0.8487 0.84938 0.10388 0.0
H942 H 0.88387 0.87109 0.11585 0.0
S943 S 0.77092 1.00241 0.05847 0.0
N944 N 0.76874 0.96532 0.0611 0.0
N945 N 0.8069 0.98884 0.07438 0.0
C946 C 0.81871 0.95249 0.08275 0.0
C947 C 0.79815 0.93982 0.07555 0.0
C948 C 0.63695 0.15882 0.45997 0.0
C949 C 0.67203 0.13593 0.46406 0.0
C950 C 0.6176 0.14585 0.45256 0.0
C951 C 0.63244 0.10934 0.44951 0.0
H952 H 0.62487 0.18741 0.46066 0.0
H953 H 0.59107 0.16492 0.44801 0.0
S954 S 0.72259 0.03773 0.46203 0.0
N955 N 0.72066 0.07498 0.46679 0.0
N956 N 0.68375 0.04988 0.45407 0.0
C957 C 0.66727 0.08581 0.45498 0.0
C958 C 0.68719 0.09927 0.46206 0.0
C959 C 0.86811 0.41212 0.20124 0.0
C960 C 0.84555 0.42527 0.23857 0.0
C961 C 0.90064 0.38013 0.20072 0.0
C962 C 0.91266 0.35923 0.23751 0.0
H963 H 0.85984 0.426 0.17204 0.0
H964 H 0.9159 0.37078 0.17117 0.0
S965 S 0.86376 0.38087 0.34424 0.0
N966 N 0.83801 0.41449 0.31381 0.0
N967 N 0.89894 0.35445 0.31286 0.0
C968 C 0.89112 0.37264 0.27509 0.0
C969 C 0.85773 0.40552 0.27562 0.0
C970 C 0.12061 0.63079 0.47083 0.0
C971 C 0.1387 0.59818 0.45553 0.0
C972 C 0.13915 0.64544 0.47695 0.0
C973 C 0.17645 0.62795 0.46806 0.0
H974 H 0.09191 0.646 0.47634 0.0
H975 H 0.12418 0.67174 0.48629 0.0
S976 S 0.23586 0.53852 0.43522 0.0
N977 N 0.19557 0.54648 0.43672 0.0
N978 N 0.23069 0.57393 0.44897 0.0
C979 C 0.1948 0.59402 0.4557 0.0
C980 C 0.17585 0.57917 0.44913 0.0
C981 C 0.63068 0.10873 0.77204 0.0
C982 C 0.64715 0.09516 0.80575 0.0
C983 C 0.59835 0.14111 0.77109 0.0
C984 C 0.58116 0.16123 0.80382 0.0
H985 H 0.64285 0.09419 0.74621 0.0
H986 H 0.58667 0.15038 0.74462 0.0
S987 S 0.616 0.14052 0.89607 0.0
N988 N 0.64523 0.1067 0.87061 0.0
N989 N 0.5853 0.16673 0.86887 0.0
C990 C 0.59799 0.14841 0.83704 0.0
C991 C 0.63068 0.11566 0.838 0.0
C992 C 0.77494 0.62028 0.18071 0.0
C993 C 0.77549 0.59142 0.17047 0.0
C994 C 0.7767 0.65004 0.14997 0.0
C995 C 0.77916 0.65212 0.10771 0.0
H996 H 0.77136 0.62078 0.21305 0.0
H997 H 0.77419 0.67244 0.1598 0.0
S998 S 0.78662 0.58151 0.06341 0.0
N999 N 0.78236 0.56537 0.11411 0.0
N1000 N 0.7855 0.62105 0.05675 0.0
C1001 C 0.78162 0.6226 0.09677 0.0
C1002 C 0.77984 0.59237 0.12797 0.0
C1003 C 0.9159 0.53316 0.44022 0.0
C1004 C 0.9054 0.54395 0.47868 0.0
C1005 C 0.89332 0.5276 0.42768 0.0
C1006 C 0.8593 0.53329 0.45282 0.0
H1007 H 0.94252 0.52687 0.42086 0.0
H1008 H 0.90272 0.51827 0.39827 0.0
S1009 S 0.8186 0.56392 0.55502 0.0
N1010 N 0.85883 0.56096 0.54148 0.0
N1011 N 0.81525 0.55248 0.5165 0.0
C1012 C 0.8478 0.54571 0.49044 0.0
C1013 C 0.87124 0.55045 0.50379 0.0
C1014 C 0.10024 0.49034 0.62353 0.0
C1015 C 0.12927 0.49577 0.59583 0.0
C1016 C 0.08021 0.48208 0.60979 0.0
C1017 C 0.08827 0.47955 0.56773 0.0
H1018 H 0.09272 0.49282 0.65607 0.0
H1019 H 0.05676 0.48033 0.63154 0.0
S1020 S 0.16363 0.48761 0.48374 0.0
N1021 N 0.16696 0.49498 0.52532 0.0
N1022 N 0.12857 0.48018 0.49918 0.0
C1023 C 0.11822 0.48315 0.54016 0.0
C1024 C 0.13891 0.49116 0.55425 0.0
C1025 C 0.59046 0.78263 0.13169 0.0
C1026 C 0.58735 0.76929 0.17512 0.0
C1027 C 0.6234 0.78018 0.10408 0.0
C1028 C 0.65472 0.76348 0.11869 0.0
H1029 H 0.56719 0.79557 0.11906 0.0
H1030 H 0.62429 0.79143 0.07119 0.0
S1031 S 0.66119 0.72036 0.22923 0.0
N1032 N 0.61879 0.73688 0.23068 0.0
N1033 N 0.68005 0.73095 0.17996 0.0
C1034 C 0.6518 0.74889 0.162 0.0
C1035 C 0.6184 0.75212 0.18983 0.0
C1036 C 0.62703 0.51077 0.05776 0.0
C1037 C 0.63751 0.48642 0.09381 0.0
C1038 C 0.60595 0.5083 0.03885 0.0
C1039 C 0.59275 0.48254 0.0566 0.0
H1040 H 0.63394 0.53286 0.04514 0.0
H1041 H 0.59777 0.52869 1.01191 0.0
S1042 S 0.61462 0.41101 0.14983 0.0
N1043 N 0.63571 0.43395 0.14493 0.0
N1044 N 0.59438 0.43032 0.11086 0.0
C1045 C 0.60455 0.45686 0.0916 0.0
C1046 C 0.62709 0.45873 0.11002 0.0
C1047 C 0.32803 0.43831 0.09072 0.0
C1048 C 0.36533 0.41919 0.08052 0.0
C1049 C 0.30735 0.42514 0.08622 0.0
C1050 C 0.32347 0.39253 0.07139 0.0
H1051 H 0.31486 0.46286 0.10355 0.0
H1052 H 0.27866 0.43958 0.09618 0.0
S1053 S 0.42021 0.33332 0.03899 0.0
N1054 N 0.41754 0.36705 0.05348 0.0
N1055 N 0.37875 0.3423 0.04504 0.0
C1056 C 0.36072 0.37432 0.05897 0.0
C1057 C 0.38168 0.38765 0.06359 0.0
C1058 C 0.08539 0.13456 0.33271 0.0
C1059 C 0.08289 0.16605 0.3027 0.0
C1060 C 0.11837 0.10288 0.33409 0.0
C1061 C 0.15036 0.10136 0.3057 0.0
H1062 H 0.062 0.135 0.3567 0.0
H1063 H 0.11908 0.08006 0.35894 0.0
S1064 S 0.15869 0.17626 0.22124 0.0
N1065 N 0.11574 0.19316 0.24375 0.0
N1066 N 0.17705 0.13431 0.24641 0.0
C1067 C 0.148 0.13224 0.27482 0.0
C1068 C 0.11453 0.16433 0.27333 0.0
C1069 C 0.22435 0.37015 0.89652 0.0
C1070 C 0.22104 0.36857 0.93886 0.0
C1071 C 0.22528 0.40023 0.866 0.0
C1072 C 0.22295 0.42993 0.87659 0.0
H1073 H 0.22806 0.34725 0.88651 0.0
H1074 H 0.22954 0.39939 0.83358 0.0
S1075 S 0.20788 0.44165 0.98406 0.0
N1076 N 0.21119 0.40114 0.99042 0.0
N1077 N 0.21288 0.45749 0.93327 0.0
C1078 C 0.2175 0.42954 0.91915 0.0
C1079 C 0.21654 0.39896 0.95018 0.0
C1080 C 0.35626 0.23655 0.9027 0.0
C1081 C 0.34701 0.24342 0.9434 0.0
C1082 C 0.38651 0.23824 0.87253 0.0
C1083 C 0.40922 0.24667 0.88157 0.0
H1084 H 0.3396 0.23036 0.89382 0.0
H1085 H 0.39173 0.23349 0.84155 0.0
S1086 S 0.39874 0.26332 0.98507 0.0
N1087 N 0.36421 0.25686 0.99186 0.0
N1088 N 0.42101 0.25957 0.936 0.0
C1089 C 0.40063 0.25271 0.92264 0.0
C1090 C 0.36964 0.25123 0.95322 0.0
C1091 C 0.37709 0.52967 1.01216 0.0
C1092 C 0.39853 0.54663 0.98611 0.0
C1093 C 0.355 0.52564 0.9965 0.0
C1094 C 0.35312 0.53911 0.95451 0.0
H1095 H 0.37875 0.51773 0.04442 0.0
H1096 H 0.34037 0.5108 1.01686 0.0
S1097 S 0.40311 0.58554 0.87324 0.0
N1098 N 0.41581 0.57718 0.91611 0.0
N1099 N 0.37369 0.57013 0.88718 0.0
C1100 C 0.37299 0.55746 0.92862 0.0
C1101 C 0.39572 0.56131 0.94434 0.0
C1102 C 0.64254 0.65164 0.9604 0.0
C1103 C 0.6737 0.62502 0.97362 0.0
C1104 C 0.6216 0.64226 0.95034 0.0
C1105 C 0.63112 0.60591 0.95297 0.0
H1106 H 0.63458 0.68011 0.95713 0.0
H1107 H 0.59772 0.66366 0.94031 0.0
S1108 S 0.71033 0.52588 0.98573 0.0
N1109 N 0.71344 0.56086 0.98881 0.0
N1110 N 0.67388 0.54292 0.9691 0.0
C1111 C 0.66254 0.57883 0.96548 0.0
C1112 C 0.68392 0.58848 0.97606 0.0
C1113 C 0.87848 0.85654 0.77263 0.0
C1114 C 0.91065 0.85837 0.75151 0.0
C1115 C 0.84535 0.88742 0.77224 0.0
C1116 C 0.84296 0.92157 0.75087 0.0
H1117 H 0.87887 0.83059 0.78766 0.0
H1118 H 0.82135 0.88427 0.78739 0.0
S1119 S 0.91909 0.94159 0.69187 0.0
N1120 N 0.93795 0.89752 0.70943 0.0
N1121 N 0.87569 0.95579 0.70941 0.0
C1122 C 0.87487 0.92424 0.73121 0.0
C1123 C 0.90872 0.89259 0.73132 0.0
C1124 C 0.45751 0.139 0.60106 0.0
C1125 C 0.48953 0.13706 0.60139 0.0
C1126 C 0.45756 0.11201 0.58775 0.0
C1127 C 0.4896 0.0823 0.57452 0.0
H1128 H 0.43216 0.16024 0.61361 0.0
H1129 H 0.4324 0.11322 0.59037 0.0
S1130 S 0.58051 0.06787 0.56221 0.0
N1131 N 0.55409 0.10568 0.58141 0.0
N1132 N 0.55401 0.05458 0.55774 0.0
C1133 C 0.5217 0.08139 0.57187 0.0
C1134 C 0.52173 0.10893 0.5849 0.0
C1135 C 0.51593 0.38297 0.97873 0.0
C1136 C 0.49745 0.38928 0.94952 0.0
C1137 C 0.51841 0.41122 0.9859 0.0
C1138 C 0.5025 0.44669 0.96405 0.0
H1139 H 0.52964 0.35577 0.99499 0.0
H1140 H 0.53352 0.40513 1.00786 0.0
S1141 S 0.44988 0.47776 0.8856 0.0
N1142 N 0.46227 0.43399 0.89963 0.0
N1143 N 0.4661 0.48679 0.91363 0.0
C1144 C 0.48271 0.45351 0.93618 0.0
C1145 C 0.48025 0.42494 0.92891 0.0
C1146 C 0.523 0.87284 0.48243 0.0
C1147 C 0.50113 0.88022 0.45689 0.0
C1148 C 0.52497 0.90104 0.49055 0.0
C1149 C 0.5059 0.93717 0.47231 0.0
H1150 H 0.53955 0.84511 0.49488 0.0
H1151 H 0.54275 0.8944 0.50942 0.0
S1152 S 0.44418 0.97046 0.40422 0.0
N1153 N 0.4592 0.9262 0.41485 0.0
N1154 N 0.46312 0.97878 0.42951 0.0
C1155 C 0.483 0.94478 0.44809 0.0
C1156 C 0.48057 0.91638 0.4405 0.0
C1157 C 0.51867 0.57735 0.0788 0.0
C1158 C 0.48653 0.58527 0.07194 0.0
C1159 C 0.52338 0.60371 0.08619 0.0
C1160 C 0.49518 0.63866 0.08988 0.0
H1161 H 0.53987 0.55005 0.0805 0.0
H1162 H 0.54857 0.59578 0.09216 0.0
S1163 S 0.40608 0.67367 0.0711 0.0
N1164 N 0.42731 0.63116 0.06435 0.0
N1165 N 0.43441 0.68053 0.08241 0.0
C1166 C 0.46338 0.64764 0.08041 0.0
C1167 C 0.45935 0.62088 0.07083 0.0
loop_
_geom_bond_atom_site_label_1
_geom_bond_atom_site_label_2
_geom_bond_distance
_geom_bond_site_symmetry_2
_ccdc_geom_bond_type
Pr0 C2 2.880 . S
Pr0 O20 2.562 . S
Pr0 O21 2.490 . S
Pr0 O22 2.695 1_545 S
Pr0 O23 2.512 1_545 S
Pr0 O25 2.453 1_545 S
Pr0 O28 2.436 1_456 S
Pr0 O30 2.438 1_455 S
Pr1 C11 2.880 . S
Pr1 O22 2.436 1_654 S
Pr1 O24 2.438 1_655 S
Pr1 O26 2.562 . S
Pr1 O27 2.490 . S
Pr1 O28 2.695 1_565 S
Pr1 O29 2.512 1_565 S
Pr1 O31 2.437 1_565 S
C2 Pr0 2.880 . S
C2 C3 1.491 . S
C2 O20 1.254 . S
C2 O21 1.225 . S
C3 C2 1.491 . S
C3 C4 1.392 . S
C3 C8 1.356 . S
C4 C3 1.392 . S
C4 C5 1.368 . S
C4 H32 0.929 . S
C5 C4 1.368 . S
C5 C6 1.386 . S
C5 H33 0.929 . S
C6 C5 1.386 . S
C6 C7 1.373 . S
C7 C6 1.373 . S
C7 C8 1.409 . S
C7 H34 0.931 . S
C8 C3 1.356 . S
C8 C7 1.409 . S
C8 H35 0.930 . S
C9 O22 1.270 . S
C9 O23 1.248 . S
C10 O24 1.267 . S
C10 O25 1.255 1_554 S
C11 Pr1 2.880 . S
C11 C12 1.491 . S
C11 O26 1.254 . S
C11 O27 1.225 . S
C12 C11 1.491 . S
C12 C13 1.392 . S
C12 C17 1.356 . S
C13 C12 1.392 . S
C13 C14 1.368 . S
C13 H36 0.929 . S
C14 C13 1.368 . S
C14 C15 1.386 . S
C14 H37 0.929 . S
C15 C14 1.386 . S
C15 C16 1.373 . S
C16 C15 1.373 . S
C16 C17 1.409 . S
C16 H38 0.931 . S
C17 C12 1.356 . S
C17 C16 1.409 . S
C17 H39 0.930 . S
C18 O28 1.270 . S
C18 O29 1.248 . S
C19 O30 1.267 . S
C19 O31 1.278 1_556 S
O20 Pr0 2.562 . S
O20 C2 1.254 . S
O21 Pr0 2.490 . S
O21 C2 1.225 . S
O22 Pr0 2.695 1_565 S
O22 Pr1 2.436 1_456 S
O22 C9 1.270 . S
O23 Pr0 2.512 1_565 S
O23 C9 1.248 . S
O24 Pr1 2.438 1_455 S
O24 C10 1.267 . S
O25 Pr0 2.453 1_565 S
O25 C10 1.255 1_556 S
O26 Pr1 2.562 . S
O26 C11 1.254 . S
O27 Pr1 2.490 . S
O27 C11 1.225 . S
O28 Pr0 2.436 1_654 S
O28 Pr1 2.695 1_545 S
O28 C18 1.270 . S
O29 Pr1 2.512 1_545 S
O29 C18 1.248 . S
O30 Pr0 2.438 1_655 S
O30 C19 1.267 . S
O31 Pr1 2.437 1_545 S
O31 C19 1.278 1_554 S
H32 C4 0.929 . S
H33 C5 0.929 . S
H34 C7 0.931 . S
H35 C8 0.930 . S
H36 C13 0.929 . S
H37 C14 0.929 . S
H38 C16 0.931 . S
H39 C17 0.930 . S
Pr40 C42 2.883 1_455 S
Pr40 O60 2.562 1_455 S
Pr40 O61 2.490 . S
Pr40 O62 2.695 . S
Pr40 O63 2.512 . S
Pr40 O65 2.437 1_455 S
Pr40 O68 2.436 1_455 S
Pr40 O70 2.438 . S
Pr41 C51 2.880 1_655 S
Pr41 O62 2.436 1_655 S
Pr41 O64 2.438 . S
Pr41 O66 2.562 1_655 S
Pr41 O67 2.490 . S
Pr41 O68 2.695 . S
Pr41 O69 2.512 . S
Pr41 O71 2.437 1_655 S
C42 Pr40 2.883 1_655 S
C42 C43 1.488 . S
C42 O60 1.267 . S
C42 O61 1.214 1_655 S
C43 C42 1.488 . S
C43 C44 1.392 1_655 S
C43 C48 1.356 . S
C44 C43 1.392 1_455 S
C44 C45 1.368 . S
C44 H72 0.929 . S
C45 C44 1.368 . S
C45 C46 1.386 1_455 S
C45 H73 0.929 . S
C46 C45 1.386 1_655 S
C46 C47 1.373 . S
C47 C46 1.373 . S
C47 C48 1.409 . S
C47 H74 0.931 . S
C48 C43 1.356 . S
C48 C47 1.409 . S
C48 H75 0.930 . S
C49 O62 1.270 . S
C49 O63 1.248 . S
C50 O64 1.267 . S
C50 O65 1.278 . S
C51 Pr41 2.880 1_455 S
C51 C52 1.491 . S
C51 O66 1.254 . S
C51 O67 1.225 1_455 S
C52 C51 1.491 . S
C52 C53 1.392 1_455 S
C52 C57 1.356 . S
C53 C52 1.392 1_655 S
C53 C54 1.368 . S
C53 H76 0.929 . S
C54 C53 1.368 . S
C54 C55 1.386 1_655 S
C54 H77 0.929 . S
C55 C54 1.386 1_455 S
C55 C56 1.373 . S
C56 C55 1.373 . S
C56 C57 1.409 . S
C56 H78 0.931 . S
C57 C52 1.356 . S
C57 C56 1.409 . S
C57 H79 0.930 . S
C58 O68 1.270 . S
C58 O69 1.248 . S
C59 O70 1.267 . S
C59 O71 1.278 . S
O60 Pr40 2.562 1_655 S
O60 C42 1.267 . S
O61 Pr40 2.490 . S
O61 C42 1.214 1_455 S
O62 Pr40 2.695 . S
O62 Pr41 2.436 1_455 S
O62 C49 1.270 . S
O63 Pr40 2.512 . S
O63 C49 1.248 . S
O64 Pr41 2.438 . S
O64 C50 1.267 . S
O65 Pr40 2.437 1_655 S
O65 C50 1.278 . S
O66 Pr41 2.562 1_455 S
O66 C51 1.254 . S
O67 Pr41 2.490 . S
O67 C51 1.225 1_655 S
O68 Pr40 2.436 1_655 S
O68 Pr41 2.695 . S
O68 C58 1.270 . S
O69 Pr41 2.512 . S
O69 C58 1.248 . S
O70 Pr40 2.438 . S
O70 C59 1.267 . S
O71 Pr41 2.437 1_455 S
O71 C59 1.278 . S
H72 C44 0.929 . S
H73 C45 0.929 . S
H74 C47 0.931 . S
H75 C48 0.930 . S
H76 C53 0.929 . S
H77 C54 0.929 . S
H78 C56 0.931 . S
H79 C57 0.930 . S
Pr80 C82 2.880 . S
Pr80 O100 2.562 . S
Pr80 O101 2.490 . S
Pr80 O102 2.695 . S
Pr80 O103 2.512 . S
Pr80 O105 2.437 . S
Pr80 O108 2.436 . S
Pr80 O110 2.438 . S
Pr81 C91 2.880 . S
Pr81 O102 2.436 . S
Pr81 O104 2.438 . S
Pr81 O106 2.562 . S
Pr81 O107 2.490 . S
Pr81 O108 2.695 . S
Pr81 O109 2.512 . S
Pr81 O111 2.437 . S
C82 Pr80 2.880 . S
C82 C83 1.491 . S
C82 O100 1.254 . S
C82 O101 1.225 . S
C83 C82 1.491 . S
C83 C84 1.392 . S
C83 C88 1.356 . S
C84 C83 1.392 . S
C84 C85 1.368 . S
C84 H112 0.929 . S
C85 C84 1.368 . S
C85 C86 1.386 . S
C85 H113 0.929 . S
C86 C85 1.386 . S
C86 C87 1.373 . S
C87 C86 1.373 . S
C87 C88 1.409 . S
C87 H114 0.931 . S
C88 C83 1.356 . S
C88 C87 1.409 . S
C88 H115 0.930 . S
C89 O102 1.270 . S
C89 O103 1.248 . S
C90 O104 1.267 . S
C90 O105 1.278 . S
C91 Pr81 2.880 . S
C91 C92 1.491 . S
C91 O106 1.254 . S
C91 O107 1.225 . S
C92 C91 1.491 . S
C92 C93 1.392 . S
C92 C97 1.356 . S
C93 C92 1.392 . S
C93 C94 1.368 . S
C93 H116 0.929 . S
C94 C93 1.368 . S
C94 C95 1.386 . S
C94 H117 0.929 . S
C95 C94 1.386 . S
C95 C96 1.373 . S
C96 C95 1.373 . S
C96 C97 1.409 . S
C96 H118 0.931 . S
C97 C92 1.356 . S
C97 C96 1.409 . S
C97 H119 0.930 . S
C98 O108 1.270 . S
C98 O109 1.248 . S
C99 O110 1.267 . S
C99 O111 1.278 . S
O100 Pr80 2.562 . S
O100 C82 1.254 . S
O101 Pr80 2.490 . S
O101 C82 1.225 . S
O102 Pr80 2.695 . S
O102 Pr81 2.436 . S
O102 C89 1.270 . S
O103 Pr80 2.512 . S
O103 C89 1.248 . S
O104 Pr81 2.438 . S
O104 C90 1.267 . S
O105 Pr80 2.437 . S
O105 C90 1.278 . S
O106 Pr81 2.562 . S
O106 C91 1.254 . S
O107 Pr81 2.490 . S
O107 C91 1.225 . S
O108 Pr80 2.436 . S
O108 Pr81 2.695 . S
O108 C98 1.270 . S
O109 Pr81 2.512 . S
O109 C98 1.248 . S
O110 Pr80 2.438 . S
O110 C99 1.267 . S
O111 Pr81 2.437 . S
O111 C99 1.278 . S
H112 C84 0.929 . S
H113 C85 0.929 . S
H114 C87 0.931 . S
H115 C88 0.930 . S
H116 C93 0.929 . S
H117 C94 0.929 . S
H118 C96 0.931 . S
H119 C97 0.930 . S
Pr120 C122 2.880 . S
Pr120 O140 2.562 1_565 S
Pr120 O141 2.490 . S
Pr120 O142 2.695 . S
Pr120 O143 2.512 . S
Pr120 O145 2.437 1_565 S
Pr120 O148 2.436 1_565 S
Pr120 O150 2.438 . S
Pr121 C131 2.880 . S
Pr121 O142 2.436 1_545 S
Pr121 O144 2.438 . S
Pr121 O146 2.562 1_545 S
Pr121 O147 2.490 . S
Pr121 O148 2.695 . S
Pr121 O149 2.512 . S
Pr121 O151 2.437 1_545 S
C122 Pr120 2.880 . S
C122 C123 1.491 1_565 S
C122 O140 1.254 1_565 S
C122 O141 1.225 . S
C123 C122 1.491 1_545 S
C123 C124 1.392 1_545 S
C123 C128 1.356 . S
C124 C123 1.392 1_565 S
C124 C125 1.368 . S
C124 H152 0.929 . S
C125 C124 1.368 . S
C125 C126 1.386 1_565 S
C125 H153 0.929 . S
C126 C125 1.386 1_545 S
C126 C127 1.373 . S
C127 C126 1.373 . S
C127 C128 1.409 . S
C127 H154 0.931 . S
C128 C123 1.356 . S
C128 C127 1.409 . S
C128 H155 0.930 . S
C129 O142 1.270 . S
C129 O143 1.248 . S
C130 O144 1.267 . S
C130 O145 1.278 . S
C131 Pr121 2.880 . S
C131 C132 1.491 1_545 S
C131 O146 1.254 1_545 S
C131 O147 1.225 . S
C132 C131 1.491 1_565 S
C132 C133 1.392 1_565 S
C132 C137 1.356 . S
C133 C132 1.392 1_545 S
C133 C134 1.368 . S
C133 H156 0.929 . S
C134 C133 1.368 . S
C134 C135 1.386 1_545 S
C134 H157 0.929 . S
C135 C134 1.386 1_565 S
C135 C136 1.373 . S
C136 C135 1.373 . S
C136 C137 1.409 . S
C136 H158 0.931 . S
C137 C132 1.356 . S
C137 C136 1.409 . S
C137 H159 0.930 . S
C138 O148 1.270 . S
C138 O149 1.248 . S
C139 O150 1.267 . S
C139 O151 1.278 . S
O140 Pr120 2.562 1_545 S
O140 C122 1.254 1_545 S
O141 Pr120 2.490 . S
O141 C122 1.225 . S
O142 Pr120 2.695 . S
O142 Pr121 2.436 1_565 S
O142 C129 1.270 . S
O143 Pr120 2.512 . S
O143 C129 1.248 . S
O144 Pr121 2.438 . S
O144 C130 1.267 . S
O145 Pr120 2.437 1_545 S
O145 C130 1.278 . S
O146 Pr121 2.562 1_565 S
O146 C131 1.254 1_565 S
O147 Pr121 2.490 . S
O147 C131 1.225 . S
O148 Pr120 2.436 1_545 S
O148 Pr121 2.695 . S
O148 C138 1.270 . S
O149 Pr121 2.512 . S
O149 C138 1.248 . S
O150 Pr120 2.438 . S
O150 C139 1.267 . S
O151 Pr121 2.437 1_565 S
O151 C139 1.278 . S
H152 C124 0.929 . S
H153 C125 0.929 . S
H154 C127 0.931 . S
H155 C128 0.930 . S
H156 C133 0.929 . S
H157 C134 0.929 . S
H158 C136 0.931 . S
H159 C137 0.930 . S
Pr160 C162 2.880 . S
Pr160 O180 2.562 . S
Pr160 O181 2.490 . S
Pr160 O182 2.695 . S
Pr160 O183 2.512 . S
Pr160 O185 2.437 . S
Pr160 O188 2.436 . S
Pr160 O190 2.438 . S
Pr161 C171 2.880 . S
Pr161 O182 2.436 . S
Pr161 O184 2.438 . S
Pr161 O186 2.562 . S
Pr161 O187 2.490 . S
Pr161 O188 2.695 . S
Pr161 O189 2.512 . S
Pr161 O191 2.437 . S
C162 Pr160 2.880 . S
C162 C163 1.491 . S
C162 O180 1.254 . S
C162 O181 1.225 . S
C163 C162 1.491 . S
C163 C164 1.392 . S
C163 C168 1.356 . S
C164 C163 1.392 . S
C164 C165 1.368 . S
C164 H192 0.929 . S
C165 C164 1.368 . S
C165 C166 1.386 . S
C165 H193 0.929 . S
C166 C165 1.386 . S
C166 C167 1.373 . S
C167 C166 1.373 . S
C167 C168 1.409 . S
C167 H194 0.931 . S
C168 C163 1.356 . S
C168 C167 1.409 . S
C168 H195 0.930 . S
C169 O182 1.270 . S
C169 O183 1.248 . S
C170 O184 1.267 . S
C170 O185 1.278 . S
C171 Pr161 2.880 . S
C171 C172 1.491 . S
C171 O186 1.254 . S
C171 O187 1.225 . S
C172 C171 1.491 . S
C172 C173 1.392 . S
C172 C177 1.356 . S
C173 C172 1.392 . S
C173 C174 1.368 . S
C173 H196 0.929 . S
C174 C173 1.368 . S
C174 C175 1.386 . S
C174 H197 0.929 . S
C175 C174 1.386 . S
C175 C176 1.373 . S
C176 C175 1.373 . S
C176 C177 1.409 . S
C176 H198 0.931 . S
C177 C172 1.356 . S
C177 C176 1.409 . S
C177 H199 0.930 . S
C178 O188 1.270 . S
C178 O189 1.248 . S
C179 O190 1.267 . S
C179 O191 1.278 . S
O180 Pr160 2.562 . S
O180 C162 1.254 . S
O181 Pr160 2.490 . S
O181 C162 1.225 . S
O182 Pr160 2.695 . S
O182 Pr161 2.436 . S
O182 C169 1.270 . S
O183 Pr160 2.512 . S
O183 C169 1.248 . S
O184 Pr161 2.438 . S
O184 C170 1.267 . S
O185 Pr160 2.437 . S
O185 C170 1.278 . S
O186 Pr161 2.562 . S
O186 C171 1.254 . S
O187 Pr161 2.490 . S
O187 C171 1.225 . S
O188 Pr160 2.436 . S
O188 Pr161 2.695 . S
O188 C178 1.270 . S
O189 Pr161 2.512 . S
O189 C178 1.248 . S
O190 Pr160 2.438 . S
O190 C179 1.267 . S
O191 Pr161 2.437 . S
O191 C179 1.278 . S
H192 C164 0.929 . S
H193 C165 0.929 . S
H194 C167 0.931 . S
H195 C168 0.930 . S
H196 C173 0.929 . S
H197 C174 0.929 . S
H198 C176 0.931 . S
H199 C177 0.930 . S
Pr200 C202 2.880 . S
Pr200 O220 2.562 . S
Pr200 O221 2.490 . S
Pr200 O222 2.695 . S
Pr200 O223 2.512 . S
Pr200 O225 2.437 . S
Pr200 O228 2.436 . S
Pr200 O230 2.438 . S
Pr201 C211 2.880 . S
Pr201 O222 2.436 . S
Pr201 O224 2.438 . S
Pr201 O226 2.562 . S
Pr201 O227 2.490 . S
Pr201 O228 2.695 . S
Pr201 O229 2.512 . S
Pr201 O231 2.437 . S
C202 Pr200 2.880 . S
C202 C203 1.491 . S
C202 O220 1.254 . S
C202 O221 1.225 . S
C203 C202 1.491 . S
C203 C204 1.392 . S
C203 C208 1.356 . S
C204 C203 1.392 . S
C204 C205 1.368 . S
C204 H232 0.929 . S
C205 C204 1.368 . S
C205 C206 1.386 . S
C205 H233 0.929 . S
C206 C205 1.386 . S
C206 C207 1.373 . S
C207 C206 1.373 . S
C207 C208 1.409 . S
C207 H234 0.931 . S
C208 C203 1.356 . S
C208 C207 1.409 . S
C208 H235 0.930 . S
C209 O222 1.270 . S
C209 O223 1.248 . S
C210 O224 1.267 . S
C210 O225 1.278 . S
C211 Pr201 2.880 . S
C211 C212 1.491 . S
C211 O226 1.254 . S
C211 O227 1.225 . S
C212 C211 1.491 . S
C212 C213 1.392 . S
C212 C217 1.356 . S
C213 C212 1.392 . S
C213 C214 1.368 . S
C213 H236 0.929 . S
C214 C213 1.368 . S
C214 C215 1.386 . S
C214 H237 0.929 . S
C215 C214 1.386 . S
C215 C216 1.373 . S
C216 C215 1.373 . S
C216 C217 1.409 . S
C216 H238 0.931 . S
C217 C212 1.356 . S
C217 C216 1.409 . S
C217 H239 0.930 . S
C218 O228 1.270 . S
C218 O229 1.248 . S
C219 O230 1.267 . S
C219 O231 1.278 . S
O220 Pr200 2.562 . S
O220 C202 1.254 . S
O221 Pr200 2.490 . S
O221 C202 1.225 . S
O222 Pr200 2.695 . S
O222 Pr201 2.436 . S
O222 C209 1.270 . S
O223 Pr200 2.512 . S
O223 C209 1.248 . S
O224 Pr201 2.438 . S
O224 C210 1.267 . S
O225 Pr200 2.437 . S
O225 C210 1.278 . S
O226 Pr201 2.562 . S
O226 C211 1.254 . S
O227 Pr201 2.490 . S
O227 C211 1.225 . S
O228 Pr200 2.436 . S
O228 Pr201 2.695 . S
O228 C218 1.270 . S
O229 Pr201 2.512 . S
O229 C218 1.248 . S
O230 Pr200 2.438 . S
O230 C219 1.267 . S
O231 Pr201 2.437 . S
O231 C219 1.278 . S
H232 C204 0.929 . S
H233 C205 0.929 . S
H234 C207 0.931 . S
H235 C208 0.930 . S
H236 C213 0.929 . S
H237 C214 0.929 . S
H238 C216 0.931 . S
H239 C217 0.930 . S
Pr240 C242 2.880 . S
Pr240 O260 2.562 . S
Pr240 O261 2.490 . S
Pr240 O262 2.695 . S
Pr240 O263 2.512 . S
Pr240 O265 2.437 . S
Pr240 O268 2.436 . S
Pr240 O270 2.438 . S
Pr241 C251 2.880 . S
Pr241 O262 2.436 . S
Pr241 O264 2.438 . S
Pr241 O266 2.562 . S
Pr241 O267 2.490 . S
Pr241 O268 2.695 . S
Pr241 O269 2.512 . S
Pr241 O271 2.437 . S
C242 Pr240 2.880 . S
C242 C243 1.491 . S
C242 O260 1.254 . S
C242 O261 1.225 . S
C243 C242 1.491 . S
C243 C244 1.392 . S
C243 C248 1.356 . S
C244 C243 1.392 . S
C244 C245 1.368 . S
C244 H272 0.929 . S
C245 C244 1.368 . S
C245 C246 1.386 . S
C245 H273 0.929 . S
C246 C245 1.386 . S
C246 C247 1.373 . S
C247 C246 1.373 . S
C247 C248 1.409 . S
C247 H274 0.931 . S
C248 C243 1.356 . S
C248 C247 1.409 . S
C248 H275 0.930 . S
C249 O262 1.270 . S
C249 O263 1.248 . S
C250 O264 1.267 . S
C250 O265 1.278 . S
C251 Pr241 2.880 . S
C251 C252 1.491 . S
C251 O266 1.254 . S
C251 O267 1.225 . S
C252 C251 1.491 . S
C252 C253 1.392 . S
C252 C257 1.356 . S
C253 C252 1.392 . S
C253 C254 1.368 . S
C253 H276 0.929 . S
C254 C253 1.368 . S
C254 C255 1.386 . S
C254 H277 0.929 . S
C255 C254 1.386 . S
C255 C256 1.373 . S
C256 C255 1.373 . S
C256 C257 1.409 . S
C256 H278 0.931 . S
C257 C252 1.356 . S
C257 C256 1.409 . S
C257 H279 0.930 . S
C258 O268 1.270 . S
C258 O269 1.248 . S
C259 O270 1.267 . S
C259 O271 1.278 . S
O260 Pr240 2.562 . S
O260 C242 1.254 . S
O261 Pr240 2.490 . S
O261 C242 1.225 . S
O262 Pr240 2.695 . S
O262 Pr241 2.436 . S
O262 C249 1.270 . S
O263 Pr240 2.512 . S
O263 C249 1.248 . S
O264 Pr241 2.438 . S
O264 C250 1.267 . S
O265 Pr240 2.437 . S
O265 C250 1.278 . S
O266 Pr241 2.562 . S
O266 C251 1.254 . S
O267 Pr241 2.490 . S
O267 C251 1.225 . S
O268 Pr240 2.436 . S
O268 Pr241 2.695 . S
O268 C258 1.270 . S
O269 Pr241 2.512 . S
O269 C258 1.248 . S
O270 Pr240 2.438 . S
O270 C259 1.267 . S
O271 Pr241 2.437 . S
O271 C259 1.278 . S
H272 C244 0.929 . S
H273 C245 0.929 . S
H274 C247 0.931 . S
H275 C248 0.930 . S
H276 C253 0.929 . S
H277 C254 0.929 . S
H278 C256 0.931 . S
H279 C257 0.930 . S
Pr280 C282 2.880 . S
Pr280 O300 2.562 . S
Pr280 O301 2.490 . S
Pr280 O302 2.695 . S
Pr280 O303 2.512 . S
Pr280 O305 2.437 . S
Pr280 O308 2.436 1_455 S
Pr280 O310 2.438 1_455 S
Pr281 C291 2.880 . S
Pr281 O302 2.436 1_655 S
Pr281 O304 2.438 1_655 S
Pr281 O306 2.562 . S
Pr281 O307 2.490 . S
Pr281 O308 2.695 . S
Pr281 O309 2.512 . S
Pr281 O311 2.437 . S
C282 Pr280 2.880 . S
C282 C283 1.491 . S
C282 O300 1.254 . S
C282 O301 1.225 . S
C283 C282 1.491 . S
C283 C284 1.392 . S
C283 C288 1.356 . S
C284 C283 1.392 . S
C284 C285 1.368 . S
C284 H312 0.929 . S
C285 C284 1.368 . S
C285 C286 1.386 . S
C285 H313 0.929 . S
C286 C285 1.386 . S
C286 C287 1.373 . S
C287 C286 1.373 . S
C287 C288 1.409 . S
C287 H314 0.931 . S
C288 C283 1.356 . S
C288 C287 1.409 . S
C288 H315 0.930 . S
C289 O302 1.270 . S
C289 O303 1.248 . S
C290 O304 1.267 . S
C290 O305 1.278 . S
C291 Pr281 2.880 . S
C291 C292 1.491 . S
C291 O306 1.254 . S
C291 O307 1.225 . S
C292 C291 1.491 . S
C292 C293 1.392 . S
C292 C297 1.356 . S
C293 C292 1.392 . S
C293 C294 1.368 . S
C293 H316 0.929 . S
C294 C293 1.368 . S
C294 C295 1.386 . S
C294 H317 0.929 . S
C295 C294 1.386 . S
C295 C296 1.373 . S
C296 C295 1.373 . S
C296 C297 1.409 . S
C296 H318 0.931 . S
C297 C292 1.356 . S
C297 C296 1.409 . S
C297 H319 0.930 . S
C298 O308 1.270 . S
C298 O309 1.248 . S
C299 O310 1.267 . S
C299 O311 1.278 . S
O300 Pr280 2.562 . S
O300 C282 1.254 . S
O301 Pr280 2.490 . S
O301 C282 1.225 . S
O302 Pr280 2.695 . S
O302 Pr281 2.436 1_455 S
O302 C289 1.270 . S
O303 Pr280 2.512 . S
O303 C289 1.248 . S
O304 Pr281 2.438 1_455 S
O304 C290 1.267 . S
O305 Pr280 2.437 . S
O305 C290 1.278 . S
O306 Pr281 2.562 . S
O306 C291 1.254 . S
O307 Pr281 2.490 . S
O307 C291 1.225 . S
O308 Pr280 2.436 1_655 S
O308 Pr281 2.695 . S
O308 C298 1.270 . S
O309 Pr281 2.512 . S
O309 C298 1.248 . S
O310 Pr280 2.438 1_655 S
O310 C299 1.267 . S
O311 Pr281 2.437 . S
O311 C299 1.278 . S
H312 C284 0.929 . S
H313 C285 0.929 . S
H314 C287 0.931 . S
H315 C288 0.930 . S
H316 C293 0.929 . S
H317 C294 0.929 . S
H318 C296 0.931 . S
H319 C297 0.930 . S
Pr320 C322 2.880 . S
Pr320 O340 2.562 . S
Pr320 O341 2.490 . S
Pr320 O342 2.695 . S
Pr320 O343 2.512 . S
Pr320 O345 2.437 1_554 S
Pr320 O348 2.436 1_554 S
Pr320 O350 2.438 . S
Pr321 C331 2.880 . S
Pr321 O342 2.436 1_556 S
Pr321 O344 2.438 . S
Pr321 O346 2.562 . S
Pr321 O347 2.490 . S
Pr321 O348 2.695 . S
Pr321 O349 2.512 . S
Pr321 O351 2.437 1_556 S
C322 Pr320 2.880 . S
C322 C323 1.491 . S
C322 O340 1.254 . S
C322 O341 1.225 . S
C323 C322 1.491 . S
C323 C324 1.392 . S
C323 C328 1.350 1_554 S
C324 C323 1.392 . S
C324 C325 1.368 . S
C324 H352 0.929 . S
C325 C324 1.368 . S
C325 C326 1.386 . S
C325 H353 0.929 . S
C326 C325 1.386 . S
C326 C327 1.352 1_554 S
C327 C326 1.352 1_556 S
C327 C328 1.413 . S
C327 H354 0.945 . S
C328 C323 1.350 1_556 S
C328 C327 1.413 . S
C328 H355 0.938 . S
C329 O342 1.270 . S
C329 O343 1.248 . S
C330 O344 1.267 . S
C330 O345 1.278 . S
C331 Pr321 2.880 . S
C331 C332 1.491 . S
C331 O346 1.254 . S
C331 O347 1.225 . S
C332 C331 1.491 . S
C332 C333 1.392 . S
C332 C337 1.346 1_556 S
C333 C332 1.392 . S
C333 C334 1.368 . S
C333 H356 0.929 . S
C334 C333 1.368 . S
C334 C335 1.386 . S
C334 H357 0.929 . S
C335 C334 1.386 . S
C335 C336 1.346 1_556 S
C336 C335 1.346 1_554 S
C336 C337 1.413 . S
C336 H358 0.949 . S
C337 C332 1.346 1_554 S
C337 C336 1.413 . S
C337 H359 0.944 . S
C338 O348 1.270 . S
C338 O349 1.248 . S
C339 O350 1.267 . S
C339 O351 1.278 . S
O340 Pr320 2.562 . S
O340 C322 1.254 . S
O341 Pr320 2.490 . S
O341 C322 1.225 . S
O342 Pr320 2.695 . S
O342 Pr321 2.436 1_554 S
O342 C329 1.270 . S
O343 Pr320 2.512 . S
O343 C329 1.248 . S
O344 Pr321 2.438 . S
O344 C330 1.267 . S
O345 Pr320 2.437 1_556 S
O345 C330 1.278 . S
O346 Pr321 2.562 . S
O346 C331 1.254 . S
O347 Pr321 2.490 . S
O347 C331 1.225 . S
O348 Pr320 2.436 1_556 S
O348 Pr321 2.695 . S
O348 C338 1.270 . S
O349 Pr321 2.512 . S
O349 C338 1.248 . S
O350 Pr320 2.438 . S
O350 C339 1.267 . S
O351 Pr321 2.437 1_554 S
O351 C339 1.278 . S
H352 C324 0.929 . S
H353 C325 0.929 . S
H354 C327 0.945 . S
H355 C328 0.938 . S
H356 C333 0.929 . S
H357 C334 0.929 . S
H358 C336 0.949 . S
H359 C337 0.944 . S
Pr360 C362 2.880 . S
Pr360 O380 2.562 1_565 S
Pr360 O381 2.490 . S
Pr360 O382 2.695 . S
Pr360 O383 2.512 . S
Pr360 O385 2.437 1_565 S
Pr360 O388 2.436 1_565 S
Pr360 O390 2.438 . S
Pr361 C371 2.880 . S
Pr361 O382 2.436 1_545 S
Pr361 O384 2.438 . S
Pr361 O386 2.562 1_545 S
Pr361 O387 2.490 . S
Pr361 O388 2.695 . S
Pr361 O389 2.512 . S
Pr361 O391 2.437 1_545 S
C362 Pr360 2.880 . S
C362 C363 1.491 1_565 S
C362 O380 1.254 1_565 S
C362 O381 1.225 . S
C363 C362 1.491 1_545 S
C363 C364 1.392 1_545 S
C363 C368 1.356 . S
C364 C363 1.392 1_565 S
C364 C365 1.368 . S
C364 H392 0.929 . S
C365 C364 1.368 . S
C365 C366 1.386 1_565 S
C365 H393 0.929 . S
C366 C365 1.386 1_545 S
C366 C367 1.373 . S
C367 C366 1.373 . S
C367 C368 1.409 . S
C367 H394 0.931 . S
C368 C363 1.356 . S
C368 C367 1.409 . S
C368 H395 0.930 . S
C369 O382 1.270 . S
C369 O383 1.248 . S
C370 O384 1.267 . S
C370 O385 1.278 . S
C371 Pr361 2.880 . S
C371 C372 1.491 1_545 S
C371 O386 1.254 1_545 S
C371 O387 1.225 . S
C372 C371 1.491 1_565 S
C372 C373 1.392 1_565 S
C372 C377 1.356 . S
C373 C372 1.392 1_545 S
C373 C374 1.368 . S
C373 H396 0.929 . S
C374 C373 1.368 . S
C374 C375 1.386 1_545 S
C374 H397 0.929 . S
C375 C374 1.386 1_565 S
C375 C376 1.373 . S
C376 C375 1.373 . S
C376 C377 1.409 . S
C376 H398 0.931 . S
C377 C372 1.356 . S
C377 C376 1.409 . S
C377 H399 0.930 . S
C378 O388 1.270 . S
C378 O389 1.248 . S
C379 O390 1.267 . S
C379 O391 1.278 . S
O380 Pr360 2.562 1_545 S
O380 C362 1.254 1_545 S
O381 Pr360 2.490 . S
O381 C362 1.225 . S
O382 Pr360 2.695 . S
O382 Pr361 2.436 1_565 S
O382 C369 1.270 . S
O383 Pr360 2.512 . S
O383 C369 1.248 . S
O384 Pr361 2.438 . S
O384 C370 1.267 . S
O385 Pr360 2.437 1_545 S
O385 C370 1.278 . S
O386 Pr361 2.562 1_565 S
O386 C371 1.254 1_565 S
O387 Pr361 2.490 . S
O387 C371 1.225 . S
O388 Pr360 2.436 1_545 S
O388 Pr361 2.695 . S
O388 C378 1.270 . S
O389 Pr361 2.512 . S
O389 C378 1.248 . S
O390 Pr360 2.438 . S
O390 C379 1.267 . S
O391 Pr361 2.437 1_565 S
O391 C379 1.278 . S
H392 C364 0.929 . S
H393 C365 0.929 . S
H394 C367 0.931 . S
H395 C368 0.930 . S
H396 C373 0.929 . S
H397 C374 0.929 . S
H398 C376 0.931 . S
H399 C377 0.930 . S
Pr400 C402 2.880 . S
Pr400 O420 2.562 . S
Pr400 O421 2.490 . S
Pr400 O422 2.695 . S
Pr400 O423 2.512 . S
Pr400 O425 2.437 . S
Pr400 O428 2.436 . S
Pr400 O430 2.438 . S
Pr401 C411 2.880 . S
Pr401 O422 2.436 . S
Pr401 O424 2.438 . S
Pr401 O426 2.562 . S
Pr401 O427 2.490 . S
Pr401 O428 2.695 . S
Pr401 O429 2.512 . S
Pr401 O431 2.437 . S
C402 Pr400 2.880 . S
C402 C403 1.491 . S
C402 O420 1.254 . S
C402 O421 1.225 . S
C403 C402 1.491 . S
C403 C404 1.392 . S
C403 C408 1.356 . S
C404 C403 1.392 . S
C404 C405 1.368 . S
C404 H432 0.929 . S
C405 C404 1.368 . S
C405 C406 1.386 . S
C405 H433 0.929 . S
C406 C405 1.386 . S
C406 C407 1.373 . S
C407 C406 1.373 . S
C407 C408 1.409 . S
C407 H434 0.931 . S
C408 C403 1.356 . S
C408 C407 1.409 . S
C408 H435 0.930 . S
C409 O422 1.270 . S
C409 O423 1.248 . S
C410 O424 1.267 . S
C410 O425 1.278 . S
C411 Pr401 2.880 . S
C411 C412 1.491 . S
C411 O426 1.254 . S
C411 O427 1.225 . S
C412 C411 1.491 . S
C412 C413 1.392 . S
C412 C417 1.356 . S
C413 C412 1.392 . S
C413 C414 1.368 . S
C413 H436 0.929 . S
C414 C413 1.368 . S
C414 C415 1.386 . S
C414 H437 0.929 . S
C415 C414 1.386 . S
C415 C416 1.373 . S
C416 C415 1.373 . S
C416 C417 1.409 . S
C416 H438 0.931 . S
C417 C412 1.356 . S
C417 C416 1.409 . S
C417 H439 0.930 . S
C418 O428 1.270 . S
C418 O429 1.248 . S
C419 O430 1.267 . S
C419 O431 1.278 . S
O420 Pr400 2.562 . S
O420 C402 1.254 . S
O421 Pr400 2.490 . S
O421 C402 1.225 . S
O422 Pr400 2.695 . S
O422 Pr401 2.436 . S
O422 C409 1.270 . S
O423 Pr400 2.512 . S
O423 C409 1.248 . S
O424 Pr401 2.438 . S
O424 C410 1.267 . S
O425 Pr400 2.437 . S
O425 C410 1.278 . S
O426 Pr401 2.562 . S
O426 C411 1.254 . S
O427 Pr401 2.490 . S
O427 C411 1.225 . S
O428 Pr400 2.436 . S
O428 Pr401 2.695 . S
O428 C418 1.270 . S
O429 Pr401 2.512 . S
O429 C418 1.248 . S
O430 Pr400 2.438 . S
O430 C419 1.267 . S
O431 Pr401 2.437 . S
O431 C419 1.278 . S
H432 C404 0.929 . S
H433 C405 0.929 . S
H434 C407 0.931 . S
H435 C408 0.930 . S
H436 C413 0.929 . S
H437 C414 0.929 . S
H438 C416 0.931 . S
H439 C417 0.930 . S
Pr440 C442 2.883 1_455 S
Pr440 O460 2.562 1_455 S
Pr440 O461 2.490 . S
Pr440 O462 2.695 . S
Pr440 O463 2.512 . S
Pr440 O465 2.437 1_455 S
Pr440 O468 2.436 1_455 S
Pr440 O470 2.438 . S
Pr441 C451 2.880 1_655 S
Pr441 O462 2.436 1_655 S
Pr441 O464 2.438 . S
Pr441 O466 2.562 1_655 S
Pr441 O467 2.490 . S
Pr441 O468 2.695 . S
Pr441 O469 2.512 . S
Pr441 O471 2.437 1_655 S
C442 Pr440 2.883 1_655 S
C442 C443 1.488 . S
C442 O460 1.267 . S
C442 O461 1.214 1_655 S
C443 C442 1.488 . S
C443 C444 1.392 1_655 S
C443 C448 1.356 . S
C444 C443 1.392 1_455 S
C444 C445 1.368 . S
C444 H472 0.929 . S
C445 C444 1.368 . S
C445 C446 1.386 1_455 S
C445 H473 0.929 . S
C446 C445 1.386 1_655 S
C446 C447 1.373 . S
C447 C446 1.373 . S
C447 C448 1.409 . S
C447 H474 0.931 . S
C448 C443 1.356 . S
C448 C447 1.409 . S
C448 H475 0.930 . S
C449 O462 1.270 . S
C449 O463 1.248 . S
C450 O464 1.267 . S
C450 O465 1.278 . S
C451 Pr441 2.880 1_455 S
C451 C452 1.491 . S
C451 O466 1.254 . S
C451 O467 1.225 1_455 S
C452 C451 1.491 . S
C452 C453 1.392 1_455 S
C452 C457 1.356 . S
C453 C452 1.392 1_655 S
C453 C454 1.368 . S
C453 H476 0.929 . S
C454 C453 1.368 . S
C454 C455 1.386 1_655 S
C454 H477 0.929 . S
C455 C454 1.386 1_455 S
C455 C456 1.373 . S
C456 C455 1.373 . S
C456 C457 1.409 . S
C456 H478 0.931 . S
C457 C452 1.356 . S
C457 C456 1.409 . S
C457 H479 0.930 . S
C458 O468 1.270 . S
C458 O469 1.248 . S
C459 O470 1.267 . S
C459 O471 1.278 . S
O460 Pr440 2.562 1_655 S
O460 C442 1.267 . S
O461 Pr440 2.490 . S
O461 C442 1.214 1_455 S
O462 Pr440 2.695 . S
O462 Pr441 2.436 1_455 S
O462 C449 1.270 . S
O463 Pr440 2.512 . S
O463 C449 1.248 . S
O464 Pr441 2.438 . S
O464 C450 1.267 . S
O465 Pr440 2.437 1_655 S
O465 C450 1.278 . S
O466 Pr441 2.562 1_455 S
O466 C451 1.254 . S
O467 Pr441 2.490 . S
O467 C451 1.225 1_655 S
O468 Pr440 2.436 1_655 S
O468 Pr441 2.695 . S
O468 C458 1.270 . S
O469 Pr441 2.512 . S
O469 C458 1.248 . S
O470 Pr440 2.438 . S
O470 C459 1.267 . S
O471 Pr441 2.437 1_455 S
O471 C459 1.278 . S
H472 C444 0.929 . S
H473 C445 0.929 . S
H474 C447 0.931 . S
H475 C448 0.930 . S
H476 C453 0.929 . S
H477 C454 0.929 . S
H478 C456 0.931 . S
H479 C457 0.930 . S
Pr480 C482 2.880 . S
Pr480 O500 2.562 . S
Pr480 O501 2.490 . S
Pr480 O502 2.695 . S
Pr480 O503 2.512 . S
Pr480 O505 2.437 . S
Pr480 O508 2.436 . S
Pr480 O510 2.438 . S
Pr481 C491 2.880 . S
Pr481 O502 2.436 . S
Pr481 O504 2.438 . S
Pr481 O506 2.562 . S
Pr481 O507 2.490 . S
Pr481 O508 2.695 . S
Pr481 O509 2.512 . S
Pr481 O511 2.437 . S
C482 Pr480 2.880 . S
C482 C483 1.491 . S
C482 O500 1.254 . S
C482 O501 1.225 . S
C483 C482 1.491 . S
C483 C484 1.392 . S
C483 C488 1.356 . S
C484 C483 1.392 . S
C484 C485 1.368 . S
C484 H512 0.929 . S
C485 C484 1.368 . S
C485 C486 1.386 . S
C485 H513 0.929 . S
C486 C485 1.386 . S
C486 C487 1.373 . S
C487 C486 1.373 . S
C487 C488 1.409 . S
C487 H514 0.931 . S
C488 C483 1.356 . S
C488 C487 1.409 . S
C488 H515 0.930 . S
C489 O502 1.270 . S
C489 O503 1.248 . S
C490 O504 1.267 . S
C490 O505 1.278 . S
C491 Pr481 2.880 . S
C491 C492 1.491 . S
C491 O506 1.254 . S
C491 O507 1.225 . S
C492 C491 1.491 . S
C492 C493 1.392 . S
C492 C497 1.356 . S
C493 C492 1.392 . S
C493 C494 1.368 . S
C493 H516 0.929 . S
C494 C493 1.368 . S
C494 C495 1.386 . S
C494 H517 0.929 . S
C495 C494 1.386 . S
C495 C496 1.373 . S
C496 C495 1.373 . S
C496 C497 1.409 . S
C496 H518 0.931 . S
C497 C492 1.356 . S
C497 C496 1.409 . S
C497 H519 0.930 . S
C498 O508 1.270 . S
C498 O509 1.248 . S
C499 O510 1.267 . S
C499 O511 1.278 . S
O500 Pr480 2.562 . S
O500 C482 1.254 . S
O501 Pr480 2.490 . S
O501 C482 1.225 . S
O502 Pr480 2.695 . S
O502 Pr481 2.436 . S
O502 C489 1.270 . S
O503 Pr480 2.512 . S
O503 C489 1.248 . S
O504 Pr481 2.438 . S
O504 C490 1.267 . S
O505 Pr480 2.437 . S
O505 C490 1.278 . S
O506 Pr481 2.562 . S
O506 C491 1.254 . S
O507 Pr481 2.490 . S
O507 C491 1.225 . S
O508 Pr480 2.436 . S
O508 Pr481 2.695 . S
O508 C498 1.270 . S
O509 Pr481 2.512 . S
O509 C498 1.248 . S
O510 Pr480 2.438 . S
O510 C499 1.267 . S
O511 Pr481 2.437 . S
O511 C499 1.278 . S
H512 C484 0.929 . S
H513 C485 0.929 . S
H514 C487 0.931 . S
H515 C488 0.930 . S
H516 C493 0.929 . S
H517 C494 0.929 . S
H518 C496 0.931 . S
H519 C497 0.930 . S
Pr520 C522 2.880 . S
Pr520 O540 2.562 . S
Pr520 O541 2.490 . S
Pr520 O542 2.695 . S
Pr520 O543 2.512 . S
Pr520 O545 2.437 1_554 S
Pr520 O548 2.436 1_554 S
Pr520 O550 2.438 . S
Pr521 C531 2.880 . S
Pr521 O542 2.436 1_556 S
Pr521 O544 2.438 . S
Pr521 O546 2.562 . S
Pr521 O547 2.490 . S
Pr521 O548 2.695 . S
Pr521 O549 2.512 . S
Pr521 O551 2.437 1_556 S
C522 Pr520 2.880 . S
C522 C523 1.491 . S
C522 O540 1.254 . S
C522 O541 1.225 . S
C523 C522 1.491 . S
C523 C524 1.392 . S
C523 C528 1.350 1_554 S
C524 C523 1.392 . S
C524 C525 1.368 . S
C524 H552 0.929 . S
C525 C524 1.368 . S
C525 C526 1.386 . S
C525 H553 0.929 . S
C526 C525 1.386 . S
C526 C527 1.352 1_554 S
C527 C526 1.352 1_556 S
C527 C528 1.413 . S
C527 H554 0.945 . S
C528 C523 1.350 1_556 S
C528 C527 1.413 . S
C528 H555 0.938 . S
C529 O542 1.270 . S
C529 O543 1.248 . S
C530 O544 1.267 . S
C530 O545 1.278 . S
C531 Pr521 2.880 . S
C531 C532 1.491 . S
C531 O546 1.254 . S
C531 O547 1.225 . S
C532 C531 1.491 . S
C532 C533 1.392 . S
C532 C537 1.346 1_556 S
C533 C532 1.392 . S
C533 C534 1.368 . S
C533 H556 0.929 . S
C534 C533 1.368 . S
C534 C535 1.386 . S
C534 H557 0.929 . S
C535 C534 1.386 . S
C535 C536 1.373 1_556 S
C536 C535 1.373 1_554 S
C536 C537 1.404 . S
C536 H558 0.931 . S
C537 C532 1.346 1_554 S
C537 C536 1.404 . S
C537 H559 0.944 . S
C538 O548 1.270 . S
C538 O549 1.248 . S
C539 O550 1.267 . S
C539 O551 1.278 . S
O540 Pr520 2.562 . S
O540 C522 1.254 . S
O541 Pr520 2.490 . S
O541 C522 1.225 . S
O542 Pr520 2.695 . S
O542 Pr521 2.436 1_554 S
O542 C529 1.270 . S
O543 Pr520 2.512 . S
O543 C529 1.248 . S
O544 Pr521 2.438 . S
O544 C530 1.267 . S
O545 Pr520 2.437 1_556 S
O545 C530 1.278 . S
O546 Pr521 2.562 . S
O546 C531 1.254 . S
O547 Pr521 2.490 . S
O547 C531 1.225 . S
O548 Pr520 2.436 1_556 S
O548 Pr521 2.695 . S
O548 C538 1.270 . S
O549 Pr521 2.512 . S
O549 C538 1.248 . S
O550 Pr520 2.438 . S
O550 C539 1.267 . S
O551 Pr521 2.437 1_554 S
O551 C539 1.278 . S
H552 C524 0.929 . S
H553 C525 0.929 . S
H554 C527 0.945 . S
H555 C528 0.938 . S
H556 C533 0.929 . S
H557 C534 0.929 . S
H558 C536 0.931 . S
H559 C537 0.944 . S
Pr560 C562 2.880 . S
Pr560 O580 2.562 . S
Pr560 O581 2.490 . S
Pr560 O582 2.695 1_545 S
Pr560 O583 2.512 1_545 S
Pr560 O585 2.437 1_545 S
Pr560 O588 2.436 . S
Pr560 O590 2.438 . S
Pr561 C571 2.880 . S
Pr561 O582 2.436 . S
Pr561 O584 2.438 . S
Pr561 O586 2.562 . S
Pr561 O587 2.490 . S
Pr561 O588 2.695 1_565 S
Pr561 O589 2.512 1_565 S
Pr561 O591 2.437 1_565 S
C562 Pr560 2.880 . S
C562 C563 1.491 . S
C562 O580 1.254 . S
C562 O581 1.225 . S
C563 C562 1.491 . S
C563 C564 1.392 . S
C563 C568 1.356 . S
C564 C563 1.392 . S
C564 C565 1.368 . S
C564 H592 0.929 . S
C565 C564 1.368 . S
C565 C566 1.386 . S
C565 H593 0.929 . S
C566 C565 1.386 . S
C566 C567 1.373 . S
C567 C566 1.373 . S
C567 C568 1.409 . S
C567 H594 0.931 . S
C568 C563 1.356 . S
C568 C567 1.409 . S
C568 H595 0.930 . S
C569 O582 1.270 . S
C569 O583 1.248 . S
C570 O584 1.267 . S
C570 O585 1.278 . S
C571 Pr561 2.880 . S
C571 C572 1.491 . S
C571 O586 1.254 . S
C571 O587 1.225 . S
C572 C571 1.491 . S
C572 C573 1.392 . S
C572 C577 1.356 . S
C573 C572 1.392 . S
C573 C574 1.368 . S
C573 H596 0.929 . S
C574 C573 1.368 . S
C574 C575 1.386 . S
C574 H597 0.929 . S
C575 C574 1.386 . S
C575 C576 1.373 . S
C576 C575 1.373 . S
C576 C577 1.409 . S
C576 H598 0.931 . S
C577 C572 1.356 . S
C577 C576 1.409 . S
C577 H599 0.930 . S
C578 O588 1.270 . S
C578 O589 1.248 . S
C579 O590 1.267 . S
C579 O591 1.278 . S
O580 Pr560 2.562 . S
O580 C562 1.254 . S
O581 Pr560 2.490 . S
O581 C562 1.225 . S
O582 Pr560 2.695 1_565 S
O582 Pr561 2.436 . S
O582 C569 1.270 . S
O583 Pr560 2.512 1_565 S
O583 C569 1.248 . S
O584 Pr561 2.438 . S
O584 C570 1.267 . S
O585 Pr560 2.437 1_565 S
O585 C570 1.278 . S
O586 Pr561 2.562 . S
O586 C571 1.254 . S
O587 Pr561 2.490 . S
O587 C571 1.225 . S
O588 Pr560 2.436 . S
O588 Pr561 2.695 1_545 S
O588 C578 1.270 . S
O589 Pr561 2.512 1_545 S
O589 C578 1.248 . S
O590 Pr560 2.438 . S
O590 C579 1.267 . S
O591 Pr561 2.437 1_545 S
O591 C579 1.278 . S
H592 C564 0.929 . S
H593 C565 0.929 . S
H594 C567 0.931 . S
H595 C568 0.930 . S
H596 C573 0.929 . S
H597 C574 0.929 . S
H598 C576 0.931 . S
H599 C577 0.930 . S
Pr600 C602 2.880 . S
Pr600 O620 2.562 . S
Pr600 O621 2.490 . S
Pr600 O622 2.695 . S
Pr600 O623 2.512 . S
Pr600 O625 2.452 . S
Pr600 O628 2.436 1_556 S
Pr600 O630 2.438 . S
Pr601 C611 2.880 . S
Pr601 O622 2.436 1_554 S
Pr601 O624 2.438 . S
Pr601 O626 2.562 . S
Pr601 O627 2.490 . S
Pr601 O628 2.695 . S
Pr601 O629 2.512 . S
Pr601 O631 2.437 . S
C602 Pr600 2.880 . S
C602 C603 1.491 . S
C602 O620 1.254 . S
C602 O621 1.225 . S
C603 C602 1.491 . S
C603 C604 1.392 . S
C603 C608 1.356 . S
C604 C603 1.392 . S
C604 C605 1.368 . S
C604 H632 0.929 . S
C605 C604 1.368 . S
C605 C606 1.386 . S
C605 H633 0.929 . S
C606 C605 1.386 . S
C606 C607 1.373 . S
C607 C606 1.373 . S
C607 C608 1.409 . S
C607 H634 0.931 . S
C608 C603 1.356 . S
C608 C607 1.409 . S
C608 H635 0.930 . S
C609 O622 1.270 . S
C609 O623 1.248 . S
C610 O624 1.267 . S
C610 O625 1.256 1_554 S
C611 Pr601 2.880 . S
C611 C612 1.491 . S
C611 O626 1.254 . S
C611 O627 1.225 . S
C612 C611 1.491 . S
C612 C613 1.392 . S
C612 C617 1.356 . S
C613 C612 1.392 . S
C613 C614 1.368 . S
C613 H636 0.929 . S
C614 C613 1.368 . S
C614 C615 1.386 . S
C614 H637 0.929 . S
C615 C614 1.386 . S
C615 C616 1.373 . S
C616 C615 1.373 . S
C616 C617 1.409 . S
C616 H638 0.931 . S
C617 C612 1.356 . S
C617 C616 1.409 . S
C617 H639 0.930 . S
C618 O628 1.270 . S
C618 O629 1.248 . S
C619 O630 1.267 . S
C619 O631 1.278 1_556 S
O620 Pr600 2.562 . S
O620 C602 1.254 . S
O621 Pr600 2.490 . S
O621 C602 1.225 . S
O622 Pr600 2.695 . S
O622 Pr601 2.436 1_556 S
O622 C609 1.270 . S
O623 Pr600 2.512 . S
O623 C609 1.248 . S
O624 Pr601 2.438 . S
O624 C610 1.267 . S
O625 Pr600 2.452 . S
O625 C610 1.256 1_556 S
O626 Pr601 2.562 . S
O626 C611 1.254 . S
O627 Pr601 2.490 . S
O627 C611 1.225 . S
O628 Pr600 2.436 1_554 S
O628 Pr601 2.695 . S
O628 C618 1.270 . S
O629 Pr601 2.512 . S
O629 C618 1.248 . S
O630 Pr600 2.438 . S
O630 C619 1.267 . S
O631 Pr601 2.437 . S
O631 C619 1.278 1_554 S
H632 C604 0.929 . S
H633 C605 0.929 . S
H634 C607 0.931 . S
H635 C608 0.930 . S
H636 C613 0.929 . S
H637 C614 0.929 . S
H638 C616 0.931 . S
H639 C617 0.930 . S
C640 C641 1.369 . S
C640 C642 1.419 . S
C640 H644 0.930 . S
C641 C640 1.369 . S
C641 C650 1.429 . S
C642 C640 1.419 . S
C642 C643 1.363 1_655 S
C642 H645 0.929 1_554 S
C643 C642 1.363 1_455 S
C643 C649 1.428 . S
H644 C640 0.930 . S
H645 C642 0.929 1_556 S
S646 N647 1.613 . S
S646 N648 1.610 . S
N647 S646 1.613 . S
N647 C650 1.350 1_455 S
N648 S646 1.610 . S
N648 C649 1.351 . S
C649 C643 1.428 . S
C649 N648 1.351 . S
C649 C650 1.434 1_455 S
C650 C641 1.429 . S
C650 N647 1.350 1_655 S
C650 C649 1.434 1_655 S
C651 C652 1.369 . S
C651 C653 1.419 . S
C651 H655 0.930 . S
C652 C651 1.369 . S
C652 C661 1.429 . S
C653 C651 1.419 . S
C653 C654 1.363 . S
C653 H656 0.929 . S
C654 C653 1.363 . S
C654 C660 1.428 . S
H655 C651 0.930 . S
H656 C653 0.929 . S
S657 N658 1.613 . S
S657 N659 1.610 . S
N658 S657 1.613 . S
N658 C661 1.350 . S
N659 S657 1.610 . S
N659 C660 1.351 . S
C660 C654 1.428 . S
C660 N659 1.351 . S
C660 C661 1.434 . S
C661 C652 1.429 . S
C661 N658 1.350 . S
C661 C660 1.434 . S
C662 C663 1.369 . S
C662 C664 1.419 . S
C662 H666 0.930 . S
C663 C662 1.369 . S
C663 C672 1.429 . S
C664 C662 1.419 . S
C664 C665 1.363 . S
C664 H667 0.929 . S
C665 C664 1.363 . S
C665 C671 1.428 . S
H666 C662 0.930 . S
H667 C664 0.929 . S
S668 N669 1.613 . S
S668 N670 1.610 . S
N669 S668 1.613 . S
N669 C672 1.350 . S
N670 S668 1.610 . S
N670 C671 1.351 . S
C671 C665 1.428 . S
C671 N670 1.351 . S
C671 C672 1.434 . S
C672 C663 1.429 . S
C672 N669 1.350 . S
C672 C671 1.434 . S
C673 C674 1.369 1_565 S
C673 C675 1.419 . S
C673 H677 0.930 . S
C674 C673 1.369 1_545 S
C674 C683 1.429 . S
C675 C673 1.419 . S
C675 C676 1.363 . S
C675 H678 0.929 . S
C676 C675 1.363 . S
C676 C682 1.428 1_565 S
H677 C673 0.930 . S
H678 C675 0.929 . S
S679 N680 1.613 . S
S679 N681 1.610 . S
N680 S679 1.613 . S
N680 C683 1.350 . S
N681 S679 1.610 . S
N681 C682 1.351 . S
C682 C676 1.428 1_545 S
C682 N681 1.351 . S
C682 C683 1.434 . S
C683 C674 1.429 . S
C683 N680 1.350 . S
C683 C682 1.434 . S
C684 C685 1.369 . S
C684 C686 1.419 . S
C684 H688 0.930 . S
C685 C684 1.369 . S
C685 C694 1.429 1_565 S
C686 C684 1.419 . S
C686 C687 1.363 1_565 S
C686 H689 0.929 . S
C687 C686 1.363 1_545 S
C687 C693 1.428 . S
H688 C684 0.930 . S
H689 C686 0.929 . S
S690 N691 1.613 1_556 S
S690 N692 1.610 1_556 S
N691 S690 1.613 1_554 S
N691 C694 1.350 . S
N692 S690 1.610 1_554 S
N692 C693 1.351 . S
C693 C687 1.428 . S
C693 N692 1.351 . S
C693 C694 1.434 . S
C694 C685 1.429 1_545 S
C694 N691 1.350 . S
C694 C693 1.434 . S
C695 C696 1.369 1_655 S
C695 C697 1.419 . S
C695 H699 0.930 . S
C696 C695 1.369 1_455 S
C696 C705 1.429 . S
C697 C695 1.419 . S
C697 C698 1.363 . S
C697 H700 0.929 . S
C698 C697 1.363 . S
C698 C704 1.428 1_655 S
H699 C695 0.930 . S
H700 C697 0.929 . S
S701 N702 1.613 . S
S701 N703 1.610 . S
N702 S701 1.613 . S
N702 C705 1.350 . S
N703 S701 1.610 . S
N703 C704 1.351 . S
C704 C698 1.428 1_455 S
C704 N703 1.351 . S
C704 C705 1.434 . S
C705 C696 1.429 . S
C705 N702 1.350 . S
C705 C704 1.434 . S
C706 C707 1.369 . S
C706 C708 1.419 . S
C706 H710 0.930 . S
C707 C706 1.369 . S
C707 C716 1.429 . S
C708 C706 1.419 . S
C708 C709 1.363 . S
C708 H711 0.929 . S
C709 C708 1.363 . S
C709 C715 1.428 . S
H710 C706 0.930 . S
H711 C708 0.929 . S
S712 N713 1.613 . S
S712 N714 1.610 . S
N713 S712 1.613 . S
N713 C716 1.350 . S
N714 S712 1.610 . S
N714 C715 1.351 . S
C715 C709 1.428 . S
C715 N714 1.351 . S
C715 C716 1.434 . S
C716 C707 1.429 . S
C716 N713 1.350 . S
C716 C715 1.434 . S
C717 C718 1.369 . S
C717 C719 1.419 . S
C717 H721 0.930 . S
C718 C717 1.369 . S
C718 C727 1.429 . S
C719 C717 1.419 . S
C719 C720 1.363 . S
C719 H722 0.929 . S
C720 C719 1.363 . S
C720 C726 1.428 . S
H721 C717 0.930 . S
H722 C719 0.929 . S
S723 N724 1.613 . S
S723 N725 1.610 . S
N724 S723 1.613 . S
N724 C727 1.350 . S
N725 S723 1.610 . S
N725 C726 1.351 . S
C726 C720 1.428 . S
C726 N725 1.351 . S
C726 C727 1.434 . S
C727 C718 1.429 . S
C727 N724 1.350 . S
C727 C726 1.434 . S
C728 C729 1.369 . S
C728 C730 1.419 . S
C728 H732 0.930 . S
C729 C728 1.369 . S
C729 C738 1.429 . S
C730 C728 1.419 . S
C730 C731 1.363 . S
C730 H733 0.929 . S
C731 C730 1.363 . S
C731 C737 1.428 . S
H732 C728 0.930 . S
H733 C730 0.929 . S
S734 N735 1.613 . S
S734 N736 1.610 . S
N735 S734 1.613 . S
N735 C738 1.350 . S
N736 S734 1.610 . S
N736 C737 1.351 . S
C737 C731 1.428 . S
C737 N736 1.351 . S
C737 C738 1.434 . S
C738 C729 1.429 . S
C738 N735 1.350 . S
C738 C737 1.434 . S
C739 C740 1.369 . S
C739 C741 1.419 . S
C739 H743 0.930 . S
C740 C739 1.369 . S
C740 C749 1.429 . S
C741 C739 1.419 . S
C741 C742 1.363 . S
C741 H744 0.929 . S
C742 C741 1.363 . S
C742 C748 1.428 . S
H743 C739 0.930 . S
H744 C741 0.929 . S
S745 N746 1.613 . S
S745 N747 1.610 . S
N746 S745 1.613 . S
N746 C749 1.350 . S
N747 S745 1.610 . S
N747 C748 1.351 . S
C748 C742 1.428 . S
C748 N747 1.351 . S
C748 C749 1.434 . S
C749 C740 1.429 . S
C749 N746 1.350 . S
C749 C748 1.434 . S
C750 C751 1.369 1_545 S
C750 C752 1.419 . S
C750 H754 0.930 . S
C751 C750 1.369 1_565 S
C751 C760 1.429 . S
C752 C750 1.419 . S
C752 C753 1.363 . S
C752 H755 0.929 . S
C753 C752 1.363 . S
C753 C759 1.428 1_545 S
H754 C750 0.930 . S
H755 C752 0.929 . S
S756 N757 1.613 . S
S756 N758 1.610 . S
N757 S756 1.613 . S
N757 C760 1.350 . S
N758 S756 1.610 . S
N758 C759 1.351 . S
C759 C753 1.428 1_565 S
C759 N758 1.351 . S
C759 C760 1.434 . S
C760 C751 1.429 . S
C760 N757 1.350 . S
C760 C759 1.434 . S
C761 C762 1.369 . S
C761 C763 1.419 1_455 S
C761 H765 0.909 1_456 S
C762 C761 1.369 . S
C762 C771 1.429 . S
C763 C761 1.419 1_655 S
C763 C764 1.363 . S
C763 H766 0.929 1_556 S
C764 C763 1.363 . S
C764 C770 1.428 1_655 S
H765 C761 0.909 1_654 S
H766 C763 0.929 1_554 S
S767 N768 1.613 . S
S767 N769 1.610 . S
N768 S767 1.613 . S
N768 C771 1.350 . S
N769 S767 1.610 . S
N769 C770 1.351 . S
C770 C764 1.428 1_455 S
C770 N769 1.351 . S
C770 C771 1.434 . S
C771 C762 1.429 . S
C771 N768 1.350 . S
C771 C770 1.434 . S
C772 C773 1.369 . S
C772 C774 1.419 . S
C772 H776 0.930 . S
C773 C772 1.369 . S
C773 C782 1.429 . S
C774 C772 1.419 . S
C774 C775 1.363 . S
C774 H777 0.929 . S
C775 C774 1.363 . S
C775 C781 1.428 . S
H776 C772 0.930 . S
H777 C774 0.929 . S
S778 N779 1.613 . S
S778 N780 1.610 . S
N779 S778 1.613 . S
N779 C782 1.350 . S
N780 S778 1.610 . S
N780 C781 1.351 . S
C781 C775 1.428 . S
C781 N780 1.351 . S
C781 C782 1.434 . S
C782 C773 1.429 . S
C782 N779 1.350 . S
C782 C781 1.434 . S
C783 C784 1.369 . S
C783 C785 1.419 . S
C783 H787 0.930 . S
C784 C783 1.369 . S
C784 C793 1.429 . S
C785 C783 1.419 . S
C785 C786 1.363 . S
C785 H788 0.929 . S
C786 C785 1.363 . S
C786 C792 1.428 . S
H787 C783 0.930 . S
H788 C785 0.929 . S
S789 N790 1.613 . S
S789 N791 1.610 . S
N790 S789 1.613 . S
N790 C793 1.350 . S
N791 S789 1.610 . S
N791 C792 1.351 . S
C792 C786 1.428 . S
C792 N791 1.351 . S
C792 C793 1.434 . S
C793 C784 1.429 . S
C793 N790 1.350 . S
C793 C792 1.434 . S
C794 C795 1.369 . S
C794 C796 1.419 . S
C794 H798 0.930 . S
C795 C794 1.369 . S
C795 C804 1.429 . S
C796 C794 1.419 . S
C796 C797 1.363 . S
C796 H799 0.929 . S
C797 C796 1.363 . S
C797 C803 1.428 . S
H798 C794 0.930 . S
H799 C796 0.929 . S
S800 N801 1.613 . S
S800 N802 1.610 . S
N801 S800 1.613 . S
N801 C804 1.350 . S
N802 S800 1.610 . S
N802 C803 1.351 . S
C803 C797 1.428 . S
C803 N802 1.351 . S
C803 C804 1.434 . S
C804 C795 1.429 . S
C804 N801 1.350 . S
C804 C803 1.434 . S
C805 C806 1.369 . S
C805 C807 1.419 . S
C805 H809 0.930 . S
C806 C805 1.369 . S
C806 C815 1.429 . S
C807 C805 1.419 . S
C807 C808 1.363 . S
C807 H810 0.929 . S
C808 C807 1.363 . S
C808 C814 1.428 . S
H809 C805 0.930 . S
H810 C807 0.929 . S
S811 N812 1.613 . S
S811 N813 1.610 . S
N812 S811 1.613 . S
N812 C815 1.350 . S
N813 S811 1.610 . S
N813 C814 1.351 . S
C814 C808 1.428 . S
C814 N813 1.351 . S
C814 C815 1.434 . S
C815 C806 1.429 . S
C815 N812 1.350 . S
C815 C814 1.434 . S
C816 C817 1.369 . S
C816 C818 1.419 . S
C816 H820 0.930 . S
C817 C816 1.369 . S
C817 C826 1.429 . S
C818 C816 1.419 . S
C818 C819 1.363 . S
C818 H821 0.929 . S
C819 C818 1.363 . S
C819 C825 1.428 . S
H820 C816 0.930 . S
H821 C818 0.929 . S
S822 N823 1.613 . S
S822 N824 1.610 . S
N823 S822 1.613 . S
N823 C826 1.350 . S
N824 S822 1.610 . S
N824 C825 1.351 . S
C825 C819 1.428 . S
C825 N824 1.351 . S
C825 C826 1.434 . S
C826 C817 1.429 . S
C826 N823 1.350 . S
C826 C825 1.434 . S
C827 C828 1.369 . S
C827 C829 1.419 . S
C827 H831 0.930 . S
C828 C827 1.369 . S
C828 C837 1.429 . S
C829 C827 1.419 . S
C829 C830 1.363 . S
C829 H832 0.929 . S
C830 C829 1.363 . S
C830 C836 1.428 . S
H831 C827 0.930 . S
H832 C829 0.929 . S
S833 N834 1.613 . S
S833 N835 1.610 . S
N834 S833 1.613 . S
N834 C837 1.350 . S
N835 S833 1.610 . S
N835 C836 1.351 . S
C836 C830 1.428 . S
C836 N835 1.351 . S
C836 C837 1.434 . S
C837 C828 1.429 . S
C837 N834 1.350 . S
C837 C836 1.434 . S
C838 C839 1.369 . S
C838 C840 1.419 . S
C838 H842 0.930 . S
C839 C838 1.369 . S
C839 C848 1.429 . S
C840 C838 1.419 . S
C840 C841 1.363 . S
C840 H843 0.929 . S
C841 C840 1.363 . S
C841 C847 1.428 . S
H842 C838 0.930 . S
H843 C840 0.929 . S
S844 N845 1.613 . S
S844 N846 1.610 . S
N845 S844 1.613 . S
N845 C848 1.350 . S
N846 S844 1.610 . S
N846 C847 1.351 . S
C847 C841 1.428 . S
C847 N846 1.351 . S
C847 C848 1.434 . S
C848 C839 1.429 . S
C848 N845 1.350 . S
C848 C847 1.434 . S
C849 C850 1.369 . S
C849 C851 1.419 . S
C849 H853 0.930 . S
C850 C849 1.369 . S
C850 C859 1.429 . S
C851 C849 1.419 . S
C851 C852 1.363 . S
C851 H854 0.929 . S
C852 C851 1.363 . S
C852 C858 1.428 . S
H853 C849 0.930 . S
H854 C851 0.929 . S
S855 N856 1.613 . S
S855 N857 1.610 . S
N856 S855 1.613 . S
N856 C859 1.350 . S
N857 S855 1.610 . S
N857 C858 1.351 . S
C858 C852 1.428 . S
C858 N857 1.351 . S
C858 C859 1.434 . S
C859 C850 1.429 . S
C859 N856 1.350 . S
C859 C858 1.434 . S
C860 C861 1.369 . S
C860 C862 1.419 . S
C860 H864 0.930 . S
C861 C860 1.369 . S
C861 C870 1.429 . S
C862 C860 1.419 . S
C862 C863 1.363 . S
C862 H865 0.929 . S
C863 C862 1.363 . S
C863 C869 1.428 . S
H864 C860 0.930 . S
H865 C862 0.929 . S
S866 N867 1.613 . S
S866 N868 1.610 . S
N867 S866 1.613 . S
N867 C870 1.350 . S
N868 S866 1.610 . S
N868 C869 1.351 . S
C869 C863 1.428 . S
C869 N868 1.351 . S
C869 C870 1.434 . S
C870 C861 1.429 . S
C870 N867 1.350 . S
C870 C869 1.434 . S
C871 C872 1.369 . S
C871 C873 1.419 . S
C871 H875 0.930 . S
C872 C871 1.369 . S
C872 C881 1.429 1_455 S
C873 C871 1.419 . S
C873 C874 1.363 1_455 S
C873 H876 0.929 . S
C874 C873 1.363 1_655 S
C874 C880 1.428 . S
H875 C871 0.930 . S
H876 C873 0.929 . S
S877 N878 1.613 . S
S877 N879 1.610 . S
N878 S877 1.613 . S
N878 C881 1.350 . S
N879 S877 1.610 . S
N879 C880 1.351 . S
C880 C874 1.428 . S
C880 N879 1.351 . S
C880 C881 1.434 . S
C881 C872 1.429 1_655 S
C881 N878 1.350 . S
C881 C880 1.434 . S
C882 C883 1.369 . S
C882 C884 1.419 . S
C882 H886 0.930 . S
C883 C882 1.369 . S
C883 C892 1.429 . S
C884 C882 1.419 . S
C884 C885 1.363 . S
C884 H887 0.929 . S
C885 C884 1.363 . S
C885 C891 1.428 . S
H886 C882 0.930 . S
H887 C884 0.929 . S
S888 N889 1.613 . S
S888 N890 1.610 . S
N889 S888 1.613 . S
N889 C892 1.350 . S
N890 S888 1.610 . S
N890 C891 1.351 . S
C891 C885 1.428 . S
C891 N890 1.351 . S
C891 C892 1.434 . S
C892 C883 1.429 . S
C892 N889 1.350 . S
C892 C891 1.434 . S
C893 C894 1.369 . S
C893 C895 1.419 . S
C893 H897 0.930 . S
C894 C893 1.369 . S
C894 C903 1.429 . S
C895 C893 1.419 . S
C895 C896 1.363 . S
C895 H898 0.929 . S
C896 C895 1.363 . S
C896 C902 1.428 . S
H897 C893 0.930 . S
H898 C895 0.929 . S
S899 N900 1.613 . S
S899 N901 1.610 . S
N900 S899 1.613 . S
N900 C903 1.350 . S
N901 S899 1.610 . S
N901 C902 1.351 . S
C902 C896 1.428 . S
C902 N901 1.351 . S
C902 C903 1.434 . S
C903 C894 1.429 . S
C903 N900 1.350 . S
C903 C902 1.434 . S
C904 C905 1.369 . S
C904 C906 1.419 . S
C904 H908 0.930 . S
C905 C904 1.369 . S
C905 C914 1.429 . S
C906 C904 1.419 . S
C906 C907 1.363 . S
C906 H909 0.929 . S
C907 C906 1.363 . S
C907 C913 1.428 . S
H908 C904 0.930 . S
H909 C906 0.929 . S
S910 N911 1.613 . S
S910 N912 1.610 . S
N911 S910 1.613 . S
N911 C914 1.350 . S
N912 S910 1.610 . S
N912 C913 1.351 . S
C913 C907 1.428 . S
C913 N912 1.351 . S
C913 C914 1.434 . S
C914 C905 1.429 . S
C914 N911 1.350 . S
C914 C913 1.434 . S
C915 C916 1.369 . S
C915 C917 1.419 . S
C915 H919 0.930 . S
C916 C915 1.369 . S
C916 C925 1.429 . S
C917 C915 1.419 . S
C917 C918 1.363 . S
C917 H920 0.929 . S
C918 C917 1.363 . S
C918 C924 1.428 . S
H919 C915 0.930 . S
H920 C917 0.929 . S
S921 N922 1.613 . S
S921 N923 1.610 . S
N922 S921 1.613 . S
N922 C925 1.350 . S
N923 S921 1.610 . S
N923 C924 1.351 . S
C924 C918 1.428 . S
C924 N923 1.351 . S
C924 C925 1.434 . S
C925 C916 1.429 . S
C925 N922 1.350 . S
C925 C924 1.434 . S
C926 C927 1.369 1_545 S
C926 C928 1.419 . S
C926 H930 0.930 . S
C927 C926 1.369 1_565 S
C927 C936 1.429 . S
C928 C926 1.419 . S
C928 C929 1.363 . S
C928 H931 0.929 . S
C929 C928 1.363 . S
C929 C935 1.428 1_545 S
H930 C926 0.930 . S
H931 C928 0.929 . S
S932 N933 1.613 . S
S932 N934 1.610 . S
N933 S932 1.613 . S
N933 C936 1.350 . S
N934 S932 1.610 . S
N934 C935 1.351 . S
C935 C929 1.428 1_565 S
C935 N934 1.351 . S
C935 C936 1.434 . S
C936 C927 1.429 . S
C936 N933 1.350 . S
C936 C935 1.434 . S
C937 C938 1.369 . S
C937 C939 1.419 . S
C937 H941 0.930 . S
C938 C937 1.369 . S
C938 C947 1.429 . S
C939 C937 1.419 . S
C939 C940 1.363 . S
C939 H942 0.929 . S
C940 C939 1.363 . S
C940 C946 1.428 . S
H941 C937 0.930 . S
H942 C939 0.929 . S
S943 N944 1.613 . S
S943 N945 1.610 . S
N944 S943 1.613 . S
N944 C947 1.350 . S
N945 S943 1.610 . S
N945 C946 1.351 . S
C946 C940 1.428 . S
C946 N945 1.351 . S
C946 C947 1.434 . S
C947 C938 1.429 . S
C947 N944 1.350 . S
C947 C946 1.434 . S
C948 C949 1.369 . S
C948 C950 1.419 . S
C948 H952 0.930 . S
C949 C948 1.369 . S
C949 C958 1.429 . S
C950 C948 1.419 . S
C950 C951 1.363 . S
C950 H953 0.929 . S
C951 C950 1.363 . S
C951 C957 1.428 . S
H952 C948 0.930 . S
H953 C950 0.929 . S
S954 N955 1.613 . S
S954 N956 1.610 . S
N955 S954 1.613 . S
N955 C958 1.350 . S
N956 S954 1.610 . S
N956 C957 1.351 . S
C957 C951 1.428 . S
C957 N956 1.351 . S
C957 C958 1.434 . S
C958 C949 1.429 . S
C958 N955 1.350 . S
C958 C957 1.434 . S
C959 C960 1.369 . S
C959 C961 1.419 . S
C959 H963 0.930 . S
C960 C959 1.369 . S
C960 C969 1.429 . S
C961 C959 1.419 . S
C961 C962 1.363 . S
C961 H964 0.929 . S
C962 C961 1.363 . S
C962 C968 1.428 . S
H963 C959 0.930 . S
H964 C961 0.929 . S
S965 N966 1.613 . S
S965 N967 1.610 . S
N966 S965 1.613 . S
N966 C969 1.350 . S
N967 S965 1.610 . S
N967 C968 1.351 . S
C968 C962 1.428 . S
C968 N967 1.351 . S
C968 C969 1.434 . S
C969 C960 1.429 . S
C969 N966 1.350 . S
C969 C968 1.434 . S
C970 C971 1.369 . S
C970 C972 1.419 . S
C970 H974 0.930 . S
C971 C970 1.369 . S
C971 C980 1.429 . S
C972 C970 1.419 . S
C972 C973 1.363 . S
C972 H975 0.929 . S
C973 C972 1.363 . S
C973 C979 1.428 . S
H974 C970 0.930 . S
H975 C972 0.929 . S
S976 N977 1.613 . S
S976 N978 1.610 . S
N977 S976 1.613 . S
N977 C980 1.350 . S
N978 S976 1.610 . S
N978 C979 1.351 . S
C979 C973 1.428 . S
C979 N978 1.351 . S
C979 C980 1.434 . S
C980 C971 1.429 . S
C980 N977 1.350 . S
C980 C979 1.434 . S
C981 C982 1.369 . S
C981 C983 1.419 . S
C981 H985 0.930 . S
C982 C981 1.369 . S
C982 C991 1.429 . S
C983 C981 1.419 . S
C983 C984 1.363 . S
C983 H986 0.929 . S
C984 C983 1.363 . S
C984 C990 1.428 . S
H985 C981 0.930 . S
H986 C983 0.929 . S
S987 N988 1.613 . S
S987 N989 1.610 . S
N988 S987 1.613 . S
N988 C991 1.350 . S
N989 S987 1.610 . S
N989 C990 1.351 . S
C990 C984 1.428 . S
C990 N989 1.351 . S
C990 C991 1.434 . S
C991 C982 1.429 . S
C991 N988 1.350 . S
C991 C990 1.434 . S
C992 C993 1.369 . S
C992 C994 1.419 . S
C992 H996 0.930 . S
C993 C992 1.369 . S
C993 C1002 1.429 . S
C994 C992 1.419 . S
C994 C995 1.363 . S
C994 H997 0.929 . S
C995 C994 1.363 . S
C995 C1001 1.428 . S
H996 C992 0.930 . S
H997 C994 0.929 . S
S998 N999 1.613 . S
S998 N1000 1.610 . S
N999 S998 1.613 . S
N999 C1002 1.350 . S
N1000 S998 1.610 . S
N1000 C1001 1.351 . S
C1001 C995 1.428 . S
C1001 N1000 1.351 . S
C1001 C1002 1.434 . S
C1002 C993 1.429 . S
C1002 N999 1.350 . S
C1002 C1001 1.434 . S
C1003 C1004 1.369 . S
C1003 C1005 1.419 . S
C1003 H1007 0.930 . S
C1004 C1003 1.369 . S
C1004 C1013 1.429 . S
C1005 C1003 1.419 . S
C1005 C1006 1.363 . S
C1005 H1008 0.929 . S
C1006 C1005 1.363 . S
C1006 C1012 1.428 . S
H1007 C1003 0.930 . S
H1008 C1005 0.929 . S
S1009 N1010 1.613 . S
S1009 N1011 1.610 . S
N1010 S1009 1.613 . S
N1010 C1013 1.350 . S
N1011 S1009 1.610 . S
N1011 C1012 1.351 . S
C1012 C1006 1.428 . S
C1012 N1011 1.351 . S
C1012 C1013 1.434 . S
C1013 C1004 1.429 . S
C1013 N1010 1.350 . S
C1013 C1012 1.434 . S
C1014 C1015 1.369 . S
C1014 C1016 1.419 . S
C1014 H1018 0.930 . S
C1015 C1014 1.369 . S
C1015 C1024 1.429 . S
C1016 C1014 1.419 . S
C1016 C1017 1.363 . S
C1016 H1019 0.929 . S
C1017 C1016 1.363 . S
C1017 C1023 1.428 . S
H1018 C1014 0.930 . S
H1019 C1016 0.929 . S
S1020 N1021 1.613 . S
S1020 N1022 1.610 . S
N1021 S1020 1.613 . S
N1021 C1024 1.350 . S
N1022 S1020 1.610 . S
N1022 C1023 1.351 . S
C1023 C1017 1.428 . S
C1023 N1022 1.351 . S
C1023 C1024 1.434 . S
C1024 C1015 1.429 . S
C1024 N1021 1.350 . S
C1024 C1023 1.434 . S
C1025 C1026 1.369 . S
C1025 C1027 1.419 . S
C1025 H1029 0.930 . S
C1026 C1025 1.369 . S
C1026 C1035 1.429 . S
C1027 C1025 1.419 . S
C1027 C1028 1.363 . S
C1027 H1030 0.929 . S
C1028 C1027 1.363 . S
C1028 C1034 1.428 . S
H1029 C1025 0.930 . S
H1030 C1027 0.929 . S
S1031 N1032 1.613 . S
S1031 N1033 1.610 . S
N1032 S1031 1.613 . S
N1032 C1035 1.350 . S
N1033 S1031 1.610 . S
N1033 C1034 1.351 . S
C1034 C1028 1.428 . S
C1034 N1033 1.351 . S
C1034 C1035 1.434 . S
C1035 C1026 1.429 . S
C1035 N1032 1.350 . S
C1035 C1034 1.434 . S
C1036 C1037 1.369 . S
C1036 C1038 1.419 . S
C1036 H1040 0.930 . S
C1037 C1036 1.369 . S
C1037 C1046 1.429 . S
C1038 C1036 1.419 . S
C1038 C1039 1.363 . S
C1038 H1041 0.929 . S
C1039 C1038 1.363 . S
C1039 C1045 1.428 . S
H1040 C1036 0.930 . S
H1041 C1038 0.929 . S
S1042 N1043 1.613 . S
S1042 N1044 1.610 . S
N1043 S1042 1.613 . S
N1043 C1046 1.350 . S
N1044 S1042 1.610 . S
N1044 C1045 1.351 . S
C1045 C1039 1.428 . S
C1045 N1044 1.351 . S
C1045 C1046 1.434 . S
C1046 C1037 1.429 . S
C1046 N1043 1.350 . S
C1046 C1045 1.434 . S
C1047 C1048 1.369 . S
C1047 C1049 1.419 . S
C1047 H1051 0.930 . S
C1048 C1047 1.369 . S
C1048 C1057 1.429 . S
C1049 C1047 1.419 . S
C1049 C1050 1.363 . S
C1049 H1052 0.929 . S
C1050 C1049 1.363 . S
C1050 C1056 1.428 . S
H1051 C1047 0.930 . S
H1052 C1049 0.929 . S
S1053 N1054 1.613 . S
S1053 N1055 1.610 1_554 S
N1054 S1053 1.613 . S
N1054 C1057 1.350 . S
N1055 S1053 1.610 1_556 S
N1055 C1056 1.351 1_556 S
C1056 C1050 1.428 . S
C1056 N1055 1.351 1_554 S
C1056 C1057 1.434 . S
C1057 C1048 1.429 . S
C1057 N1054 1.350 . S
C1057 C1056 1.434 . S
C1058 C1059 1.369 . S
C1058 C1060 1.419 . S
C1058 H1062 0.930 . S
C1059 C1058 1.369 . S
C1059 C1068 1.429 . S
C1060 C1058 1.419 . S
C1060 C1061 1.363 . S
C1060 H1063 0.929 . S
C1061 C1060 1.363 . S
C1061 C1067 1.428 . S
H1062 C1058 0.930 . S
H1063 C1060 0.929 . S
S1064 N1065 1.613 . S
S1064 N1066 1.610 . S
N1065 S1064 1.613 . S
N1065 C1068 1.350 . S
N1066 S1064 1.610 . S
N1066 C1067 1.351 . S
C1067 C1061 1.428 . S
C1067 N1066 1.351 . S
C1067 C1068 1.434 . S
C1068 C1059 1.429 . S
C1068 N1065 1.350 . S
C1068 C1067 1.434 . S
C1069 C1070 1.369 . S
C1069 C1071 1.419 . S
C1069 H1073 0.930 . S
C1070 C1069 1.369 . S
C1070 C1079 1.429 . S
C1071 C1069 1.419 . S
C1071 C1072 1.363 . S
C1071 H1074 0.929 . S
C1072 C1071 1.363 . S
C1072 C1078 1.428 . S
H1073 C1069 0.930 . S
H1074 C1071 0.929 . S
S1075 N1076 1.613 . S
S1075 N1077 1.610 . S
N1076 S1075 1.613 . S
N1076 C1079 1.350 . S
N1077 S1075 1.610 . S
N1077 C1078 1.351 . S
C1078 C1072 1.428 . S
C1078 N1077 1.351 . S
C1078 C1079 1.434 . S
C1079 C1070 1.429 . S
C1079 N1076 1.350 . S
C1079 C1078 1.434 . S
C1080 C1081 1.369 . S
C1080 C1082 1.419 . S
C1080 H1084 0.930 . S
C1081 C1080 1.369 . S
C1081 C1090 1.429 . S
C1082 C1080 1.419 . S
C1082 C1083 1.363 . S
C1082 H1085 0.929 . S
C1083 C1082 1.363 . S
C1083 C1089 1.428 . S
H1084 C1080 0.930 . S
H1085 C1082 0.929 . S
S1086 N1087 1.613 . S
S1086 N1088 1.610 . S
N1087 S1086 1.613 . S
N1087 C1090 1.350 . S
N1088 S1086 1.610 . S
N1088 C1089 1.351 . S
C1089 C1083 1.428 . S
C1089 N1088 1.351 . S
C1089 C1090 1.434 . S
C1090 C1081 1.429 . S
C1090 N1087 1.350 . S
C1090 C1089 1.434 . S
C1091 C1092 1.369 . S
C1091 C1093 1.419 . S
C1091 H1095 0.930 1_556 S
C1092 C1091 1.369 . S
C1092 C1101 1.429 . S
C1093 C1091 1.419 . S
C1093 C1094 1.363 . S
C1093 H1096 0.929 1_556 S
C1094 C1093 1.363 . S
C1094 C1100 1.428 . S
H1095 C1091 0.930 1_554 S
H1096 C1093 0.929 1_554 S
S1097 N1098 1.613 . S
S1097 N1099 1.610 . S
N1098 S1097 1.613 . S
N1098 C1101 1.350 . S
N1099 S1097 1.610 . S
N1099 C1100 1.351 . S
C1100 C1094 1.428 . S
C1100 N1099 1.351 . S
C1100 C1101 1.434 . S
C1101 C1092 1.429 . S
C1101 N1098 1.350 . S
C1101 C1100 1.434 . S
C1102 C1103 1.369 . S
C1102 C1104 1.419 . S
C1102 H1106 0.930 . S
C1103 C1102 1.369 . S
C1103 C1112 1.429 . S
C1104 C1102 1.419 . S
C1104 C1105 1.363 . S
C1104 H1107 0.929 . S
C1105 C1104 1.363 . S
C1105 C1111 1.428 . S
H1106 C1102 0.930 . S
H1107 C1104 0.929 . S
S1108 N1109 1.613 . S
S1108 N1110 1.610 1_554 S
N1109 S1108 1.613 . S
N1109 C1112 1.350 1_554 S
N1110 S1108 1.610 1_556 S
N1110 C1111 1.351 . S
C1111 C1105 1.428 . S
C1111 N1110 1.351 . S
C1111 C1112 1.434 . S
C1112 C1103 1.429 . S
C1112 N1109 1.350 1_556 S
C1112 C1111 1.434 . S
C1113 C1114 1.369 . S
C1113 C1115 1.419 . S
C1113 H1117 0.930 . S
C1114 C1113 1.369 . S
C1114 C1123 1.429 . S
C1115 C1113 1.419 . S
C1115 C1116 1.363 . S
C1115 H1118 0.929 . S
C1116 C1115 1.363 . S
C1116 C1122 1.428 . S
H1117 C1113 0.930 . S
H1118 C1115 0.929 . S
S1119 N1120 1.613 . S
S1119 N1121 1.610 . S
N1120 S1119 1.613 . S
N1120 C1123 1.350 . S
N1121 S1119 1.610 . S
N1121 C1122 1.351 . S
C1122 C1116 1.428 . S
C1122 N1121 1.351 . S
C1122 C1123 1.434 . S
C1123 C1114 1.429 . S
C1123 N1120 1.350 . S
C1123 C1122 1.434 . S
C1124 C1125 1.369 . S
C1124 C1126 1.419 . S
C1124 H1128 0.930 . S
C1125 C1124 1.369 . S
C1125 C1134 1.429 . S
C1126 C1124 1.419 . S
C1126 C1127 1.363 . S
C1126 H1129 0.929 . S
C1127 C1126 1.363 . S
C1127 C1133 1.428 . S
H1128 C1124 0.930 . S
H1129 C1126 0.929 . S
S1130 N1131 1.613 . S
S1130 N1132 1.610 . S
N1131 S1130 1.613 . S
N1131 C1134 1.350 . S
N1132 S1130 1.610 . S
N1132 C1133 1.351 . S
C1133 C1127 1.428 . S
C1133 N1132 1.351 . S
C1133 C1134 1.434 . S
C1134 C1125 1.429 . S
C1134 N1131 1.350 . S
C1134 C1133 1.434 . S
C1135 C1136 1.369 . S
C1135 C1137 1.419 . S
C1135 H1139 0.930 . S
C1136 C1135 1.369 . S
C1136 C1145 1.429 . S
C1137 C1135 1.419 . S
C1137 C1138 1.363 . S
C1137 H1140 0.929 . S
C1138 C1137 1.363 . S
C1138 C1144 1.428 . S
H1139 C1135 0.930 . S
H1140 C1137 0.929 . S
S1141 N1142 1.613 . S
S1141 N1143 1.610 . S
N1142 S1141 1.613 . S
N1142 C1145 1.350 . S
N1143 S1141 1.610 . S
N1143 C1144 1.351 . S
C1144 C1138 1.428 . S
C1144 N1143 1.351 . S
C1144 C1145 1.434 . S
C1145 C1136 1.429 . S
C1145 N1142 1.350 . S
C1145 C1144 1.434 . S
C1146 C1147 1.369 . S
C1146 C1148 1.419 . S
C1146 H1150 0.930 . S
C1147 C1146 1.369 . S
C1147 C1156 1.429 . S
C1148 C1146 1.419 . S
C1148 C1149 1.363 . S
C1148 H1151 0.929 . S
C1149 C1148 1.363 . S
C1149 C1155 1.428 . S
H1150 C1146 0.930 . S
H1151 C1148 0.929 . S
S1152 N1153 1.613 . S
S1152 N1154 1.610 . S
N1153 S1152 1.613 . S
N1153 C1156 1.350 . S
N1154 S1152 1.610 . S
N1154 C1155 1.351 . S
C1155 C1149 1.428 . S
C1155 N1154 1.351 . S
C1155 C1156 1.434 . S
C1156 C1147 1.429 . S
C1156 N1153 1.350 . S
C1156 C1155 1.434 . S
C1157 C1158 1.369 . S
C1157 C1159 1.419 . S
C1157 H1161 0.930 . S
C1158 C1157 1.369 . S
C1158 C1167 1.429 . S
C1159 C1157 1.419 . S
C1159 C1160 1.363 . S
C1159 H1162 0.929 . S
C1160 C1159 1.363 . S
C1160 C1166 1.428 . S
H1161 C1157 0.930 . S
H1162 C1159 0.929 . S
S1163 N1164 1.613 . S
S1163 N1165 1.610 . S
N1164 S1163 1.613 . S
N1164 C1167 1.350 . S
N1165 S1163 1.610 . S
N1165 C1166 1.351 . S
C1166 C1160 1.428 . S
C1166 N1165 1.351 . S
C1166 C1167 1.434 . S
C1167 C1158 1.429 . S
C1167 N1164 1.350 . S
C1167 C1166 1.434 . S
C641 C18 1.916 . S
C643 C55 1.779 . S
C652 C98 2.481 . S
C654 C50 2.410 . S
C663 C130 2.009 . S
C665 C99 2.075 . S
C674 C19 1.658 . S
C676 C135 1.540 . S
C685 C10 1.653 . S
C687 C366 1.541 . S
C696 C289 1.920 . S
C698 C46 1.778 . S
C707 C89 2.483 . S
C709 C419 2.405 . S
C718 C139 2.003 . S
C720 C530 2.075 . S
C729 C329 2.481 . S
C731 C59 2.404 . S
C740 C499 2.005 . S
C742 C90 2.075 . S
C751 C570 1.659 . S
C753 C126 1.538 . S
C762 C9 1.918 . S
C764 C446 1.779 . S
C773 C6 0.683 . S
C775 C335 0.584 . S
C784 C498 1.865 . S
C786 C169 1.850 . S
C795 C206 0.574 . S
C797 C575 0.689 . S
C806 C449 1.856 . S
C808 C258 1.869 . S
C817 C86 0.605 . S
C819 C295 0.676 . S
C828 C369 1.870 . S
C830 C178 1.855 . S
C839 C249 1.869 . S
C841 C418 1.854 . S
C850 C209 2.483 . S
C852 C459 2.407 . S
C861 C379 2.007 . S
C863 C210 2.075 . S
C872 C455 1.777 . S
C874 C298 1.920 . S
C883 C218 2.483 . S
C885 C170 2.407 . S
C894 C370 2.003 . S
C896 C339 2.075 . S
C905 C538 2.480 . S
C907 C450 2.406 . S
C916 C250 2.003 . S
C918 C219 2.075 . S
C927 C375 1.544 . S
C929 C579 1.655 . S
C938 C526 0.603 . S
C940 C15 0.679 . S
C949 C95 0.583 . S
C951 C566 0.693 . S
C960 C489 1.866 . S
C962 C58 1.851 . S
C971 C286 0.685 . S
C973 C215 0.594 . S
C982 C138 1.867 . S
C984 C409 1.852 . S
C993 C490 2.005 . S
C995 C539 2.075 . S
C1004 C299 1.656 . S
C1006 C495 1.540 . S
C1015 C246 1.544 . S
C1017 C290 1.656 . S
C1026 C179 2.406 . S
C1028 C529 2.480 . S
C1037 C486 1.533 . S
C1039 C610 1.662 . S
C1048 C615 0.669 . S
C1050 C326 0.596 . S
C1059 C49 1.850 . S
C1061 C378 1.865 . S
C1070 C330 2.075 . S
C1072 C259 2.006 . S
C1081 C338 2.482 . S
C1083 C410 2.410 . S
C1092 C619 1.663 . S
C1094 C255 1.531 . S
C1103 C535 0.606 . S
C1105 C606 0.673 . S
C1114 C458 1.856 . S
C1116 C129 1.869 . S
C1125 C415 1.787 . S
C1127 C578 1.912 . S
C1136 C406 1.779 . S
C1138 C609 1.914 . S
C1147 C166 1.784 . S
C1149 C569 1.912 . S
C1158 C618 1.920 . S
C1160 C175 1.782 . S
