# Generated by pormake.
# Topology smm, (6)-cn, num edge types: 1
# Building blocks:
#     Node 0, Type 0, BuildingBlock: INOVEN_clean_sbu_0, # of connection points: 6
#     Node 1, Type 0, BuildingBlock: INOVEN_clean_sbu_0, # of connection points: 6
#     Node 2, Type 0, BuildingBlock: INOVEN_clean_sbu_0, # of connection points: 6
#     Node 3, Type 0, BuildingBlock: INOVEN_clean_sbu_0, # of connection points: 6
#     Node 4, Type 0, BuildingBlock: INOVEN_clean_sbu_0, # of connection points: 6
#     Node 5, Type 0, BuildingBlock: INOVEN_clean_sbu_0, # of connection points: 6
#     Node 6, Type 0, BuildingBlock: INOVEN_clean_sbu_0, # of connection points: 6
#     Node 7, Type 0, BuildingBlock: INOVEN_clean_sbu_0, # of connection points: 6
#     Node 8, Type 0, BuildingBlock: INOVEN_clean_sbu_0, # of connection points: 6
#     Edge 9, Type (0, 0), BuildingBlock: EZIPEK_clean_linker_0, # of connection points: 2
#     Edge 10, Type (0, 0), BuildingBlock: EZIPEK_clean_linker_0, # of connection points: 2
#     Edge 11, Type (0, 0), BuildingBlock: EZIPEK_clean_linker_0, # of connection points: 2
#     Edge 12, Type (0, 0), BuildingBlock: EZIPEK_clean_linker_0, # of connection points: 2
#     Edge 13, Type (0, 0), BuildingBlock: EZIPEK_clean_linker_0, # of connection points: 2
#     Edge 14, Type (0, 0), BuildingBlock: EZIPEK_clean_linker_0, # of connection points: 2
#     Edge 15, Type (0, 0), BuildingBlock: EZIPEK_clean_linker_0, # of connection points: 2
#     Edge 16, Type (0, 0), BuildingBlock: EZIPEK_clean_linker_0, # of connection points: 2
#     Edge 17, Type (0, 0), BuildingBlock: EZIPEK_clean_linker_0, # of connection points: 2
#     Edge 18, Type (0, 0), BuildingBlock: EZIPEK_clean_linker_0, # of connection points: 2
#     Edge 19, Type (0, 0), BuildingBlock: EZIPEK_clean_linker_0, # of connection points: 2
#     Edge 20, Type (0, 0), BuildingBlock: EZIPEK_clean_linker_0, # of connection points: 2
#     Edge 21, Type (0, 0), BuildingBlock: EZIPEK_clean_linker_0, # of connection points: 2
#     Edge 22, Type (0, 0), BuildingBlock: EZIPEK_clean_linker_0, # of connection points: 2
#     Edge 23, Type (0, 0), BuildingBlock: EZIPEK_clean_linker_0, # of connection points: 2
#     Edge 24, Type (0, 0), BuildingBlock: EZIPEK_clean_linker_0, # of connection points: 2
#     Edge 25, Type (0, 0), BuildingBlock: EZIPEK_clean_linker_0, # of connection points: 2
#     Edge 26, Type (0, 0), BuildingBlock: EZIPEK_clean_linker_0, # of connection points: 2
#     Edge 27, Type (0, 0), BuildingBlock: EZIPEK_clean_linker_0, # of connection points: 2
#     Edge 28, Type (0, 0), BuildingBlock: EZIPEK_clean_linker_0, # of connection points: 2
#     Edge 29, Type (0, 0), BuildingBlock: EZIPEK_clean_linker_0, # of connection points: 2
#     Edge 30, Type (0, 0), BuildingBlock: EZIPEK_clean_linker_0, # of connection points: 2
#     Edge 31, Type (0, 0), BuildingBlock: EZIPEK_clean_linker_0, # of connection points: 2
#     Edge 32, Type (0, 0), BuildingBlock: EZIPEK_clean_linker_0, # of connection points: 2
#     Edge 33, Type (0, 0), BuildingBlock: EZIPEK_clean_linker_0, # of connection points: 2
#     Edge 34, Type (0, 0), BuildingBlock: EZIPEK_clean_linker_0, # of connection points: 2
#     Edge 35, Type (0, 0), BuildingBlock: EZIPEK_clean_linker_0, # of connection points: 2
# Relax obj value: 0.039
# Max RMSD: 0.118
# Mean RMSD: 0.118
data_MOF--net-smm--node1-INOVEN_clean_sbu_0--edge1-EZIPEK_clean_linker_0
_symmetry_space_group_name_H-M    P1
_symmetry_Int_Tables_number       1
_symmetry_cell_setting            triclinic
loop_
_symmetry_equiv_pos_as_xyz
'x, y, z'
_cell_length_a     56.779282
_cell_length_b     57.060871
_cell_length_c     10.365061
_cell_angle_alpha  90.093729
_cell_angle_beta   90.029825
_cell_angle_gamma 119.71551
loop_
_atom_site_label
_atom_site_type_symbol
_atom_site_fract_x
_atom_site_fract_y
_atom_site_fract_z
_atom_type_partial_charge
Gd0 Gd 0.07451 0.22762 0.01828 0.0
Gd1 Gd 1.02213 0.17098 0.04786 0.0
C2 C 1.0157 0.22438 0.06148 0.0
C3 C 0.10985 0.27385 0.92171 0.0
C4 C 0.11881 0.30308 0.9124 0.0
C5 C 0.14604 0.32206 0.93863 0.0
C6 C 0.10163 0.31233 0.86464 0.0
C7 C 0.13914 0.35868 0.86428 0.0
C8 C 0.11173 0.3399 0.8409 0.0
C9 C 0.15608 0.34958 0.91515 0.0
C10 C 0.06163 0.20932 0.26161 0.0
C11 C 0.08195 0.17514 0.04061 0.0
C12 C 0.98525 0.12302 0.11975 0.0
C13 C 0.97432 0.09376 0.09343 0.0
C14 C 0.95771 0.08098 -0.01445 0.0
C15 C 0.97861 0.07781 0.1835 0.0
C16 C 0.94966 0.03712 0.0602 0.0
C17 C 0.96649 0.04983 0.16686 0.0
C18 C 0.94553 0.05294 0.96913 0.0
C19 C 1.03693 0.18909 0.80381 0.0
O20 O 0.04137 0.23898 0.02531 0.0
O21 O 1.00452 0.19833 0.0892 0.0
O22 O 0.1136 0.26459 0.03094 0.0
O23 O 0.08719 0.25685 0.86375 0.0
O24 O 0.08599 0.22705 0.22495 0.0
O25 O 0.04513 0.20611 0.17301 0.0
O26 O 0.0556 0.16043 0.06349 0.0
O27 O 0.09365 0.20099 0.00757 0.0
O28 O 0.98109 0.13735 0.0335 0.0
O29 O 1.00921 0.13629 0.174 0.0
O30 O 1.01223 0.17239 0.83877 0.0
O31 O 0.05243 0.19191 0.89592 0.0
H32 H 0.15979 0.3155 0.974 0.0
H33 H 0.08058 0.29824 0.84268 0.0
H34 H 0.0983 0.34654 0.80206 0.0
H35 H 0.17727 0.36374 0.93406 0.0
H36 H 0.95369 0.09252 0.91491 0.0
H37 H 0.99094 0.08694 0.26848 0.0
H38 H 0.9699 0.03799 0.23834 0.0
H39 H 0.93258 0.04351 0.88629 0.0
Gd40 Gd 0.84806 0.85816 0.00582 0.0
Gd41 Gd 0.90665 0.8678 0.03002 0.0
C42 C 0.85398 0.8059 0.03374 0.0
C43 C 0.80348 0.85518 0.92198 0.0
C44 C 0.77533 0.8354 0.87975 0.0
C45 C 0.75378 0.82473 0.96881 0.0
C46 C 0.76931 0.82868 0.7483 0.0
C47 C 0.72113 0.80117 0.79667 0.0
C48 C 0.74251 0.81167 0.70734 0.0
C49 C 0.72703 0.80773 0.92775 0.0
C50 C 0.86442 0.85661 0.24828 0.0
C51 C 0.90002 0.92028 0.02256 0.0
C52 C 0.95318 0.87229 0.08984 0.0
C53 C 0.98285 0.89152 0.07652 0.0
C54 C 0.99758 0.8894 0.97216 0.0
C55 C 0.99713 0.91099 0.1726 0.0
C56 C 0.03989 0.92558 0.06036 0.0
C57 C 1.02531 0.92788 0.16433 0.0
C58 C 1.02577 0.90629 0.96405 0.0
C59 C 0.89016 0.8709 0.79079 0.0
O60 O 0.83789 0.81491 -0.00729 0.0
O61 O 0.8799 0.82233 0.06226 0.0
O62 O 0.80942 0.85592 0.0446 0.0
O63 O 0.82353 0.85881 0.84662 0.0
O64 O 0.83946 0.84239 0.20894 0.0
O65 O 0.87892 0.87264 0.16106 0.0
O66 O 0.91683 0.911 0.04436 0.0
O67 O 0.87367 0.90414 0.00162 0.0
O68 O 0.9396 0.86015 -0.01473 0.0
O69 O 0.93936 0.87903 0.16792 0.0
O70 O 0.91502 0.88512 0.83001 0.0
O71 O 0.87605 0.85393 0.87545 0.0
H72 H 0.75751 0.82977 0.07031 0.0
H73 H 0.78527 0.83683 0.67664 0.0
H74 H 0.73842 0.80679 0.60583 0.0
H75 H 0.71084 0.79981 -0.00169 0.0
H76 H 0.98739 0.87442 0.8974 0.0
H77 H 0.9866 0.91298 0.2553 0.0
H78 H 1.03582 0.94258 0.23983 0.0
H79 H 1.03663 0.90412 0.88322 0.0
Gd80 Gd 0.21968 1.00503 0.02313 0.0
Gd81 Gd 0.2103 0.05388 0.04732 0.0
C82 C 0.2725 0.06266 0.05314 0.0
C83 C 0.22225 0.96361 0.93669 0.0
C84 C 0.24229 0.95535 0.90032 0.0
C85 C 0.26848 0.96773 0.95408 0.0
C86 C 0.23471 0.93408 0.81223 0.0
C87 C 0.27867 0.9368 0.83583 0.0
C88 C 0.2527 0.92486 0.78032 0.0
C89 C 0.28654 0.9585 0.92205 0.0
C90 C 0.22154 1.02277 0.26577 0.0
C91 C 0.15731 0.99541 0.03871 0.0
C92 C 0.20693 0.09631 0.10768 0.0
C93 C 0.1877 0.10661 0.09504 0.0
C94 C 0.19782 0.13457 0.08887 0.0
C95 C 0.15951 0.08911 0.08899 0.0
C96 C 0.15199 0.12755 0.07291 0.0
C97 C 0.14178 0.09953 0.07836 0.0
C98 C 0.18014 0.14497 0.0778 0.0
C99 C 0.20701 0.0344 0.808 0.0
O100 O 0.2634 0.03737 0.01751 0.0
O101 O 0.25611 0.07257 0.07542 0.0
O102 O 0.22032 0.96795 0.05931 0.0
O103 O 0.22053 0.98113 0.86158 0.0
O104 O 0.23534 1.0115 0.22642 0.0
O105 O 0.20545 1.02155 0.17864 0.0
O106 O 0.16673 1.02137 0.06129 0.0
O107 O 0.17349 0.98516 0.01747 0.0
O108 O 0.218 0.09416 0.0009 0.0
O109 O 0.20021 0.076 0.18631 0.0
O110 O 0.19271 0.04501 0.84747 0.0
O111 O 0.22408 0.03711 0.89279 0.0
H112 H 0.27482 0.98425 0.02191 0.0
H113 H 0.21465 0.92429 0.76943 0.0
H114 H 0.24621 0.9081 0.71383 0.0
H115 H 0.30647 0.96798 0.96601 0.0
H116 H 0.21947 0.14842 0.09301 0.0
H117 H 0.15122 0.06746 0.09282 0.0
H118 H 0.12012 0.08578 0.07455 0.0
H119 H 0.18839 0.16661 0.07371 0.0
Gd120 Gd 0.73788 0.56392 0.31776 0.0
Gd121 Gd 0.68961 0.50568 0.33951 0.0
C122 C 0.67967 0.55812 0.34572 0.0
C123 C 0.77981 0.608 0.23764 0.0
C124 C 0.78907 0.6364 0.20187 0.0
C125 C 0.81598 0.65611 0.22869 0.0
C126 C 0.77204 0.64414 0.1389 0.0
C127 C 0.8088 0.69089 0.13156 0.0
C128 C 0.78185 0.67121 0.10404 0.0
C129 C 0.82574 0.68308 0.19412 0.0
C130 C 0.7197 0.54755 0.55931 0.0
C131 C 0.74873 0.51218 0.33536 0.0
C132 C 0.64761 0.45949 0.39562 0.0
C133 C 0.6378 0.43035 0.37759 0.0
C134 C 0.64689 0.42072 0.27501 0.0
C135 C 0.61895 0.41181 0.46511 0.0
C136 C 0.61814 0.3744 0.34787 0.0
C137 C 0.60923 0.38409 0.45054 0.0
C138 C 0.63709 0.39292 0.26018 0.0
C139 C 0.70955 0.52217 0.10113 0.0
O140 O 0.70457 0.57408 0.30352 0.0
O141 O 0.67069 0.53242 0.37532 0.0
O142 O 0.77478 0.60161 0.35967 0.0
O143 O 0.76253 0.58908 0.16041 0.0
O144 O 0.72989 0.57236 0.52017 0.0
O145 O 0.7217 0.53321 0.47218 0.0
O146 O 0.72277 0.49548 0.35728 0.0
O147 O 0.7586 0.53834 0.31336 0.0
O148 O 0.64922 0.47342 0.29242 0.0
O149 O 0.66823 0.47249 0.47375 0.0
O150 O 0.69931 0.49747 0.14018 0.0
O151 O 0.70622 0.53612 0.18558 0.0
H152 H 0.8295 0.65062 0.27671 0.0
H153 H 0.7512 0.62932 0.11708 0.0
H154 H 0.76837 0.67688 0.057 0.0
H155 H 0.84649 0.69796 0.21723 0.0
H156 H 0.66156 0.43467 0.20669 0.0
H157 H 0.61173 0.41879 0.54504 0.0
H158 H 0.59474 0.37017 0.51951 0.0
H159 H 0.64434 0.38585 0.18081 0.0
Gd160 Gd 0.51924 0.19797 0.31753 0.0
Gd161 Gd 0.57461 0.20134 0.35108 0.0
C162 C 0.52162 0.14216 0.37039 0.0
C163 C 0.47325 0.18766 0.21565 0.0
C164 C 0.44422 0.16688 0.19685 0.0
C165 C 0.42398 0.16883 0.26637 0.0
C166 C 0.43617 0.14686 0.10057 0.0
C167 C 0.3885 0.13171 0.14303 0.0
C168 C 0.40857 0.1294 0.0743 0.0
C169 C 0.39646 0.1514 0.2401 0.0
C170 C 0.53618 0.2043 0.56394 0.0
C171 C 0.57179 0.25742 0.32652 0.0
C172 C 0.62215 0.21173 0.43217 0.0
C173 C 0.65134 0.23169 0.42045 0.0
C174 C 0.66098 0.25294 0.33103 0.0
C175 C 0.67002 0.22868 0.49733 0.0
C176 C 0.70769 0.26745 0.39421 0.0
C177 C 0.69792 0.24638 0.48443 0.0
C178 C 0.68898 0.27072 0.31811 0.0
C179 C 0.55727 0.1966 0.10498 0.0
O180 O 0.50687 0.15352 0.33905 0.0
O181 O 0.54819 0.15679 0.38738 0.0
O182 O 0.4811 0.19803 0.33117 0.0
O183 O 0.49176 0.18467 0.15392 0.0
O184 O 0.52061 0.21311 0.51901 0.0
O185 O 0.53957 0.1901 0.47987 0.0
O186 O 0.58661 0.24566 0.34536 0.0
O187 O 0.54534 0.24319 0.30428 0.0
O188 O 0.61031 0.19719 0.32971 0.0
O189 O 0.60684 0.21918 0.49425 0.0
O190 O 0.57204 0.18663 0.14612 0.0
O191 O 0.55468 0.21045 0.19263 0.0
H192 H 0.42942 0.18426 0.33952 0.0
H193 H 0.45115 0.14497 0.04376 0.0
H194 H 0.40287 0.11427 -0.0006 0.0
H195 H 0.38131 0.15347 0.29461 0.0
H196 H 0.6469 0.2556 0.27062 0.0
H197 H 0.66302 0.21239 0.56663 0.0
H198 H 0.71195 0.24352 0.5442 0.0
H199 H 0.69608 0.2869 0.24822 0.0
Gd200 Gd 0.88481 0.34121 0.32127 0.0
Gd201 Gd 0.88141 0.39372 0.35346 0.0
C202 C 0.94102 0.4001 0.3417 0.0
C203 C 0.8942 0.30436 0.22722 0.0
C204 C 0.91442 0.2951 0.21561 0.0
C205 C 0.90762 0.26918 0.25914 0.0
C206 C 0.93919 0.31046 0.15035 0.0
C207 C 0.94941 0.27386 0.16981 0.0
C208 C 0.95658 0.3 0.12849 0.0
C209 C 0.92492 0.25865 0.23649 0.0
C210 C 0.88195 0.35507 0.56646 0.0
C211 C 0.82525 0.33527 0.35053 0.0
C212 C 0.87202 0.43189 0.42607 0.0
C213 C 0.85272 0.44208 0.40441 0.0
C214 C 0.85881 0.46274 0.31416 0.0
C215 C 0.82918 0.43288 0.48014 0.0
C216 C 0.81858 0.46485 0.3765 0.0
C217 C 0.81227 0.44414 0.46608 0.0
C218 C 0.84187 0.47393 0.30007 0.0
C219 C 0.88348 0.37838 0.1088 0.0
O220 O 0.92909 0.37418 0.31008 0.0
O221 O 0.92637 0.41083 0.38277 0.0
O222 O 0.88282 0.30224 0.3397 0.0
O223 O 0.89891 0.32617 0.16457 0.0
O224 O 0.87425 0.33056 0.52895 0.0
O225 O 0.89478 0.37124 0.47654 0.0
O226 O 0.83731 0.36155 0.3732 0.0
O227 O 0.83905 0.32313 0.31519 0.0
O228 O 0.88821 0.43432 0.33077 0.0
O229 O 0.86335 0.40924 0.4897 0.0
O230 O 0.89258 0.40322 0.14411 0.0
O231 O 0.87069 0.36315 0.20093 0.0
H232 H 0.88853 0.25673 0.30794 0.0
H233 H 0.94486 0.33028 0.11331 0.0
H234 H 0.9754 0.31207 0.07693 0.0
H235 H 0.919 0.23846 0.26922 0.0
H236 H 0.87695 0.47063 0.25566 0.0
H237 H 0.82403 0.41729 0.55177 0.0
H238 H 0.7944 0.43691 0.52616 0.0
H239 H 0.84713 0.48996 0.23076 0.0
Gd240 Gd 0.40736 0.89687 0.67148 0.0
Gd241 Gd 0.35768 0.83991 0.69443 0.0
C242 C 0.34725 0.88988 0.72077 0.0
C243 C 0.44355 0.94481 0.59562 0.0
C244 C 0.44911 0.97197 0.55323 0.0
C245 C 0.4445 0.98907 0.63461 0.0
C246 C 0.46244 0.98223 0.43513 0.0
C247 C 0.46839 0.02658 0.48507 0.0
C248 C 0.47198 1.00924 0.40136 0.0
C249 C 0.45402 1.01611 0.60064 0.0
C250 C 0.39666 0.87647 0.91209 0.0
C251 C 0.4188 0.84713 0.67527 0.0
C252 C 0.32179 0.79088 0.7569 0.0
C253 C 0.31302 0.76186 0.73572 0.0
C254 C 0.29987 0.74843 0.62101 0.0
C255 C 0.31498 0.74657 0.83725 0.0
C256 C 0.2897 0.7051 0.7129 0.0
C257 C 0.30353 0.71853 0.82582 0.0
C258 C 0.28835 0.72034 0.60982 0.0
C259 C 0.36958 0.86039 0.45307 0.0
O260 O 0.37186 0.90511 0.67169 0.0
O261 O 0.33843 0.86449 0.75417 0.0
O262 O 0.4374 0.93816 0.71677 0.0
O263 O 0.43059 0.92443 0.51651 0.0
O264 O 0.42089 0.89296 0.87002 0.0
O265 O 0.37924 0.87373 0.82913 0.0
O266 O 0.39248 0.83092 0.69427 0.0
O267 O 0.42944 0.87334 0.6549 0.0
O268 O 0.31867 0.80424 0.66209 0.0
O269 O 0.34397 0.80556 0.82361 0.0
O270 O 0.34514 0.84457 0.49371 0.0
O271 O 0.38633 0.8626 0.53825 0.0
H272 H 0.43441 0.98187 0.72651 0.0
H273 H 0.46648 0.96962 0.37108 0.0
H274 H 0.48304 1.01687 0.31197 0.0
H275 H 0.45104 0.02914 0.66666 0.0
H276 H 0.29773 0.75945 0.54118 0.0
H277 H 0.32462 0.75621 0.92736 0.0
H278 H 0.30474 0.70716 0.90666 0.0
H279 H 0.27771 0.71038 0.52201 0.0
Gd280 Gd 0.1837 0.52753 0.6985 0.0
Gd281 Gd 0.2398 0.53234 0.72423 0.0
C282 C 0.18856 0.47343 0.74943 0.0
C283 C 0.13595 0.51688 0.61876 0.0
C284 C 0.1086 0.49554 0.57489 0.0
C285 C 0.08699 0.48291 0.66309 0.0
C286 C 0.10292 0.49031 0.4423 0.0
C287 C 0.05473 0.46175 0.48703 0.0
C288 C 0.07629 0.47356 0.39898 0.0
C289 C 0.06035 0.4661 0.61958 0.0
C290 C 0.20372 0.53658 0.94041 0.0
C291 C 0.23506 0.58742 0.70226 0.0
C292 C 0.28887 0.54423 0.78554 0.0
C293 C 0.31784 0.56392 0.75804 0.0
C294 C 0.33033 0.56268 0.64274 0.0
C295 C 0.33396 0.5827 0.85313 0.0
C296 C 0.37436 0.59779 0.72054 0.0
C297 C 0.36189 0.59951 0.8344 0.0
C298 C 0.35829 0.57944 0.62431 0.0
C299 C 0.21967 0.52482 0.48147 0.0
O300 O 0.17406 0.48357 0.69848 0.0
O301 O 0.21401 0.48915 0.78592 0.0
O302 O 0.14232 0.5177 0.74075 0.0
O303 O 0.15662 0.52363 0.5418 0.0
O304 O 0.18815 0.54542 0.89636 0.0
O305 O 0.20593 0.52147 0.85825 0.0
O306 O 0.25037 0.57633 0.72549 0.0
O307 O 0.20873 0.57275 0.67871 0.0
O308 O 0.27463 0.52705 0.69456 0.0
O309 O 0.27483 0.55276 0.85099 0.0
O310 O 0.23473 0.51523 0.52264 0.0
O311 O 0.21805 0.53957 0.56692 0.0
H312 H 0.09049 0.48676 0.76562 0.0
H313 H 0.1189 0.49995 0.37139 0.0
H314 H 0.07238 0.47051 0.29628 0.0
H315 H 0.04399 0.45723 0.68905 0.0
H316 H 0.31866 0.54834 0.56774 0.0
H317 H 0.32507 0.58395 0.94352 0.0
H318 H 0.37391 0.6135 0.90995 0.0
H319 H 0.36751 0.57776 0.53586 0.0
Gd320 Gd 0.55349 0.67391 0.6481 0.0
Gd321 Gd 0.54508 0.72308 0.67172 0.0
C322 C 0.60675 0.73071 0.6716 0.0
C323 C 0.55492 0.63148 0.56778 0.0
C324 C 0.57435 0.62317 0.52168 0.0
C325 C 0.60185 0.63726 0.5575 0.0
C326 C 0.56489 0.59993 0.44476 0.0
C327 C 0.60965 0.60399 0.44611 0.0
C328 C 0.58236 0.5904 0.40737 0.0
C329 C 0.61935 0.62772 0.52008 0.0
C330 C 0.55622 0.69245 0.89088 0.0
C331 C 0.49157 0.6651 0.6695 0.0
C332 C 0.54199 0.7659 0.72545 0.0
C333 C 0.52255 0.77608 0.70937 0.0
C334 C 0.52941 0.79846 0.6294 0.0
C335 C 0.49778 0.76463 0.77682 0.0
C336 C 0.48767 0.79813 0.68703 0.0
C337 C 0.48055 0.7756 0.76585 0.0
C338 C 0.51211 0.80932 0.618 0.0
C339 C 0.54097 0.70307 0.43278 0.0
O340 O 0.5969 0.70612 0.62396 0.0
O341 O 0.59061 0.74036 0.70515 0.0
O342 O 0.55651 0.6383 0.68945 0.0
O343 O 0.5503 0.64704 0.49162 0.0
O344 O 0.56997 0.68128 0.85064 0.0
O345 O 0.53987 0.69093 0.80461 0.0
O346 O 0.5015 0.69109 0.69276 0.0
O347 O 0.50734 0.65454 0.64452 0.0
O348 O 0.55338 0.76337 0.62061 0.0
O349 O 0.53571 0.74625 0.80766 0.0
O350 O 0.52668 0.71357 0.47344 0.0
O351 O 0.55825 0.70588 0.51641 0.0
H352 H 0.60963 0.65527 0.61656 0.0
H353 H 0.54377 0.58877 0.41603 0.0
H354 H 0.57443 0.57201 0.35106 0.0
H355 H 0.64031 0.63843 0.5515 0.0
H356 H 0.5484 0.80785 0.57703 0.0
H357 H 0.49183 0.74744 0.83952 0.0
H358 H 0.46182 0.76675 0.8203 0.0
H359 H 0.51804 0.82681 0.55735 0.0
C360 C 0.15764 0.39709 0.70421 0.0
C361 C 0.15045 0.38792 0.83329 0.0
C362 C 0.16938 0.4348 0.90772 0.0
C363 C 0.17518 0.44393 0.77778 0.0
N364 N 0.17277 0.43392 0.55067 0.0
N365 N 0.14522 0.3972 0.05482 0.0
C366 C 0.16851 0.42506 0.67547 0.0
C367 C 0.15514 0.40658 0.93417 0.0
N368 N 0.15516 0.37919 0.60999 0.0
N369 N 0.17791 0.45314 0.00638 0.0
H370 H 0.13488 0.37671 0.07778 0.0
H371 H 0.14519 0.40939 0.12954 0.0
H372 H 0.18754 0.47388 -0.0086 0.0
H373 H 0.17721 0.44804 0.10322 0.0
H374 H 0.16278 0.38481 0.51702 0.0
H375 H 0.14701 0.35859 0.6269 0.0
H376 H 0.16536 0.42118 0.47094 0.0
H377 H 0.18268 0.45432 0.52644 0.0
C378 C 0.68021 0.75476 0.77954 0.0
C379 C 0.69251 0.78277 0.75416 0.0
C380 C 0.65036 0.77528 0.64986 0.0
C381 C 0.63681 0.74799 0.69228 0.0
N382 N 0.63879 0.71282 0.81487 0.0
N383 N 0.68857 0.8205 0.67708 0.0
C384 C 0.65177 0.73791 0.76074 0.0
C385 C 0.6774 0.79325 0.69218 0.0
N386 N 0.69585 0.74408 0.81962 0.0
N387 N 0.63783 0.78377 0.56445 0.0
H388 H 0.70836 0.83425 0.70523 0.0
H389 H 0.67755 0.82959 0.64613 0.0
H390 H 0.61857 0.77096 0.52692 0.0
H391 H 0.64757 0.80262 0.5202 0.0
H392 H 0.6887 0.7234 0.82538 0.0
H393 H 0.71669 0.75577 0.83534 0.0
H394 H 0.64809 0.70597 0.87951 0.0
H395 H 0.61819 0.6995 0.80488 0.0
C396 C 0.30937 0.92952 0.68431 0.0
C397 C 0.29706 0.92564 0.8075 0.0
C398 C 0.31999 0.9009 0.8777 0.0
C399 C 0.33 0.90228 0.75035 0.0
N400 N 0.32957 0.91344 0.52633 0.0
N401 N 0.28672 0.90346 0.01438 0.0
C402 C 0.32353 0.9155 0.65196 0.0
C403 C 0.30129 0.91017 0.90228 0.0
N404 N 0.30799 0.94703 0.59897 0.0
N405 N 0.32911 0.89173 0.97687 0.0
H406 H 0.27284 0.9098 0.03646 0.0
H407 H 0.28659 0.88964 0.08033 0.0
H408 H 0.34286 0.88488 0.96437 0.0
H409 H 0.32504 0.89329 0.07352 0.0
H410 H 0.31895 0.9529 0.51319 0.0
H411 H 0.29779 0.95758 0.61931 0.0
H412 H 0.32303 0.92037 0.44891 0.0
H413 H 0.33866 0.90225 0.49823 0.0
C414 C 0.34674 0.11712 0.00375 0.0
C415 C 0.35901 0.11335 0.11557 0.0
C416 C 0.31429 0.07846 0.1914 0.0
C417 C 0.30228 0.08041 0.07448 0.0
N418 N 0.30752 0.09905 0.86132 0.0
N419 N 0.35525 0.0868 0.30303 0.0
C420 C 0.31867 0.09902 0.97817 0.0
C421 C 0.34298 0.0929 0.20549 0.0
N422 N 0.36166 0.13858 0.92449 0.0
N423 N 0.29823 0.06381 0.29184 0.0
H424 H 0.37623 0.09687 0.31637 0.0
H425 H 0.34491 0.07014 0.3631 0.0
H426 H 0.2772 0.05388 0.28696 0.0
H427 H 0.30562 0.06389 0.38393 0.0
H428 H 0.35328 0.14422 0.84962 0.0
H429 H 0.3822 0.15211 0.93965 0.0
H430 H 0.31886 0.11006 0.78215 0.0
H431 H 0.28703 0.08639 0.84049 0.0
C432 C 0.96939 0.25446 0.01324 0.0
C433 C 0.96731 0.26215 0.14141 0.0
C434 C 0.9973 0.24535 0.21728 0.0
C435 C 1.00011 0.23857 0.08829 0.0
N436 N 0.99447 0.24286 0.861 0.0
N437 N 0.98293 0.26946 0.36176 0.0
C438 C 0.98787 0.24504 -0.01456 0.0
C439 C 0.98225 0.25878 0.24263 0.0
N440 N 0.95293 0.25515 0.91881 0.0
N441 N 1.00925 0.2391 0.31561 0.0
H442 H 0.97237 0.2796 0.38341 0.0
H443 H 0.99553 0.27024 0.43653 0.0
H444 H 1.02263 0.23189 0.2996 0.0
H445 H 1.00521 0.24008 0.41279 0.0
H446 H 0.95135 0.24704 0.82703 0.0
H447 H 0.93904 0.26176 0.93519 0.0
H448 H 0.98834 0.24973 0.78182 0.0
H449 H 1.00842 0.23668 0.83791 0.0
C450 C 0.8343 0.76588 0.18394 0.0
C451 C 0.84201 0.77629 0.05688 0.0
C452 C 0.82807 0.73052 0.97716 0.0
C453 C 0.81905 0.72007 0.10309 0.0
N454 N 0.80892 0.72683 0.32099 0.0
N455 N 0.84316 0.76839 0.82928 0.0
C456 C 0.82087 0.73751 0.2049 0.0
C457 C 0.83789 0.75851 0.95235 0.0
N458 N 0.84024 0.78316 0.2856 0.0
N459 N 0.82808 0.71382 0.88248 0.0
H460 H 0.85129 0.78884 0.80838 0.0
H461 H 0.83793 0.75625 0.74734 0.0
H462 H 0.8206 0.69323 0.89677 0.0
H463 H 0.83705 0.72053 0.79256 0.0
H464 H 0.8385 0.77732 0.38181 0.0
H465 H 0.84879 0.80384 0.27386 0.0
H466 H 0.80674 0.73805 0.39455 0.0
H467 H 0.799 0.70619 0.34037 0.0
C468 C 1.0108 0.45955 0.42305 0.0
C469 C 1.02614 0.44626 0.43899 0.0
C470 C 0.98859 0.40497 0.3452 0.0
C471 C 0.97172 0.41693 0.34835 0.0
N472 N 0.97205 0.45902 0.32203 0.0
N473 N 1.02924 0.40575 0.42403 0.0
C474 C 0.98428 0.44528 0.3684 0.0
C475 C 1.01494 0.41882 0.40205 0.0
N476 N 1.02135 0.48573 0.46267 0.0
N477 N 0.98091 0.38201 0.27515 0.0
H478 H 0.04877 0.41535 0.46284 0.0
H479 H 1.0209 0.38496 0.41384 0.0
H480 H 0.96487 0.3746 0.20996 0.0
H481 H 0.99303 0.37321 0.26293 0.0
H482 H 1.00994 0.49542 0.46941 0.0
H483 H 0.04107 0.49728 0.49779 0.0
H484 H 0.98097 0.47995 0.32393 0.0
H485 H 0.95476 0.44983 0.26405 0.0
C486 C 0.63386 0.5795 0.51921 0.0
C487 C 0.62746 0.59216 0.4183 0.0
C488 C 0.65318 0.58022 0.2659 0.0
C489 C 0.66169 0.56992 0.36971 0.0
N490 N 0.665 0.56569 0.59969 0.0
N491 N 0.63383 0.60792 0.19871 0.0
C492 C 0.65328 0.57111 0.49759 0.0
C493 C 0.6379 0.59345 0.29226 0.0
N494 N 0.62087 0.57483 0.63531 0.0
N495 N 0.6589 0.57656 0.14188 0.0
H496 H 0.62263 0.61764 0.2145 0.0
H497 H 0.64326 0.61208 0.10895 0.0
H498 H 0.66991 0.56693 0.11919 0.0
H499 H 0.65089 0.58103 0.06131 0.0
H500 H 0.62247 0.56298 0.70735 0.0
H501 H 0.6065 0.58064 0.6555 0.0
H502 H 0.6618 0.56889 0.69552 0.0
H503 H 0.68026 0.56088 0.58818 0.0
C504 C 0.48635 0.09339 0.31883 0.0
C505 C 0.50759 0.11243 0.3999 0.0
C506 C 0.50451 0.07469 0.52852 0.0
C507 C 0.48155 0.05613 0.45623 0.0
N508 N 0.44758 0.04831 0.29671 0.0
N509 N 0.53182 0.12053 0.60295 0.0
C510 C 0.47157 0.06565 0.35558 0.0
C511 C 0.51531 0.10291 0.5105 0.0
N512 N 0.48105 0.10136 0.20335 0.0
N513 N 0.51665 0.06543 0.61227 0.0
H514 H 0.53951 0.14127 0.59897 0.0
H515 H 0.53541 0.11428 0.69159 0.0
H516 H 0.50954 0.04496 0.62833 0.0
H517 H 0.53526 0.07799 0.65628 0.0
H518 H 0.46794 0.08788 0.13453 0.0
H519 H 0.49163 0.12111 0.16997 0.0
H520 H 0.43768 0.05462 0.23284 0.0
H521 H 0.43632 0.02791 0.32059 0.0
C522 C 0.12098 0.14189 0.17665 0.0
C523 C 0.13322 0.1388 0.06339 0.0
C524 C 0.11141 0.15897 0.93407 0.0
C525 C 0.09872 0.16158 0.04727 0.0
N526 N 0.0866 0.14995 0.27101 0.0
N527 N 0.13762 0.1408 0.8322 0.0
C528 C 0.102 0.1513 0.1669 0.0
C529 C 0.1278 0.14643 0.94139 0.0
N530 N 0.12828 0.13675 0.29452 0.0
N531 N 0.10728 0.168 0.81892 0.0
H532 H 0.14983 0.13189 0.83436 0.0
H533 H 0.13249 0.14329 0.73892 0.0
H534 H 0.09273 0.17386 0.80709 0.0
H535 H 0.11842 0.17019 0.73572 0.0
H536 H 0.12281 0.14178 0.38175 0.0
H537 H 0.14165 0.12933 0.30565 0.0
H538 H 0.08569 0.13979 0.3558 0.0
H539 H 0.07297 0.15716 0.27021 0.0
C540 C 0.93097 0.96681 0.93479 0.0
C541 C 0.91122 0.95009 0.02665 0.0
C542 C 0.91396 0.99036 0.12824 0.0
C543 C 0.93591 1.00711 0.04584 0.0
N544 N 0.9679 1.01139 0.88188 0.0
N545 N 0.88672 0.94605 0.22298 0.0
C546 C 0.94509 0.99536 0.95184 0.0
C547 C 0.90334 0.96188 0.12638 0.0
N548 N 0.93561 0.95545 0.82863 0.0
N549 N 0.90282 1.00162 0.20625 0.0
H550 H 0.87871 0.92522 0.22556 0.0
H551 H 0.88273 0.95377 0.30606 0.0
H552 H 0.91002 1.02235 0.21024 0.0
H553 H 0.88501 0.99031 0.25826 0.0
H554 H 0.94763 0.96663 0.75138 0.0
H555 H 0.9253 0.93473 0.81179 0.0
H556 H 0.97738 1.00382 0.82255 0.0
H557 H 0.97874 0.03235 0.89115 0.0
C558 C 0.08706 0.9383 0.1364 0.0
C559 C 0.07006 0.94318 0.05325 0.0
C560 C 0.11042 0.98002 0.95005 0.0
C561 C 0.12731 0.97692 0.04167 0.0
N562 N 0.13133 0.95601 0.23607 0.0
N563 N 0.06528 0.97132 0.89424 0.0
C564 C 0.11552 0.95676 0.13849 0.0
C565 C 0.08168 0.96479 0.96365 0.0
N566 N 0.0761 0.9156 0.21107 0.0
N567 N 0.12182 0.99676 0.84686 0.0
H568 H 0.04418 0.96062 0.90109 0.0
H569 H 0.07259 0.98868 0.83828 0.0
H570 H 0.14269 1.00782 0.83233 0.0
H571 H 0.11064 0.99773 0.76946 0.0
H572 H 0.08772 0.90937 0.26299 0.0
H573 H 0.05539 0.90167 0.21252 0.0
H574 H 0.12354 0.9438 0.31719 0.0
H575 H 0.15211 0.96938 0.24184 0.0
C576 C 0.76732 0.48378 0.24391 0.0
C577 C 0.76765 0.50123 0.34256 0.0
C578 C 0.80324 0.49686 0.45682 0.0
C579 C 0.8011 0.47749 0.36436 0.0
N580 N 0.77874 0.44971 0.17904 0.0
N581 N 0.78287 0.52143 0.55243 0.0
C582 C 0.7825 0.47021 0.26017 0.0
C583 C 0.78487 0.50706 0.45149 0.0
N584 N 0.75312 0.4808 0.1328 0.0
N585 N 0.8233 0.50601 0.54796 0.0
H586 H 0.76974 0.52927 0.55175 0.0
H587 H 0.79253 0.52376 0.64078 0.0
H588 H 0.83691 0.4988 0.55587 0.0
H589 H 0.82786 0.52222 0.60905 0.0
H590 H 0.75435 0.47076 0.0514 0.0
H591 H 0.74182 0.49041 0.11771 0.0
H592 H 0.76338 0.44135 0.11017 0.0
H593 H 0.78967 0.43952 0.1871 0.0
C594 C 0.58767 0.32922 0.24268 0.0
C595 C 0.60795 0.34479 0.3349 0.0
C596 C 0.60489 0.3034 0.42295 0.0
C597 C 0.58551 0.28773 0.32584 0.0
N598 N 0.56483 0.28752 0.12139 0.0
N599 N 0.6404 0.34758 0.49234 0.0
C600 C 0.5787 0.30116 0.22942 0.0
C601 C 0.61797 0.33211 0.41848 0.0
N602 N 0.5764 0.34106 0.16972 0.0
N603 N 0.60994 0.29112 0.5239 0.0
H604 H 0.65037 0.36863 0.49247 0.0
H605 H 0.65065 0.3397 0.54384 0.0
H606 H 0.60116 0.27035 0.53405 0.0
H607 H 0.62109 0.30154 0.60496 0.0
H608 H 0.55935 0.33013 0.11182 0.0
H609 H 0.58271 0.3616 0.17492 0.0
H610 H 0.5618 0.29694 0.04219 0.0
H611 H 0.55898 0.26738 0.10406 0.0
C612 C 0.75144 0.28383 0.27052 0.0
C613 C 0.73759 0.28594 0.37993 0.0
C614 C 0.78117 0.32023 0.4726 0.0
C615 C 0.79489 0.31918 0.35943 0.0
N616 N 0.79139 0.30608 0.13608 0.0
N617 N 0.73843 0.31005 0.57237 0.0
C618 C 0.77954 0.30261 0.25429 0.0
C619 C 0.75224 0.30532 0.47723 0.0
N620 N 0.73796 0.26348 0.18323 0.0
N621 N 0.79564 0.33466 0.57784 0.0
H622 H 0.71732 0.29955 0.57887 0.0
H623 H 0.74765 0.32596 0.63776 0.0
H624 H 0.81668 0.34644 0.57907 0.0
H625 H 0.78696 0.33335 0.66791 0.0
H626 H 0.74772 0.25922 0.1094 0.0
H627 H 0.71737 0.2494 0.19106 0.0
H628 H 0.78071 0.29629 0.05288 0.0
H629 H 0.81115 0.32136 0.11831 0.0
C630 C 0.4737 0.83043 0.77671 0.0
C631 C 0.47024 0.81094 0.68226 0.0
C632 C 0.43519 0.81744 0.57521 0.0
C633 C 0.437 0.83518 0.67597 0.0
N634 N 0.45517 0.85557 0.8829 0.0
N635 N 0.44581 0.78338 0.49978 0.0
C636 C 0.45559 0.84096 0.77925 0.0
C637 C 0.45043 0.80373 0.5837 0.0
N638 N 0.4947 0.83933 0.86266 0.0
N639 N 0.41967 0.81452 0.469 0.0
H640 H 0.45703 0.77341 0.50128 0.0
H641 H 0.4297 0.77505 0.4348 0.0
H642 H 0.40855 0.82447 0.45928 0.0
H643 H 0.41955 0.80415 0.38607 0.0
H644 H 0.50035 0.85577 0.92379 0.0
H645 H 0.50793 0.83161 0.86638 0.0
H646 H 0.46573 0.85768 0.96824 0.0
H647 H 0.44249 0.86384 0.88806 0.0
C648 C 0.23966 0.6311 0.78747 0.0
C649 C 0.24832 0.61755 0.70085 0.0
C650 C 0.28536 0.66151 0.62741 0.0
C651 C 0.27523 0.67492 0.70607 0.0
N652 N 0.23934 0.67233 0.84037 0.0
N653 N 0.27612 0.62002 0.51983 0.0
C654 C 0.25135 0.65965 0.77991 0.0
C655 C 0.2703 0.63283 0.61562 0.0
N656 N 0.22127 0.61696 0.88177 0.0
N657 N 0.30979 0.67609 0.56692 0.0
H658 H 0.26505 0.59921 0.50606 0.0
H659 H 0.29005 0.63016 0.44662 0.0
H660 H 0.3213 0.69707 0.57283 0.0
H661 H 0.31968 0.66728 0.51995 0.0
H662 H 0.21651 0.62611 0.9565 0.0
H663 H 0.21273 0.59621 0.89301 0.0
H664 H 0.22033 0.66199 0.88373 0.0
H665 H 0.24715 0.69316 0.8368 0.0
C666 C 0.45047 0.62652 0.7739 0.0
C667 C 0.46158 0.64696 0.67814 0.0
C668 C 0.4155 0.63641 0.61591 0.0
C669 C 0.40442 0.61455 0.70423 0.0
N670 N 0.41134 0.58549 0.84928 0.0
N671 N 0.45458 0.66779 0.49092 0.0
C672 C 0.42193 0.60863 0.77793 0.0
C673 C 0.44405 0.65091 0.59431 0.0
N674 N 0.46701 0.62497 0.86521 0.0
N675 N 0.39885 0.64392 0.5557 0.0
H676 H 0.47525 0.6782 0.47034 0.0
H677 H 0.44271 0.66942 0.41876 0.0
H678 H 0.37789 0.63382 0.56897 0.0
H679 H 0.406 0.66148 0.50141 0.0
H680 H 0.4598 0.61255 0.94593 0.0
H681 H 0.48789 0.63795 0.86687 0.0
H682 H 0.42322 0.57861 0.89382 0.0
H683 H 0.39059 0.57182 0.8544 0.0
C684 C 0.07139 0.2051 0.61948 0.0
C685 C 0.04504 0.19757 0.66733 0.0
C686 C 1.02805 0.19207 0.44649 0.0
C687 C 0.05441 0.20044 0.39811 0.0
N688 N 0.09806 0.2044 0.43968 0.0
N689 N 1.00223 0.19538 0.62196 0.0
C690 C 0.07524 0.20402 0.48491 0.0
C691 C 1.02454 0.19444 0.57955 0.0
N692 N 0.09338 0.21549 0.69939 0.0
N693 N 1.00584 0.17969 0.36858 0.0
H694 H 0.99983 0.19947 0.71742 0.0
H695 H 0.98807 0.19587 0.55961 0.0
H696 H 1.00682 0.17369 0.27551 0.0
H697 H 0.98603 0.17135 0.40265 0.0
H698 H 0.11328 0.22418 0.66646 0.0
H699 H 0.09251 0.21896 0.79652 0.0
H700 H 0.11233 0.2035 0.4995 0.0
H701 H 0.10103 0.20186 0.34269 0.0
C702 C 0.88979 0.85045 0.57851 0.0
C703 C 0.88316 0.86716 0.65292 0.0
C704 C 0.86297 0.87593 0.46356 0.0
C705 C 0.87172 0.86108 0.38668 0.0
N706 N 0.899 0.8396 0.36673 0.0
N707 N 0.86839 0.90009 0.66352 0.0
C708 C 0.88677 0.84992 0.44285 0.0
C709 C 0.87112 0.88113 0.59483 0.0
N710 N 0.8986 0.83474 0.63738 0.0
N711 N 0.84675 0.88494 0.41179 0.0
H712 H 0.87422 0.9044 0.7597 0.0
H713 H 0.86256 0.91308 0.62253 0.0
H714 H 0.84143 0.88287 0.31448 0.0
H715 H 0.83714 0.89299 0.46704 0.0
H716 H 0.9006 0.81979 0.58916 0.0
H717 H 0.9017 0.83494 0.73667 0.0
H718 H 0.91261 0.83383 0.40127 0.0
H719 H 0.89768 0.83941 0.26711 0.0
C720 C 0.22812 0.05428 0.59663 0.0
C721 C 0.21073 0.0312 0.66997 0.0
C722 C 0.20158 1.00236 0.48016 0.0
C723 C 0.21726 0.02572 0.40426 0.0
N724 N 0.24108 0.07424 0.38544 0.0
N725 N 0.17681 0.98413 0.67889 0.0
C726 C 0.22929 0.05179 0.46112 0.0
C727 C 0.19628 1.00545 0.61111 0.0
N728 N 0.24381 0.07857 0.65658 0.0
N729 N 0.19196 0.97723 0.42785 0.0
H730 H 0.17242 0.98573 0.77485 0.0
H731 H 0.16346 0.96557 0.63732 0.0
H732 H 0.19423 0.97394 0.33084 0.0
H733 H 0.18324 0.95961 0.48244 0.0
H734 H 0.25936 0.09528 0.61048 0.0
H735 H 0.24277 0.08157 0.75522 0.0
H736 H 0.24757 0.09368 0.41938 0.0
H737 H 0.24188 0.07311 0.28605 0.0
C738 C 0.741 0.54978 0.77409 0.0
C739 C 0.71725 0.54038 0.69751 0.0
C740 C 0.68889 0.52157 0.88908 0.0
C741 C 0.71246 0.52901 0.96337 0.0
N742 N 0.76056 0.54554 0.97432 0.0
N743 N 0.66877 0.51177 0.67739 0.0
C744 C 0.73846 0.54184 0.9054 0.0
C745 C 0.69124 0.52461 0.75354 0.0
N746 N 0.76597 0.56633 0.72185 0.0
N747 N 0.66427 0.51206 0.94805 0.0
H748 H 0.66978 0.51327 0.57779 0.0
H749 H 0.6497 0.49766 0.71183 0.0
H750 H 0.66151 0.50906 0.04737 0.0
H751 H 0.64699 0.50938 0.89987 0.0
H752 H 0.7836 0.57643 0.77675 0.0
H753 H 0.769 0.57127 0.6242 0.0
H754 H 0.77954 0.55196 0.93353 0.0
H755 H 0.75938 0.54006 0.07079 0.0
C756 C 0.52719 0.177 0.76676 0.0
C757 C 0.54014 0.20247 0.70456 0.0
C758 C 0.56407 0.22414 0.90509 0.0
C759 C 0.55188 0.19853 0.96629 0.0
N760 N 0.52545 0.15005 0.95095 0.0
N761 N 0.56378 0.2509 0.72459 0.0
C762 C 0.53444 0.17479 0.89582 0.0
C763 C 0.55648 0.22625 0.77671 0.0
N764 N 0.50628 0.15539 0.70617 0.0
N765 N 0.58448 0.24614 0.96589 0.0
H766 H 0.55818 0.25323 0.63179 0.0
H767 H 0.57306 0.26882 0.77719 0.0
H768 H 0.59157 0.24528 0.05757 0.0
H769 H 0.59625 0.26469 0.92098 0.0
H770 H 0.49392 0.13696 0.75093 0.0
H771 H 0.49953 0.15659 0.61414 0.0
H772 H 0.51528 0.13195 0.90021 0.0
H773 H 0.53011 0.14763 0.04547 0.0
C774 C 0.90001 0.38745 0.75619 0.0
C775 C 0.88043 0.36224 0.70346 0.0
C776 C 0.86533 0.3448 0.92197 0.0
C777 C 0.88499 0.37012 0.97384 0.0
N778 N 0.92829 0.41003 0.94017 0.0
N779 N 0.83847 0.32055 0.7369 0.0
C780 C 0.90451 0.38982 0.89084 0.0
C781 C 0.86144 0.34189 0.78658 0.0
N782 N 0.91262 0.40988 0.68076 0.0
N783 N 0.85191 0.32276 -0.00069 0.0
H784 H 0.83372 0.31836 0.639 0.0
H785 H 0.82235 0.30694 0.79376 0.0
H786 H 0.85573 0.32294 0.09691 0.0
H787 H 0.83971 0.30327 0.96403 0.0
H788 H 0.92585 0.42903 0.71726 0.0
H789 H 0.90601 0.4104 0.5882 0.0
H790 H 0.94429 0.42355 0.88234 0.0
H791 H 0.9335 0.41082 0.0373 0.0
C792 C 0.37591 0.84328 0.24083 0.0
C793 C 0.37649 0.86457 0.31449 0.0
C794 C 0.38964 0.89348 0.12284 0.0
C795 C 0.39042 0.87265 0.05111 0.0
N796 N 0.38877 0.82968 0.04345 0.0
N797 N 0.38607 0.91058 0.33194 0.0
C798 C 0.38477 0.84807 0.11052 0.0
C799 C 0.38401 0.88989 0.25722 0.0
N800 N 0.36636 0.81832 0.29471 0.0
N801 N 0.39362 0.91639 0.06153 0.0
H802 H 0.38104 0.90827 0.42936 0.0
H803 H 0.39442 0.93044 0.30074 0.0
H804 H 0.39849 0.92011 0.96394 0.0
H805 H 0.39026 0.93099 0.10412 0.0
H806 H 0.36233 0.80117 0.24212 0.0
H807 H 0.36074 0.81418 0.39133 0.0
H808 H 0.38807 0.81276 0.08503 0.0
H809 H 0.39493 0.83242 0.9474 0.0
C810 C 0.18557 0.51414 0.15336 0.0
C811 C 0.20735 0.53421 0.08 0.0
C812 C 0.23721 0.54773 0.26902 0.0
C813 C 0.21548 0.52776 0.3429 0.0
N814 N 0.17 0.49022 0.35675 0.0
N815 N 0.25156 0.57377 0.07129 0.0
C816 C 0.18983 0.51061 0.28563 0.0
C817 C 0.23257 0.55198 0.13862 0.0
N818 N 0.16067 0.49896 0.09688 0.0
N819 N 0.26252 0.56203 0.32238 0.0
H820 H 0.24853 0.57776 0.97654 0.0
H821 H 0.26924 0.58922 0.11192 0.0
H822 H 0.26669 0.56007 0.41845 0.0
H823 H 0.27989 0.57452 0.26977 0.0
H824 H 0.14307 0.48601 0.14661 0.0
H825 H 0.15709 0.50005 -0.00098 0.0
H826 H 0.15176 0.47506 0.31955 0.0
H827 H 0.1723 0.4876 0.45433 0.0
C828 C 0.53036 0.67455 0.23491 0.0
C829 C 0.54468 0.7002 0.29466 0.0
C830 C 0.5637 0.72113 0.08714 0.0
C831 C 0.5519 0.69515 0.0295 0.0
N832 N 0.52693 0.6466 0.05215 0.0
N833 N 0.57792 0.74756 0.28361 0.0
C834 C 0.53613 0.67166 0.10453 0.0
C835 C 0.56228 0.7234 0.22258 0.0
N836 N 0.51061 0.65317 0.30129 0.0
N837 N 0.5755 0.74372 0.01238 0.0
H838 H 0.57672 0.7504 0.38228 0.0
H839 H 0.59357 0.76433 0.23828 0.0
H840 H 0.57646 0.74281 0.91298 0.0
H841 H 0.58177 0.76307 0.04713 0.0
H842 H 0.49743 0.63467 0.2587 0.0
H843 H 0.50579 0.65469 0.39675 0.0
H844 H 0.51808 0.62895 0.10651 0.0
H845 H 0.52975 0.64343 0.95572 0.0
loop_
_geom_bond_atom_site_label_1
_geom_bond_atom_site_label_2
_geom_bond_distance
_geom_bond_site_symmetry_2
_ccdc_geom_bond_type
Gd0 C3 2.818 1_554 S
Gd0 O20 2.377 . S
Gd0 O22 2.448 . S
Gd0 O23 2.506 1_554 S
Gd0 O24 2.435 . S
Gd0 O25 2.717 . S
Gd0 O27 2.395 . S
Gd0 O31 2.327 1_554 S
Gd1 C12 2.818 1_556 S
Gd1 O21 2.395 . S
Gd1 O25 2.327 1_656 S
Gd1 O26 2.377 1_655 S
Gd1 O28 2.448 . S
Gd1 O29 2.506 1_556 S
Gd1 O30 2.435 . S
Gd1 O31 2.717 1_655 S
C2 O20 1.240 1_655 S
C2 O21 1.240 1_554 S
C3 Gd0 2.818 1_556 S
C3 C4 1.510 . S
C3 O22 1.249 1_556 S
C3 O23 1.252 . S
C4 C3 1.510 . S
C4 C5 1.404 1_556 S
C4 C6 1.352 . S
C5 C4 1.404 1_554 S
C5 C9 1.389 . S
C5 H32 0.930 . S
C6 C4 1.352 . S
C6 C8 1.374 . S
C6 H33 0.931 . S
C7 C8 1.359 . S
C7 C9 1.364 1_556 S
C8 C6 1.374 . S
C8 C7 1.359 . S
C8 H34 0.931 . S
C9 C5 1.389 . S
C9 C7 1.364 1_554 S
C9 H35 0.931 . S
C10 O24 1.256 . S
C10 O25 1.257 . S
C11 O26 1.240 . S
C11 O27 1.240 1_556 S
C12 Gd1 2.818 1_554 S
C12 C13 1.510 . S
C12 O28 1.249 1_554 S
C12 O29 1.252 . S
C13 C12 1.510 . S
C13 C14 1.404 1_554 S
C13 C15 1.352 . S
C14 C13 1.404 1_556 S
C14 C18 1.389 . S
C14 H36 0.930 . S
C15 C13 1.352 . S
C15 C17 1.374 . S
C15 H37 0.931 . S
C16 C17 1.359 . S
C16 C18 1.364 1_554 S
C17 C15 1.374 . S
C17 C16 1.359 . S
C17 H38 0.931 . S
C18 C14 1.389 . S
C18 C16 1.364 1_556 S
C18 H39 0.931 . S
C19 O30 1.240 1_455 S
C19 O31 1.268 . S
O20 Gd0 2.377 . S
O20 C2 1.240 1_455 S
O21 Gd1 2.395 . S
O21 C2 1.240 1_556 S
O22 Gd0 2.448 . S
O22 C3 1.249 1_554 S
O23 Gd0 2.506 1_556 S
O23 C3 1.252 . S
O24 Gd0 2.435 . S
O24 C10 1.256 . S
O25 Gd0 2.717 . S
O25 Gd1 2.327 1_454 S
O25 C10 1.257 . S
O26 Gd1 2.377 1_455 S
O26 C11 1.240 . S
O27 Gd0 2.395 . S
O27 C11 1.240 1_554 S
O28 Gd1 2.448 . S
O28 C12 1.249 1_556 S
O29 Gd1 2.506 1_554 S
O29 C12 1.252 . S
O30 Gd1 2.435 . S
O30 C19 1.240 1_655 S
O31 Gd0 2.327 1_556 S
O31 Gd1 2.717 1_455 S
O31 C19 1.268 . S
H32 C5 0.930 . S
H33 C6 0.931 . S
H34 C8 0.931 . S
H35 C9 0.931 . S
H36 C14 0.930 . S
H37 C15 0.931 . S
H38 C17 0.931 . S
H39 C18 0.931 . S
Gd40 C43 2.818 1_554 S
Gd40 O60 2.377 . S
Gd40 O62 2.448 . S
Gd40 O63 2.506 1_554 S
Gd40 O64 2.435 . S
Gd40 O65 2.717 . S
Gd40 O67 2.395 . S
Gd40 O71 2.327 1_554 S
Gd41 C52 2.818 1_556 S
Gd41 O61 2.395 . S
Gd41 O65 2.327 1_556 S
Gd41 O66 2.377 . S
Gd41 O68 2.448 . S
Gd41 O69 2.506 1_556 S
Gd41 O70 2.435 . S
Gd41 O71 2.717 . S
C42 O60 1.240 . S
C42 O61 1.240 1_554 S
C43 Gd40 2.818 1_556 S
C43 C44 1.510 . S
C43 O62 1.249 1_556 S
C43 O63 1.252 . S
C44 C43 1.510 . S
C44 C45 1.404 1_556 S
C44 C46 1.352 . S
C45 C44 1.404 1_554 S
C45 C49 1.389 . S
C45 H72 0.930 . S
C46 C44 1.352 . S
C46 C48 1.374 . S
C46 H73 0.931 . S
C47 C48 1.359 . S
C47 C49 1.364 1_556 S
C48 C46 1.374 . S
C48 C47 1.359 . S
C48 H74 0.931 . S
C49 C45 1.389 . S
C49 C47 1.364 1_554 S
C49 H75 0.931 . S
C50 O64 1.256 . S
C50 O65 1.257 . S
C51 O66 1.240 . S
C51 O67 1.240 1_556 S
C52 Gd41 2.818 1_554 S
C52 C53 1.510 . S
C52 O68 1.249 1_554 S
C52 O69 1.252 . S
C53 C52 1.510 . S
C53 C54 1.404 1_554 S
C53 C55 1.352 . S
C54 C53 1.404 1_556 S
C54 C58 1.389 . S
C54 H76 0.930 . S
C55 C53 1.352 . S
C55 C57 1.374 . S
C55 H77 0.931 . S
C56 C57 1.359 1_455 S
C56 C58 1.364 1_454 S
C57 C55 1.374 . S
C57 C56 1.359 1_655 S
C57 H78 0.931 . S
C58 C54 1.389 . S
C58 C56 1.364 1_656 S
C58 H79 0.931 1_655 S
C59 O70 1.256 . S
C59 O71 1.257 . S
O60 Gd40 2.377 . S
O60 C42 1.240 . S
O61 Gd41 2.395 . S
O61 C42 1.240 1_556 S
O62 Gd40 2.448 . S
O62 C43 1.249 1_554 S
O63 Gd40 2.506 1_556 S
O63 C43 1.252 . S
O64 Gd40 2.435 . S
O64 C50 1.256 . S
O65 Gd40 2.717 . S
O65 Gd41 2.327 1_554 S
O65 C50 1.257 . S
O66 Gd41 2.377 . S
O66 C51 1.240 . S
O67 Gd40 2.395 . S
O67 C51 1.240 1_554 S
O68 Gd41 2.448 . S
O68 C52 1.249 1_556 S
O69 Gd41 2.506 1_554 S
O69 C52 1.252 . S
O70 Gd41 2.435 . S
O70 C59 1.256 . S
O71 Gd40 2.327 1_556 S
O71 Gd41 2.717 . S
O71 C59 1.257 . S
H72 C45 0.930 . S
H73 C46 0.931 . S
H74 C48 0.931 . S
H75 C49 0.931 . S
H76 C54 0.930 . S
H77 C55 0.931 . S
H78 C57 0.931 . S
H79 C58 0.931 1_455 S
Gd80 C83 2.818 1_554 S
Gd80 O100 2.377 1_565 S
Gd80 O102 2.448 . S
Gd80 O103 2.506 1_554 S
Gd80 O104 2.435 . S
Gd80 O105 2.717 1_565 S
Gd80 O107 2.395 . S
Gd80 O111 2.327 1_564 S
Gd81 C92 2.818 1_556 S
Gd81 O101 2.395 . S
Gd81 O105 2.327 1_556 S
Gd81 O106 2.377 . S
Gd81 O108 2.448 . S
Gd81 O109 2.506 1_556 S
Gd81 O110 2.435 . S
Gd81 O111 2.717 . S
C82 O100 1.240 . S
C82 O101 1.240 1_554 S
C83 Gd80 2.818 1_556 S
C83 C84 1.510 . S
C83 O102 1.249 1_556 S
C83 O103 1.252 . S
C84 C83 1.510 . S
C84 C85 1.404 1_556 S
C84 C86 1.352 . S
C85 C84 1.404 1_554 S
C85 C89 1.389 . S
C85 H112 0.930 . S
C86 C84 1.352 . S
C86 C88 1.374 . S
C86 H113 0.931 . S
C87 C88 1.359 . S
C87 C89 1.364 1_556 S
C88 C86 1.374 . S
C88 C87 1.359 . S
C88 H114 0.931 . S
C89 C85 1.389 . S
C89 C87 1.364 1_554 S
C89 H115 0.931 . S
C90 O104 1.256 1_545 S
C90 O105 1.257 . S
C91 O106 1.240 1_565 S
C91 O107 1.240 1_556 S
C92 Gd81 2.818 1_554 S
C92 C93 1.510 . S
C92 O108 1.249 1_554 S
C92 O109 1.252 . S
C93 C92 1.510 . S
C93 C94 1.404 1_554 S
C93 C95 1.352 . S
C94 C93 1.404 1_556 S
C94 C98 1.389 . S
C94 H116 0.930 . S
C95 C93 1.352 . S
C95 C97 1.374 . S
C95 H117 0.931 . S
C96 C97 1.359 . S
C96 C98 1.364 1_554 S
C97 C95 1.374 . S
C97 C96 1.359 . S
C97 H118 0.931 . S
C98 C94 1.389 . S
C98 C96 1.364 1_556 S
C98 H119 0.931 . S
C99 O110 1.256 . S
C99 O111 1.257 . S
O100 Gd80 2.377 1_545 S
O100 C82 1.240 . S
O101 Gd81 2.395 . S
O101 C82 1.240 1_556 S
O102 Gd80 2.448 . S
O102 C83 1.249 1_554 S
O103 Gd80 2.506 1_556 S
O103 C83 1.252 . S
O104 Gd80 2.435 . S
O104 C90 1.256 1_565 S
O105 Gd80 2.717 1_545 S
O105 Gd81 2.327 1_554 S
O105 C90 1.257 . S
O106 Gd81 2.377 . S
O106 C91 1.240 1_545 S
O107 Gd80 2.395 . S
O107 C91 1.240 1_554 S
O108 Gd81 2.448 . S
O108 C92 1.249 1_556 S
O109 Gd81 2.506 1_554 S
O109 C92 1.252 . S
O110 Gd81 2.435 . S
O110 C99 1.256 . S
O111 Gd80 2.327 1_546 S
O111 Gd81 2.717 . S
O111 C99 1.257 . S
H112 C85 0.930 . S
H113 C86 0.931 . S
H114 C88 0.931 . S
H115 C89 0.931 . S
H116 C94 0.930 . S
H117 C95 0.931 . S
H118 C97 0.931 . S
H119 C98 0.931 . S
Gd120 C123 2.818 . S
Gd120 O140 2.377 . S
Gd120 O142 2.448 . S
Gd120 O143 2.506 . S
Gd120 O144 2.435 . S
Gd120 O145 2.717 . S
Gd120 O147 2.395 . S
Gd120 O151 2.327 . S
Gd121 C132 2.818 . S
Gd121 O141 2.395 . S
Gd121 O145 2.327 . S
Gd121 O146 2.377 . S
Gd121 O148 2.448 . S
Gd121 O149 2.506 . S
Gd121 O150 2.435 . S
Gd121 O151 2.717 . S
C122 O140 1.240 . S
C122 O141 1.240 . S
C123 Gd120 2.818 . S
C123 C124 1.510 . S
C123 O142 1.249 . S
C123 O143 1.252 . S
C124 C123 1.510 . S
C124 C125 1.404 . S
C124 C126 1.352 . S
C125 C124 1.404 . S
C125 C129 1.389 . S
C125 H152 0.930 . S
C126 C124 1.352 . S
C126 C128 1.374 . S
C126 H153 0.931 . S
C127 C128 1.359 . S
C127 C129 1.364 . S
C128 C126 1.374 . S
C128 C127 1.359 . S
C128 H154 0.931 . S
C129 C125 1.389 . S
C129 C127 1.364 . S
C129 H155 0.931 . S
C130 O144 1.256 . S
C130 O145 1.257 . S
C131 O146 1.240 . S
C131 O147 1.240 . S
C132 Gd121 2.818 . S
C132 C133 1.510 . S
C132 O148 1.249 . S
C132 O149 1.252 . S
C133 C132 1.510 . S
C133 C134 1.404 . S
C133 C135 1.352 . S
C134 C133 1.404 . S
C134 C138 1.389 . S
C134 H156 0.930 . S
C135 C133 1.352 . S
C135 C137 1.374 . S
C135 H157 0.931 . S
C136 C137 1.359 . S
C136 C138 1.364 . S
C137 C135 1.374 . S
C137 C136 1.359 . S
C137 H158 0.931 . S
C138 C134 1.389 . S
C138 C136 1.364 . S
C138 H159 0.931 . S
C139 O150 1.256 . S
C139 O151 1.257 . S
O140 Gd120 2.377 . S
O140 C122 1.240 . S
O141 Gd121 2.395 . S
O141 C122 1.240 . S
O142 Gd120 2.448 . S
O142 C123 1.249 . S
O143 Gd120 2.506 . S
O143 C123 1.252 . S
O144 Gd120 2.435 . S
O144 C130 1.256 . S
O145 Gd120 2.717 . S
O145 Gd121 2.327 . S
O145 C130 1.257 . S
O146 Gd121 2.377 . S
O146 C131 1.240 . S
O147 Gd120 2.395 . S
O147 C131 1.240 . S
O148 Gd121 2.448 . S
O148 C132 1.249 . S
O149 Gd121 2.506 . S
O149 C132 1.252 . S
O150 Gd121 2.435 . S
O150 C139 1.256 . S
O151 Gd120 2.327 . S
O151 Gd121 2.717 . S
O151 C139 1.257 . S
H152 C125 0.930 . S
H153 C126 0.931 . S
H154 C128 0.931 . S
H155 C129 0.931 . S
H156 C134 0.930 . S
H157 C135 0.931 . S
H158 C137 0.931 . S
H159 C138 0.931 . S
Gd160 C163 2.818 . S
Gd160 O180 2.377 . S
Gd160 O182 2.448 . S
Gd160 O183 2.506 . S
Gd160 O184 2.435 . S
Gd160 O185 2.717 . S
Gd160 O187 2.395 . S
Gd160 O191 2.327 . S
Gd161 C172 2.818 . S
Gd161 O181 2.395 . S
Gd161 O185 2.327 . S
Gd161 O186 2.377 . S
Gd161 O188 2.448 . S
Gd161 O189 2.506 . S
Gd161 O190 2.435 . S
Gd161 O191 2.717 . S
C162 O180 1.240 . S
C162 O181 1.240 . S
C163 Gd160 2.818 . S
C163 C164 1.510 . S
C163 O182 1.249 . S
C163 O183 1.252 . S
C164 C163 1.510 . S
C164 C165 1.404 . S
C164 C166 1.352 . S
C165 C164 1.404 . S
C165 C169 1.389 . S
C165 H192 0.930 . S
C166 C164 1.352 . S
C166 C168 1.374 . S
C166 H193 0.931 . S
C167 C168 1.359 . S
C167 C169 1.364 . S
C168 C166 1.374 . S
C168 C167 1.359 . S
C168 H194 0.931 . S
C169 C165 1.389 . S
C169 C167 1.364 . S
C169 H195 0.931 . S
C170 O184 1.256 . S
C170 O185 1.257 . S
C171 O186 1.240 . S
C171 O187 1.240 . S
C172 Gd161 2.818 . S
C172 C173 1.510 . S
C172 O188 1.249 . S
C172 O189 1.252 . S
C173 C172 1.510 . S
C173 C174 1.404 . S
C173 C175 1.352 . S
C174 C173 1.404 . S
C174 C178 1.389 . S
C174 H196 0.930 . S
C175 C173 1.352 . S
C175 C177 1.374 . S
C175 H197 0.931 . S
C176 C177 1.359 . S
C176 C178 1.364 . S
C177 C175 1.374 . S
C177 C176 1.359 . S
C177 H198 0.931 . S
C178 C174 1.389 . S
C178 C176 1.364 . S
C178 H199 0.931 . S
C179 O190 1.256 . S
C179 O191 1.257 . S
O180 Gd160 2.377 . S
O180 C162 1.240 . S
O181 Gd161 2.395 . S
O181 C162 1.240 . S
O182 Gd160 2.448 . S
O182 C163 1.249 . S
O183 Gd160 2.506 . S
O183 C163 1.252 . S
O184 Gd160 2.435 . S
O184 C170 1.256 . S
O185 Gd160 2.717 . S
O185 Gd161 2.327 . S
O185 C170 1.257 . S
O186 Gd161 2.377 . S
O186 C171 1.240 . S
O187 Gd160 2.395 . S
O187 C171 1.240 . S
O188 Gd161 2.448 . S
O188 C172 1.249 . S
O189 Gd161 2.506 . S
O189 C172 1.252 . S
O190 Gd161 2.435 . S
O190 C179 1.256 . S
O191 Gd160 2.327 . S
O191 Gd161 2.717 . S
O191 C179 1.257 . S
H192 C165 0.930 . S
H193 C166 0.931 . S
H194 C168 0.931 . S
H195 C169 0.931 . S
H196 C174 0.930 . S
H197 C175 0.931 . S
H198 C177 0.931 . S
H199 C178 0.931 . S
Gd200 C203 2.818 . S
Gd200 O220 2.377 . S
Gd200 O222 2.448 . S
Gd200 O223 2.506 . S
Gd200 O224 2.435 . S
Gd200 O225 2.717 . S
Gd200 O227 2.395 . S
Gd200 O231 2.327 . S
Gd201 C212 2.818 . S
Gd201 O221 2.395 . S
Gd201 O225 2.327 . S
Gd201 O226 2.377 . S
Gd201 O228 2.448 . S
Gd201 O229 2.506 . S
Gd201 O230 2.435 . S
Gd201 O231 2.717 . S
C202 O220 1.240 . S
C202 O221 1.240 . S
C203 Gd200 2.818 . S
C203 C204 1.510 . S
C203 O222 1.249 . S
C203 O223 1.252 . S
C204 C203 1.510 . S
C204 C205 1.404 . S
C204 C206 1.352 . S
C205 C204 1.404 . S
C205 C209 1.389 . S
C205 H232 0.930 . S
C206 C204 1.352 . S
C206 C208 1.374 . S
C206 H233 0.931 . S
C207 C208 1.359 . S
C207 C209 1.364 . S
C208 C206 1.374 . S
C208 C207 1.359 . S
C208 H234 0.931 . S
C209 C205 1.389 . S
C209 C207 1.364 . S
C209 H235 0.931 . S
C210 O224 1.256 . S
C210 O225 1.257 . S
C211 O226 1.240 . S
C211 O227 1.240 . S
C212 Gd201 2.818 . S
C212 C213 1.510 . S
C212 O228 1.249 . S
C212 O229 1.252 . S
C213 C212 1.510 . S
C213 C214 1.404 . S
C213 C215 1.352 . S
C214 C213 1.404 . S
C214 C218 1.389 . S
C214 H236 0.930 . S
C215 C213 1.352 . S
C215 C217 1.374 . S
C215 H237 0.931 . S
C216 C217 1.359 . S
C216 C218 1.364 . S
C217 C215 1.374 . S
C217 C216 1.359 . S
C217 H238 0.931 . S
C218 C214 1.389 . S
C218 C216 1.364 . S
C218 H239 0.931 . S
C219 O230 1.256 . S
C219 O231 1.257 . S
O220 Gd200 2.377 . S
O220 C202 1.240 . S
O221 Gd201 2.395 . S
O221 C202 1.240 . S
O222 Gd200 2.448 . S
O222 C203 1.249 . S
O223 Gd200 2.506 . S
O223 C203 1.252 . S
O224 Gd200 2.435 . S
O224 C210 1.256 . S
O225 Gd200 2.717 . S
O225 Gd201 2.327 . S
O225 C210 1.257 . S
O226 Gd201 2.377 . S
O226 C211 1.240 . S
O227 Gd200 2.395 . S
O227 C211 1.240 . S
O228 Gd201 2.448 . S
O228 C212 1.249 . S
O229 Gd201 2.506 . S
O229 C212 1.252 . S
O230 Gd201 2.435 . S
O230 C219 1.256 . S
O231 Gd200 2.327 . S
O231 Gd201 2.717 . S
O231 C219 1.257 . S
H232 C205 0.930 . S
H233 C206 0.931 . S
H234 C208 0.931 . S
H235 C209 0.931 . S
H236 C214 0.930 . S
H237 C215 0.931 . S
H238 C217 0.931 . S
H239 C218 0.931 . S
Gd240 C243 2.818 . S
Gd240 O260 2.377 . S
Gd240 O262 2.448 . S
Gd240 O263 2.506 . S
Gd240 O264 2.435 . S
Gd240 O265 2.717 . S
Gd240 O267 2.395 . S
Gd240 O271 2.327 . S
Gd241 C252 2.818 . S
Gd241 O261 2.395 . S
Gd241 O265 2.327 . S
Gd241 O266 2.377 . S
Gd241 O268 2.448 . S
Gd241 O269 2.506 . S
Gd241 O270 2.435 . S
Gd241 O271 2.717 . S
C242 O260 1.240 . S
C242 O261 1.240 . S
C243 Gd240 2.818 . S
C243 C244 1.510 . S
C243 O262 1.249 . S
C243 O263 1.252 . S
C244 C243 1.510 . S
C244 C245 1.404 . S
C244 C246 1.352 . S
C245 C244 1.404 . S
C245 C249 1.394 1_565 S
C245 H272 0.930 . S
C246 C244 1.352 . S
C246 C248 1.374 . S
C246 H273 0.931 . S
C247 C248 1.359 1_545 S
C247 C249 1.361 . S
C248 C246 1.374 . S
C248 C247 1.359 1_565 S
C248 H274 0.931 . S
C249 C245 1.394 1_545 S
C249 C247 1.361 . S
C249 H275 0.929 . S
C250 O264 1.256 . S
C250 O265 1.257 . S
C251 O266 1.240 . S
C251 O267 1.240 . S
C252 Gd241 2.818 . S
C252 C253 1.510 . S
C252 O268 1.249 . S
C252 O269 1.252 . S
C253 C252 1.510 . S
C253 C254 1.404 . S
C253 C255 1.352 . S
C254 C253 1.404 . S
C254 C258 1.389 . S
C254 H276 0.930 . S
C255 C253 1.352 . S
C255 C257 1.374 . S
C255 H277 0.931 . S
C256 C257 1.359 . S
C256 C258 1.364 . S
C257 C255 1.374 . S
C257 C256 1.359 . S
C257 H278 0.931 . S
C258 C254 1.389 . S
C258 C256 1.364 . S
C258 H279 0.931 . S
C259 O270 1.256 . S
C259 O271 1.257 . S
O260 Gd240 2.377 . S
O260 C242 1.240 . S
O261 Gd241 2.395 . S
O261 C242 1.240 . S
O262 Gd240 2.448 . S
O262 C243 1.249 . S
O263 Gd240 2.506 . S
O263 C243 1.252 . S
O264 Gd240 2.435 . S
O264 C250 1.256 . S
O265 Gd240 2.717 . S
O265 Gd241 2.327 . S
O265 C250 1.257 . S
O266 Gd241 2.377 . S
O266 C251 1.240 . S
O267 Gd240 2.395 . S
O267 C251 1.240 . S
O268 Gd241 2.448 . S
O268 C252 1.249 . S
O269 Gd241 2.506 . S
O269 C252 1.252 . S
O270 Gd241 2.435 . S
O270 C259 1.256 . S
O271 Gd240 2.327 . S
O271 Gd241 2.717 . S
O271 C259 1.257 . S
H272 C245 0.930 . S
H273 C246 0.931 . S
H274 C248 0.931 . S
H275 C249 0.929 . S
H276 C254 0.930 . S
H277 C255 0.931 . S
H278 C257 0.931 . S
H279 C258 0.931 . S
Gd280 C283 2.818 . S
Gd280 O300 2.377 . S
Gd280 O302 2.448 . S
Gd280 O303 2.506 . S
Gd280 O304 2.435 . S
Gd280 O305 2.717 . S
Gd280 O307 2.395 . S
Gd280 O311 2.327 . S
Gd281 C292 2.818 . S
Gd281 O301 2.395 . S
Gd281 O305 2.327 . S
Gd281 O306 2.377 . S
Gd281 O308 2.448 . S
Gd281 O309 2.506 . S
Gd281 O310 2.435 . S
Gd281 O311 2.717 . S
C282 O300 1.240 . S
C282 O301 1.240 . S
C283 Gd280 2.818 . S
C283 C284 1.510 . S
C283 O302 1.249 . S
C283 O303 1.252 . S
C284 C283 1.510 . S
C284 C285 1.404 . S
C284 C286 1.352 . S
C285 C284 1.404 . S
C285 C289 1.389 . S
C285 H312 0.930 . S
C286 C284 1.352 . S
C286 C288 1.374 . S
C286 H313 0.931 . S
C287 C288 1.359 . S
C287 C289 1.364 . S
C288 C286 1.374 . S
C288 C287 1.359 . S
C288 H314 0.931 . S
C289 C285 1.389 . S
C289 C287 1.364 . S
C289 H315 0.931 . S
C290 O304 1.256 . S
C290 O305 1.257 . S
C291 O306 1.240 . S
C291 O307 1.240 . S
C292 Gd281 2.818 . S
C292 C293 1.510 . S
C292 O308 1.249 . S
C292 O309 1.252 . S
C293 C292 1.510 . S
C293 C294 1.404 . S
C293 C295 1.352 . S
C294 C293 1.404 . S
C294 C298 1.389 . S
C294 H316 0.930 . S
C295 C293 1.352 . S
C295 C297 1.374 . S
C295 H317 0.931 . S
C296 C297 1.359 . S
C296 C298 1.364 . S
C297 C295 1.374 . S
C297 C296 1.359 . S
C297 H318 0.931 . S
C298 C294 1.389 . S
C298 C296 1.364 . S
C298 H319 0.931 . S
C299 O310 1.256 . S
C299 O311 1.257 . S
O300 Gd280 2.377 . S
O300 C282 1.240 . S
O301 Gd281 2.395 . S
O301 C282 1.240 . S
O302 Gd280 2.448 . S
O302 C283 1.249 . S
O303 Gd280 2.506 . S
O303 C283 1.252 . S
O304 Gd280 2.435 . S
O304 C290 1.256 . S
O305 Gd280 2.717 . S
O305 Gd281 2.327 . S
O305 C290 1.257 . S
O306 Gd281 2.377 . S
O306 C291 1.240 . S
O307 Gd280 2.395 . S
O307 C291 1.240 . S
O308 Gd281 2.448 . S
O308 C292 1.249 . S
O309 Gd281 2.506 . S
O309 C292 1.252 . S
O310 Gd281 2.435 . S
O310 C299 1.256 . S
O311 Gd280 2.327 . S
O311 Gd281 2.717 . S
O311 C299 1.257 . S
H312 C285 0.930 . S
H313 C286 0.931 . S
H314 C288 0.931 . S
H315 C289 0.931 . S
H316 C294 0.930 . S
H317 C295 0.931 . S
H318 C297 0.931 . S
H319 C298 0.931 . S
Gd320 C323 2.818 . S
Gd320 O340 2.377 . S
Gd320 O342 2.448 . S
Gd320 O343 2.506 . S
Gd320 O344 2.435 . S
Gd320 O345 2.717 . S
Gd320 O347 2.395 . S
Gd320 O351 2.327 . S
Gd321 C332 2.818 . S
Gd321 O341 2.395 . S
Gd321 O345 2.327 . S
Gd321 O346 2.377 . S
Gd321 O348 2.448 . S
Gd321 O349 2.506 . S
Gd321 O350 2.435 . S
Gd321 O351 2.717 . S
C322 O340 1.240 . S
C322 O341 1.240 . S
C323 Gd320 2.818 . S
C323 C324 1.510 . S
C323 O342 1.249 . S
C323 O343 1.252 . S
C324 C323 1.510 . S
C324 C325 1.404 . S
C324 C326 1.352 . S
C325 C324 1.404 . S
C325 C329 1.389 . S
C325 H352 0.930 . S
C326 C324 1.352 . S
C326 C328 1.374 . S
C326 H353 0.931 . S
C327 C328 1.359 . S
C327 C329 1.364 . S
C328 C326 1.374 . S
C328 C327 1.359 . S
C328 H354 0.931 . S
C329 C325 1.389 . S
C329 C327 1.364 . S
C329 H355 0.931 . S
C330 O344 1.256 . S
C330 O345 1.257 . S
C331 O346 1.240 . S
C331 O347 1.240 . S
C332 Gd321 2.818 . S
C332 C333 1.510 . S
C332 O348 1.249 . S
C332 O349 1.252 . S
C333 C332 1.510 . S
C333 C334 1.404 . S
C333 C335 1.352 . S
C334 C333 1.404 . S
C334 C338 1.389 . S
C334 H356 0.930 . S
C335 C333 1.352 . S
C335 C337 1.374 . S
C335 H357 0.931 . S
C336 C337 1.359 . S
C336 C338 1.364 . S
C337 C335 1.374 . S
C337 C336 1.359 . S
C337 H358 0.931 . S
C338 C334 1.389 . S
C338 C336 1.364 . S
C338 H359 0.931 . S
C339 O350 1.256 . S
C339 O351 1.257 . S
O340 Gd320 2.377 . S
O340 C322 1.240 . S
O341 Gd321 2.395 . S
O341 C322 1.240 . S
O342 Gd320 2.448 . S
O342 C323 1.249 . S
O343 Gd320 2.506 . S
O343 C323 1.252 . S
O344 Gd320 2.435 . S
O344 C330 1.256 . S
O345 Gd320 2.717 . S
O345 Gd321 2.327 . S
O345 C330 1.257 . S
O346 Gd321 2.377 . S
O346 C331 1.240 . S
O347 Gd320 2.395 . S
O347 C331 1.240 . S
O348 Gd321 2.448 . S
O348 C332 1.249 . S
O349 Gd321 2.506 . S
O349 C332 1.252 . S
O350 Gd321 2.435 . S
O350 C339 1.256 . S
O351 Gd320 2.327 . S
O351 Gd321 2.717 . S
O351 C339 1.257 . S
H352 C325 0.930 . S
H353 C326 0.931 . S
H354 C328 0.931 . S
H355 C329 0.931 . S
H356 C334 0.930 . S
H357 C335 0.931 . S
H358 C337 0.931 . S
H359 C338 0.931 . S
C360 C361 1.363 . S
C360 C366 1.379 . S
C360 N368 1.356 . S
C361 C360 1.363 . S
C361 C367 1.363 . S
C362 C363 1.363 . S
C362 C367 1.379 . S
C362 N369 1.356 . S
C363 C362 1.363 . S
C363 C366 1.363 . S
N364 C366 1.356 . S
N364 H376 0.984 . S
N364 H377 0.985 . S
N365 C367 1.356 1_554 S
N365 H370 0.984 . S
N365 H371 0.985 . S
C366 C360 1.379 . S
C366 C363 1.363 . S
C366 N364 1.356 . S
C367 C361 1.363 . S
C367 C362 1.379 . S
C367 N365 1.356 1_556 S
N368 C360 1.356 . S
N368 H374 0.984 . S
N368 H375 0.984 . S
N369 C362 1.356 . S
N369 H372 0.984 . S
N369 H373 0.985 . S
H370 N365 0.984 . S
H371 N365 0.985 . S
H372 N369 0.984 . S
H373 N369 0.985 . S
H374 N368 0.984 . S
H375 N368 0.984 . S
H376 N364 0.984 . S
H377 N364 0.985 . S
C378 C379 1.363 . S
C378 C384 1.379 . S
C378 N386 1.356 . S
C379 C378 1.363 . S
C379 C385 1.363 . S
C380 C381 1.363 . S
C380 C385 1.379 . S
C380 N387 1.356 . S
C381 C380 1.363 . S
C381 C384 1.363 . S
N382 C384 1.356 . S
N382 H394 0.984 . S
N382 H395 0.985 . S
N383 C385 1.356 . S
N383 H388 0.984 . S
N383 H389 0.985 . S
C384 C378 1.379 . S
C384 C381 1.363 . S
C384 N382 1.356 . S
C385 C379 1.363 . S
C385 C380 1.379 . S
C385 N383 1.356 . S
N386 C378 1.356 . S
N386 H392 0.984 . S
N386 H393 0.984 . S
N387 C380 1.356 . S
N387 H390 0.984 . S
N387 H391 0.985 . S
H388 N383 0.984 . S
H389 N383 0.985 . S
H390 N387 0.984 . S
H391 N387 0.985 . S
H392 N386 0.984 . S
H393 N386 0.984 . S
H394 N382 0.984 . S
H395 N382 0.985 . S
C396 C397 1.363 . S
C396 C402 1.379 . S
C396 N404 1.356 . S
C397 C396 1.363 . S
C397 C403 1.363 . S
C398 C399 1.363 . S
C398 C403 1.379 . S
C398 N405 1.356 . S
C399 C398 1.363 . S
C399 C402 1.363 . S
N400 C402 1.356 . S
N400 H412 0.984 . S
N400 H413 0.985 . S
N401 C403 1.353 1_554 S
N401 H406 0.986 . S
N401 H407 0.987 . S
C402 C396 1.379 . S
C402 C399 1.363 . S
C402 N400 1.356 . S
C403 C397 1.363 . S
C403 C398 1.379 . S
C403 N401 1.353 1_556 S
N404 C396 1.356 . S
N404 H410 0.984 . S
N404 H411 0.984 . S
N405 C398 1.356 . S
N405 H408 0.984 . S
N405 H409 0.985 . S
H406 N401 0.986 . S
H407 N401 0.987 . S
H408 N405 0.984 . S
H409 N405 0.985 . S
H410 N404 0.984 . S
H411 N404 0.984 . S
H412 N400 0.984 . S
H413 N400 0.985 . S
C414 C415 1.363 . S
C414 C420 1.379 . S
C414 N422 1.356 . S
C415 C414 1.363 . S
C415 C421 1.363 . S
C416 C417 1.363 . S
C416 C421 1.379 . S
C416 N423 1.356 . S
C417 C416 1.363 . S
C417 C420 1.363 . S
N418 C420 1.356 . S
N418 H430 0.984 . S
N418 H431 0.985 1_554 S
N419 C421 1.356 . S
N419 H424 0.984 . S
N419 H425 0.985 . S
C420 C414 1.379 . S
C420 C417 1.363 . S
C420 N418 1.356 . S
C421 C415 1.363 . S
C421 C416 1.379 . S
C421 N419 1.356 . S
N422 C414 1.356 . S
N422 H428 0.984 . S
N422 H429 0.984 . S
N423 C416 1.356 . S
N423 H426 0.984 . S
N423 H427 0.985 1_545 S
H424 N419 0.984 . S
H425 N419 0.985 . S
H426 N423 0.984 . S
H427 N423 0.985 1_565 S
H428 N422 0.984 . S
H429 N422 0.984 . S
H430 N418 0.984 . S
H431 N418 0.985 1_556 S
C432 C433 1.363 . S
C432 C438 1.379 . S
C432 N440 1.356 . S
C433 C432 1.363 . S
C433 C439 1.363 . S
C434 C435 1.363 . S
C434 C439 1.379 . S
C434 N441 1.356 . S
C435 C434 1.363 . S
C435 C438 1.363 . S
N436 C438 1.356 1_556 S
N436 H448 0.984 . S
N436 H449 0.985 . S
N437 C439 1.356 . S
N437 H442 0.984 . S
N437 H443 0.985 . S
C438 C432 1.379 . S
C438 C435 1.363 . S
C438 N436 1.356 1_554 S
C439 C433 1.363 . S
C439 C434 1.379 . S
C439 N437 1.356 . S
N440 C432 1.356 . S
N440 H446 0.984 1_554 S
N440 H447 0.984 . S
N441 C434 1.356 . S
N441 H444 0.984 . S
N441 H445 0.985 . S
H442 N437 0.984 . S
H443 N437 0.985 . S
H444 N441 0.984 . S
H445 N441 0.985 . S
H446 N440 0.984 1_556 S
H447 N440 0.984 . S
H448 N436 0.984 . S
H449 N436 0.985 . S
C450 C451 1.363 . S
C450 C456 1.379 . S
C450 N458 1.356 . S
C451 C450 1.363 . S
C451 C457 1.363 1_554 S
C452 C453 1.363 . S
C452 C457 1.379 1_554 S
C452 N459 1.356 . S
C453 C452 1.363 . S
C453 C456 1.363 . S
N454 C456 1.356 . S
N454 H466 0.984 . S
N454 H467 0.985 . S
N455 C457 1.356 . S
N455 H460 0.984 . S
N455 H461 0.985 . S
C456 C450 1.379 . S
C456 C453 1.363 . S
C456 N454 1.356 . S
C457 C451 1.363 1_556 S
C457 C452 1.379 1_556 S
C457 N455 1.356 . S
N458 C450 1.356 . S
N458 H464 0.984 . S
N458 H465 0.984 . S
N459 C452 1.356 . S
N459 H462 0.984 . S
N459 H463 0.985 1_554 S
H460 N455 0.984 . S
H461 N455 0.985 . S
H462 N459 0.984 . S
H463 N459 0.985 1_556 S
H464 N458 0.984 . S
H465 N458 0.984 . S
H466 N454 0.984 . S
H467 N454 0.985 . S
C468 C469 1.363 . S
C468 C474 1.379 . S
C468 N476 1.356 . S
C469 C468 1.363 . S
C469 C475 1.363 . S
C470 C471 1.363 . S
C470 C475 1.379 . S
C470 N477 1.356 . S
C471 C470 1.363 . S
C471 C474 1.363 . S
N472 C474 1.356 . S
N472 H484 0.984 . S
N472 H485 0.985 . S
N473 C475 1.356 . S
N473 H478 0.984 . S
N473 H479 0.985 . S
C474 C468 1.379 . S
C474 C471 1.363 . S
C474 N472 1.356 . S
C475 C469 1.363 . S
C475 C470 1.379 . S
C475 N473 1.356 . S
N476 C468 1.356 . S
N476 H482 0.984 . S
N476 H483 0.982 . S
N477 C470 1.356 . S
N477 H480 0.984 . S
N477 H481 0.985 . S
H478 N473 0.984 . S
H479 N473 0.985 . S
H480 N477 0.984 . S
H481 N477 0.985 . S
H482 N476 0.984 . S
H483 N476 0.982 . S
H484 N472 0.984 . S
H485 N472 0.985 . S
C486 C487 1.363 . S
C486 C492 1.379 . S
C486 N494 1.356 . S
C487 C486 1.363 . S
C487 C493 1.363 . S
C488 C489 1.363 . S
C488 C493 1.379 . S
C488 N495 1.356 . S
C489 C488 1.363 . S
C489 C492 1.363 . S
N490 C492 1.356 . S
N490 H502 0.984 . S
N490 H503 0.985 . S
N491 C493 1.356 . S
N491 H496 0.984 . S
N491 H497 0.985 . S
C492 C486 1.379 . S
C492 C489 1.363 . S
C492 N490 1.356 . S
C493 C487 1.363 . S
C493 C488 1.379 . S
C493 N491 1.356 . S
N494 C486 1.356 . S
N494 H500 0.984 . S
N494 H501 0.984 . S
N495 C488 1.356 . S
N495 H498 0.984 . S
N495 H499 0.985 . S
H496 N491 0.984 . S
H497 N491 0.985 . S
H498 N495 0.984 . S
H499 N495 0.985 . S
H500 N494 0.984 . S
H501 N494 0.984 . S
H502 N490 0.984 . S
H503 N490 0.985 . S
C504 C505 1.363 . S
C504 C510 1.379 . S
C504 N512 1.356 . S
C505 C504 1.363 . S
C505 C511 1.363 . S
C506 C507 1.363 . S
C506 C511 1.379 . S
C506 N513 1.356 . S
C507 C506 1.363 . S
C507 C510 1.363 . S
N508 C510 1.356 . S
N508 H520 0.984 . S
N508 H521 0.985 . S
N509 C511 1.356 . S
N509 H514 0.984 . S
N509 H515 0.985 . S
C510 C504 1.379 . S
C510 C507 1.363 . S
C510 N508 1.356 . S
C511 C505 1.363 . S
C511 C506 1.379 . S
C511 N509 1.356 . S
N512 C504 1.356 . S
N512 H518 0.984 . S
N512 H519 0.984 . S
N513 C506 1.356 . S
N513 H516 0.984 . S
N513 H517 0.985 . S
H514 N509 0.984 . S
H515 N509 0.985 . S
H516 N513 0.984 . S
H517 N513 0.985 . S
H518 N512 0.984 . S
H519 N512 0.984 . S
H520 N508 0.984 . S
H521 N508 0.985 . S
C522 C523 1.363 . S
C522 C528 1.379 . S
C522 N530 1.356 . S
C523 C522 1.363 . S
C523 C529 1.363 1_554 S
C524 C525 1.363 1_556 S
C524 C529 1.379 . S
C524 N531 1.356 . S
C525 C524 1.363 1_554 S
C525 C528 1.363 . S
N526 C528 1.356 . S
N526 H538 0.984 . S
N526 H539 0.985 . S
N527 C529 1.356 . S
N527 H532 0.984 . S
N527 H533 0.985 . S
C528 C522 1.379 . S
C528 C525 1.363 . S
C528 N526 1.356 . S
C529 C523 1.363 1_556 S
C529 C524 1.379 . S
C529 N527 1.356 . S
N530 C522 1.356 . S
N530 H536 0.984 . S
N530 H537 0.984 . S
N531 C524 1.356 . S
N531 H534 0.984 . S
N531 H535 0.985 . S
H532 N527 0.984 . S
H533 N527 0.985 . S
H534 N531 0.984 . S
H535 N531 0.985 . S
H536 N530 0.984 . S
H537 N530 0.984 . S
H538 N526 0.984 . S
H539 N526 0.985 . S
C540 C541 1.363 1_556 S
C540 C546 1.379 . S
C540 N548 1.356 . S
C541 C540 1.363 1_554 S
C541 C547 1.363 . S
C542 C543 1.363 . S
C542 C547 1.379 . S
C542 N549 1.356 . S
C543 C542 1.363 . S
C543 C546 1.363 1_554 S
N544 C546 1.356 . S
N544 H556 0.984 . S
N544 H557 0.985 1_565 S
N545 C547 1.356 . S
N545 H550 0.984 . S
N545 H551 0.985 . S
C546 C540 1.379 . S
C546 C543 1.363 1_556 S
C546 N544 1.356 . S
C547 C541 1.363 . S
C547 C542 1.379 . S
C547 N545 1.356 . S
N548 C540 1.356 . S
N548 H554 0.984 . S
N548 H555 0.984 . S
N549 C542 1.356 . S
N549 H552 0.984 1_565 S
N549 H553 0.985 . S
H550 N545 0.984 . S
H551 N545 0.985 . S
H552 N549 0.984 1_545 S
H553 N549 0.985 . S
H554 N548 0.984 . S
H555 N548 0.984 . S
H556 N544 0.984 . S
H557 N544 0.985 1_545 S
C558 C559 1.363 . S
C558 C564 1.379 . S
C558 N566 1.356 . S
C559 C558 1.363 . S
C559 C565 1.363 1_554 S
C560 C561 1.363 1_556 S
C560 C565 1.379 . S
C560 N567 1.356 . S
C561 C560 1.363 1_554 S
C561 C564 1.363 . S
N562 C564 1.356 . S
N562 H574 0.984 . S
N562 H575 0.985 . S
N563 C565 1.356 . S
N563 H568 0.984 . S
N563 H569 0.985 . S
C564 C558 1.379 . S
C564 C561 1.363 . S
C564 N562 1.356 . S
C565 C559 1.363 1_556 S
C565 C560 1.379 . S
C565 N563 1.356 . S
N566 C558 1.356 . S
N566 H572 0.984 . S
N566 H573 0.984 . S
N567 C560 1.356 . S
N567 H570 0.984 . S
N567 H571 0.985 . S
H568 N563 0.984 . S
H569 N563 0.985 . S
H570 N567 0.984 . S
H571 N567 0.985 . S
H572 N566 0.984 . S
H573 N566 0.984 . S
H574 N562 0.984 . S
H575 N562 0.985 . S
C576 C577 1.363 . S
C576 C582 1.379 . S
C576 N584 1.356 . S
C577 C576 1.363 . S
C577 C583 1.363 . S
C578 C579 1.363 . S
C578 C583 1.379 . S
C578 N585 1.356 . S
C579 C578 1.363 . S
C579 C582 1.363 . S
N580 C582 1.356 . S
N580 H592 0.984 . S
N580 H593 0.985 . S
N581 C583 1.356 . S
N581 H586 0.984 . S
N581 H587 0.985 . S
C582 C576 1.379 . S
C582 C579 1.363 . S
C582 N580 1.356 . S
C583 C577 1.363 . S
C583 C578 1.379 . S
C583 N581 1.356 . S
N584 C576 1.356 . S
N584 H590 0.984 . S
N584 H591 0.984 . S
N585 C578 1.356 . S
N585 H588 0.984 . S
N585 H589 0.985 . S
H586 N581 0.984 . S
H587 N581 0.985 . S
H588 N585 0.984 . S
H589 N585 0.985 . S
H590 N584 0.984 . S
H591 N584 0.984 . S
H592 N580 0.984 . S
H593 N580 0.985 . S
C594 C595 1.363 . S
C594 C600 1.379 . S
C594 N602 1.356 . S
C595 C594 1.363 . S
C595 C601 1.363 . S
C596 C597 1.363 . S
C596 C601 1.379 . S
C596 N603 1.356 . S
C597 C596 1.363 . S
C597 C600 1.363 . S
N598 C600 1.356 . S
N598 H610 0.984 . S
N598 H611 0.985 . S
N599 C601 1.356 . S
N599 H604 0.984 . S
N599 H605 0.985 . S
C600 C594 1.379 . S
C600 C597 1.363 . S
C600 N598 1.356 . S
C601 C595 1.363 . S
C601 C596 1.379 . S
C601 N599 1.356 . S
N602 C594 1.356 . S
N602 H608 0.984 . S
N602 H609 0.984 . S
N603 C596 1.356 . S
N603 H606 0.984 . S
N603 H607 0.985 . S
H604 N599 0.984 . S
H605 N599 0.985 . S
H606 N603 0.984 . S
H607 N603 0.985 . S
H608 N602 0.984 . S
H609 N602 0.984 . S
H610 N598 0.984 . S
H611 N598 0.985 . S
C612 C613 1.363 . S
C612 C618 1.379 . S
C612 N620 1.356 . S
C613 C612 1.363 . S
C613 C619 1.363 . S
C614 C615 1.363 . S
C614 C619 1.379 . S
C614 N621 1.356 . S
C615 C614 1.363 . S
C615 C618 1.363 . S
N616 C618 1.356 . S
N616 H628 0.984 . S
N616 H629 0.985 . S
N617 C619 1.356 . S
N617 H622 0.984 . S
N617 H623 0.985 . S
C618 C612 1.379 . S
C618 C615 1.363 . S
C618 N616 1.356 . S
C619 C613 1.363 . S
C619 C614 1.379 . S
C619 N617 1.356 . S
N620 C612 1.356 . S
N620 H626 0.984 . S
N620 H627 0.984 . S
N621 C614 1.356 . S
N621 H624 0.984 . S
N621 H625 0.985 . S
H622 N617 0.984 . S
H623 N617 0.985 . S
H624 N621 0.984 . S
H625 N621 0.985 . S
H626 N620 0.984 . S
H627 N620 0.984 . S
H628 N616 0.984 . S
H629 N616 0.985 . S
C630 C631 1.363 . S
C630 C636 1.379 . S
C630 N638 1.356 . S
C631 C630 1.363 . S
C631 C637 1.363 . S
C632 C633 1.363 . S
C632 C637 1.379 . S
C632 N639 1.356 . S
C633 C632 1.363 . S
C633 C636 1.363 . S
N634 C636 1.356 . S
N634 H646 0.984 . S
N634 H647 0.985 . S
N635 C637 1.356 . S
N635 H640 0.984 . S
N635 H641 0.985 . S
C636 C630 1.379 . S
C636 C633 1.363 . S
C636 N634 1.356 . S
C637 C631 1.363 . S
C637 C632 1.379 . S
C637 N635 1.356 . S
N638 C630 1.356 . S
N638 H644 0.984 1_556 S
N638 H645 0.984 . S
N639 C632 1.356 . S
N639 H642 0.984 . S
N639 H643 0.985 . S
H640 N635 0.984 . S
H641 N635 0.985 . S
H642 N639 0.984 . S
H643 N639 0.985 . S
H644 N638 0.984 1_554 S
H645 N638 0.984 . S
H646 N634 0.984 . S
H647 N634 0.985 . S
C648 C649 1.363 . S
C648 C654 1.379 . S
C648 N656 1.356 . S
C649 C648 1.363 . S
C649 C655 1.363 . S
C650 C651 1.363 . S
C650 C655 1.379 . S
C650 N657 1.356 . S
C651 C650 1.363 . S
C651 C654 1.363 . S
N652 C654 1.356 . S
N652 H664 0.984 . S
N652 H665 0.985 . S
N653 C655 1.356 . S
N653 H658 0.984 . S
N653 H659 0.985 . S
C654 C648 1.379 . S
C654 C651 1.363 . S
C654 N652 1.356 . S
C655 C649 1.363 . S
C655 C650 1.379 . S
C655 N653 1.356 . S
N656 C648 1.356 . S
N656 H662 0.984 . S
N656 H663 0.984 . S
N657 C650 1.356 . S
N657 H660 0.984 . S
N657 H661 0.985 . S
H658 N653 0.984 . S
H659 N653 0.985 . S
H660 N657 0.984 . S
H661 N657 0.985 . S
H662 N656 0.984 . S
H663 N656 0.984 . S
H664 N652 0.984 . S
H665 N652 0.985 . S
C666 C667 1.363 . S
C666 C672 1.379 . S
C666 N674 1.356 . S
C667 C666 1.363 . S
C667 C673 1.363 . S
C668 C669 1.363 . S
C668 C673 1.379 . S
C668 N675 1.356 . S
C669 C668 1.363 . S
C669 C672 1.363 . S
N670 C672 1.356 . S
N670 H682 0.984 . S
N670 H683 0.985 . S
N671 C673 1.356 . S
N671 H676 0.984 . S
N671 H677 0.985 . S
C672 C666 1.379 . S
C672 C669 1.363 . S
C672 N670 1.356 . S
C673 C667 1.363 . S
C673 C668 1.379 . S
C673 N671 1.356 . S
N674 C666 1.356 . S
N674 H680 0.984 . S
N674 H681 0.984 . S
N675 C668 1.356 . S
N675 H678 0.984 . S
N675 H679 0.985 . S
H676 N671 0.984 . S
H677 N671 0.985 . S
H678 N675 0.984 . S
H679 N675 0.985 . S
H680 N674 0.984 . S
H681 N674 0.984 . S
H682 N670 0.984 . S
H683 N670 0.985 . S
C684 C685 1.363 . S
C684 C690 1.379 . S
C684 N692 1.356 . S
C685 C684 1.363 . S
C685 C691 1.363 1_455 S
C686 C687 1.363 1_655 S
C686 C691 1.379 . S
C686 N693 1.356 . S
C687 C686 1.363 1_455 S
C687 C690 1.363 . S
N688 C690 1.356 . S
N688 H700 0.984 . S
N688 H701 0.985 . S
N689 C691 1.356 . S
N689 H694 0.984 . S
N689 H695 0.985 . S
C690 C684 1.379 . S
C690 C687 1.363 . S
C690 N688 1.356 . S
C691 C685 1.363 1_655 S
C691 C686 1.379 . S
C691 N689 1.356 . S
N692 C684 1.356 . S
N692 H698 0.984 . S
N692 H699 0.984 . S
N693 C686 1.356 . S
N693 H696 0.984 . S
N693 H697 0.985 . S
H694 N689 0.984 . S
H695 N689 0.985 . S
H696 N693 0.984 . S
H697 N693 0.985 . S
H698 N692 0.984 . S
H699 N692 0.984 . S
H700 N688 0.984 . S
H701 N688 0.985 . S
C702 C703 1.363 . S
C702 C708 1.379 . S
C702 N710 1.356 . S
C703 C702 1.363 . S
C703 C709 1.363 . S
C704 C705 1.363 . S
C704 C709 1.379 . S
C704 N711 1.356 . S
C705 C704 1.363 . S
C705 C708 1.363 . S
N706 C708 1.356 . S
N706 H718 0.984 . S
N706 H719 0.985 . S
N707 C709 1.356 . S
N707 H712 0.984 . S
N707 H713 0.985 . S
C708 C702 1.379 . S
C708 C705 1.363 . S
C708 N706 1.356 . S
C709 C703 1.363 . S
C709 C704 1.379 . S
C709 N707 1.356 . S
N710 C702 1.356 . S
N710 H716 0.984 . S
N710 H717 0.984 . S
N711 C704 1.356 . S
N711 H714 0.984 . S
N711 H715 0.985 . S
H712 N707 0.984 . S
H713 N707 0.985 . S
H714 N711 0.984 . S
H715 N711 0.985 . S
H716 N710 0.984 . S
H717 N710 0.984 . S
H718 N706 0.984 . S
H719 N706 0.985 . S
C720 C721 1.363 . S
C720 C726 1.379 . S
C720 N728 1.356 . S
C721 C720 1.363 . S
C721 C727 1.363 1_545 S
C722 C723 1.363 1_565 S
C722 C727 1.379 . S
C722 N729 1.356 . S
C723 C722 1.363 1_545 S
C723 C726 1.363 . S
N724 C726 1.356 . S
N724 H736 0.984 . S
N724 H737 0.985 . S
N725 C727 1.356 . S
N725 H730 0.984 . S
N725 H731 0.985 . S
C726 C720 1.379 . S
C726 C723 1.363 . S
C726 N724 1.356 . S
C727 C721 1.363 1_565 S
C727 C722 1.379 . S
C727 N725 1.356 . S
N728 C720 1.356 . S
N728 H734 0.984 . S
N728 H735 0.984 . S
N729 C722 1.356 . S
N729 H732 0.984 . S
N729 H733 0.985 . S
H730 N725 0.984 . S
H731 N725 0.985 . S
H732 N729 0.984 . S
H733 N729 0.985 . S
H734 N728 0.984 . S
H735 N728 0.984 . S
H736 N724 0.984 . S
H737 N724 0.985 . S
C738 C739 1.363 . S
C738 C744 1.379 . S
C738 N746 1.356 . S
C739 C738 1.363 . S
C739 C745 1.363 . S
C740 C741 1.363 . S
C740 C745 1.379 . S
C740 N747 1.356 1_556 S
C741 C740 1.363 . S
C741 C744 1.363 . S
N742 C744 1.356 1_554 S
N742 H754 0.984 1_554 S
N742 H755 0.985 . S
N743 C745 1.356 . S
N743 H748 0.984 . S
N743 H749 0.985 . S
C744 C738 1.379 . S
C744 C741 1.363 . S
C744 N742 1.356 1_556 S
C745 C739 1.363 . S
C745 C740 1.379 . S
C745 N743 1.356 . S
N746 C738 1.356 . S
N746 H752 0.984 . S
N746 H753 0.984 . S
N747 C740 1.356 1_554 S
N747 H750 0.984 . S
N747 H751 0.985 1_554 S
H748 N743 0.984 . S
H749 N743 0.985 . S
H750 N747 0.984 . S
H751 N747 0.985 1_556 S
H752 N746 0.984 . S
H753 N746 0.984 . S
H754 N742 0.984 1_556 S
H755 N742 0.985 . S
C756 C757 1.363 . S
C756 C762 1.379 . S
C756 N764 1.356 . S
C757 C756 1.363 . S
C757 C763 1.363 . S
C758 C759 1.363 . S
C758 C763 1.379 . S
C758 N765 1.356 1_556 S
C759 C758 1.363 . S
C759 C762 1.363 . S
N760 C762 1.356 . S
N760 H772 0.984 . S
N760 H773 0.985 1_556 S
N761 C763 1.356 . S
N761 H766 0.984 . S
N761 H767 0.985 . S
C762 C756 1.379 . S
C762 C759 1.363 . S
C762 N760 1.356 . S
C763 C757 1.363 . S
C763 C758 1.379 . S
C763 N761 1.356 . S
N764 C756 1.356 . S
N764 H770 0.984 . S
N764 H771 0.984 . S
N765 C758 1.356 1_554 S
N765 H768 0.984 . S
N765 H769 0.985 . S
H766 N761 0.984 . S
H767 N761 0.985 . S
H768 N765 0.984 . S
H769 N765 0.985 . S
H770 N764 0.984 . S
H771 N764 0.984 . S
H772 N760 0.984 . S
H773 N760 0.985 1_554 S
C774 C775 1.363 . S
C774 C780 1.379 . S
C774 N782 1.356 . S
C775 C774 1.363 . S
C775 C781 1.363 . S
C776 C777 1.363 . S
C776 C781 1.379 . S
C776 N783 1.356 1_556 S
C777 C776 1.363 . S
C777 C780 1.363 . S
N778 C780 1.356 . S
N778 H790 0.984 . S
N778 H791 0.985 1_556 S
N779 C781 1.356 . S
N779 H784 0.984 . S
N779 H785 0.985 . S
C780 C774 1.379 . S
C780 C777 1.363 . S
C780 N778 1.356 . S
C781 C775 1.363 . S
C781 C776 1.379 . S
C781 N779 1.356 . S
N782 C774 1.356 . S
N782 H788 0.984 . S
N782 H789 0.984 . S
N783 C776 1.356 1_554 S
N783 H786 0.984 . S
N783 H787 0.985 . S
H784 N779 0.984 . S
H785 N779 0.985 . S
H786 N783 0.984 . S
H787 N783 0.985 . S
H788 N782 0.984 . S
H789 N782 0.984 . S
H790 N778 0.984 . S
H791 N778 0.985 1_554 S
C792 C793 1.363 . S
C792 C798 1.379 . S
C792 N800 1.356 . S
C793 C792 1.363 . S
C793 C799 1.363 . S
C794 C795 1.363 . S
C794 C799 1.379 . S
C794 N801 1.356 1_554 S
C795 C794 1.363 . S
C795 C798 1.363 . S
N796 C798 1.356 . S
N796 H808 0.984 . S
N796 H809 0.985 1_554 S
N797 C799 1.356 . S
N797 H802 0.984 . S
N797 H803 0.985 . S
C798 C792 1.379 . S
C798 C795 1.363 . S
C798 N796 1.356 . S
C799 C793 1.363 . S
C799 C794 1.379 . S
C799 N797 1.356 . S
N800 C792 1.356 . S
N800 H806 0.984 . S
N800 H807 0.984 . S
N801 C794 1.356 1_556 S
N801 H804 0.984 . S
N801 H805 0.985 . S
H802 N797 0.984 . S
H803 N797 0.985 . S
H804 N801 0.984 . S
H805 N801 0.985 . S
H806 N800 0.984 . S
H807 N800 0.984 . S
H808 N796 0.984 . S
H809 N796 0.985 1_556 S
C810 C811 1.363 . S
C810 C816 1.379 . S
C810 N818 1.356 1_554 S
C811 C810 1.363 . S
C811 C817 1.363 . S
C812 C813 1.363 . S
C812 C817 1.379 . S
C812 N819 1.356 . S
C813 C812 1.363 . S
C813 C816 1.363 . S
N814 C816 1.356 . S
N814 H826 0.984 . S
N814 H827 0.985 . S
N815 C817 1.356 . S
N815 H820 0.984 1_554 S
N815 H821 0.985 . S
C816 C810 1.379 . S
C816 C813 1.363 . S
C816 N814 1.356 . S
C817 C811 1.363 . S
C817 C812 1.379 . S
C817 N815 1.356 . S
N818 C810 1.356 1_556 S
N818 H824 0.984 1_556 S
N818 H825 0.984 . S
N819 C812 1.356 . S
N819 H822 0.984 . S
N819 H823 0.985 . S
H820 N815 0.984 1_556 S
H821 N815 0.985 . S
H822 N819 0.984 . S
H823 N819 0.985 . S
H824 N818 0.984 1_554 S
H825 N818 0.984 . S
H826 N814 0.984 . S
H827 N814 0.985 . S
C828 C829 1.363 . S
C828 C834 1.379 . S
C828 N836 1.356 . S
C829 C828 1.363 . S
C829 C835 1.363 . S
C830 C831 1.363 . S
C830 C835 1.379 . S
C830 N837 1.356 . S
C831 C830 1.363 . S
C831 C834 1.363 . S
N832 C834 1.356 . S
N832 H844 0.984 . S
N832 H845 0.985 1_554 S
N833 C835 1.356 . S
N833 H838 0.984 . S
N833 H839 0.985 . S
C834 C828 1.379 . S
C834 C831 1.363 . S
C834 N832 1.356 . S
C835 C829 1.363 . S
C835 C830 1.379 . S
C835 N833 1.356 . S
N836 C828 1.356 . S
N836 H842 0.984 . S
N836 H843 0.984 . S
N837 C830 1.356 . S
N837 H840 0.984 1_554 S
N837 H841 0.985 . S
H838 N833 0.984 . S
H839 N833 0.985 . S
H840 N837 0.984 1_556 S
H841 N837 0.985 . S
H842 N836 0.984 . S
H843 N836 0.984 . S
H844 N832 0.984 . S
H845 N832 0.985 1_556 S
C361 C7 1.840 . S
C363 C282 1.799 . S
C379 C47 1.839 . S
C381 C322 1.799 . S
C397 C87 1.839 . S
C399 C242 1.798 . S
C415 C167 1.840 . S
C417 C82 1.799 . S
C433 C207 1.839 . S
C435 C2 1.799 . S
C451 C42 1.800 . S
C453 C127 1.840 . S
C469 C287 1.840 1_655 S
C471 C202 1.799 . S
C487 C327 1.839 . S
C489 C122 1.799 . S
C505 C162 1.799 . S
C507 C247 1.839 . S
C523 C96 1.678 . S
C525 C11 1.694 1_554 S
C541 C51 1.695 1_554 S
C543 C16 1.679 1_565 S
C559 C56 1.679 . S
C561 C91 1.694 1_554 S
C577 C131 1.694 . S
C579 C216 1.678 . S
C595 C136 1.679 . S
C597 C171 1.695 . S
C613 C176 1.679 . S
C615 C211 1.694 . S
C631 C336 1.678 . S
C633 C251 1.694 . S
C649 C291 1.694 . S
C651 C256 1.678 . S
C667 C331 1.695 . S
C669 C296 1.679 . S
C685 C19 1.130 . S
C687 C10 1.124 . S
C703 C59 1.124 . S
C705 C50 1.124 . S
C721 C99 1.124 . S
C723 C90 1.124 . S
C739 C130 1.124 . S
C741 C139 1.124 1_556 S
C757 C170 1.124 . S
C759 C179 1.124 1_556 S
C775 C210 1.124 . S
C777 C219 1.124 1_556 S
C793 C259 1.124 . S
C795 C250 1.124 1_554 S
C811 C290 1.124 1_554 S
C813 C299 1.124 . S
C829 C339 1.124 . S
C831 C330 1.124 1_554 S
