# Generated by pormake.
# Topology yft, (5)-cn, num edge types: 1
# Building blocks:
#     Node 0, Type 0, BuildingBlock: BEQFEK_clean_sbu_0, # of connection points: 5
#     Node 1, Type 0, BuildingBlock: BEQFEK_clean_sbu_0, # of connection points: 5
#     Node 2, Type 0, BuildingBlock: BEQFEK_clean_sbu_0, # of connection points: 5
#     Node 3, Type 0, BuildingBlock: BEQFEK_clean_sbu_0, # of connection points: 5
#     Node 4, Type 0, BuildingBlock: BEQFEK_clean_sbu_0, # of connection points: 5
#     Node 5, Type 0, BuildingBlock: BEQFEK_clean_sbu_0, # of connection points: 5
#     Node 6, Type 0, BuildingBlock: BEQFEK_clean_sbu_0, # of connection points: 5
#     Node 7, Type 0, BuildingBlock: BEQFEK_clean_sbu_0, # of connection points: 5
#     Node 8, Type 0, BuildingBlock: BEQFEK_clean_sbu_0, # of connection points: 5
#     Node 9, Type 0, BuildingBlock: BEQFEK_clean_sbu_0, # of connection points: 5
#     Node 10, Type 0, BuildingBlock: BEQFEK_clean_sbu_0, # of connection points: 5
#     Node 11, Type 0, BuildingBlock: BEQFEK_clean_sbu_0, # of connection points: 5
#     Node 12, Type 0, BuildingBlock: BEQFEK_clean_sbu_0, # of connection points: 5
#     Node 13, Type 0, BuildingBlock: BEQFEK_clean_sbu_0, # of connection points: 5
#     Node 14, Type 0, BuildingBlock: BEQFEK_clean_sbu_0, # of connection points: 5
#     Node 15, Type 0, BuildingBlock: BEQFEK_clean_sbu_0, # of connection points: 5
#     Node 16, Type 0, BuildingBlock: BEQFEK_clean_sbu_0, # of connection points: 5
#     Node 17, Type 0, BuildingBlock: BEQFEK_clean_sbu_0, # of connection points: 5
#     Node 18, Type 0, BuildingBlock: BEQFEK_clean_sbu_0, # of connection points: 5
#     Node 19, Type 0, BuildingBlock: BEQFEK_clean_sbu_0, # of connection points: 5
#     Node 20, Type 0, BuildingBlock: BEQFEK_clean_sbu_0, # of connection points: 5
#     Node 21, Type 0, BuildingBlock: BEQFEK_clean_sbu_0, # of connection points: 5
#     Node 22, Type 0, BuildingBlock: BEQFEK_clean_sbu_0, # of connection points: 5
#     Node 23, Type 0, BuildingBlock: BEQFEK_clean_sbu_0, # of connection points: 5
#     Node 24, Type 0, BuildingBlock: BEQFEK_clean_sbu_0, # of connection points: 5
#     Node 25, Type 0, BuildingBlock: BEQFEK_clean_sbu_0, # of connection points: 5
#     Node 26, Type 0, BuildingBlock: BEQFEK_clean_sbu_0, # of connection points: 5
#     Node 27, Type 0, BuildingBlock: BEQFEK_clean_sbu_0, # of connection points: 5
#     Node 28, Type 0, BuildingBlock: BEQFEK_clean_sbu_0, # of connection points: 5
#     Node 29, Type 0, BuildingBlock: BEQFEK_clean_sbu_0, # of connection points: 5
#     Node 30, Type 0, BuildingBlock: BEQFEK_clean_sbu_0, # of connection points: 5
#     Node 31, Type 0, BuildingBlock: BEQFEK_clean_sbu_0, # of connection points: 5
#     Edge 32, Type (0, 0), BuildingBlock: ZUJKAS_clean_linker_0, # of connection points: 2
#     Edge 33, Type (0, 0), BuildingBlock: ZUJKAS_clean_linker_0, # of connection points: 2
#     Edge 34, Type (0, 0), BuildingBlock: ZUJKAS_clean_linker_0, # of connection points: 2
#     Edge 35, Type (0, 0), BuildingBlock: ZUJKAS_clean_linker_0, # of connection points: 2
#     Edge 36, Type (0, 0), BuildingBlock: ZUJKAS_clean_linker_0, # of connection points: 2
#     Edge 37, Type (0, 0), BuildingBlock: ZUJKAS_clean_linker_0, # of connection points: 2
#     Edge 38, Type (0, 0), BuildingBlock: ZUJKAS_clean_linker_0, # of connection points: 2
#     Edge 39, Type (0, 0), BuildingBlock: ZUJKAS_clean_linker_0, # of connection points: 2
#     Edge 40, Type (0, 0), BuildingBlock: ZUJKAS_clean_linker_0, # of connection points: 2
#     Edge 41, Type (0, 0), BuildingBlock: ZUJKAS_clean_linker_0, # of connection points: 2
#     Edge 42, Type (0, 0), BuildingBlock: ZUJKAS_clean_linker_0, # of connection points: 2
#     Edge 43, Type (0, 0), BuildingBlock: ZUJKAS_clean_linker_0, # of connection points: 2
#     Edge 44, Type (0, 0), BuildingBlock: ZUJKAS_clean_linker_0, # of connection points: 2
#     Edge 45, Type (0, 0), BuildingBlock: ZUJKAS_clean_linker_0, # of connection points: 2
#     Edge 46, Type (0, 0), BuildingBlock: ZUJKAS_clean_linker_0, # of connection points: 2
#     Edge 47, Type (0, 0), BuildingBlock: ZUJKAS_clean_linker_0, # of connection points: 2
#     Edge 48, Type (0, 0), BuildingBlock: ZUJKAS_clean_linker_0, # of connection points: 2
#     Edge 49, Type (0, 0), BuildingBlock: ZUJKAS_clean_linker_0, # of connection points: 2
#     Edge 50, Type (0, 0), BuildingBlock: ZUJKAS_clean_linker_0, # of connection points: 2
#     Edge 51, Type (0, 0), BuildingBlock: ZUJKAS_clean_linker_0, # of connection points: 2
#     Edge 52, Type (0, 0), BuildingBlock: ZUJKAS_clean_linker_0, # of connection points: 2
#     Edge 53, Type (0, 0), BuildingBlock: ZUJKAS_clean_linker_0, # of connection points: 2
#     Edge 54, Type (0, 0), BuildingBlock: ZUJKAS_clean_linker_0, # of connection points: 2
#     Edge 55, Type (0, 0), BuildingBlock: ZUJKAS_clean_linker_0, # of connection points: 2
#     Edge 56, Type (0, 0), BuildingBlock: ZUJKAS_clean_linker_0, # of connection points: 2
#     Edge 57, Type (0, 0), BuildingBlock: ZUJKAS_clean_linker_0, # of connection points: 2
#     Edge 58, Type (0, 0), BuildingBlock: ZUJKAS_clean_linker_0, # of connection points: 2
#     Edge 59, Type (0, 0), BuildingBlock: ZUJKAS_clean_linker_0, # of connection points: 2
#     Edge 60, Type (0, 0), BuildingBlock: ZUJKAS_clean_linker_0, # of connection points: 2
#     Edge 61, Type (0, 0), BuildingBlock: ZUJKAS_clean_linker_0, # of connection points: 2
#     Edge 62, Type (0, 0), BuildingBlock: ZUJKAS_clean_linker_0, # of connection points: 2
#     Edge 63, Type (0, 0), BuildingBlock: ZUJKAS_clean_linker_0, # of connection points: 2
#     Edge 64, Type (0, 0), BuildingBlock: ZUJKAS_clean_linker_0, # of connection points: 2
#     Edge 65, Type (0, 0), BuildingBlock: ZUJKAS_clean_linker_0, # of connection points: 2
#     Edge 66, Type (0, 0), BuildingBlock: ZUJKAS_clean_linker_0, # of connection points: 2
#     Edge 67, Type (0, 0), BuildingBlock: ZUJKAS_clean_linker_0, # of connection points: 2
#     Edge 68, Type (0, 0), BuildingBlock: ZUJKAS_clean_linker_0, # of connection points: 2
#     Edge 69, Type (0, 0), BuildingBlock: ZUJKAS_clean_linker_0, # of connection points: 2
#     Edge 70, Type (0, 0), BuildingBlock: ZUJKAS_clean_linker_0, # of connection points: 2
#     Edge 71, Type (0, 0), BuildingBlock: ZUJKAS_clean_linker_0, # of connection points: 2
#     Edge 72, Type (0, 0), BuildingBlock: ZUJKAS_clean_linker_0, # of connection points: 2
#     Edge 73, Type (0, 0), BuildingBlock: ZUJKAS_clean_linker_0, # of connection points: 2
#     Edge 74, Type (0, 0), BuildingBlock: ZUJKAS_clean_linker_0, # of connection points: 2
#     Edge 75, Type (0, 0), BuildingBlock: ZUJKAS_clean_linker_0, # of connection points: 2
#     Edge 76, Type (0, 0), BuildingBlock: ZUJKAS_clean_linker_0, # of connection points: 2
#     Edge 77, Type (0, 0), BuildingBlock: ZUJKAS_clean_linker_0, # of connection points: 2
#     Edge 78, Type (0, 0), BuildingBlock: ZUJKAS_clean_linker_0, # of connection points: 2
#     Edge 79, Type (0, 0), BuildingBlock: ZUJKAS_clean_linker_0, # of connection points: 2
#     Edge 80, Type (0, 0), BuildingBlock: ZUJKAS_clean_linker_0, # of connection points: 2
#     Edge 81, Type (0, 0), BuildingBlock: ZUJKAS_clean_linker_0, # of connection points: 2
#     Edge 82, Type (0, 0), BuildingBlock: ZUJKAS_clean_linker_0, # of connection points: 2
#     Edge 83, Type (0, 0), BuildingBlock: ZUJKAS_clean_linker_0, # of connection points: 2
#     Edge 84, Type (0, 0), BuildingBlock: ZUJKAS_clean_linker_0, # of connection points: 2
#     Edge 85, Type (0, 0), BuildingBlock: ZUJKAS_clean_linker_0, # of connection points: 2
#     Edge 86, Type (0, 0), BuildingBlock: ZUJKAS_clean_linker_0, # of connection points: 2
#     Edge 87, Type (0, 0), BuildingBlock: ZUJKAS_clean_linker_0, # of connection points: 2
#     Edge 88, Type (0, 0), BuildingBlock: ZUJKAS_clean_linker_0, # of connection points: 2
#     Edge 89, Type (0, 0), BuildingBlock: ZUJKAS_clean_linker_0, # of connection points: 2
#     Edge 90, Type (0, 0), BuildingBlock: ZUJKAS_clean_linker_0, # of connection points: 2
#     Edge 91, Type (0, 0), BuildingBlock: ZUJKAS_clean_linker_0, # of connection points: 2
#     Edge 92, Type (0, 0), BuildingBlock: ZUJKAS_clean_linker_0, # of connection points: 2
#     Edge 93, Type (0, 0), BuildingBlock: ZUJKAS_clean_linker_0, # of connection points: 2
#     Edge 94, Type (0, 0), BuildingBlock: ZUJKAS_clean_linker_0, # of connection points: 2
#     Edge 95, Type (0, 0), BuildingBlock: ZUJKAS_clean_linker_0, # of connection points: 2
#     Edge 96, Type (0, 0), BuildingBlock: ZUJKAS_clean_linker_0, # of connection points: 2
#     Edge 97, Type (0, 0), BuildingBlock: ZUJKAS_clean_linker_0, # of connection points: 2
#     Edge 98, Type (0, 0), BuildingBlock: ZUJKAS_clean_linker_0, # of connection points: 2
#     Edge 99, Type (0, 0), BuildingBlock: ZUJKAS_clean_linker_0, # of connection points: 2
#     Edge 100, Type (0, 0), BuildingBlock: ZUJKAS_clean_linker_0, # of connection points: 2
#     Edge 101, Type (0, 0), BuildingBlock: ZUJKAS_clean_linker_0, # of connection points: 2
#     Edge 102, Type (0, 0), BuildingBlock: ZUJKAS_clean_linker_0, # of connection points: 2
#     Edge 103, Type (0, 0), BuildingBlock: ZUJKAS_clean_linker_0, # of connection points: 2
#     Edge 104, Type (0, 0), BuildingBlock: ZUJKAS_clean_linker_0, # of connection points: 2
#     Edge 105, Type (0, 0), BuildingBlock: ZUJKAS_clean_linker_0, # of connection points: 2
#     Edge 106, Type (0, 0), BuildingBlock: ZUJKAS_clean_linker_0, # of connection points: 2
#     Edge 107, Type (0, 0), BuildingBlock: ZUJKAS_clean_linker_0, # of connection points: 2
#     Edge 108, Type (0, 0), BuildingBlock: ZUJKAS_clean_linker_0, # of connection points: 2
#     Edge 109, Type (0, 0), BuildingBlock: ZUJKAS_clean_linker_0, # of connection points: 2
#     Edge 110, Type (0, 0), BuildingBlock: ZUJKAS_clean_linker_0, # of connection points: 2
#     Edge 111, Type (0, 0), BuildingBlock: ZUJKAS_clean_linker_0, # of connection points: 2
# Relax obj value: 0.342
# Max RMSD: 0.199
# Mean RMSD: 0.199
data_MOF--net-yft--node1-BEQFEK_clean_sbu_0--edge1-ZUJKAS_clean_linker_0
_symmetry_space_group_name_H-M    P1
_symmetry_Int_Tables_number       1
_symmetry_cell_setting            triclinic
loop_
_symmetry_equiv_pos_as_xyz
'x, y, z'
_cell_length_a     60.186689
_cell_length_b     60.190695
_cell_length_c     103.84543
_cell_angle_alpha  90.002922
_cell_angle_beta   89.998667
_cell_angle_gamma 90.006171
loop_
_atom_site_label
_atom_site_type_symbol
_atom_site_fract_x
_atom_site_fract_y
_atom_site_fract_z
_atom_type_partial_charge
Co0 Co 0.364 0.18203 0.18193 0.0
Co1 Co 0.32348 0.15957 0.16806 0.0
C2 C 0.3695 0.14086 0.16609 0.0
O3 O 0.3772 0.15606 0.17333 0.0
O4 O 0.34892 0.14007 0.16325 0.0
C5 C 0.40453 0.18693 0.19661 0.0
O6 O 0.40762 0.16583 0.19392 0.0
C7 C 0.29201 0.12533 0.15947 0.0
C8 C 0.26345 0.14577 0.15327 0.0
C9 C 0.27096 0.12405 0.15403 0.0
N10 N 0.29671 0.14681 0.16171 0.0
N11 N 0.27957 0.15893 0.15798 0.0
C12 C 0.30709 0.10658 0.16304 0.0
H13 H 0.31739 0.11125 0.17148 0.0
H14 H 0.29742 0.09135 0.16526 0.0
H15 H 0.31837 0.10302 0.15485 0.0
C16 C 0.33275 0.1816 0.20347 0.0
N17 N 0.33886 0.17432 0.19176 0.0
N18 N 0.32183 0.16468 0.18612 0.0
C19 C 0.3043 0.16535 0.19418 0.0
C20 C 0.3105 0.17637 0.20539 0.0
C21 C 0.34668 0.19723 0.21129 0.0
H22 H 0.35109 0.21188 0.20533 0.0
H23 H 0.36237 0.18878 0.21403 0.0
H24 H 0.33815 0.20298 0.22013 0.0
O25 O 0.35551 0.20398 0.16874 0.0
O26 O 0.32645 0.18853 0.15909 0.0
H27 H 0.27423 0.17039 0.18366 0.0
H28 H 0.27036 0.15747 0.19919 0.0
C29 C 0.28129 0.15829 0.19059 0.0
H30 H 0.28181 0.14174 0.18592 0.0
H31 H 0.27898 0.17623 0.15854 0.0
O32 O 0.38698 0.19655 0.1927 0.0
C33 C 0.3401 0.20454 0.16035 0.0
Co34 Co 0.06798 0.1151 0.43418 0.0
Co35 Co 0.08912 0.07379 0.42042 0.0
C36 C 0.11008 0.11888 0.41911 0.0
O37 O 0.09513 0.12712 0.42633 0.0
O38 O 0.10972 0.09848 0.41585 0.0
C39 C 0.0649 0.1545 0.44997 0.0
O40 O 0.0867 0.15449 0.4493 0.0
C41 C 0.12208 0.04102 0.41169 0.0
C42 C 0.10033 0.01395 0.40478 0.0
C43 C 0.12241 0.02031 0.40574 0.0
N44 N 0.10081 0.0466 0.41397 0.0
N45 N 0.08792 0.03033 0.40985 0.0
C46 C 0.14141 0.05506 0.41565 0.0
H47 H 0.14562 0.06664 0.4077 0.0
H48 H 0.137 0.06511 0.42424 0.0
H49 H 0.15613 0.04461 0.41782 0.0
C50 C 0.0662 0.08367 0.45561 0.0
N51 N 0.07413 0.08956 0.44401 0.0
N52 N 0.08321 0.07218 0.4384 0.0
C53 C 0.08139 0.0546 0.44636 0.0
C54 C 0.07034 0.0612 0.45748 0.0
C55 C 0.05101 0.0982 0.46334 0.0
H56 H 0.03683 0.10349 0.45724 0.0
H57 H 0.06015 0.11336 0.46632 0.0
H58 H 0.04453 0.08974 0.47204 0.0
O59 O 0.04623 0.10778 0.42053 0.0
O60 O 0.0607 0.07796 0.41119 0.0
H61 H 0.07495 0.02512 0.43554 0.0
H62 H 0.08707 0.02014 0.45118 0.0
C63 C 0.0872 0.03129 0.44267 0.0
H64 H 0.10391 0.03095 0.43817 0.0
H65 H 0.0706 0.03059 0.41029 0.0
O66 O 0.05407 0.13889 0.44463 0.0
C67 C 0.0453 0.09231 0.41219 0.0
Co68 Co 0.13422 0.81674 0.68302 0.0
Co69 Co 0.17479 0.83878 0.66903 0.0
C70 C 0.12949 0.85892 0.66791 0.0
O71 O 0.12164 0.84371 0.67511 0.0
O72 O 0.14991 0.85912 0.6647 0.0
C73 C 0.0989 0.80972 0.70237 0.0
O74 O 0.10321 0.82956 0.70701 0.0
C75 C 0.20731 0.87195 0.6601 0.0
C76 C 0.23468 0.85025 0.65353 0.0
C77 C 0.22817 0.87229 0.65433 0.0
N78 N 0.20182 0.85069 0.66248 0.0
N79 N 0.21825 0.83783 0.65853 0.0
C80 C 0.19312 0.89129 0.66385 0.0
H81 H 0.18165 0.89527 0.65581 0.0
H82 H 0.18298 0.88702 0.67243 0.0
H83 H 0.20348 0.90611 0.66596 0.0
C84 C 0.16645 0.81498 0.70423 0.0
N85 N 0.1599 0.82297 0.69275 0.0
N86 N 0.17682 0.83277 0.68705 0.0
C87 C 0.19459 0.83175 0.69492 0.0
C88 C 0.18871 0.82027 0.70602 0.0
C89 C 0.15304 0.79872 0.71193 0.0
H90 H 0.14413 0.78724 0.70537 0.0
H91 H 0.14056 0.80794 0.71768 0.0
H92 H 0.16347 0.78877 0.71857 0.0
O93 O 0.14186 0.79515 0.66949 0.0
O94 O 0.17059 0.81049 0.65954 0.0
H95 H 0.2246 0.82737 0.68424 0.0
H96 H 0.22846 0.84007 0.69983 0.0
C97 C 0.21744 0.83924 0.69127 0.0
H98 H 0.2166 0.85586 0.6867 0.0
H99 H 0.21811 0.82052 0.65912 0.0
O100 O 0.11032 0.8022 0.69304 0.0
C101 C 0.15679 0.79463 0.66083 0.0
Co102 Co 0.42995 0.88509 0.93469 0.0
Co103 Co 0.40838 0.92507 0.91989 0.0
C104 C 0.38799 0.87975 0.91955 0.0
O105 O 0.40307 0.87218 0.92693 0.0
O106 O 0.38798 0.89996 0.91593 0.0
C107 C 0.43342 0.84696 0.95148 0.0
O108 O 0.41159 0.84718 0.95125 0.0
C109 C 0.37522 0.9569 0.91024 0.0
C110 C 0.39661 0.98494 0.90432 0.0
C111 C 0.37472 0.97788 0.90471 0.0
N112 N 0.39646 0.9518 0.91295 0.0
N113 N 0.40915 0.9686 0.90934 0.0
C114 C 0.35593 0.94223 0.91342 0.0
H115 H 0.35946 0.93261 0.9223 0.0
H116 H 0.34054 0.95213 0.91474 0.0
H117 H 0.35333 0.93029 0.90541 0.0
C118 C 0.43109 0.91784 0.95543 0.0
N119 N 0.42342 0.91112 0.94392 0.0
N120 N 0.41423 0.92801 0.93789 0.0
C121 C 0.41558 0.94607 0.94553 0.0
C122 C 0.42655 0.94034 0.95683 0.0
C123 C 0.44637 0.90401 0.96353 0.0
H124 H 0.46054 0.89827 0.95755 0.0
H125 H 0.4373 0.88907 0.96693 0.0
H126 H 0.4529 0.91317 0.97197 0.0
O127 O 0.45182 0.89196 0.92111 0.0
O128 O 0.43671 0.92024 0.91059 0.0
H129 H 0.42159 0.97547 0.93456 0.0
H130 H 0.40835 0.9804 0.94988 0.0
C131 C 0.40912 0.96902 0.94147 0.0
H132 H 0.39268 0.96864 0.93666 0.0
H133 H 0.42642 0.96884 0.91024 0.0
O134 O 0.44408 0.86208 0.94558 0.0
C135 C 0.45247 0.90643 0.91218 0.0
Co136 Co 0.36222 0.81316 0.31383 0.0
Co137 Co 0.32245 0.83641 0.32795 0.0
C138 C 0.36828 0.85549 0.32853 0.0
O139 O 0.3756 0.84002 0.32134 0.0
O140 O 0.34801 0.85614 0.33201 0.0
C141 C 0.39706 0.80628 0.29448 0.0
O142 O 0.39314 0.82662 0.2905 0.0
C143 C 0.29128 0.8703 0.33766 0.0
C144 C 0.26374 0.84904 0.34454 0.0
C145 C 0.27093 0.87087 0.34397 0.0
N146 N 0.29581 0.84904 0.33465 0.0
N147 N 0.27921 0.83648 0.3387 0.0
C148 C 0.30749 0.88891 0.33593 0.0
H149 H 0.32064 0.88747 0.34337 0.0
H150 H 0.31556 0.88751 0.32635 0.0
H151 H 0.29952 0.9054 0.33692 0.0
C152 C 0.3297 0.81226 0.29275 0.0
N153 N 0.33652 0.81995 0.30424 0.0
N154 N 0.31993 0.83022 0.30999 0.0
C155 C 0.30208 0.8297 0.30216 0.0
C156 C 0.3076 0.81819 0.29101 0.0
C157 C 0.3427 0.79584 0.28494 0.0
H158 H 0.35121 0.78392 0.29141 0.0
H159 H 0.35552 0.80485 0.27932 0.0
H160 H 0.33206 0.78639 0.27816 0.0
O161 O 0.35445 0.79195 0.32759 0.0
O162 O 0.32606 0.80811 0.33744 0.0
H163 H 0.27203 0.82596 0.31288 0.0
H164 H 0.26841 0.83894 0.29735 0.0
C165 C 0.27946 0.83774 0.30588 0.0
H166 H 0.28075 0.85427 0.31053 0.0
H167 H 0.27882 0.81921 0.33787 0.0
O168 O 0.3855 0.79816 0.30358 0.0
C169 C 0.3395 0.79194 0.33626 0.0
Co170 Co 0.43337 0.11456 0.5633 0.0
Co171 Co 0.4117 0.07366 0.57721 0.0
C172 C 0.39297 0.11965 0.57975 0.0
O173 O 0.40791 0.12754 0.5724 0.0
O174 O 0.39226 0.09899 0.58241 0.0
C175 C 0.43793 0.15528 0.54867 0.0
O176 O 0.41686 0.15842 0.55145 0.0
C177 C 0.37831 0.04142 0.58628 0.0
C178 C 0.40003 0.0147 0.59371 0.0
C179 C 0.37803 0.02116 0.59268 0.0
N180 N 0.39958 0.04665 0.5837 0.0
N181 N 0.41242 0.03049 0.58803 0.0
C182 C 0.35926 0.05694 0.58413 0.0
H183 H 0.35732 0.06765 0.59275 0.0
H184 H 0.36263 0.06773 0.57568 0.0
H185 H 0.34349 0.04781 0.58264 0.0
C186 C 0.43182 0.08398 0.54152 0.0
N187 N 0.42502 0.08972 0.55338 0.0
N188 N 0.41626 0.07229 0.5591 0.0
C189 C 0.41742 0.05481 0.551 0.0
C190 C 0.42753 0.06159 0.53963 0.0
C191 C 0.44607 0.09848 0.53322 0.0
H192 H 0.43757 0.11459 0.53162 0.0
H193 H 0.44951 0.0906 0.52376 0.0
H194 H 0.46201 0.10183 0.53822 0.0
O195 O 0.45608 0.10576 0.57605 0.0
O196 O 0.44089 0.07672 0.58582 0.0
H197 H 0.42612 0.02619 0.56206 0.0
H198 H 0.41386 0.01987 0.5466 0.0
C199 C 0.41327 0.03129 0.55499 0.0
H200 H 0.39676 0.03003 0.55967 0.0
H201 H 0.42974 0.03064 0.58754 0.0
O202 O 0.44754 0.1377 0.55252 0.0
C203 C 0.45692 0.09027 0.58438 0.0
Co204 Co 0.13404 0.18575 0.81362 0.0
Co205 Co 0.17392 0.16295 0.82803 0.0
C206 C 0.12733 0.14634 0.8308 0.0
O207 O 0.12018 0.16119 0.82315 0.0
O208 O 0.14788 0.14495 0.8336 0.0
C209 C 0.0962 0.18736 0.79686 0.0
O210 O 0.09726 0.1656 0.79766 0.0
C211 C 0.20652 0.12935 0.83732 0.0
C212 C 0.23306 0.15159 0.84438 0.0
C213 C 0.22707 0.12941 0.8435 0.0
N214 N 0.20077 0.15054 0.83477 0.0
N215 N 0.21683 0.16366 0.83892 0.0
C216 C 0.19207 0.10972 0.83447 0.0
H217 H 0.17498 0.11488 0.83202 0.0
H218 H 0.19892 0.10069 0.82605 0.0
H219 H 0.19174 0.09822 0.84282 0.0
C220 C 0.16505 0.18223 0.79204 0.0
N221 N 0.15876 0.17621 0.80396 0.0
N222 N 0.17543 0.16632 0.80983 0.0
C223 C 0.19287 0.16552 0.80171 0.0
C224 C 0.18701 0.17579 0.7902 0.0
C225 C 0.15179 0.19784 0.78384 0.0
H226 H 0.14639 0.21225 0.78973 0.0
H227 H 0.13665 0.18916 0.7804 0.0
H228 H 0.16123 0.20401 0.77541 0.0
O229 O 0.14334 0.20886 0.82593 0.0
O230 O 0.17168 0.19288 0.836 0.0
H231 H 0.22301 0.16993 0.81227 0.0
H232 H 0.22656 0.15617 0.79694 0.0
C233 C 0.21559 0.15781 0.80548 0.0
H234 H 0.21439 0.14151 0.8104 0.0
H235 H 0.21647 0.18096 0.8383 0.0
O236 O 0.11078 0.19903 0.80257 0.0
C237 C 0.15881 0.2094 0.83429 0.0
Co238 Co 0.06294 0.88569 0.06284 0.0
Co239 Co 0.08642 0.92525 0.07702 0.0
C240 C 0.10392 0.87905 0.07889 0.0
O241 O 0.08829 0.87191 0.07175 0.0
O242 O 0.10559 0.89958 0.08167 0.0
C243 C 0.05993 0.84738 0.04642 0.0
O244 O 0.08173 0.84776 0.04708 0.0
C245 C 0.12082 0.95614 0.08613 0.0
C246 C 0.10057 0.98494 0.09217 0.0
C247 C 0.1222 0.97712 0.09165 0.0
N248 N 0.09936 0.95178 0.08361 0.0
N249 N 0.08735 0.96905 0.08724 0.0
C250 C 0.13949 0.94083 0.08275 0.0
H251 H 0.13503 0.93074 0.07418 0.0
H252 H 0.15495 0.95031 0.08079 0.0
H253 H 0.14252 0.92938 0.09093 0.0
C254 C 0.06486 0.91705 0.04137 0.0
N255 N 0.07161 0.91063 0.05313 0.0
N256 N 0.08159 0.92731 0.05893 0.0
C257 C 0.08171 0.94491 0.05091 0.0
C258 C 0.07088 0.93913 0.03957 0.0
C259 C 0.04903 0.9037 0.03336 0.0
H260 H 0.03458 0.89874 0.03935 0.0
H261 H 0.05746 0.88831 0.03011 0.0
H262 H 0.04298 0.91292 0.02482 0.0
O263 O 0.04061 0.8947 0.07568 0.0
O264 O 0.05739 0.92229 0.08598 0.0
H265 H 0.07721 0.97504 0.06145 0.0
H266 H 0.09075 0.97863 0.04608 0.0
C267 C 0.08933 0.96767 0.05464 0.0
H268 H 0.10571 0.96663 0.05949 0.0
H269 H 0.07008 0.96989 0.08647 0.0
O270 O 0.04885 0.86253 0.05203 0.0
C271 C 0.04069 0.90959 0.08438 0.0
Co272 Co 0.63427 0.81752 0.81008 0.0
Co273 Co 0.67335 0.83873 0.82587 0.0
C274 C 0.6275 0.85755 0.82685 0.0
O275 O 0.62045 0.84295 0.81898 0.0
O276 O 0.64775 0.858 0.83038 0.0
C277 C 0.59453 0.81397 0.79467 0.0
O278 O 0.59162 0.83491 0.7978 0.0
C279 C 0.7046 0.87143 0.83666 0.0
C280 C 0.73094 0.84933 0.84417 0.0
C281 C 0.72448 0.87137 0.84344 0.0
N282 N 0.69963 0.85033 0.83353 0.0
N283 N 0.71551 0.83725 0.83797 0.0
C284 C 0.68914 0.89053 0.83446 0.0
H285 H 0.67545 0.88963 0.8416 0.0
H286 H 0.68166 0.88923 0.82472 0.0
H287 H 0.69756 0.90677 0.83556 0.0
C288 C 0.66757 0.81949 0.78965 0.0
N289 N 0.66031 0.8259 0.8013 0.0
N290 N 0.67677 0.83495 0.80778 0.0
C291 C 0.6951 0.83476 0.80034 0.0
C292 C 0.69001 0.82468 0.78864 0.0
C293 C 0.65436 0.80456 0.78099 0.0
H294 H 0.64952 0.7894 0.78639 0.0
H295 H 0.63888 0.81321 0.77808 0.0
H296 H 0.66363 0.79961 0.77225 0.0
O297 O 0.6415 0.79426 0.82283 0.0
O298 O 0.66897 0.80937 0.83404 0.0
H299 H 0.72381 0.82869 0.8119 0.0
H300 H 0.72965 0.84245 0.79681 0.0
C301 C 0.71773 0.84127 0.80494 0.0
H302 H 0.71685 0.85754 0.80993 0.0
H303 H 0.71547 0.81998 0.83708 0.0
O304 O 0.61199 0.80397 0.7984 0.0
C305 C 0.65579 0.79328 0.83184 0.0
Co306 Co 0.93299 0.88581 0.56142 0.0
Co307 Co 0.9097 0.924 0.57695 0.0
C308 C 0.89282 0.87754 0.57798 0.0
O309 O 0.90831 0.87112 0.57052 0.0
O310 O 0.89089 0.89787 0.5812 0.0
C311 C 0.93734 0.84656 0.5457 0.0
O312 O 0.91616 0.84377 0.54832 0.0
C313 C 0.87591 0.95464 0.58729 0.0
C314 C 0.89726 0.98129 0.59517 0.0
C315 C 0.87537 0.97449 0.59412 0.0
N316 N 0.89721 0.95002 0.58447 0.0
N317 N 0.90984 0.96609 0.58911 0.0
C318 C 0.85713 0.93892 0.58482 0.0
H319 H 0.85681 0.92632 0.59261 0.0
H320 H 0.85981 0.93015 0.57555 0.0
H321 H 0.84087 0.94751 0.5847 0.0
C322 C 0.92984 0.91864 0.54085 0.0
N323 N 0.92348 0.91127 0.55249 0.0
N324 N 0.91384 0.9275 0.55888 0.0
C325 C 0.91365 0.94579 0.55141 0.0
C326 C 0.92404 0.94092 0.53978 0.0
C327 C 0.94538 0.9059 0.53234 0.0
H328 H 0.96071 0.90185 0.5378 0.0
H329 H 0.93743 0.88999 0.52952 0.0
H330 H 0.94998 0.91518 0.52352 0.0
O331 O 0.95591 0.89436 0.57401 0.0
O332 O 0.93907 0.92054 0.58544 0.0
H333 H 0.91893 0.97452 0.56309 0.0
H334 H 0.90558 0.98024 0.54786 0.0
C335 C 0.90666 0.9683 0.55598 0.0
H336 H 0.89025 0.96715 0.56078 0.0
H337 H 0.92714 0.96635 0.58846 0.0
O338 O 0.94725 0.86376 0.54988 0.0
C339 C 0.95595 0.90843 0.58316 0.0
Co340 Co 0.86568 0.18331 0.31323 0.0
Co341 Co 0.82587 0.1596 0.32702 0.0
C342 C 0.87168 0.14108 0.3283 0.0
O343 O 0.87894 0.15696 0.32139 0.0
O344 O 0.85118 0.13964 0.33122 0.0
C345 C 0.90081 0.18999 0.29396 0.0
O346 O 0.89659 0.16984 0.28976 0.0
C347 C 0.79383 0.12615 0.33632 0.0
C348 C 0.76632 0.14776 0.34277 0.0
C349 C 0.77308 0.12577 0.34223 0.0
N350 N 0.79903 0.14738 0.33365 0.0
N351 N 0.78249 0.16018 0.3375 0.0
C352 C 0.80824 0.10686 0.33277 0.0
H353 H 0.81839 0.11098 0.32417 0.0
H354 H 0.79803 0.09189 0.33079 0.0
H355 H 0.8197 0.10321 0.34087 0.0
C356 C 0.83358 0.18404 0.29196 0.0
N357 N 0.8403 0.17615 0.30343 0.0
N358 N 0.82367 0.16577 0.30905 0.0
C359 C 0.8059 0.16638 0.30117 0.0
C360 C 0.8115 0.17814 0.29012 0.0
C361 C 0.84656 0.20077 0.28435 0.0
H362 H 0.85493 0.21256 0.29096 0.0
H363 H 0.85948 0.192 0.27869 0.0
H364 H 0.83593 0.21033 0.27762 0.0
O365 O 0.8574 0.20479 0.32666 0.0
O366 O 0.82956 0.18789 0.33659 0.0
H367 H 0.77574 0.17021 0.31178 0.0
H368 H 0.77225 0.15732 0.29622 0.0
C369 C 0.7832 0.15843 0.3048 0.0
H370 H 0.78437 0.14186 0.30942 0.0
H371 H 0.78242 0.17747 0.33673 0.0
O372 O 0.88933 0.19804 0.30311 0.0
C373 C 0.84258 0.2044 0.33538 0.0
Co374 Co 0.56676 0.11283 0.06286 0.0
Co375 Co 0.58744 0.07174 0.07716 0.0
C376 C 0.60667 0.11746 0.07979 0.0
O377 O 0.59237 0.1255 0.07207 0.0
O378 O 0.60667 0.09691 0.08271 0.0
C379 C 0.5634 0.15384 0.04849 0.0
O380 O 0.58427 0.15667 0.0518 0.0
C381 C 0.61951 0.03955 0.08786 0.0
C382 C 0.59746 0.01096 0.09184 0.0
C383 C 0.6192 0.0182 0.09299 0.0
N384 N 0.59888 0.04448 0.08378 0.0
N385 N 0.58583 0.02732 0.08618 0.0
C386 C 0.638 0.05617 0.08828 0.0
H387 H 0.6334 0.06966 0.09504 0.0
H388 H 0.64015 0.0637 0.0786 0.0
H389 H 0.65389 0.04892 0.0916 0.0
C390 C 0.56846 0.08192 0.0412 0.0
N391 N 0.57488 0.08773 0.05314 0.0
N392 N 0.58385 0.07048 0.05893 0.0
C393 C 0.58363 0.05314 0.05073 0.0
C394 C 0.57354 0.05965 0.03929 0.0
C395 C 0.55365 0.09617 0.03306 0.0
H396 H 0.53843 0.10037 0.03858 0.0
H397 H 0.56237 0.11193 0.03079 0.0
H398 H 0.5488 0.08795 0.02394 0.0
O399 O 0.54359 0.10455 0.07545 0.0
O400 O 0.55784 0.07507 0.08526 0.0
H401 H 0.57688 0.02256 0.06041 0.0
H402 H 0.59218 0.01946 0.04559 0.0
C403 C 0.59008 0.02994 0.05431 0.0
H404 H 0.60583 0.03014 0.05984 0.0
H405 H 0.56882 0.02701 0.08424 0.0
O406 O 0.55337 0.1362 0.05187 0.0
C407 C 0.54214 0.08897 0.0837 0.0
Co408 Co 0.63365 0.18132 0.68411 0.0
Co409 Co 0.67371 0.15927 0.66963 0.0
C410 C 0.62797 0.14019 0.66812 0.0
O411 O 0.62039 0.15547 0.67536 0.0
O412 O 0.6485 0.13934 0.66519 0.0
C413 C 0.59289 0.1862 0.6986 0.0
O414 O 0.58936 0.16536 0.69544 0.0
C415 C 0.70584 0.1259 0.6606 0.0
C416 C 0.73296 0.14734 0.65343 0.0
C417 C 0.72647 0.12534 0.65458 0.0
N418 N 0.70044 0.14724 0.66277 0.0
N419 N 0.71672 0.15996 0.65847 0.0
C420 C 0.69182 0.10671 0.6648 0.0
H421 H 0.6817 0.11143 0.67331 0.0
H422 H 0.70232 0.09212 0.66718 0.0
H423 H 0.68034 0.10212 0.65688 0.0
C424 C 0.66558 0.18072 0.70528 0.0
N425 N 0.65913 0.17353 0.69362 0.0
N426 N 0.67611 0.16436 0.68767 0.0
C427 C 0.69398 0.16537 0.69545 0.0
C428 C 0.68803 0.17603 0.70682 0.0
C429 C 0.65168 0.19591 0.71339 0.0
H430 H 0.64742 0.21097 0.70774 0.0
H431 H 0.63592 0.1874 0.71592 0.0
H432 H 0.6602 0.20103 0.72237 0.0
O433 O 0.64169 0.2038 0.67113 0.0
O434 O 0.66971 0.18809 0.66069 0.0
H435 H 0.72312 0.17148 0.68426 0.0
H436 H 0.72853 0.15894 0.69975 0.0
C437 C 0.71702 0.15921 0.69139 0.0
H438 H 0.71686 0.14259 0.68679 0.0
H439 H 0.71662 0.17728 0.65886 0.0
O440 O 0.61084 0.19556 0.69513 0.0
C441 C 0.65644 0.20429 0.66236 0.0
Co442 Co 0.56757 0.88439 0.43322 0.0
Co443 Co 0.58888 0.92485 0.4187 0.0
C444 C 0.60929 0.87939 0.41793 0.0
O445 O 0.59413 0.87148 0.42513 0.0
O446 O 0.60939 0.89982 0.41473 0.0
C447 C 0.56385 0.84606 0.44992 0.0
O448 O 0.58567 0.84579 0.44957 0.0
C449 C 0.62176 0.95861 0.41045 0.0
C450 C 0.59995 0.9815 0.39963 0.0
C451 C 0.62196 0.97752 0.40276 0.0
N452 N 0.60059 0.95171 0.41168 0.0
N453 N 0.58766 0.96568 0.40534 0.0
C454 C 0.64141 0.94637 0.41569 0.0
H455 H 0.63649 0.93006 0.4197 0.0
H456 H 0.649 0.95624 0.42356 0.0
H457 H 0.6541 0.94412 0.40804 0.0
C458 C 0.56648 0.9168 0.45414 0.0
N459 N 0.57429 0.9103 0.44262 0.0
N460 N 0.58284 0.92754 0.4366 0.0
C461 C 0.58051 0.94564 0.44412 0.0
C462 C 0.56995 0.93946 0.45546 0.0
C463 C 0.55218 0.90253 0.46254 0.0
H464 H 0.56125 0.88704 0.46494 0.0
H465 H 0.54757 0.91117 0.4716 0.0
H466 H 0.53687 0.8979 0.45722 0.0
O467 O 0.54549 0.89144 0.41976 0.0
O468 O 0.56062 0.91985 0.40939 0.0
H469 H 0.5725 0.97252 0.43151 0.0
H470 H 0.58161 0.98115 0.44735 0.0
C471 C 0.58419 0.9689 0.4395 0.0
H472 H 0.60136 0.97052 0.43575 0.0
H473 H 0.57047 0.96392 0.40449 0.0
O474 O 0.55342 0.86138 0.44407 0.0
C475 C 0.54485 0.90602 0.4109 0.0
Co476 Co 0.86504 0.8184 0.18439 0.0
Co477 Co 0.82352 0.83806 0.17012 0.0
C478 C 0.86828 0.85984 0.16867 0.0
O479 O 0.87679 0.84538 0.17612 0.0
O480 O 0.8479 0.85896 0.16541 0.0
C481 C 0.9065 0.81448 0.19836 0.0
O482 O 0.90986 0.83514 0.19478 0.0
C483 C 0.79044 0.87028 0.16097 0.0
C484 C 0.76281 0.84821 0.15525 0.0
C485 C 0.76931 0.87027 0.15563 0.0
N486 N 0.79617 0.84918 0.16357 0.0
N487 N 0.7796 0.83607 0.16011 0.0
C488 C 0.80473 0.88992 0.16404 0.0
H489 H 0.81628 0.89292 0.15589 0.0
H490 H 0.8148 0.88653 0.17277 0.0
H491 H 0.79449 0.90502 0.16556 0.0
C492 C 0.83366 0.81738 0.2058 0.0
N493 N 0.83939 0.82467 0.19404 0.0
N494 N 0.82176 0.83278 0.18821 0.0
C495 C 0.80418 0.8308 0.19618 0.0
C496 C 0.8111 0.8208 0.20755 0.0
C497 C 0.84851 0.80353 0.21412 0.0
H498 H 0.86418 0.81269 0.21598 0.0
H499 H 0.84049 0.79943 0.22345 0.0
H500 H 0.85274 0.78792 0.20899 0.0
O501 O 0.85807 0.79589 0.17108 0.0
O502 O 0.82852 0.8096 0.16111 0.0
H503 H 0.77559 0.82116 0.18538 0.0
H504 H 0.76927 0.83405 0.20063 0.0
C505 C 0.78059 0.83445 0.19219 0.0
H506 H 0.77901 0.85072 0.18728 0.0
H507 H 0.77985 0.81879 0.16093 0.0
O508 O 0.88847 0.80487 0.19526 0.0
C509 C 0.84301 0.7944 0.16252 0.0
Co510 Co 0.92753 0.1141 0.93492 0.0
Co511 Co 0.90754 0.07322 0.92028 0.0
C512 C 0.88661 0.11835 0.91886 0.0
O513 O 0.90096 0.12645 0.92653 0.0
O514 O 0.88725 0.098 0.91552 0.0
C515 C 0.93007 0.15305 0.9512 0.0
O516 O 0.90831 0.15338 0.95019 0.0
C517 C 0.87497 0.04054 0.91111 0.0
C518 C 0.89692 0.01381 0.90396 0.0
C519 C 0.87479 0.01993 0.90505 0.0
N520 N 0.89619 0.04628 0.91335 0.0
N521 N 0.90922 0.03024 0.90907 0.0
C522 C 0.85552 0.05424 0.91527 0.0
H523 H 0.85097 0.06585 0.9074 0.0
H524 H 0.85996 0.06425 0.92387 0.0
H525 H 0.841 0.04354 0.91749 0.0
C526 C 0.92855 0.08179 0.95593 0.0
N527 N 0.92096 0.08819 0.94434 0.0
N528 N 0.91226 0.07101 0.93835 0.0
C529 C 0.91388 0.05308 0.94605 0.0
C530 C 0.92455 0.05919 0.95739 0.0
C531 C 0.94347 0.09604 0.96402 0.0
H532 H 0.95787 0.10153 0.95815 0.0
H533 H 0.93424 0.11109 0.96706 0.0
H534 H 0.94965 0.08728 0.97269 0.0
O535 O 0.95011 0.10731 0.92169 0.0
O536 O 0.93653 0.07772 0.91168 0.0
H537 H 0.92075 0.02417 0.9348 0.0
H538 H 0.90827 0.01836 0.95025 0.0
C539 C 0.90829 0.02992 0.94193 0.0
H540 H 0.8917 0.02971 0.9373 0.0
H541 H 0.92653 0.03064 0.9095 0.0
O542 O 0.94093 0.13745 0.94587 0.0
C543 C 0.95173 0.09217 0.9132 0.0
Co544 Co 0.86636 0.68072 0.68382 0.0
Co545 Co 0.82534 0.65871 0.67022 0.0
C546 C 0.87051 0.63785 0.66955 0.0
O547 O 0.87857 0.65304 0.67667 0.0
O548 O 0.85019 0.63808 0.66612 0.0
C549 C 0.90181 0.68811 0.70295 0.0
O550 O 0.89765 0.66822 0.70757 0.0
C551 C 0.79275 0.62591 0.66073 0.0
C552 C 0.76567 0.64819 0.65435 0.0
C553 C 0.77214 0.62613 0.6547 0.0
N554 N 0.79811 0.64696 0.6638 0.0
N555 N 0.78179 0.66013 0.66003 0.0
C556 C 0.80843 0.60677 0.6621 0.0
H557 H 0.82167 0.60831 0.65471 0.0
H558 H 0.8165 0.60739 0.6717 0.0
H559 H 0.80004 0.59056 0.66076 0.0
C560 C 0.83409 0.68405 0.70499 0.0
N561 N 0.84049 0.67548 0.69362 0.0
N562 N 0.82345 0.66555 0.68812 0.0
C563 C 0.80573 0.66714 0.696 0.0
C564 C 0.81179 0.67909 0.70689 0.0
C565 C 0.84778 0.70036 0.71248 0.0
H566 H 0.85647 0.71176 0.70577 0.0
H567 H 0.86049 0.69117 0.71809 0.0
H568 H 0.83762 0.71035 0.71923 0.0
O569 O 0.85937 0.70142 0.66967 0.0
O570 O 0.82961 0.68663 0.66047 0.0
H571 H 0.7755 0.67167 0.68555 0.0
H572 H 0.77194 0.65904 0.70117 0.0
C573 C 0.78277 0.65975 0.69252 0.0
H574 H 0.78341 0.64311 0.68796 0.0
H575 H 0.78201 0.67739 0.66096 0.0
O576 O 0.89025 0.6956 0.69368 0.0
C577 C 0.84406 0.70197 0.66123 0.0
Co578 Co 0.56634 0.61387 0.93341 0.0
Co579 Co 0.58773 0.57311 0.91923 0.0
C580 C 0.60681 0.61898 0.91705 0.0
O581 O 0.5923 0.62683 0.9247 0.0
O582 O 0.60691 0.59849 0.91396 0.0
C583 C 0.562 0.65441 0.94819 0.0
O584 O 0.58319 0.65716 0.9456 0.0
C585 C 0.6215 0.54157 0.91017 0.0
C586 C 0.60075 0.51297 0.90438 0.0
C587 C 0.62251 0.52046 0.90479 0.0
N588 N 0.60014 0.5463 0.91273 0.0
N589 N 0.58782 0.52915 0.90924 0.0
C590 C 0.6404 0.55671 0.91339 0.0
H591 H 0.64337 0.56811 0.90517 0.0
H592 H 0.6362 0.56691 0.92196 0.0
H593 H 0.65581 0.54711 0.91527 0.0
C594 C 0.56734 0.58268 0.95497 0.0
N595 N 0.57417 0.5887 0.94315 0.0
N596 N 0.58341 0.57158 0.93738 0.0
C597 C 0.58288 0.55407 0.94545 0.0
C598 C 0.5724 0.56038 0.95681 0.0
C599 C 0.55223 0.59677 0.96302 0.0
H600 H 0.53719 0.60103 0.95735 0.0
H601 H 0.56083 0.61252 0.96546 0.0
H602 H 0.54708 0.58841 0.97204 0.0
O603 O 0.54392 0.60558 0.92037 0.0
O604 O 0.55848 0.57608 0.91071 0.0
H605 H 0.57687 0.52412 0.93498 0.0
H606 H 0.59039 0.51999 0.95032 0.0
C607 C 0.58939 0.53095 0.94174 0.0
H608 H 0.60574 0.53121 0.93683 0.0
H609 H 0.57055 0.52859 0.91007 0.0
O610 O 0.55217 0.63701 0.94425 0.0
C611 C 0.54277 0.59002 0.91209 0.0
Co612 Co 0.63501 0.31628 0.18601 0.0
Co613 Co 0.67448 0.33758 0.17069 0.0
C614 C 0.6288 0.3563 0.16907 0.0
O615 O 0.62157 0.34133 0.17663 0.0
O616 O 0.64927 0.3573 0.166 0.0
C617 C 0.59653 0.31473 0.20249 0.0
O618 O 0.59655 0.33642 0.20109 0.0
C619 C 0.70667 0.37018 0.16081 0.0
C620 C 0.73338 0.34813 0.15375 0.0
C621 C 0.72717 0.37026 0.15463 0.0
N622 N 0.70108 0.34901 0.16334 0.0
N623 N 0.71711 0.33593 0.1591 0.0
C624 C 0.69299 0.3897 0.16489 0.0
H625 H 0.68145 0.39421 0.15698 0.0
H626 H 0.68293 0.38539 0.17349 0.0
H627 H 0.70373 0.40421 0.16706 0.0
C628 C 0.66741 0.31842 0.20686 0.0
N629 N 0.66059 0.32487 0.19513 0.0
N630 N 0.67732 0.33381 0.18883 0.0
C631 C 0.69539 0.33353 0.19649 0.0
C632 C 0.68984 0.3235 0.20812 0.0
C633 C 0.65391 0.30345 0.21533 0.0
H634 H 0.6487 0.28861 0.20974 0.0
H635 H 0.63865 0.31234 0.21838 0.0
H636 H 0.66309 0.29794 0.224 0.0
O637 O 0.6429 0.29275 0.17368 0.0
O638 O 0.67016 0.30813 0.16241 0.0
H639 H 0.72435 0.32723 0.18517 0.0
H640 H 0.72993 0.34073 0.20037 0.0
C641 C 0.71823 0.3398 0.19212 0.0
H642 H 0.7177 0.35615 0.18721 0.0
H643 H 0.71684 0.31863 0.15976 0.0
O644 O 0.61196 0.30336 0.19735 0.0
C645 C 0.65724 0.29185 0.1647 0.0
Co646 Co 0.92953 0.3863 0.43336 0.0
Co647 Co 0.90855 0.42585 0.41781 0.0
C648 C 0.88819 0.38052 0.41769 0.0
O649 O 0.90299 0.37315 0.42532 0.0
O650 O 0.88834 0.40061 0.41385 0.0
C651 C 0.93421 0.34599 0.44828 0.0
O652 O 0.91339 0.3425 0.44508 0.0
C653 C 0.87538 0.45746 0.40802 0.0
C654 C 0.89682 0.48442 0.40066 0.0
C655 C 0.87483 0.47785 0.40174 0.0
N656 N 0.8967 0.45225 0.41042 0.0
N657 N 0.90942 0.46843 0.40599 0.0
C658 C 0.85616 0.44353 0.41228 0.0
H659 H 0.86061 0.43412 0.4211 0.0
H660 H 0.84133 0.45398 0.41418 0.0
H661 H 0.85208 0.4314 0.40459 0.0
C662 C 0.9293 0.41955 0.45382 0.0
N663 N 0.92238 0.41257 0.44221 0.0
N664 N 0.91362 0.42932 0.43584 0.0
C665 C 0.91466 0.44761 0.4433 0.0
C666 C 0.92484 0.44213 0.45489 0.0
C667 C 0.94394 0.40583 0.46236 0.0
H668 H 0.95908 0.40095 0.45696 0.0
H669 H 0.93502 0.3904 0.46508 0.0
H670 H 0.94895 0.41476 0.47122 0.0
O671 O 0.95197 0.39298 0.42003 0.0
O672 O 0.93728 0.42087 0.40898 0.0
H673 H 0.92126 0.4761 0.43165 0.0
H674 H 0.9084 0.4824 0.44694 0.0
C675 C 0.90877 0.47047 0.43879 0.0
H676 H 0.89226 0.47019 0.43406 0.0
H677 H 0.92673 0.46845 0.4065 0.0
O678 O 0.94364 0.36389 0.44477 0.0
C679 C 0.95302 0.40719 0.41097 0.0
Co680 Co 0.86124 0.31386 0.8118 0.0
Co681 Co 0.82233 0.33706 0.8268 0.0
C682 C 0.86883 0.35391 0.82853 0.0
O683 O 0.87555 0.33848 0.82112 0.0
O684 O 0.84837 0.35582 0.83146 0.0
C685 C 0.90101 0.30988 0.79658 0.0
O686 O 0.90363 0.331 0.7994 0.0
C687 C 0.79178 0.37061 0.83752 0.0
C688 C 0.76337 0.34949 0.84324 0.0
C689 C 0.7711 0.37115 0.84348 0.0
N690 N 0.79592 0.34956 0.8339 0.0
N691 N 0.77883 0.33707 0.83729 0.0
C692 C 0.80868 0.3888 0.83678 0.0
H693 H 0.82153 0.38577 0.84423 0.0
H694 H 0.81696 0.38843 0.82723 0.0
H695 H 0.80142 0.40541 0.83851 0.0
C696 C 0.82936 0.31697 0.79075 0.0
N697 N 0.83615 0.32333 0.80251 0.0
N698 N 0.81962 0.33296 0.80864 0.0
C699 C 0.80172 0.33318 0.80085 0.0
C700 C 0.80715 0.32276 0.78931 0.0
C701 C 0.84252 0.30146 0.78243 0.0
H702 H 0.84644 0.28618 0.78796 0.0
H703 H 0.85848 0.3095 0.77981 0.0
H704 H 0.83361 0.29679 0.7735 0.0
O705 O 0.85223 0.29095 0.82426 0.0
O706 O 0.82545 0.30764 0.8353 0.0
H707 H 0.77194 0.32763 0.81156 0.0
H708 H 0.76779 0.34213 0.79654 0.0
C709 C 0.779 0.34029 0.80497 0.0
H710 H 0.78 0.35634 0.81017 0.0
H711 H 0.77802 0.31993 0.83586 0.0
O712 O 0.88374 0.29979 0.8005 0.0
C713 C 0.83776 0.29082 0.8332 0.0
Co714 Co 0.93045 0.61259 0.06221 0.0
Co715 Co 0.90987 0.57211 0.0771 0.0
C716 C 0.89006 0.61774 0.07865 0.0
O717 O 0.90435 0.62546 0.07082 0.0
O718 O 0.89032 0.59742 0.08206 0.0
C719 C 0.93408 0.65308 0.04743 0.0
O720 O 0.91306 0.65578 0.05046 0.0
C721 C 0.87696 0.54027 0.08702 0.0
C722 C 0.89886 0.51353 0.09426 0.0
C723 C 0.87684 0.52005 0.09347 0.0
N724 N 0.89814 0.54537 0.08414 0.0
N725 N 0.9111 0.52925 0.0884 0.0
C726 C 0.85794 0.55589 0.085 0.0
H727 H 0.85855 0.569 0.09251 0.0
H728 H 0.85959 0.56412 0.07548 0.0
H729 H 0.84167 0.5474 0.08567 0.0
C730 C 0.92995 0.58032 0.04119 0.0
N731 N 0.92298 0.58681 0.05289 0.0
N732 N 0.91417 0.56978 0.05898 0.0
C733 C 0.91522 0.55183 0.05126 0.0
C734 C 0.92551 0.5578 0.03977 0.0
C735 C 0.9447 0.59434 0.03288 0.0
H736 H 0.95982 0.59895 0.03838 0.0
H737 H 0.93586 0.60991 0.03034 0.0
H738 H 0.94974 0.58575 0.02391 0.0
O739 O 0.95319 0.60528 0.0753 0.0
O740 O 0.93913 0.576 0.08542 0.0
H741 H 0.92218 0.52289 0.06246 0.0
H742 H 0.90911 0.51716 0.04715 0.0
C743 C 0.90954 0.52875 0.05547 0.0
H744 H 0.89311 0.52872 0.06029 0.0
H745 H 0.92839 0.52932 0.08766 0.0
O746 O 0.94411 0.63558 0.05104 0.0
C747 C 0.95463 0.59009 0.08379 0.0
Co748 Co 0.63192 0.6873 0.31412 0.0
Co749 Co 0.67195 0.66379 0.32797 0.0
C750 C 0.62521 0.64716 0.33061 0.0
O751 O 0.61798 0.66226 0.32314 0.0
O752 O 0.64579 0.64572 0.33335 0.0
C753 C 0.5958 0.69267 0.29567 0.0
O754 O 0.59861 0.67154 0.29296 0.0
C755 C 0.70429 0.62947 0.33664 0.0
C756 C 0.73041 0.65113 0.34478 0.0
C757 C 0.72445 0.62907 0.34322 0.0
N758 N 0.69867 0.65083 0.33453 0.0
N759 N 0.71452 0.66361 0.3393 0.0
C760 C 0.68996 0.61006 0.33317 0.0
H761 H 0.67306 0.61546 0.33043 0.0
H762 H 0.69735 0.60135 0.32479 0.0
H763 H 0.68908 0.59818 0.34133 0.0
C764 C 0.66303 0.68539 0.29245 0.0
N765 N 0.65657 0.67827 0.30414 0.0
N766 N 0.67338 0.66829 0.30983 0.0
C767 C 0.69106 0.66875 0.30187 0.0
C768 C 0.68515 0.67974 0.29062 0.0
C769 C 0.64981 0.70128 0.28442 0.0
H770 H 0.63478 0.6927 0.28078 0.0
H771 H 0.65943 0.70749 0.27604 0.0
H772 H 0.64438 0.71552 0.29043 0.0
O773 O 0.64162 0.70959 0.32687 0.0
O774 O 0.67016 0.6932 0.33647 0.0
H775 H 0.71993 0.6753 0.3132 0.0
H776 H 0.72581 0.66334 0.29761 0.0
C777 C 0.71421 0.66307 0.30593 0.0
H778 H 0.71443 0.64633 0.31037 0.0
H779 H 0.71414 0.68094 0.33916 0.0
O780 O 0.60852 0.70202 0.3038 0.0
C781 C 0.65728 0.70978 0.3351 0.0
Co782 Co 0.5687 0.38459 0.56266 0.0
Co783 Co 0.58747 0.42512 0.57812 0.0
C784 C 0.6088 0.38017 0.57933 0.0
O785 O 0.59476 0.37217 0.57144 0.0
O786 O 0.60792 0.40041 0.58287 0.0
C787 C 0.56718 0.34609 0.54598 0.0
O788 O 0.58894 0.34617 0.54701 0.0
C789 C 0.61962 0.45796 0.58755 0.0
C790 C 0.59744 0.48377 0.59552 0.0
C791 C 0.61963 0.47818 0.59402 0.0
N792 N 0.59844 0.45191 0.58546 0.0
N793 N 0.58527 0.46741 0.59023 0.0
C794 C 0.63915 0.44489 0.58286 0.0
H795 H 0.6345 0.43514 0.5742 0.0
H796 H 0.6533 0.45602 0.58056 0.0
H797 H 0.64437 0.43306 0.59049 0.0
C798 C 0.56905 0.41704 0.54188 0.0
N799 N 0.57598 0.41057 0.55358 0.0
N800 N 0.58342 0.42792 0.55997 0.0
C801 C 0.58123 0.44609 0.55248 0.0
C802 C 0.57177 0.43984 0.54082 0.0
C803 C 0.55596 0.40248 0.53298 0.0
H804 H 0.54015 0.39765 0.53772 0.0
H805 H 0.56552 0.38713 0.53096 0.0
H806 H 0.55226 0.41102 0.52375 0.0
O807 O 0.54504 0.39138 0.57529 0.0
O808 O 0.55829 0.42 0.58632 0.0
H809 H 0.57046 0.47266 0.56459 0.0
H810 H 0.58205 0.48164 0.54941 0.0
C811 C 0.58358 0.46937 0.55734 0.0
H812 H 0.59999 0.47138 0.56205 0.0
H813 H 0.56795 0.46669 0.59001 0.0
O814 O 0.55599 0.36135 0.55139 0.0
C815 C 0.54298 0.40595 0.5841 0.0
Co816 Co 0.13562 0.31413 0.31265 0.0
Co817 Co 0.17584 0.33713 0.32657 0.0
C818 C 0.13009 0.35621 0.3278 0.0
O819 O 0.1226 0.34081 0.32061 0.0
O820 O 0.15051 0.35694 0.33098 0.0
C821 C 0.10045 0.30699 0.29332 0.0
O822 O 0.10488 0.32682 0.2887 0.0
C823 C 0.20776 0.36973 0.33726 0.0
C824 C 0.23645 0.34783 0.34124 0.0
C825 C 0.22907 0.36951 0.34246 0.0
N826 N 0.20298 0.3491 0.33309 0.0
N827 N 0.22021 0.33615 0.3355 0.0
C828 C 0.19105 0.38814 0.33771 0.0
H829 H 0.17725 0.38318 0.34417 0.0
H830 H 0.18398 0.39071 0.32795 0.0
H831 H 0.19814 0.40388 0.34137 0.0
C832 C 0.16766 0.31316 0.29134 0.0
N833 N 0.16109 0.3209 0.30288 0.0
N834 N 0.17778 0.33126 0.30848 0.0
C835 C 0.19536 0.33096 0.30044 0.0
C836 C 0.18966 0.31927 0.28938 0.0
C837 C 0.15465 0.29649 0.28371 0.0
H838 H 0.14575 0.28506 0.2903 0.0
H839 H 0.14219 0.30536 0.27776 0.0
H840 H 0.16539 0.28652 0.27725 0.0
O841 O 0.14371 0.29267 0.32612 0.0
O842 O 0.17214 0.30869 0.336 0.0
H843 H 0.22661 0.32749 0.30997 0.0
H844 H 0.22801 0.3422 0.2949 0.0
C845 C 0.21793 0.33966 0.30374 0.0
H846 H 0.21644 0.35561 0.309 0.0
H847 H 0.22063 0.31915 0.33354 0.0
O848 O 0.11181 0.2994 0.30265 0.0
C849 C 0.1587 0.29252 0.33475 0.0
Co850 Co 0.43364 0.38432 0.06263 0.0
Co851 Co 0.41127 0.42414 0.07715 0.0
C852 C 0.39206 0.37843 0.0782 0.0
O853 O 0.40751 0.37109 0.07101 0.0
O854 O 0.39113 0.39887 0.08135 0.0
C855 C 0.43649 0.34647 0.0457 0.0
O856 O 0.41468 0.34682 0.04621 0.0
C857 C 0.37861 0.45636 0.08714 0.0
C858 C 0.40096 0.48307 0.09394 0.0
C859 C 0.37887 0.47674 0.09341 0.0
N860 N 0.39966 0.45098 0.08412 0.0
N861 N 0.41288 0.46708 0.08813 0.0
C862 C 0.3594 0.44085 0.08545 0.0
H863 H 0.36011 0.42805 0.09312 0.0
H864 H 0.36071 0.43228 0.07602 0.0
H865 H 0.34322 0.4495 0.08617 0.0
C866 C 0.4337 0.4168 0.04167 0.0
N867 N 0.42628 0.41006 0.05324 0.0
N868 N 0.41662 0.42679 0.05916 0.0
C869 C 0.41739 0.44475 0.05143 0.0
C870 C 0.42848 0.43913 0.04014 0.0
C871 C 0.44935 0.40329 0.03363 0.0
H872 H 0.46343 0.3976 0.03969 0.0
H873 H 0.44053 0.38832 0.03006 0.0
H874 H 0.45597 0.41267 0.0253 0.0
O875 O 0.45581 0.39168 0.07591 0.0
O876 O 0.44008 0.41999 0.08611 0.0
H877 H 0.42259 0.47435 0.06236 0.0
H878 H 0.40936 0.47887 0.04699 0.0
C879 C 0.41035 0.46757 0.05541 0.0
H880 H 0.3939 0.4668 0.0602 0.0
H881 H 0.43015 0.46683 0.08723 0.0
O882 O 0.44747 0.36135 0.0516 0.0
C883 C 0.45617 0.40652 0.08463 0.0
Co884 Co 0.36361 0.68405 0.81377 0.0
Co885 Co 0.32363 0.66077 0.82766 0.0
C886 C 0.36943 0.64223 0.82923 0.0
O887 O 0.37683 0.65801 0.8223 0.0
O888 O 0.34887 0.64083 0.83201 0.0
C889 C 0.40171 0.68693 0.79712 0.0
O890 O 0.40108 0.66513 0.79755 0.0
C891 C 0.29171 0.62711 0.83664 0.0
C892 C 0.26359 0.64824 0.84275 0.0
C893 C 0.2707 0.62637 0.84217 0.0
N894 N 0.29676 0.64845 0.83417 0.0
N895 N 0.27988 0.66097 0.83784 0.0
C896 C 0.30644 0.60801 0.8332 0.0
H897 H 0.31666 0.61223 0.82464 0.0
H898 H 0.29649 0.59287 0.8312 0.0
H899 H 0.31781 0.60457 0.84137 0.0
C900 C 0.33208 0.68384 0.79237 0.0
N901 N 0.3384 0.67642 0.80401 0.0
N902 N 0.32156 0.66648 0.80966 0.0
C903 C 0.30395 0.66703 0.80166 0.0
C904 C 0.30991 0.67828 0.79048 0.0
C905 C 0.3457 0.69982 0.7846 0.0
H906 H 0.35132 0.71365 0.79087 0.0
H907 H 0.36069 0.69115 0.78097 0.0
H908 H 0.33642 0.70681 0.77633 0.0
O909 O 0.35525 0.70603 0.82695 0.0
O910 O 0.3274 0.68929 0.83703 0.0
H911 H 0.27375 0.6715 0.81214 0.0
H912 H 0.27021 0.65841 0.79663 0.0
C913 C 0.28109 0.6595 0.80524 0.0
H914 H 0.28195 0.64299 0.80995 0.0
H915 H 0.2796 0.67827 0.83713 0.0
O916 O 0.38692 0.69803 0.80302 0.0
C917 C 0.34042 0.7058 0.83569 0.0
Co918 Co 0.06571 0.61416 0.56235 0.0
Co919 Co 0.08777 0.57366 0.57641 0.0
C920 C 0.108 0.61888 0.57738 0.0
O921 O 0.09263 0.62665 0.57029 0.0
O922 O 0.10834 0.59848 0.58065 0.0
C923 C 0.06296 0.65242 0.5457 0.0
O924 O 0.08477 0.65146 0.5458 0.0
C925 C 0.1204 0.54084 0.58568 0.0
C926 C 0.09822 0.5137 0.59201 0.0
C927 C 0.12034 0.52 0.59146 0.0
N928 N 0.09928 0.54654 0.58307 0.0
N929 N 0.08613 0.53024 0.58687 0.0
C930 C 0.14 0.55486 0.58217 0.0
H931 H 0.14374 0.56635 0.59024 0.0
H932 H 0.13616 0.56499 0.57352 0.0
H933 H 0.15482 0.54439 0.58028 0.0
C934 C 0.06473 0.58236 0.54109 0.0
N935 N 0.0723 0.58856 0.55271 0.0
N936 N 0.08173 0.57148 0.55843 0.0
C937 C 0.08057 0.5538 0.5505 0.0
C938 C 0.06959 0.56001 0.53929 0.0
C939 C 0.04934 0.59643 0.5332 0.0
H940 H 0.03546 0.60232 0.53935 0.0
H941 H 0.05849 0.61125 0.52972 0.0
H942 H 0.0424 0.5874 0.52482 0.0
O943 O 0.04383 0.60681 0.57589 0.0
O944 O 0.05957 0.57825 0.58581 0.0
H945 H 0.07497 0.52396 0.56113 0.0
H946 H 0.08792 0.51969 0.54565 0.0
C947 C 0.08724 0.53073 0.55421 0.0
H948 H 0.10377 0.53105 0.55892 0.0
H949 H 0.06884 0.53055 0.58611 0.0
O950 O 0.0519 0.6377 0.5517 0.0
C951 C 0.0436 0.59193 0.58459 0.0
Co952 Co 0.13499 0.68218 0.18327 0.0
Co953 Co 0.17501 0.6604 0.16866 0.0
C954 C 0.12917 0.64158 0.1669 0.0
O955 O 0.12175 0.6566 0.17437 0.0
O956 O 0.14967 0.64075 0.16387 0.0
C957 C 0.09686 0.68464 0.20005 0.0
O958 O 0.09694 0.66285 0.19926 0.0
C959 C 0.20708 0.62786 0.15843 0.0
C960 C 0.2339 0.65024 0.15179 0.0
C961 C 0.2274 0.62818 0.15209 0.0
N962 N 0.20188 0.64884 0.16169 0.0
N963 N 0.21806 0.66207 0.1578 0.0
C964 C 0.1915 0.60867 0.15994 0.0
H965 H 0.17952 0.60884 0.15182 0.0
H966 H 0.182 0.61039 0.16904 0.0
H967 H 0.20034 0.59255 0.15981 0.0
C968 C 0.16692 0.68092 0.20446 0.0
N969 N 0.16045 0.67417 0.19271 0.0
N970 N 0.17729 0.66477 0.18675 0.0
C971 C 0.19505 0.66503 0.19464 0.0
C972 C 0.1892 0.67552 0.20608 0.0
C973 C 0.15327 0.69626 0.21263 0.0
H974 H 0.14766 0.71056 0.20673 0.0
H975 H 0.13826 0.6873 0.21601 0.0
H976 H 0.1625 0.70261 0.22109 0.0
O977 O 0.14276 0.70491 0.1704 0.0
O978 O 0.17124 0.68965 0.16013 0.0
H979 H 0.22484 0.67057 0.18393 0.0
H980 H 0.2291 0.65676 0.19917 0.0
C981 C 0.21793 0.6581 0.19069 0.0
H982 H 0.2172 0.64184 0.1857 0.0
H983 H 0.21793 0.67931 0.15888 0.0
O984 O 0.11193 0.69567 0.19435 0.0
C985 C 0.15775 0.70568 0.16179 0.0
Co986 Co 0.0671 0.38357 0.93353 0.0
Co987 Co 0.08825 0.42445 0.91932 0.0
C988 C 0.10843 0.37899 0.91773 0.0
O989 O 0.09345 0.37095 0.92502 0.0
O990 O 0.10859 0.39953 0.91476 0.0
C991 C 0.06233 0.34241 0.9477 0.0
O992 O 0.08304 0.33877 0.94431 0.0
C993 C 0.12139 0.45681 0.91033 0.0
C994 C 0.09991 0.48434 0.90377 0.0
C995 C 0.12189 0.47764 0.90457 0.0
N996 N 0.1001 0.45145 0.91269 0.0
N997 N 0.08736 0.46799 0.90876 0.0
C998 C 0.14067 0.44253 0.91408 0.0
H999 H 0.13636 0.43234 0.92263 0.0
H1000 H 0.15552 0.45282 0.9162 0.0
H1001 H 0.14464 0.43113 0.90601 0.0
C1002 C 0.06681 0.41526 0.95489 0.0
N1003 N 0.07408 0.40917 0.94317 0.0
N1004 N 0.08301 0.42642 0.93735 0.0
C1005 C 0.08175 0.4441 0.94527 0.0
C1006 C 0.0712 0.43773 0.9566 0.0
C1007 C 0.05195 0.40094 0.96296 0.0
H1008 H 0.0608 0.38533 0.96539 0.0
H1009 H 0.04672 0.40925 0.97198 0.0
H1010 H 0.03696 0.39645 0.95731 0.0
O1011 O 0.04489 0.39108 0.92025 0.0
O1012 O 0.05949 0.42029 0.91033 0.0
H1013 H 0.07521 0.47354 0.93444 0.0
H1014 H 0.08798 0.47854 0.9499 0.0
C1015 C 0.08767 0.46731 0.94143 0.0
H1016 H 0.10421 0.46743 0.93673 0.0
H1017 H 0.07004 0.46797 0.90933 0.0
O1018 O 0.053 0.36049 0.94443 0.0
C1019 C 0.0439 0.40621 0.91171 0.0
Co1020 Co 0.36243 0.31825 0.68404 0.0
Co1021 Co 0.32045 0.33716 0.66994 0.0
C1022 C 0.36553 0.35831 0.66739 0.0
O1023 O 0.37415 0.34447 0.67516 0.0
O1024 O 0.34502 0.3573 0.66441 0.0
C1025 C 0.4022 0.31667 0.69961 0.0
O1026 O 0.40219 0.33838 0.69833 0.0
C1027 C 0.2875 0.36955 0.66079 0.0
C1028 C 0.26137 0.3473 0.65317 0.0
C1029 C 0.26732 0.36944 0.6543 0.0
N1030 N 0.29314 0.3484 0.66336 0.0
N1031 N 0.27736 0.33522 0.65889 0.0
C1032 C 0.30267 0.38887 0.66302 0.0
H1033 H 0.31459 0.38996 0.65489 0.0
H1034 H 0.31231 0.38629 0.67201 0.0
H1035 H 0.29345 0.40475 0.66357 0.0
C1036 C 0.33144 0.3172 0.70555 0.0
N1037 N 0.33705 0.32505 0.69389 0.0
N1038 N 0.3192 0.33274 0.68809 0.0
C1039 C 0.30158 0.3298 0.69593 0.0
C1040 C 0.30868 0.31951 0.70718 0.0
C1041 C 0.34669 0.30358 0.71376 0.0
H1042 H 0.3513 0.28818 0.70851 0.0
H1043 H 0.3621 0.31311 0.71567 0.0
H1044 H 0.33882 0.2991 0.72307 0.0
O1045 O 0.35494 0.29513 0.67117 0.0
O1046 O 0.32458 0.30799 0.6616 0.0
H1047 H 0.27427 0.31893 0.68442 0.0
H1048 H 0.26628 0.33031 0.69983 0.0
C1049 C 0.27797 0.33203 0.69162 0.0
H1050 H 0.27549 0.34846 0.68702 0.0
H1051 H 0.27792 0.3179 0.65932 0.0
O1052 O 0.3865 0.3054 0.69468 0.0
C1053 C 0.33928 0.29302 0.66301 0.0
Co1054 Co 0.42577 0.61598 0.43559 0.0
Co1055 Co 0.40711 0.57353 0.42178 0.0
C1056 C 0.38436 0.61797 0.42005 0.0
O1057 O 0.39847 0.62695 0.42753 0.0
O1058 O 0.38588 0.5976 0.4168 0.0
C1059 C 0.42995 0.65796 0.4492 0.0
O1060 O 0.40931 0.66153 0.44564 0.0
C1061 C 0.37563 0.53973 0.41242 0.0
C1062 C 0.39845 0.51246 0.40712 0.0
C1063 C 0.37626 0.51858 0.40708 0.0
N1064 N 0.3965 0.54581 0.4154 0.0
N1065 N 0.41005 0.52944 0.4122 0.0
C1066 C 0.35565 0.55379 0.41505 0.0
H1067 H 0.3529 0.56514 0.40678 0.0
H1068 H 0.35845 0.56406 0.42377 0.0
H1069 H 0.34062 0.54335 0.41638 0.0
C1070 C 0.4277 0.58533 0.45728 0.0
N1071 N 0.42015 0.59045 0.44548 0.0
N1072 N 0.41248 0.5724 0.43988 0.0
C1073 C 0.41509 0.55513 0.44802 0.0
C1074 C 0.42515 0.5627 0.45924 0.0
C1075 C 0.44063 0.60105 0.46556 0.0
H1076 H 0.45639 0.60547 0.46065 0.0
H1077 H 0.4309 0.61651 0.46698 0.0
H1078 H 0.44442 0.59366 0.47511 0.0
O1079 O 0.4481 0.60924 0.42215 0.0
O1080 O 0.43564 0.57851 0.41284 0.0
H1081 H 0.42578 0.52653 0.43757 0.0
H1082 H 0.4127 0.52024 0.45276 0.0
C1083 C 0.41219 0.53133 0.44422 0.0
H1084 H 0.39609 0.52916 0.4392 0.0
H1085 H 0.42727 0.53001 0.41328 0.0
O1086 O 0.43931 0.63977 0.44619 0.0
C1087 C 0.45021 0.59369 0.41393 0.0
H1088 H 0.5574 0.33314 0.21069 0.0
H1089 H 0.52303 0.31344 0.21596 0.0
H1090 H 0.55687 0.25074 0.21159 0.0
H1091 H 0.59127 0.2702 0.20652 0.0
H1092 H 0.5039 0.28648 0.19809 0.0
H1093 H 0.51807 0.23858 0.24278 0.0
H1094 H 0.53543 0.26173 0.23812 0.0
H1095 H 0.53989 0.23465 0.23123 0.0
C1096 C 0.55769 0.31517 0.21121 0.0
C1097 C 0.57701 0.30323 0.20804 0.0
C1098 C 0.53803 0.30395 0.21423 0.0
C1099 C 0.53741 0.28063 0.21427 0.0
C1100 C 0.55703 0.26872 0.21189 0.0
H1101 H 0.44777 0.17477 0.20055 0.0
H1102 H 0.47848 0.19881 0.20716 0.0
C1103 C 0.57667 0.27991 0.20887 0.0
C1104 C 0.51586 0.26875 0.21471 0.0
H1105 H 0.48878 0.22525 0.22884 0.0
C1106 C 0.50035 0.27342 0.20499 0.0
C1107 C 0.51139 0.25159 0.22364 0.0
C1108 C 0.527 0.24648 0.23461 0.0
C1109 C 0.48107 0.26063 0.20351 0.0
C1110 C 0.47691 0.24299 0.2122 0.0
C1111 C 0.49201 0.2388 0.22221 0.0
C1112 C 0.45786 0.22775 0.21031 0.0
C1113 C 0.46597 0.26536 0.19222 0.0
C1114 C 0.43599 0.23582 0.21042 0.0
C1115 C 0.41844 0.22221 0.2065 0.0
C1116 C 0.42245 0.2002 0.20259 0.0
C1117 C 0.44415 0.19168 0.20343 0.0
C1118 C 0.46172 0.20538 0.20724 0.0
H1119 H 0.47405 0.27623 0.18495 0.0
H1120 H 0.46082 0.2497 0.18742 0.0
H1121 H 0.4508 0.27394 0.19569 0.0
H1122 H 0.43262 0.25291 0.21303 0.0
H1123 H 0.40185 0.22916 0.20615 0.0
H1124 H 0.08241 0.19376 0.45863 0.0
H1125 H 0.06207 0.22762 0.46419 0.0
H1126 H -2e-05 0.19323 0.45848 0.0
H1127 H 0.02009 0.15932 0.45308 0.0
H1128 H 0.0347 0.24782 0.44662 0.0
H1129 H 0.98724 0.22904 0.49093 0.0
H1130 H 0.01082 0.21268 0.48582 0.0
H1131 H 0.9839 0.20818 0.47874 0.0
C1132 C 0.06443 0.19324 0.45886 0.0
C1133 C 0.05287 0.17389 0.4553 0.0
C1134 C 0.05284 0.21261 0.46205 0.0
C1135 C 0.02951 0.2129 0.46188 0.0
C1136 C 0.01796 0.19329 0.45895 0.0
H1137 H 0.92243 0.30247 0.45146 0.0
H1138 H 0.94688 0.27155 0.45708 0.0
C1139 C 0.02951 0.17395 0.45574 0.0
C1140 C 0.0173 0.2342 0.46291 0.0
H1141 H 0.97379 0.25956 0.47807 0.0
C1142 C 0.02168 0.25061 0.45366 0.0
C1143 C 0.00022 0.23768 0.47204 0.0
C1144 C 0.99539 0.22104 0.48253 0.0
C1145 C 0.00871 0.2699 0.45284 0.0
C1146 C 0.99118 0.27312 0.46174 0.0
C1147 C 0.98726 0.25707 0.47129 0.0
C1148 C 0.97573 0.29217 0.46053 0.0
C1149 C 0.01314 0.28603 0.442 0.0
C1150 C 0.98359 0.3141 0.46117 0.0
C1151 C 0.96971 0.33181 0.45783 0.0
C1152 C 0.94766 0.32789 0.45395 0.0
C1153 C 0.93936 0.30606 0.45433 0.0
C1154 C 0.95331 0.28835 0.45756 0.0
H1155 H 0.02392 0.2787 0.43442 0.0
H1156 H 0.99736 0.29151 0.43746 0.0
H1157 H 0.0217 0.30092 0.44588 0.0
H1158 H 0.00071 0.31744 0.46372 0.0
H1159 H 0.97651 0.34847 0.45782 0.0
H1160 H 0.08033 0.7735 0.69107 0.0
H1161 H 0.04729 0.75337 0.69764 0.0
H1162 H 0.04143 0.79501 0.7313 0.0
H1163 H 0.07428 0.8161 0.72441 0.0
H1164 H 0.03666 0.7292 0.71796 0.0
H1165 H 0.98112 0.8031 0.71575 0.0
H1166 H 0.00936 0.80394 0.71002 0.0
H1167 H 0.00368 0.80469 0.72702 0.0
C1168 C 0.07213 0.77841 0.69991 0.0
C1169 C 0.07981 0.79659 0.70715 0.0
C1170 C 0.05322 0.76679 0.70369 0.0
C1171 C 0.04161 0.77285 0.71487 0.0
C1172 C 0.04976 0.79038 0.72246 0.0
H1173 H 0.92722 0.68121 0.72463 0.0
H1174 H 0.9602 0.70225 0.73134 0.0
C1175 C 0.0686 0.80233 0.71856 0.0
C1176 C 0.02055 0.76111 0.71795 0.0
H1177 H 0.96434 0.76854 0.71878 0.0
C1178 C 0.02082 0.73778 0.71834 0.0
C1179 C -8e-05 0.77238 0.71848 0.0
C1180 C 0.99834 0.79738 0.71771 0.0
C1181 C 0.00108 0.72536 0.71816 0.0
C1182 C 0.98043 0.73664 0.7181 0.0
C1183 C 0.98019 0.75995 0.7188 0.0
C1184 C 0.95924 0.725 0.71519 0.0
C1185 C 0.00262 0.7004 0.71701 0.0
C1186 C 0.94714 0.73141 0.70426 0.0
C1187 C 0.92816 0.7198 0.70058 0.0
C1188 C 0.9209 0.70129 0.70768 0.0
C1189 C 0.93257 0.69524 0.71888 0.0
C1190 C 0.95148 0.70716 0.72268 0.0
H1191 H 0.01974 0.69478 0.7147 0.0
H1192 H 0.99771 0.6927 0.72629 0.0
H1193 H 0.99125 0.69416 0.7094 0.0
H1194 H 0.95276 0.74509 0.6983 0.0
H1195 H 0.91959 0.72498 0.69192 0.0
H1196 H 0.57513 0.69723 0.95264 0.0
H1197 H 0.55165 0.72846 0.95893 0.0
H1198 H 0.49583 0.68414 0.96329 0.0
H1199 H 0.5191 0.65285 0.95673 0.0
H1200 H 0.48685 0.71769 0.94724 0.0
H1201 H 0.52416 0.75222 0.99159 0.0
H1202 H 0.54429 0.7489 0.979 0.0
H1203 H 0.53083 0.72479 0.98568 0.0
C1204 C 0.55799 0.69402 0.95523 0.0
C1205 C 0.54892 0.67259 0.95406 0.0
C1206 C 0.54461 0.7119 0.95893 0.0
C1207 C 0.52201 0.70862 0.96171 0.0
C1208 C 0.51323 0.68704 0.96123 0.0
H1209 H 0.41605 0.80894 0.96197 0.0
H1210 H 0.43616 0.77473 0.96718 0.0
C1211 C 0.52655 0.66918 0.95745 0.0
C1212 C 0.507 0.72797 0.96331 0.0
H1213 H 0.50051 0.77701 0.97944 0.0
C1214 C 0.48955 0.73044 0.95446 0.0
C1215 C 0.51061 0.74464 0.97269 0.0
C1216 C 0.52836 0.74241 0.98286 0.0
C1217 C 0.47633 0.7496 0.95429 0.0
C1218 C 0.48043 0.76662 0.96337 0.0
C1219 C 0.49739 0.76389 0.97252 0.0
C1220 C 0.46858 0.78814 0.96264 0.0
C1221 C 0.45887 0.75196 0.94393 0.0
C1222 C 0.4803 0.80729 0.95904 0.0
C1223 C 0.46891 0.82686 0.95612 0.0
C1224 C 0.44557 0.82761 0.95675 0.0
C1225 C 0.43401 0.80885 0.96126 0.0
C1226 C 0.44545 0.78927 0.96421 0.0
H1227 H 0.46067 0.73921 0.93626 0.0
H1228 H 0.44215 0.75004 0.94829 0.0
H1229 H 0.45973 0.76866 0.93941 0.0
H1230 H 0.49817 0.80677 0.95783 0.0
H1231 H 0.47836 0.84106 0.95281 0.0
H1232 H 0.42223 0.81482 0.27294 0.0
H1233 H 0.4551 0.7943 0.26556 0.0
H1234 H 0.448 0.74909 0.29756 0.0
H1235 H 0.41495 0.76866 0.30455 0.0
H1236 H 0.49292 0.7898 0.27643 0.0
H1237 H 0.4609 0.70521 0.27046 0.0
H1238 H 0.4425 0.7287 0.27215 0.0
H1239 H 0.45301 0.71441 0.28618 0.0
C1240 C 0.42748 0.80022 0.27822 0.0
C1241 C 0.41593 0.79332 0.28929 0.0
C1242 C 0.44624 0.78851 0.274 0.0
C1243 C 0.4538 0.76978 0.28081 0.0
C1244 C 0.44211 0.76289 0.2918 0.0
H1245 H 0.57893 0.73183 0.30425 0.0
H1246 H 0.54579 0.75089 0.29686 0.0
C1247 C 0.42327 0.77431 0.29589 0.0
C1248 C 0.47513 0.75873 0.27747 0.0
H1249 H 0.49978 0.70775 0.27803 0.0
C1250 C 0.49435 0.77184 0.27642 0.0
C1251 C 0.47716 0.73531 0.27694 0.0
C1252 C 0.45719 0.72019 0.27633 0.0
C1253 C 0.51556 0.76217 0.27622 0.0
C1254 C 0.51762 0.73886 0.27766 0.0
C1255 C 0.49837 0.72568 0.27732 0.0
C1256 C 0.53906 0.72815 0.28115 0.0
C1257 C 0.53549 0.77717 0.27479 0.0
C1258 C 0.54613 0.70849 0.27508 0.0
C1259 C 0.56489 0.69709 0.27958 0.0
C1260 C 0.57696 0.70526 0.29016 0.0
C1261 C 0.57017 0.72521 0.29598 0.0
C1262 C 0.55129 0.73632 0.29164 0.0
H1263 H 0.53158 0.79139 0.26835 0.0
H1264 H 0.53994 0.78415 0.28434 0.0
H1265 H 0.55006 0.76816 0.27082 0.0
H1266 H 0.53688 0.70171 0.26705 0.0
H1267 H 0.56974 0.68176 0.2749 0.0
H1268 H 0.52242 0.34022 0.54346 0.0
H1269 H 0.50301 0.30595 0.53799 0.0
H1270 H 0.56563 0.27395 0.53007 0.0
H1271 H 0.58535 0.30814 0.53582 0.0
H1272 H 0.50136 0.27636 0.5168 0.0
H1273 H 0.54 0.23823 0.56025 0.0
H1274 H 0.54139 0.26764 0.55708 0.0
H1275 H 0.55893 0.24875 0.54835 0.0
C1276 C 0.53211 0.32603 0.54037 0.0
C1277 C 0.55548 0.32677 0.54034 0.0
C1278 C 0.52095 0.30647 0.53718 0.0
C1279 C 0.53291 0.28732 0.53388 0.0
C1280 C 0.55614 0.28847 0.53284 0.0
H1281 H 0.48053 0.15273 0.53975 0.0
H1282 H 0.50429 0.18346 0.53293 0.0
C1283 C 0.56736 0.30804 0.53609 0.0
C1284 C 0.5211 0.26579 0.53298 0.0
H1285 H 0.51386 0.21697 0.54911 0.0
C1286 C 0.50426 0.26321 0.52374 0.0
C1287 C 0.52488 0.24873 0.54209 0.0
C1288 C 0.54214 0.25092 0.55258 0.0
C1289 C 0.49078 0.24415 0.52355 0.0
C1290 C 0.49405 0.22749 0.53296 0.0
C1291 C 0.51144 0.22973 0.54186 0.0
C1292 C 0.47864 0.20848 0.53461 0.0
C1293 C 0.47305 0.24214 0.51335 0.0
C1294 C 0.45618 0.21226 0.53753 0.0
C1295 C 0.44252 0.19471 0.54141 0.0
C1296 C 0.45119 0.17312 0.54261 0.0
C1297 C 0.47339 0.1692 0.53904 0.0
C1298 C 0.48699 0.18673 0.53509 0.0
H1299 H 0.47741 0.25189 0.50463 0.0
H1300 H 0.47038 0.22454 0.51053 0.0
H1301 H 0.45718 0.24881 0.51719 0.0
H1302 H 0.4495 0.22896 0.53752 0.0
H1303 H 0.42552 0.19829 0.54412 0.0
H1304 H 0.05858 0.16774 0.78735 0.0
H1305 H 0.02414 0.18627 0.78092 0.0
H1306 H 0.05504 0.25009 0.78693 0.0
H1307 H 0.08951 0.23179 0.79321 0.0
H1308 H 0.00196 0.21273 0.79816 0.0
H1309 H 0.0199 0.26072 0.75394 0.0
H1310 H 0.03719 0.23797 0.75929 0.0
H1311 H 0.04023 0.26513 0.76632 0.0
C1312 C 0.05823 0.18572 0.78699 0.0
C1313 C 0.07671 0.1983 0.79092 0.0
C1314 C 0.03854 0.19627 0.78329 0.0
C1315 C 0.03709 0.21955 0.78333 0.0
C1316 C 0.05591 0.23212 0.78656 0.0
H1317 H 0.94408 0.32301 0.79325 0.0
H1318 H 0.97566 0.29953 0.78748 0.0
C1319 C 0.07556 0.22161 0.79028 0.0
C1320 C 0.01525 0.23065 0.78197 0.0
H1321 H 0.98858 0.2731 0.76658 0.0
C1322 C 0.9988 0.2256 0.79108 0.0
C1323 C 0.01131 0.24754 0.77279 0.0
C1324 C 0.02803 0.25303 0.76245 0.0
C1325 C 0.97902 0.23781 0.79175 0.0
C1326 C 0.97535 0.25523 0.78284 0.0
C1327 C 0.99142 0.25972 0.77338 0.0
C1328 C 0.95586 0.27012 0.78402 0.0
C1329 C 0.96287 0.23279 0.8025 0.0
C1330 C 0.93417 0.26162 0.78341 0.0
C1331 C 0.9161 0.27493 0.78686 0.0
C1332 C 0.91942 0.29705 0.79079 0.0
C1333 C 0.94098 0.30601 0.79034 0.0
C1334 C 0.95905 0.29262 0.78702 0.0
H1335 H 0.97043 0.22222 0.8101 0.0
H1336 H 0.95681 0.24836 0.80704 0.0
H1337 H 0.94833 0.22377 0.79853 0.0
H1338 H 0.93132 0.24443 0.78082 0.0
H1339 H 0.89964 0.26764 0.78692 0.0
H1340 H 0.07819 0.80895 0.0371 0.0
H1341 H 0.05853 0.77483 0.03125 0.0
H1342 H 0.99577 0.80754 0.03772 0.0
H1343 H 0.01519 0.84172 0.04341 0.0
H1344 H 0.03202 0.75369 0.04895 0.0
H1345 H 0.98322 0.77206 0.00506 0.0
H1346 H 0.00656 0.78885 0.01009 0.0
H1347 H 0.97972 0.79264 0.0174 0.0
C1348 C 0.06019 0.80906 0.03696 0.0
C1349 C 0.04825 0.82799 0.04084 0.0
C1350 C 0.049 0.78954 0.03361 0.0
C1351 C 0.02569 0.7887 0.03393 0.0
C1352 C 0.01374 0.80793 0.03713 0.0
H1353 H 0.92108 0.6963 0.04449 0.0
H1354 H 0.94461 0.72792 0.03885 0.0
C1355 C 0.0249 0.82742 0.04051 0.0
C1356 C 0.01399 0.76713 0.03284 0.0
H1357 H 0.97083 0.74096 0.0178 0.0
C1358 C 0.01894 0.75069 0.04197 0.0
C1359 C 0.99682 0.76338 0.0238 0.0
C1360 C 0.99139 0.7801 0.01345 0.0
C1361 C 0.00646 0.73109 0.04277 0.0
C1362 C 0.98886 0.72757 0.03396 0.0
C1363 C 0.98436 0.74367 0.02452 0.0
C1364 C 0.97392 0.70811 0.03515 0.0
C1365 C 0.01147 0.71492 0.05351 0.0
C1366 C 0.98235 0.68642 0.03439 0.0
C1367 C 0.96902 0.66831 0.03775 0.0
C1368 C 0.94694 0.67161 0.04177 0.0
C1369 C 0.93805 0.6932 0.04152 0.0
C1370 C 0.95146 0.71131 0.03827 0.0
H1371 H 0.02216 0.72242 0.06107 0.0
H1372 H 0.99591 0.70896 0.05809 0.0
H1373 H 0.02037 0.70032 0.04951 0.0
H1374 H -0.0005 0.68356 0.03171 0.0
H1375 H 0.97625 0.65184 0.03767 0.0
H1376 H 0.55116 0.82652 0.79194 0.0
H1377 H 0.5197 0.80257 0.78664 0.0
H1378 H 0.56458 0.74828 0.77904 0.0
H1379 H 0.59616 0.77196 0.78467 0.0
H1380 H 0.50599 0.77594 0.766 0.0
H1381 H 0.52759 0.72535 0.80908 0.0
H1382 H 0.54054 0.75174 0.80577 0.0
H1383 H 0.54899 0.72731 0.7971 0.0
C1384 C 0.5544 0.80961 0.78891 0.0
C1385 C 0.57611 0.801 0.78898 0.0
C1386 C 0.53638 0.79594 0.78586 0.0
C1387 C 0.53979 0.77351 0.78276 0.0
C1388 C 0.56157 0.76541 0.78173 0.0
H1389 H 0.43968 0.66861 0.78721 0.0
H1390 H 0.47341 0.68823 0.78059 0.0
C1391 C 0.57959 0.77898 0.7849 0.0
C1392 C 0.5205 0.75827 0.78195 0.0
H1393 H 0.49567 0.71512 0.79768 0.0
C1394 C 0.50381 0.76247 0.77282 0.0
C1395 C 0.51768 0.74076 0.79091 0.0
C1396 C 0.53452 0.73606 0.80135 0.0
C1397 C 0.48417 0.74985 0.77257 0.0
C1398 C 0.48111 0.73282 0.78178 0.0
C1399 C 0.49815 0.72811 0.79057 0.0
C1400 C 0.45967 0.72108 0.78343 0.0
C1401 C 0.46677 0.75501 0.76256 0.0
C1402 C 0.44065 0.73305 0.78701 0.0
C1403 C 0.4214 0.72192 0.79083 0.0
C1404 C 0.42086 0.69856 0.79124 0.0
C1405 C 0.43956 0.6866 0.78702 0.0
C1406 C 0.45884 0.69777 0.78322 0.0
H1407 H 0.47422 0.76308 0.75395 0.0
H1408 H 0.4579 0.73974 0.75947 0.0
H1409 H 0.45442 0.76668 0.76671 0.0
H1410 H 0.44105 0.75102 0.78751 0.0
H1411 H 0.40727 0.73164 0.79399 0.0
H1412 H 0.08143 0.68975 0.53503 0.0
H1413 H 0.06225 0.7242 0.52922 0.0
H1414 H -0.0007 0.69398 0.53849 0.0
H1415 H 0.0182 0.65945 0.54415 0.0
H1416 H 0.99863 0.72272 0.51612 0.0
H1417 H 0.0372 0.76171 0.55935 0.0
H1418 H 0.05594 0.74973 0.5478 0.0
H1419 H 0.03747 0.73209 0.55674 0.0
C1420 C 0.06347 0.69029 0.53561 0.0
C1421 C 0.05137 0.67198 0.54026 0.0
C1422 C 0.05256 0.71 0.53231 0.0
C1423 C 0.02942 0.71171 0.53364 0.0
C1424 C 0.01719 0.693 0.53744 0.0
H1425 H 0.92391 0.80398 0.54088 0.0
H1426 H 0.94735 0.77251 0.53503 0.0
C1427 C 0.02805 0.67331 0.54073 0.0
C1428 C 0.01806 0.73341 0.53239 0.0
H1429 H 0.01173 0.78308 0.54774 0.0
C1430 C 0.00164 0.73607 0.52292 0.0
C1431 C 0.02205 0.75075 0.54129 0.0
C1432 C 0.03899 0.74851 0.55194 0.0
C1433 C 0.9888 0.75554 0.52225 0.0
C1434 C 0.99221 0.77251 0.53147 0.0
C1435 C 0.00918 0.77011 0.54064 0.0
C1436 C 0.9773 0.79204 0.53265 0.0
C1437 C 0.97164 0.75766 0.51174 0.0
C1438 C 0.98625 0.81356 0.53319 0.0
C1439 C 0.97293 0.83156 0.53673 0.0
C1440 C 0.9504 0.82837 0.53982 0.0
C1441 C 0.94118 0.80703 0.53853 0.0
C1442 C 0.95455 0.789 0.53507 0.0
H1443 H 0.97627 0.74762 0.50317 0.0
H1444 H 0.95546 0.75135 0.51534 0.0
H1445 H 0.96945 0.77523 0.50874 0.0
H1446 H 0.00377 0.81627 0.53141 0.0
H1447 H 0.98052 0.84782 0.53756 0.0
H1448 H 0.92596 0.18183 0.27234 0.0
H1449 H 0.95934 0.20195 0.26535 0.0
H1450 H 0.95272 0.24627 0.29779 0.0
H1451 H 0.91914 0.22709 0.30442 0.0
H1452 H 0.96507 0.26862 0.27715 0.0
H1453 H 0.01854 0.19362 0.28211 0.0
H1454 H 0.99657 0.1917 0.27049 0.0
H1455 H 0.99001 0.19388 0.28733 0.0
C1456 C 0.93157 0.196 0.27789 0.0
C1457 C 0.92003 0.20273 0.289 0.0
C1458 C 0.95071 0.2074 0.27393 0.0
C1459 C 0.95883 0.22536 0.28119 0.0
C1460 C 0.94683 0.23248 0.29201 0.0
H1461 H 0.08122 0.27134 0.30484 0.0
H1462 H 0.04771 0.25181 0.29844 0.0
C1463 C 0.92761 0.2214 0.29583 0.0
C1464 C 0.98033 0.23634 0.27818 0.0
H1465 H 0.03634 0.22746 0.27842 0.0
C1466 C 0.98068 0.25963 0.27724 0.0
C1467 C 0.00068 0.22454 0.27826 0.0
C1468 C 0.00158 0.19959 0.27969 0.0
C1469 C 0.00073 0.27155 0.27745 0.0
C1470 C 0.02107 0.25977 0.27811 0.0
C1471 C 0.02073 0.23643 0.27795 0.0
C1472 C 0.04243 0.27105 0.28108 0.0
C1473 C -0.00021 0.2966 0.27798 0.0
C1474 C 0.05097 0.28822 0.27334 0.0
C1475 C 0.07007 0.29983 0.27716 0.0
C1476 C 0.08116 0.2941 0.28861 0.0
C1477 C 0.07311 0.27623 0.29597 0.0
C1478 C 0.05394 0.26496 0.29229 0.0
H1479 H 0.98272 0.3028 0.27991 0.0
H1480 H 0.011 0.30311 0.28559 0.0
H1481 H 0.00525 0.30351 0.2686 0.0
H1482 H 0.04273 0.29284 0.26448 0.0
H1483 H 0.07603 0.31336 0.27122 0.0
H1484 H 0.5759 0.19728 0.04598 0.0
H1485 H 0.55234 0.22855 0.03973 0.0
H1486 H 0.49876 0.18332 0.03117 0.0
H1487 H 0.52202 0.15196 0.03771 0.0
H1488 H 0.52739 0.24107 0.01793 0.0
H1489 H 0.47343 0.22179 0.06001 0.0
H1490 H 0.50012 0.2088 0.05769 0.0
H1491 H 0.47647 0.19972 0.04851 0.0
C1492 C 0.55923 0.19393 0.04257 0.0
C1493 C 0.55067 0.1722 0.04258 0.0
C1494 C 0.5458 0.21182 0.03897 0.0
C1495 C 0.52367 0.20826 0.03526 0.0
C1496 C 0.51565 0.18644 0.03428 0.0
H1497 H 0.41855 0.30823 0.03587 0.0
H1498 H 0.43848 0.27429 0.02996 0.0
C1499 C 0.52898 0.16856 0.038 0.0
C1500 C 0.50853 0.22747 0.03369 0.0
H1501 H 0.46414 0.25303 0.04776 0.0
C1502 C 0.5134 0.24361 0.02435 0.0
C1503 C 0.4903 0.23074 0.0421 0.0
C1504 C 0.4848 0.21448 0.05272 0.0
C1505 C 0.50076 0.26316 0.02335 0.0
C1506 C 0.48301 0.26671 0.03204 0.0
C1507 C 0.47765 0.25019 0.04105 0.0
C1508 C 0.4712 0.28824 0.03301 0.0
C1509 C 0.50665 0.27993 0.01312 0.0
C1510 C 0.483 0.30746 0.03641 0.0
C1511 C 0.47169 0.32684 0.03981 0.0
C1512 C 0.44832 0.3273 0.03999 0.0
C1513 C 0.43655 0.30842 0.03587 0.0
C1514 C 0.4479 0.28901 0.03247 0.0
H1515 H 0.51511 0.2719 0.00482 0.0
H1516 H 0.49166 0.28877 0.00957 0.0
H1517 H 0.51823 0.29238 0.01724 0.0
H1518 H 0.50095 0.30713 0.03717 0.0
H1519 H 0.48127 0.34111 0.0429 0.0
H1520 H 0.54923 0.17481 0.70168 0.0
H1521 H 0.51858 0.1995 0.70747 0.0
H1522 H 0.56505 0.2527 0.71441 0.0
H1523 H 0.59581 0.22827 0.70837 0.0
H1524 H 0.50717 0.22672 0.72882 0.0
H1525 H 0.52648 0.27615 0.6849 0.0
H1526 H 0.53882 0.24936 0.68792 0.0
H1527 H 0.54875 0.27352 0.6963 0.0
C1528 C 0.55299 0.19164 0.70466 0.0
C1529 C 0.5749 0.19972 0.70433 0.0
C1530 C 0.53545 0.20572 0.70799 0.0
C1531 C 0.53953 0.22803 0.7111 0.0
C1532 C 0.56153 0.23565 0.71177 0.0
H1533 H 0.44141 0.33484 0.7079 0.0
H1534 H 0.47532 0.31493 0.71389 0.0
C1535 C 0.57908 0.22165 0.70834 0.0
C1536 C 0.52068 0.24369 0.71233 0.0
H1537 H 0.49559 0.28708 0.697 0.0
C1538 C 0.50472 0.24009 0.72196 0.0
C1539 C 0.51755 0.26111 0.70335 0.0
C1540 C 0.53367 0.26525 0.69246 0.0
C1541 C 0.48545 0.25321 0.7227 0.0
C1542 C 0.48198 0.2701 0.71345 0.0
C1543 C 0.49835 0.27422 0.70413 0.0
C1544 C 0.46065 0.28222 0.71228 0.0
C1545 C 0.46891 0.24874 0.7333 0.0
C1546 C 0.44106 0.27046 0.70962 0.0
C1547 C 0.42169 0.28176 0.70618 0.0
C1548 C 0.4216 0.30507 0.70522 0.0
C1549 C 0.44093 0.31689 0.70853 0.0
C1550 C 0.46032 0.30554 0.71197 0.0
H1551 H 0.47708 0.2411 0.74181 0.0
H1552 H 0.4604 0.26422 0.73637 0.0
H1553 H 0.45618 0.2369 0.72974 0.0
H1554 H 0.44102 0.25246 0.7095 0.0
H1555 H 0.40708 0.27214 0.70373 0.0
H1556 H 0.4718 0.65505 0.45923 0.0
H1557 H 0.49598 0.68571 0.46566 0.0
H1558 H 0.44291 0.73221 0.45842 0.0
H1559 H 0.4185 0.70164 0.45219 0.0
H1560 H 0.50761 0.71749 0.44872 0.0
H1561 H 0.46925 0.75724 0.49126 0.0
H1562 H 0.46188 0.72958 0.48601 0.0
H1563 H 0.44977 0.75353 0.47836 0.0
C1564 C 0.4651 0.67176 0.45928 0.0
C1565 C 0.44329 0.67595 0.45507 0.0
C1566 C 0.47894 0.68925 0.463 0.0
C1567 C 0.47122 0.71123 0.46263 0.0
C1568 C 0.44909 0.71535 0.45907 0.0
H1569 H 0.51884 0.84107 0.45121 0.0
H1570 H 0.4983 0.80759 0.45695 0.0
C1571 C 0.43519 0.69785 0.45541 0.0
C1572 C 0.48704 0.72994 0.46407 0.0
H1573 H 0.49458 0.78 0.47891 0.0
C1574 C 0.50506 0.73094 0.45552 0.0
C1575 C 0.48361 0.7475 0.4729 0.0
C1576 C 0.46519 0.74683 0.48274 0.0
C1577 C 0.519 0.74957 0.45502 0.0
C1578 C 0.51506 0.76753 0.46351 0.0
C1579 C 0.49758 0.76618 0.47244 0.0
C1580 C 0.52746 0.78867 0.46224 0.0
C1581 C 0.53699 0.75039 0.44489 0.0
C1582 C 0.55061 0.78941 0.46381 0.0
C1583 C 0.56249 0.80852 0.46042 0.0
C1584 C 0.55133 0.8272 0.45548 0.0
C1585 C 0.52798 0.8269 0.45484 0.0
C1586 C 0.51618 0.8078 0.45818 0.0
H1587 H 0.53504 0.73707 0.43757 0.0
H1588 H 0.53697 0.76669 0.43988 0.0
H1589 H 0.55343 0.74822 0.44956 0.0
H1590 H 0.55957 0.77492 0.46717 0.0
H1591 H 0.58043 0.8083 0.46116 0.0
H1592 H 0.09215 0.72935 0.20347 0.0
H1593 H 0.05847 0.74927 0.20945 0.0
H1594 H 0.0247 0.68703 0.21581 0.0
H1595 H 0.05834 0.66685 0.20962 0.0
H1596 H 0.00372 0.71351 0.19848 0.0
H1597 H 0.02352 0.76291 0.24186 0.0
H1598 H 0.044 0.76628 0.22947 0.0
H1599 H 0.04013 0.73946 0.23682 0.0
C1600 C 0.07773 0.71985 0.20641 0.0
C1601 C 0.07784 0.69649 0.20591 0.0
C1602 C 0.05853 0.7313 0.20997 0.0
C1603 C 0.03913 0.71965 0.21321 0.0
C1604 C 0.03955 0.69633 0.21343 0.0
H1605 H 0.90384 0.7732 0.20921 0.0
H1606 H 0.93476 0.74925 0.21562 0.0
C1607 C 0.05879 0.68483 0.20987 0.0
C1608 C 0.01779 0.73176 0.21434 0.0
H1609 H 0.99302 0.7763 0.2288 0.0
C1610 C 0.00115 0.72691 0.20531 0.0
C1611 C 0.01458 0.74935 0.22317 0.0
C1612 C 0.03144 0.75467 0.23346 0.0
C1613 C 0.98193 0.73994 0.20436 0.0
C1614 C 0.97905 0.75805 0.2129 0.0
C1615 C 0.99528 0.7624 0.22228 0.0
C1616 C 0.96018 0.77361 0.21143 0.0
C1617 C 0.96552 0.73498 0.19374 0.0
C1618 C 0.96419 0.79565 0.20768 0.0
C1619 C 0.94656 0.80946 0.20414 0.0
C1620 C 0.92465 0.80138 0.20422 0.0
C1621 C 0.92058 0.77979 0.20885 0.0
C1622 C 0.93821 0.76607 0.21249 0.0
H1623 H 0.97251 0.72349 0.1864 0.0
H1624 H 0.95054 0.72704 0.19792 0.0
H1625 H 0.96026 0.7505 0.18883 0.0
H1626 H 0.98105 0.80181 0.20685 0.0
H1627 H 0.95024 0.82604 0.20069 0.0
H1628 H 0.07346 0.29863 0.95049 0.0
H1629 H 0.04885 0.26816 0.95674 0.0
H1630 H 0.99641 0.31505 0.9646 0.0
H1631 H 0.02074 0.34562 0.95811 0.0
H1632 H 0.02288 0.25705 0.9786 0.0
H1633 H 0.97087 0.27647 0.93572 0.0
H1634 H 0.9979 0.28866 0.93816 0.0
H1635 H 0.97433 0.2988 0.94701 0.0
C1636 C 0.05681 0.30252 0.95375 0.0
C1637 C 0.0489 0.32449 0.95357 0.0
C1638 C 0.04279 0.28508 0.95735 0.0
C1639 C 0.02068 0.28934 0.96087 0.0
C1640 C 0.01327 0.3114 0.96165 0.0
H1641 H 0.91279 0.19232 0.96002 0.0
H1642 H 0.93342 0.22598 0.96567 0.0
C1643 C 0.02722 0.32883 0.95796 0.0
C1644 C 0.00497 0.27061 0.96246 0.0
H1645 H 0.96036 0.24582 0.94816 0.0
C1646 C 0.00905 0.25468 0.97205 0.0
C1647 C 0.98695 0.26757 0.95388 0.0
C1648 C 0.98227 0.28364 0.94304 0.0
C1649 C 0.99579 0.23554 0.97313 0.0
C1650 C 0.97827 0.23218 0.96426 0.0
C1651 C 0.97372 0.24851 0.955 0.0
C1652 C 0.96585 0.21096 0.96341 0.0
C1653 C 0.00081 0.21904 0.98366 0.0
C1654 C 0.97724 0.19123 0.96055 0.0
C1655 C 0.96552 0.17201 0.95731 0.0
C1656 C 0.94217 0.17219 0.95676 0.0
C1657 C 0.93076 0.19163 0.96033 0.0
C1658 C 0.94252 0.21088 0.96357 0.0
H1659 H 0.00906 0.22719 0.99198 0.0
H1660 H 0.98546 0.21067 0.98708 0.0
H1661 H 0.0123 0.20618 0.97987 0.0
H1662 H 0.99521 0.191 0.96008 0.0
H1663 H 0.97483 0.15731 0.95465 0.0
H1664 H 0.52845 0.05361 0.09831 0.0
H1665 H 0.49542 0.05141 0.11203 0.0
H1666 H 0.47804 0.11855 0.1015 0.0
H1667 H 0.51037 0.12057 0.08747 0.0
H1668 H 0.48522 0.07385 0.13259 0.0
H1669 H 0.41927 0.0894 0.09708 0.0
H1670 H 0.44737 0.08296 0.0923 0.0
H1671 H 0.43946 0.11117 0.09601 0.0
C1672 C 0.51742 0.0678 0.09881 0.0
C1673 C 0.52196 0.08724 0.09175 0.0
C1674 C 0.49854 0.0665 0.10663 0.0
C1675 C 0.48394 0.08461 0.10757 0.0
C1676 C 0.48858 0.10405 0.10059 0.0
H1677 H 0.41469 0.1417 0.16742 0.0
H1678 H 0.44075 0.12133 0.15414 0.0
C1679 C 0.50722 0.10527 0.09265 0.0
C1680 C 0.46483 0.08413 0.11659 0.0
H1681 H 0.41096 0.10095 0.11915 0.0
C1682 C 0.46882 0.07926 0.12961 0.0
C1683 C 0.44319 0.09041 0.1127 0.0
C1684 C 0.43705 0.0935 0.09872 0.0
C1685 C 0.45234 0.08252 0.13897 0.0
C1686 C 0.43161 0.09159 0.13525 0.0
C1687 C 0.42698 0.09444 0.1221 0.0
C1688 C 0.4158 0.10105 0.14475 0.0
C1689 C 0.45758 0.07672 0.15277 0.0
C1690 C 0.39291 0.09664 0.14391 0.0
C1691 C 0.37777 0.10875 0.15135 0.0
C1692 C 0.38528 0.12546 0.15977 0.0
C1693 C 0.40827 0.12892 0.16109 0.0
C1694 C 0.42331 0.11705 0.15357 0.0
H1695 H 0.46872 0.06202 0.15325 0.0
H1696 H 0.46648 0.09081 0.15734 0.0
H1697 H 0.4423 0.07313 0.15839 0.0
H1698 H 0.38671 0.08446 0.13713 0.0
H1699 H 0.36018 0.10563 0.15012 0.0
H1700 H 0.18538 0.28765 0.35602 0.0
H1701 H 0.1851 0.25698 0.37153 0.0
H1702 H 0.13508 0.22346 0.34903 0.0
H1703 H 0.135 0.25396 0.33361 0.0
H1704 H 0.12401 0.23023 0.37499 0.0
H1705 H 0.20746 0.19153 0.36956 0.0
H1706 H 0.20672 0.22123 0.37157 0.0
H1707 H 0.19527 0.20898 0.35729 0.0
C1708 C 0.17452 0.27362 0.35429 0.0
C1709 C 0.16006 0.27335 0.34363 0.0
C1710 C 0.17452 0.25605 0.36311 0.0
C1711 C 0.16021 0.23792 0.36134 0.0
C1712 C 0.1463 0.2373 0.35052 0.0
H1713 H 0.13241 0.11327 0.39641 0.0
H1714 H 0.14957 0.14279 0.38362 0.0
C1715 C 0.14623 0.25481 0.34174 0.0
C1716 C 0.15785 0.22061 0.37134 0.0
H1717 H 0.18408 0.17695 0.38586 0.0
C1718 C 0.13717 0.21866 0.37743 0.0
C1719 C 0.17507 0.20554 0.3744 0.0
C1720 C 0.19738 0.2067 0.36783 0.0
C1721 C 0.13303 0.20178 0.38636 0.0
C1722 C 0.15025 0.18671 0.38951 0.0
C1723 C 0.17106 0.18874 0.38352 0.0
C1724 C 0.14601 0.16796 0.39835 0.0
C1725 C 0.10997 0.19976 0.39199 0.0
C1726 C 0.13967 0.17208 0.41112 0.0
C1727 C 0.12958 0.15539 0.41837 0.0
C1728 C 0.12603 0.13424 0.413 0.0
C1729 C 0.13482 0.12944 0.40077 0.0
C1730 C 0.14466 0.14628 0.39345 0.0
H1731 H 0.09757 0.20967 0.38652 0.0
H1732 H 0.10444 0.18215 0.39211 0.0
H1733 H 0.11012 0.20591 0.40206 0.0
H1734 H 0.14094 0.18866 0.41512 0.0
H1735 H 0.12328 0.15946 0.42785 0.0
H1736 H 0.08646 0.86722 0.67465 0.0
H1737 H 0.05811 0.88434 0.66108 0.0
H1738 H 0.10813 0.90211 0.63323 0.0
H1739 H 0.13677 0.88521 0.64679 0.0
H1740 H 0.06837 0.93383 0.63679 0.0
H1741 H 0.04901 0.84484 0.62744 0.0
H1742 H 0.04969 0.85303 0.64408 0.0
H1743 H 0.07476 0.85368 0.63471 0.0
C1744 C 0.09158 0.87537 0.66583 0.0
C1745 C 0.11379 0.87441 0.66165 0.0
C1746 C 0.07535 0.88519 0.65812 0.0
C1747 C 0.08106 0.89411 0.6461 0.0
C1748 C 0.10347 0.89526 0.64249 0.0
H1749 H 0.99677 0.88988 0.57925 0.0
H1750 H 0.02834 0.88972 0.59397 0.0
C1751 C 0.11979 0.88554 0.65025 0.0
C1752 C 0.06352 0.89841 0.6365 0.0
H1753 H 0.02568 0.87135 0.61779 0.0
C1754 C 0.05899 0.92026 0.6326 0.0
C1755 C 0.05166 0.88055 0.63094 0.0
C1756 C 0.05656 0.85667 0.63439 0.0
C1757 C 0.04248 0.92471 0.62336 0.0
C1758 C 0.03026 0.90683 0.61805 0.0
C1759 C 0.03506 0.88503 0.62189 0.0
C1760 C 0.01234 0.90999 0.60847 0.0
C1761 C 0.03851 0.94838 0.61921 0.0
C1762 C 0.99298 0.92174 0.61166 0.0
C1763 C 0.97487 0.92193 0.60323 0.0
C1764 C 0.97574 0.91011 0.59155 0.0
C1765 C 0.99546 0.89899 0.58821 0.0
C1766 C 0.01356 0.89895 0.59659 0.0
H1767 H 0.05286 0.95925 0.62158 0.0
H1768 H 0.03529 0.94934 0.60869 0.0
H1769 H 0.0237 0.95495 0.6243 0.0
H1770 H 0.99152 0.92997 0.62089 0.0
H1771 H 0.95991 0.93064 0.60609 0.0
H1772 H 0.36523 0.7438 0.83564 0.0
H1773 H 0.36506 0.7735 0.85162 0.0
H1774 H 0.31236 0.74063 0.87229 0.0
H1775 H 0.31225 0.7107 0.85628 0.0
H1776 H 0.30911 0.79055 0.86931 0.0
H1777 H 0.38905 0.75925 0.88894 0.0
H1778 H 0.38873 0.7632 0.87178 0.0
H1779 H 0.37112 0.74249 0.87894 0.0
C1780 C 0.35343 0.74291 0.8435 0.0
C1781 C 0.33894 0.72471 0.84476 0.0
C1782 C 0.35336 0.75992 0.85261 0.0
C1783 C 0.33886 0.75906 0.86315 0.0
C1784 C 0.32368 0.7415 0.86419 0.0
H1785 H 0.37605 0.8391 0.9288 0.0
H1786 H 0.35778 0.80942 0.91679 0.0
C1787 C 0.32372 0.72441 0.85507 0.0
C1788 C 0.34086 0.77573 0.87351 0.0
H1789 H 0.37764 0.79509 0.89572 0.0
C1790 C 0.32393 0.79148 0.87523 0.0
C1791 C 0.36002 0.77654 0.88133 0.0
C1792 C 0.37821 0.75936 0.88028 0.0
C1793 C 0.32622 0.80877 0.88424 0.0
C1794 C 0.34603 0.81034 0.89152 0.0
C1795 C 0.36244 0.79393 0.89015 0.0
C1796 C 0.35121 0.82954 0.89994 0.0
C1797 C 0.30752 0.82522 0.88581 0.0
C1798 C 0.35259 0.85102 0.89471 0.0
C1799 C 0.3628 0.86812 0.90163 0.0
C1800 C 0.37219 0.86385 0.91377 0.0
C1801 C 0.36917 0.84283 0.9194 0.0
C1802 C 0.3587 0.82585 0.91256 0.0
H1803 H 0.2913 0.81771 0.88315 0.0
H1804 H 0.30651 0.83148 0.89585 0.0
H1805 H 0.31044 0.83956 0.87931 0.0
H1806 H 0.34734 0.85418 0.8849 0.0
H1807 H 0.36494 0.88413 0.89703 0.0
H1808 H 0.50809 0.87939 0.41132 0.0
H1809 H 0.4778 0.87829 0.39572 0.0
H1810 H 0.5077 0.93223 0.37462 0.0
H1811 H 0.53815 0.93366 0.39025 0.0
H1812 H 0.45891 0.93443 0.37795 0.0
H1813 H 0.48972 0.85414 0.35861 0.0
H1814 H 0.48609 0.85453 0.37578 0.0
H1815 H 0.50665 0.87214 0.36848 0.0
C1816 C 0.50822 0.89115 0.40343 0.0
C1817 C 0.52571 0.90643 0.40195 0.0
C1818 C 0.49088 0.89049 0.39453 0.0
C1819 C 0.49073 0.905 0.38397 0.0
C1820 C 0.50762 0.92088 0.38271 0.0
H1821 H 0.40907 0.86669 0.3192 0.0
H1822 H 0.43906 0.8847 0.33109 0.0
C1823 C 0.52502 0.92158 0.39163 0.0
C1824 C 0.47359 0.90255 0.37391 0.0
H1825 H 0.45352 0.86519 0.35222 0.0
C1826 C 0.45779 0.91944 0.37219 0.0
C1827 C 0.47251 0.88316 0.36628 0.0
C1828 C 0.48975 0.86502 0.36726 0.0
C1829 C 0.44024 0.91693 0.36337 0.0
C1830 C 0.43845 0.89695 0.35627 0.0
C1831 C 0.45484 0.88052 0.35766 0.0
C1832 C 0.41913 0.8917 0.34796 0.0
C1833 C 0.42379 0.93563 0.36178 0.0
C1834 C 0.39768 0.89062 0.35325 0.0
C1835 C 0.3804 0.88057 0.34639 0.0
C1836 C 0.38447 0.87104 0.33426 0.0
C1837 C 0.40551 0.8737 0.32859 0.0
C1838 C 0.42265 0.88401 0.33536 0.0
H1839 H 0.43137 0.9519 0.36429 0.0
H1840 H 0.41737 0.93646 0.35177 0.0
H1841 H 0.40955 0.93286 0.36837 0.0
H1842 H 0.39464 0.89601 0.36304 0.0
H1843 H 0.36439 0.87868 0.35103 0.0
H1844 H 0.39426 0.16484 0.57895 0.0
H1845 H 0.37481 0.19063 0.5929 0.0
H1846 H 0.33757 0.13647 0.60948 0.0
H1847 H 0.35786 0.11014 0.59585 0.0
H1848 H 0.33341 0.20311 0.59762 0.0
H1849 H 0.36808 0.16057 0.64081 0.0
H1850 H 0.37649 0.15332 0.62471 0.0
H1851 H 0.35012 0.1441 0.63086 0.0
C1852 C 0.38176 0.15831 0.58543 0.0
C1853 C 0.37798 0.13532 0.58647 0.0
C1854 C 0.37056 0.17316 0.59339 0.0
C1855 C 0.35514 0.16545 0.60248 0.0
C1856 C 0.34989 0.14271 0.60281 0.0
H1857 H 0.30354 0.27623 0.64993 0.0
H1858 H 0.30266 0.24336 0.63604 0.0
C1859 C 0.36139 0.12771 0.59494 0.0
C1860 C 0.3464 0.18126 0.61219 0.0
H1861 H 0.34995 0.19432 0.64411 0.0
C1862 C 0.3367 0.2011 0.60783 0.0
C1863 C 0.35084 0.17859 0.6255 0.0
C1864 C 0.36209 0.15811 0.63079 0.0
C1865 C 0.33275 0.21894 0.61623 0.0
C1866 C 0.33789 0.21651 0.62946 0.0
C1867 C 0.3461 0.19612 0.63396 0.0
C1868 C 0.33753 0.23558 0.6385 0.0
C1869 C 0.32464 0.24065 0.61067 0.0
C1870 C 0.35716 0.24159 0.64492 0.0
C1871 C 0.3576 0.26 0.65306 0.0
C1872 C 0.33844 0.27295 0.65484 0.0
C1873 C 0.31865 0.26672 0.6486 0.0
C1874 C 0.31814 0.24802 0.64061 0.0
H1875 H 0.32623 0.24113 0.60001 0.0
H1876 H 0.30682 0.24287 0.61309 0.0
H1877 H 0.33403 0.25488 0.61475 0.0
H1878 H 0.37234 0.23225 0.64344 0.0
H1879 H 0.37309 0.26438 0.65773 0.0
H1880 H 0.98093 0.12578 0.90861 0.0
H1881 H 0.01293 0.12549 0.89424 0.0
H1882 H 0.00016 0.05679 0.88492 0.0
H1883 H 0.96742 0.05724 0.89893 0.0
H1884 H 0.05029 0.10199 0.89444 0.0
H1885 H 0.0033 0.08344 0.84958 0.0
H1886 H 0.98962 0.09038 0.86448 0.0
H1887 H 0.00087 0.06301 0.86209 0.0
C1888 C 0.98489 0.1106 0.9035 0.0
C1889 C 0.97154 0.0916 0.90481 0.0
C1890 C 0.00323 0.11043 0.89531 0.0
C1891 C 0.00878 0.09121 0.88835 0.0
C1892 C 0.99588 0.07197 0.88993 0.0
H1893 H 0.1353 0.11039 0.84651 0.0
H1894 H 0.10807 0.09053 0.85978 0.0
C1895 C 0.97725 0.07223 0.89798 0.0
C1896 C 0.02793 0.09184 0.87939 0.0
H1897 H 0.04155 0.08975 0.84751 0.0
C1898 C 0.0485 0.09908 0.88418 0.0
C1899 C 0.0255 0.08796 0.86602 0.0
C1900 C 0.00362 0.08094 0.86018 0.0
C1901 C 0.06625 0.10403 0.87592 0.0
C1902 C 0.06361 0.10081 0.8625 0.0
C1903 C 0.04353 0.09211 0.8578 0.0
C1904 C 0.07989 0.1097 0.85311 0.0
C1905 C 0.08701 0.11418 0.8816 0.0
C1906 C 0.07289 0.12601 0.84435 0.0
C1907 C 0.08823 0.13699 0.8366 0.0
C1908 C 0.11101 0.13208 0.83752 0.0
C1909 C 0.1179 0.11478 0.84572 0.0
C1910 C 0.10239 0.10352 0.85337 0.0
H1911 H 0.08457 0.1195 0.89175 0.0
H1912 H 0.10061 0.10174 0.88144 0.0
H1913 H 0.0924 0.12884 0.87591 0.0
H1914 H 0.05561 0.13102 0.84393 0.0
H1915 H 0.08228 0.15009 0.83034 0.0
H1916 H 0.12564 0.73664 0.15759 0.0
H1917 H 0.12685 0.76812 0.14288 0.0
H1918 H 0.19427 0.75149 0.13252 0.0
H1919 H 0.19284 0.71923 0.1469 0.0
H1920 H 0.15213 0.80423 0.14208 0.0
H1921 H 0.16585 0.7544 0.09764 0.0
H1922 H 0.15911 0.74172 0.11287 0.0
H1923 H 0.18679 0.75166 0.10984 0.0
C1924 C 0.14075 0.73965 0.1522 0.0
C1925 C 0.15907 0.72534 0.15331 0.0
C1926 C 0.14145 0.7577 0.14381 0.0
C1927 C 0.16054 0.762 0.13645 0.0
C1928 C 0.17917 0.74818 0.13785 0.0
H1929 H 0.14168 0.88692 0.09312 0.0
H1930 H 0.16233 0.85988 0.10609 0.0
C1931 C 0.17836 0.72983 0.14611 0.0
C1932 C 0.1603 0.78075 0.1272 0.0
H1933 H 0.16048 0.79265 0.09506 0.0
C1934 C 0.15422 0.80182 0.1318 0.0
C1935 C 0.16313 0.77751 0.1138 0.0
C1936 C 0.16891 0.7551 0.10819 0.0
C1937 C 0.14924 0.8193 0.12335 0.0
C1938 C 0.1513 0.81584 0.10991 0.0
C1939 C 0.15899 0.79525 0.10536 0.0
C1940 C 0.14202 0.83182 0.10046 0.0
C1941 C 0.1402 0.84066 0.12891 0.0
C1942 C 0.12481 0.82476 0.09232 0.0
C1943 C 0.11338 0.83999 0.08471 0.0
C1944 C 0.11873 0.86271 0.08519 0.0
C1945 C 0.13694 0.86959 0.0927 0.0
C1946 C 0.14866 0.85418 0.10018 0.0
H1947 H 0.1357 0.83894 0.13923 0.0
H1948 H 0.153 0.85385 0.12813 0.0
H1949 H 0.12523 0.84617 0.12354 0.0
H1950 H 0.11943 0.80758 0.09232 0.0
H1951 H 0.09956 0.83404 0.07898 0.0
H1952 H 0.49075 0.88233 0.91406 0.0
H1953 H 0.52149 0.88102 0.89879 0.0
H1954 H 0.48859 0.92945 0.87486 0.0
H1955 H 0.45779 0.93121 0.89022 0.0
H1956 H 0.51674 0.86779 0.87363 0.0
H1957 H 0.55278 0.95268 0.87625 0.0
H1958 H 0.53445 0.94173 0.88848 0.0
H1959 H 0.52332 0.95158 0.87348 0.0
C1960 C 0.4901 0.89291 0.90563 0.0
C1961 C 0.47173 0.90678 0.90333 0.0
C1962 C 0.50773 0.89218 0.89694 0.0
C1963 C 0.5074 0.90529 0.88577 0.0
C1964 C 0.48936 0.91953 0.88355 0.0
H1965 H 0.58499 0.86641 0.81925 0.0
H1966 H 0.55547 0.88233 0.83248 0.0
C1967 C 0.47171 0.92037 0.89229 0.0
C1968 C 0.52499 0.90235 0.87597 0.0
H1969 H 0.56704 0.92877 0.86002 0.0
C1970 C 0.52772 0.88114 0.87064 0.0
C1971 C 0.5393 0.9198 0.87216 0.0
C1972 C 0.53753 0.94271 0.87795 0.0
C1973 C 0.54449 0.87676 0.86167 0.0
C1974 C 0.55861 0.89425 0.85768 0.0
C1975 C 0.55594 0.91553 0.86298 0.0
C1976 C 0.57697 0.89005 0.84855 0.0
C1977 C 0.54732 0.85327 0.85681 0.0
C1978 C 0.59903 0.8906 0.8529 0.0
C1979 C 0.61602 0.8817 0.84531 0.0
C1980 C 0.61108 0.87199 0.83332 0.0
C1981 C 0.58927 0.87344 0.82852 0.0
C1982 C 0.57238 0.88252 0.83606 0.0
H1983 H 0.53837 0.84104 0.86292 0.0
H1984 H 0.54057 0.85206 0.84689 0.0
H1985 H 0.56516 0.84859 0.8565 0.0
H1986 H 0.60288 0.89647 0.86251 0.0
H1987 H 0.63266 0.88093 0.84925 0.0
H1988 H 0.85581 0.88383 0.5931 0.0
H1989 H 0.83663 0.85567 0.60602 0.0
H1990 H 0.87939 0.80502 0.5902 0.0
H1991 H 0.89781 0.83262 0.57693 0.0
H1992 H 0.83874 0.78907 0.59394 0.0
H1993 H 0.86703 0.83382 0.63793 0.0
H1994 H 0.84853 0.84902 0.62764 0.0
H1995 H 0.87589 0.84186 0.62204 0.0
C1996 C 0.86081 0.86662 0.5922 0.0
C1997 C 0.87863 0.86055 0.58417 0.0
C1998 C 0.84993 0.85058 0.59965 0.0
C1999 C 0.85703 0.82835 0.59936 0.0
C2000 C 0.8737 0.82208 0.59065 0.0
H2001 H 0.87712 0.73127 0.65562 0.0
H2002 H 0.8759 0.76235 0.64061 0.0
C2003 C 0.8843 0.83797 0.58309 0.0
C2004 C 0.84893 0.81178 0.60882 0.0
H2005 H 0.85089 0.79896 0.64081 0.0
C2006 C 0.84107 0.79129 0.60422 0.0
C2007 C 0.85215 0.81473 0.62222 0.0
C2008 C 0.86152 0.83594 0.62779 0.0
C2009 C 0.83769 0.77322 0.61253 0.0
C2010 C 0.84157 0.77601 0.62588 0.0
C2011 C 0.848 0.7969 0.63057 0.0
C2012 C 0.84167 0.75702 0.63496 0.0
C2013 C 0.83147 0.75099 0.60684 0.0
C2014 C 0.8228 0.7437 0.63681 0.0
C2015 C 0.82358 0.72561 0.64526 0.0
C2016 C 0.84311 0.72087 0.65218 0.0
C2017 C 0.86182 0.7345 0.65046 0.0
C2018 C 0.86112 0.75231 0.6419 0.0
H2019 H 0.83384 0.7506 0.59623 0.0
H2020 H 0.84151 0.73746 0.61118 0.0
H2021 H 0.8137 0.74757 0.60887 0.0
H2022 H 0.80746 0.74733 0.63179 0.0
H2023 H 0.80882 0.71553 0.6465 0.0
H2024 H 0.86365 0.10481 0.34378 0.0
H2025 H 0.89088 0.08508 0.35709 0.0
H2026 H 0.94348 0.12452 0.34051 0.0
H2027 H 0.91681 0.14339 0.32686 0.0
H2028 H 0.95783 0.08384 0.34538 0.0
H2029 H 0.91339 0.11677 0.38839 0.0
H2030 H 0.89777 0.09806 0.37844 0.0
H2031 H 0.9059 0.12477 0.37225 0.0
C2032 C 0.88108 0.1089 0.34277 0.0
C2033 C 0.88798 0.12602 0.33446 0.0
C2034 C 0.8966 0.09773 0.35046 0.0
C2035 C 0.91913 0.10384 0.3501 0.0
C2036 C 0.92618 0.11962 0.34104 0.0
H2037 H 0.01616 0.1254 0.4063 0.0
H2038 H 0.98483 0.12381 0.39145 0.0
C2039 C 0.91082 0.13049 0.33325 0.0
C2040 C 0.93525 0.09584 0.35986 0.0
H2041 H 0.94777 0.10001 0.39183 0.0
C2042 C 0.95556 0.08705 0.35558 0.0
C2043 C 0.93225 0.10022 0.37316 0.0
C2044 C 0.91126 0.11062 0.37837 0.0
C2045 C 0.97345 0.08389 0.36405 0.0
C2046 C 0.97064 0.08891 0.37727 0.0
C2047 C 0.94986 0.09625 0.38169 0.0
C2048 C 0.98953 0.08919 0.38644 0.0
C2049 C 0.99556 0.07669 0.3586 0.0
C2050 C 0.00254 0.07021 0.38865 0.0
C2051 C 0.02078 0.07121 0.39697 0.0
C2052 C 0.02598 0.09108 0.40345 0.0
C2053 C 0.01257 0.10986 0.40148 0.0
C2054 C 0.99462 0.10894 0.393 0.0
H2055 H 0.99616 0.0784 0.34795 0.0
H2056 H 0.00934 0.08659 0.36279 0.0
H2057 H 0.99843 0.05895 0.36098 0.0
H2058 H 0.99859 0.05464 0.38395 0.0
H2059 H 0.03066 0.05639 0.39844 0.0
H2060 H 0.6361 0.2523 0.16853 0.0
H2061 H 0.63507 0.22034 0.15411 0.0
H2062 H 0.67916 0.25395 0.12779 0.0
H2063 H 0.68065 0.28596 0.1423 0.0
H2064 H 0.61863 0.2233 0.12967 0.0
H2065 H 0.70501 0.19093 0.12874 0.0
H2066 H 0.69503 0.20939 0.14118 0.0
H2067 H 0.70259 0.2202 0.12566 0.0
C2068 C 0.64585 0.25282 0.15977 0.0
C2069 C 0.65831 0.27177 0.15651 0.0
C2070 C 0.64531 0.23449 0.15156 0.0
C2071 C 0.65719 0.23471 0.13995 0.0
C2072 C 0.67023 0.25327 0.13684 0.0
H2073 H 0.61652 0.16026 0.07332 0.0
H2074 H 0.63305 0.18838 0.0873 0.0
C2075 C 0.6709 0.27162 0.14509 0.0
C2076 C 0.65376 0.21663 0.1305 0.0
H2077 H 0.67997 0.17618 0.11309 0.0
C2078 C 0.63205 0.21296 0.1261 0.0
C2079 C 0.67129 0.20315 0.12589 0.0
C2080 C 0.69478 0.20592 0.13068 0.0
C2081 C 0.62735 0.19625 0.11714 0.0
C2082 C 0.64492 0.18312 0.11228 0.0
C2083 C 0.66664 0.18653 0.11676 0.0
C2084 C 0.64045 0.16549 0.10275 0.0
C2085 C 0.60354 0.19262 0.11305 0.0
C2086 C 0.64037 0.14315 0.10658 0.0
C2087 C 0.63098 0.12697 0.0986 0.0
C2088 C 0.62144 0.13302 0.08673 0.0
C2089 C 0.62345 0.15511 0.08248 0.0
C2090 C 0.63293 0.1712 0.09042 0.0
H2091 H 0.59161 0.20108 0.11958 0.0
H2092 H 0.60115 0.19935 0.1032 0.0
H2093 H 0.59952 0.17461 0.11282 0.0
H2094 H 0.64612 0.13849 0.11609 0.0
H2095 H 0.62972 0.1101 0.10215 0.0
H2096 H 0.58277 0.14165 0.6692 0.0
H2097 H 0.55669 0.12147 0.65583 0.0
H2098 H 0.61051 0.08347 0.63943 0.0
H2099 H 0.63708 0.10445 0.6525 0.0
H2100 H 0.5871 0.10012 0.6212 0.0
H2101 H 0.52759 0.06275 0.65486 0.0
H2102 H 0.53023 0.09155 0.65885 0.0
H2103 H 0.55404 0.07345 0.66024 0.0
C2104 C 0.58912 0.12866 0.66299 0.0
C2105 C 0.61208 0.12483 0.66185 0.0
C2106 C 0.57407 0.11689 0.65542 0.0
C2107 C 0.58152 0.10065 0.64674 0.0
C2108 C 0.60434 0.09586 0.64611 0.0
H2109 H 0.46939 0.05485 0.5993 0.0
H2110 H 0.50189 0.05218 0.6134 0.0
C2111 C 0.61952 0.10786 0.65359 0.0
C2112 C 0.56579 0.09137 0.63713 0.0
H2113 H 0.51192 0.07467 0.634 0.0
C2114 C 0.57087 0.09396 0.62401 0.0
C2115 C 0.54478 0.08276 0.64067 0.0
C2116 C 0.53901 0.07724 0.65444 0.0
C2117 C 0.55487 0.09014 0.61446 0.0
C2118 C 0.533 0.08434 0.61816 0.0
C2119 C 0.52851 0.07972 0.63116 0.0
C2120 C 0.51418 0.0851 0.60894 0.0
C2121 C 0.56149 0.09292 0.60054 0.0
C2122 C 0.51016 0.10454 0.60184 0.0
C2123 C 0.49181 0.10602 0.59368 0.0
C2124 C 0.47677 0.08826 0.59268 0.0
C2125 C 0.48068 0.06883 0.59987 0.0
C2126 C 0.49925 0.06726 0.60792 0.0
H2127 H 0.57923 0.08846 0.59909 0.0
H2128 H 0.55115 0.08251 0.59406 0.0
H2129 H 0.55952 0.1106 0.59773 0.0
H2130 H 0.52095 0.11884 0.60281 0.0
H2131 H 0.48915 0.12131 0.58841 0.0
H2132 H 0.62772 0.74326 0.33932 0.0
H2133 H 0.6319 0.77504 0.35359 0.0
H2134 H 0.69801 0.75337 0.36364 0.0
H2135 H 0.6936 0.72087 0.34967 0.0
H2136 H 0.67673 0.76449 0.38438 0.0
H2137 H 0.66427 0.83209 0.34961 0.0
H2138 H 0.64139 0.81324 0.3483 0.0
H2139 H 0.66912 0.80383 0.34451 0.0
C2140 C 0.64326 0.74534 0.34445 0.0
C2141 C 0.66034 0.72956 0.34334 0.0
C2142 C 0.64572 0.76368 0.35252 0.0
C2143 C 0.66551 0.76697 0.35943 0.0
C2144 C 0.68269 0.75131 0.35829 0.0
H2145 H 0.64545 0.88945 0.40285 0.0
H2146 H 0.66763 0.8634 0.3901 0.0
C2147 C 0.68012 0.73273 0.35034 0.0
C2148 C 0.66721 0.78577 0.3686 0.0
H2149 H 0.65225 0.84006 0.37175 0.0
C2150 C 0.67194 0.78117 0.38157 0.0
C2151 C 0.66185 0.80777 0.36495 0.0
C2152 C 0.65916 0.81452 0.35104 0.0
C2153 C 0.66917 0.79743 0.39112 0.0
C2154 C 0.66068 0.81852 0.38764 0.0
C2155 C 0.65825 0.82376 0.37453 0.0
C2156 C 0.651 0.83398 0.39726 0.0
C2157 C 0.67473 0.79153 0.40486 0.0
C2158 C 0.63471 0.82613 0.4058 0.0
C2159 C 0.62227 0.84089 0.4132 0.0
C2160 C 0.62543 0.86394 0.41199 0.0
C2161 C 0.64252 0.8718 0.40395 0.0
C2162 C 0.65522 0.85692 0.39666 0.0
H2163 H 0.6894 0.78035 0.40522 0.0
H2164 H 0.67826 0.80651 0.41075 0.0
H2165 H 0.66057 0.7824 0.4092 0.0
H2166 H 0.63054 0.80864 0.40618 0.0
H2167 H 0.60923 0.83422 0.41926 0.0
H2168 H 0.90826 0.87465 0.17746 0.0
H2169 H 0.93681 0.89365 0.16492 0.0
H2170 H 0.8914 0.89916 0.13293 0.0
H2171 H 0.86253 0.88083 0.14558 0.0
H2172 H 0.95215 0.87311 0.14433 0.0
H2173 H 0.92458 0.95704 0.12968 0.0
H2174 H 0.9117 0.94199 0.14276 0.0
H2175 H 0.90394 0.93633 0.12634 0.0
C2176 C 0.90412 0.88059 0.16791 0.0
C2177 C 0.88328 0.876 0.16243 0.0
C2178 C 0.92044 0.89149 0.16076 0.0
C2179 C 0.91629 0.89783 0.14798 0.0
C2180 C 0.8949 0.89484 0.14285 0.0
H2181 H 0.0023 0.88542 0.08374 0.0
H2182 H 0.9721 0.88575 0.0994 0.0
C2183 C 0.87842 0.88421 0.15007 0.0
C2184 C 0.93515 0.90349 0.13941 0.0
H2185 H 0.95302 0.94 0.11643 0.0
C2186 C 0.95249 0.88798 0.13843 0.0
C2187 C 0.93562 0.92285 0.13167 0.0
C2188 C 0.91806 0.9406 0.13275 0.0
C2189 C 0.96981 0.89083 0.1296 0.0
C2190 C 0.96964 0.90952 0.1214 0.0
C2191 C 0.95288 0.92556 0.12267 0.0
C2192 C 0.98637 0.9118 0.11111 0.0
C2193 C 0.98796 0.87356 0.1289 0.0
C2194 C 0.00405 0.92677 0.1124 0.0
C2195 C 0.02147 0.92659 0.10347 0.0
C2196 C 0.02138 0.91142 0.09315 0.0
C2197 C 0.00303 0.89719 0.09162 0.0
C2198 C 0.9857 0.89739 0.10053 0.0
H2199 H 0.98814 0.86269 0.13755 0.0
H2200 H 0.98525 0.86294 0.12031 0.0
H2201 H 0.00449 0.88158 0.12791 0.0
H2202 H 0.0048 0.93796 0.12056 0.0
H2203 H 0.03528 0.93787 0.10489 0.0
H2204 H 0.86238 0.11092 0.89694 0.0
H2205 H 0.84561 0.1394 0.88322 0.0
H2206 H 0.8594 0.18909 0.91202 0.0
H2207 H 0.87641 0.1609 0.92575 0.0
H2208 H 0.81231 0.17726 0.88606 0.0
H2209 H 0.90093 0.20152 0.87989 0.0
H2210 H 0.89278 0.17521 0.88675 0.0
H2211 H 0.89114 0.20012 0.89623 0.0
C2212 C 0.86121 0.12776 0.90055 0.0
C2213 C 0.8712 0.13377 0.9123 0.0
C2214 C 0.85157 0.144 0.8927 0.0
C2215 C 0.85165 0.16632 0.89656 0.0
C2216 C 0.85941 0.17193 0.90886 0.0
H2217 H 0.8138 0.28638 0.85552 0.0
H2218 H 0.81436 0.25497 0.87049 0.0
C2219 C 0.86917 0.1558 0.91667 0.0
C2220 C 0.84739 0.18399 0.88703 0.0
H2221 H 0.87424 0.22357 0.86944 0.0
C2222 C 0.82576 0.18746 0.88241 0.0
C2223 C 0.86512 0.19693 0.88217 0.0
C2224 C 0.88885 0.19323 0.8864 0.0
C2225 C 0.82138 0.20388 0.87311 0.0
C2226 C 0.8391 0.21708 0.86846 0.0
C2227 C 0.86069 0.21342 0.87305 0.0
C2228 C 0.83602 0.23472 0.85871 0.0
C2229 C 0.798 0.20672 0.86816 0.0
C2230 C 0.84799 0.23371 0.84713 0.0
C2231 C 0.84795 0.25167 0.83866 0.0
C2232 C 0.83595 0.27106 0.8416 0.0
C2233 C 0.82322 0.27169 0.85297 0.0
C2234 C 0.82336 0.25369 0.86149 0.0
H2235 H 0.78748 0.19204 0.87037 0.0
H2236 H 0.79038 0.22147 0.8728 0.0
H2237 H 0.79798 0.2095 0.85758 0.0
H2238 H 0.85793 0.21923 0.84484 0.0
H2239 H 0.8578 0.25054 0.82995 0.0
H2240 H 0.0068 0.61854 0.58517 0.0
H2241 H 0.97697 0.61848 0.6011 0.0
H2242 H 0.00758 0.56316 0.62059 0.0
H2243 H 0.03754 0.5629 0.60464 0.0
H2244 H 0.9587 0.56106 0.61774 0.0
H2245 H 0.99009 0.63996 0.63864 0.0
H2246 H 0.98585 0.64076 0.62152 0.0
H2247 H 0.0067 0.62272 0.62817 0.0
C2248 C 0.00717 0.60624 0.59277 0.0
C2249 C 0.02472 0.59091 0.59371 0.0
C2250 C 0.9901 0.60623 0.60186 0.0
C2251 C 0.99029 0.59098 0.61206 0.0
C2252 C 0.00723 0.57508 0.61278 0.0
H2253 H 0.91105 0.62503 0.67853 0.0
H2254 H 0.94046 0.60719 0.66608 0.0
C2255 C 0.02436 0.57505 0.60368 0.0
C2256 C 0.97348 0.59266 0.62237 0.0
H2257 H 0.95423 0.62827 0.64526 0.0
C2258 C 0.95778 0.57561 0.62388 0.0
C2259 C 0.97267 0.61144 0.6305 0.0
C2260 C 0.98984 0.62969 0.62975 0.0
C2261 C 0.94059 0.57738 0.63299 0.0
C2262 C 0.93906 0.5968 0.64062 0.0
C2263 C 0.95536 0.61337 0.63942 0.0
C2264 C 0.92002 0.60143 0.64926 0.0
C2265 C 0.92424 0.55855 0.63432 0.0
C2266 C 0.89844 0.60302 0.6442 0.0
C2267 C 0.88149 0.61296 0.65138 0.0
C2268 C 0.88604 0.62187 0.66361 0.0
C2269 C 0.90713 0.61851 0.66907 0.0
C2270 C 0.92395 0.6083 0.66197 0.0
H2271 H 0.93175 0.5425 0.63133 0.0
H2272 H 0.91817 0.55698 0.64438 0.0
H2273 H 0.90976 0.56175 0.62797 0.0
H2274 H 0.89508 0.59825 0.63433 0.0
H2275 H 0.86542 0.61539 0.64689 0.0
H2276 H 0.62947 0.61254 0.89449 0.0
H2277 H 0.64587 0.64146 0.88098 0.0
H2278 H 0.63407 0.68987 0.91083 0.0
H2279 H 0.61723 0.66123 0.92427 0.0
H2280 H 0.6132 0.6998 0.88843 0.0
H2281 H 0.70162 0.67998 0.87875 0.0
H2282 H 0.68307 0.65705 0.87612 0.0
H2283 H 0.68642 0.66809 0.89209 0.0
C2284 C 0.63103 0.62919 0.89835 0.0
C2285 C 0.62172 0.6347 0.91036 0.0
C2286 C 0.64053 0.6457 0.89063 0.0
C2287 C 0.64119 0.66781 0.89491 0.0
C2288 C 0.63369 0.6729 0.90735 0.0
H2289 H 0.68189 0.78635 0.8531 0.0
H2290 H 0.68017 0.75509 0.86813 0.0
C2291 C 0.62403 0.65651 0.91501 0.0
C2292 C 0.64594 0.68606 0.88576 0.0
H2293 H 0.68446 0.70664 0.86475 0.0
C2294 C 0.62888 0.7014 0.88336 0.0
C2295 C 0.66638 0.6881 0.87915 0.0
C2296 C 0.68552 0.67255 0.88172 0.0
C2297 C 0.63153 0.71853 0.8744 0.0
C2298 C 0.65165 0.72013 0.86745 0.0
C2299 C 0.66896 0.70514 0.87001 0.0
C2300 C 0.65474 0.73747 0.85755 0.0
C2301 C 0.61277 0.73486 0.87246 0.0
C2302 C 0.64142 0.73752 0.84648 0.0
C2303 C 0.64222 0.75537 0.83792 0.0
C2304 C 0.65646 0.77345 0.84026 0.0
C2305 C 0.67061 0.77278 0.85105 0.0
C2306 C 0.66975 0.7549 0.85963 0.0
H2307 H 0.60075 0.73448 0.88058 0.0
H2308 H 0.61923 0.75205 0.87144 0.0
H2309 H 0.60366 0.73055 0.86351 0.0
H2310 H 0.62992 0.72403 0.84466 0.0
H2311 H 0.63127 0.75521 0.82964 0.0
H2312 H 0.58374 0.35278 0.1695 0.0
H2313 H 0.55731 0.37183 0.15576 0.0
H2314 H 0.60994 0.41278 0.14048 0.0
H2315 H 0.63695 0.39284 0.15385 0.0
H2316 H 0.54265 0.41244 0.15176 0.0
H2317 H 0.58847 0.3836 0.10827 0.0
H2318 H 0.5958 0.37452 0.12423 0.0
H2319 H 0.6036 0.40179 0.11877 0.0
C2320 C 0.58977 0.36601 0.16335 0.0
C2321 C 0.61256 0.37095 0.16257 0.0
C2322 C 0.57456 0.37698 0.15551 0.0
C2323 C 0.5817 0.39334 0.14682 0.0
C2324 C 0.60416 0.39971 0.14681 0.0
H2325 H 0.4697 0.44198 0.09917 0.0
H2326 H 0.50171 0.44371 0.11372 0.0
C2327 C 0.61955 0.38842 0.15452 0.0
C2328 C 0.56571 0.4019 0.13715 0.0
H2329 H 0.55397 0.40024 0.10501 0.0
C2330 C 0.54519 0.41008 0.14151 0.0
C2331 C 0.56907 0.3987 0.12378 0.0
C2332 C 0.59032 0.38902 0.11844 0.0
C2333 C 0.52743 0.41365 0.133 0.0
C2334 C 0.5306 0.40975 0.11969 0.0
C2335 C 0.5516 0.40314 0.11523 0.0
C2336 C 0.51186 0.40966 0.11042 0.0
C2337 C 0.50508 0.42 0.13849 0.0
C2338 C 0.50742 0.39026 0.10336 0.0
C2339 C 0.48953 0.3894 0.09485 0.0
C2340 C 0.47551 0.40785 0.09334 0.0
C2341 C 0.48008 0.4274 0.10028 0.0
C2342 C 0.49828 0.42838 0.10864 0.0
H2343 H 0.50434 0.4175 0.14908 0.0
H2344 H 0.50188 0.43783 0.13652 0.0
H2345 H 0.49158 0.41013 0.13398 0.0
H2346 H 0.51765 0.3756 0.10457 0.0
H2347 H 0.48643 0.3741 0.08966 0.0
H2348 H 0.86765 0.24219 0.33565 0.0
H2349 H 0.86687 0.27206 0.35151 0.0
H2350 H 0.81325 0.23954 0.37156 0.0
H2351 H 0.81376 0.20941 0.35566 0.0
H2352 H 0.81045 0.28988 0.36784 0.0
H2353 H 0.88862 0.25821 0.38956 0.0
H2354 H 0.88929 0.26134 0.37235 0.0
H2355 H 0.87096 0.24126 0.37949 0.0
C2356 C 0.85554 0.24139 0.34335 0.0
C2357 C 0.84094 0.22325 0.34447 0.0
C2358 C 0.85512 0.25851 0.35239 0.0
C2359 C 0.84013 0.25782 0.36271 0.0
C2360 C 0.82492 0.24027 0.36363 0.0
H2361 H 0.87511 0.34069 0.42757 0.0
H2362 H 0.85685 0.3106 0.41591 0.0
C2363 C 0.82533 0.22306 0.35457 0.0
C2364 C 0.84163 0.27473 0.37294 0.0
H2365 H 0.87739 0.29453 0.39557 0.0
C2366 C 0.82488 0.29082 0.37406 0.0
C2367 C 0.8603 0.27557 0.38115 0.0
C2368 C 0.87826 0.25808 0.3807 0.0
C2369 C 0.82694 0.30852 0.38282 0.0
C2370 C 0.84634 0.31012 0.39046 0.0
C2371 C 0.8625 0.29335 0.38972 0.0
C2372 C 0.85146 0.32974 0.39855 0.0
C2373 C 0.80848 0.32537 0.38372 0.0
C2374 C 0.85352 0.35083 0.39288 0.0
C2375 C 0.86373 0.36818 0.3996 0.0
C2376 C 0.87246 0.3645 0.41197 0.0
C2377 C 0.86877 0.34392 0.41799 0.0
C2378 C 0.85829 0.32673 0.41135 0.0
H2379 H 0.79226 0.31795 0.38094 0.0
H2380 H 0.80707 0.33229 0.3936 0.0
H2381 H 0.81196 0.33922 0.37696 0.0
H2382 H 0.84881 0.35346 0.38294 0.0
H2383 H 0.8664 0.38384 0.3947 0.0
H2384 H 0.91372 0.34844 0.82842 0.0
H2385 H 0.94085 0.36725 0.84183 0.0
H2386 H 0.88977 0.41087 0.85634 0.0
H2387 H 0.86209 0.39137 0.84324 0.0
H2388 H 0.95663 0.4081 0.84485 0.0
H2389 H 0.91094 0.38259 0.88907 0.0
H2390 H 0.90326 0.37272 0.87332 0.0
H2391 H 0.89596 0.40041 0.87827 0.0
C2392 C 0.90818 0.3622 0.83432 0.0
C2393 C 0.8856 0.36808 0.83495 0.0
C2394 C 0.92379 0.37301 0.84198 0.0
C2395 C 0.91727 0.39011 0.85034 0.0
C2396 C 0.89505 0.39727 0.85025 0.0
H2397 H 0.02996 0.44094 0.89667 0.0
H2398 H 0.9978 0.44177 0.8822 0.0
C2399 C 0.87928 0.38619 0.8427 0.0
C2400 C 0.93361 0.39882 0.85977 0.0
H2401 H 0.94573 0.399 0.89187 0.0
C2402 C 0.95419 0.40643 0.85515 0.0
C2403 C 0.93037 0.39648 0.87321 0.0
C2404 C 0.90904 0.38746 0.87881 0.0
C2405 C 0.97207 0.4104 0.86352 0.0
C2406 C 0.969 0.40742 0.87692 0.0
C2407 C 0.948 0.40124 0.88159 0.0
C2408 C 0.98783 0.40788 0.88612 0.0
C2409 C 0.99441 0.41625 0.85784 0.0
C2410 C 0.99244 0.38886 0.89347 0.0
C2411 C 0.01044 0.38849 0.9019 0.0
C2412 C 0.0244 0.40708 0.90308 0.0
C2413 C 0.01964 0.42626 0.89585 0.0
C2414 C 0.00135 0.42673 0.88753 0.0
H2415 H 0.99501 0.41317 0.84729 0.0
H2416 H 0.99779 0.43415 0.85947 0.0
H2417 H 0.00786 0.40651 0.86249 0.0
H2418 H 0.98225 0.37409 0.89254 0.0
H2419 H 0.01366 0.37344 0.90732 0.0
H2420 H 0.86979 0.61302 0.10205 0.0
H2421 H 0.85357 0.64277 0.11499 0.0
H2422 H 0.86032 0.68803 0.08301 0.0
H2423 H 0.87715 0.65856 0.07016 0.0
H2424 H 0.88218 0.70224 0.10365 0.0
H2425 H 0.79704 0.67853 0.11839 0.0
H2426 H 0.81694 0.657 0.12153 0.0
H2427 H 0.81135 0.66522 0.10518 0.0
C2428 C 0.86713 0.6291 0.09763 0.0
C2429 C 0.87504 0.63357 0.08516 0.0
C2430 C 0.85773 0.64609 0.10503 0.0
C2431 C 0.8557 0.66764 0.09997 0.0
C2432 C 0.86177 0.67154 0.08712 0.0
H2433 H 0.81415 0.78587 0.14269 0.0
H2434 H 0.81552 0.75493 0.1274 0.0
C2435 C 0.87141 0.65469 0.07979 0.0
C2436 C 0.85104 0.68669 0.10859 0.0
H2437 H 0.81504 0.70667 0.13123 0.0
C2438 C 0.86733 0.70333 0.10953 0.0
C2439 C 0.83167 0.68815 0.11625 0.0
C2440 C 0.81315 0.67138 0.11521 0.0
C2441 C 0.8651 0.72102 0.11817 0.0
C2442 C 0.84629 0.72188 0.12629 0.0
C2443 C 0.82959 0.70573 0.12509 0.0
C2444 C 0.84411 0.73935 0.1362 0.0
C2445 C 0.88297 0.73861 0.11858 0.0
C2446 C 0.85943 0.74047 0.14635 0.0
C2447 C 0.8588 0.75812 0.15505 0.0
C2448 C 0.84273 0.77495 0.15379 0.0
C2449 C 0.82684 0.77328 0.14388 0.0
C2450 C 0.82752 0.75559 0.13517 0.0
H2451 H 0.89321 0.73859 0.10967 0.0
H2452 H 0.87564 0.75539 0.11986 0.0
H2453 H 0.89416 0.73532 0.12686 0.0
H2454 H 0.87219 0.7279 0.14737 0.0
H2455 H 0.87116 0.75875 0.16262 0.0
H2456 H 0.47817 0.62806 0.40859 0.0
H2457 H 0.51002 0.62806 0.39408 0.0
H2458 H 0.49942 0.55853 0.38602 0.0
H2459 H 0.46686 0.55863 0.40017 0.0
H2460 H 0.54814 0.60571 0.39463 0.0
H2461 H 0.50157 0.58339 0.35021 0.0
H2462 H 0.48776 0.59074 0.36501 0.0
H2463 H 0.49969 0.56356 0.36307 0.0
C2464 C 0.48257 0.61276 0.40372 0.0
C2465 C 0.46989 0.5934 0.40543 0.0
C2466 C 0.50082 0.61277 0.39545 0.0
C2467 C 0.50693 0.59338 0.38881 0.0
C2468 C 0.49468 0.57382 0.39078 0.0
H2469 H 0.63332 0.61189 0.34681 0.0
H2470 H 0.60614 0.59249 0.36033 0.0
C2471 C 0.47615 0.57389 0.39891 0.0
C2472 C 0.52603 0.59409 0.3798 0.0
H2473 H 0.53977 0.59015 0.34799 0.0
C2474 C 0.54642 0.60209 0.38444 0.0
C2475 C 0.5237 0.58929 0.36653 0.0
C2476 C 0.50198 0.58144 0.36084 0.0
C2477 C 0.56411 0.60679 0.37608 0.0
C2478 C 0.56159 0.60256 0.36275 0.0
C2479 C 0.54167 0.59324 0.35822 0.0
C2480 C 0.57784 0.61096 0.35318 0.0
C2481 C 0.58467 0.61768 0.38153 0.0
C2482 C 0.57077 0.62664 0.34407 0.0
C2483 C 0.5861 0.63737 0.33618 0.0
C2484 C 0.60893 0.63281 0.33732 0.0
C2485 C 0.61588 0.616 0.34583 0.0
C2486 C 0.6004 0.60501 0.35363 0.0
H2487 H 0.58209 0.62369 0.39154 0.0
H2488 H 0.59847 0.60547 0.38169 0.0
H2489 H 0.58985 0.632 0.3755 0.0
H2490 H 0.55344 0.63143 0.34348 0.0
H2491 H 0.58009 0.65007 0.32967 0.0
H2492 H 0.63066 0.24162 0.66297 0.0
H2493 H 0.63061 0.27238 0.64767 0.0
H2494 H 0.68467 0.24215 0.62683 0.0
H2495 H 0.685 0.21117 0.64215 0.0
H2496 H 0.68634 0.29232 0.63122 0.0
H2497 H 0.60847 0.25952 0.60961 0.0
H2498 H 0.60816 0.26225 0.62685 0.0
H2499 H 0.62665 0.24266 0.6194 0.0
C2500 C 0.64271 0.24154 0.65522 0.0
C2501 C 0.65766 0.22377 0.65369 0.0
C2502 C 0.64267 0.25916 0.64651 0.0
C2503 C 0.65752 0.25936 0.63612 0.0
C2504 C 0.6731 0.24221 0.63483 0.0
H2505 H 0.62308 0.34012 0.57039 0.0
H2506 H 0.64108 0.31091 0.5829 0.0
C2507 C 0.67317 0.22451 0.64355 0.0
C2508 C 0.65543 0.27661 0.62611 0.0
H2509 H 0.61941 0.29573 0.60341 0.0
C2510 C 0.67187 0.29303 0.625 0.0
C2511 C 0.6367 0.27718 0.61793 0.0
C2512 C 0.61904 0.25938 0.61838 0.0
C2513 C 0.66955 0.31064 0.61621 0.0
C2514 C 0.65021 0.31181 0.60849 0.0
C2515 C 0.63425 0.29485 0.60931 0.0
C2516 C 0.64513 0.33096 0.60004 0.0
C2517 C 0.68771 0.32782 0.6153 0.0
C2518 C 0.6424 0.35227 0.60532 0.0
C2519 C 0.63232 0.36912 0.59813 0.0
C2520 C 0.62442 0.36472 0.58565 0.0
C2521 C 0.62879 0.34392 0.58004 0.0
C2522 C 0.63911 0.32722 0.58717 0.0
H2523 H 0.70395 0.32094 0.61846 0.0
H2524 H 0.68943 0.3342 0.60531 0.0
H2525 H 0.68359 0.34199 0.6217 0.0
H2526 H 0.64651 0.35544 0.61531 0.0
H2527 H 0.62912 0.38497 0.60271 0.0
H2528 H 0.99158 0.38386 0.41394 0.0
H2529 H 0.0232 0.38242 0.39929 0.0
H2530 H 0.99081 0.42911 0.37399 0.0
H2531 H 0.95915 0.43101 0.38874 0.0
H2532 H 0.02027 0.36779 0.37451 0.0
H2533 H 0.05428 0.45355 0.37575 0.0
H2534 H 0.03541 0.44308 0.38784 0.0
H2535 H 0.02502 0.45182 0.37244 0.0
C2536 C 0.99123 0.39404 0.40534 0.0
C2537 C 0.97275 0.40745 0.40247 0.0
C2538 C 0.00937 0.39325 0.397 0.0
C2539 C 0.00945 0.40583 0.38563 0.0
C2540 C 0.99128 0.41963 0.38285 0.0
H2541 H 0.08779 0.3654 0.32005 0.0
H2542 H 0.05841 0.3819 0.33316 0.0
C2543 C 0.97313 0.42054 0.39124 0.0
C2544 C 0.02755 0.40269 0.37616 0.0
H2545 H 0.06922 0.42917 0.35988 0.0
C2546 C 0.03097 0.38122 0.37132 0.0
C2547 C 0.04154 0.42024 0.37209 0.0
C2548 C 0.03907 0.44345 0.37736 0.0
C2549 C 0.04799 0.37674 0.36253 0.0
C2550 C 0.06169 0.39433 0.35823 0.0
C2551 C 0.05844 0.41583 0.36309 0.0
C2552 C 0.08003 0.39006 0.3491 0.0
C2553 C 0.05148 0.35307 0.35813 0.0
C2554 C 0.10211 0.39064 0.35341 0.0
C2555 C 0.11902 0.38137 0.34589 0.0
C2556 C 0.11396 0.37128 0.33403 0.0
C2557 C 0.09215 0.37276 0.32923 0.0
C2558 C 0.07534 0.38218 0.33669 0.0
H2559 H 0.04273 0.34097 0.36443 0.0
H2560 H 0.04491 0.35114 0.34821 0.0
H2561 H 0.06943 0.34882 0.35799 0.0
H2562 H 0.10601 0.39673 0.36296 0.0
H2563 H 0.13564 0.38053 0.34985 0.0
H2564 H 0.35463 0.38671 0.09269 0.0
H2565 H 0.33361 0.35969 0.10548 0.0
H2566 H 0.37474 0.30688 0.09061 0.0
H2567 H 0.39491 0.33333 0.07744 0.0
H2568 H 0.33371 0.29257 0.09392 0.0
H2569 H 0.36117 0.33753 0.13804 0.0
H2570 H 0.34358 0.35288 0.1273 0.0
H2571 H 0.37106 0.34496 0.12226 0.0
C2572 C 0.35887 0.36928 0.09198 0.0
C2573 C 0.37674 0.36226 0.08424 0.0
C2574 C 0.34695 0.35388 0.09936 0.0
C2575 C 0.35305 0.33135 0.09931 0.0
C2576 C 0.36979 0.32418 0.09088 0.0
H2577 H 0.37212 0.2352 0.15533 0.0
H2578 H 0.37009 0.26674 0.14071 0.0
C2579 C 0.3814 0.33942 0.08337 0.0
C2580 C 0.34392 0.3153 0.10878 0.0
H2581 H 0.34476 0.30285 0.14084 0.0
C2582 C 0.33577 0.2949 0.10421 0.0
C2583 C 0.34671 0.31839 0.12221 0.0
C2584 C 0.35624 0.33952 0.12779 0.0
C2585 C 0.33198 0.27695 0.11256 0.0
C2586 C 0.33564 0.27981 0.12592 0.0
C2587 C 0.34207 0.30072 0.13059 0.0
C2588 C 0.33599 0.26079 0.135 0.0
C2589 C 0.32571 0.25473 0.10687 0.0
C2590 C 0.31743 0.24698 0.13674 0.0
C2591 C 0.3187 0.22858 0.14495 0.0
C2592 C 0.33839 0.22403 0.15176 0.0
C2593 C 0.3567 0.23826 0.15025 0.0
C2594 C 0.35553 0.25635 0.14191 0.0
H2595 H 0.32803 0.25432 0.09626 0.0
H2596 H 0.33578 0.24119 0.1112 0.0
H2597 H 0.30795 0.2513 0.10893 0.0
H2598 H 0.30201 0.25038 0.13175 0.0
H2599 H 0.30423 0.21803 0.14605 0.0
H2600 H 0.36098 0.6051 0.84392 0.0
H2601 H 0.38783 0.58441 0.857 0.0
H2602 H 0.44084 0.62522 0.84206 0.0
H2603 H 0.41456 0.64508 0.82862 0.0
H2604 H 0.45498 0.5841 0.84572 0.0
H2605 H 0.40971 0.61291 0.88943 0.0
H2606 H 0.39435 0.59517 0.87878 0.0
H2607 H 0.40253 0.62245 0.87353 0.0
C2608 C 0.37843 0.60933 0.84324 0.0
C2609 C 0.38555 0.62704 0.83542 0.0
C2610 C 0.39372 0.5976 0.85079 0.0
C2611 C 0.41625 0.60373 0.85081 0.0
C2612 C 0.42354 0.62027 0.84229 0.0
H2613 H 0.51242 0.62244 0.90718 0.0
H2614 H 0.48079 0.62081 0.89259 0.0
C2615 C 0.4084 0.6317 0.83462 0.0
C2616 C 0.43216 0.59478 0.86042 0.0
H2617 H 0.44419 0.59619 0.89252 0.0
C2618 C 0.45255 0.58639 0.85598 0.0
C2619 C 0.42892 0.59791 0.87381 0.0
C2620 C 0.4078 0.60774 0.87922 0.0
C2621 C 0.47033 0.58258 0.86444 0.0
C2622 C 0.46733 0.58649 0.87777 0.0
C2623 C 0.44643 0.59328 0.8823 0.0
C2624 C 0.48619 0.58658 0.88695 0.0
C2625 C 0.49257 0.57599 0.85889 0.0
C2626 C 0.49966 0.5678 0.88877 0.0
C2627 C 0.51809 0.56883 0.89696 0.0
C2628 C 0.52302 0.58852 0.90368 0.0
C2629 C 0.50906 0.60703 0.90216 0.0
C2630 C 0.49093 0.60609 0.89383 0.0
H2631 H 0.49318 0.57827 0.84828 0.0
H2632 H 0.50617 0.58588 0.86328 0.0
H2633 H 0.4957 0.55819 0.86097 0.0
H2634 H 0.496 0.55239 0.88382 0.0
H2635 H 0.5284 0.55421 0.89807 0.0
H2636 H 0.13309 0.75613 0.66246 0.0
H2637 H 0.13271 0.7253 0.64725 0.0
H2638 H 0.18178 0.75853 0.62391 0.0
H2639 H 0.18257 0.78948 0.63922 0.0
H2640 H 0.12048 0.73048 0.62176 0.0
H2641 H 0.20509 0.69401 0.6258 0.0
H2642 H 0.19348 0.71208 0.63796 0.0
H2643 H 0.20391 0.72352 0.62319 0.0
C2644 C 0.14401 0.75685 0.65417 0.0
C2645 C 0.15775 0.77536 0.65201 0.0
C2646 C 0.14382 0.73916 0.64552 0.0
C2647 C 0.15735 0.73957 0.63453 0.0
C2648 C 0.17151 0.75773 0.63246 0.0
H2649 H 0.11932 0.66006 0.5687 0.0
H2650 H 0.13645 0.6897 0.58134 0.0
C2651 C 0.17181 0.77546 0.64117 0.0
C2652 C 0.15482 0.72194 0.62472 0.0
H2653 H 0.18146 0.67903 0.6097 0.0
C2654 C 0.13384 0.71929 0.61908 0.0
C2655 C 0.17229 0.70736 0.62133 0.0
C2656 C 0.19495 0.70917 0.62743 0.0
C2657 C 0.12967 0.70223 0.61027 0.0
C2658 C 0.14715 0.68772 0.60675 0.0
C2659 C 0.16823 0.6904 0.61231 0.0
C2660 C 0.14302 0.66895 0.59791 0.0
C2661 C 0.10635 0.69946 0.60512 0.0
C2662 C 0.14265 0.64716 0.60271 0.0
C2663 C 0.1331 0.63009 0.59544 0.0
C2664 C 0.12362 0.63473 0.58336 0.0
C2665 C 0.12617 0.65608 0.57807 0.0
C2666 C 0.13595 0.67303 0.58527 0.0
H2667 H 0.09399 0.70891 0.61087 0.0
H2668 H 0.10567 0.70569 0.59507 0.0
H2669 H 0.10142 0.68168 0.60506 0.0
H2670 H 0.14813 0.64371 0.61244 0.0
H2671 H 0.13146 0.61377 0.59975 0.0
H2672 H 0.13758 0.60583 0.15107 0.0
H2673 H 0.11058 0.586 0.13766 0.0
H2674 H 0.05759 0.62495 0.15419 0.0
H2675 H 0.08404 0.64392 0.16795 0.0
H2676 H 0.04376 0.58413 0.14963 0.0
H2677 H 0.08733 0.61658 0.10622 0.0
H2678 H 0.10329 0.59825 0.11622 0.0
H2679 H 0.09493 0.62498 0.12226 0.0
C2680 C 0.12012 0.60983 0.15202 0.0
C2681 C 0.11304 0.62677 0.16041 0.0
C2682 C 0.10473 0.5986 0.14427 0.0
C2683 C 0.08215 0.60448 0.14463 0.0
C2684 C 0.07494 0.62021 0.15367 0.0
H2685 H 0.98409 0.62334 0.08873 0.0
H2686 H 0.01597 0.62237 0.1032 0.0
C2687 C 0.09017 0.63114 0.16152 0.0
C2688 C 0.06604 0.59606 0.13498 0.0
H2689 H 0.0532 0.59911 0.10301 0.0
C2690 C 0.0459 0.5871 0.13941 0.0
C2691 C 0.06886 0.6001 0.12164 0.0
C2692 C 0.08966 0.61065 0.11626 0.0
C2693 C 0.02797 0.58346 0.13102 0.0
C2694 C 0.03061 0.5881 0.11774 0.0
C2695 C 0.05124 0.59561 0.1132 0.0
C2696 C 0.0116 0.5879 0.10865 0.0
C2697 C 0.006 0.57618 0.13663 0.0
C2698 C 0.99865 0.56877 0.10677 0.0
C2699 C 0.98009 0.56943 0.09868 0.0
C2700 C 0.97451 0.58908 0.0921 0.0
C2701 C 0.98796 0.60795 0.09366 0.0
C2702 C 0.00623 0.60739 0.10191 0.0
H2703 H 0.00549 0.57826 0.14726 0.0
H2704 H 0.99206 0.58577 0.13238 0.0
H2705 H 0.00332 0.55833 0.13447 0.0
H2706 H 0.00282 0.55338 0.11159 0.0
H2707 H 0.97018 0.55454 0.09753 0.0
H2708 H 0.10803 0.33378 0.91861 0.0
H2709 H 0.12902 0.30836 0.90526 0.0
H2710 H 0.16602 0.36325 0.88928 0.0
H2711 H 0.14416 0.38916 0.90231 0.0
H2712 H 0.15068 0.33984 0.87086 0.0
H2713 H 0.18808 0.28035 0.90442 0.0
H2714 H 0.15919 0.2823 0.90829 0.0
H2715 H 0.17678 0.30647 0.90991 0.0
C2716 C 0.12097 0.34052 0.9125 0.0
C2717 C 0.12425 0.36357 0.91146 0.0
C2718 C 0.13321 0.32584 0.90494 0.0
C2719 C 0.14943 0.33376 0.89638 0.0
C2720 C 0.15367 0.35671 0.89586 0.0
H2721 H 0.19462 0.22128 0.84908 0.0
H2722 H 0.1981 0.25395 0.86302 0.0
C2723 C 0.14117 0.3715 0.90332 0.0
C2724 C 0.15921 0.31836 0.88675 0.0
H2725 H 0.17612 0.26459 0.88349 0.0
C2726 C 0.15686 0.32361 0.87364 0.0
C2727 C 0.16793 0.29736 0.89024 0.0
C2728 C 0.17337 0.29147 0.904 0.0
C2729 C 0.16088 0.30774 0.86405 0.0
C2730 C 0.16657 0.28581 0.86768 0.0
C2731 C 0.17111 0.28121 0.88068 0.0
C2732 C 0.16552 0.26702 0.85845 0.0
C2733 C 0.15834 0.31454 0.85014 0.0
C2734 C 0.14603 0.2634 0.85132 0.0
C2735 C 0.14411 0.24498 0.84325 0.0
C2736 C 0.16145 0.22944 0.84238 0.0
C2737 C 0.18096 0.23297 0.84956 0.0
C2738 C 0.18299 0.25164 0.85751 0.0
H2739 H 0.16318 0.3322 0.84878 0.0
H2740 H 0.1686 0.30407 0.84365 0.0
H2741 H 0.14064 0.31298 0.84728 0.0
H2742 H 0.13198 0.27452 0.85223 0.0
H2743 H 0.12876 0.24262 0.83798 0.0
H2744 H 0.50506 0.3818 0.58045 0.0
H2745 H 0.47209 0.38088 0.59411 0.0
H2746 H 0.5016 0.4295 0.61938 0.0
H2747 H 0.53453 0.4309 0.60562 0.0
H2748 H 0.47255 0.36771 0.61901 0.0
H2749 H 0.43842 0.45312 0.61556 0.0
H2750 H 0.45855 0.44234 0.60427 0.0
H2751 H 0.46732 0.45213 0.61981 0.0
C2752 C 0.50447 0.39251 0.58883 0.0
C2753 C 0.5225 0.40633 0.59199 0.0
C2754 C 0.48557 0.39202 0.5966 0.0
C2755 C 0.48428 0.40532 0.60767 0.0
C2756 C 0.50203 0.41948 0.61072 0.0
H2757 H 0.40741 0.37086 0.67418 0.0
H2758 H 0.43551 0.38674 0.65995 0.0
C2759 C 0.52093 0.42009 0.60291 0.0
C2760 C 0.46542 0.40254 0.61667 0.0
H2761 H 0.42344 0.42996 0.63215 0.0
C2762 C 0.46175 0.38131 0.62181 0.0
C2763 C 0.45129 0.4203 0.62026 0.0
C2764 C 0.45391 0.44322 0.6146 0.0
C2765 C 0.44455 0.37737 0.63057 0.0
C2766 C 0.43089 0.39523 0.63449 0.0
C2767 C 0.4342 0.41642 0.62922 0.0
C2768 C 0.41299 0.39163 0.64398 0.0
C2769 C 0.44105 0.35403 0.63552 0.0
C2770 C 0.3908 0.39051 0.63993 0.0
C2771 C 0.3746 0.38152 0.64808 0.0
C2772 C 0.38055 0.3734 0.6603 0.0
C2773 C 0.40238 0.37668 0.66475 0.0
C2774 C 0.41846 0.38578 0.65665 0.0
H2775 H 0.44993 0.34151 0.62958 0.0
H2776 H 0.44741 0.35286 0.64553 0.0
H2777 H 0.42309 0.34978 0.63566 0.0
H2778 H 0.38633 0.39499 0.63016 0.0
H2779 H 0.35791 0.37929 0.64439 0.0
H2780 H 0.30944 0.78541 0.35576 0.0
H2781 H 0.30868 0.7548 0.37133 0.0
H2782 H 0.36513 0.72487 0.35259 0.0
H2783 H 0.36615 0.75523 0.33703 0.0
H2784 H 0.3083 0.70412 0.36675 0.0
H2785 H 0.3825 0.73859 0.39159 0.0
H2786 H 0.36504 0.75515 0.38121 0.0
H2787 H 0.38483 0.73618 0.37439 0.0
C2788 C 0.32161 0.77223 0.35489 0.0
C2789 C 0.33802 0.7729 0.34523 0.0
C2790 C 0.32104 0.75474 0.36375 0.0
C2791 C 0.33691 0.73775 0.36309 0.0
C2792 C 0.35281 0.73795 0.35324 0.0
H2793 H 0.36545 0.61272 0.39634 0.0
H2794 H 0.3477 0.64191 0.38364 0.0
C2795 C 0.35338 0.75535 0.34438 0.0
C2796 C 0.33807 0.72057 0.37319 0.0
H2797 H 0.37177 0.70202 0.39719 0.0
C2798 C 0.32198 0.70371 0.37355 0.0
C2799 C 0.35574 0.72038 0.38212 0.0
C2800 C 0.37295 0.73862 0.38244 0.0
C2801 C 0.32371 0.686 0.38233 0.0
C2802 C 0.34211 0.68519 0.39079 0.0
C2803 C 0.35763 0.70262 0.39073 0.0
C2804 C 0.34689 0.66589 0.39919 0.0
C2805 C 0.30598 0.66832 0.38239 0.0
C2806 C 0.35168 0.66937 0.41226 0.0
C2807 C 0.36223 0.65289 0.41945 0.0
C2808 C 0.36799 0.63255 0.41371 0.0
C2809 C 0.36112 0.62821 0.40102 0.0
C2810 C 0.35085 0.64488 0.39376 0.0
H2811 H 0.28991 0.67491 0.37876 0.0
H2812 H 0.31112 0.65454 0.37595 0.0
H2813 H 0.30342 0.66147 0.39221 0.0
H2814 H 0.34874 0.68544 0.41665 0.0
H2815 H 0.36715 0.65659 0.42925 0.0
H2816 H 0.13054 0.02132 0.09064 0.0
H2817 H 0.16083 0.04162 0.10104 0.0
H2818 H 0.18776 0.97999 0.11535 0.0
H2819 H 0.15724 0.95961 0.10517 0.0
H2820 H 0.1819 0.01323 0.13425 0.0
H2821 H 0.22744 0.04567 0.09184 0.0
H2822 H 0.19804 0.05065 0.09117 0.0
H2823 H 0.2083 0.0226 0.09083 0.0
C2824 C 0.14312 0.01207 0.09584 0.0
C2825 C 0.14179 0.98885 0.09687 0.0
C2826 C 0.16047 0.02366 0.1017 0.0
C2827 C 0.17673 0.01224 0.10875 0.0
C2828 C 0.17553 0.98904 0.10977 0.0
H2829 H 0.28792 0.08824 0.14094 0.0
H2830 H 0.26704 0.05783 0.13102 0.0
C2831 C 0.15822 0.9774 0.10383 0.0
C2832 C 0.19386 0.02485 0.11589 0.0
H2833 H 0.23437 0.0639 0.11199 0.0
C2834 C 0.19363 0.02405 0.12939 0.0
C2835 C 0.20929 0.03872 0.10952 0.0
C2836 C 0.21099 0.03935 0.09503 0.0
C2837 C 0.20766 0.03772 0.13672 0.0
C2838 C 0.22207 0.05265 0.13035 0.0
C2839 C 0.22315 0.05256 0.11685 0.0
C2840 C 0.23495 0.06963 0.13744 0.0
C2841 C 0.20669 0.03634 0.15121 0.0
C2842 C 0.22379 0.08628 0.14433 0.0
C2843 C 0.23567 0.10357 0.15006 0.0
C2844 C 0.25892 0.10446 0.14905 0.0
C2845 C 0.2701 0.08762 0.14227 0.0
C2846 C 0.25818 0.07036 0.13648 0.0
H2847 H 0.19997 0.02009 0.15447 0.0
H2848 H 0.22339 0.03879 0.15553 0.0
H2849 H 0.19555 0.04959 0.1549 0.0
H2850 H 0.20582 0.08629 0.14494 0.0
H2851 H 0.22663 0.11647 0.15511 0.0
H2852 H 0.26066 0.91144 0.33366 0.0
H2853 H 0.23988 0.94164 0.34409 0.0
H2854 H 0.23407 0.90213 0.37859 0.0
H2855 H 0.25503 0.87217 0.36829 0.0
H2856 H 0.19616 0.93715 0.35374 0.0
H2857 H 0.25451 0.96332 0.39218 0.0
H2858 H 0.2633 0.94776 0.37819 0.0
H2859 H 0.25016 0.93382 0.39148 0.0
C2860 C 0.25546 0.90953 0.34359 0.0
C2861 C 0.25979 0.88975 0.3503 0.0
C2862 C 0.24349 0.92666 0.34949 0.0
C2863 C 0.23586 0.92426 0.36219 0.0
C2864 C 0.24029 0.90453 0.36889 0.0
H2865 H 0.12616 0.97553 0.40415 0.0
H2866 H 0.15509 0.95405 0.39325 0.0
C2867 C 0.25208 0.88739 0.36298 0.0
C2868 C 0.22157 0.94142 0.36814 0.0
H2869 H 0.21644 0.97439 0.39475 0.0
C2870 C 0.20072 0.94556 0.3626 0.0
C2871 C 0.22763 0.95243 0.37965 0.0
C2872 C 0.25021 0.9493 0.38568 0.0
C2873 C 0.18534 0.95964 0.36861 0.0
C2874 C 0.19096 0.96969 0.38046 0.0
C2875 C 0.21217 0.96643 0.38571 0.0
C2876 C 0.17451 0.98276 0.38779 0.0
C2877 C 0.16297 0.96334 0.36241 0.0
C2878 C 0.17618 0.00595 0.3885 0.0
C2879 C 0.15961 0.0183 0.39467 0.0
C2880 C 0.14132 0.00757 0.40037 0.0
C2881 C 0.14008 0.98427 0.39989 0.0
C2882 C 0.15655 0.97198 0.39368 0.0
H2883 H 0.16284 0.95805 0.35216 0.0
H2884 H 0.15023 0.95356 0.36766 0.0
H2885 H 0.15818 0.98113 0.36296 0.0
H2886 H 0.18989 0.01451 0.38391 0.0
H2887 H 0.16072 0.03622 0.39443 0.0
H2888 H 0.27295 0.87645 0.65363 0.0
H2889 H 0.29482 0.90537 0.64303 0.0
H2890 H 0.23462 0.93924 0.63207 0.0
H2891 H 0.21256 0.91013 0.64242 0.0
H2892 H 0.28981 0.9162 0.61582 0.0
H2893 H 0.27592 0.98838 0.64842 0.0
H2894 H 0.27205 0.96002 0.65367 0.0
H2895 H 0.25193 0.97281 0.64332 0.0
C2896 C 0.26435 0.89021 0.64912 0.0
C2897 C 0.24103 0.89122 0.6491 0.0
C2898 C 0.27686 0.90669 0.64307 0.0
C2899 C 0.26631 0.92451 0.6369 0.0
C2900 C 0.24305 0.92582 0.63701 0.0
H2901 H 0.33827 0.00913 0.5819 0.0
H2902 H 0.30839 0.98761 0.59213 0.0
C2903 C 0.23047 0.90926 0.64304 0.0
C2904 C 0.27979 0.94081 0.62968 0.0
H2905 H 0.29863 0.9943 0.63023 0.0
C2906 C 0.2916 0.93334 0.61887 0.0
C2907 C 0.28205 0.96308 0.63376 0.0
C2908 C 0.26996 0.97167 0.64547 0.0
C2909 C 0.30605 0.94747 0.61216 0.0
C2910 C 0.30857 0.96968 0.61634 0.0
C2911 C 0.29645 0.97729 0.62701 0.0
C2912 C 0.32526 0.98454 0.61044 0.0
C2913 C 0.31921 0.93834 0.60098 0.0
C2914 C 0.34431 0.99026 0.61746 0.0
C2915 C 0.36123 0.00258 0.61168 0.0
C2916 C 0.35922 0.00966 0.59886 0.0
C2917 C 0.33992 0.00437 0.59191 0.0
C2918 C 0.323 0.99191 0.59768 0.0
H2919 H 0.31785 0.91997 0.60023 0.0
H2920 H 0.31292 0.94569 0.59188 0.0
H2921 H 0.33702 0.94286 0.60191 0.0
H2922 H 0.34638 0.98462 0.6273 0.0
H2923 H 0.37601 0.00639 0.61721 0.0
H2924 H 0.25296 0.13139 0.8648 0.0
H2925 H 0.27438 0.10171 0.8748 0.0
H2926 H 0.25074 0.0556 0.84611 0.0
H2927 H 0.23031 0.08552 0.83557 0.0
H2928 H 0.26074 0.06284 0.88552 0.0
H2929 H 0.31717 0.04656 0.84416 0.0
H2930 H 0.29926 0.07056 0.84482 0.0
H2931 H 0.2881 0.04381 0.84062 0.0
C2932 C 0.25238 0.11497 0.86054 0.0
C2933 C 0.23956 0.11083 0.84948 0.0
C2934 C 0.26454 0.09798 0.86633 0.0
C2935 C 0.26425 0.07646 0.86117 0.0
C2936 C 0.25139 0.07215 0.85018 0.0
H2937 H 0.34023 0.96206 0.89014 0.0
H2938 H 0.31063 0.98387 0.87991 0.0
C2939 C 0.23933 0.08924 0.84429 0.0
C2940 C 0.27766 0.0588 0.86738 0.0
H2941 H 0.32203 0.02438 0.86265 0.0
C2942 C 0.27403 0.0543 0.88049 0.0
C2943 C 0.29499 0.04768 0.86078 0.0
C2944 C 0.30031 0.05248 0.84685 0.0
C2945 C 0.28762 0.03941 0.88725 0.0
C2946 C 0.30522 0.02878 0.88074 0.0
C2947 C 0.30838 0.03257 0.86755 0.0
C2948 C 0.32178 0.01527 0.88769 0.0
C2949 C 0.28345 0.03544 0.90139 0.0
C2950 C 0.3377 0.02581 0.89542 0.0
C2951 C 0.35459 0.01347 0.9012 0.0
C2952 C 0.35565 0.99036 0.89949 0.0
C2953 C 0.33945 0.97976 0.89191 0.0
C2954 C 0.32267 0.99218 0.88599 0.0
H2955 H 0.26686 0.04159 0.90444 0.0
H2956 H 0.28469 0.01744 0.90365 0.0
H2957 H 0.29631 0.04423 0.9071 0.0
H2958 H 0.33737 0.04367 0.89669 0.0
H2959 H 0.36699 0.02203 0.90691 0.0
H2960 H 0.83635 0.0354 0.89379 0.0
H2961 H 0.80709 0.0133 0.88362 0.0
H2962 H 0.84217 0.95321 0.89345 0.0
H2963 H 0.87127 0.97512 0.90387 0.0
H2964 H 0.8301 0.95868 0.86657 0.0
H2965 H 0.75911 0.97122 0.90022 0.0
H2966 H 0.7741 0.99553 0.89506 0.0
H2967 H 0.78764 0.9754 0.90507 0.0
C2968 C 0.83748 0.01748 0.8942 0.0
C2969 C 0.8559 0.00697 0.8999 0.0
C2970 C 0.82082 0.0049 0.88828 0.0
C2971 C 0.82241 0.98166 0.88792 0.0
C2972 C 0.84063 0.97114 0.8937 0.0
H2973 H 0.73956 0.87256 0.86794 0.0
H2974 H 0.76169 0.90176 0.8782 0.0
C2975 C 0.85721 0.98367 0.89964 0.0
C2976 C 0.80594 0.96823 0.88081 0.0
H2977 H 0.75251 0.94927 0.88178 0.0
C2978 C 0.81307 0.95674 0.86981 0.0
C2979 C 0.78382 0.96578 0.88513 0.0
C2980 C 0.7756 0.97749 0.89706 0.0
C2981 C 0.79875 0.94245 0.86313 0.0
C2982 C 0.77668 0.93979 0.86752 0.0
C2983 C 0.76941 0.95156 0.8784 0.0
C2984 C 0.7616 0.92338 0.86156 0.0
C2985 C 0.80755 0.92965 0.85171 0.0
C2986 C 0.754 0.92609 0.84888 0.0
C2987 C 0.74136 0.90942 0.843 0.0
C2988 C 0.73607 0.88995 0.84979 0.0
C2989 C 0.74335 0.8875 0.86255 0.0
C2990 C 0.75588 0.90416 0.86842 0.0
H2991 H 0.82591 0.93088 0.85087 0.0
H2992 H 0.80289 0.91184 0.85244 0.0
H2993 H 0.80008 0.93637 0.84275 0.0
H2994 H 0.75829 0.94084 0.84345 0.0
H2995 H 0.73644 0.91141 0.83304 0.0
H2996 H 0.83559 0.98617 0.58325 0.0
H2997 H 0.80563 0.00773 0.59334 0.0
H2998 H 0.84332 0.01097 0.62861 0.0
H2999 H 0.87301 0.98908 0.61868 0.0
H3000 H 0.79591 0.00209 0.63171 0.0
H3001 H 0.81524 0.07519 0.60076 0.0
H3002 H 0.80975 0.04936 0.59265 0.0
H3003 H 0.83412 0.05209 0.60248 0.0
C3004 C 0.83714 0.99094 0.59326 0.0
C3005 C 0.85638 0.9857 0.60028 0.0
C3006 C 0.82018 0.00344 0.59896 0.0
C3007 C 0.82236 0.01096 0.61169 0.0
C3008 C 0.84131 0.00522 0.61879 0.0
H3009 H 0.77122 0.12115 0.65348 0.0
H3010 H 0.79276 0.09169 0.64315 0.0
C3011 C 0.85826 0.99283 0.6131 0.0
C3012 C 0.80577 0.0261 0.61745 0.0
H3013 H 0.78722 0.07962 0.61629 0.0
C3014 C 0.79376 0.01897 0.62828 0.0
C3015 C 0.80329 0.04815 0.61299 0.0
C3016 C 0.81635 0.05683 0.60164 0.0
C3017 C 0.77953 0.03351 0.63491 0.0
C3018 C 0.77732 0.05563 0.63053 0.0
C3019 C 0.78899 0.0626 0.61957 0.0
C3020 C 0.76406 0.07229 0.63761 0.0
C3021 C 0.76761 0.02545 0.64679 0.0
C3022 C 0.7408 0.07101 0.63796 0.0
C3023 C 0.72842 0.08788 0.64384 0.0
C3024 C 0.73917 0.10619 0.6495 0.0
C3025 C 0.76249 0.10718 0.64927 0.0
C3026 C 0.77481 0.09039 0.64338 0.0
H3027 H 0.77363 0.00889 0.64998 0.0
H3028 H 0.7698 0.03747 0.65481 0.0
H3029 H 0.74956 0.02419 0.64474 0.0
H3030 H 0.73222 0.05737 0.63332 0.0
H3031 H 0.7105 0.08698 0.64341 0.0
H3032 H 0.6258 0.99293 0.3784 0.0
H3033 H 0.65643 0.01401 0.36901 0.0
H3034 H 0.69185 0.01076 0.40506 0.0
H3035 H 0.66095 0.98994 0.41463 0.0
H3036 H 0.68817 0.05388 0.39428 0.0
H3037 H 0.71923 0.99331 0.35834 0.0
H3038 H 0.68966 0.99718 0.35777 0.0
H3039 H 0.7022 0.98529 0.3719 0.0
C3040 C 0.64019 0.99654 0.38431 0.0
C3041 C 0.64114 0.98947 0.3972 0.0
C3042 C 0.65776 0.00839 0.37889 0.0
C3043 C 0.67659 0.01349 0.38626 0.0
C3044 C 0.67759 0.0066 0.39916 0.0
H3045 H 0.7894 0.0883 0.35429 0.0
H3046 H 0.76792 0.05944 0.36527 0.0
C3047 C 0.66002 0.99457 0.40459 0.0
C3048 C 0.69426 0.02757 0.38067 0.0
H3049 H 0.72956 0.03148 0.35502 0.0
C3050 C 0.69751 0.04886 0.38583 0.0
C3051 C 0.70652 0.02089 0.36971 0.0
C3052 C 0.70442 0.99783 0.36416 0.0
C3053 C 0.71183 0.0641 0.37988 0.0
C3054 C 0.72301 0.05788 0.36847 0.0
C3055 C 0.72073 0.03621 0.3637 0.0
C3056 C 0.73602 0.07419 0.36099 0.0
C3057 C 0.7145 0.08695 0.38564 0.0
C3058 C 0.72509 0.09163 0.3547 0.0
C3059 C 0.73724 0.1079 0.34823 0.0
C3060 C 0.76057 0.10697 0.34788 0.0
C3061 C 0.77147 0.08916 0.35397 0.0
C3062 C 0.75925 0.07278 0.3604 0.0
H3063 H 0.7089 0.08747 0.39583 0.0
H3064 H 0.73211 0.09242 0.38517 0.0
H3065 H 0.70436 0.09897 0.38006 0.0
H3066 H 0.70713 0.09284 0.35497 0.0
H3067 H 0.72837 0.12142 0.34366 0.0
H3068 H 0.78425 0.90514 0.14107 0.0
H3069 H 0.76174 0.93417 0.13084 0.0
H3070 H 0.70256 0.90595 0.14755 0.0
H3071 H 0.72494 0.87688 0.15781 0.0
H3072 H 0.71981 0.92035 0.11381 0.0
H3073 H 0.70512 0.97792 0.15491 0.0
H3074 H 0.72979 0.96089 0.15373 0.0
H3075 H 0.70372 0.94845 0.15794 0.0
C3076 C 0.76653 0.90548 0.14284 0.0
C3077 C 0.75633 0.88902 0.15041 0.0
C3078 C 0.75371 0.92193 0.13691 0.0
C3079 C 0.73061 0.92222 0.13858 0.0
C3080 C 0.72044 0.90605 0.14629 0.0
H3081 H 0.61579 0.99438 0.11499 0.0
H3082 H 0.64452 0.97219 0.12555 0.0
C3083 C 0.73319 0.88949 0.1521 0.0
C3084 C 0.71677 0.93842 0.13158 0.0
H3085 H 0.68438 0.98426 0.13592 0.0
C3086 C 0.71223 0.93452 0.11854 0.0
C3087 C 0.70691 0.95666 0.1379 0.0
C3088 C 0.71162 0.96145 0.15189 0.0
C3089 C 0.6973 0.948 0.11172 0.0
C3090 C 0.68716 0.96618 0.11807 0.0
C3091 C 0.69222 0.97036 0.13106 0.0
C3092 C 0.67017 0.98018 0.1117 0.0
C3093 C 0.69174 0.94201 0.09797 0.0
C3094 C 0.6751 0.99212 0.10043 0.0
C3095 C 0.6586 0.0046 0.0943 0.0
C3096 C 0.6371 0.00574 0.09951 0.0
C3097 C 0.63228 0.9939 0.11082 0.0
C3098 C 0.64869 0.98132 0.11689 0.0
H3099 H 0.69662 0.92467 0.09563 0.0
H3100 H 0.67368 0.94392 0.0961 0.0
H3101 H 0.70086 0.95326 0.09136 0.0
H3102 H 0.69163 0.99165 0.09633 0.0
H3103 H 0.66255 0.01294 0.08535 0.0
H3104 H 0.62219 0.52296 0.59622 0.0
H3105 H 0.65141 0.54487 0.60653 0.0
H3106 H 0.68836 0.48502 0.61435 0.0
H3107 H 0.659 0.46292 0.60431 0.0
H3108 H 0.66562 0.53827 0.63299 0.0
H3109 H 0.73418 0.52895 0.59737 0.0
H3110 H 0.70541 0.5244 0.59318 0.0
H3111 H 0.72013 0.50405 0.60246 0.0
C3112 C 0.63666 0.51447 0.59999 0.0
C3113 C 0.63848 0.49124 0.59918 0.0
C3114 C 0.65331 0.527 0.60587 0.0
C3115 C 0.67211 0.51655 0.61104 0.0
C3116 C 0.67416 0.4934 0.61016 0.0
H3117 H 0.7614 0.5855 0.66482 0.0
H3118 H 0.73891 0.55632 0.6546 0.0
C3119 C 0.65744 0.48081 0.6043 0.0
C3120 C 0.68884 0.52994 0.61799 0.0
H3121 H 0.7418 0.54997 0.61603 0.0
C3122 C 0.68235 0.5407 0.62936 0.0
C3123 C 0.71057 0.53305 0.61317 0.0
C3124 C 0.71809 0.52216 0.60083 0.0
C3125 C 0.69691 0.5549 0.63594 0.0
C3126 C 0.71858 0.55822 0.63105 0.0
C3127 C 0.72521 0.54717 0.61979 0.0
C3128 C 0.73381 0.57462 0.6369 0.0
C3129 C 0.68878 0.56691 0.6478 0.0
C3130 C 0.73869 0.59424 0.63021 0.0
C3131 C 0.75155 0.61076 0.63598 0.0
C3132 C 0.76002 0.60777 0.64845 0.0
C3133 C 0.75552 0.58793 0.65507 0.0
C3134 C 0.74253 0.5714 0.6493 0.0
H3135 H 0.67053 0.56522 0.64912 0.0
H3136 H 0.69711 0.55993 0.65643 0.0
H3137 H 0.69299 0.58485 0.64726 0.0
H3138 H 0.73202 0.59704 0.62065 0.0
H3139 H 0.75473 0.62598 0.63072 0.0
H3140 H 0.76416 0.41341 0.83451 0.0
H3141 H 0.74421 0.44356 0.84543 0.0
H3142 H 0.73082 0.40004 0.87751 0.0
H3143 H 0.75147 0.37027 0.8669 0.0
H3144 H 0.70081 0.44363 0.85227 0.0
H3145 H 0.75233 0.4553 0.89587 0.0
H3146 H 0.7621 0.44019 0.88195 0.0
H3147 H 0.74452 0.4268 0.89365 0.0
C3148 C 0.75761 0.41058 0.84408 0.0
C3149 C 0.75991 0.38978 0.85006 0.0
C3150 C 0.74603 0.4277 0.85024 0.0
C3151 C 0.73653 0.42422 0.86243 0.0
C3152 C 0.73862 0.40334 0.86831 0.0
H3153 H 0.62986 0.4761 0.90601 0.0
H3154 H 0.65975 0.45497 0.8957 0.0
C3155 C 0.75021 0.38628 0.86218 0.0
C3156 C 0.72284 0.44168 0.86859 0.0
H3157 H 0.7147 0.4691 0.89702 0.0
C3158 C 0.70409 0.44953 0.86196 0.0
C3159 C 0.72719 0.44942 0.88122 0.0
C3160 C 0.74776 0.44266 0.88853 0.0
C3161 C 0.68898 0.46403 0.86787 0.0
C3162 C 0.69275 0.47077 0.8807 0.0
C3163 C 0.71189 0.46371 0.88718 0.0
C3164 C 0.67605 0.48389 0.88776 0.0
C3165 C 0.66859 0.47145 0.86061 0.0
C3166 C 0.67562 0.5071 0.88677 0.0
C3167 C 0.6586 0.51922 0.89266 0.0
C3168 C 0.64185 0.50823 0.89964 0.0
C3169 C 0.64262 0.48499 0.90076 0.0
C3170 C 0.65966 0.47292 0.89492 0.0
H3171 H 0.66831 0.46509 0.85057 0.0
H3172 H 0.65346 0.46554 0.86567 0.0
H3173 H 0.6679 0.48988 0.86036 0.0
H3174 H 0.68807 0.51574 0.88114 0.0
H3175 H 0.65808 0.53703 0.89128 0.0
H3176 H 0.8753 0.50416 0.11778 0.0
H3177 H 0.84575 0.48209 0.12775 0.0
H3178 H 0.80705 0.48686 0.0929 0.0
H3179 H 0.83684 0.50865 0.08279 0.0
H3180 H 0.79842 0.492 0.13126 0.0
H3181 H 0.81568 0.41893 0.09987 0.0
H3182 H 0.83514 0.44155 0.10164 0.0
H3183 H 0.81071 0.44505 0.09195 0.0
C3184 C 0.86038 0.50065 0.11231 0.0
C3185 C 0.85813 0.50833 0.09961 0.0
C3186 C 0.84352 0.48817 0.11801 0.0
C3187 C 0.82429 0.48287 0.11104 0.0
C3188 C 0.82181 0.49081 0.09841 0.0
H3189 H 0.71163 0.40863 0.14327 0.0
H3190 H 0.73367 0.43777 0.13294 0.0
C3191 C 0.83868 0.50342 0.09271 0.0
C3192 C 0.80757 0.46795 0.11686 0.0
H3193 H 0.78797 0.41481 0.11563 0.0
C3194 C 0.79589 0.4752 0.12778 0.0
C3195 C 0.80458 0.44601 0.11233 0.0
C3196 C 0.81724 0.43724 0.10086 0.0
C3197 C 0.78148 0.46087 0.13443 0.0
C3198 C 0.77876 0.43885 0.13 0.0
C3199 C 0.79011 0.43176 0.11894 0.0
C3200 C 0.76533 0.42238 0.13712 0.0
C3201 C 0.7699 0.46904 0.14641 0.0
C3202 C 0.77587 0.40418 0.1429 0.0
C3203 C 0.76338 0.38767 0.14893 0.0
C3204 C 0.74008 0.38905 0.1493 0.0
C3205 C 0.72954 0.40745 0.1436 0.0
C3206 C 0.7421 0.42403 0.13758 0.0
H3207 H 0.77621 0.48551 0.14958 0.0
H3208 H 0.75183 0.47054 0.14449 0.0
H3209 H 0.77209 0.45695 0.1544 0.0
H3210 H 0.7938 0.4026 0.14258 0.0
H3211 H 0.77196 0.37364 0.15317 0.0
H3212 H 0.72989 0.58653 0.3337 0.0
H3213 H 0.75028 0.5559 0.34375 0.0
H3214 H 0.76795 0.59863 0.37547 0.0
H3215 H 0.74701 0.62897 0.36576 0.0
H3216 H 0.79492 0.5549 0.34955 0.0
H3217 H 0.74566 0.54352 0.39405 0.0
H3218 H 0.7353 0.55876 0.38033 0.0
H3219 H 0.75369 0.57192 0.39168 0.0
C3220 C 0.73753 0.58923 0.34298 0.0
C3221 C 0.73637 0.61005 0.34908 0.0
C3222 C 0.74937 0.57176 0.34866 0.0
C3223 C 0.76016 0.57484 0.36051 0.0
C3224 C 0.75921 0.59568 0.36651 0.0
H3225 H 0.86987 0.52255 0.40072 0.0
H3226 H 0.83997 0.54364 0.39041 0.0
C3227 C 0.74743 0.61308 0.36087 0.0
C3228 C 0.77381 0.55694 0.36626 0.0
H3229 H 0.78316 0.52923 0.39446 0.0
C3230 C 0.79209 0.54894 0.35927 0.0
C3231 C 0.77002 0.5491 0.37893 0.0
C3232 C 0.74996 0.5561 0.38663 0.0
C3233 C 0.8074 0.53429 0.36489 0.0
C3234 C 0.80429 0.52756 0.37779 0.0
C3235 C 0.78548 0.53463 0.38459 0.0
C3236 C 0.8214 0.51458 0.38461 0.0
C3237 C 0.8273 0.52668 0.35725 0.0
C3238 C 0.82059 0.49132 0.3848 0.0
C3239 C 0.83766 0.47921 0.39067 0.0
C3240 C 0.85565 0.49026 0.39649 0.0
C3241 C 0.85616 0.5136 0.39638 0.0
C3242 C 0.83913 0.52565 0.39053 0.0
H3243 H 0.82644 0.53202 0.34702 0.0
H3244 H 0.84265 0.53361 0.36162 0.0
H3245 H 0.82861 0.50829 0.35762 0.0
H3246 H 0.80707 0.48257 0.38014 0.0
H3247 H 0.83714 0.46127 0.39019 0.0
H3248 H 0.25255 0.36587 0.36456 0.0
H3249 H 0.27501 0.3944 0.37518 0.0
H3250 H 0.2566 0.44166 0.34588 0.0
H3251 H 0.23447 0.41294 0.33497 0.0
H3252 H 0.31079 0.42314 0.35819 0.0
H3253 H 0.24541 0.46753 0.38623 0.0
H3254 H 0.24297 0.43817 0.38284 0.0
H3255 H 0.23994 0.4579 0.37006 0.0
C3256 C 0.25314 0.38239 0.36044 0.0
C3257 C 0.24137 0.38736 0.34911 0.0
C3258 C 0.2659 0.39864 0.36652 0.0
C3259 C 0.26715 0.4201 0.36137 0.0
C3260 C 0.25546 0.42522 0.35007 0.0
H3261 H 0.3412 0.53308 0.39239 0.0
H3262 H 0.3138 0.51014 0.38111 0.0
C3263 C 0.24271 0.4089 0.34394 0.0
C3264 C 0.28184 0.43662 0.36748 0.0
H3265 H 0.28258 0.47854 0.38959 0.0
C3266 C 0.30467 0.43539 0.36498 0.0
C3267 C 0.27364 0.45257 0.37623 0.0
C3268 C 0.24915 0.4543 0.37908 0.0
C3269 C 0.3197 0.44956 0.37122 0.0
C3270 C 0.31166 0.46493 0.38042 0.0
C3271 C 0.28869 0.46661 0.38262 0.0
C3272 C 0.32698 0.47893 0.38807 0.0
C3273 C 0.34404 0.44796 0.36785 0.0
C3274 C 0.343 0.469 0.39602 0.0
C3275 C 0.35857 0.48204 0.4025 0.0
C3276 C 0.35815 0.50528 0.40134 0.0
C3277 C 0.34159 0.51527 0.39375 0.0
C3278 C 0.32605 0.50218 0.3872 0.0
H3279 H 0.34657 0.44033 0.35822 0.0
H3280 H 0.35204 0.46459 0.36794 0.0
H3281 H 0.35256 0.43734 0.37506 0.0
H3282 H 0.34371 0.4511 0.39703 0.0
H3283 H 0.37115 0.47393 0.40829 0.0
H3284 H 0.33862 0.4879 0.08293 0.0
H3285 H 0.30964 0.51106 0.09279 0.0
H3286 H 0.34941 0.5173 0.12715 0.0
H3287 H 0.37824 0.49405 0.11741 0.0
H3288 H 0.28553 0.50708 0.11742 0.0
H3289 H 0.33938 0.58183 0.11392 0.0
H3290 H 0.34492 0.55665 0.10504 0.0
H3291 H 0.35194 0.55843 0.12182 0.0
C3292 C 0.34085 0.49371 0.09271 0.0
C3293 C 0.36045 0.48896 0.09951 0.0
C3294 C 0.3244 0.50704 0.09828 0.0
C3295 C 0.32752 0.51594 0.11064 0.0
C3296 C 0.34683 0.51071 0.11755 0.0
H3297 H 0.2391 0.58761 0.16187 0.0
H3298 H 0.26143 0.5589 0.15121 0.0
C3299 C 0.36323 0.49746 0.112 0.0
C3300 C 0.31129 0.53179 0.11607 0.0
H3301 H 0.306 0.58564 0.12577 0.0
C3302 C 0.28989 0.52429 0.11921 0.0
C3303 C 0.31705 0.55425 0.11822 0.0
C3304 C 0.33949 0.5634 0.11448 0.0
C3305 C 0.27417 0.53868 0.12474 0.0
C3306 C 0.2802 0.56097 0.12727 0.0
C3307 C 0.30148 0.56849 0.12389 0.0
C3308 C 0.26477 0.57703 0.1333 0.0
C3309 C 0.25121 0.53002 0.12769 0.0
C3310 C 0.25945 0.59677 0.12682 0.0
C3311 C 0.24681 0.61311 0.13289 0.0
C3312 C 0.23913 0.60994 0.14551 0.0
C3313 C 0.24419 0.59009 0.15197 0.0
C3314 C 0.25696 0.57373 0.1459 0.0
H3315 H 0.24752 0.51453 0.12227 0.0
H3316 H 0.25001 0.52624 0.13812 0.0
H3317 H 0.23836 0.54262 0.12533 0.0
H3318 H 0.26547 0.59971 0.11713 0.0
H3319 H 0.24322 0.62837 0.12776 0.0
H3320 H 0.22617 0.61997 0.84154 0.0
H3321 H 0.2048 0.59062 0.85213 0.0
H3322 H 0.26558 0.56055 0.86553 0.0
H3323 H 0.28705 0.59017 0.85523 0.0
H3324 H 0.20689 0.54294 0.84949 0.0
H3325 H 0.22867 0.57295 0.89863 0.0
H3326 H 0.23281 0.58971 0.88441 0.0
H3327 H 0.25146 0.56725 0.88793 0.0
C3328 C 0.23498 0.60697 0.84663 0.0
C3329 C 0.25828 0.6072 0.8474 0.0
C3330 C 0.22278 0.59021 0.85264 0.0
C3331 C 0.23364 0.57354 0.85966 0.0
C3332 C 0.25692 0.57336 0.86019 0.0
H3333 H 0.15862 0.46137 0.89198 0.0
H3334 H 0.18821 0.48288 0.88169 0.0
C3335 C 0.26917 0.59012 0.85414 0.0
C3336 C 0.22034 0.55704 0.86686 0.0
H3337 H 0.20457 0.54226 0.89726 0.0
C3338 C 0.20654 0.54256 0.85993 0.0
C3339 C 0.21983 0.55685 0.88048 0.0
C3340 C 0.23383 0.57259 0.88836 0.0
C3341 C 0.19187 0.52812 0.86628 0.0
C3342 C 0.1912 0.52809 0.87989 0.0
C3343 C 0.20531 0.54226 0.88682 0.0
C3344 C 0.17462 0.51483 0.88706 0.0
C3345 C 0.17654 0.51369 0.85838 0.0
C3346 C 0.1576 0.5257 0.89379 0.0
C3347 C 0.14085 0.51348 0.8998 0.0
C3348 C 0.14098 0.49016 0.89932 0.0
C3349 C 0.15838 0.47928 0.89285 0.0
C3350 C 0.17513 0.49154 0.8868 0.0
H3351 H 0.17647 0.51852 0.84805 0.0
H3352 H 0.18205 0.49614 0.85907 0.0
H3353 H 0.15928 0.51466 0.86212 0.0
H3354 H 0.15694 0.54369 0.89408 0.0
H3355 H 0.12759 0.52229 0.90467 0.0
H3356 H 0.25452 0.40891 0.66512 0.0
H3357 H 0.23299 0.43869 0.6548 0.0
H3358 H 0.23097 0.40088 0.61954 0.0
H3359 H 0.25274 0.37134 0.62972 0.0
H3360 H 0.24094 0.44864 0.61684 0.0
H3361 H 0.16555 0.42953 0.64596 0.0
H3362 H 0.19104 0.43424 0.65459 0.0
H3363 H 0.18838 0.41025 0.64446 0.0
C3364 C 0.24992 0.40726 0.65508 0.0
C3365 C 0.25553 0.38806 0.64812 0.0
C3366 C 0.23747 0.42412 0.64926 0.0
C3367 C 0.23042 0.4219 0.63643 0.0
C3368 C 0.23636 0.40291 0.62943 0.0
H3369 H 0.12407 0.47519 0.59218 0.0
H3370 H 0.15242 0.45305 0.60311 0.0
C3371 C 0.24868 0.38605 0.63525 0.0
C3372 C 0.21581 0.43868 0.63041 0.0
H3373 H 0.16243 0.45772 0.63041 0.0
C3374 C 0.22384 0.45086 0.61987 0.0
C3375 C 0.19349 0.44127 0.63435 0.0
C3376 C 0.18393 0.42808 0.6454 0.0
C3377 C 0.20994 0.46541 0.61302 0.0
C3378 C 0.18755 0.46775 0.61686 0.0
C3379 C 0.17966 0.45587 0.62754 0.0
C3380 C 0.17157 0.48139 0.60949 0.0
C3381 C 0.21899 0.47757 0.60145 0.0
C3382 C 0.17308 0.50464 0.60943 0.0
C3383 C 0.15685 0.51736 0.60321 0.0
C3384 C 0.13895 0.50697 0.59691 0.0
C3385 C 0.13774 0.48366 0.59687 0.0
C3386 C 0.15389 0.471 0.6031 0.0
H3387 H 0.23574 0.4715 0.59864 0.0
H3388 H 0.20758 0.47568 0.59312 0.0
H3389 H 0.22023 0.49555 0.60369 0.0
H3390 H 0.1864 0.51294 0.61454 0.0
H3391 H 0.15786 0.53526 0.60386 0.0
H3392 H 0.3109 0.17541 0.23163 0.0
H3393 H 0.28999 0.19987 0.24619 0.0
H3394 H 0.25598 0.22849 0.21358 0.0
H3395 H 0.27732 0.20468 0.19907 0.0
H3396 H 0.27509 0.25977 0.22932 0.0
H3397 H 0.22537 0.19985 0.258 0.0
H3398 H 0.2546 0.19391 0.25766 0.0
H3399 H 0.23868 0.19233 0.24304 0.0
C3400 C 0.29858 0.18661 0.22767 0.0
C3401 C 0.29548 0.18809 0.21431 0.0
C3402 C 0.28663 0.20049 0.23595 0.0
C3403 C 0.2713 0.21582 0.23094 0.0
C3404 C 0.26766 0.21669 0.21762 0.0
H3405 H 0.18769 0.31912 0.2632 0.0
H3406 H 0.20913 0.29526 0.24856 0.0
C3407 C 0.27967 0.20295 0.20937 0.0
C3408 C 0.26033 0.2322 0.23943 0.0
H3409 H 0.22586 0.23725 0.26532 0.0
C3410 C 0.26422 0.25488 0.23716 0.0
C3411 C 0.24625 0.22571 0.24965 0.0
C3412 C 0.24077 0.20164 0.25219 0.0
C3413 C 0.25459 0.27128 0.24495 0.0
C3414 C 0.2406 0.26477 0.25518 0.0
C3415 C 0.23671 0.24211 0.25747 0.0
C3416 C 0.2296 0.28114 0.26362 0.0
C3417 C 0.25975 0.29539 0.24234 0.0
C3418 C 0.23423 0.2812 0.27685 0.0
C3419 C 0.22206 0.29474 0.28515 0.0
C3420 C 0.20505 0.30836 0.28034 0.0
C3421 C 0.20096 0.30894 0.26705 0.0
C3422 C 0.21317 0.29537 0.25872 0.0
H3423 H 0.27456 0.29736 0.23606 0.0
H3424 H 0.24535 0.30318 0.23743 0.0
H3425 H 0.26267 0.30451 0.25149 0.0
H3426 H 0.24675 0.27021 0.2808 0.0
H3427 H 0.22515 0.29362 0.29541 0.0
H3428 H 0.92136 0.94407 0.51365 0.0
H3429 H 0.94597 0.96584 0.49955 0.0
H3430 H 0.97708 0.995 0.53294 0.0
H3431 H 0.953 0.97298 0.54697 0.0
H3432 H 0.95576 0.01299 0.49768 0.0
H3433 H 0.02798 0.9625 0.51372 0.0
H3434 H -0.00041 0.95422 0.51664 0.0
H3435 H 0.01232 0.97522 0.52648 0.0
C3436 C 0.93316 0.95552 0.5179 0.0
C3437 C 0.93536 0.95698 0.53132 0.0
C3438 C 0.94718 0.96785 0.50989 0.0
C3439 C 0.96354 0.98165 0.51526 0.0
C3440 C 0.96476 0.98415 0.52866 0.0
H3441 H 0.0715 0.06026 0.48369 0.0
H3442 H 0.04573 0.04027 0.498 0.0
C3443 C 0.95084 0.97181 0.53664 0.0
C3444 C 0.98024 0.9924 0.50693 0.0
H3445 H 0.03574 0.99314 0.50014 0.0
C3446 C 0.97323 0.00864 0.49817 0.0
C3447 C 0.00299 0.98658 0.50764 0.0
C3448 C 0.01122 0.96854 0.51654 0.0
C3449 C 0.98853 0.01956 0.49019 0.0
C3450 C 0.01127 0.01374 0.4909 0.0
C3451 C 0.01827 0.99752 0.49967 0.0
C3452 C 0.02798 0.02418 0.48245 0.0
C3453 C 0.98032 0.03749 0.48121 0.0
C3454 C 0.02691 0.02102 0.4691 0.0
C3455 C 0.04155 0.03228 0.461 0.0
C3456 C 0.05756 0.0467 0.46617 0.0
C3457 C 0.05932 0.04907 0.47957 0.0
C3458 C 0.04463 0.03779 0.48768 0.0
H3459 H 0.96356 0.04356 0.48399 0.0
H3460 H 0.99197 0.0518 0.48106 0.0
H3461 H 0.97925 0.0307 0.47129 0.0
H3462 H 0.01437 0.01031 0.46492 0.0
H3463 H 0.03973 0.03045 0.45068 0.0
H3464 H 0.31034 0.67721 0.76426 0.0
H3465 H 0.28933 0.70162 0.74968 0.0
H3466 H 0.25489 0.72981 0.78224 0.0
H3467 H 0.27613 0.70592 0.79678 0.0
H3468 H 0.24234 0.70874 0.74607 0.0
H3469 H 0.28598 0.78334 0.76492 0.0
H3470 H 0.29566 0.75542 0.76789 0.0
H3471 H 0.27279 0.76648 0.77697 0.0
C3472 C 0.29796 0.68836 0.76821 0.0
C3473 C 0.29472 0.68974 0.78156 0.0
C3474 C 0.28606 0.70227 0.75993 0.0
C3475 C 0.27092 0.71774 0.76496 0.0
C3476 C 0.26679 0.71821 0.77823 0.0
H3477 H 0.18752 0.8205 0.73221 0.0
H3478 H 0.20857 0.79607 0.74676 0.0
C3479 C 0.27869 0.70438 0.78649 0.0
C3480 C 0.26013 0.73409 0.75641 0.0
H3481 H 0.25631 0.78971 0.75035 0.0
C3482 C 0.24543 0.72643 0.74694 0.0
C3483 C 0.2643 0.75713 0.75763 0.0
C3484 C 0.28068 0.76614 0.76732 0.0
C3485 C 0.23439 0.74132 0.73877 0.0
C3486 C 0.23852 0.76436 0.74001 0.0
C3487 C 0.25323 0.77202 0.74947 0.0
C3488 C 0.22767 0.7807 0.73151 0.0
C3489 C 0.21807 0.73234 0.72903 0.0
C3490 C 0.23214 0.78063 0.71826 0.0
C3491 C 0.22026 0.79452 0.71002 0.0
C3492 C 0.20388 0.80879 0.71494 0.0
C3493 C 0.20021 0.80969 0.72827 0.0
C3494 C 0.21212 0.79576 0.73653 0.0
H3495 H 0.21304 0.71501 0.73128 0.0
H3496 H 0.20295 0.74289 0.72861 0.0
H3497 H 0.22589 0.73242 0.71936 0.0
H3498 H 0.2443 0.7693 0.71426 0.0
H3499 H 0.2231 0.79328 0.69975 0.0
H3500 H 0.45628 0.97174 0.94968 0.0
H3501 H 0.48138 0.99268 0.96367 0.0
H3502 H 0.45046 0.96336 0.99709 0.0
H3503 H 0.42519 0.94232 0.98302 0.0
H3504 H 0.47407 0.02275 0.98446 0.0
H3505 H 0.51668 0.9451 -0.00037 0.0
H3506 H 0.49799 0.94615 0.98605 0.0
H3507 H 0.48714 0.94546 0.00216 0.0
C3508 C 0.45445 0.97025 0.96002 0.0
C3509 C 0.43883 0.95557 0.96535 0.0
C3510 C 0.46887 0.98207 0.96798 0.0
C3511 C 0.46797 0.97923 0.98136 0.0
C3512 C 0.4516 0.96545 0.98675 0.0
H3513 H 0.54331 0.02813 0.04532 0.0
H3514 H 0.51919 0.00773 0.03054 0.0
C3515 C 0.43712 0.95363 0.97877 0.0
C3516 C 0.48494 0.98986 0.98957 0.0
H3517 H 0.52822 0.97842 0.00974 0.0
C3518 C 0.48597 0.01312 0.98997 0.0
C3519 C 0.5005 0.97713 0.99662 0.0
C3520 C 0.50074 0.95208 0.99605 0.0
C3521 C 0.50187 0.02406 0.99754 0.0
C3522 C 0.51732 0.01133 0.00466 0.0
C3523 C 0.51639 0.98807 0.00419 0.0
C3524 C 0.53367 0.02187 0.01332 0.0
C3525 C 0.50161 0.04911 0.99813 0.0
C3526 C 0.55031 0.03593 0.00847 0.0
C3527 C 0.56427 0.04744 0.01691 0.0
C3528 C 0.56175 0.04491 0.03026 0.0
C3529 C 0.5458 0.03004 0.03505 0.0
C3530 C 0.53192 0.01853 0.02663 0.0
H3531 H 0.48594 0.05615 0.99423 0.0
H3532 H 0.50373 0.05497 0.0082 0.0
H3533 H 0.51562 0.05575 0.99235 0.0
H3534 H 0.55209 0.03842 0.99819 0.0
H3535 H 0.57644 0.05892 0.01307 0.0
H3536 H 0.30881 0.819 0.26485 0.0
H3537 H 0.28769 0.795 0.25015 0.0
H3538 H 0.25144 0.76808 0.28242 0.0
H3539 H 0.27274 0.7917 0.29709 0.0
H3540 H 0.27288 0.73612 0.26666 0.0
H3541 H 0.22227 0.79534 0.23792 0.0
H3542 H 0.2513 0.80201 0.23912 0.0
H3543 H 0.23425 0.8026 0.25331 0.0
C3544 C 0.29587 0.80839 0.2687 0.0
C3545 C 0.29213 0.8073 0.28201 0.0
C3546 C 0.28385 0.79474 0.26034 0.0
C3547 C 0.26793 0.77992 0.26523 0.0
C3548 C 0.26357 0.77952 0.27849 0.0
H3549 H 0.18917 0.67329 0.23228 0.0
H3550 H 0.20984 0.69748 0.24709 0.0
C3551 C 0.27557 0.79315 0.28683 0.0
C3552 C 0.25733 0.76341 0.25672 0.0
H3553 H 0.22317 0.75796 0.23074 0.0
C3554 C 0.2619 0.74083 0.25884 0.0
C3555 C 0.24318 0.76972 0.24652 0.0
C3556 C 0.23726 0.79372 0.24409 0.0
C3557 C 0.25293 0.72432 0.25085 0.0
C3558 C 0.23875 0.73063 0.24066 0.0
C3559 C 0.23414 0.75322 0.23856 0.0
C3560 C 0.22832 0.71414 0.23202 0.0
C3561 C 0.2591 0.70037 0.25322 0.0
C3562 C 0.23202 0.71542 0.21871 0.0
C3563 C 0.22017 0.7018 0.21031 0.0
C3564 C 0.20445 0.68669 0.2151 0.0
C3565 C 0.20143 0.68469 0.22844 0.0
C3566 C 0.21323 0.69843 0.23686 0.0
H3567 H 0.27446 0.6989 0.2591 0.0
H3568 H 0.24543 0.69208 0.25854 0.0
H3569 H 0.26162 0.69138 0.244 0.0
H3570 H 0.24353 0.72752 0.2148 0.0
H3571 H 0.22245 0.70394 0.20004 0.0
H3572 H 0.41427 0.03958 0.51797 0.0
H3573 H 0.43804 0.01767 0.50336 0.0
H3574 H 0.49452 0.03054 0.52786 0.0
H3575 H 0.47084 0.05201 0.54242 0.0
H3576 H 0.47619 0.03361 0.49035 0.0
H3577 H 0.49719 0.96323 0.52262 0.0
H3578 H 0.47417 0.98172 0.52571 0.0
H3579 H 0.50204 0.99002 0.52969 0.0
C3580 C 0.4317 0.03736 0.52023 0.0
C3581 C 0.44089 0.04723 0.53122 0.0
C3582 C 0.44522 0.02498 0.51193 0.0
C3583 C 0.46793 0.02227 0.51466 0.0
C3584 C 0.47696 0.03204 0.52574 0.0
H3585 H 0.58199 0.96214 0.47708 0.0
H3586 H 0.55733 0.9839 0.49123 0.0
C3587 C 0.46351 0.04434 0.53399 0.0
C3588 C 0.48263 0.01031 0.50563 0.0
H3589 H 0.51916 0.9671 0.50367 0.0
C3590 C 0.48545 0.01894 0.4932 0.0
C3591 C 0.49479 0.99132 0.50946 0.0
C3592 C 0.49178 0.98088 0.52256 0.0
C3593 C 0.50052 0.00934 0.48453 0.0
C3594 C 0.51277 0.99043 0.48839 0.0
C3595 C 0.50986 0.98173 0.5008 0.0
C3596 C 0.528 0.9788 0.47951 0.0
C3597 C 0.50354 0.01977 0.47143 0.0
C3598 C 0.5196 0.96886 0.46832 0.0
C3599 C 0.53357 0.95663 0.46032 0.0
C3600 C 0.55608 0.95405 0.46345 0.0
C3601 C 0.56466 0.96416 0.47453 0.0
C3602 C 0.55063 0.97645 0.48256 0.0
H3603 H 0.49775 0.03729 0.47128 0.0
H3604 H 0.52123 0.01928 0.46841 0.0
H3605 H 0.49364 0.01035 0.46426 0.0
H3606 H 0.50211 0.97008 0.46595 0.0
H3607 H 0.52672 0.94871 0.45182 0.0
H3608 H 0.30537 0.27529 0.70406 0.0
H3609 H 0.28437 0.24889 0.71723 0.0
H3610 H 0.26063 0.30289 0.74087 0.0
H3611 H 0.28167 0.32946 0.72753 0.0
H3612 H 0.28997 0.24196 0.74369 0.0
H3613 H 0.2038 0.26772 0.73155 0.0
H3614 H 0.22755 0.27572 0.72197 0.0
H3615 H 0.22174 0.28979 0.73685 0.0
C3616 C 0.29554 0.28146 0.71204 0.0
C3617 C 0.29508 0.30423 0.71493 0.0
C3618 C 0.2836 0.26644 0.71952 0.0
C3619 C 0.27088 0.27398 0.72994 0.0
C3620 C 0.27013 0.29683 0.73274 0.0
H3621 H 0.22181 0.20284 0.79535 0.0
H3622 H 0.2436 0.22443 0.77995 0.0
C3623 C 0.28215 0.31193 0.72521 0.0
C3624 C 0.25926 0.25767 0.73815 0.0
H3625 H 0.20796 0.24143 0.74844 0.0
C3626 C 0.27203 0.24177 0.7447 0.0
C3627 C 0.23587 0.2573 0.73926 0.0
C3628 C 0.22136 0.2734 0.73196 0.0
C3629 C 0.26203 0.22575 0.75259 0.0
C3630 C 0.23869 0.22586 0.75405 0.0
C3631 C 0.22587 0.24144 0.74728 0.0
C3632 C 0.22732 0.2108 0.76313 0.0
C3633 C 0.27648 0.2088 0.75926 0.0
C3634 C 0.21106 0.19589 0.75874 0.0
C3635 C 0.1987 0.18339 0.76754 0.0
C3636 C 0.20236 0.18584 0.78081 0.0
C3637 C 0.21908 0.20028 0.78515 0.0
C3638 C 0.23146 0.21267 0.77637 0.0
H3639 H 0.29285 0.20703 0.75442 0.0
H3640 H 0.27951 0.21423 0.76932 0.0
H3641 H 0.26824 0.1923 0.75955 0.0
H3642 H 0.20757 0.19437 0.74855 0.0
H3643 H 0.18571 0.17249 0.76405 0.0
H3644 H 0.07298 0.9394 0.01336 0.0
H3645 H 0.04945 0.96114 -0.00135 0.0
H3646 H 0.01944 0.99405 0.03121 0.0
H3647 H 0.04282 0.9725 0.04581 0.0
H3648 H 0.00325 0.95887 -0.00093 0.0
H3649 H 0.03145 0.04557 0.00672 0.0
H3650 H 0.04793 0.02183 0.01139 0.0
H3651 H 0.0254 0.03111 0.02142 0.0
C3652 C 0.06176 0.95174 0.01727 0.0
C3653 C 0.05982 0.95457 0.03063 0.0
C3654 C 0.04832 0.96404 0.00892 0.0
C3655 C 0.03293 0.97937 0.01386 0.0
C3656 C 0.03158 0.98271 0.0272 0.0
H3657 H 0.92357 0.05736 0.98361 0.0
H3658 H 0.94899 0.03636 0.99763 0.0
C3659 C 0.04496 0.97043 0.03552 0.0
C3660 C 0.0167 0.99028 0.00526 0.0
H3661 H 0.99641 0.04087 0.99629 0.0
C3662 C 0.00188 0.9768 0.99835 0.0
C3663 C 0.01486 0.01365 0.00447 0.0
C3664 C 0.03089 0.0289 0.0113 0.0
C3665 C 0.98492 0.9861 0.99083 0.0
C3666 C 0.98297 0.00945 0.99013 0.0
C3667 C 0.99786 0.02294 0.99698 0.0
C3668 C 0.96623 0.0203 0.98188 0.0
C3669 C 0.96896 0.9709 0.9839 0.0
C3670 C 0.96748 0.01797 0.96847 0.0
C3671 C 0.9531 0.02988 0.96054 0.0
C3672 C 0.93726 0.04429 0.9659 0.0
C3673 C 0.93556 0.04615 0.97933 0.0
C3674 C 0.95005 0.03428 0.98728 0.0
H3675 H 0.96919 0.95383 0.98797 0.0
H3676 H 0.95173 0.97745 0.9844 0.0
H3677 H 0.97378 0.96982 0.97361 0.0
H3678 H 0.98015 0.00762 0.96413 0.0
H3679 H 0.95505 0.02861 0.9502 0.0
H3680 H 0.81261 0.67971 0.73309 0.0
H3681 H 0.7913 0.70448 0.74731 0.0
H3682 H 0.75725 0.73147 0.71425 0.0
H3683 H 0.7783 0.70675 0.70015 0.0
H3684 H 0.79282 0.75035 0.74598 0.0
H3685 H 0.70638 0.72061 0.7392 0.0
H3686 H 0.73026 0.70427 0.73462 0.0
H3687 H 0.72053 0.72627 0.72435 0.0
C3688 C 0.80012 0.69055 0.72898 0.0
C3689 C 0.79674 0.69116 0.71562 0.0
C3690 C 0.78808 0.70471 0.73704 0.0
C3691 C 0.77251 0.71958 0.73183 0.0
C3692 C 0.76876 0.71974 0.7185 0.0
H3693 H 0.69237 0.82747 0.76248 0.0
H3694 H 0.71441 0.80357 0.74811 0.0
C3695 C 0.78074 0.70559 0.71046 0.0
C3696 C 0.76152 0.73622 0.74012 0.0
H3697 H 0.71079 0.75585 0.74933 0.0
C3698 C 0.77489 0.75147 0.7468 0.0
C3699 C 0.73813 0.73771 0.74106 0.0
C3700 C 0.72298 0.72122 0.73452 0.0
C3701 C 0.76546 0.7684 0.75429 0.0
C3702 C 0.7421 0.76993 0.75517 0.0
C3703 C 0.72872 0.75472 0.74849 0.0
C3704 C 0.73112 0.78629 0.76362 0.0
C3705 C 0.7805 0.78469 0.76107 0.0
C3706 C 0.73354 0.78461 0.777 0.0
C3707 C 0.72099 0.79808 0.78513 0.0
C3708 C 0.70586 0.81345 0.78 0.0
C3709 C 0.70409 0.8158 0.7666 0.0
C3710 C 0.71657 0.80219 0.75844 0.0
H3711 H 0.79749 0.78474 0.75687 0.0
H3712 H 0.77361 0.80178 0.76057 0.0
H3713 H 0.78188 0.77998 0.77137 0.0
H3714 H 0.74435 0.77213 0.78116 0.0
H3715 H 0.72226 0.79563 0.79544 0.0
H3716 H 0.72175 0.29392 0.20155 0.0
H3717 H 0.74297 0.26991 0.21601 0.0
H3718 H 0.71297 0.30203 0.24883 0.0
H3719 H 0.69176 0.32638 0.23429 0.0
H3720 H 0.7727 0.27961 0.23749 0.0
H3721 H 0.69544 0.23478 0.25142 0.0
H3722 H 0.69686 0.2527 0.2375 0.0
H3723 H 0.69512 0.26448 0.25335 0.0
C3724 C 0.72021 0.29632 0.21185 0.0
C3725 C 0.70529 0.31201 0.21688 0.0
C3726 C 0.73219 0.2825 0.22008 0.0
C3727 C 0.72924 0.28405 0.23343 0.0
C3728 C 0.7152 0.30047 0.23852 0.0
H3729 H 0.77741 0.20516 0.29676 0.0
H3730 H 0.75642 0.22982 0.28255 0.0
C3731 C 0.70327 0.31441 0.23026 0.0
C3732 C 0.73993 0.26754 0.2419 0.0
H3733 H 0.72879 0.22311 0.26126 0.0
C3734 C 0.76316 0.26725 0.24271 0.0
C3735 C 0.72732 0.25143 0.24859 0.0
C3736 C 0.7023 0.25063 0.24765 0.0
C3737 C 0.7742 0.2514 0.25025 0.0
C3738 C 0.7616 0.23515 0.25686 0.0
C3739 C 0.73835 0.23551 0.25608 0.0
C3740 C 0.77229 0.21824 0.2651 0.0
C3741 C 0.79919 0.25249 0.25129 0.0
C3742 C 0.78744 0.20293 0.25989 0.0
C3743 C 0.79935 0.18875 0.268 0.0
C3744 C 0.79604 0.18959 0.28136 0.0
C3745 C 0.77994 0.20397 0.28646 0.0
C3746 C 0.7681 0.21816 0.27837 0.0
H3747 H 0.80575 0.26892 0.24823 0.0
H3748 H 0.80471 0.24923 0.26132 0.0
H3749 H 0.80663 0.23963 0.24497 0.0
H3750 H 0.79057 0.20249 0.24962 0.0
H3751 H 0.81181 0.17782 0.26392 0.0
H3752 H 0.71915 0.2062 0.69995 0.0
H3753 H 0.74015 0.23089 0.71415 0.0
H3754 H 0.71043 0.19945 0.74728 0.0
H3755 H 0.68976 0.17426 0.73302 0.0
H3756 H 0.71976 0.26048 0.73107 0.0
H3757 H 0.77644 0.203 0.757 0.0
H3758 H 0.76259 0.19541 0.74221 0.0
H3759 H 0.7477 0.19493 0.7572 0.0
C3760 C 0.71769 0.2041 0.71027 0.0
C3761 C 0.70313 0.18824 0.71546 0.0
C3762 C 0.7295 0.21832 0.71835 0.0
C3763 C 0.72693 0.21688 0.73174 0.0
C3764 C 0.71292 0.20055 0.73697 0.0
H3765 H 0.77503 0.29358 0.79605 0.0
H3766 H 0.75351 0.26957 0.78173 0.0
C3767 C 0.70113 0.18624 0.72887 0.0
C3768 C 0.73756 0.23363 0.74012 0.0
H3769 H 0.77428 0.23996 0.76483 0.0
C3770 C 0.73177 0.25605 0.73842 0.0
C3771 C 0.75313 0.22771 0.7497 0.0
C3772 C 0.76052 0.20399 0.7516 0.0
C3773 C 0.74094 0.27274 0.7462 0.0
C3774 C 0.75647 0.26681 0.75579 0.0
C3775 C 0.76227 0.2444 0.75748 0.0
C3776 C 0.76706 0.28351 0.76421 0.0
C3777 C 0.73362 0.29648 0.74428 0.0
C3778 C 0.78137 0.29965 0.75905 0.0
C3779 C 0.79347 0.31359 0.76722 0.0
C3780 C 0.79148 0.31139 0.78062 0.0
C3781 C 0.7765 0.29585 0.78573 0.0
C3782 C 0.76439 0.28201 0.77759 0.0
H3783 H 0.71783 0.29753 0.73877 0.0
H3784 H 0.73137 0.30499 0.75368 0.0
H3785 H 0.74659 0.30555 0.7388 0.0
H3786 H 0.78393 0.30079 0.74875 0.0
H3787 H 0.80516 0.32531 0.76313 0.0
H3788 H 0.79926 0.77844 0.2032 0.0
H3789 H 0.77801 0.75384 0.21739 0.0
H3790 H 0.7705 0.80731 0.24474 0.0
H3791 H 0.79216 0.83194 0.23051 0.0
H3792 H 0.78546 0.76644 0.2554 0.0
H3793 H 0.71102 0.75439 0.22458 0.0
H3794 H 0.73697 0.74908 0.21662 0.0
H3795 H 0.73057 0.77672 0.22203 0.0
C3796 C 0.79279 0.78492 0.21219 0.0
C3797 C 0.79703 0.80694 0.21584 0.0
C3798 C 0.78064 0.77095 0.22023 0.0
C3799 C 0.77243 0.77889 0.232 0.0
C3800 C 0.7766 0.80099 0.23564 0.0
H3801 H 0.7006 0.72081 0.2953 0.0
H3802 H 0.72329 0.74406 0.28113 0.0
C3803 C 0.78884 0.815 0.22756 0.0
C3804 C 0.76036 0.76371 0.24071 0.0
H3805 H 0.71433 0.73085 0.24281 0.0
C3806 C 0.76984 0.75873 0.2527 0.0
C3807 C 0.74015 0.75355 0.23705 0.0
C3808 C 0.72894 0.75882 0.22442 0.0
C3809 C 0.75973 0.74361 0.26113 0.0
C3810 C 0.7394 0.73357 0.25752 0.0
C3811 C 0.72999 0.73847 0.24549 0.0
C3812 C 0.72695 0.71891 0.26637 0.0
C3813 C 0.77108 0.73825 0.27371 0.0
C3814 C 0.72118 0.69719 0.26265 0.0
C3815 C 0.70803 0.68399 0.27071 0.0
C3816 C 0.70054 0.69246 0.28249 0.0
C3817 C 0.70653 0.714 0.28627 0.0
C3818 C 0.71953 0.72718 0.27823 0.0
H3819 H 0.78919 0.74172 0.27325 0.0
H3820 H 0.76392 0.74878 0.28144 0.0
H3821 H 0.76863 0.72056 0.2764 0.0
H3822 H 0.72662 0.69061 0.25347 0.0
H3823 H 0.70335 0.66743 0.26765 0.0
H3824 H 0.45716 0.47164 0.04703 0.0
H3825 H 0.48102 0.49363 0.03285 0.0
H3826 H 0.45146 0.46209 -0.0003 0.0
H3827 H 0.42713 0.44036 0.01394 0.0
H3828 H 0.51169 0.47414 0.016 0.0
H3829 H 0.45211 0.52836 0.9899 0.0
H3830 H 0.4451 0.51447 0.00477 0.0
H3831 H 0.44513 0.49934 0.98985 0.0
C3832 C 0.45527 0.46996 0.0367 0.0
C3833 C 0.44019 0.4546 0.0315 0.0
C3834 C 0.46902 0.48235 0.02863 0.0
C3835 C 0.46787 0.47957 0.01525 0.0
C3836 C 0.4523 0.46473 0.01 0.0
H3837 H 0.5428 0.52834 0.95058 0.0
H3838 H 0.51897 0.50728 0.96521 0.0
C3839 C 0.43849 0.45234 0.01809 0.0
C3840 C 0.48421 0.49086 0.0069 0.0
H3841 H 0.48914 0.52753 0.98206 0.0
C3842 C 0.50682 0.48592 0.00862 0.0
C3843 C 0.47771 0.50613 0.99729 0.0
C3844 C 0.45371 0.51259 0.99538 0.0
C3845 C 0.52314 0.49558 0.00078 0.0
C3846 C 0.51663 0.51077 0.99113 0.0
C3847 C 0.49403 0.51579 0.98947 0.0
C3848 C 0.53291 0.52159 0.98254 0.0
C3849 C 0.54713 0.48906 0.00268 0.0
C3850 C 0.54893 0.53627 0.98748 0.0
C3851 C 0.56278 0.5481 0.97912 0.0
C3852 C 0.56062 0.54547 0.96576 0.0
C3853 C 0.54505 0.53029 0.96087 0.0
C3854 C 0.53131 0.51844 0.96919 0.0
H3855 H 0.54873 0.47342 0.00828 0.0
H3856 H 0.55564 0.4869 0.99327 0.0
H3857 H 0.55583 0.50241 0.00805 0.0
H3858 H 0.55014 0.5392 0.99774 0.0
H3859 H 0.57453 0.55994 0.98304 0.0
H3860 H 0.07149 0.55974 0.5131 0.0
H3861 H 0.04662 0.53945 0.49842 0.0
H3862 H 0.01569 0.50736 0.53095 0.0
H3863 H 0.0402 0.52776 0.54557 0.0
H3864 H 0.03722 0.49162 0.49576 0.0
H3865 H 0.96475 0.54155 0.51207 0.0
H3866 H 0.99311 0.54992 0.51503 0.0
H3867 H 0.9806 0.52851 0.52464 0.0
C3868 C 0.05966 0.54798 0.51702 0.0
C3869 C 0.05772 0.54514 0.53038 0.0
C3870 C 0.04548 0.53652 0.50869 0.0
C3871 C 0.02916 0.52225 0.51367 0.0
C3872 C 0.02802 0.51854 0.52697 0.0
H3873 H 0.92188 0.44473 0.48102 0.0
H3874 H 0.94682 0.46544 0.49544 0.0
C3875 C 0.04217 0.52996 0.53528 0.0
C3876 C 0.01262 0.51201 0.50504 0.0
H3877 H 0.95729 0.51174 0.49783 0.0
C3878 C 0.01976 0.49604 0.49615 0.0
C3879 C 0.9899 0.51789 0.50565 0.0
C3880 C 0.98156 0.53553 0.51478 0.0
C3881 C 0.00461 0.48541 0.48795 0.0
C3882 C 0.98187 0.49133 0.48854 0.0
C3883 C 0.97474 0.50732 0.49743 0.0
C3884 C 0.96528 0.48095 0.47997 0.0
C3885 C 0.01297 0.46759 0.47894 0.0
C3886 C 0.9669 0.48364 0.4666 0.0
C3887 C 0.95278 0.47188 0.45843 0.0
C3888 C 0.93669 0.45749 0.46354 0.0
C3889 C 0.93416 0.45583 0.47693 0.0
C3890 C 0.94838 0.46755 0.48512 0.0
H3891 H 0.02955 0.46127 0.4819 0.0
H3892 H 0.00119 0.45341 0.47853 0.0
H3893 H 0.01454 0.4746 0.4691 0.0
H3894 H 0.9796 0.49422 0.46248 0.0
H3895 H 0.95517 0.47321 0.44812 0.0
H3896 H 0.07367 0.43907 0.9828 0.0
H3897 H 0.04908 0.4598 0.99742 0.0
H3898 H 0.01612 0.48928 0.96472 0.0
H3899 H 0.04059 0.4687 0.95018 0.0
H3900 H 0.02466 0.5193 0.98501 0.0
H3901 H 0.98334 0.44198 0.0019 0.0
H3902 H 0.01301 0.44256 0.0038 0.0
H3903 H 0.00115 0.44264 0.98792 0.0
C3904 C 0.0614 0.4503 0.97882 0.0
C3905 C 0.05899 0.45246 0.96545 0.0
C3906 C 0.0473 0.46195 0.98712 0.0
C3907 C 0.03058 0.47574 0.9821 0.0
C3908 C 0.02889 0.47867 0.96875 0.0
H3909 H 0.92273 0.55557 0.0136 0.0
H3910 H 0.94735 0.5346 -0.00088 0.0
C3911 C 0.04294 0.46705 0.96048 0.0
C3912 C 0.01423 0.48652 0.99067 0.0
H3913 H 0.97203 0.4756 0.0117 0.0
C3914 C 0.01312 0.50979 0.99084 0.0
C3915 C -0.00085 0.47398 0.99817 0.0
C3916 C 0.999 0.4489 0.9979 0.0
C3917 C 0.99753 0.52092 -0.00147 0.0
C3918 C 0.98245 0.50837 0.00603 0.0
C3919 C 0.98357 0.48511 0.00587 0.0
C3920 C 0.96603 0.51918 0.01453 0.0
C3921 C 0.99764 0.54599 -0.00121 0.0
C3922 C 0.96784 0.51663 0.02791 0.0
C3923 C 0.9538 0.52841 0.03611 0.0
C3924 C 0.93763 0.54277 0.03104 0.0
C3925 C 0.93508 0.54451 0.01766 0.0
C3926 C 0.94919 0.53272 0.00943 0.0
H3927 H 0.01325 0.55295 0.99474 0.0
H3928 H 0.98356 0.5523 0.99294 0.0
H3929 H 0.99556 0.55226 0.00878 0.0
H3930 H 0.98072 0.50622 0.032 0.0
H3931 H 0.95627 0.52709 0.04641 0.0
H3932 H 0.46972 0.56005 0.4582 0.0
H3933 H 0.49444 0.53897 0.47236 0.0
H3934 H 0.43765 0.51441 0.49338 0.0
H3935 H 0.41276 0.53548 0.47902 0.0
H3936 H 0.49836 0.54327 0.49907 0.0
H3937 H 0.47319 0.45792 0.48468 0.0
H3938 H 0.46628 0.48215 0.47525 0.0
H3939 H 0.45083 0.4758 0.48959 0.0
C3940 C 0.46258 0.55007 0.46584 0.0
C3941 C 0.4395 0.54932 0.46766 0.0
C3942 C 0.47665 0.5381 0.47389 0.0
C3943 C 0.46784 0.52507 0.48383 0.0
C3944 C 0.44471 0.52415 0.48562 0.0
H3945 H 0.52746 0.44411 0.54278 0.0
H3946 H 0.50265 0.46595 0.52904 0.0
C3947 C 0.43056 0.53618 0.47751 0.0
C3948 C 0.4831 0.51296 0.49246 0.0
H3949 H 0.49851 0.46102 0.50203 0.0
C3950 C 0.49845 0.52528 0.49972 0.0
C3951 C 0.48317 0.48953 0.4932 0.0
C3952 C 0.46764 0.4755 0.4852 0.0
C3953 C 0.51372 0.51475 0.50789 0.0
C3954 C 0.51375 0.49133 0.50863 0.0
C3955 C 0.4984 0.47901 0.50138 0.0
C3956 C 0.52909 0.4792 0.51719 0.0
C3957 C 0.52938 0.52873 0.51583 0.0
C3958 C 0.55216 0.47959 0.51507 0.0
C3959 C 0.56634 0.46711 0.52293 0.0
C3960 C 0.55749 0.45412 0.53287 0.0
C3961 C 0.5345 0.45403 0.53509 0.0
C3962 C 0.52039 0.46643 0.52728 0.0
H3963 H 0.52407 0.5464 0.51621 0.0
H3964 H 0.53054 0.52224 0.52582 0.0
H3965 H 0.54622 0.52807 0.5115 0.0
H3966 H 0.5591 0.48915 0.50721 0.0
H3967 H 0.58406 0.46726 0.52112 0.0
loop_
_geom_bond_atom_site_label_1
_geom_bond_atom_site_label_2
_geom_bond_distance
_geom_bond_site_symmetry_2
_ccdc_geom_bond_type
Co0 O3 1.970 . S
Co0 N17 1.989 . S
Co0 O25 1.967 . S
Co0 O32 1.920 . S
Co1 O4 1.966 . S
Co1 N10 2.022 . S
Co1 N18 1.993 . S
Co1 O26 1.941 . S
C2 O3 1.258 . S
C2 O4 1.263 . S
O3 Co0 1.970 . S
O3 C2 1.258 . S
O4 Co1 1.966 . S
O4 C2 1.263 . S
C5 O6 1.235 . S
C5 O32 1.289 . S
O6 C5 1.235 . S
C7 C9 1.400 . S
C7 N10 1.351 . S
C7 C12 1.501 . S
C8 C9 1.387 . S
C8 N11 1.341 . S
C9 C7 1.400 . S
C9 C8 1.387 . S
N10 Co1 2.022 . S
N10 C7 1.351 . S
N10 N11 1.365 . S
N11 C8 1.341 . S
N11 N10 1.365 . S
N11 H31 0.862 . S
C12 C7 1.501 . S
C12 H13 0.961 . S
C12 H14 0.961 . S
C12 H15 0.960 . S
H13 C12 0.961 . S
H14 C12 0.961 . S
H15 C12 0.960 . S
C16 N17 1.342 . S
C16 C20 1.401 . S
C16 C21 1.499 . S
N17 Co0 1.989 . S
N17 C16 1.342 . S
N17 N18 1.388 . S
N18 Co1 1.993 . S
N18 N17 1.388 . S
N18 C19 1.346 . S
C19 N18 1.346 . S
C19 C20 1.396 . S
C19 C29 1.510 . S
C20 C16 1.401 . S
C20 C19 1.396 . S
C21 C16 1.499 . S
C21 H22 0.959 . S
C21 H23 0.960 . S
C21 H24 0.961 . S
H22 C21 0.959 . S
H23 C21 0.960 . S
H24 C21 0.961 . S
O25 Co0 1.967 . S
O25 C33 1.258 . S
O26 Co1 1.941 . S
O26 C33 1.266 . S
H27 C29 0.959 . S
H28 C29 0.961 . S
C29 C19 1.510 . S
C29 H27 0.959 . S
C29 H28 0.961 . S
C29 H30 0.960 . S
H30 C29 0.960 . S
H31 N11 0.862 . S
O32 Co0 1.920 . S
O32 C5 1.289 . S
C33 O25 1.258 . S
C33 O26 1.266 . S
Co34 O37 1.970 . S
Co34 N51 1.989 . S
Co34 O59 1.967 . S
Co34 O66 1.920 . S
Co35 O38 1.966 . S
Co35 N44 2.022 . S
Co35 N52 1.993 . S
Co35 O60 1.941 . S
C36 O37 1.258 . S
C36 O38 1.263 . S
O37 Co34 1.970 . S
O37 C36 1.258 . S
O38 Co35 1.966 . S
O38 C36 1.263 . S
C39 O40 1.235 . S
C39 O66 1.289 . S
O40 C39 1.235 . S
C41 C43 1.400 . S
C41 N44 1.351 . S
C41 C46 1.501 . S
C42 C43 1.387 . S
C42 N45 1.341 . S
C43 C41 1.400 . S
C43 C42 1.387 . S
N44 Co35 2.022 . S
N44 C41 1.351 . S
N44 N45 1.365 . S
N45 C42 1.341 . S
N45 N44 1.365 . S
N45 H65 0.862 . S
C46 C41 1.501 . S
C46 H47 0.961 . S
C46 H48 0.961 . S
C46 H49 0.960 . S
H47 C46 0.961 . S
H48 C46 0.961 . S
H49 C46 0.960 . S
C50 N51 1.342 . S
C50 C54 1.401 . S
C50 C55 1.499 . S
N51 Co34 1.989 . S
N51 C50 1.342 . S
N51 N52 1.388 . S
N52 Co35 1.993 . S
N52 N51 1.388 . S
N52 C53 1.346 . S
C53 N52 1.346 . S
C53 C54 1.396 . S
C53 C63 1.510 . S
C54 C50 1.401 . S
C54 C53 1.396 . S
C55 C50 1.499 . S
C55 H56 0.959 . S
C55 H57 0.960 . S
C55 H58 0.961 . S
H56 C55 0.959 . S
H57 C55 0.960 . S
H58 C55 0.961 . S
O59 Co34 1.967 . S
O59 C67 1.258 . S
O60 Co35 1.941 . S
O60 C67 1.266 . S
H61 C63 0.959 . S
H62 C63 0.961 . S
C63 C53 1.510 . S
C63 H61 0.959 . S
C63 H62 0.961 . S
C63 H64 0.960 . S
H64 C63 0.960 . S
H65 N45 0.862 . S
O66 Co34 1.920 . S
O66 C39 1.289 . S
C67 O59 1.258 . S
C67 O60 1.266 . S
Co68 O71 1.970 . S
Co68 N85 1.989 . S
Co68 O93 1.967 . S
Co68 O100 1.920 . S
Co69 O72 1.966 . S
Co69 N78 2.022 . S
Co69 N86 1.993 . S
Co69 O94 1.941 . S
C70 O71 1.258 . S
C70 O72 1.263 . S
O71 Co68 1.970 . S
O71 C70 1.258 . S
O72 Co69 1.966 . S
O72 C70 1.263 . S
C73 O74 1.235 . S
C73 O100 1.289 . S
O74 C73 1.235 . S
C75 C77 1.400 . S
C75 N78 1.351 . S
C75 C80 1.501 . S
C76 C77 1.387 . S
C76 N79 1.341 . S
C77 C75 1.400 . S
C77 C76 1.387 . S
N78 Co69 2.022 . S
N78 C75 1.351 . S
N78 N79 1.365 . S
N79 C76 1.341 . S
N79 N78 1.365 . S
N79 H99 0.862 . S
C80 C75 1.501 . S
C80 H81 0.961 . S
C80 H82 0.961 . S
C80 H83 0.960 . S
H81 C80 0.961 . S
H82 C80 0.961 . S
H83 C80 0.960 . S
C84 N85 1.342 . S
C84 C88 1.401 . S
C84 C89 1.499 . S
N85 Co68 1.989 . S
N85 C84 1.342 . S
N85 N86 1.388 . S
N86 Co69 1.993 . S
N86 N85 1.388 . S
N86 C87 1.346 . S
C87 N86 1.346 . S
C87 C88 1.396 . S
C87 C97 1.510 . S
C88 C84 1.401 . S
C88 C87 1.396 . S
C89 C84 1.499 . S
C89 H90 0.959 . S
C89 H91 0.960 . S
C89 H92 0.961 . S
H90 C89 0.959 . S
H91 C89 0.960 . S
H92 C89 0.961 . S
O93 Co68 1.967 . S
O93 C101 1.258 . S
O94 Co69 1.941 . S
O94 C101 1.266 . S
H95 C97 0.959 . S
H96 C97 0.961 . S
C97 C87 1.510 . S
C97 H95 0.959 . S
C97 H96 0.961 . S
C97 H98 0.960 . S
H98 C97 0.960 . S
H99 N79 0.862 . S
O100 Co68 1.920 . S
O100 C73 1.289 . S
C101 O93 1.258 . S
C101 O94 1.266 . S
Co102 O105 1.970 . S
Co102 N119 1.989 . S
Co102 O127 1.967 . S
Co102 O134 1.920 . S
Co103 O106 1.966 . S
Co103 N112 2.022 . S
Co103 N120 1.993 . S
Co103 O128 1.941 . S
C104 O105 1.258 . S
C104 O106 1.263 . S
O105 Co102 1.970 . S
O105 C104 1.258 . S
O106 Co103 1.966 . S
O106 C104 1.263 . S
C107 O108 1.235 . S
C107 O134 1.289 . S
O108 C107 1.235 . S
C109 C111 1.400 . S
C109 N112 1.351 . S
C109 C114 1.501 . S
C110 C111 1.387 . S
C110 N113 1.341 . S
C111 C109 1.400 . S
C111 C110 1.387 . S
N112 Co103 2.022 . S
N112 C109 1.351 . S
N112 N113 1.365 . S
N113 C110 1.341 . S
N113 N112 1.365 . S
N113 H133 0.862 . S
C114 C109 1.501 . S
C114 H115 0.961 . S
C114 H116 0.961 . S
C114 H117 0.960 . S
H115 C114 0.961 . S
H116 C114 0.961 . S
H117 C114 0.960 . S
C118 N119 1.342 . S
C118 C122 1.401 . S
C118 C123 1.499 . S
N119 Co102 1.989 . S
N119 C118 1.342 . S
N119 N120 1.388 . S
N120 Co103 1.993 . S
N120 N119 1.388 . S
N120 C121 1.346 . S
C121 N120 1.346 . S
C121 C122 1.396 . S
C121 C131 1.510 . S
C122 C118 1.401 . S
C122 C121 1.396 . S
C123 C118 1.499 . S
C123 H124 0.959 . S
C123 H125 0.960 . S
C123 H126 0.961 . S
H124 C123 0.959 . S
H125 C123 0.960 . S
H126 C123 0.961 . S
O127 Co102 1.967 . S
O127 C135 1.258 . S
O128 Co103 1.941 . S
O128 C135 1.266 . S
H129 C131 0.959 . S
H130 C131 0.961 . S
C131 C121 1.510 . S
C131 H129 0.959 . S
C131 H130 0.961 . S
C131 H132 0.960 . S
H132 C131 0.960 . S
H133 N113 0.862 . S
O134 Co102 1.920 . S
O134 C107 1.289 . S
C135 O127 1.258 . S
C135 O128 1.266 . S
Co136 O139 1.970 . S
Co136 N153 1.989 . S
Co136 O161 1.967 . S
Co136 O168 1.920 . S
Co137 O140 1.966 . S
Co137 N146 2.022 . S
Co137 N154 1.993 . S
Co137 O162 1.941 . S
C138 O139 1.258 . S
C138 O140 1.263 . S
O139 Co136 1.970 . S
O139 C138 1.258 . S
O140 Co137 1.966 . S
O140 C138 1.263 . S
C141 O142 1.235 . S
C141 O168 1.289 . S
O142 C141 1.235 . S
C143 C145 1.400 . S
C143 N146 1.351 . S
C143 C148 1.501 . S
C144 C145 1.387 . S
C144 N147 1.341 . S
C145 C143 1.400 . S
C145 C144 1.387 . S
N146 Co137 2.022 . S
N146 C143 1.351 . S
N146 N147 1.365 . S
N147 C144 1.341 . S
N147 N146 1.365 . S
N147 H167 0.862 . S
C148 C143 1.501 . S
C148 H149 0.961 . S
C148 H150 0.961 . S
C148 H151 0.960 . S
H149 C148 0.961 . S
H150 C148 0.961 . S
H151 C148 0.960 . S
C152 N153 1.342 . S
C152 C156 1.401 . S
C152 C157 1.499 . S
N153 Co136 1.989 . S
N153 C152 1.342 . S
N153 N154 1.388 . S
N154 Co137 1.993 . S
N154 N153 1.388 . S
N154 C155 1.346 . S
C155 N154 1.346 . S
C155 C156 1.396 . S
C155 C165 1.510 . S
C156 C152 1.401 . S
C156 C155 1.396 . S
C157 C152 1.499 . S
C157 H158 0.959 . S
C157 H159 0.960 . S
C157 H160 0.961 . S
H158 C157 0.959 . S
H159 C157 0.960 . S
H160 C157 0.961 . S
O161 Co136 1.967 . S
O161 C169 1.258 . S
O162 Co137 1.941 . S
O162 C169 1.266 . S
H163 C165 0.959 . S
H164 C165 0.961 . S
C165 C155 1.510 . S
C165 H163 0.959 . S
C165 H164 0.961 . S
C165 H166 0.960 . S
H166 C165 0.960 . S
H167 N147 0.862 . S
O168 Co136 1.920 . S
O168 C141 1.289 . S
C169 O161 1.258 . S
C169 O162 1.266 . S
Co170 O173 1.970 . S
Co170 N187 1.989 . S
Co170 O195 1.967 . S
Co170 O202 1.920 . S
Co171 O174 1.966 . S
Co171 N180 2.022 . S
Co171 N188 1.993 . S
Co171 O196 1.941 . S
C172 O173 1.258 . S
C172 O174 1.263 . S
O173 Co170 1.970 . S
O173 C172 1.258 . S
O174 Co171 1.966 . S
O174 C172 1.263 . S
C175 O176 1.235 . S
C175 O202 1.289 . S
O176 C175 1.235 . S
C177 C179 1.400 . S
C177 N180 1.351 . S
C177 C182 1.501 . S
C178 C179 1.387 . S
C178 N181 1.341 . S
C179 C177 1.400 . S
C179 C178 1.387 . S
N180 Co171 2.022 . S
N180 C177 1.351 . S
N180 N181 1.365 . S
N181 C178 1.341 . S
N181 N180 1.365 . S
N181 H201 0.862 . S
C182 C177 1.501 . S
C182 H183 0.961 . S
C182 H184 0.961 . S
C182 H185 0.960 . S
H183 C182 0.961 . S
H184 C182 0.961 . S
H185 C182 0.960 . S
C186 N187 1.342 . S
C186 C190 1.401 . S
C186 C191 1.499 . S
N187 Co170 1.989 . S
N187 C186 1.342 . S
N187 N188 1.388 . S
N188 Co171 1.993 . S
N188 N187 1.388 . S
N188 C189 1.346 . S
C189 N188 1.346 . S
C189 C190 1.396 . S
C189 C199 1.510 . S
C190 C186 1.401 . S
C190 C189 1.396 . S
C191 C186 1.499 . S
C191 H192 0.959 . S
C191 H193 0.960 . S
C191 H194 0.961 . S
H192 C191 0.959 . S
H193 C191 0.960 . S
H194 C191 0.961 . S
O195 Co170 1.967 . S
O195 C203 1.258 . S
O196 Co171 1.941 . S
O196 C203 1.266 . S
H197 C199 0.959 . S
H198 C199 0.961 . S
C199 C189 1.510 . S
C199 H197 0.959 . S
C199 H198 0.961 . S
C199 H200 0.960 . S
H200 C199 0.960 . S
H201 N181 0.862 . S
O202 Co170 1.920 . S
O202 C175 1.289 . S
C203 O195 1.258 . S
C203 O196 1.266 . S
Co204 O207 1.970 . S
Co204 N221 1.989 . S
Co204 O229 1.967 . S
Co204 O236 1.920 . S
Co205 O208 1.966 . S
Co205 N214 2.022 . S
Co205 N222 1.993 . S
Co205 O230 1.941 . S
C206 O207 1.258 . S
C206 O208 1.263 . S
O207 Co204 1.970 . S
O207 C206 1.258 . S
O208 Co205 1.966 . S
O208 C206 1.263 . S
C209 O210 1.235 . S
C209 O236 1.289 . S
O210 C209 1.235 . S
C211 C213 1.400 . S
C211 N214 1.351 . S
C211 C216 1.501 . S
C212 C213 1.387 . S
C212 N215 1.341 . S
C213 C211 1.400 . S
C213 C212 1.387 . S
N214 Co205 2.022 . S
N214 C211 1.351 . S
N214 N215 1.365 . S
N215 C212 1.341 . S
N215 N214 1.365 . S
N215 H235 0.862 . S
C216 C211 1.501 . S
C216 H217 0.961 . S
C216 H218 0.961 . S
C216 H219 0.960 . S
H217 C216 0.961 . S
H218 C216 0.961 . S
H219 C216 0.960 . S
C220 N221 1.342 . S
C220 C224 1.401 . S
C220 C225 1.499 . S
N221 Co204 1.989 . S
N221 C220 1.342 . S
N221 N222 1.388 . S
N222 Co205 1.993 . S
N222 N221 1.388 . S
N222 C223 1.346 . S
C223 N222 1.346 . S
C223 C224 1.396 . S
C223 C233 1.510 . S
C224 C220 1.401 . S
C224 C223 1.396 . S
C225 C220 1.499 . S
C225 H226 0.959 . S
C225 H227 0.960 . S
C225 H228 0.961 . S
H226 C225 0.959 . S
H227 C225 0.960 . S
H228 C225 0.961 . S
O229 Co204 1.967 . S
O229 C237 1.258 . S
O230 Co205 1.941 . S
O230 C237 1.266 . S
H231 C233 0.959 . S
H232 C233 0.961 . S
C233 C223 1.510 . S
C233 H231 0.959 . S
C233 H232 0.961 . S
C233 H234 0.960 . S
H234 C233 0.960 . S
H235 N215 0.862 . S
O236 Co204 1.920 . S
O236 C209 1.289 . S
C237 O229 1.258 . S
C237 O230 1.266 . S
Co238 O241 1.970 . S
Co238 N255 1.989 . S
Co238 O263 1.967 . S
Co238 O270 1.920 . S
Co239 O242 1.966 . S
Co239 N248 2.022 . S
Co239 N256 1.993 . S
Co239 O264 1.941 . S
C240 O241 1.258 . S
C240 O242 1.263 . S
O241 Co238 1.970 . S
O241 C240 1.258 . S
O242 Co239 1.966 . S
O242 C240 1.263 . S
C243 O244 1.235 . S
C243 O270 1.289 . S
O244 C243 1.235 . S
C245 C247 1.400 . S
C245 N248 1.351 . S
C245 C250 1.501 . S
C246 C247 1.387 . S
C246 N249 1.341 . S
C247 C245 1.400 . S
C247 C246 1.387 . S
N248 Co239 2.022 . S
N248 C245 1.351 . S
N248 N249 1.365 . S
N249 C246 1.341 . S
N249 N248 1.365 . S
N249 H269 0.862 . S
C250 C245 1.501 . S
C250 H251 0.961 . S
C250 H252 0.961 . S
C250 H253 0.960 . S
H251 C250 0.961 . S
H252 C250 0.961 . S
H253 C250 0.960 . S
C254 N255 1.342 . S
C254 C258 1.401 . S
C254 C259 1.499 . S
N255 Co238 1.989 . S
N255 C254 1.342 . S
N255 N256 1.388 . S
N256 Co239 1.993 . S
N256 N255 1.388 . S
N256 C257 1.346 . S
C257 N256 1.346 . S
C257 C258 1.396 . S
C257 C267 1.510 . S
C258 C254 1.401 . S
C258 C257 1.396 . S
C259 C254 1.499 . S
C259 H260 0.959 . S
C259 H261 0.960 . S
C259 H262 0.961 . S
H260 C259 0.959 . S
H261 C259 0.960 . S
H262 C259 0.961 . S
O263 Co238 1.967 . S
O263 C271 1.258 . S
O264 Co239 1.941 . S
O264 C271 1.266 . S
H265 C267 0.959 . S
H266 C267 0.961 . S
C267 C257 1.510 . S
C267 H265 0.959 . S
C267 H266 0.961 . S
C267 H268 0.960 . S
H268 C267 0.960 . S
H269 N249 0.862 . S
O270 Co238 1.920 . S
O270 C243 1.289 . S
C271 O263 1.258 . S
C271 O264 1.266 . S
Co272 O275 1.970 . S
Co272 N289 1.989 . S
Co272 O297 1.967 . S
Co272 O304 1.920 . S
Co273 O276 1.966 . S
Co273 N282 2.022 . S
Co273 N290 1.993 . S
Co273 O298 1.941 . S
C274 O275 1.258 . S
C274 O276 1.263 . S
O275 Co272 1.970 . S
O275 C274 1.258 . S
O276 Co273 1.966 . S
O276 C274 1.263 . S
C277 O278 1.235 . S
C277 O304 1.289 . S
O278 C277 1.235 . S
C279 C281 1.400 . S
C279 N282 1.351 . S
C279 C284 1.501 . S
C280 C281 1.387 . S
C280 N283 1.341 . S
C281 C279 1.400 . S
C281 C280 1.387 . S
N282 Co273 2.022 . S
N282 C279 1.351 . S
N282 N283 1.365 . S
N283 C280 1.341 . S
N283 N282 1.365 . S
N283 H303 0.862 . S
C284 C279 1.501 . S
C284 H285 0.961 . S
C284 H286 0.961 . S
C284 H287 0.960 . S
H285 C284 0.961 . S
H286 C284 0.961 . S
H287 C284 0.960 . S
C288 N289 1.342 . S
C288 C292 1.401 . S
C288 C293 1.499 . S
N289 Co272 1.989 . S
N289 C288 1.342 . S
N289 N290 1.388 . S
N290 Co273 1.993 . S
N290 N289 1.388 . S
N290 C291 1.346 . S
C291 N290 1.346 . S
C291 C292 1.396 . S
C291 C301 1.510 . S
C292 C288 1.401 . S
C292 C291 1.396 . S
C293 C288 1.499 . S
C293 H294 0.959 . S
C293 H295 0.960 . S
C293 H296 0.961 . S
H294 C293 0.959 . S
H295 C293 0.960 . S
H296 C293 0.961 . S
O297 Co272 1.967 . S
O297 C305 1.258 . S
O298 Co273 1.941 . S
O298 C305 1.266 . S
H299 C301 0.959 . S
H300 C301 0.961 . S
C301 C291 1.510 . S
C301 H299 0.959 . S
C301 H300 0.961 . S
C301 H302 0.960 . S
H302 C301 0.960 . S
H303 N283 0.862 . S
O304 Co272 1.920 . S
O304 C277 1.289 . S
C305 O297 1.258 . S
C305 O298 1.266 . S
Co306 O309 1.970 . S
Co306 N323 1.989 . S
Co306 O331 1.967 . S
Co306 O338 1.920 . S
Co307 O310 1.966 . S
Co307 N316 2.022 . S
Co307 N324 1.993 . S
Co307 O332 1.941 . S
C308 O309 1.258 . S
C308 O310 1.263 . S
O309 Co306 1.970 . S
O309 C308 1.258 . S
O310 Co307 1.966 . S
O310 C308 1.263 . S
C311 O312 1.235 . S
C311 O338 1.289 . S
O312 C311 1.235 . S
C313 C315 1.400 . S
C313 N316 1.351 . S
C313 C318 1.501 . S
C314 C315 1.387 . S
C314 N317 1.341 . S
C315 C313 1.400 . S
C315 C314 1.387 . S
N316 Co307 2.022 . S
N316 C313 1.351 . S
N316 N317 1.365 . S
N317 C314 1.341 . S
N317 N316 1.365 . S
N317 H337 0.862 . S
C318 C313 1.501 . S
C318 H319 0.961 . S
C318 H320 0.961 . S
C318 H321 0.960 . S
H319 C318 0.961 . S
H320 C318 0.961 . S
H321 C318 0.960 . S
C322 N323 1.342 . S
C322 C326 1.401 . S
C322 C327 1.499 . S
N323 Co306 1.989 . S
N323 C322 1.342 . S
N323 N324 1.388 . S
N324 Co307 1.993 . S
N324 N323 1.388 . S
N324 C325 1.346 . S
C325 N324 1.346 . S
C325 C326 1.396 . S
C325 C335 1.510 . S
C326 C322 1.401 . S
C326 C325 1.396 . S
C327 C322 1.499 . S
C327 H328 0.959 . S
C327 H329 0.960 . S
C327 H330 0.961 . S
H328 C327 0.959 . S
H329 C327 0.960 . S
H330 C327 0.961 . S
O331 Co306 1.967 . S
O331 C339 1.258 . S
O332 Co307 1.941 . S
O332 C339 1.266 . S
H333 C335 0.959 . S
H334 C335 0.961 . S
C335 C325 1.510 . S
C335 H333 0.959 . S
C335 H334 0.961 . S
C335 H336 0.960 . S
H336 C335 0.960 . S
H337 N317 0.862 . S
O338 Co306 1.920 . S
O338 C311 1.289 . S
C339 O331 1.258 . S
C339 O332 1.266 . S
Co340 O343 1.970 . S
Co340 N357 1.989 . S
Co340 O365 1.967 . S
Co340 O372 1.920 . S
Co341 O344 1.966 . S
Co341 N350 2.022 . S
Co341 N358 1.993 . S
Co341 O366 1.941 . S
C342 O343 1.258 . S
C342 O344 1.263 . S
O343 Co340 1.970 . S
O343 C342 1.258 . S
O344 Co341 1.966 . S
O344 C342 1.263 . S
C345 O346 1.235 . S
C345 O372 1.289 . S
O346 C345 1.235 . S
C347 C349 1.400 . S
C347 N350 1.351 . S
C347 C352 1.501 . S
C348 C349 1.387 . S
C348 N351 1.341 . S
C349 C347 1.400 . S
C349 C348 1.387 . S
N350 Co341 2.022 . S
N350 C347 1.351 . S
N350 N351 1.365 . S
N351 C348 1.341 . S
N351 N350 1.365 . S
N351 H371 0.862 . S
C352 C347 1.501 . S
C352 H353 0.961 . S
C352 H354 0.961 . S
C352 H355 0.960 . S
H353 C352 0.961 . S
H354 C352 0.961 . S
H355 C352 0.960 . S
C356 N357 1.342 . S
C356 C360 1.401 . S
C356 C361 1.499 . S
N357 Co340 1.989 . S
N357 C356 1.342 . S
N357 N358 1.388 . S
N358 Co341 1.993 . S
N358 N357 1.388 . S
N358 C359 1.346 . S
C359 N358 1.346 . S
C359 C360 1.396 . S
C359 C369 1.510 . S
C360 C356 1.401 . S
C360 C359 1.396 . S
C361 C356 1.499 . S
C361 H362 0.959 . S
C361 H363 0.960 . S
C361 H364 0.961 . S
H362 C361 0.959 . S
H363 C361 0.960 . S
H364 C361 0.961 . S
O365 Co340 1.967 . S
O365 C373 1.258 . S
O366 Co341 1.941 . S
O366 C373 1.266 . S
H367 C369 0.959 . S
H368 C369 0.961 . S
C369 C359 1.510 . S
C369 H367 0.959 . S
C369 H368 0.961 . S
C369 H370 0.960 . S
H370 C369 0.960 . S
H371 N351 0.862 . S
O372 Co340 1.920 . S
O372 C345 1.289 . S
C373 O365 1.258 . S
C373 O366 1.266 . S
Co374 O377 1.970 . S
Co374 N391 1.989 . S
Co374 O399 1.967 . S
Co374 O406 1.920 . S
Co375 O378 1.966 . S
Co375 N384 2.022 . S
Co375 N392 1.993 . S
Co375 O400 1.941 . S
C376 O377 1.258 . S
C376 O378 1.263 . S
O377 Co374 1.970 . S
O377 C376 1.258 . S
O378 Co375 1.966 . S
O378 C376 1.263 . S
C379 O380 1.235 . S
C379 O406 1.289 . S
O380 C379 1.235 . S
C381 C383 1.400 . S
C381 N384 1.351 . S
C381 C386 1.501 . S
C382 C383 1.387 . S
C382 N385 1.341 . S
C383 C381 1.400 . S
C383 C382 1.387 . S
N384 Co375 2.022 . S
N384 C381 1.351 . S
N384 N385 1.365 . S
N385 C382 1.341 . S
N385 N384 1.365 . S
N385 H405 0.862 . S
C386 C381 1.501 . S
C386 H387 0.961 . S
C386 H388 0.961 . S
C386 H389 0.960 . S
H387 C386 0.961 . S
H388 C386 0.961 . S
H389 C386 0.960 . S
C390 N391 1.342 . S
C390 C394 1.401 . S
C390 C395 1.499 . S
N391 Co374 1.989 . S
N391 C390 1.342 . S
N391 N392 1.388 . S
N392 Co375 1.993 . S
N392 N391 1.388 . S
N392 C393 1.346 . S
C393 N392 1.346 . S
C393 C394 1.396 . S
C393 C403 1.510 . S
C394 C390 1.401 . S
C394 C393 1.396 . S
C395 C390 1.499 . S
C395 H396 0.959 . S
C395 H397 0.960 . S
C395 H398 0.961 . S
H396 C395 0.959 . S
H397 C395 0.960 . S
H398 C395 0.961 . S
O399 Co374 1.967 . S
O399 C407 1.258 . S
O400 Co375 1.941 . S
O400 C407 1.266 . S
H401 C403 0.959 . S
H402 C403 0.961 . S
C403 C393 1.510 . S
C403 H401 0.959 . S
C403 H402 0.961 . S
C403 H404 0.960 . S
H404 C403 0.960 . S
H405 N385 0.862 . S
O406 Co374 1.920 . S
O406 C379 1.289 . S
C407 O399 1.258 . S
C407 O400 1.266 . S
Co408 O411 1.970 . S
Co408 N425 1.989 . S
Co408 O433 1.967 . S
Co408 O440 1.920 . S
Co409 O412 1.966 . S
Co409 N418 2.022 . S
Co409 N426 1.993 . S
Co409 O434 1.941 . S
C410 O411 1.258 . S
C410 O412 1.263 . S
O411 Co408 1.970 . S
O411 C410 1.258 . S
O412 Co409 1.966 . S
O412 C410 1.263 . S
C413 O414 1.235 . S
C413 O440 1.289 . S
O414 C413 1.235 . S
C415 C417 1.400 . S
C415 N418 1.351 . S
C415 C420 1.501 . S
C416 C417 1.387 . S
C416 N419 1.341 . S
C417 C415 1.400 . S
C417 C416 1.387 . S
N418 Co409 2.022 . S
N418 C415 1.351 . S
N418 N419 1.365 . S
N419 C416 1.341 . S
N419 N418 1.365 . S
N419 H439 0.862 . S
C420 C415 1.501 . S
C420 H421 0.961 . S
C420 H422 0.961 . S
C420 H423 0.960 . S
H421 C420 0.961 . S
H422 C420 0.961 . S
H423 C420 0.960 . S
C424 N425 1.342 . S
C424 C428 1.401 . S
C424 C429 1.499 . S
N425 Co408 1.989 . S
N425 C424 1.342 . S
N425 N426 1.388 . S
N426 Co409 1.993 . S
N426 N425 1.388 . S
N426 C427 1.346 . S
C427 N426 1.346 . S
C427 C428 1.396 . S
C427 C437 1.510 . S
C428 C424 1.401 . S
C428 C427 1.396 . S
C429 C424 1.499 . S
C429 H430 0.959 . S
C429 H431 0.960 . S
C429 H432 0.961 . S
H430 C429 0.959 . S
H431 C429 0.960 . S
H432 C429 0.961 . S
O433 Co408 1.967 . S
O433 C441 1.258 . S
O434 Co409 1.941 . S
O434 C441 1.266 . S
H435 C437 0.959 . S
H436 C437 0.961 . S
C437 C427 1.510 . S
C437 H435 0.959 . S
C437 H436 0.961 . S
C437 H438 0.960 . S
H438 C437 0.960 . S
H439 N419 0.862 . S
O440 Co408 1.920 . S
O440 C413 1.289 . S
C441 O433 1.258 . S
C441 O434 1.266 . S
Co442 O445 1.970 . S
Co442 N459 1.989 . S
Co442 O467 1.967 . S
Co442 O474 1.920 . S
Co443 O446 1.966 . S
Co443 N452 2.022 . S
Co443 N460 1.993 . S
Co443 O468 1.941 . S
C444 O445 1.258 . S
C444 O446 1.263 . S
O445 Co442 1.970 . S
O445 C444 1.258 . S
O446 Co443 1.966 . S
O446 C444 1.263 . S
C447 O448 1.235 . S
C447 O474 1.289 . S
O448 C447 1.235 . S
C449 C451 1.400 . S
C449 N452 1.351 . S
C449 C454 1.501 . S
C450 C451 1.387 . S
C450 N453 1.341 . S
C451 C449 1.400 . S
C451 C450 1.387 . S
N452 Co443 2.022 . S
N452 C449 1.351 . S
N452 N453 1.365 . S
N453 C450 1.341 . S
N453 N452 1.365 . S
N453 H473 0.862 . S
C454 C449 1.501 . S
C454 H455 0.961 . S
C454 H456 0.961 . S
C454 H457 0.960 . S
H455 C454 0.961 . S
H456 C454 0.961 . S
H457 C454 0.960 . S
C458 N459 1.342 . S
C458 C462 1.401 . S
C458 C463 1.499 . S
N459 Co442 1.989 . S
N459 C458 1.342 . S
N459 N460 1.388 . S
N460 Co443 1.993 . S
N460 N459 1.388 . S
N460 C461 1.346 . S
C461 N460 1.346 . S
C461 C462 1.396 . S
C461 C471 1.510 . S
C462 C458 1.401 . S
C462 C461 1.396 . S
C463 C458 1.499 . S
C463 H464 0.959 . S
C463 H465 0.960 . S
C463 H466 0.961 . S
H464 C463 0.959 . S
H465 C463 0.960 . S
H466 C463 0.961 . S
O467 Co442 1.967 . S
O467 C475 1.258 . S
O468 Co443 1.941 . S
O468 C475 1.266 . S
H469 C471 0.959 . S
H470 C471 0.961 . S
C471 C461 1.510 . S
C471 H469 0.959 . S
C471 H470 0.961 . S
C471 H472 0.960 . S
H472 C471 0.960 . S
H473 N453 0.862 . S
O474 Co442 1.920 . S
O474 C447 1.289 . S
C475 O467 1.258 . S
C475 O468 1.266 . S
Co476 O479 1.970 . S
Co476 N493 1.989 . S
Co476 O501 1.967 . S
Co476 O508 1.920 . S
Co477 O480 1.966 . S
Co477 N486 2.022 . S
Co477 N494 1.993 . S
Co477 O502 1.941 . S
C478 O479 1.258 . S
C478 O480 1.263 . S
O479 Co476 1.970 . S
O479 C478 1.258 . S
O480 Co477 1.966 . S
O480 C478 1.263 . S
C481 O482 1.235 . S
C481 O508 1.289 . S
O482 C481 1.235 . S
C483 C485 1.400 . S
C483 N486 1.351 . S
C483 C488 1.501 . S
C484 C485 1.387 . S
C484 N487 1.341 . S
C485 C483 1.400 . S
C485 C484 1.387 . S
N486 Co477 2.022 . S
N486 C483 1.351 . S
N486 N487 1.365 . S
N487 C484 1.341 . S
N487 N486 1.365 . S
N487 H507 0.862 . S
C488 C483 1.501 . S
C488 H489 0.961 . S
C488 H490 0.961 . S
C488 H491 0.960 . S
H489 C488 0.961 . S
H490 C488 0.961 . S
H491 C488 0.960 . S
C492 N493 1.342 . S
C492 C496 1.401 . S
C492 C497 1.499 . S
N493 Co476 1.989 . S
N493 C492 1.342 . S
N493 N494 1.388 . S
N494 Co477 1.993 . S
N494 N493 1.388 . S
N494 C495 1.346 . S
C495 N494 1.346 . S
C495 C496 1.396 . S
C495 C505 1.510 . S
C496 C492 1.401 . S
C496 C495 1.396 . S
C497 C492 1.499 . S
C497 H498 0.959 . S
C497 H499 0.960 . S
C497 H500 0.961 . S
H498 C497 0.959 . S
H499 C497 0.960 . S
H500 C497 0.961 . S
O501 Co476 1.967 . S
O501 C509 1.258 . S
O502 Co477 1.941 . S
O502 C509 1.266 . S
H503 C505 0.959 . S
H504 C505 0.961 . S
C505 C495 1.510 . S
C505 H503 0.959 . S
C505 H504 0.961 . S
C505 H506 0.960 . S
H506 C505 0.960 . S
H507 N487 0.862 . S
O508 Co476 1.920 . S
O508 C481 1.289 . S
C509 O501 1.258 . S
C509 O502 1.266 . S
Co510 O513 1.970 . S
Co510 N527 1.989 . S
Co510 O535 1.967 . S
Co510 O542 1.920 . S
Co511 O514 1.966 . S
Co511 N520 2.022 . S
Co511 N528 1.993 . S
Co511 O536 1.941 . S
C512 O513 1.258 . S
C512 O514 1.263 . S
O513 Co510 1.970 . S
O513 C512 1.258 . S
O514 Co511 1.966 . S
O514 C512 1.263 . S
C515 O516 1.235 . S
C515 O542 1.289 . S
O516 C515 1.235 . S
C517 C519 1.400 . S
C517 N520 1.351 . S
C517 C522 1.501 . S
C518 C519 1.387 . S
C518 N521 1.341 . S
C519 C517 1.400 . S
C519 C518 1.387 . S
N520 Co511 2.022 . S
N520 C517 1.351 . S
N520 N521 1.365 . S
N521 C518 1.341 . S
N521 N520 1.365 . S
N521 H541 0.862 . S
C522 C517 1.501 . S
C522 H523 0.961 . S
C522 H524 0.961 . S
C522 H525 0.960 . S
H523 C522 0.961 . S
H524 C522 0.961 . S
H525 C522 0.960 . S
C526 N527 1.342 . S
C526 C530 1.401 . S
C526 C531 1.499 . S
N527 Co510 1.989 . S
N527 C526 1.342 . S
N527 N528 1.388 . S
N528 Co511 1.993 . S
N528 N527 1.388 . S
N528 C529 1.346 . S
C529 N528 1.346 . S
C529 C530 1.396 . S
C529 C539 1.510 . S
C530 C526 1.401 . S
C530 C529 1.396 . S
C531 C526 1.499 . S
C531 H532 0.959 . S
C531 H533 0.960 . S
C531 H534 0.961 . S
H532 C531 0.959 . S
H533 C531 0.960 . S
H534 C531 0.961 . S
O535 Co510 1.967 . S
O535 C543 1.258 . S
O536 Co511 1.941 . S
O536 C543 1.266 . S
H537 C539 0.959 . S
H538 C539 0.961 . S
C539 C529 1.510 . S
C539 H537 0.959 . S
C539 H538 0.961 . S
C539 H540 0.960 . S
H540 C539 0.960 . S
H541 N521 0.862 . S
O542 Co510 1.920 . S
O542 C515 1.289 . S
C543 O535 1.258 . S
C543 O536 1.266 . S
Co544 O547 1.970 . S
Co544 N561 1.989 . S
Co544 O569 1.967 . S
Co544 O576 1.920 . S
Co545 O548 1.966 . S
Co545 N554 2.022 . S
Co545 N562 1.993 . S
Co545 O570 1.941 . S
C546 O547 1.258 . S
C546 O548 1.263 . S
O547 Co544 1.970 . S
O547 C546 1.258 . S
O548 Co545 1.966 . S
O548 C546 1.263 . S
C549 O550 1.235 . S
C549 O576 1.289 . S
O550 C549 1.235 . S
C551 C553 1.400 . S
C551 N554 1.351 . S
C551 C556 1.501 . S
C552 C553 1.387 . S
C552 N555 1.341 . S
C553 C551 1.400 . S
C553 C552 1.387 . S
N554 Co545 2.022 . S
N554 C551 1.351 . S
N554 N555 1.365 . S
N555 C552 1.341 . S
N555 N554 1.365 . S
N555 H575 0.862 . S
C556 C551 1.501 . S
C556 H557 0.961 . S
C556 H558 0.961 . S
C556 H559 0.960 . S
H557 C556 0.961 . S
H558 C556 0.961 . S
H559 C556 0.960 . S
C560 N561 1.342 . S
C560 C564 1.401 . S
C560 C565 1.499 . S
N561 Co544 1.989 . S
N561 C560 1.342 . S
N561 N562 1.388 . S
N562 Co545 1.993 . S
N562 N561 1.388 . S
N562 C563 1.346 . S
C563 N562 1.346 . S
C563 C564 1.396 . S
C563 C573 1.510 . S
C564 C560 1.401 . S
C564 C563 1.396 . S
C565 C560 1.499 . S
C565 H566 0.959 . S
C565 H567 0.960 . S
C565 H568 0.961 . S
H566 C565 0.959 . S
H567 C565 0.960 . S
H568 C565 0.961 . S
O569 Co544 1.967 . S
O569 C577 1.258 . S
O570 Co545 1.941 . S
O570 C577 1.266 . S
H571 C573 0.959 . S
H572 C573 0.961 . S
C573 C563 1.510 . S
C573 H571 0.959 . S
C573 H572 0.961 . S
C573 H574 0.960 . S
H574 C573 0.960 . S
H575 N555 0.862 . S
O576 Co544 1.920 . S
O576 C549 1.289 . S
C577 O569 1.258 . S
C577 O570 1.266 . S
Co578 O581 1.970 . S
Co578 N595 1.989 . S
Co578 O603 1.967 . S
Co578 O610 1.920 . S
Co579 O582 1.966 . S
Co579 N588 2.022 . S
Co579 N596 1.993 . S
Co579 O604 1.941 . S
C580 O581 1.258 . S
C580 O582 1.263 . S
O581 Co578 1.970 . S
O581 C580 1.258 . S
O582 Co579 1.966 . S
O582 C580 1.263 . S
C583 O584 1.235 . S
C583 O610 1.289 . S
O584 C583 1.235 . S
C585 C587 1.400 . S
C585 N588 1.351 . S
C585 C590 1.501 . S
C586 C587 1.387 . S
C586 N589 1.341 . S
C587 C585 1.400 . S
C587 C586 1.387 . S
N588 Co579 2.022 . S
N588 C585 1.351 . S
N588 N589 1.365 . S
N589 C586 1.341 . S
N589 N588 1.365 . S
N589 H609 0.862 . S
C590 C585 1.501 . S
C590 H591 0.961 . S
C590 H592 0.961 . S
C590 H593 0.960 . S
H591 C590 0.961 . S
H592 C590 0.961 . S
H593 C590 0.960 . S
C594 N595 1.342 . S
C594 C598 1.401 . S
C594 C599 1.499 . S
N595 Co578 1.989 . S
N595 C594 1.342 . S
N595 N596 1.388 . S
N596 Co579 1.993 . S
N596 N595 1.388 . S
N596 C597 1.346 . S
C597 N596 1.346 . S
C597 C598 1.396 . S
C597 C607 1.510 . S
C598 C594 1.401 . S
C598 C597 1.396 . S
C599 C594 1.499 . S
C599 H600 0.959 . S
C599 H601 0.960 . S
C599 H602 0.961 . S
H600 C599 0.959 . S
H601 C599 0.960 . S
H602 C599 0.961 . S
O603 Co578 1.967 . S
O603 C611 1.258 . S
O604 Co579 1.941 . S
O604 C611 1.266 . S
H605 C607 0.959 . S
H606 C607 0.961 . S
C607 C597 1.510 . S
C607 H605 0.959 . S
C607 H606 0.961 . S
C607 H608 0.960 . S
H608 C607 0.960 . S
H609 N589 0.862 . S
O610 Co578 1.920 . S
O610 C583 1.289 . S
C611 O603 1.258 . S
C611 O604 1.266 . S
Co612 O615 1.970 . S
Co612 N629 1.989 . S
Co612 O637 1.967 . S
Co612 O644 1.920 . S
Co613 O616 1.966 . S
Co613 N622 2.022 . S
Co613 N630 1.993 . S
Co613 O638 1.941 . S
C614 O615 1.258 . S
C614 O616 1.263 . S
O615 Co612 1.970 . S
O615 C614 1.258 . S
O616 Co613 1.966 . S
O616 C614 1.263 . S
C617 O618 1.235 . S
C617 O644 1.289 . S
O618 C617 1.235 . S
C619 C621 1.400 . S
C619 N622 1.351 . S
C619 C624 1.501 . S
C620 C621 1.387 . S
C620 N623 1.341 . S
C621 C619 1.400 . S
C621 C620 1.387 . S
N622 Co613 2.022 . S
N622 C619 1.351 . S
N622 N623 1.365 . S
N623 C620 1.341 . S
N623 N622 1.365 . S
N623 H643 0.862 . S
C624 C619 1.501 . S
C624 H625 0.961 . S
C624 H626 0.961 . S
C624 H627 0.960 . S
H625 C624 0.961 . S
H626 C624 0.961 . S
H627 C624 0.960 . S
C628 N629 1.342 . S
C628 C632 1.401 . S
C628 C633 1.499 . S
N629 Co612 1.989 . S
N629 C628 1.342 . S
N629 N630 1.388 . S
N630 Co613 1.993 . S
N630 N629 1.388 . S
N630 C631 1.346 . S
C631 N630 1.346 . S
C631 C632 1.396 . S
C631 C641 1.510 . S
C632 C628 1.401 . S
C632 C631 1.396 . S
C633 C628 1.499 . S
C633 H634 0.959 . S
C633 H635 0.960 . S
C633 H636 0.961 . S
H634 C633 0.959 . S
H635 C633 0.960 . S
H636 C633 0.961 . S
O637 Co612 1.967 . S
O637 C645 1.258 . S
O638 Co613 1.941 . S
O638 C645 1.266 . S
H639 C641 0.959 . S
H640 C641 0.961 . S
C641 C631 1.510 . S
C641 H639 0.959 . S
C641 H640 0.961 . S
C641 H642 0.960 . S
H642 C641 0.960 . S
H643 N623 0.862 . S
O644 Co612 1.920 . S
O644 C617 1.289 . S
C645 O637 1.258 . S
C645 O638 1.266 . S
Co646 O649 1.970 . S
Co646 N663 1.989 . S
Co646 O671 1.967 . S
Co646 O678 1.920 . S
Co647 O650 1.966 . S
Co647 N656 2.022 . S
Co647 N664 1.993 . S
Co647 O672 1.941 . S
C648 O649 1.258 . S
C648 O650 1.263 . S
O649 Co646 1.970 . S
O649 C648 1.258 . S
O650 Co647 1.966 . S
O650 C648 1.263 . S
C651 O652 1.235 . S
C651 O678 1.289 . S
O652 C651 1.235 . S
C653 C655 1.400 . S
C653 N656 1.351 . S
C653 C658 1.501 . S
C654 C655 1.387 . S
C654 N657 1.341 . S
C655 C653 1.400 . S
C655 C654 1.387 . S
N656 Co647 2.022 . S
N656 C653 1.351 . S
N656 N657 1.365 . S
N657 C654 1.341 . S
N657 N656 1.365 . S
N657 H677 0.862 . S
C658 C653 1.501 . S
C658 H659 0.961 . S
C658 H660 0.961 . S
C658 H661 0.960 . S
H659 C658 0.961 . S
H660 C658 0.961 . S
H661 C658 0.960 . S
C662 N663 1.342 . S
C662 C666 1.401 . S
C662 C667 1.499 . S
N663 Co646 1.989 . S
N663 C662 1.342 . S
N663 N664 1.388 . S
N664 Co647 1.993 . S
N664 N663 1.388 . S
N664 C665 1.346 . S
C665 N664 1.346 . S
C665 C666 1.396 . S
C665 C675 1.510 . S
C666 C662 1.401 . S
C666 C665 1.396 . S
C667 C662 1.499 . S
C667 H668 0.959 . S
C667 H669 0.960 . S
C667 H670 0.961 . S
H668 C667 0.959 . S
H669 C667 0.960 . S
H670 C667 0.961 . S
O671 Co646 1.967 . S
O671 C679 1.258 . S
O672 Co647 1.941 . S
O672 C679 1.266 . S
H673 C675 0.959 . S
H674 C675 0.961 . S
C675 C665 1.510 . S
C675 H673 0.959 . S
C675 H674 0.961 . S
C675 H676 0.960 . S
H676 C675 0.960 . S
H677 N657 0.862 . S
O678 Co646 1.920 . S
O678 C651 1.289 . S
C679 O671 1.258 . S
C679 O672 1.266 . S
Co680 O683 1.970 . S
Co680 N697 1.989 . S
Co680 O705 1.967 . S
Co680 O712 1.920 . S
Co681 O684 1.966 . S
Co681 N690 2.022 . S
Co681 N698 1.993 . S
Co681 O706 1.941 . S
C682 O683 1.258 . S
C682 O684 1.263 . S
O683 Co680 1.970 . S
O683 C682 1.258 . S
O684 Co681 1.966 . S
O684 C682 1.263 . S
C685 O686 1.235 . S
C685 O712 1.289 . S
O686 C685 1.235 . S
C687 C689 1.400 . S
C687 N690 1.351 . S
C687 C692 1.501 . S
C688 C689 1.387 . S
C688 N691 1.341 . S
C689 C687 1.400 . S
C689 C688 1.387 . S
N690 Co681 2.022 . S
N690 C687 1.351 . S
N690 N691 1.365 . S
N691 C688 1.341 . S
N691 N690 1.365 . S
N691 H711 0.862 . S
C692 C687 1.501 . S
C692 H693 0.961 . S
C692 H694 0.961 . S
C692 H695 0.960 . S
H693 C692 0.961 . S
H694 C692 0.961 . S
H695 C692 0.960 . S
C696 N697 1.342 . S
C696 C700 1.401 . S
C696 C701 1.499 . S
N697 Co680 1.989 . S
N697 C696 1.342 . S
N697 N698 1.388 . S
N698 Co681 1.993 . S
N698 N697 1.388 . S
N698 C699 1.346 . S
C699 N698 1.346 . S
C699 C700 1.396 . S
C699 C709 1.510 . S
C700 C696 1.401 . S
C700 C699 1.396 . S
C701 C696 1.499 . S
C701 H702 0.959 . S
C701 H703 0.960 . S
C701 H704 0.961 . S
H702 C701 0.959 . S
H703 C701 0.960 . S
H704 C701 0.961 . S
O705 Co680 1.967 . S
O705 C713 1.258 . S
O706 Co681 1.941 . S
O706 C713 1.266 . S
H707 C709 0.959 . S
H708 C709 0.961 . S
C709 C699 1.510 . S
C709 H707 0.959 . S
C709 H708 0.961 . S
C709 H710 0.960 . S
H710 C709 0.960 . S
H711 N691 0.862 . S
O712 Co680 1.920 . S
O712 C685 1.289 . S
C713 O705 1.258 . S
C713 O706 1.266 . S
Co714 O717 1.970 . S
Co714 N731 1.989 . S
Co714 O739 1.967 . S
Co714 O746 1.920 . S
Co715 O718 1.966 . S
Co715 N724 2.022 . S
Co715 N732 1.993 . S
Co715 O740 1.941 . S
C716 O717 1.258 . S
C716 O718 1.263 . S
O717 Co714 1.970 . S
O717 C716 1.258 . S
O718 Co715 1.966 . S
O718 C716 1.263 . S
C719 O720 1.235 . S
C719 O746 1.289 . S
O720 C719 1.235 . S
C721 C723 1.400 . S
C721 N724 1.351 . S
C721 C726 1.501 . S
C722 C723 1.387 . S
C722 N725 1.341 . S
C723 C721 1.400 . S
C723 C722 1.387 . S
N724 Co715 2.022 . S
N724 C721 1.351 . S
N724 N725 1.365 . S
N725 C722 1.341 . S
N725 N724 1.365 . S
N725 H745 0.862 . S
C726 C721 1.501 . S
C726 H727 0.961 . S
C726 H728 0.961 . S
C726 H729 0.960 . S
H727 C726 0.961 . S
H728 C726 0.961 . S
H729 C726 0.960 . S
C730 N731 1.342 . S
C730 C734 1.401 . S
C730 C735 1.499 . S
N731 Co714 1.989 . S
N731 C730 1.342 . S
N731 N732 1.388 . S
N732 Co715 1.993 . S
N732 N731 1.388 . S
N732 C733 1.346 . S
C733 N732 1.346 . S
C733 C734 1.396 . S
C733 C743 1.510 . S
C734 C730 1.401 . S
C734 C733 1.396 . S
C735 C730 1.499 . S
C735 H736 0.959 . S
C735 H737 0.960 . S
C735 H738 0.961 . S
H736 C735 0.959 . S
H737 C735 0.960 . S
H738 C735 0.961 . S
O739 Co714 1.967 . S
O739 C747 1.258 . S
O740 Co715 1.941 . S
O740 C747 1.266 . S
H741 C743 0.959 . S
H742 C743 0.961 . S
C743 C733 1.510 . S
C743 H741 0.959 . S
C743 H742 0.961 . S
C743 H744 0.960 . S
H744 C743 0.960 . S
H745 N725 0.862 . S
O746 Co714 1.920 . S
O746 C719 1.289 . S
C747 O739 1.258 . S
C747 O740 1.266 . S
Co748 O751 1.970 . S
Co748 N765 1.989 . S
Co748 O773 1.967 . S
Co748 O780 1.920 . S
Co749 O752 1.966 . S
Co749 N758 2.022 . S
Co749 N766 1.993 . S
Co749 O774 1.941 . S
C750 O751 1.258 . S
C750 O752 1.263 . S
O751 Co748 1.970 . S
O751 C750 1.258 . S
O752 Co749 1.966 . S
O752 C750 1.263 . S
C753 O754 1.235 . S
C753 O780 1.289 . S
O754 C753 1.235 . S
C755 C757 1.400 . S
C755 N758 1.351 . S
C755 C760 1.501 . S
C756 C757 1.387 . S
C756 N759 1.341 . S
C757 C755 1.400 . S
C757 C756 1.387 . S
N758 Co749 2.022 . S
N758 C755 1.351 . S
N758 N759 1.365 . S
N759 C756 1.341 . S
N759 N758 1.365 . S
N759 H779 0.862 . S
C760 C755 1.501 . S
C760 H761 0.961 . S
C760 H762 0.961 . S
C760 H763 0.960 . S
H761 C760 0.961 . S
H762 C760 0.961 . S
H763 C760 0.960 . S
C764 N765 1.342 . S
C764 C768 1.401 . S
C764 C769 1.499 . S
N765 Co748 1.989 . S
N765 C764 1.342 . S
N765 N766 1.388 . S
N766 Co749 1.993 . S
N766 N765 1.388 . S
N766 C767 1.346 . S
C767 N766 1.346 . S
C767 C768 1.396 . S
C767 C777 1.510 . S
C768 C764 1.401 . S
C768 C767 1.396 . S
C769 C764 1.499 . S
C769 H770 0.959 . S
C769 H771 0.960 . S
C769 H772 0.961 . S
H770 C769 0.959 . S
H771 C769 0.960 . S
H772 C769 0.961 . S
O773 Co748 1.967 . S
O773 C781 1.258 . S
O774 Co749 1.941 . S
O774 C781 1.266 . S
H775 C777 0.959 . S
H776 C777 0.961 . S
C777 C767 1.510 . S
C777 H775 0.959 . S
C777 H776 0.961 . S
C777 H778 0.960 . S
H778 C777 0.960 . S
H779 N759 0.862 . S
O780 Co748 1.920 . S
O780 C753 1.289 . S
C781 O773 1.258 . S
C781 O774 1.266 . S
Co782 O785 1.970 . S
Co782 N799 1.989 . S
Co782 O807 1.967 . S
Co782 O814 1.920 . S
Co783 O786 1.966 . S
Co783 N792 2.022 . S
Co783 N800 1.993 . S
Co783 O808 1.941 . S
C784 O785 1.258 . S
C784 O786 1.263 . S
O785 Co782 1.970 . S
O785 C784 1.258 . S
O786 Co783 1.966 . S
O786 C784 1.263 . S
C787 O788 1.235 . S
C787 O814 1.289 . S
O788 C787 1.235 . S
C789 C791 1.400 . S
C789 N792 1.351 . S
C789 C794 1.501 . S
C790 C791 1.387 . S
C790 N793 1.341 . S
C791 C789 1.400 . S
C791 C790 1.387 . S
N792 Co783 2.022 . S
N792 C789 1.351 . S
N792 N793 1.365 . S
N793 C790 1.341 . S
N793 N792 1.365 . S
N793 H813 0.862 . S
C794 C789 1.501 . S
C794 H795 0.961 . S
C794 H796 0.961 . S
C794 H797 0.960 . S
H795 C794 0.961 . S
H796 C794 0.961 . S
H797 C794 0.960 . S
C798 N799 1.342 . S
C798 C802 1.401 . S
C798 C803 1.499 . S
N799 Co782 1.989 . S
N799 C798 1.342 . S
N799 N800 1.388 . S
N800 Co783 1.993 . S
N800 N799 1.388 . S
N800 C801 1.346 . S
C801 N800 1.346 . S
C801 C802 1.396 . S
C801 C811 1.510 . S
C802 C798 1.401 . S
C802 C801 1.396 . S
C803 C798 1.499 . S
C803 H804 0.959 . S
C803 H805 0.960 . S
C803 H806 0.961 . S
H804 C803 0.959 . S
H805 C803 0.960 . S
H806 C803 0.961 . S
O807 Co782 1.967 . S
O807 C815 1.258 . S
O808 Co783 1.941 . S
O808 C815 1.266 . S
H809 C811 0.959 . S
H810 C811 0.961 . S
C811 C801 1.510 . S
C811 H809 0.959 . S
C811 H810 0.961 . S
C811 H812 0.960 . S
H812 C811 0.960 . S
H813 N793 0.862 . S
O814 Co782 1.920 . S
O814 C787 1.289 . S
C815 O807 1.258 . S
C815 O808 1.266 . S
Co816 O819 1.970 . S
Co816 N833 1.989 . S
Co816 O841 1.967 . S
Co816 O848 1.920 . S
Co817 O820 1.966 . S
Co817 N826 2.022 . S
Co817 N834 1.993 . S
Co817 O842 1.941 . S
C818 O819 1.258 . S
C818 O820 1.263 . S
O819 Co816 1.970 . S
O819 C818 1.258 . S
O820 Co817 1.966 . S
O820 C818 1.263 . S
C821 O822 1.235 . S
C821 O848 1.289 . S
O822 C821 1.235 . S
C823 C825 1.400 . S
C823 N826 1.351 . S
C823 C828 1.501 . S
C824 C825 1.387 . S
C824 N827 1.341 . S
C825 C823 1.400 . S
C825 C824 1.387 . S
N826 Co817 2.022 . S
N826 C823 1.351 . S
N826 N827 1.365 . S
N827 C824 1.341 . S
N827 N826 1.365 . S
N827 H847 0.862 . S
C828 C823 1.501 . S
C828 H829 0.961 . S
C828 H830 0.961 . S
C828 H831 0.960 . S
H829 C828 0.961 . S
H830 C828 0.961 . S
H831 C828 0.960 . S
C832 N833 1.342 . S
C832 C836 1.401 . S
C832 C837 1.499 . S
N833 Co816 1.989 . S
N833 C832 1.342 . S
N833 N834 1.388 . S
N834 Co817 1.993 . S
N834 N833 1.388 . S
N834 C835 1.346 . S
C835 N834 1.346 . S
C835 C836 1.396 . S
C835 C845 1.510 . S
C836 C832 1.401 . S
C836 C835 1.396 . S
C837 C832 1.499 . S
C837 H838 0.959 . S
C837 H839 0.960 . S
C837 H840 0.961 . S
H838 C837 0.959 . S
H839 C837 0.960 . S
H840 C837 0.961 . S
O841 Co816 1.967 . S
O841 C849 1.258 . S
O842 Co817 1.941 . S
O842 C849 1.266 . S
H843 C845 0.959 . S
H844 C845 0.961 . S
C845 C835 1.510 . S
C845 H843 0.959 . S
C845 H844 0.961 . S
C845 H846 0.960 . S
H846 C845 0.960 . S
H847 N827 0.862 . S
O848 Co816 1.920 . S
O848 C821 1.289 . S
C849 O841 1.258 . S
C849 O842 1.266 . S
Co850 O853 1.970 . S
Co850 N867 1.989 . S
Co850 O875 1.967 . S
Co850 O882 1.920 . S
Co851 O854 1.966 . S
Co851 N860 2.022 . S
Co851 N868 1.993 . S
Co851 O876 1.941 . S
C852 O853 1.258 . S
C852 O854 1.263 . S
O853 Co850 1.970 . S
O853 C852 1.258 . S
O854 Co851 1.966 . S
O854 C852 1.263 . S
C855 O856 1.235 . S
C855 O882 1.289 . S
O856 C855 1.235 . S
C857 C859 1.400 . S
C857 N860 1.351 . S
C857 C862 1.501 . S
C858 C859 1.387 . S
C858 N861 1.341 . S
C859 C857 1.400 . S
C859 C858 1.387 . S
N860 Co851 2.022 . S
N860 C857 1.351 . S
N860 N861 1.365 . S
N861 C858 1.341 . S
N861 N860 1.365 . S
N861 H881 0.862 . S
C862 C857 1.501 . S
C862 H863 0.961 . S
C862 H864 0.961 . S
C862 H865 0.960 . S
H863 C862 0.961 . S
H864 C862 0.961 . S
H865 C862 0.960 . S
C866 N867 1.342 . S
C866 C870 1.401 . S
C866 C871 1.499 . S
N867 Co850 1.989 . S
N867 C866 1.342 . S
N867 N868 1.388 . S
N868 Co851 1.993 . S
N868 N867 1.388 . S
N868 C869 1.346 . S
C869 N868 1.346 . S
C869 C870 1.396 . S
C869 C879 1.510 . S
C870 C866 1.401 . S
C870 C869 1.396 . S
C871 C866 1.499 . S
C871 H872 0.959 . S
C871 H873 0.960 . S
C871 H874 0.961 . S
H872 C871 0.959 . S
H873 C871 0.960 . S
H874 C871 0.961 . S
O875 Co850 1.967 . S
O875 C883 1.258 . S
O876 Co851 1.941 . S
O876 C883 1.266 . S
H877 C879 0.959 . S
H878 C879 0.961 . S
C879 C869 1.510 . S
C879 H877 0.959 . S
C879 H878 0.961 . S
C879 H880 0.960 . S
H880 C879 0.960 . S
H881 N861 0.862 . S
O882 Co850 1.920 . S
O882 C855 1.289 . S
C883 O875 1.258 . S
C883 O876 1.266 . S
Co884 O887 1.970 . S
Co884 N901 1.989 . S
Co884 O909 1.967 . S
Co884 O916 1.920 . S
Co885 O888 1.966 . S
Co885 N894 2.022 . S
Co885 N902 1.993 . S
Co885 O910 1.941 . S
C886 O887 1.258 . S
C886 O888 1.263 . S
O887 Co884 1.970 . S
O887 C886 1.258 . S
O888 Co885 1.966 . S
O888 C886 1.263 . S
C889 O890 1.235 . S
C889 O916 1.289 . S
O890 C889 1.235 . S
C891 C893 1.400 . S
C891 N894 1.351 . S
C891 C896 1.501 . S
C892 C893 1.387 . S
C892 N895 1.341 . S
C893 C891 1.400 . S
C893 C892 1.387 . S
N894 Co885 2.022 . S
N894 C891 1.351 . S
N894 N895 1.365 . S
N895 C892 1.341 . S
N895 N894 1.365 . S
N895 H915 0.862 . S
C896 C891 1.501 . S
C896 H897 0.961 . S
C896 H898 0.961 . S
C896 H899 0.960 . S
H897 C896 0.961 . S
H898 C896 0.961 . S
H899 C896 0.960 . S
C900 N901 1.342 . S
C900 C904 1.401 . S
C900 C905 1.499 . S
N901 Co884 1.989 . S
N901 C900 1.342 . S
N901 N902 1.388 . S
N902 Co885 1.993 . S
N902 N901 1.388 . S
N902 C903 1.346 . S
C903 N902 1.346 . S
C903 C904 1.396 . S
C903 C913 1.510 . S
C904 C900 1.401 . S
C904 C903 1.396 . S
C905 C900 1.499 . S
C905 H906 0.959 . S
C905 H907 0.960 . S
C905 H908 0.961 . S
H906 C905 0.959 . S
H907 C905 0.960 . S
H908 C905 0.961 . S
O909 Co884 1.967 . S
O909 C917 1.258 . S
O910 Co885 1.941 . S
O910 C917 1.266 . S
H911 C913 0.959 . S
H912 C913 0.961 . S
C913 C903 1.510 . S
C913 H911 0.959 . S
C913 H912 0.961 . S
C913 H914 0.960 . S
H914 C913 0.960 . S
H915 N895 0.862 . S
O916 Co884 1.920 . S
O916 C889 1.289 . S
C917 O909 1.258 . S
C917 O910 1.266 . S
Co918 O921 1.970 . S
Co918 N935 1.989 . S
Co918 O943 1.967 . S
Co918 O950 1.920 . S
Co919 O922 1.966 . S
Co919 N928 2.022 . S
Co919 N936 1.993 . S
Co919 O944 1.941 . S
C920 O921 1.258 . S
C920 O922 1.263 . S
O921 Co918 1.970 . S
O921 C920 1.258 . S
O922 Co919 1.966 . S
O922 C920 1.263 . S
C923 O924 1.235 . S
C923 O950 1.289 . S
O924 C923 1.235 . S
C925 C927 1.400 . S
C925 N928 1.351 . S
C925 C930 1.501 . S
C926 C927 1.387 . S
C926 N929 1.341 . S
C927 C925 1.400 . S
C927 C926 1.387 . S
N928 Co919 2.022 . S
N928 C925 1.351 . S
N928 N929 1.365 . S
N929 C926 1.341 . S
N929 N928 1.365 . S
N929 H949 0.862 . S
C930 C925 1.501 . S
C930 H931 0.961 . S
C930 H932 0.961 . S
C930 H933 0.960 . S
H931 C930 0.961 . S
H932 C930 0.961 . S
H933 C930 0.960 . S
C934 N935 1.342 . S
C934 C938 1.401 . S
C934 C939 1.499 . S
N935 Co918 1.989 . S
N935 C934 1.342 . S
N935 N936 1.388 . S
N936 Co919 1.993 . S
N936 N935 1.388 . S
N936 C937 1.346 . S
C937 N936 1.346 . S
C937 C938 1.396 . S
C937 C947 1.510 . S
C938 C934 1.401 . S
C938 C937 1.396 . S
C939 C934 1.499 . S
C939 H940 0.959 . S
C939 H941 0.960 . S
C939 H942 0.961 . S
H940 C939 0.959 . S
H941 C939 0.960 . S
H942 C939 0.961 . S
O943 Co918 1.967 . S
O943 C951 1.258 . S
O944 Co919 1.941 . S
O944 C951 1.266 . S
H945 C947 0.959 . S
H946 C947 0.961 . S
C947 C937 1.510 . S
C947 H945 0.959 . S
C947 H946 0.961 . S
C947 H948 0.960 . S
H948 C947 0.960 . S
H949 N929 0.862 . S
O950 Co918 1.920 . S
O950 C923 1.289 . S
C951 O943 1.258 . S
C951 O944 1.266 . S
Co952 O955 1.970 . S
Co952 N969 1.989 . S
Co952 O977 1.967 . S
Co952 O984 1.920 . S
Co953 O956 1.966 . S
Co953 N962 2.022 . S
Co953 N970 1.993 . S
Co953 O978 1.941 . S
C954 O955 1.258 . S
C954 O956 1.263 . S
O955 Co952 1.970 . S
O955 C954 1.258 . S
O956 Co953 1.966 . S
O956 C954 1.263 . S
C957 O958 1.235 . S
C957 O984 1.289 . S
O958 C957 1.235 . S
C959 C961 1.400 . S
C959 N962 1.351 . S
C959 C964 1.501 . S
C960 C961 1.387 . S
C960 N963 1.341 . S
C961 C959 1.400 . S
C961 C960 1.387 . S
N962 Co953 2.022 . S
N962 C959 1.351 . S
N962 N963 1.365 . S
N963 C960 1.341 . S
N963 N962 1.365 . S
N963 H983 0.862 . S
C964 C959 1.501 . S
C964 H965 0.961 . S
C964 H966 0.961 . S
C964 H967 0.960 . S
H965 C964 0.961 . S
H966 C964 0.961 . S
H967 C964 0.960 . S
C968 N969 1.342 . S
C968 C972 1.401 . S
C968 C973 1.499 . S
N969 Co952 1.989 . S
N969 C968 1.342 . S
N969 N970 1.388 . S
N970 Co953 1.993 . S
N970 N969 1.388 . S
N970 C971 1.346 . S
C971 N970 1.346 . S
C971 C972 1.396 . S
C971 C981 1.510 . S
C972 C968 1.401 . S
C972 C971 1.396 . S
C973 C968 1.499 . S
C973 H974 0.959 . S
C973 H975 0.960 . S
C973 H976 0.961 . S
H974 C973 0.959 . S
H975 C973 0.960 . S
H976 C973 0.961 . S
O977 Co952 1.967 . S
O977 C985 1.258 . S
O978 Co953 1.941 . S
O978 C985 1.266 . S
H979 C981 0.959 . S
H980 C981 0.961 . S
C981 C971 1.510 . S
C981 H979 0.959 . S
C981 H980 0.961 . S
C981 H982 0.960 . S
H982 C981 0.960 . S
H983 N963 0.862 . S
O984 Co952 1.920 . S
O984 C957 1.289 . S
C985 O977 1.258 . S
C985 O978 1.266 . S
Co986 O989 1.970 . S
Co986 N1003 1.989 . S
Co986 O1011 1.967 . S
Co986 O1018 1.920 . S
Co987 O990 1.966 . S
Co987 N996 2.022 . S
Co987 N1004 1.993 . S
Co987 O1012 1.941 . S
C988 O989 1.258 . S
C988 O990 1.263 . S
O989 Co986 1.970 . S
O989 C988 1.258 . S
O990 Co987 1.966 . S
O990 C988 1.263 . S
C991 O992 1.235 . S
C991 O1018 1.289 . S
O992 C991 1.235 . S
C993 C995 1.400 . S
C993 N996 1.351 . S
C993 C998 1.501 . S
C994 C995 1.387 . S
C994 N997 1.341 . S
C995 C993 1.400 . S
C995 C994 1.387 . S
N996 Co987 2.022 . S
N996 C993 1.351 . S
N996 N997 1.365 . S
N997 C994 1.341 . S
N997 N996 1.365 . S
N997 H1017 0.862 . S
C998 C993 1.501 . S
C998 H999 0.961 . S
C998 H1000 0.961 . S
C998 H1001 0.960 . S
H999 C998 0.961 . S
H1000 C998 0.961 . S
H1001 C998 0.960 . S
C1002 N1003 1.342 . S
C1002 C1006 1.401 . S
C1002 C1007 1.499 . S
N1003 Co986 1.989 . S
N1003 C1002 1.342 . S
N1003 N1004 1.388 . S
N1004 Co987 1.993 . S
N1004 N1003 1.388 . S
N1004 C1005 1.346 . S
C1005 N1004 1.346 . S
C1005 C1006 1.396 . S
C1005 C1015 1.510 . S
C1006 C1002 1.401 . S
C1006 C1005 1.396 . S
C1007 C1002 1.499 . S
C1007 H1008 0.959 . S
C1007 H1009 0.960 . S
C1007 H1010 0.961 . S
H1008 C1007 0.959 . S
H1009 C1007 0.960 . S
H1010 C1007 0.961 . S
O1011 Co986 1.967 . S
O1011 C1019 1.258 . S
O1012 Co987 1.941 . S
O1012 C1019 1.266 . S
H1013 C1015 0.959 . S
H1014 C1015 0.961 . S
C1015 C1005 1.510 . S
C1015 H1013 0.959 . S
C1015 H1014 0.961 . S
C1015 H1016 0.960 . S
H1016 C1015 0.960 . S
H1017 N997 0.862 . S
O1018 Co986 1.920 . S
O1018 C991 1.289 . S
C1019 O1011 1.258 . S
C1019 O1012 1.266 . S
Co1020 O1023 1.970 . S
Co1020 N1037 1.989 . S
Co1020 O1045 1.967 . S
Co1020 O1052 1.920 . S
Co1021 O1024 1.966 . S
Co1021 N1030 2.022 . S
Co1021 N1038 1.993 . S
Co1021 O1046 1.941 . S
C1022 O1023 1.258 . S
C1022 O1024 1.263 . S
O1023 Co1020 1.970 . S
O1023 C1022 1.258 . S
O1024 Co1021 1.966 . S
O1024 C1022 1.263 . S
C1025 O1026 1.235 . S
C1025 O1052 1.289 . S
O1026 C1025 1.235 . S
C1027 C1029 1.400 . S
C1027 N1030 1.351 . S
C1027 C1032 1.501 . S
C1028 C1029 1.387 . S
C1028 N1031 1.341 . S
C1029 C1027 1.400 . S
C1029 C1028 1.387 . S
N1030 Co1021 2.022 . S
N1030 C1027 1.351 . S
N1030 N1031 1.365 . S
N1031 C1028 1.341 . S
N1031 N1030 1.365 . S
N1031 H1051 0.862 . S
C1032 C1027 1.501 . S
C1032 H1033 0.961 . S
C1032 H1034 0.961 . S
C1032 H1035 0.960 . S
H1033 C1032 0.961 . S
H1034 C1032 0.961 . S
H1035 C1032 0.960 . S
C1036 N1037 1.342 . S
C1036 C1040 1.401 . S
C1036 C1041 1.499 . S
N1037 Co1020 1.989 . S
N1037 C1036 1.342 . S
N1037 N1038 1.388 . S
N1038 Co1021 1.993 . S
N1038 N1037 1.388 . S
N1038 C1039 1.346 . S
C1039 N1038 1.346 . S
C1039 C1040 1.396 . S
C1039 C1049 1.510 . S
C1040 C1036 1.401 . S
C1040 C1039 1.396 . S
C1041 C1036 1.499 . S
C1041 H1042 0.959 . S
C1041 H1043 0.960 . S
C1041 H1044 0.961 . S
H1042 C1041 0.959 . S
H1043 C1041 0.960 . S
H1044 C1041 0.961 . S
O1045 Co1020 1.967 . S
O1045 C1053 1.258 . S
O1046 Co1021 1.941 . S
O1046 C1053 1.266 . S
H1047 C1049 0.959 . S
H1048 C1049 0.961 . S
C1049 C1039 1.510 . S
C1049 H1047 0.959 . S
C1049 H1048 0.961 . S
C1049 H1050 0.960 . S
H1050 C1049 0.960 . S
H1051 N1031 0.862 . S
O1052 Co1020 1.920 . S
O1052 C1025 1.289 . S
C1053 O1045 1.258 . S
C1053 O1046 1.266 . S
Co1054 O1057 1.970 . S
Co1054 N1071 1.989 . S
Co1054 O1079 1.967 . S
Co1054 O1086 1.920 . S
Co1055 O1058 1.966 . S
Co1055 N1064 2.022 . S
Co1055 N1072 1.993 . S
Co1055 O1080 1.941 . S
C1056 O1057 1.258 . S
C1056 O1058 1.263 . S
O1057 Co1054 1.970 . S
O1057 C1056 1.258 . S
O1058 Co1055 1.966 . S
O1058 C1056 1.263 . S
C1059 O1060 1.235 . S
C1059 O1086 1.289 . S
O1060 C1059 1.235 . S
C1061 C1063 1.400 . S
C1061 N1064 1.351 . S
C1061 C1066 1.501 . S
C1062 C1063 1.387 . S
C1062 N1065 1.341 . S
C1063 C1061 1.400 . S
C1063 C1062 1.387 . S
N1064 Co1055 2.022 . S
N1064 C1061 1.351 . S
N1064 N1065 1.365 . S
N1065 C1062 1.341 . S
N1065 N1064 1.365 . S
N1065 H1085 0.862 . S
C1066 C1061 1.501 . S
C1066 H1067 0.961 . S
C1066 H1068 0.961 . S
C1066 H1069 0.960 . S
H1067 C1066 0.961 . S
H1068 C1066 0.961 . S
H1069 C1066 0.960 . S
C1070 N1071 1.342 . S
C1070 C1074 1.401 . S
C1070 C1075 1.499 . S
N1071 Co1054 1.989 . S
N1071 C1070 1.342 . S
N1071 N1072 1.388 . S
N1072 Co1055 1.993 . S
N1072 N1071 1.388 . S
N1072 C1073 1.346 . S
C1073 N1072 1.346 . S
C1073 C1074 1.396 . S
C1073 C1083 1.510 . S
C1074 C1070 1.401 . S
C1074 C1073 1.396 . S
C1075 C1070 1.499 . S
C1075 H1076 0.959 . S
C1075 H1077 0.960 . S
C1075 H1078 0.961 . S
H1076 C1075 0.959 . S
H1077 C1075 0.960 . S
H1078 C1075 0.961 . S
O1079 Co1054 1.967 . S
O1079 C1087 1.258 . S
O1080 Co1055 1.941 . S
O1080 C1087 1.266 . S
H1081 C1083 0.959 . S
H1082 C1083 0.961 . S
C1083 C1073 1.510 . S
C1083 H1081 0.959 . S
C1083 H1082 0.961 . S
C1083 H1084 0.960 . S
H1084 C1083 0.960 . S
H1085 N1065 0.862 . S
O1086 Co1054 1.920 . S
O1086 C1059 1.289 . S
C1087 O1079 1.258 . S
C1087 O1080 1.266 . S
H1088 C1096 0.929 . S
H1089 C1098 0.930 . S
H1090 C1100 0.930 . S
H1091 C1103 0.929 . S
H1092 C1106 0.930 . S
H1093 C1108 0.960 . S
H1094 C1108 0.960 . S
H1095 C1108 0.960 . S
C1096 H1088 0.929 . S
C1096 C1097 1.377 . S
C1096 C1098 1.384 . S
C1097 C1096 1.377 . S
C1097 C1103 1.390 . S
C1098 H1089 0.930 . S
C1098 C1096 1.384 . S
C1098 C1099 1.372 . S
C1099 C1098 1.372 . S
C1099 C1100 1.400 . S
C1099 C1104 1.490 . S
C1100 H1090 0.930 . S
C1100 C1099 1.400 . S
C1100 C1103 1.386 . S
H1101 C1117 0.930 . S
H1102 C1118 0.931 . S
C1103 H1091 0.929 . S
C1103 C1097 1.390 . S
C1103 C1100 1.386 . S
C1104 C1099 1.490 . S
C1104 C1106 1.395 . S
C1104 C1107 1.403 . S
H1105 C1111 0.930 . S
C1106 H1092 0.930 . S
C1106 C1104 1.395 . S
C1106 C1109 1.403 . S
C1107 C1104 1.403 . S
C1107 C1108 1.524 . S
C1107 C1111 1.400 . S
C1108 H1093 0.960 . S
C1108 H1094 0.960 . S
C1108 H1095 0.960 . S
C1108 C1107 1.524 . S
C1109 C1106 1.403 . S
C1109 C1110 1.392 . S
C1109 C1113 1.495 . S
C1110 C1109 1.392 . S
C1110 C1111 1.385 . S
C1110 C1112 1.478 . S
C1111 H1105 0.930 . S
C1111 C1107 1.400 . S
C1111 C1110 1.385 . S
C1112 C1110 1.478 . S
C1112 C1114 1.381 . S
C1112 C1118 1.383 . S
C1113 C1109 1.495 . S
C1113 H1119 0.959 . S
C1113 H1120 0.961 . S
C1113 H1121 0.960 . S
C1114 C1112 1.381 . S
C1114 C1115 1.394 . S
C1114 H1122 0.930 . S
C1115 C1114 1.394 . S
C1115 C1116 1.383 . S
C1115 H1123 0.929 . S
C1116 C1115 1.383 . S
C1116 C1117 1.377 . S
C1117 H1101 0.930 . S
C1117 C1116 1.377 . S
C1117 C1118 1.379 . S
C1118 H1102 0.931 . S
C1118 C1112 1.383 . S
C1118 C1117 1.379 . S
H1119 C1113 0.959 . S
H1120 C1113 0.961 . S
H1121 C1113 0.960 . S
H1122 C1114 0.930 . S
H1123 C1115 0.929 . S
H1124 C1132 0.929 . S
H1125 C1134 0.930 . S
H1126 C1136 0.930 . S
H1127 C1139 0.929 . S
H1128 C1142 0.930 . S
H1129 C1144 0.960 . S
H1130 C1144 0.960 . S
H1131 C1144 0.960 . S
C1132 H1124 0.929 . S
C1132 C1133 1.377 . S
C1132 C1134 1.384 . S
C1133 C1132 1.377 . S
C1133 C1139 1.390 . S
C1134 H1125 0.930 . S
C1134 C1132 1.384 . S
C1134 C1135 1.372 . S
C1135 C1134 1.372 . S
C1135 C1136 1.400 . S
C1135 C1140 1.490 . S
C1136 H1126 0.930 . S
C1136 C1135 1.400 . S
C1136 C1139 1.386 . S
H1137 C1153 0.930 . S
H1138 C1154 0.931 . S
C1139 H1127 0.929 . S
C1139 C1133 1.390 . S
C1139 C1136 1.386 . S
C1140 C1135 1.490 . S
C1140 C1142 1.395 . S
C1140 C1143 1.403 1_455 S
H1141 C1147 0.930 . S
C1142 H1128 0.930 . S
C1142 C1140 1.395 . S
C1142 C1145 1.403 . S
C1143 C1140 1.403 1_655 S
C1143 C1144 1.524 . S
C1143 C1147 1.400 . S
C1144 H1129 0.960 . S
C1144 H1130 0.960 . S
C1144 H1131 0.960 . S
C1144 C1143 1.524 . S
C1145 C1142 1.403 . S
C1145 C1146 1.392 1_455 S
C1145 C1149 1.495 . S
C1146 C1145 1.392 1_655 S
C1146 C1147 1.385 . S
C1146 C1148 1.478 . S
C1147 H1141 0.930 . S
C1147 C1143 1.400 . S
C1147 C1146 1.385 . S
C1148 C1146 1.478 . S
C1148 C1150 1.381 . S
C1148 C1154 1.383 . S
C1149 C1145 1.495 . S
C1149 H1155 0.959 . S
C1149 H1156 0.961 . S
C1149 H1157 0.960 . S
C1150 C1148 1.381 . S
C1150 C1151 1.394 . S
C1150 H1158 0.930 . S
C1151 C1150 1.394 . S
C1151 C1152 1.383 . S
C1151 H1159 0.929 . S
C1152 C1151 1.383 . S
C1152 C1153 1.377 . S
C1153 H1137 0.930 . S
C1153 C1152 1.377 . S
C1153 C1154 1.379 . S
C1154 H1138 0.931 . S
C1154 C1148 1.383 . S
C1154 C1153 1.379 . S
H1155 C1149 0.959 . S
H1156 C1149 0.961 . S
H1157 C1149 0.960 . S
H1158 C1150 0.930 . S
H1159 C1151 0.929 . S
H1160 C1168 0.929 . S
H1161 C1170 0.930 . S
H1162 C1172 0.930 . S
H1163 C1175 0.929 . S
H1164 C1178 0.930 . S
H1165 C1180 0.917 1_655 S
H1166 C1180 0.975 . S
H1167 C1180 0.989 . S
C1168 H1160 0.929 . S
C1168 C1169 1.377 . S
C1168 C1170 1.384 . S
C1169 C1168 1.377 . S
C1169 C1175 1.390 . S
C1170 H1161 0.930 . S
C1170 C1168 1.384 . S
C1170 C1171 1.372 . S
C1171 C1170 1.372 . S
C1171 C1172 1.400 . S
C1171 C1176 1.490 . S
C1172 H1162 0.930 . S
C1172 C1171 1.400 . S
C1172 C1175 1.386 . S
H1173 C1189 0.930 . S
H1174 C1190 0.931 . S
C1175 H1163 0.929 . S
C1175 C1169 1.390 . S
C1175 C1172 1.386 . S
C1176 C1171 1.490 . S
C1176 C1178 1.395 . S
C1176 C1179 1.403 . S
H1177 C1183 0.930 . S
C1178 H1164 0.930 . S
C1178 C1176 1.395 . S
C1178 C1181 1.404 1_455 S
C1179 C1176 1.403 . S
C1179 C1180 1.525 . S
C1179 C1183 1.400 1_455 S
C1180 H1165 0.917 1_455 S
C1180 H1166 0.975 . S
C1180 H1167 0.989 . S
C1180 C1179 1.525 . S
C1181 C1178 1.404 1_655 S
C1181 C1182 1.391 . S
C1181 C1185 1.495 . S
C1182 C1181 1.391 . S
C1182 C1183 1.385 . S
C1182 C1184 1.478 . S
C1183 H1177 0.930 . S
C1183 C1179 1.400 1_655 S
C1183 C1182 1.385 . S
C1184 C1182 1.478 . S
C1184 C1186 1.381 . S
C1184 C1190 1.383 . S
C1185 C1181 1.495 . S
C1185 H1191 0.963 1_655 S
C1185 H1192 0.960 . S
C1185 H1193 0.957 . S
C1186 C1184 1.381 . S
C1186 C1187 1.394 . S
C1186 H1194 0.930 . S
C1187 C1186 1.394 . S
C1187 C1188 1.383 . S
C1187 H1195 0.929 . S
C1188 C1187 1.383 . S
C1188 C1189 1.377 . S
C1189 H1173 0.930 . S
C1189 C1188 1.377 . S
C1189 C1190 1.379 . S
C1190 H1174 0.931 . S
C1190 C1184 1.383 . S
C1190 C1189 1.379 . S
H1191 C1185 0.963 1_455 S
H1192 C1185 0.960 . S
H1193 C1185 0.957 . S
H1194 C1186 0.930 . S
H1195 C1187 0.929 . S
H1196 C1204 0.929 . S
H1197 C1206 0.930 . S
H1198 C1208 0.930 . S
H1199 C1211 0.929 . S
H1200 C1214 0.930 . S
H1201 C1216 0.960 . S
H1202 C1216 0.960 . S
H1203 C1216 0.960 . S
C1204 H1196 0.929 . S
C1204 C1205 1.377 . S
C1204 C1206 1.384 . S
C1205 C1204 1.377 . S
C1205 C1211 1.390 . S
C1206 H1197 0.930 . S
C1206 C1204 1.384 . S
C1206 C1207 1.372 . S
C1207 C1206 1.372 . S
C1207 C1208 1.400 . S
C1207 C1212 1.490 . S
C1208 H1198 0.930 . S
C1208 C1207 1.400 . S
C1208 C1211 1.386 . S
H1209 C1225 0.930 . S
H1210 C1226 0.931 . S
C1211 H1199 0.929 . S
C1211 C1205 1.390 . S
C1211 C1208 1.386 . S
C1212 C1207 1.490 . S
C1212 C1214 1.395 . S
C1212 C1215 1.403 . S
H1213 C1219 0.930 . S
C1214 H1200 0.930 . S
C1214 C1212 1.395 . S
C1214 C1217 1.403 . S
C1215 C1212 1.403 . S
C1215 C1216 1.524 . S
C1215 C1219 1.400 . S
C1216 H1201 0.960 . S
C1216 H1202 0.960 . S
C1216 H1203 0.960 . S
C1216 C1215 1.524 . S
C1217 C1214 1.403 . S
C1217 C1218 1.392 . S
C1217 C1221 1.495 . S
C1218 C1217 1.392 . S
C1218 C1219 1.385 . S
C1218 C1220 1.478 . S
C1219 H1213 0.930 . S
C1219 C1215 1.400 . S
C1219 C1218 1.385 . S
C1220 C1218 1.478 . S
C1220 C1222 1.381 . S
C1220 C1226 1.383 . S
C1221 C1217 1.495 . S
C1221 H1227 0.959 . S
C1221 H1228 0.961 . S
C1221 H1229 0.960 . S
C1222 C1220 1.381 . S
C1222 C1223 1.394 . S
C1222 H1230 0.930 . S
C1223 C1222 1.394 . S
C1223 C1224 1.383 . S
C1223 H1231 0.929 . S
C1224 C1223 1.383 . S
C1224 C1225 1.377 . S
C1225 H1209 0.930 . S
C1225 C1224 1.377 . S
C1225 C1226 1.379 . S
C1226 H1210 0.931 . S
C1226 C1220 1.383 . S
C1226 C1225 1.379 . S
H1227 C1221 0.959 . S
H1228 C1221 0.961 . S
H1229 C1221 0.960 . S
H1230 C1222 0.930 . S
H1231 C1223 0.929 . S
H1232 C1240 0.929 . S
H1233 C1242 0.930 . S
H1234 C1244 0.930 . S
H1235 C1247 0.929 . S
H1236 C1250 0.930 . S
H1237 C1252 0.960 . S
H1238 C1252 0.960 . S
H1239 C1252 0.960 . S
C1240 H1232 0.929 . S
C1240 C1241 1.377 . S
C1240 C1242 1.384 . S
C1241 C1240 1.377 . S
C1241 C1247 1.390 . S
C1242 H1233 0.930 . S
C1242 C1240 1.384 . S
C1242 C1243 1.372 . S
C1243 C1242 1.372 . S
C1243 C1244 1.400 . S
C1243 C1248 1.490 . S
C1244 H1234 0.930 . S
C1244 C1243 1.400 . S
C1244 C1247 1.386 . S
H1245 C1261 0.930 . S
H1246 C1262 0.931 . S
C1247 H1235 0.929 . S
C1247 C1241 1.390 . S
C1247 C1244 1.386 . S
C1248 C1243 1.490 . S
C1248 C1250 1.395 . S
C1248 C1251 1.403 . S
H1249 C1255 0.930 . S
C1250 H1236 0.930 . S
C1250 C1248 1.395 . S
C1250 C1253 1.403 . S
C1251 C1248 1.403 . S
C1251 C1252 1.524 . S
C1251 C1255 1.400 . S
C1252 H1237 0.960 . S
C1252 H1238 0.960 . S
C1252 H1239 0.960 . S
C1252 C1251 1.524 . S
C1253 C1250 1.403 . S
C1253 C1254 1.392 . S
C1253 C1257 1.495 . S
C1254 C1253 1.392 . S
C1254 C1255 1.385 . S
C1254 C1256 1.478 . S
C1255 H1249 0.930 . S
C1255 C1251 1.400 . S
C1255 C1254 1.385 . S
C1256 C1254 1.478 . S
C1256 C1258 1.381 . S
C1256 C1262 1.383 . S
C1257 C1253 1.495 . S
C1257 H1263 0.959 . S
C1257 H1264 0.961 . S
C1257 H1265 0.960 . S
C1258 C1256 1.381 . S
C1258 C1259 1.394 . S
C1258 H1266 0.930 . S
C1259 C1258 1.394 . S
C1259 C1260 1.383 . S
C1259 H1267 0.929 . S
C1260 C1259 1.383 . S
C1260 C1261 1.377 . S
C1261 H1245 0.930 . S
C1261 C1260 1.377 . S
C1261 C1262 1.379 . S
C1262 H1246 0.931 . S
C1262 C1256 1.383 . S
C1262 C1261 1.379 . S
H1263 C1257 0.959 . S
H1264 C1257 0.961 . S
H1265 C1257 0.960 . S
H1266 C1258 0.930 . S
H1267 C1259 0.929 . S
H1268 C1276 0.929 . S
H1269 C1278 0.930 . S
H1270 C1280 0.930 . S
H1271 C1283 0.929 . S
H1272 C1286 0.930 . S
H1273 C1288 0.960 . S
H1274 C1288 0.960 . S
H1275 C1288 0.960 . S
C1276 H1268 0.929 . S
C1276 C1277 1.377 . S
C1276 C1278 1.384 . S
C1277 C1276 1.377 . S
C1277 C1283 1.390 . S
C1278 H1269 0.930 . S
C1278 C1276 1.384 . S
C1278 C1279 1.372 . S
C1279 C1278 1.372 . S
C1279 C1280 1.400 . S
C1279 C1284 1.490 . S
C1280 H1270 0.930 . S
C1280 C1279 1.400 . S
C1280 C1283 1.386 . S
H1281 C1297 0.930 . S
H1282 C1298 0.931 . S
C1283 H1271 0.929 . S
C1283 C1277 1.390 . S
C1283 C1280 1.386 . S
C1284 C1279 1.490 . S
C1284 C1286 1.395 . S
C1284 C1287 1.403 . S
H1285 C1291 0.930 . S
C1286 H1272 0.930 . S
C1286 C1284 1.395 . S
C1286 C1289 1.403 . S
C1287 C1284 1.403 . S
C1287 C1288 1.524 . S
C1287 C1291 1.400 . S
C1288 H1273 0.960 . S
C1288 H1274 0.960 . S
C1288 H1275 0.960 . S
C1288 C1287 1.524 . S
C1289 C1286 1.403 . S
C1289 C1290 1.392 . S
C1289 C1293 1.495 . S
C1290 C1289 1.392 . S
C1290 C1291 1.385 . S
C1290 C1292 1.478 . S
C1291 H1285 0.930 . S
C1291 C1287 1.400 . S
C1291 C1290 1.385 . S
C1292 C1290 1.478 . S
C1292 C1294 1.381 . S
C1292 C1298 1.383 . S
C1293 C1289 1.495 . S
C1293 H1299 0.959 . S
C1293 H1300 0.961 . S
C1293 H1301 0.960 . S
C1294 C1292 1.381 . S
C1294 C1295 1.394 . S
C1294 H1302 0.930 . S
C1295 C1294 1.394 . S
C1295 C1296 1.383 . S
C1295 H1303 0.929 . S
C1296 C1295 1.383 . S
C1296 C1297 1.377 . S
C1297 H1281 0.930 . S
C1297 C1296 1.377 . S
C1297 C1298 1.379 . S
C1298 H1282 0.931 . S
C1298 C1292 1.383 . S
C1298 C1297 1.379 . S
H1299 C1293 0.959 . S
H1300 C1293 0.961 . S
H1301 C1293 0.960 . S
H1302 C1294 0.930 . S
H1303 C1295 0.929 . S
H1304 C1312 0.929 . S
H1305 C1314 0.930 . S
H1306 C1316 0.930 . S
H1307 C1319 0.929 . S
H1308 C1322 0.930 . S
H1309 C1324 0.960 . S
H1310 C1324 0.960 . S
H1311 C1324 0.960 . S
C1312 H1304 0.929 . S
C1312 C1313 1.377 . S
C1312 C1314 1.384 . S
C1313 C1312 1.377 . S
C1313 C1319 1.390 . S
C1314 H1305 0.930 . S
C1314 C1312 1.384 . S
C1314 C1315 1.372 . S
C1315 C1314 1.372 . S
C1315 C1316 1.400 . S
C1315 C1320 1.490 . S
C1316 H1306 0.930 . S
C1316 C1315 1.400 . S
C1316 C1319 1.386 . S
H1317 C1333 0.930 . S
H1318 C1334 0.931 . S
C1319 H1307 0.929 . S
C1319 C1313 1.390 . S
C1319 C1316 1.386 . S
C1320 C1315 1.490 . S
C1320 C1322 1.395 . S
C1320 C1323 1.403 . S
H1321 C1327 0.930 . S
C1322 H1308 0.930 . S
C1322 C1320 1.395 . S
C1322 C1325 1.403 1_455 S
C1323 C1320 1.403 . S
C1323 C1324 1.524 . S
C1323 C1327 1.400 1_455 S
C1324 H1309 0.960 . S
C1324 H1310 0.960 . S
C1324 H1311 0.960 . S
C1324 C1323 1.524 . S
C1325 C1322 1.403 1_655 S
C1325 C1326 1.392 . S
C1325 C1329 1.495 . S
C1326 C1325 1.392 . S
C1326 C1327 1.385 . S
C1326 C1328 1.478 . S
C1327 H1321 0.930 . S
C1327 C1323 1.400 1_655 S
C1327 C1326 1.385 . S
C1328 C1326 1.478 . S
C1328 C1330 1.381 . S
C1328 C1334 1.383 . S
C1329 C1325 1.495 . S
C1329 H1335 0.959 . S
C1329 H1336 0.961 . S
C1329 H1337 0.960 . S
C1330 C1328 1.381 . S
C1330 C1331 1.394 . S
C1330 H1338 0.930 . S
C1331 C1330 1.394 . S
C1331 C1332 1.383 . S
C1331 H1339 0.929 . S
C1332 C1331 1.383 . S
C1332 C1333 1.377 . S
C1333 H1317 0.930 . S
C1333 C1332 1.377 . S
C1333 C1334 1.379 . S
C1334 H1318 0.931 . S
C1334 C1328 1.383 . S
C1334 C1333 1.379 . S
H1335 C1329 0.959 . S
H1336 C1329 0.961 . S
H1337 C1329 0.960 . S
H1338 C1330 0.930 . S
H1339 C1331 0.929 . S
H1340 C1348 0.929 . S
H1341 C1350 0.930 . S
H1342 C1352 0.930 1_655 S
H1343 C1355 0.929 . S
H1344 C1358 0.930 . S
H1345 C1360 0.960 . S
H1346 C1360 0.960 1_455 S
H1347 C1360 0.960 . S
C1348 H1340 0.929 . S
C1348 C1349 1.377 . S
C1348 C1350 1.384 . S
C1349 C1348 1.377 . S
C1349 C1355 1.390 . S
C1350 H1341 0.930 . S
C1350 C1348 1.384 . S
C1350 C1351 1.372 . S
C1351 C1350 1.372 . S
C1351 C1352 1.400 . S
C1351 C1356 1.490 . S
C1352 H1342 0.930 1_455 S
C1352 C1351 1.400 . S
C1352 C1355 1.386 . S
H1353 C1369 0.930 . S
H1354 C1370 0.931 . S
C1355 H1343 0.929 . S
C1355 C1349 1.390 . S
C1355 C1352 1.386 . S
C1356 C1351 1.490 . S
C1356 C1358 1.395 . S
C1356 C1359 1.376 1_455 S
H1357 C1363 0.930 . S
C1358 H1344 0.930 . S
C1358 C1356 1.395 . S
C1358 C1361 1.403 . S
C1359 C1356 1.376 1_655 S
C1359 C1360 1.530 . S
C1359 C1363 1.422 . S
C1360 H1345 0.960 . S
C1360 H1346 0.960 1_655 S
C1360 H1347 0.960 . S
C1360 C1359 1.530 . S
C1361 C1358 1.403 . S
C1361 C1362 1.392 1_455 S
C1361 C1365 1.495 . S
C1362 C1361 1.392 1_655 S
C1362 C1363 1.385 . S
C1362 C1364 1.478 . S
C1363 H1357 0.930 . S
C1363 C1359 1.422 . S
C1363 C1362 1.385 . S
C1364 C1362 1.478 . S
C1364 C1366 1.381 . S
C1364 C1370 1.383 . S
C1365 C1361 1.495 . S
C1365 H1371 0.959 . S
C1365 H1372 0.961 1_455 S
C1365 H1373 0.960 . S
C1366 C1364 1.381 . S
C1366 C1367 1.394 . S
C1366 H1374 0.930 1_655 S
C1367 C1366 1.394 . S
C1367 C1368 1.383 . S
C1367 H1375 0.929 . S
C1368 C1367 1.383 . S
C1368 C1369 1.377 . S
C1369 H1353 0.930 . S
C1369 C1368 1.377 . S
C1369 C1370 1.379 . S
C1370 H1354 0.931 . S
C1370 C1364 1.383 . S
C1370 C1369 1.379 . S
H1371 C1365 0.959 . S
H1372 C1365 0.961 1_655 S
H1373 C1365 0.960 . S
H1374 C1366 0.930 1_455 S
H1375 C1367 0.929 . S
H1376 C1384 0.929 . S
H1377 C1386 0.930 . S
H1378 C1388 0.930 . S
H1379 C1391 0.929 . S
H1380 C1394 0.930 . S
H1381 C1396 0.960 . S
H1382 C1396 0.960 . S
H1383 C1396 0.960 . S
C1384 H1376 0.929 . S
C1384 C1385 1.377 . S
C1384 C1386 1.384 . S
C1385 C1384 1.377 . S
C1385 C1391 1.390 . S
C1386 H1377 0.930 . S
C1386 C1384 1.384 . S
C1386 C1387 1.372 . S
C1387 C1386 1.372 . S
C1387 C1388 1.400 . S
C1387 C1392 1.490 . S
C1388 H1378 0.930 . S
C1388 C1387 1.400 . S
C1388 C1391 1.386 . S
H1389 C1405 0.930 . S
H1390 C1406 0.931 . S
C1391 H1379 0.929 . S
C1391 C1385 1.390 . S
C1391 C1388 1.386 . S
C1392 C1387 1.490 . S
C1392 C1394 1.395 . S
C1392 C1395 1.403 . S
H1393 C1399 0.930 . S
C1394 H1380 0.930 . S
C1394 C1392 1.395 . S
C1394 C1397 1.403 . S
C1395 C1392 1.403 . S
C1395 C1396 1.524 . S
C1395 C1399 1.400 . S
C1396 H1381 0.960 . S
C1396 H1382 0.960 . S
C1396 H1383 0.960 . S
C1396 C1395 1.524 . S
C1397 C1394 1.403 . S
C1397 C1398 1.392 . S
C1397 C1401 1.495 . S
C1398 C1397 1.392 . S
C1398 C1399 1.385 . S
C1398 C1400 1.478 . S
C1399 H1393 0.930 . S
C1399 C1395 1.400 . S
C1399 C1398 1.385 . S
C1400 C1398 1.478 . S
C1400 C1402 1.381 . S
C1400 C1406 1.383 . S
C1401 C1397 1.495 . S
C1401 H1407 0.959 . S
C1401 H1408 0.961 . S
C1401 H1409 0.960 . S
C1402 C1400 1.381 . S
C1402 C1403 1.394 . S
C1402 H1410 0.930 . S
C1403 C1402 1.394 . S
C1403 C1404 1.383 . S
C1403 H1411 0.929 . S
C1404 C1403 1.383 . S
C1404 C1405 1.377 . S
C1405 H1389 0.930 . S
C1405 C1404 1.377 . S
C1405 C1406 1.379 . S
C1406 H1390 0.931 . S
C1406 C1400 1.383 . S
C1406 C1405 1.379 . S
H1407 C1401 0.959 . S
H1408 C1401 0.961 . S
H1409 C1401 0.960 . S
H1410 C1402 0.930 . S
H1411 C1403 0.929 . S
H1412 C1420 0.929 . S
H1413 C1422 0.930 . S
H1414 C1424 0.925 1_655 S
H1415 C1427 0.929 . S
H1416 C1430 0.930 . S
H1417 C1432 0.960 . S
H1418 C1432 0.960 . S
H1419 C1432 0.960 . S
C1420 H1412 0.929 . S
C1420 C1421 1.377 . S
C1420 C1422 1.384 . S
C1421 C1420 1.377 . S
C1421 C1427 1.390 . S
C1422 H1413 0.930 . S
C1422 C1420 1.384 . S
C1422 C1423 1.372 . S
C1423 C1422 1.372 . S
C1423 C1424 1.400 . S
C1423 C1428 1.490 . S
C1424 H1414 0.925 1_455 S
C1424 C1423 1.400 . S
C1424 C1427 1.386 . S
H1425 C1441 0.930 . S
H1426 C1442 0.931 . S
C1427 H1415 0.929 . S
C1427 C1421 1.390 . S
C1427 C1424 1.386 . S
C1428 C1423 1.490 . S
C1428 C1430 1.395 . S
C1428 C1431 1.403 . S
H1429 C1435 0.930 . S
C1430 H1416 0.930 . S
C1430 C1428 1.395 . S
C1430 C1433 1.403 1_455 S
C1431 C1428 1.403 . S
C1431 C1432 1.524 . S
C1431 C1435 1.400 1_455 S
C1432 H1417 0.960 . S
C1432 H1418 0.960 . S
C1432 H1419 0.960 . S
C1432 C1431 1.524 . S
C1433 C1430 1.403 1_655 S
C1433 C1434 1.392 . S
C1433 C1437 1.495 . S
C1434 C1433 1.392 . S
C1434 C1435 1.385 . S
C1434 C1436 1.478 . S
C1435 H1429 0.930 . S
C1435 C1431 1.400 1_655 S
C1435 C1434 1.385 . S
C1436 C1434 1.478 . S
C1436 C1438 1.381 . S
C1436 C1442 1.383 . S
C1437 C1433 1.495 . S
C1437 H1443 0.959 . S
C1437 H1444 0.961 . S
C1437 H1445 0.960 . S
C1438 C1436 1.381 . S
C1438 C1439 1.394 . S
C1438 H1446 0.930 1_655 S
C1439 C1438 1.394 . S
C1439 C1440 1.383 . S
C1439 H1447 0.929 . S
C1440 C1439 1.383 . S
C1440 C1441 1.377 . S
C1441 H1425 0.930 . S
C1441 C1440 1.377 . S
C1441 C1442 1.379 . S
C1442 H1426 0.931 . S
C1442 C1436 1.383 . S
C1442 C1441 1.379 . S
H1443 C1437 0.959 . S
H1444 C1437 0.961 . S
H1445 C1437 0.960 . S
H1446 C1438 0.930 1_455 S
H1447 C1439 0.929 . S
H1448 C1456 0.929 . S
H1449 C1458 0.930 . S
H1450 C1460 0.930 . S
H1451 C1463 0.929 . S
H1452 C1466 0.930 . S
H1453 C1468 0.941 1_455 S
H1454 C1468 0.967 . S
H1455 C1468 0.972 . S
C1456 H1448 0.929 . S
C1456 C1457 1.377 . S
C1456 C1458 1.384 . S
C1457 C1456 1.377 . S
C1457 C1463 1.390 . S
C1458 H1449 0.930 . S
C1458 C1456 1.384 . S
C1458 C1459 1.372 . S
C1459 C1458 1.372 . S
C1459 C1460 1.400 . S
C1459 C1464 1.490 . S
C1460 H1450 0.930 . S
C1460 C1459 1.400 . S
C1460 C1463 1.386 . S
H1461 C1477 0.930 . S
H1462 C1478 0.931 . S
C1463 H1451 0.929 . S
C1463 C1457 1.390 . S
C1463 C1460 1.386 . S
C1464 C1459 1.490 . S
C1464 C1466 1.395 . S
C1464 C1467 1.403 . S
H1465 C1471 0.930 . S
C1466 H1452 0.930 . S
C1466 C1464 1.395 . S
C1466 C1469 1.412 . S
C1467 C1464 1.403 . S
C1467 C1468 1.524 . S
C1467 C1471 1.400 1_655 S
C1468 H1453 0.941 1_655 S
C1468 H1454 0.967 . S
C1468 H1455 0.972 . S
C1468 C1467 1.524 . S
C1469 C1466 1.412 . S
C1469 C1470 1.384 1_655 S
C1469 C1473 1.495 . S
C1470 C1469 1.384 1_455 S
C1470 C1471 1.385 . S
C1470 C1472 1.478 . S
C1471 H1465 0.930 . S
C1471 C1467 1.400 1_455 S
C1471 C1470 1.385 . S
C1472 C1470 1.478 . S
C1472 C1474 1.381 . S
C1472 C1478 1.383 . S
C1473 C1469 1.495 . S
C1473 H1479 0.987 . S
C1473 H1480 0.951 1_655 S
C1473 H1481 0.943 1_655 S
C1474 C1472 1.381 . S
C1474 C1475 1.394 . S
C1474 H1482 0.930 . S
C1475 C1474 1.394 . S
C1475 C1476 1.383 . S
C1475 H1483 0.929 . S
C1476 C1475 1.383 . S
C1476 C1477 1.377 . S
C1477 H1461 0.930 . S
C1477 C1476 1.377 . S
C1477 C1478 1.379 . S
C1478 H1462 0.931 . S
C1478 C1472 1.383 . S
C1478 C1477 1.379 . S
H1479 C1473 0.987 . S
H1480 C1473 0.951 1_455 S
H1481 C1473 0.943 1_455 S
H1482 C1474 0.930 . S
H1483 C1475 0.929 . S
H1484 C1492 0.929 . S
H1485 C1494 0.930 . S
H1486 C1496 0.930 . S
H1487 C1499 0.929 . S
H1488 C1502 0.930 . S
H1489 C1504 0.960 . S
H1490 C1504 0.960 . S
H1491 C1504 0.960 . S
C1492 H1484 0.929 . S
C1492 C1493 1.377 . S
C1492 C1494 1.384 . S
C1493 C1492 1.377 . S
C1493 C1499 1.390 . S
C1494 H1485 0.930 . S
C1494 C1492 1.384 . S
C1494 C1495 1.372 . S
C1495 C1494 1.372 . S
C1495 C1496 1.400 . S
C1495 C1500 1.490 . S
C1496 H1486 0.930 . S
C1496 C1495 1.400 . S
C1496 C1499 1.386 . S
H1497 C1513 0.930 . S
H1498 C1514 0.931 . S
C1499 H1487 0.929 . S
C1499 C1493 1.390 . S
C1499 C1496 1.386 . S
C1500 C1495 1.490 . S
C1500 C1502 1.395 . S
C1500 C1503 1.403 . S
H1501 C1507 0.930 . S
C1502 H1488 0.930 . S
C1502 C1500 1.395 . S
C1502 C1505 1.403 . S
C1503 C1500 1.403 . S
C1503 C1504 1.524 . S
C1503 C1507 1.400 . S
C1504 H1489 0.960 . S
C1504 H1490 0.960 . S
C1504 H1491 0.960 . S
C1504 C1503 1.524 . S
C1505 C1502 1.403 . S
C1505 C1506 1.392 . S
C1505 C1509 1.495 . S
C1506 C1505 1.392 . S
C1506 C1507 1.385 . S
C1506 C1508 1.478 . S
C1507 H1501 0.930 . S
C1507 C1503 1.400 . S
C1507 C1506 1.385 . S
C1508 C1506 1.478 . S
C1508 C1510 1.381 . S
C1508 C1514 1.383 . S
C1509 C1505 1.495 . S
C1509 H1515 0.959 . S
C1509 H1516 0.961 . S
C1509 H1517 0.960 . S
C1510 C1508 1.381 . S
C1510 C1511 1.394 . S
C1510 H1518 0.930 . S
C1511 C1510 1.394 . S
C1511 C1512 1.383 . S
C1511 H1519 0.929 . S
C1512 C1511 1.383 . S
C1512 C1513 1.377 . S
C1513 H1497 0.930 . S
C1513 C1512 1.377 . S
C1513 C1514 1.379 . S
C1514 H1498 0.931 . S
C1514 C1508 1.383 . S
C1514 C1513 1.379 . S
H1515 C1509 0.959 . S
H1516 C1509 0.961 . S
H1517 C1509 0.960 . S
H1518 C1510 0.930 . S
H1519 C1511 0.929 . S
H1520 C1528 0.929 . S
H1521 C1530 0.930 . S
H1522 C1532 0.930 . S
H1523 C1535 0.929 . S
H1524 C1538 0.930 . S
H1525 C1540 0.960 . S
H1526 C1540 0.960 . S
H1527 C1540 0.960 . S
C1528 H1520 0.929 . S
C1528 C1529 1.377 . S
C1528 C1530 1.384 . S
C1529 C1528 1.377 . S
C1529 C1535 1.390 . S
C1530 H1521 0.930 . S
C1530 C1528 1.384 . S
C1530 C1531 1.372 . S
C1531 C1530 1.372 . S
C1531 C1532 1.400 . S
C1531 C1536 1.490 . S
C1532 H1522 0.930 . S
C1532 C1531 1.400 . S
C1532 C1535 1.386 . S
H1533 C1549 0.930 . S
H1534 C1550 0.931 . S
C1535 H1523 0.929 . S
C1535 C1529 1.390 . S
C1535 C1532 1.386 . S
C1536 C1531 1.490 . S
C1536 C1538 1.395 . S
C1536 C1539 1.403 . S
H1537 C1543 0.930 . S
C1538 H1524 0.930 . S
C1538 C1536 1.395 . S
C1538 C1541 1.403 . S
C1539 C1536 1.403 . S
C1539 C1540 1.524 . S
C1539 C1543 1.400 . S
C1540 H1525 0.960 . S
C1540 H1526 0.960 . S
C1540 H1527 0.960 . S
C1540 C1539 1.524 . S
C1541 C1538 1.403 . S
C1541 C1542 1.392 . S
C1541 C1545 1.495 . S
C1542 C1541 1.392 . S
C1542 C1543 1.385 . S
C1542 C1544 1.478 . S
C1543 H1537 0.930 . S
C1543 C1539 1.400 . S
C1543 C1542 1.385 . S
C1544 C1542 1.478 . S
C1544 C1546 1.381 . S
C1544 C1550 1.383 . S
C1545 C1541 1.495 . S
C1545 H1551 0.959 . S
C1545 H1552 0.961 . S
C1545 H1553 0.960 . S
C1546 C1544 1.381 . S
C1546 C1547 1.394 . S
C1546 H1554 0.930 . S
C1547 C1546 1.394 . S
C1547 C1548 1.383 . S
C1547 H1555 0.929 . S
C1548 C1547 1.383 . S
C1548 C1549 1.377 . S
C1549 H1533 0.930 . S
C1549 C1548 1.377 . S
C1549 C1550 1.379 . S
C1550 H1534 0.931 . S
C1550 C1544 1.383 . S
C1550 C1549 1.379 . S
H1551 C1545 0.959 . S
H1552 C1545 0.961 . S
H1553 C1545 0.960 . S
H1554 C1546 0.930 . S
H1555 C1547 0.929 . S
H1556 C1564 0.929 . S
H1557 C1566 0.930 . S
H1558 C1568 0.930 . S
H1559 C1571 0.929 . S
H1560 C1574 0.930 . S
H1561 C1576 0.960 . S
H1562 C1576 0.960 . S
H1563 C1576 0.960 . S
C1564 H1556 0.929 . S
C1564 C1565 1.377 . S
C1564 C1566 1.384 . S
C1565 C1564 1.377 . S
C1565 C1571 1.390 . S
C1566 H1557 0.930 . S
C1566 C1564 1.384 . S
C1566 C1567 1.372 . S
C1567 C1566 1.372 . S
C1567 C1568 1.400 . S
C1567 C1572 1.490 . S
C1568 H1558 0.930 . S
C1568 C1567 1.400 . S
C1568 C1571 1.386 . S
H1569 C1585 0.930 . S
H1570 C1586 0.931 . S
C1571 H1559 0.929 . S
C1571 C1565 1.390 . S
C1571 C1568 1.386 . S
C1572 C1567 1.490 . S
C1572 C1574 1.395 . S
C1572 C1575 1.403 . S
H1573 C1579 0.930 . S
C1574 H1560 0.930 . S
C1574 C1572 1.395 . S
C1574 C1577 1.403 . S
C1575 C1572 1.403 . S
C1575 C1576 1.524 . S
C1575 C1579 1.400 . S
C1576 H1561 0.960 . S
C1576 H1562 0.960 . S
C1576 H1563 0.960 . S
C1576 C1575 1.524 . S
C1577 C1574 1.403 . S
C1577 C1578 1.392 . S
C1577 C1581 1.495 . S
C1578 C1577 1.392 . S
C1578 C1579 1.385 . S
C1578 C1580 1.478 . S
C1579 H1573 0.930 . S
C1579 C1575 1.400 . S
C1579 C1578 1.385 . S
C1580 C1578 1.478 . S
C1580 C1582 1.381 . S
C1580 C1586 1.383 . S
C1581 C1577 1.495 . S
C1581 H1587 0.959 . S
C1581 H1588 0.961 . S
C1581 H1589 0.960 . S
C1582 C1580 1.381 . S
C1582 C1583 1.394 . S
C1582 H1590 0.930 . S
C1583 C1582 1.394 . S
C1583 C1584 1.383 . S
C1583 H1591 0.929 . S
C1584 C1583 1.383 . S
C1584 C1585 1.377 . S
C1585 H1569 0.930 . S
C1585 C1584 1.377 . S
C1585 C1586 1.379 . S
C1586 H1570 0.931 . S
C1586 C1580 1.383 . S
C1586 C1585 1.379 . S
H1587 C1581 0.959 . S
H1588 C1581 0.961 . S
H1589 C1581 0.960 . S
H1590 C1582 0.930 . S
H1591 C1583 0.929 . S
H1592 C1600 0.929 . S
H1593 C1602 0.930 . S
H1594 C1604 0.930 . S
H1595 C1607 0.929 . S
H1596 C1610 0.930 . S
H1597 C1612 0.960 . S
H1598 C1612 0.960 . S
H1599 C1612 0.960 . S
C1600 H1592 0.929 . S
C1600 C1601 1.377 . S
C1600 C1602 1.384 . S
C1601 C1600 1.377 . S
C1601 C1607 1.390 . S
C1602 H1593 0.930 . S
C1602 C1600 1.384 . S
C1602 C1603 1.372 . S
C1603 C1602 1.372 . S
C1603 C1604 1.400 . S
C1603 C1608 1.490 . S
C1604 H1594 0.930 . S
C1604 C1603 1.400 . S
C1604 C1607 1.386 . S
H1605 C1621 0.930 . S
H1606 C1622 0.931 . S
C1607 H1595 0.929 . S
C1607 C1601 1.390 . S
C1607 C1604 1.386 . S
C1608 C1603 1.490 . S
C1608 C1610 1.395 . S
C1608 C1611 1.403 . S
H1609 C1615 0.930 . S
C1610 H1596 0.930 . S
C1610 C1608 1.395 . S
C1610 C1613 1.403 1_455 S
C1611 C1608 1.403 . S
C1611 C1612 1.524 . S
C1611 C1615 1.400 1_455 S
C1612 H1597 0.960 . S
C1612 H1598 0.960 . S
C1612 H1599 0.960 . S
C1612 C1611 1.524 . S
C1613 C1610 1.403 1_655 S
C1613 C1614 1.392 . S
C1613 C1617 1.495 . S
C1614 C1613 1.392 . S
C1614 C1615 1.385 . S
C1614 C1616 1.478 . S
C1615 H1609 0.930 . S
C1615 C1611 1.400 1_655 S
C1615 C1614 1.385 . S
C1616 C1614 1.478 . S
C1616 C1618 1.381 . S
C1616 C1622 1.383 . S
C1617 C1613 1.495 . S
C1617 H1623 0.959 . S
C1617 H1624 0.961 . S
C1617 H1625 0.960 . S
C1618 C1616 1.381 . S
C1618 C1619 1.394 . S
C1618 H1626 0.930 . S
C1619 C1618 1.394 . S
C1619 C1620 1.383 . S
C1619 H1627 0.929 . S
C1620 C1619 1.383 . S
C1620 C1621 1.377 . S
C1621 H1605 0.930 . S
C1621 C1620 1.377 . S
C1621 C1622 1.379 . S
C1622 H1606 0.931 . S
C1622 C1616 1.383 . S
C1622 C1621 1.379 . S
H1623 C1617 0.959 . S
H1624 C1617 0.961 . S
H1625 C1617 0.960 . S
H1626 C1618 0.930 . S
H1627 C1619 0.929 . S
H1628 C1636 0.929 . S
H1629 C1638 0.930 . S
H1630 C1640 0.930 . S
H1631 C1643 0.929 . S
H1632 C1646 0.930 . S
H1633 C1648 0.960 . S
H1634 C1648 0.960 . S
H1635 C1648 0.960 . S
C1636 H1628 0.929 . S
C1636 C1637 1.377 . S
C1636 C1638 1.384 . S
C1637 C1636 1.377 . S
C1637 C1643 1.390 . S
C1638 H1629 0.930 . S
C1638 C1636 1.384 . S
C1638 C1639 1.372 . S
C1639 C1638 1.372 . S
C1639 C1640 1.400 . S
C1639 C1644 1.490 . S
C1640 H1630 0.930 . S
C1640 C1639 1.400 . S
C1640 C1643 1.386 . S
H1641 C1657 0.930 . S
H1642 C1658 0.931 . S
C1643 H1631 0.929 . S
C1643 C1637 1.390 . S
C1643 C1640 1.386 . S
C1644 C1639 1.490 . S
C1644 C1646 1.395 . S
C1644 C1647 1.403 1_455 S
H1645 C1651 0.930 . S
C1646 H1632 0.930 . S
C1646 C1644 1.395 . S
C1646 C1649 1.403 . S
C1647 C1644 1.403 1_655 S
C1647 C1648 1.524 . S
C1647 C1651 1.400 . S
C1648 H1633 0.960 . S
C1648 H1634 0.960 . S
C1648 H1635 0.960 . S
C1648 C1647 1.524 . S
C1649 C1646 1.403 . S
C1649 C1650 1.392 1_455 S
C1649 C1653 1.495 . S
C1650 C1649 1.392 1_655 S
C1650 C1651 1.385 . S
C1650 C1652 1.478 . S
C1651 H1645 0.930 . S
C1651 C1647 1.400 . S
C1651 C1650 1.385 . S
C1652 C1650 1.478 . S
C1652 C1654 1.381 . S
C1652 C1658 1.383 . S
C1653 C1649 1.495 . S
C1653 H1659 0.959 . S
C1653 H1660 0.961 . S
C1653 H1661 0.960 . S
C1654 C1652 1.381 . S
C1654 C1655 1.394 . S
C1654 H1662 0.930 . S
C1655 C1654 1.394 . S
C1655 C1656 1.383 . S
C1655 H1663 0.929 . S
C1656 C1655 1.383 . S
C1656 C1657 1.377 . S
C1657 H1641 0.930 . S
C1657 C1656 1.377 . S
C1657 C1658 1.379 . S
C1658 H1642 0.931 . S
C1658 C1652 1.383 . S
C1658 C1657 1.379 . S
H1659 C1653 0.959 . S
H1660 C1653 0.961 . S
H1661 C1653 0.960 . S
H1662 C1654 0.930 . S
H1663 C1655 0.929 . S
H1664 C1672 0.929 . S
H1665 C1674 0.930 . S
H1666 C1676 0.930 . S
H1667 C1679 0.929 . S
H1668 C1682 0.930 . S
H1669 C1684 0.960 . S
H1670 C1684 0.960 . S
H1671 C1684 0.960 . S
C1672 H1664 0.929 . S
C1672 C1673 1.377 . S
C1672 C1674 1.384 . S
C1673 C1672 1.377 . S
C1673 C1679 1.390 . S
C1674 H1665 0.930 . S
C1674 C1672 1.384 . S
C1674 C1675 1.372 . S
C1675 C1674 1.372 . S
C1675 C1676 1.400 . S
C1675 C1680 1.490 . S
C1676 H1666 0.930 . S
C1676 C1675 1.400 . S
C1676 C1679 1.386 . S
H1677 C1693 0.930 . S
H1678 C1694 0.931 . S
C1679 H1667 0.929 . S
C1679 C1673 1.390 . S
C1679 C1676 1.386 . S
C1680 C1675 1.490 . S
C1680 C1682 1.395 . S
C1680 C1683 1.403 . S
H1681 C1687 0.930 . S
C1682 H1668 0.930 . S
C1682 C1680 1.395 . S
C1682 C1685 1.403 . S
C1683 C1680 1.403 . S
C1683 C1684 1.524 . S
C1683 C1687 1.400 . S
C1684 H1669 0.960 . S
C1684 H1670 0.960 . S
C1684 H1671 0.960 . S
C1684 C1683 1.524 . S
C1685 C1682 1.403 . S
C1685 C1686 1.392 . S
C1685 C1689 1.495 . S
C1686 C1685 1.392 . S
C1686 C1687 1.385 . S
C1686 C1688 1.478 . S
C1687 H1681 0.930 . S
C1687 C1683 1.400 . S
C1687 C1686 1.385 . S
C1688 C1686 1.478 . S
C1688 C1690 1.381 . S
C1688 C1694 1.383 . S
C1689 C1685 1.495 . S
C1689 H1695 0.959 . S
C1689 H1696 0.961 . S
C1689 H1697 0.960 . S
C1690 C1688 1.381 . S
C1690 C1691 1.394 . S
C1690 H1698 0.930 . S
C1691 C1690 1.394 . S
C1691 C1692 1.383 . S
C1691 H1699 0.929 . S
C1692 C1691 1.383 . S
C1692 C1693 1.377 . S
C1693 H1677 0.930 . S
C1693 C1692 1.377 . S
C1693 C1694 1.379 . S
C1694 H1678 0.931 . S
C1694 C1688 1.383 . S
C1694 C1693 1.379 . S
H1695 C1689 0.959 . S
H1696 C1689 0.961 . S
H1697 C1689 0.960 . S
H1698 C1690 0.930 . S
H1699 C1691 0.929 . S
H1700 C1708 0.929 . S
H1701 C1710 0.930 . S
H1702 C1712 0.930 . S
H1703 C1715 0.929 . S
H1704 C1718 0.930 . S
H1705 C1720 0.960 . S
H1706 C1720 0.960 . S
H1707 C1720 0.960 . S
C1708 H1700 0.929 . S
C1708 C1709 1.377 . S
C1708 C1710 1.384 . S
C1709 C1708 1.377 . S
C1709 C1715 1.390 . S
C1710 H1701 0.930 . S
C1710 C1708 1.384 . S
C1710 C1711 1.372 . S
C1711 C1710 1.372 . S
C1711 C1712 1.400 . S
C1711 C1716 1.490 . S
C1712 H1702 0.930 . S
C1712 C1711 1.400 . S
C1712 C1715 1.386 . S
H1713 C1729 0.930 . S
H1714 C1730 0.931 . S
C1715 H1703 0.929 . S
C1715 C1709 1.390 . S
C1715 C1712 1.386 . S
C1716 C1711 1.490 . S
C1716 C1718 1.395 . S
C1716 C1719 1.403 . S
H1717 C1723 0.930 . S
C1718 H1704 0.930 . S
C1718 C1716 1.395 . S
C1718 C1721 1.403 . S
C1719 C1716 1.403 . S
C1719 C1720 1.524 . S
C1719 C1723 1.400 . S
C1720 H1705 0.960 . S
C1720 H1706 0.960 . S
C1720 H1707 0.960 . S
C1720 C1719 1.524 . S
C1721 C1718 1.403 . S
C1721 C1722 1.392 . S
C1721 C1725 1.495 . S
C1722 C1721 1.392 . S
C1722 C1723 1.385 . S
C1722 C1724 1.478 . S
C1723 H1717 0.930 . S
C1723 C1719 1.400 . S
C1723 C1722 1.385 . S
C1724 C1722 1.478 . S
C1724 C1726 1.381 . S
C1724 C1730 1.383 . S
C1725 C1721 1.495 . S
C1725 H1731 0.959 . S
C1725 H1732 0.961 . S
C1725 H1733 0.960 . S
C1726 C1724 1.381 . S
C1726 C1727 1.394 . S
C1726 H1734 0.930 . S
C1727 C1726 1.394 . S
C1727 C1728 1.383 . S
C1727 H1735 0.929 . S
C1728 C1727 1.383 . S
C1728 C1729 1.377 . S
C1729 H1713 0.930 . S
C1729 C1728 1.377 . S
C1729 C1730 1.379 . S
C1730 H1714 0.931 . S
C1730 C1724 1.383 . S
C1730 C1729 1.379 . S
H1731 C1725 0.959 . S
H1732 C1725 0.961 . S
H1733 C1725 0.960 . S
H1734 C1726 0.930 . S
H1735 C1727 0.929 . S
H1736 C1744 0.929 . S
H1737 C1746 0.930 . S
H1738 C1748 0.930 . S
H1739 C1751 0.929 . S
H1740 C1754 0.930 . S
H1741 C1756 0.960 . S
H1742 C1756 0.960 . S
H1743 C1756 0.960 . S
C1744 H1736 0.929 . S
C1744 C1745 1.377 . S
C1744 C1746 1.384 . S
C1745 C1744 1.377 . S
C1745 C1751 1.390 . S
C1746 H1737 0.930 . S
C1746 C1744 1.384 . S
C1746 C1747 1.372 . S
C1747 C1746 1.372 . S
C1747 C1748 1.400 . S
C1747 C1752 1.490 . S
C1748 H1738 0.930 . S
C1748 C1747 1.400 . S
C1748 C1751 1.386 . S
H1749 C1765 0.930 . S
H1750 C1766 0.931 . S
C1751 H1739 0.929 . S
C1751 C1745 1.390 . S
C1751 C1748 1.386 . S
C1752 C1747 1.490 . S
C1752 C1754 1.395 . S
C1752 C1755 1.403 . S
H1753 C1759 0.930 . S
C1754 H1740 0.930 . S
C1754 C1752 1.395 . S
C1754 C1757 1.403 . S
C1755 C1752 1.403 . S
C1755 C1756 1.524 . S
C1755 C1759 1.400 . S
C1756 H1741 0.960 . S
C1756 H1742 0.960 . S
C1756 H1743 0.960 . S
C1756 C1755 1.524 . S
C1757 C1754 1.403 . S
C1757 C1758 1.392 . S
C1757 C1761 1.495 . S
C1758 C1757 1.392 . S
C1758 C1759 1.385 . S
C1758 C1760 1.478 . S
C1759 H1753 0.930 . S
C1759 C1755 1.400 . S
C1759 C1758 1.385 . S
C1760 C1758 1.478 . S
C1760 C1762 1.381 1_455 S
C1760 C1766 1.383 . S
C1761 C1757 1.495 . S
C1761 H1767 0.959 . S
C1761 H1768 0.961 . S
C1761 H1769 0.960 1_455 S
C1762 C1760 1.381 1_655 S
C1762 C1763 1.394 . S
C1762 H1770 0.930 . S
C1763 C1762 1.394 . S
C1763 C1764 1.383 . S
C1763 H1771 0.929 . S
C1764 C1763 1.383 . S
C1764 C1765 1.377 . S
C1765 H1749 0.930 . S
C1765 C1764 1.377 . S
C1765 C1766 1.379 1_655 S
C1766 H1750 0.931 . S
C1766 C1760 1.383 . S
C1766 C1765 1.379 1_455 S
H1767 C1761 0.959 . S
H1768 C1761 0.961 . S
H1769 C1761 0.960 1_655 S
H1770 C1762 0.930 . S
H1771 C1763 0.929 . S
H1772 C1780 0.929 . S
H1773 C1782 0.930 . S
H1774 C1784 0.930 . S
H1775 C1787 0.929 . S
H1776 C1790 0.930 . S
H1777 C1792 0.960 . S
H1778 C1792 0.960 . S
H1779 C1792 0.960 . S
C1780 H1772 0.929 . S
C1780 C1781 1.377 . S
C1780 C1782 1.384 . S
C1781 C1780 1.377 . S
C1781 C1787 1.390 . S
C1782 H1773 0.930 . S
C1782 C1780 1.384 . S
C1782 C1783 1.372 . S
C1783 C1782 1.372 . S
C1783 C1784 1.400 . S
C1783 C1788 1.490 . S
C1784 H1774 0.930 . S
C1784 C1783 1.400 . S
C1784 C1787 1.386 . S
H1785 C1801 0.930 . S
H1786 C1802 0.931 . S
C1787 H1775 0.929 . S
C1787 C1781 1.390 . S
C1787 C1784 1.386 . S
C1788 C1783 1.490 . S
C1788 C1790 1.395 . S
C1788 C1791 1.403 . S
H1789 C1795 0.930 . S
C1790 H1776 0.930 . S
C1790 C1788 1.395 . S
C1790 C1793 1.403 . S
C1791 C1788 1.403 . S
C1791 C1792 1.524 . S
C1791 C1795 1.400 . S
C1792 H1777 0.960 . S
C1792 H1778 0.960 . S
C1792 H1779 0.960 . S
C1792 C1791 1.524 . S
C1793 C1790 1.403 . S
C1793 C1794 1.392 . S
C1793 C1797 1.495 . S
C1794 C1793 1.392 . S
C1794 C1795 1.385 . S
C1794 C1796 1.478 . S
C1795 H1789 0.930 . S
C1795 C1791 1.400 . S
C1795 C1794 1.385 . S
C1796 C1794 1.478 . S
C1796 C1798 1.381 . S
C1796 C1802 1.383 . S
C1797 C1793 1.495 . S
C1797 H1803 0.959 . S
C1797 H1804 0.961 . S
C1797 H1805 0.960 . S
C1798 C1796 1.381 . S
C1798 C1799 1.394 . S
C1798 H1806 0.930 . S
C1799 C1798 1.394 . S
C1799 C1800 1.383 . S
C1799 H1807 0.929 . S
C1800 C1799 1.383 . S
C1800 C1801 1.377 . S
C1801 H1785 0.930 . S
C1801 C1800 1.377 . S
C1801 C1802 1.379 . S
C1802 H1786 0.931 . S
C1802 C1796 1.383 . S
C1802 C1801 1.379 . S
H1803 C1797 0.959 . S
H1804 C1797 0.961 . S
H1805 C1797 0.960 . S
H1806 C1798 0.930 . S
H1807 C1799 0.929 . S
H1808 C1816 0.929 . S
H1809 C1818 0.930 . S
H1810 C1820 0.930 . S
H1811 C1823 0.929 . S
H1812 C1826 0.930 . S
H1813 C1828 0.960 . S
H1814 C1828 0.960 . S
H1815 C1828 0.960 . S
C1816 H1808 0.929 . S
C1816 C1817 1.377 . S
C1816 C1818 1.384 . S
C1817 C1816 1.377 . S
C1817 C1823 1.390 . S
C1818 H1809 0.930 . S
C1818 C1816 1.384 . S
C1818 C1819 1.372 . S
C1819 C1818 1.372 . S
C1819 C1820 1.400 . S
C1819 C1824 1.490 . S
C1820 H1810 0.930 . S
C1820 C1819 1.400 . S
C1820 C1823 1.386 . S
H1821 C1837 0.930 . S
H1822 C1838 0.931 . S
C1823 H1811 0.929 . S
C1823 C1817 1.390 . S
C1823 C1820 1.386 . S
C1824 C1819 1.490 . S
C1824 C1826 1.395 . S
C1824 C1827 1.403 . S
H1825 C1831 0.930 . S
C1826 H1812 0.930 . S
C1826 C1824 1.395 . S
C1826 C1829 1.403 . S
C1827 C1824 1.403 . S
C1827 C1828 1.524 . S
C1827 C1831 1.400 . S
C1828 H1813 0.960 . S
C1828 H1814 0.960 . S
C1828 H1815 0.960 . S
C1828 C1827 1.524 . S
C1829 C1826 1.403 . S
C1829 C1830 1.392 . S
C1829 C1833 1.495 . S
C1830 C1829 1.392 . S
C1830 C1831 1.385 . S
C1830 C1832 1.478 . S
C1831 H1825 0.930 . S
C1831 C1827 1.400 . S
C1831 C1830 1.385 . S
C1832 C1830 1.478 . S
C1832 C1834 1.381 . S
C1832 C1838 1.383 . S
C1833 C1829 1.495 . S
C1833 H1839 0.959 . S
C1833 H1840 0.961 . S
C1833 H1841 0.960 . S
C1834 C1832 1.381 . S
C1834 C1835 1.394 . S
C1834 H1842 0.930 . S
C1835 C1834 1.394 . S
C1835 C1836 1.383 . S
C1835 H1843 0.929 . S
C1836 C1835 1.383 . S
C1836 C1837 1.377 . S
C1837 H1821 0.930 . S
C1837 C1836 1.377 . S
C1837 C1838 1.379 . S
C1838 H1822 0.931 . S
C1838 C1832 1.383 . S
C1838 C1837 1.379 . S
H1839 C1833 0.959 . S
H1840 C1833 0.961 . S
H1841 C1833 0.960 . S
H1842 C1834 0.930 . S
H1843 C1835 0.929 . S
H1844 C1852 0.929 . S
H1845 C1854 0.930 . S
H1846 C1856 0.930 . S
H1847 C1859 0.929 . S
H1848 C1862 0.930 . S
H1849 C1864 0.960 . S
H1850 C1864 0.960 . S
H1851 C1864 0.960 . S
C1852 H1844 0.929 . S
C1852 C1853 1.377 . S
C1852 C1854 1.384 . S
C1853 C1852 1.377 . S
C1853 C1859 1.390 . S
C1854 H1845 0.930 . S
C1854 C1852 1.384 . S
C1854 C1855 1.372 . S
C1855 C1854 1.372 . S
C1855 C1856 1.400 . S
C1855 C1860 1.490 . S
C1856 H1846 0.930 . S
C1856 C1855 1.400 . S
C1856 C1859 1.386 . S
H1857 C1873 0.930 . S
H1858 C1874 0.931 . S
C1859 H1847 0.929 . S
C1859 C1853 1.390 . S
C1859 C1856 1.386 . S
C1860 C1855 1.490 . S
C1860 C1862 1.395 . S
C1860 C1863 1.403 . S
H1861 C1867 0.930 . S
C1862 H1848 0.930 . S
C1862 C1860 1.395 . S
C1862 C1865 1.403 . S
C1863 C1860 1.403 . S
C1863 C1864 1.524 . S
C1863 C1867 1.400 . S
C1864 H1849 0.960 . S
C1864 H1850 0.960 . S
C1864 H1851 0.960 . S
C1864 C1863 1.524 . S
C1865 C1862 1.403 . S
C1865 C1866 1.392 . S
C1865 C1869 1.495 . S
C1866 C1865 1.392 . S
C1866 C1867 1.385 . S
C1866 C1868 1.478 . S
C1867 H1861 0.930 . S
C1867 C1863 1.400 . S
C1867 C1866 1.385 . S
C1868 C1866 1.478 . S
C1868 C1870 1.381 . S
C1868 C1874 1.383 . S
C1869 C1865 1.495 . S
C1869 H1875 0.959 . S
C1869 H1876 0.961 . S
C1869 H1877 0.960 . S
C1870 C1868 1.381 . S
C1870 C1871 1.394 . S
C1870 H1878 0.930 . S
C1871 C1870 1.394 . S
C1871 C1872 1.383 . S
C1871 H1879 0.929 . S
C1872 C1871 1.383 . S
C1872 C1873 1.377 . S
C1873 H1857 0.930 . S
C1873 C1872 1.377 . S
C1873 C1874 1.379 . S
C1874 H1858 0.931 . S
C1874 C1868 1.383 . S
C1874 C1873 1.379 . S
H1875 C1869 0.959 . S
H1876 C1869 0.961 . S
H1877 C1869 0.960 . S
H1878 C1870 0.930 . S
H1879 C1871 0.929 . S
H1880 C1888 0.929 . S
H1881 C1890 0.930 . S
H1882 C1892 0.930 1_455 S
H1883 C1895 0.929 . S
H1884 C1898 0.930 . S
H1885 C1900 0.960 . S
H1886 C1900 0.960 1_655 S
H1887 C1900 0.961 1_655 S
C1888 H1880 0.929 . S
C1888 C1889 1.377 . S
C1888 C1890 1.384 . S
C1889 C1888 1.377 . S
C1889 C1895 1.390 . S
C1890 H1881 0.930 . S
C1890 C1888 1.384 . S
C1890 C1891 1.372 1_655 S
C1891 C1890 1.372 1_455 S
C1891 C1892 1.400 1_455 S
C1891 C1896 1.490 . S
C1892 H1882 0.930 1_655 S
C1892 C1891 1.400 1_655 S
C1892 C1895 1.386 . S
H1893 C1909 0.930 . S
H1894 C1910 0.931 . S
C1895 H1883 0.929 . S
C1895 C1889 1.390 . S
C1895 C1892 1.386 . S
C1896 C1891 1.490 . S
C1896 C1898 1.395 . S
C1896 C1899 1.403 . S
H1897 C1903 0.930 . S
C1898 H1884 0.930 . S
C1898 C1896 1.395 . S
C1898 C1901 1.403 . S
C1899 C1896 1.403 . S
C1899 C1900 1.524 . S
C1899 C1903 1.400 . S
C1900 H1885 0.960 . S
C1900 H1886 0.960 1_455 S
C1900 H1887 0.961 1_455 S
C1900 C1899 1.524 . S
C1901 C1898 1.403 . S
C1901 C1902 1.392 . S
C1901 C1905 1.495 . S
C1902 C1901 1.392 . S
C1902 C1903 1.385 . S
C1902 C1904 1.478 . S
C1903 H1897 0.930 . S
C1903 C1899 1.400 . S
C1903 C1902 1.385 . S
C1904 C1902 1.478 . S
C1904 C1906 1.381 . S
C1904 C1910 1.383 . S
C1905 C1901 1.495 . S
C1905 H1911 0.959 . S
C1905 H1912 0.961 . S
C1905 H1913 0.960 . S
C1906 C1904 1.381 . S
C1906 C1907 1.394 . S
C1906 H1914 0.930 . S
C1907 C1906 1.394 . S
C1907 C1908 1.383 . S
C1907 H1915 0.929 . S
C1908 C1907 1.383 . S
C1908 C1909 1.377 . S
C1909 H1893 0.930 . S
C1909 C1908 1.377 . S
C1909 C1910 1.379 . S
C1910 H1894 0.931 . S
C1910 C1904 1.383 . S
C1910 C1909 1.379 . S
H1911 C1905 0.959 . S
H1912 C1905 0.961 . S
H1913 C1905 0.960 . S
H1914 C1906 0.930 . S
H1915 C1907 0.929 . S
H1916 C1924 0.929 . S
H1917 C1926 0.930 . S
H1918 C1928 0.930 . S
H1919 C1931 0.929 . S
H1920 C1934 0.930 . S
H1921 C1936 0.960 . S
H1922 C1936 0.960 . S
H1923 C1936 0.960 . S
C1924 H1916 0.929 . S
C1924 C1925 1.377 . S
C1924 C1926 1.384 . S
C1925 C1924 1.377 . S
C1925 C1931 1.390 . S
C1926 H1917 0.930 . S
C1926 C1924 1.384 . S
C1926 C1927 1.372 . S
C1927 C1926 1.372 . S
C1927 C1928 1.400 . S
C1927 C1932 1.490 . S
C1928 H1918 0.930 . S
C1928 C1927 1.400 . S
C1928 C1931 1.386 . S
H1929 C1945 0.930 . S
H1930 C1946 0.931 . S
C1931 H1919 0.929 . S
C1931 C1925 1.390 . S
C1931 C1928 1.386 . S
C1932 C1927 1.490 . S
C1932 C1934 1.395 . S
C1932 C1935 1.403 . S
H1933 C1939 0.930 . S
C1934 H1920 0.930 . S
C1934 C1932 1.395 . S
C1934 C1937 1.403 . S
C1935 C1932 1.403 . S
C1935 C1936 1.524 . S
C1935 C1939 1.400 . S
C1936 H1921 0.960 . S
C1936 H1922 0.960 . S
C1936 H1923 0.960 . S
C1936 C1935 1.524 . S
C1937 C1934 1.403 . S
C1937 C1938 1.392 . S
C1937 C1941 1.495 . S
C1938 C1937 1.392 . S
C1938 C1939 1.385 . S
C1938 C1940 1.478 . S
C1939 H1933 0.930 . S
C1939 C1935 1.400 . S
C1939 C1938 1.385 . S
C1940 C1938 1.478 . S
C1940 C1942 1.381 . S
C1940 C1946 1.383 . S
C1941 C1937 1.495 . S
C1941 H1947 0.959 . S
C1941 H1948 0.961 . S
C1941 H1949 0.960 . S
C1942 C1940 1.381 . S
C1942 C1943 1.394 . S
C1942 H1950 0.930 . S
C1943 C1942 1.394 . S
C1943 C1944 1.383 . S
C1943 H1951 0.929 . S
C1944 C1943 1.383 . S
C1944 C1945 1.377 . S
C1945 H1929 0.930 . S
C1945 C1944 1.377 . S
C1945 C1946 1.379 . S
C1946 H1930 0.931 . S
C1946 C1940 1.383 . S
C1946 C1945 1.379 . S
H1947 C1941 0.959 . S
H1948 C1941 0.961 . S
H1949 C1941 0.960 . S
H1950 C1942 0.930 . S
H1951 C1943 0.929 . S
H1952 C1960 0.929 . S
H1953 C1962 0.930 . S
H1954 C1964 0.930 . S
H1955 C1967 0.929 . S
H1956 C1970 0.930 . S
H1957 C1972 0.960 . S
H1958 C1972 0.960 . S
H1959 C1972 0.960 . S
C1960 H1952 0.929 . S
C1960 C1961 1.377 . S
C1960 C1962 1.384 . S
C1961 C1960 1.377 . S
C1961 C1967 1.390 . S
C1962 H1953 0.930 . S
C1962 C1960 1.384 . S
C1962 C1963 1.372 . S
C1963 C1962 1.372 . S
C1963 C1964 1.400 . S
C1963 C1968 1.490 . S
C1964 H1954 0.930 . S
C1964 C1963 1.400 . S
C1964 C1967 1.386 . S
H1965 C1981 0.930 . S
H1966 C1982 0.931 . S
C1967 H1955 0.929 . S
C1967 C1961 1.390 . S
C1967 C1964 1.386 . S
C1968 C1963 1.490 . S
C1968 C1970 1.395 . S
C1968 C1971 1.403 . S
H1969 C1975 0.930 . S
C1970 H1956 0.930 . S
C1970 C1968 1.395 . S
C1970 C1973 1.403 . S
C1971 C1968 1.403 . S
C1971 C1972 1.524 . S
C1971 C1975 1.400 . S
C1972 H1957 0.960 . S
C1972 H1958 0.960 . S
C1972 H1959 0.960 . S
C1972 C1971 1.524 . S
C1973 C1970 1.403 . S
C1973 C1974 1.392 . S
C1973 C1977 1.495 . S
C1974 C1973 1.392 . S
C1974 C1975 1.385 . S
C1974 C1976 1.478 . S
C1975 H1969 0.930 . S
C1975 C1971 1.400 . S
C1975 C1974 1.385 . S
C1976 C1974 1.478 . S
C1976 C1978 1.381 . S
C1976 C1982 1.383 . S
C1977 C1973 1.495 . S
C1977 H1983 0.959 . S
C1977 H1984 0.961 . S
C1977 H1985 0.960 . S
C1978 C1976 1.381 . S
C1978 C1979 1.394 . S
C1978 H1986 0.930 . S
C1979 C1978 1.394 . S
C1979 C1980 1.383 . S
C1979 H1987 0.929 . S
C1980 C1979 1.383 . S
C1980 C1981 1.377 . S
C1981 H1965 0.930 . S
C1981 C1980 1.377 . S
C1981 C1982 1.379 . S
C1982 H1966 0.931 . S
C1982 C1976 1.383 . S
C1982 C1981 1.379 . S
H1983 C1977 0.959 . S
H1984 C1977 0.961 . S
H1985 C1977 0.960 . S
H1986 C1978 0.930 . S
H1987 C1979 0.929 . S
H1988 C1996 0.929 . S
H1989 C1998 0.930 . S
H1990 C2000 0.930 . S
H1991 C2003 0.929 . S
H1992 C2006 0.930 . S
H1993 C2008 0.960 . S
H1994 C2008 0.960 . S
H1995 C2008 0.960 . S
C1996 H1988 0.929 . S
C1996 C1997 1.377 . S
C1996 C1998 1.384 . S
C1997 C1996 1.377 . S
C1997 C2003 1.390 . S
C1998 H1989 0.930 . S
C1998 C1996 1.384 . S
C1998 C1999 1.372 . S
C1999 C1998 1.372 . S
C1999 C2000 1.400 . S
C1999 C2004 1.490 . S
C2000 H1990 0.930 . S
C2000 C1999 1.400 . S
C2000 C2003 1.386 . S
H2001 C2017 0.930 . S
H2002 C2018 0.931 . S
C2003 H1991 0.929 . S
C2003 C1997 1.390 . S
C2003 C2000 1.386 . S
C2004 C1999 1.490 . S
C2004 C2006 1.395 . S
C2004 C2007 1.403 . S
H2005 C2011 0.930 . S
C2006 H1992 0.930 . S
C2006 C2004 1.395 . S
C2006 C2009 1.403 . S
C2007 C2004 1.403 . S
C2007 C2008 1.524 . S
C2007 C2011 1.400 . S
C2008 H1993 0.960 . S
C2008 H1994 0.960 . S
C2008 H1995 0.960 . S
C2008 C2007 1.524 . S
C2009 C2006 1.403 . S
C2009 C2010 1.392 . S
C2009 C2013 1.495 . S
C2010 C2009 1.392 . S
C2010 C2011 1.385 . S
C2010 C2012 1.478 . S
C2011 H2005 0.930 . S
C2011 C2007 1.400 . S
C2011 C2010 1.385 . S
C2012 C2010 1.478 . S
C2012 C2014 1.381 . S
C2012 C2018 1.383 . S
C2013 C2009 1.495 . S
C2013 H2019 0.959 . S
C2013 H2020 0.961 . S
C2013 H2021 0.960 . S
C2014 C2012 1.381 . S
C2014 C2015 1.394 . S
C2014 H2022 0.930 . S
C2015 C2014 1.394 . S
C2015 C2016 1.383 . S
C2015 H2023 0.929 . S
C2016 C2015 1.383 . S
C2016 C2017 1.377 . S
C2017 H2001 0.930 . S
C2017 C2016 1.377 . S
C2017 C2018 1.379 . S
C2018 H2002 0.931 . S
C2018 C2012 1.383 . S
C2018 C2017 1.379 . S
H2019 C2013 0.959 . S
H2020 C2013 0.961 . S
H2021 C2013 0.960 . S
H2022 C2014 0.930 . S
H2023 C2015 0.929 . S
H2024 C2032 0.929 . S
H2025 C2034 0.930 . S
H2026 C2036 0.930 . S
H2027 C2039 0.929 . S
H2028 C2042 0.930 . S
H2029 C2044 0.960 . S
H2030 C2044 0.960 . S
H2031 C2044 0.960 . S
C2032 H2024 0.929 . S
C2032 C2033 1.377 . S
C2032 C2034 1.384 . S
C2033 C2032 1.377 . S
C2033 C2039 1.390 . S
C2034 H2025 0.930 . S
C2034 C2032 1.384 . S
C2034 C2035 1.372 . S
C2035 C2034 1.372 . S
C2035 C2036 1.400 . S
C2035 C2040 1.490 . S
C2036 H2026 0.930 . S
C2036 C2035 1.400 . S
C2036 C2039 1.386 . S
H2037 C2053 0.930 . S
H2038 C2054 0.931 . S
C2039 H2027 0.929 . S
C2039 C2033 1.390 . S
C2039 C2036 1.386 . S
C2040 C2035 1.490 . S
C2040 C2042 1.395 . S
C2040 C2043 1.403 . S
H2041 C2047 0.930 . S
C2042 H2028 0.930 . S
C2042 C2040 1.395 . S
C2042 C2045 1.403 . S
C2043 C2040 1.403 . S
C2043 C2044 1.524 . S
C2043 C2047 1.400 . S
C2044 H2029 0.960 . S
C2044 H2030 0.960 . S
C2044 H2031 0.960 . S
C2044 C2043 1.524 . S
C2045 C2042 1.403 . S
C2045 C2046 1.392 . S
C2045 C2049 1.530 . S
C2046 C2045 1.392 . S
C2046 C2047 1.385 . S
C2046 C2048 1.478 . S
C2047 H2041 0.930 . S
C2047 C2043 1.400 . S
C2047 C2046 1.385 . S
C2048 C2046 1.478 . S
C2048 C2050 1.381 1_655 S
C2048 C2054 1.383 1_655 S
C2049 C2045 1.530 . S
C2049 H2055 0.968 . S
C2049 H2056 0.928 1_655 S
C2049 H2057 0.951 1_655 S
C2050 C2048 1.381 1_455 S
C2050 C2051 1.394 . S
C2050 H2058 0.930 1_455 S
C2051 C2050 1.394 . S
C2051 C2052 1.383 . S
C2051 H2059 0.929 . S
C2052 C2051 1.383 . S
C2052 C2053 1.377 . S
C2053 H2037 0.930 . S
C2053 C2052 1.377 . S
C2053 C2054 1.379 . S
C2054 H2038 0.931 . S
C2054 C2048 1.383 1_455 S
C2054 C2053 1.379 . S
H2055 C2049 0.968 . S
H2056 C2049 0.928 1_455 S
H2057 C2049 0.951 1_455 S
H2058 C2050 0.930 1_655 S
H2059 C2051 0.929 . S
H2060 C2068 0.929 . S
H2061 C2070 0.930 . S
H2062 C2072 0.930 . S
H2063 C2075 0.929 . S
H2064 C2078 0.930 . S
H2065 C2080 0.960 . S
H2066 C2080 0.960 . S
H2067 C2080 0.960 . S
C2068 H2060 0.929 . S
C2068 C2069 1.377 . S
C2068 C2070 1.384 . S
C2069 C2068 1.377 . S
C2069 C2075 1.390 . S
C2070 H2061 0.930 . S
C2070 C2068 1.384 . S
C2070 C2071 1.372 . S
C2071 C2070 1.372 . S
C2071 C2072 1.400 . S
C2071 C2076 1.490 . S
C2072 H2062 0.930 . S
C2072 C2071 1.400 . S
C2072 C2075 1.386 . S
H2073 C2089 0.930 . S
H2074 C2090 0.931 . S
C2075 H2063 0.929 . S
C2075 C2069 1.390 . S
C2075 C2072 1.386 . S
C2076 C2071 1.490 . S
C2076 C2078 1.395 . S
C2076 C2079 1.403 . S
H2077 C2083 0.930 . S
C2078 H2064 0.930 . S
C2078 C2076 1.395 . S
C2078 C2081 1.403 . S
C2079 C2076 1.403 . S
C2079 C2080 1.524 . S
C2079 C2083 1.400 . S
C2080 H2065 0.960 . S
C2080 H2066 0.960 . S
C2080 H2067 0.960 . S
C2080 C2079 1.524 . S
C2081 C2078 1.403 . S
C2081 C2082 1.392 . S
C2081 C2085 1.495 . S
C2082 C2081 1.392 . S
C2082 C2083 1.385 . S
C2082 C2084 1.478 . S
C2083 H2077 0.930 . S
C2083 C2079 1.400 . S
C2083 C2082 1.385 . S
C2084 C2082 1.478 . S
C2084 C2086 1.381 . S
C2084 C2090 1.383 . S
C2085 C2081 1.495 . S
C2085 H2091 0.959 . S
C2085 H2092 0.961 . S
C2085 H2093 0.960 . S
C2086 C2084 1.381 . S
C2086 C2087 1.394 . S
C2086 H2094 0.930 . S
C2087 C2086 1.394 . S
C2087 C2088 1.383 . S
C2087 H2095 0.929 . S
C2088 C2087 1.383 . S
C2088 C2089 1.377 . S
C2089 H2073 0.930 . S
C2089 C2088 1.377 . S
C2089 C2090 1.379 . S
C2090 H2074 0.931 . S
C2090 C2084 1.383 . S
C2090 C2089 1.379 . S
H2091 C2085 0.959 . S
H2092 C2085 0.961 . S
H2093 C2085 0.960 . S
H2094 C2086 0.930 . S
H2095 C2087 0.929 . S
H2096 C2104 0.929 . S
H2097 C2106 0.930 . S
H2098 C2108 0.930 . S
H2099 C2111 0.929 . S
H2100 C2114 0.930 . S
H2101 C2116 0.960 . S
H2102 C2116 0.960 . S
H2103 C2116 0.960 . S
C2104 H2096 0.929 . S
C2104 C2105 1.377 . S
C2104 C2106 1.384 . S
C2105 C2104 1.377 . S
C2105 C2111 1.390 . S
C2106 H2097 0.930 . S
C2106 C2104 1.384 . S
C2106 C2107 1.372 . S
C2107 C2106 1.372 . S
C2107 C2108 1.400 . S
C2107 C2112 1.490 . S
C2108 H2098 0.930 . S
C2108 C2107 1.400 . S
C2108 C2111 1.386 . S
H2109 C2125 0.930 . S
H2110 C2126 0.931 . S
C2111 H2099 0.929 . S
C2111 C2105 1.390 . S
C2111 C2108 1.386 . S
C2112 C2107 1.490 . S
C2112 C2114 1.395 . S
C2112 C2115 1.403 . S
H2113 C2119 0.930 . S
C2114 H2100 0.930 . S
C2114 C2112 1.395 . S
C2114 C2117 1.403 . S
C2115 C2112 1.403 . S
C2115 C2116 1.524 . S
C2115 C2119 1.400 . S
C2116 H2101 0.960 . S
C2116 H2102 0.960 . S
C2116 H2103 0.960 . S
C2116 C2115 1.524 . S
C2117 C2114 1.403 . S
C2117 C2118 1.392 . S
C2117 C2121 1.495 . S
C2118 C2117 1.392 . S
C2118 C2119 1.385 . S
C2118 C2120 1.478 . S
C2119 H2113 0.930 . S
C2119 C2115 1.400 . S
C2119 C2118 1.385 . S
C2120 C2118 1.478 . S
C2120 C2122 1.381 . S
C2120 C2126 1.383 . S
C2121 C2117 1.495 . S
C2121 H2127 0.959 . S
C2121 H2128 0.961 . S
C2121 H2129 0.960 . S
C2122 C2120 1.381 . S
C2122 C2123 1.394 . S
C2122 H2130 0.930 . S
C2123 C2122 1.394 . S
C2123 C2124 1.383 . S
C2123 H2131 0.929 . S
C2124 C2123 1.383 . S
C2124 C2125 1.377 . S
C2125 H2109 0.930 . S
C2125 C2124 1.377 . S
C2125 C2126 1.379 . S
C2126 H2110 0.931 . S
C2126 C2120 1.383 . S
C2126 C2125 1.379 . S
H2127 C2121 0.959 . S
H2128 C2121 0.961 . S
H2129 C2121 0.960 . S
H2130 C2122 0.930 . S
H2131 C2123 0.929 . S
H2132 C2140 0.929 . S
H2133 C2142 0.930 . S
H2134 C2144 0.930 . S
H2135 C2147 0.929 . S
H2136 C2150 0.930 . S
H2137 C2152 0.960 . S
H2138 C2152 0.960 . S
H2139 C2152 0.960 . S
C2140 H2132 0.929 . S
C2140 C2141 1.377 . S
C2140 C2142 1.384 . S
C2141 C2140 1.377 . S
C2141 C2147 1.390 . S
C2142 H2133 0.930 . S
C2142 C2140 1.384 . S
C2142 C2143 1.372 . S
C2143 C2142 1.372 . S
C2143 C2144 1.400 . S
C2143 C2148 1.490 . S
C2144 H2134 0.930 . S
C2144 C2143 1.400 . S
C2144 C2147 1.386 . S
H2145 C2161 0.930 . S
H2146 C2162 0.931 . S
C2147 H2135 0.929 . S
C2147 C2141 1.390 . S
C2147 C2144 1.386 . S
C2148 C2143 1.490 . S
C2148 C2150 1.395 . S
C2148 C2151 1.403 . S
H2149 C2155 0.930 . S
C2150 H2136 0.930 . S
C2150 C2148 1.395 . S
C2150 C2153 1.403 . S
C2151 C2148 1.403 . S
C2151 C2152 1.524 . S
C2151 C2155 1.400 . S
C2152 H2137 0.960 . S
C2152 H2138 0.960 . S
C2152 H2139 0.960 . S
C2152 C2151 1.524 . S
C2153 C2150 1.403 . S
C2153 C2154 1.392 . S
C2153 C2157 1.495 . S
C2154 C2153 1.392 . S
C2154 C2155 1.385 . S
C2154 C2156 1.478 . S
C2155 H2149 0.930 . S
C2155 C2151 1.400 . S
C2155 C2154 1.385 . S
C2156 C2154 1.478 . S
C2156 C2158 1.381 . S
C2156 C2162 1.383 . S
C2157 C2153 1.495 . S
C2157 H2163 0.959 . S
C2157 H2164 0.961 . S
C2157 H2165 0.960 . S
C2158 C2156 1.381 . S
C2158 C2159 1.394 . S
C2158 H2166 0.930 . S
C2159 C2158 1.394 . S
C2159 C2160 1.383 . S
C2159 H2167 0.929 . S
C2160 C2159 1.383 . S
C2160 C2161 1.377 . S
C2161 H2145 0.930 . S
C2161 C2160 1.377 . S
C2161 C2162 1.379 . S
C2162 H2146 0.931 . S
C2162 C2156 1.383 . S
C2162 C2161 1.379 . S
H2163 C2157 0.959 . S
H2164 C2157 0.961 . S
H2165 C2157 0.960 . S
H2166 C2158 0.930 . S
H2167 C2159 0.929 . S
H2168 C2176 0.929 . S
H2169 C2178 0.930 . S
H2170 C2180 0.930 . S
H2171 C2183 0.929 . S
H2172 C2186 0.930 . S
H2173 C2188 0.960 . S
H2174 C2188 0.960 . S
H2175 C2188 0.960 . S
C2176 H2168 0.929 . S
C2176 C2177 1.377 . S
C2176 C2178 1.384 . S
C2177 C2176 1.377 . S
C2177 C2183 1.390 . S
C2178 H2169 0.930 . S
C2178 C2176 1.384 . S
C2178 C2179 1.372 . S
C2179 C2178 1.372 . S
C2179 C2180 1.400 . S
C2179 C2184 1.490 . S
C2180 H2170 0.930 . S
C2180 C2179 1.400 . S
C2180 C2183 1.386 . S
H2181 C2197 0.930 . S
H2182 C2198 0.931 . S
C2183 H2171 0.929 . S
C2183 C2177 1.390 . S
C2183 C2180 1.386 . S
C2184 C2179 1.490 . S
C2184 C2186 1.395 . S
C2184 C2187 1.403 . S
H2185 C2191 0.930 . S
C2186 H2172 0.930 . S
C2186 C2184 1.395 . S
C2186 C2189 1.403 . S
C2187 C2184 1.403 . S
C2187 C2188 1.524 . S
C2187 C2191 1.400 . S
C2188 H2173 0.960 . S
C2188 H2174 0.960 . S
C2188 H2175 0.960 . S
C2188 C2187 1.524 . S
C2189 C2186 1.403 . S
C2189 C2190 1.392 . S
C2189 C2193 1.495 1_655 S
C2190 C2189 1.392 . S
C2190 C2191 1.385 . S
C2190 C2192 1.478 . S
C2191 H2185 0.930 . S
C2191 C2187 1.400 . S
C2191 C2190 1.385 . S
C2192 C2190 1.478 . S
C2192 C2194 1.381 1_655 S
C2192 C2198 1.383 1_655 S
C2193 C2189 1.495 1_455 S
C2193 H2199 0.953 1_455 S
C2193 H2200 0.961 . S
C2193 H2201 0.960 . S
C2194 C2192 1.381 1_455 S
C2194 C2195 1.394 . S
C2194 H2202 0.946 . S
C2195 C2194 1.394 . S
C2195 C2196 1.383 . S
C2195 H2203 0.929 . S
C2196 C2195 1.383 . S
C2196 C2197 1.377 . S
C2197 H2181 0.930 . S
C2197 C2196 1.377 . S
C2197 C2198 1.379 . S
C2198 H2182 0.931 . S
C2198 C2192 1.383 1_455 S
C2198 C2197 1.379 . S
H2199 C2193 0.953 1_655 S
H2200 C2193 0.961 . S
H2201 C2193 0.960 . S
H2202 C2194 0.946 . S
H2203 C2195 0.929 . S
H2204 C2212 0.929 . S
H2205 C2214 0.930 . S
H2206 C2216 0.930 . S
H2207 C2219 0.929 . S
H2208 C2222 0.930 . S
H2209 C2224 0.960 . S
H2210 C2224 0.960 . S
H2211 C2224 0.960 . S
C2212 H2204 0.929 . S
C2212 C2213 1.377 . S
C2212 C2214 1.384 . S
C2213 C2212 1.377 . S
C2213 C2219 1.390 . S
C2214 H2205 0.930 . S
C2214 C2212 1.384 . S
C2214 C2215 1.372 . S
C2215 C2214 1.372 . S
C2215 C2216 1.400 . S
C2215 C2220 1.490 . S
C2216 H2206 0.930 . S
C2216 C2215 1.400 . S
C2216 C2219 1.386 . S
H2217 C2233 0.930 . S
H2218 C2234 0.931 . S
C2219 H2207 0.929 . S
C2219 C2213 1.390 . S
C2219 C2216 1.386 . S
C2220 C2215 1.490 . S
C2220 C2222 1.395 . S
C2220 C2223 1.403 . S
H2221 C2227 0.930 . S
C2222 H2208 0.930 . S
C2222 C2220 1.395 . S
C2222 C2225 1.403 . S
C2223 C2220 1.403 . S
C2223 C2224 1.524 . S
C2223 C2227 1.400 . S
C2224 H2209 0.960 . S
C2224 H2210 0.960 . S
C2224 H2211 0.960 . S
C2224 C2223 1.524 . S
C2225 C2222 1.403 . S
C2225 C2226 1.392 . S
C2225 C2229 1.495 . S
C2226 C2225 1.392 . S
C2226 C2227 1.385 . S
C2226 C2228 1.478 . S
C2227 H2221 0.930 . S
C2227 C2223 1.400 . S
C2227 C2226 1.385 . S
C2228 C2226 1.478 . S
C2228 C2230 1.381 . S
C2228 C2234 1.383 . S
C2229 C2225 1.495 . S
C2229 H2235 0.959 . S
C2229 H2236 0.961 . S
C2229 H2237 0.960 . S
C2230 C2228 1.381 . S
C2230 C2231 1.394 . S
C2230 H2238 0.930 . S
C2231 C2230 1.394 . S
C2231 C2232 1.383 . S
C2231 H2239 0.929 . S
C2232 C2231 1.383 . S
C2232 C2233 1.377 . S
C2233 H2217 0.930 . S
C2233 C2232 1.377 . S
C2233 C2234 1.379 . S
C2234 H2218 0.931 . S
C2234 C2228 1.383 . S
C2234 C2233 1.379 . S
H2235 C2229 0.959 . S
H2236 C2229 0.961 . S
H2237 C2229 0.960 . S
H2238 C2230 0.930 . S
H2239 C2231 0.929 . S
H2240 C2248 0.929 . S
H2241 C2250 0.930 . S
H2242 C2252 0.930 . S
H2243 C2255 0.929 . S
H2244 C2258 0.930 . S
H2245 C2260 0.960 . S
H2246 C2260 0.960 1_455 S
H2247 C2260 0.960 1_455 S
C2248 H2240 0.929 . S
C2248 C2249 1.377 . S
C2248 C2250 1.384 1_455 S
C2249 C2248 1.377 . S
C2249 C2255 1.390 . S
C2250 H2241 0.930 . S
C2250 C2248 1.384 1_655 S
C2250 C2251 1.372 . S
C2251 C2250 1.372 . S
C2251 C2252 1.400 1_655 S
C2251 C2256 1.490 . S
C2252 H2242 0.930 . S
C2252 C2251 1.400 1_455 S
C2252 C2255 1.386 . S
H2253 C2269 0.930 . S
H2254 C2270 0.931 . S
C2255 H2243 0.929 . S
C2255 C2249 1.390 . S
C2255 C2252 1.386 . S
C2256 C2251 1.490 . S
C2256 C2258 1.395 . S
C2256 C2259 1.403 . S
H2257 C2263 0.930 . S
C2258 H2244 0.930 . S
C2258 C2256 1.395 . S
C2258 C2261 1.403 . S
C2259 C2256 1.403 . S
C2259 C2260 1.524 . S
C2259 C2263 1.400 . S
C2260 H2245 0.960 . S
C2260 H2246 0.960 1_655 S
C2260 H2247 0.960 1_655 S
C2260 C2259 1.524 . S
C2261 C2258 1.403 . S
C2261 C2262 1.392 . S
C2261 C2265 1.495 . S
C2262 C2261 1.392 . S
C2262 C2263 1.385 . S
C2262 C2264 1.478 . S
C2263 H2257 0.930 . S
C2263 C2259 1.400 . S
C2263 C2262 1.385 . S
C2264 C2262 1.478 . S
C2264 C2266 1.381 . S
C2264 C2270 1.383 . S
C2265 C2261 1.495 . S
C2265 H2271 0.959 . S
C2265 H2272 0.961 . S
C2265 H2273 0.960 . S
C2266 C2264 1.381 . S
C2266 C2267 1.394 . S
C2266 H2274 0.930 . S
C2267 C2266 1.394 . S
C2267 C2268 1.383 . S
C2267 H2275 0.929 . S
C2268 C2267 1.383 . S
C2268 C2269 1.377 . S
C2269 H2253 0.930 . S
C2269 C2268 1.377 . S
C2269 C2270 1.379 . S
C2270 H2254 0.931 . S
C2270 C2264 1.383 . S
C2270 C2269 1.379 . S
H2271 C2265 0.959 . S
H2272 C2265 0.961 . S
H2273 C2265 0.960 . S
H2274 C2266 0.930 . S
H2275 C2267 0.929 . S
H2276 C2284 0.929 . S
H2277 C2286 0.930 . S
H2278 C2288 0.930 . S
H2279 C2291 0.929 . S
H2280 C2294 0.930 . S
H2281 C2296 0.960 . S
H2282 C2296 0.960 . S
H2283 C2296 0.960 . S
C2284 H2276 0.929 . S
C2284 C2285 1.377 . S
C2284 C2286 1.384 . S
C2285 C2284 1.377 . S
C2285 C2291 1.390 . S
C2286 H2277 0.930 . S
C2286 C2284 1.384 . S
C2286 C2287 1.372 . S
C2287 C2286 1.372 . S
C2287 C2288 1.400 . S
C2287 C2292 1.490 . S
C2288 H2278 0.930 . S
C2288 C2287 1.400 . S
C2288 C2291 1.386 . S
H2289 C2305 0.930 . S
H2290 C2306 0.931 . S
C2291 H2279 0.929 . S
C2291 C2285 1.390 . S
C2291 C2288 1.386 . S
C2292 C2287 1.490 . S
C2292 C2294 1.395 . S
C2292 C2295 1.403 . S
H2293 C2299 0.930 . S
C2294 H2280 0.930 . S
C2294 C2292 1.395 . S
C2294 C2297 1.403 . S
C2295 C2292 1.403 . S
C2295 C2296 1.524 . S
C2295 C2299 1.400 . S
C2296 H2281 0.960 . S
C2296 H2282 0.960 . S
C2296 H2283 0.960 . S
C2296 C2295 1.524 . S
C2297 C2294 1.403 . S
C2297 C2298 1.392 . S
C2297 C2301 1.495 . S
C2298 C2297 1.392 . S
C2298 C2299 1.385 . S
C2298 C2300 1.478 . S
C2299 H2293 0.930 . S
C2299 C2295 1.400 . S
C2299 C2298 1.385 . S
C2300 C2298 1.478 . S
C2300 C2302 1.381 . S
C2300 C2306 1.383 . S
C2301 C2297 1.495 . S
C2301 H2307 0.959 . S
C2301 H2308 0.961 . S
C2301 H2309 0.960 . S
C2302 C2300 1.381 . S
C2302 C2303 1.394 . S
C2302 H2310 0.930 . S
C2303 C2302 1.394 . S
C2303 C2304 1.383 . S
C2303 H2311 0.929 . S
C2304 C2303 1.383 . S
C2304 C2305 1.377 . S
C2305 H2289 0.930 . S
C2305 C2304 1.377 . S
C2305 C2306 1.379 . S
C2306 H2290 0.931 . S
C2306 C2300 1.383 . S
C2306 C2305 1.379 . S
H2307 C2301 0.959 . S
H2308 C2301 0.961 . S
H2309 C2301 0.960 . S
H2310 C2302 0.930 . S
H2311 C2303 0.929 . S
H2312 C2320 0.929 . S
H2313 C2322 0.930 . S
H2314 C2324 0.930 . S
H2315 C2327 0.929 . S
H2316 C2330 0.930 . S
H2317 C2332 0.960 . S
H2318 C2332 0.960 . S
H2319 C2332 0.960 . S
C2320 H2312 0.929 . S
C2320 C2321 1.377 . S
C2320 C2322 1.384 . S
C2321 C2320 1.377 . S
C2321 C2327 1.390 . S
C2322 H2313 0.930 . S
C2322 C2320 1.384 . S
C2322 C2323 1.372 . S
C2323 C2322 1.372 . S
C2323 C2324 1.400 . S
C2323 C2328 1.490 . S
C2324 H2314 0.930 . S
C2324 C2323 1.400 . S
C2324 C2327 1.386 . S
H2325 C2341 0.930 . S
H2326 C2342 0.931 . S
C2327 H2315 0.929 . S
C2327 C2321 1.390 . S
C2327 C2324 1.386 . S
C2328 C2323 1.490 . S
C2328 C2330 1.395 . S
C2328 C2331 1.403 . S
H2329 C2335 0.930 . S
C2330 H2316 0.930 . S
C2330 C2328 1.395 . S
C2330 C2333 1.403 . S
C2331 C2328 1.403 . S
C2331 C2332 1.524 . S
C2331 C2335 1.400 . S
C2332 H2317 0.960 . S
C2332 H2318 0.960 . S
C2332 H2319 0.960 . S
C2332 C2331 1.524 . S
C2333 C2330 1.403 . S
C2333 C2334 1.392 . S
C2333 C2337 1.495 . S
C2334 C2333 1.392 . S
C2334 C2335 1.385 . S
C2334 C2336 1.478 . S
C2335 H2329 0.930 . S
C2335 C2331 1.400 . S
C2335 C2334 1.385 . S
C2336 C2334 1.478 . S
C2336 C2338 1.381 . S
C2336 C2342 1.383 . S
C2337 C2333 1.495 . S
C2337 H2343 0.959 . S
C2337 H2344 0.961 . S
C2337 H2345 0.960 . S
C2338 C2336 1.381 . S
C2338 C2339 1.394 . S
C2338 H2346 0.930 . S
C2339 C2338 1.394 . S
C2339 C2340 1.383 . S
C2339 H2347 0.929 . S
C2340 C2339 1.383 . S
C2340 C2341 1.377 . S
C2341 H2325 0.930 . S
C2341 C2340 1.377 . S
C2341 C2342 1.379 . S
C2342 H2326 0.931 . S
C2342 C2336 1.383 . S
C2342 C2341 1.379 . S
H2343 C2337 0.959 . S
H2344 C2337 0.961 . S
H2345 C2337 0.960 . S
H2346 C2338 0.930 . S
H2347 C2339 0.929 . S
H2348 C2356 0.929 . S
H2349 C2358 0.930 . S
H2350 C2360 0.930 . S
H2351 C2363 0.929 . S
H2352 C2366 0.930 . S
H2353 C2368 0.960 . S
H2354 C2368 0.960 . S
H2355 C2368 0.960 . S
C2356 H2348 0.929 . S
C2356 C2357 1.377 . S
C2356 C2358 1.384 . S
C2357 C2356 1.377 . S
C2357 C2363 1.390 . S
C2358 H2349 0.930 . S
C2358 C2356 1.384 . S
C2358 C2359 1.372 . S
C2359 C2358 1.372 . S
C2359 C2360 1.400 . S
C2359 C2364 1.490 . S
C2360 H2350 0.930 . S
C2360 C2359 1.400 . S
C2360 C2363 1.386 . S
H2361 C2377 0.930 . S
H2362 C2378 0.931 . S
C2363 H2351 0.929 . S
C2363 C2357 1.390 . S
C2363 C2360 1.386 . S
C2364 C2359 1.490 . S
C2364 C2366 1.395 . S
C2364 C2367 1.403 . S
H2365 C2371 0.930 . S
C2366 H2352 0.930 . S
C2366 C2364 1.395 . S
C2366 C2369 1.403 . S
C2367 C2364 1.403 . S
C2367 C2368 1.524 . S
C2367 C2371 1.400 . S
C2368 H2353 0.960 . S
C2368 H2354 0.960 . S
C2368 H2355 0.960 . S
C2368 C2367 1.524 . S
C2369 C2366 1.403 . S
C2369 C2370 1.392 . S
C2369 C2373 1.495 . S
C2370 C2369 1.392 . S
C2370 C2371 1.385 . S
C2370 C2372 1.478 . S
C2371 H2365 0.930 . S
C2371 C2367 1.400 . S
C2371 C2370 1.385 . S
C2372 C2370 1.478 . S
C2372 C2374 1.381 . S
C2372 C2378 1.383 . S
C2373 C2369 1.495 . S
C2373 H2379 0.959 . S
C2373 H2380 0.961 . S
C2373 H2381 0.960 . S
C2374 C2372 1.381 . S
C2374 C2375 1.394 . S
C2374 H2382 0.930 . S
C2375 C2374 1.394 . S
C2375 C2376 1.383 . S
C2375 H2383 0.929 . S
C2376 C2375 1.383 . S
C2376 C2377 1.377 . S
C2377 H2361 0.930 . S
C2377 C2376 1.377 . S
C2377 C2378 1.379 . S
C2378 H2362 0.931 . S
C2378 C2372 1.383 . S
C2378 C2377 1.379 . S
H2379 C2373 0.959 . S
H2380 C2373 0.961 . S
H2381 C2373 0.960 . S
H2382 C2374 0.930 . S
H2383 C2375 0.929 . S
H2384 C2392 0.929 . S
H2385 C2394 0.930 . S
H2386 C2396 0.930 . S
H2387 C2399 0.929 . S
H2388 C2402 0.930 . S
H2389 C2404 0.960 . S
H2390 C2404 0.960 . S
H2391 C2404 0.960 . S
C2392 H2384 0.929 . S
C2392 C2393 1.377 . S
C2392 C2394 1.384 . S
C2393 C2392 1.377 . S
C2393 C2399 1.390 . S
C2394 H2385 0.930 . S
C2394 C2392 1.384 . S
C2394 C2395 1.372 . S
C2395 C2394 1.372 . S
C2395 C2396 1.400 . S
C2395 C2400 1.490 . S
C2396 H2386 0.930 . S
C2396 C2395 1.400 . S
C2396 C2399 1.386 . S
H2397 C2413 0.930 . S
H2398 C2414 0.927 . S
C2399 H2387 0.929 . S
C2399 C2393 1.390 . S
C2399 C2396 1.386 . S
C2400 C2395 1.490 . S
C2400 C2402 1.395 . S
C2400 C2403 1.403 . S
H2401 C2407 0.930 . S
C2402 H2388 0.930 . S
C2402 C2400 1.395 . S
C2402 C2405 1.403 . S
C2403 C2400 1.403 . S
C2403 C2404 1.524 . S
C2403 C2407 1.400 . S
C2404 H2389 0.960 . S
C2404 H2390 0.960 . S
C2404 H2391 0.960 . S
C2404 C2403 1.524 . S
C2405 C2402 1.403 . S
C2405 C2406 1.392 . S
C2405 C2409 1.495 1_655 S
C2406 C2405 1.392 . S
C2406 C2407 1.385 . S
C2406 C2408 1.478 . S
C2407 H2401 0.930 . S
C2407 C2403 1.400 . S
C2407 C2406 1.385 . S
C2408 C2406 1.478 . S
C2408 C2410 1.381 1_655 S
C2408 C2414 1.382 . S
C2409 C2405 1.495 1_455 S
C2409 H2415 0.959 . S
C2409 H2416 0.961 . S
C2409 H2417 0.960 . S
C2410 C2408 1.381 1_455 S
C2410 C2411 1.394 . S
C2410 H2418 0.930 . S
C2411 C2410 1.394 . S
C2411 C2412 1.383 . S
C2411 H2419 0.929 . S
C2412 C2411 1.383 . S
C2412 C2413 1.377 . S
C2413 H2397 0.930 . S
C2413 C2412 1.377 . S
C2413 C2414 1.383 1_455 S
C2414 H2398 0.927 . S
C2414 C2408 1.382 . S
C2414 C2413 1.383 1_655 S
H2415 C2409 0.959 . S
H2416 C2409 0.961 . S
H2417 C2409 0.960 . S
H2418 C2410 0.930 . S
H2419 C2411 0.929 . S
H2420 C2428 0.929 . S
H2421 C2430 0.930 . S
H2422 C2432 0.930 . S
H2423 C2435 0.929 . S
H2424 C2438 0.930 . S
H2425 C2440 0.960 . S
H2426 C2440 0.960 . S
H2427 C2440 0.960 . S
C2428 H2420 0.929 . S
C2428 C2429 1.377 . S
C2428 C2430 1.384 . S
C2429 C2428 1.377 . S
C2429 C2435 1.390 . S
C2430 H2421 0.930 . S
C2430 C2428 1.384 . S
C2430 C2431 1.372 . S
C2431 C2430 1.372 . S
C2431 C2432 1.400 . S
C2431 C2436 1.490 . S
C2432 H2422 0.930 . S
C2432 C2431 1.400 . S
C2432 C2435 1.386 . S
H2433 C2449 0.930 . S
H2434 C2450 0.931 . S
C2435 H2423 0.929 . S
C2435 C2429 1.390 . S
C2435 C2432 1.386 . S
C2436 C2431 1.490 . S
C2436 C2438 1.395 . S
C2436 C2439 1.403 . S
H2437 C2443 0.930 . S
C2438 H2424 0.930 . S
C2438 C2436 1.395 . S
C2438 C2441 1.403 . S
C2439 C2436 1.403 . S
C2439 C2440 1.524 . S
C2439 C2443 1.400 . S
C2440 H2425 0.960 . S
C2440 H2426 0.960 . S
C2440 H2427 0.960 . S
C2440 C2439 1.524 . S
C2441 C2438 1.403 . S
C2441 C2442 1.392 . S
C2441 C2445 1.495 . S
C2442 C2441 1.392 . S
C2442 C2443 1.385 . S
C2442 C2444 1.478 . S
C2443 H2437 0.930 . S
C2443 C2439 1.400 . S
C2443 C2442 1.385 . S
C2444 C2442 1.478 . S
C2444 C2446 1.381 . S
C2444 C2450 1.383 . S
C2445 C2441 1.495 . S
C2445 H2451 0.959 . S
C2445 H2452 0.961 . S
C2445 H2453 0.960 . S
C2446 C2444 1.381 . S
C2446 C2447 1.394 . S
C2446 H2454 0.930 . S
C2447 C2446 1.394 . S
C2447 C2448 1.383 . S
C2447 H2455 0.929 . S
C2448 C2447 1.383 . S
C2448 C2449 1.377 . S
C2449 H2433 0.930 . S
C2449 C2448 1.377 . S
C2449 C2450 1.379 . S
C2450 H2434 0.931 . S
C2450 C2444 1.383 . S
C2450 C2449 1.379 . S
H2451 C2445 0.959 . S
H2452 C2445 0.961 . S
H2453 C2445 0.960 . S
H2454 C2446 0.930 . S
H2455 C2447 0.929 . S
H2456 C2464 0.929 . S
H2457 C2466 0.930 . S
H2458 C2468 0.930 . S
H2459 C2471 0.929 . S
H2460 C2474 0.930 . S
H2461 C2476 0.960 . S
H2462 C2476 0.960 . S
H2463 C2476 0.960 . S
C2464 H2456 0.929 . S
C2464 C2465 1.377 . S
C2464 C2466 1.384 . S
C2465 C2464 1.377 . S
C2465 C2471 1.390 . S
C2466 H2457 0.930 . S
C2466 C2464 1.384 . S
C2466 C2467 1.372 . S
C2467 C2466 1.372 . S
C2467 C2468 1.400 . S
C2467 C2472 1.490 . S
C2468 H2458 0.930 . S
C2468 C2467 1.400 . S
C2468 C2471 1.386 . S
H2469 C2485 0.930 . S
H2470 C2486 0.931 . S
C2471 H2459 0.929 . S
C2471 C2465 1.390 . S
C2471 C2468 1.386 . S
C2472 C2467 1.490 . S
C2472 C2474 1.395 . S
C2472 C2475 1.403 . S
H2473 C2479 0.930 . S
C2474 H2460 0.930 . S
C2474 C2472 1.395 . S
C2474 C2477 1.403 . S
C2475 C2472 1.403 . S
C2475 C2476 1.524 . S
C2475 C2479 1.400 . S
C2476 H2461 0.960 . S
C2476 H2462 0.960 . S
C2476 H2463 0.960 . S
C2476 C2475 1.524 . S
C2477 C2474 1.403 . S
C2477 C2478 1.392 . S
C2477 C2481 1.495 . S
C2478 C2477 1.392 . S
C2478 C2479 1.385 . S
C2478 C2480 1.478 . S
C2479 H2473 0.930 . S
C2479 C2475 1.400 . S
C2479 C2478 1.385 . S
C2480 C2478 1.478 . S
C2480 C2482 1.381 . S
C2480 C2486 1.383 . S
C2481 C2477 1.495 . S
C2481 H2487 0.959 . S
C2481 H2488 0.961 . S
C2481 H2489 0.960 . S
C2482 C2480 1.381 . S
C2482 C2483 1.394 . S
C2482 H2490 0.930 . S
C2483 C2482 1.394 . S
C2483 C2484 1.383 . S
C2483 H2491 0.929 . S
C2484 C2483 1.383 . S
C2484 C2485 1.377 . S
C2485 H2469 0.930 . S
C2485 C2484 1.377 . S
C2485 C2486 1.379 . S
C2486 H2470 0.931 . S
C2486 C2480 1.383 . S
C2486 C2485 1.379 . S
H2487 C2481 0.959 . S
H2488 C2481 0.961 . S
H2489 C2481 0.960 . S
H2490 C2482 0.930 . S
H2491 C2483 0.929 . S
H2492 C2500 0.929 . S
H2493 C2502 0.930 . S
H2494 C2504 0.930 . S
H2495 C2507 0.929 . S
H2496 C2510 0.930 . S
H2497 C2512 0.960 . S
H2498 C2512 0.960 . S
H2499 C2512 0.960 . S
C2500 H2492 0.929 . S
C2500 C2501 1.377 . S
C2500 C2502 1.384 . S
C2501 C2500 1.377 . S
C2501 C2507 1.390 . S
C2502 H2493 0.930 . S
C2502 C2500 1.384 . S
C2502 C2503 1.372 . S
C2503 C2502 1.372 . S
C2503 C2504 1.400 . S
C2503 C2508 1.490 . S
C2504 H2494 0.930 . S
C2504 C2503 1.400 . S
C2504 C2507 1.386 . S
H2505 C2521 0.930 . S
H2506 C2522 0.931 . S
C2507 H2495 0.929 . S
C2507 C2501 1.390 . S
C2507 C2504 1.386 . S
C2508 C2503 1.490 . S
C2508 C2510 1.395 . S
C2508 C2511 1.403 . S
H2509 C2515 0.930 . S
C2510 H2496 0.930 . S
C2510 C2508 1.395 . S
C2510 C2513 1.403 . S
C2511 C2508 1.403 . S
C2511 C2512 1.524 . S
C2511 C2515 1.400 . S
C2512 H2497 0.960 . S
C2512 H2498 0.960 . S
C2512 H2499 0.960 . S
C2512 C2511 1.524 . S
C2513 C2510 1.403 . S
C2513 C2514 1.392 . S
C2513 C2517 1.495 . S
C2514 C2513 1.392 . S
C2514 C2515 1.385 . S
C2514 C2516 1.478 . S
C2515 H2509 0.930 . S
C2515 C2511 1.400 . S
C2515 C2514 1.385 . S
C2516 C2514 1.478 . S
C2516 C2518 1.381 . S
C2516 C2522 1.383 . S
C2517 C2513 1.495 . S
C2517 H2523 0.959 . S
C2517 H2524 0.961 . S
C2517 H2525 0.960 . S
C2518 C2516 1.381 . S
C2518 C2519 1.394 . S
C2518 H2526 0.930 . S
C2519 C2518 1.394 . S
C2519 C2520 1.383 . S
C2519 H2527 0.929 . S
C2520 C2519 1.383 . S
C2520 C2521 1.377 . S
C2521 H2505 0.930 . S
C2521 C2520 1.377 . S
C2521 C2522 1.379 . S
C2522 H2506 0.931 . S
C2522 C2516 1.383 . S
C2522 C2521 1.379 . S
H2523 C2517 0.959 . S
H2524 C2517 0.961 . S
H2525 C2517 0.960 . S
H2526 C2518 0.930 . S
H2527 C2519 0.929 . S
H2528 C2536 0.929 . S
H2529 C2538 0.930 . S
H2530 C2540 0.930 . S
H2531 C2543 0.929 . S
H2532 C2546 0.930 . S
H2533 C2548 0.960 . S
H2534 C2548 0.960 . S
H2535 C2548 0.960 1_655 S
C2536 H2528 0.929 . S
C2536 C2537 1.377 . S
C2536 C2538 1.384 1_655 S
C2537 C2536 1.377 . S
C2537 C2543 1.390 . S
C2538 H2529 0.930 . S
C2538 C2536 1.384 1_455 S
C2538 C2539 1.372 . S
C2539 C2538 1.372 . S
C2539 C2540 1.400 1_455 S
C2539 C2544 1.490 . S
C2540 H2530 0.930 . S
C2540 C2539 1.400 1_655 S
C2540 C2543 1.386 . S
H2541 C2557 0.930 . S
H2542 C2558 0.931 . S
C2543 H2531 0.929 . S
C2543 C2537 1.390 . S
C2543 C2540 1.386 . S
C2544 C2539 1.490 . S
C2544 C2546 1.395 . S
C2544 C2547 1.403 . S
H2545 C2551 0.930 . S
C2546 H2532 0.930 . S
C2546 C2544 1.395 . S
C2546 C2549 1.403 . S
C2547 C2544 1.403 . S
C2547 C2548 1.524 . S
C2547 C2551 1.400 . S
C2548 H2533 0.960 . S
C2548 H2534 0.960 . S
C2548 H2535 0.960 1_455 S
C2548 C2547 1.524 . S
C2549 C2546 1.403 . S
C2549 C2550 1.392 . S
C2549 C2553 1.495 . S
C2550 C2549 1.392 . S
C2550 C2551 1.385 . S
C2550 C2552 1.478 . S
C2551 H2545 0.930 . S
C2551 C2547 1.400 . S
C2551 C2550 1.385 . S
C2552 C2550 1.478 . S
C2552 C2554 1.381 . S
C2552 C2558 1.383 . S
C2553 C2549 1.495 . S
C2553 H2559 0.959 . S
C2553 H2560 0.961 . S
C2553 H2561 0.960 . S
C2554 C2552 1.381 . S
C2554 C2555 1.394 . S
C2554 H2562 0.930 . S
C2555 C2554 1.394 . S
C2555 C2556 1.383 . S
C2555 H2563 0.929 . S
C2556 C2555 1.383 . S
C2556 C2557 1.377 . S
C2557 H2541 0.930 . S
C2557 C2556 1.377 . S
C2557 C2558 1.379 . S
C2558 H2542 0.931 . S
C2558 C2552 1.383 . S
C2558 C2557 1.379 . S
H2559 C2553 0.959 . S
H2560 C2553 0.961 . S
H2561 C2553 0.960 . S
H2562 C2554 0.930 . S
H2563 C2555 0.929 . S
H2564 C2572 0.929 . S
H2565 C2574 0.930 . S
H2566 C2576 0.930 . S
H2567 C2579 0.929 . S
H2568 C2582 0.930 . S
H2569 C2584 0.960 . S
H2570 C2584 0.960 . S
H2571 C2584 0.960 . S
C2572 H2564 0.929 . S
C2572 C2573 1.377 . S
C2572 C2574 1.384 . S
C2573 C2572 1.377 . S
C2573 C2579 1.390 . S
C2574 H2565 0.930 . S
C2574 C2572 1.384 . S
C2574 C2575 1.372 . S
C2575 C2574 1.372 . S
C2575 C2576 1.400 . S
C2575 C2580 1.490 . S
C2576 H2566 0.930 . S
C2576 C2575 1.400 . S
C2576 C2579 1.386 . S
H2577 C2593 0.930 . S
H2578 C2594 0.931 . S
C2579 H2567 0.929 . S
C2579 C2573 1.390 . S
C2579 C2576 1.386 . S
C2580 C2575 1.490 . S
C2580 C2582 1.395 . S
C2580 C2583 1.403 . S
H2581 C2587 0.930 . S
C2582 H2568 0.930 . S
C2582 C2580 1.395 . S
C2582 C2585 1.403 . S
C2583 C2580 1.403 . S
C2583 C2584 1.524 . S
C2583 C2587 1.400 . S
C2584 H2569 0.960 . S
C2584 H2570 0.960 . S
C2584 H2571 0.960 . S
C2584 C2583 1.524 . S
C2585 C2582 1.403 . S
C2585 C2586 1.392 . S
C2585 C2589 1.495 . S
C2586 C2585 1.392 . S
C2586 C2587 1.385 . S
C2586 C2588 1.478 . S
C2587 H2581 0.930 . S
C2587 C2583 1.400 . S
C2587 C2586 1.385 . S
C2588 C2586 1.478 . S
C2588 C2590 1.381 . S
C2588 C2594 1.383 . S
C2589 C2585 1.495 . S
C2589 H2595 0.959 . S
C2589 H2596 0.961 . S
C2589 H2597 0.960 . S
C2590 C2588 1.381 . S
C2590 C2591 1.394 . S
C2590 H2598 0.930 . S
C2591 C2590 1.394 . S
C2591 C2592 1.383 . S
C2591 H2599 0.929 . S
C2592 C2591 1.383 . S
C2592 C2593 1.377 . S
C2593 H2577 0.930 . S
C2593 C2592 1.377 . S
C2593 C2594 1.379 . S
C2594 H2578 0.931 . S
C2594 C2588 1.383 . S
C2594 C2593 1.379 . S
H2595 C2589 0.959 . S
H2596 C2589 0.961 . S
H2597 C2589 0.960 . S
H2598 C2590 0.930 . S
H2599 C2591 0.929 . S
H2600 C2608 0.929 . S
H2601 C2610 0.930 . S
H2602 C2612 0.930 . S
H2603 C2615 0.929 . S
H2604 C2618 0.930 . S
H2605 C2620 0.960 . S
H2606 C2620 0.960 . S
H2607 C2620 0.960 . S
C2608 H2600 0.929 . S
C2608 C2609 1.377 . S
C2608 C2610 1.384 . S
C2609 C2608 1.377 . S
C2609 C2615 1.390 . S
C2610 H2601 0.930 . S
C2610 C2608 1.384 . S
C2610 C2611 1.372 . S
C2611 C2610 1.372 . S
C2611 C2612 1.400 . S
C2611 C2616 1.490 . S
C2612 H2602 0.930 . S
C2612 C2611 1.400 . S
C2612 C2615 1.386 . S
H2613 C2629 0.930 . S
H2614 C2630 0.931 . S
C2615 H2603 0.929 . S
C2615 C2609 1.390 . S
C2615 C2612 1.386 . S
C2616 C2611 1.490 . S
C2616 C2618 1.395 . S
C2616 C2619 1.403 . S
H2617 C2623 0.930 . S
C2618 H2604 0.930 . S
C2618 C2616 1.395 . S
C2618 C2621 1.403 . S
C2619 C2616 1.403 . S
C2619 C2620 1.524 . S
C2619 C2623 1.400 . S
C2620 H2605 0.960 . S
C2620 H2606 0.960 . S
C2620 H2607 0.960 . S
C2620 C2619 1.524 . S
C2621 C2618 1.403 . S
C2621 C2622 1.392 . S
C2621 C2625 1.495 . S
C2622 C2621 1.392 . S
C2622 C2623 1.385 . S
C2622 C2624 1.478 . S
C2623 H2617 0.930 . S
C2623 C2619 1.400 . S
C2623 C2622 1.385 . S
C2624 C2622 1.478 . S
C2624 C2626 1.381 . S
C2624 C2630 1.383 . S
C2625 C2621 1.495 . S
C2625 H2631 0.959 . S
C2625 H2632 0.961 . S
C2625 H2633 0.960 . S
C2626 C2624 1.381 . S
C2626 C2627 1.394 . S
C2626 H2634 0.930 . S
C2627 C2626 1.394 . S
C2627 C2628 1.383 . S
C2627 H2635 0.929 . S
C2628 C2627 1.383 . S
C2628 C2629 1.377 . S
C2629 H2613 0.930 . S
C2629 C2628 1.377 . S
C2629 C2630 1.379 . S
C2630 H2614 0.931 . S
C2630 C2624 1.383 . S
C2630 C2629 1.379 . S
H2631 C2625 0.959 . S
H2632 C2625 0.961 . S
H2633 C2625 0.960 . S
H2634 C2626 0.930 . S
H2635 C2627 0.929 . S
H2636 C2644 0.929 . S
H2637 C2646 0.930 . S
H2638 C2648 0.930 . S
H2639 C2651 0.929 . S
H2640 C2654 0.930 . S
H2641 C2656 0.960 . S
H2642 C2656 0.960 . S
H2643 C2656 0.960 . S
C2644 H2636 0.929 . S
C2644 C2645 1.377 . S
C2644 C2646 1.384 . S
C2645 C2644 1.377 . S
C2645 C2651 1.390 . S
C2646 H2637 0.930 . S
C2646 C2644 1.384 . S
C2646 C2647 1.372 . S
C2647 C2646 1.372 . S
C2647 C2648 1.400 . S
C2647 C2652 1.490 . S
C2648 H2638 0.930 . S
C2648 C2647 1.400 . S
C2648 C2651 1.386 . S
H2649 C2665 0.930 . S
H2650 C2666 0.931 . S
C2651 H2639 0.929 . S
C2651 C2645 1.390 . S
C2651 C2648 1.386 . S
C2652 C2647 1.490 . S
C2652 C2654 1.395 . S
C2652 C2655 1.403 . S
H2653 C2659 0.930 . S
C2654 H2640 0.930 . S
C2654 C2652 1.395 . S
C2654 C2657 1.403 . S
C2655 C2652 1.403 . S
C2655 C2656 1.524 . S
C2655 C2659 1.400 . S
C2656 H2641 0.960 . S
C2656 H2642 0.960 . S
C2656 H2643 0.960 . S
C2656 C2655 1.524 . S
C2657 C2654 1.403 . S
C2657 C2658 1.392 . S
C2657 C2661 1.495 . S
C2658 C2657 1.392 . S
C2658 C2659 1.385 . S
C2658 C2660 1.478 . S
C2659 H2653 0.930 . S
C2659 C2655 1.400 . S
C2659 C2658 1.385 . S
C2660 C2658 1.478 . S
C2660 C2662 1.381 . S
C2660 C2666 1.383 . S
C2661 C2657 1.495 . S
C2661 H2667 0.959 . S
C2661 H2668 0.961 . S
C2661 H2669 0.960 . S
C2662 C2660 1.381 . S
C2662 C2663 1.394 . S
C2662 H2670 0.930 . S
C2663 C2662 1.394 . S
C2663 C2664 1.383 . S
C2663 H2671 0.929 . S
C2664 C2663 1.383 . S
C2664 C2665 1.377 . S
C2665 H2649 0.930 . S
C2665 C2664 1.377 . S
C2665 C2666 1.379 . S
C2666 H2650 0.931 . S
C2666 C2660 1.383 . S
C2666 C2665 1.379 . S
H2667 C2661 0.959 . S
H2668 C2661 0.961 . S
H2669 C2661 0.960 . S
H2670 C2662 0.930 . S
H2671 C2663 0.929 . S
H2672 C2680 0.929 . S
H2673 C2682 0.930 . S
H2674 C2684 0.930 . S
H2675 C2687 0.929 . S
H2676 C2690 0.930 . S
H2677 C2692 0.960 . S
H2678 C2692 0.960 . S
H2679 C2692 0.960 . S
C2680 H2672 0.929 . S
C2680 C2681 1.377 . S
C2680 C2682 1.384 . S
C2681 C2680 1.377 . S
C2681 C2687 1.390 . S
C2682 H2673 0.930 . S
C2682 C2680 1.384 . S
C2682 C2683 1.372 . S
C2683 C2682 1.372 . S
C2683 C2684 1.400 . S
C2683 C2688 1.490 . S
C2684 H2674 0.930 . S
C2684 C2683 1.400 . S
C2684 C2687 1.386 . S
H2685 C2701 0.930 . S
H2686 C2702 0.931 . S
C2687 H2675 0.929 . S
C2687 C2681 1.390 . S
C2687 C2684 1.386 . S
C2688 C2683 1.490 . S
C2688 C2690 1.395 . S
C2688 C2691 1.403 . S
H2689 C2695 0.930 . S
C2690 H2676 0.930 . S
C2690 C2688 1.395 . S
C2690 C2693 1.403 . S
C2691 C2688 1.403 . S
C2691 C2692 1.524 . S
C2691 C2695 1.400 . S
C2692 H2677 0.960 . S
C2692 H2678 0.960 . S
C2692 H2679 0.960 . S
C2692 C2691 1.524 . S
C2693 C2690 1.403 . S
C2693 C2694 1.392 . S
C2693 C2697 1.495 . S
C2694 C2693 1.392 . S
C2694 C2695 1.385 . S
C2694 C2696 1.478 . S
C2695 H2689 0.930 . S
C2695 C2691 1.400 . S
C2695 C2694 1.385 . S
C2696 C2694 1.478 . S
C2696 C2698 1.381 . S
C2696 C2702 1.383 1_455 S
C2697 C2693 1.495 . S
C2697 H2703 0.959 . S
C2697 H2704 0.961 1_455 S
C2697 H2705 0.960 . S
C2698 C2696 1.381 . S
C2698 C2699 1.394 1_455 S
C2698 H2706 0.930 . S
C2699 C2698 1.394 1_655 S
C2699 C2700 1.383 . S
C2699 H2707 0.929 . S
C2700 C2699 1.383 . S
C2700 C2701 1.377 . S
C2701 H2685 0.930 . S
C2701 C2700 1.377 . S
C2701 C2702 1.379 . S
C2702 H2686 0.931 . S
C2702 C2696 1.383 1_655 S
C2702 C2701 1.379 . S
H2703 C2697 0.959 . S
H2704 C2697 0.961 1_655 S
H2705 C2697 0.960 . S
H2706 C2698 0.930 . S
H2707 C2699 0.929 . S
H2708 C2716 0.929 . S
H2709 C2718 0.930 . S
H2710 C2720 0.930 . S
H2711 C2723 0.929 . S
H2712 C2726 0.930 . S
H2713 C2728 0.960 . S
H2714 C2728 0.960 . S
H2715 C2728 0.960 . S
C2716 H2708 0.929 . S
C2716 C2717 1.377 . S
C2716 C2718 1.384 . S
C2717 C2716 1.377 . S
C2717 C2723 1.390 . S
C2718 H2709 0.930 . S
C2718 C2716 1.384 . S
C2718 C2719 1.372 . S
C2719 C2718 1.372 . S
C2719 C2720 1.400 . S
C2719 C2724 1.490 . S
C2720 H2710 0.930 . S
C2720 C2719 1.400 . S
C2720 C2723 1.386 . S
H2721 C2737 0.930 . S
H2722 C2738 0.931 . S
C2723 H2711 0.929 . S
C2723 C2717 1.390 . S
C2723 C2720 1.386 . S
C2724 C2719 1.490 . S
C2724 C2726 1.395 . S
C2724 C2727 1.403 . S
H2725 C2731 0.930 . S
C2726 H2712 0.930 . S
C2726 C2724 1.395 . S
C2726 C2729 1.403 . S
C2727 C2724 1.403 . S
C2727 C2728 1.524 . S
C2727 C2731 1.400 . S
C2728 H2713 0.960 . S
C2728 H2714 0.960 . S
C2728 H2715 0.960 . S
C2728 C2727 1.524 . S
C2729 C2726 1.403 . S
C2729 C2730 1.392 . S
C2729 C2733 1.495 . S
C2730 C2729 1.392 . S
C2730 C2731 1.385 . S
C2730 C2732 1.478 . S
C2731 H2725 0.930 . S
C2731 C2727 1.400 . S
C2731 C2730 1.385 . S
C2732 C2730 1.478 . S
C2732 C2734 1.381 . S
C2732 C2738 1.383 . S
C2733 C2729 1.495 . S
C2733 H2739 0.959 . S
C2733 H2740 0.961 . S
C2733 H2741 0.960 . S
C2734 C2732 1.381 . S
C2734 C2735 1.394 . S
C2734 H2742 0.930 . S
C2735 C2734 1.394 . S
C2735 C2736 1.383 . S
C2735 H2743 0.929 . S
C2736 C2735 1.383 . S
C2736 C2737 1.377 . S
C2737 H2721 0.930 . S
C2737 C2736 1.377 . S
C2737 C2738 1.379 . S
C2738 H2722 0.931 . S
C2738 C2732 1.383 . S
C2738 C2737 1.379 . S
H2739 C2733 0.959 . S
H2740 C2733 0.961 . S
H2741 C2733 0.960 . S
H2742 C2734 0.930 . S
H2743 C2735 0.929 . S
H2744 C2752 0.929 . S
H2745 C2754 0.930 . S
H2746 C2756 0.930 . S
H2747 C2759 0.929 . S
H2748 C2762 0.930 . S
H2749 C2764 0.960 . S
H2750 C2764 0.960 . S
H2751 C2764 0.960 . S
C2752 H2744 0.929 . S
C2752 C2753 1.377 . S
C2752 C2754 1.384 . S
C2753 C2752 1.377 . S
C2753 C2759 1.390 . S
C2754 H2745 0.930 . S
C2754 C2752 1.384 . S
C2754 C2755 1.372 . S
C2755 C2754 1.372 . S
C2755 C2756 1.400 . S
C2755 C2760 1.490 . S
C2756 H2746 0.930 . S
C2756 C2755 1.400 . S
C2756 C2759 1.386 . S
H2757 C2773 0.930 . S
H2758 C2774 0.931 . S
C2759 H2747 0.929 . S
C2759 C2753 1.390 . S
C2759 C2756 1.386 . S
C2760 C2755 1.490 . S
C2760 C2762 1.395 . S
C2760 C2763 1.403 . S
H2761 C2767 0.930 . S
C2762 H2748 0.930 . S
C2762 C2760 1.395 . S
C2762 C2765 1.403 . S
C2763 C2760 1.403 . S
C2763 C2764 1.524 . S
C2763 C2767 1.400 . S
C2764 H2749 0.960 . S
C2764 H2750 0.960 . S
C2764 H2751 0.960 . S
C2764 C2763 1.524 . S
C2765 C2762 1.403 . S
C2765 C2766 1.392 . S
C2765 C2769 1.495 . S
C2766 C2765 1.392 . S
C2766 C2767 1.385 . S
C2766 C2768 1.478 . S
C2767 H2761 0.930 . S
C2767 C2763 1.400 . S
C2767 C2766 1.385 . S
C2768 C2766 1.478 . S
C2768 C2770 1.381 . S
C2768 C2774 1.383 . S
C2769 C2765 1.495 . S
C2769 H2775 0.959 . S
C2769 H2776 0.961 . S
C2769 H2777 0.960 . S
C2770 C2768 1.381 . S
C2770 C2771 1.394 . S
C2770 H2778 0.930 . S
C2771 C2770 1.394 . S
C2771 C2772 1.383 . S
C2771 H2779 0.929 . S
C2772 C2771 1.383 . S
C2772 C2773 1.377 . S
C2773 H2757 0.930 . S
C2773 C2772 1.377 . S
C2773 C2774 1.379 . S
C2774 H2758 0.931 . S
C2774 C2768 1.383 . S
C2774 C2773 1.379 . S
H2775 C2769 0.959 . S
H2776 C2769 0.961 . S
H2777 C2769 0.960 . S
H2778 C2770 0.930 . S
H2779 C2771 0.929 . S
H2780 C2788 0.929 . S
H2781 C2790 0.930 . S
H2782 C2792 0.930 . S
H2783 C2795 0.929 . S
H2784 C2798 0.930 . S
H2785 C2800 0.960 . S
H2786 C2800 0.960 . S
H2787 C2800 0.960 . S
C2788 H2780 0.929 . S
C2788 C2789 1.377 . S
C2788 C2790 1.384 . S
C2789 C2788 1.377 . S
C2789 C2795 1.390 . S
C2790 H2781 0.930 . S
C2790 C2788 1.384 . S
C2790 C2791 1.372 . S
C2791 C2790 1.372 . S
C2791 C2792 1.400 . S
C2791 C2796 1.490 . S
C2792 H2782 0.930 . S
C2792 C2791 1.400 . S
C2792 C2795 1.386 . S
H2793 C2809 0.930 . S
H2794 C2810 0.931 . S
C2795 H2783 0.929 . S
C2795 C2789 1.390 . S
C2795 C2792 1.386 . S
C2796 C2791 1.490 . S
C2796 C2798 1.395 . S
C2796 C2799 1.403 . S
H2797 C2803 0.930 . S
C2798 H2784 0.930 . S
C2798 C2796 1.395 . S
C2798 C2801 1.403 . S
C2799 C2796 1.403 . S
C2799 C2800 1.524 . S
C2799 C2803 1.400 . S
C2800 H2785 0.960 . S
C2800 H2786 0.960 . S
C2800 H2787 0.960 . S
C2800 C2799 1.524 . S
C2801 C2798 1.403 . S
C2801 C2802 1.392 . S
C2801 C2805 1.495 . S
C2802 C2801 1.392 . S
C2802 C2803 1.385 . S
C2802 C2804 1.478 . S
C2803 H2797 0.930 . S
C2803 C2799 1.400 . S
C2803 C2802 1.385 . S
C2804 C2802 1.478 . S
C2804 C2806 1.381 . S
C2804 C2810 1.383 . S
C2805 C2801 1.495 . S
C2805 H2811 0.959 . S
C2805 H2812 0.961 . S
C2805 H2813 0.960 . S
C2806 C2804 1.381 . S
C2806 C2807 1.394 . S
C2806 H2814 0.930 . S
C2807 C2806 1.394 . S
C2807 C2808 1.383 . S
C2807 H2815 0.929 . S
C2808 C2807 1.383 . S
C2808 C2809 1.377 . S
C2809 H2793 0.930 . S
C2809 C2808 1.377 . S
C2809 C2810 1.379 . S
C2810 H2794 0.931 . S
C2810 C2804 1.383 . S
C2810 C2809 1.379 . S
H2811 C2805 0.959 . S
H2812 C2805 0.961 . S
H2813 C2805 0.960 . S
H2814 C2806 0.930 . S
H2815 C2807 0.929 . S
H2816 C2824 0.929 . S
H2817 C2826 0.930 . S
H2818 C2828 0.930 . S
H2819 C2831 0.929 . S
H2820 C2834 0.930 . S
H2821 C2836 0.960 . S
H2822 C2836 0.960 . S
H2823 C2836 0.960 . S
C2824 H2816 0.929 . S
C2824 C2825 1.377 1_545 S
C2824 C2826 1.384 . S
C2825 C2824 1.377 1_565 S
C2825 C2831 1.390 . S
C2826 H2817 0.930 . S
C2826 C2824 1.384 . S
C2826 C2827 1.372 . S
C2827 C2826 1.372 . S
C2827 C2828 1.400 1_545 S
C2827 C2832 1.490 . S
C2828 H2818 0.930 . S
C2828 C2827 1.400 1_565 S
C2828 C2831 1.386 . S
H2829 C2845 0.930 . S
H2830 C2846 0.931 . S
C2831 H2819 0.929 . S
C2831 C2825 1.390 . S
C2831 C2828 1.386 . S
C2832 C2827 1.490 . S
C2832 C2834 1.395 . S
C2832 C2835 1.403 . S
H2833 C2839 0.930 . S
C2834 H2820 0.930 . S
C2834 C2832 1.395 . S
C2834 C2837 1.403 . S
C2835 C2832 1.403 . S
C2835 C2836 1.524 . S
C2835 C2839 1.400 . S
C2836 H2821 0.960 . S
C2836 H2822 0.960 . S
C2836 H2823 0.960 . S
C2836 C2835 1.524 . S
C2837 C2834 1.403 . S
C2837 C2838 1.392 . S
C2837 C2841 1.495 . S
C2838 C2837 1.392 . S
C2838 C2839 1.385 . S
C2838 C2840 1.478 . S
C2839 H2833 0.930 . S
C2839 C2835 1.400 . S
C2839 C2838 1.385 . S
C2840 C2838 1.478 . S
C2840 C2842 1.381 . S
C2840 C2846 1.383 . S
C2841 C2837 1.495 . S
C2841 H2847 0.959 . S
C2841 H2848 0.961 . S
C2841 H2849 0.960 . S
C2842 C2840 1.381 . S
C2842 C2843 1.394 . S
C2842 H2850 0.930 . S
C2843 C2842 1.394 . S
C2843 C2844 1.383 . S
C2843 H2851 0.929 . S
C2844 C2843 1.383 . S
C2844 C2845 1.377 . S
C2845 H2829 0.930 . S
C2845 C2844 1.377 . S
C2845 C2846 1.379 . S
C2846 H2830 0.931 . S
C2846 C2840 1.383 . S
C2846 C2845 1.379 . S
H2847 C2841 0.959 . S
H2848 C2841 0.961 . S
H2849 C2841 0.960 . S
H2850 C2842 0.930 . S
H2851 C2843 0.929 . S
H2852 C2860 0.929 . S
H2853 C2862 0.930 . S
H2854 C2864 0.930 . S
H2855 C2867 0.929 . S
H2856 C2870 0.930 . S
H2857 C2872 0.960 . S
H2858 C2872 0.960 . S
H2859 C2872 0.960 . S
C2860 H2852 0.929 . S
C2860 C2861 1.377 . S
C2860 C2862 1.384 . S
C2861 C2860 1.377 . S
C2861 C2867 1.390 . S
C2862 H2853 0.930 . S
C2862 C2860 1.384 . S
C2862 C2863 1.372 . S
C2863 C2862 1.372 . S
C2863 C2864 1.400 . S
C2863 C2868 1.490 . S
C2864 H2854 0.930 . S
C2864 C2863 1.400 . S
C2864 C2867 1.386 . S
H2865 C2881 0.930 . S
H2866 C2882 0.931 . S
C2867 H2855 0.929 . S
C2867 C2861 1.390 . S
C2867 C2864 1.386 . S
C2868 C2863 1.490 . S
C2868 C2870 1.395 . S
C2868 C2871 1.403 . S
H2869 C2875 0.930 . S
C2870 H2856 0.930 . S
C2870 C2868 1.395 . S
C2870 C2873 1.403 . S
C2871 C2868 1.403 . S
C2871 C2872 1.524 . S
C2871 C2875 1.400 . S
C2872 H2857 0.960 . S
C2872 H2858 0.960 . S
C2872 H2859 0.960 . S
C2872 C2871 1.524 . S
C2873 C2870 1.403 . S
C2873 C2874 1.392 . S
C2873 C2877 1.495 . S
C2874 C2873 1.392 . S
C2874 C2875 1.385 . S
C2874 C2876 1.478 . S
C2875 H2869 0.930 . S
C2875 C2871 1.400 . S
C2875 C2874 1.385 . S
C2876 C2874 1.478 . S
C2876 C2878 1.381 1_565 S
C2876 C2882 1.383 . S
C2877 C2873 1.495 . S
C2877 H2883 0.959 . S
C2877 H2884 0.961 . S
C2877 H2885 0.960 . S
C2878 C2876 1.381 1_545 S
C2878 C2879 1.394 . S
C2878 H2886 0.930 . S
C2879 C2878 1.394 . S
C2879 C2880 1.383 . S
C2879 H2887 0.929 . S
C2880 C2879 1.383 . S
C2880 C2881 1.377 1_545 S
C2881 H2865 0.930 . S
C2881 C2880 1.377 1_565 S
C2881 C2882 1.379 . S
C2882 H2866 0.931 . S
C2882 C2876 1.383 . S
C2882 C2881 1.379 . S
H2883 C2877 0.959 . S
H2884 C2877 0.961 . S
H2885 C2877 0.960 . S
H2886 C2878 0.930 . S
H2887 C2879 0.929 . S
H2888 C2896 0.929 . S
H2889 C2898 0.930 . S
H2890 C2900 0.930 . S
H2891 C2903 0.929 . S
H2892 C2906 0.930 . S
H2893 C2908 0.960 . S
H2894 C2908 0.960 . S
H2895 C2908 0.960 . S
C2896 H2888 0.929 . S
C2896 C2897 1.377 . S
C2896 C2898 1.384 . S
C2897 C2896 1.377 . S
C2897 C2903 1.390 . S
C2898 H2889 0.930 . S
C2898 C2896 1.384 . S
C2898 C2899 1.372 . S
C2899 C2898 1.372 . S
C2899 C2900 1.400 . S
C2899 C2904 1.490 . S
C2900 H2890 0.930 . S
C2900 C2899 1.400 . S
C2900 C2903 1.386 . S
H2901 C2917 0.930 . S
H2902 C2918 0.931 . S
C2903 H2891 0.929 . S
C2903 C2897 1.390 . S
C2903 C2900 1.386 . S
C2904 C2899 1.490 . S
C2904 C2906 1.395 . S
C2904 C2907 1.403 . S
H2905 C2911 0.930 . S
C2906 H2892 0.930 . S
C2906 C2904 1.395 . S
C2906 C2909 1.403 . S
C2907 C2904 1.403 . S
C2907 C2908 1.524 . S
C2907 C2911 1.400 . S
C2908 H2893 0.960 . S
C2908 H2894 0.960 . S
C2908 H2895 0.960 . S
C2908 C2907 1.524 . S
C2909 C2906 1.403 . S
C2909 C2910 1.392 . S
C2909 C2913 1.495 . S
C2910 C2909 1.392 . S
C2910 C2911 1.385 . S
C2910 C2912 1.478 . S
C2911 H2905 0.930 . S
C2911 C2907 1.400 . S
C2911 C2910 1.385 . S
C2912 C2910 1.478 . S
C2912 C2914 1.381 . S
C2912 C2918 1.383 . S
C2913 C2909 1.495 . S
C2913 H2919 0.959 . S
C2913 H2920 0.961 . S
C2913 H2921 0.960 . S
C2914 C2912 1.381 . S
C2914 C2915 1.394 1_565 S
C2914 H2922 0.930 . S
C2915 C2914 1.394 1_545 S
C2915 C2916 1.383 . S
C2915 H2923 0.929 . S
C2916 C2915 1.383 . S
C2916 C2917 1.377 . S
C2917 H2901 0.930 . S
C2917 C2916 1.377 . S
C2917 C2918 1.379 1_545 S
C2918 H2902 0.931 . S
C2918 C2912 1.383 . S
C2918 C2917 1.379 1_565 S
H2919 C2913 0.959 . S
H2920 C2913 0.961 . S
H2921 C2913 0.960 . S
H2922 C2914 0.930 . S
H2923 C2915 0.929 . S
H2924 C2932 0.929 . S
H2925 C2934 0.930 . S
H2926 C2936 0.930 . S
H2927 C2939 0.929 . S
H2928 C2942 0.930 . S
H2929 C2944 0.960 . S
H2930 C2944 0.960 . S
H2931 C2944 0.960 . S
C2932 H2924 0.929 . S
C2932 C2933 1.377 . S
C2932 C2934 1.384 . S
C2933 C2932 1.377 . S
C2933 C2939 1.390 . S
C2934 H2925 0.930 . S
C2934 C2932 1.384 . S
C2934 C2935 1.372 . S
C2935 C2934 1.372 . S
C2935 C2936 1.400 . S
C2935 C2940 1.490 . S
C2936 H2926 0.930 . S
C2936 C2935 1.400 . S
C2936 C2939 1.386 . S
H2937 C2953 0.930 . S
H2938 C2954 0.931 . S
C2939 H2927 0.929 . S
C2939 C2933 1.390 . S
C2939 C2936 1.386 . S
C2940 C2935 1.490 . S
C2940 C2942 1.395 . S
C2940 C2943 1.403 . S
H2941 C2947 0.930 . S
C2942 H2928 0.930 . S
C2942 C2940 1.395 . S
C2942 C2945 1.403 . S
C2943 C2940 1.403 . S
C2943 C2944 1.524 . S
C2943 C2947 1.400 . S
C2944 H2929 0.960 . S
C2944 H2930 0.960 . S
C2944 H2931 0.960 . S
C2944 C2943 1.524 . S
C2945 C2942 1.403 . S
C2945 C2946 1.392 . S
C2945 C2949 1.495 . S
C2946 C2945 1.392 . S
C2946 C2947 1.385 . S
C2946 C2948 1.478 . S
C2947 H2941 0.930 . S
C2947 C2943 1.400 . S
C2947 C2946 1.385 . S
C2948 C2946 1.478 . S
C2948 C2950 1.381 . S
C2948 C2954 1.383 1_545 S
C2949 C2945 1.495 . S
C2949 H2955 0.959 . S
C2949 H2956 0.961 . S
C2949 H2957 0.960 . S
C2950 C2948 1.381 . S
C2950 C2951 1.394 . S
C2950 H2958 0.930 . S
C2951 C2950 1.394 . S
C2951 C2952 1.383 1_545 S
C2951 H2959 0.929 . S
C2952 C2951 1.383 1_565 S
C2952 C2953 1.377 . S
C2953 H2937 0.930 . S
C2953 C2952 1.377 . S
C2953 C2954 1.379 . S
C2954 H2938 0.931 . S
C2954 C2948 1.383 1_565 S
C2954 C2953 1.379 . S
H2955 C2949 0.959 . S
H2956 C2949 0.961 . S
H2957 C2949 0.960 . S
H2958 C2950 0.930 . S
H2959 C2951 0.929 . S
H2960 C2968 0.929 . S
H2961 C2970 0.930 . S
H2962 C2972 0.930 . S
H2963 C2975 0.929 . S
H2964 C2978 0.930 . S
H2965 C2980 0.960 . S
H2966 C2980 0.960 . S
H2967 C2980 0.960 . S
C2968 H2960 0.929 . S
C2968 C2969 1.377 . S
C2968 C2970 1.384 . S
C2969 C2968 1.377 . S
C2969 C2975 1.390 1_545 S
C2970 H2961 0.930 . S
C2970 C2968 1.384 . S
C2970 C2971 1.372 1_545 S
C2971 C2970 1.372 1_565 S
C2971 C2972 1.400 . S
C2971 C2976 1.490 . S
C2972 H2962 0.930 . S
C2972 C2971 1.400 . S
C2972 C2975 1.386 . S
H2973 C2989 0.930 . S
H2974 C2990 0.931 . S
C2975 H2963 0.929 . S
C2975 C2969 1.390 1_565 S
C2975 C2972 1.386 . S
C2976 C2971 1.490 . S
C2976 C2978 1.395 . S
C2976 C2979 1.403 . S
H2977 C2983 0.930 . S
C2978 H2964 0.930 . S
C2978 C2976 1.395 . S
C2978 C2981 1.403 . S
C2979 C2976 1.403 . S
C2979 C2980 1.524 . S
C2979 C2983 1.400 . S
C2980 H2965 0.960 . S
C2980 H2966 0.960 . S
C2980 H2967 0.960 . S
C2980 C2979 1.524 . S
C2981 C2978 1.403 . S
C2981 C2982 1.392 . S
C2981 C2985 1.495 . S
C2982 C2981 1.392 . S
C2982 C2983 1.385 . S
C2982 C2984 1.478 . S
C2983 H2977 0.930 . S
C2983 C2979 1.400 . S
C2983 C2982 1.385 . S
C2984 C2982 1.478 . S
C2984 C2986 1.381 . S
C2984 C2990 1.383 . S
C2985 C2981 1.495 . S
C2985 H2991 0.959 . S
C2985 H2992 0.961 . S
C2985 H2993 0.960 . S
C2986 C2984 1.381 . S
C2986 C2987 1.394 . S
C2986 H2994 0.930 . S
C2987 C2986 1.394 . S
C2987 C2988 1.383 . S
C2987 H2995 0.929 . S
C2988 C2987 1.383 . S
C2988 C2989 1.377 . S
C2989 H2973 0.930 . S
C2989 C2988 1.377 . S
C2989 C2990 1.379 . S
C2990 H2974 0.931 . S
C2990 C2984 1.383 . S
C2990 C2989 1.379 . S
H2991 C2985 0.959 . S
H2992 C2985 0.961 . S
H2993 C2985 0.960 . S
H2994 C2986 0.930 . S
H2995 C2987 0.929 . S
H2996 C3004 0.929 . S
H2997 C3006 0.930 . S
H2998 C3008 0.930 . S
H2999 C3011 0.929 . S
H3000 C3014 0.930 . S
H3001 C3016 0.960 . S
H3002 C3016 0.960 . S
H3003 C3016 0.960 . S
C3004 H2996 0.929 . S
C3004 C3005 1.377 . S
C3004 C3006 1.386 . S
C3005 C3004 1.377 . S
C3005 C3011 1.390 1_565 S
C3006 H2997 0.930 . S
C3006 C3004 1.386 . S
C3006 C3007 1.369 1_565 S
C3007 C3006 1.369 1_545 S
C3007 C3008 1.400 . S
C3007 C3012 1.490 . S
C3008 H2998 0.930 . S
C3008 C3007 1.400 . S
C3008 C3011 1.386 . S
H3009 C3025 0.930 . S
H3010 C3026 0.931 . S
C3011 H2999 0.929 . S
C3011 C3005 1.390 1_545 S
C3011 C3008 1.386 . S
C3012 C3007 1.490 . S
C3012 C3014 1.395 . S
C3012 C3015 1.403 . S
H3013 C3019 0.930 . S
C3014 H3000 0.930 . S
C3014 C3012 1.395 . S
C3014 C3017 1.403 . S
C3015 C3012 1.403 . S
C3015 C3016 1.524 . S
C3015 C3019 1.400 . S
C3016 H3001 0.960 . S
C3016 H3002 0.960 . S
C3016 H3003 0.960 . S
C3016 C3015 1.524 . S
C3017 C3014 1.403 . S
C3017 C3018 1.392 . S
C3017 C3021 1.495 . S
C3018 C3017 1.392 . S
C3018 C3019 1.385 . S
C3018 C3020 1.478 . S
C3019 H3013 0.930 . S
C3019 C3015 1.400 . S
C3019 C3018 1.385 . S
C3020 C3018 1.478 . S
C3020 C3022 1.381 . S
C3020 C3026 1.383 . S
C3021 C3017 1.495 . S
C3021 H3027 0.959 . S
C3021 H3028 0.961 . S
C3021 H3029 0.960 . S
C3022 C3020 1.381 . S
C3022 C3023 1.394 . S
C3022 H3030 0.930 . S
C3023 C3022 1.394 . S
C3023 C3024 1.383 . S
C3023 H3031 0.929 . S
C3024 C3023 1.383 . S
C3024 C3025 1.377 . S
C3025 H3009 0.930 . S
C3025 C3024 1.377 . S
C3025 C3026 1.379 . S
C3026 H3010 0.931 . S
C3026 C3020 1.383 . S
C3026 C3025 1.379 . S
H3027 C3021 0.959 . S
H3028 C3021 0.961 . S
H3029 C3021 0.960 . S
H3030 C3022 0.930 . S
H3031 C3023 0.929 . S
H3032 C3040 0.929 . S
H3033 C3042 0.930 . S
H3034 C3044 0.930 . S
H3035 C3047 0.929 . S
H3036 C3050 0.930 . S
H3037 C3052 0.960 . S
H3038 C3052 0.965 . S
H3039 C3052 0.960 1_565 S
C3040 H3032 0.929 . S
C3040 C3041 1.377 1_545 S
C3040 C3042 1.384 . S
C3041 C3040 1.377 1_565 S
C3041 C3047 1.390 . S
C3042 H3033 0.930 . S
C3042 C3040 1.384 . S
C3042 C3043 1.372 . S
C3043 C3042 1.372 . S
C3043 C3044 1.400 1_545 S
C3043 C3048 1.490 . S
C3044 H3034 0.930 . S
C3044 C3043 1.400 1_565 S
C3044 C3047 1.386 . S
H3045 C3061 0.930 . S
H3046 C3062 0.931 . S
C3047 H3035 0.929 . S
C3047 C3041 1.390 . S
C3047 C3044 1.386 . S
C3048 C3043 1.490 . S
C3048 C3050 1.395 . S
C3048 C3051 1.403 . S
H3049 C3055 0.930 . S
C3050 H3036 0.930 . S
C3050 C3048 1.395 . S
C3050 C3053 1.403 . S
C3051 C3048 1.403 . S
C3051 C3052 1.524 . S
C3051 C3055 1.400 . S
C3052 H3037 0.960 . S
C3052 H3038 0.965 . S
C3052 H3039 0.960 1_545 S
C3052 C3051 1.524 . S
C3053 C3050 1.403 . S
C3053 C3054 1.392 . S
C3053 C3057 1.495 . S
C3054 C3053 1.392 . S
C3054 C3055 1.385 . S
C3054 C3056 1.478 . S
C3055 H3049 0.930 . S
C3055 C3051 1.400 . S
C3055 C3054 1.385 . S
C3056 C3054 1.478 . S
C3056 C3058 1.381 . S
C3056 C3062 1.383 . S
C3057 C3053 1.495 . S
C3057 H3063 0.959 . S
C3057 H3064 0.961 . S
C3057 H3065 0.960 . S
C3058 C3056 1.381 . S
C3058 C3059 1.394 . S
C3058 H3066 0.930 . S
C3059 C3058 1.394 . S
C3059 C3060 1.383 . S
C3059 H3067 0.929 . S
C3060 C3059 1.383 . S
C3060 C3061 1.377 . S
C3061 H3045 0.930 . S
C3061 C3060 1.377 . S
C3061 C3062 1.379 . S
C3062 H3046 0.931 . S
C3062 C3056 1.383 . S
C3062 C3061 1.379 . S
H3063 C3057 0.959 . S
H3064 C3057 0.961 . S
H3065 C3057 0.960 . S
H3066 C3058 0.930 . S
H3067 C3059 0.929 . S
H3068 C3076 0.929 . S
H3069 C3078 0.930 . S
H3070 C3080 0.930 . S
H3071 C3083 0.929 . S
H3072 C3086 0.930 . S
H3073 C3088 0.960 . S
H3074 C3088 0.960 . S
H3075 C3088 0.960 . S
C3076 H3068 0.929 . S
C3076 C3077 1.377 . S
C3076 C3078 1.384 . S
C3077 C3076 1.377 . S
C3077 C3083 1.390 . S
C3078 H3069 0.930 . S
C3078 C3076 1.384 . S
C3078 C3079 1.372 . S
C3079 C3078 1.372 . S
C3079 C3080 1.400 . S
C3079 C3084 1.490 . S
C3080 H3070 0.930 . S
C3080 C3079 1.400 . S
C3080 C3083 1.386 . S
H3081 C3097 0.925 1_545 S
H3082 C3098 0.931 . S
C3083 H3071 0.929 . S
C3083 C3077 1.390 . S
C3083 C3080 1.386 . S
C3084 C3079 1.490 . S
C3084 C3086 1.395 . S
C3084 C3087 1.403 . S
H3085 C3091 0.930 . S
C3086 H3072 0.930 . S
C3086 C3084 1.395 . S
C3086 C3089 1.403 . S
C3087 C3084 1.403 . S
C3087 C3088 1.524 . S
C3087 C3091 1.400 . S
C3088 H3073 0.960 . S
C3088 H3074 0.960 . S
C3088 H3075 0.960 . S
C3088 C3087 1.524 . S
C3089 C3086 1.403 . S
C3089 C3090 1.392 . S
C3089 C3093 1.495 . S
C3090 C3089 1.392 . S
C3090 C3091 1.385 . S
C3090 C3092 1.478 . S
C3091 H3085 0.930 . S
C3091 C3087 1.400 . S
C3091 C3090 1.385 . S
C3092 C3090 1.478 . S
C3092 C3094 1.381 . S
C3092 C3098 1.383 . S
C3093 C3089 1.495 . S
C3093 H3099 0.959 . S
C3093 H3100 0.961 . S
C3093 H3101 0.960 . S
C3094 C3092 1.381 . S
C3094 C3095 1.394 1_565 S
C3094 H3102 0.930 . S
C3095 C3094 1.394 1_545 S
C3095 C3096 1.383 . S
C3095 H3103 0.929 . S
C3096 C3095 1.383 . S
C3096 C3097 1.357 1_545 S
C3097 H3081 0.925 1_565 S
C3097 C3096 1.357 1_565 S
C3097 C3098 1.405 . S
C3098 H3082 0.931 . S
C3098 C3092 1.383 . S
C3098 C3097 1.405 . S
H3099 C3093 0.959 . S
H3100 C3093 0.961 . S
H3101 C3093 0.960 . S
H3102 C3094 0.930 . S
H3103 C3095 0.929 . S
H3104 C3112 0.929 . S
H3105 C3114 0.930 . S
H3106 C3116 0.930 . S
H3107 C3119 0.929 . S
H3108 C3122 0.930 . S
H3109 C3124 0.960 . S
H3110 C3124 0.960 . S
H3111 C3124 0.960 . S
C3112 H3104 0.929 . S
C3112 C3113 1.377 . S
C3112 C3114 1.384 . S
C3113 C3112 1.377 . S
C3113 C3119 1.390 . S
C3114 H3105 0.930 . S
C3114 C3112 1.384 . S
C3114 C3115 1.372 . S
C3115 C3114 1.372 . S
C3115 C3116 1.400 . S
C3115 C3120 1.490 . S
C3116 H3106 0.930 . S
C3116 C3115 1.400 . S
C3116 C3119 1.386 . S
H3117 C3133 0.930 . S
H3118 C3134 0.931 . S
C3119 H3107 0.929 . S
C3119 C3113 1.390 . S
C3119 C3116 1.386 . S
C3120 C3115 1.490 . S
C3120 C3122 1.395 . S
C3120 C3123 1.403 . S
H3121 C3127 0.930 . S
C3122 H3108 0.930 . S
C3122 C3120 1.395 . S
C3122 C3125 1.403 . S
C3123 C3120 1.403 . S
C3123 C3124 1.524 . S
C3123 C3127 1.400 . S
C3124 H3109 0.960 . S
C3124 H3110 0.960 . S
C3124 H3111 0.960 . S
C3124 C3123 1.524 . S
C3125 C3122 1.403 . S
C3125 C3126 1.392 . S
C3125 C3129 1.495 . S
C3126 C3125 1.392 . S
C3126 C3127 1.385 . S
C3126 C3128 1.478 . S
C3127 H3121 0.930 . S
C3127 C3123 1.400 . S
C3127 C3126 1.385 . S
C3128 C3126 1.478 . S
C3128 C3130 1.381 . S
C3128 C3134 1.383 . S
C3129 C3125 1.495 . S
C3129 H3135 0.959 . S
C3129 H3136 0.961 . S
C3129 H3137 0.960 . S
C3130 C3128 1.381 . S
C3130 C3131 1.394 . S
C3130 H3138 0.930 . S
C3131 C3130 1.394 . S
C3131 C3132 1.383 . S
C3131 H3139 0.929 . S
C3132 C3131 1.383 . S
C3132 C3133 1.377 . S
C3133 H3117 0.930 . S
C3133 C3132 1.377 . S
C3133 C3134 1.379 . S
C3134 H3118 0.931 . S
C3134 C3128 1.383 . S
C3134 C3133 1.379 . S
H3135 C3129 0.959 . S
H3136 C3129 0.961 . S
H3137 C3129 0.960 . S
H3138 C3130 0.930 . S
H3139 C3131 0.929 . S
H3140 C3148 0.929 . S
H3141 C3150 0.930 . S
H3142 C3152 0.930 . S
H3143 C3155 0.929 . S
H3144 C3158 0.930 . S
H3145 C3160 0.960 . S
H3146 C3160 0.960 . S
H3147 C3160 0.960 . S
C3148 H3140 0.929 . S
C3148 C3149 1.377 . S
C3148 C3150 1.384 . S
C3149 C3148 1.377 . S
C3149 C3155 1.390 . S
C3150 H3141 0.930 . S
C3150 C3148 1.384 . S
C3150 C3151 1.372 . S
C3151 C3150 1.372 . S
C3151 C3152 1.400 . S
C3151 C3156 1.490 . S
C3152 H3142 0.930 . S
C3152 C3151 1.400 . S
C3152 C3155 1.386 . S
H3153 C3169 0.930 . S
H3154 C3170 0.931 . S
C3155 H3143 0.929 . S
C3155 C3149 1.390 . S
C3155 C3152 1.386 . S
C3156 C3151 1.490 . S
C3156 C3158 1.395 . S
C3156 C3159 1.403 . S
H3157 C3163 0.930 . S
C3158 H3144 0.930 . S
C3158 C3156 1.395 . S
C3158 C3161 1.403 . S
C3159 C3156 1.403 . S
C3159 C3160 1.524 . S
C3159 C3163 1.400 . S
C3160 H3145 0.960 . S
C3160 H3146 0.960 . S
C3160 H3147 0.960 . S
C3160 C3159 1.524 . S
C3161 C3158 1.403 . S
C3161 C3162 1.392 . S
C3161 C3165 1.495 . S
C3162 C3161 1.392 . S
C3162 C3163 1.385 . S
C3162 C3164 1.478 . S
C3163 H3157 0.930 . S
C3163 C3159 1.400 . S
C3163 C3162 1.385 . S
C3164 C3162 1.478 . S
C3164 C3166 1.381 . S
C3164 C3170 1.383 . S
C3165 C3161 1.495 . S
C3165 H3171 0.959 . S
C3165 H3172 0.961 . S
C3165 H3173 0.960 . S
C3166 C3164 1.381 . S
C3166 C3167 1.394 . S
C3166 H3174 0.930 . S
C3167 C3166 1.394 . S
C3167 C3168 1.383 . S
C3167 H3175 0.929 . S
C3168 C3167 1.383 . S
C3168 C3169 1.377 . S
C3169 H3153 0.930 . S
C3169 C3168 1.377 . S
C3169 C3170 1.379 . S
C3170 H3154 0.931 . S
C3170 C3164 1.383 . S
C3170 C3169 1.379 . S
H3171 C3165 0.959 . S
H3172 C3165 0.961 . S
H3173 C3165 0.960 . S
H3174 C3166 0.930 . S
H3175 C3167 0.929 . S
H3176 C3184 0.929 . S
H3177 C3186 0.930 . S
H3178 C3188 0.930 . S
H3179 C3191 0.929 . S
H3180 C3194 0.930 . S
H3181 C3196 0.960 . S
H3182 C3196 0.960 . S
H3183 C3196 0.960 . S
C3184 H3176 0.929 . S
C3184 C3185 1.377 . S
C3184 C3186 1.384 . S
C3185 C3184 1.377 . S
C3185 C3191 1.390 . S
C3186 H3177 0.930 . S
C3186 C3184 1.384 . S
C3186 C3187 1.372 . S
C3187 C3186 1.372 . S
C3187 C3188 1.400 . S
C3187 C3192 1.490 . S
C3188 H3178 0.930 . S
C3188 C3187 1.400 . S
C3188 C3191 1.386 . S
H3189 C3205 0.930 . S
H3190 C3206 0.931 . S
C3191 H3179 0.929 . S
C3191 C3185 1.390 . S
C3191 C3188 1.386 . S
C3192 C3187 1.490 . S
C3192 C3194 1.395 . S
C3192 C3195 1.403 . S
H3193 C3199 0.930 . S
C3194 H3180 0.930 . S
C3194 C3192 1.395 . S
C3194 C3197 1.403 . S
C3195 C3192 1.403 . S
C3195 C3196 1.524 . S
C3195 C3199 1.400 . S
C3196 H3181 0.960 . S
C3196 H3182 0.960 . S
C3196 H3183 0.960 . S
C3196 C3195 1.524 . S
C3197 C3194 1.403 . S
C3197 C3198 1.392 . S
C3197 C3201 1.495 . S
C3198 C3197 1.392 . S
C3198 C3199 1.385 . S
C3198 C3200 1.478 . S
C3199 H3193 0.930 . S
C3199 C3195 1.400 . S
C3199 C3198 1.385 . S
C3200 C3198 1.478 . S
C3200 C3202 1.381 . S
C3200 C3206 1.383 . S
C3201 C3197 1.495 . S
C3201 H3207 0.959 . S
C3201 H3208 0.961 . S
C3201 H3209 0.960 . S
C3202 C3200 1.381 . S
C3202 C3203 1.394 . S
C3202 H3210 0.930 . S
C3203 C3202 1.394 . S
C3203 C3204 1.383 . S
C3203 H3211 0.929 . S
C3204 C3203 1.383 . S
C3204 C3205 1.377 . S
C3205 H3189 0.930 . S
C3205 C3204 1.377 . S
C3205 C3206 1.379 . S
C3206 H3190 0.931 . S
C3206 C3200 1.383 . S
C3206 C3205 1.379 . S
H3207 C3201 0.959 . S
H3208 C3201 0.961 . S
H3209 C3201 0.960 . S
H3210 C3202 0.930 . S
H3211 C3203 0.929 . S
H3212 C3220 0.929 . S
H3213 C3222 0.930 . S
H3214 C3224 0.930 . S
H3215 C3227 0.929 . S
H3216 C3230 0.930 . S
H3217 C3232 0.960 . S
H3218 C3232 0.960 . S
H3219 C3232 0.960 . S
C3220 H3212 0.929 . S
C3220 C3221 1.377 . S
C3220 C3222 1.384 . S
C3221 C3220 1.377 . S
C3221 C3227 1.390 . S
C3222 H3213 0.930 . S
C3222 C3220 1.384 . S
C3222 C3223 1.372 . S
C3223 C3222 1.372 . S
C3223 C3224 1.400 . S
C3223 C3228 1.490 . S
C3224 H3214 0.930 . S
C3224 C3223 1.400 . S
C3224 C3227 1.386 . S
H3225 C3241 0.930 . S
H3226 C3242 0.931 . S
C3227 H3215 0.929 . S
C3227 C3221 1.390 . S
C3227 C3224 1.386 . S
C3228 C3223 1.490 . S
C3228 C3230 1.395 . S
C3228 C3231 1.403 . S
H3229 C3235 0.930 . S
C3230 H3216 0.930 . S
C3230 C3228 1.395 . S
C3230 C3233 1.403 . S
C3231 C3228 1.403 . S
C3231 C3232 1.524 . S
C3231 C3235 1.400 . S
C3232 H3217 0.960 . S
C3232 H3218 0.960 . S
C3232 H3219 0.960 . S
C3232 C3231 1.524 . S
C3233 C3230 1.403 . S
C3233 C3234 1.392 . S
C3233 C3237 1.495 . S
C3234 C3233 1.392 . S
C3234 C3235 1.385 . S
C3234 C3236 1.478 . S
C3235 H3229 0.930 . S
C3235 C3231 1.400 . S
C3235 C3234 1.385 . S
C3236 C3234 1.478 . S
C3236 C3238 1.381 . S
C3236 C3242 1.383 . S
C3237 C3233 1.495 . S
C3237 H3243 0.959 . S
C3237 H3244 0.961 . S
C3237 H3245 0.960 . S
C3238 C3236 1.381 . S
C3238 C3239 1.394 . S
C3238 H3246 0.930 . S
C3239 C3238 1.394 . S
C3239 C3240 1.383 . S
C3239 H3247 0.929 . S
C3240 C3239 1.383 . S
C3240 C3241 1.377 . S
C3241 H3225 0.930 . S
C3241 C3240 1.377 . S
C3241 C3242 1.379 . S
C3242 H3226 0.931 . S
C3242 C3236 1.383 . S
C3242 C3241 1.379 . S
H3243 C3237 0.959 . S
H3244 C3237 0.961 . S
H3245 C3237 0.960 . S
H3246 C3238 0.930 . S
H3247 C3239 0.929 . S
H3248 C3256 0.929 . S
H3249 C3258 0.930 . S
H3250 C3260 0.930 . S
H3251 C3263 0.929 . S
H3252 C3266 0.930 . S
H3253 C3268 0.960 . S
H3254 C3268 0.960 . S
H3255 C3268 0.960 . S
C3256 H3248 0.929 . S
C3256 C3257 1.377 . S
C3256 C3258 1.384 . S
C3257 C3256 1.377 . S
C3257 C3263 1.390 . S
C3258 H3249 0.930 . S
C3258 C3256 1.384 . S
C3258 C3259 1.372 . S
C3259 C3258 1.372 . S
C3259 C3260 1.400 . S
C3259 C3264 1.490 . S
C3260 H3250 0.930 . S
C3260 C3259 1.400 . S
C3260 C3263 1.386 . S
H3261 C3277 0.930 . S
H3262 C3278 0.931 . S
C3263 H3251 0.929 . S
C3263 C3257 1.390 . S
C3263 C3260 1.386 . S
C3264 C3259 1.490 . S
C3264 C3266 1.395 . S
C3264 C3267 1.403 . S
H3265 C3271 0.930 . S
C3266 H3252 0.930 . S
C3266 C3264 1.395 . S
C3266 C3269 1.403 . S
C3267 C3264 1.403 . S
C3267 C3268 1.524 . S
C3267 C3271 1.400 . S
C3268 H3253 0.960 . S
C3268 H3254 0.960 . S
C3268 H3255 0.960 . S
C3268 C3267 1.524 . S
C3269 C3266 1.403 . S
C3269 C3270 1.392 . S
C3269 C3273 1.495 . S
C3270 C3269 1.392 . S
C3270 C3271 1.385 . S
C3270 C3272 1.478 . S
C3271 H3265 0.930 . S
C3271 C3267 1.400 . S
C3271 C3270 1.385 . S
C3272 C3270 1.478 . S
C3272 C3274 1.381 . S
C3272 C3278 1.383 . S
C3273 C3269 1.495 . S
C3273 H3279 0.959 . S
C3273 H3280 0.961 . S
C3273 H3281 0.960 . S
C3274 C3272 1.381 . S
C3274 C3275 1.394 . S
C3274 H3282 0.930 . S
C3275 C3274 1.394 . S
C3275 C3276 1.383 . S
C3275 H3283 0.929 . S
C3276 C3275 1.383 . S
C3276 C3277 1.377 . S
C3277 H3261 0.930 . S
C3277 C3276 1.377 . S
C3277 C3278 1.379 . S
C3278 H3262 0.931 . S
C3278 C3272 1.383 . S
C3278 C3277 1.379 . S
H3279 C3273 0.959 . S
H3280 C3273 0.961 . S
H3281 C3273 0.960 . S
H3282 C3274 0.930 . S
H3283 C3275 0.929 . S
H3284 C3292 0.929 . S
H3285 C3294 0.930 . S
H3286 C3296 0.930 . S
H3287 C3299 0.929 . S
H3288 C3302 0.930 . S
H3289 C3304 0.960 . S
H3290 C3304 0.960 . S
H3291 C3304 0.960 . S
C3292 H3284 0.929 . S
C3292 C3293 1.377 . S
C3292 C3294 1.384 . S
C3293 C3292 1.377 . S
C3293 C3299 1.390 . S
C3294 H3285 0.930 . S
C3294 C3292 1.384 . S
C3294 C3295 1.372 . S
C3295 C3294 1.372 . S
C3295 C3296 1.400 . S
C3295 C3300 1.490 . S
C3296 H3286 0.930 . S
C3296 C3295 1.400 . S
C3296 C3299 1.386 . S
H3297 C3313 0.930 . S
H3298 C3314 0.931 . S
C3299 H3287 0.929 . S
C3299 C3293 1.390 . S
C3299 C3296 1.386 . S
C3300 C3295 1.490 . S
C3300 C3302 1.395 . S
C3300 C3303 1.403 . S
H3301 C3307 0.930 . S
C3302 H3288 0.930 . S
C3302 C3300 1.395 . S
C3302 C3305 1.403 . S
C3303 C3300 1.403 . S
C3303 C3304 1.524 . S
C3303 C3307 1.400 . S
C3304 H3289 0.960 . S
C3304 H3290 0.960 . S
C3304 H3291 0.960 . S
C3304 C3303 1.524 . S
C3305 C3302 1.403 . S
C3305 C3306 1.392 . S
C3305 C3309 1.495 . S
C3306 C3305 1.392 . S
C3306 C3307 1.385 . S
C3306 C3308 1.478 . S
C3307 H3301 0.930 . S
C3307 C3303 1.400 . S
C3307 C3306 1.385 . S
C3308 C3306 1.478 . S
C3308 C3310 1.381 . S
C3308 C3314 1.383 . S
C3309 C3305 1.495 . S
C3309 H3315 0.959 . S
C3309 H3316 0.961 . S
C3309 H3317 0.960 . S
C3310 C3308 1.381 . S
C3310 C3311 1.394 . S
C3310 H3318 0.930 . S
C3311 C3310 1.394 . S
C3311 C3312 1.383 . S
C3311 H3319 0.929 . S
C3312 C3311 1.383 . S
C3312 C3313 1.377 . S
C3313 H3297 0.930 . S
C3313 C3312 1.377 . S
C3313 C3314 1.379 . S
C3314 H3298 0.931 . S
C3314 C3308 1.383 . S
C3314 C3313 1.379 . S
H3315 C3309 0.959 . S
H3316 C3309 0.961 . S
H3317 C3309 0.960 . S
H3318 C3310 0.930 . S
H3319 C3311 0.929 . S
H3320 C3328 0.929 . S
H3321 C3330 0.930 . S
H3322 C3332 0.930 . S
H3323 C3335 0.929 . S
H3324 C3338 0.930 . S
H3325 C3340 0.960 . S
H3326 C3340 0.960 . S
H3327 C3340 0.960 . S
C3328 H3320 0.929 . S
C3328 C3329 1.377 . S
C3328 C3330 1.384 . S
C3329 C3328 1.377 . S
C3329 C3335 1.390 . S
C3330 H3321 0.930 . S
C3330 C3328 1.384 . S
C3330 C3331 1.372 . S
C3331 C3330 1.372 . S
C3331 C3332 1.400 . S
C3331 C3336 1.490 . S
C3332 H3322 0.930 . S
C3332 C3331 1.400 . S
C3332 C3335 1.386 . S
H3333 C3349 0.930 . S
H3334 C3350 0.931 . S
C3335 H3323 0.929 . S
C3335 C3329 1.390 . S
C3335 C3332 1.386 . S
C3336 C3331 1.490 . S
C3336 C3338 1.395 . S
C3336 C3339 1.403 . S
H3337 C3343 0.930 . S
C3338 H3324 0.930 . S
C3338 C3336 1.395 . S
C3338 C3341 1.403 . S
C3339 C3336 1.403 . S
C3339 C3340 1.524 . S
C3339 C3343 1.400 . S
C3340 H3325 0.960 . S
C3340 H3326 0.960 . S
C3340 H3327 0.960 . S
C3340 C3339 1.524 . S
C3341 C3338 1.403 . S
C3341 C3342 1.392 . S
C3341 C3345 1.495 . S
C3342 C3341 1.392 . S
C3342 C3343 1.385 . S
C3342 C3344 1.478 . S
C3343 H3337 0.930 . S
C3343 C3339 1.400 . S
C3343 C3342 1.385 . S
C3344 C3342 1.478 . S
C3344 C3346 1.381 . S
C3344 C3350 1.383 . S
C3345 C3341 1.495 . S
C3345 H3351 0.959 . S
C3345 H3352 0.961 . S
C3345 H3353 0.960 . S
C3346 C3344 1.381 . S
C3346 C3347 1.394 . S
C3346 H3354 0.930 . S
C3347 C3346 1.394 . S
C3347 C3348 1.383 . S
C3347 H3355 0.929 . S
C3348 C3347 1.383 . S
C3348 C3349 1.377 . S
C3349 H3333 0.930 . S
C3349 C3348 1.377 . S
C3349 C3350 1.379 . S
C3350 H3334 0.931 . S
C3350 C3344 1.383 . S
C3350 C3349 1.379 . S
H3351 C3345 0.959 . S
H3352 C3345 0.961 . S
H3353 C3345 0.960 . S
H3354 C3346 0.930 . S
H3355 C3347 0.929 . S
H3356 C3364 0.929 . S
H3357 C3366 0.930 . S
H3358 C3368 0.930 . S
H3359 C3371 0.929 . S
H3360 C3374 0.930 . S
H3361 C3376 0.960 . S
H3362 C3376 0.960 . S
H3363 C3376 0.960 . S
C3364 H3356 0.929 . S
C3364 C3365 1.377 . S
C3364 C3366 1.384 . S
C3365 C3364 1.377 . S
C3365 C3371 1.390 . S
C3366 H3357 0.930 . S
C3366 C3364 1.384 . S
C3366 C3367 1.372 . S
C3367 C3366 1.372 . S
C3367 C3368 1.400 . S
C3367 C3372 1.490 . S
C3368 H3358 0.930 . S
C3368 C3367 1.400 . S
C3368 C3371 1.386 . S
H3369 C3385 0.930 . S
H3370 C3386 0.931 . S
C3371 H3359 0.929 . S
C3371 C3365 1.390 . S
C3371 C3368 1.386 . S
C3372 C3367 1.490 . S
C3372 C3374 1.395 . S
C3372 C3375 1.403 . S
H3373 C3379 0.930 . S
C3374 H3360 0.930 . S
C3374 C3372 1.395 . S
C3374 C3377 1.403 . S
C3375 C3372 1.403 . S
C3375 C3376 1.524 . S
C3375 C3379 1.400 . S
C3376 H3361 0.960 . S
C3376 H3362 0.960 . S
C3376 H3363 0.960 . S
C3376 C3375 1.524 . S
C3377 C3374 1.403 . S
C3377 C3378 1.392 . S
C3377 C3381 1.495 . S
C3378 C3377 1.392 . S
C3378 C3379 1.385 . S
C3378 C3380 1.478 . S
C3379 H3373 0.930 . S
C3379 C3375 1.400 . S
C3379 C3378 1.385 . S
C3380 C3378 1.478 . S
C3380 C3382 1.381 . S
C3380 C3386 1.383 . S
C3381 C3377 1.495 . S
C3381 H3387 0.959 . S
C3381 H3388 0.961 . S
C3381 H3389 0.960 . S
C3382 C3380 1.381 . S
C3382 C3383 1.394 . S
C3382 H3390 0.930 . S
C3383 C3382 1.394 . S
C3383 C3384 1.383 . S
C3383 H3391 0.929 . S
C3384 C3383 1.383 . S
C3384 C3385 1.377 . S
C3385 H3369 0.930 . S
C3385 C3384 1.377 . S
C3385 C3386 1.379 . S
C3386 H3370 0.931 . S
C3386 C3380 1.383 . S
C3386 C3385 1.379 . S
H3387 C3381 0.959 . S
H3388 C3381 0.961 . S
H3389 C3381 0.960 . S
H3390 C3382 0.930 . S
H3391 C3383 0.929 . S
H3392 C3400 0.929 . S
H3393 C3402 0.930 . S
H3394 C3404 0.930 . S
H3395 C3407 0.929 . S
H3396 C3410 0.930 . S
H3397 C3412 0.960 . S
H3398 C3412 0.960 . S
H3399 C3412 0.960 . S
C3400 H3392 0.929 . S
C3400 C3401 1.377 . S
C3400 C3402 1.384 . S
C3401 C3400 1.377 . S
C3401 C3407 1.390 . S
C3402 H3393 0.930 . S
C3402 C3400 1.384 . S
C3402 C3403 1.372 . S
C3403 C3402 1.372 . S
C3403 C3404 1.400 . S
C3403 C3408 1.490 . S
C3404 H3394 0.930 . S
C3404 C3403 1.400 . S
C3404 C3407 1.386 . S
H3405 C3421 0.930 . S
H3406 C3422 0.931 . S
C3407 H3395 0.929 . S
C3407 C3401 1.390 . S
C3407 C3404 1.386 . S
C3408 C3403 1.490 . S
C3408 C3410 1.395 . S
C3408 C3411 1.403 . S
H3409 C3415 0.930 . S
C3410 H3396 0.930 . S
C3410 C3408 1.395 . S
C3410 C3413 1.403 . S
C3411 C3408 1.403 . S
C3411 C3412 1.524 . S
C3411 C3415 1.400 . S
C3412 H3397 0.960 . S
C3412 H3398 0.960 . S
C3412 H3399 0.960 . S
C3412 C3411 1.524 . S
C3413 C3410 1.403 . S
C3413 C3414 1.392 . S
C3413 C3417 1.495 . S
C3414 C3413 1.392 . S
C3414 C3415 1.385 . S
C3414 C3416 1.478 . S
C3415 H3409 0.930 . S
C3415 C3411 1.400 . S
C3415 C3414 1.385 . S
C3416 C3414 1.478 . S
C3416 C3418 1.381 . S
C3416 C3422 1.383 . S
C3417 C3413 1.495 . S
C3417 H3423 0.959 . S
C3417 H3424 0.961 . S
C3417 H3425 0.960 . S
C3418 C3416 1.381 . S
C3418 C3419 1.394 . S
C3418 H3426 0.930 . S
C3419 C3418 1.394 . S
C3419 C3420 1.383 . S
C3419 H3427 0.929 . S
C3420 C3419 1.383 . S
C3420 C3421 1.377 . S
C3421 H3405 0.930 . S
C3421 C3420 1.377 . S
C3421 C3422 1.379 . S
C3422 H3406 0.931 . S
C3422 C3416 1.383 . S
C3422 C3421 1.379 . S
H3423 C3417 0.959 . S
H3424 C3417 0.961 . S
H3425 C3417 0.960 . S
H3426 C3418 0.930 . S
H3427 C3419 0.929 . S
H3428 C3436 0.929 . S
H3429 C3438 0.930 . S
H3430 C3440 0.930 . S
H3431 C3443 0.929 . S
H3432 C3446 0.930 . S
H3433 C3448 0.960 . S
H3434 C3448 0.960 . S
H3435 C3448 0.960 . S
C3436 H3428 0.929 . S
C3436 C3437 1.377 . S
C3436 C3438 1.384 . S
C3437 C3436 1.377 . S
C3437 C3443 1.390 . S
C3438 H3429 0.930 . S
C3438 C3436 1.384 . S
C3438 C3439 1.372 . S
C3439 C3438 1.372 . S
C3439 C3440 1.400 . S
C3439 C3444 1.490 . S
C3440 H3430 0.930 . S
C3440 C3439 1.400 . S
C3440 C3443 1.386 . S
H3441 C3457 0.930 . S
H3442 C3458 0.931 . S
C3443 H3431 0.929 . S
C3443 C3437 1.390 . S
C3443 C3440 1.386 . S
C3444 C3439 1.490 . S
C3444 C3446 1.395 . S
C3444 C3447 1.403 1_655 S
H3445 C3451 0.930 . S
C3446 H3432 0.930 . S
C3446 C3444 1.395 . S
C3446 C3449 1.403 1_565 S
C3447 C3444 1.403 1_455 S
C3447 C3448 1.524 . S
C3447 C3451 1.400 1_565 S
C3448 H3433 0.960 . S
C3448 H3434 0.960 . S
C3448 H3435 0.960 . S
C3448 C3447 1.524 . S
C3449 C3446 1.403 1_545 S
C3449 C3450 1.392 1_655 S
C3449 C3453 1.495 . S
C3450 C3449 1.392 1_455 S
C3450 C3451 1.385 . S
C3450 C3452 1.478 . S
C3451 H3445 0.930 . S
C3451 C3447 1.400 1_545 S
C3451 C3450 1.385 . S
C3452 C3450 1.478 . S
C3452 C3454 1.381 . S
C3452 C3458 1.383 . S
C3453 C3449 1.495 . S
C3453 H3459 0.959 . S
C3453 H3460 0.961 . S
C3453 H3461 0.960 . S
C3454 C3452 1.381 . S
C3454 C3455 1.394 . S
C3454 H3462 0.930 . S
C3455 C3454 1.394 . S
C3455 C3456 1.383 . S
C3455 H3463 0.929 . S
C3456 C3455 1.383 . S
C3456 C3457 1.377 . S
C3457 H3441 0.930 . S
C3457 C3456 1.377 . S
C3457 C3458 1.379 . S
C3458 H3442 0.931 . S
C3458 C3452 1.383 . S
C3458 C3457 1.379 . S
H3459 C3453 0.959 . S
H3460 C3453 0.961 . S
H3461 C3453 0.960 . S
H3462 C3454 0.930 . S
H3463 C3455 0.929 . S
H3464 C3472 0.929 . S
H3465 C3474 0.930 . S
H3466 C3476 0.930 . S
H3467 C3479 0.929 . S
H3468 C3482 0.930 . S
H3469 C3484 0.960 . S
H3470 C3484 0.960 . S
H3471 C3484 0.960 . S
C3472 H3464 0.929 . S
C3472 C3473 1.377 . S
C3472 C3474 1.384 . S
C3473 C3472 1.377 . S
C3473 C3479 1.390 . S
C3474 H3465 0.930 . S
C3474 C3472 1.384 . S
C3474 C3475 1.372 . S
C3475 C3474 1.372 . S
C3475 C3476 1.400 . S
C3475 C3480 1.490 . S
C3476 H3466 0.930 . S
C3476 C3475 1.400 . S
C3476 C3479 1.386 . S
H3477 C3493 0.930 . S
H3478 C3494 0.931 . S
C3479 H3467 0.929 . S
C3479 C3473 1.390 . S
C3479 C3476 1.386 . S
C3480 C3475 1.490 . S
C3480 C3482 1.395 . S
C3480 C3483 1.403 . S
H3481 C3487 0.930 . S
C3482 H3468 0.930 . S
C3482 C3480 1.395 . S
C3482 C3485 1.403 . S
C3483 C3480 1.403 . S
C3483 C3484 1.524 . S
C3483 C3487 1.400 . S
C3484 H3469 0.960 . S
C3484 H3470 0.960 . S
C3484 H3471 0.960 . S
C3484 C3483 1.524 . S
C3485 C3482 1.403 . S
C3485 C3486 1.392 . S
C3485 C3489 1.495 . S
C3486 C3485 1.392 . S
C3486 C3487 1.385 . S
C3486 C3488 1.478 . S
C3487 H3481 0.930 . S
C3487 C3483 1.400 . S
C3487 C3486 1.385 . S
C3488 C3486 1.478 . S
C3488 C3490 1.381 . S
C3488 C3494 1.383 . S
C3489 C3485 1.495 . S
C3489 H3495 0.959 . S
C3489 H3496 0.961 . S
C3489 H3497 0.960 . S
C3490 C3488 1.381 . S
C3490 C3491 1.394 . S
C3490 H3498 0.930 . S
C3491 C3490 1.394 . S
C3491 C3492 1.383 . S
C3491 H3499 0.929 . S
C3492 C3491 1.383 . S
C3492 C3493 1.377 . S
C3493 H3477 0.930 . S
C3493 C3492 1.377 . S
C3493 C3494 1.379 . S
C3494 H3478 0.931 . S
C3494 C3488 1.383 . S
C3494 C3493 1.379 . S
H3495 C3489 0.959 . S
H3496 C3489 0.961 . S
H3497 C3489 0.960 . S
H3498 C3490 0.930 . S
H3499 C3491 0.929 . S
H3500 C3508 0.929 . S
H3501 C3510 0.930 . S
H3502 C3512 0.930 . S
H3503 C3515 0.929 . S
H3504 C3518 0.930 . S
H3505 C3520 0.960 . S
H3506 C3520 0.960 1_556 S
H3507 C3520 0.960 . S
C3508 H3500 0.929 . S
C3508 C3509 1.377 . S
C3508 C3510 1.384 . S
C3509 C3508 1.377 . S
C3509 C3515 1.390 . S
C3510 H3501 0.930 . S
C3510 C3508 1.384 . S
C3510 C3511 1.372 . S
C3511 C3510 1.372 . S
C3511 C3512 1.400 . S
C3511 C3516 1.490 . S
C3512 H3502 0.930 . S
C3512 C3511 1.400 . S
C3512 C3515 1.386 . S
H3513 C3529 0.930 . S
H3514 C3530 0.931 . S
C3515 H3503 0.929 . S
C3515 C3509 1.390 . S
C3515 C3512 1.386 . S
C3516 C3511 1.490 . S
C3516 C3518 1.395 1_565 S
C3516 C3519 1.361 1_556 S
H3517 C3523 0.930 . S
C3518 H3504 0.930 . S
C3518 C3516 1.395 1_545 S
C3518 C3521 1.403 . S
C3519 C3516 1.361 1_554 S
C3519 C3520 1.533 . S
C3519 C3523 1.435 . S
C3520 H3505 0.960 . S
C3520 H3506 0.960 1_554 S
C3520 H3507 0.960 . S
C3520 C3519 1.533 . S
C3521 C3518 1.403 . S
C3521 C3522 1.392 1_556 S
C3521 C3525 1.495 . S
C3522 C3521 1.392 1_554 S
C3522 C3523 1.385 1_545 S
C3522 C3524 1.478 . S
C3523 H3517 0.930 . S
C3523 C3519 1.435 . S
C3523 C3522 1.385 1_565 S
C3524 C3522 1.478 . S
C3524 C3526 1.381 . S
C3524 C3530 1.383 . S
C3525 C3521 1.495 . S
C3525 H3531 0.959 . S
C3525 H3532 0.961 1_556 S
C3525 H3533 0.960 . S
C3526 C3524 1.381 . S
C3526 C3527 1.394 . S
C3526 H3534 0.930 . S
C3527 C3526 1.394 . S
C3527 C3528 1.383 . S
C3527 H3535 0.929 . S
C3528 C3527 1.383 . S
C3528 C3529 1.377 . S
C3529 H3513 0.930 . S
C3529 C3528 1.377 . S
C3529 C3530 1.379 . S
C3530 H3514 0.931 . S
C3530 C3524 1.383 . S
C3530 C3529 1.379 . S
H3531 C3525 0.959 . S
H3532 C3525 0.961 1_554 S
H3533 C3525 0.960 . S
H3534 C3526 0.930 . S
H3535 C3527 0.929 . S
H3536 C3544 0.929 . S
H3537 C3546 0.930 . S
H3538 C3548 0.930 . S
H3539 C3551 0.929 . S
H3540 C3554 0.930 . S
H3541 C3556 0.960 . S
H3542 C3556 0.960 . S
H3543 C3556 0.960 . S
C3544 H3536 0.929 . S
C3544 C3545 1.377 . S
C3544 C3546 1.384 . S
C3545 C3544 1.377 . S
C3545 C3551 1.390 . S
C3546 H3537 0.930 . S
C3546 C3544 1.384 . S
C3546 C3547 1.372 . S
C3547 C3546 1.372 . S
C3547 C3548 1.400 . S
C3547 C3552 1.490 . S
C3548 H3538 0.930 . S
C3548 C3547 1.400 . S
C3548 C3551 1.386 . S
H3549 C3565 0.930 . S
H3550 C3566 0.931 . S
C3551 H3539 0.929 . S
C3551 C3545 1.390 . S
C3551 C3548 1.386 . S
C3552 C3547 1.490 . S
C3552 C3554 1.395 . S
C3552 C3555 1.403 . S
H3553 C3559 0.930 . S
C3554 H3540 0.930 . S
C3554 C3552 1.395 . S
C3554 C3557 1.403 . S
C3555 C3552 1.403 . S
C3555 C3556 1.524 . S
C3555 C3559 1.400 . S
C3556 H3541 0.960 . S
C3556 H3542 0.960 . S
C3556 H3543 0.960 . S
C3556 C3555 1.524 . S
C3557 C3554 1.403 . S
C3557 C3558 1.392 . S
C3557 C3561 1.495 . S
C3558 C3557 1.392 . S
C3558 C3559 1.385 . S
C3558 C3560 1.478 . S
C3559 H3553 0.930 . S
C3559 C3555 1.400 . S
C3559 C3558 1.385 . S
C3560 C3558 1.478 . S
C3560 C3562 1.381 . S
C3560 C3566 1.383 . S
C3561 C3557 1.495 . S
C3561 H3567 0.959 . S
C3561 H3568 0.961 . S
C3561 H3569 0.960 . S
C3562 C3560 1.381 . S
C3562 C3563 1.394 . S
C3562 H3570 0.930 . S
C3563 C3562 1.394 . S
C3563 C3564 1.383 . S
C3563 H3571 0.929 . S
C3564 C3563 1.383 . S
C3564 C3565 1.377 . S
C3565 H3549 0.930 . S
C3565 C3564 1.377 . S
C3565 C3566 1.379 . S
C3566 H3550 0.931 . S
C3566 C3560 1.383 . S
C3566 C3565 1.379 . S
H3567 C3561 0.959 . S
H3568 C3561 0.961 . S
H3569 C3561 0.960 . S
H3570 C3562 0.930 . S
H3571 C3563 0.929 . S
H3572 C3580 0.929 . S
H3573 C3582 0.930 . S
H3574 C3584 0.930 . S
H3575 C3587 0.929 . S
H3576 C3590 0.930 . S
H3577 C3592 0.960 . S
H3578 C3592 0.960 . S
H3579 C3592 0.960 . S
C3580 H3572 0.929 . S
C3580 C3581 1.377 . S
C3580 C3582 1.384 . S
C3581 C3580 1.377 . S
C3581 C3587 1.390 . S
C3582 H3573 0.930 . S
C3582 C3580 1.384 . S
C3582 C3583 1.372 . S
C3583 C3582 1.372 . S
C3583 C3584 1.400 . S
C3583 C3588 1.490 . S
C3584 H3574 0.930 . S
C3584 C3583 1.400 . S
C3584 C3587 1.386 . S
H3585 C3601 0.930 . S
H3586 C3602 0.931 . S
C3587 H3575 0.929 . S
C3587 C3581 1.390 . S
C3587 C3584 1.386 . S
C3588 C3583 1.490 . S
C3588 C3590 1.395 . S
C3588 C3591 1.403 . S
H3589 C3595 0.930 . S
C3590 H3576 0.930 . S
C3590 C3588 1.395 . S
C3590 C3593 1.403 1_545 S
C3591 C3588 1.403 . S
C3591 C3592 1.524 . S
C3591 C3595 1.400 1_545 S
C3592 H3577 0.960 . S
C3592 H3578 0.960 . S
C3592 H3579 0.960 . S
C3592 C3591 1.524 . S
C3593 C3590 1.403 1_565 S
C3593 C3594 1.392 . S
C3593 C3597 1.495 . S
C3594 C3593 1.392 . S
C3594 C3595 1.385 . S
C3594 C3596 1.478 . S
C3595 H3589 0.930 . S
C3595 C3591 1.400 1_565 S
C3595 C3594 1.385 . S
C3596 C3594 1.478 . S
C3596 C3598 1.381 . S
C3596 C3602 1.383 . S
C3597 C3593 1.495 . S
C3597 H3603 0.959 . S
C3597 H3604 0.961 . S
C3597 H3605 0.960 . S
C3598 C3596 1.381 . S
C3598 C3599 1.394 . S
C3598 H3606 0.930 . S
C3599 C3598 1.394 . S
C3599 C3600 1.383 . S
C3599 H3607 0.929 . S
C3600 C3599 1.383 . S
C3600 C3601 1.377 . S
C3601 H3585 0.930 . S
C3601 C3600 1.377 . S
C3601 C3602 1.379 . S
C3602 H3586 0.931 . S
C3602 C3596 1.383 . S
C3602 C3601 1.379 . S
H3603 C3597 0.959 . S
H3604 C3597 0.961 . S
H3605 C3597 0.960 . S
H3606 C3598 0.930 . S
H3607 C3599 0.929 . S
H3608 C3616 0.929 . S
H3609 C3618 0.930 . S
H3610 C3620 0.930 . S
H3611 C3623 0.929 . S
H3612 C3626 0.930 . S
H3613 C3628 0.960 . S
H3614 C3628 0.960 . S
H3615 C3628 0.960 . S
C3616 H3608 0.929 . S
C3616 C3617 1.377 . S
C3616 C3618 1.384 . S
C3617 C3616 1.377 . S
C3617 C3623 1.390 . S
C3618 H3609 0.930 . S
C3618 C3616 1.384 . S
C3618 C3619 1.372 . S
C3619 C3618 1.372 . S
C3619 C3620 1.400 . S
C3619 C3624 1.490 . S
C3620 H3610 0.930 . S
C3620 C3619 1.400 . S
C3620 C3623 1.386 . S
H3621 C3637 0.930 . S
H3622 C3638 0.931 . S
C3623 H3611 0.929 . S
C3623 C3617 1.390 . S
C3623 C3620 1.386 . S
C3624 C3619 1.490 . S
C3624 C3626 1.395 . S
C3624 C3627 1.403 . S
H3625 C3631 0.930 . S
C3626 H3612 0.930 . S
C3626 C3624 1.395 . S
C3626 C3629 1.403 . S
C3627 C3624 1.403 . S
C3627 C3628 1.524 . S
C3627 C3631 1.400 . S
C3628 H3613 0.960 . S
C3628 H3614 0.960 . S
C3628 H3615 0.960 . S
C3628 C3627 1.524 . S
C3629 C3626 1.403 . S
C3629 C3630 1.392 . S
C3629 C3633 1.495 . S
C3630 C3629 1.392 . S
C3630 C3631 1.385 . S
C3630 C3632 1.478 . S
C3631 H3625 0.930 . S
C3631 C3627 1.400 . S
C3631 C3630 1.385 . S
C3632 C3630 1.478 . S
C3632 C3634 1.381 . S
C3632 C3638 1.383 . S
C3633 C3629 1.495 . S
C3633 H3639 0.959 . S
C3633 H3640 0.961 . S
C3633 H3641 0.960 . S
C3634 C3632 1.381 . S
C3634 C3635 1.394 . S
C3634 H3642 0.930 . S
C3635 C3634 1.394 . S
C3635 C3636 1.383 . S
C3635 H3643 0.929 . S
C3636 C3635 1.383 . S
C3636 C3637 1.377 . S
C3637 H3621 0.930 . S
C3637 C3636 1.377 . S
C3637 C3638 1.379 . S
C3638 H3622 0.931 . S
C3638 C3632 1.383 . S
C3638 C3637 1.379 . S
H3639 C3633 0.959 . S
H3640 C3633 0.961 . S
H3641 C3633 0.960 . S
H3642 C3634 0.930 . S
H3643 C3635 0.929 . S
H3644 C3652 0.929 . S
H3645 C3654 0.930 . S
H3646 C3656 0.930 . S
H3647 C3659 0.929 . S
H3648 C3662 0.930 . S
H3649 C3664 0.960 . S
H3650 C3664 0.960 . S
H3651 C3664 0.960 . S
C3652 H3644 0.929 . S
C3652 C3653 1.377 . S
C3652 C3654 1.384 . S
C3653 C3652 1.377 . S
C3653 C3659 1.390 . S
C3654 H3645 0.930 . S
C3654 C3652 1.384 . S
C3654 C3655 1.372 . S
C3655 C3654 1.372 . S
C3655 C3656 1.400 . S
C3655 C3660 1.490 . S
C3656 H3646 0.930 . S
C3656 C3655 1.400 . S
C3656 C3659 1.386 . S
H3657 C3673 0.930 . S
H3658 C3674 0.931 . S
C3659 H3647 0.929 . S
C3659 C3653 1.390 . S
C3659 C3656 1.386 . S
C3660 C3655 1.490 . S
C3660 C3662 1.395 1_554 S
C3660 C3663 1.403 1_565 S
H3661 C3667 0.930 . S
C3662 H3648 0.930 . S
C3662 C3660 1.395 1_556 S
C3662 C3665 1.403 1_455 S
C3663 C3660 1.403 1_545 S
C3663 C3664 1.524 . S
C3663 C3667 1.400 1_455 S
C3664 H3649 0.960 . S
C3664 H3650 0.960 . S
C3664 H3651 0.960 . S
C3664 C3663 1.524 . S
C3665 C3662 1.403 1_655 S
C3665 C3666 1.392 1_565 S
C3665 C3669 1.495 . S
C3666 C3665 1.392 1_545 S
C3666 C3667 1.385 1_556 S
C3666 C3668 1.478 . S
C3667 H3661 0.930 . S
C3667 C3663 1.400 1_655 S
C3667 C3666 1.385 1_554 S
C3668 C3666 1.478 . S
C3668 C3670 1.381 . S
C3668 C3674 1.383 . S
C3669 C3665 1.495 . S
C3669 H3675 0.959 . S
C3669 H3676 0.961 . S
C3669 H3677 0.960 . S
C3670 C3668 1.381 . S
C3670 C3671 1.394 . S
C3670 H3678 0.930 . S
C3671 C3670 1.394 . S
C3671 C3672 1.383 . S
C3671 H3679 0.929 . S
C3672 C3671 1.383 . S
C3672 C3673 1.377 . S
C3673 H3657 0.930 . S
C3673 C3672 1.377 . S
C3673 C3674 1.379 . S
C3674 H3658 0.931 . S
C3674 C3668 1.383 . S
C3674 C3673 1.379 . S
H3675 C3669 0.959 . S
H3676 C3669 0.961 . S
H3677 C3669 0.960 . S
H3678 C3670 0.930 . S
H3679 C3671 0.929 . S
H3680 C3688 0.929 . S
H3681 C3690 0.930 . S
H3682 C3692 0.930 . S
H3683 C3695 0.929 . S
H3684 C3698 0.930 . S
H3685 C3700 0.960 . S
H3686 C3700 0.960 . S
H3687 C3700 0.960 . S
C3688 H3680 0.929 . S
C3688 C3689 1.377 . S
C3688 C3690 1.384 . S
C3689 C3688 1.377 . S
C3689 C3695 1.390 . S
C3690 H3681 0.930 . S
C3690 C3688 1.384 . S
C3690 C3691 1.372 . S
C3691 C3690 1.372 . S
C3691 C3692 1.400 . S
C3691 C3696 1.490 . S
C3692 H3682 0.930 . S
C3692 C3691 1.400 . S
C3692 C3695 1.386 . S
H3693 C3709 0.930 . S
H3694 C3710 0.931 . S
C3695 H3683 0.929 . S
C3695 C3689 1.390 . S
C3695 C3692 1.386 . S
C3696 C3691 1.490 . S
C3696 C3698 1.395 . S
C3696 C3699 1.403 . S
H3697 C3703 0.930 . S
C3698 H3684 0.930 . S
C3698 C3696 1.395 . S
C3698 C3701 1.403 . S
C3699 C3696 1.403 . S
C3699 C3700 1.524 . S
C3699 C3703 1.400 . S
C3700 H3685 0.960 . S
C3700 H3686 0.960 . S
C3700 H3687 0.960 . S
C3700 C3699 1.524 . S
C3701 C3698 1.403 . S
C3701 C3702 1.392 . S
C3701 C3705 1.495 . S
C3702 C3701 1.392 . S
C3702 C3703 1.385 . S
C3702 C3704 1.478 . S
C3703 H3697 0.930 . S
C3703 C3699 1.400 . S
C3703 C3702 1.385 . S
C3704 C3702 1.478 . S
C3704 C3706 1.381 . S
C3704 C3710 1.383 . S
C3705 C3701 1.495 . S
C3705 H3711 0.959 . S
C3705 H3712 0.961 . S
C3705 H3713 0.960 . S
C3706 C3704 1.381 . S
C3706 C3707 1.394 . S
C3706 H3714 0.930 . S
C3707 C3706 1.394 . S
C3707 C3708 1.383 . S
C3707 H3715 0.929 . S
C3708 C3707 1.383 . S
C3708 C3709 1.377 . S
C3709 H3693 0.930 . S
C3709 C3708 1.377 . S
C3709 C3710 1.379 . S
C3710 H3694 0.931 . S
C3710 C3704 1.383 . S
C3710 C3709 1.379 . S
H3711 C3705 0.959 . S
H3712 C3705 0.961 . S
H3713 C3705 0.960 . S
H3714 C3706 0.930 . S
H3715 C3707 0.929 . S
H3716 C3724 0.929 . S
H3717 C3726 0.930 . S
H3718 C3728 0.930 . S
H3719 C3731 0.929 . S
H3720 C3734 0.930 . S
H3721 C3736 0.960 . S
H3722 C3736 0.960 . S
H3723 C3736 0.960 . S
C3724 H3716 0.929 . S
C3724 C3725 1.377 . S
C3724 C3726 1.384 . S
C3725 C3724 1.377 . S
C3725 C3731 1.390 . S
C3726 H3717 0.930 . S
C3726 C3724 1.384 . S
C3726 C3727 1.372 . S
C3727 C3726 1.372 . S
C3727 C3728 1.400 . S
C3727 C3732 1.490 . S
C3728 H3718 0.930 . S
C3728 C3727 1.400 . S
C3728 C3731 1.386 . S
H3729 C3745 0.930 . S
H3730 C3746 0.931 . S
C3731 H3719 0.929 . S
C3731 C3725 1.390 . S
C3731 C3728 1.386 . S
C3732 C3727 1.490 . S
C3732 C3734 1.395 . S
C3732 C3735 1.403 . S
H3733 C3739 0.930 . S
C3734 H3720 0.930 . S
C3734 C3732 1.395 . S
C3734 C3737 1.403 . S
C3735 C3732 1.403 . S
C3735 C3736 1.524 . S
C3735 C3739 1.400 . S
C3736 H3721 0.960 . S
C3736 H3722 0.960 . S
C3736 H3723 0.960 . S
C3736 C3735 1.524 . S
C3737 C3734 1.403 . S
C3737 C3738 1.392 . S
C3737 C3741 1.495 . S
C3738 C3737 1.392 . S
C3738 C3739 1.385 . S
C3738 C3740 1.478 . S
C3739 H3733 0.930 . S
C3739 C3735 1.400 . S
C3739 C3738 1.385 . S
C3740 C3738 1.478 . S
C3740 C3742 1.381 . S
C3740 C3746 1.383 . S
C3741 C3737 1.495 . S
C3741 H3747 0.959 . S
C3741 H3748 0.961 . S
C3741 H3749 0.960 . S
C3742 C3740 1.381 . S
C3742 C3743 1.394 . S
C3742 H3750 0.930 . S
C3743 C3742 1.394 . S
C3743 C3744 1.383 . S
C3743 H3751 0.929 . S
C3744 C3743 1.383 . S
C3744 C3745 1.377 . S
C3745 H3729 0.930 . S
C3745 C3744 1.377 . S
C3745 C3746 1.379 . S
C3746 H3730 0.931 . S
C3746 C3740 1.383 . S
C3746 C3745 1.379 . S
H3747 C3741 0.959 . S
H3748 C3741 0.961 . S
H3749 C3741 0.960 . S
H3750 C3742 0.930 . S
H3751 C3743 0.929 . S
H3752 C3760 0.929 . S
H3753 C3762 0.930 . S
H3754 C3764 0.930 . S
H3755 C3767 0.929 . S
H3756 C3770 0.930 . S
H3757 C3772 0.960 . S
H3758 C3772 0.960 . S
H3759 C3772 0.960 . S
C3760 H3752 0.929 . S
C3760 C3761 1.377 . S
C3760 C3762 1.384 . S
C3761 C3760 1.377 . S
C3761 C3767 1.390 . S
C3762 H3753 0.930 . S
C3762 C3760 1.384 . S
C3762 C3763 1.372 . S
C3763 C3762 1.372 . S
C3763 C3764 1.400 . S
C3763 C3768 1.490 . S
C3764 H3754 0.930 . S
C3764 C3763 1.400 . S
C3764 C3767 1.386 . S
H3765 C3781 0.930 . S
H3766 C3782 0.931 . S
C3767 H3755 0.929 . S
C3767 C3761 1.390 . S
C3767 C3764 1.386 . S
C3768 C3763 1.490 . S
C3768 C3770 1.395 . S
C3768 C3771 1.403 . S
H3769 C3775 0.930 . S
C3770 H3756 0.930 . S
C3770 C3768 1.395 . S
C3770 C3773 1.403 . S
C3771 C3768 1.403 . S
C3771 C3772 1.524 . S
C3771 C3775 1.400 . S
C3772 H3757 0.960 . S
C3772 H3758 0.960 . S
C3772 H3759 0.960 . S
C3772 C3771 1.524 . S
C3773 C3770 1.403 . S
C3773 C3774 1.392 . S
C3773 C3777 1.495 . S
C3774 C3773 1.392 . S
C3774 C3775 1.385 . S
C3774 C3776 1.478 . S
C3775 H3769 0.930 . S
C3775 C3771 1.400 . S
C3775 C3774 1.385 . S
C3776 C3774 1.478 . S
C3776 C3778 1.381 . S
C3776 C3782 1.383 . S
C3777 C3773 1.495 . S
C3777 H3783 0.959 . S
C3777 H3784 0.961 . S
C3777 H3785 0.960 . S
C3778 C3776 1.381 . S
C3778 C3779 1.394 . S
C3778 H3786 0.930 . S
C3779 C3778 1.394 . S
C3779 C3780 1.383 . S
C3779 H3787 0.929 . S
C3780 C3779 1.383 . S
C3780 C3781 1.377 . S
C3781 H3765 0.930 . S
C3781 C3780 1.377 . S
C3781 C3782 1.379 . S
C3782 H3766 0.931 . S
C3782 C3776 1.383 . S
C3782 C3781 1.379 . S
H3783 C3777 0.959 . S
H3784 C3777 0.961 . S
H3785 C3777 0.960 . S
H3786 C3778 0.930 . S
H3787 C3779 0.929 . S
H3788 C3796 0.929 . S
H3789 C3798 0.930 . S
H3790 C3800 0.930 . S
H3791 C3803 0.929 . S
H3792 C3806 0.930 . S
H3793 C3808 0.960 . S
H3794 C3808 0.960 . S
H3795 C3808 0.960 . S
C3796 H3788 0.929 . S
C3796 C3797 1.377 . S
C3796 C3798 1.384 . S
C3797 C3796 1.377 . S
C3797 C3803 1.390 . S
C3798 H3789 0.930 . S
C3798 C3796 1.384 . S
C3798 C3799 1.372 . S
C3799 C3798 1.372 . S
C3799 C3800 1.400 . S
C3799 C3804 1.490 . S
C3800 H3790 0.930 . S
C3800 C3799 1.400 . S
C3800 C3803 1.386 . S
H3801 C3817 0.930 . S
H3802 C3818 0.931 . S
C3803 H3791 0.929 . S
C3803 C3797 1.390 . S
C3803 C3800 1.386 . S
C3804 C3799 1.490 . S
C3804 C3806 1.395 . S
C3804 C3807 1.403 . S
H3805 C3811 0.930 . S
C3806 H3792 0.930 . S
C3806 C3804 1.395 . S
C3806 C3809 1.403 . S
C3807 C3804 1.403 . S
C3807 C3808 1.524 . S
C3807 C3811 1.400 . S
C3808 H3793 0.960 . S
C3808 H3794 0.960 . S
C3808 H3795 0.960 . S
C3808 C3807 1.524 . S
C3809 C3806 1.403 . S
C3809 C3810 1.392 . S
C3809 C3813 1.495 . S
C3810 C3809 1.392 . S
C3810 C3811 1.385 . S
C3810 C3812 1.478 . S
C3811 H3805 0.930 . S
C3811 C3807 1.400 . S
C3811 C3810 1.385 . S
C3812 C3810 1.478 . S
C3812 C3814 1.381 . S
C3812 C3818 1.383 . S
C3813 C3809 1.495 . S
C3813 H3819 0.959 . S
C3813 H3820 0.961 . S
C3813 H3821 0.960 . S
C3814 C3812 1.381 . S
C3814 C3815 1.394 . S
C3814 H3822 0.930 . S
C3815 C3814 1.394 . S
C3815 C3816 1.383 . S
C3815 H3823 0.929 . S
C3816 C3815 1.383 . S
C3816 C3817 1.377 . S
C3817 H3801 0.930 . S
C3817 C3816 1.377 . S
C3817 C3818 1.379 . S
C3818 H3802 0.931 . S
C3818 C3812 1.383 . S
C3818 C3817 1.379 . S
H3819 C3813 0.959 . S
H3820 C3813 0.961 . S
H3821 C3813 0.960 . S
H3822 C3814 0.930 . S
H3823 C3815 0.929 . S
H3824 C3832 0.929 . S
H3825 C3834 0.930 . S
H3826 C3836 0.930 . S
H3827 C3839 0.929 . S
H3828 C3842 0.930 . S
H3829 C3844 0.960 . S
H3830 C3844 0.960 1_554 S
H3831 C3844 0.960 . S
C3832 H3824 0.929 . S
C3832 C3833 1.377 . S
C3832 C3834 1.384 . S
C3833 C3832 1.377 . S
C3833 C3839 1.390 . S
C3834 H3825 0.930 . S
C3834 C3832 1.384 . S
C3834 C3835 1.372 . S
C3835 C3834 1.372 . S
C3835 C3836 1.400 . S
C3835 C3840 1.490 . S
C3836 H3826 0.930 . S
C3836 C3835 1.400 . S
C3836 C3839 1.386 . S
H3837 C3853 0.930 . S
H3838 C3854 0.931 . S
C3839 H3827 0.929 . S
C3839 C3833 1.390 . S
C3839 C3836 1.386 . S
C3840 C3835 1.490 . S
C3840 C3842 1.395 . S
C3840 C3843 1.403 1_554 S
H3841 C3847 0.930 . S
C3842 H3828 0.930 . S
C3842 C3840 1.395 . S
C3842 C3845 1.403 . S
C3843 C3840 1.403 1_556 S
C3843 C3844 1.524 . S
C3843 C3847 1.400 . S
C3844 H3829 0.960 . S
C3844 H3830 0.960 1_556 S
C3844 H3831 0.960 . S
C3844 C3843 1.524 . S
C3845 C3842 1.403 . S
C3845 C3846 1.392 1_554 S
C3845 C3849 1.495 . S
C3846 C3845 1.392 1_556 S
C3846 C3847 1.385 . S
C3846 C3848 1.478 . S
C3847 H3841 0.930 . S
C3847 C3843 1.400 . S
C3847 C3846 1.385 . S
C3848 C3846 1.478 . S
C3848 C3850 1.381 . S
C3848 C3854 1.383 . S
C3849 C3845 1.495 . S
C3849 H3855 0.959 . S
C3849 H3856 0.961 . S
C3849 H3857 0.960 . S
C3850 C3848 1.381 . S
C3850 C3851 1.394 . S
C3850 H3858 0.930 . S
C3851 C3850 1.394 . S
C3851 C3852 1.383 . S
C3851 H3859 0.929 . S
C3852 C3851 1.383 . S
C3852 C3853 1.377 . S
C3853 H3837 0.930 . S
C3853 C3852 1.377 . S
C3853 C3854 1.379 . S
C3854 H3838 0.931 . S
C3854 C3848 1.383 . S
C3854 C3853 1.379 . S
H3855 C3849 0.959 . S
H3856 C3849 0.961 . S
H3857 C3849 0.960 . S
H3858 C3850 0.930 . S
H3859 C3851 0.929 . S
H3860 C3868 0.929 . S
H3861 C3870 0.930 . S
H3862 C3872 0.930 . S
H3863 C3875 0.929 . S
H3864 C3878 0.930 . S
H3865 C3880 0.960 . S
H3866 C3880 0.960 . S
H3867 C3880 0.960 . S
C3868 H3860 0.929 . S
C3868 C3869 1.377 . S
C3868 C3870 1.384 . S
C3869 C3868 1.377 . S
C3869 C3875 1.390 . S
C3870 H3861 0.930 . S
C3870 C3868 1.384 . S
C3870 C3871 1.372 . S
C3871 C3870 1.372 . S
C3871 C3872 1.400 . S
C3871 C3876 1.490 . S
C3872 H3862 0.930 . S
C3872 C3871 1.400 . S
C3872 C3875 1.386 . S
H3873 C3889 0.930 . S
H3874 C3890 0.931 . S
C3875 H3863 0.929 . S
C3875 C3869 1.390 . S
C3875 C3872 1.386 . S
C3876 C3871 1.490 . S
C3876 C3878 1.395 . S
C3876 C3879 1.403 1_455 S
H3877 C3883 0.930 . S
C3878 H3864 0.930 . S
C3878 C3876 1.395 . S
C3878 C3881 1.403 . S
C3879 C3876 1.403 1_655 S
C3879 C3880 1.524 . S
C3879 C3883 1.400 . S
C3880 H3865 0.960 . S
C3880 H3866 0.960 . S
C3880 H3867 0.960 . S
C3880 C3879 1.524 . S
C3881 C3878 1.403 . S
C3881 C3882 1.392 1_455 S
C3881 C3885 1.495 . S
C3882 C3881 1.392 1_655 S
C3882 C3883 1.385 . S
C3882 C3884 1.478 . S
C3883 H3877 0.930 . S
C3883 C3879 1.400 . S
C3883 C3882 1.385 . S
C3884 C3882 1.478 . S
C3884 C3886 1.381 . S
C3884 C3890 1.383 . S
C3885 C3881 1.495 . S
C3885 H3891 0.959 . S
C3885 H3892 0.961 . S
C3885 H3893 0.960 . S
C3886 C3884 1.381 . S
C3886 C3887 1.394 . S
C3886 H3894 0.930 . S
C3887 C3886 1.394 . S
C3887 C3888 1.383 . S
C3887 H3895 0.929 . S
C3888 C3887 1.383 . S
C3888 C3889 1.377 . S
C3889 H3873 0.930 . S
C3889 C3888 1.377 . S
C3889 C3890 1.379 . S
C3890 H3874 0.931 . S
C3890 C3884 1.383 . S
C3890 C3889 1.379 . S
H3891 C3885 0.959 . S
H3892 C3885 0.961 . S
H3893 C3885 0.960 . S
H3894 C3886 0.930 . S
H3895 C3887 0.929 . S
H3896 C3904 0.929 . S
H3897 C3906 0.930 . S
H3898 C3908 0.930 . S
H3899 C3911 0.929 . S
H3900 C3914 0.930 . S
H3901 C3916 0.960 . S
H3902 C3916 0.960 . S
H3903 C3916 0.960 . S
C3904 H3896 0.929 . S
C3904 C3905 1.377 . S
C3904 C3906 1.384 . S
C3905 C3904 1.377 . S
C3905 C3911 1.390 . S
C3906 H3897 0.930 . S
C3906 C3904 1.384 . S
C3906 C3907 1.372 . S
C3907 C3906 1.372 . S
C3907 C3908 1.400 . S
C3907 C3912 1.490 . S
C3908 H3898 0.930 . S
C3908 C3907 1.400 . S
C3908 C3911 1.386 . S
H3909 C3925 0.930 . S
H3910 C3926 0.931 . S
C3911 H3899 0.929 . S
C3911 C3905 1.390 . S
C3911 C3908 1.386 . S
C3912 C3907 1.490 . S
C3912 C3914 1.395 . S
C3912 C3915 1.403 1_556 S
H3913 C3919 0.930 . S
C3914 H3900 0.930 . S
C3914 C3912 1.395 . S
C3914 C3917 1.403 1_455 S
C3915 C3912 1.403 1_554 S
C3915 C3916 1.524 . S
C3915 C3919 1.400 1_455 S
C3916 H3901 0.960 . S
C3916 H3902 0.960 . S
C3916 H3903 0.960 . S
C3916 C3915 1.524 . S
C3917 C3914 1.403 1_655 S
C3917 C3918 1.392 1_556 S
C3917 C3921 1.495 . S
C3918 C3917 1.392 1_554 S
C3918 C3919 1.385 . S
C3918 C3920 1.478 . S
C3919 H3913 0.930 . S
C3919 C3915 1.400 1_655 S
C3919 C3918 1.385 . S
C3920 C3918 1.478 . S
C3920 C3922 1.381 . S
C3920 C3926 1.383 . S
C3921 C3917 1.495 . S
C3921 H3927 0.959 . S
C3921 H3928 0.961 . S
C3921 H3929 0.960 . S
C3922 C3920 1.381 . S
C3922 C3923 1.394 . S
C3922 H3930 0.930 . S
C3923 C3922 1.394 . S
C3923 C3924 1.383 . S
C3923 H3931 0.929 . S
C3924 C3923 1.383 . S
C3924 C3925 1.377 . S
C3925 H3909 0.930 . S
C3925 C3924 1.377 . S
C3925 C3926 1.379 . S
C3926 H3910 0.931 . S
C3926 C3920 1.383 . S
C3926 C3925 1.379 . S
H3927 C3921 0.959 . S
H3928 C3921 0.961 . S
H3929 C3921 0.960 . S
H3930 C3922 0.930 . S
H3931 C3923 0.929 . S
H3932 C3940 0.929 . S
H3933 C3942 0.930 . S
H3934 C3944 0.930 . S
H3935 C3947 0.929 . S
H3936 C3950 0.930 . S
H3937 C3952 0.960 . S
H3938 C3952 0.960 . S
H3939 C3952 0.960 . S
C3940 H3932 0.929 . S
C3940 C3941 1.377 . S
C3940 C3942 1.384 . S
C3941 C3940 1.377 . S
C3941 C3947 1.390 . S
C3942 H3933 0.930 . S
C3942 C3940 1.384 . S
C3942 C3943 1.372 . S
C3943 C3942 1.372 . S
C3943 C3944 1.400 . S
C3943 C3948 1.490 . S
C3944 H3934 0.930 . S
C3944 C3943 1.400 . S
C3944 C3947 1.386 . S
H3945 C3961 0.930 . S
H3946 C3962 0.931 . S
C3947 H3935 0.929 . S
C3947 C3941 1.390 . S
C3947 C3944 1.386 . S
C3948 C3943 1.490 . S
C3948 C3950 1.395 . S
C3948 C3951 1.403 . S
H3949 C3955 0.930 . S
C3950 H3936 0.930 . S
C3950 C3948 1.395 . S
C3950 C3953 1.403 . S
C3951 C3948 1.403 . S
C3951 C3952 1.524 . S
C3951 C3955 1.400 . S
C3952 H3937 0.960 . S
C3952 H3938 0.960 . S
C3952 H3939 0.960 . S
C3952 C3951 1.524 . S
C3953 C3950 1.403 . S
C3953 C3954 1.392 . S
C3953 C3957 1.495 . S
C3954 C3953 1.392 . S
C3954 C3955 1.385 . S
C3954 C3956 1.478 . S
C3955 H3949 0.930 . S
C3955 C3951 1.400 . S
C3955 C3954 1.385 . S
C3956 C3954 1.478 . S
C3956 C3958 1.381 . S
C3956 C3962 1.383 . S
C3957 C3953 1.495 . S
C3957 H3963 0.959 . S
C3957 H3964 0.961 . S
C3957 H3965 0.960 . S
C3958 C3956 1.381 . S
C3958 C3959 1.394 . S
C3958 H3966 0.930 . S
C3959 C3958 1.394 . S
C3959 C3960 1.383 . S
C3959 H3967 0.929 . S
C3960 C3959 1.383 . S
C3960 C3961 1.377 . S
C3961 H3945 0.930 . S
C3961 C3960 1.377 . S
C3961 C3962 1.379 . S
C3962 H3946 0.931 . S
C3962 C3956 1.383 . S
C3962 C3961 1.379 . S
H3963 C3957 0.959 . S
H3964 C3957 0.961 . S
H3965 C3957 0.960 . S
H3966 C3958 0.930 . S
H3967 C3959 0.929 . S
C1097 C617 0.594 . S
C1116 C5 0.596 . S
C1133 C39 0.596 . S
C1152 C651 0.610 . S
C1169 C73 0.574 . S
C1188 C549 0.544 . S
C1205 C583 0.577 . S
C1224 C107 0.532 . S
C1241 C141 0.597 . S
C1260 C753 0.626 . S
C1277 C787 0.581 . S
C1296 C175 0.604 . S
C1313 C209 0.594 . S
C1332 C685 0.596 . S
C1349 C243 0.587 . S
C1368 C719 0.558 . S
C1385 C277 0.578 . S
C1404 C889 0.632 . S
C1421 C923 0.576 . S
C1440 C311 0.621 . S
C1457 C345 0.588 . S
C1476 C821 0.562 . S
C1493 C379 0.580 . S
C1512 C855 0.624 . S
C1529 C413 0.580 . S
C1548 C1025 0.626 . S
C1565 C1059 0.595 . S
C1584 C447 0.536 . S
C1601 C957 0.595 . S
C1620 C481 0.552 . S
C1637 C991 0.583 . S
C1656 C515 0.614 . S
C1673 C407 0.775 . S
C1692 C2 0.804 . S
C1709 C849 0.779 . S
C1728 C36 0.773 . S
C1745 C70 0.764 . S
C1764 C339 0.791 . S
C1781 C917 0.772 . S
C1800 C104 0.817 . S
C1817 C475 0.772 . S
C1836 C138 0.774 . S
C1853 C172 0.764 . S
C1872 C1053 0.777 . S
C1889 C543 0.772 . S
C1908 C206 0.761 . S
C1925 C985 0.773 . S
C1944 C240 0.746 . S
C1961 C135 0.774 . S
C1980 C274 0.731 . S
C1997 C308 0.780 . S
C2016 C577 0.783 . S
C2033 C342 0.780 . S
C2052 C67 0.782 . S
C2069 C645 0.777 . S
C2088 C376 0.730 . S
C2105 C410 0.771 . S
C2124 C203 0.757 . S
C2141 C781 0.771 . S
C2160 C444 0.789 . S
C2177 C478 0.781 . S
C2196 C271 0.779 . S
C2213 C512 0.770 . S
C2232 C713 0.794 . S
C2249 C951 0.771 . S
C2268 C546 0.805 . S
C2285 C580 0.781 . S
C2304 C305 0.758 . S
C2321 C614 0.764 . S
C2340 C883 0.776 . S
C2357 C373 0.771 . S
C2376 C648 0.796 . S
C2393 C682 0.764 . S
C2412 C1019 0.777 . S
C2429 C716 0.768 . S
C2448 C509 0.766 . S
C2465 C1087 0.773 . S
C2484 C750 0.752 . S
C2501 C441 0.771 . S
C2520 C784 0.783 . S
C2537 C679 0.779 . S
C2556 C818 0.739 . S
C2573 C852 0.777 . S
C2592 C33 0.786 . S
C2609 C886 0.773 . S
C2628 C611 0.792 . S
C2645 C101 0.776 . S
C2664 C920 0.727 . S
C2681 C954 0.776 . S
C2700 C747 0.788 . S
C2717 C988 0.767 . S
C2736 C237 0.764 . S
C2753 C815 0.778 . S
C2772 C1022 0.734 . S
C2789 C169 0.776 . S
C2808 C1056 0.813 . S
C2825 C247 1.914 . S
C2844 C9 1.923 . S
C2861 C145 1.918 . S
C2880 C43 1.886 . S
C2897 C77 1.918 . S
C2916 C179 1.899 . S
C2933 C213 1.912 . S
C2952 C111 1.930 . S
C2969 C519 1.915 . S
C2988 C281 1.911 . S
C3005 C315 1.918 . S
C3024 C417 1.933 . S
C3041 C451 1.909 . S
C3060 C349 1.886 . S
C3077 C485 1.917 . S
C3096 C383 1.918 . S
C3113 C791 1.916 . S
C3132 C553 1.919 . S
C3149 C689 1.917 . S
C3168 C587 1.886 . S
C3185 C723 1.909 . S
C3204 C621 1.933 . S
C3221 C757 1.913 . S
C3240 C655 1.895 . S
C3257 C825 1.912 . S
C3276 C1063 1.895 . S
C3293 C859 1.914 . S
C3312 C961 1.918 . S
C3329 C893 1.909 . S
C3348 C995 1.887 . S
C3365 C1029 1.915 . S
C3384 C927 1.924 . S
C3401 C20 1.647 . S
C3420 C836 1.657 . S
C3437 C326 1.642 . S
C3456 C54 1.620 . S
C3473 C904 1.643 . S
C3492 C88 1.622 . S
C3509 C122 1.639 . S
C3528 C394 1.635 . S
C3545 C156 1.646 . S
C3564 C972 1.660 . S
C3581 C190 1.643 . S
C3600 C462 1.621 . S
C3617 C1040 1.640 . S
C3636 C224 1.638 . S
C3653 C258 1.647 . S
C3672 C530 1.635 . S
C3689 C564 1.647 . S
C3708 C292 1.637 . S
C3725 C632 1.642 . S
C3744 C360 1.654 . S
C3761 C428 1.647 . S
C3780 C700 1.658 . S
C3797 C496 1.639 . S
C3816 C768 1.630 . S
C3833 C870 1.645 . S
C3852 C598 1.661 . S
C3869 C938 1.641 . S
C3888 C666 1.620 . S
C3905 C1006 1.648 . S
C3924 C734 1.648 . S
C3941 C1074 1.639 . S
C3960 C802 1.637 . S
