# Generated by pormake.
# Topology umn, (4)-cn, num edge types: 1
# Building blocks:
#     Node 0, Type 0, BuildingBlock: CEKHIL_clean_sbu_0, # of connection points: 4
#     Node 1, Type 0, BuildingBlock: CEKHIL_clean_sbu_0, # of connection points: 4
#     Node 2, Type 0, BuildingBlock: CEKHIL_clean_sbu_0, # of connection points: 4
#     Node 3, Type 0, BuildingBlock: CEKHIL_clean_sbu_0, # of connection points: 4
#     Node 4, Type 0, BuildingBlock: CEKHIL_clean_sbu_0, # of connection points: 4
#     Node 5, Type 0, BuildingBlock: CEKHIL_clean_sbu_0, # of connection points: 4
#     Node 6, Type 0, BuildingBlock: CEKHIL_clean_sbu_0, # of connection points: 4
#     Node 7, Type 0, BuildingBlock: CEKHIL_clean_sbu_0, # of connection points: 4
#     Node 8, Type 0, BuildingBlock: CEKHIL_clean_sbu_0, # of connection points: 4
#     Node 9, Type 0, BuildingBlock: CEKHIL_clean_sbu_0, # of connection points: 4
#     Node 10, Type 0, BuildingBlock: CEKHIL_clean_sbu_0, # of connection points: 4
#     Node 11, Type 0, BuildingBlock: CEKHIL_clean_sbu_0, # of connection points: 4
#     Node 12, Type 0, BuildingBlock: CEKHIL_clean_sbu_0, # of connection points: 4
#     Node 13, Type 0, BuildingBlock: CEKHIL_clean_sbu_0, # of connection points: 4
#     Node 14, Type 0, BuildingBlock: CEKHIL_clean_sbu_0, # of connection points: 4
#     Node 15, Type 0, BuildingBlock: CEKHIL_clean_sbu_0, # of connection points: 4
#     Node 16, Type 0, BuildingBlock: CEKHIL_clean_sbu_0, # of connection points: 4
#     Node 17, Type 0, BuildingBlock: CEKHIL_clean_sbu_0, # of connection points: 4
#     Node 18, Type 0, BuildingBlock: CEKHIL_clean_sbu_0, # of connection points: 4
#     Node 19, Type 0, BuildingBlock: CEKHIL_clean_sbu_0, # of connection points: 4
#     Node 20, Type 0, BuildingBlock: CEKHIL_clean_sbu_0, # of connection points: 4
#     Node 21, Type 0, BuildingBlock: CEKHIL_clean_sbu_0, # of connection points: 4
#     Node 22, Type 0, BuildingBlock: CEKHIL_clean_sbu_0, # of connection points: 4
#     Node 23, Type 0, BuildingBlock: CEKHIL_clean_sbu_0, # of connection points: 4
#     Node 24, Type 0, BuildingBlock: CEKHIL_clean_sbu_0, # of connection points: 4
#     Node 25, Type 0, BuildingBlock: CEKHIL_clean_sbu_0, # of connection points: 4
#     Node 26, Type 0, BuildingBlock: CEKHIL_clean_sbu_0, # of connection points: 4
#     Node 27, Type 0, BuildingBlock: CEKHIL_clean_sbu_0, # of connection points: 4
#     Node 28, Type 0, BuildingBlock: CEKHIL_clean_sbu_0, # of connection points: 4
#     Node 29, Type 0, BuildingBlock: CEKHIL_clean_sbu_0, # of connection points: 4
#     Node 30, Type 0, BuildingBlock: CEKHIL_clean_sbu_0, # of connection points: 4
#     Node 31, Type 0, BuildingBlock: CEKHIL_clean_sbu_0, # of connection points: 4
#     Node 32, Type 0, BuildingBlock: CEKHIL_clean_sbu_0, # of connection points: 4
#     Node 33, Type 0, BuildingBlock: CEKHIL_clean_sbu_0, # of connection points: 4
#     Node 34, Type 0, BuildingBlock: CEKHIL_clean_sbu_0, # of connection points: 4
#     Node 35, Type 0, BuildingBlock: CEKHIL_clean_sbu_0, # of connection points: 4
#     Edge 36, Type (0, 0), BuildingBlock: MIFKUJ_clean_linker_0, # of connection points: 2
#     Edge 37, Type (0, 0), BuildingBlock: MIFKUJ_clean_linker_0, # of connection points: 2
#     Edge 38, Type (0, 0), BuildingBlock: MIFKUJ_clean_linker_0, # of connection points: 2
#     Edge 39, Type (0, 0), BuildingBlock: MIFKUJ_clean_linker_0, # of connection points: 2
#     Edge 40, Type (0, 0), BuildingBlock: MIFKUJ_clean_linker_0, # of connection points: 2
#     Edge 41, Type (0, 0), BuildingBlock: MIFKUJ_clean_linker_0, # of connection points: 2
#     Edge 42, Type (0, 0), BuildingBlock: MIFKUJ_clean_linker_0, # of connection points: 2
#     Edge 43, Type (0, 0), BuildingBlock: MIFKUJ_clean_linker_0, # of connection points: 2
#     Edge 44, Type (0, 0), BuildingBlock: MIFKUJ_clean_linker_0, # of connection points: 2
#     Edge 45, Type (0, 0), BuildingBlock: MIFKUJ_clean_linker_0, # of connection points: 2
#     Edge 46, Type (0, 0), BuildingBlock: MIFKUJ_clean_linker_0, # of connection points: 2
#     Edge 47, Type (0, 0), BuildingBlock: MIFKUJ_clean_linker_0, # of connection points: 2
#     Edge 48, Type (0, 0), BuildingBlock: MIFKUJ_clean_linker_0, # of connection points: 2
#     Edge 49, Type (0, 0), BuildingBlock: MIFKUJ_clean_linker_0, # of connection points: 2
#     Edge 50, Type (0, 0), BuildingBlock: MIFKUJ_clean_linker_0, # of connection points: 2
#     Edge 51, Type (0, 0), BuildingBlock: MIFKUJ_clean_linker_0, # of connection points: 2
#     Edge 52, Type (0, 0), BuildingBlock: MIFKUJ_clean_linker_0, # of connection points: 2
#     Edge 53, Type (0, 0), BuildingBlock: MIFKUJ_clean_linker_0, # of connection points: 2
#     Edge 54, Type (0, 0), BuildingBlock: MIFKUJ_clean_linker_0, # of connection points: 2
#     Edge 55, Type (0, 0), BuildingBlock: MIFKUJ_clean_linker_0, # of connection points: 2
#     Edge 56, Type (0, 0), BuildingBlock: MIFKUJ_clean_linker_0, # of connection points: 2
#     Edge 57, Type (0, 0), BuildingBlock: MIFKUJ_clean_linker_0, # of connection points: 2
#     Edge 58, Type (0, 0), BuildingBlock: MIFKUJ_clean_linker_0, # of connection points: 2
#     Edge 59, Type (0, 0), BuildingBlock: MIFKUJ_clean_linker_0, # of connection points: 2
#     Edge 60, Type (0, 0), BuildingBlock: MIFKUJ_clean_linker_0, # of connection points: 2
#     Edge 61, Type (0, 0), BuildingBlock: MIFKUJ_clean_linker_0, # of connection points: 2
#     Edge 62, Type (0, 0), BuildingBlock: MIFKUJ_clean_linker_0, # of connection points: 2
#     Edge 63, Type (0, 0), BuildingBlock: MIFKUJ_clean_linker_0, # of connection points: 2
#     Edge 64, Type (0, 0), BuildingBlock: MIFKUJ_clean_linker_0, # of connection points: 2
#     Edge 65, Type (0, 0), BuildingBlock: MIFKUJ_clean_linker_0, # of connection points: 2
#     Edge 66, Type (0, 0), BuildingBlock: MIFKUJ_clean_linker_0, # of connection points: 2
#     Edge 67, Type (0, 0), BuildingBlock: MIFKUJ_clean_linker_0, # of connection points: 2
#     Edge 68, Type (0, 0), BuildingBlock: MIFKUJ_clean_linker_0, # of connection points: 2
#     Edge 69, Type (0, 0), BuildingBlock: MIFKUJ_clean_linker_0, # of connection points: 2
#     Edge 70, Type (0, 0), BuildingBlock: MIFKUJ_clean_linker_0, # of connection points: 2
#     Edge 71, Type (0, 0), BuildingBlock: MIFKUJ_clean_linker_0, # of connection points: 2
#     Edge 72, Type (0, 0), BuildingBlock: MIFKUJ_clean_linker_0, # of connection points: 2
#     Edge 73, Type (0, 0), BuildingBlock: MIFKUJ_clean_linker_0, # of connection points: 2
#     Edge 74, Type (0, 0), BuildingBlock: MIFKUJ_clean_linker_0, # of connection points: 2
#     Edge 75, Type (0, 0), BuildingBlock: MIFKUJ_clean_linker_0, # of connection points: 2
#     Edge 76, Type (0, 0), BuildingBlock: MIFKUJ_clean_linker_0, # of connection points: 2
#     Edge 77, Type (0, 0), BuildingBlock: MIFKUJ_clean_linker_0, # of connection points: 2
#     Edge 78, Type (0, 0), BuildingBlock: MIFKUJ_clean_linker_0, # of connection points: 2
#     Edge 79, Type (0, 0), BuildingBlock: MIFKUJ_clean_linker_0, # of connection points: 2
#     Edge 80, Type (0, 0), BuildingBlock: MIFKUJ_clean_linker_0, # of connection points: 2
#     Edge 81, Type (0, 0), BuildingBlock: MIFKUJ_clean_linker_0, # of connection points: 2
#     Edge 82, Type (0, 0), BuildingBlock: MIFKUJ_clean_linker_0, # of connection points: 2
#     Edge 83, Type (0, 0), BuildingBlock: MIFKUJ_clean_linker_0, # of connection points: 2
#     Edge 84, Type (0, 0), BuildingBlock: MIFKUJ_clean_linker_0, # of connection points: 2
#     Edge 85, Type (0, 0), BuildingBlock: MIFKUJ_clean_linker_0, # of connection points: 2
#     Edge 86, Type (0, 0), BuildingBlock: MIFKUJ_clean_linker_0, # of connection points: 2
#     Edge 87, Type (0, 0), BuildingBlock: MIFKUJ_clean_linker_0, # of connection points: 2
#     Edge 88, Type (0, 0), BuildingBlock: MIFKUJ_clean_linker_0, # of connection points: 2
#     Edge 89, Type (0, 0), BuildingBlock: MIFKUJ_clean_linker_0, # of connection points: 2
#     Edge 90, Type (0, 0), BuildingBlock: MIFKUJ_clean_linker_0, # of connection points: 2
#     Edge 91, Type (0, 0), BuildingBlock: MIFKUJ_clean_linker_0, # of connection points: 2
#     Edge 92, Type (0, 0), BuildingBlock: MIFKUJ_clean_linker_0, # of connection points: 2
#     Edge 93, Type (0, 0), BuildingBlock: MIFKUJ_clean_linker_0, # of connection points: 2
#     Edge 94, Type (0, 0), BuildingBlock: MIFKUJ_clean_linker_0, # of connection points: 2
#     Edge 95, Type (0, 0), BuildingBlock: MIFKUJ_clean_linker_0, # of connection points: 2
#     Edge 96, Type (0, 0), BuildingBlock: MIFKUJ_clean_linker_0, # of connection points: 2
#     Edge 97, Type (0, 0), BuildingBlock: MIFKUJ_clean_linker_0, # of connection points: 2
#     Edge 98, Type (0, 0), BuildingBlock: MIFKUJ_clean_linker_0, # of connection points: 2
#     Edge 99, Type (0, 0), BuildingBlock: MIFKUJ_clean_linker_0, # of connection points: 2
#     Edge 100, Type (0, 0), BuildingBlock: MIFKUJ_clean_linker_0, # of connection points: 2
#     Edge 101, Type (0, 0), BuildingBlock: MIFKUJ_clean_linker_0, # of connection points: 2
#     Edge 102, Type (0, 0), BuildingBlock: MIFKUJ_clean_linker_0, # of connection points: 2
#     Edge 103, Type (0, 0), BuildingBlock: MIFKUJ_clean_linker_0, # of connection points: 2
#     Edge 104, Type (0, 0), BuildingBlock: MIFKUJ_clean_linker_0, # of connection points: 2
#     Edge 105, Type (0, 0), BuildingBlock: MIFKUJ_clean_linker_0, # of connection points: 2
#     Edge 106, Type (0, 0), BuildingBlock: MIFKUJ_clean_linker_0, # of connection points: 2
#     Edge 107, Type (0, 0), BuildingBlock: MIFKUJ_clean_linker_0, # of connection points: 2
# Relax obj value: 0.180
# Max RMSD: 0.211
# Mean RMSD: 0.211
data_MOF--net-umn--node1-CEKHIL_clean_sbu_0--edge1-MIFKUJ_clean_linker_0
_symmetry_space_group_name_H-M    P1
_symmetry_Int_Tables_number       1
_symmetry_cell_setting            triclinic
loop_
_symmetry_equiv_pos_as_xyz
'x, y, z'
_cell_length_a     105.43682
_cell_length_b     105.44781
_cell_length_c     47.56661
_cell_angle_alpha  89.989804
_cell_angle_beta   89.993353
_cell_angle_gamma 119.98565
loop_
_atom_site_label
_atom_site_type_symbol
_atom_site_fract_x
_atom_site_fract_y
_atom_site_fract_z
_atom_type_partial_charge
Co0 Co 0.3687 0.10419 0.23272 0.0
O1 O 0.37372 0.12429 0.22846 0.0
O2 O 0.35111 0.10532 0.22929 0.0
C3 C 0.38447 0.10425 0.20052 0.0
O4 O 0.35924 0.08213 0.23566 0.0
Co5 Co 0.391 0.09612 0.25576 0.0
O6 O 0.37698 0.07646 0.24089 0.0
C7 C 0.37316 0.10202 0.29589 0.0
C8 C 0.35973 0.11937 0.22664 0.0
C9 C 0.36365 0.07277 0.23664 0.0
O10 O 0.3677 0.10543 0.275 0.0
O11 O 0.38297 0.09834 0.29284 0.0
O12 O 0.37203 0.10287 0.19305 0.0
O13 O 0.38791 0.10732 0.22685 0.0
Co14 Co 0.89068 0.26212 0.23245 0.0
O15 O 0.87043 0.24695 0.23244 0.0
O16 O 0.88942 0.24339 0.22929 0.0
C17 C 0.88889 0.27698 0.20046 0.0
O18 O 0.91277 0.27461 0.23049 0.0
Co19 Co 0.90043 0.29314 0.25389 0.0
O20 O 0.91904 0.2982 0.23466 0.0
C21 C 0.89559 0.27024 0.29514 0.0
C22 C 0.87531 0.23788 0.22943 0.0
C23 C 0.92228 0.28831 0.22939 0.0
O24 O 0.89174 0.26108 0.27469 0.0
O25 O 0.89911 0.28366 0.29156 0.0
O26 O 0.88956 0.26552 0.19284 0.0
O27 O 0.8875 0.2782 0.22734 0.0
Co28 Co 0.73424 0.62982 0.22962 0.0
O29 O 0.75058 0.62662 0.22613 0.0
O30 O 0.75184 0.6482 0.22281 0.0
C31 C 0.71863 0.61177 0.20045 0.0
O32 O 0.71986 0.63722 0.23091 0.0
Co33 Co 0.70605 0.60637 0.25861 0.0
O34 O 0.69809 0.61881 0.24531 0.0
C35 C 0.73047 0.62699 0.2942 0.0
C36 C 0.75847 0.64061 0.22162 0.0
C37 C 0.70614 0.63177 0.23607 0.0
O38 O 0.73755 0.6332 0.27157 0.0
O39 O 0.7179 0.61532 0.29385 0.0
O40 O 0.72892 0.62413 0.19072 0.0
O41 O 0.71929 0.60983 0.22732 0.0
Co42 Co 0.10154 0.36703 0.28816 0.0
O43 O 0.12143 0.37093 0.28822 0.0
O44 O 0.10171 0.34915 0.29479 0.0
C45 C 0.10482 0.38552 0.31684 0.0
O46 O 0.07965 0.3587 0.29067 0.0
Co47 Co 0.09353 0.38876 0.26156 0.0
O48 O 0.07403 0.37586 0.27851 0.0
C49 C 0.09728 0.36853 0.22441 0.0
C50 C 0.11589 0.35707 0.29364 0.0
C51 C 0.07042 0.36316 0.28775 0.0
O52 O 0.09967 0.36292 0.24638 0.0
O53 O 0.09554 0.37971 0.22556 0.0
O54 O 0.10357 0.37352 0.32688 0.0
O55 O 0.10587 0.38681 0.28964 0.0
Co56 Co 0.62286 0.73221 0.28414 0.0
O57 O 0.61755 0.74709 0.2883 0.0
O58 O 0.64028 0.75105 0.2877 0.0
C59 C 0.60699 0.71628 0.31612 0.0
O60 O 0.63259 0.71984 0.28135 0.0
Co61 Co 0.60096 0.70205 0.25987 0.0
O62 O 0.61508 0.69648 0.2744 0.0
C63 C 0.6186 0.72616 0.22052 0.0
C64 C 0.6315 0.7563 0.29017 0.0
C65 C 0.62831 0.70613 0.27947 0.0
O66 O 0.62413 0.73463 0.24191 0.0
O67 O 0.60866 0.71268 0.22293 0.0
O68 O 0.61925 0.72753 0.32379 0.0
O69 O 0.60376 0.71588 0.28962 0.0
Co70 Co 0.26195 0.89239 0.28668 0.0
O71 O 0.24558 0.87275 0.28584 0.0
O72 O 0.24413 0.89284 0.29236 0.0
C73 C 0.27641 0.88857 0.31641 0.0
O74 O 0.27617 0.91415 0.2899 0.0
Co75 Co 0.29161 0.89923 0.26138 0.0
O76 O 0.2988 0.9183 0.28055 0.0
C77 C 0.26861 0.89692 0.22313 0.0
C78 C 0.23754 0.87864 0.29078 0.0
C79 C 0.29011 0.92265 0.2888 0.0
O80 O 0.26039 0.89451 0.24478 0.0
O81 O 0.28139 0.89836 0.22487 0.0
O82 O 0.26565 0.89004 0.32563 0.0
O83 O 0.27689 0.88738 0.28925 0.0
Co84 Co 0.62901 0.89116 0.78046 0.0
O85 O 0.62549 0.87152 0.7842 0.0
O86 O 0.64737 0.89155 0.785 0.0
C87 C 0.61213 0.88949 0.81191 0.0
O88 O 0.6368 0.91304 0.77859 0.0
Co89 Co 0.60524 0.89638 0.75489 0.0
O90 O 0.61809 0.91668 0.76797 0.0
C91 C 0.62467 0.89214 0.71648 0.0
C92 C 0.63956 0.87738 0.78708 0.0
C93 C 0.63137 0.92146 0.77505 0.0
O94 O 0.63097 0.89051 0.73822 0.0
O95 O 0.61358 0.89399 0.71836 0.0
O96 O 0.62475 0.89153 0.81989 0.0
O97 O 0.6092 0.88649 0.78533 0.0
Co98 Co 0.10168 0.73491 0.78443 0.0
O99 O 0.12159 0.7504 0.78902 0.0
O100 O 0.10215 0.75329 0.78867 0.0
C101 C 0.1019 0.71898 0.81586 0.0
O102 O 0.07974 0.72176 0.78136 0.0
Co103 Co 0.09514 0.70544 0.75906 0.0
O104 O 0.07489 0.69892 0.77176 0.0
C105 C 0.10073 0.72952 0.72062 0.0
C106 C 0.11625 0.7591 0.79133 0.0
C107 C 0.07073 0.70804 0.77795 0.0
O108 O 0.10279 0.7376 0.74231 0.0
O109 O 0.09831 0.71637 0.72245 0.0
O110 O 0.10047 0.72996 0.82379 0.0
O111 O 0.10535 0.71911 0.78955 0.0
Co112 Co 0.26165 0.37266 0.77839 0.0
O113 O 0.24628 0.37746 0.78084 0.0
O114 O 0.24316 0.35507 0.78342 0.0
C115 C 0.27743 0.38964 0.80904 0.0
O116 O 0.27438 0.36332 0.77796 0.0
Co117 Co 0.29187 0.39426 0.75342 0.0
O118 O 0.29768 0.38053 0.76925 0.0
C119 C 0.26772 0.37568 0.71475 0.0
C120 C 0.23747 0.36351 0.78449 0.0
C121 C 0.28806 0.36753 0.776 0.0
O122 O 0.25928 0.37018 0.73623 0.0
O123 O 0.28106 0.38599 0.71691 0.0
O124 O 0.26631 0.37755 0.81776 0.0
O125 O 0.27776 0.39202 0.78216 0.0
Co126 Co 0.88964 0.62569 0.73076 0.0
O127 O 0.86915 0.61984 0.73167 0.0
O128 O 0.8875 0.64267 0.72765 0.0
C129 C 0.88808 0.60902 0.69893 0.0
O130 O 0.91174 0.63609 0.7276 0.0
Co131 Co 0.90112 0.60555 0.7512 0.0
O132 O 0.91922 0.61965 0.73126 0.0
C133 C 0.89649 0.62371 0.79278 0.0
C134 C 0.87348 0.63366 0.72835 0.0
C135 C 0.92171 0.63253 0.72596 0.0
O136 O 0.89134 0.6282 0.77305 0.0
O137 O 0.90073 0.6144 0.78861 0.0
O138 O 0.88806 0.62078 0.69113 0.0
O139 O 0.88728 0.60674 0.72589 0.0
Co140 Co 0.36619 0.26291 0.72749 0.0
O141 O 0.36971 0.24703 0.72037 0.0
O142 O 0.34776 0.24498 0.72308 0.0
C143 C 0.38227 0.27891 0.69583 0.0
O144 O 0.35839 0.27677 0.73353 0.0
Co145 Co 0.39048 0.29108 0.75411 0.0
O146 O 0.37701 0.29867 0.74667 0.0
C147 C 0.37161 0.26668 0.7914 0.0
C148 C 0.35559 0.23877 0.71871 0.0
C149 C 0.36363 0.2903 0.74004 0.0
O150 O 0.36504 0.25931 0.76931 0.0
O151 O 0.38283 0.27955 0.7902 0.0
O152 O 0.36943 0.26851 0.68842 0.0
O153 O 0.38594 0.2782 0.72169 0.0
Co154 Co 0.73376 0.10492 0.72952 0.0
O155 O 0.74909 0.12435 0.72027 0.0
O156 O 0.75215 0.10521 0.72607 0.0
C157 C 0.71714 0.10315 0.69715 0.0
O158 O 0.72068 0.08335 0.73825 0.0
Co159 Co 0.70518 0.10083 0.75499 0.0
O160 O 0.69924 0.07984 0.7554 0.0
C161 C 0.72981 0.10768 0.79298 0.0
C162 C 0.75785 0.11903 0.72008 0.0
C163 C 0.70778 0.07514 0.74825 0.0
O164 O 0.73756 0.1089 0.77117 0.0
O165 O 0.71662 0.10511 0.79116 0.0
O166 O 0.72783 0.10098 0.69056 0.0
O167 O 0.7179 0.1084 0.72225 0.0
Co168 Co 0.0343 0.43739 0.56702 0.0
O169 O 0.03944 0.45761 0.56455 0.0
O170 O 0.0168 0.43869 0.56391 0.0
C171 C 0.05024 0.438 0.53446 0.0
O172 O 0.02474 0.41527 0.56774 0.0
Co173 Co 0.0562 0.42883 0.5897 0.0
O174 O 0.04241 0.40952 0.57316 0.0
C175 C 0.03865 0.43469 0.63029 0.0
C176 C 0.02548 0.45278 0.56227 0.0
C177 C 0.02918 0.40593 0.56798 0.0
O178 O 0.03291 0.43771 0.60935 0.0
O179 O 0.04871 0.43136 0.62719 0.0
O180 O 0.03795 0.43709 0.52731 0.0
O181 O 0.05351 0.44047 0.56104 0.0
Co182 Co 0.55529 0.59313 0.56657 0.0
O183 O 0.53525 0.57742 0.56559 0.0
O184 O 0.55481 0.57474 0.56391 0.0
C185 C 0.55345 0.60777 0.53399 0.0
O186 O 0.57734 0.60623 0.56536 0.0
Co187 Co 0.56395 0.62387 0.5878 0.0
O188 O 0.58258 0.62957 0.56818 0.0
C189 C 0.55989 0.6013 0.62916 0.0
C190 C 0.54065 0.56875 0.56323 0.0
C191 C 0.58636 0.62004 0.5634 0.0
O192 O 0.55582 0.59198 0.60898 0.0
O193 O 0.56357 0.61474 0.62537 0.0
O194 O 0.55455 0.5965 0.52681 0.0
O195 O 0.55158 0.60887 0.56074 0.0
Co196 Co 0.40119 0.9619 0.56038 0.0
O197 O 0.41699 0.95779 0.55801 0.0
O198 O 0.41944 0.97991 0.55575 0.0
C199 C 0.38599 0.94482 0.52938 0.0
O200 O 0.38771 0.97044 0.56091 0.0
Co201 Co 0.37152 0.93927 0.58545 0.0
O202 O 0.36492 0.95277 0.57189 0.0
C203 C 0.39528 0.95831 0.62414 0.0
C204 C 0.42551 0.97181 0.55483 0.0
C205 C 0.37401 0.96583 0.56445 0.0
O206 O 0.40347 0.96421 0.60252 0.0
O207 O 0.38215 0.94756 0.62214 0.0
O208 O 0.3968 0.95723 0.52102 0.0
O209 O 0.38567 0.94224 0.55619 0.0
Co210 Co 0.76736 0.69827 0.62316 0.0
O211 O 0.78705 0.70237 0.62927 0.0
O212 O 0.76757 0.68015 0.62639 0.0
C213 C 0.7671 0.71378 0.65579 0.0
O214 O 0.74554 0.68985 0.61809 0.0
Co215 Co 0.76201 0.72198 0.59847 0.0
O216 O 0.74147 0.70845 0.60969 0.0
C217 C 0.76808 0.70406 0.55947 0.0
C218 C 0.7816 0.68829 0.63035 0.0
C219 C 0.73686 0.69497 0.61464 0.0
O220 O 0.76958 0.69763 0.58109 0.0
O221 O 0.76571 0.71482 0.56156 0.0
O222 O 0.7652 0.70105 0.66259 0.0
O223 O 0.77119 0.71774 0.62988 0.0
Co224 Co 0.29538 0.06887 0.61632 0.0
O225 O 0.28852 0.08265 0.61959 0.0
O226 O 0.31182 0.08843 0.61777 0.0
C227 C 0.28094 0.05318 0.65019 0.0
O228 O 0.30681 0.05818 0.61403 0.0
Co229 Co 0.27537 0.03735 0.59619 0.0
O230 O 0.29108 0.03404 0.61086 0.0
C231 C 0.29033 0.0607 0.55379 0.0
C232 C 0.30226 0.09271 0.6203 0.0
C233 C 0.30397 0.04484 0.614 0.0
O234 O 0.29554 0.07004 0.57397 0.0
O235 O 0.28157 0.04702 0.55804 0.0
O236 O 0.29289 0.06516 0.65638 0.0
O237 O 0.2771 0.05171 0.62388 0.0
Co238 Co 0.92979 0.22312 0.61496 0.0
O239 O 0.91426 0.2032 0.61961 0.0
O240 O 0.91146 0.22267 0.62039 0.0
C241 C 0.94584 0.22217 0.6453 0.0
O242 O 0.94296 0.24512 0.61194 0.0
Co243 Co 0.95936 0.22985 0.58886 0.0
O244 O 0.96561 0.25029 0.5995 0.0
C245 C 0.93494 0.22462 0.55111 0.0
C246 C 0.90561 0.20856 0.6227 0.0
C247 C 0.95649 0.25427 0.6068 0.0
O248 O 0.92672 0.22215 0.5728 0.0
O249 O 0.94816 0.22725 0.55294 0.0
O250 O 0.93527 0.224 0.6543 0.0
O251 O 0.94549 0.21929 0.6187 0.0
Co252 Co 0.29514 0.22507 0.11879 0.0
O253 O 0.29152 0.20535 0.12074 0.0
O254 O 0.31335 0.22532 0.12452 0.0
C255 C 0.27742 0.22258 0.1488 0.0
O256 O 0.30291 0.24695 0.11907 0.0
Co257 Co 0.27211 0.23104 0.09182 0.0
O258 O 0.28426 0.2507 0.10862 0.0
C259 C 0.29229 0.22737 0.05461 0.0
C260 C 0.3055 0.21111 0.12493 0.0
C261 C 0.29739 0.25536 0.11661 0.0
O262 O 0.29828 0.22569 0.07678 0.0
O263 O 0.28095 0.22884 0.0557 0.0
O264 O 0.28975 0.22424 0.15787 0.0
O265 O 0.27528 0.22038 0.12185 0.0
Co266 Co 0.76886 0.06886 0.11868 0.0
O267 O 0.78851 0.08516 0.1195 0.0
O268 O 0.76838 0.08663 0.12494 0.0
C269 C 0.77208 0.05383 0.14803 0.0
O270 O 0.7471 0.05466 0.12013 0.0
Co271 Co 0.76273 0.03983 0.09143 0.0
O272 O 0.74312 0.03228 0.1088 0.0
C273 C 0.76599 0.06365 0.05464 0.0
C274 C 0.7826 0.09319 0.12439 0.0
C275 C 0.73862 0.04079 0.11747 0.0
O276 O 0.76738 0.07117 0.07684 0.0
O277 O 0.76508 0.05107 0.05544 0.0
O278 O 0.77045 0.06444 0.15757 0.0
O279 O 0.77379 0.05385 0.12093 0.0
Co280 Co 0.9277 0.70287 0.11421 0.0
O281 O 0.91259 0.70807 0.11341 0.0
O282 O 0.90883 0.68547 0.11662 0.0
C283 C 0.94219 0.71941 0.14684 0.0
O284 O 0.94004 0.6931 0.11701 0.0
Co285 Co 0.95918 0.72412 0.09462 0.0
O286 O 0.96374 0.71027 0.11394 0.0
C287 C 0.93693 0.70605 0.05219 0.0
C288 C 0.9034 0.69415 0.11623 0.0
C289 C 0.9537 0.69716 0.11872 0.0
O290 O 0.92723 0.7009 0.07182 0.0
O291 O 0.95033 0.71571 0.05672 0.0
O292 O 0.93061 0.70731 0.15404 0.0
O293 O 0.9438 0.72205 0.11999 0.0
Co294 Co 0.55765 0.96051 0.05637 0.0
O295 O 0.53773 0.95627 0.05364 0.0
O296 O 0.55732 0.97845 0.0513 0.0
C297 C 0.55602 0.94334 0.02574 0.0
O298 O 0.57964 0.96904 0.05736 0.0
Co299 Co 0.5644 0.9379 0.08262 0.0
O300 O 0.58429 0.95098 0.06757 0.0
C301 C 0.55969 0.95722 0.12047 0.0
C302 C 0.54314 0.97027 0.05029 0.0
C303 C 0.58853 0.96414 0.06039 0.0
O304 O 0.55766 0.96309 0.0985 0.0
O305 O 0.56177 0.94627 0.11903 0.0
O306 O 0.55751 0.95566 0.01706 0.0
O307 O 0.55362 0.94086 0.05256 0.0
Co308 Co 0.0347 0.5969 0.0637 0.0
O309 O 0.03942 0.58159 0.05956 0.0
O310 O 0.01714 0.57868 0.05619 0.0
C311 C 0.05249 0.61355 0.03558 0.0
O312 O 0.02556 0.60977 0.06547 0.0
Co313 Co 0.05605 0.62592 0.09298 0.0
O314 O 0.04235 0.63235 0.07964 0.0
C315 C 0.03642 0.60054 0.12803 0.0
C316 C 0.02555 0.57296 0.05484 0.0
C317 C 0.02961 0.62322 0.07059 0.0
O318 O 0.03118 0.59303 0.1054 0.0
O319 O 0.04709 0.61376 0.12788 0.0
O320 O 0.0405 0.60301 0.0251 0.0
O321 O 0.05423 0.61284 0.06246 0.0
Co322 Co 0.39988 0.43801 0.0634 0.0
O323 O 0.41461 0.45827 0.0594 0.0
O324 O 0.41903 0.43987 0.06288 0.0
C325 C 0.38496 0.43747 0.02842 0.0
O326 O 0.38766 0.41585 0.06655 0.0
Co327 Co 0.36868 0.42909 0.08214 0.0
O328 O 0.36403 0.40979 0.06701 0.0
C329 C 0.39113 0.43509 0.1254 0.0
C330 C 0.42409 0.45382 0.05943 0.0
C331 C 0.37395 0.4063 0.0654 0.0
O332 O 0.40087 0.43952 0.10588 0.0
O333 O 0.37758 0.4305 0.12044 0.0
O334 O 0.3965 0.43649 0.02319 0.0
O335 O 0.38361 0.4405 0.05438 0.0
Co336 Co 0.70507 0.77402 0.90429 0.0
O337 O 0.70967 0.79411 0.90217 0.0
O338 O 0.68745 0.77476 0.8978 0.0
C339 C 0.72281 0.77578 0.87508 0.0
O340 O 0.69609 0.75195 0.90392 0.0
Co341 Co 0.72684 0.76622 0.93178 0.0
O342 O 0.71228 0.74593 0.92123 0.0
C343 C 0.70673 0.77053 0.96837 0.0
C344 C 0.6958 0.78891 0.89743 0.0
C345 C 0.69991 0.74254 0.91056 0.0
O346 O 0.70158 0.77345 0.94633 0.0
O347 O 0.71736 0.76793 0.9673 0.0
O348 O 0.71086 0.77473 0.86534 0.0
O349 O 0.72463 0.77767 0.9021 0.0
Co350 Co 0.2226 0.92913 0.89876 0.0
O351 O 0.2024 0.91385 0.89762 0.0
O352 O 0.2215 0.91048 0.89467 0.0
C353 C 0.22106 0.94446 0.86752 0.0
O354 O 0.24468 0.94185 0.89785 0.0
Co355 Co 0.23149 0.95975 0.92219 0.0
O356 O 0.25098 0.96518 0.90666 0.0
C357 C 0.22648 0.93621 0.96201 0.0
C358 C 0.20738 0.90489 0.89429 0.0
C359 C 0.25427 0.95551 0.89977 0.0
O360 O 0.22332 0.92745 0.941 0.0
O361 O 0.22941 0.94949 0.95919 0.0
O362 O 0.22183 0.93316 0.85923 0.0
O363 O 0.21935 0.94518 0.89442 0.0
Co364 Co 0.06751 0.29588 0.89657 0.0
O365 O 0.08346 0.29219 0.89113 0.0
O366 O 0.08552 0.31417 0.89273 0.0
C367 C 0.05185 0.27986 0.8646 0.0
O368 O 0.05386 0.30402 0.9007 0.0
Co369 Co 0.03832 0.27214 0.92136 0.0
O370 O 0.03119 0.28554 0.90968 0.0
C371 C 0.06224 0.29061 0.9602 0.0
C372 C 0.09176 0.30632 0.88935 0.0
C373 C 0.04007 0.29895 0.90413 0.0
O374 O 0.07029 0.29699 0.93865 0.0
O375 O 0.04918 0.27974 0.95808 0.0
O376 O 0.06255 0.29254 0.85718 0.0
O377 O 0.05209 0.27625 0.89069 0.0
Co378 Co 0.43628 0.03478 0.94574 0.0
O379 O 0.45609 0.03986 0.95427 0.0
O380 O 0.43741 0.01722 0.95015 0.0
C381 C 0.43425 0.04978 0.97704 0.0
O382 O 0.41451 0.02516 0.93823 0.0
Co383 Co 0.42974 0.05744 0.91926 0.0
O384 O 0.40897 0.04188 0.92236 0.0
C385 C 0.43828 0.04067 0.88212 0.0
C386 C 0.45123 0.02587 0.95538 0.0
C387 C 0.40528 0.02886 0.92962 0.0
O388 O 0.43986 0.0345 0.90412 0.0
O389 O 0.43492 0.05076 0.88354 0.0
O390 O 0.43269 0.03728 0.98462 0.0
O391 O 0.43892 0.05386 0.9515 0.0
Co392 Co 0.9606 0.40151 0.95564 0.0
O393 O 0.95587 0.41691 0.95576 0.0
O394 O 0.9782 0.42007 0.9604 0.0
C395 C 0.9431 0.3863 0.98599 0.0
O396 O 0.96964 0.38853 0.95779 0.0
Co397 Co 0.93897 0.37121 0.9311 0.0
O398 O 0.95199 0.36532 0.94996 0.0
C399 C 0.95826 0.39476 0.8922 0.0
C400 C 0.96976 0.42578 0.95975 0.0
C401 C 0.965 0.37471 0.95717 0.0
O402 O 0.96374 0.40324 0.91359 0.0
O403 O 0.9476 0.38158 0.89434 0.0
O404 O 0.9551 0.39749 0.99489 0.0
O405 O 0.94114 0.38567 0.95893 0.0
Co406 Co 0.5944 0.55898 0.94948 0.0
O407 O 0.57941 0.53917 0.95726 0.0
O408 O 0.5756 0.55787 0.95166 0.0
C409 C 0.61042 0.56061 0.98319 0.0
O410 O 0.60688 0.5808 0.94239 0.0
Co411 Co 0.62434 0.56533 0.92685 0.0
O412 O 0.62945 0.58605 0.92874 0.0
C413 C 0.60041 0.55831 0.88653 0.0
C414 C 0.57029 0.54406 0.95728 0.0
C415 C 0.62007 0.58984 0.93476 0.0
O416 O 0.59168 0.55563 0.90745 0.0
O417 O 0.61388 0.56199 0.88971 0.0
O418 O 0.59934 0.56227 0.98899 0.0
O419 O 0.61062 0.55621 0.95773 0.0
Co420 Co 0.95974 0.55645 0.45064 0.0
O421 O 0.95625 0.53679 0.45384 0.0
O422 O 0.97814 0.55684 0.45374 0.0
C423 C 0.94334 0.55475 0.48318 0.0
O424 O 0.96764 0.57835 0.44907 0.0
Co425 Co 0.93588 0.56224 0.42752 0.0
O426 O 0.94879 0.58223 0.44213 0.0
C427 C 0.95445 0.55768 0.38727 0.0
C428 C 0.97038 0.54267 0.45584 0.0
C429 C 0.96223 0.58688 0.4476 0.0
O430 O 0.96097 0.55578 0.40832 0.0
O431 O 0.94365 0.55991 0.39021 0.0
O432 O 0.95606 0.55675 0.49036 0.0
O433 O 0.94006 0.55189 0.45669 0.0
Co434 Co 0.43792 0.40034 0.44637 0.0
O435 O 0.45807 0.41575 0.44822 0.0
O436 O 0.43878 0.41878 0.45182 0.0
C437 C 0.43977 0.38471 0.4765 0.0
O438 O 0.41582 0.38762 0.44702 0.0
Co439 Co 0.42883 0.37007 0.42151 0.0
O440 O 0.40933 0.36435 0.43728 0.0
C441 C 0.43368 0.39408 0.38292 0.0
C442 C 0.45291 0.42451 0.45242 0.0
C443 C 0.40616 0.37401 0.44479 0.0
O444 O 0.43735 0.40274 0.4042 0.0
O445 O 0.43031 0.38064 0.38517 0.0
O446 O 0.43867 0.3957 0.48561 0.0
O447 O 0.44137 0.38429 0.44948 0.0
Co448 Co 0.59622 0.03659 0.44659 0.0
O449 O 0.58057 0.04091 0.44985 0.0
O450 O 0.57818 0.0189 0.45467 0.0
C451 C 0.61272 0.05483 0.47438 0.0
O452 O 0.60955 0.02796 0.44588 0.0
Co453 Co 0.62484 0.05826 0.4164 0.0
O454 O 0.63172 0.04497 0.43015 0.0
C455 C 0.59957 0.03813 0.38197 0.0
C456 C 0.57218 0.02707 0.45527 0.0
C457 C 0.62304 0.03237 0.44037 0.0
O458 O 0.59243 0.03251 0.40486 0.0
O459 O 0.61246 0.04935 0.38174 0.0
O460 O 0.60221 0.04291 0.48511 0.0
O461 O 0.61192 0.05628 0.4474 0.0
Co462 Co 0.22507 0.29574 0.39432 0.0
O463 O 0.20489 0.29092 0.39286 0.0
O464 O 0.22409 0.31338 0.39114 0.0
C465 C 0.2237 0.27933 0.36206 0.0
O466 O 0.24716 0.30513 0.39406 0.0
Co467 Co 0.23398 0.27393 0.41639 0.0
O468 O 0.25319 0.28769 0.39953 0.0
C469 C 0.22897 0.29202 0.4573 0.0
C470 C 0.20997 0.30492 0.39032 0.0
C471 C 0.25663 0.30087 0.39431 0.0
O472 O 0.22532 0.29744 0.43671 0.0
O473 O 0.23253 0.28214 0.45388 0.0
O474 O 0.22467 0.2916 0.35456 0.0
O475 O 0.22177 0.27643 0.38882 0.0
Co476 Co 0.70151 0.92819 0.39269 0.0
O477 O 0.70492 0.91213 0.38674 0.0
O478 O 0.68305 0.91031 0.38868 0.0
C479 C 0.71789 0.94368 0.3609 0.0
O480 O 0.69371 0.94215 0.39729 0.0
Co481 Co 0.72546 0.95691 0.41827 0.0
O482 O 0.7125 0.96455 0.40687 0.0
C483 C 0.70656 0.93285 0.45654 0.0
C484 C 0.69079 0.90395 0.38501 0.0
C485 C 0.69905 0.95595 0.4012 0.0
O486 O 0.70028 0.92505 0.4347 0.0
O487 O 0.71745 0.94592 0.45479 0.0
O488 O 0.70506 0.9333 0.35333 0.0
O489 O 0.72127 0.94338 0.38712 0.0
Co490 Co 0.06663 0.76957 0.39262 0.0
O491 O 0.08249 0.78935 0.38897 0.0
O492 O 0.08467 0.76948 0.38708 0.0
C493 C 0.05103 0.77115 0.36208 0.0
O494 O 0.05293 0.74766 0.39492 0.0
Co495 Co 0.0375 0.76363 0.41903 0.0
O496 O 0.03035 0.74345 0.40523 0.0
C497 C 0.06176 0.76854 0.45658 0.0
C498 C 0.09082 0.78365 0.38554 0.0
C499 C 0.03914 0.73896 0.39855 0.0
O500 O 0.06952 0.77011 0.43462 0.0
O501 O 0.04879 0.76668 0.45516 0.0
O502 O 0.06161 0.76925 0.3534 0.0
O503 O 0.05125 0.77394 0.38878 0.0
H504 H 0.27543 0.93687 0.30464 0.0
H505 H 0.28481 0.96328 0.30278 0.0
H506 H 0.32766 0.97045 0.28131 0.0
H507 H 0.31854 0.9443 0.2834 0.0
H508 H 0.32929 0.99202 0.31474 0.0
H509 H 0.30171 0.96398 0.23234 0.0
H510 H 0.279 0.94513 0.20973 0.0
H511 H 0.25719 0.96871 0.23309 0.0
H512 H 0.27958 0.98737 0.25699 0.0
H513 H 0.36827 0.04995 0.22724 0.0
H514 H 0.35181 0.02441 0.23972 0.0
H515 H 0.31798 0.0344 0.26078 0.0
H516 H 0.33437 0.06008 0.24817 0.0
H517 H 0.30791 0.00554 0.23507 0.0
H518 H 0.33651 0.03529 0.31214 0.0
H519 H 0.35927 0.05406 0.33469 0.0
H520 H 0.37909 0.02759 0.32055 0.0
H521 H 0.35653 0.00877 0.29745 0.0
C522 C 0.28693 0.9441 0.30019 0.0
C523 C 0.29618 0.93846 0.29362 0.0
C524 C 0.29225 0.95916 0.29914 0.0
C525 C 0.30682 0.96872 0.29135 0.0
C526 C 0.31634 0.96322 0.28722 0.0
C527 C 0.31107 0.94823 0.28831 0.0
C528 C 0.31196 0.98413 0.28408 0.0
C529 C 0.32456 0.995 0.29748 0.0
C530 C 0.30555 0.988 0.2619 0.0
C531 C 0.29226 0.97697 0.24681 0.0
C532 C 0.29204 0.96509 0.23288 0.0
C533 C 0.27923 0.95443 0.21985 0.0
C534 C 0.26669 0.95575 0.2199 0.0
C535 C 0.26691 0.9677 0.23309 0.0
C536 C 0.27964 0.97828 0.24651 0.0
C537 C 0.35721 0.04667 0.23385 0.0
C538 C 0.3527 0.05704 0.23726 0.0
C539 C 0.34784 0.03209 0.24094 0.0
C540 C 0.33386 0.0277 0.25171 0.0
C541 C 0.32878 0.03768 0.25262 0.0
C542 C 0.33817 0.05232 0.24539 0.0
C543 C 0.3255 0.01322 0.26509 0.0
C544 C 0.31236 0.0026 0.25287 0.0
C545 C 0.33137 0.00954 0.28838 0.0
C546 C 0.34484 0.02065 0.30293 0.0
C547 C 0.34575 0.0335 0.3137 0.0
C548 C 0.35861 0.04415 0.32659 0.0
C549 C 0.37062 0.04202 0.32903 0.0
C550 C 0.36978 0.02922 0.31865 0.0
C551 C 0.35694 0.01855 0.30569 0.0
H552 H 0.38058 0.05028 0.33898 0.0
H553 H 0.2568 0.94751 0.20969 0.0
H554 H 0.05747 0.33339 0.29175 0.0
H555 H 0.03147 0.31574 0.28551 0.0
H556 H 0.02189 0.351 0.28456 0.0
H557 H 0.04781 0.36874 0.29084 0.0
H558 H -3e-05 0.32515 0.31063 0.0
H559 H 0.0303 0.34102 0.22507 0.0
H560 H 0.05129 0.34355 0.19752 0.0
H561 H 0.03324 0.29694 0.19944 0.0
H562 H 0.01231 0.29417 0.22751 0.0
H563 H 0.94539 0.31597 0.22274 0.0
H564 H 0.97093 0.32387 0.23268 0.0
H565 H 0.96035 0.27891 0.24061 0.0
H566 H 0.93461 0.27078 0.23097 0.0
H567 H 0.99145 0.30378 0.21464 0.0
H568 H 0.95984 0.28723 0.29627 0.0
H569 H 0.93897 0.28462 0.32425 0.0
H570 H 0.95928 0.3314 0.33049 0.0
H571 H 0.98015 0.33427 0.30205 0.0
C572 C 0.04979 0.33738 0.29109 0.0
C573 C 0.05471 0.35249 0.29119 0.0
C574 C 0.03496 0.32727 0.28747 0.0
C575 C 0.0249 0.33215 0.28407 0.0
C576 C 0.02956 0.34707 0.28701 0.0
C577 C 0.04438 0.35719 0.29046 0.0
C578 C 0.01 0.32221 0.27363 0.0
C579 C -0.00191 0.32034 0.28981 0.0
C580 C 0.00759 0.31574 0.2466 0.0
C581 C 0.01984 0.3174 0.22865 0.0
C582 C 0.03084 0.33132 0.2197 0.0
C583 C 0.04273 0.3328 0.20402 0.0
C584 C 0.04362 0.32042 0.19683 0.0
C585 C 0.03256 0.30653 0.20509 0.0
C586 C 0.02069 0.30499 0.2209 0.0
C587 C 0.9485 0.30771 0.22576 0.0
C588 C 0.93791 0.29277 0.22686 0.0
C589 C 0.96312 0.31225 0.2313 0.0
C590 C 0.96735 0.30193 0.23776 0.0
C591 C 0.95718 0.28697 0.23567 0.0
C592 C 0.94249 0.28238 0.23023 0.0
C593 C 0.98156 0.307 0.25152 0.0
C594 C 0.99331 0.30811 0.23587 0.0
C595 C 0.98384 0.31262 0.27919 0.0
C596 C 0.97149 0.31097 0.29686 0.0
C597 C 0.9598 0.29696 0.30343 0.0
C598 C 0.94798 0.29543 0.3194 0.0
C599 C 0.94779 0.30784 0.32911 0.0
C600 C 0.95944 0.3218 0.32293 0.0
C601 C 0.97128 0.32338 0.30691 0.0
H602 H 0.93864 0.30664 0.34148 0.0
H603 H 0.05288 0.32158 0.18488 0.0
H604 H 0.678 0.62449 0.24749 0.0
H605 H 0.66786 0.64063 0.24909 0.0
H606 H 0.70896 0.67665 0.22031 0.0
H607 H 0.71949 0.66055 0.21941 0.0
H608 H 0.69886 0.68412 0.26546 0.0
H609 H 0.67889 0.66187 0.17702 0.0
H610 H 0.66668 0.64123 0.14382 0.0
H611 H 0.62774 0.62246 0.19437 0.0
H612 H 0.63974 0.64283 0.22808 0.0
H613 H 0.65724 0.72249 0.26539 0.0
H614 H 0.67373 0.71314 0.25412 0.0
H615 H 0.64058 0.66989 0.28023 0.0
H616 H 0.62402 0.67907 0.29115 0.0
H617 H 0.65003 0.67051 0.22661 0.0
H618 H 0.67136 0.68963 0.31845 0.0
H619 H 0.68363 0.70904 0.35404 0.0
H620 H 0.71976 0.73308 0.2978 0.0
H621 H 0.70761 0.71388 0.26173 0.0
C622 C 0.68489 0.63578 0.2411 0.0
C623 C 0.69959 0.64123 0.23342 0.0
C624 C 0.67903 0.64499 0.24186 0.0
C625 C 0.68761 0.65979 0.23443 0.0
C626 C 0.70217 0.66524 0.22598 0.0
C627 C 0.70812 0.65601 0.2254 0.0
C628 C 0.68146 0.66958 0.23767 0.0
C629 C 0.68836 0.68141 0.25638 0.0
C630 C 0.66772 0.66591 0.226 0.0
C631 C 0.66026 0.6539 0.20514 0.0
C632 C 0.66773 0.65333 0.18109 0.0
C633 C 0.66084 0.64167 0.16219 0.0
C634 C 0.64646 0.63053 0.16703 0.0
C635 C 0.63888 0.6311 0.19065 0.0
C636 C 0.64571 0.64272 0.20962 0.0
C637 C 0.65364 0.71108 0.26948 0.0
C638 C 0.63931 0.70145 0.2789 0.0
C639 C 0.66305 0.70576 0.26293 0.0
C640 C 0.65827 0.69081 0.26607 0.0
C641 C 0.64437 0.68144 0.27737 0.0
C642 C 0.63496 0.6867 0.2837 0.0
C643 C 0.66707 0.68451 0.25548 0.0
C644 C 0.6607 0.67344 0.23511 0.0
C645 C 0.68125 0.68887 0.26566 0.0
C646 C 0.68849 0.70043 0.28727 0.0
C647 C 0.68185 0.69913 0.31357 0.0
C648 C 0.6888 0.71007 0.33386 0.0
C649 C 0.70244 0.72231 0.32815 0.0
C650 C 0.70918 0.72362 0.30217 0.0
C651 C 0.70227 0.71271 0.28181 0.0
H652 H 0.70781 0.73077 0.34388 0.0
H653 H 0.64118 0.62145 0.15256 0.0
H654 H 0.65861 0.93639 0.79926 0.0
H655 H 0.67455 0.96304 0.80219 0.0
H656 H 0.6421 0.96896 0.75815 0.0
H657 H 0.62605 0.94263 0.75592 0.0
H658 H 0.68719 0.98358 0.76336 0.0
H659 H 0.64048 0.99735 0.7807 0.0
H660 H 0.61677 0.98679 0.80538 0.0
H661 H 0.63028 0.96403 0.86189 0.0
H662 H 0.65416 0.97462 0.83784 0.0
H663 H 0.70669 0.0541 0.71327 0.0
H664 H 0.69683 0.02814 0.72467 0.0
H665 H 0.68979 0.03663 0.8105 0.0
H666 H 0.69864 0.06221 0.7985 0.0
H667 H 0.6671 0.01486 0.7949 0.0
H668 H 0.71682 0.02733 0.7902 0.0
H669 H 0.74175 0.03799 0.7707 0.0
H670 H 0.72501 0.00904 0.69977 0.0
H671 H 0.69994 -0.00167 0.71864 0.0
C672 C 0.65485 0.94341 0.79043 0.0
C673 C 0.64101 0.93742 0.77764 0.0
C674 C 0.66398 0.95859 0.79204 0.0
C675 C 0.65938 0.96794 0.78082 0.0
C676 C 0.6457 0.96195 0.76761 0.0
C677 C 0.63654 0.94687 0.76631 0.0
C678 C 0.66883 0.98401 0.7822 0.0
C679 C 0.68292 0.99048 0.77052 0.0
C680 C 0.66338 0.99296 0.7924 0.0
C681 C 0.64911 0.98675 0.80734 0.0
C682 C 0.63844 0.99018 0.79852 0.0
C683 C 0.62496 0.98417 0.81237 0.0
C684 C 0.62201 0.97473 0.83516 0.0
C685 C 0.63256 0.97132 0.84419 0.0
C686 C 0.64607 0.97731 0.83044 0.0
C687 C 0.70309 0.05032 0.73453 0.0
C688 C 0.70315 0.05991 0.75497 0.0
C689 C 0.69762 0.03557 0.74116 0.0
C690 C 0.69266 0.03042 0.76856 0.0
C691 C 0.69342 0.04028 0.7892 0.0
C692 C 0.69845 0.05486 0.78236 0.0
C693 C 0.68539 0.01457 0.77512 0.0
C694 C 0.67162 0.00809 0.78826 0.0
C695 C 0.6914 0.00572 0.76721 0.0
C696 C 0.70647 0.01208 0.75578 0.0
C697 C 0.71843 0.02329 0.77035 0.0
C698 C 0.73259 0.02934 0.75942 0.0
C699 C 0.73496 0.02422 0.73399 0.0
C700 C 0.72316 0.013 0.71947 0.0
C701 C 0.70897 0.00692 0.7303 0.0
H702 H 0.74593 0.02891 0.72556 0.0
H703 H 0.61156 0.97007 0.84584 0.0
H704 H 0.04838 0.68025 0.76853 0.0
H705 H 0.02307 0.67285 0.7577 0.0
H706 H 0.03164 0.7166 0.77472 0.0
H707 H 0.05721 0.72428 0.78546 0.0
H708 H 0.00265 0.69089 0.79451 0.0
H709 H 0.03226 0.71222 0.71306 0.0
H710 H 0.05189 0.71667 0.6795 0.0
H711 H 0.02911 0.67121 0.65651 0.0
H712 H 0.00948 0.66643 0.69035 0.0
H713 H 0.93297 0.66212 0.73021 0.0
H714 H 0.95885 0.68066 0.73472 0.0
H715 H 0.97087 0.64783 0.71803 0.0
H716 H 0.94513 0.62925 0.71379 0.0
H717 H 0.99043 0.67522 0.69498 0.0
H718 H 0.96448 0.65345 0.78294 0.0
H719 H 0.94536 0.64793 0.81847 0.0
H720 H 0.96159 0.69389 0.83019 0.0
H721 H 0.98065 0.69967 0.79427 0.0
C722 C 0.0449 0.68828 0.77054 0.0
C723 C 0.0549 0.70293 0.77735 0.0
C724 C 0.03042 0.68402 0.76431 0.0
C725 C 0.02569 0.69429 0.76495 0.0
C726 C 0.03523 0.7086 0.77397 0.0
C727 C 0.0498 0.71294 0.78006 0.0
C728 C 0.01111 0.69009 0.75378 0.0
C729 C -2e-05 0.68787 0.7726 0.0
C730 C 0.00778 0.68611 0.72522 0.0
C731 C 0.01942 0.68896 0.70438 0.0
C732 C 0.03148 0.70315 0.701 0.0
C733 C 0.0426 0.70573 0.68191 0.0
C734 C 0.04175 0.69422 0.6659 0.0
C735 C 0.02975 0.68011 0.66892 0.0
C736 C 0.01861 0.67747 0.68803 0.0
C737 C 0.94114 0.65893 0.72669 0.0
C738 C 0.93703 0.64418 0.72205 0.0
C739 C 0.95589 0.66953 0.72932 0.0
C740 C 0.96667 0.66552 0.72709 0.0
C741 C 0.96266 0.6511 0.71986 0.0
C742 C 0.94795 0.64049 0.71753 0.0
C743 C 0.98186 0.67557 0.73589 0.0
C744 C 0.99313 0.67881 0.71663 0.0
C745 C 0.9853 0.68047 0.76407 0.0
C746 C 0.97383 0.67699 0.7856 0.0
C747 C 0.96387 0.66237 0.79286 0.0
C748 C 0.95305 0.6592 0.81309 0.0
C749 C 0.95221 0.67055 0.82647 0.0
C750 C 0.96221 0.68511 0.8197 0.0
C751 C 0.97301 0.68834 0.79939 0.0
H752 H 0.94386 0.66807 0.84217 0.0
H753 H 0.05037 0.69625 0.65114 0.0
H754 H 0.36958 0.3166 0.76191 0.0
H755 H 0.35236 0.32508 0.77114 0.0
H756 H 0.31747 0.28567 0.73428 0.0
H757 H 0.33467 0.27693 0.72495 0.0
H758 H 0.3185 0.31155 0.71638 0.0
H759 H 0.31731 0.28783 0.80164 0.0
H760 H 0.32657 0.28112 0.84333 0.0
H761 H 0.34769 0.32566 0.87205 0.0
H762 H 0.3388 0.33272 0.83028 0.0
H763 H 0.27189 0.33844 0.76419 0.0
H764 H 0.2808 0.32104 0.76071 0.0
H765 H 0.32343 0.35444 0.78916 0.0
H766 H 0.31471 0.37197 0.79216 0.0
H767 H 0.31324 0.32603 0.81307 0.0
H768 H 0.31823 0.35009 0.72356 0.0
H769 H 0.31004 0.35713 0.68081 0.0
H770 H 0.28236 0.31183 0.6595 0.0
H771 H 0.29012 0.30449 0.70256 0.0
C772 C 0.35829 0.30974 0.75551 0.0
C773 C 0.35349 0.29605 0.74276 0.0
C774 C 0.34844 0.31456 0.76106 0.0
C775 C 0.33364 0.30584 0.75391 0.0
C776 C 0.32886 0.29244 0.74022 0.0
C777 C 0.3387 0.28751 0.73484 0.0
C778 C 0.32341 0.31113 0.76018 0.0
C779 C 0.31698 0.31435 0.73759 0.0
C780 C 0.32168 0.31492 0.78786 0.0
C781 C 0.32742 0.31082 0.8127 0.0
C782 C 0.32406 0.29624 0.81666 0.0
C783 C 0.32923 0.29236 0.84035 0.0
C784 C 0.33768 0.30295 0.86034 0.0
C785 C 0.34111 0.31746 0.85657 0.0
C786 C 0.336 0.32141 0.83289 0.0
C787 C 0.28308 0.34197 0.77028 0.0
C788 C 0.29267 0.35654 0.77834 0.0
C789 C 0.28814 0.33206 0.76814 0.0
C790 C 0.30276 0.33656 0.77449 0.0
C791 C 0.3121 0.35083 0.78415 0.0
C792 C 0.30714 0.36082 0.78577 0.0
C793 C 0.30876 0.32684 0.76919 0.0
C794 C 0.3144 0.32282 0.79199 0.0
C795 C 0.30978 0.32233 0.74168 0.0
C796 C 0.30457 0.32674 0.71655 0.0
C797 C 0.31019 0.34162 0.71006 0.0
C798 C 0.30568 0.34566 0.6857 0.0
C799 C 0.29571 0.33493 0.66744 0.0
C800 C 0.29012 0.32013 0.67364 0.0
C801 C 0.29452 0.31602 0.69808 0.0
H802 H 0.29233 0.33809 0.64847 0.0
H803 H 0.3415 0.29991 0.87884 0.0
H804 H 0.03467 0.38367 0.55853 0.0
H805 H 0.01727 0.35756 0.56018 0.0
H806 H 0.98181 0.36634 0.57214 0.0
H807 H -0.00072 0.39268 0.57088 0.0
H808 H 0.98154 0.3477 0.61126 0.0
H809 H 0.98311 0.34999 0.51211 0.0
H810 H 0.99417 0.3572 0.46498 0.0
H811 H 0.01754 0.33409 0.4785 0.0
H812 H 0.00681 0.32691 0.52588 0.0
H813 H 0.93969 0.2674 0.61041 0.0
H814 H 0.94763 0.29316 0.60107 0.0
H815 H 0.99214 0.30243 0.59152 0.0
H816 H 0.98443 0.2769 0.60092 0.0
H817 H 0.98117 0.31105 0.54539 0.0
H818 H 0.98321 0.31366 0.64792 0.0
H819 H 0.97253 0.30703 0.69545 0.0
H820 H 0.94187 0.3211 0.67448 0.0
H821 H 0.95226 0.32763 0.62666 0.0
C822 C 0.02316 0.38009 0.56107 0.0
C823 C 0.01837 0.39024 0.56479 0.0
C824 C 0.0132 0.36514 0.56179 0.0
C825 C -0.00176 0.36003 0.56604 0.0
C826 C 0.99331 0.3701 0.56871 0.0
C827 C 0.0033 0.38512 0.56788 0.0
C828 C 0.98822 0.34422 0.57046 0.0
C829 C 0.98109 0.33963 0.59652 0.0
C830 C 0.98773 0.33375 0.55127 0.0
C831 C 0.99416 0.33794 0.52264 0.0
C832 C 0.99067 0.34651 0.50512 0.0
C833 C 0.99688 0.35059 0.47833 0.0
C834 C 0.00655 0.34612 0.46875 0.0
C835 C 0.01003 0.33753 0.48593 0.0
C836 C 0.00386 0.33343 0.51274 0.0
C837 C 0.95121 0.27498 0.6069 0.0
C838 C 0.96142 0.27007 0.60613 0.0
C839 C 0.9557 0.28966 0.60148 0.0
C840 C 0.97041 0.29956 0.5953 0.0
C841 C 0.98069 0.29485 0.59595 0.0
C842 C 0.97627 0.28027 0.60143 0.0
C843 C 0.97522 0.31472 0.58664 0.0
C844 C 0.98127 0.31911 0.55971 0.0
C845 C 0.97465 0.32496 0.60495 0.0
C846 C 0.96836 0.32092 0.6336 0.0
C847 C 0.97408 0.31518 0.65334 0.0
C848 C 0.96811 0.31148 0.68036 0.0
C849 C 0.95649 0.31359 0.68795 0.0
C850 C 0.95084 0.31944 0.66855 0.0
C851 C 0.95677 0.32314 0.64149 0.0
H852 H 0.95189 0.31073 0.70888 0.0
H853 H 0.01135 0.34929 0.44802 0.0
H854 H 0.60845 0.64815 0.55621 0.0
H855 H 0.63453 0.65698 0.55824 0.0
H856 H 0.6261 0.61253 0.56213 0.0
H857 H 0.59977 0.60351 0.56089 0.0
H858 H 0.64305 0.62805 0.60401 0.0
H859 H 0.64528 0.63473 0.50519 0.0
H860 H 0.63995 0.6419 0.45929 0.0
H861 H 0.66014 0.68663 0.48649 0.0
H862 H 0.6657 0.67977 0.53251 0.0
H863 H 0.72275 0.66499 0.61254 0.0
H864 H 0.69712 0.64855 0.59984 0.0
H865 H 0.6896 0.68517 0.59859 0.0
H866 H 0.71506 0.70166 0.61122 0.0
H867 H 0.68178 0.66899 0.54875 0.0
H868 H 0.67581 0.66088 0.64989 0.0
H869 H 0.68084 0.6534 0.69577 0.0
H870 H 0.66727 0.61052 0.66314 0.0
H871 H 0.66235 0.61782 0.61693 0.0
C872 C 0.61209 0.6402 0.55696 0.0
C873 C 0.60202 0.62514 0.5589 0.0
C874 C 0.62706 0.64528 0.55782 0.0
C875 C 0.63226 0.6354 0.5602 0.0
C876 C 0.62228 0.62031 0.56029 0.0
C877 C 0.60725 0.6152 0.55953 0.0
C878 C 0.64792 0.64107 0.56631 0.0
C879 C 0.65159 0.63671 0.59149 0.0
C880 C 0.659 0.65245 0.55014 0.0
C881 C 0.65587 0.65671 0.52235 0.0
C882 C 0.64854 0.64609 0.50142 0.0
C883 C 0.64549 0.6501 0.47538 0.0
C884 C 0.64961 0.66469 0.47004 0.0
C885 C 0.65694 0.67533 0.49066 0.0
C886 C 0.66012 0.6714 0.51668 0.0
C887 C 0.71556 0.6695 0.61016 0.0
C888 C 0.72098 0.68467 0.6125 0.0
C889 C 0.70096 0.6601 0.60283 0.0
C890 C 0.69162 0.66574 0.59794 0.0
C891 C 0.69676 0.68069 0.60195 0.0
C892 C 0.71129 0.69007 0.60928 0.0
C893 C 0.67671 0.65638 0.58694 0.0
C894 C 0.67327 0.66004 0.56079 0.0
C895 C 0.66589 0.6443 0.60212 0.0
C896 C 0.66891 0.63996 0.62986 0.0
C897 C 0.67405 0.64991 0.65242 0.0
C898 C 0.67684 0.64569 0.6785 0.0
C899 C 0.67443 0.63151 0.68234 0.0
C900 C 0.66917 0.62151 0.66012 0.0
C901 C 0.66637 0.62568 0.63399 0.0
H902 H 0.67659 0.62827 0.70255 0.0
H903 H 0.64717 0.66775 0.4499 0.0
H904 H 0.30478 0.02149 0.63603 0.0
H905 H 0.32327 0.01446 0.62685 0.0
H906 H 0.34868 0.05407 0.57904 0.0
H907 H 0.33041 0.0614 0.58886 0.0
H908 H 0.33923 0.02608 0.54995 0.0
H909 H 0.36541 0.05267 0.62979 0.0
H910 H 0.36955 0.06179 0.67852 0.0
H911 H 0.35403 0.01821 0.70941 0.0
H912 H 0.34951 0.00875 0.66087 0.0
H913 H 0.388 0.99347 0.54175 0.0
H914 H 0.38095 0.0123 0.54714 0.0
H915 H 0.342 0.98146 0.59168 0.0
H916 H 0.34864 0.96257 0.58595 0.0
H917 H 0.36547 0.01202 0.61861 0.0
H918 H 0.3326 0.98585 0.5394 0.0
H919 H 0.32794 0.97641 0.49083 0.0
H920 H 0.35653 0.01976 0.45936 0.0
H921 H 0.36152 0.0294 0.50788 0.0
C922 C 0.31451 0.02888 0.62427 0.0
C923 C 0.31622 0.04196 0.61317 0.0
C924 C 0.32506 0.02489 0.61909 0.0
C925 C 0.33728 0.03379 0.60231 0.0
C926 C 0.33933 0.04715 0.59216 0.0
C927 C 0.32895 0.05133 0.59791 0.0
C928 C 0.34669 0.02801 0.59279 0.0
C929 C 0.34538 0.0234 0.56474 0.0
C930 C 0.35454 0.02444 0.61224 0.0
C931 C 0.35704 0.02998 0.6416 0.0
C932 C 0.36272 0.04499 0.64696 0.0
C933 C 0.36517 0.05023 0.67457 0.0
C934 C 0.36203 0.04058 0.69705 0.0
C935 C 0.35644 0.02567 0.69197 0.0
C936 C 0.35396 0.02037 0.66439 0.0
C937 C 0.3778 0.99064 0.55221 0.0
C938 C 0.3689 0.97655 0.56352 0.0
C939 C 0.37383 0.00139 0.55529 0.0
C940 C 0.36106 0.99819 0.56997 0.0
C941 C 0.35193 0.98405 0.58035 0.0
C942 C 0.35572 0.97327 0.57689 0.0
C943 C 0.35744 0.00964 0.57623 0.0
C944 C 0.35981 0.01522 0.60366 0.0
C945 C 0.35054 0.01407 0.55629 0.0
C946 C 0.34763 0.00829 0.52723 0.0
C947 C 0.33805 0.99332 0.52215 0.0
C948 C 0.3353 0.98795 0.49463 0.0
C949 C 0.34199 0.99746 0.47203 0.0
C950 C 0.3514 0.01239 0.4769 0.0
C951 C 0.35419 0.01782 0.50439 0.0
H952 H 0.33984 0.99329 0.45074 0.0
H953 H 0.36395 0.04466 0.71841 0.0
H954 H 0.39004 0.39384 0.08265 0.0
H955 H 0.38034 0.36819 0.09609 0.0
H956 H 0.33758 0.35785 0.06638 0.0
H957 H 0.34709 0.38332 0.05293 0.0
H958 H 0.33824 0.35066 0.12288 0.0
H959 H 0.3566 0.34574 0.03175 0.0
H960 H 0.37595 0.35173 0.9965 0.0
H961 H 0.39933 0.34001 0.05517 0.0
H962 H 0.38019 0.33412 0.09089 0.0
H963 H 0.29039 0.27664 0.10778 0.0
H964 H 0.30691 0.30283 0.10635 0.0
H965 H 0.34273 0.29674 0.13237 0.0
H966 H 0.3262 0.2702 0.13312 0.0
H967 H 0.35018 0.31358 0.08775 0.0
H968 H 0.32975 0.31415 0.17585 0.0
H969 H 0.31054 0.30792 0.21149 0.0
H970 H 0.29161 0.32793 0.16093 0.0
H971 H 0.31058 0.33412 0.12478 0.0
C972 C 0.37868 0.38601 0.07823 0.0
C973 C 0.36926 0.39061 0.0671 0.0
C974 C 0.37316 0.3714 0.08604 0.0
C975 C 0.35823 0.36126 0.08259 0.0
C976 C 0.3491 0.36561 0.06952 0.0
C977 C 0.35457 0.38014 0.06176 0.0
C978 C 0.35164 0.34642 0.09461 0.0
C979 C 0.34078 0.3425 0.1152 0.0
C980 C 0.35557 0.3361 0.08557 0.0
C981 C 0.36707 0.33968 0.0641 0.0
C982 C 0.36594 0.34458 0.03722 0.0
C983 C 0.37685 0.34792 0.01714 0.0
C984 C 0.38889 0.3463 0.02362 0.0
C985 C 0.39002 0.34129 0.05019 0.0
C986 C 0.37914 0.33795 0.07036 0.0
C987 C 0.30171 0.2808 0.11371 0.0
C988 C 0.30699 0.27129 0.12032 0.0
C989 C 0.31115 0.29585 0.11309 0.0
C990 C 0.32603 0.30176 0.11953 0.0
C991 C 0.33126 0.29237 0.12739 0.0
C992 C 0.3218 0.27723 0.12785 0.0
C993 C 0.33618 0.31756 0.11505 0.0
C994 C 0.34782 0.32176 0.09605 0.0
C995 C 0.33305 0.32821 0.12575 0.0
C996 C 0.32163 0.32461 0.14757 0.0
C997 C 0.32147 0.31718 0.17226 0.0
C998 C 0.31063 0.31369 0.1926 0.0
C999 C 0.2999 0.31759 0.18854 0.0
C1000 C 0.29997 0.32498 0.16411 0.0
C1001 C 0.31079 0.32852 0.14372 0.0
H1002 H 0.29149 0.31481 0.20424 0.0
H1003 H 0.39732 0.34888 0.00804 0.0
H1004 H 0.61058 0.95776 0.06085 0.0
H1005 H 0.63612 0.9745 0.07253 0.0
H1006 H 0.62819 0.01084 0.07142 0.0
H1007 H 0.60245 0.99414 0.05979 0.0
H1008 H 0.65687 0.01664 0.04942 0.0
H1009 H 0.62635 -0.00127 0.13072 0.0
H1010 H 0.60685 0.97989 0.16037 0.0
H1011 H 0.63106 0.95722 0.16744 0.0
H1012 H 0.65059 0.97579 0.13738 0.0
H1013 H 0.72387 0.05585 0.12291 0.0
H1014 H 0.69751 0.04586 0.11773 0.0
H1015 H 0.69112 0.00217 0.11412 0.0
H1016 H 0.7174 0.012 0.11903 0.0
H1017 H 0.66863 0.00415 0.14294 0.0
H1018 H 0.69676 0.01996 0.05549 0.0
H1019 H 0.71624 0.03852 0.02532 0.0
H1020 H 0.69638 0.06543 0.03033 0.0
H1021 H 0.67691 0.04712 0.06095 0.0
C1022 C 0.61429 0.96934 0.06241 0.0
C1023 C 0.60442 0.97458 0.06001 0.0
C1024 C 0.62888 0.97888 0.0691 0.0
C1025 C 0.63383 0.99378 0.07343 0.0
C1026 C 0.62444 -0.00068 0.06834 0.0
C1027 C 0.60976 0.98975 0.06167 0.0
C1028 C 0.64832 0.00303 0.08617 0.0
C1029 C 0.65941 0.01419 0.07011 0.0
C1030 C 0.65151 -0.00029 0.11317 0.0
C1031 C 0.63989 0.98861 0.13162 0.0
C1032 C 0.62747 0.98967 0.13841 0.0
C1033 C 0.61641 0.97905 0.15532 0.0
C1034 C 0.6177 0.96736 0.16575 0.0
C1035 C 0.63007 0.96629 0.15934 0.0
C1036 C 0.64115 0.97687 0.14239 0.0
C1037 C 0.71683 0.04409 0.12178 0.0
C1038 C 0.72273 0.03471 0.12089 0.0
C1039 C 0.70179 0.03843 0.11879 0.0
C1040 C 0.6925 0.02335 0.11512 0.0
C1041 C 0.69818 0.01387 0.11684 0.0
C1042 C 0.71321 0.01951 0.11954 0.0
C1043 C 0.67726 0.01749 0.10589 0.0
C1044 C 0.66602 0.00691 0.1226 0.0
C1045 C 0.67394 0.0214 0.07956 0.0
C1046 C 0.68549 0.03227 0.06077 0.0
C1047 C 0.69661 0.02988 0.05033 0.0
C1048 C 0.70764 0.04035 0.03314 0.0
C1049 C 0.70757 0.05317 0.02598 0.0
C1050 C 0.69644 0.05552 0.03594 0.0
C1051 C 0.68541 0.0451 0.05321 0.0
H1052 H 0.7161 0.06125 0.01265 0.0
H1053 H 0.60913 0.95914 0.17883 0.0
H1054 H 0.98126 0.70151 0.12559 0.0
H1055 H 0.98898 0.68358 0.11747 0.0
H1056 H 0.94393 0.64936 0.11005 0.0
H1057 H 0.93597 0.66729 0.11783 0.0
H1058 H 0.96839 0.6437 0.1397 0.0
H1059 H 0.95317 0.65705 0.05414 0.0
H1060 H 0.95129 0.67448 0.02227 0.0
H1061 H -0.00183 0.69981 0.01675 0.0
H1062 H 0.00033 0.68264 0.049 0.0
H1063 H -0.00016 0.60593 0.07042 0.0
H1064 H 0.98188 0.61398 0.07619 0.0
H1065 H 0.01659 0.65904 0.07303 0.0
H1066 H 0.0346 0.65114 0.06731 0.0
H1067 H 0.99112 0.6539 0.04481 0.0
H1068 H 0.00623 0.64283 0.13441 0.0
H1069 H 0.00897 0.62628 0.16733 0.0
H1070 H 0.96251 0.59682 0.1656 0.0
H1071 H 0.95954 0.61312 0.13229 0.0
C1072 C 0.97293 0.69013 0.12298 0.0
C1073 C 0.95801 0.68589 0.12165 0.0
C1074 C 0.97737 0.6799 0.11844 0.0
C1075 C 0.96699 0.66529 0.11276 0.0
C1076 C 0.95204 0.66066 0.11435 0.0
C1077 C 0.94755 0.67093 0.11875 0.0
C1078 C 0.97206 0.6557 0.10109 0.0
C1079 C 0.97299 0.64555 0.11868 0.0
C1080 C 0.97813 0.65833 0.07377 0.0
C1081 C 0.9769 0.66862 0.05416 0.0
C1082 C 0.96308 0.66641 0.04634 0.0
C1083 C 0.96196 0.67623 0.02817 0.0
C1084 C 0.97461 0.68826 0.01752 0.0
C1085 C 0.98839 0.69049 0.02502 0.0
C1086 C 0.98956 0.68071 0.04322 0.0
C1087 C 0.00361 0.61756 0.07028 0.0
C1088 C 0.01864 0.62794 0.0688 0.0
C1089 C 0.99334 0.62211 0.07367 0.0
C1090 C -0.00201 0.63706 0.07538 0.0
C1091 C 0.01284 0.64743 0.07181 0.0
C1092 C 0.02312 0.64291 0.06869 0.0
C1093 C 0.98776 0.6421 0.08359 0.0
C1094 C 0.986 0.65154 0.06539 0.0
C1095 C 0.9809 0.63876 0.1103 0.0
C1096 C 0.98268 0.62909 0.1306 0.0
C1097 C 0.99661 0.63277 0.14089 0.0
C1098 C -0.00179 0.62344 0.15964 0.0
C1099 C 0.98593 0.61048 0.16849 0.0
C1100 C 0.97202 0.60685 0.15868 0.0
C1101 C 0.97037 0.61612 0.13986 0.0
H1102 H 0.98719 0.60327 0.183 0.0
H1103 H 0.97373 0.69583 1.00339 0.0
H1104 H 0.62289 0.61062 0.97219 0.0
H1105 H 0.63249 0.63667 0.96216 0.0
H1106 H 0.63523 0.62858 0.87389 0.0
H1107 H 0.62635 0.6028 0.88428 0.0
H1108 H 0.65906 0.64979 0.88798 0.0
H1109 H 0.61005 0.6393 0.90209 0.0
H1110 H 0.58617 0.62917 0.9259 0.0
H1111 H 0.60701 0.65665 0.99741 0.0
H1112 H 0.63105 0.66676 0.97417 0.0
H1113 H 0.68406 0.72726 0.86479 0.0
H1114 H 0.66659 0.70067 0.86258 0.0
H1115 H 0.67343 0.69698 0.95096 0.0
H1116 H 0.69128 0.72318 0.95281 0.0
H1117 H 0.6421 0.68204 0.92869 0.0
H1118 H 0.69138 0.6897 0.91458 0.0
H1119 H 0.71487 0.69897 0.88973 0.0
H1120 H 0.69213 0.6756 0.81537 0.0
H1121 H 0.66843 0.66665 0.83947 0.0
C1122 C 0.62536 0.61448 0.95069 0.0
C1123 C 0.62407 0.60496 0.92897 0.0
C1124 C 0.6307 0.62929 0.94486 0.0
C1125 C 0.6344 0.63458 0.91715 0.0
C1126 C 0.63246 0.62479 0.89539 0.0
C1127 C 0.62742 0.61011 0.90129 0.0
C1128 C 0.64184 0.6505 0.91128 0.0
C1129 C 0.65507 0.65675 0.89623 0.0
C1130 C 0.63681 0.65967 0.92234 0.0
C1131 C 0.62237 0.65368 0.93643 0.0
C1132 C 0.60955 0.64308 0.92298 0.0
C1133 C 0.59598 0.63736 0.93636 0.0
C1134 C 0.59507 0.64224 0.96319 0.0
C1135 C 0.60773 0.65287 0.97664 0.0
C1136 C 0.62133 0.65861 0.96334 0.0
C1137 C 0.68175 0.72066 0.88358 0.0
C1138 C 0.68901 0.727 0.90885 0.0
C1139 C 0.67181 0.70562 0.88237 0.0
C1140 C 0.66879 0.69702 0.90667 0.0
C1141 C 0.67564 0.70352 0.9321 0.0
C1142 C 0.68586 0.71838 0.93308 0.0
C1143 C 0.65918 0.68106 0.90576 0.0
C1144 C 0.64568 0.67489 0.91969 0.0
C1145 C 0.66384 0.67192 0.89337 0.0
C1146 C 0.6781 0.67779 0.87864 0.0
C1147 C 0.69135 0.68682 0.89273 0.0
C1148 C 0.70471 0.69196 0.87882 0.0
C1149 C 0.70499 0.68793 0.85095 0.0
C1150 C 0.6919 0.67874 0.83694 0.0
C1151 C 0.67849 0.67372 0.85066 0.0
H1152 H 0.71535 0.69189 0.84023 0.0
H1153 H 0.58456 0.6378 0.97353 0.0
H1154 H 0.39041 0.00278 0.95762 0.0
H1155 H 0.36476 0.98367 0.9508 0.0
H1156 H 0.36024 0.0097 0.88582 0.0
H1157 H 0.38562 0.02881 0.89276 0.0
H1158 H 0.34098 0.98733 0.9584 0.0
H1159 H 0.33759 0.98635 0.83446 0.0
H1160 H 0.35148 0.9851 0.79391 0.0
H1161 H 0.37353 0.9695 0.84746 0.0
H1162 H 0.35958 0.97036 0.88827 0.0
H1163 H 0.27781 0.98266 0.90877 0.0
H1164 H 0.30331 0.98903 0.91313 0.0
H1165 H 0.29192 0.94501 0.89037 0.0
H1166 H 0.26618 0.93838 0.88607 0.0
H1167 H 0.31831 0.96743 0.86547 0.0
H1168 H 0.29694 0.95105 0.95452 0.0
H1169 H 0.28166 0.94848 0.99574 0.0
H1170 H 0.30879 0.99426 0.0139 0.0
H1171 H 0.3241 0.99717 0.97251 0.0
C1172 C 0.38392 0.00436 0.94185 0.0
C1173 C 0.3899 0.01734 0.92598 0.0
C1174 C 0.36935 0.99344 0.9379 0.0
C1175 C 0.36074 0.99522 0.91755 0.0
C1176 C 0.3668 0.00803 0.90132 0.0
C1177 C 0.38123 0.01903 0.90559 0.0
C1178 C 0.34497 0.98461 0.915 0.0
C1179 C 0.33601 0.98278 0.9382 0.0
C1180 C 0.33856 0.97829 0.88882 0.0
C1181 C 0.34751 0.97844 0.86452 0.0
C1182 C 0.34535 0.98259 0.83762 0.0
C1183 C 0.3532 0.9819 0.81454 0.0
C1184 C 0.36326 0.97708 0.81806 0.0
C1185 C 0.36566 0.97315 0.84474 0.0
C1186 C 0.35782 0.97378 0.86788 0.0
C1187 C 0.28068 0.97434 0.90431 0.0
C1188 C 0.26991 0.95994 0.89748 0.0
C1189 C 0.29525 0.97799 0.90695 0.0
C1190 C 0.29934 0.96737 0.90269 0.0
C1191 C 0.28886 0.95327 0.89402 0.0
C1192 C 0.2742 0.94954 0.89155 0.0
C1193 C 0.31455 0.97115 0.90832 0.0
C1194 C 0.32333 0.97169 0.88576 0.0
C1195 C 0.3208 0.97597 0.93524 0.0
C1196 C 0.31164 0.97434 0.96027 0.0
C1197 C 0.29959 0.9606 0.96716 0.0
C1198 C 0.29093 0.95908 0.99059 0.0
C1199 C 0.29424 0.9712 0.00741 0.0
C1200 C 0.30624 0.98488 1.00085 0.0
C1201 C 0.31493 0.98646 0.97742 0.0
H1202 H 0.28753 0.97 0.02556 0.0
H1203 H 0.3693 0.97653 0.80016 0.0
H1204 H 0.05606 0.32888 0.90582 0.0
H1205 H 0.04682 0.34567 0.91453 0.0
H1206 H 0.00253 0.3093 0.91358 0.0
H1207 H 0.01159 0.29247 0.90466 0.0
H1208 H 0.00517 0.33328 0.88635 0.0
H1209 H 0.0211 0.32186 0.97418 0.0
H1210 H 0.03936 0.32137 1.0059 0.0
H1211 H 0.06543 0.36822 1.00175 0.0
H1212 H 0.04746 0.36897 0.96953 0.0
H1213 H 0.95901 0.34662 0.9642 0.0
H1214 H 0.97602 0.33762 0.95718 0.0
H1215 H 0.01193 0.38193 0.95063 0.0
H1216 H 0.99496 0.39116 0.95755 0.0
H1217 H 0.01766 0.35893 0.97844 0.0
H1218 H 0.00051 0.37044 0.89369 0.0
H1219 H 0.98158 0.37065 0.86354 0.0
H1220 H 0.95778 0.32363 0.86261 0.0
H1221 H 0.97643 0.32315 0.89321 0.0
C1222 C 0.04434 0.32448 0.90693 0.0
C1223 C 0.03454 0.30932 0.90487 0.0
C1224 C 0.03911 0.33409 0.91206 0.0
C1225 C 0.02405 0.32865 0.91513 0.0
C1226 C 0.01422 0.31367 0.91139 0.0
C1227 C 0.01942 0.30406 0.90637 0.0
C1228 C 0.01835 0.33828 0.92375 0.0
C1229 C 0.00795 0.33893 0.90642 0.0
C1230 C 0.02228 0.34594 0.94967 0.0
C1231 C 0.03304 0.34545 0.96911 0.0
C1232 C 0.0308 0.33204 0.9798 0.0
C1233 C 0.04109 0.33172 0.99789 0.0
C1234 C 0.05358 0.34475 1.00571 0.0
C1235 C 0.05577 0.35814 0.99557 0.0
C1236 C 0.04555 0.35852 0.97737 0.0
C1237 C 0.97057 0.35449 0.96204 0.0
C1238 C 0.9756 0.36959 0.96071 0.0
C1239 C 0.98027 0.34933 0.95814 0.0
C1240 C 0.9951 0.35915 0.95291 0.0
C1241 C 0.00047 0.37425 0.95458 0.0
C1242 C 0.99074 0.37946 0.95847 0.0
C1243 C 0.00424 0.35349 0.94138 0.0
C1244 C 0.01522 0.35359 0.95807 0.0
C1245 C 0.00091 0.34654 0.91483 0.0
C1246 C 0.98981 0.34677 0.89592 0.0
C1247 C 0.99118 0.36015 0.88723 0.0
C1248 C 0.98051 0.36031 0.87004 0.0
C1249 C 0.96847 0.34716 0.8612 0.0
C1250 C 0.96711 0.33381 0.86948 0.0
C1251 C 0.97773 0.33359 0.88673 0.0
H1252 H 0.96022 0.34731 0.8479 0.0
H1253 H 0.06154 0.34448 0.01966 0.0
H1254 H 0.05473 0.72495 0.40688 0.0
H1255 H 0.04474 0.69909 0.41853 0.0
H1256 H 0.001 0.69131 0.40429 0.0
H1257 H 0.01084 0.71713 0.39308 0.0
H1258 H 0.00431 0.68228 0.45615 0.0
H1259 H 0.01726 0.67851 0.35915 0.0
H1260 H 0.03454 0.68481 0.31961 0.0
H1261 H 0.06032 0.67159 0.36811 0.0
H1262 H 0.04328 0.66537 0.40806 0.0
H1263 H 0.95501 0.60825 0.44273 0.0
H1264 H 0.97152 0.63444 0.43956 0.0
H1265 H 0.00847 0.62822 0.45401 0.0
H1266 H 0.99194 0.60172 0.45645 0.0
H1267 H 0.01322 0.64528 0.40995 0.0
H1268 H -0.00173 0.64516 0.50387 0.0
H1269 H 0.98112 0.63854 0.54368 0.0
H1270 H 0.95982 0.65922 0.50303 0.0
H1271 H 0.97669 0.6658 0.46278 0.0
C1272 C 0.04301 0.71765 0.40549 0.0
C1273 C 0.03354 0.72307 0.39929 0.0
C1274 C 0.03733 0.7029 0.41224 0.0
C1275 C 0.02214 0.69337 0.41248 0.0
C1276 C 0.01276 0.69857 0.40449 0.0
C1277 C 0.01839 0.71329 0.39797 0.0
C1278 C 0.0158 0.67825 0.42306 0.0
C1279 C 0.00617 0.67414 0.44598 0.0
C1280 C 0.0189 0.66791 0.41072 0.0
C1281 C 0.0291 0.67165 0.38668 0.0
C1282 C 0.02669 0.67707 0.36146 0.0
C1283 C 0.03642 0.6806 0.33896 0.0
C1284 C 0.04855 0.67865 0.34138 0.0
C1285 C 0.05094 0.67312 0.36628 0.0
C1286 C 0.04124 0.66959 0.38884 0.0
C1287 C 0.96661 0.61239 0.44568 0.0
C1288 C 0.97215 0.60285 0.44968 0.0
C1289 C 0.97606 0.62742 0.44405 0.0
C1290 C 0.99121 0.63329 0.44689 0.0
C1291 C 0.99679 0.62389 0.45187 0.0
C1292 C 0.98732 0.60877 0.45332 0.0
C1293 C 0.00111 0.64911 0.44215 0.0
C1294 C 0.01153 0.65344 0.42053 0.0
C1295 C -0.00116 0.65971 0.45586 0.0
C1296 C 0.98874 0.65594 0.48022 0.0
C1297 C 0.98988 0.64824 0.50334 0.0
C1298 C 0.98021 0.6445 0.526 0.0
C1299 C 0.96939 0.64844 0.52588 0.0
C1300 C 0.96823 0.65618 0.50312 0.0
C1301 C 0.97786 0.65995 0.48039 0.0
H1302 H 0.9619 0.64552 0.54343 0.0
H1303 H 0.05607 0.68139 0.32394 0.0
H1304 H 0.27975 0.29612 0.39163 0.0
H1305 H 0.30523 0.31389 0.40165 0.0
H1306 H 0.29476 0.3485 0.40464 0.0
H1307 H 0.26905 0.33076 0.39482 0.0
H1308 H 0.3244 0.35462 0.37838 0.0
H1309 H 0.29528 0.33941 0.46222 0.0
H1310 H 0.27577 0.3212 0.49277 0.0
H1311 H 0.29872 0.29724 0.49921 0.0
H1312 H 0.31824 0.31518 0.46826 0.0
H1313 H 0.3941 0.39175 0.44547 0.0
H1314 H 0.36813 0.38406 0.44073 0.0
H1315 H 0.35713 0.33881 0.44478 0.0
H1316 H 0.38293 0.34633 0.44975 0.0
H1317 H 0.33714 0.34366 0.47238 0.0
H1318 H 0.36379 0.3567 0.38283 0.0
H1319 H 0.38256 0.37389 0.34974 0.0
H1320 H 0.36376 0.40179 0.35298 0.0
H1321 H 0.34507 0.38492 0.38657 0.0
C1322 C 0.28286 0.30755 0.39373 0.0
C1323 C 0.27232 0.31197 0.39305 0.0
C1324 C 0.29743 0.31767 0.3994 0.0
C1325 C 0.30168 0.33236 0.40433 0.0
C1326 C 0.29156 0.33714 0.40098 0.0
C1327 C 0.2769 0.32698 0.39539 0.0
C1328 C 0.31623 0.34204 0.41637 0.0
C1329 C 0.3272 0.35259 0.39922 0.0
C1330 C 0.31969 0.33924 0.44353 0.0
C1331 C 0.30819 0.32861 0.46279 0.0
C1332 C 0.29612 0.33021 0.47 0.0
C1333 C 0.28506 0.31994 0.4874 0.0
C1334 C 0.28599 0.30806 0.49789 0.0
C1335 C 0.29801 0.30645 0.49107 0.0
C1336 C 0.30909 0.31669 0.47363 0.0
C1337 C 0.38612 0.38017 0.44606 0.0
C1338 C 0.39056 0.36962 0.44755 0.0
C1339 C 0.37131 0.37582 0.44324 0.0
C1340 C 0.36081 0.3609 0.44196 0.0
C1341 C 0.36512 0.3504 0.44564 0.0
C1342 C 0.37987 0.35471 0.44834 0.0
C1343 C 0.34552 0.35596 0.43403 0.0
C1344 C 0.33435 0.34619 0.45198 0.0
C1345 C 0.3419 0.35956 0.40764 0.0
C1346 C 0.35319 0.36968 0.38755 0.0
C1347 C 0.36376 0.36658 0.37673 0.0
C1348 C 0.37437 0.37625 0.35786 0.0
C1349 C 0.37438 0.38895 0.34939 0.0
C1350 C 0.36377 0.39198 0.35968 0.0
C1351 C 0.35319 0.38239 0.37866 0.0
H1352 H 0.38258 0.39642 0.33483 0.0
H1353 H 0.27741 0.3001 0.51132 0.0
H1354 H 0.66904 0.94067 0.40061 0.0
H1355 H 0.65269 0.95028 0.41093 0.0
H1356 H 0.68989 0.99397 0.4161 0.0
H1357 H 0.70629 0.98456 0.40594 0.0
H1358 H 0.67181 0.98611 0.46283 0.0
H1359 H 0.66755 0.98393 0.36071 0.0
H1360 H 0.66171 0.9713 0.3149 0.0
H1361 H 0.6176 0.94241 0.34229 0.0
H1362 H 0.62325 0.95477 0.38842 0.0
H1363 H 0.65141 0.03896 0.44493 0.0
H1364 H 0.66062 0.02187 0.44431 0.0
H1365 H 0.61635 0.98546 0.44312 0.0
H1366 H 0.60699 0.00254 0.44371 0.0
H1367 H 0.63331 0.98438 0.40034 0.0
H1368 H 0.63614 0.98853 0.49927 0.0
H1369 H 0.6414 0.00067 0.54545 0.0
H1370 H 0.68719 0.02511 0.5252 0.0
H1371 H 0.68219 0.01308 0.47882 0.0
C1372 C 0.67373 0.95236 0.40343 0.0
C1373 C 0.68899 0.96184 0.40269 0.0
C1374 C 0.66437 0.9578 0.4094 0.0
C1375 C 0.67015 0.97278 0.41451 0.0
C1376 C 0.68528 0.98234 0.4125 0.0
C1377 C 0.69462 0.97694 0.40655 0.0
C1378 C 0.66064 0.97861 0.42315 0.0
C1379 C 0.66342 0.98579 0.44916 0.0
C1380 C 0.64925 0.97754 0.40584 0.0
C1381 C 0.64588 0.97014 0.37812 0.0
C1382 C 0.65665 0.9748 0.35705 0.0
C1383 C 0.65336 0.96771 0.33101 0.0
C1384 C 0.6393 0.95603 0.32572 0.0
C1385 C 0.62849 0.95144 0.34644 0.0
C1386 C 0.63173 0.95848 0.37252 0.0
C1387 C 0.64363 0.02732 0.44499 0.0
C1388 C 0.6285 0.02208 0.44412 0.0
C1389 C 0.64889 0.01757 0.44484 0.0
C1390 C 0.63913 0.00243 0.44378 0.0
C1391 C 0.62401 0.99712 0.44403 0.0
C1392 C 0.61871 0.00689 0.44446 0.0
C1393 C 0.64495 0.99245 0.43946 0.0
C1394 C 0.64145 0.98442 0.41434 0.0
C1395 C 0.65562 0.99265 0.45765 0.0
C1396 C 0.65877 -5e-05 0.4855 0.0
C1397 C 0.64732 0.99656 0.50459 0.0
C1398 C 0.65026 0.00341 0.53083 0.0
C1399 C 0.66462 0.01372 0.53823 0.0
C1400 C 0.67608 0.01713 0.51944 0.0
C1401 C 0.6732 0.01025 0.4932 0.0
H1402 H 0.66687 0.01904 0.55854 0.0
H1403 H 0.63678 0.95056 0.30554 0.0
H1404 H 0.28495 0.04436 0.50543 0.0
H1405 H 0.29845 0.05223 0.461 0.0
H1406 H 0.32313 0.09639 0.49239 0.0
H1407 H 0.30979 0.0887 0.53675 0.0
H1408 H 0.3037 0.07234 0.4193 0.0
H1409 H 0.35892 0.1097 0.4756 0.0
H1410 H 0.37029 0.11136 0.52184 0.0
H1411 H 0.34245 0.06506 0.53377 0.0
H1412 H 0.33109 0.06311 0.4875 0.0
H1413 H 0.35521 0.1124 0.31342 0.0
H1414 H 0.34109 0.10652 0.35699 0.0
H1415 H 0.36082 0.08149 0.38536 0.0
H1416 H 0.37529 0.08768 0.34224 0.0
H1417 H 0.35759 0.09466 0.42846 0.0
H1418 H 0.32614 0.06507 0.35443 0.0
H1419 H 0.31428 0.06017 0.30792 0.0
H1420 H 0.29378 0.08514 0.33049 0.0
H1421 H 0.30569 0.09035 0.37703 0.0
C1422 C 0.29302 0.05581 0.50273 0.0
C1423 C 0.29632 0.06583 0.52495 0.0
C1424 C 0.30075 0.0603 0.47725 0.0
C1425 C 0.312 0.07486 0.47349 0.0
C1426 C 0.31467 0.08505 0.49492 0.0
C1427 C 0.30694 0.08061 0.52031 0.0
C1428 C 0.32167 0.0792 0.44819 0.0
C1429 C 0.31548 0.07729 0.4213 0.0
C1430 C 0.33702 0.08525 0.45064 0.0
C1431 C 0.34406 0.0863 0.47822 0.0
C1432 C 0.35528 0.09987 0.48805 0.0
C1433 C 0.36172 0.10086 0.51428 0.0
C1434 C 0.35706 0.08833 0.53078 0.0
C1435 C 0.34601 0.07477 0.52104 0.0
C1436 C 0.33957 0.07372 0.49483 0.0
C1437 C 0.35676 0.10586 0.32913 0.0
C1438 C 0.36641 0.10051 0.32416 0.0
C1439 C 0.34856 0.10239 0.354 0.0
C1440 C 0.34959 0.09326 0.37433 0.0
C1441 C 0.35975 0.08851 0.37006 0.0
C1442 C 0.36808 0.09211 0.34532 0.0
C1443 C 0.3397 0.08818 0.39944 0.0
C1444 C 0.34583 0.08987 0.42636 0.0
C1445 C 0.32425 0.08149 0.39693 0.0
C1446 C 0.31691 0.07821 0.36912 0.0
C1447 C 0.31916 0.06958 0.34942 0.0
C1448 C 0.31243 0.06674 0.32305 0.0
C1449 C 0.30331 0.07236 0.31623 0.0
C1450 C 0.30086 0.0808 0.3358 0.0
C1451 C 0.30759 0.08369 0.36218 0.0
H1452 H 0.29811 0.07016 0.2958 0.0
H1453 H 0.36203 0.08913 0.5511 0.0
H1454 H 0.95034 0.23452 0.50173 0.0
H1455 H 0.94283 0.24166 0.45886 0.0
H1456 H 0.89982 0.22615 0.4939 0.0
H1457 H 0.90737 0.21932 0.53722 0.0
H1458 H 0.92402 0.22982 0.41889 0.0
H1459 H 0.8865 0.2481 0.4741 0.0
H1460 H 0.88438 0.25755 0.52028 0.0
H1461 H 0.93022 0.27443 0.5353 0.0
H1462 H 0.93265 0.26528 0.48906 0.0
H1463 H 0.88507 0.24207 0.31329 0.0
H1464 H 0.89075 0.23392 0.35709 0.0
H1465 H 0.9163 0.27874 0.3847 0.0
H1466 H 0.91038 0.287 0.34108 0.0
H1467 H 0.90227 0.26188 0.42833 0.0
H1468 H 0.93299 0.26129 0.35633 0.0
H1469 H 0.93906 0.25555 0.30973 0.0
H1470 H 0.91389 0.20957 0.3281 0.0
H1471 H 0.90747 0.21505 0.37469 0.0
C1472 C 0.93919 0.23238 0.50026 0.0
C1473 C 0.92952 0.22641 0.52321 0.0
C1474 C 0.93491 0.23652 0.47562 0.0
C1475 C 0.92084 0.23477 0.47321 0.0
C1476 C 0.91086 0.22797 0.49539 0.0
C1477 C 0.91517 0.22394 0.52014 0.0
C1478 C 0.91684 0.24058 0.44806 0.0
C1479 C 0.91919 0.23675 0.42104 0.0
C1480 C 0.91102 0.2501 0.45059 0.0
C1481 C 0.9097 0.25585 0.47824 0.0
C1482 C 0.89613 0.25388 0.48721 0.0
C1483 C 0.89488 0.25918 0.5134 0.0
C1484 C 0.90715 0.26654 0.53075 0.0
C1485 C 0.92072 0.26868 0.52189 0.0
C1486 C 0.92203 0.26343 0.4957 0.0
C1487 C 0.89173 0.25023 0.32881 0.0
C1488 C 0.89732 0.26523 0.32347 0.0
C1489 C 0.89504 0.24553 0.35385 0.0
C1490 C 0.9042 0.2557 0.37408 0.0
C1491 C 0.90923 0.27065 0.36946 0.0
C1492 C 0.90582 0.27537 0.34446 0.0
C1493 C 0.90904 0.25075 0.39928 0.0
C1494 C 0.90696 0.25482 0.42625 0.0
C1495 C 0.91566 0.24195 0.39671 0.0
C1496 C 0.91964 0.23857 0.36889 0.0
C1497 C 0.92867 0.24995 0.35036 0.0
C1498 C 0.93218 0.24675 0.32396 0.0
C1499 C 0.92683 0.2322 0.31593 0.0
C1500 C 0.918 0.22083 0.33434 0.0
C1501 C 0.91443 0.22398 0.36076 0.0
H1502 H 0.92956 0.22973 0.29548 0.0
H1503 H 0.90615 0.27061 0.55103 0.0
H1504 H 0.76218 0.67629 0.54845 0.0
H1505 H 0.75751 0.66396 0.50342 0.0
H1506 H 0.76734 0.70404 0.46099 0.0
H1507 H 0.77114 0.71628 0.50663 0.0
H1508 H 0.74548 0.68391 0.43672 0.0
H1509 H 0.79094 0.68751 0.46123 0.0
H1510 H 0.80882 0.68529 0.49119 0.0
H1511 H 0.78052 0.63868 0.49495 0.0
H1512 H 0.76237 0.64062 0.46528 0.0
H1513 H 0.75094 0.65577 0.3025 0.0
H1514 H 0.75886 0.66912 0.34695 0.0
H1515 H 0.7318 0.6292 0.39253 0.0
H1516 H 0.72342 0.61572 0.34795 0.0
H1517 H 0.76356 0.64986 0.41324 0.0
H1518 H 0.71788 0.64792 0.38854 0.0
H1519 H 0.70163 0.65146 0.35619 0.0
H1520 H 0.73327 0.69726 0.34996 0.0
H1521 H 0.74983 0.69394 0.38192 0.0
C1522 C 0.76361 0.68262 0.52958 0.0
C1523 C 0.76722 0.69739 0.53132 0.0
C1524 C 0.76098 0.67551 0.50362 0.0
C1525 C 0.76236 0.68304 0.47837 0.0
C1526 C 0.76622 0.69789 0.47998 0.0
C1527 C 0.7685 0.70495 0.50613 0.0
C1528 C 0.75904 0.67516 0.45065 0.0
C1529 C 0.74969 0.67669 0.43156 0.0
C1530 C 0.76429 0.66548 0.44359 0.0
C1531 C 0.77524 0.66423 0.4612 0.0
C1532 C 0.78849 0.67679 0.46857 0.0
C1533 C 0.79868 0.67558 0.48548 0.0
C1534 C 0.79579 0.66185 0.49502 0.0
C1535 C 0.78273 0.6493 0.48756 0.0
C1536 C 0.7725 0.65045 0.47066 0.0
C1537 C 0.74678 0.64973 0.32193 0.0
C1538 C 0.73652 0.63461 0.32153 0.0
C1539 C 0.7513 0.65743 0.34736 0.0
C1540 C 0.7459 0.65019 0.37307 0.0
C1541 C 0.73612 0.63501 0.37292 0.0
C1542 C 0.73134 0.62732 0.34741 0.0
C1543 C 0.75001 0.65863 0.39991 0.0
C1544 C 0.75949 0.65718 0.41863 0.0
C1545 C 0.74517 0.66862 0.40636 0.0
C1546 C 0.73517 0.67064 0.38735 0.0
C1547 C 0.72144 0.65872 0.38004 0.0
C1548 C 0.71216 0.66069 0.36182 0.0
C1549 C 0.71643 0.67456 0.35095 0.0
C1550 C 0.72998 0.68651 0.35835 0.0
C1551 C 0.73932 0.68459 0.37653 0.0
H1552 H 0.70924 0.67607 0.33684 0.0
H1553 H 0.80369 0.66094 0.50812 0.0
H1554 H 0.09991 0.37949 0.17079 0.0
H1555 H 0.09505 0.36617 0.12629 0.0
H1556 H 0.08382 0.32651 0.17181 0.0
H1557 H 0.08942 0.33992 0.21601 0.0
H1558 H 0.0977 0.3264 0.12935 0.0
H1559 H 0.05759 0.33522 0.1401 0.0
H1560 H 0.04494 0.34937 0.14654 0.0
H1561 H 0.06434 0.37312 0.07043 0.0
H1562 H 0.0773 0.35929 0.06385 0.0
H1563 H 0.05248 0.27873 0.01297 0.0
H1564 H 0.05971 0.29162 0.05836 0.0
H1565 H 0.09072 0.33127 0.01607 0.0
H1566 H 0.084 0.31852 0.97101 0.0
H1567 H 0.06649 0.33064 0.05629 0.0
H1568 H 0.10681 0.32087 0.04746 0.0
H1569 H 0.11715 0.30462 0.04117 0.0
H1570 H 0.09434 0.28034 0.11478 0.0
H1571 H 0.08368 0.29632 0.12124 0.0
C1572 C 0.09653 0.36796 0.17126 0.0
C1573 C 0.09515 0.36083 0.19703 0.0
C1574 C 0.09359 0.36028 0.14577 0.0
C1575 C 0.08876 0.34517 0.14545 0.0
C1576 C 0.08755 0.33812 0.17122 0.0
C1577 C 0.09078 0.34584 0.1966 0.0
C1578 C 0.08506 0.33668 0.11847 0.0
C1579 C 0.09073 0.32728 0.11362 0.0
C1580 C 0.07606 0.33777 0.09747 0.0
C1581 C 0.06855 0.34634 0.10171 0.0
C1582 C 0.05929 0.34358 0.12495 0.0
C1583 C 0.05205 0.35153 0.12859 0.0
C1584 C 0.05389 0.36219 0.10898 0.0
C1585 C 0.06296 0.3649 0.08566 0.0
C1586 C 0.07026 0.35701 0.08198 0.0
C1587 C 0.06104 0.29011 0.0134 0.0
C1588 C 0.0677 0.29752 0.98826 0.0
C1589 C 0.06513 0.29746 0.03933 0.0
C1590 C 0.07573 0.3124 0.04053 0.0
C1591 C 0.08254 0.31974 0.01562 0.0
C1592 C 0.07873 0.31236 0.98986 0.0
C1593 C 0.07922 0.32064 0.06746 0.0
C1594 C 0.07347 0.32991 0.07218 0.0
C1595 C 0.08791 0.31926 0.08848 0.0
C1596 C 0.09429 0.30966 0.08459 0.0
C1597 C 0.10386 0.31195 0.0621 0.0
C1598 C 0.10982 0.30282 0.05856 0.0
C1599 C 0.10636 0.29142 0.0775 0.0
C1600 C 0.09698 0.28915 0.10008 0.0
C1601 C 0.09098 0.29825 0.1037 0.0
H1602 H 0.111 0.28437 0.07474 0.0
H1603 H 0.04826 0.36831 0.11181 0.0
H1604 H 0.61345 0.71119 0.17042 0.0
H1605 H 0.62784 0.7198 0.12709 0.0
H1606 H 0.65386 0.76268 0.16354 0.0
H1607 H 0.63967 0.7542 0.20688 0.0
H1608 H 0.63463 0.74084 0.08775 0.0
H1609 H 0.68966 0.77564 0.14665 0.0
H1610 H 0.7005 0.77605 0.19287 0.0
H1611 H 0.67114 0.72984 0.20206 0.0
H1612 H 0.6603 0.72911 0.15572 0.0
H1613 H 0.68794 0.78037 0.98342 0.0
H1614 H 0.67294 0.77436 0.02592 0.0
H1615 H 0.69198 0.7491 0.05669 0.0
H1616 H 0.70746 0.75564 0.01497 0.0
H1617 H 0.68818 0.76131 0.09883 0.0
H1618 H 0.6567 0.73348 0.02277 0.0
H1619 H 0.64525 0.72978 0.97601 0.0
H1620 H 0.62655 0.7562 0.99994 0.0
H1621 H 0.63802 0.7602 0.04675 0.0
C1622 C 0.62204 0.72253 0.16909 0.0
C1623 C 0.62542 0.73192 0.19242 0.0
C1624 C 0.63029 0.72745 0.14422 0.0
C1625 C 0.64214 0.74183 0.14215 0.0
C1626 C 0.64495 0.75146 0.16474 0.0
C1627 C 0.63674 0.74658 0.18954 0.0
C1628 C 0.65214 0.74652 0.11724 0.0
C1629 C 0.64635 0.74538 0.09018 0.0
C1630 C 0.66741 0.75208 0.12019 0.0
C1631 C 0.67407 0.75237 0.14785 0.0
C1632 C 0.68557 0.76556 0.15848 0.0
C1633 C 0.69171 0.76584 0.1847 0.0
C1634 C 0.68647 0.75299 0.20043 0.0
C1635 C 0.67514 0.7398 0.1899 0.0
C1636 C 0.669 0.73945 0.16367 0.0
C1637 C 0.6891 0.77372 0.99944 0.0
C1638 C 0.69893 0.76849 0.99565 0.0
C1639 C 0.68038 0.77015 0.02369 0.0
C1640 C 0.68097 0.76093 0.04443 0.0
C1641 C 0.69121 0.75618 0.04114 0.0
C1642 C 0.70011 0.75997 0.01717 0.0
C1643 C 0.67075 0.75589 0.06915 0.0
C1644 C 0.67649 0.75691 0.09628 0.0
C1645 C 0.65538 0.74977 0.06614 0.0
C1646 C 0.64832 0.74724 0.03815 0.0
C1647 C 0.6502 0.73856 0.018 0.0
C1648 C 0.6437 0.7364 0.9915 0.0
C1649 C 0.63521 0.74278 0.98498 0.0
C1650 C 0.63314 0.75128 1.005 0.0
C1651 C 0.63963 0.75348 0.03153 0.0
H1652 H 0.6302 0.74111 0.96445 0.0
H1653 H 0.69122 0.75324 0.22074 0.0
H1654 H 0.28182 0.90165 0.17105 0.0
H1655 H 0.27392 0.90745 0.12685 0.0
H1656 H 0.23604 0.9041 0.1686 0.0
H1657 H 0.24358 0.8979 0.21243 0.0
H1658 H 0.22807 0.89209 0.11974 0.0
H1659 H 0.26849 0.93834 0.15257 0.0
H1660 H 0.29396 0.95563 0.16693 0.0
H1661 H 0.30975 0.94951 0.08788 0.0
H1662 H 0.28445 0.9322 0.07299 0.0
H1663 H 0.23559 0.95184 0.01138 0.0
H1664 H 0.24152 0.94431 0.05577 0.0
H1665 H 0.2283 0.90177 0.02076 0.0
H1666 H 0.22212 0.90909 0.97651 0.0
H1667 H 0.26166 0.93691 0.06637 0.0
H1668 H 0.21645 0.8762 0.07295 0.0
H1669 H 0.19071 0.86029 0.05874 0.0
H1670 H 0.18369 0.89702 0.06148 0.0
H1671 H 0.20933 0.91311 0.07605 0.0
C1672 C 0.27173 0.90201 0.17079 0.0
C1673 C 0.26337 0.89929 0.19548 0.0
C1674 C 0.26728 0.90546 0.14548 0.0
C1675 C 0.25448 0.90649 0.14433 0.0
C1676 C 0.24596 0.90342 0.16878 0.0
C1677 C 0.25032 0.89986 0.19395 0.0
C1678 C 0.24987 0.91078 0.11788 0.0
C1679 C 0.23546 0.90189 0.10809 0.0
C1680 C 0.25938 0.92362 0.10257 0.0
C1681 C 0.27459 0.93384 0.11181 0.0
C1682 C 0.27741 0.94058 0.13836 0.0
C1683 C 0.2918 0.9504 0.14658 0.0
C1684 C 0.30344 0.95358 0.12843 0.0
C1685 C 0.30072 0.94701 0.10196 0.0
C1686 C 0.28637 0.93721 0.09359 0.0
C1687 C 0.23368 0.94079 0.01321 0.0
C1688 C 0.22831 0.93109 0.99021 0.0
C1689 C 0.2372 0.93652 0.03861 0.0
C1690 C 0.23535 0.92244 0.04177 0.0
C1691 C 0.22966 0.91262 0.0191 0.0
C1692 C 0.22614 0.91687 0.9937 0.0
C1693 C 0.2399 0.91825 0.06835 0.0
C1694 C 0.25429 0.92711 0.07805 0.0
C1695 C 0.23034 0.90548 0.08372 0.0
C1696 C 0.21485 0.89588 0.07532 0.0
C1697 C 0.20939 0.88087 0.07062 0.0
C1698 C 0.19483 0.87182 0.06249 0.0
C1699 C 0.18558 0.87765 0.05913 0.0
C1700 C 0.19087 0.89253 0.06399 0.0
C1701 C 0.20543 0.90162 0.07215 0.0
H1702 H 0.17431 0.87063 0.05281 0.0
H1703 H 0.31456 0.96119 0.13486 0.0
H1704 H 0.61806 0.90024 0.66595 0.0
H1705 H 0.63158 0.90544 0.62166 0.0
H1706 H 0.66096 0.89295 0.65918 0.0
H1707 H 0.64744 0.88756 0.70334 0.0
H1708 H 0.65896 0.92544 0.61016 0.0
H1709 H 0.67422 0.87955 0.60904 0.0
H1710 H 0.66361 0.85377 0.62375 0.0
H1711 H 0.62035 0.84789 0.61802 0.0
H1712 H 0.63068 0.87355 0.60292 0.0
H1713 H 0.71509 0.94579 0.50884 0.0
H1714 H 0.70146 0.93744 0.55304 0.0
H1715 H 0.66824 0.89858 0.51162 0.0
H1716 H 0.68195 0.90656 0.46782 0.0
H1717 H 0.67128 0.89134 0.56168 0.0
H1718 H 0.66475 0.92978 0.52336 0.0
H1719 H 0.67257 0.95449 0.50497 0.0
H1720 H 0.69358 0.97342 0.58353 0.0
H1721 H 0.68604 0.94882 0.60226 0.0
C1722 C 0.62723 0.89833 0.6647 0.0
C1723 C 0.63159 0.89343 0.68839 0.0
C1724 C 0.63505 0.90144 0.63935 0.0
C1725 C 0.64733 0.89961 0.63692 0.0
C1726 C 0.65145 0.89433 0.66028 0.0
C1727 C 0.64368 0.89125 0.68563 0.0
C1728 C 0.65617 0.90376 0.61042 0.0
C1729 C 0.66166 0.91796 0.59962 0.0
C1730 C 0.65956 0.89401 0.59623 0.0
C1731 C 0.65325 0.87853 0.60515 0.0
C1732 C 0.66244 0.87274 0.61085 0.0
C1733 C 0.65648 0.85815 0.61926 0.0
C1734 C 0.64132 0.84922 0.62191 0.0
C1735 C 0.63209 0.85484 0.61607 0.0
C1736 C 0.638 0.86941 0.60764 0.0
C1737 C 0.70503 0.93534 0.50922 0.0
C1738 C 0.69965 0.92694 0.48453 0.0
C1739 C 0.69714 0.93062 0.53453 0.0
C1740 C 0.68359 0.9175 0.53568 0.0
C1741 C 0.6786 0.90876 0.51143 0.0
C1742 C 0.68651 0.91339 0.48625 0.0
C1743 C 0.67426 0.9131 0.56162 0.0
C1744 C 0.66868 0.89885 0.57233 0.0
C1745 C 0.67044 0.92268 0.57529 0.0
C1746 C 0.67495 0.93747 0.56411 0.0
C1747 C 0.67112 0.93922 0.53664 0.0
C1748 C 0.67549 0.9532 0.52617 0.0
C1749 C 0.6836 0.96552 0.54305 0.0
C1750 C 0.68732 0.96387 0.57046 0.0
C1751 C 0.68299 0.94991 0.58103 0.0
H1752 H 0.68697 0.97633 0.5349 0.0
H1753 H 0.63672 0.83793 0.62843 0.0
H1754 H 0.08407 0.763 0.46626 0.0
H1755 H 0.09168 0.75756 0.51097 0.0
H1756 H 0.0604 0.76525 0.55476 0.0
H1757 H 0.05233 0.77037 0.50981 0.0
H1758 H 0.09286 0.77868 0.57771 0.0
H1759 H 0.04901 0.73361 0.54922 0.0
H1760 H 0.03454 0.71443 0.51436 0.0
H1761 H 0.06885 0.70389 0.5078 0.0
H1762 H 0.08363 0.72319 0.54231 0.0
H1763 H 0.09249 0.74978 0.71103 0.0
H1764 H 0.08696 0.75718 0.6665 0.0
H1765 H 0.09981 0.72964 0.62226 0.0
H1766 H 0.10445 0.72138 0.66739 0.0
H1767 H 0.0775 0.72677 0.59777 0.0
H1768 H 0.1213 0.76972 0.62505 0.0
H1769 H 0.13823 0.78982 0.65612 0.0
H1770 H 0.10778 0.80556 0.66104 0.0
H1771 H 0.09059 0.78544 0.63028 0.0
C1772 C 0.0789 0.76377 0.48536 0.0
C1773 C 0.06755 0.76716 0.48432 0.0
C1774 C 0.08326 0.76058 0.51092 0.0
C1775 C 0.07657 0.76093 0.53614 0.0
C1776 C 0.06569 0.76492 0.53549 0.0
C1777 C 0.0611 0.76784 0.50978 0.0
C1778 C 0.08056 0.75651 0.56292 0.0
C1779 C 0.08935 0.76732 0.5824 0.0
C1780 C 0.07652 0.74177 0.56833 0.0
C1781 C 0.06748 0.72994 0.54812 0.0
C1782 C 0.05352 0.72728 0.54017 0.0
C1783 C 0.04525 0.71638 0.52051 0.0
C1784 C 0.05078 0.70798 0.5088 0.0
C1785 C 0.06458 0.71042 0.51685 0.0
C1786 C 0.0729 0.72133 0.53648 0.0
C1787 C 0.09439 0.74544 0.69185 0.0
C1788 C 0.09915 0.73513 0.69286 0.0
C1789 C 0.09125 0.74975 0.66621 0.0
C1790 C 0.09329 0.74433 0.64064 0.0
C1791 C 0.09818 0.7341 0.64155 0.0
C1792 C 0.10095 0.72945 0.66737 0.0
C1793 C 0.08977 0.74895 0.61325 0.0
C1794 C 0.08109 0.73817 0.5934 0.0
C1795 C 0.09425 0.76381 0.60717 0.0
C1796 C 0.1046 0.77599 0.62554 0.0
C1797 C 0.11818 0.77741 0.63289 0.0
C1798 C 0.12782 0.78882 0.65043 0.0
C1799 C 0.12407 0.79894 0.6606 0.0
C1800 C 0.11067 0.7977 0.65317 0.0
C1801 C 0.10098 0.78631 0.63565 0.0
H1802 H 0.13155 0.80775 0.67419 0.0
H1803 H 0.04438 0.69956 0.49354 0.0
H1804 H 0.21559 0.30674 0.47753 0.0
H1805 H 0.22058 0.32033 0.52163 0.0
H1806 H 0.25167 0.30687 0.54466 0.0
H1807 H 0.24627 0.29277 0.50109 0.0
H1808 H 0.23798 0.30734 0.58989 0.0
H1809 H 0.2621 0.34146 0.51428 0.0
H1810 H 0.26321 0.35288 0.4684 0.0
H1811 H 0.23287 0.36584 0.49793 0.0
H1812 H 0.23145 0.35434 0.54388 0.0
H1813 H 0.28243 0.38219 0.66422 0.0
H1814 H 0.27453 0.36796 0.6207 0.0
H1815 H 0.23265 0.33866 0.65817 0.0
H1816 H 0.24045 0.35271 0.7018 0.0
H1817 H 0.25249 0.35984 0.58276 0.0
H1818 H 0.22289 0.30264 0.63629 0.0
H1819 H 0.22294 0.2916 0.68197 0.0
H1820 H 0.26712 0.32581 0.69683 0.0
H1821 H 0.26759 0.3367 0.6507 0.0
C1822 C 0.22332 0.30648 0.49218 0.0
C1823 C 0.23052 0.29864 0.48568 0.0
C1824 C 0.22626 0.31437 0.51736 0.0
C1825 C 0.23678 0.31497 0.53636 0.0
C1826 C 0.24353 0.30665 0.53045 0.0
C1827 C 0.2404 0.29854 0.50548 0.0
C1828 C 0.24116 0.32469 0.56173 0.0
C1829 C 0.24109 0.3188 0.5883 0.0
C1830 C 0.24549 0.33976 0.55983 0.0
C1831 C 0.24659 0.34695 0.53243 0.0
C1832 C 0.25563 0.3467 0.51094 0.0
C1833 C 0.25631 0.35319 0.48493 0.0
C1834 C 0.24809 0.36006 0.48024 0.0
C1835 C 0.23922 0.36051 0.50159 0.0
C1836 C 0.23849 0.35403 0.52763 0.0
C1837 C 0.27144 0.37287 0.66313 0.0
C1838 C 0.26216 0.36859 0.68679 0.0
C1839 C 0.26693 0.36473 0.63814 0.0
C1840 C 0.25307 0.35207 0.63623 0.0
C1841 C 0.24348 0.34824 0.65922 0.0
C1842 C 0.24796 0.35637 0.68419 0.0
C1843 C 0.24903 0.34241 0.61092 0.0
C1844 C 0.24925 0.34835 0.58437 0.0
C1845 C 0.24505 0.32744 0.61284 0.0
C1846 C 0.24519 0.3206 0.6401 0.0
C1847 C 0.23268 0.30772 0.64913 0.0
C1848 C 0.23264 0.30147 0.67508 0.0
C1849 C 0.24504 0.308 0.69226 0.0
C1850 C 0.25755 0.32073 0.68342 0.0
C1851 C 0.25772 0.32693 0.65733 0.0
H1852 H 0.24495 0.3032 0.71242 0.0
H1853 H 0.24862 0.36506 0.46007 0.0
H1854 H 0.95436 0.70357 0.01267 0.0
H1855 H 0.94693 0.6898 0.96878 0.0
H1856 H 0.9024 0.67978 0.98277 0.0
H1857 H 0.9097 0.69277 0.02773 0.0
H1858 H 0.90075 0.65684 0.96539 0.0
H1859 H 0.92778 0.70563 0.93056 0.0
H1860 H 0.94858 0.73069 0.92468 0.0
H1861 H 0.9753 0.7135 0.89414 0.0
H1862 H 0.95474 0.68833 0.90026 0.0
H1863 H 0.88187 0.63633 0.81728 0.0
H1864 H 0.88798 0.65026 0.86145 0.0
H1865 H 0.92374 0.64217 0.87479 0.0
H1866 H 0.91743 0.62783 0.83132 0.0
H1867 H 0.92897 0.67437 0.87664 0.0
H1868 H 0.90055 0.62505 0.91482 0.0
H1869 H 0.8784 0.60069 0.91804 0.0
H1870 H 0.8527 0.62063 0.93886 0.0
H1871 H 0.87469 0.64514 0.93534 0.0
C1872 C 0.94302 0.69863 1.00619 0.0
C1873 C 0.93266 0.69939 0.02367 0.0
C1874 C 0.93876 0.69077 0.9809 0.0
C1875 C 0.92409 0.68386 0.97186 0.0
C1876 C 0.91378 0.68493 0.98905 0.0
C1877 C 0.91798 0.69247 0.01473 0.0
C1878 C 0.91936 0.67496 0.9453 0.0
C1879 C 0.90688 0.66087 0.94597 0.0
C1880 C 0.92731 0.67993 0.91968 0.0
C1881 C 0.93975 0.69507 0.91621 0.0
C1882 C 0.93813 0.70719 0.92286 0.0
C1883 C 0.94987 0.72142 0.91944 0.0
C1884 C 0.96327 0.72369 0.90915 0.0
C1885 C 0.96493 0.71173 0.90219 0.0
C1886 C 0.95324 0.69747 0.90563 0.0
C1887 C 0.89088 0.63731 0.82987 0.0
C1888 C 0.89906 0.63083 0.82087 0.0
C1889 C 0.89438 0.6453 0.85504 0.0
C1890 C 0.90632 0.64726 0.87136 0.0
C1891 C 0.91446 0.64076 0.86255 0.0
C1892 C 0.91075 0.63247 0.83778 0.0
C1893 C 0.91063 0.65646 0.89719 0.0
C1894 C 0.92295 0.67053 0.89622 0.0
C1895 C 0.90241 0.65163 0.92229 0.0
C1896 C 0.88922 0.63692 0.92446 0.0
C1897 C 0.89014 0.62424 0.91977 0.0
C1898 C 0.87763 0.61041 0.92173 0.0
C1899 C 0.86414 0.60911 0.92855 0.0
C1900 C 0.86315 0.62165 0.93352 0.0
C1901 C 0.87563 0.63551 0.93156 0.0
H1902 H 0.85446 0.59839 0.93007 0.0
H1903 H 0.97234 0.73472 0.90648 0.0
H1904 H 0.2821 0.22721 1.00101 0.0
H1905 H 0.29575 0.23239 0.95664 0.0
H1906 H 0.33344 0.23739 1.00165 0.0
H1907 H 0.31993 0.23198 0.0458 0.0
H1908 H 0.33925 0.26106 0.96357 0.0
H1909 H 0.31539 0.20809 0.96516 0.0
H1910 H 0.29394 0.18322 0.96787 0.0
H1911 H 0.27573 0.1916 0.89422 0.0
H1912 H 0.29698 0.21661 0.89131 0.0
H1913 H 0.38399 0.27091 0.84431 0.0
H1914 H 0.37108 0.26253 0.88939 0.0
H1915 H 0.32968 0.24227 0.84555 0.0
H1916 H 0.34251 0.24953 0.80089 0.0
H1917 H 0.32596 0.22591 0.88475 0.0
H1918 H 0.3476 0.27818 0.88194 0.0
H1919 H 0.36754 0.30384 0.87827 0.0
H1920 H 0.3877 0.29855 0.95234 0.0
H1921 H 0.36807 0.27275 0.95609 0.0
C1922 C 0.29323 0.22922 1.00144 0.0
C1923 C 0.29984 0.22911 0.02711 0.0
C1924 C 0.30103 0.23221 0.97605 0.0
C1925 C 0.31565 0.23533 0.97582 0.0
C1926 C 0.32221 0.23506 1.00129 0.0
C1927 C 0.31438 0.23186 0.02655 0.0
C1928 C 0.3243 0.23924 0.94921 0.0
C1929 C 0.33647 0.25335 0.94638 0.0
C1930 C 0.32042 0.22933 0.92652 0.0
C1931 C 0.30771 0.21427 0.92818 0.0
C1932 C 0.30675 0.20467 0.94968 0.0
C1933 C 0.29464 0.19054 0.95123 0.0
C1934 C 0.28346 0.18584 0.93127 0.0
C1935 C 0.28439 0.19526 0.90969 0.0
C1936 C 0.29647 0.20941 0.90806 0.0
C1937 C 0.37215 0.26446 0.84439 0.0
C1938 C 0.36432 0.26082 0.81897 0.0
C1939 C 0.36472 0.2598 0.87022 0.0
C1940 C 0.34927 0.252 0.87126 0.0
C1941 C 0.34154 0.24819 0.84571 0.0
C1942 C 0.34894 0.25238 0.82001 0.0
C1943 C 0.341 0.24794 0.89861 0.0
C1944 C 0.32885 0.23375 0.90173 0.0
C1945 C 0.34467 0.25795 0.92129 0.0
C1946 C 0.35644 0.27348 0.91911 0.0
C1947 C 0.35634 0.28246 0.89733 0.0
C1948 C 0.36759 0.29702 0.89524 0.0
C1949 C 0.37888 0.30281 0.91505 0.0
C1950 C 0.37896 0.29404 0.93699 0.0
C1951 C 0.36779 0.27944 0.93909 0.0
H1952 H 0.38756 0.3141 0.91341 0.0
H1953 H 0.2741 0.17489 0.93251 0.0
H1954 H 0.71714 0.10467 0.84514 0.0
H1955 H 0.72487 0.09907 0.88975 0.0
H1956 H 0.76314 0.10268 0.84941 0.0
H1957 H 0.75562 0.10838 0.80486 0.0
H1958 H 0.7473 0.07667 0.8793 0.0
H1959 H 0.76668 0.1284 0.89533 0.0
H1960 H 0.76507 0.1509 0.89863 0.0
H1961 H 0.73243 0.13126 0.9632 0.0
H1962 H 0.7337 0.10856 0.96002 0.0
H1963 H 0.77823 0.06482 1.00282 0.0
H1964 H 0.77404 0.07432 0.95879 0.0
H1965 H 0.74307 0.08314 1.00135 0.0
H1966 H 0.74818 0.07479 0.04547 0.0
H1967 H 0.75612 0.10365 0.96909 0.0
H1968 H 0.7342 0.05198 0.95278 0.0
H1969 H 0.73317 0.02813 0.94952 0.0
H1970 H 0.76671 0.04537 0.88623 0.0
H1971 H 0.76806 0.06937 0.88935 0.0
C1972 C 0.72738 0.10461 0.84582 0.0
C1973 C 0.73572 0.10702 0.82119 0.0
C1974 C 0.73177 0.10136 0.87141 0.0
C1975 C 0.74458 0.10038 0.87299 0.0
C1976 C 0.75319 0.1033 0.84875 0.0
C1977 C 0.7489 0.10668 0.82325 0.0
C1978 C 0.74858 0.09555 0.89942 0.0
C1979 C 0.74943 0.08267 0.89889 0.0
C1980 C 0.75087 0.10306 0.92521 0.0
C1981 C 0.7502 0.11675 0.92727 0.0
C1982 C 0.75908 0.12884 0.91009 0.0
C1983 C 0.75825 0.14164 0.91196 0.0
C1984 C 0.74863 0.1425 0.93106 0.0
C1985 C 0.73986 0.13057 0.94839 0.0
C1986 C 0.74065 0.11775 0.94659 0.0
C1987 C 0.77059 0.06886 1.00265 0.0
C1988 C 0.7636 0.06915 0.02757 0.0
C1989 C 0.76806 0.07418 0.97739 0.0
C1990 C 0.75797 0.07927 0.97625 0.0
C1991 C 0.75096 0.07942 1.00132 0.0
C1992 C 0.75386 0.07459 0.02663 0.0
C1993 C 0.75471 0.08456 0.94931 0.0
C1994 C 0.75401 0.09757 0.94963 0.0
C1995 C 0.75214 0.07693 0.92345 0.0
C1996 C 0.75134 0.06251 0.92152 0.0
C1997 C 0.74142 0.0507 0.9383 0.0
C1998 C 0.74077 0.03716 0.93645 0.0
C1999 C 0.7499 0.03525 0.91774 0.0
C2000 C 0.75967 0.04687 0.90075 0.0
C2001 C 0.76037 0.06044 0.90254 0.0
H2002 H 0.74938 0.02476 0.91634 0.0
H2003 H 0.748 0.15241 0.93248 0.0
H2004 H 0.04458 0.42494 0.67965 0.0
H2005 H 0.03113 0.41955 0.72405 0.0
H2006 H 0.00395 0.43557 0.68959 0.0
H2007 H 0.01745 0.44122 0.64541 0.0
H2008 H 0.0095 0.44346 0.74268 0.0
H2009 H 0.99226 0.39877 0.6917 0.0
H2010 H 0.99418 0.37945 0.66612 0.0
H2011 H 0.01187 0.37041 0.73976 0.0
H2012 H 0.01025 0.38982 0.76567 0.0
H2013 H 0.94938 0.38177 0.8401 0.0
H2014 H 0.9627 0.38987 0.79553 0.0
H2015 H -0.00235 0.42743 0.83719 0.0
H2016 H 0.98421 0.41978 0.88129 0.0
H2017 H 0.98699 0.39259 0.77871 0.0
H2018 H 0.01629 0.45554 0.79378 0.0
H2019 H 0.01178 0.47391 0.81675 0.0
H2020 H 0.96539 0.44501 0.80946 0.0
H2021 H 0.96961 0.42654 0.7862 0.0
C2022 C 0.03592 0.42757 0.68162 0.0
C2023 C 0.03209 0.43346 0.65871 0.0
C2024 C 0.02813 0.42436 0.70702 0.0
C2025 C 0.0163 0.42687 0.7101 0.0
C2026 C 0.01297 0.43345 0.6878 0.0
C2027 C 0.02073 0.43667 0.66244 0.0
C2028 C 0.007 0.42212 0.736 0.0
C2029 C 0.00463 0.43234 0.7506 0.0
C2030 C 0.00025 0.40752 0.74606 0.0
C2031 C 0.00127 0.39586 0.73053 0.0
C2032 C 0.99667 0.39274 0.70237 0.0
C2033 C -0.00232 0.38176 0.68782 0.0
C2034 C 0.00317 0.37373 0.70129 0.0
C2035 C 0.00764 0.37665 0.72934 0.0
C2036 C 0.00667 0.38764 0.74398 0.0
C2037 C 0.95978 0.39189 0.83968 0.0
C2038 C 0.9656 0.40016 0.86439 0.0
C2039 C 0.96746 0.39648 0.81416 0.0
C2040 C 0.98118 0.40939 0.8127 0.0
C2041 C 0.98697 0.41764 0.83736 0.0
C2042 C 0.97923 0.41319 0.86273 0.0
C2043 C 0.98966 0.41398 0.78574 0.0
C2044 C 0.99189 0.40372 0.7709 0.0
C2045 C 0.99594 0.42845 0.77506 0.0
C2046 C 0.99328 0.43961 0.78847 0.0
C2047 C 0.00513 0.45314 0.79695 0.0
C2048 C 0.00262 0.46356 0.81006 0.0
C2049 C 0.98831 0.46061 0.81464 0.0
C2050 C 0.97647 0.44726 0.80599 0.0
C2051 C 0.97891 0.43681 0.79288 0.0
H2052 H 0.98639 0.46868 0.82484 0.0
H2053 H 0.00393 0.36522 0.69 0.0
H2054 H 0.61692 0.57366 0.84119 0.0
H2055 H 0.60844 0.57933 0.79765 0.0
H2056 H 0.56364 0.55151 0.82333 0.0
H2057 H 0.57202 0.54602 0.86746 0.0
H2058 H 0.57227 0.55035 0.76087 0.0
H2059 H 0.57371 0.58299 0.83505 0.0
H2060 H 0.58583 0.60086 0.8733 0.0
H2061 H 0.61973 0.62958 0.81647 0.0
H2062 H 0.60794 0.61178 0.77797 0.0
H2063 H 0.54195 0.57565 0.65689 0.0
H2064 H 0.54689 0.56705 0.70116 0.0
H2065 H 0.58861 0.60702 0.70714 0.0
H2066 H 0.58298 0.61607 0.66443 0.0
H2067 H 0.58041 0.60086 0.75536 0.0
H2068 H 0.58186 0.57023 0.68217 0.0
H2069 H 0.57238 0.55321 0.64196 0.0
H2070 H 0.53705 0.52165 0.69294 0.0
H2071 H 0.54622 0.53856 0.73337 0.0
C2072 C 0.60525 0.56843 0.83739 0.0
C2073 C 0.59516 0.55933 0.85793 0.0
C2074 C 0.60042 0.57177 0.81249 0.0
C2075 C 0.58541 0.5659 0.80728 0.0
C2076 C 0.57528 0.55614 0.8269 0.0
C2077 C 0.58009 0.55301 0.85211 0.0
C2078 C 0.58043 0.57087 0.78243 0.0
C2079 C 0.57385 0.56132 0.7597 0.0
C2080 C 0.58293 0.58533 0.78055 0.0
C2081 C 0.59001 0.596 0.80371 0.0
C2082 C 0.58383 0.59305 0.83078 0.0
C2083 C 0.59061 0.60317 0.85248 0.0
C2084 C 0.60352 0.61634 0.84727 0.0
C2085 C 0.60971 0.61939 0.82043 0.0
C2086 C 0.60298 0.60929 0.79867 0.0
C2087 C 0.55203 0.58267 0.66803 0.0
C2088 C 0.56203 0.59657 0.65732 0.0
C2089 C 0.55499 0.57766 0.69318 0.0
C2090 C 0.56838 0.58611 0.70743 0.0
C2091 C 0.57819 0.60017 0.69688 0.0
C2092 C 0.57497 0.60539 0.67238 0.0
C2093 C 0.57232 0.58043 0.73305 0.0
C2094 C 0.57874 0.58985 0.75617 0.0
C2095 C 0.57007 0.56597 0.73485 0.0
C2096 C 0.56464 0.55572 0.7107 0.0
C2097 C 0.57203 0.55969 0.68475 0.0
C2098 C 0.56672 0.55006 0.66193 0.0
C2099 C 0.5541 0.53638 0.66487 0.0
C2100 C 0.5468 0.53226 0.69068 0.0
C2101 C 0.55206 0.54186 0.71356 0.0
H2102 H 0.54999 0.52895 0.64717 0.0
H2103 H 0.60869 0.6242 0.864 0.0
H2104 H 0.43442 0.04939 0.82971 0.0
H2105 H 0.42909 0.0356 0.78577 0.0
H2106 H 0.43542 0.00286 0.82746 0.0
H2107 H 0.4412 0.01673 0.87108 0.0
H2108 H 0.44477 0.0056 0.77596 0.0
H2109 H 0.40197 0.00061 0.82049 0.0
H2110 H 0.38638 0.00949 0.841 0.0
H2111 H 0.38296 0.02585 0.76039 0.0
H2112 H 0.39908 0.01766 0.73961 0.0
H2113 H 0.38088 0.95162 0.67514 0.0
H2114 H 0.38955 0.9651 0.71946 0.0
H2115 H 0.43086 0.99488 0.68048 0.0
H2116 H 0.42248 0.98137 0.63654 0.0
H2117 H 0.39683 0.99207 0.7327 0.0
H2118 H 0.45827 0.00849 0.72738 0.0
H2119 H 0.47341 -0.00174 0.71032 0.0
H2120 H 0.43675 0.9547 0.71835 0.0
H2121 H 0.42145 0.96465 0.73578 0.0
C2122 C 0.43504 0.03945 0.82941 0.0
C2123 C 0.43811 0.03415 0.85418 0.0
C2124 C 0.43187 0.03149 0.80426 0.0
C2125 C 0.43146 0.01795 0.80339 0.0
C2126 C 0.43554 0.01319 0.82753 0.0
C2127 C 0.43886 0.02119 0.85257 0.0
C2128 C 0.42582 0.00824 0.77816 0.0
C2129 C 0.43432 0.00273 0.76644 0.0
C2130 C 0.41194 0.00404 0.76617 0.0
C2131 C 0.40193 0.00868 0.77853 0.0
C2132 C 0.39808 0.00628 0.80718 0.0
C2133 C 0.38919 0.01125 0.8189 0.0
C2134 C 0.38372 0.01827 0.80203 0.0
C2135 C 0.38722 0.02043 0.77345 0.0
C2136 C 0.39629 0.01568 0.76171 0.0
C2137 C 0.39191 0.96088 0.6761 0.0
C2138 C 0.40097 0.96531 0.65212 0.0
C2139 C 0.39682 0.96866 0.70146 0.0
C2140 C 0.41091 0.98101 0.70351 0.0
C2141 C 0.42004 0.98528 0.67974 0.0
C2142 C 0.41518 0.97751 0.65448 0.0
C2143 C 0.41596 0.98974 0.73008 0.0
C2144 C 0.40731 0.99501 0.74214 0.0
C2145 C 0.42952 0.99343 0.74285 0.0
C2146 C 0.43868 0.98734 0.73263 0.0
C2147 C 0.45346 0.99673 0.72561 0.0
C2148 C 0.46206 0.99098 0.71585 0.0
C2149 C 0.45603 0.97585 0.71317 0.0
C2150 C 0.44139 0.96642 0.72033 0.0
C2151 C 0.43274 0.97211 0.7301 0.0
H2152 H 0.46271 0.97142 0.7056 0.0
H2153 H 0.37673 0.02199 0.8111 0.0
H2154 H 0.55909 0.94666 0.17398 0.0
H2155 H 0.56401 0.96006 0.21866 0.0
H2156 H 0.56957 0.9981 0.17415 0.0
H2157 H 0.56432 0.9848 0.12976 0.0
H2158 H 0.59351 0.00238 0.21337 0.0
H2159 H 0.54091 0.98203 0.20841 0.0
H2160 H 0.51541 0.96181 0.20444 0.0
H2161 H 0.52075 0.94209 0.27917 0.0
H2162 H 0.54636 0.9621 0.28333 0.0
H2163 H 0.60435 0.04924 0.32815 0.0
H2164 H 0.59571 0.03555 0.28408 0.0
H2165 H 0.57306 0.99515 0.33092 0.0
H2166 H 0.58078 0.0089 0.37481 0.0
H2167 H 0.55746 0.99158 0.28969 0.0
H2168 H 0.60897 0.00946 0.29588 0.0
H2169 H 0.63516 0.02779 0.30095 0.0
H2170 H 0.63327 0.04964 0.22622 0.0
H2171 H 0.60701 0.03153 0.22089 0.0
C2172 C 0.56114 0.9578 0.17374 0.0
C2173 C 0.56121 0.96457 0.14815 0.0
C2174 C 0.56398 0.96546 0.1993 0.0
C2175 C 0.5672 0.98011 0.19974 0.0
C2176 C 0.56713 0.98682 0.17434 0.0
C2177 C 0.56402 0.97912 0.14894 0.0
C2178 C 0.57118 0.98868 0.22644 0.0
C2179 C 0.58561 0.00015 0.22998 0.0
C2180 C 0.561 0.98546 0.24846 0.0
C2181 C 0.5456 0.97347 0.24599 0.0
C2182 C 0.5367 0.9733 0.22383 0.0
C2183 C 0.52221 0.9619 0.22159 0.0
C2184 C 0.51648 0.95064 0.24149 0.0
C2185 C 0.52521 0.9508 0.26373 0.0
C2186 C 0.53971 0.96217 0.26606 0.0
C2187 C 0.59735 0.03746 0.329 0.0
C2188 C 0.59327 0.0302 0.35506 0.0
C2189 C 0.59253 0.02957 0.30373 0.0
C2190 C 0.58403 0.01415 0.30381 0.0
C2191 C 0.57961 0.00698 0.32993 0.0
C2192 C 0.58405 0.01489 0.35516 0.0
C2193 C 0.57995 0.00545 0.27695 0.0
C2194 C 0.56547 0.9939 0.27326 0.0
C2195 C 0.59022 0.00834 0.25504 0.0
C2196 C 0.606 0.01923 0.25816 0.0
C2197 C 0.61412 0.01823 0.28063 0.0
C2198 C 0.62898 0.02857 0.28354 0.0
C2199 C 0.63586 0.03989 0.26396 0.0
C2200 C 0.62791 0.04087 0.24139 0.0
C2201 C 0.61305 0.03057 0.23841 0.0
H2202 H 0.64736 0.04789 0.26625 0.0
H2203 H 0.50526 0.94183 0.23972 0.0
H2204 H 0.97435 0.54957 0.37092 0.0
H2205 H 0.98772 0.55507 0.32647 0.0
H2206 H 0.96297 0.5744 0.29463 0.0
H2207 H 0.9495 0.56894 0.33905 0.0
H2208 H 0.98059 0.54825 0.27076 0.0
H2209 H 0.98734 0.60593 0.25879 0.0
H2210 H 0.98807 0.62544 0.28861 0.0
H2211 H 0.00272 0.61041 0.35863 0.0
H2212 H 0.00231 0.59097 0.32913 0.0
H2213 H 0.00901 0.57688 0.13521 0.0
H2214 H 0.9949 0.56821 0.17849 0.0
H2215 H 0.03178 0.6008 0.22564 0.0
H2216 H 0.04581 0.60999 0.18204 0.0
H2217 H 0.00879 0.60062 0.24333 0.0
H2218 H 0.01976 0.56215 0.22637 0.0
H2219 H 0.02078 0.54303 0.19819 0.0
H2220 H 0.97397 0.52004 0.18971 0.0
H2221 H 0.97269 0.5391 0.21761 0.0
C2222 C 0.97155 0.55478 0.35434 0.0
C2223 C 0.96085 0.55886 0.35874 0.0
C2224 C 0.97922 0.5579 0.32886 0.0
C2225 C 0.97652 0.56533 0.30729 0.0
C2226 C 0.96537 0.5688 0.31107 0.0
C2227 C 0.9576 0.56558 0.33647 0.0
C2228 C 0.98592 0.57018 0.28161 0.0
C2229 C 0.98673 0.55969 0.26469 0.0
C2230 C 0.9942 0.58515 0.27394 0.0
C2231 C 0.99461 0.59688 0.29181 0.0
C2232 C 0.99075 0.60681 0.28053 0.0
C2233 C 0.99112 0.61786 0.29738 0.0
C2234 C 0.99539 0.61913 0.32552 0.0
C2235 C -0.00064 0.60938 0.33686 0.0
C2236 C -0.00096 0.59834 0.32009 0.0
C2237 C 0.01426 0.58209 0.1548 0.0
C2238 C 0.02864 0.59411 0.15504 0.0
C2239 C 0.00613 0.57707 0.17968 0.0
C2240 C 0.01226 0.58367 0.20562 0.0
C2241 C 0.02674 0.59548 0.20599 0.0
C2242 C 0.03481 0.60068 0.18102 0.0
C2243 C 0.0034 0.57868 0.2321 0.0
C2244 C 0.00266 0.58916 0.24923 0.0
C2245 C 0.99541 0.56373 0.24021 0.0
C2246 C 0.99614 0.55211 0.22391 0.0
C2247 C 0.00969 0.55304 0.2184 0.0
C2248 C 0.01031 0.54222 0.20249 0.0
C2249 C -0.00255 0.53035 0.19211 0.0
C2250 C 0.98393 0.52925 0.19775 0.0
C2251 C 0.98324 0.54004 0.21365 0.0
H2252 H -0.00204 0.522 0.17976 0.0
H2253 H 0.99566 0.62768 0.33853 0.0
H2254 H 0.37599 0.41223 0.16084 0.0
H2255 H 0.38433 0.40689 0.20459 0.0
H2256 H 0.42443 0.44854 0.1995 0.0
H2257 H 0.41652 0.45322 0.15408 0.0
H2258 H 0.43206 0.43174 0.21651 0.0
H2259 H 0.39316 0.43806 0.24959 0.0
H2260 H 0.36844 0.43493 0.25365 0.0
H2261 H 0.35078 0.38943 0.27336 0.0
H2262 H 0.37533 0.3922 0.26891 0.0
H2263 H 0.44595 0.42254 0.36434 0.0
H2264 H 0.44025 0.43129 0.32089 0.0
H2265 H 0.41059 0.38672 0.29616 0.0
H2266 H 0.41647 0.37788 0.339 0.0
H2267 H 0.39894 0.40719 0.29705 0.0
H2268 H 0.44014 0.40307 0.262 0.0
H2269 H 0.4659 0.40896 0.26281 0.0
H2270 H 0.48019 0.45466 0.25331 0.0
H2271 H 0.4545 0.44906 0.25285 0.0
C2272 C 0.38647 0.42038 0.16932 0.0
C2273 C 0.39549 0.43326 0.1542 0.0
C2274 C 0.39125 0.41735 0.19459 0.0
C2275 C 0.40494 0.42742 0.20621 0.0
C2276 C 0.41383 0.44051 0.19132 0.0
C2277 C 0.40925 0.44328 0.16543 0.0
C2278 C 0.41026 0.42389 0.23287 0.0
C2279 C 0.42478 0.42663 0.23422 0.0
C2280 C 0.40096 0.4171 0.2564 0.0
C2281 C 0.38609 0.41532 0.25858 0.0
C2282 C 0.38399 0.42735 0.25449 0.0
C2283 C 0.37 0.42564 0.25691 0.0
C2284 C 0.35804 0.41198 0.26366 0.0
C2285 C 0.36004 0.4 0.26805 0.0
C2286 C 0.37399 0.40163 0.26558 0.0
C2287 C 0.43842 0.41459 0.3494 0.0
C2288 C 0.43175 0.39949 0.35516 0.0
C2289 C 0.43516 0.41962 0.32459 0.0
C2290 C 0.42499 0.40966 0.30526 0.0
C2291 C 0.4185 0.3946 0.31072 0.0
C2292 C 0.42196 0.38956 0.33519 0.0
C2293 C 0.4204 0.41485 0.28014 0.0
C2294 C 0.40607 0.41242 0.27924 0.0
C2295 C 0.42998 0.42234 0.2576 0.0
C2296 C 0.4454 0.42566 0.25769 0.0
C2297 C 0.44877 0.41439 0.26035 0.0
C2298 C 0.46336 0.41767 0.26068 0.0
C2299 C 0.47468 0.43218 0.2582 0.0
C2300 C 0.47142 0.44343 0.25528 0.0
C2301 C 0.45685 0.44021 0.25495 0.0
H2302 H 0.48597 0.4347 0.25847 0.0
H2303 H 0.34723 0.41069 0.26557 0.0
H2304 H 0.33372 0.22006 0.14027 0.0
H2305 H 0.34341 0.20473 0.1576 0.0
H2306 H 0.3014 0.16609 0.14367 0.0
H2307 H 0.29159 0.18133 0.12671 0.0
H2308 H 0.31165 0.16627 0.19554 0.0
H2309 H 0.33039 0.17422 0.10101 0.0
H2310 H 0.34383 0.18905 0.05979 0.0
H2311 H 0.38348 0.21026 0.10819 0.0
H2312 H 0.37023 0.19569 0.14983 0.0
H2313 H 0.33169 0.11178 0.21292 0.0
H2314 H 0.32291 0.12797 0.19647 0.0
H2315 H 0.36606 0.16537 0.20828 0.0
H2316 H 0.375 0.14918 0.22407 0.0
H2317 H 0.35572 0.16647 0.15843 0.0
H2318 H 0.33733 0.15836 0.25269 0.0
H2319 H 0.32405 0.1437 0.29418 0.0
H2320 H 0.28397 0.12318 0.24703 0.0
H2321 H 0.29705 0.13757 0.20511 0.0
C2322 C 0.32661 0.20828 0.14054 0.0
C2323 C 0.31189 0.20189 0.1322 0.0
C2324 C 0.33216 0.19954 0.15041 0.0
C2325 C 0.32311 0.18428 0.15186 0.0
C2326 C 0.30854 0.17786 0.14281 0.0
C2327 C 0.30298 0.18658 0.13301 0.0
C2328 C 0.32861 0.17502 0.16403 0.0
C2329 C 0.32118 0.16616 0.18722 0.0
C2330 C 0.34128 0.17524 0.15367 0.0
C2331 C 0.34928 0.18396 0.12861 0.0
C2332 C 0.34195 0.18213 0.10293 0.0
C2333 C 0.34954 0.19047 0.07948 0.0
C2334 C 0.36449 0.20062 0.08139 0.0
C2335 C 0.3719 0.20241 0.10675 0.0
C2336 C 0.36436 0.1941 0.13027 0.0
C2337 C 0.33926 0.12347 0.21236 0.0
C2338 C 0.35403 0.12922 0.21974 0.0
C2339 C 0.33422 0.13272 0.20302 0.0
C2340 C 0.34381 0.14789 0.20132 0.0
C2341 C 0.35848 0.15369 0.20937 0.0
C2342 C 0.36355 0.14444 0.21849 0.0
C2343 C 0.33871 0.15764 0.18987 0.0
C2344 C 0.34622 0.16661 0.16684 0.0
C2345 C 0.32613 0.15755 0.20044 0.0
C2346 C 0.3182 0.14895 0.22568 0.0
C2347 C 0.32571 0.15064 0.2511 0.0
C2348 C 0.31821 0.1424 0.27471 0.0
C2349 C 0.30318 0.13249 0.27323 0.0
C2350 C 0.29561 0.13085 0.24814 0.0
C2351 C 0.30306 0.13906 0.22446 0.0
H2352 H 0.2974 0.12611 0.29152 0.0
H2353 H 0.37035 0.20707 0.06322 0.0
H2354 H 0.81225 0.11019 0.12023 0.0
H2355 H 0.82751 0.13502 0.13822 0.0
H2356 H 0.78879 0.13604 0.16403 0.0
H2357 H 0.77343 0.11133 0.14542 0.0
H2358 H 0.80908 0.162 0.14289 0.0
H2359 H 0.80804 0.12757 0.21093 0.0
H2360 H 0.81099 0.10691 0.22671 0.0
H2361 H 0.85647 0.13065 0.20386 0.0
H2362 H 0.85374 0.15138 0.18759 0.0
H2363 H 0.84549 0.22262 0.23376 0.0
H2364 H 0.82895 0.1976 0.2177 0.0
H2365 H 0.86613 0.19326 0.19399 0.0
H2366 H 0.88266 0.21799 0.21092 0.0
H2367 H 0.84578 0.16866 0.21536 0.0
H2368 H 0.84704 0.20253 0.14571 0.0
H2369 H 0.84447 0.22322 0.12855 0.0
H2370 H 0.7992 0.20071 0.15292 0.0
H2371 H 0.80155 0.17997 0.17057 0.0
C2372 C 0.80698 0.11578 0.12938 0.0
C2373 C 0.79167 0.10879 0.1317 0.0
C2374 C 0.81571 0.12993 0.13977 0.0
C2375 C 0.80927 0.13721 0.15305 0.0
C2376 C 0.79396 0.13055 0.15402 0.0
C2377 C 0.78521 0.11645 0.14339 0.0
C2378 C 0.81849 0.15147 0.16701 0.0
C2379 C 0.81698 0.16344 0.159 0.0
C2380 C 0.82896 0.15335 0.18766 0.0
C2381 C 0.83066 0.14097 0.19785 0.0
C2382 C 0.81865 0.12835 0.20913 0.0
C2383 C 0.82029 0.11663 0.21818 0.0
C2384 C 0.8339 0.11745 0.21624 0.0
C2385 C 0.84593 0.13002 0.20533 0.0
C2386 C 0.84435 0.14176 0.19623 0.0
C2387 C 0.85011 0.21623 0.22552 0.0
C2388 C 0.86534 0.22227 0.22336 0.0
C2389 C 0.84067 0.20199 0.21619 0.0
C2390 C 0.84632 0.1937 0.20402 0.0
C2391 C 0.86153 0.19948 0.20317 0.0
C2392 C 0.87097 0.21362 0.21285 0.0
C2393 C 0.83648 0.17927 0.1911 0.0
C2394 C 0.83786 0.16724 0.19933 0.0
C2395 C 0.82596 0.17737 0.17051 0.0
C2396 C 0.82451 0.18978 0.15971 0.0
C2397 C 0.83656 0.20204 0.14757 0.0
C2398 C 0.83514 0.21377 0.13774 0.0
C2399 C 0.82169 0.2133 0.13971 0.0
C2400 C 0.80961 0.20107 0.15145 0.0
C2401 C 0.81098 0.18933 0.16135 0.0
H2402 H 0.82061 0.22239 0.13209 0.0
H2403 H 0.83515 0.10836 0.22323 0.0
H2404 H 0.77496 0.62737 0.21869 0.0
H2405 H 0.79985 0.63771 0.20067 0.0
H2406 H 0.80197 0.67921 0.18745 0.0
H2407 H 0.77692 0.66888 0.20527 0.0
H2408 H 0.81116 0.67068 0.14155 0.0
H2409 H 0.82111 0.67558 0.24003 0.0
H2410 H 0.81825 0.66757 0.28947 0.0
H2411 H 0.83069 0.63576 0.26777 0.0
H2412 H 0.83342 0.64343 0.2181 0.0
H2413 H 0.88891 0.70959 0.11689 0.0
H2414 H 0.86393 0.70102 0.13343 0.0
H2415 H 0.85775 0.65778 0.14609 0.0
H2416 H 0.88265 0.66622 0.12958 0.0
H2417 H 0.85103 0.66863 0.19301 0.0
H2418 H 0.84026 0.66333 0.09417 0.0
H2419 H 0.84311 0.67145 0.04481 0.0
H2420 H 0.83242 0.70441 0.06756 0.0
H2421 H 0.82971 0.69662 0.11717 0.0
C2422 C 0.78077 0.63875 0.21226 0.0
C2423 C 0.774 0.64732 0.2134 0.0
C2424 C 0.795 0.64465 0.20202 0.0
C2425 C 0.80277 0.65925 0.19287 0.0
C2426 C 0.79614 0.66792 0.19442 0.0
C2427 C 0.78188 0.66202 0.20473 0.0
C2428 C 0.81758 0.6652 0.18067 0.0
C2429 C 0.81997 0.67048 0.15296 0.0
C2430 C 0.82894 0.66463 0.19539 0.0
C2431 C 0.82734 0.66 0.22528 0.0
C2432 C 0.82312 0.66679 0.24575 0.0
C2433 C 0.82154 0.66233 0.27383 0.0
C2434 C 0.82425 0.65114 0.28174 0.0
C2435 C 0.82858 0.64442 0.2616 0.0
C2436 C 0.83016 0.64883 0.23349 0.0
C2437 C 0.88214 0.6982 0.12271 0.0
C2438 C 0.88775 0.68859 0.12205 0.0
C2439 C 0.86788 0.69332 0.13214 0.0
C2440 C 0.85905 0.67879 0.14105 0.0
C2441 C 0.86444 0.66905 0.1394 0.0
C2442 C 0.87864 0.67389 0.12983 0.0
C2443 C 0.84454 0.67394 0.1538 0.0
C2444 C 0.84223 0.6689 0.18166 0.0
C2445 C 0.8333 0.67478 0.13924 0.0
C2446 C 0.83494 0.6795 0.10944 0.0
C2447 C 0.83865 0.6724 0.0887 0.0
C2448 C 0.84021 0.67693 0.06066 0.0
C2449 C 0.83799 0.68847 0.05307 0.0
C2450 C 0.83416 0.69549 0.07349 0.0
C2451 C 0.8326 0.69102 0.10156 0.0
H2452 H 0.8392 0.69195 0.03135 0.0
H2453 H 0.82303 0.6477 0.30349 0.0
H2454 H 0.14563 0.37029 0.28917 0.0
H2455 H 0.1613 0.36078 0.30539 0.0
H2456 H 0.12311 0.32051 0.33078 0.0
H2457 H 0.10736 0.3299 0.31453 0.0
H2458 H 0.14418 0.33256 0.37251 0.0
H2459 H 0.14111 0.31998 0.27531 0.0
H2460 H 0.14251 0.32419 0.22414 0.0
H2461 H 0.18825 0.3559 0.23123 0.0
H2462 H 0.18708 0.35204 0.28255 0.0
H2463 H 0.18014 0.29074 0.39389 0.0
H2464 H 0.16398 0.29986 0.37851 0.0
H2465 H 0.20162 0.34131 0.35657 0.0
H2466 H 0.21784 0.33237 0.3722 0.0
H2467 H 0.18057 0.3283 0.31312 0.0
H2468 H 0.18342 0.34083 0.41064 0.0
H2469 H 0.18188 0.33634 0.46172 0.0
H2470 H 0.13628 0.30427 0.4538 0.0
H2471 H 0.13762 0.30841 0.40256 0.0
C2472 C 0.14057 0.35934 0.29787 0.0
C2473 C 0.12528 0.35084 0.30061 0.0
C2474 C 0.14952 0.35393 0.3071 0.0
C2475 C 0.14333 0.33996 0.31926 0.0
C2476 C 0.12807 0.33133 0.3215 0.0
C2477 C 0.1191 0.33669 0.31207 0.0
C2478 C 0.15283 0.3346 0.33066 0.0
C2479 C 0.15199 0.33141 0.35947 0.0
C2480 C 0.16321 0.33345 0.31368 0.0
C2481 C 0.16397 0.33583 0.28283 0.0
C2482 C 0.15144 0.32796 0.26601 0.0
C2483 C 0.1522 0.33026 0.23696 0.0
C2484 C 0.16545 0.34034 0.22445 0.0
C2485 C 0.17799 0.34811 0.24096 0.0
C2486 C 0.17728 0.34587 0.27003 0.0
C2487 C 0.18496 0.30186 0.38617 0.0
C2488 C 0.20023 0.31084 0.38417 0.0
C2489 C 0.17573 0.30705 0.37743 0.0
C2490 C 0.18165 0.32123 0.36637 0.0
C2491 C 0.19688 0.33033 0.36499 0.0
C2492 C 0.20611 0.32522 0.37406 0.0
C2493 C 0.17194 0.32631 0.35495 0.0
C2494 C 0.17274 0.32944 0.32613 0.0
C2495 C 0.1615 0.32736 0.3719 0.0
C2496 C 0.16066 0.32481 0.4027 0.0
C2497 C 0.1731 0.33271 0.41974 0.0
C2498 C 0.17226 0.33026 0.44873 0.0
C2499 C 0.159 0.32 0.46099 0.0
C2500 C 0.14655 0.3122 0.44427 0.0
C2501 C 0.14734 0.3146 0.41525 0.0
H2502 H 0.15837 0.31811 0.48344 0.0
H2503 H 0.16602 0.3421 0.20196 0.0
H2504 H 0.70456 0.88934 0.36776 0.0
H2505 H 0.6933 0.86415 0.35085 0.0
H2506 H 0.65042 0.85814 0.36749 0.0
H2507 H 0.66162 0.88347 0.38436 0.0
H2508 H 0.65416 0.83442 0.38497 0.0
H2509 H 0.66098 0.86368 0.30341 0.0
H2510 H 0.6747 0.88422 0.27067 0.0
H2511 H 0.70457 0.86866 0.25347 0.0
H2512 H 0.69115 0.84814 0.28649 0.0
H2513 H 0.61561 0.7691 0.30549 0.0
H2514 H 0.62497 0.79438 0.32077 0.0
H2515 H 0.66917 0.80387 0.30525 0.0
H2516 H 0.65991 0.77855 0.29003 0.0
H2517 H 0.66357 0.82589 0.28643 0.0
H2518 H 0.65744 0.79735 0.36944 0.0
H2519 H 0.64392 0.7769 0.40247 0.0
H2520 H 0.61282 0.79119 0.41702 0.0
H2521 H 0.62605 0.81162 0.38371 0.0
C2522 C 0.69274 0.88264 0.36808 0.0
C2523 C 0.68396 0.88838 0.37725 0.0
C2524 C 0.68633 0.86828 0.3583 0.0
C2525 C 0.67106 0.85941 0.35764 0.0
C2526 C 0.66224 0.86489 0.36777 0.0
C2527 C 0.66865 0.87933 0.37734 0.0
C2528 C 0.66437 0.84452 0.3457 0.0
C2529 C 0.65599 0.83253 0.36331 0.0
C2530 C 0.66705 0.84215 0.31759 0.0
C2531 C 0.67514 0.85445 0.29765 0.0
C2532 C 0.67055 0.86471 0.29285 0.0
C2533 C 0.67826 0.87634 0.2742 0.0
C2534 C 0.69052 0.87777 0.26005 0.0
C2535 C 0.69508 0.86755 0.26448 0.0
C2536 C 0.68742 0.85591 0.28314 0.0
C2537 C 0.62731 0.77661 0.30503 0.0
C2538 C 0.63705 0.77186 0.29673 0.0
C2539 C 0.63263 0.79101 0.31386 0.0
C2540 C 0.64774 0.80088 0.31439 0.0
C2541 C 0.65746 0.79635 0.30502 0.0
C2542 C 0.65216 0.78191 0.29641 0.0
C2543 C 0.65344 0.81579 0.32575 0.0
C2544 C 0.66165 0.82778 0.30803 0.0
C2545 C 0.6506 0.81817 0.35376 0.0
C2546 C 0.64263 0.80591 0.37382 0.0
C2547 C 0.64764 0.79605 0.37947 0.0
C2548 C 0.64004 0.78448 0.39828 0.0
C2549 C 0.62749 0.78272 0.41177 0.0
C2550 C 0.62253 0.79255 0.40652 0.0
C2551 C 0.63007 0.80413 0.38768 0.0
H2552 H 0.62162 0.77375 0.42634 0.0
H2553 H 0.69647 0.88677 0.24561 0.0
H2554 H 0.10723 0.77624 0.3529 0.0
H2555 H 0.13206 0.79244 0.33575 0.0
H2556 H 0.13428 0.82792 0.38501 0.0
H2557 H 0.10906 0.81193 0.40062 0.0
H2558 H 0.14428 0.83766 0.33655 0.0
H2559 H 0.15325 0.80801 0.40197 0.0
H2560 H 0.14959 0.7849 0.42234 0.0
H2561 H 0.16143 0.77372 0.34362 0.0
H2562 H 0.16499 0.79669 0.32269 0.0
H2563 H 0.22084 0.88589 0.32297 0.0
H2564 H 0.19573 0.86974 0.33854 0.0
H2565 H 0.1936 0.83481 0.28762 0.0
H2566 H 0.21909 0.85075 0.27337 0.0
H2567 H 0.1835 0.82476 0.33639 0.0
H2568 H 0.17494 0.85497 0.27144 0.0
H2569 H 0.17883 0.87833 0.25191 0.0
H2570 H 0.1665 0.88875 0.33089 0.0
H2571 H 0.1627 0.86553 0.35099 0.0
C2572 C 0.11313 0.78745 0.36032 0.0
C2573 C 0.10633 0.79287 0.37812 0.0
C2574 C 0.12734 0.7967 0.35062 0.0
C2575 C 0.13518 0.81138 0.3594 0.0
C2576 C 0.12847 0.81665 0.37787 0.0
C2577 C 0.11411 0.80752 0.3869 0.0
C2578 C 0.15008 0.82146 0.34832 0.0
C2579 C 0.15292 0.83491 0.3369 0.0
C2580 C 0.16126 0.81774 0.34801 0.0
C2581 C 0.15928 0.80401 0.36072 0.0
C2582 C 0.155 0.80059 0.38898 0.0
C2583 C 0.15295 0.78752 0.40062 0.0
C2584 C 0.15524 0.77783 0.38427 0.0
C2585 C 0.15964 0.78123 0.35626 0.0
C2586 C 0.1617 0.79427 0.34451 0.0
C2587 C 0.21492 0.87483 0.31477 0.0
C2588 C 0.22183 0.86953 0.29695 0.0
C2589 C 0.20053 0.86561 0.32358 0.0
C2590 C 0.19266 0.85109 0.31396 0.0
C2591 C 0.19945 0.84596 0.29536 0.0
C2592 C 0.21396 0.85507 0.28713 0.0
C2593 C 0.1777 0.84095 0.32464 0.0
C2594 C 0.17485 0.82749 0.33601 0.0
C2595 C 0.16654 0.84469 0.32501 0.0
C2596 C 0.16863 0.85856 0.31276 0.0
C2597 C 0.17313 0.86228 0.28467 0.0
C2598 C 0.17531 0.87549 0.2735 0.0
C2599 C 0.17294 0.88503 0.29016 0.0
C2600 C 0.16834 0.88135 0.31801 0.0
C2601 C 0.16615 0.86816 0.32929 0.0
H2602 H 0.17466 0.89526 0.28148 0.0
H2603 H 0.15363 0.76772 0.39332 0.0
H2604 H 0.66811 0.88678 0.80059 0.0
H2605 H 0.67818 0.87202 0.81919 0.0
H2606 H 0.63595 0.83301 0.81021 0.0
H2607 H 0.62577 0.84769 0.79202 0.0
H2608 H 0.64704 0.83459 0.86149 0.0
H2609 H 0.66424 0.83977 0.76644 0.0
H2610 H 0.67686 0.85319 0.72341 0.0
H2611 H 0.71739 0.87606 0.76877 0.0
H2612 H 0.70497 0.86291 0.8122 0.0
H2613 H 0.66774 0.78086 0.88295 0.0
H2614 H 0.65874 0.79658 0.86492 0.0
H2615 H 0.70165 0.83445 0.87577 0.0
H2616 H 0.71082 0.81873 0.8934 0.0
H2617 H 0.6908 0.83413 0.82452 0.0
H2618 H 0.67349 0.8283 0.91948 0.0
H2619 H 0.66073 0.8145 0.96211 0.0
H2620 H 0.62019 0.79258 0.91655 0.0
H2621 H 0.63275 0.80609 0.87352 0.0
C2622 C 0.66103 0.87503 0.80219 0.0
C2623 C 0.64615 0.86839 0.79492 0.0
C2624 C 0.6668 0.86661 0.81279 0.0
C2625 C 0.65781 0.85141 0.81604 0.0
C2626 C 0.64306 0.84473 0.80798 0.0
C2627 C 0.63728 0.85313 0.79747 0.0
C2628 C 0.66356 0.84256 0.82913 0.0
C2629 C 0.65649 0.83433 0.8532 0.0
C2630 C 0.67613 0.84257 0.81875 0.0
C2631 C 0.68364 0.85046 0.79264 0.0
C2632 C 0.67582 0.84774 0.7673 0.0
C2633 C 0.68294 0.85529 0.74283 0.0
C2634 C 0.69791 0.8655 0.74338 0.0
C2635 C 0.7058 0.86816 0.76839 0.0
C2636 C 0.69872 0.86065 0.79293 0.0
C2637 C 0.67522 0.79256 0.88185 0.0
C2638 C 0.68999 0.79857 0.88958 0.0
C2639 C 0.67005 0.80153 0.87159 0.0
C2640 C 0.67951 0.8167 0.86916 0.0
C2641 C 0.69418 0.82277 0.87746 0.0
C2642 C 0.69938 0.81379 0.88765 0.0
C2643 C 0.67422 0.8261 0.85678 0.0
C2644 C 0.68137 0.83443 0.83287 0.0
C2645 C 0.66171 0.82617 0.86727 0.0
C2646 C 0.65409 0.81813 0.89321 0.0
C2647 C 0.66187 0.82046 0.91849 0.0
C2648 C 0.65467 0.8127 0.94274 0.0
C2649 C 0.63966 0.80265 0.94202 0.0
C2650 C 0.63182 0.80036 0.91707 0.0
C2651 C 0.63897 0.80808 0.89275 0.0
H2652 H 0.63411 0.79664 0.96081 0.0
H2653 H 0.70341 0.87133 0.72441 0.0
H2654 H 0.14587 0.7739 0.79829 0.0
H2655 H 0.16111 0.79883 0.81588 0.0
H2656 H 0.12325 0.80434 0.81911 0.0
H2657 H 0.10788 0.77934 0.80177 0.0
H2658 H 0.16727 0.82564 0.79694 0.0
H2659 H 0.12586 0.82386 0.87863 0.0
H2660 H 0.1051 0.8057 0.90703 0.0
H2661 H 0.12292 0.77693 0.90519 0.0
H2662 H 0.14388 0.79499 0.87715 0.0
H2663 H 0.17763 0.8906 0.88859 0.0
H2664 H 0.16183 0.86568 0.87128 0.0
H2665 H 0.19901 0.85909 0.86741 0.0
H2666 H 0.21491 0.88402 0.88439 0.0
H2667 H 0.15505 0.83847 0.88956 0.0
H2668 H 0.19628 0.84001 0.80758 0.0
H2669 H 0.21713 0.8581 0.7793 0.0
H2670 H 0.19982 0.88729 0.78185 0.0
H2671 H 0.17877 0.8693 0.80978 0.0
C2672 C 0.14081 0.78047 0.80247 0.0
C2673 C 0.12567 0.77464 0.79887 0.0
C2674 C 0.14953 0.79471 0.81248 0.0
C2675 C 0.14325 0.80332 0.81918 0.0
C2676 C 0.12825 0.79776 0.81447 0.0
C2677 C 0.11951 0.78351 0.80443 0.0
C2678 C 0.15234 0.81793 0.83198 0.0
C2679 C 0.1647 0.8284 0.81732 0.0
C2680 C 0.1488 0.82158 0.85834 0.0
C2681 C 0.13634 0.81071 0.87552 0.0
C2682 C 0.12536 0.81368 0.88437 0.0
C2683 C 0.11356 0.8034 0.9004 0.0
C2684 C 0.11266 0.79015 0.90782 0.0
C2685 C 0.1236 0.78717 0.89933 0.0
C2686 C 0.13543 0.79742 0.88334 0.0
C2687 C 0.18241 0.88378 0.8844 0.0
C2688 C 0.19753 0.8893 0.8876 0.0
C2689 C 0.17337 0.86956 0.87453 0.0
C2690 C 0.17931 0.86067 0.86761 0.0
C2691 C 0.19427 0.86589 0.87216 0.0
C2692 C 0.20332 0.88011 0.882 0.0
C2693 C 0.17 0.84616 0.85456 0.0
C2694 C 0.1576 0.83572 0.86916 0.0
C2695 C 0.17352 0.84253 0.82815 0.0
C2696 C 0.18604 0.85336 0.81103 0.0
C2697 C 0.1969 0.85027 0.80201 0.0
C2698 C 0.20876 0.86051 0.78605 0.0
C2699 C 0.20983 0.87386 0.77887 0.0
C2700 C 0.19901 0.87697 0.78752 0.0
C2701 C 0.18713 0.86676 0.80345 0.0
H2702 H 0.21902 0.88177 0.76653 0.0
H2703 H 0.10351 0.78221 0.9202 0.0
H2704 H 0.10984 0.33418 0.87101 0.0
H2705 H 0.13486 0.34444 0.85327 0.0
H2706 H 0.13385 0.30395 0.87231 0.0
H2707 H 0.10874 0.29352 0.88976 0.0
H2708 H 0.16041 0.32975 0.88775 0.0
H2709 H 0.12829 0.30859 0.80878 0.0
H2710 H 0.10817 0.30446 0.77682 0.0
H2711 H 0.13091 0.35001 0.75443 0.0
H2712 H 0.15108 0.35446 0.78664 0.0
H2713 H 0.21832 0.3361 0.80339 0.0
H2714 H 0.19358 0.32718 0.82136 0.0
H2715 H 0.19681 0.36857 0.80124 0.0
H2716 H 0.22173 0.3777 0.78344 0.0
H2717 H 0.16934 0.34314 0.78667 0.0
H2718 H 0.20196 0.364 0.86499 0.0
H2719 H 0.22201 0.36773 0.89674 0.0
H2720 H 0.19827 0.32235 0.9202 0.0
H2721 H 0.17815 0.31828 0.88821 0.0
C2722 C 0.11501 0.32752 0.87175 0.0
C2723 C 0.10734 0.31303 0.88163 0.0
C2724 C 0.12926 0.33338 0.86152 0.0
C2725 C 0.13609 0.32488 0.86129 0.0
C2726 C 0.12871 0.31064 0.8723 0.0
C2727 C 0.11438 0.30471 0.88219 0.0
C2728 C 0.15071 0.33064 0.84852 0.0
C2729 C 0.16236 0.33255 0.86561 0.0
C2730 C 0.15321 0.33452 0.81974 0.0
C2731 C 0.14111 0.33189 0.80039 0.0
C2732 C 0.12893 0.31776 0.79727 0.0
C2733 C 0.11753 0.31535 0.77907 0.0
C2734 C 0.11824 0.32697 0.76367 0.0
C2735 C 0.13037 0.34102 0.76641 0.0
C2736 C 0.14179 0.34349 0.78463 0.0
C2737 C 0.21372 0.34326 0.80244 0.0
C2738 C 0.22197 0.35763 0.79214 0.0
C2739 C 0.19962 0.33816 0.81283 0.0
C2740 C 0.1935 0.34729 0.81288 0.0
C2741 C 0.20142 0.36141 0.80142 0.0
C2742 C 0.21562 0.36659 0.79131 0.0
C2743 C 0.17903 0.34222 0.8259 0.0
C2744 C 0.16741 0.34043 0.80884 0.0
C2745 C 0.17654 0.33841 0.8547 0.0
C2746 C 0.18862 0.3408 0.87396 0.0
C2747 C 0.20107 0.35478 0.8767 0.0
C2748 C 0.21244 0.35696 0.89479 0.0
C2749 C 0.21144 0.34528 0.91042 0.0
C2750 C 0.19904 0.33139 0.90804 0.0
C2751 C 0.18765 0.32914 0.88995 0.0
H2752 H 0.22024 0.34699 0.92443 0.0
H2753 H 0.10941 0.32508 0.74957 0.0
H2754 H 0.87964 0.6618 0.72121 0.0
H2755 H 0.86294 0.67011 0.70586 0.0
H2756 H 0.82707 0.62556 0.70673 0.0
H2757 H 0.8438 0.61709 0.72183 0.0
H2758 H 0.82841 0.63966 0.65763 0.0
H2759 H 0.82928 0.64943 0.75647 0.0
H2760 H 0.8409 0.65956 0.80227 0.0
H2761 H 0.86176 0.70304 0.76796 0.0
H2762 H 0.85043 0.69315 0.72183 0.0
H2763 H 0.77318 0.65938 0.63734 0.0
H2764 H 0.78827 0.64932 0.65429 0.0
H2765 H 0.82591 0.69282 0.65724 0.0
H2766 H 0.81092 0.70296 0.6406 0.0
H2767 H 0.82261 0.67823 0.70558 0.0
H2768 H 0.82325 0.66927 0.60719 0.0
H2769 H 0.81253 0.65999 0.56044 0.0
H2770 H 0.78997 0.61604 0.59247 0.0
H2771 H 0.80038 0.62509 0.63958 0.0
C2772 C 0.86816 0.65378 0.71854 0.0
C2773 C 0.86303 0.63879 0.72271 0.0
C2774 C 0.85863 0.65855 0.70981 0.0
C2775 C 0.84376 0.64845 0.70528 0.0
C2776 C 0.83851 0.63352 0.71011 0.0
C2777 C 0.84806 0.62872 0.71889 0.0
C2778 C 0.83391 0.65349 0.69422 0.0
C2779 C 0.8269 0.64789 0.66835 0.0
C2780 C 0.83234 0.66455 0.70783 0.0
C2781 C 0.83909 0.67053 0.73563 0.0
C2782 C 0.83643 0.66114 0.75864 0.0
C2783 C 0.84295 0.66684 0.78467 0.0
C2784 C 0.85209 0.68193 0.78801 0.0
C2785 C 0.85469 0.69135 0.76534 0.0
C2786 C 0.8482 0.68571 0.73925 0.0
C2787 C 0.78471 0.66677 0.64129 0.0
C2788 C 0.79086 0.68196 0.63775 0.0
C2789 C 0.79331 0.66101 0.65092 0.0
C2790 C 0.80819 0.67034 0.657 0.0
C2791 C 0.81442 0.68546 0.65278 0.0
C2792 C 0.80585 0.69122 0.64316 0.0
C2793 C 0.81716 0.66446 0.66895 0.0
C2794 C 0.82401 0.66991 0.69497 0.0
C2795 C 0.81869 0.65338 0.65534 0.0
C2796 C 0.81247 0.64788 0.627 0.0
C2797 C 0.8159 0.65764 0.60434 0.0
C2798 C 0.8099 0.65242 0.57775 0.0
C2799 C 0.80053 0.63744 0.5735 0.0
C2800 C 0.7972 0.62765 0.59581 0.0
C2801 C 0.80316 0.63281 0.62246 0.0
H2802 H 0.79589 0.63343 0.5529 0.0
H2803 H 0.85713 0.68632 0.80817 0.0
H2804 H 0.32655 0.21902 0.71021 0.0
H2805 H 0.31603 0.19401 0.69208 0.0
H2806 H 0.35908 0.19868 0.6899 0.0
H2807 H 0.36965 0.22362 0.70773 0.0
H2808 H 0.34454 0.18808 0.64083 0.0
H2809 H 0.33484 0.17814 0.73977 0.0
H2810 H 0.32495 0.1794 0.786 0.0
H2811 H 0.28148 0.15859 0.75164 0.0
H2812 H 0.29115 0.15739 0.70508 0.0
H2813 H 0.33009 0.11551 0.62632 0.0
H2814 H 0.33759 0.14047 0.64075 0.0
H2815 H 0.29241 0.12988 0.64178 0.0
H2816 H 0.28477 0.10472 0.62784 0.0
H2817 H 0.30615 0.14366 0.68896 0.0
H2818 H 0.31584 0.15194 0.59052 0.0
H2819 H 0.32596 0.15048 0.54467 0.0
H2820 H 0.36956 0.17437 0.57808 0.0
H2821 H 0.3597 0.1758 0.62426 0.0
C2822 C 0.33374 0.21465 0.70614 0.0
C2823 C 0.34893 0.22328 0.71032 0.0
C2824 C 0.32772 0.20037 0.69582 0.0
C2825 C 0.3368 0.19453 0.68965 0.0
C2826 C 0.3519 0.20303 0.6944 0.0
C2827 C 0.35791 0.21725 0.70471 0.0
C2828 C 0.33071 0.17973 0.67739 0.0
C2829 C 0.33623 0.17834 0.65145 0.0
C2830 C 0.31957 0.16712 0.69089 0.0
C2831 C 0.31374 0.16783 0.71887 0.0
C2832 C 0.32319 0.17395 0.74201 0.0
C2833 C 0.31762 0.17463 0.76828 0.0
C2834 C 0.3026 0.16913 0.77173 0.0
C2835 C 0.29312 0.16288 0.74892 0.0
C2836 C 0.29864 0.16219 0.72259 0.0
C2837 C 0.32175 0.11853 0.62925 0.0
C2838 C 0.30684 0.10816 0.62597 0.0
C2839 C 0.32606 0.13282 0.63741 0.0
C2840 C 0.31556 0.13706 0.64212 0.0
C2841 C 0.30068 0.12682 0.63824 0.0
C2842 C 0.29635 0.11249 0.63017 0.0
C2843 C 0.32014 0.15197 0.65256 0.0
C2844 C 0.31433 0.1534 0.67815 0.0
C2845 C 0.33104 0.16463 0.63874 0.0
C2846 C 0.33702 0.16388 0.61092 0.0
C2847 C 0.32758 0.1568 0.58815 0.0
C2848 C 0.33327 0.15599 0.56209 0.0
C2849 C 0.34839 0.1623 0.55848 0.0
C2850 C 0.35785 0.16947 0.58091 0.0
C2851 C 0.35222 0.17031 0.60702 0.0
H2852 H 0.35277 0.16166 0.53829 0.0
H2853 H 0.29831 0.16966 0.79209 0.0
H2854 H 0.88508 0.21672 0.63176 0.0
H2855 H 0.85989 0.20126 0.6481 0.0
H2856 H 0.86592 0.16369 0.64787 0.0
H2857 H 0.89102 0.17901 0.63114 0.0
H2858 H 0.83954 0.15682 0.62715 0.0
H2859 H 0.86806 0.18144 0.70874 0.0
H2860 H 0.88523 0.20277 0.73707 0.0
H2861 H 0.85595 0.21995 0.73297 0.0
H2862 H 0.83869 0.19881 0.70427 0.0
H2863 H 0.77822 0.1105 0.71237 0.0
H2864 H 0.80351 0.12563 0.69605 0.0
H2865 H 0.79775 0.16334 0.69316 0.0
H2866 H 0.77256 0.14836 0.7096 0.0
H2867 H 0.82407 0.16992 0.71588 0.0
H2868 H 0.7957 0.14537 0.63385 0.0
H2869 H 0.77854 0.12398 0.60566 0.0
H2870 H 0.8076 0.10657 0.61093 0.0
H2871 H 0.82485 0.12777 0.6395 0.0
C2872 C 0.881 0.20514 0.63495 0.0
C2873 C 0.89005 0.19909 0.63032 0.0
C2874 C 0.86664 0.19634 0.64443 0.0
C2875 C 0.86112 0.18138 0.64963 0.0
C2876 C 0.86998 0.17522 0.64408 0.0
C2877 C 0.88432 0.184 0.63456 0.0
C2878 C 0.84624 0.17218 0.66144 0.0
C2879 C 0.83622 0.15958 0.64674 0.0
C2880 C 0.84183 0.17593 0.68675 0.0
C2881 C 0.85216 0.18862 0.70412 0.0
C2882 C 0.86534 0.18982 0.7137 0.0
C2883 C 0.87507 0.20187 0.72985 0.0
C2884 C 0.8717 0.21272 0.73675 0.0
C2885 C 0.85856 0.21154 0.72757 0.0
C2886 C 0.84879 0.19952 0.71138 0.0
C2887 C 0.78239 0.12204 0.70846 0.0
C2888 C 0.77339 0.12823 0.71212 0.0
C2889 C 0.7968 0.13065 0.69903 0.0
C2890 C 0.80242 0.14556 0.69308 0.0
C2891 C 0.7936 0.15185 0.69758 0.0
C2892 C 0.7792 0.14325 0.7069 0.0
C2893 C 0.81739 0.15459 0.68156 0.0
C2894 C 0.82742 0.16716 0.69632 0.0
C2895 C 0.82181 0.1508 0.65634 0.0
C2896 C 0.81149 0.13808 0.63906 0.0
C2897 C 0.79837 0.13692 0.62919 0.0
C2898 C 0.78864 0.12484 0.61311 0.0
C2899 C 0.79196 0.1139 0.60657 0.0
C2900 C 0.80503 0.11504 0.61604 0.0
C2901 C 0.8148 0.12709 0.63216 0.0
H2902 H 0.78441 0.10456 0.59412 0.0
H2903 H 0.87925 0.22204 0.74926 0.0
H2904 H -0.00253 0.44535 0.54876 0.0
H2905 H 0.989 0.46153 0.53063 0.0
H2906 H 0.03236 0.49872 0.54104 0.0
H2907 H 0.04095 0.48261 0.55924 0.0
H2908 H 0.01024 0.50446 0.5568 0.0
H2909 H 0.02298 0.48446 0.47858 0.0
H2910 H 0.02259 0.46484 0.44976 0.0
H2911 H 0.97627 0.44591 0.43734 0.0
H2912 H 0.97635 0.46531 0.46648 0.0
H2913 H -0.00101 0.55227 0.46891 0.0
H2914 H 0.00937 0.53757 0.48638 0.0
H2915 H 0.96739 0.49835 0.47672 0.0
H2916 H 0.95695 0.51293 0.45912 0.0
H2917 H 0.99014 0.4945 0.45982 0.0
H2918 H 0.97735 0.51408 0.53952 0.0
H2919 H 0.97779 0.53366 0.56857 0.0
H2920 H 0.02437 0.55346 0.57815 0.0
H2921 H 0.02423 0.5341 0.54878 0.0
C2922 C 0.00516 0.45699 0.54761 0.0
C2923 C 0.0199 0.46271 0.5552 0.0
C2924 C 0.00032 0.4662 0.53713 0.0
C2925 C 0.01013 0.48125 0.53411 0.0
C2926 C 0.02466 0.48711 0.54311 0.0
C2927 C 0.02953 0.4779 0.55346 0.0
C2928 C 0.00538 0.49073 0.52029 0.0
C2929 C 0.00603 0.50243 0.53547 0.0
C2930 C -0.00026 0.48791 0.49259 0.0
C2931 C -0.00035 0.47626 0.47495 0.0
C2932 C 0.01269 0.47604 0.46991 0.0
C2933 C 0.01253 0.46497 0.45348 0.0
C2934 C -0.0006 0.45411 0.44179 0.0
C2935 C 0.98642 0.45432 0.44645 0.0
C2936 C 0.98652 0.46535 0.4629 0.0
C2937 C 0.99203 0.5405 0.47011 0.0
C2938 C 0.97713 0.53375 0.46285 0.0
C2939 C -0.00205 0.53213 0.48022 0.0
C2940 C 0.98907 0.51692 0.48321 0.0
C2941 C 0.97439 0.51009 0.47465 0.0
C2942 C 0.96845 0.51844 0.46465 0.0
C2943 C 0.99485 0.50815 0.49642 0.0
C2944 C 0.99441 0.49658 0.48111 0.0
C2945 C 0.0007 0.51111 0.52398 0.0
C2946 C 0.0008 0.52274 0.54169 0.0
C2947 C 0.98771 0.52268 0.54761 0.0
C2948 C 0.9879 0.53373 0.56418 0.0
C2949 C 0.00111 0.54482 0.57513 0.0
C2950 C 0.01415 0.54487 0.56961 0.0
C2951 C 0.01402 0.53387 0.55301 0.0
H2952 H 0.00124 0.55336 0.58796 0.0
H2953 H -0.0007 0.44555 0.42906 0.0
H2954 H 0.51105 0.55369 0.55511 0.0
H2955 H 0.49626 0.5286 0.53802 0.0
H2956 H 0.53426 0.52329 0.53981 0.0
H2957 H 0.54916 0.54842 0.55661 0.0
H2958 H 0.52052 0.51543 0.48977 0.0
H2959 H 0.50687 0.50547 0.58664 0.0
H2960 H 0.49796 0.50881 0.63242 0.0
H2961 H 0.4569 0.49861 0.5949 0.0
H2962 H 0.46563 0.49541 0.54878 0.0
H2963 H 0.48242 0.43869 0.46173 0.0
H2964 H 0.49755 0.46325 0.48115 0.0
H2965 H 0.46021 0.46965 0.48113 0.0
H2966 H 0.44496 0.44505 0.4621 0.0
H2967 H 0.47394 0.47672 0.53108 0.0
H2968 H 0.48784 0.4873 0.43403 0.0
H2969 H 0.49679 0.48409 0.38818 0.0
H2970 H 0.53746 0.49323 0.4261 0.0
H2971 H 0.52867 0.49629 0.47228 0.0
C2972 C 0.5162 0.5471 0.55235 0.0
C2973 C 0.53127 0.55303 0.55705 0.0
C2974 C 0.50773 0.53276 0.54262 0.0
C2975 C 0.51418 0.5241 0.53766 0.0
C2976 C 0.5291 0.52982 0.54341 0.0
C2977 C 0.53758 0.54416 0.55311 0.0
C2978 C 0.50558 0.50946 0.52469 0.0
C2979 C 0.51046 0.50687 0.49902 0.0
C2980 C 0.49228 0.49848 0.53644 0.0
C2981 C 0.48696 0.50033 0.56419 0.0
C2982 C 0.49598 0.50405 0.5881 0.0
C2983 C 0.49095 0.5059 0.61412 0.0
C2984 C 0.47688 0.50396 0.61656 0.0
C2985 C 0.4678 0.50013 0.59298 0.0
C2986 C 0.47277 0.49828 0.56689 0.0
C2987 C 0.47749 0.44542 0.46544 0.0
C2988 C 0.46251 0.43995 0.46045 0.0
C2989 C 0.48615 0.45944 0.47653 0.0
C2990 C 0.47999 0.46826 0.48255 0.0
C2991 C 0.46514 0.46299 0.47674 0.0
C2992 C 0.45648 0.44896 0.46573 0.0
C2993 C 0.48885 0.48272 0.49609 0.0
C2994 C 0.48403 0.48527 0.52187 0.0
C2995 C 0.50221 0.49367 0.48444 0.0
C2996 C 0.50754 0.49188 0.45667 0.0
C2997 C 0.49865 0.4885 0.43264 0.0
C2998 C 0.5037 0.48673 0.40658 0.0
C2999 C 0.51767 0.48841 0.40424 0.0
C3000 C 0.52663 0.49191 0.42795 0.0
C3001 C 0.52162 0.49368 0.45407 0.0
H3002 H 0.52156 0.48704 0.38405 0.0
H3003 H 0.47301 0.50539 0.63672 0.0
H3004 H 0.55321 -0.00042 0.47443 0.0
H3005 H 0.52835 0.99036 0.49193 0.0
H3006 H 0.53138 0.03176 0.47243 0.0
H3007 H 0.55641 0.04118 0.4555 0.0
H3008 H 0.52053 0.0229 0.52374 0.0
H3009 H 0.51083 0.00101 0.43191 0.0
H3010 H 0.51295 0.9866 0.39325 0.0
H3011 H 0.49537 0.94864 0.44645 0.0
H3012 H 0.49333 0.96288 0.48556 0.0
H3013 H 0.44485 -0.00028 0.53823 0.0
H3014 H 0.47007 0.00925 0.52249 0.0
H3015 H 0.46683 0.96767 0.54106 0.0
H3016 H 0.44147 0.95794 0.55613 0.0
H3017 H 0.47785 0.97667 0.49043 0.0
H3018 H 0.48735 -0.00155 0.58221 0.0
H3019 H 0.48515 0.01281 0.62087 0.0
H3020 H 0.50305 0.0509 0.56798 0.0
H3021 H 0.50517 0.0367 0.52886 0.0
C3022 C 0.54853 0.00667 0.4736 0.0
C3023 C 0.55674 0.02109 0.46356 0.0
C3024 C 0.53431 0.00138 0.48355 0.0
C3025 C 0.52797 0.01034 0.48326 0.0
C3026 C 0.53608 0.02467 0.47286 0.0
C3027 C 0.55034 0.03001 0.46309 0.0
C3028 C 0.51305 0.00491 0.49464 0.0
C3029 C 0.51115 0.0129 0.5162 0.0
C3030 C 0.50091 0.99166 0.48529 0.0
C3031 C 0.50205 0.98305 0.46174 0.0
C3032 C 0.50751 0.98962 0.43543 0.0
C3033 C 0.50869 0.98147 0.41342 0.0
C3034 C 0.50433 0.96672 0.41741 0.0
C3035 C 0.49876 0.96007 0.4434 0.0
C3036 C 0.49757 0.96817 0.46548 0.0
C3037 C 0.44958 0.99267 0.53931 0.0
C3038 C 0.4412 0.97808 0.54835 0.0
C3039 C 0.464 0.99814 0.53038 0.0
C3040 C 0.47036 0.9892 0.53077 0.0
C3041 C 0.46212 0.97474 0.54053 0.0
C3042 C 0.44766 0.96922 0.54923 0.0
C3043 C 0.48532 0.99464 0.51959 0.0
C3044 C 0.48723 0.98666 0.49803 0.0
C3045 C 0.49746 0.00789 0.52896 0.0
C3046 C 0.4963 0.01647 0.55253 0.0
C3047 C 0.49072 0.00986 0.57876 0.0
C3048 C 0.48951 0.01798 0.60077 0.0
C3049 C 0.49393 0.03275 0.59686 0.0
C3050 C 0.49961 0.03945 0.57096 0.0
C3051 C 0.50084 0.03138 0.54888 0.0
H3052 H 0.49297 0.03901 0.61392 0.0
H3053 H 0.50525 0.96044 0.40035 0.0
H3054 H 0.48084 0.04123 0.96257 0.0
H3055 H 0.49666 0.03186 0.97843 0.0
H3056 H 0.45918 0.98831 0.98361 0.0
H3057 H 0.44337 0.99754 0.96705 0.0
H3058 H 0.49678 0.01948 0.0266 0.0
H3059 H 0.46929 0.96306 0.97104 0.0
H3060 H 0.45574 0.95165 0.92738 0.0
H3061 H 0.4768 0.99353 0.88634 0.0
H3062 H 0.49062 0.00515 0.92962 0.0
H3063 H 0.51337 0.95561 0.04669 0.0
H3064 H 0.49772 0.96535 0.03194 0.0
H3065 H 0.53571 0.00837 0.0235 0.0
H3066 H 0.55143 -0.00126 0.03861 0.0
H3067 H 0.49804 0.97759 0.98208 0.0
H3068 H 0.52571 0.03405 0.03688 0.0
H3069 H 0.53958 0.04565 0.08017 0.0
H3070 H 0.5186 0.00399 0.12204 0.0
H3071 H 0.50447 0.99218 0.07915 0.0
C3072 C 0.47599 0.02963 0.96683 0.0
C3073 C 0.46088 0.0201 0.9635 0.0
C3074 C 0.48503 0.02431 0.97599 0.0
C3075 C 0.47912 0.00938 0.98201 0.0
C3076 C 0.46402 -0.00017 0.97861 0.0
C3077 C 0.45499 0.00512 0.96922 0.0
C3078 C 0.48868 0.00388 0.99262 0.0
C3079 C 0.49721 0.01045 0.01663 0.0
C3080 C 0.48899 0.99189 0.97997 0.0
C3081 C 0.48088 0.98499 0.95369 0.0
C3082 C 0.47107 0.96982 0.95267 0.0
C3083 C 0.46334 0.96332 0.92799 0.0
C3084 C 0.46537 0.97186 0.90413 0.0
C3085 C 0.47519 0.98693 0.90487 0.0
C3086 C 0.48296 0.99348 0.92948 0.0
C3087 C 0.51838 0.96718 0.04203 0.0
C3088 C 0.53363 0.97642 0.04378 0.0
C3089 C 0.50943 0.97271 0.0335 0.0
C3090 C 0.51555 0.98758 0.02672 0.0
C3091 C 0.53074 0.9969 0.02898 0.0
C3092 C 0.53971 0.99137 0.03756 0.0
C3093 C 0.50608 0.99317 0.01607 0.0
C3094 C 0.49759 0.98661 0.99204 0.0
C3095 C 0.50586 0.00521 0.02863 0.0
C3096 C 0.51415 0.01222 0.05469 0.0
C3097 C 0.52402 0.02738 0.05536 0.0
C3098 C 0.53193 0.03399 0.07983 0.0
C3099 C 0.53001 0.02556 0.10381 0.0
C3100 C 0.52013 0.0105 0.10341 0.0
C3101 C 0.51218 0.00384 0.07902 0.0
H3102 H 0.53615 0.03069 0.12272 0.0
H3103 H 0.45936 0.96681 0.88506 0.0
H3104 H 0.99698 0.55215 0.04649 0.0
H3105 H 0.98754 0.52711 0.02962 0.0
H3106 H 0.03146 0.53402 0.0273 0.0
H3107 H 0.04101 0.55911 0.04409 0.0
H3108 H 0.01603 0.52151 0.97862 0.0
H3109 H 0.00925 0.51384 0.07805 0.0
H3110 H 0.00081 0.51621 0.12506 0.0
H3111 H 0.95625 0.4937 0.09626 0.0
H3112 H 0.96446 0.4914 0.04891 0.0
H3113 H -0.00167 0.44708 0.96599 0.0
H3114 H 0.00761 0.47245 0.98059 0.0
H3115 H 0.96353 0.46512 0.98196 0.0
H3116 H 0.95415 0.43973 0.96739 0.0
H3117 H 0.97886 0.47789 0.03071 0.0
H3118 H 0.98575 0.48523 0.93127 0.0
H3119 H 0.99435 0.48285 0.88441 0.0
H3120 H 0.03886 0.50592 0.91343 0.0
H3121 H 0.03051 0.50823 0.96062 0.0
C3122 C 0.00462 0.5483 0.0426 0.0
C3123 C 0.01973 0.55756 0.04663 0.0
C3124 C -0.00079 0.53401 0.033 0.0
C3125 C 0.00882 0.52875 0.02732 0.0
C3126 C 0.02389 0.53792 0.03154 0.0
C3127 C 0.02931 0.5522 0.04127 0.0
C3128 C 0.00314 0.51375 0.01646 0.0
C3129 C 0.00805 0.51194 0.99014 0.0
C3130 C 0.99248 0.50136 0.03129 0.0
C3131 C 0.98749 0.50258 0.05983 0.0
C3132 C -0.00234 0.5095 0.08167 0.0
C3133 C 0.99292 0.51081 0.1084 0.0
C3134 C 0.97801 0.50514 0.11363 0.0
C3135 C 0.9678 0.4981 0.09217 0.0
C3136 C 0.97249 0.49678 0.06538 0.0
C3137 C 0.99063 0.45092 0.96906 0.0
C3138 C 0.97552 0.44144 0.9656 0.0
C3139 C 0.99595 0.46541 0.97735 0.0
C3140 C 0.98623 0.47062 0.98231 0.0
C3141 C 0.97117 0.46126 0.97828 0.0
C3142 C 0.96586 0.4468 0.96982 0.0
C3143 C 0.99176 0.48565 0.99286 0.0
C3144 C 0.98682 0.48746 0.01915 0.0
C3145 C 0.00241 0.49803 0.97802 0.0
C3146 C 0.00749 0.49678 0.94958 0.0
C3147 C -0.00263 0.48969 0.92774 0.0
C3148 C 0.0022 0.48837 0.9011 0.0
C3149 C 0.01714 0.4942 0.89597 0.0
C3150 C 0.02728 0.50139 0.91745 0.0
C3151 C 0.02251 0.50272 0.94414 0.0
H3152 H 0.02086 0.49316 0.87533 0.0
H3153 H 0.97436 0.50618 0.13434 0.0
H3154 H 0.4467 0.44812 0.06005 0.0
H3155 H 0.47189 0.46433 0.04434 0.0
H3156 H 0.46175 0.49855 0.02825 0.0
H3157 H 0.4366 0.48247 0.04397 0.0
H3158 H 0.47498 0.49349 0.9832 0.0
H3159 H 0.48298 0.50212 0.08194 0.0
H3160 H 0.48181 0.49551 0.13197 0.0
H3161 H 0.50711 0.47472 0.11488 0.0
H3162 H 0.50826 0.48101 0.06463 0.0
H3163 H 0.54843 0.55086 0.95803 0.0
H3164 H 0.52347 0.53573 0.97594 0.0
H3165 H 0.53245 0.50086 0.99373 0.0
H3166 H 0.55737 0.51588 0.97593 0.0
H3167 H 0.51983 0.50681 0.03848 0.0
H3168 H 0.5113 0.49772 0.93953 0.0
H3169 H 0.51244 0.50433 0.88951 0.0
H3170 H 0.48807 0.52606 0.90713 0.0
H3171 H 0.48697 0.51975 0.95737 0.0
C3172 C 0.4499 0.45917 0.05355 0.0
C3173 C 0.43968 0.46401 0.05318 0.0
C3174 C 0.46429 0.46841 0.04463 0.0
C3175 C 0.46865 0.48262 0.03513 0.0
C3176 C 0.45857 0.48761 0.03544 0.0
C3177 C 0.44423 0.47842 0.04455 0.0
C3178 C 0.4835 0.49201 0.02348 0.0
C3179 C 0.4848 0.4966 0.9954 0.0
C3180 C 0.49626 0.49575 0.03926 0.0
C3181 C 0.49557 0.49191 0.06945 0.0
C3182 C 0.48818 0.49601 0.08879 0.0
C3183 C 0.48754 0.49235 0.1172 0.0
C3184 C 0.49434 0.48466 0.12659 0.0
C3185 C 0.50183 0.48065 0.10758 0.0
C3186 C 0.50248 0.48428 0.07913 0.0
C3187 C 0.54503 0.53991 0.96547 0.0
C3188 C 0.55485 0.53456 0.96557 0.0
C3189 C 0.53078 0.53128 0.97567 0.0
C3190 C 0.52614 0.51718 0.98614 0.0
C3191 C 0.53585 0.51173 0.98582 0.0
C3192 C 0.55005 0.52031 0.9755 0.0
C3193 C 0.5113 0.50824 0.99818 0.0
C3194 C 0.51 0.50373 0.02631 0.0
C3195 C 0.49854 0.50458 0.98246 0.0
C3196 C 0.49919 0.5084 0.95227 0.0
C3197 C 0.5063 0.50402 0.93279 0.0
C3198 C 0.50691 0.5077 0.90439 0.0
C3199 C 0.50037 0.51565 0.89516 0.0
C3200 C 0.49316 0.51992 0.91431 0.0
C3201 C 0.49253 0.51629 0.94275 0.0
H3202 H 0.50085 0.51848 0.87316 0.0
H3203 H 0.49385 0.48185 0.1486 0.0
H3204 H 0.41452 0.03853 0.01906 0.0
H3205 H 0.40865 0.0515 0.05448 0.0
H3206 H 0.43925 0.09276 0.01642 0.0
H3207 H 0.44501 0.07965 0.98002 0.0
H3208 H 0.44025 0.08808 0.08214 0.0
H3209 H 0.40917 0.08665 1.00641 0.0
H3210 H 0.39148 0.0745 0.96795 0.0
H3211 H 0.36042 0.04356 0.02648 0.0
H3212 H 0.37802 0.05538 0.06524 0.0
H3213 H 0.41249 0.12097 0.18066 0.0
H3214 H 0.42341 0.11504 0.14067 0.0
H3215 H 0.38506 0.072 0.13593 0.0
H3216 H 0.37397 0.07828 0.17453 0.0
H3217 H 0.39058 0.08215 0.08688 0.0
H3218 H 0.42095 0.08001 0.16054 0.0
H3219 H 0.43821 0.08947 0.20038 0.0
H3220 H 0.46988 0.12422 0.14847 0.0
H3221 H 0.45272 0.11507 0.1084 0.0
C3222 C 0.41997 0.05037 0.01802 0.0
C3223 C 0.43023 0.05808 0.99674 0.0
C3224 C 0.41661 0.05776 0.03834 0.0
C3225 C 0.42357 0.07307 0.03818 0.0
C3226 C 0.43381 0.08091 0.01692 0.0
C3227 C 0.437 0.07344 0.99607 0.0
C3228 C 0.41981 0.08051 0.06047 0.0
C3229 C 0.42954 0.08716 0.08297 0.0
C3230 C 0.40567 0.07884 0.06189 0.0
C3231 C 0.39495 0.07186 0.0387 0.0
C3232 C 0.3986 0.07719 0.01105 0.0
C3233 C 0.38859 0.07037 0.9892 0.0
C3234 C 0.37484 0.05825 0.99476 0.0
C3235 C 0.37107 0.05295 0.02221 0.0
C3236 C 0.38106 0.05972 0.04413 0.0
C3237 C 0.40662 0.11016 0.17137 0.0
C3238 C 0.39248 0.10001 0.18074 0.0
C3239 C 0.41283 0.10676 0.14848 0.0
C3240 C 0.40511 0.09302 0.13508 0.0
C3241 C 0.39124 0.08271 0.14553 0.0
C3242 C 0.38495 0.08624 0.16782 0.0
C3243 C 0.41086 0.08944 0.10931 0.0
C3244 C 0.40144 0.08343 0.08607 0.0
C3245 C 0.42519 0.09146 0.10754 0.0
C3246 C 0.43549 0.09697 0.13159 0.0
C3247 C 0.43155 0.08974 0.1577 0.0
C3248 C 0.44132 0.09503 0.1803 0.0
C3249 C 0.45511 0.10747 0.17699 0.0
C3250 C 0.45918 0.11461 0.15103 0.0
C3251 C 0.44944 0.10938 0.12836 0.0
H3252 H 0.46266 0.11154 0.19451 0.0
H3253 H 0.36711 0.05298 0.97781 0.0
H3254 H 0.88659 0.27348 0.14407 0.0
H3255 H 0.89304 0.29207 0.10802 0.0
H3256 H 0.90299 0.32469 0.17201 0.0
H3257 H 0.89631 0.30586 0.20868 0.0
H3258 H 0.8892 0.32856 0.12498 0.0
H3259 H 0.93013 0.32258 0.1438 0.0
H3260 H 0.94326 0.30901 0.15142 0.0
H3261 H 0.9334 0.29252 0.06696 0.0
H3262 H 0.91994 0.30577 0.059 0.0
H3263 H 0.93964 0.38973 0.04121 0.0
H3264 H 0.92709 0.37073 0.07668 0.0
H3265 H 0.91295 0.33757 0.01241 0.0
H3266 H 0.92527 0.35672 0.97644 0.0
H3267 H 0.92845 0.33418 0.05975 0.0
H3268 H 0.88797 0.34187 0.04187 0.0
H3269 H 0.87587 0.35657 0.03626 0.0
H3270 H 0.88685 0.37178 0.12134 0.0
H3271 H 0.89921 0.35733 0.12734 0.0
C3272 C 0.89 0.28457 0.15061 0.0
C3273 C 0.8911 0.28823 0.17929 0.0
C3274 C 0.8937 0.2952 0.1299 0.0
C3275 C 0.89877 0.30984 0.13726 0.0
C3276 C 0.89916 0.31346 0.16585 0.0
C3277 C 0.89536 0.30272 0.18677 0.0
C3278 C 0.90443 0.32127 0.11491 0.0
C3279 C 0.8979 0.32992 0.11094 0.0
C3280 C 0.91568 0.32294 0.09633 0.0
C3281 C 0.92389 0.31506 0.10089 0.0
C3282 C 0.93065 0.31596 0.12691 0.0
C3283 C 0.93817 0.30834 0.13129 0.0
C3284 C 0.93914 0.29989 0.1097 0.0
C3285 C 0.93262 0.29906 0.08367 0.0
C3286 C 0.92505 0.30663 0.07921 0.0
C3287 C 0.93361 0.37841 0.0345 0.0
C3288 C 0.93347 0.37471 1.00604 0.0
C3289 C 0.92642 0.36756 0.05482 0.0
C3290 C 0.91909 0.35274 0.04724 0.0
C3291 C 0.91854 0.34897 0.0187 0.0
C3292 C 0.92551 0.3599 0.99816 0.0
C3293 C 0.91307 0.34131 0.06953 0.0
C3294 C 0.91966 0.33273 0.07364 0.0
C3295 C 0.90209 0.33994 0.08848 0.0
C3296 C 0.89463 0.34861 0.08496 0.0
C3297 C 0.88792 0.34845 0.0593 0.0
C3298 C 0.88099 0.35671 0.05607 0.0
C3299 C 0.88062 0.36513 0.0784 0.0
C3300 C 0.88715 0.36526 0.10404 0.0
C3301 C 0.89411 0.35702 0.10738 0.0
H3302 H 0.87525 0.37152 0.07586 0.0
H3303 H 0.94497 0.294 0.11312 0.0
H3304 H 0.60898 0.56624 0.03822 0.0
H3305 H 0.62718 0.57234 0.07477 0.0
H3306 H 0.6558 0.56819 0.01539 0.0
H3307 H 0.63724 0.56177 0.97818 0.0
H3308 H 0.65647 0.55662 0.06684 0.0
H3309 H 0.66246 0.60154 0.03379 0.0
H3310 H 0.65496 0.61918 0.01871 0.0
H3311 H 0.63875 0.61896 0.10156 0.0
H3312 H 0.64601 0.60115 0.11718 0.0
H3313 H 0.72172 0.60502 0.14718 0.0
H3314 H 0.70261 0.59301 0.11154 0.0
H3315 H 0.66967 0.58491 0.17371 0.0
H3316 H 0.68883 0.59641 0.20993 0.0
H3317 H 0.67175 0.60244 0.12032 0.0
H3318 H 0.66731 0.55696 0.15196 0.0
H3319 H 0.67658 0.54033 0.1641 0.0
H3320 H 0.69269 0.54364 0.07994 0.0
H3321 H 0.6837 0.56048 0.06741 0.0
C3322 C 0.61911 0.56656 0.03273 0.0
C3323 C 0.62168 0.56362 1.00509 0.0
C3324 C 0.62955 0.5701 0.05378 0.0
C3325 C 0.64301 0.571 0.04786 0.0
C3326 C 0.64552 0.56763 0.02048 0.0
C3327 C 0.63494 0.564 0.99921 0.0
C3328 C 0.65438 0.57585 0.0704 0.0
C3329 C 0.65995 0.56673 0.07826 0.0
C3330 C 0.65889 0.58901 0.0856 0.0
C3331 C 0.65465 0.59987 0.07657 0.0
C3332 C 0.65721 0.60517 0.04878 0.0
C3333 C 0.65303 0.61522 0.04016 0.0
C3334 C 0.64638 0.62017 0.05919 0.0
C3335 C 0.64393 0.61511 0.08691 0.0
C3336 C 0.64809 0.60504 0.09567 0.0
C3337 C 0.71036 0.60026 0.15347 0.0
C3338 C 0.70676 0.60161 0.18137 0.0
C3339 C 0.69946 0.59344 0.13305 0.0
C3340 C 0.68473 0.58812 0.1399 0.0
C3341 C 0.68099 0.58893 0.168 0.0
C3342 C 0.69193 0.59542 0.18871 0.0
C3343 C 0.67357 0.58307 0.11708 0.0
C3344 C 0.66817 0.59228 0.10899 0.0
C3345 C 0.66953 0.57021 0.10134 0.0
C3346 C 0.67497 0.56011 0.10884 0.0
C3347 C 0.67297 0.55427 0.13612 0.0
C3348 C 0.67814 0.54477 0.14306 0.0
C3349 C 0.68526 0.54096 0.12283 0.0
C3350 C 0.68719 0.54662 0.0956 0.0
C3351 C 0.68205 0.55613 0.08857 0.0
H3352 H 0.68924 0.5336 0.12823 0.0
H3353 H 0.64313 0.62794 0.05247 0.0
H3354 H 0.11907 0.39543 0.36612 0.0
H3355 H 0.1142 0.40854 0.40301 0.0
H3356 H 0.08247 0.41102 0.34941 0.0
H3357 H 0.08829 0.39892 0.31161 0.0
H3358 H 0.09402 0.43387 0.38042 0.0
H3359 H 0.07376 0.38256 0.40197 0.0
H3360 H 0.07472 0.35994 0.41003 0.0
H3361 H 0.10492 0.38059 0.47811 0.0
H3362 H 0.10426 0.40339 0.47023 0.0
H3363 H 0.04413 0.43272 0.47901 0.0
H3364 H 0.05723 0.42746 0.44325 0.0
H3365 H 0.08938 0.43209 0.50462 0.0
H3366 H 0.07594 0.43714 0.54127 0.0
H3367 H 0.08073 0.40802 0.4722 0.0
H3368 H 0.09753 0.45859 0.4533 0.0
H3369 H 0.09474 0.48015 0.44494 0.0
H3370 H 0.06897 0.4597 0.37134 0.0
H3371 H 0.07143 0.43794 0.37946 0.0
C3372 C 0.11136 0.39916 0.36197 0.0
C3373 C 0.10399 0.39609 0.33609 0.0
C3374 C 0.10842 0.40649 0.38322 0.0
C3375 C 0.09751 0.41029 0.3796 0.0
C3376 C 0.09082 0.40808 0.353 0.0
C3377 C 0.09415 0.40117 0.33132 0.0
C3378 C 0.09245 0.41567 0.40389 0.0
C3379 C 0.09102 0.42813 0.40039 0.0
C3380 C 0.08882 0.40846 0.43037 0.0
C3381 C 0.08907 0.39471 0.43534 0.0
C3382 C 0.08065 0.38228 0.41857 0.0
C3383 C 0.08114 0.36944 0.42311 0.0
C3384 C 0.08991 0.36884 0.44452 0.0
C3385 C 0.09816 0.38108 0.4615 0.0
C3386 C 0.09772 0.39396 0.45703 0.0
C3387 C 0.05404 0.43274 0.48509 0.0
C3388 C 0.05902 0.43544 0.5131 0.0
C3389 C 0.0616 0.42981 0.46441 0.0
C3390 C 0.07449 0.42966 0.47096 0.0
C3391 C 0.07953 0.43228 0.49897 0.0
C3392 C 0.07188 0.4352 0.51988 0.0
C3393 C 0.0821 0.42605 0.44855 0.0
C3394 C 0.08396 0.41389 0.45238 0.0
C3395 C 0.08591 0.4334 0.42227 0.0
C3396 C 0.08462 0.4466 0.41708 0.0
C3397 C 0.09121 0.45866 0.43541 0.0
C3398 C 0.08969 0.47093 0.4307 0.0
C3399 C 0.08167 0.47129 0.40764 0.0
C3400 C 0.07519 0.45941 0.38919 0.0
C3401 C 0.07667 0.44712 0.3938 0.0
H3402 H 0.08049 0.48079 0.40406 0.0
H3403 H 0.09028 0.35889 0.44798 0.0
H3404 H 0.55325 0.60477 0.47753 0.0
H3405 H 0.56028 0.62348 0.44157 0.0
H3406 H 0.56692 0.65536 0.50515 0.0
H3407 H 0.55969 0.6364 0.54177 0.0
H3408 H 0.55388 0.6586 0.45588 0.0
H3409 H 0.59601 0.65561 0.48025 0.0
H3410 H 0.60988 0.64305 0.49087 0.0
H3411 H 0.60227 0.62566 0.40706 0.0
H3412 H 0.58821 0.63798 0.39601 0.0
H3413 H 0.60444 0.72023 0.37149 0.0
H3414 H 0.59266 0.7016 0.40799 0.0
H3415 H 0.57835 0.6677 0.34525 0.0
H3416 H 0.58979 0.68646 0.30823 0.0
H3417 H 0.59537 0.66616 0.39506 0.0
H3418 H 0.55326 0.67057 0.37191 0.0
H3419 H 0.54005 0.68401 0.36358 0.0
H3420 H 0.54932 0.70062 0.44799 0.0
H3421 H 0.56279 0.68744 0.45671 0.0
C3422 C 0.55606 0.61572 0.48402 0.0
C3423 C 0.55604 0.61911 0.51262 0.0
C3424 C 0.56011 0.62644 0.46333 0.0
C3425 C 0.56439 0.64091 0.47061 0.0
C3426 C 0.56372 0.64427 0.49903 0.0
C3427 C 0.55958 0.63344 0.51993 0.0
C3428 C 0.57021 0.65244 0.44836 0.0
C3429 C 0.56307 0.6604 0.44284 0.0
C3430 C 0.58214 0.65472 0.4311 0.0
C3431 C 0.59092 0.6476 0.43738 0.0
C3432 C 0.59723 0.64904 0.46412 0.0
C3433 C 0.60513 0.64198 0.47022 0.0
C3434 C 0.60688 0.6335 0.4497 0.0
C3435 C 0.60087 0.6322 0.42295 0.0
C3436 C 0.59295 0.63924 0.41673 0.0
C3437 C 0.59854 0.70881 0.36535 0.0
C3438 C 0.59802 0.7048 0.33698 0.0
C3439 C 0.59183 0.69818 0.38627 0.0
C3440 C 0.58466 0.68326 0.3794 0.0
C3441 C 0.58383 0.67917 0.35099 0.0
C3442 C 0.59028 0.68987 0.32986 0.0
C3443 C 0.57887 0.67211 0.40225 0.0
C3444 C 0.58613 0.66431 0.40803 0.0
C3445 C 0.56727 0.67022 0.42003 0.0
C3446 C 0.55917 0.67814 0.41486 0.0
C3447 C 0.55261 0.67721 0.38861 0.0
C3448 C 0.54505 0.68475 0.38384 0.0
C3449 C 0.54388 0.6932 0.40521 0.0
C3450 C 0.55025 0.69409 0.43144 0.0
C3451 C 0.55784 0.68657 0.43631 0.0
H3452 H 0.53802 0.69903 0.40148 0.0
H3453 H 0.61287 0.62791 0.45452 0.0
H3454 H 0.35661 0.92499 0.53762 0.0
H3455 H 0.33816 0.91212 0.50074 0.0
H3456 H 0.37221 0.92975 0.43782 0.0
H3457 H 0.39037 0.94283 0.47416 0.0
H3458 H 0.35165 0.93452 0.42236 0.0
H3459 H 0.35279 0.89233 0.45699 0.0
H3460 H 0.35115 0.87463 0.49275 0.0
H3461 H 0.30674 0.8631 0.51068 0.0
H3462 H 0.30818 0.88087 0.47526 0.0
H3463 H 0.30546 0.89741 0.3058 0.0
H3464 H 0.3248 0.90384 0.34117 0.0
H3465 H 0.29253 0.88995 0.40722 0.0
H3466 H 0.27338 0.88356 0.37232 0.0
H3467 H 0.31267 0.88236 0.41981 0.0
H3468 H 0.3122 0.9256 0.38774 0.0
H3469 H 0.31411 0.94413 0.35371 0.0
H3470 H 0.35763 0.95401 0.33188 0.0
H3471 H 0.35589 0.93538 0.36549 0.0
C3472 C 0.36012 0.92583 0.51597 0.0
C3473 C 0.3749 0.93495 0.50875 0.0
C3474 C 0.34959 0.91848 0.49486 0.0
C3475 C 0.35375 0.91995 0.46633 0.0
C3476 C 0.36864 0.9285 0.45951 0.0
C3477 C 0.37904 0.93595 0.48038 0.0
C3478 C 0.3427 0.91363 0.4432 0.0
C3479 C 0.34331 0.92303 0.4216 0.0
C3480 C 0.33154 0.89874 0.44239 0.0
C3481 C 0.33064 0.88803 0.46366 0.0
C3482 C 0.34271 0.8861 0.46871 0.0
C3483 C 0.34181 0.87604 0.48889 0.0
C3484 C 0.32886 0.86778 0.50403 0.0
C3485 C 0.31677 0.86952 0.49896 0.0
C3486 C 0.31762 0.87958 0.47882 0.0
C3487 C 0.3025 0.89545 0.32782 0.0
C3488 C 0.28793 0.8901 0.33629 0.0
C3489 C 0.31355 0.89921 0.34804 0.0
C3490 C 0.31015 0.89757 0.37695 0.0
C3491 C 0.29547 0.89135 0.38515 0.0
C3492 C 0.28452 0.88775 0.3651 0.0
C3493 C 0.32179 0.90324 0.39895 0.0
C3494 C 0.32119 0.89378 0.42042 0.0
C3495 C 0.333 0.9181 0.39971 0.0
C3496 C 0.33385 0.92898 0.37889 0.0
C3497 C 0.3221 0.9316 0.37544 0.0
C3498 C 0.32317 0.94215 0.35628 0.0
C3499 C 0.33599 0.95024 0.34066 0.0
C3500 C 0.34771 0.94773 0.344 0.0
C3501 C 0.34669 0.93718 0.36308 0.0
H3502 H 0.33688 0.95852 0.32606 0.0
H3503 H 0.32819 0.85999 0.51964 0.0
H3504 H 0.61384 0.88893 0.86849 0.0
H3505 H 0.60078 0.8948 0.90347 0.0
H3506 H 0.57594 0.90065 0.83785 0.0
H3507 H 0.58927 0.89482 0.80221 0.0
H3508 H 0.58772 0.92355 0.8751 0.0
H3509 H 0.55958 0.87125 0.88307 0.0
H3510 H 0.55596 0.8464 0.88853 0.0
H3511 H 0.57754 0.85827 0.96868 0.0
H3512 H 0.58146 0.88326 0.96355 0.0
H3513 H 0.54714 0.93873 0.97171 0.0
H3514 H 0.55314 0.9264 0.93514 0.0
H3515 H 0.5756 0.9145 0.9963 0.0
H3516 H 0.56886 0.92628 0.03349 0.0
H3517 H 0.56328 0.89348 0.95947 0.0
H3518 H 0.59366 0.94541 0.9513 0.0
H3519 H 0.59968 0.97111 0.94646 0.0
H3520 H 0.57668 0.96102 0.8678 0.0
H3521 H 0.57031 0.93519 0.87239 0.0
C3522 C 0.60546 0.89126 0.86136 0.0
C3523 C 0.60259 0.89139 0.83249 0.0
C3524 C 0.59792 0.89454 0.88152 0.0
C3525 C 0.58722 0.89802 0.87347 0.0
C3526 C 0.58409 0.89791 0.84462 0.0
C3527 C 0.59163 0.89451 0.82427 0.0
C3528 C 0.58023 0.90274 0.89526 0.0
C3529 C 0.58206 0.91683 0.89321 0.0
C3530 C 0.57339 0.89425 0.91955 0.0
C3531 C 0.57089 0.87916 0.92283 0.0
C3532 C 0.56363 0.86859 0.90179 0.0
C3533 C 0.56151 0.85448 0.90484 0.0
C3534 C 0.56654 0.85077 0.92891 0.0
C3535 C 0.57365 0.86116 0.95004 0.0
C3536 C 0.5758 0.87529 0.94709 0.0
C3537 C 0.55312 0.93323 0.9775 0.0
C3538 C 0.55761 0.93355 1.00544 0.0
C3539 C 0.55668 0.9263 0.95647 0.0
C3540 C 0.56528 0.91991 0.9626 0.0
C3541 C 0.56908 0.91946 0.99087 0.0
C3542 C 0.5652 0.92616 0.01217 0.0
C3543 C 0.57075 0.91432 0.93932 0.0
C3544 C 0.56874 0.90013 0.94117 0.0
C3545 C 0.57767 0.92282 0.91501 0.0
C3546 C 0.58136 0.93832 0.91236 0.0
C3547 C 0.58977 0.94864 0.9331 0.0
C3548 C 0.59326 0.96323 0.93038 0.0
C3549 C 0.58853 0.96769 0.90688 0.0
C3550 C 0.58031 0.95755 0.88603 0.0
C3551 C 0.57675 0.94293 0.88868 0.0
H3552 H 0.59127 0.97899 0.9048 0.0
H3553 H 0.5649 0.83984 0.93122 0.0
H3554 H 0.05112 0.63817 0.02651 0.0
H3555 H 0.06236 0.65544 0.98771 0.0
H3556 H 0.0858 0.63349 0.9628 0.0
H3557 H 0.07454 0.61616 1.00203 0.0
H3558 H 0.10225 0.66489 0.95493 0.0
H3559 H 0.05597 0.62376 0.93065 0.0
H3560 H 0.02982 0.60575 0.93738 0.0
H3561 H 0.01945 0.64028 0.93583 0.0
H3562 H 0.0456 0.65854 0.92956 0.0
H3563 H 0.1109 0.69835 0.81589 0.0
H3564 H 0.10505 0.67922 0.85177 0.0
H3565 H 0.07813 0.69292 0.89562 0.0
H3566 H 0.08401 0.71188 0.86068 0.0
H3567 H 0.06462 0.6627 0.88928 0.0
H3568 H 0.11118 0.7038 0.91889 0.0
H3569 H 0.13739 0.72191 0.91323 0.0
H3570 H 0.1472 0.6872 0.90415 0.0
H3571 H 0.12099 0.66887 0.90936 0.0
C3572 C 0.05915 0.63742 0.01357 0.0
C3573 C 0.06226 0.62608 0.01768 0.0
C3574 C 0.06545 0.64719 0.99116 0.0
C3575 C 0.07482 0.64568 0.97216 0.0
C3576 C 0.07866 0.6349 0.97724 0.0
C3577 C 0.0723 0.62507 0.99971 0.0
C3578 C 0.07921 0.65433 0.94561 0.0
C3579 C 0.09406 0.66423 0.94028 0.0
C3580 C 0.06853 0.65348 0.92645 0.0
C3581 C 0.05276 0.64253 0.92985 0.0
C3582 C 0.04813 0.62753 0.93194 0.0
C3583 C 0.03331 0.61727 0.93566 0.0
C3584 C 0.02298 0.62187 0.93709 0.0
C3585 C 0.02746 0.63674 0.93474 0.0
C3586 C 0.04228 0.64704 0.93108 0.0
C3587 C 0.10368 0.69716 0.83313 0.0
C3588 C 0.09799 0.70666 0.83555 0.0
C3589 C 0.10039 0.6863 0.85364 0.0
C3590 C 0.09118 0.68469 0.87646 0.0
C3591 C 0.08524 0.69394 0.87827 0.0
C3592 C 0.08868 0.70483 0.85826 0.0
C3593 C 0.08763 0.6736 0.89899 0.0
C3594 C 0.07287 0.66318 0.90359 0.0
C3595 C 0.0984 0.67397 0.91733 0.0
C3596 C 0.11412 0.68497 0.91409 0.0
C3597 C 0.11891 0.70003 0.91538 0.0
C3598 C 0.13376 0.71033 0.91232 0.0
C3599 C 0.14395 0.70571 0.90822 0.0
C3600 C 0.1393 0.69076 0.90725 0.0
C3601 C 0.12444 0.68041 0.91025 0.0
H3602 H 0.15545 0.7137 0.90589 0.0
H3603 H 0.01151 0.61391 0.93996 0.0
H3604 H 0.30727 0.4049 0.80021 0.0
H3605 H 0.32632 0.41553 0.83676 0.0
H3606 H 0.29323 0.40595 0.89949 0.0
H3607 H 0.2742 0.39475 0.86347 0.0
H3608 H 0.32204 0.4357 0.9029 0.0
H3609 H 0.301 0.38272 0.8989 0.0
H3610 H 0.29363 0.35955 0.87399 0.0
H3611 H 0.3379 0.3761 0.84622 0.0
H3612 H 0.34549 0.3995 0.87065 0.0
H3613 H 0.3583 0.43661 0.03172 0.0
H3614 H 0.34048 0.43085 0.99352 0.0
H3615 H 0.36935 0.42591 0.93601 0.0
H3616 H 0.38691 0.43142 0.9737 0.0
H3617 H 0.34287 0.40423 0.92866 0.0
H3618 H 0.36496 0.45614 0.93445 0.0
H3619 H 0.37322 0.48006 0.95698 0.0
H3620 H 0.32879 0.46706 0.97837 0.0
H3621 H 0.32027 0.44295 0.9563 0.0
C3622 C 0.30411 0.40533 0.82168 0.0
C3623 C 0.28925 0.39892 0.82903 0.0
C3624 C 0.31499 0.41139 0.84254 0.0
C3625 C 0.31117 0.41149 0.87086 0.0
C3626 C 0.29642 0.40604 0.87781 0.0
C3627 C 0.28557 0.39962 0.85719 0.0
C3628 C 0.32223 0.41583 0.89367 0.0
C3629 C 0.32654 0.42881 0.90874 0.0
C3630 C 0.32827 0.40695 0.90092 0.0
C3631 C 0.32377 0.3929 0.88632 0.0
C3632 C 0.30913 0.38148 0.88725 0.0
C3633 C 0.30492 0.36829 0.87328 0.0
C3634 C 0.31529 0.36636 0.85854 0.0
C3635 C 0.32989 0.37762 0.85767 0.0
C3636 C 0.33415 0.39084 0.87157 0.0
C3637 C 0.36084 0.43435 0.01089 0.0
C3638 C 0.37404 0.43449 1.00584 0.0
C3639 C 0.35067 0.43111 0.98902 0.0
C3640 C 0.35356 0.42799 0.9617 0.0
C3641 C 0.36677 0.42819 0.95679 0.0
C3642 C 0.37686 0.43141 0.97848 0.0
C3643 C 0.34283 0.42422 0.93819 0.0
C3644 C 0.33849 0.41125 0.92293 0.0
C3645 C 0.33694 0.43324 0.93058 0.0
C3646 C 0.342 0.44767 0.94402 0.0
C3647 C 0.35696 0.45832 0.9442 0.0
C3648 C 0.36169 0.47193 0.95684 0.0
C3649 C 0.35154 0.47506 0.96918 0.0
C3650 C 0.33664 0.4646 0.96885 0.0
C3651 C 0.33185 0.45097 0.95627 0.0
H3652 H 0.35522 0.48561 0.97894 0.0
H3653 H 0.31203 0.35612 0.84787 0.0
H3654 H 0.90031 0.59149 0.70677 0.0
H3655 H 0.90746 0.5799 0.66991 0.0
H3656 H 0.88864 0.59494 0.60687 0.0
H3657 H 0.88182 0.60676 0.64332 0.0
H3658 H 0.88264 0.56581 0.5977 0.0
H3659 H 0.92305 0.61399 0.61623 0.0
H3660 H 0.94207 0.63422 0.6443 0.0
H3661 H 0.9604 0.60733 0.66709 0.0
H3662 H 0.9413 0.58682 0.63963 0.0
H3663 H 0.92125 0.56135 0.47506 0.0
H3664 H 0.90921 0.56817 0.51166 0.0
H3665 H 0.93308 0.55973 0.57559 0.0
H3666 H 0.94517 0.55325 0.53951 0.0
H3667 H 0.93586 0.58543 0.58399 0.0
H3668 H 0.8957 0.53719 0.56529 0.0
H3669 H 0.87722 0.51717 0.53605 0.0
H3670 H 0.8587 0.54389 0.51315 0.0
H3671 H 0.87721 0.56416 0.54198 0.0
C3672 C 0.89751 0.59212 0.68511 0.0
C3673 C 0.89059 0.60011 0.67792 0.0
C3674 C 0.90164 0.58555 0.66406 0.0
C3675 C 0.89866 0.58664 0.63559 0.0
C3676 C 0.89104 0.59394 0.62864 0.0
C3677 C 0.8872 0.60073 0.64952 0.0
C3678 C 0.90426 0.58105 0.61282 0.0
C3679 C 0.89428 0.57014 0.59456 0.0
C3680 C 0.91944 0.58663 0.60883 0.0
C3681 C 0.93063 0.5988 0.62613 0.0
C3682 C 0.931 0.61231 0.62755 0.0
C3683 C 0.94183 0.62385 0.64327 0.0
C3684 C 0.95245 0.62206 0.65741 0.0
C3685 C 0.95218 0.60869 0.6561 0.0
C3686 C 0.94134 0.5971 0.64049 0.0
C3687 C 0.92369 0.56072 0.49695 0.0
C3688 C 0.93422 0.55685 0.50437 0.0
C3689 C 0.91682 0.56462 0.51789 0.0
C3690 C 0.92026 0.56453 0.54651 0.0
C3691 C 0.93031 0.56005 0.55376 0.0
C3692 C 0.9372 0.55629 0.53302 0.0
C3693 C 0.91426 0.56992 0.56905 0.0
C3694 C 0.9242 0.58094 0.58719 0.0
C3695 C 0.89907 0.56439 0.57292 0.0
C3696 C 0.88795 0.55225 0.55554 0.0
C3697 C 0.88777 0.53884 0.55382 0.0
C3698 C 0.87727 0.52744 0.53736 0.0
C3699 C 0.86682 0.52927 0.52268 0.0
C3700 C 0.86682 0.5425 0.52449 0.0
C3701 C 0.87731 0.55395 0.54091 0.0
H3702 H 0.8587 0.52043 0.50996 0.0
H3703 H 0.96092 0.63105 0.66932 0.0
H3704 H 0.37539 0.28044 0.64171 0.0
H3705 H 0.38947 0.29868 0.6065 0.0
H3706 H 0.42432 0.32193 0.66626 0.0
H3707 H 0.40994 0.30344 0.70247 0.0
H3708 H 0.41766 0.34032 0.63556 0.0
H3709 H 0.4287 0.30263 0.61349 0.0
H3710 H 0.42287 0.27724 0.60454 0.0
H3711 H 0.39661 0.27476 0.53349 0.0
H3712 H 0.40211 0.30006 0.54223 0.0
H3713 H 0.455 0.38912 0.52469 0.0
H3714 H 0.45011 0.37152 0.56245 0.0
H3715 H 0.41553 0.33759 0.51277 0.0
H3716 H 0.4214 0.35498 0.47404 0.0
H3717 H 0.42624 0.32537 0.54179 0.0
H3718 H 0.41098 0.36022 0.56778 0.0
H3719 H 0.41472 0.3849 0.57688 0.0
H3720 H 0.44662 0.39199 0.64022 0.0
H3721 H 0.44317 0.3674 0.63127 0.0
C3722 C 0.38608 0.28935 0.6476 0.0
C3723 C 0.39156 0.29038 0.67503 0.0
C3724 C 0.39418 0.29978 0.62722 0.0
C3725 C 0.4081 0.31156 0.63341 0.0
C3726 C 0.41364 0.31284 0.66089 0.0
C3727 C 0.40545 0.30228 0.68154 0.0
C3728 C 0.41636 0.32259 0.61103 0.0
C3729 C 0.41987 0.33714 0.61526 0.0
C3730 C 0.41889 0.31839 0.58423 0.0
C3731 C 0.41579 0.30325 0.57859 0.0
C3732 C 0.42163 0.29665 0.59603 0.0
C3733 C 0.41838 0.28228 0.59099 0.0
C3734 C 0.40936 0.27439 0.56848 0.0
C3735 C 0.4036 0.28089 0.55091 0.0
C3736 C 0.40681 0.29526 0.55586 0.0
C3737 C 0.44663 0.37778 0.5216 0.0
C3738 C 0.43856 0.3734 0.49648 0.0
C3739 C 0.44367 0.36776 0.54339 0.0
C3740 C 0.43202 0.35327 0.54116 0.0
C3741 C 0.42448 0.3487 0.51534 0.0
C3742 C 0.42783 0.35864 0.4931 0.0
C3743 C 0.42718 0.3431 0.56596 0.0
C3744 C 0.42429 0.32867 0.56219 0.0
C3745 C 0.42499 0.34736 0.59308 0.0
C3746 C 0.42693 0.36206 0.59866 0.0
C3747 C 0.41883 0.36708 0.58356 0.0
C3748 C 0.4209 0.38104 0.58869 0.0
C3749 C 0.43093 0.39002 0.60906 0.0
C3750 C 0.43887 0.38503 0.62442 0.0
C3751 C 0.43686 0.37108 0.61934 0.0
H3752 H 0.43252 0.40083 0.61299 0.0
H3753 H 0.40685 0.26326 0.56463 0.0
H3754 H 0.63891 0.05594 0.47998 0.0
H3755 H 0.65616 0.06687 0.51888 0.0
H3756 H 0.63121 0.08599 0.55068 0.0
H3757 H 0.61376 0.07485 0.51165 0.0
H3758 H 0.66329 0.10444 0.55723 0.0
H3759 H 0.62371 0.05622 0.57709 0.0
H3760 H 0.6071 0.02995 0.56805 0.0
H3761 H 0.64363 0.02259 0.56849 0.0
H3762 H 0.66052 0.04888 0.57655 0.0
H3763 H 0.69648 0.11218 0.69566 0.0
H3764 H 0.67789 0.10652 0.65878 0.0
H3765 H 0.69241 0.08006 0.61572 0.0
H3766 H 0.71071 0.08561 0.65183 0.0
H3767 H 0.66302 0.06623 0.61854 0.0
H3768 H 0.70268 0.11424 0.59346 0.0
H3769 H 0.71987 0.14053 0.60106 0.0
H3770 H 0.68376 0.14821 0.61077 0.0
H3771 H 0.66634 0.12189 0.6036 0.0
C3772 C 0.63744 0.06299 0.49447 0.0
C3773 C 0.62519 0.06485 0.49232 0.0
C3774 C 0.64724 0.06912 0.51694 0.0
C3775 C 0.64496 0.0772 0.53783 0.0
C3776 C 0.63325 0.07989 0.53475 0.0
C3777 C 0.62334 0.07359 0.51237 0.0
C3778 C 0.65376 0.08128 0.56424 0.0
C3779 C 0.66307 0.0961 0.57091 0.0
C3780 C 0.65355 0.07041 0.58207 0.0
C3781 C 0.64341 0.05457 0.5771 0.0
C3782 C 0.62823 0.04903 0.57486 0.0
C3783 C 0.61876 0.03413 0.5699 0.0
C3784 C 0.62431 0.02461 0.5675 0.0
C3785 C 0.63935 0.02998 0.5701 0.0
C3786 C 0.64888 0.04488 0.57485 0.0
C3787 C 0.69558 0.10509 0.6784 0.0
C3788 C 0.70511 0.0994 0.67667 0.0
C3789 C 0.68503 0.10193 0.65726 0.0
C3790 C 0.68378 0.09291 0.6343 0.0
C3791 C 0.6931 0.08702 0.63311 0.0
C3792 C 0.70363 0.09026 0.65384 0.0
C3793 C 0.67292 0.0894 0.6112 0.0
C3794 C 0.66313 0.07461 0.60514 0.0
C3795 C 0.67277 0.1003 0.59396 0.0
C3796 C 0.68321 0.11608 0.5984 0.0
C3797 C 0.6984 0.12151 0.59751 0.0
C3798 C 0.70819 0.13642 0.60167 0.0
C3799 C 0.70291 0.14603 0.60651 0.0
C3800 C 0.68783 0.14075 0.6071 0.0
C3801 C 0.678 0.12584 0.60299 0.0
H3802 H 0.7105 0.15757 0.6097 0.0
H3803 H 0.61696 0.01306 0.56375 0.0
H3804 H 0.77125 0.74195 0.65179 0.0
H3805 H 0.76612 0.75533 0.6885 0.0
H3806 H 0.75124 0.71825 0.74404 0.0
H3807 H 0.75619 0.70502 0.7081 0.0
H3808 H 0.73251 0.72819 0.74487 0.0
H3809 H 0.78491 0.74881 0.7518 0.0
H3810 H 0.81031 0.76165 0.73418 0.0
H3811 H 0.80662 0.79947 0.71488 0.0
H3812 H 0.78112 0.78676 0.73207 0.0
H3813 H 0.73292 0.75648 0.88016 0.0
H3814 H 0.74315 0.74857 0.84201 0.0
H3815 H 0.74449 0.78205 0.78805 0.0
H3816 H 0.73367 0.78951 0.82563 0.0
H3817 H 0.77033 0.77572 0.78468 0.0
H3818 H 0.71812 0.75516 0.77518 0.0
H3819 H 0.69278 0.7429 0.79302 0.0
H3820 H 0.69615 0.70544 0.81649 0.0
H3821 H 0.7217 0.71758 0.7993 0.0
C3822 C 0.76689 0.73671 0.67184 0.0
C3823 C 0.76418 0.72242 0.67693 0.0
C3824 C 0.764 0.74436 0.69285 0.0
C3825 C 0.75832 0.73782 0.71918 0.0
C3826 C 0.75556 0.72355 0.724 0.0
C3827 C 0.75847 0.71601 0.70329 0.0
C3828 C 0.75503 0.74549 0.74201 0.0
C3829 C 0.74085 0.73853 0.75361 0.0
C3830 C 0.76576 0.75914 0.75325 0.0
C3831 C 0.78106 0.76678 0.74289 0.0
C3832 C 0.78948 0.75982 0.74356 0.0
C3833 C 0.8039 0.76708 0.7337 0.0
C3834 C 0.81006 0.78135 0.72333 0.0
C3835 C 0.80183 0.7884 0.72286 0.0
C3836 C 0.78739 0.78118 0.73267 0.0
C3837 C 0.73586 0.76245 0.8605 0.0
C3838 C 0.73262 0.77367 0.85587 0.0
C3839 C 0.74164 0.7579 0.83868 0.0
C3840 C 0.74458 0.76474 0.81219 0.0
C3841 C 0.74242 0.7767 0.80834 0.0
C3842 C 0.73626 0.78096 0.82983 0.0
C3843 C 0.74798 0.75823 0.7876 0.0
C3844 C 0.76206 0.7654 0.77575 0.0
C3845 C 0.73719 0.74479 0.77596 0.0
C3846 C 0.72186 0.73735 0.78625 0.0
C3847 C 0.71352 0.74436 0.78444 0.0
C3848 C 0.69912 0.73742 0.79439 0.0
C3849 C 0.69289 0.72339 0.80594 0.0
C3850 C 0.70105 0.7163 0.80759 0.0
C3851 C 0.71548 0.7232 0.79775 0.0
H3852 H 0.68172 0.71799 0.81352 0.0
H3853 H 0.82123 0.78696 0.71571 0.0
H3854 H 0.25852 0.02456 0.64425 0.0
H3855 H 0.24642 0.0064 0.68185 0.0
H3856 H 0.27289 0.03888 0.74368 0.0
H3857 H 0.28514 0.05675 0.7065 0.0
H3858 H 0.27259 0.01505 0.75596 0.0
H3859 H 0.2355 0.02687 0.73301 0.0
H3860 H 0.21841 0.03005 0.70241 0.0
H3861 H 0.19669 0.98441 0.68089 0.0
H3862 H 0.21378 0.981 0.7111 0.0
H3863 H 0.23339 0.97411 0.87687 0.0
H3864 H 0.24157 0.99335 0.84072 0.0
H3865 H 0.22292 0.9603 0.77619 0.0
H3866 H 0.21508 0.94119 0.81191 0.0
H3867 H 0.2187 0.98469 0.7666 0.0
H3868 H 0.25691 0.97372 0.78969 0.0
H3869 H 0.27352 0.97098 0.82247 0.0
H3870 H 0.29296 0.01626 0.84563 0.0
H3871 H 0.27624 0.01919 0.81343 0.0
C3872 C 0.26165 0.0278 0.66589 0.0
C3873 C 0.2728 0.04209 0.67233 0.0
C3874 C 0.25471 0.01744 0.68742 0.0
C3875 C 0.25865 0.02124 0.7158 0.0
C3876 C 0.26966 0.03558 0.72209 0.0
C3877 C 0.27664 0.04583 0.7007 0.0
C3878 C 0.25169 0.01035 0.73906 0.0
C3879 C 0.2608 0.0086 0.75842 0.0
C3880 C 0.23629 0.0017 0.7423 0.0
C3881 C 0.22602 0.00372 0.72408 0.0
C3882 C 0.22716 0.01754 0.72157 0.0
C3883 C 0.21746 0.01938 0.70433 0.0
C3884 C 0.2065 0.00745 0.68965 0.0
C3885 C 0.2052 0.99365 0.69224 0.0
C3886 C 0.21488 0.99175 0.70943 0.0
C3887 C 0.23079 0.97099 0.85504 0.0
C3888 C 0.2237 0.95617 0.84718 0.0
C3889 C 0.2355 0.98196 0.8344 0.0
C3890 C 0.23295 0.97824 0.80571 0.0
C3891 C 0.22501 0.96343 0.79813 0.0
C3892 C 0.22057 0.95253 0.81859 0.0
C3893 C 0.23962 0.98958 0.78334 0.0
C3894 C 0.23048 0.9913 0.76413 0.0
C3895 C 0.25498 -0.00168 0.78037 0.0
C3896 C 0.26521 0.99663 0.79937 0.0
C3897 C 0.26464 0.98306 0.80195 0.0
C3898 C 0.27408 0.98148 0.82041 0.0
C3899 C 0.28427 0.99344 0.83615 0.0
C3900 C 0.28505 0.00701 0.83345 0.0
C3901 C 0.27559 0.00863 0.81511 0.0
H3902 H 0.29161 0.99221 0.85034 0.0
H3903 H 0.199 0.00889 0.67632 0.0
H3904 H 0.94802 0.20303 0.68055 0.0
H3905 H 0.96619 0.20902 0.71812 0.0
H3906 H 0.98856 0.25421 0.69158 0.0
H3907 H 0.97055 0.24816 0.65413 0.0
H3908 H 0.00795 0.24604 0.70599 0.0
H3909 H 0.96345 0.24134 0.7466 0.0
H3910 H 0.93707 0.22796 0.75773 0.0
H3911 H 0.94222 0.19532 0.80198 0.0
H3912 H 0.96862 0.20842 0.79079 0.0
H3913 H 0.0452 0.29015 0.81838 0.0
H3914 H 0.0272 0.27667 0.78229 0.0
H3915 H 0.01328 0.23639 0.82761 0.0
H3916 H 0.03135 0.25015 0.86486 0.0
H3917 H 0.98996 0.23736 0.80446 0.0
H3918 H 0.0354 0.2444 0.76989 0.0
H3919 H 0.06183 0.25824 0.75937 0.0
H3920 H 0.05507 0.28639 0.70373 0.0
H3921 H 0.02862 0.27285 0.71421 0.0
C3922 C 0.95708 0.21414 0.68236 0.0
C3923 C 0.95813 0.22508 0.66408 0.0
C3924 C 0.96736 0.21759 0.70398 0.0
C3925 C 0.9787 0.23212 0.70795 0.0
C3926 C 0.97999 0.24292 0.68895 0.0
C3927 C 0.96975 0.23945 0.66738 0.0
C3928 C 0.98886 0.23639 0.7325 0.0
C3929 C 0.004 0.24416 0.7275 0.0
C3930 C 0.98378 0.23354 0.76068 0.0
C3931 C 0.96796 0.22576 0.76759 0.0
C3932 C 0.95893 0.23125 0.75854 0.0
C3933 C 0.94399 0.22373 0.76488 0.0
C3934 C 0.93797 0.21077 0.78048 0.0
C3935 C 0.94689 0.20534 0.78985 0.0
C3936 C 0.96185 0.21281 0.78353 0.0
C3937 C 0.03833 0.27842 0.82087 0.0
C3938 C 0.03988 0.27119 0.84434 0.0
C3939 C 0.02804 0.27069 0.80005 0.0
C3940 C 0.01914 0.25543 0.80168 0.0
C3941 C 0.02016 0.24815 0.82569 0.0
C3942 C 0.03045 0.25599 0.84695 0.0
C3943 C 0.00904 0.24742 0.77789 0.0
C3944 C 0.99393 0.23896 0.78298 0.0
C3945 C 0.01414 0.2496 0.74972 0.0
C3946 C 0.03002 0.25762 0.74293 0.0
C3947 C 0.03955 0.25358 0.7555 0.0
C3948 C 0.05454 0.26137 0.74954 0.0
C3949 C 0.06012 0.2732 0.73091 0.0
C3950 C 0.05072 0.27723 0.71814 0.0
C3951 C 0.03573 0.26947 0.72404 0.0
H3952 H 0.07173 0.27924 0.72636 0.0
H3953 H 0.92639 0.20497 0.78536 0.0
H3954 H 0.25665 0.23068 0.13757 0.0
H3955 H 0.2439 0.2376 0.17248 0.0
H3956 H 0.26402 0.22628 0.23947 0.0
H3957 H 0.27652 0.21933 0.2051 0.0
H3958 H 0.23647 0.21814 0.25307 0.0
H3959 H 0.27859 0.26154 0.21602 0.0
H3960 H 0.29346 0.27844 0.17813 0.0
H3961 H 0.258 0.28565 0.15681 0.0
H3962 H 0.24282 0.2686 0.1943 0.0
H3963 H 0.23452 0.2605 0.36924 0.0
H3964 H 0.24083 0.24845 0.33201 0.0
H3965 H 0.22339 0.2654 0.26971 0.0
H3966 H 0.2178 0.27791 0.30652 0.0
H3967 H 0.24784 0.26978 0.25168 0.0
H3968 H 0.20613 0.2274 0.29119 0.0
H3969 H 0.19142 0.21034 0.329 0.0
H3970 H 0.22604 0.20116 0.34588 0.0
H3971 H 0.24103 0.2183 0.30839 0.0
C3972 C 0.25807 0.2294 0.15973 0.0
C3973 C 0.26767 0.22457 0.16857 0.0
C3974 C 0.25088 0.23344 0.17969 0.0
C3975 C 0.25316 0.23266 0.20871 0.0
C3976 C 0.26207 0.22703 0.21733 0.0
C3977 C 0.26927 0.2231 0.19756 0.0
C3978 C 0.24718 0.23852 0.23036 0.0
C3979 C 0.23898 0.22944 0.25281 0.0
C3980 C 0.2503 0.25323 0.22998 0.0
C3981 C 0.2595 0.26365 0.20773 0.0
C3982 C 0.27392 0.26664 0.20311 0.0
C3983 C 0.2824 0.27624 0.1817 0.0
C3984 C 0.27664 0.28303 0.16496 0.0
C3985 C 0.26242 0.28032 0.16971 0.0
C3986 C 0.25387 0.2707 0.19104 0.0
C3987 C 0.23186 0.26143 0.34764 0.0
C3988 C 0.22568 0.27016 0.34081 0.0
C3989 C 0.23543 0.25452 0.32629 0.0
C3990 C 0.23253 0.25589 0.29782 0.0
C3991 C 0.22587 0.2642 0.29132 0.0
C3992 C 0.22259 0.2713 0.31247 0.0
C3993 C 0.23703 0.24938 0.27455 0.0
C3994 C 0.24509 0.2584 0.25184 0.0
C3995 C 0.23378 0.23461 0.27474 0.0
C3996 C 0.22474 0.22422 0.29714 0.0
C3997 C 0.21064 0.22181 0.30308 0.0
C3998 C 0.20225 0.21211 0.32444 0.0
C3999 C 0.20781 0.2047 0.33987 0.0
C4000 C 0.22175 0.20692 0.33392 0.0
C4001 C 0.23019 0.21661 0.3126 0.0
H4002 H 0.2013 0.1972 0.35641 0.0
H4003 H 0.28322 0.29048 0.14843 0.0
H4004 H 0.76272 0.02469 0.13692 0.0
H4005 H 0.75643 0.00523 0.172 0.0
H4006 H 0.77142 0.0374 0.23832 0.0
H4007 H 0.77763 0.05665 0.20372 0.0
H4008 H 0.77897 0.01696 0.24945 0.0
H4009 H 0.7357 0.01818 0.22047 0.0
H4010 H 0.71689 0.0166 0.18751 0.0
H4011 H 0.70587 0.97279 0.16537 0.0
H4012 H 0.7248 0.97421 0.19781 0.0
H4013 H 0.73837 0.97293 0.36885 0.0
H4014 H 0.75063 0.99145 0.33179 0.0
H4015 H 0.73105 0.95766 0.26864 0.0
H4016 H 0.71854 0.93946 0.30522 0.0
H4017 H 0.72667 0.97849 0.25454 0.0
H4018 H 0.76908 0.97662 0.28532 0.0
H4019 H 0.78725 0.97789 0.31955 0.0
H4020 H 0.79964 0.02239 0.33888 0.0
H4021 H 0.78141 0.02131 0.30502 0.0
C4022 C 0.76495 0.0276 0.15892 0.0
C4023 C 0.77058 0.04218 0.16756 0.0
C4024 C 0.76127 0.01648 0.17898 0.0
C4025 C 0.76328 0.01981 0.20792 0.0
C4026 C 0.76974 0.0345 0.21624 0.0
C4027 C 0.77324 0.04551 0.19636 0.0
C4028 C 0.7578 0.00813 0.22989 0.0
C4029 C 0.76752 0.00855 0.25061 0.0
C4030 C 0.7429 0.99706 0.23137 0.0
C4031 C 0.73179 0.99637 0.21132 0.0
C4032 C 0.72939 0.00828 0.20832 0.0
C4033 C 0.71868 0.0074 0.18979 0.0
C4034 C 0.71019 0.99459 0.17439 0.0
C4035 C 0.71246 0.98269 0.17732 0.0
C4036 C 0.72318 0.98354 0.19575 0.0
C4037 C 0.73697 0.96949 0.34708 0.0
C4038 C 0.72747 0.95477 0.33993 0.0
C4039 C 0.74397 0.98006 0.32585 0.0
C4040 C 0.74179 0.97601 0.29721 0.0
C4041 C 0.73285 0.96117 0.2904 0.0
C4042 C 0.72574 0.95073 0.31141 0.0
C4043 C 0.74785 0.98713 0.27408 0.0
C4044 C 0.73818 0.98671 0.25323 0.0
C4045 C 0.76279 0.99815 0.2725 0.0
C4046 C 0.77378 -0.00117 0.29283 0.0
C4047 C 0.7756 0.98664 0.29703 0.0
C4048 C 0.78593 0.98733 0.31633 0.0
C4049 C 0.79457 0.0002 0.33143 0.0
C4050 C 0.79293 0.01242 0.3272 0.0
C4051 C 0.78261 0.01178 0.30793 0.0
H4052 H 0.80256 0.00072 0.34637 0.0
H4053 H 0.70181 0.99386 0.16027 0.0
H4054 H 0.05349 0.77401 0.30566 0.0
H4055 H 0.03435 0.76838 0.27118 0.0
H4056 H 0.00305 0.75825 0.33797 0.0
H4057 H 0.02243 0.76399 0.37301 0.0
H4058 H 0.99359 0.73649 0.29725 0.0
H4059 H 0.0135 0.78842 0.29819 0.0
H4060 H 0.03307 0.81428 0.29633 0.0
H4061 H 0.04477 0.80784 0.21326 0.0
H4062 H 0.0254 0.78188 0.21475 0.0
H4063 H 0.93714 0.72114 0.20204 0.0
H4064 H 0.95499 0.73299 0.23955 0.0
H4065 H 0.99002 0.74924 0.17875 0.0
H4066 H 0.97197 0.73784 0.14072 0.0
H4067 H 0.99673 0.76896 0.21876 0.0
H4068 H 0.97957 0.71748 0.2184 0.0
H4069 H 0.96117 0.69117 0.21901 0.0
H4070 H 0.9458 0.69618 0.29956 0.0
H4071 H 0.96398 0.72258 0.29924 0.0
C4072 C 0.04259 0.7708 0.31314 0.0
C4073 C 0.03948 0.76945 0.3421 0.0
C4074 C 0.03165 0.76765 0.29332 0.0
C4075 C 0.01726 0.763 0.30188 0.0
C4076 C 0.01411 0.7619 0.33086 0.0
C4077 C 0.02518 0.76525 0.35087 0.0
C4078 C 0.00549 0.7583 0.28029 0.0
C4079 C 0.99408 0.74369 0.28046 0.0
C4080 C 0.00644 0.76752 0.25771 0.0
C4081 C 0.01804 0.78316 0.25667 0.0
C4082 C 0.02031 0.79249 0.27959 0.0
C4083 C 0.03136 0.80717 0.2786 0.0
C4084 C 0.04018 0.81269 0.25471 0.0
C4085 C 0.03793 0.80355 0.23175 0.0
C4086 C 0.0269 0.78885 0.23264 0.0
C4087 C 0.94864 0.72742 0.19656 0.0
C4088 C 0.95317 0.72843 0.16844 0.0
C4089 C 0.95886 0.73412 0.2181 0.0
C4090 C 0.97393 0.74168 0.21221 0.0
C4091 C 0.97847 0.74338 0.18393 0.0
C4092 C 0.96817 0.73687 0.16218 0.0
C4093 C 0.98481 0.74713 0.23569 0.0
C4094 C 0.9961 0.76181 0.23576 0.0
C4095 C 0.98391 0.73792 0.25832 0.0
C4096 C 0.97304 0.72203 0.25866 0.0
C4097 C 0.9722 0.71299 0.23615 0.0
C4098 C 0.96182 0.69806 0.23646 0.0
C4099 C 0.9523 0.69202 0.25928 0.0
C4100 C 0.95317 0.70088 0.28188 0.0
C4101 C 0.96351 0.71583 0.28165 0.0
H4102 H 0.94427 0.68046 0.25948 0.0
H4103 H 0.04873 0.82407 0.25399 0.0
loop_
_geom_bond_atom_site_label_1
_geom_bond_atom_site_label_2
_geom_bond_distance
_geom_bond_site_symmetry_2
_ccdc_geom_bond_type
Co0 O1 2.216 . S
Co0 O2 2.091 . S
Co0 O4 2.004 . S
Co0 O10 2.021 . S
Co0 O12 2.137 . S
Co0 O13 2.244 . S
O1 Co0 2.216 . S
O1 C8 1.247 . S
O2 Co0 2.091 . S
O2 C8 1.261 . S
C3 O12 1.247 . S
C3 O13 1.272 . S
O4 Co0 2.004 . S
O4 C9 1.259 . S
Co5 O6 2.061 . S
Co5 O11 2.052 . S
Co5 O13 2.135 . S
O6 Co5 2.061 . S
O6 C9 1.235 . S
C7 O10 1.238 . S
C7 O11 1.241 . S
C8 O1 1.247 . S
C8 O2 1.261 . S
C9 O4 1.259 . S
C9 O6 1.235 . S
O10 Co0 2.021 . S
O10 C7 1.238 . S
O11 Co5 2.052 . S
O11 C7 1.241 . S
O12 Co0 2.137 . S
O12 C3 1.247 . S
O13 Co0 2.244 . S
O13 C3 1.272 . S
O13 Co5 2.135 . S
Co14 O15 2.216 . S
Co14 O16 2.091 . S
Co14 O18 2.004 . S
Co14 O24 2.021 . S
Co14 O26 2.137 . S
Co14 O27 2.244 . S
O15 Co14 2.216 . S
O15 C22 1.247 . S
O16 Co14 2.091 . S
O16 C22 1.261 . S
C17 O26 1.247 . S
C17 O27 1.272 . S
O18 Co14 2.004 . S
O18 C23 1.259 . S
Co19 O20 2.061 . S
Co19 O25 2.052 . S
Co19 O27 2.135 . S
O20 Co19 2.061 . S
O20 C23 1.235 . S
C21 O24 1.238 . S
C21 O25 1.241 . S
C22 O15 1.247 . S
C22 O16 1.261 . S
C23 O18 1.259 . S
C23 O20 1.235 . S
O24 Co14 2.021 . S
O24 C21 1.238 . S
O25 Co19 2.052 . S
O25 C21 1.241 . S
O26 Co14 2.137 . S
O26 C17 1.247 . S
O27 Co14 2.244 . S
O27 C17 1.272 . S
O27 Co19 2.135 . S
Co28 O29 2.216 . S
Co28 O30 2.091 . S
Co28 O32 2.004 . S
Co28 O38 2.021 . S
Co28 O40 2.137 . S
Co28 O41 2.244 . S
O29 Co28 2.216 . S
O29 C36 1.247 . S
O30 Co28 2.091 . S
O30 C36 1.261 . S
C31 O40 1.247 . S
C31 O41 1.272 . S
O32 Co28 2.004 . S
O32 C37 1.259 . S
Co33 O34 2.061 . S
Co33 O39 2.052 . S
Co33 O41 2.135 . S
O34 Co33 2.061 . S
O34 C37 1.235 . S
C35 O38 1.238 . S
C35 O39 1.241 . S
C36 O29 1.247 . S
C36 O30 1.261 . S
C37 O32 1.259 . S
C37 O34 1.235 . S
O38 Co28 2.021 . S
O38 C35 1.238 . S
O39 Co33 2.052 . S
O39 C35 1.241 . S
O40 Co28 2.137 . S
O40 C31 1.247 . S
O41 Co28 2.244 . S
O41 C31 1.272 . S
O41 Co33 2.135 . S
Co42 O43 2.216 . S
Co42 O44 2.091 . S
Co42 O46 2.004 . S
Co42 O52 2.021 . S
Co42 O54 2.137 . S
Co42 O55 2.244 . S
O43 Co42 2.216 . S
O43 C50 1.247 . S
O44 Co42 2.091 . S
O44 C50 1.261 . S
C45 O54 1.247 . S
C45 O55 1.272 . S
O46 Co42 2.004 . S
O46 C51 1.259 . S
Co47 O48 2.061 . S
Co47 O53 2.052 . S
Co47 O55 2.135 . S
O48 Co47 2.061 . S
O48 C51 1.235 . S
C49 O52 1.238 . S
C49 O53 1.241 . S
C50 O43 1.247 . S
C50 O44 1.261 . S
C51 O46 1.259 . S
C51 O48 1.235 . S
O52 Co42 2.021 . S
O52 C49 1.238 . S
O53 Co47 2.052 . S
O53 C49 1.241 . S
O54 Co42 2.137 . S
O54 C45 1.247 . S
O55 Co42 2.244 . S
O55 C45 1.272 . S
O55 Co47 2.135 . S
Co56 O57 2.216 . S
Co56 O58 2.091 . S
Co56 O60 2.004 . S
Co56 O66 2.021 . S
Co56 O68 2.137 . S
Co56 O69 2.244 . S
O57 Co56 2.216 . S
O57 C64 1.247 . S
O58 Co56 2.091 . S
O58 C64 1.261 . S
C59 O68 1.247 . S
C59 O69 1.272 . S
O60 Co56 2.004 . S
O60 C65 1.259 . S
Co61 O62 2.061 . S
Co61 O67 2.052 . S
Co61 O69 2.135 . S
O62 Co61 2.061 . S
O62 C65 1.235 . S
C63 O66 1.238 . S
C63 O67 1.241 . S
C64 O57 1.247 . S
C64 O58 1.261 . S
C65 O60 1.259 . S
C65 O62 1.235 . S
O66 Co56 2.021 . S
O66 C63 1.238 . S
O67 Co61 2.052 . S
O67 C63 1.241 . S
O68 Co56 2.137 . S
O68 C59 1.247 . S
O69 Co56 2.244 . S
O69 C59 1.272 . S
O69 Co61 2.135 . S
Co70 O71 2.216 . S
Co70 O72 2.091 . S
Co70 O74 2.004 . S
Co70 O80 2.021 . S
Co70 O82 2.137 . S
Co70 O83 2.244 . S
O71 Co70 2.216 . S
O71 C78 1.247 . S
O72 Co70 2.091 . S
O72 C78 1.261 . S
C73 O82 1.247 . S
C73 O83 1.272 . S
O74 Co70 2.004 . S
O74 C79 1.259 . S
Co75 O76 2.061 . S
Co75 O81 2.052 . S
Co75 O83 2.135 . S
O76 Co75 2.061 . S
O76 C79 1.235 . S
C77 O80 1.238 . S
C77 O81 1.241 . S
C78 O71 1.247 . S
C78 O72 1.261 . S
C79 O74 1.259 . S
C79 O76 1.235 . S
O80 Co70 2.021 . S
O80 C77 1.238 . S
O81 Co75 2.052 . S
O81 C77 1.241 . S
O82 Co70 2.137 . S
O82 C73 1.247 . S
O83 Co70 2.244 . S
O83 C73 1.272 . S
O83 Co75 2.135 . S
Co84 O85 2.216 . S
Co84 O86 2.091 . S
Co84 O88 2.004 . S
Co84 O94 2.021 . S
Co84 O96 2.137 . S
Co84 O97 2.244 . S
O85 Co84 2.216 . S
O85 C92 1.247 . S
O86 Co84 2.091 . S
O86 C92 1.261 . S
C87 O96 1.247 . S
C87 O97 1.272 . S
O88 Co84 2.004 . S
O88 C93 1.259 . S
Co89 O90 2.061 . S
Co89 O95 2.052 . S
Co89 O97 2.135 . S
O90 Co89 2.061 . S
O90 C93 1.235 . S
C91 O94 1.238 . S
C91 O95 1.241 . S
C92 O85 1.247 . S
C92 O86 1.261 . S
C93 O88 1.259 . S
C93 O90 1.235 . S
O94 Co84 2.021 . S
O94 C91 1.238 . S
O95 Co89 2.052 . S
O95 C91 1.241 . S
O96 Co84 2.137 . S
O96 C87 1.247 . S
O97 Co84 2.244 . S
O97 C87 1.272 . S
O97 Co89 2.135 . S
Co98 O99 2.216 . S
Co98 O100 2.091 . S
Co98 O102 2.004 . S
Co98 O108 2.021 . S
Co98 O110 2.137 . S
Co98 O111 2.244 . S
O99 Co98 2.216 . S
O99 C106 1.247 . S
O100 Co98 2.091 . S
O100 C106 1.261 . S
C101 O110 1.247 . S
C101 O111 1.272 . S
O102 Co98 2.004 . S
O102 C107 1.259 . S
Co103 O104 2.061 . S
Co103 O109 2.052 . S
Co103 O111 2.135 . S
O104 Co103 2.061 . S
O104 C107 1.235 . S
C105 O108 1.238 . S
C105 O109 1.241 . S
C106 O99 1.247 . S
C106 O100 1.261 . S
C107 O102 1.259 . S
C107 O104 1.235 . S
O108 Co98 2.021 . S
O108 C105 1.238 . S
O109 Co103 2.052 . S
O109 C105 1.241 . S
O110 Co98 2.137 . S
O110 C101 1.247 . S
O111 Co98 2.244 . S
O111 C101 1.272 . S
O111 Co103 2.135 . S
Co112 O113 2.216 . S
Co112 O114 2.091 . S
Co112 O116 2.004 . S
Co112 O122 2.021 . S
Co112 O124 2.137 . S
Co112 O125 2.244 . S
O113 Co112 2.216 . S
O113 C120 1.247 . S
O114 Co112 2.091 . S
O114 C120 1.261 . S
C115 O124 1.247 . S
C115 O125 1.272 . S
O116 Co112 2.004 . S
O116 C121 1.259 . S
Co117 O118 2.061 . S
Co117 O123 2.052 . S
Co117 O125 2.135 . S
O118 Co117 2.061 . S
O118 C121 1.235 . S
C119 O122 1.238 . S
C119 O123 1.241 . S
C120 O113 1.247 . S
C120 O114 1.261 . S
C121 O116 1.259 . S
C121 O118 1.235 . S
O122 Co112 2.021 . S
O122 C119 1.238 . S
O123 Co117 2.052 . S
O123 C119 1.241 . S
O124 Co112 2.137 . S
O124 C115 1.247 . S
O125 Co112 2.244 . S
O125 C115 1.272 . S
O125 Co117 2.135 . S
Co126 O127 2.216 . S
Co126 O128 2.091 . S
Co126 O130 2.004 . S
Co126 O136 2.021 . S
Co126 O138 2.137 . S
Co126 O139 2.244 . S
O127 Co126 2.216 . S
O127 C134 1.247 . S
O128 Co126 2.091 . S
O128 C134 1.261 . S
C129 O138 1.247 . S
C129 O139 1.272 . S
O130 Co126 2.004 . S
O130 C135 1.259 . S
Co131 O132 2.061 . S
Co131 O137 2.052 . S
Co131 O139 2.135 . S
O132 Co131 2.061 . S
O132 C135 1.235 . S
C133 O136 1.238 . S
C133 O137 1.241 . S
C134 O127 1.247 . S
C134 O128 1.261 . S
C135 O130 1.259 . S
C135 O132 1.235 . S
O136 Co126 2.021 . S
O136 C133 1.238 . S
O137 Co131 2.052 . S
O137 C133 1.241 . S
O138 Co126 2.137 . S
O138 C129 1.247 . S
O139 Co126 2.244 . S
O139 C129 1.272 . S
O139 Co131 2.135 . S
Co140 O141 2.216 . S
Co140 O142 2.091 . S
Co140 O144 2.004 . S
Co140 O150 2.021 . S
Co140 O152 2.137 . S
Co140 O153 2.244 . S
O141 Co140 2.216 . S
O141 C148 1.247 . S
O142 Co140 2.091 . S
O142 C148 1.261 . S
C143 O152 1.247 . S
C143 O153 1.272 . S
O144 Co140 2.004 . S
O144 C149 1.259 . S
Co145 O146 2.061 . S
Co145 O151 2.052 . S
Co145 O153 2.135 . S
O146 Co145 2.061 . S
O146 C149 1.235 . S
C147 O150 1.238 . S
C147 O151 1.241 . S
C148 O141 1.247 . S
C148 O142 1.261 . S
C149 O144 1.259 . S
C149 O146 1.235 . S
O150 Co140 2.021 . S
O150 C147 1.238 . S
O151 Co145 2.052 . S
O151 C147 1.241 . S
O152 Co140 2.137 . S
O152 C143 1.247 . S
O153 Co140 2.244 . S
O153 C143 1.272 . S
O153 Co145 2.135 . S
Co154 O155 2.216 . S
Co154 O156 2.091 . S
Co154 O158 2.004 . S
Co154 O164 2.021 . S
Co154 O166 2.137 . S
Co154 O167 2.244 . S
O155 Co154 2.216 . S
O155 C162 1.247 . S
O156 Co154 2.091 . S
O156 C162 1.261 . S
C157 O166 1.247 . S
C157 O167 1.272 . S
O158 Co154 2.004 . S
O158 C163 1.259 . S
Co159 O160 2.061 . S
Co159 O165 2.052 . S
Co159 O167 2.135 . S
O160 Co159 2.061 . S
O160 C163 1.235 . S
C161 O164 1.238 . S
C161 O165 1.241 . S
C162 O155 1.247 . S
C162 O156 1.261 . S
C163 O158 1.259 . S
C163 O160 1.235 . S
O164 Co154 2.021 . S
O164 C161 1.238 . S
O165 Co159 2.052 . S
O165 C161 1.241 . S
O166 Co154 2.137 . S
O166 C157 1.247 . S
O167 Co154 2.244 . S
O167 C157 1.272 . S
O167 Co159 2.135 . S
Co168 O169 2.216 . S
Co168 O170 2.091 . S
Co168 O172 2.004 . S
Co168 O178 2.021 . S
Co168 O180 2.137 . S
Co168 O181 2.244 . S
O169 Co168 2.216 . S
O169 C176 1.247 . S
O170 Co168 2.091 . S
O170 C176 1.261 . S
C171 O180 1.247 . S
C171 O181 1.272 . S
O172 Co168 2.004 . S
O172 C177 1.259 . S
Co173 O174 2.061 . S
Co173 O179 2.052 . S
Co173 O181 2.135 . S
O174 Co173 2.061 . S
O174 C177 1.235 . S
C175 O178 1.238 . S
C175 O179 1.241 . S
C176 O169 1.247 . S
C176 O170 1.261 . S
C177 O172 1.259 . S
C177 O174 1.235 . S
O178 Co168 2.021 . S
O178 C175 1.238 . S
O179 Co173 2.052 . S
O179 C175 1.241 . S
O180 Co168 2.137 . S
O180 C171 1.247 . S
O181 Co168 2.244 . S
O181 C171 1.272 . S
O181 Co173 2.135 . S
Co182 O183 2.216 . S
Co182 O184 2.091 . S
Co182 O186 2.004 . S
Co182 O192 2.021 . S
Co182 O194 2.137 . S
Co182 O195 2.244 . S
O183 Co182 2.216 . S
O183 C190 1.247 . S
O184 Co182 2.091 . S
O184 C190 1.261 . S
C185 O194 1.247 . S
C185 O195 1.272 . S
O186 Co182 2.004 . S
O186 C191 1.259 . S
Co187 O188 2.061 . S
Co187 O193 2.052 . S
Co187 O195 2.135 . S
O188 Co187 2.061 . S
O188 C191 1.235 . S
C189 O192 1.238 . S
C189 O193 1.241 . S
C190 O183 1.247 . S
C190 O184 1.261 . S
C191 O186 1.259 . S
C191 O188 1.235 . S
O192 Co182 2.021 . S
O192 C189 1.238 . S
O193 Co187 2.052 . S
O193 C189 1.241 . S
O194 Co182 2.137 . S
O194 C185 1.247 . S
O195 Co182 2.244 . S
O195 C185 1.272 . S
O195 Co187 2.135 . S
Co196 O197 2.216 . S
Co196 O198 2.091 . S
Co196 O200 2.004 . S
Co196 O206 2.021 . S
Co196 O208 2.137 . S
Co196 O209 2.244 . S
O197 Co196 2.216 . S
O197 C204 1.247 . S
O198 Co196 2.091 . S
O198 C204 1.261 . S
C199 O208 1.247 . S
C199 O209 1.272 . S
O200 Co196 2.004 . S
O200 C205 1.259 . S
Co201 O202 2.061 . S
Co201 O207 2.052 . S
Co201 O209 2.135 . S
O202 Co201 2.061 . S
O202 C205 1.235 . S
C203 O206 1.238 . S
C203 O207 1.241 . S
C204 O197 1.247 . S
C204 O198 1.261 . S
C205 O200 1.259 . S
C205 O202 1.235 . S
O206 Co196 2.021 . S
O206 C203 1.238 . S
O207 Co201 2.052 . S
O207 C203 1.241 . S
O208 Co196 2.137 . S
O208 C199 1.247 . S
O209 Co196 2.244 . S
O209 C199 1.272 . S
O209 Co201 2.135 . S
Co210 O211 2.216 . S
Co210 O212 2.091 . S
Co210 O214 2.004 . S
Co210 O220 2.021 . S
Co210 O222 2.137 . S
Co210 O223 2.244 . S
O211 Co210 2.216 . S
O211 C218 1.247 . S
O212 Co210 2.091 . S
O212 C218 1.261 . S
C213 O222 1.247 . S
C213 O223 1.272 . S
O214 Co210 2.004 . S
O214 C219 1.259 . S
Co215 O216 2.061 . S
Co215 O221 2.052 . S
Co215 O223 2.135 . S
O216 Co215 2.061 . S
O216 C219 1.235 . S
C217 O220 1.238 . S
C217 O221 1.241 . S
C218 O211 1.247 . S
C218 O212 1.261 . S
C219 O214 1.259 . S
C219 O216 1.235 . S
O220 Co210 2.021 . S
O220 C217 1.238 . S
O221 Co215 2.052 . S
O221 C217 1.241 . S
O222 Co210 2.137 . S
O222 C213 1.247 . S
O223 Co210 2.244 . S
O223 C213 1.272 . S
O223 Co215 2.135 . S
Co224 O225 2.216 . S
Co224 O226 2.091 . S
Co224 O228 2.004 . S
Co224 O234 2.021 . S
Co224 O236 2.137 . S
Co224 O237 2.244 . S
O225 Co224 2.216 . S
O225 C232 1.247 . S
O226 Co224 2.091 . S
O226 C232 1.261 . S
C227 O236 1.247 . S
C227 O237 1.272 . S
O228 Co224 2.004 . S
O228 C233 1.259 . S
Co229 O230 2.061 . S
Co229 O235 2.052 . S
Co229 O237 2.135 . S
O230 Co229 2.061 . S
O230 C233 1.235 . S
C231 O234 1.238 . S
C231 O235 1.241 . S
C232 O225 1.247 . S
C232 O226 1.261 . S
C233 O228 1.259 . S
C233 O230 1.235 . S
O234 Co224 2.021 . S
O234 C231 1.238 . S
O235 Co229 2.052 . S
O235 C231 1.241 . S
O236 Co224 2.137 . S
O236 C227 1.247 . S
O237 Co224 2.244 . S
O237 C227 1.272 . S
O237 Co229 2.135 . S
Co238 O239 2.216 . S
Co238 O240 2.091 . S
Co238 O242 2.004 . S
Co238 O248 2.021 . S
Co238 O250 2.137 . S
Co238 O251 2.244 . S
O239 Co238 2.216 . S
O239 C246 1.247 . S
O240 Co238 2.091 . S
O240 C246 1.261 . S
C241 O250 1.247 . S
C241 O251 1.272 . S
O242 Co238 2.004 . S
O242 C247 1.259 . S
Co243 O244 2.061 . S
Co243 O249 2.052 . S
Co243 O251 2.135 . S
O244 Co243 2.061 . S
O244 C247 1.235 . S
C245 O248 1.238 . S
C245 O249 1.241 . S
C246 O239 1.247 . S
C246 O240 1.261 . S
C247 O242 1.259 . S
C247 O244 1.235 . S
O248 Co238 2.021 . S
O248 C245 1.238 . S
O249 Co243 2.052 . S
O249 C245 1.241 . S
O250 Co238 2.137 . S
O250 C241 1.247 . S
O251 Co238 2.244 . S
O251 C241 1.272 . S
O251 Co243 2.135 . S
Co252 O253 2.216 . S
Co252 O254 2.091 . S
Co252 O256 2.004 . S
Co252 O262 2.021 . S
Co252 O264 2.137 . S
Co252 O265 2.244 . S
O253 Co252 2.216 . S
O253 C260 1.247 . S
O254 Co252 2.091 . S
O254 C260 1.261 . S
C255 O264 1.247 . S
C255 O265 1.272 . S
O256 Co252 2.004 . S
O256 C261 1.259 . S
Co257 O258 2.061 . S
Co257 O263 2.052 . S
Co257 O265 2.135 . S
O258 Co257 2.061 . S
O258 C261 1.235 . S
C259 O262 1.238 . S
C259 O263 1.241 . S
C260 O253 1.247 . S
C260 O254 1.261 . S
C261 O256 1.259 . S
C261 O258 1.235 . S
O262 Co252 2.021 . S
O262 C259 1.238 . S
O263 Co257 2.052 . S
O263 C259 1.241 . S
O264 Co252 2.137 . S
O264 C255 1.247 . S
O265 Co252 2.244 . S
O265 C255 1.272 . S
O265 Co257 2.135 . S
Co266 O267 2.216 . S
Co266 O268 2.091 . S
Co266 O270 2.004 . S
Co266 O276 2.021 . S
Co266 O278 2.137 . S
Co266 O279 2.244 . S
O267 Co266 2.216 . S
O267 C274 1.247 . S
O268 Co266 2.091 . S
O268 C274 1.261 . S
C269 O278 1.247 . S
C269 O279 1.272 . S
O270 Co266 2.004 . S
O270 C275 1.259 . S
Co271 O272 2.061 . S
Co271 O277 2.052 . S
Co271 O279 2.135 . S
O272 Co271 2.061 . S
O272 C275 1.235 . S
C273 O276 1.238 . S
C273 O277 1.241 . S
C274 O267 1.247 . S
C274 O268 1.261 . S
C275 O270 1.259 . S
C275 O272 1.235 . S
O276 Co266 2.021 . S
O276 C273 1.238 . S
O277 Co271 2.052 . S
O277 C273 1.241 . S
O278 Co266 2.137 . S
O278 C269 1.247 . S
O279 Co266 2.244 . S
O279 C269 1.272 . S
O279 Co271 2.135 . S
Co280 O281 2.216 . S
Co280 O282 2.091 . S
Co280 O284 2.004 . S
Co280 O290 2.021 . S
Co280 O292 2.137 . S
Co280 O293 2.244 . S
O281 Co280 2.216 . S
O281 C288 1.247 . S
O282 Co280 2.091 . S
O282 C288 1.261 . S
C283 O292 1.247 . S
C283 O293 1.272 . S
O284 Co280 2.004 . S
O284 C289 1.259 . S
Co285 O286 2.061 . S
Co285 O291 2.052 . S
Co285 O293 2.135 . S
O286 Co285 2.061 . S
O286 C289 1.235 . S
C287 O290 1.238 . S
C287 O291 1.241 . S
C288 O281 1.247 . S
C288 O282 1.261 . S
C289 O284 1.259 . S
C289 O286 1.235 . S
O290 Co280 2.021 . S
O290 C287 1.238 . S
O291 Co285 2.052 . S
O291 C287 1.241 . S
O292 Co280 2.137 . S
O292 C283 1.247 . S
O293 Co280 2.244 . S
O293 C283 1.272 . S
O293 Co285 2.135 . S
Co294 O295 2.216 . S
Co294 O296 2.091 . S
Co294 O298 2.004 . S
Co294 O304 2.021 . S
Co294 O306 2.137 . S
Co294 O307 2.244 . S
O295 Co294 2.216 . S
O295 C302 1.247 . S
O296 Co294 2.091 . S
O296 C302 1.261 . S
C297 O306 1.247 . S
C297 O307 1.272 . S
O298 Co294 2.004 . S
O298 C303 1.259 . S
Co299 O300 2.061 . S
Co299 O305 2.052 . S
Co299 O307 2.135 . S
O300 Co299 2.061 . S
O300 C303 1.235 . S
C301 O304 1.238 . S
C301 O305 1.241 . S
C302 O295 1.247 . S
C302 O296 1.261 . S
C303 O298 1.259 . S
C303 O300 1.235 . S
O304 Co294 2.021 . S
O304 C301 1.238 . S
O305 Co299 2.052 . S
O305 C301 1.241 . S
O306 Co294 2.137 . S
O306 C297 1.247 . S
O307 Co294 2.244 . S
O307 C297 1.272 . S
O307 Co299 2.135 . S
Co308 O309 2.216 . S
Co308 O310 2.091 . S
Co308 O312 2.004 . S
Co308 O318 2.021 . S
Co308 O320 2.137 . S
Co308 O321 2.244 . S
O309 Co308 2.216 . S
O309 C316 1.247 . S
O310 Co308 2.091 . S
O310 C316 1.261 . S
C311 O320 1.247 . S
C311 O321 1.272 . S
O312 Co308 2.004 . S
O312 C317 1.259 . S
Co313 O314 2.061 . S
Co313 O319 2.052 . S
Co313 O321 2.135 . S
O314 Co313 2.061 . S
O314 C317 1.235 . S
C315 O318 1.238 . S
C315 O319 1.241 . S
C316 O309 1.247 . S
C316 O310 1.261 . S
C317 O312 1.259 . S
C317 O314 1.235 . S
O318 Co308 2.021 . S
O318 C315 1.238 . S
O319 Co313 2.052 . S
O319 C315 1.241 . S
O320 Co308 2.137 . S
O320 C311 1.247 . S
O321 Co308 2.244 . S
O321 C311 1.272 . S
O321 Co313 2.135 . S
Co322 O323 2.216 . S
Co322 O324 2.091 . S
Co322 O326 2.004 . S
Co322 O332 2.021 . S
Co322 O334 2.137 . S
Co322 O335 2.244 . S
O323 Co322 2.216 . S
O323 C330 1.247 . S
O324 Co322 2.091 . S
O324 C330 1.261 . S
C325 O334 1.247 . S
C325 O335 1.272 . S
O326 Co322 2.004 . S
O326 C331 1.259 . S
Co327 O328 2.061 . S
Co327 O333 2.052 . S
Co327 O335 2.135 . S
O328 Co327 2.061 . S
O328 C331 1.235 . S
C329 O332 1.238 . S
C329 O333 1.241 . S
C330 O323 1.247 . S
C330 O324 1.261 . S
C331 O326 1.259 . S
C331 O328 1.235 . S
O332 Co322 2.021 . S
O332 C329 1.238 . S
O333 Co327 2.052 . S
O333 C329 1.241 . S
O334 Co322 2.137 . S
O334 C325 1.247 . S
O335 Co322 2.244 . S
O335 C325 1.272 . S
O335 Co327 2.135 . S
Co336 O337 2.216 . S
Co336 O338 2.091 . S
Co336 O340 2.004 . S
Co336 O346 2.021 . S
Co336 O348 2.137 . S
Co336 O349 2.244 . S
O337 Co336 2.216 . S
O337 C344 1.247 . S
O338 Co336 2.091 . S
O338 C344 1.261 . S
C339 O348 1.247 . S
C339 O349 1.272 . S
O340 Co336 2.004 . S
O340 C345 1.259 . S
Co341 O342 2.061 . S
Co341 O347 2.052 . S
Co341 O349 2.135 . S
O342 Co341 2.061 . S
O342 C345 1.235 . S
C343 O346 1.238 . S
C343 O347 1.241 . S
C344 O337 1.247 . S
C344 O338 1.261 . S
C345 O340 1.259 . S
C345 O342 1.235 . S
O346 Co336 2.021 . S
O346 C343 1.238 . S
O347 Co341 2.052 . S
O347 C343 1.241 . S
O348 Co336 2.137 . S
O348 C339 1.247 . S
O349 Co336 2.244 . S
O349 C339 1.272 . S
O349 Co341 2.135 . S
Co350 O351 2.216 . S
Co350 O352 2.091 . S
Co350 O354 2.004 . S
Co350 O360 2.021 . S
Co350 O362 2.137 . S
Co350 O363 2.244 . S
O351 Co350 2.216 . S
O351 C358 1.247 . S
O352 Co350 2.091 . S
O352 C358 1.261 . S
C353 O362 1.247 . S
C353 O363 1.272 . S
O354 Co350 2.004 . S
O354 C359 1.259 . S
Co355 O356 2.061 . S
Co355 O361 2.052 . S
Co355 O363 2.135 . S
O356 Co355 2.061 . S
O356 C359 1.235 . S
C357 O360 1.238 . S
C357 O361 1.241 . S
C358 O351 1.247 . S
C358 O352 1.261 . S
C359 O354 1.259 . S
C359 O356 1.235 . S
O360 Co350 2.021 . S
O360 C357 1.238 . S
O361 Co355 2.052 . S
O361 C357 1.241 . S
O362 Co350 2.137 . S
O362 C353 1.247 . S
O363 Co350 2.244 . S
O363 C353 1.272 . S
O363 Co355 2.135 . S
Co364 O365 2.216 . S
Co364 O366 2.091 . S
Co364 O368 2.004 . S
Co364 O374 2.021 . S
Co364 O376 2.137 . S
Co364 O377 2.244 . S
O365 Co364 2.216 . S
O365 C372 1.247 . S
O366 Co364 2.091 . S
O366 C372 1.261 . S
C367 O376 1.247 . S
C367 O377 1.272 . S
O368 Co364 2.004 . S
O368 C373 1.259 . S
Co369 O370 2.061 . S
Co369 O375 2.052 . S
Co369 O377 2.135 . S
O370 Co369 2.061 . S
O370 C373 1.235 . S
C371 O374 1.238 . S
C371 O375 1.241 . S
C372 O365 1.247 . S
C372 O366 1.261 . S
C373 O368 1.259 . S
C373 O370 1.235 . S
O374 Co364 2.021 . S
O374 C371 1.238 . S
O375 Co369 2.052 . S
O375 C371 1.241 . S
O376 Co364 2.137 . S
O376 C367 1.247 . S
O377 Co364 2.244 . S
O377 C367 1.272 . S
O377 Co369 2.135 . S
Co378 O379 2.216 . S
Co378 O380 2.091 . S
Co378 O382 2.004 . S
Co378 O388 2.021 . S
Co378 O390 2.137 . S
Co378 O391 2.244 . S
O379 Co378 2.216 . S
O379 C386 1.247 . S
O380 Co378 2.091 . S
O380 C386 1.261 . S
C381 O390 1.247 . S
C381 O391 1.272 . S
O382 Co378 2.004 . S
O382 C387 1.259 . S
Co383 O384 2.061 . S
Co383 O389 2.052 . S
Co383 O391 2.135 . S
O384 Co383 2.061 . S
O384 C387 1.235 . S
C385 O388 1.238 . S
C385 O389 1.241 . S
C386 O379 1.247 . S
C386 O380 1.261 . S
C387 O382 1.259 . S
C387 O384 1.235 . S
O388 Co378 2.021 . S
O388 C385 1.238 . S
O389 Co383 2.052 . S
O389 C385 1.241 . S
O390 Co378 2.137 . S
O390 C381 1.247 . S
O391 Co378 2.244 . S
O391 C381 1.272 . S
O391 Co383 2.135 . S
Co392 O393 2.216 . S
Co392 O394 2.091 . S
Co392 O396 2.004 . S
Co392 O402 2.021 . S
Co392 O404 2.137 . S
Co392 O405 2.244 . S
O393 Co392 2.216 . S
O393 C400 1.247 . S
O394 Co392 2.091 . S
O394 C400 1.261 . S
C395 O404 1.247 . S
C395 O405 1.272 . S
O396 Co392 2.004 . S
O396 C401 1.259 . S
Co397 O398 2.061 . S
Co397 O403 2.052 . S
Co397 O405 2.135 . S
O398 Co397 2.061 . S
O398 C401 1.235 . S
C399 O402 1.238 . S
C399 O403 1.241 . S
C400 O393 1.247 . S
C400 O394 1.261 . S
C401 O396 1.259 . S
C401 O398 1.235 . S
O402 Co392 2.021 . S
O402 C399 1.238 . S
O403 Co397 2.052 . S
O403 C399 1.241 . S
O404 Co392 2.137 . S
O404 C395 1.247 . S
O405 Co392 2.244 . S
O405 C395 1.272 . S
O405 Co397 2.135 . S
Co406 O407 2.216 . S
Co406 O408 2.091 . S
Co406 O410 2.004 . S
Co406 O416 2.021 . S
Co406 O418 2.137 . S
Co406 O419 2.244 . S
O407 Co406 2.216 . S
O407 C414 1.247 . S
O408 Co406 2.091 . S
O408 C414 1.261 . S
C409 O418 1.247 . S
C409 O419 1.272 . S
O410 Co406 2.004 . S
O410 C415 1.259 . S
Co411 O412 2.061 . S
Co411 O417 2.052 . S
Co411 O419 2.135 . S
O412 Co411 2.061 . S
O412 C415 1.235 . S
C413 O416 1.238 . S
C413 O417 1.241 . S
C414 O407 1.247 . S
C414 O408 1.261 . S
C415 O410 1.259 . S
C415 O412 1.235 . S
O416 Co406 2.021 . S
O416 C413 1.238 . S
O417 Co411 2.052 . S
O417 C413 1.241 . S
O418 Co406 2.137 . S
O418 C409 1.247 . S
O419 Co406 2.244 . S
O419 C409 1.272 . S
O419 Co411 2.135 . S
Co420 O421 2.216 . S
Co420 O422 2.091 . S
Co420 O424 2.004 . S
Co420 O430 2.021 . S
Co420 O432 2.137 . S
Co420 O433 2.244 . S
O421 Co420 2.216 . S
O421 C428 1.247 . S
O422 Co420 2.091 . S
O422 C428 1.261 . S
C423 O432 1.247 . S
C423 O433 1.272 . S
O424 Co420 2.004 . S
O424 C429 1.259 . S
Co425 O426 2.061 . S
Co425 O431 2.052 . S
Co425 O433 2.135 . S
O426 Co425 2.061 . S
O426 C429 1.235 . S
C427 O430 1.238 . S
C427 O431 1.241 . S
C428 O421 1.247 . S
C428 O422 1.261 . S
C429 O424 1.259 . S
C429 O426 1.235 . S
O430 Co420 2.021 . S
O430 C427 1.238 . S
O431 Co425 2.052 . S
O431 C427 1.241 . S
O432 Co420 2.137 . S
O432 C423 1.247 . S
O433 Co420 2.244 . S
O433 C423 1.272 . S
O433 Co425 2.135 . S
Co434 O435 2.216 . S
Co434 O436 2.091 . S
Co434 O438 2.004 . S
Co434 O444 2.021 . S
Co434 O446 2.137 . S
Co434 O447 2.244 . S
O435 Co434 2.216 . S
O435 C442 1.247 . S
O436 Co434 2.091 . S
O436 C442 1.261 . S
C437 O446 1.247 . S
C437 O447 1.272 . S
O438 Co434 2.004 . S
O438 C443 1.259 . S
Co439 O440 2.061 . S
Co439 O445 2.052 . S
Co439 O447 2.135 . S
O440 Co439 2.061 . S
O440 C443 1.235 . S
C441 O444 1.238 . S
C441 O445 1.241 . S
C442 O435 1.247 . S
C442 O436 1.261 . S
C443 O438 1.259 . S
C443 O440 1.235 . S
O444 Co434 2.021 . S
O444 C441 1.238 . S
O445 Co439 2.052 . S
O445 C441 1.241 . S
O446 Co434 2.137 . S
O446 C437 1.247 . S
O447 Co434 2.244 . S
O447 C437 1.272 . S
O447 Co439 2.135 . S
Co448 O449 2.216 . S
Co448 O450 2.091 . S
Co448 O452 2.004 . S
Co448 O458 2.021 . S
Co448 O460 2.137 . S
Co448 O461 2.244 . S
O449 Co448 2.216 . S
O449 C456 1.247 . S
O450 Co448 2.091 . S
O450 C456 1.261 . S
C451 O460 1.247 . S
C451 O461 1.272 . S
O452 Co448 2.004 . S
O452 C457 1.259 . S
Co453 O454 2.061 . S
Co453 O459 2.052 . S
Co453 O461 2.135 . S
O454 Co453 2.061 . S
O454 C457 1.235 . S
C455 O458 1.238 . S
C455 O459 1.241 . S
C456 O449 1.247 . S
C456 O450 1.261 . S
C457 O452 1.259 . S
C457 O454 1.235 . S
O458 Co448 2.021 . S
O458 C455 1.238 . S
O459 Co453 2.052 . S
O459 C455 1.241 . S
O460 Co448 2.137 . S
O460 C451 1.247 . S
O461 Co448 2.244 . S
O461 C451 1.272 . S
O461 Co453 2.135 . S
Co462 O463 2.216 . S
Co462 O464 2.091 . S
Co462 O466 2.004 . S
Co462 O472 2.021 . S
Co462 O474 2.137 . S
Co462 O475 2.244 . S
O463 Co462 2.216 . S
O463 C470 1.247 . S
O464 Co462 2.091 . S
O464 C470 1.261 . S
C465 O474 1.247 . S
C465 O475 1.272 . S
O466 Co462 2.004 . S
O466 C471 1.259 . S
Co467 O468 2.061 . S
Co467 O473 2.052 . S
Co467 O475 2.135 . S
O468 Co467 2.061 . S
O468 C471 1.235 . S
C469 O472 1.238 . S
C469 O473 1.241 . S
C470 O463 1.247 . S
C470 O464 1.261 . S
C471 O466 1.259 . S
C471 O468 1.235 . S
O472 Co462 2.021 . S
O472 C469 1.238 . S
O473 Co467 2.052 . S
O473 C469 1.241 . S
O474 Co462 2.137 . S
O474 C465 1.247 . S
O475 Co462 2.244 . S
O475 C465 1.272 . S
O475 Co467 2.135 . S
Co476 O477 2.216 . S
Co476 O478 2.091 . S
Co476 O480 2.004 . S
Co476 O486 2.021 . S
Co476 O488 2.137 . S
Co476 O489 2.244 . S
O477 Co476 2.216 . S
O477 C484 1.247 . S
O478 Co476 2.091 . S
O478 C484 1.261 . S
C479 O488 1.247 . S
C479 O489 1.272 . S
O480 Co476 2.004 . S
O480 C485 1.259 . S
Co481 O482 2.061 . S
Co481 O487 2.052 . S
Co481 O489 2.135 . S
O482 Co481 2.061 . S
O482 C485 1.235 . S
C483 O486 1.238 . S
C483 O487 1.241 . S
C484 O477 1.247 . S
C484 O478 1.261 . S
C485 O480 1.259 . S
C485 O482 1.235 . S
O486 Co476 2.021 . S
O486 C483 1.238 . S
O487 Co481 2.052 . S
O487 C483 1.241 . S
O488 Co476 2.137 . S
O488 C479 1.247 . S
O489 Co476 2.244 . S
O489 C479 1.272 . S
O489 Co481 2.135 . S
Co490 O491 2.216 . S
Co490 O492 2.091 . S
Co490 O494 2.004 . S
Co490 O500 2.021 . S
Co490 O502 2.137 . S
Co490 O503 2.244 . S
O491 Co490 2.216 . S
O491 C498 1.247 . S
O492 Co490 2.091 . S
O492 C498 1.261 . S
C493 O502 1.247 . S
C493 O503 1.272 . S
O494 Co490 2.004 . S
O494 C499 1.259 . S
Co495 O496 2.061 . S
Co495 O501 2.052 . S
Co495 O503 2.135 . S
O496 Co495 2.061 . S
O496 C499 1.235 . S
C497 O500 1.238 . S
C497 O501 1.241 . S
C498 O491 1.247 . S
C498 O492 1.261 . S
C499 O494 1.259 . S
C499 O496 1.235 . S
O500 Co490 2.021 . S
O500 C497 1.238 . S
O501 Co495 2.052 . S
O501 C497 1.241 . S
O502 Co490 2.137 . S
O502 C493 1.247 . S
O503 Co490 2.244 . S
O503 C493 1.272 . S
O503 Co495 2.135 . S
H504 C522 0.951 . S
H505 C524 0.951 . S
H506 C526 0.950 . S
H507 C527 0.950 . S
H508 C529 0.950 . S
H509 C532 0.950 . S
H510 C533 0.950 . S
H511 C535 0.950 . S
H512 C536 0.950 . S
H513 C537 0.951 . S
H514 C539 0.951 . S
H515 C541 0.950 . S
H516 C542 0.950 . S
H517 C544 0.950 . S
H518 C547 0.950 . S
H519 C548 0.950 . S
H520 C550 0.950 . S
H521 C551 0.950 . S
C522 H504 0.951 . S
C522 C523 1.366 . S
C522 C524 1.388 . S
C523 C522 1.366 . S
C523 C527 1.385 . S
C524 H505 0.951 . S
C524 C522 1.388 . S
C524 C525 1.366 . S
C525 C524 1.366 . S
C525 C526 1.414 . S
C525 C528 1.499 . S
C526 H506 0.950 . S
C526 C525 1.414 . S
C526 C527 1.374 . S
C527 H507 0.950 . S
C527 C523 1.385 . S
C527 C526 1.374 . S
C528 C525 1.499 . S
C528 C529 1.373 . S
C528 C530 1.389 . S
C529 H508 0.950 . S
C529 C528 1.373 . S
C529 C545 1.377 1_565 S
C530 C528 1.389 . S
C530 C531 1.524 . S
C530 C544 1.377 1_565 S
C531 C530 1.524 . S
C531 C532 1.397 . S
C531 C536 1.363 . S
C532 H509 0.950 . S
C532 C531 1.397 . S
C532 C533 1.334 . S
C533 H510 0.950 . S
C533 C532 1.334 . S
C533 C534 1.287 . S
C534 C533 1.287 . S
C534 C535 1.524 . S
C534 H553 0.913 . S
C535 H511 0.950 . S
C535 C534 1.524 . S
C535 C536 1.415 . S
C536 H512 0.950 . S
C536 C531 1.363 . S
C536 C535 1.415 . S
C537 H513 0.951 . S
C537 C538 1.366 . S
C537 C539 1.388 . S
C538 C537 1.366 . S
C538 C542 1.385 . S
C539 H514 0.951 . S
C539 C537 1.388 . S
C539 C540 1.366 . S
C540 C539 1.366 . S
C540 C541 1.414 . S
C540 C543 1.499 . S
C541 H515 0.950 . S
C541 C540 1.414 . S
C541 C542 1.374 . S
C542 H516 0.950 . S
C542 C538 1.385 . S
C542 C541 1.374 . S
C543 C540 1.499 . S
C543 C544 1.373 . S
C543 C545 1.389 . S
C544 H517 0.950 . S
C544 C530 1.377 1_545 S
C544 C543 1.373 . S
C545 C529 1.377 1_545 S
C545 C543 1.389 . S
C545 C546 1.524 . S
C546 C545 1.524 . S
C546 C547 1.397 . S
C546 C551 1.363 . S
C547 H518 0.950 . S
C547 C546 1.397 . S
C547 C548 1.334 . S
C548 H519 0.950 . S
C548 C547 1.334 . S
C548 C549 1.287 . S
C549 C548 1.287 . S
C549 C550 1.524 . S
C549 H552 0.999 . S
C550 H520 0.950 . S
C550 C549 1.524 . S
C550 C551 1.415 . S
C551 H521 0.950 . S
C551 C546 1.363 . S
C551 C550 1.415 . S
H552 C549 0.999 . S
H553 C534 0.913 . S
H554 C572 0.951 . S
H555 C574 0.951 . S
H556 C576 0.950 . S
H557 C577 0.950 . S
H558 C579 0.950 . S
H559 C582 0.950 . S
H560 C583 0.950 . S
H561 C585 0.950 . S
H562 C586 0.950 . S
H563 C587 0.951 . S
H564 C589 0.951 . S
H565 C591 0.950 . S
H566 C592 0.950 . S
H567 C594 0.950 . S
H568 C597 0.950 . S
H569 C598 0.950 . S
H570 C600 0.950 . S
H571 C601 0.950 . S
C572 H554 0.951 . S
C572 C573 1.366 . S
C572 C574 1.388 . S
C573 C572 1.366 . S
C573 C577 1.385 . S
C574 H555 0.951 . S
C574 C572 1.388 . S
C574 C575 1.366 . S
C575 C574 1.366 . S
C575 C576 1.414 . S
C575 C578 1.499 . S
C576 H556 0.950 . S
C576 C575 1.414 . S
C576 C577 1.374 . S
C577 H557 0.950 . S
C577 C573 1.385 . S
C577 C576 1.374 . S
C578 C575 1.499 . S
C578 C579 1.373 . S
C578 C580 1.389 . S
C579 H558 0.950 . S
C579 C578 1.373 . S
C579 C595 1.377 1_455 S
C580 C578 1.389 . S
C580 C581 1.524 . S
C580 C594 1.377 1_455 S
C581 C580 1.524 . S
C581 C582 1.397 . S
C581 C586 1.363 . S
C582 H559 0.950 . S
C582 C581 1.397 . S
C582 C583 1.334 . S
C583 H560 0.950 . S
C583 C582 1.334 . S
C583 C584 1.287 . S
C584 C583 1.287 . S
C584 C585 1.524 . S
C584 H603 0.913 . S
C585 H561 0.950 . S
C585 C584 1.524 . S
C585 C586 1.415 . S
C586 H562 0.950 . S
C586 C581 1.363 . S
C586 C585 1.415 . S
C587 H563 0.951 . S
C587 C588 1.366 . S
C587 C589 1.388 . S
C588 C587 1.366 . S
C588 C592 1.385 . S
C589 H564 0.951 . S
C589 C587 1.388 . S
C589 C590 1.366 . S
C590 C589 1.366 . S
C590 C591 1.414 . S
C590 C593 1.499 . S
C591 H565 0.950 . S
C591 C590 1.414 . S
C591 C592 1.374 . S
C592 H566 0.950 . S
C592 C588 1.385 . S
C592 C591 1.374 . S
C593 C590 1.499 . S
C593 C594 1.373 . S
C593 C595 1.389 . S
C594 H567 0.950 . S
C594 C580 1.377 1_655 S
C594 C593 1.373 . S
C595 C579 1.377 1_655 S
C595 C593 1.389 . S
C595 C596 1.524 . S
C596 C595 1.524 . S
C596 C597 1.397 . S
C596 C601 1.363 . S
C597 H568 0.950 . S
C597 C596 1.397 . S
C597 C598 1.334 . S
C598 H569 0.950 . S
C598 C597 1.334 . S
C598 C599 1.287 . S
C599 C598 1.287 . S
C599 C600 1.524 . S
C599 H602 0.999 . S
C600 H570 0.950 . S
C600 C599 1.524 . S
C600 C601 1.415 . S
C601 H571 0.950 . S
C601 C596 1.363 . S
C601 C600 1.415 . S
H602 C599 0.999 . S
H603 C584 0.913 . S
H604 C622 0.951 . S
H605 C624 0.951 . S
H606 C626 0.950 . S
H607 C627 0.950 . S
H608 C629 0.950 . S
H609 C632 0.950 . S
H610 C633 0.950 . S
H611 C635 0.950 . S
H612 C636 0.950 . S
H613 C637 0.951 . S
H614 C639 0.951 . S
H615 C641 0.950 . S
H616 C642 0.950 . S
H617 C644 0.950 . S
H618 C647 0.950 . S
H619 C648 0.950 . S
H620 C650 0.950 . S
H621 C651 0.950 . S
C622 H604 0.951 . S
C622 C623 1.366 . S
C622 C624 1.388 . S
C623 C622 1.366 . S
C623 C627 1.385 . S
C624 H605 0.951 . S
C624 C622 1.388 . S
C624 C625 1.366 . S
C625 C624 1.366 . S
C625 C626 1.414 . S
C625 C628 1.499 . S
C626 H606 0.950 . S
C626 C625 1.414 . S
C626 C627 1.374 . S
C627 H607 0.950 . S
C627 C623 1.385 . S
C627 C626 1.374 . S
C628 C625 1.499 . S
C628 C629 1.373 . S
C628 C630 1.389 . S
C629 H608 0.950 . S
C629 C628 1.373 . S
C629 C645 1.377 . S
C630 C628 1.389 . S
C630 C631 1.524 . S
C630 C644 1.377 . S
C631 C630 1.524 . S
C631 C632 1.397 . S
C631 C636 1.363 . S
C632 H609 0.950 . S
C632 C631 1.397 . S
C632 C633 1.334 . S
C633 H610 0.950 . S
C633 C632 1.334 . S
C633 C634 1.287 . S
C634 C633 1.287 . S
C634 C635 1.524 . S
C634 H653 0.913 . S
C635 H611 0.950 . S
C635 C634 1.524 . S
C635 C636 1.415 . S
C636 H612 0.950 . S
C636 C631 1.363 . S
C636 C635 1.415 . S
C637 H613 0.951 . S
C637 C638 1.366 . S
C637 C639 1.388 . S
C638 C637 1.366 . S
C638 C642 1.385 . S
C639 H614 0.951 . S
C639 C637 1.388 . S
C639 C640 1.366 . S
C640 C639 1.366 . S
C640 C641 1.414 . S
C640 C643 1.499 . S
C641 H615 0.950 . S
C641 C640 1.414 . S
C641 C642 1.374 . S
C642 H616 0.950 . S
C642 C638 1.385 . S
C642 C641 1.374 . S
C643 C640 1.499 . S
C643 C644 1.373 . S
C643 C645 1.389 . S
C644 H617 0.950 . S
C644 C630 1.377 . S
C644 C643 1.373 . S
C645 C629 1.377 . S
C645 C643 1.389 . S
C645 C646 1.524 . S
C646 C645 1.524 . S
C646 C647 1.397 . S
C646 C651 1.363 . S
C647 H618 0.950 . S
C647 C646 1.397 . S
C647 C648 1.334 . S
C648 H619 0.950 . S
C648 C647 1.334 . S
C648 C649 1.287 . S
C649 C648 1.287 . S
C649 C650 1.524 . S
C649 H652 0.999 . S
C650 H620 0.950 . S
C650 C649 1.524 . S
C650 C651 1.415 . S
C651 H621 0.950 . S
C651 C646 1.363 . S
C651 C650 1.415 . S
H652 C649 0.999 . S
H653 C634 0.913 . S
H654 C672 0.951 . S
H655 C674 0.951 . S
H656 C676 0.950 . S
H657 C677 0.950 . S
H658 C679 0.950 . S
H659 C682 0.950 . S
H660 C683 0.950 . S
H661 C685 0.950 . S
H662 C686 0.950 . S
H663 C687 0.951 . S
H664 C689 0.951 . S
H665 C691 0.950 . S
H666 C692 0.950 . S
H667 C694 0.950 . S
H668 C697 0.950 . S
H669 C698 0.950 . S
H670 C700 0.950 . S
H671 C701 0.950 . S
C672 H654 0.951 . S
C672 C673 1.366 . S
C672 C674 1.388 . S
C673 C672 1.366 . S
C673 C677 1.385 . S
C674 H655 0.951 . S
C674 C672 1.388 . S
C674 C675 1.366 . S
C675 C674 1.366 . S
C675 C676 1.414 . S
C675 C678 1.499 . S
C676 H656 0.950 . S
C676 C675 1.414 . S
C676 C677 1.374 . S
C677 H657 0.950 . S
C677 C673 1.385 . S
C677 C676 1.374 . S
C678 C675 1.499 . S
C678 C679 1.373 . S
C678 C680 1.389 . S
C679 H658 0.950 . S
C679 C678 1.373 . S
C679 C695 1.377 1_565 S
C680 C678 1.389 . S
C680 C681 1.524 . S
C680 C694 1.377 1_565 S
C681 C680 1.524 . S
C681 C682 1.397 . S
C681 C686 1.363 . S
C682 H659 0.950 . S
C682 C681 1.397 . S
C682 C683 1.334 . S
C683 H660 0.950 . S
C683 C682 1.334 . S
C683 C684 1.287 . S
C684 C683 1.287 . S
C684 C685 1.524 . S
C684 H703 0.913 . S
C685 H661 0.950 . S
C685 C684 1.524 . S
C685 C686 1.415 . S
C686 H662 0.950 . S
C686 C681 1.363 . S
C686 C685 1.415 . S
C687 H663 0.951 . S
C687 C688 1.366 . S
C687 C689 1.388 . S
C688 C687 1.366 . S
C688 C692 1.385 . S
C689 H664 0.951 . S
C689 C687 1.388 . S
C689 C690 1.366 . S
C690 C689 1.366 . S
C690 C691 1.414 . S
C690 C693 1.499 . S
C691 H665 0.950 . S
C691 C690 1.414 . S
C691 C692 1.374 . S
C692 H666 0.950 . S
C692 C688 1.385 . S
C692 C691 1.374 . S
C693 C690 1.499 . S
C693 C694 1.373 . S
C693 C695 1.389 . S
C694 H667 0.950 . S
C694 C680 1.377 1_545 S
C694 C693 1.373 . S
C695 C679 1.377 1_545 S
C695 C693 1.389 . S
C695 C696 1.524 . S
C696 C695 1.524 . S
C696 C697 1.397 . S
C696 C701 1.363 . S
C697 H668 0.950 . S
C697 C696 1.397 . S
C697 C698 1.334 . S
C698 H669 0.950 . S
C698 C697 1.334 . S
C698 C699 1.287 . S
C699 C698 1.287 . S
C699 C700 1.524 . S
C699 H702 0.999 . S
C700 H670 0.950 . S
C700 C699 1.524 . S
C700 C701 1.415 . S
C701 H671 0.950 . S
C701 C696 1.363 . S
C701 C700 1.415 . S
H702 C699 0.999 . S
H703 C684 0.913 . S
H704 C722 0.951 . S
H705 C724 0.951 . S
H706 C726 0.950 . S
H707 C727 0.950 . S
H708 C729 0.950 . S
H709 C732 0.950 . S
H710 C733 0.950 . S
H711 C735 0.950 . S
H712 C736 0.950 . S
H713 C737 0.951 . S
H714 C739 0.951 . S
H715 C741 0.950 . S
H716 C742 0.950 . S
H717 C744 0.950 . S
H718 C747 0.950 . S
H719 C748 0.950 . S
H720 C750 0.950 . S
H721 C751 0.950 . S
C722 H704 0.951 . S
C722 C723 1.366 . S
C722 C724 1.388 . S
C723 C722 1.366 . S
C723 C727 1.385 . S
C724 H705 0.951 . S
C724 C722 1.388 . S
C724 C725 1.366 . S
C725 C724 1.366 . S
C725 C726 1.414 . S
C725 C728 1.499 . S
C726 H706 0.950 . S
C726 C725 1.414 . S
C726 C727 1.374 . S
C727 H707 0.950 . S
C727 C723 1.385 . S
C727 C726 1.374 . S
C728 C725 1.499 . S
C728 C729 1.373 . S
C728 C730 1.389 . S
C729 H708 0.950 . S
C729 C728 1.373 . S
C729 C745 1.377 1_455 S
C730 C728 1.389 . S
C730 C731 1.524 . S
C730 C744 1.377 1_455 S
C731 C730 1.524 . S
C731 C732 1.397 . S
C731 C736 1.363 . S
C732 H709 0.950 . S
C732 C731 1.397 . S
C732 C733 1.334 . S
C733 H710 0.950 . S
C733 C732 1.334 . S
C733 C734 1.287 . S
C734 C733 1.287 . S
C734 C735 1.524 . S
C734 H753 0.913 . S
C735 H711 0.950 . S
C735 C734 1.524 . S
C735 C736 1.415 . S
C736 H712 0.950 . S
C736 C731 1.363 . S
C736 C735 1.415 . S
C737 H713 0.951 . S
C737 C738 1.366 . S
C737 C739 1.388 . S
C738 C737 1.366 . S
C738 C742 1.385 . S
C739 H714 0.951 . S
C739 C737 1.388 . S
C739 C740 1.366 . S
C740 C739 1.366 . S
C740 C741 1.414 . S
C740 C743 1.499 . S
C741 H715 0.950 . S
C741 C740 1.414 . S
C741 C742 1.374 . S
C742 H716 0.950 . S
C742 C738 1.385 . S
C742 C741 1.374 . S
C743 C740 1.499 . S
C743 C744 1.373 . S
C743 C745 1.389 . S
C744 H717 0.950 . S
C744 C730 1.377 1_655 S
C744 C743 1.373 . S
C745 C729 1.377 1_655 S
C745 C743 1.389 . S
C745 C746 1.524 . S
C746 C745 1.524 . S
C746 C747 1.397 . S
C746 C751 1.363 . S
C747 H718 0.950 . S
C747 C746 1.397 . S
C747 C748 1.334 . S
C748 H719 0.950 . S
C748 C747 1.334 . S
C748 C749 1.287 . S
C749 C748 1.287 . S
C749 C750 1.524 . S
C749 H752 0.999 . S
C750 H720 0.950 . S
C750 C749 1.524 . S
C750 C751 1.415 . S
C751 H721 0.950 . S
C751 C746 1.363 . S
C751 C750 1.415 . S
H752 C749 0.999 . S
H753 C734 0.913 . S
H754 C772 0.951 . S
H755 C774 0.951 . S
H756 C776 0.950 . S
H757 C777 0.950 . S
H758 C779 0.950 . S
H759 C782 0.950 . S
H760 C783 0.950 . S
H761 C785 0.950 . S
H762 C786 0.950 . S
H763 C787 0.951 . S
H764 C789 0.951 . S
H765 C791 0.950 . S
H766 C792 0.950 . S
H767 C794 0.950 . S
H768 C797 0.950 . S
H769 C798 0.950 . S
H770 C800 0.950 . S
H771 C801 0.950 . S
C772 H754 0.951 . S
C772 C773 1.366 . S
C772 C774 1.388 . S
C773 C772 1.366 . S
C773 C777 1.385 . S
C774 H755 0.951 . S
C774 C772 1.388 . S
C774 C775 1.366 . S
C775 C774 1.366 . S
C775 C776 1.414 . S
C775 C778 1.499 . S
C776 H756 0.950 . S
C776 C775 1.414 . S
C776 C777 1.374 . S
C777 H757 0.950 . S
C777 C773 1.385 . S
C777 C776 1.374 . S
C778 C775 1.499 . S
C778 C779 1.373 . S
C778 C780 1.389 . S
C779 H758 0.950 . S
C779 C778 1.373 . S
C779 C795 1.377 . S
C780 C778 1.389 . S
C780 C781 1.524 . S
C780 C794 1.377 . S
C781 C780 1.524 . S
C781 C782 1.397 . S
C781 C786 1.363 . S
C782 H759 0.950 . S
C782 C781 1.397 . S
C782 C783 1.334 . S
C783 H760 0.950 . S
C783 C782 1.334 . S
C783 C784 1.287 . S
C784 C783 1.287 . S
C784 C785 1.524 . S
C784 H803 0.913 . S
C785 H761 0.950 . S
C785 C784 1.524 . S
C785 C786 1.415 . S
C786 H762 0.950 . S
C786 C781 1.363 . S
C786 C785 1.415 . S
C787 H763 0.951 . S
C787 C788 1.366 . S
C787 C789 1.388 . S
C788 C787 1.366 . S
C788 C792 1.385 . S
C789 H764 0.951 . S
C789 C787 1.388 . S
C789 C790 1.366 . S
C790 C789 1.366 . S
C790 C791 1.414 . S
C790 C793 1.499 . S
C791 H765 0.950 . S
C791 C790 1.414 . S
C791 C792 1.374 . S
C792 H766 0.950 . S
C792 C788 1.385 . S
C792 C791 1.374 . S
C793 C790 1.499 . S
C793 C794 1.373 . S
C793 C795 1.389 . S
C794 H767 0.950 . S
C794 C780 1.377 . S
C794 C793 1.373 . S
C795 C779 1.377 . S
C795 C793 1.389 . S
C795 C796 1.524 . S
C796 C795 1.524 . S
C796 C797 1.397 . S
C796 C801 1.363 . S
C797 H768 0.950 . S
C797 C796 1.397 . S
C797 C798 1.334 . S
C798 H769 0.950 . S
C798 C797 1.334 . S
C798 C799 1.287 . S
C799 C798 1.287 . S
C799 C800 1.524 . S
C799 H802 0.999 . S
C800 H770 0.950 . S
C800 C799 1.524 . S
C800 C801 1.415 . S
C801 H771 0.950 . S
C801 C796 1.363 . S
C801 C800 1.415 . S
H802 C799 0.999 . S
H803 C784 0.913 . S
H804 C822 0.951 . S
H805 C824 0.951 . S
H806 C826 0.950 . S
H807 C827 0.940 1_655 S
H808 C829 0.950 . S
H809 C832 0.941 . S
H810 C833 0.950 . S
H811 C835 0.950 . S
H812 C836 0.950 . S
H813 C837 0.951 . S
H814 C839 0.951 . S
H815 C841 0.950 . S
H816 C842 0.950 . S
H817 C844 0.950 . S
H818 C847 0.950 . S
H819 C848 0.950 . S
H820 C850 0.950 . S
H821 C851 0.950 . S
C822 H804 0.951 . S
C822 C823 1.366 . S
C822 C824 1.388 . S
C823 C822 1.366 . S
C823 C827 1.394 . S
C824 H805 0.951 . S
C824 C822 1.388 . S
C824 C825 1.373 1_455 S
C825 C824 1.373 1_655 S
C825 C826 1.407 . S
C825 C828 1.498 . S
C826 H806 0.950 . S
C826 C825 1.407 . S
C826 C827 1.374 1_655 S
C827 H807 0.940 1_455 S
C827 C823 1.394 . S
C827 C826 1.374 1_455 S
C828 C825 1.498 . S
C828 C829 1.373 . S
C828 C830 1.389 . S
C829 H808 0.950 . S
C829 C828 1.373 . S
C829 C845 1.377 . S
C830 C828 1.389 . S
C830 C831 1.524 1_655 S
C830 C844 1.377 . S
C831 C830 1.524 1_455 S
C831 C832 1.401 1_455 S
C831 C836 1.363 . S
C832 H809 0.941 . S
C832 C831 1.401 1_655 S
C832 C833 1.337 1_655 S
C833 H810 0.950 . S
C833 C832 1.337 1_455 S
C833 C834 1.287 . S
C834 C833 1.287 . S
C834 C835 1.524 . S
C834 H853 0.913 . S
C835 H811 0.950 . S
C835 C834 1.524 . S
C835 C836 1.415 . S
C836 H812 0.950 . S
C836 C831 1.363 . S
C836 C835 1.415 . S
C837 H813 0.951 . S
C837 C838 1.366 . S
C837 C839 1.388 . S
C838 C837 1.366 . S
C838 C842 1.385 . S
C839 H814 0.951 . S
C839 C837 1.388 . S
C839 C840 1.366 . S
C840 C839 1.366 . S
C840 C841 1.414 . S
C840 C843 1.499 . S
C841 H815 0.950 . S
C841 C840 1.414 . S
C841 C842 1.374 . S
C842 H816 0.950 . S
C842 C838 1.385 . S
C842 C841 1.374 . S
C843 C840 1.499 . S
C843 C844 1.373 . S
C843 C845 1.389 . S
C844 H817 0.950 . S
C844 C830 1.377 . S
C844 C843 1.373 . S
C845 C829 1.377 . S
C845 C843 1.389 . S
C845 C846 1.524 . S
C846 C845 1.524 . S
C846 C847 1.397 . S
C846 C851 1.363 . S
C847 H818 0.950 . S
C847 C846 1.397 . S
C847 C848 1.334 . S
C848 H819 0.950 . S
C848 C847 1.334 . S
C848 C849 1.287 . S
C849 C848 1.287 . S
C849 C850 1.524 . S
C849 H852 0.999 . S
C850 H820 0.950 . S
C850 C849 1.524 . S
C850 C851 1.415 . S
C851 H821 0.950 . S
C851 C846 1.363 . S
C851 C850 1.415 . S
H852 C849 0.999 . S
H853 C834 0.913 . S
H854 C872 0.951 . S
H855 C874 0.951 . S
H856 C876 0.950 . S
H857 C877 0.950 . S
H858 C879 0.950 . S
H859 C882 0.950 . S
H860 C883 0.950 . S
H861 C885 0.950 . S
H862 C886 0.950 . S
H863 C887 0.951 . S
H864 C889 0.951 . S
H865 C891 0.950 . S
H866 C892 0.950 . S
H867 C894 0.950 . S
H868 C897 0.950 . S
H869 C898 0.950 . S
H870 C900 0.950 . S
H871 C901 0.950 . S
C872 H854 0.951 . S
C872 C873 1.366 . S
C872 C874 1.388 . S
C873 C872 1.366 . S
C873 C877 1.385 . S
C874 H855 0.951 . S
C874 C872 1.388 . S
C874 C875 1.366 . S
C875 C874 1.366 . S
C875 C876 1.414 . S
C875 C878 1.499 . S
C876 H856 0.950 . S
C876 C875 1.414 . S
C876 C877 1.374 . S
C877 H857 0.950 . S
C877 C873 1.385 . S
C877 C876 1.374 . S
C878 C875 1.499 . S
C878 C879 1.373 . S
C878 C880 1.389 . S
C879 H858 0.950 . S
C879 C878 1.373 . S
C879 C895 1.377 . S
C880 C878 1.389 . S
C880 C881 1.524 . S
C880 C894 1.377 . S
C881 C880 1.524 . S
C881 C882 1.397 . S
C881 C886 1.363 . S
C882 H859 0.950 . S
C882 C881 1.397 . S
C882 C883 1.334 . S
C883 H860 0.950 . S
C883 C882 1.334 . S
C883 C884 1.287 . S
C884 C883 1.287 . S
C884 C885 1.524 . S
C884 H903 0.913 . S
C885 H861 0.950 . S
C885 C884 1.524 . S
C885 C886 1.415 . S
C886 H862 0.950 . S
C886 C881 1.363 . S
C886 C885 1.415 . S
C887 H863 0.951 . S
C887 C888 1.366 . S
C887 C889 1.388 . S
C888 C887 1.366 . S
C888 C892 1.385 . S
C889 H864 0.951 . S
C889 C887 1.388 . S
C889 C890 1.366 . S
C890 C889 1.366 . S
C890 C891 1.414 . S
C890 C893 1.499 . S
C891 H865 0.950 . S
C891 C890 1.414 . S
C891 C892 1.374 . S
C892 H866 0.950 . S
C892 C888 1.385 . S
C892 C891 1.374 . S
C893 C890 1.499 . S
C893 C894 1.373 . S
C893 C895 1.389 . S
C894 H867 0.950 . S
C894 C880 1.377 . S
C894 C893 1.373 . S
C895 C879 1.377 . S
C895 C893 1.389 . S
C895 C896 1.524 . S
C896 C895 1.524 . S
C896 C897 1.397 . S
C896 C901 1.363 . S
C897 H868 0.950 . S
C897 C896 1.397 . S
C897 C898 1.334 . S
C898 H869 0.950 . S
C898 C897 1.334 . S
C898 C899 1.287 . S
C899 C898 1.287 . S
C899 C900 1.524 . S
C899 H902 0.999 . S
C900 H870 0.950 . S
C900 C899 1.524 . S
C900 C901 1.415 . S
C901 H871 0.950 . S
C901 C896 1.363 . S
C901 C900 1.415 . S
H902 C899 0.999 . S
H903 C884 0.913 . S
H904 C922 0.951 . S
H905 C924 0.951 . S
H906 C926 0.950 . S
H907 C927 0.950 . S
H908 C929 0.950 . S
H909 C932 0.950 . S
H910 C933 0.950 . S
H911 C935 0.950 . S
H912 C936 0.950 . S
H913 C937 0.951 . S
H914 C939 0.967 . S
H915 C941 0.950 . S
H916 C942 0.950 . S
H917 C944 0.950 . S
H918 C947 0.950 . S
H919 C948 0.950 . S
H920 C950 0.950 . S
H921 C951 0.953 1_545 S
C922 H904 0.951 . S
C922 C923 1.366 . S
C922 C924 1.388 . S
C923 C922 1.366 . S
C923 C927 1.385 . S
C924 H905 0.951 . S
C924 C922 1.388 . S
C924 C925 1.366 . S
C925 C924 1.366 . S
C925 C926 1.414 . S
C925 C928 1.499 . S
C926 H906 0.950 . S
C926 C925 1.414 . S
C926 C927 1.374 . S
C927 H907 0.950 . S
C927 C923 1.385 . S
C927 C926 1.374 . S
C928 C925 1.499 . S
C928 C929 1.373 . S
C928 C930 1.389 . S
C929 H908 0.950 . S
C929 C928 1.373 . S
C929 C945 1.377 . S
C930 C928 1.389 . S
C930 C931 1.524 . S
C930 C944 1.377 . S
C931 C930 1.524 . S
C931 C932 1.397 . S
C931 C936 1.363 . S
C932 H909 0.950 . S
C932 C931 1.397 . S
C932 C933 1.334 . S
C933 H910 0.950 . S
C933 C932 1.334 . S
C933 C934 1.287 . S
C934 C933 1.287 . S
C934 C935 1.524 . S
C934 H953 0.913 . S
C935 H911 0.950 . S
C935 C934 1.524 . S
C935 C936 1.415 . S
C936 H912 0.950 . S
C936 C931 1.363 . S
C936 C935 1.415 . S
C937 H913 0.951 . S
C937 C938 1.366 . S
C937 C939 1.388 . S
C938 C937 1.366 . S
C938 C942 1.385 . S
C939 H914 0.967 . S
C939 C937 1.388 . S
C939 C940 1.394 . S
C940 C939 1.394 . S
C940 C941 1.453 . S
C940 C943 1.435 1_565 S
C941 H915 0.950 . S
C941 C940 1.453 . S
C941 C942 1.374 . S
C942 H916 0.950 . S
C942 C938 1.385 . S
C942 C941 1.374 . S
C943 C940 1.435 1_545 S
C943 C944 1.373 . S
C943 C945 1.389 . S
C944 H917 0.950 . S
C944 C930 1.377 . S
C944 C943 1.373 . S
C945 C929 1.377 . S
C945 C943 1.389 . S
C945 C946 1.524 1_545 S
C946 C945 1.524 1_565 S
C946 C947 1.397 . S
C946 C951 1.363 . S
C947 H918 0.950 . S
C947 C946 1.397 . S
C947 C948 1.334 . S
C948 H919 0.950 . S
C948 C947 1.334 . S
C948 C949 1.287 . S
C949 C948 1.287 . S
C949 C950 1.524 . S
C949 H952 0.999 . S
C950 H920 0.950 . S
C950 C949 1.524 . S
C950 C951 1.415 . S
C951 H921 0.953 1_565 S
C951 C946 1.363 . S
C951 C950 1.415 . S
H952 C949 0.999 . S
H953 C934 0.913 . S
H954 C972 0.951 . S
H955 C974 0.951 . S
H956 C976 0.950 . S
H957 C977 0.950 . S
H958 C979 0.950 . S
H959 C982 0.950 . S
H960 C983 0.950 . S
H961 C985 0.950 . S
H962 C986 0.950 . S
H963 C987 0.951 . S
H964 C989 0.951 . S
H965 C991 0.950 . S
H966 C992 0.950 . S
H967 C994 0.950 . S
H968 C997 0.950 . S
H969 C998 0.950 . S
H970 C1000 0.950 . S
H971 C1001 0.950 . S
C972 H954 0.951 . S
C972 C973 1.366 . S
C972 C974 1.388 . S
C973 C972 1.366 . S
C973 C977 1.385 . S
C974 H955 0.951 . S
C974 C972 1.388 . S
C974 C975 1.366 . S
C975 C974 1.366 . S
C975 C976 1.414 . S
C975 C978 1.499 . S
C976 H956 0.950 . S
C976 C975 1.414 . S
C976 C977 1.374 . S
C977 H957 0.950 . S
C977 C973 1.385 . S
C977 C976 1.374 . S
C978 C975 1.499 . S
C978 C979 1.373 . S
C978 C980 1.389 . S
C979 H958 0.950 . S
C979 C978 1.373 . S
C979 C995 1.377 . S
C980 C978 1.389 . S
C980 C981 1.524 . S
C980 C994 1.377 . S
C981 C980 1.524 . S
C981 C982 1.397 . S
C981 C986 1.363 . S
C982 H959 0.950 . S
C982 C981 1.397 . S
C982 C983 1.334 . S
C983 H960 0.950 . S
C983 C982 1.334 . S
C983 C984 1.287 . S
C984 C983 1.287 . S
C984 C985 1.524 . S
C984 H1003 0.913 . S
C985 H961 0.950 . S
C985 C984 1.524 . S
C985 C986 1.415 . S
C986 H962 0.950 . S
C986 C981 1.363 . S
C986 C985 1.415 . S
C987 H963 0.951 . S
C987 C988 1.366 . S
C987 C989 1.388 . S
C988 C987 1.366 . S
C988 C992 1.385 . S
C989 H964 0.951 . S
C989 C987 1.388 . S
C989 C990 1.366 . S
C990 C989 1.366 . S
C990 C991 1.414 . S
C990 C993 1.499 . S
C991 H965 0.950 . S
C991 C990 1.414 . S
C991 C992 1.374 . S
C992 H966 0.950 . S
C992 C988 1.385 . S
C992 C991 1.374 . S
C993 C990 1.499 . S
C993 C994 1.373 . S
C993 C995 1.389 . S
C994 H967 0.950 . S
C994 C980 1.377 . S
C994 C993 1.373 . S
C995 C979 1.377 . S
C995 C993 1.389 . S
C995 C996 1.524 . S
C996 C995 1.524 . S
C996 C997 1.397 . S
C996 C1001 1.363 . S
C997 H968 0.950 . S
C997 C996 1.397 . S
C997 C998 1.334 . S
C998 H969 0.950 . S
C998 C997 1.334 . S
C998 C999 1.287 . S
C999 C998 1.287 . S
C999 C1000 1.524 . S
C999 H1002 0.999 . S
C1000 H970 0.950 . S
C1000 C999 1.524 . S
C1000 C1001 1.415 . S
C1001 H971 0.950 . S
C1001 C996 1.363 . S
C1001 C1000 1.415 . S
H1002 C999 0.999 . S
H1003 C984 0.913 . S
H1004 C1022 0.951 . S
H1005 C1024 0.951 . S
H1006 C1026 0.950 . S
H1007 C1027 0.923 1_545 S
H1008 C1029 0.950 . S
H1009 C1032 0.950 . S
H1010 C1033 0.950 . S
H1011 C1035 0.950 . S
H1012 C1036 0.950 . S
H1013 C1037 0.951 . S
H1014 C1039 0.951 . S
H1015 C1041 0.950 . S
H1016 C1042 0.950 . S
H1017 C1044 0.950 . S
H1018 C1047 0.950 . S
H1019 C1048 0.950 1_556 S
H1020 C1050 0.950 . S
H1021 C1051 0.950 . S
C1022 H1004 0.951 . S
C1022 C1023 1.366 . S
C1022 C1024 1.388 . S
C1023 C1022 1.366 . S
C1023 C1027 1.411 . S
C1024 H1005 0.951 . S
C1024 C1022 1.388 . S
C1024 C1025 1.375 . S
C1025 C1024 1.375 . S
C1025 C1026 1.405 1_565 S
C1025 C1028 1.498 1_565 S
C1026 H1006 0.950 . S
C1026 C1025 1.405 1_545 S
C1026 C1027 1.374 1_545 S
C1027 H1007 0.923 1_565 S
C1027 C1023 1.411 . S
C1027 C1026 1.374 1_565 S
C1028 C1025 1.498 1_545 S
C1028 C1029 1.373 . S
C1028 C1030 1.389 . S
C1029 H1008 0.950 . S
C1029 C1028 1.373 . S
C1029 C1045 1.377 . S
C1030 C1028 1.389 . S
C1030 C1031 1.524 1_545 S
C1030 C1044 1.377 . S
C1031 C1030 1.524 1_565 S
C1031 C1032 1.397 . S
C1031 C1036 1.363 . S
C1032 H1009 0.950 . S
C1032 C1031 1.397 . S
C1032 C1033 1.334 . S
C1033 H1010 0.950 . S
C1033 C1032 1.334 . S
C1033 C1034 1.287 . S
C1034 C1033 1.287 . S
C1034 C1035 1.524 . S
C1034 H1053 0.913 . S
C1035 H1011 0.950 . S
C1035 C1034 1.524 . S
C1035 C1036 1.415 . S
C1036 H1012 0.950 . S
C1036 C1031 1.363 . S
C1036 C1035 1.415 . S
C1037 H1013 0.951 . S
C1037 C1038 1.366 . S
C1037 C1039 1.388 . S
C1038 C1037 1.366 . S
C1038 C1042 1.385 . S
C1039 H1014 0.951 . S
C1039 C1037 1.388 . S
C1039 C1040 1.366 . S
C1040 C1039 1.366 . S
C1040 C1041 1.414 . S
C1040 C1043 1.499 . S
C1041 H1015 0.950 . S
C1041 C1040 1.414 . S
C1041 C1042 1.374 . S
C1042 H1016 0.950 . S
C1042 C1038 1.385 . S
C1042 C1041 1.374 . S
C1043 C1040 1.499 . S
C1043 C1044 1.373 . S
C1043 C1045 1.389 . S
C1044 H1017 0.950 . S
C1044 C1030 1.377 . S
C1044 C1043 1.373 . S
C1045 C1029 1.377 . S
C1045 C1043 1.389 . S
C1045 C1046 1.524 . S
C1046 C1045 1.524 . S
C1046 C1047 1.397 . S
C1046 C1051 1.363 . S
C1047 H1018 0.950 . S
C1047 C1046 1.397 . S
C1047 C1048 1.334 . S
C1048 H1019 0.950 1_554 S
C1048 C1047 1.334 . S
C1048 C1049 1.287 . S
C1049 C1048 1.287 . S
C1049 C1050 1.524 . S
C1049 H1052 0.999 1_554 S
C1050 H1020 0.950 . S
C1050 C1049 1.524 . S
C1050 C1051 1.415 . S
C1051 H1021 0.950 . S
C1051 C1046 1.363 . S
C1051 C1050 1.415 . S
H1052 C1049 0.999 1_556 S
H1053 C1034 0.913 . S
H1054 C1072 0.951 . S
H1055 C1074 0.951 . S
H1056 C1076 0.950 . S
H1057 C1077 0.950 . S
H1058 C1079 0.950 . S
H1059 C1082 0.950 . S
H1060 C1083 0.950 1_556 S
H1061 C1085 0.950 . S
H1062 C1086 0.950 . S
H1063 C1087 0.951 1_655 S
H1064 C1089 0.951 . S
H1065 C1091 0.950 . S
H1066 C1092 0.950 . S
H1067 C1094 0.950 1_455 S
H1068 C1097 0.950 . S
H1069 C1098 0.950 . S
H1070 C1100 0.950 . S
H1071 C1101 0.950 . S
C1072 H1054 0.951 . S
C1072 C1073 1.366 . S
C1072 C1074 1.388 . S
C1073 C1072 1.366 . S
C1073 C1077 1.385 . S
C1074 H1055 0.951 . S
C1074 C1072 1.388 . S
C1074 C1075 1.366 . S
C1075 C1074 1.366 . S
C1075 C1076 1.414 . S
C1075 C1078 1.499 . S
C1076 H1056 0.950 . S
C1076 C1075 1.414 . S
C1076 C1077 1.374 . S
C1077 H1057 0.950 . S
C1077 C1073 1.385 . S
C1077 C1076 1.374 . S
C1078 C1075 1.499 . S
C1078 C1079 1.373 . S
C1078 C1080 1.389 . S
C1079 H1058 0.950 . S
C1079 C1078 1.373 . S
C1079 C1095 1.377 . S
C1080 C1078 1.389 . S
C1080 C1081 1.524 . S
C1080 C1094 1.377 . S
C1081 C1080 1.524 . S
C1081 C1082 1.397 . S
C1081 C1086 1.363 1_655 S
C1082 H1059 0.950 . S
C1082 C1081 1.397 . S
C1082 C1083 1.334 . S
C1083 H1060 0.950 1_554 S
C1083 C1082 1.334 . S
C1083 C1084 1.311 . S
C1084 C1083 1.311 . S
C1084 C1085 1.496 1_655 S
C1084 H1103 0.920 1_654 S
C1085 H1061 0.950 . S
C1085 C1084 1.496 1_455 S
C1085 C1086 1.415 . S
C1086 H1062 0.950 . S
C1086 C1081 1.363 1_455 S
C1086 C1085 1.415 . S
C1087 H1063 0.951 1_455 S
C1087 C1088 1.395 . S
C1087 C1089 1.359 1_455 S
C1088 C1087 1.395 . S
C1088 C1092 1.385 . S
C1089 H1064 0.951 . S
C1089 C1087 1.359 1_655 S
C1089 C1090 1.366 1_655 S
C1090 C1089 1.366 1_455 S
C1090 C1091 1.415 . S
C1090 C1093 1.497 1_455 S
C1091 H1065 0.950 . S
C1091 C1090 1.415 . S
C1091 C1092 1.374 . S
C1092 H1066 0.950 . S
C1092 C1088 1.385 . S
C1092 C1091 1.374 . S
C1093 C1090 1.497 1_655 S
C1093 C1094 1.373 . S
C1093 C1095 1.389 . S
C1094 H1067 0.950 1_655 S
C1094 C1080 1.377 . S
C1094 C1093 1.373 . S
C1095 C1079 1.377 . S
C1095 C1093 1.389 . S
C1095 C1096 1.524 . S
C1096 C1095 1.524 . S
C1096 C1097 1.397 . S
C1096 C1101 1.363 . S
C1097 H1068 0.950 . S
C1097 C1096 1.397 . S
C1097 C1098 1.334 . S
C1098 H1069 0.950 . S
C1098 C1097 1.334 . S
C1098 C1099 1.287 . S
C1099 C1098 1.287 . S
C1099 C1100 1.524 . S
C1099 H1102 0.999 . S
C1100 H1070 0.950 . S
C1100 C1099 1.524 . S
C1100 C1101 1.415 . S
C1101 H1071 0.950 . S
C1101 C1096 1.363 . S
C1101 C1100 1.415 . S
H1102 C1099 0.999 . S
H1103 C1084 0.920 1_456 S
H1104 C1122 0.951 . S
H1105 C1124 0.951 . S
H1106 C1126 0.950 . S
H1107 C1127 0.950 . S
H1108 C1129 0.950 . S
H1109 C1132 0.950 . S
H1110 C1133 0.950 . S
H1111 C1135 0.950 . S
H1112 C1136 0.950 . S
H1113 C1137 0.951 . S
H1114 C1139 0.951 . S
H1115 C1141 0.950 . S
H1116 C1142 0.950 . S
H1117 C1144 0.950 . S
H1118 C1147 0.950 . S
H1119 C1148 0.950 . S
H1120 C1150 0.950 . S
H1121 C1151 0.950 . S
C1122 H1104 0.951 . S
C1122 C1123 1.366 . S
C1122 C1124 1.388 . S
C1123 C1122 1.366 . S
C1123 C1127 1.385 . S
C1124 H1105 0.951 . S
C1124 C1122 1.388 . S
C1124 C1125 1.366 . S
C1125 C1124 1.366 . S
C1125 C1126 1.414 . S
C1125 C1128 1.499 . S
C1126 H1106 0.950 . S
C1126 C1125 1.414 . S
C1126 C1127 1.374 . S
C1127 H1107 0.950 . S
C1127 C1123 1.385 . S
C1127 C1126 1.374 . S
C1128 C1125 1.499 . S
C1128 C1129 1.373 . S
C1128 C1130 1.389 . S
C1129 H1108 0.950 . S
C1129 C1128 1.373 . S
C1129 C1145 1.377 . S
C1130 C1128 1.389 . S
C1130 C1131 1.524 . S
C1130 C1144 1.377 . S
C1131 C1130 1.524 . S
C1131 C1132 1.397 . S
C1131 C1136 1.363 . S
C1132 H1109 0.950 . S
C1132 C1131 1.397 . S
C1132 C1133 1.334 . S
C1133 H1110 0.950 . S
C1133 C1132 1.334 . S
C1133 C1134 1.287 . S
C1134 C1133 1.287 . S
C1134 C1135 1.524 . S
C1134 H1153 0.913 . S
C1135 H1111 0.950 . S
C1135 C1134 1.524 . S
C1135 C1136 1.415 . S
C1136 H1112 0.950 . S
C1136 C1131 1.363 . S
C1136 C1135 1.415 . S
C1137 H1113 0.951 . S
C1137 C1138 1.366 . S
C1137 C1139 1.388 . S
C1138 C1137 1.366 . S
C1138 C1142 1.385 . S
C1139 H1114 0.951 . S
C1139 C1137 1.388 . S
C1139 C1140 1.366 . S
C1140 C1139 1.366 . S
C1140 C1141 1.414 . S
C1140 C1143 1.499 . S
C1141 H1115 0.950 . S
C1141 C1140 1.414 . S
C1141 C1142 1.374 . S
C1142 H1116 0.950 . S
C1142 C1138 1.385 . S
C1142 C1141 1.374 . S
C1143 C1140 1.499 . S
C1143 C1144 1.373 . S
C1143 C1145 1.389 . S
C1144 H1117 0.950 . S
C1144 C1130 1.377 . S
C1144 C1143 1.373 . S
C1145 C1129 1.377 . S
C1145 C1143 1.389 . S
C1145 C1146 1.524 . S
C1146 C1145 1.524 . S
C1146 C1147 1.397 . S
C1146 C1151 1.363 . S
C1147 H1118 0.950 . S
C1147 C1146 1.397 . S
C1147 C1148 1.334 . S
C1148 H1119 0.950 . S
C1148 C1147 1.334 . S
C1148 C1149 1.287 . S
C1149 C1148 1.287 . S
C1149 C1150 1.524 . S
C1149 H1152 0.999 . S
C1150 H1120 0.950 . S
C1150 C1149 1.524 . S
C1150 C1151 1.415 . S
C1151 H1121 0.950 . S
C1151 C1146 1.363 . S
C1151 C1150 1.415 . S
H1152 C1149 0.999 . S
H1153 C1134 0.913 . S
H1154 C1172 0.878 1_565 S
H1155 C1174 0.951 . S
H1156 C1176 0.950 . S
H1157 C1177 0.950 . S
H1158 C1179 0.950 . S
H1159 C1182 0.950 1_545 S
H1160 C1183 0.950 1_545 S
H1161 C1185 0.950 . S
H1162 C1186 0.950 . S
H1163 C1187 0.951 . S
H1164 C1189 0.951 . S
H1165 C1191 0.950 . S
H1166 C1192 0.950 . S
H1167 C1194 0.950 . S
H1168 C1197 0.950 . S
H1169 C1198 0.949 . S
H1170 C1200 0.950 1_545 S
H1171 C1201 0.950 1_545 S
C1172 H1154 0.878 1_545 S
C1172 C1173 1.440 . S
C1172 C1174 1.391 1_545 S
C1173 C1172 1.440 . S
C1173 C1177 1.385 . S
C1174 H1155 0.951 . S
C1174 C1172 1.391 1_565 S
C1174 C1175 1.344 1_565 S
C1175 C1174 1.344 1_545 S
C1175 C1176 1.435 . S
C1175 C1178 1.500 1_545 S
C1176 H1156 0.950 . S
C1176 C1175 1.435 . S
C1176 C1177 1.374 . S
C1177 H1157 0.950 . S
C1177 C1173 1.385 . S
C1177 C1176 1.374 . S
C1178 C1175 1.500 1_565 S
C1178 C1179 1.373 . S
C1178 C1180 1.389 . S
C1179 H1158 0.950 . S
C1179 C1178 1.373 . S
C1179 C1195 1.377 . S
C1180 C1178 1.389 . S
C1180 C1181 1.524 . S
C1180 C1194 1.377 . S
C1181 C1180 1.524 . S
C1181 C1182 1.397 . S
C1181 C1186 1.363 . S
C1182 H1159 0.950 1_565 S
C1182 C1181 1.397 . S
C1182 C1183 1.334 . S
C1183 H1160 0.950 1_565 S
C1183 C1182 1.334 . S
C1183 C1184 1.287 . S
C1184 C1183 1.287 . S
C1184 C1185 1.524 . S
C1184 H1203 0.913 . S
C1185 H1161 0.950 . S
C1185 C1184 1.524 . S
C1185 C1186 1.415 . S
C1186 H1162 0.950 . S
C1186 C1181 1.363 . S
C1186 C1185 1.415 . S
C1187 H1163 0.951 . S
C1187 C1188 1.366 . S
C1187 C1189 1.388 . S
C1188 C1187 1.366 . S
C1188 C1192 1.385 . S
C1189 H1164 0.951 . S
C1189 C1187 1.388 . S
C1189 C1190 1.366 . S
C1190 C1189 1.366 . S
C1190 C1191 1.414 . S
C1190 C1193 1.499 . S
C1191 H1165 0.950 . S
C1191 C1190 1.414 . S
C1191 C1192 1.374 . S
C1192 H1166 0.950 . S
C1192 C1188 1.385 . S
C1192 C1191 1.374 . S
C1193 C1190 1.499 . S
C1193 C1194 1.373 . S
C1193 C1195 1.389 . S
C1194 H1167 0.950 . S
C1194 C1180 1.377 . S
C1194 C1193 1.373 . S
C1195 C1179 1.377 . S
C1195 C1193 1.389 . S
C1195 C1196 1.524 . S
C1196 C1195 1.524 . S
C1196 C1197 1.397 . S
C1196 C1201 1.363 . S
C1197 H1168 0.950 . S
C1197 C1196 1.397 . S
C1197 C1198 1.337 1_556 S
C1198 H1169 0.949 . S
C1198 C1197 1.337 1_554 S
C1198 C1199 1.285 . S
C1199 C1198 1.285 . S
C1199 C1200 1.524 . S
C1199 H1202 0.999 . S
C1200 H1170 0.950 1_565 S
C1200 C1199 1.524 . S
C1200 C1201 1.415 1_554 S
C1201 H1171 0.950 1_565 S
C1201 C1196 1.363 . S
C1201 C1200 1.415 1_556 S
H1202 C1199 0.999 . S
H1203 C1184 0.913 . S
H1204 C1222 0.951 . S
H1205 C1224 0.951 . S
H1206 C1226 0.950 . S
H1207 C1227 0.950 . S
H1208 C1229 0.950 . S
H1209 C1232 0.950 . S
H1210 C1233 0.950 . S
H1211 C1235 0.950 . S
H1212 C1236 0.950 . S
H1213 C1237 0.951 . S
H1214 C1239 0.951 . S
H1215 C1241 0.950 . S
H1216 C1242 0.950 1_455 S
H1217 C1244 0.950 . S
H1218 C1247 0.950 . S
H1219 C1248 0.950 . S
H1220 C1250 0.950 . S
H1221 C1251 0.950 . S
C1222 H1204 0.951 . S
C1222 C1223 1.366 . S
C1222 C1224 1.388 . S
C1223 C1222 1.366 . S
C1223 C1227 1.385 . S
C1224 H1205 0.951 . S
C1224 C1222 1.388 . S
C1224 C1225 1.366 . S
C1225 C1224 1.366 . S
C1225 C1226 1.414 . S
C1225 C1228 1.499 . S
C1226 H1206 0.950 . S
C1226 C1225 1.414 . S
C1226 C1227 1.374 . S
C1227 H1207 0.950 . S
C1227 C1223 1.385 . S
C1227 C1226 1.374 . S
C1228 C1225 1.499 . S
C1228 C1229 1.373 . S
C1228 C1230 1.389 . S
C1229 H1208 0.950 . S
C1229 C1228 1.373 . S
C1229 C1245 1.377 . S
C1230 C1228 1.389 . S
C1230 C1231 1.524 . S
C1230 C1244 1.377 . S
C1231 C1230 1.524 . S
C1231 C1232 1.397 . S
C1231 C1236 1.363 . S
C1232 H1209 0.950 . S
C1232 C1231 1.397 . S
C1232 C1233 1.334 . S
C1233 H1210 0.950 . S
C1233 C1232 1.334 . S
C1233 C1234 1.287 . S
C1234 C1233 1.287 . S
C1234 C1235 1.524 . S
C1234 H1253 0.913 . S
C1235 H1211 0.950 . S
C1235 C1234 1.524 . S
C1235 C1236 1.415 . S
C1236 H1212 0.950 . S
C1236 C1231 1.363 . S
C1236 C1235 1.415 . S
C1237 H1213 0.951 . S
C1237 C1238 1.366 . S
C1237 C1239 1.388 . S
C1238 C1237 1.366 . S
C1238 C1242 1.385 . S
C1239 H1214 0.951 . S
C1239 C1237 1.388 . S
C1239 C1240 1.394 . S
C1240 C1239 1.394 . S
C1240 C1241 1.417 1_655 S
C1240 C1243 1.468 1_655 S
C1241 H1215 0.950 . S
C1241 C1240 1.417 1_455 S
C1241 C1242 1.374 1_455 S
C1242 H1216 0.950 1_655 S
C1242 C1238 1.385 . S
C1242 C1241 1.374 1_655 S
C1243 C1240 1.468 1_455 S
C1243 C1244 1.373 . S
C1243 C1245 1.389 . S
C1244 H1217 0.950 . S
C1244 C1230 1.377 . S
C1244 C1243 1.373 . S
C1245 C1229 1.377 . S
C1245 C1243 1.389 . S
C1245 C1246 1.524 1_455 S
C1246 C1245 1.524 1_655 S
C1246 C1247 1.397 . S
C1246 C1251 1.363 . S
C1247 H1218 0.950 . S
C1247 C1246 1.397 . S
C1247 C1248 1.334 . S
C1248 H1219 0.950 . S
C1248 C1247 1.334 . S
C1248 C1249 1.287 . S
C1249 C1248 1.287 . S
C1249 C1250 1.524 . S
C1249 H1252 0.999 . S
C1250 H1220 0.950 . S
C1250 C1249 1.524 . S
C1250 C1251 1.415 . S
C1251 H1221 0.950 . S
C1251 C1246 1.363 . S
C1251 C1250 1.415 . S
H1252 C1249 0.999 . S
H1253 C1234 0.913 . S
H1254 C1272 0.951 . S
H1255 C1274 0.951 . S
H1256 C1276 0.950 . S
H1257 C1277 0.950 . S
H1258 C1279 0.950 . S
H1259 C1282 0.950 . S
H1260 C1283 0.950 . S
H1261 C1285 0.950 . S
H1262 C1286 0.950 . S
H1263 C1287 0.951 . S
H1264 C1289 0.951 . S
H1265 C1291 0.950 . S
H1266 C1292 0.950 1_455 S
H1267 C1294 0.950 . S
H1268 C1297 0.950 . S
H1269 C1298 0.950 . S
H1270 C1300 0.950 . S
H1271 C1301 0.950 . S
C1272 H1254 0.951 . S
C1272 C1273 1.366 . S
C1272 C1274 1.388 . S
C1273 C1272 1.366 . S
C1273 C1277 1.385 . S
C1274 H1255 0.951 . S
C1274 C1272 1.388 . S
C1274 C1275 1.366 . S
C1275 C1274 1.366 . S
C1275 C1276 1.414 . S
C1275 C1278 1.499 . S
C1276 H1256 0.950 . S
C1276 C1275 1.414 . S
C1276 C1277 1.374 . S
C1277 H1257 0.950 . S
C1277 C1273 1.385 . S
C1277 C1276 1.374 . S
C1278 C1275 1.499 . S
C1278 C1279 1.373 . S
C1278 C1280 1.389 . S
C1279 H1258 0.950 . S
C1279 C1278 1.373 . S
C1279 C1295 1.377 . S
C1280 C1278 1.389 . S
C1280 C1281 1.524 . S
C1280 C1294 1.377 . S
C1281 C1280 1.524 . S
C1281 C1282 1.397 . S
C1281 C1286 1.363 . S
C1282 H1259 0.950 . S
C1282 C1281 1.397 . S
C1282 C1283 1.334 . S
C1283 H1260 0.950 . S
C1283 C1282 1.334 . S
C1283 C1284 1.287 . S
C1284 C1283 1.287 . S
C1284 C1285 1.524 . S
C1284 H1303 0.913 . S
C1285 H1261 0.950 . S
C1285 C1284 1.524 . S
C1285 C1286 1.415 . S
C1286 H1262 0.950 . S
C1286 C1281 1.363 . S
C1286 C1285 1.415 . S
C1287 H1263 0.951 . S
C1287 C1288 1.366 . S
C1287 C1289 1.388 . S
C1288 C1287 1.366 . S
C1288 C1292 1.385 . S
C1289 H1264 0.951 . S
C1289 C1287 1.388 . S
C1289 C1290 1.389 . S
C1290 C1289 1.389 . S
C1290 C1291 1.390 1_655 S
C1290 C1293 1.498 1_655 S
C1291 H1265 0.950 . S
C1291 C1290 1.390 1_455 S
C1291 C1292 1.374 1_455 S
C1292 H1266 0.950 1_655 S
C1292 C1288 1.385 . S
C1292 C1291 1.374 1_655 S
C1293 C1290 1.498 1_455 S
C1293 C1294 1.373 . S
C1293 C1295 1.389 . S
C1294 H1267 0.950 . S
C1294 C1280 1.377 . S
C1294 C1293 1.373 . S
C1295 C1279 1.377 . S
C1295 C1293 1.389 . S
C1295 C1296 1.524 1_455 S
C1296 C1295 1.524 1_655 S
C1296 C1297 1.397 . S
C1296 C1301 1.363 . S
C1297 H1268 0.950 . S
C1297 C1296 1.397 . S
C1297 C1298 1.334 . S
C1298 H1269 0.950 . S
C1298 C1297 1.334 . S
C1298 C1299 1.287 . S
C1299 C1298 1.287 . S
C1299 C1300 1.524 . S
C1299 H1302 0.999 . S
C1300 H1270 0.950 . S
C1300 C1299 1.524 . S
C1300 C1301 1.415 . S
C1301 H1271 0.950 . S
C1301 C1296 1.363 . S
C1301 C1300 1.415 . S
H1302 C1299 0.999 . S
H1303 C1284 0.913 . S
H1304 C1322 0.951 . S
H1305 C1324 0.951 . S
H1306 C1326 0.950 . S
H1307 C1327 0.950 . S
H1308 C1329 0.950 . S
H1309 C1332 0.950 . S
H1310 C1333 0.950 . S
H1311 C1335 0.950 . S
H1312 C1336 0.950 . S
H1313 C1337 0.951 . S
H1314 C1339 0.951 . S
H1315 C1341 0.950 . S
H1316 C1342 0.950 . S
H1317 C1344 0.950 . S
H1318 C1347 0.950 . S
H1319 C1348 0.950 . S
H1320 C1350 0.950 . S
H1321 C1351 0.950 . S
C1322 H1304 0.951 . S
C1322 C1323 1.366 . S
C1322 C1324 1.388 . S
C1323 C1322 1.366 . S
C1323 C1327 1.385 . S
C1324 H1305 0.951 . S
C1324 C1322 1.388 . S
C1324 C1325 1.366 . S
C1325 C1324 1.366 . S
C1325 C1326 1.414 . S
C1325 C1328 1.499 . S
C1326 H1306 0.950 . S
C1326 C1325 1.414 . S
C1326 C1327 1.374 . S
C1327 H1307 0.950 . S
C1327 C1323 1.385 . S
C1327 C1326 1.374 . S
C1328 C1325 1.499 . S
C1328 C1329 1.373 . S
C1328 C1330 1.389 . S
C1329 H1308 0.950 . S
C1329 C1328 1.373 . S
C1329 C1345 1.377 . S
C1330 C1328 1.389 . S
C1330 C1331 1.524 . S
C1330 C1344 1.377 . S
C1331 C1330 1.524 . S
C1331 C1332 1.397 . S
C1331 C1336 1.363 . S
C1332 H1309 0.950 . S
C1332 C1331 1.397 . S
C1332 C1333 1.334 . S
C1333 H1310 0.950 . S
C1333 C1332 1.334 . S
C1333 C1334 1.287 . S
C1334 C1333 1.287 . S
C1334 C1335 1.524 . S
C1334 H1353 0.913 . S
C1335 H1311 0.950 . S
C1335 C1334 1.524 . S
C1335 C1336 1.415 . S
C1336 H1312 0.950 . S
C1336 C1331 1.363 . S
C1336 C1335 1.415 . S
C1337 H1313 0.951 . S
C1337 C1338 1.366 . S
C1337 C1339 1.388 . S
C1338 C1337 1.366 . S
C1338 C1342 1.385 . S
C1339 H1314 0.951 . S
C1339 C1337 1.388 . S
C1339 C1340 1.366 . S
C1340 C1339 1.366 . S
C1340 C1341 1.414 . S
C1340 C1343 1.499 . S
C1341 H1315 0.950 . S
C1341 C1340 1.414 . S
C1341 C1342 1.374 . S
C1342 H1316 0.950 . S
C1342 C1338 1.385 . S
C1342 C1341 1.374 . S
C1343 C1340 1.499 . S
C1343 C1344 1.373 . S
C1343 C1345 1.389 . S
C1344 H1317 0.950 . S
C1344 C1330 1.377 . S
C1344 C1343 1.373 . S
C1345 C1329 1.377 . S
C1345 C1343 1.389 . S
C1345 C1346 1.524 . S
C1346 C1345 1.524 . S
C1346 C1347 1.397 . S
C1346 C1351 1.363 . S
C1347 H1318 0.950 . S
C1347 C1346 1.397 . S
C1347 C1348 1.334 . S
C1348 H1319 0.950 . S
C1348 C1347 1.334 . S
C1348 C1349 1.287 . S
C1349 C1348 1.287 . S
C1349 C1350 1.524 . S
C1349 H1352 0.999 . S
C1350 H1320 0.950 . S
C1350 C1349 1.524 . S
C1350 C1351 1.415 . S
C1351 H1321 0.950 . S
C1351 C1346 1.363 . S
C1351 C1350 1.415 . S
H1352 C1349 0.999 . S
H1353 C1334 0.913 . S
H1354 C1372 0.951 . S
H1355 C1374 0.951 . S
H1356 C1376 0.950 . S
H1357 C1377 0.950 . S
H1358 C1379 0.950 . S
H1359 C1382 0.950 . S
H1360 C1383 0.950 . S
H1361 C1385 0.950 . S
H1362 C1386 0.950 . S
H1363 C1387 0.951 . S
H1364 C1389 0.951 . S
H1365 C1391 0.950 . S
H1366 C1392 0.950 1_565 S
H1367 C1394 0.950 . S
H1368 C1397 0.928 1_565 S
H1369 C1398 0.950 . S
H1370 C1400 0.950 . S
H1371 C1401 0.950 . S
C1372 H1354 0.951 . S
C1372 C1373 1.366 . S
C1372 C1374 1.388 . S
C1373 C1372 1.366 . S
C1373 C1377 1.385 . S
C1374 H1355 0.951 . S
C1374 C1372 1.388 . S
C1374 C1375 1.366 . S
C1375 C1374 1.366 . S
C1375 C1376 1.414 . S
C1375 C1378 1.499 . S
C1376 H1356 0.950 . S
C1376 C1375 1.414 . S
C1376 C1377 1.374 . S
C1377 H1357 0.950 . S
C1377 C1373 1.385 . S
C1377 C1376 1.374 . S
C1378 C1375 1.499 . S
C1378 C1379 1.373 . S
C1378 C1380 1.389 . S
C1379 H1358 0.950 . S
C1379 C1378 1.373 . S
C1379 C1395 1.377 . S
C1380 C1378 1.389 . S
C1380 C1381 1.524 . S
C1380 C1394 1.377 . S
C1381 C1380 1.524 . S
C1381 C1382 1.397 . S
C1381 C1386 1.363 . S
C1382 H1359 0.950 . S
C1382 C1381 1.397 . S
C1382 C1383 1.334 . S
C1383 H1360 0.950 . S
C1383 C1382 1.334 . S
C1383 C1384 1.287 . S
C1384 C1383 1.287 . S
C1384 C1385 1.524 . S
C1384 H1403 0.913 . S
C1385 H1361 0.950 . S
C1385 C1384 1.524 . S
C1385 C1386 1.415 . S
C1386 H1362 0.950 . S
C1386 C1381 1.363 . S
C1386 C1385 1.415 . S
C1387 H1363 0.951 . S
C1387 C1388 1.366 . S
C1387 C1389 1.388 . S
C1388 C1387 1.366 . S
C1388 C1392 1.395 . S
C1389 H1364 0.951 . S
C1389 C1387 1.388 . S
C1389 C1390 1.359 . S
C1390 C1389 1.359 . S
C1390 C1391 1.414 1_545 S
C1390 C1393 1.505 1_545 S
C1391 H1365 0.950 . S
C1391 C1390 1.414 1_565 S
C1391 C1392 1.363 1_565 S
C1392 H1366 0.950 1_545 S
C1392 C1388 1.395 . S
C1392 C1391 1.363 1_545 S
C1393 C1390 1.505 1_565 S
C1393 C1394 1.373 . S
C1393 C1395 1.389 . S
C1394 H1367 0.950 . S
C1394 C1380 1.377 . S
C1394 C1393 1.373 . S
C1395 C1379 1.377 . S
C1395 C1393 1.389 . S
C1395 C1396 1.524 1_565 S
C1396 C1395 1.524 1_545 S
C1396 C1397 1.385 . S
C1396 C1401 1.363 . S
C1397 H1368 0.928 1_545 S
C1397 C1396 1.385 . S
C1397 C1398 1.374 . S
C1398 H1369 0.950 . S
C1398 C1397 1.374 . S
C1398 C1399 1.287 . S
C1399 C1398 1.287 . S
C1399 C1400 1.524 . S
C1399 H1402 0.999 . S
C1400 H1370 0.950 . S
C1400 C1399 1.524 . S
C1400 C1401 1.415 . S
C1401 H1371 0.950 . S
C1401 C1396 1.363 . S
C1401 C1400 1.415 . S
H1402 C1399 0.999 . S
H1403 C1384 0.913 . S
H1404 C1422 0.951 . S
H1405 C1424 0.951 . S
H1406 C1426 0.950 . S
H1407 C1427 0.950 . S
H1408 C1429 0.950 . S
H1409 C1432 0.950 . S
H1410 C1433 0.950 . S
H1411 C1435 0.950 . S
H1412 C1436 0.950 . S
H1413 C1437 0.951 . S
H1414 C1439 0.951 . S
H1415 C1441 0.950 . S
H1416 C1442 0.950 . S
H1417 C1444 0.950 . S
H1418 C1447 0.950 . S
H1419 C1448 0.950 . S
H1420 C1450 0.950 . S
H1421 C1451 0.950 . S
C1422 H1404 0.951 . S
C1422 C1423 1.366 . S
C1422 C1424 1.388 . S
C1423 C1422 1.366 . S
C1423 C1427 1.385 . S
C1424 H1405 0.951 . S
C1424 C1422 1.388 . S
C1424 C1425 1.366 . S
C1425 C1424 1.366 . S
C1425 C1426 1.414 . S
C1425 C1428 1.499 . S
C1426 H1406 0.950 . S
C1426 C1425 1.414 . S
C1426 C1427 1.374 . S
C1427 H1407 0.950 . S
C1427 C1423 1.385 . S
C1427 C1426 1.374 . S
C1428 C1425 1.499 . S
C1428 C1429 1.373 . S
C1428 C1430 1.389 . S
C1429 H1408 0.950 . S
C1429 C1428 1.373 . S
C1429 C1445 1.377 . S
C1430 C1428 1.389 . S
C1430 C1431 1.524 . S
C1430 C1444 1.377 . S
C1431 C1430 1.524 . S
C1431 C1432 1.397 . S
C1431 C1436 1.363 . S
C1432 H1409 0.950 . S
C1432 C1431 1.397 . S
C1432 C1433 1.334 . S
C1433 H1410 0.950 . S
C1433 C1432 1.334 . S
C1433 C1434 1.287 . S
C1434 C1433 1.287 . S
C1434 C1435 1.524 . S
C1434 H1453 0.913 . S
C1435 H1411 0.950 . S
C1435 C1434 1.524 . S
C1435 C1436 1.415 . S
C1436 H1412 0.950 . S
C1436 C1431 1.363 . S
C1436 C1435 1.415 . S
C1437 H1413 0.951 . S
C1437 C1438 1.366 . S
C1437 C1439 1.388 . S
C1438 C1437 1.366 . S
C1438 C1442 1.385 . S
C1439 H1414 0.951 . S
C1439 C1437 1.388 . S
C1439 C1440 1.366 . S
C1440 C1439 1.366 . S
C1440 C1441 1.414 . S
C1440 C1443 1.499 . S
C1441 H1415 0.950 . S
C1441 C1440 1.414 . S
C1441 C1442 1.374 . S
C1442 H1416 0.950 . S
C1442 C1438 1.385 . S
C1442 C1441 1.374 . S
C1443 C1440 1.499 . S
C1443 C1444 1.373 . S
C1443 C1445 1.389 . S
C1444 H1417 0.950 . S
C1444 C1430 1.377 . S
C1444 C1443 1.373 . S
C1445 C1429 1.377 . S
C1445 C1443 1.389 . S
C1445 C1446 1.524 . S
C1446 C1445 1.524 . S
C1446 C1447 1.397 . S
C1446 C1451 1.363 . S
C1447 H1418 0.950 . S
C1447 C1446 1.397 . S
C1447 C1448 1.334 . S
C1448 H1419 0.950 . S
C1448 C1447 1.334 . S
C1448 C1449 1.287 . S
C1449 C1448 1.287 . S
C1449 C1450 1.524 . S
C1449 H1452 0.999 . S
C1450 H1420 0.950 . S
C1450 C1449 1.524 . S
C1450 C1451 1.415 . S
C1451 H1421 0.950 . S
C1451 C1446 1.363 . S
C1451 C1450 1.415 . S
H1452 C1449 0.999 . S
H1453 C1434 0.913 . S
H1454 C1472 0.951 . S
H1455 C1474 0.951 . S
H1456 C1476 0.950 . S
H1457 C1477 0.950 . S
H1458 C1479 0.950 . S
H1459 C1482 0.950 . S
H1460 C1483 0.950 . S
H1461 C1485 0.950 . S
H1462 C1486 0.950 . S
H1463 C1487 0.951 . S
H1464 C1489 0.951 . S
H1465 C1491 0.950 . S
H1466 C1492 0.950 . S
H1467 C1494 0.950 . S
H1468 C1497 0.950 . S
H1469 C1498 0.950 . S
H1470 C1500 0.950 . S
H1471 C1501 0.950 . S
C1472 H1454 0.951 . S
C1472 C1473 1.366 . S
C1472 C1474 1.388 . S
C1473 C1472 1.366 . S
C1473 C1477 1.385 . S
C1474 H1455 0.951 . S
C1474 C1472 1.388 . S
C1474 C1475 1.366 . S
C1475 C1474 1.366 . S
C1475 C1476 1.414 . S
C1475 C1478 1.499 . S
C1476 H1456 0.950 . S
C1476 C1475 1.414 . S
C1476 C1477 1.374 . S
C1477 H1457 0.950 . S
C1477 C1473 1.385 . S
C1477 C1476 1.374 . S
C1478 C1475 1.499 . S
C1478 C1479 1.373 . S
C1478 C1480 1.389 . S
C1479 H1458 0.950 . S
C1479 C1478 1.373 . S
C1479 C1495 1.377 . S
C1480 C1478 1.389 . S
C1480 C1481 1.524 . S
C1480 C1494 1.377 . S
C1481 C1480 1.524 . S
C1481 C1482 1.397 . S
C1481 C1486 1.363 . S
C1482 H1459 0.950 . S
C1482 C1481 1.397 . S
C1482 C1483 1.334 . S
C1483 H1460 0.950 . S
C1483 C1482 1.334 . S
C1483 C1484 1.287 . S
C1484 C1483 1.287 . S
C1484 C1485 1.524 . S
C1484 H1503 0.913 . S
C1485 H1461 0.950 . S
C1485 C1484 1.524 . S
C1485 C1486 1.415 . S
C1486 H1462 0.950 . S
C1486 C1481 1.363 . S
C1486 C1485 1.415 . S
C1487 H1463 0.951 . S
C1487 C1488 1.366 . S
C1487 C1489 1.388 . S
C1488 C1487 1.366 . S
C1488 C1492 1.385 . S
C1489 H1464 0.951 . S
C1489 C1487 1.388 . S
C1489 C1490 1.366 . S
C1490 C1489 1.366 . S
C1490 C1491 1.414 . S
C1490 C1493 1.499 . S
C1491 H1465 0.950 . S
C1491 C1490 1.414 . S
C1491 C1492 1.374 . S
C1492 H1466 0.950 . S
C1492 C1488 1.385 . S
C1492 C1491 1.374 . S
C1493 C1490 1.499 . S
C1493 C1494 1.373 . S
C1493 C1495 1.389 . S
C1494 H1467 0.950 . S
C1494 C1480 1.377 . S
C1494 C1493 1.373 . S
C1495 C1479 1.377 . S
C1495 C1493 1.389 . S
C1495 C1496 1.524 . S
C1496 C1495 1.524 . S
C1496 C1497 1.397 . S
C1496 C1501 1.363 . S
C1497 H1468 0.950 . S
C1497 C1496 1.397 . S
C1497 C1498 1.334 . S
C1498 H1469 0.950 . S
C1498 C1497 1.334 . S
C1498 C1499 1.287 . S
C1499 C1498 1.287 . S
C1499 C1500 1.524 . S
C1499 H1502 0.999 . S
C1500 H1470 0.950 . S
C1500 C1499 1.524 . S
C1500 C1501 1.415 . S
C1501 H1471 0.950 . S
C1501 C1496 1.363 . S
C1501 C1500 1.415 . S
H1502 C1499 0.999 . S
H1503 C1484 0.913 . S
H1504 C1522 0.951 . S
H1505 C1524 0.951 . S
H1506 C1526 0.950 . S
H1507 C1527 0.950 . S
H1508 C1529 0.950 . S
H1509 C1532 0.950 . S
H1510 C1533 0.950 . S
H1511 C1535 0.950 . S
H1512 C1536 0.950 . S
H1513 C1537 0.951 . S
H1514 C1539 0.951 . S
H1515 C1541 0.950 . S
H1516 C1542 0.950 . S
H1517 C1544 0.950 . S
H1518 C1547 0.950 . S
H1519 C1548 0.950 . S
H1520 C1550 0.950 . S
H1521 C1551 0.950 . S
C1522 H1504 0.951 . S
C1522 C1523 1.366 . S
C1522 C1524 1.388 . S
C1523 C1522 1.366 . S
C1523 C1527 1.385 . S
C1524 H1505 0.951 . S
C1524 C1522 1.388 . S
C1524 C1525 1.366 . S
C1525 C1524 1.366 . S
C1525 C1526 1.414 . S
C1525 C1528 1.499 . S
C1526 H1506 0.950 . S
C1526 C1525 1.414 . S
C1526 C1527 1.374 . S
C1527 H1507 0.950 . S
C1527 C1523 1.385 . S
C1527 C1526 1.374 . S
C1528 C1525 1.499 . S
C1528 C1529 1.373 . S
C1528 C1530 1.389 . S
C1529 H1508 0.950 . S
C1529 C1528 1.373 . S
C1529 C1545 1.377 . S
C1530 C1528 1.389 . S
C1530 C1531 1.524 . S
C1530 C1544 1.377 . S
C1531 C1530 1.524 . S
C1531 C1532 1.397 . S
C1531 C1536 1.363 . S
C1532 H1509 0.950 . S
C1532 C1531 1.397 . S
C1532 C1533 1.334 . S
C1533 H1510 0.950 . S
C1533 C1532 1.334 . S
C1533 C1534 1.287 . S
C1534 C1533 1.287 . S
C1534 C1535 1.524 . S
C1534 H1553 0.913 . S
C1535 H1511 0.950 . S
C1535 C1534 1.524 . S
C1535 C1536 1.415 . S
C1536 H1512 0.950 . S
C1536 C1531 1.363 . S
C1536 C1535 1.415 . S
C1537 H1513 0.951 . S
C1537 C1538 1.366 . S
C1537 C1539 1.388 . S
C1538 C1537 1.366 . S
C1538 C1542 1.385 . S
C1539 H1514 0.951 . S
C1539 C1537 1.388 . S
C1539 C1540 1.366 . S
C1540 C1539 1.366 . S
C1540 C1541 1.414 . S
C1540 C1543 1.499 . S
C1541 H1515 0.950 . S
C1541 C1540 1.414 . S
C1541 C1542 1.374 . S
C1542 H1516 0.950 . S
C1542 C1538 1.385 . S
C1542 C1541 1.374 . S
C1543 C1540 1.499 . S
C1543 C1544 1.373 . S
C1543 C1545 1.389 . S
C1544 H1517 0.950 . S
C1544 C1530 1.377 . S
C1544 C1543 1.373 . S
C1545 C1529 1.377 . S
C1545 C1543 1.389 . S
C1545 C1546 1.524 . S
C1546 C1545 1.524 . S
C1546 C1547 1.397 . S
C1546 C1551 1.363 . S
C1547 H1518 0.950 . S
C1547 C1546 1.397 . S
C1547 C1548 1.334 . S
C1548 H1519 0.950 . S
C1548 C1547 1.334 . S
C1548 C1549 1.287 . S
C1549 C1548 1.287 . S
C1549 C1550 1.524 . S
C1549 H1552 0.999 . S
C1550 H1520 0.950 . S
C1550 C1549 1.524 . S
C1550 C1551 1.415 . S
C1551 H1521 0.950 . S
C1551 C1546 1.363 . S
C1551 C1550 1.415 . S
H1552 C1549 0.999 . S
H1553 C1534 0.913 . S
H1554 C1572 0.951 . S
H1555 C1574 0.951 . S
H1556 C1576 0.950 . S
H1557 C1577 0.950 . S
H1558 C1579 0.950 . S
H1559 C1582 0.950 . S
H1560 C1583 0.950 . S
H1561 C1585 0.950 . S
H1562 C1586 0.950 . S
H1563 C1587 0.951 . S
H1564 C1589 0.951 . S
H1565 C1591 0.950 . S
H1566 C1592 0.950 . S
H1567 C1594 0.950 . S
H1568 C1597 0.950 . S
H1569 C1598 0.950 . S
H1570 C1600 0.950 . S
H1571 C1601 0.950 . S
C1572 H1554 0.951 . S
C1572 C1573 1.366 . S
C1572 C1574 1.388 . S
C1573 C1572 1.366 . S
C1573 C1577 1.385 . S
C1574 H1555 0.951 . S
C1574 C1572 1.388 . S
C1574 C1575 1.366 . S
C1575 C1574 1.366 . S
C1575 C1576 1.414 . S
C1575 C1578 1.499 . S
C1576 H1556 0.950 . S
C1576 C1575 1.414 . S
C1576 C1577 1.374 . S
C1577 H1557 0.950 . S
C1577 C1573 1.385 . S
C1577 C1576 1.374 . S
C1578 C1575 1.499 . S
C1578 C1579 1.373 . S
C1578 C1580 1.389 . S
C1579 H1558 0.950 . S
C1579 C1578 1.373 . S
C1579 C1595 1.377 . S
C1580 C1578 1.389 . S
C1580 C1581 1.524 . S
C1580 C1594 1.377 . S
C1581 C1580 1.524 . S
C1581 C1582 1.397 . S
C1581 C1586 1.363 . S
C1582 H1559 0.950 . S
C1582 C1581 1.397 . S
C1582 C1583 1.334 . S
C1583 H1560 0.950 . S
C1583 C1582 1.334 . S
C1583 C1584 1.287 . S
C1584 C1583 1.287 . S
C1584 C1585 1.524 . S
C1584 H1603 0.913 . S
C1585 H1561 0.950 . S
C1585 C1584 1.524 . S
C1585 C1586 1.415 . S
C1586 H1562 0.950 . S
C1586 C1581 1.363 . S
C1586 C1585 1.415 . S
C1587 H1563 0.951 . S
C1587 C1588 1.366 1_554 S
C1587 C1589 1.388 . S
C1588 C1587 1.366 1_556 S
C1588 C1592 1.385 . S
C1589 H1564 0.951 . S
C1589 C1587 1.388 . S
C1589 C1590 1.366 . S
C1590 C1589 1.366 . S
C1590 C1591 1.414 . S
C1590 C1593 1.499 . S
C1591 H1565 0.950 . S
C1591 C1590 1.414 . S
C1591 C1592 1.374 1_554 S
C1592 H1566 0.950 . S
C1592 C1588 1.385 . S
C1592 C1591 1.374 1_556 S
C1593 C1590 1.499 . S
C1593 C1594 1.373 . S
C1593 C1595 1.389 . S
C1594 H1567 0.950 . S
C1594 C1580 1.377 . S
C1594 C1593 1.373 . S
C1595 C1579 1.377 . S
C1595 C1593 1.389 . S
C1595 C1596 1.524 . S
C1596 C1595 1.524 . S
C1596 C1597 1.397 . S
C1596 C1601 1.363 . S
C1597 H1568 0.950 . S
C1597 C1596 1.397 . S
C1597 C1598 1.334 . S
C1598 H1569 0.950 . S
C1598 C1597 1.334 . S
C1598 C1599 1.287 . S
C1599 C1598 1.287 . S
C1599 C1600 1.524 . S
C1599 H1602 0.999 . S
C1600 H1570 0.950 . S
C1600 C1599 1.524 . S
C1600 C1601 1.415 . S
C1601 H1571 0.950 . S
C1601 C1596 1.363 . S
C1601 C1600 1.415 . S
H1602 C1599 0.999 . S
H1603 C1584 0.913 . S
H1604 C1622 0.951 . S
H1605 C1624 0.951 . S
H1606 C1626 0.950 . S
H1607 C1627 0.950 . S
H1608 C1629 0.950 . S
H1609 C1632 0.950 . S
H1610 C1633 0.950 . S
H1611 C1635 0.950 . S
H1612 C1636 0.950 . S
H1613 C1637 0.951 . S
H1614 C1639 0.951 . S
H1615 C1641 0.950 . S
H1616 C1642 0.953 . S
H1617 C1644 0.950 . S
H1618 C1647 0.950 . S
H1619 C1648 0.950 . S
H1620 C1650 0.950 . S
H1621 C1651 0.950 . S
C1622 H1604 0.951 . S
C1622 C1623 1.366 . S
C1622 C1624 1.388 . S
C1623 C1622 1.366 . S
C1623 C1627 1.385 . S
C1624 H1605 0.951 . S
C1624 C1622 1.388 . S
C1624 C1625 1.366 . S
C1625 C1624 1.366 . S
C1625 C1626 1.414 . S
C1625 C1628 1.499 . S
C1626 H1606 0.950 . S
C1626 C1625 1.414 . S
C1626 C1627 1.374 . S
C1627 H1607 0.950 . S
C1627 C1623 1.385 . S
C1627 C1626 1.374 . S
C1628 C1625 1.499 . S
C1628 C1629 1.373 . S
C1628 C1630 1.389 . S
C1629 H1608 0.950 . S
C1629 C1628 1.373 . S
C1629 C1645 1.377 . S
C1630 C1628 1.389 . S
C1630 C1631 1.524 . S
C1630 C1644 1.377 . S
C1631 C1630 1.524 . S
C1631 C1632 1.397 . S
C1631 C1636 1.363 . S
C1632 H1609 0.950 . S
C1632 C1631 1.397 . S
C1632 C1633 1.334 . S
C1633 H1610 0.950 . S
C1633 C1632 1.334 . S
C1633 C1634 1.287 . S
C1634 C1633 1.287 . S
C1634 C1635 1.524 . S
C1634 H1653 0.913 . S
C1635 H1611 0.950 . S
C1635 C1634 1.524 . S
C1635 C1636 1.415 . S
C1636 H1612 0.950 . S
C1636 C1631 1.363 . S
C1636 C1635 1.415 . S
C1637 H1613 0.951 . S
C1637 C1638 1.366 . S
C1637 C1639 1.388 1_556 S
C1638 C1637 1.366 . S
C1638 C1642 1.390 . S
C1639 H1614 0.951 . S
C1639 C1637 1.388 1_554 S
C1639 C1640 1.366 . S
C1640 C1639 1.366 . S
C1640 C1641 1.414 . S
C1640 C1643 1.499 . S
C1641 H1615 0.950 . S
C1641 C1640 1.414 . S
C1641 C1642 1.366 1_554 S
C1642 H1616 0.953 . S
C1642 C1638 1.390 . S
C1642 C1641 1.366 1_556 S
C1643 C1640 1.499 . S
C1643 C1644 1.373 . S
C1643 C1645 1.389 . S
C1644 H1617 0.950 . S
C1644 C1630 1.377 . S
C1644 C1643 1.373 . S
C1645 C1629 1.377 . S
C1645 C1643 1.389 . S
C1645 C1646 1.524 . S
C1646 C1645 1.524 . S
C1646 C1647 1.397 . S
C1646 C1651 1.363 . S
C1647 H1618 0.950 . S
C1647 C1646 1.397 . S
C1647 C1648 1.334 1_554 S
C1648 H1619 0.950 . S
C1648 C1647 1.334 1_556 S
C1648 C1649 1.287 . S
C1649 C1648 1.287 . S
C1649 C1650 1.524 1_556 S
C1649 H1652 0.999 . S
C1650 H1620 0.950 . S
C1650 C1649 1.524 1_554 S
C1650 C1651 1.415 . S
C1651 H1621 0.950 . S
C1651 C1646 1.363 . S
C1651 C1650 1.415 . S
H1652 C1649 0.999 . S
H1653 C1634 0.913 . S
H1654 C1672 0.951 . S
H1655 C1674 0.951 . S
H1656 C1676 0.950 . S
H1657 C1677 0.950 . S
H1658 C1679 0.950 . S
H1659 C1682 0.950 . S
H1660 C1683 0.950 . S
H1661 C1685 0.950 . S
H1662 C1686 0.950 . S
H1663 C1687 0.951 . S
H1664 C1689 0.951 . S
H1665 C1691 0.950 . S
H1666 C1692 0.950 . S
H1667 C1694 0.950 . S
H1668 C1697 0.950 . S
H1669 C1698 0.950 . S
H1670 C1700 0.950 . S
H1671 C1701 0.950 . S
C1672 H1654 0.951 . S
C1672 C1673 1.366 . S
C1672 C1674 1.388 . S
C1673 C1672 1.366 . S
C1673 C1677 1.385 . S
C1674 H1655 0.951 . S
C1674 C1672 1.388 . S
C1674 C1675 1.366 . S
C1675 C1674 1.366 . S
C1675 C1676 1.414 . S
C1675 C1678 1.499 . S
C1676 H1656 0.950 . S
C1676 C1675 1.414 . S
C1676 C1677 1.374 . S
C1677 H1657 0.950 . S
C1677 C1673 1.385 . S
C1677 C1676 1.374 . S
C1678 C1675 1.499 . S
C1678 C1679 1.373 . S
C1678 C1680 1.389 . S
C1679 H1658 0.950 . S
C1679 C1678 1.373 . S
C1679 C1695 1.377 . S
C1680 C1678 1.389 . S
C1680 C1681 1.524 . S
C1680 C1694 1.377 . S
C1681 C1680 1.524 . S
C1681 C1682 1.397 . S
C1681 C1686 1.363 . S
C1682 H1659 0.950 . S
C1682 C1681 1.397 . S
C1682 C1683 1.334 . S
C1683 H1660 0.950 . S
C1683 C1682 1.334 . S
C1683 C1684 1.287 . S
C1684 C1683 1.287 . S
C1684 C1685 1.524 . S
C1684 H1703 0.913 . S
C1685 H1661 0.950 . S
C1685 C1684 1.524 . S
C1685 C1686 1.415 . S
C1686 H1662 0.950 . S
C1686 C1681 1.363 . S
C1686 C1685 1.415 . S
C1687 H1663 0.951 . S
C1687 C1688 1.366 1_554 S
C1687 C1689 1.388 . S
C1688 C1687 1.366 1_556 S
C1688 C1692 1.385 . S
C1689 H1664 0.951 . S
C1689 C1687 1.388 . S
C1689 C1690 1.366 . S
C1690 C1689 1.366 . S
C1690 C1691 1.414 . S
C1690 C1693 1.499 . S
C1691 H1665 0.950 . S
C1691 C1690 1.414 . S
C1691 C1692 1.374 1_554 S
C1692 H1666 0.950 . S
C1692 C1688 1.385 . S
C1692 C1691 1.374 1_556 S
C1693 C1690 1.499 . S
C1693 C1694 1.373 . S
C1693 C1695 1.389 . S
C1694 H1667 0.950 . S
C1694 C1680 1.377 . S
C1694 C1693 1.373 . S
C1695 C1679 1.377 . S
C1695 C1693 1.389 . S
C1695 C1696 1.524 . S
C1696 C1695 1.524 . S
C1696 C1697 1.397 . S
C1696 C1701 1.363 . S
C1697 H1668 0.950 . S
C1697 C1696 1.397 . S
C1697 C1698 1.334 . S
C1698 H1669 0.950 . S
C1698 C1697 1.334 . S
C1698 C1699 1.287 . S
C1699 C1698 1.287 . S
C1699 C1700 1.524 . S
C1699 H1702 0.999 . S
C1700 H1670 0.950 . S
C1700 C1699 1.524 . S
C1700 C1701 1.415 . S
C1701 H1671 0.950 . S
C1701 C1696 1.363 . S
C1701 C1700 1.415 . S
H1702 C1699 0.999 . S
H1703 C1684 0.913 . S
H1704 C1722 0.951 . S
H1705 C1724 0.951 . S
H1706 C1726 0.950 . S
H1707 C1727 0.950 . S
H1708 C1729 0.950 . S
H1709 C1732 0.950 . S
H1710 C1733 0.950 . S
H1711 C1735 0.950 . S
H1712 C1736 0.950 . S
H1713 C1737 0.951 . S
H1714 C1739 0.951 . S
H1715 C1741 0.950 . S
H1716 C1742 0.950 . S
H1717 C1744 0.950 . S
H1718 C1747 0.950 . S
H1719 C1748 0.950 . S
H1720 C1750 0.950 . S
H1721 C1751 0.950 . S
C1722 H1704 0.951 . S
C1722 C1723 1.366 . S
C1722 C1724 1.388 . S
C1723 C1722 1.366 . S
C1723 C1727 1.385 . S
C1724 H1705 0.951 . S
C1724 C1722 1.388 . S
C1724 C1725 1.366 . S
C1725 C1724 1.366 . S
C1725 C1726 1.414 . S
C1725 C1728 1.499 . S
C1726 H1706 0.950 . S
C1726 C1725 1.414 . S
C1726 C1727 1.374 . S
C1727 H1707 0.950 . S
C1727 C1723 1.385 . S
C1727 C1726 1.374 . S
C1728 C1725 1.499 . S
C1728 C1729 1.373 . S
C1728 C1730 1.389 . S
C1729 H1708 0.950 . S
C1729 C1728 1.373 . S
C1729 C1745 1.377 . S
C1730 C1728 1.389 . S
C1730 C1731 1.524 . S
C1730 C1744 1.377 . S
C1731 C1730 1.524 . S
C1731 C1732 1.397 . S
C1731 C1736 1.363 . S
C1732 H1709 0.950 . S
C1732 C1731 1.397 . S
C1732 C1733 1.334 . S
C1733 H1710 0.950 . S
C1733 C1732 1.334 . S
C1733 C1734 1.287 . S
C1734 C1733 1.287 . S
C1734 C1735 1.524 . S
C1734 H1753 0.913 . S
C1735 H1711 0.950 . S
C1735 C1734 1.524 . S
C1735 C1736 1.415 . S
C1736 H1712 0.950 . S
C1736 C1731 1.363 . S
C1736 C1735 1.415 . S
C1737 H1713 0.951 . S
C1737 C1738 1.366 . S
C1737 C1739 1.388 . S
C1738 C1737 1.366 . S
C1738 C1742 1.385 . S
C1739 H1714 0.951 . S
C1739 C1737 1.388 . S
C1739 C1740 1.366 . S
C1740 C1739 1.366 . S
C1740 C1741 1.414 . S
C1740 C1743 1.499 . S
C1741 H1715 0.950 . S
C1741 C1740 1.414 . S
C1741 C1742 1.374 . S
C1742 H1716 0.950 . S
C1742 C1738 1.385 . S
C1742 C1741 1.374 . S
C1743 C1740 1.499 . S
C1743 C1744 1.373 . S
C1743 C1745 1.389 . S
C1744 H1717 0.950 . S
C1744 C1730 1.377 . S
C1744 C1743 1.373 . S
C1745 C1729 1.377 . S
C1745 C1743 1.389 . S
C1745 C1746 1.524 . S
C1746 C1745 1.524 . S
C1746 C1747 1.397 . S
C1746 C1751 1.363 . S
C1747 H1718 0.950 . S
C1747 C1746 1.397 . S
C1747 C1748 1.334 . S
C1748 H1719 0.950 . S
C1748 C1747 1.334 . S
C1748 C1749 1.287 . S
C1749 C1748 1.287 . S
C1749 C1750 1.524 . S
C1749 H1752 0.999 . S
C1750 H1720 0.950 . S
C1750 C1749 1.524 . S
C1750 C1751 1.415 . S
C1751 H1721 0.950 . S
C1751 C1746 1.363 . S
C1751 C1750 1.415 . S
H1752 C1749 0.999 . S
H1753 C1734 0.913 . S
H1754 C1772 0.951 . S
H1755 C1774 0.951 . S
H1756 C1776 0.950 . S
H1757 C1777 0.950 . S
H1758 C1779 0.950 . S
H1759 C1782 0.950 . S
H1760 C1783 0.950 . S
H1761 C1785 0.950 . S
H1762 C1786 0.950 . S
H1763 C1787 0.951 . S
H1764 C1789 0.951 . S
H1765 C1791 0.950 . S
H1766 C1792 0.950 . S
H1767 C1794 0.950 . S
H1768 C1797 0.950 . S
H1769 C1798 0.950 . S
H1770 C1800 0.950 . S
H1771 C1801 0.950 . S
C1772 H1754 0.951 . S
C1772 C1773 1.366 . S
C1772 C1774 1.388 . S
C1773 C1772 1.366 . S
C1773 C1777 1.385 . S
C1774 H1755 0.951 . S
C1774 C1772 1.388 . S
C1774 C1775 1.366 . S
C1775 C1774 1.366 . S
C1775 C1776 1.414 . S
C1775 C1778 1.499 . S
C1776 H1756 0.950 . S
C1776 C1775 1.414 . S
C1776 C1777 1.374 . S
C1777 H1757 0.950 . S
C1777 C1773 1.385 . S
C1777 C1776 1.374 . S
C1778 C1775 1.499 . S
C1778 C1779 1.373 . S
C1778 C1780 1.389 . S
C1779 H1758 0.950 . S
C1779 C1778 1.373 . S
C1779 C1795 1.377 . S
C1780 C1778 1.389 . S
C1780 C1781 1.524 . S
C1780 C1794 1.377 . S
C1781 C1780 1.524 . S
C1781 C1782 1.397 . S
C1781 C1786 1.363 . S
C1782 H1759 0.950 . S
C1782 C1781 1.397 . S
C1782 C1783 1.334 . S
C1783 H1760 0.950 . S
C1783 C1782 1.334 . S
C1783 C1784 1.287 . S
C1784 C1783 1.287 . S
C1784 C1785 1.524 . S
C1784 H1803 0.913 . S
C1785 H1761 0.950 . S
C1785 C1784 1.524 . S
C1785 C1786 1.415 . S
C1786 H1762 0.950 . S
C1786 C1781 1.363 . S
C1786 C1785 1.415 . S
C1787 H1763 0.951 . S
C1787 C1788 1.366 . S
C1787 C1789 1.388 . S
C1788 C1787 1.366 . S
C1788 C1792 1.385 . S
C1789 H1764 0.951 . S
C1789 C1787 1.388 . S
C1789 C1790 1.366 . S
C1790 C1789 1.366 . S
C1790 C1791 1.414 . S
C1790 C1793 1.499 . S
C1791 H1765 0.950 . S
C1791 C1790 1.414 . S
C1791 C1792 1.374 . S
C1792 H1766 0.950 . S
C1792 C1788 1.385 . S
C1792 C1791 1.374 . S
C1793 C1790 1.499 . S
C1793 C1794 1.373 . S
C1793 C1795 1.389 . S
C1794 H1767 0.950 . S
C1794 C1780 1.377 . S
C1794 C1793 1.373 . S
C1795 C1779 1.377 . S
C1795 C1793 1.389 . S
C1795 C1796 1.524 . S
C1796 C1795 1.524 . S
C1796 C1797 1.397 . S
C1796 C1801 1.363 . S
C1797 H1768 0.950 . S
C1797 C1796 1.397 . S
C1797 C1798 1.334 . S
C1798 H1769 0.950 . S
C1798 C1797 1.334 . S
C1798 C1799 1.287 . S
C1799 C1798 1.287 . S
C1799 C1800 1.524 . S
C1799 H1802 0.999 . S
C1800 H1770 0.950 . S
C1800 C1799 1.524 . S
C1800 C1801 1.415 . S
C1801 H1771 0.950 . S
C1801 C1796 1.363 . S
C1801 C1800 1.415 . S
H1802 C1799 0.999 . S
H1803 C1784 0.913 . S
H1804 C1822 0.951 . S
H1805 C1824 0.951 . S
H1806 C1826 0.950 . S
H1807 C1827 0.950 . S
H1808 C1829 0.950 . S
H1809 C1832 0.950 . S
H1810 C1833 0.950 . S
H1811 C1835 0.950 . S
H1812 C1836 0.950 . S
H1813 C1837 0.951 . S
H1814 C1839 0.951 . S
H1815 C1841 0.950 . S
H1816 C1842 0.950 . S
H1817 C1844 0.950 . S
H1818 C1847 0.950 . S
H1819 C1848 0.950 . S
H1820 C1850 0.950 . S
H1821 C1851 0.950 . S
C1822 H1804 0.951 . S
C1822 C1823 1.366 . S
C1822 C1824 1.388 . S
C1823 C1822 1.366 . S
C1823 C1827 1.385 . S
C1824 H1805 0.951 . S
C1824 C1822 1.388 . S
C1824 C1825 1.366 . S
C1825 C1824 1.366 . S
C1825 C1826 1.414 . S
C1825 C1828 1.499 . S
C1826 H1806 0.950 . S
C1826 C1825 1.414 . S
C1826 C1827 1.374 . S
C1827 H1807 0.950 . S
C1827 C1823 1.385 . S
C1827 C1826 1.374 . S
C1828 C1825 1.499 . S
C1828 C1829 1.373 . S
C1828 C1830 1.389 . S
C1829 H1808 0.950 . S
C1829 C1828 1.373 . S
C1829 C1845 1.377 . S
C1830 C1828 1.389 . S
C1830 C1831 1.524 . S
C1830 C1844 1.377 . S
C1831 C1830 1.524 . S
C1831 C1832 1.397 . S
C1831 C1836 1.363 . S
C1832 H1809 0.950 . S
C1832 C1831 1.397 . S
C1832 C1833 1.334 . S
C1833 H1810 0.950 . S
C1833 C1832 1.334 . S
C1833 C1834 1.287 . S
C1834 C1833 1.287 . S
C1834 C1835 1.524 . S
C1834 H1853 0.913 . S
C1835 H1811 0.950 . S
C1835 C1834 1.524 . S
C1835 C1836 1.415 . S
C1836 H1812 0.950 . S
C1836 C1831 1.363 . S
C1836 C1835 1.415 . S
C1837 H1813 0.951 . S
C1837 C1838 1.366 . S
C1837 C1839 1.388 . S
C1838 C1837 1.366 . S
C1838 C1842 1.385 . S
C1839 H1814 0.951 . S
C1839 C1837 1.388 . S
C1839 C1840 1.366 . S
C1840 C1839 1.366 . S
C1840 C1841 1.414 . S
C1840 C1843 1.499 . S
C1841 H1815 0.950 . S
C1841 C1840 1.414 . S
C1841 C1842 1.374 . S
C1842 H1816 0.950 . S
C1842 C1838 1.385 . S
C1842 C1841 1.374 . S
C1843 C1840 1.499 . S
C1843 C1844 1.373 . S
C1843 C1845 1.389 . S
C1844 H1817 0.950 . S
C1844 C1830 1.377 . S
C1844 C1843 1.373 . S
C1845 C1829 1.377 . S
C1845 C1843 1.389 . S
C1845 C1846 1.524 . S
C1846 C1845 1.524 . S
C1846 C1847 1.397 . S
C1846 C1851 1.363 . S
C1847 H1818 0.950 . S
C1847 C1846 1.397 . S
C1847 C1848 1.334 . S
C1848 H1819 0.950 . S
C1848 C1847 1.334 . S
C1848 C1849 1.287 . S
C1849 C1848 1.287 . S
C1849 C1850 1.524 . S
C1849 H1852 0.999 . S
C1850 H1820 0.950 . S
C1850 C1849 1.524 . S
C1850 C1851 1.415 . S
C1851 H1821 0.950 . S
C1851 C1846 1.363 . S
C1851 C1850 1.415 . S
H1852 C1849 0.999 . S
H1853 C1834 0.913 . S
H1854 C1872 0.951 . S
H1855 C1874 0.951 . S
H1856 C1876 0.950 . S
H1857 C1877 0.950 . S
H1858 C1879 0.950 . S
H1859 C1882 0.950 . S
H1860 C1883 0.950 . S
H1861 C1885 0.950 . S
H1862 C1886 0.950 . S
H1863 C1887 0.951 . S
H1864 C1889 0.951 . S
H1865 C1891 0.950 . S
H1866 C1892 0.950 . S
H1867 C1894 0.950 . S
H1868 C1897 0.950 . S
H1869 C1898 0.950 . S
H1870 C1900 0.950 . S
H1871 C1901 0.950 . S
C1872 H1854 0.951 . S
C1872 C1873 1.366 . S
C1872 C1874 1.388 1_554 S
C1873 C1872 1.366 . S
C1873 C1877 1.385 . S
C1874 H1855 0.951 . S
C1874 C1872 1.388 1_556 S
C1874 C1875 1.366 . S
C1875 C1874 1.366 . S
C1875 C1876 1.414 . S
C1875 C1878 1.499 . S
C1876 H1856 0.950 . S
C1876 C1875 1.414 . S
C1876 C1877 1.374 1_556 S
C1877 H1857 0.950 . S
C1877 C1873 1.385 . S
C1877 C1876 1.374 1_554 S
C1878 C1875 1.499 . S
C1878 C1879 1.373 . S
C1878 C1880 1.389 . S
C1879 H1858 0.950 . S
C1879 C1878 1.373 . S
C1879 C1895 1.377 . S
C1880 C1878 1.389 . S
C1880 C1881 1.524 . S
C1880 C1894 1.377 . S
C1881 C1880 1.524 . S
C1881 C1882 1.397 . S
C1881 C1886 1.363 . S
C1882 H1859 0.950 . S
C1882 C1881 1.397 . S
C1882 C1883 1.334 . S
C1883 H1860 0.950 . S
C1883 C1882 1.334 . S
C1883 C1884 1.287 . S
C1884 C1883 1.287 . S
C1884 C1885 1.524 . S
C1884 H1903 0.913 . S
C1885 H1861 0.950 . S
C1885 C1884 1.524 . S
C1885 C1886 1.415 . S
C1886 H1862 0.950 . S
C1886 C1881 1.363 . S
C1886 C1885 1.415 . S
C1887 H1863 0.951 . S
C1887 C1888 1.366 . S
C1887 C1889 1.388 . S
C1888 C1887 1.366 . S
C1888 C1892 1.385 . S
C1889 H1864 0.951 . S
C1889 C1887 1.388 . S
C1889 C1890 1.366 . S
C1890 C1889 1.366 . S
C1890 C1891 1.414 . S
C1890 C1893 1.499 . S
C1891 H1865 0.950 . S
C1891 C1890 1.414 . S
C1891 C1892 1.374 . S
C1892 H1866 0.950 . S
C1892 C1888 1.385 . S
C1892 C1891 1.374 . S
C1893 C1890 1.499 . S
C1893 C1894 1.373 . S
C1893 C1895 1.389 . S
C1894 H1867 0.950 . S
C1894 C1880 1.377 . S
C1894 C1893 1.373 . S
C1895 C1879 1.377 . S
C1895 C1893 1.389 . S
C1895 C1896 1.524 . S
C1896 C1895 1.524 . S
C1896 C1897 1.397 . S
C1896 C1901 1.363 . S
C1897 H1868 0.950 . S
C1897 C1896 1.397 . S
C1897 C1898 1.334 . S
C1898 H1869 0.950 . S
C1898 C1897 1.334 . S
C1898 C1899 1.287 . S
C1899 C1898 1.287 . S
C1899 C1900 1.524 . S
C1899 H1902 0.999 . S
C1900 H1870 0.950 . S
C1900 C1899 1.524 . S
C1900 C1901 1.415 . S
C1901 H1871 0.950 . S
C1901 C1896 1.363 . S
C1901 C1900 1.415 . S
H1902 C1899 0.999 . S
H1903 C1884 0.913 . S
H1904 C1922 0.951 . S
H1905 C1924 0.951 . S
H1906 C1926 0.950 . S
H1907 C1927 0.950 . S
H1908 C1929 0.950 . S
H1909 C1932 0.950 . S
H1910 C1933 0.950 . S
H1911 C1935 0.950 . S
H1912 C1936 0.950 . S
H1913 C1937 0.951 . S
H1914 C1939 0.951 . S
H1915 C1941 0.950 . S
H1916 C1942 0.950 . S
H1917 C1944 0.950 . S
H1918 C1947 0.950 . S
H1919 C1948 0.950 . S
H1920 C1950 0.950 . S
H1921 C1951 0.950 . S
C1922 H1904 0.951 . S
C1922 C1923 1.366 1_556 S
C1922 C1924 1.388 . S
C1923 C1922 1.366 1_554 S
C1923 C1927 1.385 . S
C1924 H1905 0.951 . S
C1924 C1922 1.388 . S
C1924 C1925 1.366 . S
C1925 C1924 1.366 . S
C1925 C1926 1.414 . S
C1925 C1928 1.499 . S
C1926 H1906 0.950 . S
C1926 C1925 1.414 . S
C1926 C1927 1.374 1_556 S
C1927 H1907 0.950 . S
C1927 C1923 1.385 . S
C1927 C1926 1.374 1_554 S
C1928 C1925 1.499 . S
C1928 C1929 1.373 . S
C1928 C1930 1.389 . S
C1929 H1908 0.950 . S
C1929 C1928 1.373 . S
C1929 C1945 1.377 . S
C1930 C1928 1.389 . S
C1930 C1931 1.524 . S
C1930 C1944 1.377 . S
C1931 C1930 1.524 . S
C1931 C1932 1.397 . S
C1931 C1936 1.363 . S
C1932 H1909 0.950 . S
C1932 C1931 1.397 . S
C1932 C1933 1.334 . S
C1933 H1910 0.950 . S
C1933 C1932 1.334 . S
C1933 C1934 1.287 . S
C1934 C1933 1.287 . S
C1934 C1935 1.524 . S
C1934 H1953 0.913 . S
C1935 H1911 0.950 . S
C1935 C1934 1.524 . S
C1935 C1936 1.415 . S
C1936 H1912 0.950 . S
C1936 C1931 1.363 . S
C1936 C1935 1.415 . S
C1937 H1913 0.951 . S
C1937 C1938 1.366 . S
C1937 C1939 1.388 . S
C1938 C1937 1.366 . S
C1938 C1942 1.385 . S
C1939 H1914 0.951 . S
C1939 C1937 1.388 . S
C1939 C1940 1.366 . S
C1940 C1939 1.366 . S
C1940 C1941 1.414 . S
C1940 C1943 1.499 . S
C1941 H1915 0.950 . S
C1941 C1940 1.414 . S
C1941 C1942 1.374 . S
C1942 H1916 0.950 . S
C1942 C1938 1.385 . S
C1942 C1941 1.374 . S
C1943 C1940 1.499 . S
C1943 C1944 1.373 . S
C1943 C1945 1.389 . S
C1944 H1917 0.950 . S
C1944 C1930 1.377 . S
C1944 C1943 1.373 . S
C1945 C1929 1.377 . S
C1945 C1943 1.389 . S
C1945 C1946 1.524 . S
C1946 C1945 1.524 . S
C1946 C1947 1.397 . S
C1946 C1951 1.363 . S
C1947 H1918 0.950 . S
C1947 C1946 1.397 . S
C1947 C1948 1.334 . S
C1948 H1919 0.950 . S
C1948 C1947 1.334 . S
C1948 C1949 1.287 . S
C1949 C1948 1.287 . S
C1949 C1950 1.524 . S
C1949 H1952 0.999 . S
C1950 H1920 0.950 . S
C1950 C1949 1.524 . S
C1950 C1951 1.415 . S
C1951 H1921 0.950 . S
C1951 C1946 1.363 . S
C1951 C1950 1.415 . S
H1952 C1949 0.999 . S
H1953 C1934 0.913 . S
H1954 C1972 0.951 . S
H1955 C1974 0.951 . S
H1956 C1976 0.950 . S
H1957 C1977 0.950 . S
H1958 C1979 0.950 . S
H1959 C1982 0.950 . S
H1960 C1983 0.950 . S
H1961 C1985 0.950 . S
H1962 C1986 0.950 . S
H1963 C1987 0.951 . S
H1964 C1989 0.951 . S
H1965 C1991 0.950 . S
H1966 C1992 0.950 . S
H1967 C1994 0.950 . S
H1968 C1997 0.950 . S
H1969 C1998 0.950 . S
H1970 C2000 0.950 . S
H1971 C2001 0.950 . S
C1972 H1954 0.951 . S
C1972 C1973 1.366 . S
C1972 C1974 1.388 . S
C1973 C1972 1.366 . S
C1973 C1977 1.385 . S
C1974 H1955 0.951 . S
C1974 C1972 1.388 . S
C1974 C1975 1.366 . S
C1975 C1974 1.366 . S
C1975 C1976 1.414 . S
C1975 C1978 1.499 . S
C1976 H1956 0.950 . S
C1976 C1975 1.414 . S
C1976 C1977 1.374 . S
C1977 H1957 0.950 . S
C1977 C1973 1.385 . S
C1977 C1976 1.374 . S
C1978 C1975 1.499 . S
C1978 C1979 1.373 . S
C1978 C1980 1.389 . S
C1979 H1958 0.950 . S
C1979 C1978 1.373 . S
C1979 C1995 1.377 . S
C1980 C1978 1.389 . S
C1980 C1981 1.524 . S
C1980 C1994 1.377 . S
C1981 C1980 1.524 . S
C1981 C1982 1.397 . S
C1981 C1986 1.363 . S
C1982 H1959 0.950 . S
C1982 C1981 1.397 . S
C1982 C1983 1.334 . S
C1983 H1960 0.950 . S
C1983 C1982 1.334 . S
C1983 C1984 1.287 . S
C1984 C1983 1.287 . S
C1984 C1985 1.524 . S
C1984 H2003 0.913 . S
C1985 H1961 0.950 . S
C1985 C1984 1.524 . S
C1985 C1986 1.415 . S
C1986 H1962 0.950 . S
C1986 C1981 1.363 . S
C1986 C1985 1.415 . S
C1987 H1963 0.951 . S
C1987 C1988 1.366 1_556 S
C1987 C1989 1.388 . S
C1988 C1987 1.366 1_554 S
C1988 C1992 1.385 . S
C1989 H1964 0.951 . S
C1989 C1987 1.388 . S
C1989 C1990 1.366 . S
C1990 C1989 1.366 . S
C1990 C1991 1.414 . S
C1990 C1993 1.499 . S
C1991 H1965 0.950 . S
C1991 C1990 1.414 . S
C1991 C1992 1.374 1_556 S
C1992 H1966 0.950 . S
C1992 C1988 1.385 . S
C1992 C1991 1.374 1_554 S
C1993 C1990 1.499 . S
C1993 C1994 1.373 . S
C1993 C1995 1.389 . S
C1994 H1967 0.950 . S
C1994 C1980 1.377 . S
C1994 C1993 1.373 . S
C1995 C1979 1.377 . S
C1995 C1993 1.389 . S
C1995 C1996 1.524 . S
C1996 C1995 1.524 . S
C1996 C1997 1.397 . S
C1996 C2001 1.363 . S
C1997 H1968 0.950 . S
C1997 C1996 1.397 . S
C1997 C1998 1.334 . S
C1998 H1969 0.950 . S
C1998 C1997 1.334 . S
C1998 C1999 1.287 . S
C1999 C1998 1.287 . S
C1999 C2000 1.524 . S
C1999 H2002 0.999 . S
C2000 H1970 0.950 . S
C2000 C1999 1.524 . S
C2000 C2001 1.415 . S
C2001 H1971 0.950 . S
C2001 C1996 1.363 . S
C2001 C2000 1.415 . S
H2002 C1999 0.999 . S
H2003 C1984 0.913 . S
H2004 C2022 0.951 . S
H2005 C2024 0.951 . S
H2006 C2026 0.950 . S
H2007 C2027 0.950 . S
H2008 C2029 0.950 . S
H2009 C2032 0.950 1_655 S
H2010 C2033 0.950 . S
H2011 C2035 0.950 . S
H2012 C2036 0.950 . S
H2013 C2037 0.951 . S
H2014 C2039 0.951 . S
H2015 C2041 0.950 . S
H2016 C2042 0.950 . S
H2017 C2044 0.950 . S
H2018 C2047 0.950 1_455 S
H2019 C2048 0.950 . S
H2020 C2050 0.950 . S
H2021 C2051 0.950 . S
C2022 H2004 0.951 . S
C2022 C2023 1.366 . S
C2022 C2024 1.388 . S
C2023 C2022 1.366 . S
C2023 C2027 1.385 . S
C2024 H2005 0.951 . S
C2024 C2022 1.388 . S
C2024 C2025 1.366 . S
C2025 C2024 1.366 . S
C2025 C2026 1.414 . S
C2025 C2028 1.499 . S
C2026 H2006 0.950 . S
C2026 C2025 1.414 . S
C2026 C2027 1.374 . S
C2027 H2007 0.950 . S
C2027 C2023 1.385 . S
C2027 C2026 1.374 . S
C2028 C2025 1.499 . S
C2028 C2029 1.373 . S
C2028 C2030 1.389 . S
C2029 H2008 0.950 . S
C2029 C2028 1.373 . S
C2029 C2045 1.377 1_455 S
C2030 C2028 1.389 . S
C2030 C2031 1.524 . S
C2030 C2044 1.377 1_455 S
C2031 C2030 1.524 . S
C2031 C2032 1.397 . S
C2031 C2036 1.363 . S
C2032 H2009 0.950 1_455 S
C2032 C2031 1.397 . S
C2032 C2033 1.334 . S
C2033 H2010 0.950 . S
C2033 C2032 1.334 . S
C2033 C2034 1.287 . S
C2034 C2033 1.287 . S
C2034 C2035 1.524 . S
C2034 H2053 0.913 . S
C2035 H2011 0.950 . S
C2035 C2034 1.524 . S
C2035 C2036 1.415 . S
C2036 H2012 0.950 . S
C2036 C2031 1.363 . S
C2036 C2035 1.415 . S
C2037 H2013 0.951 . S
C2037 C2038 1.366 . S
C2037 C2039 1.388 . S
C2038 C2037 1.366 . S
C2038 C2042 1.385 . S
C2039 H2014 0.951 . S
C2039 C2037 1.388 . S
C2039 C2040 1.366 . S
C2040 C2039 1.366 . S
C2040 C2041 1.414 . S
C2040 C2043 1.499 . S
C2041 H2015 0.950 . S
C2041 C2040 1.414 . S
C2041 C2042 1.374 . S
C2042 H2016 0.950 . S
C2042 C2038 1.385 . S
C2042 C2041 1.374 . S
C2043 C2040 1.499 . S
C2043 C2044 1.373 . S
C2043 C2045 1.389 . S
C2044 H2017 0.950 . S
C2044 C2030 1.377 1_655 S
C2044 C2043 1.373 . S
C2045 C2029 1.377 1_655 S
C2045 C2043 1.389 . S
C2045 C2046 1.524 . S
C2046 C2045 1.524 . S
C2046 C2047 1.397 . S
C2046 C2051 1.363 . S
C2047 H2018 0.950 1_655 S
C2047 C2046 1.397 . S
C2047 C2048 1.334 . S
C2048 H2019 0.950 . S
C2048 C2047 1.334 . S
C2048 C2049 1.287 . S
C2049 C2048 1.287 . S
C2049 C2050 1.524 . S
C2049 H2052 0.999 . S
C2050 H2020 0.950 . S
C2050 C2049 1.524 . S
C2050 C2051 1.415 . S
C2051 H2021 0.950 . S
C2051 C2046 1.363 . S
C2051 C2050 1.415 . S
H2052 C2049 0.999 . S
H2053 C2034 0.913 . S
H2054 C2072 0.951 . S
H2055 C2074 0.951 . S
H2056 C2076 0.950 . S
H2057 C2077 0.950 . S
H2058 C2079 0.950 . S
H2059 C2082 0.950 . S
H2060 C2083 0.950 . S
H2061 C2085 0.950 . S
H2062 C2086 0.950 . S
H2063 C2087 0.951 . S
H2064 C2089 0.951 . S
H2065 C2091 0.950 . S
H2066 C2092 0.950 . S
H2067 C2094 0.950 . S
H2068 C2097 0.950 . S
H2069 C2098 0.950 . S
H2070 C2100 0.950 . S
H2071 C2101 0.950 . S
C2072 H2054 0.951 . S
C2072 C2073 1.366 . S
C2072 C2074 1.388 . S
C2073 C2072 1.366 . S
C2073 C2077 1.385 . S
C2074 H2055 0.951 . S
C2074 C2072 1.388 . S
C2074 C2075 1.366 . S
C2075 C2074 1.366 . S
C2075 C2076 1.414 . S
C2075 C2078 1.499 . S
C2076 H2056 0.950 . S
C2076 C2075 1.414 . S
C2076 C2077 1.374 . S
C2077 H2057 0.950 . S
C2077 C2073 1.385 . S
C2077 C2076 1.374 . S
C2078 C2075 1.499 . S
C2078 C2079 1.373 . S
C2078 C2080 1.389 . S
C2079 H2058 0.950 . S
C2079 C2078 1.373 . S
C2079 C2095 1.377 . S
C2080 C2078 1.389 . S
C2080 C2081 1.524 . S
C2080 C2094 1.377 . S
C2081 C2080 1.524 . S
C2081 C2082 1.397 . S
C2081 C2086 1.363 . S
C2082 H2059 0.950 . S
C2082 C2081 1.397 . S
C2082 C2083 1.334 . S
C2083 H2060 0.950 . S
C2083 C2082 1.334 . S
C2083 C2084 1.287 . S
C2084 C2083 1.287 . S
C2084 C2085 1.524 . S
C2084 H2103 0.913 . S
C2085 H2061 0.950 . S
C2085 C2084 1.524 . S
C2085 C2086 1.415 . S
C2086 H2062 0.950 . S
C2086 C2081 1.363 . S
C2086 C2085 1.415 . S
C2087 H2063 0.951 . S
C2087 C2088 1.366 . S
C2087 C2089 1.388 . S
C2088 C2087 1.366 . S
C2088 C2092 1.385 . S
C2089 H2064 0.951 . S
C2089 C2087 1.388 . S
C2089 C2090 1.366 . S
C2090 C2089 1.366 . S
C2090 C2091 1.414 . S
C2090 C2093 1.499 . S
C2091 H2065 0.950 . S
C2091 C2090 1.414 . S
C2091 C2092 1.374 . S
C2092 H2066 0.950 . S
C2092 C2088 1.385 . S
C2092 C2091 1.374 . S
C2093 C2090 1.499 . S
C2093 C2094 1.373 . S
C2093 C2095 1.389 . S
C2094 H2067 0.950 . S
C2094 C2080 1.377 . S
C2094 C2093 1.373 . S
C2095 C2079 1.377 . S
C2095 C2093 1.389 . S
C2095 C2096 1.524 . S
C2096 C2095 1.524 . S
C2096 C2097 1.397 . S
C2096 C2101 1.363 . S
C2097 H2068 0.950 . S
C2097 C2096 1.397 . S
C2097 C2098 1.334 . S
C2098 H2069 0.950 . S
C2098 C2097 1.334 . S
C2098 C2099 1.287 . S
C2099 C2098 1.287 . S
C2099 C2100 1.524 . S
C2099 H2102 0.999 . S
C2100 H2070 0.950 . S
C2100 C2099 1.524 . S
C2100 C2101 1.415 . S
C2101 H2071 0.950 . S
C2101 C2096 1.363 . S
C2101 C2100 1.415 . S
H2102 C2099 0.999 . S
H2103 C2084 0.913 . S
H2104 C2122 0.951 . S
H2105 C2124 0.951 . S
H2106 C2126 0.950 . S
H2107 C2127 0.950 . S
H2108 C2129 0.950 . S
H2109 C2132 0.879 1_565 S
H2110 C2133 0.950 . S
H2111 C2135 0.950 . S
H2112 C2136 0.950 . S
H2113 C2137 0.951 . S
H2114 C2139 0.951 . S
H2115 C2141 0.950 . S
H2116 C2142 0.950 . S
H2117 C2144 0.950 . S
H2118 C2147 0.882 1_545 S
H2119 C2148 0.950 . S
H2120 C2150 0.950 . S
H2121 C2151 0.950 . S
C2122 H2104 0.951 . S
C2122 C2123 1.366 . S
C2122 C2124 1.388 . S
C2123 C2122 1.366 . S
C2123 C2127 1.385 . S
C2124 H2105 0.951 . S
C2124 C2122 1.388 . S
C2124 C2125 1.366 . S
C2125 C2124 1.366 . S
C2125 C2126 1.414 . S
C2125 C2128 1.499 . S
C2126 H2106 0.950 . S
C2126 C2125 1.414 . S
C2126 C2127 1.374 . S
C2127 H2107 0.950 . S
C2127 C2123 1.385 . S
C2127 C2126 1.374 . S
C2128 C2125 1.499 . S
C2128 C2129 1.373 . S
C2128 C2130 1.389 . S
C2129 H2108 0.950 . S
C2129 C2128 1.373 . S
C2129 C2145 1.377 1_545 S
C2130 C2128 1.389 . S
C2130 C2131 1.524 . S
C2130 C2144 1.377 1_545 S
C2131 C2130 1.524 . S
C2131 C2132 1.397 . S
C2131 C2136 1.363 . S
C2132 H2109 0.879 1_545 S
C2132 C2131 1.397 . S
C2132 C2133 1.334 . S
C2133 H2110 0.950 . S
C2133 C2132 1.334 . S
C2133 C2134 1.287 . S
C2134 C2133 1.287 . S
C2134 C2135 1.524 . S
C2134 H2153 0.913 . S
C2135 H2111 0.950 . S
C2135 C2134 1.524 . S
C2135 C2136 1.415 . S
C2136 H2112 0.950 . S
C2136 C2131 1.363 . S
C2136 C2135 1.415 . S
C2137 H2113 0.951 . S
C2137 C2138 1.366 . S
C2137 C2139 1.388 . S
C2138 C2137 1.366 . S
C2138 C2142 1.385 . S
C2139 H2114 0.951 . S
C2139 C2137 1.388 . S
C2139 C2140 1.366 . S
C2140 C2139 1.366 . S
C2140 C2141 1.414 . S
C2140 C2143 1.499 . S
C2141 H2115 0.950 . S
C2141 C2140 1.414 . S
C2141 C2142 1.374 . S
C2142 H2116 0.950 . S
C2142 C2138 1.385 . S
C2142 C2141 1.374 . S
C2143 C2140 1.499 . S
C2143 C2144 1.373 . S
C2143 C2145 1.389 . S
C2144 H2117 0.950 . S
C2144 C2130 1.377 1_565 S
C2144 C2143 1.373 . S
C2145 C2129 1.377 1_565 S
C2145 C2143 1.389 . S
C2145 C2146 1.524 . S
C2146 C2145 1.524 . S
C2146 C2147 1.397 . S
C2146 C2151 1.363 . S
C2147 H2118 0.882 1_565 S
C2147 C2146 1.397 . S
C2147 C2148 1.334 . S
C2148 H2119 0.950 . S
C2148 C2147 1.334 . S
C2148 C2149 1.287 . S
C2149 C2148 1.287 . S
C2149 C2150 1.524 . S
C2149 H2152 0.999 . S
C2150 H2120 0.950 . S
C2150 C2149 1.524 . S
C2150 C2151 1.415 . S
C2151 H2121 0.950 . S
C2151 C2146 1.363 . S
C2151 C2150 1.415 . S
H2152 C2149 0.999 . S
H2153 C2134 0.913 . S
H2154 C2172 0.951 . S
H2155 C2174 0.951 . S
H2156 C2176 1.013 . S
H2157 C2177 0.950 . S
H2158 C2179 0.950 . S
H2159 C2182 0.950 . S
H2160 C2183 0.950 . S
H2161 C2185 0.950 . S
H2162 C2186 0.950 . S
H2163 C2187 0.951 . S
H2164 C2189 0.951 . S
H2165 C2191 1.017 . S
H2166 C2192 0.950 . S
H2167 C2194 0.950 . S
H2168 C2197 0.950 . S
H2169 C2198 0.950 . S
H2170 C2200 0.950 . S
H2171 C2201 0.950 . S
C2172 H2154 0.951 . S
C2172 C2173 1.366 . S
C2172 C2174 1.388 . S
C2173 C2172 1.366 . S
C2173 C2177 1.385 . S
C2174 H2155 0.951 . S
C2174 C2172 1.388 . S
C2174 C2175 1.366 . S
C2175 C2174 1.366 . S
C2175 C2176 1.414 . S
C2175 C2178 1.499 . S
C2176 H2156 1.013 . S
C2176 C2175 1.414 . S
C2176 C2177 1.374 . S
C2177 H2157 0.950 . S
C2177 C2173 1.385 . S
C2177 C2176 1.374 . S
C2178 C2175 1.499 . S
C2178 C2179 1.373 1_565 S
C2178 C2180 1.389 . S
C2179 H2158 0.950 . S
C2179 C2178 1.373 1_545 S
C2179 C2195 1.377 . S
C2180 C2178 1.389 . S
C2180 C2181 1.524 . S
C2180 C2194 1.377 . S
C2181 C2180 1.524 . S
C2181 C2182 1.397 . S
C2181 C2186 1.363 . S
C2182 H2159 0.950 . S
C2182 C2181 1.397 . S
C2182 C2183 1.334 . S
C2183 H2160 0.950 . S
C2183 C2182 1.334 . S
C2183 C2184 1.287 . S
C2184 C2183 1.287 . S
C2184 C2185 1.524 . S
C2184 H2203 0.913 . S
C2185 H2161 0.950 . S
C2185 C2184 1.524 . S
C2185 C2186 1.415 . S
C2186 H2162 0.950 . S
C2186 C2181 1.363 . S
C2186 C2185 1.415 . S
C2187 H2163 0.951 . S
C2187 C2188 1.366 . S
C2187 C2189 1.388 . S
C2188 C2187 1.366 . S
C2188 C2192 1.385 . S
C2189 H2164 0.951 . S
C2189 C2187 1.388 . S
C2189 C2190 1.366 . S
C2190 C2189 1.366 . S
C2190 C2191 1.414 . S
C2190 C2193 1.499 . S
C2191 H2165 1.017 . S
C2191 C2190 1.414 . S
C2191 C2192 1.374 . S
C2192 H2166 0.950 . S
C2192 C2188 1.385 . S
C2192 C2191 1.374 . S
C2193 C2190 1.499 . S
C2193 C2194 1.373 1_545 S
C2193 C2195 1.389 . S
C2194 H2167 0.950 . S
C2194 C2180 1.377 . S
C2194 C2193 1.373 1_565 S
C2195 C2179 1.377 . S
C2195 C2193 1.389 . S
C2195 C2196 1.524 . S
C2196 C2195 1.524 . S
C2196 C2197 1.397 . S
C2196 C2201 1.363 . S
C2197 H2168 0.950 . S
C2197 C2196 1.397 . S
C2197 C2198 1.334 . S
C2198 H2169 0.950 . S
C2198 C2197 1.334 . S
C2198 C2199 1.287 . S
C2199 C2198 1.287 . S
C2199 C2200 1.524 . S
C2199 H2202 0.999 . S
C2200 H2170 0.950 . S
C2200 C2199 1.524 . S
C2200 C2201 1.415 . S
C2201 H2171 0.950 . S
C2201 C2196 1.363 . S
C2201 C2200 1.415 . S
H2202 C2199 0.999 . S
H2203 C2184 0.913 . S
H2204 C2222 0.951 . S
H2205 C2224 0.992 . S
H2206 C2226 0.950 . S
H2207 C2227 0.950 . S
H2208 C2229 0.950 . S
H2209 C2232 0.950 . S
H2210 C2233 0.950 . S
H2211 C2235 0.950 . S
H2212 C2236 0.950 . S
H2213 C2237 0.951 . S
H2214 C2239 0.995 . S
H2215 C2241 0.950 . S
H2216 C2242 0.950 . S
H2217 C2244 0.950 . S
H2218 C2247 0.950 . S
H2219 C2248 0.950 . S
H2220 C2250 0.950 . S
H2221 C2251 0.950 . S
C2222 H2204 0.951 . S
C2222 C2223 1.366 . S
C2222 C2224 1.388 . S
C2223 C2222 1.366 . S
C2223 C2227 1.385 . S
C2224 H2205 0.992 . S
C2224 C2222 1.388 . S
C2224 C2225 1.366 . S
C2225 C2224 1.366 . S
C2225 C2226 1.414 . S
C2225 C2228 1.499 . S
C2226 H2206 0.950 . S
C2226 C2225 1.414 . S
C2226 C2227 1.374 . S
C2227 H2207 0.950 . S
C2227 C2223 1.385 . S
C2227 C2226 1.374 . S
C2228 C2225 1.499 . S
C2228 C2229 1.373 . S
C2228 C2230 1.384 1_655 S
C2229 H2208 0.950 . S
C2229 C2228 1.373 . S
C2229 C2245 1.396 . S
C2230 C2228 1.384 1_455 S
C2230 C2231 1.543 . S
C2230 C2244 1.398 . S
C2231 C2230 1.543 . S
C2231 C2232 1.315 1_455 S
C2231 C2236 1.410 . S
C2232 H2209 0.950 . S
C2232 C2231 1.315 1_655 S
C2232 C2233 1.334 . S
C2233 H2210 0.950 . S
C2233 C2232 1.334 . S
C2233 C2234 1.287 . S
C2234 C2233 1.287 . S
C2234 C2235 1.524 1_655 S
C2234 H2253 0.913 . S
C2235 H2211 0.950 . S
C2235 C2234 1.524 1_455 S
C2235 C2236 1.415 . S
C2236 H2212 0.950 . S
C2236 C2231 1.410 . S
C2236 C2235 1.415 . S
C2237 H2213 0.951 . S
C2237 C2238 1.366 . S
C2237 C2239 1.388 . S
C2238 C2237 1.366 . S
C2238 C2242 1.385 . S
C2239 H2214 0.995 . S
C2239 C2237 1.388 . S
C2239 C2240 1.366 . S
C2240 C2239 1.366 . S
C2240 C2241 1.414 . S
C2240 C2243 1.499 . S
C2241 H2215 0.950 . S
C2241 C2240 1.414 . S
C2241 C2242 1.374 . S
C2242 H2216 0.950 . S
C2242 C2238 1.385 . S
C2242 C2241 1.374 . S
C2243 C2240 1.499 . S
C2243 C2244 1.373 . S
C2243 C2245 1.384 1_455 S
C2244 H2217 0.950 . S
C2244 C2230 1.398 . S
C2244 C2243 1.373 . S
C2245 C2229 1.396 . S
C2245 C2243 1.384 1_655 S
C2245 C2246 1.543 . S
C2246 C2245 1.543 . S
C2246 C2247 1.319 1_655 S
C2246 C2251 1.407 . S
C2247 H2218 0.950 . S
C2247 C2246 1.319 1_455 S
C2247 C2248 1.334 . S
C2248 H2219 0.950 . S
C2248 C2247 1.334 . S
C2248 C2249 1.287 . S
C2249 C2248 1.287 . S
C2249 C2250 1.524 1_455 S
C2249 H2252 0.999 . S
C2250 H2220 0.950 . S
C2250 C2249 1.524 1_655 S
C2250 C2251 1.415 . S
C2251 H2221 0.950 . S
C2251 C2246 1.407 . S
C2251 C2250 1.415 . S
H2252 C2249 0.999 . S
H2253 C2234 0.913 . S
H2254 C2272 0.951 . S
H2255 C2274 0.951 . S
H2256 C2276 0.950 . S
H2257 C2277 0.950 . S
H2258 C2279 0.950 . S
H2259 C2282 0.950 . S
H2260 C2283 0.950 . S
H2261 C2285 0.950 . S
H2262 C2286 0.950 . S
H2263 C2287 0.951 . S
H2264 C2289 0.951 . S
H2265 C2291 0.950 . S
H2266 C2292 0.950 . S
H2267 C2294 0.950 . S
H2268 C2297 0.950 . S
H2269 C2298 0.950 . S
H2270 C2300 0.950 . S
H2271 C2301 0.950 . S
C2272 H2254 0.951 . S
C2272 C2273 1.366 . S
C2272 C2274 1.388 . S
C2273 C2272 1.366 . S
C2273 C2277 1.385 . S
C2274 H2255 0.951 . S
C2274 C2272 1.388 . S
C2274 C2275 1.366 . S
C2275 C2274 1.366 . S
C2275 C2276 1.414 . S
C2275 C2278 1.499 . S
C2276 H2256 0.950 . S
C2276 C2275 1.414 . S
C2276 C2277 1.374 . S
C2277 H2257 0.950 . S
C2277 C2273 1.385 . S
C2277 C2276 1.374 . S
C2278 C2275 1.499 . S
C2278 C2279 1.373 . S
C2278 C2280 1.389 . S
C2279 H2258 0.950 . S
C2279 C2278 1.373 . S
C2279 C2295 1.377 . S
C2280 C2278 1.389 . S
C2280 C2281 1.524 . S
C2280 C2294 1.377 . S
C2281 C2280 1.524 . S
C2281 C2282 1.397 . S
C2281 C2286 1.363 . S
C2282 H2259 0.950 . S
C2282 C2281 1.397 . S
C2282 C2283 1.334 . S
C2283 H2260 0.950 . S
C2283 C2282 1.334 . S
C2283 C2284 1.287 . S
C2284 C2283 1.287 . S
C2284 C2285 1.524 . S
C2284 H2303 0.913 . S
C2285 H2261 0.950 . S
C2285 C2284 1.524 . S
C2285 C2286 1.415 . S
C2286 H2262 0.950 . S
C2286 C2281 1.363 . S
C2286 C2285 1.415 . S
C2287 H2263 0.951 . S
C2287 C2288 1.366 . S
C2287 C2289 1.388 . S
C2288 C2287 1.366 . S
C2288 C2292 1.385 . S
C2289 H2264 0.951 . S
C2289 C2287 1.388 . S
C2289 C2290 1.366 . S
C2290 C2289 1.366 . S
C2290 C2291 1.414 . S
C2290 C2293 1.499 . S
C2291 H2265 0.950 . S
C2291 C2290 1.414 . S
C2291 C2292 1.374 . S
C2292 H2266 0.950 . S
C2292 C2288 1.385 . S
C2292 C2291 1.374 . S
C2293 C2290 1.499 . S
C2293 C2294 1.373 . S
C2293 C2295 1.389 . S
C2294 H2267 0.950 . S
C2294 C2280 1.377 . S
C2294 C2293 1.373 . S
C2295 C2279 1.377 . S
C2295 C2293 1.389 . S
C2295 C2296 1.524 . S
C2296 C2295 1.524 . S
C2296 C2297 1.397 . S
C2296 C2301 1.363 . S
C2297 H2268 0.950 . S
C2297 C2296 1.397 . S
C2297 C2298 1.334 . S
C2298 H2269 0.950 . S
C2298 C2297 1.334 . S
C2298 C2299 1.287 . S
C2299 C2298 1.287 . S
C2299 C2300 1.524 . S
C2299 H2302 0.999 . S
C2300 H2270 0.950 . S
C2300 C2299 1.524 . S
C2300 C2301 1.415 . S
C2301 H2271 0.950 . S
C2301 C2296 1.363 . S
C2301 C2300 1.415 . S
H2302 C2299 0.999 . S
H2303 C2284 0.913 . S
H2304 C2322 0.951 . S
H2305 C2324 0.951 . S
H2306 C2326 0.950 . S
H2307 C2327 0.950 . S
H2308 C2329 0.950 . S
H2309 C2332 0.950 . S
H2310 C2333 0.950 . S
H2311 C2335 0.950 . S
H2312 C2336 0.950 . S
H2313 C2337 0.951 . S
H2314 C2339 0.951 . S
H2315 C2341 0.950 . S
H2316 C2342 0.950 . S
H2317 C2344 0.950 . S
H2318 C2347 0.950 . S
H2319 C2348 0.950 . S
H2320 C2350 0.950 . S
H2321 C2351 0.950 . S
C2322 H2304 0.951 . S
C2322 C2323 1.366 . S
C2322 C2324 1.388 . S
C2323 C2322 1.366 . S
C2323 C2327 1.385 . S
C2324 H2305 0.951 . S
C2324 C2322 1.388 . S
C2324 C2325 1.366 . S
C2325 C2324 1.366 . S
C2325 C2326 1.414 . S
C2325 C2328 1.499 . S
C2326 H2306 0.950 . S
C2326 C2325 1.414 . S
C2326 C2327 1.374 . S
C2327 H2307 0.950 . S
C2327 C2323 1.385 . S
C2327 C2326 1.374 . S
C2328 C2325 1.499 . S
C2328 C2329 1.373 . S
C2328 C2330 1.389 . S
C2329 H2308 0.950 . S
C2329 C2328 1.373 . S
C2329 C2345 1.377 . S
C2330 C2328 1.389 . S
C2330 C2331 1.524 . S
C2330 C2344 1.377 . S
C2331 C2330 1.524 . S
C2331 C2332 1.397 . S
C2331 C2336 1.363 . S
C2332 H2309 0.950 . S
C2332 C2331 1.397 . S
C2332 C2333 1.334 . S
C2333 H2310 0.950 . S
C2333 C2332 1.334 . S
C2333 C2334 1.287 . S
C2334 C2333 1.287 . S
C2334 C2335 1.524 . S
C2334 H2353 0.913 . S
C2335 H2311 0.950 . S
C2335 C2334 1.524 . S
C2335 C2336 1.415 . S
C2336 H2312 0.950 . S
C2336 C2331 1.363 . S
C2336 C2335 1.415 . S
C2337 H2313 0.951 . S
C2337 C2338 1.366 . S
C2337 C2339 1.388 . S
C2338 C2337 1.366 . S
C2338 C2342 1.385 . S
C2339 H2314 0.951 . S
C2339 C2337 1.388 . S
C2339 C2340 1.366 . S
C2340 C2339 1.366 . S
C2340 C2341 1.414 . S
C2340 C2343 1.499 . S
C2341 H2315 0.950 . S
C2341 C2340 1.414 . S
C2341 C2342 1.374 . S
C2342 H2316 0.950 . S
C2342 C2338 1.385 . S
C2342 C2341 1.374 . S
C2343 C2340 1.499 . S
C2343 C2344 1.373 . S
C2343 C2345 1.389 . S
C2344 H2317 0.950 . S
C2344 C2330 1.377 . S
C2344 C2343 1.373 . S
C2345 C2329 1.377 . S
C2345 C2343 1.389 . S
C2345 C2346 1.524 . S
C2346 C2345 1.524 . S
C2346 C2347 1.397 . S
C2346 C2351 1.363 . S
C2347 H2318 0.950 . S
C2347 C2346 1.397 . S
C2347 C2348 1.334 . S
C2348 H2319 0.950 . S
C2348 C2347 1.334 . S
C2348 C2349 1.287 . S
C2349 C2348 1.287 . S
C2349 C2350 1.524 . S
C2349 H2352 0.999 . S
C2350 H2320 0.950 . S
C2350 C2349 1.524 . S
C2350 C2351 1.415 . S
C2351 H2321 0.950 . S
C2351 C2346 1.363 . S
C2351 C2350 1.415 . S
H2352 C2349 0.999 . S
H2353 C2334 0.913 . S
H2354 C2372 0.951 . S
H2355 C2374 0.951 . S
H2356 C2376 0.950 . S
H2357 C2377 0.950 . S
H2358 C2379 0.950 . S
H2359 C2382 0.950 . S
H2360 C2383 0.950 . S
H2361 C2385 0.950 . S
H2362 C2386 0.950 . S
H2363 C2387 0.951 . S
H2364 C2389 0.951 . S
H2365 C2391 0.950 . S
H2366 C2392 0.950 . S
H2367 C2394 0.950 . S
H2368 C2397 0.950 . S
H2369 C2398 0.950 . S
H2370 C2400 0.950 . S
H2371 C2401 0.950 . S
C2372 H2354 0.951 . S
C2372 C2373 1.366 . S
C2372 C2374 1.388 . S
C2373 C2372 1.366 . S
C2373 C2377 1.385 . S
C2374 H2355 0.951 . S
C2374 C2372 1.388 . S
C2374 C2375 1.366 . S
C2375 C2374 1.366 . S
C2375 C2376 1.414 . S
C2375 C2378 1.499 . S
C2376 H2356 0.950 . S
C2376 C2375 1.414 . S
C2376 C2377 1.374 . S
C2377 H2357 0.950 . S
C2377 C2373 1.385 . S
C2377 C2376 1.374 . S
C2378 C2375 1.499 . S
C2378 C2379 1.373 . S
C2378 C2380 1.389 . S
C2379 H2358 0.950 . S
C2379 C2378 1.373 . S
C2379 C2395 1.377 . S
C2380 C2378 1.389 . S
C2380 C2381 1.524 . S
C2380 C2394 1.377 . S
C2381 C2380 1.524 . S
C2381 C2382 1.397 . S
C2381 C2386 1.363 . S
C2382 H2359 0.950 . S
C2382 C2381 1.397 . S
C2382 C2383 1.334 . S
C2383 H2360 0.950 . S
C2383 C2382 1.334 . S
C2383 C2384 1.287 . S
C2384 C2383 1.287 . S
C2384 C2385 1.524 . S
C2384 H2403 0.913 . S
C2385 H2361 0.950 . S
C2385 C2384 1.524 . S
C2385 C2386 1.415 . S
C2386 H2362 0.950 . S
C2386 C2381 1.363 . S
C2386 C2385 1.415 . S
C2387 H2363 0.951 . S
C2387 C2388 1.366 . S
C2387 C2389 1.388 . S
C2388 C2387 1.366 . S
C2388 C2392 1.385 . S
C2389 H2364 0.951 . S
C2389 C2387 1.388 . S
C2389 C2390 1.366 . S
C2390 C2389 1.366 . S
C2390 C2391 1.414 . S
C2390 C2393 1.499 . S
C2391 H2365 0.950 . S
C2391 C2390 1.414 . S
C2391 C2392 1.374 . S
C2392 H2366 0.950 . S
C2392 C2388 1.385 . S
C2392 C2391 1.374 . S
C2393 C2390 1.499 . S
C2393 C2394 1.373 . S
C2393 C2395 1.389 . S
C2394 H2367 0.950 . S
C2394 C2380 1.377 . S
C2394 C2393 1.373 . S
C2395 C2379 1.377 . S
C2395 C2393 1.389 . S
C2395 C2396 1.524 . S
C2396 C2395 1.524 . S
C2396 C2397 1.397 . S
C2396 C2401 1.363 . S
C2397 H2368 0.950 . S
C2397 C2396 1.397 . S
C2397 C2398 1.334 . S
C2398 H2369 0.950 . S
C2398 C2397 1.334 . S
C2398 C2399 1.287 . S
C2399 C2398 1.287 . S
C2399 C2400 1.524 . S
C2399 H2402 0.999 . S
C2400 H2370 0.950 . S
C2400 C2399 1.524 . S
C2400 C2401 1.415 . S
C2401 H2371 0.950 . S
C2401 C2396 1.363 . S
C2401 C2400 1.415 . S
H2402 C2399 0.999 . S
H2403 C2384 0.913 . S
H2404 C2422 0.951 . S
H2405 C2424 0.951 . S
H2406 C2426 0.950 . S
H2407 C2427 0.950 . S
H2408 C2429 0.950 . S
H2409 C2432 0.950 . S
H2410 C2433 0.950 . S
H2411 C2435 0.950 . S
H2412 C2436 0.950 . S
H2413 C2437 0.951 . S
H2414 C2439 0.951 . S
H2415 C2441 0.950 . S
H2416 C2442 0.950 . S
H2417 C2444 0.950 . S
H2418 C2447 0.950 . S
H2419 C2448 0.950 . S
H2420 C2450 0.950 . S
H2421 C2451 0.950 . S
C2422 H2404 0.951 . S
C2422 C2423 1.366 . S
C2422 C2424 1.388 . S
C2423 C2422 1.366 . S
C2423 C2427 1.385 . S
C2424 H2405 0.951 . S
C2424 C2422 1.388 . S
C2424 C2425 1.366 . S
C2425 C2424 1.366 . S
C2425 C2426 1.414 . S
C2425 C2428 1.499 . S
C2426 H2406 0.950 . S
C2426 C2425 1.414 . S
C2426 C2427 1.374 . S
C2427 H2407 0.950 . S
C2427 C2423 1.385 . S
C2427 C2426 1.374 . S
C2428 C2425 1.499 . S
C2428 C2429 1.373 . S
C2428 C2430 1.389 . S
C2429 H2408 0.950 . S
C2429 C2428 1.373 . S
C2429 C2445 1.377 . S
C2430 C2428 1.389 . S
C2430 C2431 1.524 . S
C2430 C2444 1.377 . S
C2431 C2430 1.524 . S
C2431 C2432 1.397 . S
C2431 C2436 1.363 . S
C2432 H2409 0.950 . S
C2432 C2431 1.397 . S
C2432 C2433 1.334 . S
C2433 H2410 0.950 . S
C2433 C2432 1.334 . S
C2433 C2434 1.287 . S
C2434 C2433 1.287 . S
C2434 C2435 1.524 . S
C2434 H2453 0.913 . S
C2435 H2411 0.950 . S
C2435 C2434 1.524 . S
C2435 C2436 1.415 . S
C2436 H2412 0.950 . S
C2436 C2431 1.363 . S
C2436 C2435 1.415 . S
C2437 H2413 0.951 . S
C2437 C2438 1.366 . S
C2437 C2439 1.388 . S
C2438 C2437 1.366 . S
C2438 C2442 1.385 . S
C2439 H2414 0.951 . S
C2439 C2437 1.388 . S
C2439 C2440 1.366 . S
C2440 C2439 1.366 . S
C2440 C2441 1.414 . S
C2440 C2443 1.499 . S
C2441 H2415 0.950 . S
C2441 C2440 1.414 . S
C2441 C2442 1.374 . S
C2442 H2416 0.950 . S
C2442 C2438 1.385 . S
C2442 C2441 1.374 . S
C2443 C2440 1.499 . S
C2443 C2444 1.373 . S
C2443 C2445 1.389 . S
C2444 H2417 0.950 . S
C2444 C2430 1.377 . S
C2444 C2443 1.373 . S
C2445 C2429 1.377 . S
C2445 C2443 1.389 . S
C2445 C2446 1.524 . S
C2446 C2445 1.524 . S
C2446 C2447 1.397 . S
C2446 C2451 1.363 . S
C2447 H2418 0.950 . S
C2447 C2446 1.397 . S
C2447 C2448 1.334 . S
C2448 H2419 0.950 . S
C2448 C2447 1.334 . S
C2448 C2449 1.287 . S
C2449 C2448 1.287 . S
C2449 C2450 1.524 . S
C2449 H2452 0.999 . S
C2450 H2420 0.950 . S
C2450 C2449 1.524 . S
C2450 C2451 1.415 . S
C2451 H2421 0.950 . S
C2451 C2446 1.363 . S
C2451 C2450 1.415 . S
H2452 C2449 0.999 . S
H2453 C2434 0.913 . S
H2454 C2472 0.951 . S
H2455 C2474 0.951 . S
H2456 C2476 0.950 . S
H2457 C2477 0.950 . S
H2458 C2479 0.950 . S
H2459 C2482 0.950 . S
H2460 C2483 0.950 . S
H2461 C2485 0.950 . S
H2462 C2486 0.950 . S
H2463 C2487 0.951 . S
H2464 C2489 0.951 . S
H2465 C2491 0.950 . S
H2466 C2492 0.950 . S
H2467 C2494 0.950 . S
H2468 C2497 0.950 . S
H2469 C2498 0.950 . S
H2470 C2500 0.950 . S
H2471 C2501 0.950 . S
C2472 H2454 0.951 . S
C2472 C2473 1.366 . S
C2472 C2474 1.388 . S
C2473 C2472 1.366 . S
C2473 C2477 1.385 . S
C2474 H2455 0.951 . S
C2474 C2472 1.388 . S
C2474 C2475 1.366 . S
C2475 C2474 1.366 . S
C2475 C2476 1.414 . S
C2475 C2478 1.499 . S
C2476 H2456 0.950 . S
C2476 C2475 1.414 . S
C2476 C2477 1.374 . S
C2477 H2457 0.950 . S
C2477 C2473 1.385 . S
C2477 C2476 1.374 . S
C2478 C2475 1.499 . S
C2478 C2479 1.373 . S
C2478 C2480 1.389 . S
C2479 H2458 0.950 . S
C2479 C2478 1.373 . S
C2479 C2495 1.377 . S
C2480 C2478 1.389 . S
C2480 C2481 1.524 . S
C2480 C2494 1.377 . S
C2481 C2480 1.524 . S
C2481 C2482 1.397 . S
C2481 C2486 1.363 . S
C2482 H2459 0.950 . S
C2482 C2481 1.397 . S
C2482 C2483 1.334 . S
C2483 H2460 0.950 . S
C2483 C2482 1.334 . S
C2483 C2484 1.287 . S
C2484 C2483 1.287 . S
C2484 C2485 1.524 . S
C2484 H2503 0.913 . S
C2485 H2461 0.950 . S
C2485 C2484 1.524 . S
C2485 C2486 1.415 . S
C2486 H2462 0.950 . S
C2486 C2481 1.363 . S
C2486 C2485 1.415 . S
C2487 H2463 0.951 . S
C2487 C2488 1.366 . S
C2487 C2489 1.388 . S
C2488 C2487 1.366 . S
C2488 C2492 1.385 . S
C2489 H2464 0.951 . S
C2489 C2487 1.388 . S
C2489 C2490 1.366 . S
C2490 C2489 1.366 . S
C2490 C2491 1.414 . S
C2490 C2493 1.499 . S
C2491 H2465 0.950 . S
C2491 C2490 1.414 . S
C2491 C2492 1.374 . S
C2492 H2466 0.950 . S
C2492 C2488 1.385 . S
C2492 C2491 1.374 . S
C2493 C2490 1.499 . S
C2493 C2494 1.373 . S
C2493 C2495 1.389 . S
C2494 H2467 0.950 . S
C2494 C2480 1.377 . S
C2494 C2493 1.373 . S
C2495 C2479 1.377 . S
C2495 C2493 1.389 . S
C2495 C2496 1.524 . S
C2496 C2495 1.524 . S
C2496 C2497 1.397 . S
C2496 C2501 1.363 . S
C2497 H2468 0.950 . S
C2497 C2496 1.397 . S
C2497 C2498 1.334 . S
C2498 H2469 0.950 . S
C2498 C2497 1.334 . S
C2498 C2499 1.287 . S
C2499 C2498 1.287 . S
C2499 C2500 1.524 . S
C2499 H2502 0.999 . S
C2500 H2470 0.950 . S
C2500 C2499 1.524 . S
C2500 C2501 1.415 . S
C2501 H2471 0.950 . S
C2501 C2496 1.363 . S
C2501 C2500 1.415 . S
H2502 C2499 0.999 . S
H2503 C2484 0.913 . S
H2504 C2522 0.951 . S
H2505 C2524 0.951 . S
H2506 C2526 0.950 . S
H2507 C2527 0.950 . S
H2508 C2529 0.950 . S
H2509 C2532 0.950 . S
H2510 C2533 0.950 . S
H2511 C2535 0.950 . S
H2512 C2536 0.950 . S
H2513 C2537 0.951 . S
H2514 C2539 0.951 . S
H2515 C2541 0.950 . S
H2516 C2542 0.950 . S
H2517 C2544 0.950 . S
H2518 C2547 0.950 . S
H2519 C2548 0.950 . S
H2520 C2550 0.950 . S
H2521 C2551 0.950 . S
C2522 H2504 0.951 . S
C2522 C2523 1.366 . S
C2522 C2524 1.388 . S
C2523 C2522 1.366 . S
C2523 C2527 1.385 . S
C2524 H2505 0.951 . S
C2524 C2522 1.388 . S
C2524 C2525 1.366 . S
C2525 C2524 1.366 . S
C2525 C2526 1.414 . S
C2525 C2528 1.499 . S
C2526 H2506 0.950 . S
C2526 C2525 1.414 . S
C2526 C2527 1.374 . S
C2527 H2507 0.950 . S
C2527 C2523 1.385 . S
C2527 C2526 1.374 . S
C2528 C2525 1.499 . S
C2528 C2529 1.373 . S
C2528 C2530 1.389 . S
C2529 H2508 0.950 . S
C2529 C2528 1.373 . S
C2529 C2545 1.377 . S
C2530 C2528 1.389 . S
C2530 C2531 1.524 . S
C2530 C2544 1.377 . S
C2531 C2530 1.524 . S
C2531 C2532 1.397 . S
C2531 C2536 1.363 . S
C2532 H2509 0.950 . S
C2532 C2531 1.397 . S
C2532 C2533 1.334 . S
C2533 H2510 0.950 . S
C2533 C2532 1.334 . S
C2533 C2534 1.287 . S
C2534 C2533 1.287 . S
C2534 C2535 1.524 . S
C2534 H2553 0.913 . S
C2535 H2511 0.950 . S
C2535 C2534 1.524 . S
C2535 C2536 1.415 . S
C2536 H2512 0.950 . S
C2536 C2531 1.363 . S
C2536 C2535 1.415 . S
C2537 H2513 0.951 . S
C2537 C2538 1.366 . S
C2537 C2539 1.388 . S
C2538 C2537 1.366 . S
C2538 C2542 1.385 . S
C2539 H2514 0.951 . S
C2539 C2537 1.388 . S
C2539 C2540 1.366 . S
C2540 C2539 1.366 . S
C2540 C2541 1.414 . S
C2540 C2543 1.499 . S
C2541 H2515 0.950 . S
C2541 C2540 1.414 . S
C2541 C2542 1.374 . S
C2542 H2516 0.950 . S
C2542 C2538 1.385 . S
C2542 C2541 1.374 . S
C2543 C2540 1.499 . S
C2543 C2544 1.373 . S
C2543 C2545 1.389 . S
C2544 H2517 0.950 . S
C2544 C2530 1.377 . S
C2544 C2543 1.373 . S
C2545 C2529 1.377 . S
C2545 C2543 1.389 . S
C2545 C2546 1.524 . S
C2546 C2545 1.524 . S
C2546 C2547 1.397 . S
C2546 C2551 1.363 . S
C2547 H2518 0.950 . S
C2547 C2546 1.397 . S
C2547 C2548 1.334 . S
C2548 H2519 0.950 . S
C2548 C2547 1.334 . S
C2548 C2549 1.287 . S
C2549 C2548 1.287 . S
C2549 C2550 1.524 . S
C2549 H2552 0.999 . S
C2550 H2520 0.950 . S
C2550 C2549 1.524 . S
C2550 C2551 1.415 . S
C2551 H2521 0.950 . S
C2551 C2546 1.363 . S
C2551 C2550 1.415 . S
H2552 C2549 0.999 . S
H2553 C2534 0.913 . S
H2554 C2572 0.951 . S
H2555 C2574 0.951 . S
H2556 C2576 0.950 . S
H2557 C2577 0.950 . S
H2558 C2579 0.950 . S
H2559 C2582 0.950 . S
H2560 C2583 0.950 . S
H2561 C2585 0.950 . S
H2562 C2586 0.950 . S
H2563 C2587 0.951 . S
H2564 C2589 0.951 . S
H2565 C2591 0.950 . S
H2566 C2592 0.950 . S
H2567 C2594 0.950 . S
H2568 C2597 0.950 . S
H2569 C2598 0.950 . S
H2570 C2600 0.950 . S
H2571 C2601 0.950 . S
C2572 H2554 0.951 . S
C2572 C2573 1.366 . S
C2572 C2574 1.388 . S
C2573 C2572 1.366 . S
C2573 C2577 1.385 . S
C2574 H2555 0.951 . S
C2574 C2572 1.388 . S
C2574 C2575 1.366 . S
C2575 C2574 1.366 . S
C2575 C2576 1.414 . S
C2575 C2578 1.499 . S
C2576 H2556 0.950 . S
C2576 C2575 1.414 . S
C2576 C2577 1.374 . S
C2577 H2557 0.950 . S
C2577 C2573 1.385 . S
C2577 C2576 1.374 . S
C2578 C2575 1.499 . S
C2578 C2579 1.373 . S
C2578 C2580 1.389 . S
C2579 H2558 0.950 . S
C2579 C2578 1.373 . S
C2579 C2595 1.377 . S
C2580 C2578 1.389 . S
C2580 C2581 1.524 . S
C2580 C2594 1.377 . S
C2581 C2580 1.524 . S
C2581 C2582 1.397 . S
C2581 C2586 1.363 . S
C2582 H2559 0.950 . S
C2582 C2581 1.397 . S
C2582 C2583 1.334 . S
C2583 H2560 0.950 . S
C2583 C2582 1.334 . S
C2583 C2584 1.287 . S
C2584 C2583 1.287 . S
C2584 C2585 1.524 . S
C2584 H2603 0.913 . S
C2585 H2561 0.950 . S
C2585 C2584 1.524 . S
C2585 C2586 1.415 . S
C2586 H2562 0.950 . S
C2586 C2581 1.363 . S
C2586 C2585 1.415 . S
C2587 H2563 0.951 . S
C2587 C2588 1.366 . S
C2587 C2589 1.388 . S
C2588 C2587 1.366 . S
C2588 C2592 1.385 . S
C2589 H2564 0.951 . S
C2589 C2587 1.388 . S
C2589 C2590 1.366 . S
C2590 C2589 1.366 . S
C2590 C2591 1.414 . S
C2590 C2593 1.499 . S
C2591 H2565 0.950 . S
C2591 C2590 1.414 . S
C2591 C2592 1.374 . S
C2592 H2566 0.950 . S
C2592 C2588 1.385 . S
C2592 C2591 1.374 . S
C2593 C2590 1.499 . S
C2593 C2594 1.373 . S
C2593 C2595 1.389 . S
C2594 H2567 0.950 . S
C2594 C2580 1.377 . S
C2594 C2593 1.373 . S
C2595 C2579 1.377 . S
C2595 C2593 1.389 . S
C2595 C2596 1.524 . S
C2596 C2595 1.524 . S
C2596 C2597 1.397 . S
C2596 C2601 1.363 . S
C2597 H2568 0.950 . S
C2597 C2596 1.397 . S
C2597 C2598 1.334 . S
C2598 H2569 0.950 . S
C2598 C2597 1.334 . S
C2598 C2599 1.287 . S
C2599 C2598 1.287 . S
C2599 C2600 1.524 . S
C2599 H2602 0.999 . S
C2600 H2570 0.950 . S
C2600 C2599 1.524 . S
C2600 C2601 1.415 . S
C2601 H2571 0.950 . S
C2601 C2596 1.363 . S
C2601 C2600 1.415 . S
H2602 C2599 0.999 . S
H2603 C2584 0.913 . S
H2604 C2622 0.951 . S
H2605 C2624 0.951 . S
H2606 C2626 0.950 . S
H2607 C2627 0.950 . S
H2608 C2629 0.950 . S
H2609 C2632 0.950 . S
H2610 C2633 0.950 . S
H2611 C2635 0.950 . S
H2612 C2636 0.950 . S
H2613 C2637 0.951 . S
H2614 C2639 0.951 . S
H2615 C2641 0.950 . S
H2616 C2642 0.950 . S
H2617 C2644 0.950 . S
H2618 C2647 0.950 . S
H2619 C2648 0.950 . S
H2620 C2650 0.950 . S
H2621 C2651 0.950 . S
C2622 H2604 0.951 . S
C2622 C2623 1.366 . S
C2622 C2624 1.388 . S
C2623 C2622 1.366 . S
C2623 C2627 1.385 . S
C2624 H2605 0.951 . S
C2624 C2622 1.388 . S
C2624 C2625 1.366 . S
C2625 C2624 1.366 . S
C2625 C2626 1.414 . S
C2625 C2628 1.499 . S
C2626 H2606 0.950 . S
C2626 C2625 1.414 . S
C2626 C2627 1.374 . S
C2627 H2607 0.950 . S
C2627 C2623 1.385 . S
C2627 C2626 1.374 . S
C2628 C2625 1.499 . S
C2628 C2629 1.373 . S
C2628 C2630 1.389 . S
C2629 H2608 0.950 . S
C2629 C2628 1.373 . S
C2629 C2645 1.377 . S
C2630 C2628 1.389 . S
C2630 C2631 1.524 . S
C2630 C2644 1.377 . S
C2631 C2630 1.524 . S
C2631 C2632 1.397 . S
C2631 C2636 1.363 . S
C2632 H2609 0.950 . S
C2632 C2631 1.397 . S
C2632 C2633 1.334 . S
C2633 H2610 0.950 . S
C2633 C2632 1.334 . S
C2633 C2634 1.287 . S
C2634 C2633 1.287 . S
C2634 C2635 1.524 . S
C2634 H2653 0.913 . S
C2635 H2611 0.950 . S
C2635 C2634 1.524 . S
C2635 C2636 1.415 . S
C2636 H2612 0.950 . S
C2636 C2631 1.363 . S
C2636 C2635 1.415 . S
C2637 H2613 0.951 . S
C2637 C2638 1.366 . S
C2637 C2639 1.388 . S
C2638 C2637 1.366 . S
C2638 C2642 1.385 . S
C2639 H2614 0.951 . S
C2639 C2637 1.388 . S
C2639 C2640 1.366 . S
C2640 C2639 1.366 . S
C2640 C2641 1.414 . S
C2640 C2643 1.499 . S
C2641 H2615 0.950 . S
C2641 C2640 1.414 . S
C2641 C2642 1.374 . S
C2642 H2616 0.950 . S
C2642 C2638 1.385 . S
C2642 C2641 1.374 . S
C2643 C2640 1.499 . S
C2643 C2644 1.373 . S
C2643 C2645 1.389 . S
C2644 H2617 0.950 . S
C2644 C2630 1.377 . S
C2644 C2643 1.373 . S
C2645 C2629 1.377 . S
C2645 C2643 1.389 . S
C2645 C2646 1.524 . S
C2646 C2645 1.524 . S
C2646 C2647 1.397 . S
C2646 C2651 1.363 . S
C2647 H2618 0.950 . S
C2647 C2646 1.397 . S
C2647 C2648 1.334 . S
C2648 H2619 0.950 . S
C2648 C2647 1.334 . S
C2648 C2649 1.287 . S
C2649 C2648 1.287 . S
C2649 C2650 1.524 . S
C2649 H2652 0.999 . S
C2650 H2620 0.950 . S
C2650 C2649 1.524 . S
C2650 C2651 1.415 . S
C2651 H2621 0.950 . S
C2651 C2646 1.363 . S
C2651 C2650 1.415 . S
H2652 C2649 0.999 . S
H2653 C2634 0.913 . S
H2654 C2672 0.951 . S
H2655 C2674 0.951 . S
H2656 C2676 0.950 . S
H2657 C2677 0.950 . S
H2658 C2679 0.950 . S
H2659 C2682 0.950 . S
H2660 C2683 0.950 . S
H2661 C2685 0.950 . S
H2662 C2686 0.950 . S
H2663 C2687 0.951 . S
H2664 C2689 0.951 . S
H2665 C2691 0.950 . S
H2666 C2692 0.950 . S
H2667 C2694 0.950 . S
H2668 C2697 0.950 . S
H2669 C2698 0.950 . S
H2670 C2700 0.950 . S
H2671 C2701 0.950 . S
C2672 H2654 0.951 . S
C2672 C2673 1.366 . S
C2672 C2674 1.388 . S
C2673 C2672 1.366 . S
C2673 C2677 1.385 . S
C2674 H2655 0.951 . S
C2674 C2672 1.388 . S
C2674 C2675 1.366 . S
C2675 C2674 1.366 . S
C2675 C2676 1.414 . S
C2675 C2678 1.499 . S
C2676 H2656 0.950 . S
C2676 C2675 1.414 . S
C2676 C2677 1.374 . S
C2677 H2657 0.950 . S
C2677 C2673 1.385 . S
C2677 C2676 1.374 . S
C2678 C2675 1.499 . S
C2678 C2679 1.373 . S
C2678 C2680 1.389 . S
C2679 H2658 0.950 . S
C2679 C2678 1.373 . S
C2679 C2695 1.377 . S
C2680 C2678 1.389 . S
C2680 C2681 1.524 . S
C2680 C2694 1.377 . S
C2681 C2680 1.524 . S
C2681 C2682 1.397 . S
C2681 C2686 1.363 . S
C2682 H2659 0.950 . S
C2682 C2681 1.397 . S
C2682 C2683 1.334 . S
C2683 H2660 0.950 . S
C2683 C2682 1.334 . S
C2683 C2684 1.287 . S
C2684 C2683 1.287 . S
C2684 C2685 1.524 . S
C2684 H2703 0.913 . S
C2685 H2661 0.950 . S
C2685 C2684 1.524 . S
C2685 C2686 1.415 . S
C2686 H2662 0.950 . S
C2686 C2681 1.363 . S
C2686 C2685 1.415 . S
C2687 H2663 0.951 . S
C2687 C2688 1.366 . S
C2687 C2689 1.388 . S
C2688 C2687 1.366 . S
C2688 C2692 1.385 . S
C2689 H2664 0.951 . S
C2689 C2687 1.388 . S
C2689 C2690 1.366 . S
C2690 C2689 1.366 . S
C2690 C2691 1.414 . S
C2690 C2693 1.499 . S
C2691 H2665 0.950 . S
C2691 C2690 1.414 . S
C2691 C2692 1.374 . S
C2692 H2666 0.950 . S
C2692 C2688 1.385 . S
C2692 C2691 1.374 . S
C2693 C2690 1.499 . S
C2693 C2694 1.373 . S
C2693 C2695 1.389 . S
C2694 H2667 0.950 . S
C2694 C2680 1.377 . S
C2694 C2693 1.373 . S
C2695 C2679 1.377 . S
C2695 C2693 1.389 . S
C2695 C2696 1.524 . S
C2696 C2695 1.524 . S
C2696 C2697 1.397 . S
C2696 C2701 1.363 . S
C2697 H2668 0.950 . S
C2697 C2696 1.397 . S
C2697 C2698 1.334 . S
C2698 H2669 0.950 . S
C2698 C2697 1.334 . S
C2698 C2699 1.287 . S
C2699 C2698 1.287 . S
C2699 C2700 1.524 . S
C2699 H2702 0.999 . S
C2700 H2670 0.950 . S
C2700 C2699 1.524 . S
C2700 C2701 1.415 . S
C2701 H2671 0.950 . S
C2701 C2696 1.363 . S
C2701 C2700 1.415 . S
H2702 C2699 0.999 . S
H2703 C2684 0.913 . S
H2704 C2722 0.951 . S
H2705 C2724 0.951 . S
H2706 C2726 0.950 . S
H2707 C2727 0.950 . S
H2708 C2729 0.950 . S
H2709 C2732 0.950 . S
H2710 C2733 0.950 . S
H2711 C2735 0.950 . S
H2712 C2736 0.950 . S
H2713 C2737 0.951 . S
H2714 C2739 0.951 . S
H2715 C2741 0.950 . S
H2716 C2742 0.950 . S
H2717 C2744 0.950 . S
H2718 C2747 0.950 . S
H2719 C2748 0.950 . S
H2720 C2750 0.950 . S
H2721 C2751 0.950 . S
C2722 H2704 0.951 . S
C2722 C2723 1.366 . S
C2722 C2724 1.388 . S
C2723 C2722 1.366 . S
C2723 C2727 1.385 . S
C2724 H2705 0.951 . S
C2724 C2722 1.388 . S
C2724 C2725 1.366 . S
C2725 C2724 1.366 . S
C2725 C2726 1.414 . S
C2725 C2728 1.499 . S
C2726 H2706 0.950 . S
C2726 C2725 1.414 . S
C2726 C2727 1.374 . S
C2727 H2707 0.950 . S
C2727 C2723 1.385 . S
C2727 C2726 1.374 . S
C2728 C2725 1.499 . S
C2728 C2729 1.373 . S
C2728 C2730 1.389 . S
C2729 H2708 0.950 . S
C2729 C2728 1.373 . S
C2729 C2745 1.377 . S
C2730 C2728 1.389 . S
C2730 C2731 1.524 . S
C2730 C2744 1.377 . S
C2731 C2730 1.524 . S
C2731 C2732 1.397 . S
C2731 C2736 1.363 . S
C2732 H2709 0.950 . S
C2732 C2731 1.397 . S
C2732 C2733 1.334 . S
C2733 H2710 0.950 . S
C2733 C2732 1.334 . S
C2733 C2734 1.287 . S
C2734 C2733 1.287 . S
C2734 C2735 1.524 . S
C2734 H2753 0.913 . S
C2735 H2711 0.950 . S
C2735 C2734 1.524 . S
C2735 C2736 1.415 . S
C2736 H2712 0.950 . S
C2736 C2731 1.363 . S
C2736 C2735 1.415 . S
C2737 H2713 0.951 . S
C2737 C2738 1.366 . S
C2737 C2739 1.388 . S
C2738 C2737 1.366 . S
C2738 C2742 1.385 . S
C2739 H2714 0.951 . S
C2739 C2737 1.388 . S
C2739 C2740 1.366 . S
C2740 C2739 1.366 . S
C2740 C2741 1.414 . S
C2740 C2743 1.499 . S
C2741 H2715 0.950 . S
C2741 C2740 1.414 . S
C2741 C2742 1.374 . S
C2742 H2716 0.950 . S
C2742 C2738 1.385 . S
C2742 C2741 1.374 . S
C2743 C2740 1.499 . S
C2743 C2744 1.373 . S
C2743 C2745 1.389 . S
C2744 H2717 0.950 . S
C2744 C2730 1.377 . S
C2744 C2743 1.373 . S
C2745 C2729 1.377 . S
C2745 C2743 1.389 . S
C2745 C2746 1.524 . S
C2746 C2745 1.524 . S
C2746 C2747 1.397 . S
C2746 C2751 1.363 . S
C2747 H2718 0.950 . S
C2747 C2746 1.397 . S
C2747 C2748 1.334 . S
C2748 H2719 0.950 . S
C2748 C2747 1.334 . S
C2748 C2749 1.287 . S
C2749 C2748 1.287 . S
C2749 C2750 1.524 . S
C2749 H2752 0.999 . S
C2750 H2720 0.950 . S
C2750 C2749 1.524 . S
C2750 C2751 1.415 . S
C2751 H2721 0.950 . S
C2751 C2746 1.363 . S
C2751 C2750 1.415 . S
H2752 C2749 0.999 . S
H2753 C2734 0.913 . S
H2754 C2772 0.951 . S
H2755 C2774 0.951 . S
H2756 C2776 0.950 . S
H2757 C2777 0.950 . S
H2758 C2779 0.950 . S
H2759 C2782 0.950 . S
H2760 C2783 0.950 . S
H2761 C2785 0.950 . S
H2762 C2786 0.950 . S
H2763 C2787 0.951 . S
H2764 C2789 0.951 . S
H2765 C2791 0.950 . S
H2766 C2792 0.950 . S
H2767 C2794 0.950 . S
H2768 C2797 0.950 . S
H2769 C2798 0.950 . S
H2770 C2800 0.950 . S
H2771 C2801 0.950 . S
C2772 H2754 0.951 . S
C2772 C2773 1.366 . S
C2772 C2774 1.388 . S
C2773 C2772 1.366 . S
C2773 C2777 1.385 . S
C2774 H2755 0.951 . S
C2774 C2772 1.388 . S
C2774 C2775 1.366 . S
C2775 C2774 1.366 . S
C2775 C2776 1.414 . S
C2775 C2778 1.499 . S
C2776 H2756 0.950 . S
C2776 C2775 1.414 . S
C2776 C2777 1.374 . S
C2777 H2757 0.950 . S
C2777 C2773 1.385 . S
C2777 C2776 1.374 . S
C2778 C2775 1.499 . S
C2778 C2779 1.373 . S
C2778 C2780 1.389 . S
C2779 H2758 0.950 . S
C2779 C2778 1.373 . S
C2779 C2795 1.377 . S
C2780 C2778 1.389 . S
C2780 C2781 1.524 . S
C2780 C2794 1.377 . S
C2781 C2780 1.524 . S
C2781 C2782 1.397 . S
C2781 C2786 1.363 . S
C2782 H2759 0.950 . S
C2782 C2781 1.397 . S
C2782 C2783 1.334 . S
C2783 H2760 0.950 . S
C2783 C2782 1.334 . S
C2783 C2784 1.287 . S
C2784 C2783 1.287 . S
C2784 C2785 1.524 . S
C2784 H2803 0.913 . S
C2785 H2761 0.950 . S
C2785 C2784 1.524 . S
C2785 C2786 1.415 . S
C2786 H2762 0.950 . S
C2786 C2781 1.363 . S
C2786 C2785 1.415 . S
C2787 H2763 0.951 . S
C2787 C2788 1.366 . S
C2787 C2789 1.388 . S
C2788 C2787 1.366 . S
C2788 C2792 1.385 . S
C2789 H2764 0.951 . S
C2789 C2787 1.388 . S
C2789 C2790 1.366 . S
C2790 C2789 1.366 . S
C2790 C2791 1.414 . S
C2790 C2793 1.499 . S
C2791 H2765 0.950 . S
C2791 C2790 1.414 . S
C2791 C2792 1.374 . S
C2792 H2766 0.950 . S
C2792 C2788 1.385 . S
C2792 C2791 1.374 . S
C2793 C2790 1.499 . S
C2793 C2794 1.373 . S
C2793 C2795 1.389 . S
C2794 H2767 0.950 . S
C2794 C2780 1.377 . S
C2794 C2793 1.373 . S
C2795 C2779 1.377 . S
C2795 C2793 1.389 . S
C2795 C2796 1.524 . S
C2796 C2795 1.524 . S
C2796 C2797 1.397 . S
C2796 C2801 1.363 . S
C2797 H2768 0.950 . S
C2797 C2796 1.397 . S
C2797 C2798 1.334 . S
C2798 H2769 0.950 . S
C2798 C2797 1.334 . S
C2798 C2799 1.287 . S
C2799 C2798 1.287 . S
C2799 C2800 1.524 . S
C2799 H2802 0.999 . S
C2800 H2770 0.950 . S
C2800 C2799 1.524 . S
C2800 C2801 1.415 . S
C2801 H2771 0.950 . S
C2801 C2796 1.363 . S
C2801 C2800 1.415 . S
H2802 C2799 0.999 . S
H2803 C2784 0.913 . S
H2804 C2822 0.951 . S
H2805 C2824 0.951 . S
H2806 C2826 0.950 . S
H2807 C2827 0.950 . S
H2808 C2829 0.950 . S
H2809 C2832 0.950 . S
H2810 C2833 0.950 . S
H2811 C2835 0.950 . S
H2812 C2836 0.950 . S
H2813 C2837 0.951 . S
H2814 C2839 0.951 . S
H2815 C2841 0.950 . S
H2816 C2842 0.950 . S
H2817 C2844 0.950 . S
H2818 C2847 0.950 . S
H2819 C2848 0.950 . S
H2820 C2850 0.950 . S
H2821 C2851 0.950 . S
C2822 H2804 0.951 . S
C2822 C2823 1.366 . S
C2822 C2824 1.388 . S
C2823 C2822 1.366 . S
C2823 C2827 1.385 . S
C2824 H2805 0.951 . S
C2824 C2822 1.388 . S
C2824 C2825 1.366 . S
C2825 C2824 1.366 . S
C2825 C2826 1.414 . S
C2825 C2828 1.499 . S
C2826 H2806 0.950 . S
C2826 C2825 1.414 . S
C2826 C2827 1.374 . S
C2827 H2807 0.950 . S
C2827 C2823 1.385 . S
C2827 C2826 1.374 . S
C2828 C2825 1.499 . S
C2828 C2829 1.373 . S
C2828 C2830 1.389 . S
C2829 H2808 0.950 . S
C2829 C2828 1.373 . S
C2829 C2845 1.377 . S
C2830 C2828 1.389 . S
C2830 C2831 1.524 . S
C2830 C2844 1.377 . S
C2831 C2830 1.524 . S
C2831 C2832 1.397 . S
C2831 C2836 1.363 . S
C2832 H2809 0.950 . S
C2832 C2831 1.397 . S
C2832 C2833 1.334 . S
C2833 H2810 0.950 . S
C2833 C2832 1.334 . S
C2833 C2834 1.287 . S
C2834 C2833 1.287 . S
C2834 C2835 1.524 . S
C2834 H2853 0.913 . S
C2835 H2811 0.950 . S
C2835 C2834 1.524 . S
C2835 C2836 1.415 . S
C2836 H2812 0.950 . S
C2836 C2831 1.363 . S
C2836 C2835 1.415 . S
C2837 H2813 0.951 . S
C2837 C2838 1.366 . S
C2837 C2839 1.388 . S
C2838 C2837 1.366 . S
C2838 C2842 1.385 . S
C2839 H2814 0.951 . S
C2839 C2837 1.388 . S
C2839 C2840 1.366 . S
C2840 C2839 1.366 . S
C2840 C2841 1.414 . S
C2840 C2843 1.499 . S
C2841 H2815 0.950 . S
C2841 C2840 1.414 . S
C2841 C2842 1.374 . S
C2842 H2816 0.950 . S
C2842 C2838 1.385 . S
C2842 C2841 1.374 . S
C2843 C2840 1.499 . S
C2843 C2844 1.373 . S
C2843 C2845 1.389 . S
C2844 H2817 0.950 . S
C2844 C2830 1.377 . S
C2844 C2843 1.373 . S
C2845 C2829 1.377 . S
C2845 C2843 1.389 . S
C2845 C2846 1.524 . S
C2846 C2845 1.524 . S
C2846 C2847 1.397 . S
C2846 C2851 1.363 . S
C2847 H2818 0.950 . S
C2847 C2846 1.397 . S
C2847 C2848 1.334 . S
C2848 H2819 0.950 . S
C2848 C2847 1.334 . S
C2848 C2849 1.287 . S
C2849 C2848 1.287 . S
C2849 C2850 1.524 . S
C2849 H2852 0.999 . S
C2850 H2820 0.950 . S
C2850 C2849 1.524 . S
C2850 C2851 1.415 . S
C2851 H2821 0.950 . S
C2851 C2846 1.363 . S
C2851 C2850 1.415 . S
H2852 C2849 0.999 . S
H2853 C2834 0.913 . S
H2854 C2872 0.951 . S
H2855 C2874 0.951 . S
H2856 C2876 0.950 . S
H2857 C2877 0.950 . S
H2858 C2879 0.950 . S
H2859 C2882 0.950 . S
H2860 C2883 0.950 . S
H2861 C2885 0.950 . S
H2862 C2886 0.950 . S
H2863 C2887 0.951 . S
H2864 C2889 0.951 . S
H2865 C2891 0.950 . S
H2866 C2892 0.950 . S
H2867 C2894 0.950 . S
H2868 C2897 0.950 . S
H2869 C2898 0.950 . S
H2870 C2900 0.950 . S
H2871 C2901 0.950 . S
C2872 H2854 0.951 . S
C2872 C2873 1.366 . S
C2872 C2874 1.388 . S
C2873 C2872 1.366 . S
C2873 C2877 1.385 . S
C2874 H2855 0.951 . S
C2874 C2872 1.388 . S
C2874 C2875 1.366 . S
C2875 C2874 1.366 . S
C2875 C2876 1.414 . S
C2875 C2878 1.499 . S
C2876 H2856 0.950 . S
C2876 C2875 1.414 . S
C2876 C2877 1.374 . S
C2877 H2857 0.950 . S
C2877 C2873 1.385 . S
C2877 C2876 1.374 . S
C2878 C2875 1.499 . S
C2878 C2879 1.373 . S
C2878 C2880 1.389 . S
C2879 H2858 0.950 . S
C2879 C2878 1.373 . S
C2879 C2895 1.377 . S
C2880 C2878 1.389 . S
C2880 C2881 1.524 . S
C2880 C2894 1.377 . S
C2881 C2880 1.524 . S
C2881 C2882 1.397 . S
C2881 C2886 1.363 . S
C2882 H2859 0.950 . S
C2882 C2881 1.397 . S
C2882 C2883 1.334 . S
C2883 H2860 0.950 . S
C2883 C2882 1.334 . S
C2883 C2884 1.287 . S
C2884 C2883 1.287 . S
C2884 C2885 1.524 . S
C2884 H2903 0.913 . S
C2885 H2861 0.950 . S
C2885 C2884 1.524 . S
C2885 C2886 1.415 . S
C2886 H2862 0.950 . S
C2886 C2881 1.363 . S
C2886 C2885 1.415 . S
C2887 H2863 0.951 . S
C2887 C2888 1.366 . S
C2887 C2889 1.388 . S
C2888 C2887 1.366 . S
C2888 C2892 1.385 . S
C2889 H2864 0.951 . S
C2889 C2887 1.388 . S
C2889 C2890 1.366 . S
C2890 C2889 1.366 . S
C2890 C2891 1.414 . S
C2890 C2893 1.499 . S
C2891 H2865 0.950 . S
C2891 C2890 1.414 . S
C2891 C2892 1.374 . S
C2892 H2866 0.950 . S
C2892 C2888 1.385 . S
C2892 C2891 1.374 . S
C2893 C2890 1.499 . S
C2893 C2894 1.373 . S
C2893 C2895 1.389 . S
C2894 H2867 0.950 . S
C2894 C2880 1.377 . S
C2894 C2893 1.373 . S
C2895 C2879 1.377 . S
C2895 C2893 1.389 . S
C2895 C2896 1.524 . S
C2896 C2895 1.524 . S
C2896 C2897 1.397 . S
C2896 C2901 1.363 . S
C2897 H2868 0.950 . S
C2897 C2896 1.397 . S
C2897 C2898 1.334 . S
C2898 H2869 0.950 . S
C2898 C2897 1.334 . S
C2898 C2899 1.287 . S
C2899 C2898 1.287 . S
C2899 C2900 1.524 . S
C2899 H2902 0.999 . S
C2900 H2870 0.950 . S
C2900 C2899 1.524 . S
C2900 C2901 1.415 . S
C2901 H2871 0.950 . S
C2901 C2896 1.363 . S
C2901 C2900 1.415 . S
H2902 C2899 0.999 . S
H2903 C2884 0.913 . S
H2904 C2922 0.951 . S
H2905 C2924 0.951 1_655 S
H2906 C2926 0.950 . S
H2907 C2927 0.950 . S
H2908 C2929 0.950 . S
H2909 C2932 0.950 . S
H2910 C2933 0.950 . S
H2911 C2935 0.950 . S
H2912 C2936 0.950 . S
H2913 C2937 0.951 . S
H2914 C2939 0.951 1_455 S
H2915 C2941 0.950 . S
H2916 C2942 0.950 . S
H2917 C2944 0.950 . S
H2918 C2947 0.950 . S
H2919 C2948 0.950 . S
H2920 C2950 0.950 . S
H2921 C2951 0.950 . S
C2922 H2904 0.951 . S
C2922 C2923 1.366 . S
C2922 C2924 1.388 . S
C2923 C2922 1.366 . S
C2923 C2927 1.385 . S
C2924 H2905 0.951 1_455 S
C2924 C2922 1.388 . S
C2924 C2925 1.366 . S
C2925 C2924 1.366 . S
C2925 C2926 1.414 . S
C2925 C2928 1.499 . S
C2926 H2906 0.950 . S
C2926 C2925 1.414 . S
C2926 C2927 1.374 . S
C2927 H2907 0.950 . S
C2927 C2923 1.385 . S
C2927 C2926 1.374 . S
C2928 C2925 1.499 . S
C2928 C2929 1.373 . S
C2928 C2930 1.389 . S
C2929 H2908 0.950 . S
C2929 C2928 1.373 . S
C2929 C2945 1.377 1_455 S
C2930 C2928 1.389 . S
C2930 C2931 1.524 . S
C2930 C2944 1.377 1_455 S
C2931 C2930 1.524 . S
C2931 C2932 1.397 . S
C2931 C2936 1.363 1_455 S
C2932 H2909 0.950 . S
C2932 C2931 1.397 . S
C2932 C2933 1.334 . S
C2933 H2910 0.950 . S
C2933 C2932 1.334 . S
C2933 C2934 1.287 . S
C2934 C2933 1.287 . S
C2934 C2935 1.524 1_455 S
C2934 H2953 0.913 . S
C2935 H2911 0.950 . S
C2935 C2934 1.524 1_655 S
C2935 C2936 1.415 . S
C2936 H2912 0.950 . S
C2936 C2931 1.363 1_655 S
C2936 C2935 1.415 . S
C2937 H2913 0.951 . S
C2937 C2938 1.366 . S
C2937 C2939 1.388 . S
C2938 C2937 1.366 . S
C2938 C2942 1.385 . S
C2939 H2914 0.951 1_655 S
C2939 C2937 1.388 . S
C2939 C2940 1.366 . S
C2940 C2939 1.366 . S
C2940 C2941 1.414 . S
C2940 C2943 1.499 . S
C2941 H2915 0.950 . S
C2941 C2940 1.414 . S
C2941 C2942 1.374 . S
C2942 H2916 0.950 . S
C2942 C2938 1.385 . S
C2942 C2941 1.374 . S
C2943 C2940 1.499 . S
C2943 C2944 1.373 . S
C2943 C2945 1.389 . S
C2944 H2917 0.950 . S
C2944 C2930 1.377 1_655 S
C2944 C2943 1.373 . S
C2945 C2929 1.377 1_655 S
C2945 C2943 1.389 . S
C2945 C2946 1.524 . S
C2946 C2945 1.524 . S
C2946 C2947 1.397 . S
C2946 C2951 1.363 1_655 S
C2947 H2918 0.950 . S
C2947 C2946 1.397 . S
C2947 C2948 1.334 . S
C2948 H2919 0.950 . S
C2948 C2947 1.334 . S
C2948 C2949 1.287 . S
C2949 C2948 1.287 . S
C2949 C2950 1.524 1_655 S
C2949 H2952 0.999 . S
C2950 H2920 0.950 . S
C2950 C2949 1.524 1_455 S
C2950 C2951 1.415 . S
C2951 H2921 0.950 . S
C2951 C2946 1.363 1_455 S
C2951 C2950 1.415 . S
H2952 C2949 0.999 . S
H2953 C2934 0.913 . S
H2954 C2972 0.951 . S
H2955 C2974 0.951 . S
H2956 C2976 0.950 . S
H2957 C2977 0.950 . S
H2958 C2979 0.950 . S
H2959 C2982 0.950 . S
H2960 C2983 0.950 . S
H2961 C2985 0.950 . S
H2962 C2986 0.950 . S
H2963 C2987 0.951 . S
H2964 C2989 0.951 . S
H2965 C2991 0.950 . S
H2966 C2992 0.950 . S
H2967 C2994 0.950 . S
H2968 C2997 0.950 . S
H2969 C2998 0.950 . S
H2970 C3000 0.950 . S
H2971 C3001 0.950 . S
C2972 H2954 0.951 . S
C2972 C2973 1.366 . S
C2972 C2974 1.388 . S
C2973 C2972 1.366 . S
C2973 C2977 1.385 . S
C2974 H2955 0.951 . S
C2974 C2972 1.388 . S
C2974 C2975 1.366 . S
C2975 C2974 1.366 . S
C2975 C2976 1.414 . S
C2975 C2978 1.499 . S
C2976 H2956 0.950 . S
C2976 C2975 1.414 . S
C2976 C2977 1.374 . S
C2977 H2957 0.950 . S
C2977 C2973 1.385 . S
C2977 C2976 1.374 . S
C2978 C2975 1.499 . S
C2978 C2979 1.373 . S
C2978 C2980 1.389 . S
C2979 H2958 0.950 . S
C2979 C2978 1.373 . S
C2979 C2995 1.377 . S
C2980 C2978 1.389 . S
C2980 C2981 1.524 . S
C2980 C2994 1.377 . S
C2981 C2980 1.524 . S
C2981 C2982 1.397 . S
C2981 C2986 1.363 . S
C2982 H2959 0.950 . S
C2982 C2981 1.397 . S
C2982 C2983 1.334 . S
C2983 H2960 0.950 . S
C2983 C2982 1.334 . S
C2983 C2984 1.287 . S
C2984 C2983 1.287 . S
C2984 C2985 1.524 . S
C2984 H3003 0.913 . S
C2985 H2961 0.950 . S
C2985 C2984 1.524 . S
C2985 C2986 1.415 . S
C2986 H2962 0.950 . S
C2986 C2981 1.363 . S
C2986 C2985 1.415 . S
C2987 H2963 0.951 . S
C2987 C2988 1.366 . S
C2987 C2989 1.388 . S
C2988 C2987 1.366 . S
C2988 C2992 1.385 . S
C2989 H2964 0.951 . S
C2989 C2987 1.388 . S
C2989 C2990 1.366 . S
C2990 C2989 1.366 . S
C2990 C2991 1.414 . S
C2990 C2993 1.499 . S
C2991 H2965 0.950 . S
C2991 C2990 1.414 . S
C2991 C2992 1.374 . S
C2992 H2966 0.950 . S
C2992 C2988 1.385 . S
C2992 C2991 1.374 . S
C2993 C2990 1.499 . S
C2993 C2994 1.373 . S
C2993 C2995 1.389 . S
C2994 H2967 0.950 . S
C2994 C2980 1.377 . S
C2994 C2993 1.373 . S
C2995 C2979 1.377 . S
C2995 C2993 1.389 . S
C2995 C2996 1.524 . S
C2996 C2995 1.524 . S
C2996 C2997 1.397 . S
C2996 C3001 1.363 . S
C2997 H2968 0.950 . S
C2997 C2996 1.397 . S
C2997 C2998 1.334 . S
C2998 H2969 0.950 . S
C2998 C2997 1.334 . S
C2998 C2999 1.287 . S
C2999 C2998 1.287 . S
C2999 C3000 1.524 . S
C2999 H3002 0.999 . S
C3000 H2970 0.950 . S
C3000 C2999 1.524 . S
C3000 C3001 1.415 . S
C3001 H2971 0.950 . S
C3001 C2996 1.363 . S
C3001 C3000 1.415 . S
H3002 C2999 0.999 . S
H3003 C2984 0.913 . S
H3004 C3022 0.951 . S
H3005 C3024 0.951 1_565 S
H3006 C3026 0.950 . S
H3007 C3027 0.950 . S
H3008 C3029 0.950 . S
H3009 C3032 0.950 . S
H3010 C3033 0.950 . S
H3011 C3035 0.950 . S
H3012 C3036 0.950 . S
H3013 C3037 0.951 . S
H3014 C3039 0.951 1_545 S
H3015 C3041 0.950 . S
H3016 C3042 0.950 . S
H3017 C3044 0.950 . S
H3018 C3047 0.950 . S
H3019 C3048 0.950 . S
H3020 C3050 0.950 . S
H3021 C3051 0.950 . S
C3022 H3004 0.951 . S
C3022 C3023 1.366 . S
C3022 C3024 1.388 . S
C3023 C3022 1.366 . S
C3023 C3027 1.385 . S
C3024 H3005 0.951 1_545 S
C3024 C3022 1.388 . S
C3024 C3025 1.366 . S
C3025 C3024 1.366 . S
C3025 C3026 1.414 . S
C3025 C3028 1.499 . S
C3026 H3006 0.950 . S
C3026 C3025 1.414 . S
C3026 C3027 1.374 . S
C3027 H3007 0.950 . S
C3027 C3023 1.385 . S
C3027 C3026 1.374 . S
C3028 C3025 1.499 . S
C3028 C3029 1.373 . S
C3028 C3030 1.389 1_545 S
C3029 H3008 0.950 . S
C3029 C3028 1.373 . S
C3029 C3045 1.377 . S
C3030 C3028 1.389 1_565 S
C3030 C3031 1.524 . S
C3030 C3044 1.377 . S
C3031 C3030 1.524 . S
C3031 C3032 1.397 . S
C3031 C3036 1.363 . S
C3032 H3009 0.950 . S
C3032 C3031 1.397 . S
C3032 C3033 1.334 . S
C3033 H3010 0.950 . S
C3033 C3032 1.334 . S
C3033 C3034 1.287 . S
C3034 C3033 1.287 . S
C3034 C3035 1.524 . S
C3034 H3053 0.913 . S
C3035 H3011 0.950 . S
C3035 C3034 1.524 . S
C3035 C3036 1.415 . S
C3036 H3012 0.950 . S
C3036 C3031 1.363 . S
C3036 C3035 1.415 . S
C3037 H3013 0.951 . S
C3037 C3038 1.366 . S
C3037 C3039 1.388 . S
C3038 C3037 1.366 . S
C3038 C3042 1.385 . S
C3039 H3014 0.951 1_565 S
C3039 C3037 1.388 . S
C3039 C3040 1.366 . S
C3040 C3039 1.366 . S
C3040 C3041 1.414 . S
C3040 C3043 1.499 . S
C3041 H3015 0.950 . S
C3041 C3040 1.414 . S
C3041 C3042 1.374 . S
C3042 H3016 0.950 . S
C3042 C3038 1.385 . S
C3042 C3041 1.374 . S
C3043 C3040 1.499 . S
C3043 C3044 1.373 . S
C3043 C3045 1.389 1_565 S
C3044 H3017 0.950 . S
C3044 C3030 1.377 . S
C3044 C3043 1.373 . S
C3045 C3029 1.377 . S
C3045 C3043 1.389 1_545 S
C3045 C3046 1.524 . S
C3046 C3045 1.524 . S
C3046 C3047 1.397 . S
C3046 C3051 1.363 . S
C3047 H3018 0.950 . S
C3047 C3046 1.397 . S
C3047 C3048 1.334 . S
C3048 H3019 0.950 . S
C3048 C3047 1.334 . S
C3048 C3049 1.287 . S
C3049 C3048 1.287 . S
C3049 C3050 1.524 . S
C3049 H3052 0.999 . S
C3050 H3020 0.950 . S
C3050 C3049 1.524 . S
C3050 C3051 1.415 . S
C3051 H3021 0.950 . S
C3051 C3046 1.363 . S
C3051 C3050 1.415 . S
H3052 C3049 0.999 . S
H3053 C3034 0.913 . S
H3054 C3072 0.951 . S
H3055 C3074 0.951 . S
H3056 C3076 0.950 1_554 S
H3057 C3077 0.953 1_554 S
H3058 C3079 0.950 . S
H3059 C3082 0.950 . S
H3060 C3083 0.950 . S
H3061 C3085 0.950 . S
H3062 C3086 0.950 . S
H3063 C3087 0.951 . S
H3064 C3089 0.951 . S
H3065 C3091 0.950 1_556 S
H3066 C3092 0.953 1_556 S
H3067 C3094 0.950 . S
H3068 C3097 0.950 . S
H3069 C3098 0.950 . S
H3070 C3100 0.950 . S
H3071 C3101 0.950 . S
C3072 H3054 0.951 . S
C3072 C3073 1.366 . S
C3072 C3074 1.388 . S
C3073 C3072 1.366 . S
C3073 C3077 1.385 . S
C3074 H3055 0.951 . S
C3074 C3072 1.388 . S
C3074 C3075 1.366 . S
C3075 C3074 1.366 . S
C3075 C3076 1.414 . S
C3075 C3078 1.499 . S
C3076 H3056 0.950 1_556 S
C3076 C3075 1.414 . S
C3076 C3077 1.374 . S
C3077 H3057 0.953 1_556 S
C3077 C3073 1.385 . S
C3077 C3076 1.374 . S
C3078 C3075 1.499 . S
C3078 C3079 1.373 1_556 S
C3078 C3080 1.389 1_545 S
C3079 H3058 0.950 . S
C3079 C3078 1.373 1_554 S
C3079 C3095 1.377 . S
C3080 C3078 1.389 1_565 S
C3080 C3081 1.524 . S
C3080 C3094 1.377 . S
C3081 C3080 1.524 . S
C3081 C3082 1.397 . S
C3081 C3086 1.363 . S
C3082 H3059 0.950 . S
C3082 C3081 1.397 . S
C3082 C3083 1.334 . S
C3083 H3060 0.950 . S
C3083 C3082 1.334 . S
C3083 C3084 1.287 . S
C3084 C3083 1.287 . S
C3084 C3085 1.524 . S
C3084 H3103 0.913 . S
C3085 H3061 0.950 . S
C3085 C3084 1.524 . S
C3085 C3086 1.415 . S
C3086 H3062 0.950 . S
C3086 C3081 1.363 . S
C3086 C3085 1.415 . S
C3087 H3063 0.951 . S
C3087 C3088 1.366 . S
C3087 C3089 1.388 . S
C3088 C3087 1.366 . S
C3088 C3092 1.385 . S
C3089 H3064 0.951 . S
C3089 C3087 1.388 . S
C3089 C3090 1.366 . S
C3090 C3089 1.366 . S
C3090 C3091 1.414 . S
C3090 C3093 1.499 . S
C3091 H3065 0.950 1_554 S
C3091 C3090 1.414 . S
C3091 C3092 1.374 . S
C3092 H3066 0.953 1_554 S
C3092 C3088 1.385 . S
C3092 C3091 1.374 . S
C3093 C3090 1.499 . S
C3093 C3094 1.373 1_554 S
C3093 C3095 1.389 1_565 S
C3094 H3067 0.950 . S
C3094 C3080 1.377 . S
C3094 C3093 1.373 1_556 S
C3095 C3079 1.377 . S
C3095 C3093 1.389 1_545 S
C3095 C3096 1.524 . S
C3096 C3095 1.524 . S
C3096 C3097 1.397 . S
C3096 C3101 1.363 . S
C3097 H3068 0.950 . S
C3097 C3096 1.397 . S
C3097 C3098 1.334 . S
C3098 H3069 0.950 . S
C3098 C3097 1.334 . S
C3098 C3099 1.287 . S
C3099 C3098 1.287 . S
C3099 C3100 1.524 . S
C3099 H3102 0.999 . S
C3100 H3070 0.950 . S
C3100 C3099 1.524 . S
C3100 C3101 1.415 . S
C3101 H3071 0.950 . S
C3101 C3096 1.363 . S
C3101 C3100 1.415 . S
H3102 C3099 0.999 . S
H3103 C3084 0.913 . S
H3104 C3122 0.951 . S
H3105 C3124 0.951 1_655 S
H3106 C3126 0.950 . S
H3107 C3127 0.950 . S
H3108 C3129 0.950 . S
H3109 C3132 0.914 1_455 S
H3110 C3133 0.950 1_455 S
H3111 C3135 0.950 . S
H3112 C3136 0.950 . S
H3113 C3137 0.951 . S
H3114 C3139 0.951 1_455 S
H3115 C3141 0.950 . S
H3116 C3142 0.950 . S
H3117 C3144 0.950 . S
H3118 C3147 0.914 1_655 S
H3119 C3148 0.950 1_655 S
H3120 C3150 0.950 . S
H3121 C3151 0.950 . S
C3122 H3104 0.951 . S
C3122 C3123 1.366 . S
C3122 C3124 1.388 . S
C3123 C3122 1.366 . S
C3123 C3127 1.385 . S
C3124 H3105 0.951 1_455 S
C3124 C3122 1.388 . S
C3124 C3125 1.366 . S
C3125 C3124 1.366 . S
C3125 C3126 1.414 . S
C3125 C3128 1.499 . S
C3126 H3106 0.950 . S
C3126 C3125 1.414 . S
C3126 C3127 1.374 . S
C3127 H3107 0.950 . S
C3127 C3123 1.385 . S
C3127 C3126 1.374 . S
C3128 C3125 1.499 . S
C3128 C3129 1.373 1_554 S
C3128 C3130 1.389 1_455 S
C3129 H3108 0.950 . S
C3129 C3128 1.373 1_556 S
C3129 C3145 1.377 . S
C3130 C3128 1.389 1_655 S
C3130 C3131 1.524 . S
C3130 C3144 1.377 . S
C3131 C3130 1.524 . S
C3131 C3132 1.418 . S
C3131 C3136 1.363 . S
C3132 H3109 0.914 1_655 S
C3132 C3131 1.418 . S
C3132 C3133 1.348 . S
C3133 H3110 0.950 1_655 S
C3133 C3132 1.348 . S
C3133 C3134 1.287 . S
C3134 C3133 1.287 . S
C3134 C3135 1.524 . S
C3134 H3153 0.913 . S
C3135 H3111 0.950 . S
C3135 C3134 1.524 . S
C3135 C3136 1.415 . S
C3136 H3112 0.950 . S
C3136 C3131 1.363 . S
C3136 C3135 1.415 . S
C3137 H3113 0.951 . S
C3137 C3138 1.366 . S
C3137 C3139 1.388 . S
C3138 C3137 1.366 . S
C3138 C3142 1.385 . S
C3139 H3114 0.951 1_655 S
C3139 C3137 1.388 . S
C3139 C3140 1.366 . S
C3140 C3139 1.366 . S
C3140 C3141 1.414 . S
C3140 C3143 1.499 . S
C3141 H3115 0.950 . S
C3141 C3140 1.414 . S
C3141 C3142 1.374 . S
C3142 H3116 0.950 . S
C3142 C3138 1.385 . S
C3142 C3141 1.374 . S
C3143 C3140 1.499 . S
C3143 C3144 1.373 1_556 S
C3143 C3145 1.389 1_655 S
C3144 H3117 0.950 . S
C3144 C3130 1.377 . S
C3144 C3143 1.373 1_554 S
C3145 C3129 1.377 . S
C3145 C3143 1.389 1_455 S
C3145 C3146 1.524 . S
C3146 C3145 1.524 . S
C3146 C3147 1.418 . S
C3146 C3151 1.363 . S
C3147 H3118 0.914 1_455 S
C3147 C3146 1.418 . S
C3147 C3148 1.348 . S
C3148 H3119 0.950 1_455 S
C3148 C3147 1.348 . S
C3148 C3149 1.287 . S
C3149 C3148 1.287 . S
C3149 C3150 1.524 . S
C3149 H3152 0.999 . S
C3150 H3120 0.950 . S
C3150 C3149 1.524 . S
C3150 C3151 1.415 . S
C3151 H3121 0.950 . S
C3151 C3146 1.363 . S
C3151 C3150 1.415 . S
H3152 C3149 0.999 . S
H3153 C3134 0.913 . S
H3154 C3172 0.951 . S
H3155 C3174 0.951 . S
H3156 C3176 0.950 1_556 S
H3157 C3177 0.950 . S
H3158 C3179 0.950 . S
H3159 C3182 0.950 . S
H3160 C3183 0.950 . S
H3161 C3185 0.950 . S
H3162 C3186 0.950 . S
H3163 C3187 0.951 . S
H3164 C3189 0.951 . S
H3165 C3191 0.950 1_554 S
H3166 C3192 0.950 . S
H3167 C3194 0.950 . S
H3168 C3197 0.950 . S
H3169 C3198 0.950 . S
H3170 C3200 0.950 . S
H3171 C3201 0.950 . S
C3172 H3154 0.951 . S
C3172 C3173 1.366 . S
C3172 C3174 1.388 . S
C3173 C3172 1.366 . S
C3173 C3177 1.385 . S
C3174 H3155 0.951 . S
C3174 C3172 1.388 . S
C3174 C3175 1.366 . S
C3175 C3174 1.366 . S
C3175 C3176 1.414 . S
C3175 C3178 1.499 . S
C3176 H3156 0.950 1_554 S
C3176 C3175 1.414 . S
C3176 C3177 1.374 . S
C3177 H3157 0.950 . S
C3177 C3173 1.385 . S
C3177 C3176 1.374 . S
C3178 C3175 1.499 . S
C3178 C3179 1.373 1_554 S
C3178 C3180 1.389 . S
C3179 H3158 0.950 . S
C3179 C3178 1.373 1_556 S
C3179 C3195 1.377 . S
C3180 C3178 1.389 . S
C3180 C3181 1.524 . S
C3180 C3194 1.377 . S
C3181 C3180 1.524 . S
C3181 C3182 1.397 . S
C3181 C3186 1.363 . S
C3182 H3159 0.950 . S
C3182 C3181 1.397 . S
C3182 C3183 1.334 . S
C3183 H3160 0.950 . S
C3183 C3182 1.334 . S
C3183 C3184 1.287 . S
C3184 C3183 1.287 . S
C3184 C3185 1.524 . S
C3184 H3203 0.913 . S
C3185 H3161 0.950 . S
C3185 C3184 1.524 . S
C3185 C3186 1.415 . S
C3186 H3162 0.950 . S
C3186 C3181 1.363 . S
C3186 C3185 1.415 . S
C3187 H3163 0.951 . S
C3187 C3188 1.366 . S
C3187 C3189 1.388 . S
C3188 C3187 1.366 . S
C3188 C3192 1.385 . S
C3189 H3164 0.951 . S
C3189 C3187 1.388 . S
C3189 C3190 1.366 . S
C3190 C3189 1.366 . S
C3190 C3191 1.414 . S
C3190 C3193 1.499 . S
C3191 H3165 0.950 1_556 S
C3191 C3190 1.414 . S
C3191 C3192 1.374 . S
C3192 H3166 0.950 . S
C3192 C3188 1.385 . S
C3192 C3191 1.374 . S
C3193 C3190 1.499 . S
C3193 C3194 1.373 1_556 S
C3193 C3195 1.389 . S
C3194 H3167 0.950 . S
C3194 C3180 1.377 . S
C3194 C3193 1.373 1_554 S
C3195 C3179 1.377 . S
C3195 C3193 1.389 . S
C3195 C3196 1.524 . S
C3196 C3195 1.524 . S
C3196 C3197 1.397 . S
C3196 C3201 1.363 . S
C3197 H3168 0.950 . S
C3197 C3196 1.397 . S
C3197 C3198 1.334 . S
C3198 H3169 0.950 . S
C3198 C3197 1.334 . S
C3198 C3199 1.287 . S
C3199 C3198 1.287 . S
C3199 C3200 1.524 . S
C3199 H3202 0.999 . S
C3200 H3170 0.950 . S
C3200 C3199 1.524 . S
C3200 C3201 1.415 . S
C3201 H3171 0.950 . S
C3201 C3196 1.363 . S
C3201 C3200 1.415 . S
H3202 C3199 0.999 . S
H3203 C3184 0.913 . S
H3204 C3222 0.951 1_556 S
H3205 C3224 0.951 . S
H3206 C3226 0.950 . S
H3207 C3227 0.950 . S
H3208 C3229 0.950 . S
H3209 C3232 0.950 . S
H3210 C3233 0.950 . S
H3211 C3235 0.950 . S
H3212 C3236 0.950 . S
H3213 C3237 0.951 . S
H3214 C3239 0.951 . S
H3215 C3241 0.950 . S
H3216 C3242 0.950 . S
H3217 C3244 0.950 . S
H3218 C3247 0.950 . S
H3219 C3248 0.950 . S
H3220 C3250 0.950 . S
H3221 C3251 0.950 . S
C3222 H3204 0.951 1_554 S
C3222 C3223 1.366 1_554 S
C3222 C3224 1.388 . S
C3223 C3222 1.366 1_556 S
C3223 C3227 1.385 . S
C3224 H3205 0.951 . S
C3224 C3222 1.388 . S
C3224 C3225 1.366 . S
C3225 C3224 1.366 . S
C3225 C3226 1.414 . S
C3225 C3228 1.499 . S
C3226 H3206 0.950 . S
C3226 C3225 1.414 . S
C3226 C3227 1.374 1_554 S
C3227 H3207 0.950 . S
C3227 C3223 1.385 . S
C3227 C3226 1.374 1_556 S
C3228 C3225 1.499 . S
C3228 C3229 1.373 . S
C3228 C3230 1.389 . S
C3229 H3208 0.950 . S
C3229 C3228 1.373 . S
C3229 C3245 1.377 . S
C3230 C3228 1.389 . S
C3230 C3231 1.524 . S
C3230 C3244 1.377 . S
C3231 C3230 1.524 . S
C3231 C3232 1.397 . S
C3231 C3236 1.363 . S
C3232 H3209 0.950 . S
C3232 C3231 1.397 . S
C3232 C3233 1.334 1_554 S
C3233 H3210 0.950 . S
C3233 C3232 1.334 1_556 S
C3233 C3234 1.287 . S
C3234 C3233 1.287 . S
C3234 C3235 1.524 1_556 S
C3234 H3253 0.913 . S
C3235 H3211 0.950 . S
C3235 C3234 1.524 1_554 S
C3235 C3236 1.415 . S
C3236 H3212 0.950 . S
C3236 C3231 1.363 . S
C3236 C3235 1.415 . S
C3237 H3213 0.951 . S
C3237 C3238 1.366 . S
C3237 C3239 1.388 . S
C3238 C3237 1.366 . S
C3238 C3242 1.385 . S
C3239 H3214 0.951 . S
C3239 C3237 1.388 . S
C3239 C3240 1.366 . S
C3240 C3239 1.366 . S
C3240 C3241 1.414 . S
C3240 C3243 1.499 . S
C3241 H3215 0.950 . S
C3241 C3240 1.414 . S
C3241 C3242 1.374 . S
C3242 H3216 0.950 . S
C3242 C3238 1.385 . S
C3242 C3241 1.374 . S
C3243 C3240 1.499 . S
C3243 C3244 1.373 . S
C3243 C3245 1.389 . S
C3244 H3217 0.950 . S
C3244 C3230 1.377 . S
C3244 C3243 1.373 . S
C3245 C3229 1.377 . S
C3245 C3243 1.389 . S
C3245 C3246 1.524 . S
C3246 C3245 1.524 . S
C3246 C3247 1.397 . S
C3246 C3251 1.363 . S
C3247 H3218 0.950 . S
C3247 C3246 1.397 . S
C3247 C3248 1.334 . S
C3248 H3219 0.950 . S
C3248 C3247 1.334 . S
C3248 C3249 1.287 . S
C3249 C3248 1.287 . S
C3249 C3250 1.524 . S
C3249 H3252 0.999 . S
C3250 H3220 0.950 . S
C3250 C3249 1.524 . S
C3250 C3251 1.415 . S
C3251 H3221 0.950 . S
C3251 C3246 1.363 . S
C3251 C3250 1.415 . S
H3252 C3249 0.999 . S
H3253 C3234 0.913 . S
H3254 C3272 0.951 . S
H3255 C3274 0.951 . S
H3256 C3276 0.950 . S
H3257 C3277 0.950 . S
H3258 C3279 0.950 . S
H3259 C3282 0.950 . S
H3260 C3283 0.950 . S
H3261 C3285 0.950 . S
H3262 C3286 0.950 . S
H3263 C3287 0.951 . S
H3264 C3289 0.951 . S
H3265 C3291 0.950 . S
H3266 C3292 0.950 . S
H3267 C3294 0.950 . S
H3268 C3297 0.950 . S
H3269 C3298 0.950 . S
H3270 C3300 0.950 . S
H3271 C3301 0.950 . S
C3272 H3254 0.951 . S
C3272 C3273 1.366 . S
C3272 C3274 1.388 . S
C3273 C3272 1.366 . S
C3273 C3277 1.385 . S
C3274 H3255 0.951 . S
C3274 C3272 1.388 . S
C3274 C3275 1.366 . S
C3275 C3274 1.366 . S
C3275 C3276 1.414 . S
C3275 C3278 1.499 . S
C3276 H3256 0.950 . S
C3276 C3275 1.414 . S
C3276 C3277 1.374 . S
C3277 H3257 0.950 . S
C3277 C3273 1.385 . S
C3277 C3276 1.374 . S
C3278 C3275 1.499 . S
C3278 C3279 1.373 . S
C3278 C3280 1.389 . S
C3279 H3258 0.950 . S
C3279 C3278 1.373 . S
C3279 C3295 1.377 . S
C3280 C3278 1.389 . S
C3280 C3281 1.524 . S
C3280 C3294 1.377 . S
C3281 C3280 1.524 . S
C3281 C3282 1.397 . S
C3281 C3286 1.363 . S
C3282 H3259 0.950 . S
C3282 C3281 1.397 . S
C3282 C3283 1.334 . S
C3283 H3260 0.950 . S
C3283 C3282 1.334 . S
C3283 C3284 1.287 . S
C3284 C3283 1.287 . S
C3284 C3285 1.524 . S
C3284 H3303 0.913 . S
C3285 H3261 0.950 . S
C3285 C3284 1.524 . S
C3285 C3286 1.415 . S
C3286 H3262 0.950 . S
C3286 C3281 1.363 . S
C3286 C3285 1.415 . S
C3287 H3263 0.951 . S
C3287 C3288 1.366 1_554 S
C3287 C3289 1.388 . S
C3288 C3287 1.366 1_556 S
C3288 C3292 1.385 . S
C3289 H3264 0.951 . S
C3289 C3287 1.388 . S
C3289 C3290 1.366 . S
C3290 C3289 1.366 . S
C3290 C3291 1.414 . S
C3290 C3293 1.499 . S
C3291 H3265 0.950 . S
C3291 C3290 1.414 . S
C3291 C3292 1.374 1_554 S
C3292 H3266 0.950 . S
C3292 C3288 1.385 . S
C3292 C3291 1.374 1_556 S
C3293 C3290 1.499 . S
C3293 C3294 1.373 . S
C3293 C3295 1.389 . S
C3294 H3267 0.950 . S
C3294 C3280 1.377 . S
C3294 C3293 1.373 . S
C3295 C3279 1.377 . S
C3295 C3293 1.389 . S
C3295 C3296 1.524 . S
C3296 C3295 1.524 . S
C3296 C3297 1.397 . S
C3296 C3301 1.363 . S
C3297 H3268 0.950 . S
C3297 C3296 1.397 . S
C3297 C3298 1.334 . S
C3298 H3269 0.950 . S
C3298 C3297 1.334 . S
C3298 C3299 1.287 . S
C3299 C3298 1.287 . S
C3299 C3300 1.524 . S
C3299 H3302 0.999 . S
C3300 H3270 0.950 . S
C3300 C3299 1.524 . S
C3300 C3301 1.415 . S
C3301 H3271 0.950 . S
C3301 C3296 1.363 . S
C3301 C3300 1.415 . S
H3302 C3299 0.999 . S
H3303 C3284 0.913 . S
H3304 C3322 0.951 . S
H3305 C3324 0.951 . S
H3306 C3326 0.950 . S
H3307 C3327 0.950 . S
H3308 C3329 0.950 . S
H3309 C3332 0.950 . S
H3310 C3333 0.950 1_556 S
H3311 C3335 0.950 . S
H3312 C3336 0.950 . S
H3313 C3337 0.951 . S
H3314 C3339 0.951 . S
H3315 C3341 0.950 . S
H3316 C3342 0.950 . S
H3317 C3344 0.950 . S
H3318 C3347 0.950 . S
H3319 C3348 0.950 . S
H3320 C3350 0.950 . S
H3321 C3351 0.950 . S
C3322 H3304 0.951 . S
C3322 C3323 1.366 1_554 S
C3322 C3324 1.388 . S
C3323 C3322 1.366 1_556 S
C3323 C3327 1.385 . S
C3324 H3305 0.951 . S
C3324 C3322 1.388 . S
C3324 C3325 1.366 . S
C3325 C3324 1.366 . S
C3325 C3326 1.414 . S
C3325 C3328 1.499 . S
C3326 H3306 0.950 . S
C3326 C3325 1.414 . S
C3326 C3327 1.374 1_554 S
C3327 H3307 0.950 . S
C3327 C3323 1.385 . S
C3327 C3326 1.374 1_556 S
C3328 C3325 1.499 . S
C3328 C3329 1.373 . S
C3328 C3330 1.389 . S
C3329 H3308 0.950 . S
C3329 C3328 1.373 . S
C3329 C3345 1.377 . S
C3330 C3328 1.389 . S
C3330 C3331 1.524 . S
C3330 C3344 1.377 . S
C3331 C3330 1.524 . S
C3331 C3332 1.397 . S
C3331 C3336 1.363 . S
C3332 H3309 0.950 . S
C3332 C3331 1.397 . S
C3332 C3333 1.334 . S
C3333 H3310 0.950 1_554 S
C3333 C3332 1.334 . S
C3333 C3334 1.287 . S
C3334 C3333 1.287 . S
C3334 C3335 1.524 . S
C3334 H3353 0.913 . S
C3335 H3311 0.950 . S
C3335 C3334 1.524 . S
C3335 C3336 1.415 . S
C3336 H3312 0.950 . S
C3336 C3331 1.363 . S
C3336 C3335 1.415 . S
C3337 H3313 0.951 . S
C3337 C3338 1.366 . S
C3337 C3339 1.388 . S
C3338 C3337 1.366 . S
C3338 C3342 1.385 . S
C3339 H3314 0.951 . S
C3339 C3337 1.388 . S
C3339 C3340 1.366 . S
C3340 C3339 1.366 . S
C3340 C3341 1.414 . S
C3340 C3343 1.499 . S
C3341 H3315 0.950 . S
C3341 C3340 1.414 . S
C3341 C3342 1.374 . S
C3342 H3316 0.950 . S
C3342 C3338 1.385 . S
C3342 C3341 1.374 . S
C3343 C3340 1.499 . S
C3343 C3344 1.373 . S
C3343 C3345 1.389 . S
C3344 H3317 0.950 . S
C3344 C3330 1.377 . S
C3344 C3343 1.373 . S
C3345 C3329 1.377 . S
C3345 C3343 1.389 . S
C3345 C3346 1.524 . S
C3346 C3345 1.524 . S
C3346 C3347 1.397 . S
C3346 C3351 1.363 . S
C3347 H3318 0.950 . S
C3347 C3346 1.397 . S
C3347 C3348 1.334 . S
C3348 H3319 0.950 . S
C3348 C3347 1.334 . S
C3348 C3349 1.287 . S
C3349 C3348 1.287 . S
C3349 C3350 1.524 . S
C3349 H3352 0.999 . S
C3350 H3320 0.950 . S
C3350 C3349 1.524 . S
C3350 C3351 1.415 . S
C3351 H3321 0.950 . S
C3351 C3346 1.363 . S
C3351 C3350 1.415 . S
H3352 C3349 0.999 . S
H3353 C3334 0.913 . S
H3354 C3372 0.951 . S
H3355 C3374 0.951 . S
H3356 C3376 0.950 . S
H3357 C3377 0.950 . S
H3358 C3379 0.950 . S
H3359 C3382 0.950 . S
H3360 C3383 0.950 . S
H3361 C3385 0.950 . S
H3362 C3386 0.950 . S
H3363 C3387 0.951 . S
H3364 C3389 0.951 . S
H3365 C3391 0.950 . S
H3366 C3392 0.950 . S
H3367 C3394 0.950 . S
H3368 C3397 0.950 . S
H3369 C3398 0.950 . S
H3370 C3400 0.950 . S
H3371 C3401 0.950 . S
C3372 H3354 0.951 . S
C3372 C3373 1.366 . S
C3372 C3374 1.388 . S
C3373 C3372 1.366 . S
C3373 C3377 1.385 . S
C3374 H3355 0.951 . S
C3374 C3372 1.388 . S
C3374 C3375 1.366 . S
C3375 C3374 1.366 . S
C3375 C3376 1.414 . S
C3375 C3378 1.499 . S
C3376 H3356 0.950 . S
C3376 C3375 1.414 . S
C3376 C3377 1.374 . S
C3377 H3357 0.950 . S
C3377 C3373 1.385 . S
C3377 C3376 1.374 . S
C3378 C3375 1.499 . S
C3378 C3379 1.373 . S
C3378 C3380 1.389 . S
C3379 H3358 0.950 . S
C3379 C3378 1.373 . S
C3379 C3395 1.377 . S
C3380 C3378 1.389 . S
C3380 C3381 1.524 . S
C3380 C3394 1.377 . S
C3381 C3380 1.524 . S
C3381 C3382 1.397 . S
C3381 C3386 1.363 . S
C3382 H3359 0.950 . S
C3382 C3381 1.397 . S
C3382 C3383 1.334 . S
C3383 H3360 0.950 . S
C3383 C3382 1.334 . S
C3383 C3384 1.287 . S
C3384 C3383 1.287 . S
C3384 C3385 1.524 . S
C3384 H3403 0.913 . S
C3385 H3361 0.950 . S
C3385 C3384 1.524 . S
C3385 C3386 1.415 . S
C3386 H3362 0.950 . S
C3386 C3381 1.363 . S
C3386 C3385 1.415 . S
C3387 H3363 0.951 . S
C3387 C3388 1.366 . S
C3387 C3389 1.388 . S
C3388 C3387 1.366 . S
C3388 C3392 1.385 . S
C3389 H3364 0.951 . S
C3389 C3387 1.388 . S
C3389 C3390 1.366 . S
C3390 C3389 1.366 . S
C3390 C3391 1.414 . S
C3390 C3393 1.499 . S
C3391 H3365 0.950 . S
C3391 C3390 1.414 . S
C3391 C3392 1.374 . S
C3392 H3366 0.950 . S
C3392 C3388 1.385 . S
C3392 C3391 1.374 . S
C3393 C3390 1.499 . S
C3393 C3394 1.373 . S
C3393 C3395 1.389 . S
C3394 H3367 0.950 . S
C3394 C3380 1.377 . S
C3394 C3393 1.373 . S
C3395 C3379 1.377 . S
C3395 C3393 1.389 . S
C3395 C3396 1.524 . S
C3396 C3395 1.524 . S
C3396 C3397 1.397 . S
C3396 C3401 1.363 . S
C3397 H3368 0.950 . S
C3397 C3396 1.397 . S
C3397 C3398 1.334 . S
C3398 H3369 0.950 . S
C3398 C3397 1.334 . S
C3398 C3399 1.287 . S
C3399 C3398 1.287 . S
C3399 C3400 1.524 . S
C3399 H3402 0.999 . S
C3400 H3370 0.950 . S
C3400 C3399 1.524 . S
C3400 C3401 1.415 . S
C3401 H3371 0.950 . S
C3401 C3396 1.363 . S
C3401 C3400 1.415 . S
H3402 C3399 0.999 . S
H3403 C3384 0.913 . S
H3404 C3422 0.951 . S
H3405 C3424 0.951 . S
H3406 C3426 0.950 . S
H3407 C3427 0.950 . S
H3408 C3429 0.950 . S
H3409 C3432 0.950 . S
H3410 C3433 0.950 . S
H3411 C3435 0.950 . S
H3412 C3436 0.950 . S
H3413 C3437 0.951 . S
H3414 C3439 0.951 . S
H3415 C3441 0.950 . S
H3416 C3442 0.950 . S
H3417 C3444 0.950 . S
H3418 C3447 0.950 . S
H3419 C3448 0.950 . S
H3420 C3450 0.950 . S
H3421 C3451 0.950 . S
C3422 H3404 0.951 . S
C3422 C3423 1.366 . S
C3422 C3424 1.388 . S
C3423 C3422 1.366 . S
C3423 C3427 1.385 . S
C3424 H3405 0.951 . S
C3424 C3422 1.388 . S
C3424 C3425 1.366 . S
C3425 C3424 1.366 . S
C3425 C3426 1.414 . S
C3425 C3428 1.499 . S
C3426 H3406 0.950 . S
C3426 C3425 1.414 . S
C3426 C3427 1.374 . S
C3427 H3407 0.950 . S
C3427 C3423 1.385 . S
C3427 C3426 1.374 . S
C3428 C3425 1.499 . S
C3428 C3429 1.373 . S
C3428 C3430 1.389 . S
C3429 H3408 0.950 . S
C3429 C3428 1.373 . S
C3429 C3445 1.377 . S
C3430 C3428 1.389 . S
C3430 C3431 1.524 . S
C3430 C3444 1.377 . S
C3431 C3430 1.524 . S
C3431 C3432 1.397 . S
C3431 C3436 1.363 . S
C3432 H3409 0.950 . S
C3432 C3431 1.397 . S
C3432 C3433 1.334 . S
C3433 H3410 0.950 . S
C3433 C3432 1.334 . S
C3433 C3434 1.287 . S
C3434 C3433 1.287 . S
C3434 C3435 1.524 . S
C3434 H3453 0.913 . S
C3435 H3411 0.950 . S
C3435 C3434 1.524 . S
C3435 C3436 1.415 . S
C3436 H3412 0.950 . S
C3436 C3431 1.363 . S
C3436 C3435 1.415 . S
C3437 H3413 0.951 . S
C3437 C3438 1.366 . S
C3437 C3439 1.388 . S
C3438 C3437 1.366 . S
C3438 C3442 1.385 . S
C3439 H3414 0.951 . S
C3439 C3437 1.388 . S
C3439 C3440 1.366 . S
C3440 C3439 1.366 . S
C3440 C3441 1.414 . S
C3440 C3443 1.499 . S
C3441 H3415 0.950 . S
C3441 C3440 1.414 . S
C3441 C3442 1.374 . S
C3442 H3416 0.950 . S
C3442 C3438 1.385 . S
C3442 C3441 1.374 . S
C3443 C3440 1.499 . S
C3443 C3444 1.373 . S
C3443 C3445 1.389 . S
C3444 H3417 0.950 . S
C3444 C3430 1.377 . S
C3444 C3443 1.373 . S
C3445 C3429 1.377 . S
C3445 C3443 1.389 . S
C3445 C3446 1.524 . S
C3446 C3445 1.524 . S
C3446 C3447 1.397 . S
C3446 C3451 1.363 . S
C3447 H3418 0.950 . S
C3447 C3446 1.397 . S
C3447 C3448 1.334 . S
C3448 H3419 0.950 . S
C3448 C3447 1.334 . S
C3448 C3449 1.287 . S
C3449 C3448 1.287 . S
C3449 C3450 1.524 . S
C3449 H3452 0.999 . S
C3450 H3420 0.950 . S
C3450 C3449 1.524 . S
C3450 C3451 1.415 . S
C3451 H3421 0.950 . S
C3451 C3446 1.363 . S
C3451 C3450 1.415 . S
H3452 C3449 0.999 . S
H3453 C3434 0.913 . S
H3454 C3472 0.951 . S
H3455 C3474 0.951 . S
H3456 C3476 0.950 . S
H3457 C3477 0.950 . S
H3458 C3479 0.950 . S
H3459 C3482 0.950 . S
H3460 C3483 0.950 . S
H3461 C3485 0.950 . S
H3462 C3486 0.950 . S
H3463 C3487 0.951 . S
H3464 C3489 0.951 . S
H3465 C3491 0.950 . S
H3466 C3492 0.950 . S
H3467 C3494 0.950 . S
H3468 C3497 0.950 . S
H3469 C3498 0.950 . S
H3470 C3500 0.950 . S
H3471 C3501 0.950 . S
C3472 H3454 0.951 . S
C3472 C3473 1.366 . S
C3472 C3474 1.388 . S
C3473 C3472 1.366 . S
C3473 C3477 1.385 . S
C3474 H3455 0.951 . S
C3474 C3472 1.388 . S
C3474 C3475 1.366 . S
C3475 C3474 1.366 . S
C3475 C3476 1.414 . S
C3475 C3478 1.499 . S
C3476 H3456 0.950 . S
C3476 C3475 1.414 . S
C3476 C3477 1.374 . S
C3477 H3457 0.950 . S
C3477 C3473 1.385 . S
C3477 C3476 1.374 . S
C3478 C3475 1.499 . S
C3478 C3479 1.373 . S
C3478 C3480 1.389 . S
C3479 H3458 0.950 . S
C3479 C3478 1.373 . S
C3479 C3495 1.377 . S
C3480 C3478 1.389 . S
C3480 C3481 1.524 . S
C3480 C3494 1.377 . S
C3481 C3480 1.524 . S
C3481 C3482 1.397 . S
C3481 C3486 1.363 . S
C3482 H3459 0.950 . S
C3482 C3481 1.397 . S
C3482 C3483 1.334 . S
C3483 H3460 0.950 . S
C3483 C3482 1.334 . S
C3483 C3484 1.287 . S
C3484 C3483 1.287 . S
C3484 C3485 1.524 . S
C3484 H3503 0.913 . S
C3485 H3461 0.950 . S
C3485 C3484 1.524 . S
C3485 C3486 1.415 . S
C3486 H3462 0.950 . S
C3486 C3481 1.363 . S
C3486 C3485 1.415 . S
C3487 H3463 0.951 . S
C3487 C3488 1.366 . S
C3487 C3489 1.388 . S
C3488 C3487 1.366 . S
C3488 C3492 1.385 . S
C3489 H3464 0.951 . S
C3489 C3487 1.388 . S
C3489 C3490 1.366 . S
C3490 C3489 1.366 . S
C3490 C3491 1.414 . S
C3490 C3493 1.499 . S
C3491 H3465 0.950 . S
C3491 C3490 1.414 . S
C3491 C3492 1.374 . S
C3492 H3466 0.950 . S
C3492 C3488 1.385 . S
C3492 C3491 1.374 . S
C3493 C3490 1.499 . S
C3493 C3494 1.373 . S
C3493 C3495 1.389 . S
C3494 H3467 0.950 . S
C3494 C3480 1.377 . S
C3494 C3493 1.373 . S
C3495 C3479 1.377 . S
C3495 C3493 1.389 . S
C3495 C3496 1.524 . S
C3496 C3495 1.524 . S
C3496 C3497 1.397 . S
C3496 C3501 1.363 . S
C3497 H3468 0.950 . S
C3497 C3496 1.397 . S
C3497 C3498 1.334 . S
C3498 H3469 0.950 . S
C3498 C3497 1.334 . S
C3498 C3499 1.287 . S
C3499 C3498 1.287 . S
C3499 C3500 1.524 . S
C3499 H3502 0.999 . S
C3500 H3470 0.950 . S
C3500 C3499 1.524 . S
C3500 C3501 1.415 . S
C3501 H3471 0.950 . S
C3501 C3496 1.363 . S
C3501 C3500 1.415 . S
H3502 C3499 0.999 . S
H3503 C3484 0.913 . S
H3504 C3522 0.951 . S
H3505 C3524 0.951 . S
H3506 C3526 0.950 . S
H3507 C3527 0.950 . S
H3508 C3529 0.950 . S
H3509 C3532 0.950 . S
H3510 C3533 0.950 . S
H3511 C3535 0.950 . S
H3512 C3536 0.950 . S
H3513 C3537 0.951 . S
H3514 C3539 0.951 . S
H3515 C3541 0.950 . S
H3516 C3542 0.950 . S
H3517 C3544 0.950 . S
H3518 C3547 0.950 . S
H3519 C3548 0.950 . S
H3520 C3550 0.950 . S
H3521 C3551 0.950 . S
C3522 H3504 0.951 . S
C3522 C3523 1.366 . S
C3522 C3524 1.388 . S
C3523 C3522 1.366 . S
C3523 C3527 1.385 . S
C3524 H3505 0.951 . S
C3524 C3522 1.388 . S
C3524 C3525 1.366 . S
C3525 C3524 1.366 . S
C3525 C3526 1.414 . S
C3525 C3528 1.499 . S
C3526 H3506 0.950 . S
C3526 C3525 1.414 . S
C3526 C3527 1.374 . S
C3527 H3507 0.950 . S
C3527 C3523 1.385 . S
C3527 C3526 1.374 . S
C3528 C3525 1.499 . S
C3528 C3529 1.373 . S
C3528 C3530 1.389 . S
C3529 H3508 0.950 . S
C3529 C3528 1.373 . S
C3529 C3545 1.377 . S
C3530 C3528 1.389 . S
C3530 C3531 1.524 . S
C3530 C3544 1.377 . S
C3531 C3530 1.524 . S
C3531 C3532 1.397 . S
C3531 C3536 1.363 . S
C3532 H3509 0.950 . S
C3532 C3531 1.397 . S
C3532 C3533 1.334 . S
C3533 H3510 0.950 . S
C3533 C3532 1.334 . S
C3533 C3534 1.287 . S
C3534 C3533 1.287 . S
C3534 C3535 1.524 . S
C3534 H3553 0.913 . S
C3535 H3511 0.950 . S
C3535 C3534 1.524 . S
C3535 C3536 1.415 . S
C3536 H3512 0.950 . S
C3536 C3531 1.363 . S
C3536 C3535 1.415 . S
C3537 H3513 0.951 . S
C3537 C3538 1.366 1_556 S
C3537 C3539 1.388 . S
C3538 C3537 1.366 1_554 S
C3538 C3542 1.385 . S
C3539 H3514 0.951 . S
C3539 C3537 1.388 . S
C3539 C3540 1.366 . S
C3540 C3539 1.366 . S
C3540 C3541 1.414 . S
C3540 C3543 1.499 . S
C3541 H3515 0.950 . S
C3541 C3540 1.414 . S
C3541 C3542 1.374 1_556 S
C3542 H3516 0.950 . S
C3542 C3538 1.385 . S
C3542 C3541 1.374 1_554 S
C3543 C3540 1.499 . S
C3543 C3544 1.373 . S
C3543 C3545 1.389 . S
C3544 H3517 0.950 . S
C3544 C3530 1.377 . S
C3544 C3543 1.373 . S
C3545 C3529 1.377 . S
C3545 C3543 1.389 . S
C3545 C3546 1.524 . S
C3546 C3545 1.524 . S
C3546 C3547 1.397 . S
C3546 C3551 1.363 . S
C3547 H3518 0.950 . S
C3547 C3546 1.397 . S
C3547 C3548 1.334 . S
C3548 H3519 0.950 . S
C3548 C3547 1.334 . S
C3548 C3549 1.287 . S
C3549 C3548 1.287 . S
C3549 C3550 1.524 . S
C3549 H3552 0.999 . S
C3550 H3520 0.950 . S
C3550 C3549 1.524 . S
C3550 C3551 1.415 . S
C3551 H3521 0.950 . S
C3551 C3546 1.363 . S
C3551 C3550 1.415 . S
H3552 C3549 0.999 . S
H3553 C3534 0.913 . S
H3554 C3572 0.951 . S
H3555 C3574 0.951 . S
H3556 C3576 0.950 . S
H3557 C3577 0.950 1_554 S
H3558 C3579 0.950 . S
H3559 C3582 0.950 . S
H3560 C3583 0.950 . S
H3561 C3585 0.950 . S
H3562 C3586 0.950 . S
H3563 C3587 0.951 . S
H3564 C3589 0.951 . S
H3565 C3591 0.950 . S
H3566 C3592 0.950 . S
H3567 C3594 0.950 . S
H3568 C3597 0.950 . S
H3569 C3598 0.950 . S
H3570 C3600 0.950 . S
H3571 C3601 0.950 . S
C3572 H3554 0.951 . S
C3572 C3573 1.366 . S
C3572 C3574 1.388 1_554 S
C3573 C3572 1.366 . S
C3573 C3577 1.385 1_554 S
C3574 H3555 0.951 . S
C3574 C3572 1.388 1_556 S
C3574 C3575 1.366 . S
C3575 C3574 1.366 . S
C3575 C3576 1.414 . S
C3575 C3578 1.499 . S
C3576 H3556 0.950 . S
C3576 C3575 1.414 . S
C3576 C3577 1.374 . S
C3577 H3557 0.950 1_556 S
C3577 C3573 1.385 1_556 S
C3577 C3576 1.374 . S
C3578 C3575 1.499 . S
C3578 C3579 1.373 . S
C3578 C3580 1.389 . S
C3579 H3558 0.950 . S
C3579 C3578 1.373 . S
C3579 C3595 1.377 . S
C3580 C3578 1.389 . S
C3580 C3581 1.524 . S
C3580 C3594 1.377 . S
C3581 C3580 1.524 . S
C3581 C3582 1.397 . S
C3581 C3586 1.363 . S
C3582 H3559 0.950 . S
C3582 C3581 1.397 . S
C3582 C3583 1.334 . S
C3583 H3560 0.950 . S
C3583 C3582 1.334 . S
C3583 C3584 1.287 . S
C3584 C3583 1.287 . S
C3584 C3585 1.524 . S
C3584 H3603 0.913 . S
C3585 H3561 0.950 . S
C3585 C3584 1.524 . S
C3585 C3586 1.415 . S
C3586 H3562 0.950 . S
C3586 C3581 1.363 . S
C3586 C3585 1.415 . S
C3587 H3563 0.951 . S
C3587 C3588 1.366 . S
C3587 C3589 1.388 . S
C3588 C3587 1.366 . S
C3588 C3592 1.385 . S
C3589 H3564 0.951 . S
C3589 C3587 1.388 . S
C3589 C3590 1.366 . S
C3590 C3589 1.366 . S
C3590 C3591 1.414 . S
C3590 C3593 1.499 . S
C3591 H3565 0.950 . S
C3591 C3590 1.414 . S
C3591 C3592 1.374 . S
C3592 H3566 0.950 . S
C3592 C3588 1.385 . S
C3592 C3591 1.374 . S
C3593 C3590 1.499 . S
C3593 C3594 1.373 . S
C3593 C3595 1.389 . S
C3594 H3567 0.950 . S
C3594 C3580 1.377 . S
C3594 C3593 1.373 . S
C3595 C3579 1.377 . S
C3595 C3593 1.389 . S
C3595 C3596 1.524 . S
C3596 C3595 1.524 . S
C3596 C3597 1.397 . S
C3596 C3601 1.363 . S
C3597 H3568 0.950 . S
C3597 C3596 1.397 . S
C3597 C3598 1.334 . S
C3598 H3569 0.950 . S
C3598 C3597 1.334 . S
C3598 C3599 1.287 . S
C3599 C3598 1.287 . S
C3599 C3600 1.524 . S
C3599 H3602 0.999 . S
C3600 H3570 0.950 . S
C3600 C3599 1.524 . S
C3600 C3601 1.415 . S
C3601 H3571 0.950 . S
C3601 C3596 1.363 . S
C3601 C3600 1.415 . S
H3602 C3599 0.999 . S
H3603 C3584 0.913 . S
H3604 C3622 0.951 . S
H3605 C3624 0.951 . S
H3606 C3626 0.950 . S
H3607 C3627 0.950 . S
H3608 C3629 0.950 . S
H3609 C3632 0.950 . S
H3610 C3633 0.950 . S
H3611 C3635 0.950 . S
H3612 C3636 0.950 . S
H3613 C3637 0.951 . S
H3614 C3639 0.951 . S
H3615 C3641 0.950 . S
H3616 C3642 0.950 . S
H3617 C3644 0.950 . S
H3618 C3647 0.950 . S
H3619 C3648 0.950 . S
H3620 C3650 0.950 . S
H3621 C3651 0.950 . S
C3622 H3604 0.951 . S
C3622 C3623 1.366 . S
C3622 C3624 1.388 . S
C3623 C3622 1.366 . S
C3623 C3627 1.385 . S
C3624 H3605 0.951 . S
C3624 C3622 1.388 . S
C3624 C3625 1.366 . S
C3625 C3624 1.366 . S
C3625 C3626 1.414 . S
C3625 C3628 1.499 . S
C3626 H3606 0.950 . S
C3626 C3625 1.414 . S
C3626 C3627 1.374 . S
C3627 H3607 0.950 . S
C3627 C3623 1.385 . S
C3627 C3626 1.374 . S
C3628 C3625 1.499 . S
C3628 C3629 1.373 . S
C3628 C3630 1.389 . S
C3629 H3608 0.950 . S
C3629 C3628 1.373 . S
C3629 C3645 1.377 . S
C3630 C3628 1.389 . S
C3630 C3631 1.524 . S
C3630 C3644 1.377 . S
C3631 C3630 1.524 . S
C3631 C3632 1.397 . S
C3631 C3636 1.363 . S
C3632 H3609 0.950 . S
C3632 C3631 1.397 . S
C3632 C3633 1.334 . S
C3633 H3610 0.950 . S
C3633 C3632 1.334 . S
C3633 C3634 1.287 . S
C3634 C3633 1.287 . S
C3634 C3635 1.524 . S
C3634 H3653 0.913 . S
C3635 H3611 0.950 . S
C3635 C3634 1.524 . S
C3635 C3636 1.415 . S
C3636 H3612 0.950 . S
C3636 C3631 1.363 . S
C3636 C3635 1.415 . S
C3637 H3613 0.951 . S
C3637 C3638 1.366 . S
C3637 C3639 1.388 1_554 S
C3638 C3637 1.366 . S
C3638 C3642 1.385 1_554 S
C3639 H3614 0.951 . S
C3639 C3637 1.388 1_556 S
C3639 C3640 1.366 . S
C3640 C3639 1.366 . S
C3640 C3641 1.414 . S
C3640 C3643 1.499 . S
C3641 H3615 0.950 . S
C3641 C3640 1.414 . S
C3641 C3642 1.374 . S
C3642 H3616 0.950 . S
C3642 C3638 1.385 1_556 S
C3642 C3641 1.374 . S
C3643 C3640 1.499 . S
C3643 C3644 1.373 . S
C3643 C3645 1.389 . S
C3644 H3617 0.950 . S
C3644 C3630 1.377 . S
C3644 C3643 1.373 . S
C3645 C3629 1.377 . S
C3645 C3643 1.389 . S
C3645 C3646 1.524 . S
C3646 C3645 1.524 . S
C3646 C3647 1.397 . S
C3646 C3651 1.363 . S
C3647 H3618 0.950 . S
C3647 C3646 1.397 . S
C3647 C3648 1.334 . S
C3648 H3619 0.950 . S
C3648 C3647 1.334 . S
C3648 C3649 1.287 . S
C3649 C3648 1.287 . S
C3649 C3650 1.524 . S
C3649 H3652 0.999 . S
C3650 H3620 0.950 . S
C3650 C3649 1.524 . S
C3650 C3651 1.415 . S
C3651 H3621 0.950 . S
C3651 C3646 1.363 . S
C3651 C3650 1.415 . S
H3652 C3649 0.999 . S
H3653 C3634 0.913 . S
H3654 C3672 0.951 . S
H3655 C3674 0.951 . S
H3656 C3676 0.950 . S
H3657 C3677 0.950 . S
H3658 C3679 0.950 . S
H3659 C3682 0.950 . S
H3660 C3683 0.950 . S
H3661 C3685 0.950 . S
H3662 C3686 0.950 . S
H3663 C3687 0.951 . S
H3664 C3689 0.951 . S
H3665 C3691 0.950 . S
H3666 C3692 0.950 . S
H3667 C3694 0.950 . S
H3668 C3697 0.950 . S
H3669 C3698 0.950 . S
H3670 C3700 0.950 . S
H3671 C3701 0.950 . S
C3672 H3654 0.951 . S
C3672 C3673 1.366 . S
C3672 C3674 1.388 . S
C3673 C3672 1.366 . S
C3673 C3677 1.385 . S
C3674 H3655 0.951 . S
C3674 C3672 1.388 . S
C3674 C3675 1.366 . S
C3675 C3674 1.366 . S
C3675 C3676 1.414 . S
C3675 C3678 1.499 . S
C3676 H3656 0.950 . S
C3676 C3675 1.414 . S
C3676 C3677 1.374 . S
C3677 H3657 0.950 . S
C3677 C3673 1.385 . S
C3677 C3676 1.374 . S
C3678 C3675 1.499 . S
C3678 C3679 1.373 . S
C3678 C3680 1.389 . S
C3679 H3658 0.950 . S
C3679 C3678 1.373 . S
C3679 C3695 1.377 . S
C3680 C3678 1.389 . S
C3680 C3681 1.524 . S
C3680 C3694 1.377 . S
C3681 C3680 1.524 . S
C3681 C3682 1.397 . S
C3681 C3686 1.363 . S
C3682 H3659 0.950 . S
C3682 C3681 1.397 . S
C3682 C3683 1.334 . S
C3683 H3660 0.950 . S
C3683 C3682 1.334 . S
C3683 C3684 1.287 . S
C3684 C3683 1.287 . S
C3684 C3685 1.524 . S
C3684 H3703 0.913 . S
C3685 H3661 0.950 . S
C3685 C3684 1.524 . S
C3685 C3686 1.415 . S
C3686 H3662 0.950 . S
C3686 C3681 1.363 . S
C3686 C3685 1.415 . S
C3687 H3663 0.951 . S
C3687 C3688 1.366 . S
C3687 C3689 1.388 . S
C3688 C3687 1.366 . S
C3688 C3692 1.385 . S
C3689 H3664 0.951 . S
C3689 C3687 1.388 . S
C3689 C3690 1.366 . S
C3690 C3689 1.366 . S
C3690 C3691 1.414 . S
C3690 C3693 1.499 . S
C3691 H3665 0.950 . S
C3691 C3690 1.414 . S
C3691 C3692 1.374 . S
C3692 H3666 0.950 . S
C3692 C3688 1.385 . S
C3692 C3691 1.374 . S
C3693 C3690 1.499 . S
C3693 C3694 1.373 . S
C3693 C3695 1.389 . S
C3694 H3667 0.950 . S
C3694 C3680 1.377 . S
C3694 C3693 1.373 . S
C3695 C3679 1.377 . S
C3695 C3693 1.389 . S
C3695 C3696 1.524 . S
C3696 C3695 1.524 . S
C3696 C3697 1.397 . S
C3696 C3701 1.363 . S
C3697 H3668 0.950 . S
C3697 C3696 1.397 . S
C3697 C3698 1.334 . S
C3698 H3669 0.950 . S
C3698 C3697 1.334 . S
C3698 C3699 1.287 . S
C3699 C3698 1.287 . S
C3699 C3700 1.524 . S
C3699 H3702 0.999 . S
C3700 H3670 0.950 . S
C3700 C3699 1.524 . S
C3700 C3701 1.415 . S
C3701 H3671 0.950 . S
C3701 C3696 1.363 . S
C3701 C3700 1.415 . S
H3702 C3699 0.999 . S
H3703 C3684 0.913 . S
H3704 C3722 0.951 . S
H3705 C3724 0.951 . S
H3706 C3726 0.950 . S
H3707 C3727 0.950 . S
H3708 C3729 0.950 . S
H3709 C3732 0.950 . S
H3710 C3733 0.950 . S
H3711 C3735 0.950 . S
H3712 C3736 0.950 . S
H3713 C3737 0.951 . S
H3714 C3739 0.951 . S
H3715 C3741 0.950 . S
H3716 C3742 0.950 . S
H3717 C3744 0.950 . S
H3718 C3747 0.950 . S
H3719 C3748 0.950 . S
H3720 C3750 0.950 . S
H3721 C3751 0.950 . S
C3722 H3704 0.951 . S
C3722 C3723 1.366 . S
C3722 C3724 1.388 . S
C3723 C3722 1.366 . S
C3723 C3727 1.385 . S
C3724 H3705 0.951 . S
C3724 C3722 1.388 . S
C3724 C3725 1.366 . S
C3725 C3724 1.366 . S
C3725 C3726 1.414 . S
C3725 C3728 1.499 . S
C3726 H3706 0.950 . S
C3726 C3725 1.414 . S
C3726 C3727 1.374 . S
C3727 H3707 0.950 . S
C3727 C3723 1.385 . S
C3727 C3726 1.374 . S
C3728 C3725 1.499 . S
C3728 C3729 1.373 . S
C3728 C3730 1.389 . S
C3729 H3708 0.950 . S
C3729 C3728 1.373 . S
C3729 C3745 1.377 . S
C3730 C3728 1.389 . S
C3730 C3731 1.524 . S
C3730 C3744 1.377 . S
C3731 C3730 1.524 . S
C3731 C3732 1.397 . S
C3731 C3736 1.363 . S
C3732 H3709 0.950 . S
C3732 C3731 1.397 . S
C3732 C3733 1.334 . S
C3733 H3710 0.950 . S
C3733 C3732 1.334 . S
C3733 C3734 1.287 . S
C3734 C3733 1.287 . S
C3734 C3735 1.524 . S
C3734 H3753 0.913 . S
C3735 H3711 0.950 . S
C3735 C3734 1.524 . S
C3735 C3736 1.415 . S
C3736 H3712 0.950 . S
C3736 C3731 1.363 . S
C3736 C3735 1.415 . S
C3737 H3713 0.951 . S
C3737 C3738 1.366 . S
C3737 C3739 1.388 . S
C3738 C3737 1.366 . S
C3738 C3742 1.385 . S
C3739 H3714 0.951 . S
C3739 C3737 1.388 . S
C3739 C3740 1.366 . S
C3740 C3739 1.366 . S
C3740 C3741 1.414 . S
C3740 C3743 1.499 . S
C3741 H3715 0.950 . S
C3741 C3740 1.414 . S
C3741 C3742 1.374 . S
C3742 H3716 0.950 . S
C3742 C3738 1.385 . S
C3742 C3741 1.374 . S
C3743 C3740 1.499 . S
C3743 C3744 1.373 . S
C3743 C3745 1.389 . S
C3744 H3717 0.950 . S
C3744 C3730 1.377 . S
C3744 C3743 1.373 . S
C3745 C3729 1.377 . S
C3745 C3743 1.389 . S
C3745 C3746 1.524 . S
C3746 C3745 1.524 . S
C3746 C3747 1.397 . S
C3746 C3751 1.363 . S
C3747 H3718 0.950 . S
C3747 C3746 1.397 . S
C3747 C3748 1.334 . S
C3748 H3719 0.950 . S
C3748 C3747 1.334 . S
C3748 C3749 1.287 . S
C3749 C3748 1.287 . S
C3749 C3750 1.524 . S
C3749 H3752 0.999 . S
C3750 H3720 0.950 . S
C3750 C3749 1.524 . S
C3750 C3751 1.415 . S
C3751 H3721 0.950 . S
C3751 C3746 1.363 . S
C3751 C3750 1.415 . S
H3752 C3749 0.999 . S
H3753 C3734 0.913 . S
H3754 C3772 0.951 . S
H3755 C3774 0.951 . S
H3756 C3776 0.950 . S
H3757 C3777 0.950 . S
H3758 C3779 0.950 . S
H3759 C3782 0.950 . S
H3760 C3783 0.950 . S
H3761 C3785 0.950 . S
H3762 C3786 0.950 . S
H3763 C3787 0.951 . S
H3764 C3789 0.951 . S
H3765 C3791 0.950 . S
H3766 C3792 0.950 . S
H3767 C3794 0.950 . S
H3768 C3797 0.950 . S
H3769 C3798 0.950 . S
H3770 C3800 0.950 . S
H3771 C3801 0.950 . S
C3772 H3754 0.951 . S
C3772 C3773 1.366 . S
C3772 C3774 1.388 . S
C3773 C3772 1.366 . S
C3773 C3777 1.385 . S
C3774 H3755 0.951 . S
C3774 C3772 1.388 . S
C3774 C3775 1.366 . S
C3775 C3774 1.366 . S
C3775 C3776 1.414 . S
C3775 C3778 1.499 . S
C3776 H3756 0.950 . S
C3776 C3775 1.414 . S
C3776 C3777 1.374 . S
C3777 H3757 0.950 . S
C3777 C3773 1.385 . S
C3777 C3776 1.374 . S
C3778 C3775 1.499 . S
C3778 C3779 1.373 . S
C3778 C3780 1.389 . S
C3779 H3758 0.950 . S
C3779 C3778 1.373 . S
C3779 C3795 1.377 . S
C3780 C3778 1.389 . S
C3780 C3781 1.524 . S
C3780 C3794 1.377 . S
C3781 C3780 1.524 . S
C3781 C3782 1.397 . S
C3781 C3786 1.363 . S
C3782 H3759 0.950 . S
C3782 C3781 1.397 . S
C3782 C3783 1.334 . S
C3783 H3760 0.950 . S
C3783 C3782 1.334 . S
C3783 C3784 1.287 . S
C3784 C3783 1.287 . S
C3784 C3785 1.524 . S
C3784 H3803 0.913 . S
C3785 H3761 0.950 . S
C3785 C3784 1.524 . S
C3785 C3786 1.415 . S
C3786 H3762 0.950 . S
C3786 C3781 1.363 . S
C3786 C3785 1.415 . S
C3787 H3763 0.951 . S
C3787 C3788 1.366 . S
C3787 C3789 1.388 . S
C3788 C3787 1.366 . S
C3788 C3792 1.385 . S
C3789 H3764 0.951 . S
C3789 C3787 1.388 . S
C3789 C3790 1.366 . S
C3790 C3789 1.366 . S
C3790 C3791 1.414 . S
C3790 C3793 1.499 . S
C3791 H3765 0.950 . S
C3791 C3790 1.414 . S
C3791 C3792 1.374 . S
C3792 H3766 0.950 . S
C3792 C3788 1.385 . S
C3792 C3791 1.374 . S
C3793 C3790 1.499 . S
C3793 C3794 1.373 . S
C3793 C3795 1.389 . S
C3794 H3767 0.950 . S
C3794 C3780 1.377 . S
C3794 C3793 1.373 . S
C3795 C3779 1.377 . S
C3795 C3793 1.389 . S
C3795 C3796 1.524 . S
C3796 C3795 1.524 . S
C3796 C3797 1.397 . S
C3796 C3801 1.363 . S
C3797 H3768 0.950 . S
C3797 C3796 1.397 . S
C3797 C3798 1.334 . S
C3798 H3769 0.950 . S
C3798 C3797 1.334 . S
C3798 C3799 1.287 . S
C3799 C3798 1.287 . S
C3799 C3800 1.524 . S
C3799 H3802 0.999 . S
C3800 H3770 0.950 . S
C3800 C3799 1.524 . S
C3800 C3801 1.415 . S
C3801 H3771 0.950 . S
C3801 C3796 1.363 . S
C3801 C3800 1.415 . S
H3802 C3799 0.999 . S
H3803 C3784 0.913 . S
H3804 C3822 0.951 . S
H3805 C3824 0.951 . S
H3806 C3826 0.950 . S
H3807 C3827 0.950 . S
H3808 C3829 0.950 . S
H3809 C3832 0.950 . S
H3810 C3833 0.950 . S
H3811 C3835 0.950 . S
H3812 C3836 0.950 . S
H3813 C3837 0.951 . S
H3814 C3839 0.951 . S
H3815 C3841 0.950 . S
H3816 C3842 0.950 . S
H3817 C3844 0.950 . S
H3818 C3847 0.950 . S
H3819 C3848 0.950 . S
H3820 C3850 0.950 . S
H3821 C3851 0.950 . S
C3822 H3804 0.951 . S
C3822 C3823 1.366 . S
C3822 C3824 1.388 . S
C3823 C3822 1.366 . S
C3823 C3827 1.385 . S
C3824 H3805 0.951 . S
C3824 C3822 1.388 . S
C3824 C3825 1.366 . S
C3825 C3824 1.366 . S
C3825 C3826 1.414 . S
C3825 C3828 1.499 . S
C3826 H3806 0.950 . S
C3826 C3825 1.414 . S
C3826 C3827 1.374 . S
C3827 H3807 0.950 . S
C3827 C3823 1.385 . S
C3827 C3826 1.374 . S
C3828 C3825 1.499 . S
C3828 C3829 1.373 . S
C3828 C3830 1.389 . S
C3829 H3808 0.950 . S
C3829 C3828 1.373 . S
C3829 C3845 1.377 . S
C3830 C3828 1.389 . S
C3830 C3831 1.524 . S
C3830 C3844 1.377 . S
C3831 C3830 1.524 . S
C3831 C3832 1.397 . S
C3831 C3836 1.363 . S
C3832 H3809 0.950 . S
C3832 C3831 1.397 . S
C3832 C3833 1.334 . S
C3833 H3810 0.950 . S
C3833 C3832 1.334 . S
C3833 C3834 1.287 . S
C3834 C3833 1.287 . S
C3834 C3835 1.524 . S
C3834 H3853 0.913 . S
C3835 H3811 0.950 . S
C3835 C3834 1.524 . S
C3835 C3836 1.415 . S
C3836 H3812 0.950 . S
C3836 C3831 1.363 . S
C3836 C3835 1.415 . S
C3837 H3813 0.951 . S
C3837 C3838 1.366 . S
C3837 C3839 1.388 . S
C3838 C3837 1.366 . S
C3838 C3842 1.385 . S
C3839 H3814 0.951 . S
C3839 C3837 1.388 . S
C3839 C3840 1.366 . S
C3840 C3839 1.366 . S
C3840 C3841 1.414 . S
C3840 C3843 1.499 . S
C3841 H3815 0.950 . S
C3841 C3840 1.414 . S
C3841 C3842 1.374 . S
C3842 H3816 0.950 . S
C3842 C3838 1.385 . S
C3842 C3841 1.374 . S
C3843 C3840 1.499 . S
C3843 C3844 1.373 . S
C3843 C3845 1.389 . S
C3844 H3817 0.950 . S
C3844 C3830 1.377 . S
C3844 C3843 1.373 . S
C3845 C3829 1.377 . S
C3845 C3843 1.389 . S
C3845 C3846 1.524 . S
C3846 C3845 1.524 . S
C3846 C3847 1.397 . S
C3846 C3851 1.363 . S
C3847 H3818 0.950 . S
C3847 C3846 1.397 . S
C3847 C3848 1.334 . S
C3848 H3819 0.950 . S
C3848 C3847 1.334 . S
C3848 C3849 1.287 . S
C3849 C3848 1.287 . S
C3849 C3850 1.524 . S
C3849 H3852 0.999 . S
C3850 H3820 0.950 . S
C3850 C3849 1.524 . S
C3850 C3851 1.415 . S
C3851 H3821 0.950 . S
C3851 C3846 1.363 . S
C3851 C3850 1.415 . S
H3852 C3849 0.999 . S
H3853 C3834 0.913 . S
H3854 C3872 0.951 . S
H3855 C3874 0.951 . S
H3856 C3876 0.950 . S
H3857 C3877 0.950 . S
H3858 C3879 0.950 . S
H3859 C3882 0.950 . S
H3860 C3883 0.950 . S
H3861 C3885 0.950 . S
H3862 C3886 0.950 . S
H3863 C3887 0.951 . S
H3864 C3889 0.951 . S
H3865 C3891 0.950 . S
H3866 C3892 0.950 . S
H3867 C3894 0.950 . S
H3868 C3897 0.950 . S
H3869 C3898 0.950 . S
H3870 C3900 0.950 . S
H3871 C3901 0.950 . S
C3872 H3854 0.951 . S
C3872 C3873 1.366 . S
C3872 C3874 1.388 . S
C3873 C3872 1.366 . S
C3873 C3877 1.385 . S
C3874 H3855 0.951 . S
C3874 C3872 1.388 . S
C3874 C3875 1.366 . S
C3875 C3874 1.366 . S
C3875 C3876 1.414 . S
C3875 C3878 1.499 . S
C3876 H3856 0.950 . S
C3876 C3875 1.414 . S
C3876 C3877 1.374 . S
C3877 H3857 0.950 . S
C3877 C3873 1.385 . S
C3877 C3876 1.374 . S
C3878 C3875 1.499 . S
C3878 C3879 1.373 . S
C3878 C3880 1.389 . S
C3879 H3858 0.950 . S
C3879 C3878 1.373 . S
C3879 C3895 1.377 1_545 S
C3880 C3878 1.389 . S
C3880 C3881 1.524 . S
C3880 C3894 1.377 1_545 S
C3881 C3880 1.524 . S
C3881 C3882 1.397 . S
C3881 C3886 1.363 1_545 S
C3882 H3859 0.950 . S
C3882 C3881 1.397 . S
C3882 C3883 1.334 . S
C3883 H3860 0.950 . S
C3883 C3882 1.334 . S
C3883 C3884 1.287 . S
C3884 C3883 1.287 . S
C3884 C3885 1.524 1_545 S
C3884 H3903 0.913 . S
C3885 H3861 0.950 . S
C3885 C3884 1.524 1_565 S
C3885 C3886 1.415 . S
C3886 H3862 0.950 . S
C3886 C3881 1.363 1_565 S
C3886 C3885 1.415 . S
C3887 H3863 0.951 . S
C3887 C3888 1.366 . S
C3887 C3889 1.388 . S
C3888 C3887 1.366 . S
C3888 C3892 1.385 . S
C3889 H3864 0.951 . S
C3889 C3887 1.388 . S
C3889 C3890 1.366 . S
C3890 C3889 1.366 . S
C3890 C3891 1.414 . S
C3890 C3893 1.499 . S
C3891 H3865 0.950 . S
C3891 C3890 1.414 . S
C3891 C3892 1.374 . S
C3892 H3866 0.950 . S
C3892 C3888 1.385 . S
C3892 C3891 1.374 . S
C3893 C3890 1.499 . S
C3893 C3894 1.373 . S
C3893 C3895 1.389 . S
C3894 H3867 0.950 . S
C3894 C3880 1.377 1_565 S
C3894 C3893 1.373 . S
C3895 C3879 1.377 1_565 S
C3895 C3893 1.389 . S
C3895 C3896 1.524 . S
C3896 C3895 1.524 . S
C3896 C3897 1.397 . S
C3896 C3901 1.363 1_565 S
C3897 H3868 0.950 . S
C3897 C3896 1.397 . S
C3897 C3898 1.334 . S
C3898 H3869 0.950 . S
C3898 C3897 1.334 . S
C3898 C3899 1.287 . S
C3899 C3898 1.287 . S
C3899 C3900 1.524 1_565 S
C3899 H3902 0.999 . S
C3900 H3870 0.950 . S
C3900 C3899 1.524 1_545 S
C3900 C3901 1.415 . S
C3901 H3871 0.950 . S
C3901 C3896 1.363 1_545 S
C3901 C3900 1.415 . S
H3902 C3899 0.999 . S
H3903 C3884 0.913 . S
H3904 C3922 0.951 . S
H3905 C3924 0.951 . S
H3906 C3926 0.950 . S
H3907 C3927 0.950 . S
H3908 C3929 0.950 . S
H3909 C3932 0.950 . S
H3910 C3933 0.950 . S
H3911 C3935 0.950 . S
H3912 C3936 0.950 . S
H3913 C3937 0.951 . S
H3914 C3939 0.951 . S
H3915 C3941 0.950 . S
H3916 C3942 0.950 . S
H3917 C3944 0.950 . S
H3918 C3947 0.950 . S
H3919 C3948 0.950 . S
H3920 C3950 0.950 . S
H3921 C3951 0.950 . S
C3922 H3904 0.951 . S
C3922 C3923 1.366 . S
C3922 C3924 1.388 . S
C3923 C3922 1.366 . S
C3923 C3927 1.385 . S
C3924 H3905 0.951 . S
C3924 C3922 1.388 . S
C3924 C3925 1.366 . S
C3925 C3924 1.366 . S
C3925 C3926 1.414 . S
C3925 C3928 1.499 . S
C3926 H3906 0.950 . S
C3926 C3925 1.414 . S
C3926 C3927 1.374 . S
C3927 H3907 0.950 . S
C3927 C3923 1.385 . S
C3927 C3926 1.374 . S
C3928 C3925 1.499 . S
C3928 C3929 1.373 1_655 S
C3928 C3930 1.389 . S
C3929 H3908 0.950 . S
C3929 C3928 1.373 1_455 S
C3929 C3945 1.377 . S
C3930 C3928 1.389 . S
C3930 C3931 1.524 . S
C3930 C3944 1.377 . S
C3931 C3930 1.524 . S
C3931 C3932 1.397 . S
C3931 C3936 1.363 . S
C3932 H3909 0.950 . S
C3932 C3931 1.397 . S
C3932 C3933 1.334 . S
C3933 H3910 0.950 . S
C3933 C3932 1.334 . S
C3933 C3934 1.287 . S
C3934 C3933 1.287 . S
C3934 C3935 1.524 . S
C3934 H3953 0.913 . S
C3935 H3911 0.950 . S
C3935 C3934 1.524 . S
C3935 C3936 1.415 . S
C3936 H3912 0.950 . S
C3936 C3931 1.363 . S
C3936 C3935 1.415 . S
C3937 H3913 0.951 . S
C3937 C3938 1.366 . S
C3937 C3939 1.388 . S
C3938 C3937 1.366 . S
C3938 C3942 1.385 . S
C3939 H3914 0.951 . S
C3939 C3937 1.388 . S
C3939 C3940 1.366 . S
C3940 C3939 1.366 . S
C3940 C3941 1.414 . S
C3940 C3943 1.499 . S
C3941 H3915 0.950 . S
C3941 C3940 1.414 . S
C3941 C3942 1.374 . S
C3942 H3916 0.950 . S
C3942 C3938 1.385 . S
C3942 C3941 1.374 . S
C3943 C3940 1.499 . S
C3943 C3944 1.373 1_455 S
C3943 C3945 1.389 . S
C3944 H3917 0.950 . S
C3944 C3930 1.377 . S
C3944 C3943 1.373 1_655 S
C3945 C3929 1.377 . S
C3945 C3943 1.389 . S
C3945 C3946 1.524 . S
C3946 C3945 1.524 . S
C3946 C3947 1.397 . S
C3946 C3951 1.363 . S
C3947 H3918 0.950 . S
C3947 C3946 1.397 . S
C3947 C3948 1.334 . S
C3948 H3919 0.950 . S
C3948 C3947 1.334 . S
C3948 C3949 1.287 . S
C3949 C3948 1.287 . S
C3949 C3950 1.524 . S
C3949 H3952 0.999 . S
C3950 H3920 0.950 . S
C3950 C3949 1.524 . S
C3950 C3951 1.415 . S
C3951 H3921 0.950 . S
C3951 C3946 1.363 . S
C3951 C3950 1.415 . S
H3952 C3949 0.999 . S
H3953 C3934 0.913 . S
H3954 C3972 0.951 . S
H3955 C3974 0.951 . S
H3956 C3976 0.950 . S
H3957 C3977 0.950 . S
H3958 C3979 0.950 . S
H3959 C3982 0.950 . S
H3960 C3983 0.950 . S
H3961 C3985 0.950 . S
H3962 C3986 0.950 . S
H3963 C3987 0.951 . S
H3964 C3989 0.951 . S
H3965 C3991 0.950 . S
H3966 C3992 0.950 . S
H3967 C3994 0.950 . S
H3968 C3997 0.950 . S
H3969 C3998 0.950 . S
H3970 C4000 0.950 . S
H3971 C4001 0.950 . S
C3972 H3954 0.951 . S
C3972 C3973 1.366 . S
C3972 C3974 1.388 . S
C3973 C3972 1.366 . S
C3973 C3977 1.385 . S
C3974 H3955 0.951 . S
C3974 C3972 1.388 . S
C3974 C3975 1.366 . S
C3975 C3974 1.366 . S
C3975 C3976 1.414 . S
C3975 C3978 1.499 . S
C3976 H3956 0.950 . S
C3976 C3975 1.414 . S
C3976 C3977 1.374 . S
C3977 H3957 0.950 . S
C3977 C3973 1.385 . S
C3977 C3976 1.374 . S
C3978 C3975 1.499 . S
C3978 C3979 1.373 . S
C3978 C3980 1.389 . S
C3979 H3958 0.950 . S
C3979 C3978 1.373 . S
C3979 C3995 1.377 . S
C3980 C3978 1.389 . S
C3980 C3981 1.524 . S
C3980 C3994 1.377 . S
C3981 C3980 1.524 . S
C3981 C3982 1.397 . S
C3981 C3986 1.363 . S
C3982 H3959 0.950 . S
C3982 C3981 1.397 . S
C3982 C3983 1.334 . S
C3983 H3960 0.950 . S
C3983 C3982 1.334 . S
C3983 C3984 1.287 . S
C3984 C3983 1.287 . S
C3984 C3985 1.524 . S
C3984 H4003 0.913 . S
C3985 H3961 0.950 . S
C3985 C3984 1.524 . S
C3985 C3986 1.415 . S
C3986 H3962 0.950 . S
C3986 C3981 1.363 . S
C3986 C3985 1.415 . S
C3987 H3963 0.951 . S
C3987 C3988 1.366 . S
C3987 C3989 1.388 . S
C3988 C3987 1.366 . S
C3988 C3992 1.385 . S
C3989 H3964 0.951 . S
C3989 C3987 1.388 . S
C3989 C3990 1.366 . S
C3990 C3989 1.366 . S
C3990 C3991 1.414 . S
C3990 C3993 1.499 . S
C3991 H3965 0.950 . S
C3991 C3990 1.414 . S
C3991 C3992 1.374 . S
C3992 H3966 0.950 . S
C3992 C3988 1.385 . S
C3992 C3991 1.374 . S
C3993 C3990 1.499 . S
C3993 C3994 1.373 . S
C3993 C3995 1.389 . S
C3994 H3967 0.950 . S
C3994 C3980 1.377 . S
C3994 C3993 1.373 . S
C3995 C3979 1.377 . S
C3995 C3993 1.389 . S
C3995 C3996 1.524 . S
C3996 C3995 1.524 . S
C3996 C3997 1.397 . S
C3996 C4001 1.363 . S
C3997 H3968 0.950 . S
C3997 C3996 1.397 . S
C3997 C3998 1.334 . S
C3998 H3969 0.950 . S
C3998 C3997 1.334 . S
C3998 C3999 1.287 . S
C3999 C3998 1.287 . S
C3999 C4000 1.524 . S
C3999 H4002 0.999 . S
C4000 H3970 0.950 . S
C4000 C3999 1.524 . S
C4000 C4001 1.415 . S
C4001 H3971 0.950 . S
C4001 C3996 1.363 . S
C4001 C4000 1.415 . S
H4002 C3999 0.999 . S
H4003 C3984 0.913 . S
H4004 C4022 0.951 . S
H4005 C4024 0.951 . S
H4006 C4026 0.950 . S
H4007 C4027 0.950 . S
H4008 C4029 0.950 . S
H4009 C4032 0.950 . S
H4010 C4033 0.950 . S
H4011 C4035 0.950 . S
H4012 C4036 0.950 . S
H4013 C4037 0.951 . S
H4014 C4039 0.951 . S
H4015 C4041 0.950 . S
H4016 C4042 0.950 . S
H4017 C4044 0.950 . S
H4018 C4047 0.950 . S
H4019 C4048 0.950 . S
H4020 C4050 0.950 . S
H4021 C4051 0.950 . S
C4022 H4004 0.951 . S
C4022 C4023 1.366 . S
C4022 C4024 1.388 . S
C4023 C4022 1.366 . S
C4023 C4027 1.385 . S
C4024 H4005 0.951 . S
C4024 C4022 1.388 . S
C4024 C4025 1.366 . S
C4025 C4024 1.366 . S
C4025 C4026 1.414 . S
C4025 C4028 1.499 . S
C4026 H4006 0.950 . S
C4026 C4025 1.414 . S
C4026 C4027 1.374 . S
C4027 H4007 0.950 . S
C4027 C4023 1.385 . S
C4027 C4026 1.374 . S
C4028 C4025 1.499 . S
C4028 C4029 1.373 . S
C4028 C4030 1.389 1_545 S
C4029 H4008 0.950 . S
C4029 C4028 1.373 . S
C4029 C4045 1.377 . S
C4030 C4028 1.389 1_565 S
C4030 C4031 1.524 . S
C4030 C4044 1.377 . S
C4031 C4030 1.524 . S
C4031 C4032 1.397 1_565 S
C4031 C4036 1.363 . S
C4032 H4009 0.950 . S
C4032 C4031 1.397 1_545 S
C4032 C4033 1.334 . S
C4033 H4010 0.950 . S
C4033 C4032 1.334 . S
C4033 C4034 1.287 1_545 S
C4034 C4033 1.287 1_565 S
C4034 C4035 1.524 . S
C4034 H4053 0.913 . S
C4035 H4011 0.950 . S
C4035 C4034 1.524 . S
C4035 C4036 1.415 . S
C4036 H4012 0.950 . S
C4036 C4031 1.363 . S
C4036 C4035 1.415 . S
C4037 H4013 0.951 . S
C4037 C4038 1.366 . S
C4037 C4039 1.388 . S
C4038 C4037 1.366 . S
C4038 C4042 1.385 . S
C4039 H4014 0.951 . S
C4039 C4037 1.388 . S
C4039 C4040 1.366 . S
C4040 C4039 1.366 . S
C4040 C4041 1.414 . S
C4040 C4043 1.499 . S
C4041 H4015 0.950 . S
C4041 C4040 1.414 . S
C4041 C4042 1.374 . S
C4042 H4016 0.950 . S
C4042 C4038 1.385 . S
C4042 C4041 1.374 . S
C4043 C4040 1.499 . S
C4043 C4044 1.373 . S
C4043 C4045 1.389 1_565 S
C4044 H4017 0.950 . S
C4044 C4030 1.377 . S
C4044 C4043 1.373 . S
C4045 C4029 1.377 . S
C4045 C4043 1.389 1_545 S
C4045 C4046 1.524 . S
C4046 C4045 1.524 . S
C4046 C4047 1.397 1_545 S
C4046 C4051 1.363 . S
C4047 H4018 0.950 . S
C4047 C4046 1.397 1_565 S
C4047 C4048 1.334 . S
C4048 H4019 0.950 . S
C4048 C4047 1.334 . S
C4048 C4049 1.287 1_565 S
C4049 C4048 1.287 1_545 S
C4049 C4050 1.524 . S
C4049 H4052 0.999 . S
C4050 H4020 0.950 . S
C4050 C4049 1.524 . S
C4050 C4051 1.415 . S
C4051 H4021 0.950 . S
C4051 C4046 1.363 . S
C4051 C4050 1.415 . S
H4052 C4049 0.999 . S
H4053 C4034 0.913 . S
H4054 C4072 0.951 . S
H4055 C4074 0.951 . S
H4056 C4076 0.950 . S
H4057 C4077 0.950 . S
H4058 C4079 0.950 . S
H4059 C4082 0.950 . S
H4060 C4083 0.950 . S
H4061 C4085 0.950 . S
H4062 C4086 0.950 . S
H4063 C4087 0.951 . S
H4064 C4089 0.951 . S
H4065 C4091 0.950 . S
H4066 C4092 0.950 . S
H4067 C4094 0.950 . S
H4068 C4097 0.950 . S
H4069 C4098 0.950 . S
H4070 C4100 0.950 . S
H4071 C4101 0.950 . S
C4072 H4054 0.951 . S
C4072 C4073 1.366 . S
C4072 C4074 1.388 . S
C4073 C4072 1.366 . S
C4073 C4077 1.385 . S
C4074 H4055 0.951 . S
C4074 C4072 1.388 . S
C4074 C4075 1.366 . S
C4075 C4074 1.366 . S
C4075 C4076 1.414 . S
C4075 C4078 1.499 . S
C4076 H4056 0.950 . S
C4076 C4075 1.414 . S
C4076 C4077 1.374 . S
C4077 H4057 0.950 . S
C4077 C4073 1.385 . S
C4077 C4076 1.374 . S
C4078 C4075 1.499 . S
C4078 C4079 1.373 1_455 S
C4078 C4080 1.389 . S
C4079 H4058 0.950 . S
C4079 C4078 1.373 1_655 S
C4079 C4095 1.377 . S
C4080 C4078 1.389 . S
C4080 C4081 1.524 . S
C4080 C4094 1.377 . S
C4081 C4080 1.524 . S
C4081 C4082 1.397 . S
C4081 C4086 1.363 . S
C4082 H4059 0.950 . S
C4082 C4081 1.397 . S
C4082 C4083 1.334 . S
C4083 H4060 0.950 . S
C4083 C4082 1.334 . S
C4083 C4084 1.287 . S
C4084 C4083 1.287 . S
C4084 C4085 1.524 . S
C4084 H4103 0.913 . S
C4085 H4061 0.950 . S
C4085 C4084 1.524 . S
C4085 C4086 1.415 . S
C4086 H4062 0.950 . S
C4086 C4081 1.363 . S
C4086 C4085 1.415 . S
C4087 H4063 0.951 . S
C4087 C4088 1.366 . S
C4087 C4089 1.388 . S
C4088 C4087 1.366 . S
C4088 C4092 1.385 . S
C4089 H4064 0.951 . S
C4089 C4087 1.388 . S
C4089 C4090 1.366 . S
C4090 C4089 1.366 . S
C4090 C4091 1.414 . S
C4090 C4093 1.499 . S
C4091 H4065 0.950 . S
C4091 C4090 1.414 . S
C4091 C4092 1.374 . S
C4092 H4066 0.950 . S
C4092 C4088 1.385 . S
C4092 C4091 1.374 . S
C4093 C4090 1.499 . S
C4093 C4094 1.373 1_655 S
C4093 C4095 1.389 . S
C4094 H4067 0.950 . S
C4094 C4080 1.377 . S
C4094 C4093 1.373 1_455 S
C4095 C4079 1.377 . S
C4095 C4093 1.389 . S
C4095 C4096 1.524 . S
C4096 C4095 1.524 . S
C4096 C4097 1.397 . S
C4096 C4101 1.363 . S
C4097 H4068 0.950 . S
C4097 C4096 1.397 . S
C4097 C4098 1.334 . S
C4098 H4069 0.950 . S
C4098 C4097 1.334 . S
C4098 C4099 1.287 . S
C4099 C4098 1.287 . S
C4099 C4100 1.524 . S
C4099 H4102 0.999 . S
C4100 H4070 0.950 . S
C4100 C4099 1.524 . S
C4100 C4101 1.415 . S
C4101 H4071 0.950 . S
C4101 C4096 1.363 . S
C4101 C4100 1.415 . S
H4102 C4099 0.999 . S
H4103 C4084 0.913 . S
C523 C79 0.618 . S
C538 C9 0.619 . S
C573 C51 0.618 . S
C588 C23 0.619 . S
C623 C37 0.619 . S
C638 C65 0.617 . S
C673 C93 0.619 . S
C688 C163 0.618 . S
C723 C107 0.619 . S
C738 C135 0.619 . S
C773 C149 0.619 . S
C788 C121 0.619 . S
C823 C177 0.618 . S
C838 C247 0.618 . S
C873 C191 0.619 . S
C888 C219 0.618 . S
C923 C233 0.617 . S
C938 C205 0.619 . S
C973 C331 0.618 . S
C988 C261 0.619 . S
C1023 C303 0.619 . S
C1038 C275 0.618 . S
C1073 C289 0.619 . S
C1088 C317 0.618 . S
C1123 C415 0.618 . S
C1138 C345 0.620 . S
C1173 C387 0.619 . S
C1188 C359 0.619 . S
C1223 C373 0.618 . S
C1238 C401 0.619 . S
C1273 C499 0.618 . S
C1288 C429 0.619 . S
C1323 C471 0.620 . S
C1338 C443 0.619 . S
C1373 C485 0.618 . S
C1388 C457 0.618 . S
C1423 C231 1.462 . S
C1438 C7 1.462 . S
C1473 C245 1.462 . S
C1488 C21 1.462 . S
C1523 C217 1.461 . S
C1538 C35 1.462 . S
C1573 C49 1.462 . S
C1588 C371 1.461 . S
C1623 C63 1.462 . S
C1638 C343 1.462 . S
C1673 C77 1.462 . S
C1688 C357 1.461 . S
C1723 C91 1.461 . S
C1738 C483 1.462 . S
C1773 C497 1.462 . S
C1788 C105 1.461 . S
C1823 C469 1.462 . S
C1838 C119 1.463 . S
C1873 C287 1.461 . S
C1888 C133 1.461 . S
C1923 C259 1.461 . S
C1938 C147 1.462 . S
C1973 C161 1.461 . S
C1988 C273 1.461 . S
C2023 C175 1.462 . S
C2038 C399 1.461 . S
C2073 C413 1.463 . S
C2088 C189 1.462 . S
C2123 C385 1.462 . S
C2138 C203 1.461 . S
C2173 C301 1.461 . S
C2188 C455 1.462 . S
C2223 C427 1.462 . S
C2238 C315 1.461 . S
C2273 C329 1.462 . S
C2288 C441 1.461 . S
C2323 C260 1.626 . S
C2338 C8 1.626 . S
C2373 C274 1.627 . S
C2388 C22 1.627 . S
C2423 C36 1.628 . S
C2438 C288 1.628 . S
C2473 C50 1.626 . S
C2488 C470 1.626 . S
C2523 C484 1.628 . S
C2538 C64 1.628 . S
C2573 C498 1.628 . S
C2588 C78 1.628 . S
C2623 C92 1.626 . S
C2638 C344 1.626 . S
C2673 C106 1.628 . S
C2688 C358 1.628 . S
C2723 C372 1.628 . S
C2738 C120 1.628 . S
C2773 C134 1.626 . S
C2788 C218 1.626 . S
C2823 C148 1.628 . S
C2838 C232 1.628 . S
C2873 C246 1.627 . S
C2888 C162 1.627 . S
C2923 C176 1.626 . S
C2938 C428 1.626 . S
C2973 C190 1.627 . S
C2988 C442 1.627 . S
C3023 C456 1.628 . S
C3038 C204 1.628 . S
C3073 C386 1.626 . S
C3088 C302 1.626 . S
C3123 C316 1.627 . S
C3138 C400 1.627 . S
C3173 C330 1.627 . S
C3188 C414 1.627 . S
C3223 C381 1.577 . S
C3238 C3 1.576 . S
C3273 C17 1.578 . S
C3288 C395 1.577 . S
C3323 C409 1.578 . S
C3338 C31 1.577 . S
C3373 C45 1.577 . S
C3388 C171 1.577 . S
C3423 C185 1.578 . S
C3438 C59 1.577 . S
C3473 C199 1.577 . S
C3488 C73 1.578 . S
C3523 C87 1.577 . S
C3538 C297 1.577 . S
C3573 C311 1.578 . S
C3588 C101 1.577 . S
C3623 C115 1.578 . S
C3638 C325 1.577 . S
C3673 C129 1.577 . S
C3688 C423 1.576 . S
C3723 C143 1.577 . S
C3738 C437 1.578 . S
C3773 C451 1.578 . S
C3788 C157 1.577 . S
C3823 C213 1.577 . S
C3838 C339 1.577 . S
C3873 C227 1.577 . S
C3888 C353 1.578 . S
C3923 C241 1.578 . S
C3938 C367 1.577 . S
C3973 C255 1.577 . S
C3988 C465 1.576 . S
C4023 C269 1.578 . S
C4038 C479 1.577 . S
C4073 C493 1.577 . S
C4088 C283 1.578 . S
