# Generated by pormake.
# Topology rho, (4)-cn, num edge types: 1
# Building blocks:
#     Node 0, Type 0, BuildingBlock: KUFVIS_clean_sbu_0, # of connection points: 4
#     Node 1, Type 0, BuildingBlock: KUFVIS_clean_sbu_0, # of connection points: 4
#     Node 2, Type 0, BuildingBlock: KUFVIS_clean_sbu_0, # of connection points: 4
#     Node 3, Type 0, BuildingBlock: KUFVIS_clean_sbu_0, # of connection points: 4
#     Node 4, Type 0, BuildingBlock: KUFVIS_clean_sbu_0, # of connection points: 4
#     Node 5, Type 0, BuildingBlock: KUFVIS_clean_sbu_0, # of connection points: 4
#     Node 6, Type 0, BuildingBlock: KUFVIS_clean_sbu_0, # of connection points: 4
#     Node 7, Type 0, BuildingBlock: KUFVIS_clean_sbu_0, # of connection points: 4
#     Node 8, Type 0, BuildingBlock: KUFVIS_clean_sbu_0, # of connection points: 4
#     Node 9, Type 0, BuildingBlock: KUFVIS_clean_sbu_0, # of connection points: 4
#     Node 10, Type 0, BuildingBlock: KUFVIS_clean_sbu_0, # of connection points: 4
#     Node 11, Type 0, BuildingBlock: KUFVIS_clean_sbu_0, # of connection points: 4
#     Node 12, Type 0, BuildingBlock: KUFVIS_clean_sbu_0, # of connection points: 4
#     Node 13, Type 0, BuildingBlock: KUFVIS_clean_sbu_0, # of connection points: 4
#     Node 14, Type 0, BuildingBlock: KUFVIS_clean_sbu_0, # of connection points: 4
#     Node 15, Type 0, BuildingBlock: KUFVIS_clean_sbu_0, # of connection points: 4
#     Node 16, Type 0, BuildingBlock: KUFVIS_clean_sbu_0, # of connection points: 4
#     Node 17, Type 0, BuildingBlock: KUFVIS_clean_sbu_0, # of connection points: 4
#     Node 18, Type 0, BuildingBlock: KUFVIS_clean_sbu_0, # of connection points: 4
#     Node 19, Type 0, BuildingBlock: KUFVIS_clean_sbu_0, # of connection points: 4
#     Node 20, Type 0, BuildingBlock: KUFVIS_clean_sbu_0, # of connection points: 4
#     Node 21, Type 0, BuildingBlock: KUFVIS_clean_sbu_0, # of connection points: 4
#     Node 22, Type 0, BuildingBlock: KUFVIS_clean_sbu_0, # of connection points: 4
#     Node 23, Type 0, BuildingBlock: KUFVIS_clean_sbu_0, # of connection points: 4
#     Node 24, Type 0, BuildingBlock: KUFVIS_clean_sbu_0, # of connection points: 4
#     Node 25, Type 0, BuildingBlock: KUFVIS_clean_sbu_0, # of connection points: 4
#     Node 26, Type 0, BuildingBlock: KUFVIS_clean_sbu_0, # of connection points: 4
#     Node 27, Type 0, BuildingBlock: KUFVIS_clean_sbu_0, # of connection points: 4
#     Node 28, Type 0, BuildingBlock: KUFVIS_clean_sbu_0, # of connection points: 4
#     Node 29, Type 0, BuildingBlock: KUFVIS_clean_sbu_0, # of connection points: 4
#     Node 30, Type 0, BuildingBlock: KUFVIS_clean_sbu_0, # of connection points: 4
#     Node 31, Type 0, BuildingBlock: KUFVIS_clean_sbu_0, # of connection points: 4
#     Node 32, Type 0, BuildingBlock: KUFVIS_clean_sbu_0, # of connection points: 4
#     Node 33, Type 0, BuildingBlock: KUFVIS_clean_sbu_0, # of connection points: 4
#     Node 34, Type 0, BuildingBlock: KUFVIS_clean_sbu_0, # of connection points: 4
#     Node 35, Type 0, BuildingBlock: KUFVIS_clean_sbu_0, # of connection points: 4
#     Node 36, Type 0, BuildingBlock: KUFVIS_clean_sbu_0, # of connection points: 4
#     Node 37, Type 0, BuildingBlock: KUFVIS_clean_sbu_0, # of connection points: 4
#     Node 38, Type 0, BuildingBlock: KUFVIS_clean_sbu_0, # of connection points: 4
#     Node 39, Type 0, BuildingBlock: KUFVIS_clean_sbu_0, # of connection points: 4
#     Node 40, Type 0, BuildingBlock: KUFVIS_clean_sbu_0, # of connection points: 4
#     Node 41, Type 0, BuildingBlock: KUFVIS_clean_sbu_0, # of connection points: 4
#     Node 42, Type 0, BuildingBlock: KUFVIS_clean_sbu_0, # of connection points: 4
#     Node 43, Type 0, BuildingBlock: KUFVIS_clean_sbu_0, # of connection points: 4
#     Node 44, Type 0, BuildingBlock: KUFVIS_clean_sbu_0, # of connection points: 4
#     Node 45, Type 0, BuildingBlock: KUFVIS_clean_sbu_0, # of connection points: 4
#     Node 46, Type 0, BuildingBlock: KUFVIS_clean_sbu_0, # of connection points: 4
#     Node 47, Type 0, BuildingBlock: KUFVIS_clean_sbu_0, # of connection points: 4
#     Edge 48, Type (0, 0), BuildingBlock: OJICUG_clean_linker_0, # of connection points: 2
#     Edge 49, Type (0, 0), BuildingBlock: OJICUG_clean_linker_0, # of connection points: 2
#     Edge 50, Type (0, 0), BuildingBlock: OJICUG_clean_linker_0, # of connection points: 2
#     Edge 51, Type (0, 0), BuildingBlock: OJICUG_clean_linker_0, # of connection points: 2
#     Edge 52, Type (0, 0), BuildingBlock: OJICUG_clean_linker_0, # of connection points: 2
#     Edge 53, Type (0, 0), BuildingBlock: OJICUG_clean_linker_0, # of connection points: 2
#     Edge 54, Type (0, 0), BuildingBlock: OJICUG_clean_linker_0, # of connection points: 2
#     Edge 55, Type (0, 0), BuildingBlock: OJICUG_clean_linker_0, # of connection points: 2
#     Edge 56, Type (0, 0), BuildingBlock: OJICUG_clean_linker_0, # of connection points: 2
#     Edge 57, Type (0, 0), BuildingBlock: OJICUG_clean_linker_0, # of connection points: 2
#     Edge 58, Type (0, 0), BuildingBlock: OJICUG_clean_linker_0, # of connection points: 2
#     Edge 59, Type (0, 0), BuildingBlock: OJICUG_clean_linker_0, # of connection points: 2
#     Edge 60, Type (0, 0), BuildingBlock: OJICUG_clean_linker_0, # of connection points: 2
#     Edge 61, Type (0, 0), BuildingBlock: OJICUG_clean_linker_0, # of connection points: 2
#     Edge 62, Type (0, 0), BuildingBlock: OJICUG_clean_linker_0, # of connection points: 2
#     Edge 63, Type (0, 0), BuildingBlock: OJICUG_clean_linker_0, # of connection points: 2
#     Edge 64, Type (0, 0), BuildingBlock: OJICUG_clean_linker_0, # of connection points: 2
#     Edge 65, Type (0, 0), BuildingBlock: OJICUG_clean_linker_0, # of connection points: 2
#     Edge 66, Type (0, 0), BuildingBlock: OJICUG_clean_linker_0, # of connection points: 2
#     Edge 67, Type (0, 0), BuildingBlock: OJICUG_clean_linker_0, # of connection points: 2
#     Edge 68, Type (0, 0), BuildingBlock: OJICUG_clean_linker_0, # of connection points: 2
#     Edge 69, Type (0, 0), BuildingBlock: OJICUG_clean_linker_0, # of connection points: 2
#     Edge 70, Type (0, 0), BuildingBlock: OJICUG_clean_linker_0, # of connection points: 2
#     Edge 71, Type (0, 0), BuildingBlock: OJICUG_clean_linker_0, # of connection points: 2
#     Edge 72, Type (0, 0), BuildingBlock: OJICUG_clean_linker_0, # of connection points: 2
#     Edge 73, Type (0, 0), BuildingBlock: OJICUG_clean_linker_0, # of connection points: 2
#     Edge 74, Type (0, 0), BuildingBlock: OJICUG_clean_linker_0, # of connection points: 2
#     Edge 75, Type (0, 0), BuildingBlock: OJICUG_clean_linker_0, # of connection points: 2
#     Edge 76, Type (0, 0), BuildingBlock: OJICUG_clean_linker_0, # of connection points: 2
#     Edge 77, Type (0, 0), BuildingBlock: OJICUG_clean_linker_0, # of connection points: 2
#     Edge 78, Type (0, 0), BuildingBlock: OJICUG_clean_linker_0, # of connection points: 2
#     Edge 79, Type (0, 0), BuildingBlock: OJICUG_clean_linker_0, # of connection points: 2
#     Edge 80, Type (0, 0), BuildingBlock: OJICUG_clean_linker_0, # of connection points: 2
#     Edge 81, Type (0, 0), BuildingBlock: OJICUG_clean_linker_0, # of connection points: 2
#     Edge 82, Type (0, 0), BuildingBlock: OJICUG_clean_linker_0, # of connection points: 2
#     Edge 83, Type (0, 0), BuildingBlock: OJICUG_clean_linker_0, # of connection points: 2
#     Edge 84, Type (0, 0), BuildingBlock: OJICUG_clean_linker_0, # of connection points: 2
#     Edge 85, Type (0, 0), BuildingBlock: OJICUG_clean_linker_0, # of connection points: 2
#     Edge 86, Type (0, 0), BuildingBlock: OJICUG_clean_linker_0, # of connection points: 2
#     Edge 87, Type (0, 0), BuildingBlock: OJICUG_clean_linker_0, # of connection points: 2
#     Edge 88, Type (0, 0), BuildingBlock: OJICUG_clean_linker_0, # of connection points: 2
#     Edge 89, Type (0, 0), BuildingBlock: OJICUG_clean_linker_0, # of connection points: 2
#     Edge 90, Type (0, 0), BuildingBlock: OJICUG_clean_linker_0, # of connection points: 2
#     Edge 91, Type (0, 0), BuildingBlock: OJICUG_clean_linker_0, # of connection points: 2
#     Edge 92, Type (0, 0), BuildingBlock: OJICUG_clean_linker_0, # of connection points: 2
#     Edge 93, Type (0, 0), BuildingBlock: OJICUG_clean_linker_0, # of connection points: 2
#     Edge 94, Type (0, 0), BuildingBlock: OJICUG_clean_linker_0, # of connection points: 2
#     Edge 95, Type (0, 0), BuildingBlock: OJICUG_clean_linker_0, # of connection points: 2
#     Edge 96, Type (0, 0), BuildingBlock: OJICUG_clean_linker_0, # of connection points: 2
#     Edge 97, Type (0, 0), BuildingBlock: OJICUG_clean_linker_0, # of connection points: 2
#     Edge 98, Type (0, 0), BuildingBlock: OJICUG_clean_linker_0, # of connection points: 2
#     Edge 99, Type (0, 0), BuildingBlock: OJICUG_clean_linker_0, # of connection points: 2
#     Edge 100, Type (0, 0), BuildingBlock: OJICUG_clean_linker_0, # of connection points: 2
#     Edge 101, Type (0, 0), BuildingBlock: OJICUG_clean_linker_0, # of connection points: 2
#     Edge 102, Type (0, 0), BuildingBlock: OJICUG_clean_linker_0, # of connection points: 2
#     Edge 103, Type (0, 0), BuildingBlock: OJICUG_clean_linker_0, # of connection points: 2
#     Edge 104, Type (0, 0), BuildingBlock: OJICUG_clean_linker_0, # of connection points: 2
#     Edge 105, Type (0, 0), BuildingBlock: OJICUG_clean_linker_0, # of connection points: 2
#     Edge 106, Type (0, 0), BuildingBlock: OJICUG_clean_linker_0, # of connection points: 2
#     Edge 107, Type (0, 0), BuildingBlock: OJICUG_clean_linker_0, # of connection points: 2
#     Edge 108, Type (0, 0), BuildingBlock: OJICUG_clean_linker_0, # of connection points: 2
#     Edge 109, Type (0, 0), BuildingBlock: OJICUG_clean_linker_0, # of connection points: 2
#     Edge 110, Type (0, 0), BuildingBlock: OJICUG_clean_linker_0, # of connection points: 2
#     Edge 111, Type (0, 0), BuildingBlock: OJICUG_clean_linker_0, # of connection points: 2
#     Edge 112, Type (0, 0), BuildingBlock: OJICUG_clean_linker_0, # of connection points: 2
#     Edge 113, Type (0, 0), BuildingBlock: OJICUG_clean_linker_0, # of connection points: 2
#     Edge 114, Type (0, 0), BuildingBlock: OJICUG_clean_linker_0, # of connection points: 2
#     Edge 115, Type (0, 0), BuildingBlock: OJICUG_clean_linker_0, # of connection points: 2
#     Edge 116, Type (0, 0), BuildingBlock: OJICUG_clean_linker_0, # of connection points: 2
#     Edge 117, Type (0, 0), BuildingBlock: OJICUG_clean_linker_0, # of connection points: 2
#     Edge 118, Type (0, 0), BuildingBlock: OJICUG_clean_linker_0, # of connection points: 2
#     Edge 119, Type (0, 0), BuildingBlock: OJICUG_clean_linker_0, # of connection points: 2
#     Edge 120, Type (0, 0), BuildingBlock: OJICUG_clean_linker_0, # of connection points: 2
#     Edge 121, Type (0, 0), BuildingBlock: OJICUG_clean_linker_0, # of connection points: 2
#     Edge 122, Type (0, 0), BuildingBlock: OJICUG_clean_linker_0, # of connection points: 2
#     Edge 123, Type (0, 0), BuildingBlock: OJICUG_clean_linker_0, # of connection points: 2
#     Edge 124, Type (0, 0), BuildingBlock: OJICUG_clean_linker_0, # of connection points: 2
#     Edge 125, Type (0, 0), BuildingBlock: OJICUG_clean_linker_0, # of connection points: 2
#     Edge 126, Type (0, 0), BuildingBlock: OJICUG_clean_linker_0, # of connection points: 2
#     Edge 127, Type (0, 0), BuildingBlock: OJICUG_clean_linker_0, # of connection points: 2
#     Edge 128, Type (0, 0), BuildingBlock: OJICUG_clean_linker_0, # of connection points: 2
#     Edge 129, Type (0, 0), BuildingBlock: OJICUG_clean_linker_0, # of connection points: 2
#     Edge 130, Type (0, 0), BuildingBlock: OJICUG_clean_linker_0, # of connection points: 2
#     Edge 131, Type (0, 0), BuildingBlock: OJICUG_clean_linker_0, # of connection points: 2
#     Edge 132, Type (0, 0), BuildingBlock: OJICUG_clean_linker_0, # of connection points: 2
#     Edge 133, Type (0, 0), BuildingBlock: OJICUG_clean_linker_0, # of connection points: 2
#     Edge 134, Type (0, 0), BuildingBlock: OJICUG_clean_linker_0, # of connection points: 2
#     Edge 135, Type (0, 0), BuildingBlock: OJICUG_clean_linker_0, # of connection points: 2
#     Edge 136, Type (0, 0), BuildingBlock: OJICUG_clean_linker_0, # of connection points: 2
#     Edge 137, Type (0, 0), BuildingBlock: OJICUG_clean_linker_0, # of connection points: 2
#     Edge 138, Type (0, 0), BuildingBlock: OJICUG_clean_linker_0, # of connection points: 2
#     Edge 139, Type (0, 0), BuildingBlock: OJICUG_clean_linker_0, # of connection points: 2
#     Edge 140, Type (0, 0), BuildingBlock: OJICUG_clean_linker_0, # of connection points: 2
#     Edge 141, Type (0, 0), BuildingBlock: OJICUG_clean_linker_0, # of connection points: 2
#     Edge 142, Type (0, 0), BuildingBlock: OJICUG_clean_linker_0, # of connection points: 2
#     Edge 143, Type (0, 0), BuildingBlock: OJICUG_clean_linker_0, # of connection points: 2
# Relax obj value: 0.097
# Max RMSD: 0.124
# Mean RMSD: 0.116
data_MOF--net-rho--node1-KUFVIS_clean_sbu_0--edge1-OJICUG_clean_linker_0
_symmetry_space_group_name_H-M    P1
_symmetry_Int_Tables_number       1
_symmetry_cell_setting            triclinic
loop_
_symmetry_equiv_pos_as_xyz
'x, y, z'
_cell_length_a     52.189036
_cell_length_b     51.903054
_cell_length_c     52.016469
_cell_angle_alpha  90.144412
_cell_angle_beta   90.086419
_cell_angle_gamma 90.927253
loop_
_atom_site_label
_atom_site_type_symbol
_atom_site_fract_x
_atom_site_fract_y
_atom_site_fract_z
_atom_type_partial_charge
Mn0 Mn 0.10874 0.24491 0.39457 0.0
Mn1 Mn 0.09595 0.30568 0.41242 0.0
C2 C 0.11093 0.25116 0.439 0.0
C3 C 0.14075 0.21783 0.37973 0.0
C4 C 0.05605 0.26653 0.39455 0.0
O5 O 0.10802 0.26644 0.36171 0.0
O6 O 0.11664 0.30418 0.38042 0.0
C7 C 0.14646 0.31375 0.43258 0.0
N8 N 0.12196 0.32171 0.43022 0.0
C9 C 0.12556 0.33771 0.47953 0.0
C10 C 0.15085 0.32741 0.47831 0.0
C11 C 0.16092 0.3179 0.45511 0.0
C12 C 0.1098 0.33456 0.44877 0.0
H13 H 0.15469 0.30243 0.41727 0.0
C14 C 0.11438 0.29008 0.36046 0.0
O15 O 0.11677 0.21311 0.37438 0.0
O16 O 0.14598 0.23923 0.39156 0.0
N17 N 0.07672 0.31428 0.44258 0.0
C18 C 0.07449 0.29227 0.46146 0.0
C19 C 0.06678 0.29483 0.49163 0.0
C20 C 0.05235 0.34159 0.50663 0.0
C21 C 0.05748 0.36249 0.47678 0.0
C22 C 0.07595 0.34391 0.44579 0.0
H23 H 0.07152 0.27355 0.45322 0.0
O24 O 0.11025 0.22854 0.42872 0.0
O25 O 0.10924 0.27056 0.42255 0.0
O26 O 0.06956 0.24615 0.39538 0.0
O27 O 0.06542 0.28953 0.39574 0.0
C28 C 0.06995 0.37345 0.50198 0.0
C29 C 0.09728 0.36441 0.51087 0.0
H30 H 0.16367 0.32641 0.49459 0.0
H31 H 0.18031 0.31077 0.4554 0.0
H32 H 0.06419 0.27614 0.50074 0.0
H33 H 0.04183 0.34747 0.5244 0.0
H34 H 0.06028 0.38831 0.51308 0.0
H35 H 0.10124 0.37282 0.52995 0.0
Mn36 Mn 0.7488 0.10596 0.39672 0.0
Mn37 Mn 0.80654 0.07966 0.40861 0.0
C38 C 0.75219 0.0616 0.39993 0.0
C39 C 0.71871 0.12041 0.36663 0.0
C40 C 0.77404 0.10524 0.44983 0.0
O41 O 0.77411 0.13605 0.39044 0.0
O42 O 0.81094 0.11413 0.3931 0.0
C43 C 0.82267 0.07306 0.35452 0.0
N44 N 0.81791 0.06276 0.37811 0.0
C45 C 0.82835 0.02028 0.36321 0.0
C46 C 0.83363 0.03048 0.33881 0.0
C47 C 0.8307 0.05697 0.33443 0.0
C48 C 0.82024 0.03723 0.38241 0.0
H49 H 0.82022 0.09336 0.35102 0.0
C50 C 0.79846 0.13458 0.38833 0.0
O51 O 0.71822 0.12799 0.39046 0.0
O52 O 0.73757 0.10588 0.36004 0.0
N53 N 0.80594 0.0461 0.4238 0.0
C54 C 0.80275 0.03985 0.44907 0.0
C55 C 0.80599 0.01425 0.45699 0.0
C56 C 0.81311 0.99546 0.439 0.0
C57 C 0.8176 1.00261 0.4134 0.0
C58 C 0.81436 0.02848 0.40672 0.0
H59 H 0.79763 0.05424 0.46309 0.0
O60 O 0.7301 0.07242 0.40179 0.0
O61 O 0.77157 0.0769 0.39549 0.0
O62 O 0.75427 0.10943 0.43592 0.0
O63 O 0.79487 0.0959 0.44099 0.0
C64 C 0.82565 0.98518 0.39436 0.0
C65 C 0.83086 0.99398 0.36923 0.0
H66 H 0.83991 0.01815 0.32329 0.0
H67 H 0.83461 0.06497 0.31562 0.0
H68 H 0.80297 0.00901 0.4769 0.0
H69 H 0.81542 0.9757 0.44513 0.0
H70 H 0.82806 0.965 0.39888 0.0
H71 H 0.83708 0.98041 0.35477 0.0
Mn72 Mn 0.89298 0.75499 0.40478 0.0
Mn73 Mn 0.91298 0.69821 0.42772 0.0
C74 C 0.8983 0.75042 0.44927 0.0
C75 C 0.85946 0.78154 0.39198 0.0
C76 C 0.94831 0.73787 0.40212 0.0
O77 O 0.88822 0.73007 0.37412 0.0
O78 O 0.89656 0.69239 0.39377 0.0
C79 C 0.86766 0.66402 0.43248 0.0
N80 N 0.88803 0.67554 0.44436 0.0
C81 C 0.88738 0.63705 0.47865 0.0
C82 C 0.86581 0.62706 0.46221 0.0
C83 C 0.85662 0.64079 0.44112 0.0
C84 C 0.89797 0.66623 0.46635 0.0
H85 H 0.85987 0.67251 0.41533 0.0
C86 C 0.88918 0.70543 0.37432 0.0
O87 O 0.88271 0.78544 0.38382 0.0
O88 O 0.85555 0.76145 0.40628 0.0
N89 N 0.92946 0.70284 0.45999 0.0
C90 C 0.94971 0.71883 0.46503 0.0
C91 C 0.96233 0.71871 0.48851 0.0
C92 C 0.95638 0.70106 0.50767 0.0
C93 C 0.9372 0.68094 0.50408 0.0
C94 C 0.92064 0.68588 0.47712 0.0
H95 H 0.95535 0.73355 0.45162 0.0
O96 O 0.89756 0.77286 0.43849 0.0
O97 O 0.89448 0.73063 0.43378 0.0
O98 O 0.93245 0.7561 0.39935 0.0
O99 O 0.94156 0.71596 0.41072 0.0
C100 C 0.92296 0.63664 0.52537 0.0
C101 C 0.89913 0.62205 0.50756 0.0
H102 H 0.85649 0.60901 0.46734 0.0
H103 H 0.84058 0.63269 0.43044 0.0
H104 H 0.97743 0.73285 0.49193 0.0
H105 H 0.96825 0.70362 0.52431 0.0
H106 H 0.92956 0.6266 0.54256 0.0
H107 H 0.89239 0.62902 0.49243 0.0
Mn108 Mn 0.25988 0.90426 0.38997 0.0
Mn109 Mn 0.20673 0.9373 0.40411 0.0
C110 C 0.26176 0.94879 0.39282 0.0
C111 C 0.28642 0.88921 0.35665 0.0
C112 C 0.23728 0.90791 0.44422 0.0
O113 O 0.2313 0.87704 0.38466 0.0
O114 O 0.19734 0.90266 0.39076 0.0
C115 C 0.18688 0.94318 0.3512 0.0
N116 N 0.19494 0.95398 0.37375 0.0
C117 C 0.18706 0.99667 0.35802 0.0
C118 C 0.17853 0.98601 0.33467 0.0
C119 C 0.17853 0.95914 0.33122 0.0
C120 C 0.1953 0.9798 0.37717 0.0
H121 H 0.18687 0.92254 0.34851 0.0
C122 C 0.20712 0.88085 0.38526 0.0
O123 O 0.28849 0.88022 0.37991 0.0
O124 O 0.26787 0.90479 0.35273 0.0
N125 N 0.21287 0.97127 0.41734 0.0
C126 C 0.22139 0.97841 0.44114 0.0
C127 C 0.22247 0.00465 0.44776 0.0
C128 C 0.21441 0.0232 0.43001 0.0
C129 C 0.20521 0.01535 0.40585 0.0
C130 C 0.20451 0.98893 0.40037 0.0
H131 H 0.22736 0.9642 0.45494 0.0
O132 O 0.2824 0.9355 0.39462 0.0
O133 O 0.24071 0.93566 0.38924 0.0
O134 O 0.2557 0.90057 0.42966 0.0
O135 O 0.21836 0.92106 0.43617 0.0
C136 C 0.19661 0.03268 0.38702 0.0
C137 C 0.18773 0.02336 0.36305 0.0
H138 H 0.17201 0.99826 0.31924 0.0
H139 H 0.17205 0.95077 0.31323 0.0
H140 H 0.22947 0.01056 0.46651 0.0
H141 H 0.21526 0.0434 0.43514 0.0
H142 H 0.1968 0.05322 0.39075 0.0
H143 H 0.18138 0.03689 0.34866 0.0
Mn144 Mn 0.10626 0.74032 0.6179 0.0
Mn145 Mn 0.07622 0.79332 0.5972 0.0
C146 C 0.06168 0.7399 0.61755 0.0
C147 C 0.12071 0.71602 0.653 0.0
C148 C 0.10422 0.75644 0.56158 0.0
O149 O 0.13456 0.76809 0.62005 0.0
O150 O 0.11079 0.80298 0.61111 0.0
C151 C 0.069 0.8232 0.64508 0.0
N152 N 0.05912 0.81219 0.62339 0.0
C153 C 0.01771 0.83029 0.63133 0.0
C154 C 0.02753 0.84212 0.65362 0.0
C155 C 0.05326 0.83847 0.66057 0.0
C156 C 0.03444 0.81572 0.61639 0.0
H157 H 0.08873 0.82032 0.65047 0.0
C158 C 0.13188 0.79244 0.61784 0.0
O159 O 0.12908 0.71166 0.62986 0.0
O160 O 0.10634 0.73582 0.65579 0.0
N161 N 0.04277 0.78668 0.58344 0.0
C162 C 0.03554 0.77073 0.56379 0.0
C163 C 0.0098 0.76997 0.55584 0.0
C164 C 0.99185 0.78572 0.56809 0.0
C165 C 0.99976 0.80191 0.58833 0.0
C166 C 0.02567 0.80189 0.59535 0.0
H167 H 0.04931 0.75864 0.55434 0.0
O168 O 0.07467 0.71894 0.61631 0.0
O169 O 0.07533 0.76133 0.61774 0.0
O170 O 0.10989 0.73906 0.57796 0.0
O171 O 0.09257 0.77689 0.56766 0.0
C172 C 0.98279 0.81731 0.60246 0.0
C173 C 0.99176 0.83152 0.62392 0.0
H174 H 0.01537 0.85364 0.6658 0.0
H175 H 0.0609 0.84735 0.67786 0.0
H176 H 0.00379 0.75728 0.54034 0.0
H177 H 0.97197 0.7849 0.5621 0.0
H178 H 0.96265 0.81778 0.59743 0.0
H179 H 0.97839 0.84274 0.63504 0.0
Mn180 Mn 0.24305 0.11395 0.5958 0.0
Mn181 Mn 0.29928 0.09164 0.57262 0.0
C182 C 0.2481 0.10729 0.55189 0.0
C183 C 0.21711 0.1482 0.60827 0.0
C184 C 0.25767 0.05727 0.59693 0.0
O185 O 0.26743 0.11877 0.62637 0.0
O186 O 0.30404 0.1056 0.60789 0.0
C187 C 0.33214 0.13904 0.57183 0.0
N188 N 0.32162 0.11876 0.5587 0.0
C189 C 0.35853 0.12588 0.52473 0.0
C190 C 0.36751 0.14567 0.54057 0.0
C191 C 0.35419 0.15243 0.56302 0.0
C192 C 0.33091 0.11192 0.53565 0.0
H193 H 0.32374 0.14506 0.58972 0.0
C194 C 0.29155 0.11492 0.62683 0.0
O195 O 0.21284 0.12495 0.61655 0.0
O196 O 0.23707 0.15167 0.59376 0.0
N197 N 0.29711 0.07715 0.53866 0.0
C198 C 0.28455 0.05515 0.53186 0.0
C199 C 0.28683 0.04391 0.5076 0.0
C200 C 0.30426 0.0528 0.4893 0.0
C201 C 0.32173 0.07388 0.49498 0.0
C202 C 0.31402 0.0882 0.52286 0.0
H203 H 0.27141 0.04673 0.54482 0.0
O204 O 0.22554 0.1089 0.56208 0.0
O205 O 0.26759 0.11111 0.56736 0.0
O206 O 0.24147 0.0747 0.60192 0.0
O207 O 0.27948 0.06194 0.5867 0.0
C208 C 0.36424 0.09455 0.4768 0.0
C209 C 0.37488 0.11853 0.49727 0.0
H210 H 0.38471 0.15635 0.53537 0.0
H211 H 0.36165 0.16826 0.57453 0.0
H212 H 0.2749 0.02723 0.50305 0.0
H213 H 0.30406 0.0417 0.47171 0.0
H214 H 0.37564 0.09062 0.45964 0.0
H215 H 0.39226 0.12912 0.49261 0.0
Mn216 Mn 0.90026 0.26061 0.61538 0.0
Mn217 Mn 0.93259 0.20832 0.59489 0.0
C218 C 0.94443 0.26348 0.60984 0.0
C219 C 0.885 0.28759 0.64804 0.0
C220 C 0.90045 0.24154 0.55973 0.0
O221 O 0.87423 0.23083 0.62129 0.0
O222 O 0.89964 0.1976 0.6109 0.0
C223 C 0.94391 0.18351 0.64469 0.0
N224 N 0.95212 0.19316 0.62177 0.0
C225 C 0.99523 0.17952 0.62981 0.0
C226 C 0.98721 0.16922 0.65343 0.0
C227 C 0.96146 0.17132 0.66094 0.0
C228 C 0.97684 0.19128 0.61436 0.0
H229 H 0.92412 0.18506 0.65045 0.0
C230 C 0.87848 0.20664 0.61922 0.0
O231 O 0.87545 0.28798 0.62498 0.0
O232 O 0.90147 0.26975 0.65276 0.0
N233 N 0.96489 0.2155 0.57886 0.0
C234 C 0.96994 0.22871 0.55679 0.0
C235 C 0.99513 0.22985 0.54731 0.0
C236 C 0.01475 0.21705 0.56039 0.0
C237 C 0.00903 0.20339 0.58295 0.0
C238 C 0.98358 0.20297 0.59149 0.0
H239 H 0.9549 0.23844 0.54657 0.0
O240 O 0.93035 0.28379 0.60992 0.0
O241 O 0.93236 0.24155 0.6133 0.0
O242 O 0.89429 0.25867 0.57615 0.0
O243 O 0.91375 0.22195 0.5653 0.0
C244 C 0.02773 0.19099 0.59783 0.0
C245 C 0.02083 0.17908 0.62125 0.0
H246 H 1.0007 0.15992 0.66608 0.0
H247 H 0.95516 0.16354 0.67919 0.0
H248 H 0.99942 0.24058 0.52999 0.0
H249 H 0.03418 0.21818 0.55314 0.0
H250 H 0.04757 0.19102 0.59174 0.0
H251 H 0.03547 0.17005 0.63276 0.0
Mn252 Mn 0.76228 0.88925 0.6084 0.0
Mn253 Mn 0.70289 0.90335 0.58783 0.0
C254 C 0.75812 0.88989 0.5635 0.0
C255 C 0.7892 0.85654 0.62273 0.0
C256 C 0.74115 0.94241 0.60987 0.0
O257 O 0.73873 0.88848 0.64026 0.0
O258 O 0.70352 0.88029 0.61783 0.0
C259 C 0.6954 0.85361 0.56416 0.0
N260 N 0.68776 0.87818 0.56788 0.0
C261 C 0.67267 0.87769 0.51816 0.0
C262 C 0.6827 0.85217 0.51793 0.0
C263 C 0.69143 0.84048 0.54069 0.0
C264 C 0.67529 0.89149 0.54999 0.0
H265 H 0.70625 0.84426 0.57911 0.0
C266 C 0.71483 0.88329 0.63924 0.0
O267 O 0.79301 0.88039 0.62964 0.0
O268 O 0.76849 0.85159 0.60975 0.0
N269 N 0.69531 0.92447 0.55872 0.0
C270 C 0.71752 0.9279 0.54032 0.0
C271 C 0.71541 0.93767 0.51068 0.0
C272 C 0.66892 0.95288 0.49611 0.0
C273 C 0.64784 0.94572 0.52528 0.0
C274 C 0.6659 0.92523 0.55513 0.0
H275 H 0.73602 0.93011 0.54898 0.0
O276 O 0.78015 0.88977 0.57477 0.0
O277 O 0.73818 0.89045 0.57908 0.0
O278 O 0.76121 0.92855 0.60964 0.0
O279 O 0.71826 0.93333 0.60684 0.0
C280 C 0.6374 0.93493 0.49915 0.0
C281 C 0.64662 0.90818 0.48852 0.0
H282 H 0.68384 0.8403 0.50089 0.0
H283 H 0.69823 0.82092 0.53934 0.0
H284 H 0.73411 0.9408 0.50183 0.0
H285 H 0.66324 0.9647 0.47908 0.0
H286 H 0.62264 0.94528 0.48862 0.0
H287 H 0.63847 0.90553 0.46914 0.0
Mn288 Mn 0.39328 0.10449 0.26096 0.0
Mn289 Mn 0.40785 0.09457 0.19951 0.0
C290 C 0.39573 0.06204 0.24657 0.0
C291 C 0.3626 0.11402 0.29194 0.0
C292 C 0.44859 0.10026 0.23939 0.0
O293 O 0.3888 0.14029 0.2454 0.0
O294 O 0.40774 0.13186 0.20801 0.0
C295 C 0.35874 0.11675 0.18138 0.0
N296 N 0.375 0.09652 0.1829 0.0
C297 C 0.34482 0.069 0.16047 0.0
C298 C 0.32778 0.08949 0.15884 0.0
C299 C 0.33479 0.11349 0.16938 0.0
C300 C 0.3685 0.07351 0.17257 0.0
H301 H 0.36385 0.13526 0.1892 0.0
C302 C 0.39871 0.14759 0.22436 0.0
O303 O 0.38674 0.11939 0.29581 0.0
O304 O 0.35656 0.10316 0.27029 0.0
N305 N 0.40829 0.06033 0.18723 0.0
C306 C 0.42733 0.04306 0.18948 0.0
C307 C 0.4223 0.01764 0.18227 0.0
C308 C 0.39881 0.01088 0.17069 0.0
C309 C 0.38072 0.02961 0.16589 0.0
C310 C 0.38612 0.05438 0.1749 0.0
H311 H 0.44511 0.0481 0.19902 0.0
O312 O 0.39681 0.06767 0.27079 0.0
O313 O 0.39144 0.08171 0.23119 0.0
O314 O 0.43304 0.10785 0.25699 0.0
O315 O 0.44133 0.09227 0.21708 0.0
C316 C 0.35698 0.02432 0.15393 0.0
C317 C 0.33909 0.04414 0.15096 0.0
H318 H 0.30926 0.087 0.14967 0.0
H319 H 0.32175 0.12945 0.1683 0.0
H320 H 0.43553 0.00325 0.18794 0.0
H321 H 0.3937 0.99117 0.16735 0.0
H322 H 0.3523 0.0051 0.14701 0.0
H323 H 0.32089 0.03998 0.14168 0.0
Mn324 Mn 0.90958 0.39909 0.25621 0.0
Mn325 Mn 0.93962 0.41387 0.20053 0.0
C326 C 0.95382 0.40378 0.25579 0.0
C327 C 0.89304 0.36717 0.28362 0.0
C328 C 0.91329 0.45371 0.23372 0.0
O329 O 0.88168 0.39256 0.22957 0.0
O330 O 0.90385 0.40126 0.1935 0.0
C331 C 0.94186 0.361 0.17933 0.0
N332 N 0.95401 0.38331 0.1865 0.0
C333 C 0.99481 0.36728 0.17287 0.0
C334 C 0.98271 0.3442 0.16515 0.0
C335 C 0.95613 0.34103 0.16846 0.0
C336 C 0.97958 0.38653 0.1835 0.0
H337 H 0.92144 0.35849 0.18187 0.0
C338 C 0.88329 0.39423 0.20519 0.0
O339 O 0.88533 0.39082 0.28522 0.0
O340 O 0.90949 0.36218 0.26577 0.0
N341 N 0.97428 0.42621 0.20354 0.0
C342 C 0.98323 0.44903 0.21331 0.0
C343 C 0.00955 0.45495 0.21211 0.0
C344 C 0.02637 0.43748 0.20067 0.0
C345 C 0.01671 0.4142 0.19056 0.0
C346 C 0.99027 0.40939 0.19222 0.0
H347 H 0.9705 0.4623 0.22254 0.0
O348 O 0.94106 0.405 0.27707 0.0
O349 O 0.94037 0.39883 0.2351 0.0
O350 O 0.90547 0.43842 0.25148 0.0
O351 O 0.92598 0.44633 0.21409 0.0
C352 C 0.03235 0.39527 0.17955 0.0
C353 C 0.02142 0.37182 0.17073 0.0
H354 H 0.99366 0.32873 0.15681 0.0
H355 H 0.94667 0.32324 0.16265 0.0
H356 H 0.01689 0.47284 0.22019 0.0
H357 H 0.0467 0.44198 0.20005 0.0
H358 H 0.05287 0.3984 0.17809 0.0
H359 H 0.03368 0.3573 0.16256 0.0
Mn360 Mn 0.60907 0.89246 0.24936 0.0
Mn361 Mn 0.57843 0.90939 0.30414 0.0
C362 C 0.56482 0.89428 0.24971 0.0
C363 C 0.62557 0.86212 0.22097 0.0
C364 C 0.60457 0.94806 0.2692 0.0
O365 O 0.63713 0.88835 0.27622 0.0
O366 O 0.61426 0.89943 0.31118 0.0
C367 C 0.57702 0.85841 0.32939 0.0
N368 N 0.5646 0.87956 0.32074 0.0
C369 C 0.52453 0.86425 0.33822 0.0
C370 C 0.5369 0.8423 0.34741 0.0
C371 C 0.56324 0.83934 0.3429 0.0
C372 C 0.53927 0.8826 0.32493 0.0
H373 H 0.59731 0.85622 0.32609 0.0
C374 C 0.63503 0.8925 0.30027 0.0
O375 O 0.63314 0.88607 0.22051 0.0
O376 O 0.61019 0.85537 0.23944 0.0
N377 N 0.54372 0.92007 0.30082 0.0
C378 C 0.53451 0.94168 0.28946 0.0
C379 C 0.50831 0.94713 0.29139 0.0
C380 C 0.49198 0.9306 0.3054 0.0
C381 C 0.502 0.90869 0.31727 0.0
C382 C 0.52827 0.90425 0.31466 0.0
H383 H 0.54705 0.95456 0.27888 0.0
O384 O 0.5778 0.89568 0.22855 0.0
O385 O 0.57809 0.89128 0.27078 0.0
O386 O 0.61245 0.9322 0.25225 0.0
O387 O 0.59158 0.94136 0.28886 0.0
C388 C 0.48687 0.89072 0.331 0.0
C389 C 0.49812 0.8685 0.34145 0.0
H390 H 0.52633 0.82754 0.35782 0.0
H391 H 0.57291 0.82245 0.3499 0.0
H392 H 0.50073 0.96406 0.28217 0.0
H393 H 0.47176 0.93477 0.30671 0.0
H394 H 0.46649 0.8936 0.33333 0.0
H395 H 0.48623 0.85468 0.35171 0.0
Mn396 Mn 0.10917 0.60365 0.25107 0.0
Mn397 Mn 0.08695 0.59543 0.31056 0.0
C398 C 0.10138 0.56075 0.26378 0.0
C399 C 0.14364 0.61286 0.22352 0.0
C400 C 0.05588 0.61574 0.26604 0.0
O401 O 0.114 0.63874 0.26959 0.0
O402 O 0.1115 0.62452 0.31013 0.0
C403 C 0.13103 0.58355 0.34394 0.0
N404 N 0.10679 0.57824 0.3356 0.0
C405 C 0.09762 0.55231 0.37286 0.0
C406 C 0.12262 0.55724 0.38178 0.0
C407 C 0.13945 0.57276 0.36716 0.0
C408 C 0.09042 0.56344 0.34952 0.0
H409 H 0.14356 0.59631 0.33318 0.0
C410 C 0.11716 0.64188 0.29376 0.0
O411 O 0.12043 0.61939 0.21791 0.0
O412 O 0.14692 0.6012 0.24533 0.0
N413 N 0.06263 0.56801 0.31497 0.0
C414 C 0.04083 0.56223 0.3016 0.0
C415 C 0.02253 0.54534 0.3124 0.0
C416 C 0.02666 0.53492 0.33697 0.0
C417 C 0.04942 0.54098 0.35024 0.0
C418 C 0.06703 0.55769 0.33835 0.0
H419 H 0.03728 0.57064 0.28305 0.0
O420 O 0.10391 0.56739 0.23989 0.0
O421 O 0.10508 0.57951 0.28055 0.0
O422 O 0.07057 0.60889 0.24799 0.0
O423 O 0.06268 0.61487 0.28944 0.0
C424 C 0.05584 0.53031 0.37426 0.0
C425 C 0.07995 0.53592 0.38553 0.0
H426 H 0.12922 0.54892 0.39963 0.0
H427 H 0.15872 0.5767 0.37397 0.0
H428 H 0.00513 0.54066 0.30198 0.0
H429 H 0.01248 0.52192 0.34522 0.0
H430 H 0.04265 0.51725 0.38391 0.0
H431 H 0.08494 0.52703 0.40364 0.0
Mn432 Mn 0.40331 0.89479 0.75558 0.0
Mn433 Mn 0.43521 0.91161 0.70157 0.0
C434 C 0.44778 0.89771 0.75665 0.0
C435 C 0.38484 0.86199 0.78068 0.0
C436 C 0.40948 0.9505 0.73648 0.0
O437 O 0.37587 0.89101 0.72795 0.0
O438 O 0.39926 0.90026 0.69282 0.0
C439 C 0.43687 0.86004 0.67733 0.0
N440 N 0.44929 0.88159 0.68614 0.0
C441 C 0.49005 0.86558 0.67237 0.0
C442 C 0.47767 0.84329 0.66297 0.0
C443 C 0.45097 0.84048 0.66554 0.0
C444 C 0.47497 0.88445 0.68387 0.0
H445 H 0.41635 0.85782 0.67927 0.0
C446 C 0.37812 0.89357 0.70369 0.0
O447 O 0.37801 0.88583 0.78342 0.0
O448 O 0.40147 0.85734 0.7629 0.0
N449 N 0.47002 0.92292 0.70623 0.0
C450 C 0.47922 0.94481 0.71775 0.0
C451 C 0.50568 0.95017 0.71757 0.0
C452 C 0.52239 0.93314 0.70533 0.0
C453 C 0.51248 0.9108 0.69348 0.0
C454 C 0.48592 0.9065 0.69422 0.0
H455 H 0.46655 0.95774 0.72755 0.0
O456 O 0.43433 0.89806 0.77753 0.0
O457 O 0.43478 0.8946 0.7353 0.0
O458 O 0.40088 0.93457 0.75332 0.0
O459 O 0.42201 0.94362 0.71658 0.0
C460 C 0.52798 0.89227 0.6816 0.0
C461 C 0.51678 0.86967 0.67107 0.0
H462 H 0.48849 0.82813 0.65391 0.0
H463 H 0.4413 0.82329 0.65842 0.0
H464 H 0.51319 0.96731 0.727 0.0
H465 H 0.54281 0.93721 0.70547 0.0
H466 H 0.54859 0.89503 0.68079 0.0
H467 H 0.52893 0.85543 0.66225 0.0
Mn468 Mn 0.1147 0.39659 0.75847 0.0
Mn469 Mn 0.09514 0.43078 0.70691 0.0
C470 C 0.11159 0.44088 0.76165 0.0
C471 C 0.14666 0.37911 0.7842 0.0
C472 C 0.05925 0.39867 0.7403 0.0
O473 O 0.11871 0.37106 0.72872 0.0
O474 O 0.11003 0.39775 0.69571 0.0
C475 C 0.14471 0.44212 0.6815 0.0
N476 N 0.12231 0.45044 0.69171 0.0
C477 C 0.13147 0.49409 0.67876 0.0
C478 C 0.15457 0.48596 0.66789 0.0
C479 C 0.16125 0.45987 0.66936 0.0
C480 C 0.11567 0.47548 0.69041 0.0
H481 H 0.14985 0.42208 0.68259 0.0
C482 C 0.11722 0.37604 0.7047 0.0
O483 O 0.12319 0.37049 0.78497 0.0
O484 O 0.15206 0.3961 0.76667 0.0
N485 N 0.08028 0.46328 0.7149 0.0
C486 C 0.05867 0.46831 0.7286 0.0
C487 C 0.0501 0.49376 0.73045 0.0
C488 C 0.0636 0.51369 0.71791 0.0
C489 C 0.08567 0.508 0.70375 0.0
C490 C 0.0933 0.48228 0.70261 0.0
H491 H 0.04815 0.45305 0.73817 0.0
O492 O 0.11135 0.4264 0.7819 0.0
O493 O 0.11397 0.42912 0.73965 0.0
O494 O 0.07541 0.39211 0.75736 0.0
O495 O 0.0652 0.41191 0.72055 0.0
C496 C 0.10091 0.52696 0.69151 0.0
C497 C 0.12379 0.52001 0.67902 0.0
H498 H 0.16744 0.49962 0.65864 0.0
H499 H 0.1791 0.45348 0.66114 0.0
H500 H 0.03313 0.498 0.74151 0.0
H501 H 0.05706 0.53332 0.71957 0.0
H502 H 0.09551 0.54702 0.69206 0.0
H503 H 0.13559 0.53482 0.67009 0.0
Mn504 Mn 0.60809 0.1004 0.74977 0.0
Mn505 Mn 0.58483 0.09629 0.80921 0.0
C506 C 0.59899 0.05841 0.76456 0.0
C507 C 0.64332 0.10779 0.72255 0.0
C508 C 0.55485 0.11439 0.76299 0.0
O509 O 0.61322 0.13641 0.76644 0.0
O510 O 0.6107 0.12402 0.80747 0.0
C511 C 0.62788 0.08499 0.84415 0.0
N512 N 0.60365 0.07989 0.83562 0.0
C513 C 0.59293 0.05692 0.87434 0.0
C514 C 0.61782 0.06182 0.88359 0.0
C515 C 0.6354 0.07581 0.86836 0.0
C516 C 0.58648 0.06686 0.85027 0.0
H517 H 0.64106 0.09651 0.8328 0.0
C518 C 0.61671 0.14049 0.79041 0.0
O519 O 0.62031 0.11428 0.71612 0.0
O520 O 0.64596 0.09706 0.74493 0.0
N521 N 0.55925 0.07037 0.81507 0.0
C522 C 0.53749 0.06447 0.8017 0.0
C523 C 0.51832 0.04926 0.81336 0.0
C524 C 0.52167 0.04039 0.83864 0.0
C525 C 0.54452 0.04628 0.8518 0.0
C526 C 0.56282 0.06168 0.83926 0.0
H527 H 0.53466 0.07146 0.78245 0.0
O528 O 0.60238 0.0637 0.74043 0.0
O529 O 0.60277 0.07793 0.78043 0.0
O530 O 0.56961 0.10598 0.74568 0.0
O531 O 0.56161 0.11546 0.78645 0.0
C532 C 0.55029 0.03675 0.87646 0.0
C533 C 0.57447 0.04205 0.88772 0.0
H534 H 0.62375 0.0546 0.90215 0.0
H535 H 0.65461 0.0797 0.87538 0.0
H536 H 0.50095 0.04454 0.80295 0.0
H537 H 0.50689 0.02851 0.84748 0.0
H538 H 0.5365 0.0248 0.88668 0.0
H539 H 0.57886 0.03414 0.90643 0.0
Mn540 Mn 0.9014 0.61439 0.75326 0.0
Mn541 Mn 0.91379 0.60242 0.81511 0.0
C542 C 0.94415 0.61146 0.76608 0.0
C543 C 0.8918 0.64339 0.72027 0.0
C544 C 0.90496 0.55968 0.77713 0.0
O545 O 0.86682 0.62113 0.77048 0.0
O546 O 0.87632 0.60432 0.80874 0.0
C547 C 0.89514 0.65322 0.83343 0.0
N548 N 0.91448 0.63617 0.83051 0.0
C549 C 0.94468 0.66625 0.84941 0.0
C550 C 0.92516 0.68425 0.85208 0.0
C551 C 0.90019 0.6776 0.84424 0.0
C552 C 0.9383 0.64214 0.83876 0.0
H553 H 0.87598 0.64827 0.82781 0.0
C554 C 0.86032 0.61335 0.79271 0.0
O555 O 0.88542 0.61912 0.7186 0.0
O556 O 0.90335 0.65073 0.74117 0.0
N557 N 0.94842 0.60074 0.82545 0.0
C558 C 0.96437 0.58052 0.82344 0.0
C559 C 0.99023 0.58453 0.82893 0.0
C560 C 0.99885 0.60852 0.83834 0.0
C561 C 0.98156 0.62795 0.84327 0.0
C562 C 0.95621 0.62334 0.83614 0.0
H563 H 0.95787 0.56239 0.81538 0.0
O564 O 0.93748 0.60908 0.7422 0.0
O565 O 0.9254 0.61715 0.78201 0.0
O566 O 0.89715 0.57478 0.75925 0.0
O567 O 0.91366 0.56778 0.79889 0.0
C568 C 0.98882 0.65219 0.85338 0.0
C569 C 0.97026 0.6713 0.85674 0.0
H570 H 0.92909 0.70312 0.86025 0.0
H571 H 0.88487 0.69123 0.84647 0.0
H572 H 1.00346 0.57003 0.82344 0.0
H573 H 0.01881 0.61308 0.83933 0.0
H574 H 0.00856 0.65627 0.85867 0.0
H575 H 0.97588 0.68982 0.86477 0.0
Mn576 Mn 0.26439 0.39716 0.10184 0.0
Mn577 Mn 0.20266 0.40726 0.09064 0.0
C578 C 0.25517 0.40789 0.05868 0.0
C579 C 0.29245 0.36261 0.10775 0.0
C580 C 0.23932 0.44442 0.11773 0.0
O581 O 0.24426 0.38793 0.13475 0.0
O582 O 0.21273 0.37666 0.11002 0.0
C583 C 0.19374 0.3603 0.05865 0.0
N584 N 0.1915 0.38616 0.06193 0.0
C585 C 0.17418 0.38854 0.01407 0.0
C586 C 0.18066 0.36171 0.01272 0.0
C587 C 0.18875 0.34836 0.03474 0.0
C588 C 0.18271 0.40099 0.04296 0.0
H589 H 0.20082 0.34856 0.07413 0.0
C590 C 0.22159 0.3791 0.13253 0.0
O591 O 0.29663 0.3849 0.11851 0.0
O592 O 0.27168 0.36022 0.09424 0.0
N593 N 0.18745 0.43689 0.07386 0.0
C594 C 0.18049 0.45893 0.08628 0.0
C595 C 0.16551 0.47802 0.07466 0.0
C596 C 0.15463 0.47521 0.05019 0.0
C597 C 0.15741 0.45248 0.03648 0.0
C598 C 0.17548 0.4303 0.05199 0.0
H599 H 0.1861 0.46219 0.10598 0.0
O600 O 0.27841 0.40624 0.06709 0.0
O601 O 0.23759 0.40569 0.07633 0.0
O602 O 0.26071 0.43426 0.11191 0.0
O603 O 0.21757 0.43179 0.11761 0.0
C604 C 0.14399 0.45001 0.00673 0.0
C605 C 0.14684 0.42272 0.9886 0.0
H606 H 0.17855 0.34997 0.99564 0.0
H607 H 0.19209 0.32789 0.03305 0.0
H608 H 0.16183 0.49549 0.08535 0.0
H609 H 0.14353 0.49072 0.04222 0.0
H610 H 0.13321 0.46592 0.99915 0.0
H611 H 0.1371 0.42211 0.96995 0.0
Mn612 Mn 0.2533 0.59866 0.89354 0.0
Mn613 Mn 0.30711 0.56816 0.91166 0.0
C614 C 0.25306 0.55405 0.89569 0.0
C615 C 0.2272 0.61585 0.86147 0.0
C616 C 0.27237 0.59612 0.94908 0.0
O617 O 0.28095 0.6267 0.8901 0.0
O618 O 0.31582 0.60282 0.89787 0.0
C619 C 0.33182 0.5616 0.861 0.0
N620 N 0.32274 0.55123 0.88327 0.0
C621 C 0.33703 0.50904 0.87133 0.0
C622 C 0.34672 0.51928 0.84831 0.0
C623 C 0.34403 0.54566 0.8431 0.0
C624 C 0.32519 0.52589 0.88848 0.0
H625 H 0.32978 0.58187 0.85697 0.0
C626 C 0.30518 0.62396 0.89149 0.0
O627 O 0.22552 0.62321 0.88529 0.0
O628 O 0.24526 0.59987 0.85603 0.0
N629 N 0.30171 0.53437 0.92545 0.0
C630 C 0.2895 0.52723 0.94753 0.0
C631 C 0.28932 0.50123 0.95498 0.0
C632 C 0.302 0.48295 0.93988 0.0
C633 C 0.31469 0.49082 0.91741 0.0
C634 C 0.31423 0.51699 0.91096 0.0
H635 H 0.27983 0.54123 0.95927 0.0
O636 O 0.23194 0.56685 0.89622 0.0
O637 O 0.27408 0.56774 0.89352 0.0
O638 O 0.25469 0.60192 0.9332 0.0
O639 O 0.29269 0.58447 0.94251 0.0
C640 C 0.32706 0.4736 0.90072 0.0
C641 C 0.3382 0.4827 0.87768 0.0
H642 H 0.35604 0.50703 0.8344 0.0
H643 H 0.35134 0.55368 0.82533 0.0
H644 H 0.27942 0.49528 0.97231 0.0
H645 H 0.30164 0.46288 0.94556 0.0
H646 H 0.32769 0.45325 0.90517 0.0
H647 H 0.34729 0.46921 0.86481 0.0
Mn648 Mn 0.39356 0.24585 0.9113 0.0
Mn649 Mn 0.40783 0.18422 0.92416 0.0
C650 C 0.39883 0.23328 0.95443 0.0
C651 C 0.36236 0.27635 0.9019 0.0
C652 C 0.44812 0.22408 0.90882 0.0
O653 O 0.38666 0.22796 0.87669 0.0
O654 O 0.39713 0.18789 0.88799 0.0
C655 C 0.35424 0.16508 0.91845 0.0
N656 N 0.37605 0.16742 0.93272 0.0
C657 C 0.35562 0.14702 0.96891 0.0
C658 C 0.33318 0.14376 0.95436 0.0
C659 C 0.33249 0.15288 0.92899 0.0
C660 C 0.37687 0.15879 0.95708 0.0
H661 H 0.35331 0.17282 0.89935 0.0
C662 C 0.38945 0.20419 0.87159 0.0
O663 O 0.38611 0.27996 0.89513 0.0
O664 O 0.35695 0.25521 0.91409 0.0
N665 N 0.41807 0.17666 0.95808 0.0
C666 C 0.4409 0.18216 0.96962 0.0
C667 C 0.44398 0.1764 0.99554 0.0
C668 C 0.42358 0.16478 0.00878 0.0
C669 C 0.40123 0.15711 0.99618 0.0
C670 C 0.3992 0.16352 0.97038 0.0
H671 H 0.45586 0.19242 0.95967 0.0
O672 O 0.39973 0.25729 0.94772 0.0
O673 O 0.39354 0.21714 0.93563 0.0
O674 O 0.43254 0.24263 0.90549 0.0
O675 O 0.44111 0.20142 0.91606 0.0
C676 C 0.38024 0.14522 0.00868 0.0
C677 C 0.35748 0.13991 0.99494 0.0
H678 H 0.31624 0.13476 0.96262 0.0
H679 H 0.31511 0.15088 0.91773 0.0
H680 H 0.46126 0.18239 0.00558 0.0
H681 H 0.42422 0.1637 0.02889 0.0
H682 H 0.38127 0.14049 0.0289 0.0
H683 H 0.34134 0.13098 0.00472 0.0
Mn684 Mn 0.75498 0.40192 0.89309 0.0
Mn685 Mn 0.70276 0.43634 0.90779 0.0
C686 C 0.75741 0.44655 0.89379 0.0
C687 C 0.7805 0.38324 0.86151 0.0
C688 C 0.73442 0.40777 0.94761 0.0
O689 O 0.72561 0.37534 0.88922 0.0
O690 O 0.69231 0.40188 0.89496 0.0
C691 C 0.68139 0.44197 0.85543 0.0
N692 N 0.6902 0.45287 0.87765 0.0
C693 C 0.6815 0.49547 0.86215 0.0
C694 C 0.67217 0.48471 0.83915 0.0
C695 C 0.67223 0.45784 0.83574 0.0
C696 C 0.69061 0.4787 0.88098 0.0
H697 H 0.68136 0.42133 0.85276 0.0
C698 C 0.70155 0.37986 0.88942 0.0
O699 O 0.78219 0.3761 0.8854 0.0
O700 O 0.76292 0.39964 0.85602 0.0
N701 N 0.70996 0.47038 0.92039 0.0
C702 C 0.71956 0.47768 0.94373 0.0
C703 C 0.72083 0.50397 0.95019 0.0
C704 C 0.71178 0.52239 0.9328 0.0
C705 C 0.70151 0.51438 0.90913 0.0
C706 C 0.70077 0.48795 0.90374 0.0
H707 H 0.7262 0.46358 0.95732 0.0
O708 O 0.778 0.43311 0.89566 0.0
O709 O 0.73612 0.43354 0.89146 0.0
O710 O 0.75216 0.40014 0.93259 0.0
O711 O 0.715 0.4204 0.93992 0.0
C712 C 0.69186 0.53159 0.89072 0.0
C713 C 0.68211 0.52216 0.86714 0.0
H714 H 0.66498 0.49688 0.82396 0.0
H715 H 0.66514 0.44939 0.81801 0.0
H716 H 0.72867 0.51001 0.96856 0.0
H717 H 0.71274 0.54262 0.9378 0.0
H718 H 0.69194 0.55213 0.89446 0.0
H719 H 0.67503 0.53561 0.85302 0.0
Mn720 Mn 0.59624 0.74296 0.90097 0.0
Mn721 Mn 0.58787 0.8048 0.9143 0.0
C722 C 0.58742 0.75233 0.94469 0.0
C723 C 0.62862 0.71289 0.8937 0.0
C724 C 0.55126 0.77121 0.88197 0.0
O725 O 0.60681 0.76375 0.86913 0.0
O726 O 0.61775 0.7984 0.89161 0.0
C727 C 0.63563 0.81402 0.94453 0.0
N728 N 0.6098 0.81583 0.94235 0.0
C729 C 0.60906 0.83548 0.98943 0.0
C730 C 0.63586 0.82912 0.98988 0.0
C731 C 0.64837 0.82004 0.96773 0.0
C732 C 0.59586 0.82602 0.96129 0.0
H733 H 0.64666 0.80627 0.92883 0.0
C734 C 0.61645 0.78635 0.87024 0.0
O735 O 0.60615 0.71022 0.88313 0.0
O736 O 0.63221 0.73303 0.90808 0.0
N737 N 0.55875 0.81554 0.93476 0.0
C738 C 0.53343 0.81138 0.93001 0.0
C739 C 0.51423 0.82716 0.94027 0.0
C740 C 0.51935 0.84639 0.95864 0.0
C741 C 0.54373 0.84907 0.96923 0.0
C742 C 0.56616 0.83178 0.95339 0.0
H743 H 0.52763 0.79466 0.91952 0.0
O744 O 0.58657 0.72892 0.93601 0.0
O745 O 0.59133 0.76945 0.92685 0.0
O746 O 0.55952 0.74941 0.88983 0.0
O747 O 0.56329 0.79281 0.88634 0.0
C748 C 0.54602 0.86378 0.99832 0.0
C749 C 0.57531 0.86248 0.01649 0.0
H750 H 0.64822 0.83191 0.00637 0.0
H751 H 0.66879 0.81684 0.96878 0.0
H752 H 0.4945 0.82332 0.93484 0.0
H753 H 0.5035 0.85667 0.967 0.0
H754 H 0.55971 0.86517 0.01045 0.0
H755 H 0.57943 0.87238 0.03739 0.0
Mn756 Mn 0.75131 0.61639 0.09228 0.0
Mn757 Mn 0.80717 0.59783 0.066 0.0
C758 C 0.75366 0.61066 0.04819 0.0
C759 C 0.72554 0.64957 0.10696 0.0
C760 C 0.77023 0.56138 0.09384 0.0
O761 O 0.77716 0.62177 0.12112 0.0
O762 O 0.81416 0.61352 0.10049 0.0
C763 C 0.83944 0.64499 0.06068 0.0
N764 N 0.82719 0.6248 0.04891 0.0
C765 C 0.86127 0.63007 0.01177 0.0
C766 C 0.87166 0.6504 0.026 0.0
C767 C 0.86061 0.65791 0.04943 0.0
C768 C 0.83456 0.61681 0.02545 0.0
H769 H 0.83346 0.65107 0.07957 0.0
C770 C 0.80154 0.62057 0.12042 0.0
O771 O 0.72227 0.62611 0.11515 0.0
O772 O 0.74424 0.65373 0.09106 0.0
N773 N 0.80193 0.58162 0.03315 0.0
C774 C 0.78809 0.55972 0.02831 0.0
C775 C 0.78859 0.54735 0.00444 0.0
C776 C 0.80469 0.55521 0.98447 0.0
C777 C 0.82245 0.57662 0.98762 0.0
C778 C 0.8169 0.59233 0.01527 0.0
H779 H 0.77475 0.55241 0.04232 0.0
O780 O 0.73177 0.61102 0.05989 0.0
O781 O 0.77402 0.6152 0.06244 0.0
O782 O 0.75212 0.57702 0.0982 0.0
O783 O 0.79109 0.56815 0.08303 0.0
C784 C 0.86342 0.5962 0.96524 0.0
C785 C 0.87551 0.62122 0.98356 0.0
H786 H 0.88844 0.66067 0.01898 0.0
H787 H 0.86942 0.67381 0.05987 0.0
H788 H 0.77606 0.53076 1.00144 0.0
H789 H 0.80313 0.54326 0.96749 0.0
H790 H 0.87352 0.5913 0.94751 0.0
H791 H 0.89251 0.63146 0.9771 0.0
Mn792 Mn 0.40455 0.75512 0.11315 0.0
Mn793 Mn 0.43487 0.70259 0.09085 0.0
C794 C 0.44898 0.75606 0.10944 0.0
C795 C 0.38856 0.77977 0.14722 0.0
C796 C 0.40578 0.73943 0.05634 0.0
O797 O 0.377 0.72657 0.11637 0.0
O798 O 0.40096 0.69255 0.10531 0.0
C799 C 0.44318 0.67541 0.14003 0.0
N800 N 0.45267 0.68552 0.11781 0.0
C801 C 0.49509 0.67102 0.12768 0.0
C802 C 0.48571 0.6601 0.15052 0.0
C803 C 0.45966 0.66242 0.15677 0.0
C804 C 0.47771 0.68357 0.11168 0.0
H805 H 0.42321 0.67732 0.14496 0.0
C806 C 0.3801 0.70234 0.11349 0.0
O807 O 0.38026 0.78242 0.12384 0.0
O808 O 0.40469 0.76143 0.15111 0.0
N809 N 0.46801 0.70916 0.07642 0.0
C810 C 0.47438 0.72274 0.05489 0.0
C811 C 0.49999 0.72348 0.04663 0.0
C812 C 0.51866 0.71005 0.06043 0.0
C813 C 0.51162 0.69609 0.0824 0.0
C814 C 0.48581 0.69594 0.08964 0.0
H815 H 0.46006 0.73297 0.04416 0.0
O816 O 0.43597 0.7771 0.1104 0.0
O817 O 0.43561 0.7347 0.11093 0.0
O818 O 0.40004 0.75595 0.07357 0.0
O819 O 0.41765 0.71869 0.06126 0.0
C820 C 0.52935 0.68295 0.09782 0.0
C821 C 0.5211 0.67046 0.12048 0.0
H822 H 0.4984 0.65021 0.16355 0.0
H823 H 0.45233 0.65426 0.17447 0.0
H824 H 0.50531 0.7343 0.02965 0.0
H825 H 0.53839 0.71071 0.05416 0.0
H826 H 0.54946 0.68279 0.09272 0.0
H827 H 0.53498 0.66085 0.13244 0.0
Mn828 Mn 0.61004 0.24986 0.11114 0.0
Mn829 Mn 0.58295 0.30541 0.09275 0.0
C830 C 0.56608 0.25178 0.1061 0.0
C831 C 0.6237 0.22397 0.1452 0.0
C832 C 0.61133 0.26982 0.0562 0.0
O833 O 0.63887 0.27669 0.11624 0.0
O834 O 0.61619 0.31282 0.10989 0.0
C835 C 0.5726 0.32773 0.14403 0.0
N836 N 0.56398 0.31978 0.12055 0.0
C837 C 0.5207 0.33104 0.13112 0.0
C838 C 0.52918 0.3397 0.15528 0.0
C839 C 0.55523 0.33795 0.16179 0.0
C840 C 0.53891 0.32114 0.11418 0.0
H841 H 0.59254 0.32612 0.14921 0.0
C842 C 0.63661 0.30119 0.11661 0.0
O843 O 0.63233 0.22053 0.12201 0.0
O844 O 0.60853 0.24314 0.14859 0.0
N845 N 0.55046 0.30103 0.07597 0.0
C846 C 0.54532 0.29158 0.052 0.0
C847 C 0.52004 0.29157 0.0427 0.0
C848 C 0.50036 0.30152 0.05799 0.0
C849 C 0.5062 0.31169 0.08234 0.0
C850 C 0.53179 0.31144 0.09048 0.0
H851 H 0.56033 0.28399 0.04007 0.0
O852 O 0.57737 0.22974 0.10654 0.0
O853 O 0.58071 0.27192 0.1093 0.0
O854 O 0.61493 0.25118 0.07179 0.0
O855 O 0.60138 0.29122 0.06283 0.0
C856 C 0.4876 0.32187 0.09895 0.0
C857 C 0.49483 0.33148 0.12334 0.0
H858 H 0.51583 0.34749 0.16908 0.0
H859 H 0.56189 0.34437 0.18048 0.0
H860 H 0.51573 0.28384 0.02382 0.0
H861 H 0.48085 0.30125 0.05085 0.0
H862 H 0.46764 0.32221 0.09323 0.0
H863 H 0.48031 0.33903 0.13604 0.0
Mn864 Mn 0.90694 0.75795 0.60433 0.0
Mn865 Mn 0.91882 0.69735 0.58874 0.0
C866 C 0.91632 0.75107 0.56007 0.0
C867 C 0.87269 0.7853 0.61375 0.0
C868 C 0.95376 0.73214 0.62178 0.0
O869 O 0.89763 0.73517 0.63539 0.0
O870 O 0.88865 0.70143 0.61119 0.0
C871 C 0.87124 0.68687 0.55853 0.0
N872 N 0.89716 0.68607 0.56066 0.0
C873 C 0.89853 0.66767 0.51311 0.0
C874 C 0.8715 0.67288 0.51281 0.0
C875 C 0.85868 0.68084 0.53521 0.0
C876 C 0.91142 0.67695 0.54155 0.0
H877 H 0.85989 0.69381 0.57438 0.0
C878 C 0.88946 0.71206 0.6332 0.0
O879 O 0.89521 0.789 0.62389 0.0
O880 O 0.87021 0.76595 0.5981 0.0
N881 N 0.94849 0.68819 0.56815 0.0
C882 C 0.97373 0.69255 0.57324 0.0
C883 C 0.9934 0.67796 0.56199 0.0
C884 C 0.9889 0.65963 0.54255 0.0
C885 C 0.96448 0.6564 0.53221 0.0
C886 C 0.94153 0.67221 0.54914 0.0
H887 H 0.97916 0.70864 0.58476 0.0
O888 O 0.91572 0.77404 0.56986 0.0
O889 O 0.91356 0.73293 0.57715 0.0
O890 O 0.94408 0.7536 0.61487 0.0
O891 O 0.94287 0.71002 0.61695 0.0
C892 C 0.96148 0.64272 0.50244 0.0
C893 C 0.93311 0.64356 0.48575 0.0
H894 H 0.85924 0.67001 0.49627 0.0
H895 H 0.83813 0.68322 0.53429 0.0
H896 H 0.01302 0.68211 0.56762 0.0
H897 H 0.00504 0.6504 0.53354 0.0
H898 H 0.97796 0.63406 0.49351 0.0
H899 H 0.93237 0.63421 0.46688 0.0
Mn900 Mn 0.25679 0.90322 0.60855 0.0
Mn901 Mn 0.19805 0.92737 0.59636 0.0
C902 C 0.2516 0.94766 0.60616 0.0
C903 C 0.28811 0.89009 0.63811 0.0
C904 C 0.23198 0.90368 0.55507 0.0
O905 O 0.2325 0.8719 0.61469 0.0
O906 O 0.19504 0.89258 0.61124 0.0
C907 C 0.18191 0.93239 0.65064 0.0
N908 N 0.1859 0.94321 0.62713 0.0
C909 C 0.17353 0.98487 0.64273 0.0
C910 C 0.16891 0.97409 0.66701 0.0
C911 C 0.17324 0.94776 0.671 0.0
C912 C 0.18244 0.96866 0.62326 0.0
H913 H 0.18553 0.91225 0.65387 0.0
C914 C 0.208 0.87255 0.61631 0.0
O915 O 0.28847 0.88261 0.61427 0.0
O916 O 0.26852 0.90342 0.64518 0.0
N917 N 0.19689 0.96109 0.58166 0.0
C918 C 0.19864 0.96755 0.55631 0.0
C919 C 0.19362 0.99291 0.54864 0.0
C920 C 0.186 0.01115 0.56697 0.0
C921 C 0.18271 0.00364 0.59264 0.0
C922 C 0.18775 0.97802 0.59906 0.0
H923 H 0.204 0.95352 0.54202 0.0
O924 O 0.27406 0.93771 0.604 0.0
O925 O 0.23282 0.93145 0.60998 0.0
O926 O 0.25158 0.89987 0.56933 0.0
O927 O 0.21072 0.91226 0.5637 0.0
C928 C 0.17387 0.02036 0.61195 0.0
C929 C 0.16949 0.01103 0.63704 0.0
H930 H 0.16208 0.98585 0.68273 0.0
H931 H 0.16992 0.93933 0.68974 0.0
H932 H 0.19559 0.99836 0.52866 0.0
H933 H 0.18222 0.03072 0.56101 0.0
H934 H 0.17009 0.04035 0.60763 0.0
H935 H 0.1626 0.02404 0.65171 0.0
Mn936 Mn 0.10754 0.25405 0.59434 0.0
Mn937 Mn 0.09221 0.31079 0.56689 0.0
C938 C 0.10237 0.25583 0.54985 0.0
C939 C 0.14025 0.22653 0.60764 0.0
C940 C 0.0536 0.27673 0.59534 0.0
O941 O 0.11523 0.2796 0.62326 0.0
O942 O 0.10684 0.31591 0.60172 0.0
C943 C 0.14576 0.33211 0.56625 0.0
N944 N 0.12461 0.32558 0.55206 0.0
C945 C 0.14164 0.36014 0.51698 0.0
C946 C 0.16301 0.36424 0.5354 0.0
C947 C 0.16481 0.34969 0.5579 0.0
C948 C 0.12343 0.33233 0.52724 0.0
H949 H 0.14835 0.32397 0.58509 0.0
C950 C 0.11431 0.30404 0.62181 0.0
O951 O 0.11714 0.22408 0.61681 0.0
O952 O 0.14424 0.24528 0.59179 0.0
N953 N 0.07432 0.30963 0.5334 0.0
C954 C 0.04369 0.30275 0.52914 0.0
C955 C 0.02531 0.30655 0.49986 0.0
C956 C 0.04087 0.32083 0.47214 0.0
C957 C 0.08516 0.33203 0.48491 0.0
C958 C 0.09577 0.32036 0.51538 0.0
H959 H 0.03324 0.29425 0.54472 0.0
O960 O 0.10064 0.23425 0.56217 0.0
O961 O 0.10682 0.27618 0.56402 0.0
O962 O 0.06871 0.25826 0.60083 0.0
O963 O 0.0607 0.29689 0.58293 0.0
C964 C 0.10434 0.37286 0.47053 0.0
C965 C 0.13254 0.38126 0.48909 0.0
H966 H 0.17704 0.37937 0.53177 0.0
H967 H 0.18088 0.35359 0.57059 0.0
H968 H 0.00519 0.30127 0.49924 0.0
H969 H 0.03007 0.32685 0.45533 0.0
H970 H 0.09786 0.38555 0.45527 0.0
H971 H 0.13927 0.3722 0.50359 0.0
Mn972 Mn 0.75262 0.09752 0.61489 0.0
Mn973 Mn 0.80705 0.0683 0.59711 0.0
C974 C 0.75265 0.0531 0.60938 0.0
C975 C 0.72585 0.11097 0.64846 0.0
C976 C 0.77375 0.09847 0.56007 0.0
O977 O 0.78012 0.12562 0.62122 0.0
O978 O 0.81538 0.10244 0.61293 0.0
C979 C 0.82982 0.05929 0.64834 0.0
N980 N 0.82129 0.04994 0.62534 0.0
C981 C 0.83291 0.00676 0.63669 0.0
C982 C 0.842 0.01595 0.66044 0.0
C983 C 0.8404 0.04232 0.6663 0.0
C984 C 0.82276 0.02461 0.61948 0.0
H985 H 0.82853 0.07954 0.65291 0.0
C986 C 0.80447 0.12326 0.6201 0.0
O987 O 0.72377 0.12053 0.62547 0.0
O988 O 0.74449 0.09529 0.65214 0.0
N989 N 0.80181 0.03518 0.58152 0.0
C990 C 0.79062 0.02921 0.55852 0.0
C991 C 0.78963 0.00344 0.55023 0.0
C992 C 0.80035 0.98412 0.56554 0.0
C993 C 0.81205 0.99078 0.58899 0.0
C994 C 0.81255 0.0168 0.5962 0.0
H995 H 0.78232 0.04397 0.54669 0.0
O996 O 0.73147 0.06571 0.6089 0.0
O997 O 0.77336 0.06686 0.61345 0.0
O998 O 0.75544 0.10361 0.57556 0.0
O999 O 0.79368 0.08616 0.56672 0.0
C1000 C 0.8226 0.97254 0.60581 0.0
C1001 C 0.83303 0.98052 0.62964 0.0
H1002 H 0.85003 0.0029 0.67442 0.0
H1003 H 0.84726 0.04954 0.68464 0.0
H1004 H 0.78054 0.99845 0.53213 0.0
H1005 H 0.79931 0.96423 0.55923 0.0
H1006 H 0.82242 0.95226 0.60079 0.0
H1007 H 0.84075 0.96626 0.64256 0.0
Mn1008 Mn 0.90186 0.26423 0.39589 0.0
Mn1009 Mn 0.9293 0.20863 0.41338 0.0
C1010 C 0.94609 0.26236 0.39967 0.0
C1011 C 0.88745 0.2903 0.36231 0.0
C1012 C 0.90053 0.24347 0.45038 0.0
O1013 O 0.87305 0.23733 0.39106 0.0
O1014 O 0.89585 0.20106 0.39646 0.0
C1015 C 0.93945 0.18534 0.36251 0.0
N1016 N 0.94816 0.19378 0.38578 0.0
C1017 C 0.99115 0.18092 0.37591 0.0
C1018 C 0.98258 0.17184 0.35193 0.0
C1019 C 0.95664 0.17413 0.34518 0.0
C1020 C 0.97309 0.1917 0.39248 0.0
H1021 H 0.91957 0.18724 0.35721 0.0
C1022 C 0.87525 0.21282 0.39041 0.0
O1023 O 0.87929 0.2936 0.38568 0.0
O1024 O 0.90268 0.27126 0.35851 0.0
N1025 N 0.9619 0.2135 0.42985 0.0
C1026 C 0.96742 0.22504 0.45282 0.0
C1027 C 0.99282 0.22564 0.46181 0.0
C1028 C 0.01222 0.21419 0.44723 0.0
C1029 C 0.00604 0.20221 0.42379 0.0
C1030 C 0.98037 0.20212 0.41585 0.0
H1031 H 0.95263 0.23389 0.46412 0.0
O1032 O 0.93466 0.28432 0.40008 0.0
O1033 O 0.93135 0.24219 0.39674 0.0
O1034 O 0.8972 0.26254 0.43528 0.0
O1035 O 0.91092 0.22247 0.44335 0.0
C1036 C 0.02444 0.19095 0.40766 0.0
C1037 C 0.017 0.1803 0.38375 0.0
H1038 H 0.99581 0.16336 0.33842 0.0
H1039 H 0.94992 0.16733 0.32663 0.0
H1040 H 0.99746 0.23501 0.47987 0.0
H1041 H 0.03183 0.21494 0.4541 0.0
H1042 H 0.04444 0.19079 0.41326 0.0
H1043 H 0.03139 0.1721 0.37133 0.0
Mn1044 Mn 0.75914 0.89597 0.4089 0.0
Mn1045 Mn 0.70301 0.91676 0.43414 0.0
C1046 C 0.75581 0.90131 0.45324 0.0
C1047 C 0.78465 0.86174 0.39544 0.0
C1048 C 0.74316 0.95259 0.41083 0.0
O1049 O 0.73481 0.89104 0.3785 0.0
O1050 O 0.69976 0.90575 0.39803 0.0
C1051 C 0.67757 0.86487 0.42928 0.0
N1052 N 0.68496 0.88433 0.44554 0.0
C1053 C 0.65087 0.86412 0.47937 0.0
C1054 C 0.6465 0.8444 0.45912 0.0
C1055 C 0.66027 0.84497 0.43612 0.0
C1056 C 0.67866 0.88307 0.47063 0.0
H1057 H 0.68488 0.86427 0.40997 0.0
C1058 C 0.71131 0.897 0.37839 0.0
O1059 O 0.78889 0.88507 0.38726 0.0
O1060 O 0.76519 0.85833 0.41054 0.0
N1061 N 0.70155 0.93254 0.46845 0.0
C1062 C 0.70758 0.96314 0.47458 0.0
C1063 C 0.70352 0.97972 0.50495 0.0
C1064 C 0.68914 0.96226 0.53147 0.0
C1065 C 0.67841 0.91859 0.51567 0.0
C1066 C 0.69055 0.90987 0.48476 0.0
H1067 H 0.71217 0.97543 0.45873 0.0
O1068 O 0.7778 0.9007 0.44183 0.0
O1069 O 0.73575 0.89845 0.43842 0.0
O1070 O 0.75892 0.93536 0.40364 0.0
O1071 O 0.72184 0.94782 0.42224 0.0
C1072 C 0.63755 0.89833 0.52815 0.0
C1073 C 0.6295 0.87133 0.50759 0.0
H1074 H 0.63137 0.83012 0.46162 0.0
H1075 H 0.65589 0.83027 0.4219 0.0
H1076 H 0.70764 1.00015 0.50657 0.0
H1077 H 0.68274 0.97204 0.54881 0.0
H1078 H 0.62468 0.90378 0.54365 0.0
H1079 H 0.63872 0.86563 0.49278 0.0
Mn1080 Mn 0.10328 0.75058 0.39518 0.0
Mn1081 Mn 0.07436 0.8029 0.41931 0.0
C1082 C 0.05888 0.7504 0.39893 0.0
C1083 C 0.11937 0.72776 0.35998 0.0
C1084 C 0.10365 0.76466 0.45222 0.0
O1085 O 0.13117 0.77878 0.39297 0.0
O1086 O 0.10756 0.81328 0.40339 0.0
C1087 C 0.06361 0.83128 0.37131 0.0
N1088 N 0.05521 0.82047 0.39364 0.0
C1089 C 0.01212 0.83425 0.38575 0.0
C1090 C 0.02039 0.84589 0.36285 0.0
C1091 C 0.04623 0.84429 0.35555 0.0
C1092 C 0.03037 0.82173 0.40077 0.0
H1093 H 0.0834 0.82986 0.36553 0.0
C1094 C 0.12826 0.80309 0.39523 0.0
O1095 O 0.12735 0.72364 0.38325 0.0
O1096 O 0.10312 0.74616 0.357 0.0
N1097 N 0.04195 0.79561 0.43503 0.0
C1098 C 0.0367 0.78148 0.4565 0.0
C1099 C 0.01147 0.78004 0.46576 0.0
C1100 C 0.99197 0.79319 0.45292 0.0
C1101 C 0.99783 0.8077 0.43096 0.0
C1102 C 0.02336 0.80865 0.42277 0.0
H1103 H 0.0516 0.77138 0.4665 0.0
O1104 O 0.07137 0.72908 0.39702 0.0
O1105 O 0.07279 0.77143 0.39838 0.0
O1106 O 0.10777 0.74802 0.43465 0.0
O1107 O 0.093 0.78621 0.44784 0.0
C1108 C 0.97924 0.82075 0.41652 0.0
C1109 C 0.98638 0.83399 0.39391 0.0
H1110 H 0.007 0.85578 0.35054 0.0
H1111 H 0.0527 0.85299 0.33777 0.0
H1112 H 0.00712 0.76891 0.48279 0.0
H1113 H 0.97255 0.79195 0.46001 0.0
H1114 H 0.95932 0.82031 0.42237 0.0
H1115 H 0.97184 0.84353 0.3827 0.0
Mn1116 Mn 0.24258 0.10387 0.39837 0.0
Mn1117 Mn 0.30422 0.09697 0.41151 0.0
C1118 C 0.25051 0.09392 0.44201 0.0
C1119 C 0.21408 0.13688 0.38928 0.0
C1120 C 0.27005 0.05836 0.38339 0.0
O1121 O 0.26369 0.11403 0.36653 0.0
O1122 O 0.2928 0.12753 0.393 0.0
C1123 C 0.31072 0.14329 0.44485 0.0
N1124 N 0.31416 0.1177 0.4409 0.0
C1125 C 0.33036 0.11453 0.48914 0.0
C1126 C 0.32263 0.141 0.49101 0.0
C1127 C 0.31464 0.15469 0.46918 0.0
C1128 C 0.32352 0.10277 0.45954 0.0
H1129 H 0.30342 0.15516 0.42957 0.0
C1130 C 0.28521 0.12508 0.37006 0.0
O1131 O 0.21101 0.11405 0.37946 0.0
O1132 O 0.23346 0.14042 0.40461 0.0
N1133 N 0.32065 0.0677 0.42756 0.0
C1134 C 0.32872 0.04643 0.4145 0.0
C1135 C 0.34396 0.02744 0.42582 0.0
C1136 C 0.35385 0.02966 0.45071 0.0
C1137 C 0.34993 0.05173 0.46514 0.0
C1138 C 0.33197 0.07404 0.44985 0.0
H1139 H 0.32375 0.04368 0.39456 0.0
O1140 O 0.22754 0.09461 0.43262 0.0
O1141 O 0.2688 0.0966 0.4251 0.0
O1142 O 0.24806 0.06718 0.38886 0.0
O1143 O 0.29095 0.07239 0.3837 0.0
C1144 C 0.36217 0.05262 0.49529 0.0
C1145 C 0.35764 0.08036 0.51538 0.0
H1146 H 0.3236 0.15229 0.50848 0.0
H1147 H 0.31035 0.17492 0.47139 0.0
H1148 H 0.34855 0.01052 0.41463 0.0
H1149 H 0.36509 0.01416 0.45853 0.0
H1150 H 0.36168 0.06544 0.50843 0.0
H1151 H 0.3659 0.08345 0.53714 0.0
Mn1152 Mn 0.61289 0.90368 0.75396 0.0
Mn1153 Mn 0.59758 0.91975 0.81458 0.0
C1154 C 0.60825 0.94735 0.7642 0.0
C1155 C 0.64402 0.8928 0.72355 0.0
C1156 C 0.5574 0.90447 0.77519 0.0
O1157 O 0.61922 0.87008 0.77344 0.0
O1158 O 0.60498 0.88256 0.81197 0.0
C1159 C 0.6498 0.91035 0.83494 0.0
N1160 N 0.62984 0.92649 0.83118 0.0
C1161 C 0.65437 0.96232 0.84805 0.0
C1162 C 0.67506 0.94601 0.85234 0.0
C1163 C 0.6727 0.91983 0.84585 0.0
C1164 C 0.63177 0.95152 0.8378 0.0
H1165 H 0.64839 0.89048 0.82944 0.0
C1166 C 0.61372 0.86555 0.7968 0.0
O1167 O 0.62016 0.88572 0.72084 0.0
O1168 O 0.64977 0.90601 0.74399 0.0
N1169 N 0.59046 0.95469 0.82128 0.0
C1170 C 0.56858 0.9676 0.81632 0.0
C1171 C 0.56844 0.99421 0.81985 0.0
C1172 C 0.59062 0.0067 0.82903 0.0
C1173 C 0.61169 0.99275 0.83705 0.0
C1174 C 0.61084 0.96635 0.83274 0.0
H1175 H 0.55223 0.95805 0.80783 0.0
O1176 O 0.60742 0.93929 0.74063 0.0
O1177 O 0.61316 0.92953 0.78137 0.0
O1178 O 0.57346 0.89831 0.7576 0.0
O1179 O 0.56412 0.91357 0.79723 0.0
C1180 C 0.63435 0.00432 0.84666 0.0
C1181 C 0.65557 0.98904 0.85264 0.0
H1182 H 0.69292 0.95344 0.86026 0.0
H1183 H 0.68862 0.90708 0.84886 0.0
H1184 H 0.55228 0.00512 0.81326 0.0
H1185 H 0.59276 0.02686 0.8269 0.0
H1186 H 0.63583 0.02495 0.84906 0.0
H1187 H 0.67291 0.9981 0.86005 0.0
Mn1188 Mn 0.09754 0.60477 0.76021 0.0
Mn1189 Mn 0.08664 0.58555 0.82118 0.0
C1190 C 0.05437 0.59862 0.77292 0.0
C1191 C 0.10791 0.6376 0.73075 0.0
C1192 C 0.10487 0.55019 0.77858 0.0
O1193 O 0.13214 0.61062 0.77833 0.0
O1194 O 0.11925 0.60508 0.81899 0.0
C1195 C 0.08157 0.63455 0.84987 0.0
N1196 N 0.07334 0.61016 0.84443 0.0
C1197 C 0.04822 0.60795 0.8831 0.0
C1198 C 0.0561 0.63325 0.88908 0.0
C1199 C 0.07267 0.64669 0.87227 0.0
C1200 C 0.05738 0.59712 0.86035 0.0
H1201 H 0.09513 0.64435 0.83744 0.0
C1202 C 0.13595 0.61201 0.80249 0.0
O1203 O 0.11385 0.6138 0.72662 0.0
O1204 O 0.09567 0.64237 0.75194 0.0
N1205 N 0.05647 0.56593 0.82832 0.0
C1206 C 0.04762 0.54373 0.8173 0.0
C1207 C 0.03079 0.52759 0.83122 0.0
C1208 C 0.0229 0.53485 0.85606 0.0
C1209 C 0.03142 0.55852 0.86643 0.0
C1210 C 0.04861 0.57336 0.85187 0.0
H1211 H 0.05355 0.53843 0.79816 0.0
O1212 O 0.06144 0.59916 0.74904 0.0
O1213 O 0.07285 0.60302 0.78972 0.0
O1214 O 0.10309 0.56566 0.75978 0.0
O1215 O 0.10067 0.55683 0.80163 0.0
C1216 C 0.02287 0.56847 0.89011 0.0
C1217 C 0.03106 0.59328 0.89831 0.0
H1218 H 0.04938 0.64262 0.90637 0.0
H1219 H 0.07891 0.66615 0.87683 0.0
H1220 H 0.02381 0.50972 0.82279 0.0
H1221 H 0.00963 0.52258 0.86658 0.0
H1222 H 0.00943 0.55754 0.90179 0.0
H1223 H 0.02372 0.60104 0.91614 0.0
Mn1224 Mn 0.39134 0.10477 0.74078 0.0
Mn1225 Mn 0.41051 0.07929 0.79715 0.0
C1226 C 0.39613 0.06061 0.74385 0.0
C1227 C 0.35873 0.11879 0.71382 0.0
C1228 C 0.44648 0.10677 0.75998 0.0
O1229 O 0.38714 0.13447 0.76616 0.0
O1230 O 0.39537 0.11374 0.80328 0.0
C1231 C 0.35993 0.07162 0.82176 0.0
N1232 N 0.38255 0.06184 0.81355 0.0
C1233 C 0.37123 0.01967 0.82938 0.0
C1234 C 0.34785 0.02932 0.83816 0.0
C1235 C 0.34216 0.0554 0.83427 0.0
C1236 C 0.3882 0.03678 0.81713 0.0
H1237 H 0.35551 0.09165 0.81876 0.0
C1238 C 0.38864 0.13366 0.79061 0.0
O1239 O 0.38222 0.12705 0.71132 0.0
O1240 O 0.35389 0.10357 0.73302 0.0
N1241 N 0.42563 0.04604 0.79448 0.0
C1242 C 0.44844 0.03952 0.78376 0.0
C1243 C 0.45666 0.01393 0.78528 0.0
C1244 C 0.44157 0.99542 0.79816 0.0
C1245 C 0.41836 1.00268 0.8094 0.0
C1246 C 0.41116 0.02847 0.80728 0.0
H1247 H 0.46017 0.05368 0.77391 0.0
O1248 O 0.39543 0.07192 0.72169 0.0
O1249 O 0.39301 0.07542 0.76387 0.0
O1250 O 0.43046 0.11013 0.7418 0.0
O1251 O 0.44069 0.09645 0.78152 0.0
C1252 C 0.40175 0.9852 0.82203 0.0
C1253 C 0.37819 0.99368 0.83198 0.0
H1254 H 0.33406 0.01685 0.84775 0.0
H1255 H 0.32413 0.06296 0.8409 0.0
H1256 H 0.47458 0.00846 0.77652 0.0
H1257 H 0.44788 0.97566 0.79911 0.0
H1258 H 0.40675 0.96511 0.82388 0.0
H1259 H 0.36545 0.98 0.84139 0.0
Mn1260 Mn 0.89654 0.40401 0.76491 0.0
Mn1261 Mn 0.91405 0.43233 0.7095 0.0
C1262 C 0.90187 0.44861 0.76409 0.0
C1263 C 0.86274 0.38769 0.78977 0.0
C1264 C 0.95059 0.40265 0.74385 0.0
O1265 O 0.89157 0.37569 0.73793 0.0
O1266 O 0.89674 0.39849 0.70147 0.0
C1267 C 0.86331 0.4428 0.68681 0.0
N1268 N 0.88659 0.45152 0.69524 0.0
C1269 C 0.87683 0.49509 0.68352 0.0
C1270 C 0.85279 0.48655 0.67454 0.0
C1271 C 0.846 0.4603 0.67623 0.0
C1272 C 0.89336 0.47672 0.69367 0.0
H1273 H 0.85802 0.42264 0.68816 0.0
C1274 C 0.89104 0.37757 0.71347 0.0
O1275 O 0.88603 0.37989 0.7933 0.0
O1276 O 0.85926 0.40438 0.7717 0.0
N1277 N 0.93099 0.46499 0.71428 0.0
C1278 C 0.95427 0.47028 0.72518 0.0
C1279 C 0.96351 0.49583 0.72597 0.0
C1280 C 0.94886 0.51563 0.71535 0.0
C1281 C 0.92512 0.50968 0.70396 0.0
C1282 C 0.91694 0.48384 0.70364 0.0
H1283 H 0.96561 0.45516 0.73341 0.0
O1284 O 0.90137 0.43619 0.78566 0.0
O1285 O 0.89822 0.43451 0.74353 0.0
O1286 O 0.93565 0.39924 0.76305 0.0
O1287 O 0.94371 0.4135 0.72296 0.0
C1288 C 0.90896 0.52844 0.69347 0.0
C1289 C 0.88484 0.52115 0.68325 0.0
H1290 H 0.83932 0.50002 0.66651 0.0
H1291 H 0.82744 0.45359 0.66944 0.0
H1292 H 0.98184 0.50027 0.73483 0.0
H1293 H 0.95594 0.53535 0.71624 0.0
H1294 H 0.91473 0.54859 0.69351 0.0
H1295 H 0.87245 0.5358 0.67554 0.0
Mn1296 Mn 0.60283 0.11253 0.24951 0.0
Mn1297 Mn 0.57522 0.09462 0.30542 0.0
C1298 C 0.55862 0.10673 0.25116 0.0
C1299 C 0.61822 0.14591 0.22319 0.0
C1300 C 0.60346 0.05775 0.27017 0.0
O1301 O 0.63138 0.11808 0.27611 0.0
O1302 O 0.60933 0.111 0.31267 0.0
C1303 C 0.5669 0.14595 0.32846 0.0
N1304 N 0.55736 0.12275 0.32032 0.0
C1305 C 0.51479 0.1336 0.33377 0.0
C1306 C 0.52417 0.15756 0.34246 0.0
C1307 C 0.55034 0.16377 0.33974 0.0
C1308 C 0.53223 0.11658 0.32281 0.0
H1309 H 0.58699 0.15079 0.32635 0.0
C1310 C 0.6298 0.11765 0.30062 0.0
O1311 O 0.62622 0.12248 0.22045 0.0
O1312 O 0.60219 0.14995 0.24172 0.0
N1313 N 0.5422 0.07845 0.30171 0.0
C1314 C 0.53607 0.05496 0.29144 0.0
C1315 C 0.5105 0.04613 0.29194 0.0
C1316 C 0.49157 0.06137 0.30327 0.0
C1317 C 0.49843 0.08526 0.31413 0.0
C1318 C 0.52424 0.09302 0.31315 0.0
H1319 H 0.55053 0.04313 0.28276 0.0
O1320 O 0.57062 0.10718 0.22937 0.0
O1321 O 0.57279 0.11082 0.2715 0.0
O1322 O 0.60765 0.07325 0.25153 0.0
O1323 O 0.59266 0.06434 0.29118 0.0
C1324 C 0.48059 0.10193 0.32543 0.0
C1325 C 0.48876 0.12608 0.33522 0.0
H1326 H 0.51145 0.17139 0.35109 0.0
H1327 H 0.55771 0.18226 0.34631 0.0
H1328 H 0.50537 0.02764 0.28356 0.0
H1329 H 0.47183 0.05459 0.3034 0.0
H1330 H 0.46048 0.0965 0.3264 0.0
H1331 H 0.47482 0.13884 0.34362 0.0
Mn1332 Mn 0.89348 0.60797 0.24067 0.0
Mn1333 Mn 0.91047 0.5782 0.29579 0.0
C1334 C 0.8985 0.56359 0.24095 0.0
C1335 C 0.86298 0.6233 0.21204 0.0
C1336 C 0.94757 0.60878 0.26236 0.0
O1337 O 0.88722 0.63567 0.26823 0.0
O1338 O 0.8945 0.61171 0.30355 0.0
C1339 C 0.85892 0.56801 0.31743 0.0
N1340 N 0.8822 0.55926 0.30992 0.0
C1341 C 0.87158 0.51623 0.32378 0.0
C1342 C 0.84759 0.52483 0.33198 0.0
C1343 C 0.8412 0.55082 0.32868 0.0
C1344 C 0.88847 0.53428 0.3128 0.0
H1345 H 0.85394 0.58794 0.31481 0.0
C1346 C 0.88762 0.63259 0.29263 0.0
O1347 O 0.88637 0.63213 0.21209 0.0
O1348 O 0.85674 0.60709 0.23005 0.0
N1349 N 0.92627 0.54543 0.29159 0.0
C1350 C 0.94955 0.53994 0.28126 0.0
C1351 C 0.95838 0.51452 0.28199 0.0
C1352 C 0.94347 0.49516 0.2938 0.0
C1353 C 0.91979 0.50135 0.30469 0.0
C1354 C 0.91195 0.527 0.30334 0.0
H1355 H 0.9612 0.55479 0.27236 0.0
O1356 O 0.89918 0.57647 0.21966 0.0
O1357 O 0.89415 0.57689 0.26172 0.0
O1358 O 0.93221 0.61358 0.24405 0.0
O1359 O 0.94111 0.59673 0.28277 0.0
C1360 C 0.90332 0.48295 0.31618 0.0
C1361 C 0.87922 0.49038 0.32568 0.0
H1362 H 0.83383 0.51162 0.34059 0.0
H1363 H 0.82266 0.55757 0.33479 0.0
H1364 H 0.97665 0.50986 0.27349 0.0
H1365 H 0.95026 0.47556 0.29416 0.0
H1366 H 0.90882 0.46296 0.31742 0.0
H1367 H 0.86657 0.47599 0.33414 0.0
Mn1368 Mn 0.40069 0.908 0.25216 0.0
Mn1369 Mn 0.42101 0.91922 0.19159 0.0
C1370 C 0.40717 0.95143 0.23935 0.0
C1371 C 0.36722 0.89811 0.28109 0.0
C1372 C 0.45554 0.90093 0.23483 0.0
O1373 O 0.39496 0.87316 0.23384 0.0
O1374 O 0.40195 0.88617 0.19338 0.0
C1375 C 0.37275 0.92369 0.16203 0.0
N1376 N 0.39672 0.93242 0.16806 0.0
C1377 C 0.3996 0.9573 0.12919 0.0
C1378 C 0.37472 0.94893 0.12263 0.0
C1379 C 0.36114 0.93226 0.13926 0.0
C1380 C 0.40976 0.94869 0.15245 0.0
H1381 H 0.36293 0.90995 0.17427 0.0
C1382 C 0.3944 0.86939 0.20962 0.0
O1383 O 0.39072 0.89187 0.28576 0.0
O1384 O 0.36315 0.9102 0.25966 0.0
N1385 N 0.44023 0.94986 0.18494 0.0
C1386 C 0.46198 0.95904 0.19634 0.0
C1387 C 0.47828 0.97586 0.18258 0.0
C1388 C 0.47162 0.98338 0.15746 0.0
C1389 C 0.44828 0.97469 0.14674 0.0
C1390 C 0.43317 0.95768 0.16128 0.0
H1391 H 0.46683 0.95331 0.21566 0.0
O1392 O 0.40619 0.94447 0.26326 0.0
O1393 O 0.40307 0.93274 0.22267 0.0
O1394 O 0.43969 0.90222 0.25333 0.0
O1395 O 0.44934 0.90545 0.21171 0.0
C1396 C 0.43893 0.98284 0.1227 0.0
C1397 C 0.41449 0.97435 0.11404 0.0
H1398 H 0.36582 0.95527 0.10497 0.0
H1399 H 0.34203 0.9256 0.13423 0.0
H1400 H 0.49583 0.98304 0.1913 0.0
H1401 H 0.48405 0.99656 0.14701 0.0
H1402 H 0.45006 0.99615 0.11104 0.0
H1403 H 0.40722 0.98132 0.09587 0.0
Mn1404 Mn 0.11844 0.40713 0.24593 0.0
Mn1405 Mn 0.10523 0.42145 0.30732 0.0
C1406 C 0.11542 0.45043 0.2578 0.0
C1407 C 0.14821 0.3959 0.2142 0.0
C1408 C 0.06368 0.41093 0.26887 0.0
O1409 O 0.12385 0.3726 0.26394 0.0
O1410 O 0.10765 0.38385 0.30199 0.0
C1411 C 0.15613 0.40422 0.3258 0.0
N1412 N 0.13849 0.4231 0.32312 0.0
C1413 C 0.16738 0.45443 0.34201 0.0
C1414 C 0.1858 0.43533 0.34491 0.0
C1415 C 0.18009 0.41005 0.33688 0.0
C1416 C 0.14368 0.44729 0.33119 0.0
H1417 H 0.15205 0.38488 0.31955 0.0
C1418 C 0.11587 0.36705 0.28633 0.0
O1419 O 0.12402 0.38998 0.21187 0.0
O1420 O 0.15498 0.40826 0.23486 0.0
N1421 N 0.10263 0.45648 0.31674 0.0
C1422 C 0.08207 0.47196 0.31445 0.0
C1423 C 0.08515 0.49811 0.32002 0.0
C1424 C 0.10879 0.50742 0.32945 0.0
C1425 C 0.12849 0.49055 0.33481 0.0
C1426 C 0.12465 0.46489 0.32791 0.0
H1427 H 0.06427 0.46483 0.30635 0.0
O1428 O 0.11391 0.4433 0.23397 0.0
O1429 O 0.12047 0.43191 0.27421 0.0
O1430 O 0.079 0.40326 0.25116 0.0
O1431 O 0.07121 0.42021 0.29058 0.0
C1432 C 0.15229 0.49851 0.34519 0.0
C1433 C 0.17168 0.48035 0.34907 0.0
H1434 H 0.20439 0.43986 0.35321 0.0
H1435 H 0.19417 0.39513 0.33903 0.0
H1436 H 0.07015 0.51105 0.31479 0.0
H1437 H 0.11293 0.52756 0.33019 0.0
H1438 H 0.15584 0.5185 0.35027 0.0
H1439 H 0.18986 0.48655 0.35724 0.0
Mn1440 Mn 0.7371 0.60254 0.89543 0.0
Mn1441 Mn 0.79961 0.59558 0.90388 0.0
C1442 C 0.74859 0.59444 0.93859 0.0
C1443 C 0.7074 0.63554 0.88933 0.0
C1444 C 0.76328 0.55596 0.8804 0.0
O1445 O 0.75542 0.61082 0.86129 0.0
O1446 O 0.78798 0.62528 0.88338 0.0
C1447 C 0.80839 0.64347 0.93446 0.0
N1448 N 0.81148 0.61769 0.93161 0.0
C1449 C 0.83052 0.61687 0.97902 0.0
C1450 C 0.82314 0.6435 0.97993 0.0
C1451 C 0.8139 0.6561 0.9579 0.0
C1452 C 0.82154 0.60359 0.9506 0.0
H1453 H 0.80022 0.65454 0.91902 0.0
C1454 C 0.77724 0.62185 0.86168 0.0
O1455 O 0.7036 0.6127 0.87968 0.0
O1456 O 0.72871 0.63933 0.90166 0.0
N1457 N 0.81654 0.567 0.92066 0.0
C1458 C 0.82373 0.54506 0.90818 0.0
C1459 C 0.83966 0.52659 0.91941 0.0
C1460 C 0.85124 0.53005 0.94342 0.0
C1461 C 0.84834 0.55285 0.95693 0.0
C1462 C 0.82924 0.57436 0.94188 0.0
H1463 H 0.81756 0.54136 0.88873 0.0
O1464 O 0.72495 0.59472 0.93112 0.0
O1465 O 0.76536 0.59643 0.92006 0.0
O1466 O 0.74177 0.5653 0.88698 0.0
O1467 O 0.78425 0.56971 0.87859 0.0
C1468 C 0.86283 0.55533 0.986 0.0
C1469 C 0.85979 0.58412 0.00489 0.0
H1470 H 0.82534 0.65572 0.99667 0.0
H1471 H 0.80991 0.67646 0.9593 0.0
H1472 H 0.84348 0.50911 0.90878 0.0
H1473 H 0.86302 0.51495 0.95119 0.0
H1474 H 0.86332 0.56884 0.99845 0.0
H1475 H 0.86967 0.58837 0.02578 0.0
Mn1476 Mn 0.76323 0.40692 0.11122 0.0
Mn1477 Mn 0.70654 0.4352 0.09896 0.0
C1478 C 0.76162 0.45141 0.10801 0.0
C1479 C 0.79329 0.39176 0.1408 0.0
C1480 C 0.73797 0.40796 0.05816 0.0
O1481 O 0.73713 0.37789 0.11791 0.0
O1482 O 0.70085 0.40064 0.11427 0.0
C1483 C 0.68777 0.44204 0.15213 0.0
N1484 N 0.69371 0.45218 0.12874 0.0
C1485 C 0.67897 0.49398 0.14148 0.0
C1486 C 0.67249 0.48394 0.16566 0.0
C1487 C 0.677 0.45788 0.17104 0.0
C1488 C 0.68954 0.47724 0.12338 0.0
H1489 H 0.69121 0.42201 0.15628 0.0
C1490 C 0.71282 0.37993 0.11946 0.0
O1491 O 0.79309 0.38392 0.11705 0.0
O1492 O 0.77496 0.40683 0.14769 0.0
N1493 N 0.70879 0.46879 0.084 0.0
C1494 C 0.71767 0.4758 0.06035 0.0
C1495 C 0.71563 0.50152 0.05236 0.0
C1496 C 0.70406 0.51964 0.06855 0.0
C1497 C 0.6947 0.51188 0.09263 0.0
C1498 C 0.69729 0.48599 0.09956 0.0
H1499 H 0.72641 0.46193 0.04775 0.0
O1500 O 0.78302 0.43934 0.10573 0.0
O1501 O 0.74145 0.43715 0.11292 0.0
O1502 O 0.75757 0.40299 0.07199 0.0
O1503 O 0.71804 0.41882 0.06697 0.0
C1504 C 0.68358 0.52895 0.11034 0.0
C1505 C 0.67574 0.52002 0.13475 0.0
H1506 H 0.66424 0.49612 0.18033 0.0
H1507 H 0.67215 0.45002 0.18969 0.0
H1508 H 0.72294 0.50737 0.03377 0.0
H1509 H 0.70272 0.5395 0.06241 0.0
H1510 H 0.68136 0.5491 0.10555 0.0
H1511 H 0.66756 0.53342 0.14833 0.0
Mn1512 Mn 0.61414 0.75214 0.09856 0.0
Mn1513 Mn 0.59422 0.80908 0.07608 0.0
C1514 C 0.6075 0.75633 0.05458 0.0
C1515 C 0.64813 0.72638 0.111 0.0
C1516 C 0.55922 0.76985 0.10294 0.0
O1517 O 0.6196 0.77695 0.12868 0.0
O1518 O 0.61163 0.81503 0.10972 0.0
C1519 C 0.63927 0.84409 0.06973 0.0
N1520 N 0.61935 0.831 0.05851 0.0
C1521 C 0.62106 0.86663 0.02227 0.0
C1522 C 0.64128 0.87779 0.03595 0.0
C1523 C 0.65037 0.86644 0.05866 0.0
C1524 C 0.60983 0.83883 0.03584 0.0
H1525 H 0.64658 0.83783 0.08806 0.0
C1526 C 0.61903 0.80154 0.1289 0.0
O1527 O 0.6251 0.72207 0.11962 0.0
O1528 O 0.65141 0.74616 0.09615 0.0
N1529 N 0.57677 0.80428 0.04411 0.0
C1530 C 0.55556 0.78935 0.03986 0.0
C1531 C 0.54276 0.78922 0.0164 0.0
C1532 C 0.54963 0.80553 0.99632 0.0
C1533 C 0.56983 0.82471 0.99899 0.0
C1534 C 0.58631 0.81987 0.02609 0.0
H1535 H 0.54922 0.77554 0.05385 0.0
O1536 O 0.60866 0.73391 0.06536 0.0
O1537 O 0.61191 0.77627 0.06974 0.0
O1538 O 0.57493 0.75139 0.10509 0.0
O1539 O 0.56586 0.79173 0.09407 0.0
C1540 C 0.58605 0.86728 0.9766 0.0
C1541 C 0.61066 0.88076 0.99449 0.0
H1542 H 0.65032 0.89533 0.02898 0.0
H1543 H 0.66616 0.87584 0.06865 0.0
H1544 H 0.52685 0.77582 0.0137 0.0
H1545 H 0.53767 0.80281 0.97976 0.0
H1546 H 0.57998 0.87728 0.9592 0.0
H1547 H 0.61966 0.89849 0.98801 0.0
Mn1548 Mn 0.24919 0.59918 0.11398 0.0
Mn1549 Mn 0.30222 0.56698 0.09757 0.0
C1550 C 0.24771 0.55459 0.11111 0.0
C1551 C 0.22389 0.61514 0.1475 0.0
C1552 C 0.26969 0.59638 0.05912 0.0
O1553 O 0.27777 0.6266 0.11823 0.0
O1554 O 0.31189 0.60129 0.11179 0.0
C1555 C 0.32381 0.55951 0.14957 0.0
N1556 N 0.31509 0.54939 0.12696 0.0
C1557 C 0.32338 0.50624 0.14114 0.0
C1558 C 0.33262 0.5162 0.16453 0.0
C1559 C 0.33276 0.54295 0.16878 0.0
C1560 C 0.31462 0.52368 0.12276 0.0
H1561 H 0.32389 0.58006 0.15291 0.0
C1562 C 0.30197 0.62298 0.11757 0.0
O1563 O 0.2213 0.62361 0.12412 0.0
O1564 O 0.24221 0.59918 0.15141 0.0
N1565 N 0.29579 0.53339 0.08345 0.0
C1566 C 0.28661 0.52694 0.0597 0.0
C1567 C 0.28532 0.50089 0.05232 0.0
C1568 C 0.29381 0.4818 0.06929 0.0
C1569 C 0.30374 0.48896 0.09338 0.0
C1570 C 0.30469 0.51523 0.0996 0.0
H1571 H 0.28025 0.54153 0.0465 0.0
O1572 O 0.22683 0.56765 0.11034 0.0
O1573 O 0.26875 0.56799 0.11382 0.0
O1574 O 0.25153 0.60275 0.07433 0.0
O1575 O 0.28948 0.58407 0.06635 0.0
C1576 C 0.31277 0.47108 0.11146 0.0
C1577 C 0.32243 0.47969 0.13538 0.0
H1578 H 0.33957 0.50349 0.17939 0.0
H1579 H 0.33977 0.55078 0.18682 0.0
H1580 H 0.27778 0.49553 0.03363 0.0
H1581 H 0.29266 0.46173 0.06362 0.0
H1582 H 0.31229 0.45064 0.10719 0.0
H1583 H 0.32912 0.46574 0.14919 0.0
Mn1584 Mn 0.40103 0.25158 0.10434 0.0
Mn1585 Mn 0.42355 0.19096 0.10379 0.0
C1586 C 0.40866 0.23207 0.06424 0.0
C1587 C 0.36846 0.28219 0.10743 0.0
C1588 C 0.45796 0.23729 0.10758 0.0
O1589 O 0.39416 0.24058 0.14159 0.0
O1590 O 0.41431 0.20348 0.13799 0.0
C1591 C 0.37236 0.16938 0.11692 0.0
N1592 N 0.39456 0.16817 0.10332 0.0
C1593 C 0.3839 0.1258 0.08769 0.0
C1594 C 0.3609 0.12641 0.1016 0.0
C1595 C 0.35489 0.14854 0.11588 0.0
C1596 C 0.39977 0.14777 0.08832 0.0
H1597 H 0.36814 0.18607 0.12851 0.0
C1598 C 0.40341 0.22045 0.1514 0.0
O1599 O 0.39192 0.28747 0.114 0.0
O1600 O 0.36374 0.25896 0.0991 0.0
N1601 N 0.43537 0.17194 0.07488 0.0
C1602 C 0.45934 0.17358 0.06448 0.0
C1603 C 0.4697 0.1522 0.0518 0.0
C1604 C 0.45554 0.12902 0.05016 0.0
C1605 C 0.43123 0.12734 0.06153 0.0
C1606 C 0.42212 0.14917 0.07439 0.0
H1607 H 0.47091 0.19076 0.06661 0.0
O1608 O 0.40758 0.25676 0.06745 0.0
O1609 O 0.40381 0.21801 0.08483 0.0
O1610 O 0.44019 0.2536 0.11091 0.0
O1611 O 0.45396 0.21334 0.10368 0.0
C1612 C 0.41583 0.10477 0.06094 0.0
C1613 C 0.39194 0.10417 0.07362 0.0
H1614 H 0.34778 0.11002 0.1015 0.0
H1615 H 0.33707 0.14935 0.12641 0.0
H1616 H 0.48867 0.15355 0.04347 0.0
H1617 H 0.46354 0.11265 0.04023 0.0
H1618 H 0.42219 0.08779 0.0508 0.0
H1619 H 0.38019 0.08678 0.07291 0.0
Mn1620 Mn 0.25815 0.38791 0.90511 0.0
Mn1621 Mn 0.20141 0.40778 0.92847 0.0
C1622 C 0.25371 0.39442 0.94888 0.0
C1623 C 0.28483 0.3539 0.8939 0.0
C1624 C 0.24036 0.4434 0.90235 0.0
O1625 O 0.23354 0.38194 0.87503 0.0
O1626 O 0.19597 0.39186 0.89388 0.0
C1627 C 0.16758 0.36155 0.93233 0.0
N1628 N 0.1797 0.38153 0.94455 0.0
C1629 C 0.14386 0.37722 0.98009 0.0
C1630 C 0.13353 0.35724 0.96533 0.0
C1631 C 0.14546 0.34935 0.94249 0.0
C1632 C 0.17133 0.38991 0.96751 0.0
H1633 H 0.1745 0.35501 0.91395 0.0
C1634 C 0.20914 0.38371 0.87477 0.0
O1635 O 0.28872 0.37691 0.8847 0.0
O1636 O 0.26467 0.35053 0.90804 0.0
N1637 N 0.20543 0.42399 0.9615 0.0
C1638 C 0.21967 0.44546 0.96712 0.0
C1639 C 0.21882 0.45743 0.99121 0.0
C1640 C 0.20209 0.44951 0.01065 0.0
C1641 C 0.18389 0.42867 0.00658 0.0
C1642 C 0.18957 0.41348 0.9787 0.0
H1643 H 0.23358 0.45272 0.95364 0.0
O1644 O 0.2761 0.39387 0.93823 0.0
O1645 O 0.23397 0.38978 0.93381 0.0
O1646 O 0.25827 0.42737 0.89843 0.0
O1647 O 0.21902 0.43688 0.91226 0.0
C1648 C 0.14145 0.40967 0.02757 0.0
C1649 C 0.12917 0.38558 0.0082 0.0
H1650 H 0.11625 0.34735 0.97164 0.0
H1651 H 0.13677 0.33361 0.93171 0.0
H1652 H 0.23165 0.47365 0.99485 0.0
H1653 H 0.20345 0.46104 0.02794 0.0
H1654 H 0.13106 0.41444 0.04515 0.0
H1655 H 0.11176 0.37561 0.01395 0.0
Mn1656 Mn 0.60079 0.24818 0.8916 0.0
Mn1657 Mn 0.56822 0.29934 0.91349 0.0
C1658 C 0.55699 0.24405 0.8982 0.0
C1659 C 0.6171 0.22565 0.85633 0.0
C1660 C 0.60208 0.26638 0.9474 0.0
O1661 O 0.6261 0.27805 0.88693 0.0
O1662 O 0.60068 0.31126 0.89695 0.0
C1663 C 0.55531 0.32403 0.86408 0.0
N1664 N 0.5477 0.31371 0.88691 0.0
C1665 C 0.50367 0.32382 0.87852 0.0
C1666 C 0.51103 0.33473 0.85496 0.0
C1667 C 0.53696 0.33476 0.84769 0.0
C1668 C 0.52283 0.31357 0.89412 0.0
H1669 H 0.57523 0.32408 0.85847 0.0
C1670 C 0.62197 0.3021 0.88908 0.0
O1671 O 0.6266 0.22294 0.87928 0.0
O1672 O 0.59896 0.24218 0.85381 0.0
N1673 N 0.53647 0.29092 0.93004 0.0
C1674 C 0.53237 0.27803 0.9525 0.0
C1675 C 0.50729 0.27521 0.96195 0.0
C1676 C 0.48676 0.286 0.94845 0.0
C1677 C 0.49149 0.29946 0.92556 0.0
C1678 C 0.51689 0.30165 0.91707 0.0
H1679 H 0.54809 0.26978 0.963 0.0
O1680 O 0.57128 0.22394 0.89648 0.0
O1681 O 0.56868 0.26625 0.89523 0.0
O1682 O 0.60753 0.24904 0.93085 0.0
O1683 O 0.58839 0.28591 0.94236 0.0
C1684 C 0.47194 0.31014 0.91042 0.0
C1685 C 0.47802 0.3223 0.88692 0.0
H1686 H 0.49692 0.34292 0.8422 0.0
H1687 H 0.54277 0.34304 0.82949 0.0
H1688 H 0.50376 0.26469 0.97956 0.0
H1689 H 0.46742 0.28358 0.95569 0.0
H1690 H 0.45211 0.30869 0.91646 0.0
H1691 H 0.46278 0.33009 0.87528 0.0
Mn1692 Mn 0.39976 0.76133 0.89065 0.0
Mn1693 Mn 0.43495 0.71121 0.91042 0.0
C1694 C 0.44425 0.76465 0.88801 0.0
C1695 C 0.38002 0.78383 0.85724 0.0
C1696 C 0.40547 0.74606 0.94677 0.0
O1697 O 0.37395 0.73105 0.89025 0.0
O1698 O 0.40126 0.69856 0.89779 0.0
C1699 C 0.44319 0.68089 0.86297 0.0
N1700 N 0.45276 0.69341 0.88399 0.0
C1701 C 0.49528 0.67831 0.87553 0.0
C1702 C 0.48587 0.6651 0.85384 0.0
C1703 C 0.45973 0.6665 0.84748 0.0
C1704 C 0.47784 0.6921 0.89038 0.0
H1705 H 0.42309 0.68187 0.85815 0.0
C1706 C 0.37909 0.70705 0.89184 0.0
O1707 O 0.37348 0.78752 0.88106 0.0
O1708 O 0.39625 0.76574 0.85294 0.0
N1709 N 0.46802 0.72112 0.92291 0.0
C1710 C 0.47438 0.738 0.94206 0.0
C1711 C 0.50013 0.74081 0.94949 0.0
C1712 C 0.51888 0.72605 0.93729 0.0
C1713 C 0.5119 0.70895 0.9175 0.0
C1714 C 0.48598 0.70705 0.91089 0.0
H1715 H 0.45991 0.7492 0.95155 0.0
O1716 O 0.43017 0.78492 0.88967 0.0
O1717 O 0.43193 0.74257 0.88928 0.0
O1718 O 0.39842 0.76299 0.93058 0.0
O1719 O 0.4181 0.72634 0.94038 0.0
C1720 C 0.5297 0.69436 0.90352 0.0
C1721 C 0.52139 0.67904 0.88254 0.0
H1722 H 0.49859 0.65415 0.84172 0.0
H1723 H 0.45236 0.65647 0.83069 0.0
H1724 H 0.50551 0.75421 0.96462 0.0
H1725 H 0.53861 0.72827 0.94302 0.0
H1726 H 0.5499 0.6953 0.9083 0.0
H1727 H 0.53534 0.66845 0.87152 0.0
C1728 C 0.14041 0.33293 0.3082 0.0
C1729 C 0.11748 0.3407 0.29658 0.0
H1730 H 0.15734 0.31074 0.33845 0.0
C1731 C 0.0946 0.32744 0.30258 0.0
H1732 H 0.15826 0.343 0.30407 0.0
C1733 C 0.09425 0.30839 0.32158 0.0
C1734 C 0.11665 0.30287 0.33532 0.0
H1735 H 0.07661 0.3335 0.29432 0.0
H1736 H 0.07603 0.29993 0.32733 0.0
C1737 C 0.13991 0.31452 0.32786 0.0
C1738 C 0.67275 0.13125 0.35827 0.0
C1739 C 0.69696 0.12465 0.34872 0.0
H1740 H 0.63254 0.13417 0.35059 0.0
C1741 C 0.69929 0.11876 0.32241 0.0
H1742 H 0.67025 0.13577 0.37844 0.0
C1743 C 0.6777 0.11816 0.30632 0.0
C1744 C 0.6532 0.12296 0.31629 0.0
H1745 H 0.71767 0.11358 0.31444 0.0
H1746 H 0.68002 0.11245 0.28643 0.0
C1747 C 0.6511 0.13019 0.34231 0.0
C1748 C 0.89173 0.69729 0.32649 0.0
C1749 C 0.88254 0.69027 0.35097 0.0
H1750 H 0.90038 0.68425 0.28814 0.0
C1751 C 0.87063 0.66603 0.35401 0.0
H1752 H 0.90117 0.7158 0.32365 0.0
C1753 C 0.87009 0.64826 0.33394 0.0
C1754 C 0.88151 0.65414 0.31021 0.0
H1755 H 0.86313 0.66009 0.37247 0.0
H1756 H 0.86226 0.62917 0.33762 0.0
C1757 C 0.89124 0.67926 0.30617 0.0
C1758 C 0.35111 0.88181 0.32404 0.0
C1759 C 0.34613 0.89237 0.29961 0.0
H1760 H 0.33604 0.872 0.36133 0.0
C1761 C 0.32077 0.8984 0.29333 0.0
H1762 H 0.37044 0.87677 0.32946 0.0
C1763 C 0.30114 0.89535 0.3114 0.0
C1764 C 0.30626 0.88626 0.33635 0.0
H1765 H 0.31613 0.90628 0.27466 0.0
H1766 H 0.28204 0.90129 0.30611 0.0
C1767 C 0.33137 0.87881 0.34226 0.0
C1768 C 0.12591 0.6523 0.68816 0.0
C1769 C 0.11437 0.65821 0.71189 0.0
H1770 H 0.13752 0.66604 0.65094 0.0
C1771 C 0.10827 0.68394 0.71707 0.0
H1772 H 0.13105 0.63268 0.68361 0.0
C1773 C 0.11228 0.70305 0.69851 0.0
C1774 C 0.12243 0.69695 0.67421 0.0
H1775 H 0.09962 0.68925 0.73521 0.0
H1776 H 0.10627 0.72246 0.70284 0.0
C1777 C 0.12988 0.67147 0.6695 0.0
C1778 C 0.2974 0.11371 0.67478 0.0
C1779 C 0.30649 0.12077 0.65035 0.0
H1780 H 0.30703 0.10739 0.71441 0.0
C1781 C 0.33163 0.13057 0.64803 0.0
H1782 H 0.27815 0.10594 0.67706 0.0
C1783 C 0.34784 0.13199 0.66929 0.0
C1784 C 0.33957 0.12294 0.69331 0.0
H1785 H 0.33927 0.13616 0.62954 0.0
H1786 H 0.36744 0.13856 0.66642 0.0
C1787 C 0.31394 0.11451 0.69609 0.0
C1788 C 0.88942 0.30746 0.692 0.0
C1789 C 0.88159 0.30945 0.66621 0.0
H1790 H 0.89804 0.32728 0.72727 0.0
C1791 C 0.87432 0.33372 0.65694 0.0
H1792 H 0.8953 0.2891 0.6997 0.0
C1793 C 0.87648 0.35573 0.67255 0.0
C1794 C 0.88541 0.35394 0.698 0.0
H1795 H 0.86844 0.33602 0.63711 0.0
H1796 H 0.87187 0.37429 0.66443 0.0
C1797 C 0.89102 0.32939 0.70779 0.0
C1798 C 0.67398 0.87074 0.66123 0.0
C1799 C 0.69886 0.88159 0.66281 0.0
H1800 H 0.63733 0.86569 0.67904 0.0
C1801 C 0.70639 0.89395 0.68573 0.0
H1802 H 0.66752 0.86096 0.64392 0.0
C1803 C 0.68886 0.89676 0.70596 0.0
C1804 C 0.66352 0.88721 0.70364 0.0
H1805 H 0.7253 0.90267 0.6875 0.0
H1806 H 0.69488 0.90729 0.72298 0.0
C1807 C 0.65657 0.8735 0.68137 0.0
C1808 C 0.34901 0.12951 0.33551 0.0
C1809 C 0.34262 0.11933 0.31128 0.0
H1810 H 0.33575 0.13971 0.37303 0.0
C1811 C 0.31679 0.11333 0.30579 0.0
H1812 H 0.3687 0.13446 0.34025 0.0
C1813 C 0.2979 0.11641 0.32447 0.0
C1814 C 0.3044 0.12552 0.3491 0.0
H1815 H 0.31119 0.10562 0.28721 0.0
H1816 H 0.27834 0.1108 0.31985 0.0
C1817 C 0.33008 0.13259 0.35424 0.0
C1818 C 0.87515 0.33432 0.34642 0.0
C1819 C 0.88287 0.30896 0.34131 0.0
H1820 H 0.87211 0.37295 0.33192 0.0
C1821 C 0.89006 0.30245 0.31614 0.0
H1822 H 0.86959 0.33994 0.36566 0.0
C1823 C 0.89157 0.32119 0.29703 0.0
C1824 C 0.88588 0.34698 0.30252 0.0
H1825 H 0.8959 0.28306 0.31146 0.0
H1826 H 0.89848 0.31566 0.27821 0.0
C1827 C 0.87662 0.35322 0.32712 0.0
C1828 C 0.69388 0.87448 0.33881 0.0
C1829 C 0.69628 0.89653 0.35447 0.0
H1830 H 0.67204 0.8557 0.30863 0.0
C1831 C 0.6809 0.91785 0.34951 0.0
H1832 H 0.7055 0.85778 0.34247 0.0
C1833 C 0.66205 0.9166 0.33075 0.0
C1834 C 0.65816 0.89405 0.31634 0.0
H1835 H 0.68258 0.93516 0.36115 0.0
H1836 H 0.64969 0.93301 0.32822 0.0
C1837 C 0.6748 0.87326 0.31965 0.0
C1838 C 0.11139 0.68932 0.29847 0.0
C1839 C 0.12493 0.66706 0.30477 0.0
H1840 H 0.09907 0.72645 0.31121 0.0
C1841 C 0.14077 0.66739 0.32666 0.0
H1842 H 0.09875 0.68942 0.28193 0.0
C1843 C 0.14091 0.68842 0.34346 0.0
C1844 C 0.12505 0.7095 0.33881 0.0
H1845 H 0.15134 0.6504 0.33198 0.0
H1846 H 0.15183 0.68717 0.36112 0.0
C1847 C 0.11142 0.71042 0.31542 0.0
C1848 C 0.357 0.88444 0.66088 0.0
C1849 C 0.35486 0.88977 0.68733 0.0
H1850 H 0.33758 0.87958 0.62476 0.0
C1851 C 0.3302 0.89273 0.69777 0.0
H1852 H 0.37565 0.8819 0.6522 0.0
C1853 C 0.3084 0.89172 0.68197 0.0
C1854 C 0.31062 0.88715 0.65541 0.0
H1855 H 0.32777 0.89691 0.71802 0.0
H1856 H 0.28983 0.8952 0.69046 0.0
C1857 C 0.33513 0.8829 0.64517 0.0
C1858 C 0.12989 0.36326 0.66063 0.0
C1859 C 0.12239 0.35577 0.68546 0.0
H1860 H 0.13358 0.35266 0.62127 0.0
C1861 C 0.11639 0.32967 0.6901 0.0
H1862 H 0.135 0.38313 0.65647 0.0
C1863 C 0.11563 0.31193 0.66964 0.0
C1864 C 0.12082 0.3202 0.64441 0.0
H1865 H 0.11051 0.32338 0.70907 0.0
H1866 H 0.10921 0.29233 0.67326 0.0
C1867 C 0.12908 0.34574 0.64039 0.0
C1868 C 0.68199 0.12461 0.66271 0.0
C1869 C 0.70598 0.1142 0.66862 0.0
H1870 H 0.64336 0.13068 0.67507 0.0
C1871 C 0.7097 0.10362 0.69322 0.0
H1872 H 0.67841 0.13274 0.64392 0.0
C1873 C 0.68964 0.10235 0.71103 0.0
C1874 C 0.66528 0.11154 0.70467 0.0
H1875 H 0.72793 0.0954 0.69845 0.0
H1876 H 0.69302 0.09336 0.72947 0.0
C1877 C 0.66185 0.12325 0.68053 0.0
C1878 C 0.87772 0.66977 0.65385 0.0
C1879 C 0.88573 0.69572 0.65638 0.0
H1880 H 0.87323 0.63293 0.672 0.0
C1881 C 0.89332 0.70475 0.68077 0.0
H1882 H 0.87173 0.66212 0.63536 0.0
C1883 C 0.89432 0.68792 0.70173 0.0
C1884 C 0.88764 0.6617 0.69885 0.0
H1885 H 0.89968 0.72454 0.68346 0.0
H1886 H 0.90118 0.69533 0.72002 0.0
C1887 C 0.87863 0.65298 0.67485 0.0
C1888 C 0.30557 0.31713 0.09835 0.0
C1889 C 0.31116 0.34138 0.10939 0.0
H1890 H 0.31912 0.27938 0.0892 0.0
C1891 C 0.33532 0.34552 0.12075 0.0
H1892 H 0.28712 0.31328 0.08945 0.0
C1893 C 0.35371 0.32615 0.12042 0.0
C1894 C 0.34834 0.3021 0.1089 0.0
H1895 H 0.34028 0.36394 0.1294 0.0
H1896 H 0.37229 0.33018 0.12896 0.0
C1897 C 0.32391 0.29768 0.09819 0.0
C1898 C 0.36606 0.66211 0.88096 0.0
C1899 C 0.35879 0.68728 0.88735 0.0
H1900 H 0.35481 0.62271 0.87676 0.0
C1901 C 0.33272 0.6922 0.89166 0.0
H1902 H 0.38587 0.65764 0.87705 0.0
C1903 C 0.31463 0.67183 0.89148 0.0
C1904 C 0.32247 0.64637 0.88698 0.0
H1905 H 0.32655 0.71142 0.89656 0.0
H1906 H 0.2949 0.67579 0.89629 0.0
C1907 C 0.34818 0.64198 0.88077 0.0
C1908 C 0.29789 0.30854 0.90126 0.0
C1909 C 0.30396 0.33321 0.89176 0.0
H1910 H 0.31143 0.27144 0.91182 0.0
C1911 C 0.32916 0.33845 0.88351 0.0
H1912 H 0.27866 0.30381 0.90773 0.0
C1913 C 0.34816 0.31975 0.88599 0.0
C1914 C 0.34224 0.29553 0.89675 0.0
H1915 H 0.33447 0.35733 0.87624 0.0
H1916 H 0.36761 0.32457 0.8803 0.0
C1917 C 0.31675 0.28997 0.90372 0.0
C1918 C 0.66902 0.31379 0.8877 0.0
C1919 C 0.64324 0.3207 0.88426 0.0
H1920 H 0.70801 0.32715 0.89207 0.0
C1921 C 0.63764 0.34649 0.87901 0.0
H1922 H 0.67392 0.29402 0.89179 0.0
C1923 C 0.65701 0.36525 0.87903 0.0
C1924 C 0.68254 0.35883 0.88451 0.0
H1925 H 0.61807 0.35241 0.87589 0.0
H1926 H 0.65168 0.38508 0.87583 0.0
C1927 C 0.68855 0.33274 0.88787 0.0
C1928 C 0.69251 0.67983 0.90014 0.0
C1929 C 0.68777 0.65592 0.88815 0.0
H1930 H 0.67772 0.71637 0.91119 0.0
C1931 C 0.6637 0.65136 0.87662 0.0
H1932 H 0.71081 0.68405 0.90918 0.0
C1933 C 0.64457 0.67007 0.87776 0.0
C1934 C 0.64914 0.69364 0.8905 0.0
H1935 H 0.65943 0.63313 0.86725 0.0
H1936 H 0.62605 0.66582 0.86919 0.0
C1937 C 0.67346 0.6984 0.90133 0.0
C1938 C 0.69375 0.71418 0.10566 0.0
C1939 C 0.66918 0.70809 0.11503 0.0
H1940 H 0.73092 0.7005 0.09611 0.0
C1941 C 0.66441 0.68339 0.12518 0.0
H1942 H 0.69813 0.7331 0.09792 0.0
C1943 C 0.68336 0.66458 0.12415 0.0
C1944 C 0.70729 0.67022 0.11294 0.0
H1945 H 0.64565 0.67815 0.13256 0.0
H1946 H 0.67875 0.64529 0.13078 0.0
C1947 C 0.71258 0.69546 0.10461 0.0
C1948 C 0.33294 0.68998 0.1153 0.0
C1949 C 0.35884 0.68388 0.11926 0.0
H1950 H 0.29421 0.67538 0.1117 0.0
C1951 C 0.36486 0.6586 0.12636 0.0
H1952 H 0.3277 0.70931 0.1098 0.0
C1953 C 0.34592 0.63946 0.12768 0.0
C1954 C 0.32029 0.64487 0.1217 0.0
H1955 H 0.38452 0.65325 0.12995 0.0
H1956 H 0.35166 0.62002 0.13221 0.0
C1957 C 0.31377 0.67057 0.11645 0.0
C1958 C 0.70242 0.33259 0.11541 0.0
C1959 C 0.69663 0.35708 0.12531 0.0
H1960 H 0.68758 0.29506 0.10501 0.0
C1961 C 0.67267 0.36078 0.13683 0.0
H1962 H 0.72073 0.32927 0.10631 0.0
C1963 C 0.65391 0.34146 0.13602 0.0
C1964 C 0.65866 0.31791 0.12375 0.0
H1965 H 0.66775 0.37932 0.1449 0.0
H1966 H 0.63507 0.34564 0.1435 0.0
C1967 C 0.68348 0.31305 0.11465 0.0
C1968 C 0.6403 0.83643 0.82324 0.0
C1969 C 0.61821 0.84004 0.80826 0.0
H1970 H 0.6569 0.81677 0.85539 0.0
C1971 C 0.59759 0.82256 0.81078 0.0
H1972 H 0.65666 0.84934 0.82142 0.0
C1973 C 0.59827 0.80309 0.82937 0.0
C1974 C 0.6192 0.80145 0.84634 0.0
H1975 H 0.58016 0.82524 0.79983 0.0
H1976 H 0.58142 0.79094 0.83206 0.0
C1977 C 0.64057 0.81769 0.84256 0.0
C1978 C 0.18476 0.63463 0.8508 0.0
C1979 C 0.20655 0.62134 0.84272 0.0
H1980 H 0.1452 0.64233 0.84393 0.0
C1981 C 0.20628 0.60959 0.81825 0.0
H1982 H 0.18431 0.64402 0.86941 0.0
C1983 C 0.18379 0.60891 0.80341 0.0
C1984 C 0.16126 0.61977 0.81297 0.0
H1985 H 0.22281 0.59925 0.81142 0.0
H1986 H 0.18343 0.59788 0.7857 0.0
C1987 C 0.16232 0.63369 0.83617 0.0
C1988 C 0.40361 0.17635 0.80707 0.0
C1989 C 0.3843 0.15722 0.80565 0.0
H1990 H 0.42006 0.20727 0.82951 0.0
C1991 C 0.36371 0.15803 0.82286 0.0
H1992 H 0.41991 0.17574 0.79422 0.0
C1993 C 0.36347 0.17643 0.84252 0.0
C1994 C 0.38413 0.19384 0.8457 0.0
H1995 H 0.34876 0.14331 0.82222 0.0
H1996 H 0.34818 0.17553 0.85649 0.0
C1997 C 0.40361 0.19448 0.82712 0.0
C1998 C 0.84529 0.37104 0.8318 0.0
C1999 C 0.84115 0.38015 0.80673 0.0
H2000 H 0.82895 0.36447 0.86916 0.0
C2001 C 0.81601 0.38539 0.79888 0.0
H2002 H 0.86448 0.36681 0.83835 0.0
C2003 C 0.7958 0.38387 0.81632 0.0
C2004 C 0.80022 0.3772 0.84208 0.0
H2005 H 0.81212 0.3921 0.77958 0.0
H2006 H 0.77695 0.38962 0.80998 0.0
C2007 C 0.82493 0.3696 0.84941 0.0
C2008 C 0.61861 0.21103 0.19105 0.0
C2009 C 0.62765 0.20523 0.16629 0.0
H2010 H 0.60886 0.19697 0.2284 0.0
C2011 C 0.63693 0.18039 0.16146 0.0
H2012 H 0.61147 0.23 0.19552 0.0
C2013 C 0.63544 0.16127 0.18051 0.0
C2014 C 0.62461 0.16672 0.20465 0.0
H2015 H 0.64393 0.1753 0.14256 0.0
H2016 H 0.64142 0.14194 0.17585 0.0
C2017 C 0.61708 0.19204 0.20995 0.0
C2018 C 0.81983 0.62052 0.19088 0.0
C2019 C 0.84589 0.62758 0.18978 0.0
H2020 H 0.78516 0.61329 0.16975 0.0
C2021 C 0.85644 0.63515 0.16605 0.0
H2022 H 0.8112 0.61451 0.20887 0.0
C2023 C 0.84174 0.63386 0.14359 0.0
C2024 C 0.81601 0.62558 0.14447 0.0
H2025 H 0.87652 0.64053 0.16452 0.0
H2026 H 0.85076 0.63855 0.12541 0.0
C2027 C 0.80494 0.61982 0.16847 0.0
C2028 C 0.39682 0.7993 0.19092 0.0
C2029 C 0.3839 0.79978 0.16709 0.0
H2030 H 0.40983 0.8212 0.22376 0.0
C2031 C 0.37008 0.82184 0.16062 0.0
H2032 H 0.40765 0.78259 0.19651 0.0
C2033 C 0.37147 0.84383 0.17613 0.0
C2034 C 0.38637 0.84419 0.19866 0.0
H2035 H 0.35983 0.82289 0.14254 0.0
H2036 H 0.36234 0.86121 0.16952 0.0
C2037 C 0.39797 0.82135 0.20665 0.0
C2038 C 0.21131 0.39109 0.17825 0.0
C2039 C 0.20347 0.38053 0.15454 0.0
H2040 H 0.20005 0.40428 0.21555 0.0
C2041 C 0.17745 0.37366 0.15121 0.0
H2042 H 0.23113 0.39671 0.18149 0.0
C2043 C 0.15958 0.37805 0.17076 0.0
C2044 C 0.16729 0.3895 0.19408 0.0
H2045 H 0.17071 0.3655 0.1332 0.0
H2046 H 0.13964 0.37306 0.16733 0.0
C2047 C 0.19342 0.39556 0.19775 0.0
C2048 C 0.79828 0.59772 0.82594 0.0
C2049 C 0.7936 0.62127 0.8384 0.0
H2050 H 0.8238 0.5766 0.80166 0.0
C2051 C 0.80768 0.64323 0.83083 0.0
H2052 H 0.78749 0.5805 0.83102 0.0
C2053 C 0.82717 0.6413 0.81238 0.0
C2054 C 0.83403 0.61711 0.80253 0.0
H2055 H 0.80438 0.66164 0.84001 0.0
H2056 H 0.83842 0.65836 0.8077 0.0
C2057 C 0.8188 0.5955 0.80876 0.0
C2058 C 0.38212 0.81552 0.7924 0.0
C2059 C 0.37688 0.84125 0.79867 0.0
H2060 H 0.38644 0.77701 0.80592 0.0
C2061 C 0.36771 0.8469 0.82343 0.0
H2062 H 0.38894 0.81046 0.77341 0.0
C2063 C 0.36625 0.82755 0.84224 0.0
C2064 C 0.3739 0.80229 0.8365 0.0
H2065 H 0.36352 0.86656 0.82882 0.0
H2066 H 0.36109 0.83282 0.86169 0.0
C2067 C 0.3806 0.79629 0.81105 0.0
C2068 C 0.20555 0.38404 0.82664 0.0
C2069 C 0.19505 0.37763 0.85071 0.0
H2070 H 0.19836 0.38955 0.78639 0.0
C2071 C 0.16979 0.36794 0.85179 0.0
H2072 H 0.22494 0.39167 0.82524 0.0
C2073 C 0.15485 0.36606 0.82954 0.0
C2074 C 0.16458 0.37451 0.80578 0.0
H2075 H 0.16119 0.36273 0.87001 0.0
H2076 H 0.13505 0.35973 0.83135 0.0
C2077 C 0.19034 0.38279 0.80439 0.0
C2078 C 0.64094 0.16674 0.82214 0.0
C2079 C 0.62473 0.16593 0.80051 0.0
H2080 H 0.65149 0.18655 0.85678 0.0
C2081 C 0.61034 0.1877 0.79453 0.0
H2082 H 0.6521 0.15008 0.82725 0.0
C2083 C 0.60973 0.20857 0.81168 0.0
C2084 C 0.62355 0.20791 0.83498 0.0
H2085 H 0.59739 0.1874 0.77822 0.0
H2086 H 0.59671 0.22412 0.80774 0.0
C2087 C 0.6404 0.18756 0.83921 0.0
C2088 C 0.86161 0.38319 0.16328 0.0
C2089 C 0.85982 0.38951 0.18953 0.0
H2090 H 0.84183 0.37811 0.12743 0.0
C2091 C 0.8354 0.39334 0.20016 0.0
H2092 H 0.88011 0.37994 0.15453 0.0
C2093 C 0.8135 0.39261 0.18455 0.0
C2094 C 0.81546 0.38749 0.15807 0.0
H2095 H 0.83331 0.39829 0.22028 0.0
H2096 H 0.79514 0.39704 0.19304 0.0
C2097 C 0.83964 0.38193 0.14778 0.0
C2098 C 0.63664 0.85564 0.17479 0.0
C2099 C 0.62961 0.84495 0.19861 0.0
H2100 H 0.63851 0.85037 0.13403 0.0
C2101 C 0.6223 0.81878 0.19963 0.0
H2102 H 0.64223 0.87577 0.17328 0.0
C2103 C 0.62054 0.80406 0.17706 0.0
C2104 C 0.62552 0.81541 0.15303 0.0
H2105 H 0.6167 0.81003 0.2177 0.0
H2106 H 0.61367 0.78429 0.1783 0.0
C2107 C 0.63433 0.84112 0.15222 0.0
C2108 C 0.18986 0.60903 0.21131 0.0
C2109 C 0.16508 0.61718 0.20519 0.0
H2110 H 0.22798 0.60264 0.19808 0.0
C2111 C 0.16072 0.62797 0.18077 0.0
H2112 H 0.19395 0.60082 0.22997 0.0
C2113 C 0.18037 0.62914 0.16237 0.0
C2114 C 0.20473 0.61951 0.16806 0.0
H2115 H 0.14186 0.63458 0.17547 0.0
H2116 H 0.17607 0.63628 0.14333 0.0
C2117 C 0.20942 0.6102 0.193 0.0
C2118 C 0.37665 0.20445 0.18758 0.0
C2119 C 0.40047 0.21382 0.1788 0.0
H2120 H 0.35724 0.17604 0.21073 0.0
C2121 C 0.42275 0.20653 0.19195 0.0
H2122 H 0.35923 0.20931 0.17744 0.0
C2123 C 0.42172 0.18698 0.21035 0.0
C2124 C 0.3983 0.17485 0.21637 0.0
H2125 H 0.44139 0.21318 0.18531 0.0
H2126 H 0.43952 0.17923 0.21749 0.0
C2127 C 0.37556 0.18518 0.2065 0.0
C2128 C 0.85439 0.82619 0.63195 0.0
C2129 C 0.85082 0.80248 0.61916 0.0
H2130 H 0.83759 0.86194 0.64344 0.0
C2131 C 0.82611 0.79563 0.6105 0.0
H2132 H 0.87316 0.83198 0.63897 0.0
C2133 C 0.80573 0.81254 0.61339 0.0
C2134 C 0.80952 0.8369 0.62483 0.0
H2135 H 0.8226 0.7774 0.60082 0.0
H2136 H 0.78723 0.80693 0.60554 0.0
C2137 C 0.83396 0.84329 0.63466 0.0
C2138 C 0.85694 0.17312 0.37061 0.0
C2139 C 0.85285 0.19634 0.38371 0.0
H2140 H 0.84237 0.13573 0.361 0.0
C2141 C 0.82837 0.20117 0.39376 0.0
H2142 H 0.8755 0.16898 0.36242 0.0
C2143 C 0.80916 0.18184 0.39307 0.0
C2144 C 0.81433 0.15763 0.3822 0.0
H2145 H 0.82478 0.21891 0.40406 0.0
H2146 H 0.79124 0.18504 0.40296 0.0
C2147 C 0.83789 0.15407 0.36976 0.0
C2148 C 0.79632 0.8154 0.3991 0.0
C2149 C 0.80238 0.84031 0.3902 0.0
H2150 H 0.80941 0.77727 0.40625 0.0
C2151 C 0.82644 0.84481 0.37878 0.0
H2152 H 0.7779 0.8112 0.40785 0.0
C2153 C 0.84463 0.8252 0.37784 0.0
C2154 C 0.83906 0.80077 0.38829 0.0
H2155 H 0.83169 0.86378 0.37172 0.0
H2156 H 0.86346 0.82959 0.37012 0.0
C2157 C 0.81441 0.79589 0.39816 0.0
C2158 C 0.17544 0.81465 0.39159 0.0
C2159 C 0.14953 0.82103 0.3882 0.0
H2160 H 0.21446 0.82873 0.39322 0.0
C2161 C 0.14366 0.84592 0.3798 0.0
H2162 H 0.18055 0.79556 0.39797 0.0
C2163 C 0.16286 0.86455 0.37664 0.0
C2164 C 0.18857 0.85903 0.38217 0.0
H2165 H 0.12399 0.8514 0.37655 0.0
H2166 H 0.15729 0.88381 0.37118 0.0
C2167 C 0.19486 0.83359 0.38872 0.0
C2168 C 0.17221 0.15297 0.37217 0.0
C2169 C 0.19624 0.15798 0.38358 0.0
H2170 H 0.13562 0.16814 0.36169 0.0
C2171 C 0.20285 0.18339 0.39044 0.0
H2172 H 0.16667 0.13356 0.36653 0.0
C2173 C 0.18535 0.20316 0.38723 0.0
C2174 C 0.16068 0.19797 0.37739 0.0
H2175 H 0.22134 0.18794 0.39894 0.0
H2176 H 0.19081 0.22234 0.39371 0.0
C2177 C 0.1545 0.17279 0.36923 0.0
C2178 C 0.17428 0.16427 0.62322 0.0
C2179 C 0.19866 0.16924 0.61256 0.0
H2180 H 0.1365 0.17862 0.63027 0.0
C2181 C 0.20435 0.19409 0.60342 0.0
H2182 H 0.16931 0.14529 0.63044 0.0
C2183 C 0.18569 0.21305 0.60338 0.0
C2184 C 0.16079 0.20769 0.61245 0.0
H2185 H 0.22295 0.19866 0.59525 0.0
H2186 H 0.19053 0.23166 0.59518 0.0
C2187 C 0.15549 0.18335 0.62316 0.0
C2188 C 0.81382 0.17139 0.6209 0.0
C2189 C 0.82164 0.1459 0.62537 0.0
H2190 H 0.82571 0.21099 0.61557 0.0
C2191 C 0.8474 0.14174 0.63174 0.0
H2192 H 0.79411 0.17526 0.61587 0.0
C2193 C 0.86528 0.162 0.63162 0.0
C2194 C 0.85805 0.18715 0.62509 0.0
H2195 H 0.8541 0.12249 0.63566 0.0
H2196 H 0.88516 0.15764 0.63541 0.0
C2197 C 0.8319 0.19188 0.62075 0.0
C2198 C 0.16871 0.8529 0.63513 0.0
C2199 C 0.19237 0.84928 0.6228 0.0
H2200 H 0.13129 0.83786 0.64315 0.0
C2201 C 0.19761 0.82484 0.61249 0.0
H2202 H 0.16405 0.87138 0.64345 0.0
C2203 C 0.17856 0.80524 0.61256 0.0
C2204 C 0.15406 0.81002 0.62272 0.0
H2205 H 0.21553 0.82153 0.60262 0.0
H2206 H 0.18233 0.78714 0.60297 0.0
C2207 C 0.1498 0.83367 0.63489 0.0
C2208 C 0.12734 0.26728 0.48216 0.0
C2209 C 0.11053 0.25192 0.46762 0.0
H2210 H 0.13797 0.28106 0.5198 0.0
C2211 C 0.09341 0.23532 0.48072 0.0
H2212 H 0.1431 0.27672 0.47287 0.0
C2213 C 0.09109 0.23653 0.50746 0.0
C2214 C 0.10535 0.25486 0.52163 0.0
H2215 H 0.08102 0.2221 0.47014 0.0
H2216 H 0.07718 0.22407 0.5169 0.0
C2217 C 0.12464 0.2691 0.50896 0.0
C2218 C 0.74919 0.10538 0.51869 0.0
C2219 C 0.77237 0.10583 0.53253 0.0
H2220 H 0.73139 0.10496 0.48133 0.0
C2221 C 0.79538 0.10998 0.51902 0.0
H2222 H 0.73117 0.10209 0.52855 0.0
C2223 C 0.79555 0.11158 0.49228 0.0
C2224 C 0.77269 0.10911 0.47815 0.0
H2225 H 0.81357 0.11079 0.5291 0.0
H2226 H 0.81384 0.11357 0.4826 0.0
C2227 C 0.74935 0.10701 0.49166 0.0
C2228 C 0.92292 0.76473 0.48856 0.0
C2229 C 0.90338 0.74914 0.47757 0.0
H2230 H 0.944 0.77553 0.52261 0.0
C2231 C 0.88775 0.73469 0.49421 0.0
H2232 H 0.93438 0.77725 0.47646 0.0
C2233 C 0.89231 0.73523 0.52091 0.0
C2234 C 0.91377 0.74802 0.53156 0.0
H2235 H 0.87121 0.72425 0.48675 0.0
H2236 H 0.8778 0.7277 0.53343 0.0
C2237 C 0.92853 0.7636 0.51501 0.0
C2238 C 0.21321 0.90012 0.48485 0.0
C2239 C 0.23699 0.90183 0.47219 0.0
H2240 H 0.19303 0.89893 0.52047 0.0
C2241 C 0.25949 0.9008 0.48703 0.0
H2242 H 0.19546 0.90047 0.47403 0.0
C2243 C 0.25807 0.89991 0.51409 0.0
C2244 C 0.23413 0.90001 0.5267 0.0
H2245 H 0.27809 0.90218 0.47789 0.0
H2246 H 0.2757 0.90054 0.52511 0.0
C2247 C 0.2118 0.89923 0.5116 0.0
C2248 C 0.12054 0.77676 0.52169 0.0
C2249 C 0.11108 0.75441 0.5339 0.0
H2250 H 0.1258 0.79729 0.48642 0.0
C2251 C 0.10309 0.73343 0.51849 0.0
H2252 H 0.12674 0.7933 0.53299 0.0
C2253 C 0.10272 0.73572 0.49142 0.0
C2254 C 0.11011 0.75907 0.47952 0.0
H2255 H 0.09522 0.71618 0.52733 0.0
H2256 H 0.09475 0.72004 0.48001 0.0
C2257 C 0.11993 0.77911 0.49496 0.0
C2258 C 0.23975 0.07744 0.48575 0.0
C2259 C 0.25358 0.09485 0.47022 0.0
H2260 H 0.22661 0.06817 0.52386 0.0
C2261 C 0.2636 0.11725 0.4817 0.0
H2262 H 0.22991 0.06098 0.47726 0.0
C2263 C 0.26311 0.12075 0.50838 0.0
C2264 C 0.25035 0.10279 0.52396 0.0
H2265 H 0.26963 0.13306 0.46982 0.0
H2266 H 0.2713 0.13819 0.51667 0.0
C2267 C 0.23759 0.08172 0.51231 0.0
C2268 C 0.89754 0.2678 0.51918 0.0
C2269 C 0.89355 0.2444 0.53231 0.0
H2270 H 0.9028 0.28605 0.48237 0.0
C2271 C 0.88744 0.22213 0.51809 0.0
H2272 H 0.90256 0.28519 0.52972 0.0
C2273 C 0.88753 0.22262 0.49133 0.0
C2274 C 0.89386 0.24536 0.47801 0.0
H2275 H 0.88414 0.20388 0.5277 0.0
H2276 H 0.88416 0.2047 0.48102 0.0
C2277 C 0.8977 0.26828 0.49212 0.0
C2278 C 0.77353 0.91248 0.49616 0.0
C2279 C 0.75555 0.89848 0.48136 0.0
H2280 H 0.78758 0.92124 0.53396 0.0
C2281 C 0.74118 0.87875 0.49318 0.0
H2282 H 0.78607 0.92669 0.48726 0.0
C2283 C 0.74297 0.87497 0.51979 0.0
C2284 C 0.75813 0.8913 0.53501 0.0
H2285 H 0.72939 0.86572 0.48177 0.0
H2286 H 0.73378 0.85865 0.5284 0.0
C2287 C 0.7746 0.90915 0.52279 0.0
C2288 C 0.49245 0.0826 0.23314 0.0
C2289 C 0.47656 0.10092 0.24467 0.0
H2290 H 0.53081 0.06988 0.22681 0.0
C2291 C 0.4879 0.12058 0.25974 0.0
H2292 H 0.48433 0.06724 0.22142 0.0
C2293 C 0.51466 0.12225 0.26252 0.0
C2294 C 0.5304 0.10373 0.25113 0.0
H2295 H 0.47619 0.13519 0.26855 0.0
H2296 H 0.52308 0.13829 0.27308 0.0
C2297 C 0.51903 0.08404 0.23629 0.0
C2298 C 0.88465 0.5183 0.25207 0.0
C2299 C 0.90196 0.53549 0.24017 0.0
H2300 H 0.87507 0.47867 0.26022 0.0
C2301 C 0.9217 0.52567 0.22506 0.0
H2302 H 0.86845 0.52553 0.26271 0.0
C2303 C 0.92499 0.4992 0.22289 0.0
C2304 C 0.9087 0.48177 0.23594 0.0
H2305 H 0.9348 0.53855 0.21503 0.0
H2306 H 0.94053 0.4925 0.21103 0.0
C2307 C 0.88829 0.49158 0.25042 0.0
C2308 C 0.52671 0.91077 0.22826 0.0
C2309 C 0.53669 0.89566 0.24794 0.0
H2310 H 0.49427 0.92183 0.20721 0.0
C2311 C 0.51982 0.88005 0.26244 0.0
H2312 H 0.5392 0.92205 0.21584 0.0
C2313 C 0.4931 0.88202 0.25916 0.0
C2314 C 0.4833 0.89784 0.2397 0.0
H2315 H 0.52724 0.86643 0.27615 0.0
H2316 H 0.48028 0.87073 0.27118 0.0
C2317 C 0.50063 0.91106 0.22363 0.0
C2318 C 0.08347 0.516 0.25962 0.0
C2319 C 0.10294 0.53256 0.26913 0.0
H2320 H 0.07208 0.47736 0.24901 0.0
C2321 C 0.12672 0.52156 0.27531 0.0
H2322 H 0.06553 0.52391 0.25306 0.0
C2323 C 0.13055 0.49472 0.27294 0.0
C2324 C 0.11076 0.47817 0.26409 0.0
H2325 H 0.1427 0.53387 0.28101 0.0
H2326 H 0.14922 0.48702 0.2773 0.0
C2327 C 0.08735 0.48932 0.257 0.0
C2328 C 0.48622 0.91825 0.77629 0.0
C2329 C 0.47602 0.90003 0.75898 0.0
H2330 H 0.51924 0.93361 0.79514 0.0
C2331 C 0.49267 0.88233 0.74753 0.0
H2332 H 0.47377 0.93163 0.78602 0.0
C2333 C 0.51925 0.88391 0.75224 0.0
C2334 C 0.52942 0.90241 0.7695 0.0
H2335 H 0.48512 0.86718 0.73519 0.0
H2336 H 0.53172 0.87034 0.74286 0.0
C2337 C 0.51242 0.91933 0.78157 0.0
C2338 C 0.09637 0.47851 0.78548 0.0
C2339 C 0.11073 0.46897 0.76503 0.0
H2340 H 0.08539 0.511 0.80703 0.0
C2341 C 0.12594 0.48615 0.75053 0.0
H2342 H 0.08556 0.46563 0.79791 0.0
C2343 C 0.12397 0.51288 0.75426 0.0
C2344 C 0.10848 0.52237 0.77407 0.0
H2345 H 0.1391 0.47894 0.7363 0.0
H2346 H 0.1348 0.52597 0.74209 0.0
C2347 C 0.09593 0.50473 0.79041 0.0
C2348 C 0.48802 0.10491 0.73599 0.0
C2349 C 0.47349 0.11459 0.75646 0.0
H2350 H 0.52581 0.09744 0.72175 0.0
C2351 C 0.48584 0.12855 0.77607 0.0
H2352 H 0.47882 0.09389 0.72075 0.0
C2353 C 0.51245 0.13103 0.77643 0.0
C2354 C 0.52739 0.11902 0.7575 0.0
H2355 H 0.47496 0.13631 0.79196 0.0
H2356 H 0.52138 0.14066 0.79272 0.0
C2357 C 0.51489 0.10703 0.73654 0.0
C2358 C 0.88577 0.51949 0.75668 0.0
C2359 C 0.90461 0.53135 0.77233 0.0
H2360 H 0.86964 0.48379 0.74235 0.0
C2361 C 0.92308 0.51573 0.78397 0.0
H2362 H 0.8711 0.53091 0.74766 0.0
C2363 C 0.92269 0.48902 0.78021 0.0
C2364 C 0.9039 0.47715 0.76467 0.0
H2365 H 0.9379 0.52415 0.79607 0.0
H2366 H 0.93699 0.47751 0.78975 0.0
C2367 C 0.88511 0.49258 0.75335 0.0
C2368 C 0.25292 0.5139 0.136 0.0
C2369 C 0.24618 0.52642 0.11308 0.0
H2370 H 0.25535 0.47763 0.15585 0.0
C2371 C 0.23588 0.51205 0.09269 0.0
H2372 H 0.26067 0.52484 0.15207 0.0
C2373 C 0.23366 0.48535 0.09459 0.0
C2374 C 0.23942 0.47274 0.1177 0.0
H2375 H 0.23058 0.52138 0.07488 0.0
H2376 H 0.22819 0.47446 0.07763 0.0
C2377 C 0.24957 0.48712 0.1383 0.0
C2378 C 0.2652 0.50954 0.88022 0.0
C2379 C 0.25158 0.52571 0.89695 0.0
H2380 H 0.2736 0.47032 0.86954 0.0
C2381 C 0.23337 0.51478 0.91341 0.0
H2382 H 0.278 0.51775 0.86598 0.0
C2383 C 0.22948 0.48835 0.91406 0.0
C2384 C 0.24446 0.47164 0.8991 0.0
H2385 H 0.22183 0.5268 0.92576 0.0
H2386 H 0.21459 0.48117 0.92671 0.0
C2387 C 0.26232 0.48253 0.88189 0.0
C2388 C 0.48508 0.24756 0.88751 0.0
C2389 C 0.47598 0.22928 0.90539 0.0
H2390 H 0.51819 0.26572 0.87027 0.0
C2391 C 0.49389 0.21598 0.92033 0.0
H2392 H 0.47184 0.25772 0.87527 0.0
C2393 C 0.52003 0.22162 0.91844 0.0
C2394 C 0.52906 0.24032 0.90119 0.0
H2395 H 0.48787 0.20129 0.93373 0.0
H2396 H 0.53328 0.21121 0.93048 0.0
C2397 C 0.5115 0.25248 0.88494 0.0
C2398 C 0.7545 0.512 0.86235 0.0
C2399 C 0.76465 0.5278 0.88187 0.0
H2400 H 0.74381 0.47336 0.85116 0.0
C2401 C 0.77143 0.51674 0.90549 0.0
H2402 H 0.74794 0.5203 0.84447 0.0
C2403 C 0.76991 0.49018 0.90902 0.0
C2404 C 0.75937 0.47445 0.88979 0.0
H2405 H 0.77704 0.52876 0.92165 0.0
H2406 H 0.7757 0.48207 0.92727 0.0
C2407 C 0.75186 0.48538 0.8663 0.0
C2408 C 0.48451 0.74783 0.86747 0.0
C2409 C 0.47128 0.76778 0.87946 0.0
H2410 H 0.52164 0.73222 0.85981 0.0
C2411 C 0.48372 0.79196 0.88118 0.0
H2412 H 0.47437 0.73095 0.8607 0.0
C2413 C 0.5099 0.79438 0.87572 0.0
C2414 C 0.52442 0.77205 0.87222 0.0
H2415 H 0.47358 0.80878 0.88776 0.0
H2416 H 0.51918 0.81299 0.87851 0.0
C2417 C 0.51126 0.74925 0.86535 0.0
C2418 C 0.75179 0.52322 0.11848 0.0
C2419 C 0.76687 0.53335 0.09842 0.0
H2420 H 0.73945 0.48881 0.1384 0.0
C2421 C 0.78011 0.51617 0.08243 0.0
H2422 H 0.74202 0.53595 0.13162 0.0
C2423 C 0.77719 0.48976 0.08519 0.0
C2424 C 0.76181 0.47953 0.1047 0.0
H2425 H 0.79297 0.52294 0.06758 0.0
H2426 H 0.78736 0.47724 0.07213 0.0
C2427 C 0.74998 0.49637 0.12211 0.0
C2428 C 0.52037 0.74641 0.12216 0.0
C2429 C 0.53108 0.76574 0.1064 0.0
H2430 H 0.48548 0.72925 0.13698 0.0
C2431 C 0.51431 0.78182 0.09276 0.0
H2432 H 0.5326 0.73416 0.13348 0.0
C2433 C 0.48799 0.77764 0.09318 0.0
C2434 C 0.47724 0.75798 0.10815 0.0
H2435 H 0.52141 0.79763 0.08112 0.0
H2436 H 0.47594 0.79006 0.08181 0.0
C2437 C 0.49351 0.7432 0.12371 0.0
C2438 C 0.52544 0.24133 0.08405 0.0
C2439 C 0.53812 0.25258 0.10501 0.0
H2440 H 0.48952 0.23007 0.06766 0.0
C2441 C 0.52393 0.26143 0.12613 0.0
H2442 H 0.53613 0.2343 0.06769 0.0
C2443 C 0.49721 0.25829 0.12649 0.0
C2444 C 0.48471 0.24613 0.10578 0.0
H2445 H 0.5336 0.26973 0.14272 0.0
H2446 H 0.48657 0.26399 0.14338 0.0
C2447 C 0.49891 0.23869 0.08418 0.0
C2448 C 0.58065 0.74301 0.01669 0.0
C2449 C 0.60161 0.75735 0.02657 0.0
H2450 H 0.5582 0.7324 0.98361 0.0
C2451 C 0.61829 0.76933 0.0091 0.0
H2452 H 0.56828 0.73227 0.02954 0.0
C2453 C 0.61335 0.76776 0.98254 0.0
C2454 C 0.59062 0.75656 0.97288 0.0
H2455 H 0.63591 0.77837 0.01583 0.0
H2456 H 0.62835 0.77311 0.96946 0.0
C2457 C 0.57476 0.74327 0.99033 0.0
C2458 C 0.24621 0.59952 0.98991 0.0
C2459 C 0.26975 0.60204 0.97688 0.0
H2460 H 0.22751 0.59587 0.02671 0.0
C2461 C 0.29209 0.60689 0.99129 0.0
H2462 H 0.22869 0.59565 0.97929 0.0
C2463 C 0.29141 0.60707 0.01804 0.0
C2464 C 0.26837 0.60239 0.03127 0.0
H2465 H 0.31047 0.60929 0.98185 0.0
H2466 H 0.30929 0.60956 0.02845 0.0
C2467 C 0.24552 0.59967 0.01702 0.0
C2468 C 0.42886 0.23376 0.02117 0.0
C2469 C 0.40944 0.22317 0.03691 0.0
H2470 H 0.44064 0.24523 0.98326 0.0
C2471 C 0.38703 0.21368 0.02469 0.0
H2472 H 0.44581 0.24244 0.02987 0.0
C2473 C 0.38396 0.21547 0.99767 0.0
C2474 C 0.40329 0.22662 0.98215 0.0
H2475 H 0.37108 0.20674 0.03618 0.0
H2476 H 0.36599 0.20923 0.98907 0.0
C2477 C 0.42572 0.23576 0.9944 0.0
C2478 C 0.76086 0.40223 0.01564 0.0
C2479 C 0.73806 0.40274 0.03005 0.0
H2480 H 0.77772 0.40331 0.97787 0.0
C2481 C 0.7145 0.4014 0.0169 0.0
H2482 H 0.7793 0.40331 0.02518 0.0
C2483 C 0.71361 0.40158 0.99016 0.0
C2484 C 0.73624 0.40291 0.97564 0.0
H2485 H 0.69654 0.40132 0.02732 0.0
H2486 H 0.69504 0.40162 0.98082 0.0
C2487 C 0.75995 0.40226 0.98858 0.0
C2488 C 0.61929 0.28737 0.9867 0.0
C2489 C 0.61133 0.26459 0.97423 0.0
H2490 H 0.6263 0.30658 0.02242 0.0
C2491 C 0.6081 0.24199 0.98879 0.0
H2492 H 0.6221 0.30502 0.97591 0.0
C2493 C 0.61048 0.24289 0.01575 0.0
C2494 C 0.61612 0.26639 0.02831 0.0
H2495 H 0.60171 0.22425 0.97964 0.0
H2496 H 0.60583 0.22578 0.0268 0.0
C2497 C 0.62171 0.28825 0.01336 0.0
C2498 C 0.74029 0.58461 0.00985 0.0
C2499 C 0.75398 0.60582 0.02015 0.0
H2500 H 0.7304 0.56283 0.97605 0.0
C2501 C 0.7657 0.6233 1.00327 0.0
H2502 H 0.72996 0.57145 0.02241 0.0
C2503 C 0.76446 0.61901 0.97668 0.0
C2504 C 0.75378 0.59625 0.96649 0.0
H2505 H 0.77448 0.64091 0.01055 0.0
H2506 H 0.76968 0.63444 0.96398 0.0
C2507 C 0.74083 0.57947 0.98338 0.0
C2508 C 0.39119 0.72486 0.98694 0.0
C2509 C 0.39887 0.74772 0.9745 0.0
H2510 H 0.38704 0.7046 0.02245 0.0
C2511 C 0.40483 0.76955 0.98961 0.0
H2512 H 0.38645 0.70773 0.97584 0.0
C2513 C 0.40504 0.76775 0.01671 0.0
C2514 C 0.39946 0.74407 0.02888 0.0
H2515 H 0.41121 0.78729 0.98056 0.0
H2516 H 0.41146 0.78421 0.02796 0.0
C2517 C 0.39157 0.72303 0.01367 0.0
C2518 C 0.24007 0.38479 0.01957 0.0
C2519 C 0.25098 0.40701 0.03066 0.0
H2520 H 0.23071 0.36397 0.98489 0.0
C2521 C 0.26483 0.42396 0.0147 0.0
H2522 H 0.23404 0.36916 0.03169 0.0
C2523 C 0.26609 0.41949 0.98815 0.0
C2524 C 0.25227 0.39883 0.97689 0.0
H2525 H 0.2754 0.44014 0.02285 0.0
H2526 H 0.27714 0.43267 0.97627 0.0
C2527 C 0.23959 0.38122 0.99289 0.0
C2528 C 0.0099 0.58031 0.76859 0.0
C2529 C 0.02615 0.6002 0.77784 0.0
H2530 H 0.97163 0.56817 0.75821 0.0
C2531 C 0.01486 0.62405 0.78371 0.0
H2532 H 0.01798 0.56226 0.76229 0.0
C2533 C 0.98807 0.62753 0.78124 0.0
C2534 C 0.97182 0.60728 0.77274 0.0
H2535 H 0.02689 0.64035 0.78922 0.0
H2536 H 0.98018 0.64628 0.78528 0.0
C2537 C 0.98329 0.5838 0.76599 0.0
C2538 C 0.38613 0.98875 0.7551 0.0
C2539 C 0.40595 0.97866 0.73997 0.0
H2540 H 0.36693 0.02299 0.76778 0.0
C2541 C 0.42249 0.99595 0.72704 0.0
H2542 H 0.37281 0.976 0.76496 0.0
C2543 C 0.41961 0.02245 0.72934 0.0
C2544 C 0.4001 0.03257 0.74455 0.0
H2545 H 0.43773 0.98912 0.71485 0.0
H2546 H 0.43264 0.03515 0.71899 0.0
C2547 C 0.38292 0.01557 0.75695 0.0
C2548 C 0.01918 0.39701 0.76711 0.0
C2549 C 0.0317 0.39263 0.74359 0.0
H2550 H 0.98307 0.40359 0.7858 0.0
C2551 C 0.01696 0.38715 0.72163 0.0
H2552 H 0.03016 0.40155 0.78426 0.0
C2553 C 0.99036 0.3883 0.72249 0.0
C2554 C 0.97778 0.39509 0.74532 0.0
H2555 H 0.02613 0.38354 0.70331 0.0
H2556 H 0.97968 0.38539 0.70481 0.0
C2557 C 0.99228 0.39823 0.76797 0.0
C2558 C 0.62451 0.99161 0.77846 0.0
C2559 C 0.60451 0.97554 0.76919 0.0
H2560 H 0.63796 0.03054 0.78566 0.0
C2561 C 0.58215 0.98742 0.76017 0.0
H2562 H 0.64252 0.98329 0.78422 0.0
C2563 C 0.57937 0.01434 0.76141 0.0
C2564 C 0.59898 0.03046 0.77136 0.0
H2565 H 0.56685 0.97581 0.75175 0.0
H2566 H 0.56225 0.02273 0.7534 0.0
C2567 C 0.62179 0.0187 0.77952 0.0
C2568 C 0.99792 0.38743 0.24634 0.0
C2569 C 0.98202 0.40629 0.25686 0.0
H2570 H 0.03652 0.37452 0.24113 0.0
C2571 C 0.99308 0.42623 0.27161 0.0
H2572 H 0.98969 0.3712 0.23592 0.0
C2573 C 0.01958 0.4278 0.27516 0.0
C2574 C 0.03568 0.40937 0.26415 0.0
H2575 H 0.98115 0.44063 0.28048 0.0
H2576 H 0.02744 0.44352 0.28654 0.0
C2577 C 0.02462 0.38922 0.24952 0.0
C2578 C 0.60629 0.01664 0.24437 0.0
C2579 C 0.60986 0.03019 0.26763 0.0
H2580 H 0.60192 0.97933 0.22645 0.0
C2581 C 0.61599 0.01641 0.28992 0.0
H2582 H 0.6014 0.02683 0.22694 0.0
C2583 C 0.61628 0.98962 0.28962 0.0
C2584 C 0.61049 0.97588 0.26702 0.0
H2585 H 0.61918 0.02632 0.30803 0.0
H2586 H 0.61966 0.97956 0.30751 0.0
C2587 C 0.60659 0.98953 0.24407 0.0
C2588 C 0.01595 0.6109 0.23918 0.0
C2589 C 0.02845 0.62075 0.26117 0.0
H2590 H 0.97987 0.59956 0.22224 0.0
C2591 C 0.01357 0.63084 0.28127 0.0
H2592 H 0.02685 0.60286 0.22346 0.0
C2593 C 0.98698 0.62838 0.28079 0.0
C2594 C 0.97465 0.6165 0.25991 0.0
H2595 H 0.02253 0.63887 0.29836 0.0
H2596 H 0.97612 0.63457 0.29737 0.0
C2597 C 0.98912 0.60891 0.23851 0.0
C2598 C 0.38036 0.01858 0.22886 0.0
C2599 C 0.40008 0.03448 0.23904 0.0
H2600 H 0.3676 0.97982 0.21961 0.0
C2601 C 0.42285 0.02254 0.24689 0.0
H2602 H 0.36213 0.02684 0.22378 0.0
C2603 C 0.42604 0.99577 0.24432 0.0
C2604 C 0.40654 0.97978 0.23397 0.0
H2605 H 0.43804 0.03393 0.25579 0.0
H2606 H 0.44339 0.9873 0.25174 0.0
C2607 C 0.38359 0.9916 0.22628 0.0
C2608 C 0.76318 0.01009 0.62839 0.0
C2609 C 0.75144 0.02469 0.60906 0.0
H2610 H 0.76992 0.97215 0.64341 0.0
C2611 C 0.73546 0.01216 0.59114 0.0
H2612 H 0.77448 0.01953 0.64325 0.0
C2613 C 0.73196 0.98547 0.59192 0.0
C2614 C 0.7444 0.9707 0.61059 0.0
H2615 H 0.72563 0.02306 0.57649 0.0
H2616 H 0.71984 0.97627 0.5776 0.0
C2617 C 0.76024 0.98315 0.62875 0.0
C2618 C 0.75039 0.02261 0.42666 0.0
C2619 C 0.75397 0.03365 0.40248 0.0
H2620 H 0.74968 0.98795 0.44842 0.0
C2621 C 0.75645 0.01772 0.38076 0.0
H2622 H 0.74843 0.03463 0.4436 0.0
C2623 C 0.75428 0.99085 0.38329 0.0
C2624 C 0.75024 0.97993 0.40763 0.0
H2625 H 0.75889 0.02608 0.36184 0.0
H2626 H 0.75469 0.97877 0.36628 0.0
C2627 C 0.75007 0.99599 0.42932 0.0
C2628 C 0.98799 0.76148 0.38468 0.0
C2629 C 0.97658 0.74219 0.4 0.0
H2630 H 0.02351 0.77826 0.37097 0.0
C2631 C 0.99276 0.72611 0.41439 0.0
H2632 H 0.97625 0.77381 0.37292 0.0
C2633 C 0.01913 0.7299 0.41469 0.0
C2634 C 0.03057 0.74927 0.39989 0.0
H2635 H 0.98515 0.71045 0.42591 0.0
H2636 H 0.03071 0.71732 0.42639 0.0
C2637 C 0.01493 0.76439 0.38399 0.0
C2638 C 0.26158 0.01524 0.36346 0.0
C2639 C 0.27138 0.03016 0.38384 0.0
H2640 H 0.2503 0.97727 0.35064 0.0
C2641 C 0.27657 0.01822 0.40744 0.0
H2642 H 0.25605 0.02426 0.34558 0.0
C2643 C 0.27398 0.99163 0.41014 0.0
C2644 C 0.26385 0.9768 0.39 0.0
H2645 H 0.28158 0.02957 0.42425 0.0
H2646 H 0.27868 0.98281 0.42837 0.0
C2647 C 0.25788 0.98861 0.36651 0.0
C2648 C 0.01505 0.2772 0.41524 0.0
C2649 C 0.02798 0.26413 0.39563 0.0
H2650 H 0.97891 0.28638 0.43211 0.0
C2651 C 0.01386 0.24989 0.37741 0.0
H2652 H 0.02564 0.28821 0.42949 0.0
C2653 C 0.98701 0.24915 0.37871 0.0
C2654 C 0.97421 0.26172 0.39882 0.0
H2655 H 0.02348 0.23993 0.36196 0.0
H2656 H 0.97623 0.23892 0.36397 0.0
C2657 C 0.98842 0.27608 0.4168 0.0
C2658 C 0.25044 0.0182 0.62485 0.0
C2659 C 0.25053 0.0298 0.60048 0.0
H2660 H 0.24945 0.98238 0.64582 0.0
C2661 C 0.24795 0.014 0.57868 0.0
H2662 H 0.25248 0.02987 0.64205 0.0
C2663 C 0.2491 0.98737 0.58066 0.0
C2664 C 0.2488 0.97569 0.60471 0.0
H2665 H 0.2449 0.02191 0.5599 0.0
H2666 H 0.2496 0.97582 0.5633 0.0
C2667 C 0.249 0.99117 0.62697 0.0
C2668 C 0.98972 0.25217 0.62212 0.0
C2669 C 0.97249 0.26681 0.60769 0.0
H2670 H 0.02919 0.24262 0.62859 0.0
C2671 C 0.98214 0.28721 0.59286 0.0
H2672 H 0.98266 0.23812 0.63581 0.0
C2673 C 0.00842 0.29149 0.5907 0.0
C2674 C 0.0259 0.27443 0.60188 0.0
H2675 H 0.96932 0.29998 0.58282 0.0
H2676 H 0.01483 0.30802 0.57975 0.0
C2677 C 0.01629 0.25524 0.61851 0.0
C2678 C 0.02194 0.71308 0.62382 0.0
C2679 C 0.03417 0.73746 0.62482 0.0
H2680 H 0.98685 0.69158 0.62666 0.0
C2681 C 0.02029 0.75781 0.63525 0.0
H2682 H 0.03236 0.69604 0.61836 0.0
C2683 C 0.99349 0.75606 0.63677 0.0
C2684 C 0.98079 0.73261 0.63111 0.0
H2685 H 0.03003 0.77498 0.64171 0.0
H2686 H 0.98275 0.77317 0.64123 0.0
C2687 C 0.99575 0.71046 0.62883 0.0
loop_
_geom_bond_atom_site_label_1
_geom_bond_atom_site_label_2
_geom_bond_distance
_geom_bond_site_symmetry_2
_ccdc_geom_bond_type
Mn0 O5 2.095 . S
Mn0 O15 2.162 . S
Mn0 O16 2.297 . S
Mn0 O24 2.385 . S
Mn0 O25 2.209 . S
Mn0 O26 2.094 . S
Mn1 O6 2.121 . S
Mn1 N8 2.257 . S
Mn1 N17 2.282 . S
Mn1 O25 2.215 . S
Mn1 O27 2.117 . S
C2 O24 1.234 . S
C2 O25 1.283 . S
C3 O15 1.281 . S
C3 O16 1.236 . S
C4 O26 1.240 . S
C4 O27 1.264 . S
O5 Mn0 2.095 . S
O5 C14 1.250 . S
O6 Mn1 2.121 . S
O6 C14 1.258 . S
C7 N8 1.326 . S
C7 C11 1.460 . S
C7 H13 0.929 . S
N8 Mn1 2.257 . S
N8 C7 1.326 . S
N8 C12 1.362 . S
C9 C10 1.258 . S
C9 C12 1.431 . S
C9 C29 1.449 . S
C10 C9 1.258 . S
C10 C11 1.477 . S
C10 H30 0.931 . S
C11 C7 1.460 . S
C11 C10 1.477 . S
C11 H31 0.930 . S
C12 N8 1.362 . S
C12 C9 1.431 . S
C12 C22 1.476 . S
H13 C7 0.929 . S
C14 O5 1.250 . S
C14 O6 1.258 . S
O15 Mn0 2.162 . S
O15 C3 1.281 . S
O16 Mn0 2.297 . S
O16 C3 1.236 . S
N17 Mn1 2.282 . S
N17 C18 1.328 . S
N17 C22 1.318 . S
C18 N17 1.328 . S
C18 C19 1.457 . S
C18 H23 0.929 . S
C19 C18 1.457 . S
C19 C20 1.291 . S
C19 H32 0.931 . S
C20 C19 1.291 . S
C20 C21 1.373 . S
C20 H33 0.929 . S
C21 C20 1.373 . S
C21 C22 1.396 . S
C21 C28 1.403 . S
C22 C12 1.476 . S
C22 N17 1.318 . S
C22 C21 1.396 . S
H23 C18 0.929 . S
O24 Mn0 2.385 . S
O24 C2 1.234 . S
O25 Mn0 2.209 . S
O25 Mn1 2.215 . S
O25 C2 1.283 . S
O26 Mn0 2.094 . S
O26 C4 1.240 . S
O27 Mn1 2.117 . S
O27 C4 1.264 . S
C28 C21 1.403 . S
C28 C29 1.399 . S
C28 H34 0.929 . S
C29 C9 1.449 . S
C29 C28 1.399 . S
C29 H35 0.930 . S
H30 C10 0.931 . S
H31 C11 0.930 . S
H32 C19 0.931 . S
H33 C20 0.929 . S
H34 C28 0.929 . S
H35 C29 0.930 . S
Mn36 O41 2.095 . S
Mn36 O51 2.162 . S
Mn36 O52 2.297 . S
Mn36 O60 2.385 . S
Mn36 O61 2.209 . S
Mn36 O62 2.094 . S
Mn37 O42 2.121 . S
Mn37 N44 2.257 . S
Mn37 N53 2.282 . S
Mn37 O61 2.215 . S
Mn37 O63 2.117 . S
C38 O60 1.234 . S
C38 O61 1.283 . S
C39 O51 1.281 . S
C39 O52 1.236 . S
C40 O62 1.240 . S
C40 O63 1.264 . S
O41 Mn36 2.095 . S
O41 C50 1.250 . S
O42 Mn37 2.121 . S
O42 C50 1.258 . S
C43 N44 1.326 . S
C43 C47 1.460 . S
C43 H49 0.929 . S
N44 Mn37 2.257 . S
N44 C43 1.326 . S
N44 C48 1.362 . S
C45 C46 1.258 . S
C45 C48 1.431 . S
C45 C65 1.466 . S
C46 C45 1.258 . S
C46 C47 1.477 . S
C46 H66 0.931 . S
C47 C43 1.460 . S
C47 C46 1.477 . S
C47 H67 0.930 . S
C48 N44 1.362 . S
C48 C45 1.431 . S
C48 C58 1.476 . S
H49 C43 0.929 . S
C50 O41 1.250 . S
C50 O42 1.258 . S
O51 Mn36 2.162 . S
O51 C39 1.281 . S
O52 Mn36 2.297 . S
O52 C39 1.236 . S
N53 Mn37 2.282 . S
N53 C54 1.328 . S
N53 C58 1.318 . S
C54 N53 1.328 . S
C54 C55 1.457 . S
C54 H59 0.929 . S
C55 C54 1.457 . S
C55 C56 1.278 1_545 S
C55 H68 0.931 . S
C56 C55 1.278 1_565 S
C56 C57 1.366 1_565 S
C56 H69 0.949 . S
C57 C56 1.366 1_545 S
C57 C58 1.396 . S
C57 C64 1.403 1_545 S
C58 C48 1.476 . S
C58 N53 1.318 . S
C58 C57 1.396 . S
H59 C54 0.929 . S
O60 Mn36 2.385 . S
O60 C38 1.234 . S
O61 Mn36 2.209 . S
O61 Mn37 2.215 . S
O61 C38 1.283 . S
O62 Mn36 2.094 . S
O62 C40 1.240 . S
O63 Mn37 2.117 . S
O63 C40 1.264 . S
C64 C57 1.403 1_565 S
C64 C65 1.394 1_565 S
C64 H70 0.929 . S
C65 C45 1.466 . S
C65 C64 1.394 1_545 S
C65 H71 0.919 1_545 S
H66 C46 0.931 . S
H67 C47 0.930 . S
H68 C55 0.931 . S
H69 C56 0.949 . S
H70 C64 0.929 . S
H71 C65 0.919 1_565 S
Mn72 O77 2.095 . S
Mn72 O87 2.162 . S
Mn72 O88 2.297 . S
Mn72 O96 2.385 . S
Mn72 O97 2.209 . S
Mn72 O98 2.094 . S
Mn73 O78 2.121 . S
Mn73 N80 2.257 . S
Mn73 N89 2.282 . S
Mn73 O97 2.215 . S
Mn73 O99 2.117 . S
C74 O96 1.234 . S
C74 O97 1.283 . S
C75 O87 1.281 . S
C75 O88 1.236 . S
C76 O98 1.240 . S
C76 O99 1.264 . S
O77 Mn72 2.095 . S
O77 C86 1.250 . S
O78 Mn73 2.121 . S
O78 C86 1.258 . S
C79 N80 1.326 . S
C79 C83 1.460 . S
C79 H85 0.929 . S
N80 Mn73 2.257 . S
N80 C79 1.326 . S
N80 C84 1.362 . S
C81 C82 1.258 . S
C81 C84 1.431 . S
C81 C101 1.449 . S
C82 C81 1.258 . S
C82 C83 1.477 . S
C82 H102 0.931 . S
C83 C79 1.460 . S
C83 C82 1.477 . S
C83 H103 0.930 . S
C84 N80 1.362 . S
C84 C81 1.431 . S
C84 C94 1.476 . S
H85 C79 0.929 . S
C86 O77 1.250 . S
C86 O78 1.258 . S
O87 Mn72 2.162 . S
O87 C75 1.281 . S
O88 Mn72 2.297 . S
O88 C75 1.236 . S
N89 Mn73 2.282 . S
N89 C90 1.328 . S
N89 C94 1.318 . S
C90 N89 1.328 . S
C90 C91 1.457 . S
C90 H95 0.929 . S
C91 C90 1.457 . S
C91 C92 1.291 . S
C91 H104 0.931 . S
C92 C91 1.291 . S
C92 C93 1.373 . S
C92 H105 0.929 . S
C93 C92 1.373 . S
C93 C94 1.396 . S
C93 C100 1.403 . S
C94 C84 1.476 . S
C94 N89 1.318 . S
C94 C93 1.396 . S
H95 C90 0.929 . S
O96 Mn72 2.385 . S
O96 C74 1.234 . S
O97 Mn72 2.209 . S
O97 Mn73 2.215 . S
O97 C74 1.283 . S
O98 Mn72 2.094 . S
O98 C76 1.240 . S
O99 Mn73 2.117 . S
O99 C76 1.264 . S
C100 C93 1.403 . S
C100 C101 1.399 . S
C100 H106 0.929 . S
C101 C81 1.449 . S
C101 C100 1.399 . S
C101 H107 0.930 . S
H102 C82 0.931 . S
H103 C83 0.930 . S
H104 C91 0.931 . S
H105 C92 0.929 . S
H106 C100 0.929 . S
H107 C101 0.930 . S
Mn108 O113 2.095 . S
Mn108 O123 2.162 . S
Mn108 O124 2.297 . S
Mn108 O132 2.385 . S
Mn108 O133 2.209 . S
Mn108 O134 2.094 . S
Mn109 O114 2.121 . S
Mn109 N116 2.257 . S
Mn109 N125 2.282 . S
Mn109 O133 2.215 . S
Mn109 O135 2.117 . S
C110 O132 1.234 . S
C110 O133 1.283 . S
C111 O123 1.281 . S
C111 O124 1.236 . S
C112 O134 1.240 . S
C112 O135 1.264 . S
O113 Mn108 2.095 . S
O113 C122 1.250 . S
O114 Mn109 2.121 . S
O114 C122 1.258 . S
C115 N116 1.326 . S
C115 C119 1.460 . S
C115 H121 0.929 . S
N116 Mn109 2.257 . S
N116 C115 1.326 . S
N116 C120 1.362 . S
C117 C118 1.258 . S
C117 C120 1.431 . S
C117 C137 1.449 . S
C118 C117 1.258 . S
C118 C119 1.477 . S
C118 H138 0.931 . S
C119 C115 1.460 . S
C119 C118 1.477 . S
C119 H139 0.930 . S
C120 N116 1.362 . S
C120 C117 1.431 . S
C120 C130 1.476 . S
H121 C115 0.929 . S
C122 O113 1.250 . S
C122 O114 1.258 . S
O123 Mn108 2.162 . S
O123 C111 1.281 . S
O124 Mn108 2.297 . S
O124 C111 1.236 . S
N125 Mn109 2.282 . S
N125 C126 1.328 . S
N125 C130 1.318 . S
C126 N125 1.328 . S
C126 C127 1.457 . S
C126 H131 0.929 . S
C127 C126 1.457 . S
C127 C128 1.288 1_565 S
C127 H140 0.931 . S
C128 C127 1.288 1_545 S
C128 C129 1.371 1_545 S
C128 H141 0.934 . S
C129 C128 1.371 1_565 S
C129 C130 1.396 . S
C129 C136 1.403 1_565 S
C130 C120 1.476 . S
C130 N125 1.318 . S
C130 C129 1.396 . S
H131 C126 0.929 . S
O132 Mn108 2.385 . S
O132 C110 1.234 . S
O133 Mn108 2.209 . S
O133 Mn109 2.215 . S
O133 C110 1.283 . S
O134 Mn108 2.094 . S
O134 C112 1.240 . S
O135 Mn109 2.117 . S
O135 C112 1.264 . S
C136 C129 1.403 1_545 S
C136 C137 1.399 1_545 S
C136 H142 0.929 . S
C137 C117 1.449 . S
C137 C136 1.399 1_565 S
C137 H143 0.930 1_565 S
H138 C118 0.931 . S
H139 C119 0.930 . S
H140 C127 0.931 . S
H141 C128 0.934 . S
H142 C136 0.929 . S
H143 C137 0.930 1_545 S
Mn144 O149 2.095 . S
Mn144 O159 2.162 . S
Mn144 O160 2.297 . S
Mn144 O168 2.385 . S
Mn144 O169 2.209 . S
Mn144 O170 2.094 . S
Mn145 O150 2.121 . S
Mn145 N152 2.257 . S
Mn145 N161 2.282 . S
Mn145 O169 2.215 . S
Mn145 O171 2.117 . S
C146 O168 1.234 . S
C146 O169 1.283 . S
C147 O159 1.281 . S
C147 O160 1.236 . S
C148 O170 1.240 . S
C148 O171 1.264 . S
O149 Mn144 2.095 . S
O149 C158 1.250 . S
O150 Mn145 2.121 . S
O150 C158 1.258 . S
C151 N152 1.326 . S
C151 C155 1.460 . S
C151 H157 0.929 . S
N152 Mn145 2.257 . S
N152 C151 1.326 . S
N152 C156 1.362 . S
C153 C154 1.258 . S
C153 C156 1.431 . S
C153 C173 1.452 . S
C154 C153 1.258 . S
C154 C155 1.477 . S
C154 H174 0.931 . S
C155 C151 1.460 . S
C155 C154 1.477 . S
C155 H175 0.930 . S
C156 N152 1.362 . S
C156 C153 1.431 . S
C156 C166 1.476 . S
H157 C151 0.929 . S
C158 O149 1.250 . S
C158 O150 1.258 . S
O159 Mn144 2.162 . S
O159 C147 1.281 . S
O160 Mn144 2.297 . S
O160 C147 1.236 . S
N161 Mn145 2.282 . S
N161 C162 1.328 . S
N161 C166 1.318 . S
C162 N161 1.328 . S
C162 C163 1.457 . S
C162 H167 0.929 . S
C163 C162 1.457 . S
C163 C164 1.289 . S
C163 H176 0.931 . S
C164 C163 1.289 . S
C164 C165 1.372 . S
C164 H177 0.933 1_455 S
C165 C164 1.372 . S
C165 C166 1.396 . S
C165 C172 1.403 1_455 S
C166 C156 1.476 . S
C166 N161 1.318 . S
C166 C165 1.396 . S
H167 C162 0.929 . S
O168 Mn144 2.385 . S
O168 C146 1.234 . S
O169 Mn144 2.209 . S
O169 Mn145 2.215 . S
O169 C146 1.283 . S
O170 Mn144 2.094 . S
O170 C148 1.240 . S
O171 Mn145 2.117 . S
O171 C148 1.264 . S
C172 C165 1.403 1_655 S
C172 C173 1.398 1_655 S
C172 H178 0.929 . S
C173 C153 1.452 . S
C173 C172 1.398 1_455 S
C173 H179 0.927 1_455 S
H174 C154 0.931 . S
H175 C155 0.930 . S
H176 C163 0.931 . S
H177 C164 0.933 1_655 S
H178 C172 0.929 . S
H179 C173 0.927 1_655 S
Mn180 O185 2.095 . S
Mn180 O195 2.162 . S
Mn180 O196 2.297 . S
Mn180 O204 2.385 . S
Mn180 O205 2.209 . S
Mn180 O206 2.094 . S
Mn181 O186 2.121 . S
Mn181 N188 2.257 . S
Mn181 N197 2.282 . S
Mn181 O205 2.215 . S
Mn181 O207 2.117 . S
C182 O204 1.234 . S
C182 O205 1.283 . S
C183 O195 1.281 . S
C183 O196 1.236 . S
C184 O206 1.240 . S
C184 O207 1.264 . S
O185 Mn180 2.095 . S
O185 C194 1.250 . S
O186 Mn181 2.121 . S
O186 C194 1.258 . S
C187 N188 1.326 . S
C187 C191 1.460 . S
C187 H193 0.929 . S
N188 Mn181 2.257 . S
N188 C187 1.326 . S
N188 C192 1.362 . S
C189 C190 1.258 . S
C189 C192 1.431 . S
C189 C209 1.449 . S
C190 C189 1.258 . S
C190 C191 1.477 . S
C190 H210 0.931 . S
C191 C187 1.460 . S
C191 C190 1.477 . S
C191 H211 0.930 . S
C192 N188 1.362 . S
C192 C189 1.431 . S
C192 C202 1.476 . S
H193 C187 0.929 . S
C194 O185 1.250 . S
C194 O186 1.258 . S
O195 Mn180 2.162 . S
O195 C183 1.281 . S
O196 Mn180 2.297 . S
O196 C183 1.236 . S
N197 Mn181 2.282 . S
N197 C198 1.328 . S
N197 C202 1.318 . S
C198 N197 1.328 . S
C198 C199 1.457 . S
C198 H203 0.929 . S
C199 C198 1.457 . S
C199 C200 1.291 . S
C199 H212 0.931 . S
C200 C199 1.291 . S
C200 C201 1.373 . S
C200 H213 0.929 . S
C201 C200 1.373 . S
C201 C202 1.396 . S
C201 C208 1.403 . S
C202 C192 1.476 . S
C202 N197 1.318 . S
C202 C201 1.396 . S
H203 C198 0.929 . S
O204 Mn180 2.385 . S
O204 C182 1.234 . S
O205 Mn180 2.209 . S
O205 Mn181 2.215 . S
O205 C182 1.283 . S
O206 Mn180 2.094 . S
O206 C184 1.240 . S
O207 Mn181 2.117 . S
O207 C184 1.264 . S
C208 C201 1.403 . S
C208 C209 1.399 . S
C208 H214 0.929 . S
C209 C189 1.449 . S
C209 C208 1.399 . S
C209 H215 0.930 . S
H210 C190 0.931 . S
H211 C191 0.930 . S
H212 C199 0.931 . S
H213 C200 0.929 . S
H214 C208 0.929 . S
H215 C209 0.930 . S
Mn216 O221 2.095 . S
Mn216 O231 2.162 . S
Mn216 O232 2.297 . S
Mn216 O240 2.385 . S
Mn216 O241 2.209 . S
Mn216 O242 2.094 . S
Mn217 O222 2.121 . S
Mn217 N224 2.257 . S
Mn217 N233 2.282 . S
Mn217 O241 2.215 . S
Mn217 O243 2.117 . S
C218 O240 1.234 . S
C218 O241 1.283 . S
C219 O231 1.281 . S
C219 O232 1.236 . S
C220 O242 1.240 . S
C220 O243 1.264 . S
O221 Mn216 2.095 . S
O221 C230 1.250 . S
O222 Mn217 2.121 . S
O222 C230 1.258 . S
C223 N224 1.326 . S
C223 C227 1.460 . S
C223 H229 0.929 . S
N224 Mn217 2.257 . S
N224 C223 1.326 . S
N224 C228 1.362 . S
C225 C226 1.258 . S
C225 C228 1.431 . S
C225 C245 1.449 1_655 S
C226 C225 1.258 . S
C226 C227 1.477 . S
C226 H246 0.931 . S
C227 C223 1.460 . S
C227 C226 1.477 . S
C227 H247 0.930 . S
C228 N224 1.362 . S
C228 C225 1.431 . S
C228 C238 1.476 . S
H229 C223 0.929 . S
C230 O221 1.250 . S
C230 O222 1.258 . S
O231 Mn216 2.162 . S
O231 C219 1.281 . S
O232 Mn216 2.297 . S
O232 C219 1.236 . S
N233 Mn217 2.282 . S
N233 C234 1.328 . S
N233 C238 1.318 . S
C234 N233 1.328 . S
C234 C235 1.457 . S
C234 H239 0.929 . S
C235 C234 1.457 . S
C235 C236 1.290 . S
C235 H248 0.931 . S
C236 C235 1.290 . S
C236 C237 1.372 . S
C236 H249 0.931 1_655 S
C237 C236 1.372 . S
C237 C238 1.396 . S
C237 C244 1.403 1_655 S
C238 C228 1.476 . S
C238 N233 1.318 . S
C238 C237 1.396 . S
H239 C234 0.929 . S
O240 Mn216 2.385 . S
O240 C218 1.234 . S
O241 Mn216 2.209 . S
O241 Mn217 2.215 . S
O241 C218 1.283 . S
O242 Mn216 2.094 . S
O242 C220 1.240 . S
O243 Mn217 2.117 . S
O243 C220 1.264 . S
C244 C237 1.403 1_455 S
C244 C245 1.399 . S
C244 H250 0.929 . S
C245 C225 1.449 1_455 S
C245 C244 1.399 . S
C245 H251 0.930 . S
H246 C226 0.931 . S
H247 C227 0.930 . S
H248 C235 0.931 . S
H249 C236 0.931 1_455 S
H250 C244 0.929 . S
H251 C245 0.930 . S
Mn252 O257 2.095 . S
Mn252 O267 2.162 . S
Mn252 O268 2.297 . S
Mn252 O276 2.385 . S
Mn252 O277 2.209 . S
Mn252 O278 2.094 . S
Mn253 O258 2.121 . S
Mn253 N260 2.257 . S
Mn253 N269 2.282 . S
Mn253 O277 2.215 . S
Mn253 O279 2.117 . S
C254 O276 1.234 . S
C254 O277 1.283 . S
C255 O267 1.281 . S
C255 O268 1.236 . S
C256 O278 1.240 . S
C256 O279 1.264 . S
O257 Mn252 2.095 . S
O257 C266 1.250 . S
O258 Mn253 2.121 . S
O258 C266 1.258 . S
C259 N260 1.326 . S
C259 C263 1.460 . S
C259 H265 0.929 . S
N260 Mn253 2.257 . S
N260 C259 1.326 . S
N260 C264 1.362 . S
C261 C262 1.258 . S
C261 C264 1.431 . S
C261 C281 1.449 . S
C262 C261 1.258 . S
C262 C263 1.477 . S
C262 H282 0.931 . S
C263 C259 1.460 . S
C263 C262 1.477 . S
C263 H283 0.930 . S
C264 N260 1.362 . S
C264 C261 1.431 . S
C264 C274 1.476 . S
H265 C259 0.929 . S
C266 O257 1.250 . S
C266 O258 1.258 . S
O267 Mn252 2.162 . S
O267 C255 1.281 . S
O268 Mn252 2.297 . S
O268 C255 1.236 . S
N269 Mn253 2.282 . S
N269 C270 1.328 . S
N269 C274 1.318 . S
C270 N269 1.328 . S
C270 C271 1.457 . S
C270 H275 0.929 . S
C271 C270 1.457 . S
C271 C272 1.291 . S
C271 H284 0.931 . S
C272 C271 1.291 . S
C272 C273 1.373 . S
C272 H285 0.929 . S
C273 C272 1.373 . S
C273 C274 1.396 . S
C273 C280 1.403 . S
C274 C264 1.476 . S
C274 N269 1.318 . S
C274 C273 1.396 . S
H275 C270 0.929 . S
O276 Mn252 2.385 . S
O276 C254 1.234 . S
O277 Mn252 2.209 . S
O277 Mn253 2.215 . S
O277 C254 1.283 . S
O278 Mn252 2.094 . S
O278 C256 1.240 . S
O279 Mn253 2.117 . S
O279 C256 1.264 . S
C280 C273 1.403 . S
C280 C281 1.399 . S
C280 H286 0.929 . S
C281 C261 1.449 . S
C281 C280 1.399 . S
C281 H287 0.930 . S
H282 C262 0.931 . S
H283 C263 0.930 . S
H284 C271 0.931 . S
H285 C272 0.929 . S
H286 C280 0.929 . S
H287 C281 0.930 . S
Mn288 O293 2.095 . S
Mn288 O303 2.162 . S
Mn288 O304 2.297 . S
Mn288 O312 2.385 . S
Mn288 O313 2.209 . S
Mn288 O314 2.094 . S
Mn289 O294 2.121 . S
Mn289 N296 2.257 . S
Mn289 N305 2.282 . S
Mn289 O313 2.215 . S
Mn289 O315 2.117 . S
C290 O312 1.234 . S
C290 O313 1.283 . S
C291 O303 1.281 . S
C291 O304 1.236 . S
C292 O314 1.240 . S
C292 O315 1.264 . S
O293 Mn288 2.095 . S
O293 C302 1.250 . S
O294 Mn289 2.121 . S
O294 C302 1.258 . S
C295 N296 1.326 . S
C295 C299 1.460 . S
C295 H301 0.929 . S
N296 Mn289 2.257 . S
N296 C295 1.326 . S
N296 C300 1.362 . S
C297 C298 1.258 . S
C297 C300 1.431 . S
C297 C317 1.449 1_545 S
C298 C297 1.258 . S
C298 C299 1.477 . S
C298 H318 0.931 . S
C299 C295 1.460 . S
C299 C298 1.477 . S
C299 H319 0.930 . S
C300 N296 1.362 . S
C300 C297 1.431 . S
C300 C310 1.476 . S
H301 C295 0.929 . S
C302 O293 1.250 . S
C302 O294 1.258 . S
O303 Mn288 2.162 . S
O303 C291 1.281 . S
O304 Mn288 2.297 . S
O304 C291 1.236 . S
N305 Mn289 2.282 . S
N305 C306 1.328 . S
N305 C310 1.318 . S
C306 N305 1.328 . S
C306 C307 1.457 . S
C306 H311 0.929 . S
C307 C306 1.457 . S
C307 C308 1.291 1_545 S
C307 H320 0.931 . S
C308 C307 1.291 1_565 S
C308 C309 1.373 1_565 S
C308 H321 0.929 . S
C309 C308 1.373 1_545 S
C309 C310 1.396 . S
C309 C316 1.403 1_545 S
C310 C300 1.476 . S
C310 N305 1.318 . S
C310 C309 1.396 . S
H311 C306 0.929 . S
O312 Mn288 2.385 . S
O312 C290 1.234 . S
O313 Mn288 2.209 . S
O313 Mn289 2.215 . S
O313 C290 1.283 . S
O314 Mn288 2.094 . S
O314 C292 1.240 . S
O315 Mn289 2.117 . S
O315 C292 1.264 . S
C316 C309 1.403 1_565 S
C316 C317 1.399 . S
C316 H322 0.929 . S
C317 C297 1.449 1_565 S
C317 C316 1.399 . S
C317 H323 0.930 . S
H318 C298 0.931 . S
H319 C299 0.930 . S
H320 C307 0.931 . S
H321 C308 0.929 . S
H322 C316 0.929 . S
H323 C317 0.930 . S
Mn324 O329 2.095 . S
Mn324 O339 2.162 . S
Mn324 O340 2.297 . S
Mn324 O348 2.385 . S
Mn324 O349 2.209 . S
Mn324 O350 2.094 . S
Mn325 O330 2.121 . S
Mn325 N332 2.257 . S
Mn325 N341 2.282 . S
Mn325 O349 2.215 . S
Mn325 O351 2.117 . S
C326 O348 1.234 . S
C326 O349 1.283 . S
C327 O339 1.281 . S
C327 O340 1.236 . S
C328 O350 1.240 . S
C328 O351 1.264 . S
O329 Mn324 2.095 . S
O329 C338 1.250 . S
O330 Mn325 2.121 . S
O330 C338 1.258 . S
C331 N332 1.326 . S
C331 C335 1.460 . S
C331 H337 0.929 . S
N332 Mn325 2.257 . S
N332 C331 1.326 . S
N332 C336 1.362 . S
C333 C334 1.258 . S
C333 C336 1.431 . S
C333 C353 1.449 . S
C334 C333 1.258 . S
C334 C335 1.477 . S
C334 H354 0.931 . S
C335 C331 1.460 . S
C335 C334 1.477 . S
C335 H355 0.930 . S
C336 N332 1.362 . S
C336 C333 1.431 . S
C336 C346 1.476 . S
H337 C331 0.929 . S
C338 O329 1.250 . S
C338 O330 1.258 . S
O339 Mn324 2.162 . S
O339 C327 1.281 . S
O340 Mn324 2.297 . S
O340 C327 1.236 . S
N341 Mn325 2.282 . S
N341 C342 1.328 . S
N341 C346 1.318 . S
C342 N341 1.328 . S
C342 C343 1.457 . S
C342 H347 0.929 . S
C343 C342 1.457 . S
C343 C344 1.291 . S
C343 H356 0.931 . S
C344 C343 1.291 . S
C344 C345 1.373 . S
C344 H357 0.929 1_655 S
C345 C344 1.373 . S
C345 C346 1.396 . S
C345 C352 1.403 1_655 S
C346 C336 1.476 . S
C346 N341 1.318 . S
C346 C345 1.396 . S
H347 C342 0.929 . S
O348 Mn324 2.385 . S
O348 C326 1.234 . S
O349 Mn324 2.209 . S
O349 Mn325 2.215 . S
O349 C326 1.283 . S
O350 Mn324 2.094 . S
O350 C328 1.240 . S
O351 Mn325 2.117 . S
O351 C328 1.264 . S
C352 C345 1.403 1_455 S
C352 C353 1.399 1_455 S
C352 H358 0.929 . S
C353 C333 1.449 . S
C353 C352 1.399 1_655 S
C353 H359 0.930 1_655 S
H354 C334 0.931 . S
H355 C335 0.930 . S
H356 C343 0.931 . S
H357 C344 0.929 1_455 S
H358 C352 0.929 . S
H359 C353 0.930 1_455 S
Mn360 O365 2.095 . S
Mn360 O375 2.162 . S
Mn360 O376 2.297 . S
Mn360 O384 2.385 . S
Mn360 O385 2.209 . S
Mn360 O386 2.094 . S
Mn361 O366 2.121 . S
Mn361 N368 2.257 . S
Mn361 N377 2.282 . S
Mn361 O385 2.215 . S
Mn361 O387 2.117 . S
C362 O384 1.234 . S
C362 O385 1.283 . S
C363 O375 1.281 . S
C363 O376 1.236 . S
C364 O386 1.240 . S
C364 O387 1.264 . S
O365 Mn360 2.095 . S
O365 C374 1.250 . S
O366 Mn361 2.121 . S
O366 C374 1.258 . S
C367 N368 1.326 . S
C367 C371 1.460 . S
C367 H373 0.929 . S
N368 Mn361 2.257 . S
N368 C367 1.326 . S
N368 C372 1.362 . S
C369 C370 1.258 . S
C369 C372 1.431 . S
C369 C389 1.449 . S
C370 C369 1.258 . S
C370 C371 1.477 . S
C370 H390 0.931 . S
C371 C367 1.460 . S
C371 C370 1.477 . S
C371 H391 0.930 . S
C372 N368 1.362 . S
C372 C369 1.431 . S
C372 C382 1.476 . S
H373 C367 0.929 . S
C374 O365 1.250 . S
C374 O366 1.258 . S
O375 Mn360 2.162 . S
O375 C363 1.281 . S
O376 Mn360 2.297 . S
O376 C363 1.236 . S
N377 Mn361 2.282 . S
N377 C378 1.328 . S
N377 C382 1.318 . S
C378 N377 1.328 . S
C378 C379 1.457 . S
C378 H383 0.929 . S
C379 C378 1.457 . S
C379 C380 1.291 . S
C379 H392 0.931 . S
C380 C379 1.291 . S
C380 C381 1.373 . S
C380 H393 0.929 . S
C381 C380 1.373 . S
C381 C382 1.396 . S
C381 C388 1.403 . S
C382 C372 1.476 . S
C382 N377 1.318 . S
C382 C381 1.396 . S
H383 C378 0.929 . S
O384 Mn360 2.385 . S
O384 C362 1.234 . S
O385 Mn360 2.209 . S
O385 Mn361 2.215 . S
O385 C362 1.283 . S
O386 Mn360 2.094 . S
O386 C364 1.240 . S
O387 Mn361 2.117 . S
O387 C364 1.264 . S
C388 C381 1.403 . S
C388 C389 1.399 . S
C388 H394 0.929 . S
C389 C369 1.449 . S
C389 C388 1.399 . S
C389 H395 0.930 . S
H390 C370 0.931 . S
H391 C371 0.930 . S
H392 C379 0.931 . S
H393 C380 0.929 . S
H394 C388 0.929 . S
H395 C389 0.930 . S
Mn396 O401 2.095 . S
Mn396 O411 2.162 . S
Mn396 O412 2.297 . S
Mn396 O420 2.385 . S
Mn396 O421 2.209 . S
Mn396 O422 2.094 . S
Mn397 O402 2.121 . S
Mn397 N404 2.257 . S
Mn397 N413 2.282 . S
Mn397 O421 2.215 . S
Mn397 O423 2.117 . S
C398 O420 1.234 . S
C398 O421 1.283 . S
C399 O411 1.281 . S
C399 O412 1.236 . S
C400 O422 1.240 . S
C400 O423 1.264 . S
O401 Mn396 2.095 . S
O401 C410 1.250 . S
O402 Mn397 2.121 . S
O402 C410 1.258 . S
C403 N404 1.326 . S
C403 C407 1.460 . S
C403 H409 0.929 . S
N404 Mn397 2.257 . S
N404 C403 1.326 . S
N404 C408 1.362 . S
C405 C406 1.258 . S
C405 C408 1.431 . S
C405 C425 1.449 . S
C406 C405 1.258 . S
C406 C407 1.477 . S
C406 H426 0.931 . S
C407 C403 1.460 . S
C407 C406 1.477 . S
C407 H427 0.930 . S
C408 N404 1.362 . S
C408 C405 1.431 . S
C408 C418 1.476 . S
H409 C403 0.929 . S
C410 O401 1.250 . S
C410 O402 1.258 . S
O411 Mn396 2.162 . S
O411 C399 1.281 . S
O412 Mn396 2.297 . S
O412 C399 1.236 . S
N413 Mn397 2.282 . S
N413 C414 1.328 . S
N413 C418 1.318 . S
C414 N413 1.328 . S
C414 C415 1.457 . S
C414 H419 0.929 . S
C415 C414 1.457 . S
C415 C416 1.291 . S
C415 H428 0.931 . S
C416 C415 1.291 . S
C416 C417 1.373 . S
C416 H429 0.929 . S
C417 C416 1.373 . S
C417 C418 1.396 . S
C417 C424 1.403 . S
C418 C408 1.476 . S
C418 N413 1.318 . S
C418 C417 1.396 . S
H419 C414 0.929 . S
O420 Mn396 2.385 . S
O420 C398 1.234 . S
O421 Mn396 2.209 . S
O421 Mn397 2.215 . S
O421 C398 1.283 . S
O422 Mn396 2.094 . S
O422 C400 1.240 . S
O423 Mn397 2.117 . S
O423 C400 1.264 . S
C424 C417 1.403 . S
C424 C425 1.399 . S
C424 H430 0.929 . S
C425 C405 1.449 . S
C425 C424 1.399 . S
C425 H431 0.930 . S
H426 C406 0.931 . S
H427 C407 0.930 . S
H428 C415 0.931 . S
H429 C416 0.929 . S
H430 C424 0.929 . S
H431 C425 0.930 . S
Mn432 O437 2.095 . S
Mn432 O447 2.162 . S
Mn432 O448 2.297 . S
Mn432 O456 2.385 . S
Mn432 O457 2.209 . S
Mn432 O458 2.094 . S
Mn433 O438 2.121 . S
Mn433 N440 2.257 . S
Mn433 N449 2.282 . S
Mn433 O457 2.215 . S
Mn433 O459 2.117 . S
C434 O456 1.234 . S
C434 O457 1.283 . S
C435 O447 1.281 . S
C435 O448 1.236 . S
C436 O458 1.240 . S
C436 O459 1.264 . S
O437 Mn432 2.095 . S
O437 C446 1.250 . S
O438 Mn433 2.121 . S
O438 C446 1.258 . S
C439 N440 1.326 . S
C439 C443 1.460 . S
C439 H445 0.929 . S
N440 Mn433 2.257 . S
N440 C439 1.326 . S
N440 C444 1.362 . S
C441 C442 1.258 . S
C441 C444 1.431 . S
C441 C461 1.449 . S
C442 C441 1.258 . S
C442 C443 1.477 . S
C442 H462 0.931 . S
C443 C439 1.460 . S
C443 C442 1.477 . S
C443 H463 0.930 . S
C444 N440 1.362 . S
C444 C441 1.431 . S
C444 C454 1.476 . S
H445 C439 0.929 . S
C446 O437 1.250 . S
C446 O438 1.258 . S
O447 Mn432 2.162 . S
O447 C435 1.281 . S
O448 Mn432 2.297 . S
O448 C435 1.236 . S
N449 Mn433 2.282 . S
N449 C450 1.328 . S
N449 C454 1.318 . S
C450 N449 1.328 . S
C450 C451 1.457 . S
C450 H455 0.929 . S
C451 C450 1.457 . S
C451 C452 1.291 . S
C451 H464 0.931 . S
C452 C451 1.291 . S
C452 C453 1.373 . S
C452 H465 0.929 . S
C453 C452 1.373 . S
C453 C454 1.396 . S
C453 C460 1.403 . S
C454 C444 1.476 . S
C454 N449 1.318 . S
C454 C453 1.396 . S
H455 C450 0.929 . S
O456 Mn432 2.385 . S
O456 C434 1.234 . S
O457 Mn432 2.209 . S
O457 Mn433 2.215 . S
O457 C434 1.283 . S
O458 Mn432 2.094 . S
O458 C436 1.240 . S
O459 Mn433 2.117 . S
O459 C436 1.264 . S
C460 C453 1.403 . S
C460 C461 1.399 . S
C460 H466 0.929 . S
C461 C441 1.449 . S
C461 C460 1.399 . S
C461 H467 0.930 . S
H462 C442 0.931 . S
H463 C443 0.930 . S
H464 C451 0.931 . S
H465 C452 0.929 . S
H466 C460 0.929 . S
H467 C461 0.930 . S
Mn468 O473 2.095 . S
Mn468 O483 2.162 . S
Mn468 O484 2.297 . S
Mn468 O492 2.385 . S
Mn468 O493 2.209 . S
Mn468 O494 2.094 . S
Mn469 O474 2.121 . S
Mn469 N476 2.257 . S
Mn469 N485 2.282 . S
Mn469 O493 2.215 . S
Mn469 O495 2.117 . S
C470 O492 1.234 . S
C470 O493 1.283 . S
C471 O483 1.281 . S
C471 O484 1.236 . S
C472 O494 1.240 . S
C472 O495 1.264 . S
O473 Mn468 2.095 . S
O473 C482 1.250 . S
O474 Mn469 2.121 . S
O474 C482 1.258 . S
C475 N476 1.326 . S
C475 C479 1.460 . S
C475 H481 0.929 . S
N476 Mn469 2.257 . S
N476 C475 1.326 . S
N476 C480 1.362 . S
C477 C478 1.258 . S
C477 C480 1.431 . S
C477 C497 1.449 . S
C478 C477 1.258 . S
C478 C479 1.477 . S
C478 H498 0.931 . S
C479 C475 1.460 . S
C479 C478 1.477 . S
C479 H499 0.930 . S
C480 N476 1.362 . S
C480 C477 1.431 . S
C480 C490 1.476 . S
H481 C475 0.929 . S
C482 O473 1.250 . S
C482 O474 1.258 . S
O483 Mn468 2.162 . S
O483 C471 1.281 . S
O484 Mn468 2.297 . S
O484 C471 1.236 . S
N485 Mn469 2.282 . S
N485 C486 1.328 . S
N485 C490 1.318 . S
C486 N485 1.328 . S
C486 C487 1.457 . S
C486 H491 0.929 . S
C487 C486 1.457 . S
C487 C488 1.291 . S
C487 H500 0.931 . S
C488 C487 1.291 . S
C488 C489 1.373 . S
C488 H501 0.929 . S
C489 C488 1.373 . S
C489 C490 1.396 . S
C489 C496 1.403 . S
C490 C480 1.476 . S
C490 N485 1.318 . S
C490 C489 1.396 . S
H491 C486 0.929 . S
O492 Mn468 2.385 . S
O492 C470 1.234 . S
O493 Mn468 2.209 . S
O493 Mn469 2.215 . S
O493 C470 1.283 . S
O494 Mn468 2.094 . S
O494 C472 1.240 . S
O495 Mn469 2.117 . S
O495 C472 1.264 . S
C496 C489 1.403 . S
C496 C497 1.399 . S
C496 H502 0.929 . S
C497 C477 1.449 . S
C497 C496 1.399 . S
C497 H503 0.930 . S
H498 C478 0.931 . S
H499 C479 0.930 . S
H500 C487 0.931 . S
H501 C488 0.929 . S
H502 C496 0.929 . S
H503 C497 0.930 . S
Mn504 O509 2.095 . S
Mn504 O519 2.162 . S
Mn504 O520 2.297 . S
Mn504 O528 2.385 . S
Mn504 O529 2.209 . S
Mn504 O530 2.094 . S
Mn505 O510 2.121 . S
Mn505 N512 2.257 . S
Mn505 N521 2.282 . S
Mn505 O529 2.215 . S
Mn505 O531 2.117 . S
C506 O528 1.234 . S
C506 O529 1.283 . S
C507 O519 1.281 . S
C507 O520 1.236 . S
C508 O530 1.240 . S
C508 O531 1.264 . S
O509 Mn504 2.095 . S
O509 C518 1.250 . S
O510 Mn505 2.121 . S
O510 C518 1.258 . S
C511 N512 1.326 . S
C511 C515 1.460 . S
C511 H517 0.929 . S
N512 Mn505 2.257 . S
N512 C511 1.326 . S
N512 C516 1.362 . S
C513 C514 1.258 . S
C513 C516 1.431 . S
C513 C533 1.449 1_545 S
C514 C513 1.258 . S
C514 C515 1.477 . S
C514 H534 0.931 . S
C515 C511 1.460 . S
C515 C514 1.477 . S
C515 H535 0.930 . S
C516 N512 1.362 . S
C516 C513 1.431 . S
C516 C526 1.476 . S
H517 C511 0.929 . S
C518 O509 1.250 . S
C518 O510 1.258 . S
O519 Mn504 2.162 . S
O519 C507 1.281 . S
O520 Mn504 2.297 . S
O520 C507 1.236 . S
N521 Mn505 2.282 . S
N521 C522 1.328 . S
N521 C526 1.318 . S
C522 N521 1.328 . S
C522 C523 1.457 . S
C522 H527 0.929 . S
C523 C522 1.457 . S
C523 C524 1.291 1_545 S
C523 H536 0.931 . S
C524 C523 1.291 1_565 S
C524 C525 1.365 1_565 S
C524 H537 0.929 . S
C525 C524 1.365 1_545 S
C525 C526 1.422 . S
C525 C532 1.385 1_545 S
C526 C516 1.476 . S
C526 N521 1.318 . S
C526 C525 1.422 . S
H527 C522 0.929 . S
O528 Mn504 2.385 . S
O528 C506 1.234 . S
O529 Mn504 2.209 . S
O529 Mn505 2.215 . S
O529 C506 1.283 . S
O530 Mn504 2.094 . S
O530 C508 1.240 . S
O531 Mn505 2.117 . S
O531 C508 1.264 . S
C532 C525 1.385 1_565 S
C532 C533 1.399 . S
C532 H538 0.929 . S
C533 C513 1.449 1_565 S
C533 C532 1.399 . S
C533 H539 0.930 . S
H534 C514 0.931 . S
H535 C515 0.930 . S
H536 C523 0.931 . S
H537 C524 0.929 . S
H538 C532 0.929 . S
H539 C533 0.930 . S
Mn540 O545 2.095 . S
Mn540 O555 2.162 . S
Mn540 O556 2.297 . S
Mn540 O564 2.385 . S
Mn540 O565 2.209 . S
Mn540 O566 2.094 . S
Mn541 O546 2.121 . S
Mn541 N548 2.257 . S
Mn541 N557 2.282 . S
Mn541 O565 2.215 . S
Mn541 O567 2.117 . S
C542 O564 1.234 . S
C542 O565 1.283 . S
C543 O555 1.281 . S
C543 O556 1.236 . S
C544 O566 1.240 . S
C544 O567 1.264 . S
O545 Mn540 2.095 . S
O545 C554 1.250 . S
O546 Mn541 2.121 . S
O546 C554 1.258 . S
C547 N548 1.326 . S
C547 C551 1.460 . S
C547 H553 0.929 . S
N548 Mn541 2.257 . S
N548 C547 1.326 . S
N548 C552 1.362 . S
C549 C550 1.258 . S
C549 C552 1.431 . S
C549 C569 1.449 1_655 S
C550 C549 1.258 . S
C550 C551 1.477 . S
C550 H570 0.931 . S
C551 C547 1.460 . S
C551 C550 1.477 . S
C551 H571 0.930 . S
C552 N548 1.362 . S
C552 C549 1.431 . S
C552 C562 1.476 . S
H553 C547 0.929 . S
C554 O545 1.250 . S
C554 O546 1.258 . S
O555 Mn540 2.162 . S
O555 C543 1.281 . S
O556 Mn540 2.297 . S
O556 C543 1.236 . S
N557 Mn541 2.282 . S
N557 C558 1.328 . S
N557 C562 1.318 . S
C558 N557 1.328 . S
C558 C559 1.457 . S
C558 H563 0.929 . S
C559 C558 1.457 . S
C559 C560 1.291 1_655 S
C559 H572 0.931 . S
C560 C559 1.291 1_455 S
C560 C561 1.373 1_455 S
C560 H573 0.929 . S
C561 C560 1.373 1_655 S
C561 C562 1.396 . S
C561 C568 1.403 1_655 S
C562 C552 1.476 . S
C562 N557 1.318 . S
C562 C561 1.396 . S
H563 C558 0.929 . S
O564 Mn540 2.385 . S
O564 C542 1.234 . S
O565 Mn540 2.209 . S
O565 Mn541 2.215 . S
O565 C542 1.283 . S
O566 Mn540 2.094 . S
O566 C544 1.240 . S
O567 Mn541 2.117 . S
O567 C544 1.264 . S
C568 C561 1.403 1_455 S
C568 C569 1.399 . S
C568 H574 0.929 . S
C569 C549 1.449 1_455 S
C569 C568 1.399 . S
C569 H575 0.930 . S
H570 C550 0.931 . S
H571 C551 0.930 . S
H572 C559 0.931 . S
H573 C560 0.929 . S
H574 C568 0.929 . S
H575 C569 0.930 . S
Mn576 O581 2.095 . S
Mn576 O591 2.162 . S
Mn576 O592 2.297 . S
Mn576 O600 2.385 . S
Mn576 O601 2.209 . S
Mn576 O602 2.094 . S
Mn577 O582 2.121 . S
Mn577 N584 2.257 . S
Mn577 N593 2.282 . S
Mn577 O601 2.215 . S
Mn577 O603 2.117 . S
C578 O600 1.234 . S
C578 O601 1.283 . S
C579 O591 1.281 . S
C579 O592 1.236 . S
C580 O602 1.240 . S
C580 O603 1.264 . S
O581 Mn576 2.095 . S
O581 C590 1.250 . S
O582 Mn577 2.121 . S
O582 C590 1.258 . S
C583 N584 1.326 . S
C583 C587 1.460 . S
C583 H589 0.929 . S
N584 Mn577 2.257 . S
N584 C583 1.326 . S
N584 C588 1.362 . S
C585 C586 1.258 . S
C585 C588 1.431 . S
C585 C605 1.449 1_554 S
C586 C585 1.258 . S
C586 C587 1.477 . S
C586 H606 0.931 . S
C587 C583 1.460 . S
C587 C586 1.477 . S
C587 H607 0.930 . S
C588 N584 1.362 . S
C588 C585 1.431 . S
C588 C598 1.476 . S
H589 C583 0.929 . S
C590 O581 1.250 . S
C590 O582 1.258 . S
O591 Mn576 2.162 . S
O591 C579 1.281 . S
O592 Mn576 2.297 . S
O592 C579 1.236 . S
N593 Mn577 2.282 . S
N593 C594 1.328 . S
N593 C598 1.318 . S
C594 N593 1.328 . S
C594 C595 1.457 . S
C594 H599 0.929 . S
C595 C594 1.457 . S
C595 C596 1.291 1_554 S
C595 H608 0.931 . S
C596 C595 1.291 1_556 S
C596 C597 1.373 1_556 S
C596 H609 0.929 . S
C597 C596 1.373 1_554 S
C597 C598 1.396 . S
C597 C604 1.403 1_554 S
C598 C588 1.476 . S
C598 N593 1.318 . S
C598 C597 1.396 . S
H599 C594 0.929 . S
O600 Mn576 2.385 . S
O600 C578 1.234 . S
O601 Mn576 2.209 . S
O601 Mn577 2.215 . S
O601 C578 1.283 . S
O602 Mn576 2.094 . S
O602 C580 1.240 . S
O603 Mn577 2.117 . S
O603 C580 1.264 . S
C604 C597 1.403 1_556 S
C604 C605 1.399 . S
C604 H610 0.929 . S
C605 C585 1.449 1_556 S
C605 C604 1.399 . S
C605 H611 0.930 . S
H606 C586 0.931 . S
H607 C587 0.930 . S
H608 C595 0.931 . S
H609 C596 0.929 . S
H610 C604 0.929 . S
H611 C605 0.930 . S
Mn612 O617 2.095 . S
Mn612 O627 2.162 . S
Mn612 O628 2.297 . S
Mn612 O636 2.385 . S
Mn612 O637 2.209 . S
Mn612 O638 2.094 . S
Mn613 O618 2.121 . S
Mn613 N620 2.257 . S
Mn613 N629 2.282 . S
Mn613 O637 2.215 . S
Mn613 O639 2.117 . S
C614 O636 1.234 . S
C614 O637 1.283 . S
C615 O627 1.281 . S
C615 O628 1.236 . S
C616 O638 1.240 . S
C616 O639 1.264 . S
O617 Mn612 2.095 . S
O617 C626 1.250 . S
O618 Mn613 2.121 . S
O618 C626 1.258 . S
C619 N620 1.326 . S
C619 C623 1.460 . S
C619 H625 0.929 . S
N620 Mn613 2.257 . S
N620 C619 1.326 . S
N620 C624 1.362 . S
C621 C622 1.258 . S
C621 C624 1.431 . S
C621 C641 1.449 . S
C622 C621 1.258 . S
C622 C623 1.477 . S
C622 H642 0.931 . S
C623 C619 1.460 . S
C623 C622 1.477 . S
C623 H643 0.930 . S
C624 N620 1.362 . S
C624 C621 1.431 . S
C624 C634 1.476 . S
H625 C619 0.929 . S
C626 O617 1.250 . S
C626 O618 1.258 . S
O627 Mn612 2.162 . S
O627 C615 1.281 . S
O628 Mn612 2.297 . S
O628 C615 1.236 . S
N629 Mn613 2.282 . S
N629 C630 1.328 . S
N629 C634 1.318 . S
C630 N629 1.328 . S
C630 C631 1.457 . S
C630 H635 0.929 . S
C631 C630 1.457 . S
C631 C632 1.291 . S
C631 H644 0.931 . S
C632 C631 1.291 . S
C632 C633 1.373 . S
C632 H645 0.929 . S
C633 C632 1.373 . S
C633 C634 1.396 . S
C633 C640 1.403 . S
C634 C624 1.476 . S
C634 N629 1.318 . S
C634 C633 1.396 . S
H635 C630 0.929 . S
O636 Mn612 2.385 . S
O636 C614 1.234 . S
O637 Mn612 2.209 . S
O637 Mn613 2.215 . S
O637 C614 1.283 . S
O638 Mn612 2.094 . S
O638 C616 1.240 . S
O639 Mn613 2.117 . S
O639 C616 1.264 . S
C640 C633 1.403 . S
C640 C641 1.399 . S
C640 H646 0.929 . S
C641 C621 1.449 . S
C641 C640 1.399 . S
C641 H647 0.930 . S
H642 C622 0.931 . S
H643 C623 0.930 . S
H644 C631 0.931 . S
H645 C632 0.929 . S
H646 C640 0.929 . S
H647 C641 0.930 . S
Mn648 O653 2.095 . S
Mn648 O663 2.162 . S
Mn648 O664 2.297 . S
Mn648 O672 2.385 . S
Mn648 O673 2.209 . S
Mn648 O674 2.094 . S
Mn649 O654 2.121 . S
Mn649 N656 2.257 . S
Mn649 N665 2.282 . S
Mn649 O673 2.215 . S
Mn649 O675 2.117 . S
C650 O672 1.234 . S
C650 O673 1.283 . S
C651 O663 1.281 . S
C651 O664 1.236 . S
C652 O674 1.240 . S
C652 O675 1.264 . S
O653 Mn648 2.095 . S
O653 C662 1.250 . S
O654 Mn649 2.121 . S
O654 C662 1.258 . S
C655 N656 1.326 . S
C655 C659 1.460 . S
C655 H661 0.929 . S
N656 Mn649 2.257 . S
N656 C655 1.326 . S
N656 C660 1.362 . S
C657 C658 1.258 . S
C657 C660 1.431 . S
C657 C677 1.449 1_556 S
C658 C657 1.258 . S
C658 C659 1.477 . S
C658 H678 0.931 . S
C659 C655 1.460 . S
C659 C658 1.477 . S
C659 H679 0.930 . S
C660 N656 1.362 . S
C660 C657 1.431 . S
C660 C670 1.476 . S
H661 C655 0.929 . S
C662 O653 1.250 . S
C662 O654 1.258 . S
O663 Mn648 2.162 . S
O663 C651 1.281 . S
O664 Mn648 2.297 . S
O664 C651 1.236 . S
N665 Mn649 2.282 . S
N665 C666 1.328 . S
N665 C670 1.318 . S
C666 N665 1.328 . S
C666 C667 1.457 . S
C666 H671 0.929 . S
C667 C666 1.457 . S
C667 C668 1.291 1_556 S
C667 H680 0.931 . S
C668 C667 1.291 1_554 S
C668 C669 1.373 1_554 S
C668 H681 0.929 . S
C669 C668 1.373 1_556 S
C669 C670 1.396 . S
C669 C676 1.403 1_556 S
C670 C660 1.476 . S
C670 N665 1.318 . S
C670 C669 1.396 . S
H671 C666 0.929 . S
O672 Mn648 2.385 . S
O672 C650 1.234 . S
O673 Mn648 2.209 . S
O673 Mn649 2.215 . S
O673 C650 1.283 . S
O674 Mn648 2.094 . S
O674 C652 1.240 . S
O675 Mn649 2.117 . S
O675 C652 1.264 . S
C676 C669 1.403 1_554 S
C676 C677 1.399 . S
C676 H682 0.929 . S
C677 C657 1.449 1_554 S
C677 C676 1.399 . S
C677 H683 0.930 . S
H678 C658 0.931 . S
H679 C659 0.930 . S
H680 C667 0.931 . S
H681 C668 0.929 . S
H682 C676 0.929 . S
H683 C677 0.930 . S
Mn684 O689 2.095 . S
Mn684 O699 2.162 . S
Mn684 O700 2.297 . S
Mn684 O708 2.385 . S
Mn684 O709 2.209 . S
Mn684 O710 2.094 . S
Mn685 O690 2.121 . S
Mn685 N692 2.257 . S
Mn685 N701 2.282 . S
Mn685 O709 2.215 . S
Mn685 O711 2.117 . S
C686 O708 1.234 . S
C686 O709 1.283 . S
C687 O699 1.281 . S
C687 O700 1.236 . S
C688 O710 1.240 . S
C688 O711 1.264 . S
O689 Mn684 2.095 . S
O689 C698 1.250 . S
O690 Mn685 2.121 . S
O690 C698 1.258 . S
C691 N692 1.326 . S
C691 C695 1.460 . S
C691 H697 0.929 . S
N692 Mn685 2.257 . S
N692 C691 1.326 . S
N692 C696 1.362 . S
C693 C694 1.258 . S
C693 C696 1.431 . S
C693 C713 1.449 . S
C694 C693 1.258 . S
C694 C695 1.477 . S
C694 H714 0.931 . S
C695 C691 1.460 . S
C695 C694 1.477 . S
C695 H715 0.930 . S
C696 N692 1.362 . S
C696 C693 1.431 . S
C696 C706 1.476 . S
H697 C691 0.929 . S
C698 O689 1.250 . S
C698 O690 1.258 . S
O699 Mn684 2.162 . S
O699 C687 1.281 . S
O700 Mn684 2.297 . S
O700 C687 1.236 . S
N701 Mn685 2.282 . S
N701 C702 1.328 . S
N701 C706 1.318 . S
C702 N701 1.328 . S
C702 C703 1.457 . S
C702 H707 0.929 . S
C703 C702 1.457 . S
C703 C704 1.291 . S
C703 H716 0.931 . S
C704 C703 1.291 . S
C704 C705 1.373 . S
C704 H717 0.929 . S
C705 C704 1.373 . S
C705 C706 1.396 . S
C705 C712 1.403 . S
C706 C696 1.476 . S
C706 N701 1.318 . S
C706 C705 1.396 . S
H707 C702 0.929 . S
O708 Mn684 2.385 . S
O708 C686 1.234 . S
O709 Mn684 2.209 . S
O709 Mn685 2.215 . S
O709 C686 1.283 . S
O710 Mn684 2.094 . S
O710 C688 1.240 . S
O711 Mn685 2.117 . S
O711 C688 1.264 . S
C712 C705 1.403 . S
C712 C713 1.399 . S
C712 H718 0.929 . S
C713 C693 1.449 . S
C713 C712 1.399 . S
C713 H719 0.930 . S
H714 C694 0.931 . S
H715 C695 0.930 . S
H716 C703 0.931 . S
H717 C704 0.929 . S
H718 C712 0.929 . S
H719 C713 0.930 . S
Mn720 O725 2.095 . S
Mn720 O735 2.162 . S
Mn720 O736 2.297 . S
Mn720 O744 2.385 . S
Mn720 O745 2.209 . S
Mn720 O746 2.094 . S
Mn721 O726 2.121 . S
Mn721 N728 2.257 . S
Mn721 N737 2.282 . S
Mn721 O745 2.215 . S
Mn721 O747 2.117 . S
C722 O744 1.234 . S
C722 O745 1.283 . S
C723 O735 1.281 . S
C723 O736 1.236 . S
C724 O746 1.240 . S
C724 O747 1.264 . S
O725 Mn720 2.095 . S
O725 C734 1.250 . S
O726 Mn721 2.121 . S
O726 C734 1.258 . S
C727 N728 1.326 . S
C727 C731 1.460 . S
C727 H733 0.929 . S
N728 Mn721 2.257 . S
N728 C727 1.326 . S
N728 C732 1.362 . S
C729 C730 1.258 . S
C729 C732 1.431 . S
C729 C749 1.429 1_556 S
C730 C729 1.258 . S
C730 C731 1.477 . S
C730 H750 0.931 . S
C731 C727 1.460 . S
C731 C730 1.477 . S
C731 H751 0.930 . S
C732 N728 1.362 . S
C732 C729 1.431 . S
C732 C742 1.476 . S
H733 C727 0.929 . S
C734 O725 1.250 . S
C734 O726 1.258 . S
O735 Mn720 2.162 . S
O735 C723 1.281 . S
O736 Mn720 2.297 . S
O736 C723 1.236 . S
N737 Mn721 2.282 . S
N737 C738 1.328 . S
N737 C742 1.318 . S
C738 N737 1.328 . S
C738 C739 1.457 . S
C738 H743 0.929 . S
C739 C738 1.457 . S
C739 C740 1.291 1_556 S
C739 H752 0.931 . S
C740 C739 1.291 1_554 S
C740 C741 1.373 1_554 S
C740 H753 0.929 . S
C741 C740 1.373 1_556 S
C741 C742 1.396 . S
C741 C748 1.403 1_556 S
C742 C732 1.476 . S
C742 N737 1.318 . S
C742 C741 1.396 . S
H743 C738 0.929 . S
O744 Mn720 2.385 . S
O744 C722 1.234 . S
O745 Mn720 2.209 . S
O745 Mn721 2.215 . S
O745 C722 1.283 . S
O746 Mn720 2.094 . S
O746 C724 1.240 . S
O747 Mn721 2.117 . S
O747 C724 1.264 . S
C748 C741 1.403 1_554 S
C748 C749 1.407 . S
C748 H754 0.929 . S
C749 C729 1.429 1_554 S
C749 C748 1.407 . S
C749 H755 0.943 . S
H750 C730 0.931 . S
H751 C731 0.930 . S
H752 C739 0.931 . S
H753 C740 0.929 . S
H754 C748 0.929 . S
H755 C749 0.943 . S
Mn756 O761 2.095 . S
Mn756 O771 2.162 . S
Mn756 O772 2.297 . S
Mn756 O780 2.385 . S
Mn756 O781 2.209 . S
Mn756 O782 2.094 . S
Mn757 O762 2.121 . S
Mn757 N764 2.257 . S
Mn757 N773 2.282 . S
Mn757 O781 2.215 . S
Mn757 O783 2.117 . S
C758 O780 1.234 . S
C758 O781 1.283 . S
C759 O771 1.281 . S
C759 O772 1.236 . S
C760 O782 1.240 . S
C760 O783 1.264 . S
O761 Mn756 2.095 . S
O761 C770 1.250 . S
O762 Mn757 2.121 . S
O762 C770 1.258 . S
C763 N764 1.326 . S
C763 C767 1.460 . S
C763 H769 0.929 . S
N764 Mn757 2.257 . S
N764 C763 1.326 . S
N764 C768 1.362 . S
C765 C766 1.258 . S
C765 C768 1.431 . S
C765 C785 1.449 1_554 S
C766 C765 1.258 . S
C766 C767 1.477 . S
C766 H786 0.931 . S
C767 C763 1.460 . S
C767 C766 1.477 . S
C767 H787 0.930 . S
C768 N764 1.362 . S
C768 C765 1.431 . S
C768 C778 1.476 . S
H769 C763 0.929 . S
C770 O761 1.250 . S
C770 O762 1.258 . S
O771 Mn756 2.162 . S
O771 C759 1.281 . S
O772 Mn756 2.297 . S
O772 C759 1.236 . S
N773 Mn757 2.282 . S
N773 C774 1.328 . S
N773 C778 1.318 . S
C774 N773 1.328 . S
C774 C775 1.457 . S
C774 H779 0.929 . S
C775 C774 1.457 . S
C775 C776 1.291 1_554 S
C775 H788 0.931 . S
C776 C775 1.291 1_556 S
C776 C777 1.363 1_556 S
C776 H789 0.929 . S
C777 C776 1.363 1_554 S
C777 C778 1.426 . S
C777 C784 1.384 1_554 S
C778 C768 1.476 . S
C778 N773 1.318 . S
C778 C777 1.426 . S
H779 C774 0.929 . S
O780 Mn756 2.385 . S
O780 C758 1.234 . S
O781 Mn756 2.209 . S
O781 Mn757 2.215 . S
O781 C758 1.283 . S
O782 Mn756 2.094 . S
O782 C760 1.240 . S
O783 Mn757 2.117 . S
O783 C760 1.264 . S
C784 C777 1.384 1_556 S
C784 C785 1.399 . S
C784 H790 0.929 . S
C785 C765 1.449 1_556 S
C785 C784 1.399 . S
C785 H791 0.930 . S
H786 C766 0.931 . S
H787 C767 0.930 . S
H788 C775 0.931 . S
H789 C776 0.929 . S
H790 C784 0.929 . S
H791 C785 0.930 . S
Mn792 O797 2.095 . S
Mn792 O807 2.162 . S
Mn792 O808 2.297 . S
Mn792 O816 2.385 . S
Mn792 O817 2.209 . S
Mn792 O818 2.094 . S
Mn793 O798 2.121 . S
Mn793 N800 2.257 . S
Mn793 N809 2.282 . S
Mn793 O817 2.215 . S
Mn793 O819 2.117 . S
C794 O816 1.234 . S
C794 O817 1.283 . S
C795 O807 1.281 . S
C795 O808 1.236 . S
C796 O818 1.240 . S
C796 O819 1.264 . S
O797 Mn792 2.095 . S
O797 C806 1.250 . S
O798 Mn793 2.121 . S
O798 C806 1.258 . S
C799 N800 1.326 . S
C799 C803 1.460 . S
C799 H805 0.929 . S
N800 Mn793 2.257 . S
N800 C799 1.326 . S
N800 C804 1.362 . S
C801 C802 1.258 . S
C801 C804 1.431 . S
C801 C821 1.449 . S
C802 C801 1.258 . S
C802 C803 1.477 . S
C802 H822 0.931 . S
C803 C799 1.460 . S
C803 C802 1.477 . S
C803 H823 0.930 . S
C804 N800 1.362 . S
C804 C801 1.431 . S
C804 C814 1.476 . S
H805 C799 0.929 . S
C806 O797 1.250 . S
C806 O798 1.258 . S
O807 Mn792 2.162 . S
O807 C795 1.281 . S
O808 Mn792 2.297 . S
O808 C795 1.236 . S
N809 Mn793 2.282 . S
N809 C810 1.328 . S
N809 C814 1.318 . S
C810 N809 1.328 . S
C810 C811 1.457 . S
C810 H815 0.929 . S
C811 C810 1.457 . S
C811 C812 1.291 . S
C811 H824 0.931 . S
C812 C811 1.291 . S
C812 C813 1.373 . S
C812 H825 0.929 . S
C813 C812 1.373 . S
C813 C814 1.396 . S
C813 C820 1.403 . S
C814 C804 1.476 . S
C814 N809 1.318 . S
C814 C813 1.396 . S
H815 C810 0.929 . S
O816 Mn792 2.385 . S
O816 C794 1.234 . S
O817 Mn792 2.209 . S
O817 Mn793 2.215 . S
O817 C794 1.283 . S
O818 Mn792 2.094 . S
O818 C796 1.240 . S
O819 Mn793 2.117 . S
O819 C796 1.264 . S
C820 C813 1.403 . S
C820 C821 1.399 . S
C820 H826 0.929 . S
C821 C801 1.449 . S
C821 C820 1.399 . S
C821 H827 0.930 . S
H822 C802 0.931 . S
H823 C803 0.930 . S
H824 C811 0.931 . S
H825 C812 0.929 . S
H826 C820 0.929 . S
H827 C821 0.930 . S
Mn828 O833 2.095 . S
Mn828 O843 2.162 . S
Mn828 O844 2.297 . S
Mn828 O852 2.385 . S
Mn828 O853 2.209 . S
Mn828 O854 2.094 . S
Mn829 O834 2.121 . S
Mn829 N836 2.257 . S
Mn829 N845 2.282 . S
Mn829 O853 2.215 . S
Mn829 O855 2.117 . S
C830 O852 1.234 . S
C830 O853 1.283 . S
C831 O843 1.281 . S
C831 O844 1.236 . S
C832 O854 1.240 . S
C832 O855 1.264 . S
O833 Mn828 2.095 . S
O833 C842 1.250 . S
O834 Mn829 2.121 . S
O834 C842 1.258 . S
C835 N836 1.326 . S
C835 C839 1.460 . S
C835 H841 0.929 . S
N836 Mn829 2.257 . S
N836 C835 1.326 . S
N836 C840 1.362 . S
C837 C838 1.258 . S
C837 C840 1.431 . S
C837 C857 1.449 . S
C838 C837 1.258 . S
C838 C839 1.477 . S
C838 H858 0.931 . S
C839 C835 1.460 . S
C839 C838 1.477 . S
C839 H859 0.930 . S
C840 N836 1.362 . S
C840 C837 1.431 . S
C840 C850 1.476 . S
H841 C835 0.929 . S
C842 O833 1.250 . S
C842 O834 1.258 . S
O843 Mn828 2.162 . S
O843 C831 1.281 . S
O844 Mn828 2.297 . S
O844 C831 1.236 . S
N845 Mn829 2.282 . S
N845 C846 1.328 . S
N845 C850 1.318 . S
C846 N845 1.328 . S
C846 C847 1.457 . S
C846 H851 0.929 . S
C847 C846 1.457 . S
C847 C848 1.291 . S
C847 H860 0.931 . S
C848 C847 1.291 . S
C848 C849 1.373 . S
C848 H861 0.929 . S
C849 C848 1.373 . S
C849 C850 1.396 . S
C849 C856 1.403 . S
C850 C840 1.476 . S
C850 N845 1.318 . S
C850 C849 1.396 . S
H851 C846 0.929 . S
O852 Mn828 2.385 . S
O852 C830 1.234 . S
O853 Mn828 2.209 . S
O853 Mn829 2.215 . S
O853 C830 1.283 . S
O854 Mn828 2.094 . S
O854 C832 1.240 . S
O855 Mn829 2.117 . S
O855 C832 1.264 . S
C856 C849 1.403 . S
C856 C857 1.399 . S
C856 H862 0.929 . S
C857 C837 1.449 . S
C857 C856 1.399 . S
C857 H863 0.930 . S
H858 C838 0.931 . S
H859 C839 0.930 . S
H860 C847 0.931 . S
H861 C848 0.929 . S
H862 C856 0.929 . S
H863 C857 0.930 . S
Mn864 O869 2.095 . S
Mn864 O879 2.162 . S
Mn864 O880 2.297 . S
Mn864 O888 2.385 . S
Mn864 O889 2.209 . S
Mn864 O890 2.094 . S
Mn865 O870 2.121 . S
Mn865 N872 2.257 . S
Mn865 N881 2.282 . S
Mn865 O889 2.215 . S
Mn865 O891 2.117 . S
C866 O888 1.234 . S
C866 O889 1.283 . S
C867 O879 1.281 . S
C867 O880 1.236 . S
C868 O890 1.240 . S
C868 O891 1.264 . S
O869 Mn864 2.095 . S
O869 C878 1.250 . S
O870 Mn865 2.121 . S
O870 C878 1.258 . S
C871 N872 1.326 . S
C871 C875 1.460 . S
C871 H877 0.929 . S
N872 Mn865 2.257 . S
N872 C871 1.326 . S
N872 C876 1.362 . S
C873 C874 1.258 . S
C873 C876 1.431 . S
C873 C893 1.449 . S
C874 C873 1.258 . S
C874 C875 1.477 . S
C874 H894 0.931 . S
C875 C871 1.460 . S
C875 C874 1.477 . S
C875 H895 0.930 . S
C876 N872 1.362 . S
C876 C873 1.431 . S
C876 C886 1.476 . S
H877 C871 0.929 . S
C878 O869 1.250 . S
C878 O870 1.258 . S
O879 Mn864 2.162 . S
O879 C867 1.281 . S
O880 Mn864 2.297 . S
O880 C867 1.236 . S
N881 Mn865 2.282 . S
N881 C882 1.328 . S
N881 C886 1.318 . S
C882 N881 1.328 . S
C882 C883 1.457 . S
C882 H887 0.929 . S
C883 C882 1.457 . S
C883 C884 1.291 . S
C883 H896 0.931 . S
C884 C883 1.291 . S
C884 C885 1.373 . S
C884 H897 0.929 . S
C885 C884 1.373 . S
C885 C886 1.396 . S
C885 C892 1.403 . S
C886 C876 1.476 . S
C886 N881 1.318 . S
C886 C885 1.396 . S
H887 C882 0.929 . S
O888 Mn864 2.385 . S
O888 C866 1.234 . S
O889 Mn864 2.209 . S
O889 Mn865 2.215 . S
O889 C866 1.283 . S
O890 Mn864 2.094 . S
O890 C868 1.240 . S
O891 Mn865 2.117 . S
O891 C868 1.264 . S
C892 C885 1.403 . S
C892 C893 1.399 . S
C892 H898 0.929 . S
C893 C873 1.449 . S
C893 C892 1.399 . S
C893 H899 0.930 . S
H894 C874 0.931 . S
H895 C875 0.930 . S
H896 C883 0.931 . S
H897 C884 0.929 . S
H898 C892 0.929 . S
H899 C893 0.930 . S
Mn900 O905 2.095 . S
Mn900 O915 2.162 . S
Mn900 O916 2.297 . S
Mn900 O924 2.385 . S
Mn900 O925 2.209 . S
Mn900 O926 2.094 . S
Mn901 O906 2.121 . S
Mn901 N908 2.257 . S
Mn901 N917 2.282 . S
Mn901 O925 2.215 . S
Mn901 O927 2.117 . S
C902 O924 1.234 . S
C902 O925 1.283 . S
C903 O915 1.281 . S
C903 O916 1.236 . S
C904 O926 1.240 . S
C904 O927 1.264 . S
O905 Mn900 2.095 . S
O905 C914 1.250 . S
O906 Mn901 2.121 . S
O906 C914 1.258 . S
C907 N908 1.326 . S
C907 C911 1.460 . S
C907 H913 0.929 . S
N908 Mn901 2.257 . S
N908 C907 1.326 . S
N908 C912 1.362 . S
C909 C910 1.258 . S
C909 C912 1.431 . S
C909 C929 1.482 . S
C910 C909 1.258 . S
C910 C911 1.477 . S
C910 H930 0.931 . S
C911 C907 1.460 . S
C911 C910 1.477 . S
C911 H931 0.930 . S
C912 N908 1.362 . S
C912 C909 1.431 . S
C912 C922 1.476 . S
H913 C907 0.929 . S
C914 O905 1.250 . S
C914 O906 1.258 . S
O915 Mn900 2.162 . S
O915 C903 1.281 . S
O916 Mn900 2.297 . S
O916 C903 1.236 . S
N917 Mn901 2.282 . S
N917 C918 1.328 . S
N917 C922 1.318 . S
C918 N917 1.328 . S
C918 C919 1.457 . S
C918 H923 0.929 . S
C919 C918 1.457 . S
C919 C920 1.293 1_565 S
C919 H932 0.931 . S
C920 C919 1.293 1_545 S
C920 C921 1.373 1_545 S
C920 H933 0.927 . S
C921 C920 1.373 1_565 S
C921 C922 1.396 . S
C921 C928 1.403 1_565 S
C922 C912 1.476 . S
C922 N917 1.318 . S
C922 C921 1.396 . S
H923 C918 0.929 . S
O924 Mn900 2.385 . S
O924 C902 1.234 . S
O925 Mn900 2.209 . S
O925 Mn901 2.215 . S
O925 C902 1.283 . S
O926 Mn900 2.094 . S
O926 C904 1.240 . S
O927 Mn901 2.117 . S
O927 C904 1.264 . S
C928 C921 1.403 1_545 S
C928 C929 1.388 1_545 S
C928 H934 0.929 . S
C929 C909 1.482 . S
C929 C928 1.388 1_565 S
C929 H935 0.908 1_565 S
H930 C910 0.931 . S
H931 C911 0.930 . S
H932 C919 0.931 . S
H933 C920 0.927 . S
H934 C928 0.929 . S
H935 C929 0.908 1_545 S
Mn936 O941 2.095 . S
Mn936 O951 2.162 . S
Mn936 O952 2.297 . S
Mn936 O960 2.385 . S
Mn936 O961 2.209 . S
Mn936 O962 2.094 . S
Mn937 O942 2.121 . S
Mn937 N944 2.257 . S
Mn937 N953 2.282 . S
Mn937 O961 2.215 . S
Mn937 O963 2.117 . S
C938 O960 1.234 . S
C938 O961 1.283 . S
C939 O951 1.281 . S
C939 O952 1.236 . S
C940 O962 1.240 . S
C940 O963 1.264 . S
O941 Mn936 2.095 . S
O941 C950 1.250 . S
O942 Mn937 2.121 . S
O942 C950 1.258 . S
C943 N944 1.326 . S
C943 C947 1.460 . S
C943 H949 0.929 . S
N944 Mn937 2.257 . S
N944 C943 1.326 . S
N944 C948 1.362 . S
C945 C946 1.258 . S
C945 C948 1.431 . S
C945 C965 1.449 . S
C946 C945 1.258 . S
C946 C947 1.477 . S
C946 H966 0.931 . S
C947 C943 1.460 . S
C947 C946 1.477 . S
C947 H967 0.930 . S
C948 N944 1.362 . S
C948 C945 1.431 . S
C948 C958 1.476 . S
H949 C943 0.929 . S
C950 O941 1.250 . S
C950 O942 1.258 . S
O951 Mn936 2.162 . S
O951 C939 1.281 . S
O952 Mn936 2.297 . S
O952 C939 1.236 . S
N953 Mn937 2.282 . S
N953 C954 1.328 . S
N953 C958 1.318 . S
C954 N953 1.328 . S
C954 C955 1.457 . S
C954 H959 0.929 . S
C955 C954 1.457 . S
C955 C956 1.291 . S
C955 H968 0.931 . S
C956 C955 1.291 . S
C956 C957 1.373 . S
C956 H969 0.929 . S
C957 C956 1.373 . S
C957 C958 1.396 . S
C957 C964 1.403 . S
C958 C948 1.476 . S
C958 N953 1.318 . S
C958 C957 1.396 . S
H959 C954 0.929 . S
O960 Mn936 2.385 . S
O960 C938 1.234 . S
O961 Mn936 2.209 . S
O961 Mn937 2.215 . S
O961 C938 1.283 . S
O962 Mn936 2.094 . S
O962 C940 1.240 . S
O963 Mn937 2.117 . S
O963 C940 1.264 . S
C964 C957 1.403 . S
C964 C965 1.399 . S
C964 H970 0.929 . S
C965 C945 1.449 . S
C965 C964 1.399 . S
C965 H971 0.930 . S
H966 C946 0.931 . S
H967 C947 0.930 . S
H968 C955 0.931 . S
H969 C956 0.929 . S
H970 C964 0.929 . S
H971 C965 0.930 . S
Mn972 O977 2.095 . S
Mn972 O987 2.162 . S
Mn972 O988 2.297 . S
Mn972 O996 2.385 . S
Mn972 O997 2.209 . S
Mn972 O998 2.094 . S
Mn973 O978 2.121 . S
Mn973 N980 2.257 . S
Mn973 N989 2.282 . S
Mn973 O997 2.215 . S
Mn973 O999 2.117 . S
C974 O996 1.234 . S
C974 O997 1.283 . S
C975 O987 1.281 . S
C975 O988 1.236 . S
C976 O998 1.240 . S
C976 O999 1.264 . S
O977 Mn972 2.095 . S
O977 C986 1.250 . S
O978 Mn973 2.121 . S
O978 C986 1.258 . S
C979 N980 1.326 . S
C979 C983 1.460 . S
C979 H985 0.929 . S
N980 Mn973 2.257 . S
N980 C979 1.326 . S
N980 C984 1.362 . S
C981 C982 1.258 . S
C981 C984 1.431 . S
C981 C1001 1.426 1_545 S
C982 C981 1.258 . S
C982 C983 1.477 . S
C982 H1002 0.931 . S
C983 C979 1.460 . S
C983 C982 1.477 . S
C983 H1003 0.930 . S
C984 N980 1.362 . S
C984 C981 1.431 . S
C984 C994 1.476 . S
H985 C979 0.929 . S
C986 O977 1.250 . S
C986 O978 1.258 . S
O987 Mn972 2.162 . S
O987 C975 1.281 . S
O988 Mn972 2.297 . S
O988 C975 1.236 . S
N989 Mn973 2.282 . S
N989 C990 1.328 . S
N989 C994 1.318 . S
C990 N989 1.328 . S
C990 C991 1.457 . S
C990 H995 0.929 . S
C991 C990 1.457 . S
C991 C992 1.291 1_545 S
C991 H1004 0.931 . S
C992 C991 1.291 1_565 S
C992 C993 1.373 1_565 S
C992 H1005 0.929 . S
C993 C992 1.373 1_545 S
C993 C994 1.396 . S
C993 C1000 1.403 1_545 S
C994 C984 1.476 . S
C994 N989 1.318 . S
C994 C993 1.396 . S
H995 C990 0.929 . S
O996 Mn972 2.385 . S
O996 C974 1.234 . S
O997 Mn972 2.209 . S
O997 Mn973 2.215 . S
O997 C974 1.283 . S
O998 Mn972 2.094 . S
O998 C976 1.240 . S
O999 Mn973 2.117 . S
O999 C976 1.264 . S
C1000 C993 1.403 1_565 S
C1000 C1001 1.407 . S
C1000 H1006 0.929 . S
C1001 C981 1.426 1_565 S
C1001 C1000 1.407 . S
C1001 H1007 0.945 . S
H1002 C982 0.931 . S
H1003 C983 0.930 . S
H1004 C991 0.931 . S
H1005 C992 0.929 . S
H1006 C1000 0.929 . S
H1007 C1001 0.945 . S
Mn1008 O1013 2.095 . S
Mn1008 O1023 2.162 . S
Mn1008 O1024 2.297 . S
Mn1008 O1032 2.385 . S
Mn1008 O1033 2.209 . S
Mn1008 O1034 2.094 . S
Mn1009 O1014 2.121 . S
Mn1009 N1016 2.257 . S
Mn1009 N1025 2.282 . S
Mn1009 O1033 2.215 . S
Mn1009 O1035 2.117 . S
C1010 O1032 1.234 . S
C1010 O1033 1.283 . S
C1011 O1023 1.281 . S
C1011 O1024 1.236 . S
C1012 O1034 1.240 . S
C1012 O1035 1.264 . S
O1013 Mn1008 2.095 . S
O1013 C1022 1.250 . S
O1014 Mn1009 2.121 . S
O1014 C1022 1.258 . S
C1015 N1016 1.326 . S
C1015 C1019 1.460 . S
C1015 H1021 0.929 . S
N1016 Mn1009 2.257 . S
N1016 C1015 1.326 . S
N1016 C1020 1.362 . S
C1017 C1018 1.258 . S
C1017 C1020 1.431 . S
C1017 C1037 1.449 . S
C1018 C1017 1.258 . S
C1018 C1019 1.477 . S
C1018 H1038 0.931 . S
C1019 C1015 1.460 . S
C1019 C1018 1.477 . S
C1019 H1039 0.930 . S
C1020 N1016 1.362 . S
C1020 C1017 1.431 . S
C1020 C1030 1.476 . S
H1021 C1015 0.929 . S
C1022 O1013 1.250 . S
C1022 O1014 1.258 . S
O1023 Mn1008 2.162 . S
O1023 C1011 1.281 . S
O1024 Mn1008 2.297 . S
O1024 C1011 1.236 . S
N1025 Mn1009 2.282 . S
N1025 C1026 1.328 . S
N1025 C1030 1.318 . S
C1026 N1025 1.328 . S
C1026 C1027 1.457 . S
C1026 H1031 0.929 . S
C1027 C1026 1.457 . S
C1027 C1028 1.289 1_655 S
C1027 H1040 0.931 . S
C1028 C1027 1.289 1_455 S
C1028 C1029 1.371 1_455 S
C1028 H1041 0.933 . S
C1029 C1028 1.371 1_655 S
C1029 C1030 1.396 . S
C1029 C1036 1.403 1_655 S
C1030 C1020 1.476 . S
C1030 N1025 1.318 . S
C1030 C1029 1.396 . S
H1031 C1026 0.929 . S
O1032 Mn1008 2.385 . S
O1032 C1010 1.234 . S
O1033 Mn1008 2.209 . S
O1033 Mn1009 2.215 . S
O1033 C1010 1.283 . S
O1034 Mn1008 2.094 . S
O1034 C1012 1.240 . S
O1035 Mn1009 2.117 . S
O1035 C1012 1.264 . S
C1036 C1029 1.403 1_455 S
C1036 C1037 1.399 1_455 S
C1036 H1042 0.929 . S
C1037 C1017 1.449 . S
C1037 C1036 1.399 1_655 S
C1037 H1043 0.930 1_655 S
H1038 C1018 0.931 . S
H1039 C1019 0.930 . S
H1040 C1027 0.931 . S
H1041 C1028 0.933 . S
H1042 C1036 0.929 . S
H1043 C1037 0.930 1_455 S
Mn1044 O1049 2.095 . S
Mn1044 O1059 2.162 . S
Mn1044 O1060 2.297 . S
Mn1044 O1068 2.385 . S
Mn1044 O1069 2.209 . S
Mn1044 O1070 2.094 . S
Mn1045 O1050 2.121 . S
Mn1045 N1052 2.257 . S
Mn1045 N1061 2.282 . S
Mn1045 O1069 2.215 . S
Mn1045 O1071 2.117 . S
C1046 O1068 1.234 . S
C1046 O1069 1.283 . S
C1047 O1059 1.281 . S
C1047 O1060 1.236 . S
C1048 O1070 1.240 . S
C1048 O1071 1.264 . S
O1049 Mn1044 2.095 . S
O1049 C1058 1.250 . S
O1050 Mn1045 2.121 . S
O1050 C1058 1.258 . S
C1051 N1052 1.326 . S
C1051 C1055 1.460 . S
C1051 H1057 0.929 . S
N1052 Mn1045 2.257 . S
N1052 C1051 1.326 . S
N1052 C1056 1.362 . S
C1053 C1054 1.258 . S
C1053 C1056 1.431 . S
C1053 C1073 1.449 . S
C1054 C1053 1.258 . S
C1054 C1055 1.477 . S
C1054 H1074 0.931 . S
C1055 C1051 1.460 . S
C1055 C1054 1.477 . S
C1055 H1075 0.930 . S
C1056 N1052 1.362 . S
C1056 C1053 1.431 . S
C1056 C1066 1.476 . S
H1057 C1051 0.929 . S
C1058 O1049 1.250 . S
C1058 O1050 1.258 . S
O1059 Mn1044 2.162 . S
O1059 C1047 1.281 . S
O1060 Mn1044 2.297 . S
O1060 C1047 1.236 . S
N1061 Mn1045 2.282 . S
N1061 C1062 1.328 . S
N1061 C1066 1.318 . S
C1062 N1061 1.328 . S
C1062 C1063 1.457 . S
C1062 H1067 0.929 . S
C1063 C1062 1.457 . S
C1063 C1064 1.291 . S
C1063 H1076 0.931 . S
C1064 C1063 1.291 . S
C1064 C1065 1.373 . S
C1064 H1077 0.929 . S
C1065 C1064 1.373 . S
C1065 C1066 1.396 . S
C1065 C1072 1.403 . S
C1066 C1056 1.476 . S
C1066 N1061 1.318 . S
C1066 C1065 1.396 . S
H1067 C1062 0.929 . S
O1068 Mn1044 2.385 . S
O1068 C1046 1.234 . S
O1069 Mn1044 2.209 . S
O1069 Mn1045 2.215 . S
O1069 C1046 1.283 . S
O1070 Mn1044 2.094 . S
O1070 C1048 1.240 . S
O1071 Mn1045 2.117 . S
O1071 C1048 1.264 . S
C1072 C1065 1.403 . S
C1072 C1073 1.399 . S
C1072 H1078 0.929 . S
C1073 C1053 1.449 . S
C1073 C1072 1.399 . S
C1073 H1079 0.930 . S
H1074 C1054 0.931 . S
H1075 C1055 0.930 . S
H1076 C1063 0.931 . S
H1077 C1064 0.929 . S
H1078 C1072 0.929 . S
H1079 C1073 0.930 . S
Mn1080 O1085 2.095 . S
Mn1080 O1095 2.162 . S
Mn1080 O1096 2.297 . S
Mn1080 O1104 2.385 . S
Mn1080 O1105 2.209 . S
Mn1080 O1106 2.094 . S
Mn1081 O1086 2.121 . S
Mn1081 N1088 2.257 . S
Mn1081 N1097 2.282 . S
Mn1081 O1105 2.215 . S
Mn1081 O1107 2.117 . S
C1082 O1104 1.234 . S
C1082 O1105 1.283 . S
C1083 O1095 1.281 . S
C1083 O1096 1.236 . S
C1084 O1106 1.240 . S
C1084 O1107 1.264 . S
O1085 Mn1080 2.095 . S
O1085 C1094 1.250 . S
O1086 Mn1081 2.121 . S
O1086 C1094 1.258 . S
C1087 N1088 1.326 . S
C1087 C1091 1.460 . S
C1087 H1093 0.929 . S
N1088 Mn1081 2.257 . S
N1088 C1087 1.326 . S
N1088 C1092 1.362 . S
C1089 C1090 1.258 . S
C1089 C1092 1.431 . S
C1089 C1109 1.449 . S
C1090 C1089 1.258 . S
C1090 C1091 1.477 . S
C1090 H1110 0.931 . S
C1091 C1087 1.460 . S
C1091 C1090 1.477 . S
C1091 H1111 0.930 . S
C1092 N1088 1.362 . S
C1092 C1089 1.431 . S
C1092 C1102 1.476 . S
H1093 C1087 0.929 . S
C1094 O1085 1.250 . S
C1094 O1086 1.258 . S
O1095 Mn1080 2.162 . S
O1095 C1083 1.281 . S
O1096 Mn1080 2.297 . S
O1096 C1083 1.236 . S
N1097 Mn1081 2.282 . S
N1097 C1098 1.328 . S
N1097 C1102 1.318 . S
C1098 N1097 1.328 . S
C1098 C1099 1.457 . S
C1098 H1103 0.929 . S
C1099 C1098 1.457 . S
C1099 C1100 1.321 . S
C1099 H1112 0.931 . S
C1100 C1099 1.321 . S
C1100 C1101 1.386 . S
C1100 H1113 0.887 1_455 S
C1101 C1100 1.386 . S
C1101 C1102 1.396 . S
C1101 C1108 1.403 1_455 S
C1102 C1092 1.476 . S
C1102 N1097 1.318 . S
C1102 C1101 1.396 . S
H1103 C1098 0.929 . S
O1104 Mn1080 2.385 . S
O1104 C1082 1.234 . S
O1105 Mn1080 2.209 . S
O1105 Mn1081 2.215 . S
O1105 C1082 1.283 . S
O1106 Mn1080 2.094 . S
O1106 C1084 1.240 . S
O1107 Mn1081 2.117 . S
O1107 C1084 1.264 . S
C1108 C1101 1.403 1_655 S
C1108 C1109 1.399 1_655 S
C1108 H1114 0.929 . S
C1109 C1089 1.449 . S
C1109 C1108 1.399 1_455 S
C1109 H1115 0.930 1_455 S
H1110 C1090 0.931 . S
H1111 C1091 0.930 . S
H1112 C1099 0.931 . S
H1113 C1100 0.887 1_655 S
H1114 C1108 0.929 . S
H1115 C1109 0.930 1_655 S
Mn1116 O1121 2.095 . S
Mn1116 O1131 2.162 . S
Mn1116 O1132 2.297 . S
Mn1116 O1140 2.385 . S
Mn1116 O1141 2.209 . S
Mn1116 O1142 2.094 . S
Mn1117 O1122 2.121 . S
Mn1117 N1124 2.257 . S
Mn1117 N1133 2.282 . S
Mn1117 O1141 2.215 . S
Mn1117 O1143 2.117 . S
C1118 O1140 1.234 . S
C1118 O1141 1.283 . S
C1119 O1131 1.281 . S
C1119 O1132 1.236 . S
C1120 O1142 1.240 . S
C1120 O1143 1.264 . S
O1121 Mn1116 2.095 . S
O1121 C1130 1.250 . S
O1122 Mn1117 2.121 . S
O1122 C1130 1.258 . S
C1123 N1124 1.326 . S
C1123 C1127 1.460 . S
C1123 H1129 0.929 . S
N1124 Mn1117 2.257 . S
N1124 C1123 1.326 . S
N1124 C1128 1.362 . S
C1125 C1126 1.258 . S
C1125 C1128 1.431 . S
C1125 C1145 1.449 . S
C1126 C1125 1.258 . S
C1126 C1127 1.477 . S
C1126 H1146 0.931 . S
C1127 C1123 1.460 . S
C1127 C1126 1.477 . S
C1127 H1147 0.930 . S
C1128 N1124 1.362 . S
C1128 C1125 1.431 . S
C1128 C1138 1.476 . S
H1129 C1123 0.929 . S
C1130 O1121 1.250 . S
C1130 O1122 1.258 . S
O1131 Mn1116 2.162 . S
O1131 C1119 1.281 . S
O1132 Mn1116 2.297 . S
O1132 C1119 1.236 . S
N1133 Mn1117 2.282 . S
N1133 C1134 1.328 . S
N1133 C1138 1.318 . S
C1134 N1133 1.328 . S
C1134 C1135 1.457 . S
C1134 H1139 0.929 . S
C1135 C1134 1.457 . S
C1135 C1136 1.291 . S
C1135 H1148 0.931 . S
C1136 C1135 1.291 . S
C1136 C1137 1.373 . S
C1136 H1149 0.929 . S
C1137 C1136 1.373 . S
C1137 C1138 1.396 . S
C1137 C1144 1.403 . S
C1138 C1128 1.476 . S
C1138 N1133 1.318 . S
C1138 C1137 1.396 . S
H1139 C1134 0.929 . S
O1140 Mn1116 2.385 . S
O1140 C1118 1.234 . S
O1141 Mn1116 2.209 . S
O1141 Mn1117 2.215 . S
O1141 C1118 1.283 . S
O1142 Mn1116 2.094 . S
O1142 C1120 1.240 . S
O1143 Mn1117 2.117 . S
O1143 C1120 1.264 . S
C1144 C1137 1.403 . S
C1144 C1145 1.399 . S
C1144 H1150 0.929 . S
C1145 C1125 1.449 . S
C1145 C1144 1.399 . S
C1145 H1151 0.930 . S
H1146 C1126 0.931 . S
H1147 C1127 0.930 . S
H1148 C1135 0.931 . S
H1149 C1136 0.929 . S
H1150 C1144 0.929 . S
H1151 C1145 0.930 . S
Mn1152 O1157 2.095 . S
Mn1152 O1167 2.162 . S
Mn1152 O1168 2.297 . S
Mn1152 O1176 2.385 . S
Mn1152 O1177 2.209 . S
Mn1152 O1178 2.094 . S
Mn1153 O1158 2.121 . S
Mn1153 N1160 2.257 . S
Mn1153 N1169 2.282 . S
Mn1153 O1177 2.215 . S
Mn1153 O1179 2.117 . S
C1154 O1176 1.234 . S
C1154 O1177 1.283 . S
C1155 O1167 1.281 . S
C1155 O1168 1.236 . S
C1156 O1178 1.240 . S
C1156 O1179 1.264 . S
O1157 Mn1152 2.095 . S
O1157 C1166 1.250 . S
O1158 Mn1153 2.121 . S
O1158 C1166 1.258 . S
C1159 N1160 1.326 . S
C1159 C1163 1.460 . S
C1159 H1165 0.929 . S
N1160 Mn1153 2.257 . S
N1160 C1159 1.326 . S
N1160 C1164 1.362 . S
C1161 C1162 1.258 . S
C1161 C1164 1.431 . S
C1161 C1181 1.449 1_565 S
C1162 C1161 1.258 . S
C1162 C1163 1.477 . S
C1162 H1182 0.931 . S
C1163 C1159 1.460 . S
C1163 C1162 1.477 . S
C1163 H1183 0.930 . S
C1164 N1160 1.362 . S
C1164 C1161 1.431 . S
C1164 C1174 1.476 . S
H1165 C1159 0.929 . S
C1166 O1157 1.250 . S
C1166 O1158 1.258 . S
O1167 Mn1152 2.162 . S
O1167 C1155 1.281 . S
O1168 Mn1152 2.297 . S
O1168 C1155 1.236 . S
N1169 Mn1153 2.282 . S
N1169 C1170 1.328 . S
N1169 C1174 1.318 . S
C1170 N1169 1.328 . S
C1170 C1171 1.457 . S
C1170 H1175 0.929 . S
C1171 C1170 1.457 . S
C1171 C1172 1.291 1_565 S
C1171 H1184 0.931 . S
C1172 C1171 1.291 1_545 S
C1172 C1173 1.373 1_545 S
C1172 H1185 0.929 . S
C1173 C1172 1.373 1_565 S
C1173 C1174 1.396 . S
C1173 C1180 1.403 1_565 S
C1174 C1164 1.476 . S
C1174 N1169 1.318 . S
C1174 C1173 1.396 . S
H1175 C1170 0.929 . S
O1176 Mn1152 2.385 . S
O1176 C1154 1.234 . S
O1177 Mn1152 2.209 . S
O1177 Mn1153 2.215 . S
O1177 C1154 1.283 . S
O1178 Mn1152 2.094 . S
O1178 C1156 1.240 . S
O1179 Mn1153 2.117 . S
O1179 C1156 1.264 . S
C1180 C1173 1.403 1_545 S
C1180 C1181 1.399 . S
C1180 H1186 0.929 . S
C1181 C1161 1.449 1_545 S
C1181 C1180 1.399 . S
C1181 H1187 0.930 . S
H1182 C1162 0.931 . S
H1183 C1163 0.930 . S
H1184 C1171 0.931 . S
H1185 C1172 0.929 . S
H1186 C1180 0.929 . S
H1187 C1181 0.930 . S
Mn1188 O1193 2.095 . S
Mn1188 O1203 2.162 . S
Mn1188 O1204 2.297 . S
Mn1188 O1212 2.385 . S
Mn1188 O1213 2.209 . S
Mn1188 O1214 2.094 . S
Mn1189 O1194 2.121 . S
Mn1189 N1196 2.257 . S
Mn1189 N1205 2.282 . S
Mn1189 O1213 2.215 . S
Mn1189 O1215 2.117 . S
C1190 O1212 1.234 . S
C1190 O1213 1.283 . S
C1191 O1203 1.281 . S
C1191 O1204 1.236 . S
C1192 O1214 1.240 . S
C1192 O1215 1.264 . S
O1193 Mn1188 2.095 . S
O1193 C1202 1.250 . S
O1194 Mn1189 2.121 . S
O1194 C1202 1.258 . S
C1195 N1196 1.326 . S
C1195 C1199 1.460 . S
C1195 H1201 0.929 . S
N1196 Mn1189 2.257 . S
N1196 C1195 1.326 . S
N1196 C1200 1.362 . S
C1197 C1198 1.258 . S
C1197 C1200 1.431 . S
C1197 C1217 1.449 1_455 S
C1198 C1197 1.258 . S
C1198 C1199 1.477 . S
C1198 H1218 0.931 . S
C1199 C1195 1.460 . S
C1199 C1198 1.477 . S
C1199 H1219 0.930 . S
C1200 N1196 1.362 . S
C1200 C1197 1.431 . S
C1200 C1210 1.476 . S
H1201 C1195 0.929 . S
C1202 O1193 1.250 . S
C1202 O1194 1.258 . S
O1203 Mn1188 2.162 . S
O1203 C1191 1.281 . S
O1204 Mn1188 2.297 . S
O1204 C1191 1.236 . S
N1205 Mn1189 2.282 . S
N1205 C1206 1.328 . S
N1205 C1210 1.318 . S
C1206 N1205 1.328 . S
C1206 C1207 1.457 . S
C1206 H1211 0.929 . S
C1207 C1206 1.457 . S
C1207 C1208 1.291 1_455 S
C1207 H1220 0.931 . S
C1208 C1207 1.291 1_655 S
C1208 C1209 1.373 1_655 S
C1208 H1221 0.929 . S
C1209 C1208 1.373 1_455 S
C1209 C1210 1.396 . S
C1209 C1216 1.403 1_455 S
C1210 C1200 1.476 . S
C1210 N1205 1.318 . S
C1210 C1209 1.396 . S
H1211 C1206 0.929 . S
O1212 Mn1188 2.385 . S
O1212 C1190 1.234 . S
O1213 Mn1188 2.209 . S
O1213 Mn1189 2.215 . S
O1213 C1190 1.283 . S
O1214 Mn1188 2.094 . S
O1214 C1192 1.240 . S
O1215 Mn1189 2.117 . S
O1215 C1192 1.264 . S
C1216 C1209 1.403 1_655 S
C1216 C1217 1.399 . S
C1216 H1222 0.929 . S
C1217 C1197 1.449 1_655 S
C1217 C1216 1.399 . S
C1217 H1223 0.930 . S
H1218 C1198 0.931 . S
H1219 C1199 0.930 . S
H1220 C1207 0.931 . S
H1221 C1208 0.929 . S
H1222 C1216 0.929 . S
H1223 C1217 0.930 . S
Mn1224 O1229 2.095 . S
Mn1224 O1239 2.162 . S
Mn1224 O1240 2.297 . S
Mn1224 O1248 2.385 . S
Mn1224 O1249 2.209 . S
Mn1224 O1250 2.094 . S
Mn1225 O1230 2.121 . S
Mn1225 N1232 2.257 . S
Mn1225 N1241 2.282 . S
Mn1225 O1249 2.215 . S
Mn1225 O1251 2.117 . S
C1226 O1248 1.234 . S
C1226 O1249 1.283 . S
C1227 O1239 1.281 . S
C1227 O1240 1.236 . S
C1228 O1250 1.240 . S
C1228 O1251 1.264 . S
O1229 Mn1224 2.095 . S
O1229 C1238 1.250 . S
O1230 Mn1225 2.121 . S
O1230 C1238 1.258 . S
C1231 N1232 1.326 . S
C1231 C1235 1.460 . S
C1231 H1237 0.929 . S
N1232 Mn1225 2.257 . S
N1232 C1231 1.326 . S
N1232 C1236 1.362 . S
C1233 C1234 1.258 . S
C1233 C1236 1.431 . S
C1233 C1253 1.491 . S
C1234 C1233 1.258 . S
C1234 C1235 1.477 . S
C1234 H1254 0.931 . S
C1235 C1231 1.460 . S
C1235 C1234 1.477 . S
C1235 H1255 0.930 . S
C1236 N1232 1.362 . S
C1236 C1233 1.431 . S
C1236 C1246 1.476 . S
H1237 C1231 0.929 . S
C1238 O1229 1.250 . S
C1238 O1230 1.258 . S
O1239 Mn1224 2.162 . S
O1239 C1227 1.281 . S
O1240 Mn1224 2.297 . S
O1240 C1227 1.236 . S
N1241 Mn1225 2.282 . S
N1241 C1242 1.328 . S
N1241 C1246 1.318 . S
C1242 N1241 1.328 . S
C1242 C1243 1.457 . S
C1242 H1247 0.929 . S
C1243 C1242 1.457 . S
C1243 C1244 1.300 . S
C1243 H1256 0.931 . S
C1244 C1243 1.300 . S
C1244 C1245 1.377 . S
C1244 H1257 0.916 1_545 S
C1245 C1244 1.377 . S
C1245 C1246 1.396 . S
C1245 C1252 1.403 1_545 S
C1246 C1236 1.476 . S
C1246 N1241 1.318 . S
C1246 C1245 1.396 . S
H1247 C1242 0.929 . S
O1248 Mn1224 2.385 . S
O1248 C1226 1.234 . S
O1249 Mn1224 2.209 . S
O1249 Mn1225 2.215 . S
O1249 C1226 1.283 . S
O1250 Mn1224 2.094 . S
O1250 C1228 1.240 . S
O1251 Mn1225 2.117 . S
O1251 C1228 1.264 . S
C1252 C1245 1.403 1_565 S
C1252 C1253 1.385 1_565 S
C1252 H1258 0.929 . S
C1253 C1233 1.491 . S
C1253 C1252 1.385 1_545 S
C1253 H1259 0.902 1_545 S
H1254 C1234 0.931 . S
H1255 C1235 0.930 . S
H1256 C1243 0.931 . S
H1257 C1244 0.916 1_565 S
H1258 C1252 0.929 . S
H1259 C1253 0.902 1_565 S
Mn1260 O1265 2.095 . S
Mn1260 O1275 2.162 . S
Mn1260 O1276 2.297 . S
Mn1260 O1284 2.385 . S
Mn1260 O1285 2.209 . S
Mn1260 O1286 2.094 . S
Mn1261 O1266 2.121 . S
Mn1261 N1268 2.257 . S
Mn1261 N1277 2.282 . S
Mn1261 O1285 2.215 . S
Mn1261 O1287 2.117 . S
C1262 O1284 1.234 . S
C1262 O1285 1.283 . S
C1263 O1275 1.281 . S
C1263 O1276 1.236 . S
C1264 O1286 1.240 . S
C1264 O1287 1.264 . S
O1265 Mn1260 2.095 . S
O1265 C1274 1.250 . S
O1266 Mn1261 2.121 . S
O1266 C1274 1.258 . S
C1267 N1268 1.326 . S
C1267 C1271 1.460 . S
C1267 H1273 0.929 . S
N1268 Mn1261 2.257 . S
N1268 C1267 1.326 . S
N1268 C1272 1.362 . S
C1269 C1270 1.258 . S
C1269 C1272 1.431 . S
C1269 C1289 1.449 . S
C1270 C1269 1.258 . S
C1270 C1271 1.477 . S
C1270 H1290 0.931 . S
C1271 C1267 1.460 . S
C1271 C1270 1.477 . S
C1271 H1291 0.930 . S
C1272 N1268 1.362 . S
C1272 C1269 1.431 . S
C1272 C1282 1.476 . S
H1273 C1267 0.929 . S
C1274 O1265 1.250 . S
C1274 O1266 1.258 . S
O1275 Mn1260 2.162 . S
O1275 C1263 1.281 . S
O1276 Mn1260 2.297 . S
O1276 C1263 1.236 . S
N1277 Mn1261 2.282 . S
N1277 C1278 1.328 . S
N1277 C1282 1.318 . S
C1278 N1277 1.328 . S
C1278 C1279 1.457 . S
C1278 H1283 0.929 . S
C1279 C1278 1.457 . S
C1279 C1280 1.291 . S
C1279 H1292 0.931 . S
C1280 C1279 1.291 . S
C1280 C1281 1.373 . S
C1280 H1293 0.929 . S
C1281 C1280 1.373 . S
C1281 C1282 1.396 . S
C1281 C1288 1.403 . S
C1282 C1272 1.476 . S
C1282 N1277 1.318 . S
C1282 C1281 1.396 . S
H1283 C1278 0.929 . S
O1284 Mn1260 2.385 . S
O1284 C1262 1.234 . S
O1285 Mn1260 2.209 . S
O1285 Mn1261 2.215 . S
O1285 C1262 1.283 . S
O1286 Mn1260 2.094 . S
O1286 C1264 1.240 . S
O1287 Mn1261 2.117 . S
O1287 C1264 1.264 . S
C1288 C1281 1.403 . S
C1288 C1289 1.399 . S
C1288 H1294 0.929 . S
C1289 C1269 1.449 . S
C1289 C1288 1.399 . S
C1289 H1295 0.930 . S
H1290 C1270 0.931 . S
H1291 C1271 0.930 . S
H1292 C1279 0.931 . S
H1293 C1280 0.929 . S
H1294 C1288 0.929 . S
H1295 C1289 0.930 . S
Mn1296 O1301 2.095 . S
Mn1296 O1311 2.162 . S
Mn1296 O1312 2.297 . S
Mn1296 O1320 2.385 . S
Mn1296 O1321 2.209 . S
Mn1296 O1322 2.094 . S
Mn1297 O1302 2.121 . S
Mn1297 N1304 2.257 . S
Mn1297 N1313 2.282 . S
Mn1297 O1321 2.215 . S
Mn1297 O1323 2.117 . S
C1298 O1320 1.234 . S
C1298 O1321 1.283 . S
C1299 O1311 1.281 . S
C1299 O1312 1.236 . S
C1300 O1322 1.240 . S
C1300 O1323 1.264 . S
O1301 Mn1296 2.095 . S
O1301 C1310 1.250 . S
O1302 Mn1297 2.121 . S
O1302 C1310 1.258 . S
C1303 N1304 1.326 . S
C1303 C1307 1.460 . S
C1303 H1309 0.929 . S
N1304 Mn1297 2.257 . S
N1304 C1303 1.326 . S
N1304 C1308 1.362 . S
C1305 C1306 1.258 . S
C1305 C1308 1.431 . S
C1305 C1325 1.449 . S
C1306 C1305 1.258 . S
C1306 C1307 1.477 . S
C1306 H1326 0.931 . S
C1307 C1303 1.460 . S
C1307 C1306 1.477 . S
C1307 H1327 0.930 . S
C1308 N1304 1.362 . S
C1308 C1305 1.431 . S
C1308 C1318 1.476 . S
H1309 C1303 0.929 . S
C1310 O1301 1.250 . S
C1310 O1302 1.258 . S
O1311 Mn1296 2.162 . S
O1311 C1299 1.281 . S
O1312 Mn1296 2.297 . S
O1312 C1299 1.236 . S
N1313 Mn1297 2.282 . S
N1313 C1314 1.328 . S
N1313 C1318 1.318 . S
C1314 N1313 1.328 . S
C1314 C1315 1.457 . S
C1314 H1319 0.929 . S
C1315 C1314 1.457 . S
C1315 C1316 1.291 . S
C1315 H1328 0.931 . S
C1316 C1315 1.291 . S
C1316 C1317 1.373 . S
C1316 H1329 0.929 . S
C1317 C1316 1.373 . S
C1317 C1318 1.396 . S
C1317 C1324 1.403 . S
C1318 C1308 1.476 . S
C1318 N1313 1.318 . S
C1318 C1317 1.396 . S
H1319 C1314 0.929 . S
O1320 Mn1296 2.385 . S
O1320 C1298 1.234 . S
O1321 Mn1296 2.209 . S
O1321 Mn1297 2.215 . S
O1321 C1298 1.283 . S
O1322 Mn1296 2.094 . S
O1322 C1300 1.240 . S
O1323 Mn1297 2.117 . S
O1323 C1300 1.264 . S
C1324 C1317 1.403 . S
C1324 C1325 1.399 . S
C1324 H1330 0.929 . S
C1325 C1305 1.449 . S
C1325 C1324 1.399 . S
C1325 H1331 0.930 . S
H1326 C1306 0.931 . S
H1327 C1307 0.930 . S
H1328 C1315 0.931 . S
H1329 C1316 0.929 . S
H1330 C1324 0.929 . S
H1331 C1325 0.930 . S
Mn1332 O1337 2.095 . S
Mn1332 O1347 2.162 . S
Mn1332 O1348 2.297 . S
Mn1332 O1356 2.385 . S
Mn1332 O1357 2.209 . S
Mn1332 O1358 2.094 . S
Mn1333 O1338 2.121 . S
Mn1333 N1340 2.257 . S
Mn1333 N1349 2.282 . S
Mn1333 O1357 2.215 . S
Mn1333 O1359 2.117 . S
C1334 O1356 1.234 . S
C1334 O1357 1.283 . S
C1335 O1347 1.281 . S
C1335 O1348 1.236 . S
C1336 O1358 1.240 . S
C1336 O1359 1.264 . S
O1337 Mn1332 2.095 . S
O1337 C1346 1.250 . S
O1338 Mn1333 2.121 . S
O1338 C1346 1.258 . S
C1339 N1340 1.326 . S
C1339 C1343 1.460 . S
C1339 H1345 0.929 . S
N1340 Mn1333 2.257 . S
N1340 C1339 1.326 . S
N1340 C1344 1.362 . S
C1341 C1342 1.258 . S
C1341 C1344 1.431 . S
C1341 C1361 1.449 . S
C1342 C1341 1.258 . S
C1342 C1343 1.477 . S
C1342 H1362 0.931 . S
C1343 C1339 1.460 . S
C1343 C1342 1.477 . S
C1343 H1363 0.930 . S
C1344 N1340 1.362 . S
C1344 C1341 1.431 . S
C1344 C1354 1.476 . S
H1345 C1339 0.929 . S
C1346 O1337 1.250 . S
C1346 O1338 1.258 . S
O1347 Mn1332 2.162 . S
O1347 C1335 1.281 . S
O1348 Mn1332 2.297 . S
O1348 C1335 1.236 . S
N1349 Mn1333 2.282 . S
N1349 C1350 1.328 . S
N1349 C1354 1.318 . S
C1350 N1349 1.328 . S
C1350 C1351 1.457 . S
C1350 H1355 0.929 . S
C1351 C1350 1.457 . S
C1351 C1352 1.291 . S
C1351 H1364 0.931 . S
C1352 C1351 1.291 . S
C1352 C1353 1.373 . S
C1352 H1365 0.929 . S
C1353 C1352 1.373 . S
C1353 C1354 1.396 . S
C1353 C1360 1.403 . S
C1354 C1344 1.476 . S
C1354 N1349 1.318 . S
C1354 C1353 1.396 . S
H1355 C1350 0.929 . S
O1356 Mn1332 2.385 . S
O1356 C1334 1.234 . S
O1357 Mn1332 2.209 . S
O1357 Mn1333 2.215 . S
O1357 C1334 1.283 . S
O1358 Mn1332 2.094 . S
O1358 C1336 1.240 . S
O1359 Mn1333 2.117 . S
O1359 C1336 1.264 . S
C1360 C1353 1.403 . S
C1360 C1361 1.399 . S
C1360 H1366 0.929 . S
C1361 C1341 1.449 . S
C1361 C1360 1.399 . S
C1361 H1367 0.930 . S
H1362 C1342 0.931 . S
H1363 C1343 0.930 . S
H1364 C1351 0.931 . S
H1365 C1352 0.929 . S
H1366 C1360 0.929 . S
H1367 C1361 0.930 . S
Mn1368 O1373 2.095 . S
Mn1368 O1383 2.162 . S
Mn1368 O1384 2.297 . S
Mn1368 O1392 2.385 . S
Mn1368 O1393 2.209 . S
Mn1368 O1394 2.094 . S
Mn1369 O1374 2.121 . S
Mn1369 N1376 2.257 . S
Mn1369 N1385 2.282 . S
Mn1369 O1393 2.215 . S
Mn1369 O1395 2.117 . S
C1370 O1392 1.234 . S
C1370 O1393 1.283 . S
C1371 O1383 1.281 . S
C1371 O1384 1.236 . S
C1372 O1394 1.240 . S
C1372 O1395 1.264 . S
O1373 Mn1368 2.095 . S
O1373 C1382 1.250 . S
O1374 Mn1369 2.121 . S
O1374 C1382 1.258 . S
C1375 N1376 1.326 . S
C1375 C1379 1.460 . S
C1375 H1381 0.929 . S
N1376 Mn1369 2.257 . S
N1376 C1375 1.326 . S
N1376 C1380 1.362 . S
C1377 C1378 1.258 . S
C1377 C1380 1.431 . S
C1377 C1397 1.449 1_565 S
C1378 C1377 1.258 . S
C1378 C1379 1.477 . S
C1378 H1398 0.931 . S
C1379 C1375 1.460 . S
C1379 C1378 1.477 . S
C1379 H1399 0.930 . S
C1380 N1376 1.362 . S
C1380 C1377 1.431 . S
C1380 C1390 1.476 . S
H1381 C1375 0.929 . S
C1382 O1373 1.250 . S
C1382 O1374 1.258 . S
O1383 Mn1368 2.162 . S
O1383 C1371 1.281 . S
O1384 Mn1368 2.297 . S
O1384 C1371 1.236 . S
N1385 Mn1369 2.282 . S
N1385 C1386 1.328 . S
N1385 C1390 1.318 . S
C1386 N1385 1.328 . S
C1386 C1387 1.457 . S
C1386 H1391 0.929 . S
C1387 C1386 1.457 . S
C1387 C1388 1.291 1_565 S
C1387 H1400 0.931 . S
C1388 C1387 1.291 1_545 S
C1388 C1389 1.373 1_545 S
C1388 H1401 0.929 . S
C1389 C1388 1.373 1_565 S
C1389 C1390 1.396 . S
C1389 C1396 1.403 1_565 S
C1390 C1380 1.476 . S
C1390 N1385 1.318 . S
C1390 C1389 1.396 . S
H1391 C1386 0.929 . S
O1392 Mn1368 2.385 . S
O1392 C1370 1.234 . S
O1393 Mn1368 2.209 . S
O1393 Mn1369 2.215 . S
O1393 C1370 1.283 . S
O1394 Mn1368 2.094 . S
O1394 C1372 1.240 . S
O1395 Mn1369 2.117 . S
O1395 C1372 1.264 . S
C1396 C1389 1.403 1_545 S
C1396 C1397 1.399 . S
C1396 H1402 0.929 . S
C1397 C1377 1.449 1_545 S
C1397 C1396 1.399 . S
C1397 H1403 0.930 . S
H1398 C1378 0.931 . S
H1399 C1379 0.930 . S
H1400 C1387 0.931 . S
H1401 C1388 0.929 . S
H1402 C1396 0.929 . S
H1403 C1397 0.930 . S
Mn1404 O1409 2.095 . S
Mn1404 O1419 2.162 . S
Mn1404 O1420 2.297 . S
Mn1404 O1428 2.385 . S
Mn1404 O1429 2.209 . S
Mn1404 O1430 2.094 . S
Mn1405 O1410 2.121 . S
Mn1405 N1412 2.257 . S
Mn1405 N1421 2.282 . S
Mn1405 O1429 2.215 . S
Mn1405 O1431 2.117 . S
C1406 O1428 1.234 . S
C1406 O1429 1.283 . S
C1407 O1419 1.281 . S
C1407 O1420 1.236 . S
C1408 O1430 1.240 . S
C1408 O1431 1.264 . S
O1409 Mn1404 2.095 . S
O1409 C1418 1.250 . S
O1410 Mn1405 2.121 . S
O1410 C1418 1.258 . S
C1411 N1412 1.326 . S
C1411 C1415 1.460 . S
C1411 H1417 0.929 . S
N1412 Mn1405 2.257 . S
N1412 C1411 1.326 . S
N1412 C1416 1.362 . S
C1413 C1414 1.258 . S
C1413 C1416 1.431 . S
C1413 C1433 1.449 . S
C1414 C1413 1.258 . S
C1414 C1415 1.477 . S
C1414 H1434 0.931 . S
C1415 C1411 1.460 . S
C1415 C1414 1.477 . S
C1415 H1435 0.930 . S
C1416 N1412 1.362 . S
C1416 C1413 1.431 . S
C1416 C1426 1.476 . S
H1417 C1411 0.929 . S
C1418 O1409 1.250 . S
C1418 O1410 1.258 . S
O1419 Mn1404 2.162 . S
O1419 C1407 1.281 . S
O1420 Mn1404 2.297 . S
O1420 C1407 1.236 . S
N1421 Mn1405 2.282 . S
N1421 C1422 1.328 . S
N1421 C1426 1.318 . S
C1422 N1421 1.328 . S
C1422 C1423 1.457 . S
C1422 H1427 0.929 . S
C1423 C1422 1.457 . S
C1423 C1424 1.291 . S
C1423 H1436 0.931 . S
C1424 C1423 1.291 . S
C1424 C1425 1.373 . S
C1424 H1437 0.929 . S
C1425 C1424 1.373 . S
C1425 C1426 1.396 . S
C1425 C1432 1.403 . S
C1426 C1416 1.476 . S
C1426 N1421 1.318 . S
C1426 C1425 1.396 . S
H1427 C1422 0.929 . S
O1428 Mn1404 2.385 . S
O1428 C1406 1.234 . S
O1429 Mn1404 2.209 . S
O1429 Mn1405 2.215 . S
O1429 C1406 1.283 . S
O1430 Mn1404 2.094 . S
O1430 C1408 1.240 . S
O1431 Mn1405 2.117 . S
O1431 C1408 1.264 . S
C1432 C1425 1.403 . S
C1432 C1433 1.399 . S
C1432 H1438 0.929 . S
C1433 C1413 1.449 . S
C1433 C1432 1.399 . S
C1433 H1439 0.930 . S
H1434 C1414 0.931 . S
H1435 C1415 0.930 . S
H1436 C1423 0.931 . S
H1437 C1424 0.929 . S
H1438 C1432 0.929 . S
H1439 C1433 0.930 . S
Mn1440 O1445 2.095 . S
Mn1440 O1455 2.162 . S
Mn1440 O1456 2.297 . S
Mn1440 O1464 2.385 . S
Mn1440 O1465 2.209 . S
Mn1440 O1466 2.094 . S
Mn1441 O1446 2.121 . S
Mn1441 N1448 2.257 . S
Mn1441 N1457 2.282 . S
Mn1441 O1465 2.215 . S
Mn1441 O1467 2.117 . S
C1442 O1464 1.234 . S
C1442 O1465 1.283 . S
C1443 O1455 1.281 . S
C1443 O1456 1.236 . S
C1444 O1466 1.240 . S
C1444 O1467 1.264 . S
O1445 Mn1440 2.095 . S
O1445 C1454 1.250 . S
O1446 Mn1441 2.121 . S
O1446 C1454 1.258 . S
C1447 N1448 1.326 . S
C1447 C1451 1.460 . S
C1447 H1453 0.929 . S
N1448 Mn1441 2.257 . S
N1448 C1447 1.326 . S
N1448 C1452 1.362 . S
C1449 C1450 1.258 . S
C1449 C1452 1.431 . S
C1449 C1469 1.449 1_556 S
C1450 C1449 1.258 . S
C1450 C1451 1.477 . S
C1450 H1470 0.931 . S
C1451 C1447 1.460 . S
C1451 C1450 1.477 . S
C1451 H1471 0.930 . S
C1452 N1448 1.362 . S
C1452 C1449 1.431 . S
C1452 C1462 1.476 . S
H1453 C1447 0.929 . S
C1454 O1445 1.250 . S
C1454 O1446 1.258 . S
O1455 Mn1440 2.162 . S
O1455 C1443 1.281 . S
O1456 Mn1440 2.297 . S
O1456 C1443 1.236 . S
N1457 Mn1441 2.282 . S
N1457 C1458 1.328 . S
N1457 C1462 1.318 . S
C1458 N1457 1.328 . S
C1458 C1459 1.457 . S
C1458 H1463 0.929 . S
C1459 C1458 1.457 . S
C1459 C1460 1.291 1_556 S
C1459 H1472 0.931 . S
C1460 C1459 1.291 1_554 S
C1460 C1461 1.373 1_554 S
C1460 H1473 0.929 . S
C1461 C1460 1.373 1_556 S
C1461 C1462 1.396 . S
C1461 C1468 1.403 1_556 S
C1462 C1452 1.476 . S
C1462 N1457 1.318 . S
C1462 C1461 1.396 . S
H1463 C1458 0.929 . S
O1464 Mn1440 2.385 . S
O1464 C1442 1.234 . S
O1465 Mn1440 2.209 . S
O1465 Mn1441 2.215 . S
O1465 C1442 1.283 . S
O1466 Mn1440 2.094 . S
O1466 C1444 1.240 . S
O1467 Mn1441 2.117 . S
O1467 C1444 1.264 . S
C1468 C1461 1.403 1_554 S
C1468 C1469 1.399 . S
C1468 H1474 0.929 . S
C1469 C1449 1.449 1_554 S
C1469 C1468 1.399 . S
C1469 H1475 0.930 . S
H1470 C1450 0.931 . S
H1471 C1451 0.930 . S
H1472 C1459 0.931 . S
H1473 C1460 0.929 . S
H1474 C1468 0.929 . S
H1475 C1469 0.930 . S
Mn1476 O1481 2.095 . S
Mn1476 O1491 2.162 . S
Mn1476 O1492 2.297 . S
Mn1476 O1500 2.385 . S
Mn1476 O1501 2.209 . S
Mn1476 O1502 2.094 . S
Mn1477 O1482 2.121 . S
Mn1477 N1484 2.257 . S
Mn1477 N1493 2.282 . S
Mn1477 O1501 2.215 . S
Mn1477 O1503 2.117 . S
C1478 O1500 1.234 . S
C1478 O1501 1.283 . S
C1479 O1491 1.281 . S
C1479 O1492 1.236 . S
C1480 O1502 1.240 . S
C1480 O1503 1.264 . S
O1481 Mn1476 2.095 . S
O1481 C1490 1.250 . S
O1482 Mn1477 2.121 . S
O1482 C1490 1.258 . S
C1483 N1484 1.326 . S
C1483 C1487 1.460 . S
C1483 H1489 0.929 . S
N1484 Mn1477 2.257 . S
N1484 C1483 1.326 . S
N1484 C1488 1.362 . S
C1485 C1486 1.258 . S
C1485 C1488 1.431 . S
C1485 C1505 1.449 . S
C1486 C1485 1.258 . S
C1486 C1487 1.477 . S
C1486 H1506 0.931 . S
C1487 C1483 1.460 . S
C1487 C1486 1.477 . S
C1487 H1507 0.930 . S
C1488 N1484 1.362 . S
C1488 C1485 1.431 . S
C1488 C1498 1.476 . S
H1489 C1483 0.929 . S
C1490 O1481 1.250 . S
C1490 O1482 1.258 . S
O1491 Mn1476 2.162 . S
O1491 C1479 1.281 . S
O1492 Mn1476 2.297 . S
O1492 C1479 1.236 . S
N1493 Mn1477 2.282 . S
N1493 C1494 1.328 . S
N1493 C1498 1.318 . S
C1494 N1493 1.328 . S
C1494 C1495 1.457 . S
C1494 H1499 0.929 . S
C1495 C1494 1.457 . S
C1495 C1496 1.291 . S
C1495 H1508 0.931 . S
C1496 C1495 1.291 . S
C1496 C1497 1.373 . S
C1496 H1509 0.929 . S
C1497 C1496 1.373 . S
C1497 C1498 1.396 . S
C1497 C1504 1.403 . S
C1498 C1488 1.476 . S
C1498 N1493 1.318 . S
C1498 C1497 1.396 . S
H1499 C1494 0.929 . S
O1500 Mn1476 2.385 . S
O1500 C1478 1.234 . S
O1501 Mn1476 2.209 . S
O1501 Mn1477 2.215 . S
O1501 C1478 1.283 . S
O1502 Mn1476 2.094 . S
O1502 C1480 1.240 . S
O1503 Mn1477 2.117 . S
O1503 C1480 1.264 . S
C1504 C1497 1.403 . S
C1504 C1505 1.399 . S
C1504 H1510 0.929 . S
C1505 C1485 1.449 . S
C1505 C1504 1.399 . S
C1505 H1511 0.930 . S
H1506 C1486 0.931 . S
H1507 C1487 0.930 . S
H1508 C1495 0.931 . S
H1509 C1496 0.929 . S
H1510 C1504 0.929 . S
H1511 C1505 0.930 . S
Mn1512 O1517 2.095 . S
Mn1512 O1527 2.162 . S
Mn1512 O1528 2.297 . S
Mn1512 O1536 2.385 . S
Mn1512 O1537 2.209 . S
Mn1512 O1538 2.094 . S
Mn1513 O1518 2.121 . S
Mn1513 N1520 2.257 . S
Mn1513 N1529 2.282 . S
Mn1513 O1537 2.215 . S
Mn1513 O1539 2.117 . S
C1514 O1536 1.234 . S
C1514 O1537 1.283 . S
C1515 O1527 1.281 . S
C1515 O1528 1.236 . S
C1516 O1538 1.240 . S
C1516 O1539 1.264 . S
O1517 Mn1512 2.095 . S
O1517 C1526 1.250 . S
O1518 Mn1513 2.121 . S
O1518 C1526 1.258 . S
C1519 N1520 1.326 . S
C1519 C1523 1.460 . S
C1519 H1525 0.929 . S
N1520 Mn1513 2.257 . S
N1520 C1519 1.326 . S
N1520 C1524 1.362 . S
C1521 C1522 1.258 . S
C1521 C1524 1.431 . S
C1521 C1541 1.449 1_554 S
C1522 C1521 1.258 . S
C1522 C1523 1.477 . S
C1522 H1542 0.931 . S
C1523 C1519 1.460 . S
C1523 C1522 1.477 . S
C1523 H1543 0.930 . S
C1524 N1520 1.362 . S
C1524 C1521 1.431 . S
C1524 C1534 1.476 . S
H1525 C1519 0.929 . S
C1526 O1517 1.250 . S
C1526 O1518 1.258 . S
O1527 Mn1512 2.162 . S
O1527 C1515 1.281 . S
O1528 Mn1512 2.297 . S
O1528 C1515 1.236 . S
N1529 Mn1513 2.282 . S
N1529 C1530 1.328 . S
N1529 C1534 1.318 . S
C1530 N1529 1.328 . S
C1530 C1531 1.457 . S
C1530 H1535 0.929 . S
C1531 C1530 1.457 . S
C1531 C1532 1.291 1_554 S
C1531 H1544 0.931 . S
C1532 C1531 1.291 1_556 S
C1532 C1533 1.373 1_556 S
C1532 H1545 0.929 . S
C1533 C1532 1.373 1_554 S
C1533 C1534 1.396 . S
C1533 C1540 1.403 1_554 S
C1534 C1524 1.476 . S
C1534 N1529 1.318 . S
C1534 C1533 1.396 . S
H1535 C1530 0.929 . S
O1536 Mn1512 2.385 . S
O1536 C1514 1.234 . S
O1537 Mn1512 2.209 . S
O1537 Mn1513 2.215 . S
O1537 C1514 1.283 . S
O1538 Mn1512 2.094 . S
O1538 C1516 1.240 . S
O1539 Mn1513 2.117 . S
O1539 C1516 1.264 . S
C1540 C1533 1.403 1_556 S
C1540 C1541 1.399 . S
C1540 H1546 0.929 . S
C1541 C1521 1.449 1_556 S
C1541 C1540 1.399 . S
C1541 H1547 0.930 . S
H1542 C1522 0.931 . S
H1543 C1523 0.930 . S
H1544 C1531 0.931 . S
H1545 C1532 0.929 . S
H1546 C1540 0.929 . S
H1547 C1541 0.930 . S
Mn1548 O1553 2.095 . S
Mn1548 O1563 2.162 . S
Mn1548 O1564 2.297 . S
Mn1548 O1572 2.385 . S
Mn1548 O1573 2.209 . S
Mn1548 O1574 2.094 . S
Mn1549 O1554 2.121 . S
Mn1549 N1556 2.257 . S
Mn1549 N1565 2.282 . S
Mn1549 O1573 2.215 . S
Mn1549 O1575 2.117 . S
C1550 O1572 1.234 . S
C1550 O1573 1.283 . S
C1551 O1563 1.281 . S
C1551 O1564 1.236 . S
C1552 O1574 1.240 . S
C1552 O1575 1.264 . S
O1553 Mn1548 2.095 . S
O1553 C1562 1.250 . S
O1554 Mn1549 2.121 . S
O1554 C1562 1.258 . S
C1555 N1556 1.326 . S
C1555 C1559 1.460 . S
C1555 H1561 0.929 . S
N1556 Mn1549 2.257 . S
N1556 C1555 1.326 . S
N1556 C1560 1.362 . S
C1557 C1558 1.258 . S
C1557 C1560 1.431 . S
C1557 C1577 1.449 . S
C1558 C1557 1.258 . S
C1558 C1559 1.477 . S
C1558 H1578 0.931 . S
C1559 C1555 1.460 . S
C1559 C1558 1.477 . S
C1559 H1579 0.930 . S
C1560 N1556 1.362 . S
C1560 C1557 1.431 . S
C1560 C1570 1.476 . S
H1561 C1555 0.929 . S
C1562 O1553 1.250 . S
C1562 O1554 1.258 . S
O1563 Mn1548 2.162 . S
O1563 C1551 1.281 . S
O1564 Mn1548 2.297 . S
O1564 C1551 1.236 . S
N1565 Mn1549 2.282 . S
N1565 C1566 1.328 . S
N1565 C1570 1.318 . S
C1566 N1565 1.328 . S
C1566 C1567 1.457 . S
C1566 H1571 0.929 . S
C1567 C1566 1.457 . S
C1567 C1568 1.291 . S
C1567 H1580 0.931 . S
C1568 C1567 1.291 . S
C1568 C1569 1.373 . S
C1568 H1581 0.929 . S
C1569 C1568 1.373 . S
C1569 C1570 1.396 . S
C1569 C1576 1.403 . S
C1570 C1560 1.476 . S
C1570 N1565 1.318 . S
C1570 C1569 1.396 . S
H1571 C1566 0.929 . S
O1572 Mn1548 2.385 . S
O1572 C1550 1.234 . S
O1573 Mn1548 2.209 . S
O1573 Mn1549 2.215 . S
O1573 C1550 1.283 . S
O1574 Mn1548 2.094 . S
O1574 C1552 1.240 . S
O1575 Mn1549 2.117 . S
O1575 C1552 1.264 . S
C1576 C1569 1.403 . S
C1576 C1577 1.399 . S
C1576 H1582 0.929 . S
C1577 C1557 1.449 . S
C1577 C1576 1.399 . S
C1577 H1583 0.930 . S
H1578 C1558 0.931 . S
H1579 C1559 0.930 . S
H1580 C1567 0.931 . S
H1581 C1568 0.929 . S
H1582 C1576 0.929 . S
H1583 C1577 0.930 . S
Mn1584 O1589 2.095 . S
Mn1584 O1599 2.162 . S
Mn1584 O1600 2.297 . S
Mn1584 O1608 2.385 . S
Mn1584 O1609 2.209 . S
Mn1584 O1610 2.094 . S
Mn1585 O1590 2.121 . S
Mn1585 N1592 2.257 . S
Mn1585 N1601 2.282 . S
Mn1585 O1609 2.215 . S
Mn1585 O1611 2.117 . S
C1586 O1608 1.234 . S
C1586 O1609 1.283 . S
C1587 O1599 1.281 . S
C1587 O1600 1.236 . S
C1588 O1610 1.240 . S
C1588 O1611 1.264 . S
O1589 Mn1584 2.095 . S
O1589 C1598 1.250 . S
O1590 Mn1585 2.121 . S
O1590 C1598 1.258 . S
C1591 N1592 1.326 . S
C1591 C1595 1.460 . S
C1591 H1597 0.929 . S
N1592 Mn1585 2.257 . S
N1592 C1591 1.326 . S
N1592 C1596 1.362 . S
C1593 C1594 1.258 . S
C1593 C1596 1.431 . S
C1593 C1613 1.449 1_554 S
C1594 C1593 1.258 . S
C1594 C1595 1.477 . S
C1594 H1614 0.931 . S
C1595 C1591 1.460 . S
C1595 C1594 1.477 . S
C1595 H1615 0.930 . S
C1596 N1592 1.362 . S
C1596 C1593 1.431 . S
C1596 C1606 1.476 . S
H1597 C1591 0.929 . S
C1598 O1589 1.250 . S
C1598 O1590 1.258 . S
O1599 Mn1584 2.162 . S
O1599 C1587 1.281 . S
O1600 Mn1584 2.297 . S
O1600 C1587 1.236 . S
N1601 Mn1585 2.282 . S
N1601 C1602 1.328 . S
N1601 C1606 1.318 . S
C1602 N1601 1.328 . S
C1602 C1603 1.457 . S
C1602 H1607 0.929 . S
C1603 C1602 1.457 . S
C1603 C1604 1.291 1_554 S
C1603 H1616 0.931 . S
C1604 C1603 1.291 1_556 S
C1604 C1605 1.373 1_556 S
C1604 H1617 0.929 . S
C1605 C1604 1.373 1_554 S
C1605 C1606 1.396 . S
C1605 C1612 1.403 1_554 S
C1606 C1596 1.476 . S
C1606 N1601 1.318 . S
C1606 C1605 1.396 . S
H1607 C1602 0.929 . S
O1608 Mn1584 2.385 . S
O1608 C1586 1.234 . S
O1609 Mn1584 2.209 . S
O1609 Mn1585 2.215 . S
O1609 C1586 1.283 . S
O1610 Mn1584 2.094 . S
O1610 C1588 1.240 . S
O1611 Mn1585 2.117 . S
O1611 C1588 1.264 . S
C1612 C1605 1.403 1_556 S
C1612 C1613 1.399 . S
C1612 H1618 0.929 . S
C1613 C1593 1.449 1_556 S
C1613 C1612 1.399 . S
C1613 H1619 0.930 . S
H1614 C1594 0.931 . S
H1615 C1595 0.930 . S
H1616 C1603 0.931 . S
H1617 C1604 0.929 . S
H1618 C1612 0.929 . S
H1619 C1613 0.930 . S
Mn1620 O1625 2.095 . S
Mn1620 O1635 2.162 . S
Mn1620 O1636 2.297 . S
Mn1620 O1644 2.385 . S
Mn1620 O1645 2.209 . S
Mn1620 O1646 2.094 . S
Mn1621 O1626 2.121 . S
Mn1621 N1628 2.257 . S
Mn1621 N1637 2.282 . S
Mn1621 O1645 2.215 . S
Mn1621 O1647 2.117 . S
C1622 O1644 1.234 . S
C1622 O1645 1.283 . S
C1623 O1635 1.281 . S
C1623 O1636 1.236 . S
C1624 O1646 1.240 . S
C1624 O1647 1.264 . S
O1625 Mn1620 2.095 . S
O1625 C1634 1.250 . S
O1626 Mn1621 2.121 . S
O1626 C1634 1.258 . S
C1627 N1628 1.326 . S
C1627 C1631 1.460 . S
C1627 H1633 0.929 . S
N1628 Mn1621 2.257 . S
N1628 C1627 1.326 . S
N1628 C1632 1.362 . S
C1629 C1630 1.258 . S
C1629 C1632 1.431 . S
C1629 C1649 1.449 1_556 S
C1630 C1629 1.258 . S
C1630 C1631 1.477 . S
C1630 H1650 0.931 . S
C1631 C1627 1.460 . S
C1631 C1630 1.477 . S
C1631 H1651 0.930 . S
C1632 N1628 1.362 . S
C1632 C1629 1.431 . S
C1632 C1642 1.476 . S
H1633 C1627 0.929 . S
C1634 O1625 1.250 . S
C1634 O1626 1.258 . S
O1635 Mn1620 2.162 . S
O1635 C1623 1.281 . S
O1636 Mn1620 2.297 . S
O1636 C1623 1.236 . S
N1637 Mn1621 2.282 . S
N1637 C1638 1.328 . S
N1637 C1642 1.318 . S
C1638 N1637 1.328 . S
C1638 C1639 1.457 . S
C1638 H1643 0.929 . S
C1639 C1638 1.457 . S
C1639 C1640 1.291 1_556 S
C1639 H1652 0.931 . S
C1640 C1639 1.291 1_554 S
C1640 C1641 1.373 1_554 S
C1640 H1653 0.929 . S
C1641 C1640 1.373 1_556 S
C1641 C1642 1.396 . S
C1641 C1648 1.403 1_556 S
C1642 C1632 1.476 . S
C1642 N1637 1.318 . S
C1642 C1641 1.396 . S
H1643 C1638 0.929 . S
O1644 Mn1620 2.385 . S
O1644 C1622 1.234 . S
O1645 Mn1620 2.209 . S
O1645 Mn1621 2.215 . S
O1645 C1622 1.283 . S
O1646 Mn1620 2.094 . S
O1646 C1624 1.240 . S
O1647 Mn1621 2.117 . S
O1647 C1624 1.264 . S
C1648 C1641 1.403 1_554 S
C1648 C1649 1.399 . S
C1648 H1654 0.929 . S
C1649 C1629 1.449 1_554 S
C1649 C1648 1.399 . S
C1649 H1655 0.930 . S
H1650 C1630 0.931 . S
H1651 C1631 0.930 . S
H1652 C1639 0.931 . S
H1653 C1640 0.929 . S
H1654 C1648 0.929 . S
H1655 C1649 0.930 . S
Mn1656 O1661 2.095 . S
Mn1656 O1671 2.162 . S
Mn1656 O1672 2.297 . S
Mn1656 O1680 2.385 . S
Mn1656 O1681 2.209 . S
Mn1656 O1682 2.094 . S
Mn1657 O1662 2.121 . S
Mn1657 N1664 2.257 . S
Mn1657 N1673 2.282 . S
Mn1657 O1681 2.215 . S
Mn1657 O1683 2.117 . S
C1658 O1680 1.234 . S
C1658 O1681 1.283 . S
C1659 O1671 1.281 . S
C1659 O1672 1.236 . S
C1660 O1682 1.240 . S
C1660 O1683 1.264 . S
O1661 Mn1656 2.095 . S
O1661 C1670 1.250 . S
O1662 Mn1657 2.121 . S
O1662 C1670 1.258 . S
C1663 N1664 1.326 . S
C1663 C1667 1.460 . S
C1663 H1669 0.929 . S
N1664 Mn1657 2.257 . S
N1664 C1663 1.326 . S
N1664 C1668 1.362 . S
C1665 C1666 1.258 . S
C1665 C1668 1.431 . S
C1665 C1685 1.449 . S
C1666 C1665 1.258 . S
C1666 C1667 1.477 . S
C1666 H1686 0.931 . S
C1667 C1663 1.460 . S
C1667 C1666 1.477 . S
C1667 H1687 0.930 . S
C1668 N1664 1.362 . S
C1668 C1665 1.431 . S
C1668 C1678 1.476 . S
H1669 C1663 0.929 . S
C1670 O1661 1.250 . S
C1670 O1662 1.258 . S
O1671 Mn1656 2.162 . S
O1671 C1659 1.281 . S
O1672 Mn1656 2.297 . S
O1672 C1659 1.236 . S
N1673 Mn1657 2.282 . S
N1673 C1674 1.328 . S
N1673 C1678 1.318 . S
C1674 N1673 1.328 . S
C1674 C1675 1.457 . S
C1674 H1679 0.929 . S
C1675 C1674 1.457 . S
C1675 C1676 1.291 . S
C1675 H1688 0.931 . S
C1676 C1675 1.291 . S
C1676 C1677 1.373 . S
C1676 H1689 0.929 . S
C1677 C1676 1.373 . S
C1677 C1678 1.396 . S
C1677 C1684 1.403 . S
C1678 C1668 1.476 . S
C1678 N1673 1.318 . S
C1678 C1677 1.396 . S
H1679 C1674 0.929 . S
O1680 Mn1656 2.385 . S
O1680 C1658 1.234 . S
O1681 Mn1656 2.209 . S
O1681 Mn1657 2.215 . S
O1681 C1658 1.283 . S
O1682 Mn1656 2.094 . S
O1682 C1660 1.240 . S
O1683 Mn1657 2.117 . S
O1683 C1660 1.264 . S
C1684 C1677 1.403 . S
C1684 C1685 1.399 . S
C1684 H1690 0.929 . S
C1685 C1665 1.449 . S
C1685 C1684 1.399 . S
C1685 H1691 0.930 . S
H1686 C1666 0.931 . S
H1687 C1667 0.930 . S
H1688 C1675 0.931 . S
H1689 C1676 0.929 . S
H1690 C1684 0.929 . S
H1691 C1685 0.930 . S
Mn1692 O1697 2.095 . S
Mn1692 O1707 2.162 . S
Mn1692 O1708 2.297 . S
Mn1692 O1716 2.385 . S
Mn1692 O1717 2.209 . S
Mn1692 O1718 2.094 . S
Mn1693 O1698 2.121 . S
Mn1693 N1700 2.257 . S
Mn1693 N1709 2.282 . S
Mn1693 O1717 2.215 . S
Mn1693 O1719 2.117 . S
C1694 O1716 1.234 . S
C1694 O1717 1.283 . S
C1695 O1707 1.281 . S
C1695 O1708 1.236 . S
C1696 O1718 1.240 . S
C1696 O1719 1.264 . S
O1697 Mn1692 2.095 . S
O1697 C1706 1.250 . S
O1698 Mn1693 2.121 . S
O1698 C1706 1.258 . S
C1699 N1700 1.326 . S
C1699 C1703 1.460 . S
C1699 H1705 0.929 . S
N1700 Mn1693 2.257 . S
N1700 C1699 1.326 . S
N1700 C1704 1.362 . S
C1701 C1702 1.258 . S
C1701 C1704 1.431 . S
C1701 C1721 1.449 . S
C1702 C1701 1.258 . S
C1702 C1703 1.477 . S
C1702 H1722 0.931 . S
C1703 C1699 1.460 . S
C1703 C1702 1.477 . S
C1703 H1723 0.930 . S
C1704 N1700 1.362 . S
C1704 C1701 1.431 . S
C1704 C1714 1.476 . S
H1705 C1699 0.929 . S
C1706 O1697 1.250 . S
C1706 O1698 1.258 . S
O1707 Mn1692 2.162 . S
O1707 C1695 1.281 . S
O1708 Mn1692 2.297 . S
O1708 C1695 1.236 . S
N1709 Mn1693 2.282 . S
N1709 C1710 1.328 . S
N1709 C1714 1.318 . S
C1710 N1709 1.328 . S
C1710 C1711 1.457 . S
C1710 H1715 0.929 . S
C1711 C1710 1.457 . S
C1711 C1712 1.291 . S
C1711 H1724 0.931 . S
C1712 C1711 1.291 . S
C1712 C1713 1.373 . S
C1712 H1725 0.929 . S
C1713 C1712 1.373 . S
C1713 C1714 1.396 . S
C1713 C1720 1.403 . S
C1714 C1704 1.476 . S
C1714 N1709 1.318 . S
C1714 C1713 1.396 . S
H1715 C1710 0.929 . S
O1716 Mn1692 2.385 . S
O1716 C1694 1.234 . S
O1717 Mn1692 2.209 . S
O1717 Mn1693 2.215 . S
O1717 C1694 1.283 . S
O1718 Mn1692 2.094 . S
O1718 C1696 1.240 . S
O1719 Mn1693 2.117 . S
O1719 C1696 1.264 . S
C1720 C1713 1.403 . S
C1720 C1721 1.399 . S
C1720 H1726 0.929 . S
C1721 C1701 1.449 . S
C1721 C1720 1.399 . S
C1721 H1727 0.930 . S
H1722 C1702 0.931 . S
H1723 C1703 0.930 . S
H1724 C1711 0.931 . S
H1725 C1712 0.929 . S
H1726 C1720 0.929 . S
H1727 C1721 0.930 . S
C1728 C1729 1.387 . S
C1728 H1732 0.950 . S
C1728 C1737 1.390 . S
C1729 C1728 1.387 . S
C1729 C1731 1.387 . S
H1730 C1737 0.950 . S
C1731 C1729 1.387 . S
C1731 C1733 1.390 . S
C1731 H1735 0.950 . S
H1732 C1728 0.950 . S
C1733 C1731 1.390 . S
C1733 C1734 1.387 . S
C1733 H1736 0.950 . S
C1734 C1733 1.387 . S
C1734 C1737 1.387 . S
H1735 C1731 0.950 . S
H1736 C1733 0.950 . S
C1737 C1728 1.390 . S
C1737 H1730 0.950 . S
C1737 C1734 1.387 . S
C1738 C1739 1.387 . S
C1738 H1742 0.950 . S
C1738 C1747 1.390 . S
C1739 C1738 1.387 . S
C1739 C1741 1.387 . S
H1740 C1747 0.950 . S
C1741 C1739 1.387 . S
C1741 C1743 1.390 . S
C1741 H1745 0.950 . S
H1742 C1738 0.950 . S
C1743 C1741 1.390 . S
C1743 C1744 1.387 . S
C1743 H1746 0.950 . S
C1744 C1743 1.387 . S
C1744 C1747 1.387 . S
H1745 C1741 0.950 . S
H1746 C1743 0.950 . S
C1747 C1738 1.390 . S
C1747 H1740 0.950 . S
C1747 C1744 1.387 . S
C1748 C1749 1.387 . S
C1748 H1752 0.950 . S
C1748 C1757 1.390 . S
C1749 C1748 1.387 . S
C1749 C1751 1.387 . S
H1750 C1757 0.950 . S
C1751 C1749 1.387 . S
C1751 C1753 1.390 . S
C1751 H1755 0.950 . S
H1752 C1748 0.950 . S
C1753 C1751 1.390 . S
C1753 C1754 1.387 . S
C1753 H1756 0.950 . S
C1754 C1753 1.387 . S
C1754 C1757 1.387 . S
H1755 C1751 0.950 . S
H1756 C1753 0.950 . S
C1757 C1748 1.390 . S
C1757 H1750 0.950 . S
C1757 C1754 1.387 . S
C1758 C1759 1.387 . S
C1758 H1762 0.950 . S
C1758 C1767 1.390 . S
C1759 C1758 1.387 . S
C1759 C1761 1.387 . S
H1760 C1767 0.950 . S
C1761 C1759 1.387 . S
C1761 C1763 1.390 . S
C1761 H1765 0.950 . S
H1762 C1758 0.950 . S
C1763 C1761 1.390 . S
C1763 C1764 1.387 . S
C1763 H1766 0.950 . S
C1764 C1763 1.387 . S
C1764 C1767 1.387 . S
H1765 C1761 0.950 . S
H1766 C1763 0.950 . S
C1767 C1758 1.390 . S
C1767 H1760 0.950 . S
C1767 C1764 1.387 . S
C1768 C1769 1.387 . S
C1768 H1772 0.950 . S
C1768 C1777 1.390 . S
C1769 C1768 1.387 . S
C1769 C1771 1.387 . S
H1770 C1777 0.950 . S
C1771 C1769 1.387 . S
C1771 C1773 1.390 . S
C1771 H1775 0.950 . S
H1772 C1768 0.950 . S
C1773 C1771 1.390 . S
C1773 C1774 1.387 . S
C1773 H1776 0.950 . S
C1774 C1773 1.387 . S
C1774 C1777 1.387 . S
H1775 C1771 0.950 . S
H1776 C1773 0.950 . S
C1777 C1768 1.390 . S
C1777 H1770 0.950 . S
C1777 C1774 1.387 . S
C1778 C1779 1.387 . S
C1778 H1782 0.950 . S
C1778 C1787 1.390 . S
C1779 C1778 1.387 . S
C1779 C1781 1.387 . S
H1780 C1787 0.950 . S
C1781 C1779 1.387 . S
C1781 C1783 1.390 . S
C1781 H1785 0.950 . S
H1782 C1778 0.950 . S
C1783 C1781 1.390 . S
C1783 C1784 1.387 . S
C1783 H1786 0.950 . S
C1784 C1783 1.387 . S
C1784 C1787 1.387 . S
H1785 C1781 0.950 . S
H1786 C1783 0.950 . S
C1787 C1778 1.390 . S
C1787 H1780 0.950 . S
C1787 C1784 1.387 . S
C1788 C1789 1.387 . S
C1788 H1792 0.950 . S
C1788 C1797 1.390 . S
C1789 C1788 1.387 . S
C1789 C1791 1.387 . S
H1790 C1797 0.950 . S
C1791 C1789 1.387 . S
C1791 C1793 1.390 . S
C1791 H1795 0.950 . S
H1792 C1788 0.950 . S
C1793 C1791 1.390 . S
C1793 C1794 1.387 . S
C1793 H1796 0.950 . S
C1794 C1793 1.387 . S
C1794 C1797 1.387 . S
H1795 C1791 0.950 . S
H1796 C1793 0.950 . S
C1797 C1788 1.390 . S
C1797 H1790 0.950 . S
C1797 C1794 1.387 . S
C1798 C1799 1.387 . S
C1798 H1802 0.950 . S
C1798 C1807 1.390 . S
C1799 C1798 1.387 . S
C1799 C1801 1.387 . S
H1800 C1807 0.950 . S
C1801 C1799 1.387 . S
C1801 C1803 1.390 . S
C1801 H1805 0.950 . S
H1802 C1798 0.950 . S
C1803 C1801 1.390 . S
C1803 C1804 1.387 . S
C1803 H1806 0.950 . S
C1804 C1803 1.387 . S
C1804 C1807 1.387 . S
H1805 C1801 0.950 . S
H1806 C1803 0.950 . S
C1807 C1798 1.390 . S
C1807 H1800 0.950 . S
C1807 C1804 1.387 . S
C1808 C1809 1.387 . S
C1808 H1812 0.950 . S
C1808 C1817 1.390 . S
C1809 C1808 1.387 . S
C1809 C1811 1.387 . S
H1810 C1817 0.950 . S
C1811 C1809 1.387 . S
C1811 C1813 1.390 . S
C1811 H1815 0.950 . S
H1812 C1808 0.950 . S
C1813 C1811 1.390 . S
C1813 C1814 1.387 . S
C1813 H1816 0.950 . S
C1814 C1813 1.387 . S
C1814 C1817 1.387 . S
H1815 C1811 0.950 . S
H1816 C1813 0.950 . S
C1817 C1808 1.390 . S
C1817 H1810 0.950 . S
C1817 C1814 1.387 . S
C1818 C1819 1.387 . S
C1818 H1822 0.950 . S
C1818 C1827 1.390 . S
C1819 C1818 1.387 . S
C1819 C1821 1.387 . S
H1820 C1827 0.950 . S
C1821 C1819 1.387 . S
C1821 C1823 1.390 . S
C1821 H1825 0.950 . S
H1822 C1818 0.950 . S
C1823 C1821 1.390 . S
C1823 C1824 1.387 . S
C1823 H1826 0.950 . S
C1824 C1823 1.387 . S
C1824 C1827 1.387 . S
H1825 C1821 0.950 . S
H1826 C1823 0.950 . S
C1827 C1818 1.390 . S
C1827 H1820 0.950 . S
C1827 C1824 1.387 . S
C1828 C1829 1.387 . S
C1828 H1832 0.950 . S
C1828 C1837 1.390 . S
C1829 C1828 1.387 . S
C1829 C1831 1.387 . S
H1830 C1837 0.950 . S
C1831 C1829 1.387 . S
C1831 C1833 1.390 . S
C1831 H1835 0.950 . S
H1832 C1828 0.950 . S
C1833 C1831 1.390 . S
C1833 C1834 1.387 . S
C1833 H1836 0.950 . S
C1834 C1833 1.387 . S
C1834 C1837 1.387 . S
H1835 C1831 0.950 . S
H1836 C1833 0.950 . S
C1837 C1828 1.390 . S
C1837 H1830 0.950 . S
C1837 C1834 1.387 . S
C1838 C1839 1.387 . S
C1838 H1842 0.950 . S
C1838 C1847 1.390 . S
C1839 C1838 1.387 . S
C1839 C1841 1.387 . S
H1840 C1847 0.950 . S
C1841 C1839 1.387 . S
C1841 C1843 1.390 . S
C1841 H1845 0.950 . S
H1842 C1838 0.950 . S
C1843 C1841 1.390 . S
C1843 C1844 1.387 . S
C1843 H1846 0.950 . S
C1844 C1843 1.387 . S
C1844 C1847 1.387 . S
H1845 C1841 0.950 . S
H1846 C1843 0.950 . S
C1847 C1838 1.390 . S
C1847 H1840 0.950 . S
C1847 C1844 1.387 . S
C1848 C1849 1.387 . S
C1848 H1852 0.950 . S
C1848 C1857 1.390 . S
C1849 C1848 1.387 . S
C1849 C1851 1.387 . S
H1850 C1857 0.950 . S
C1851 C1849 1.387 . S
C1851 C1853 1.390 . S
C1851 H1855 0.950 . S
H1852 C1848 0.950 . S
C1853 C1851 1.390 . S
C1853 C1854 1.387 . S
C1853 H1856 0.950 . S
C1854 C1853 1.387 . S
C1854 C1857 1.387 . S
H1855 C1851 0.950 . S
H1856 C1853 0.950 . S
C1857 C1848 1.390 . S
C1857 H1850 0.950 . S
C1857 C1854 1.387 . S
C1858 C1859 1.387 . S
C1858 H1862 0.950 . S
C1858 C1867 1.390 . S
C1859 C1858 1.387 . S
C1859 C1861 1.387 . S
H1860 C1867 0.950 . S
C1861 C1859 1.387 . S
C1861 C1863 1.390 . S
C1861 H1865 0.950 . S
H1862 C1858 0.950 . S
C1863 C1861 1.390 . S
C1863 C1864 1.387 . S
C1863 H1866 0.950 . S
C1864 C1863 1.387 . S
C1864 C1867 1.387 . S
H1865 C1861 0.950 . S
H1866 C1863 0.950 . S
C1867 C1858 1.390 . S
C1867 H1860 0.950 . S
C1867 C1864 1.387 . S
C1868 C1869 1.387 . S
C1868 H1872 0.950 . S
C1868 C1877 1.390 . S
C1869 C1868 1.387 . S
C1869 C1871 1.387 . S
H1870 C1877 0.950 . S
C1871 C1869 1.387 . S
C1871 C1873 1.390 . S
C1871 H1875 0.950 . S
H1872 C1868 0.950 . S
C1873 C1871 1.390 . S
C1873 C1874 1.387 . S
C1873 H1876 0.950 . S
C1874 C1873 1.387 . S
C1874 C1877 1.387 . S
H1875 C1871 0.950 . S
H1876 C1873 0.950 . S
C1877 C1868 1.390 . S
C1877 H1870 0.950 . S
C1877 C1874 1.387 . S
C1878 C1879 1.387 . S
C1878 H1882 0.950 . S
C1878 C1887 1.390 . S
C1879 C1878 1.387 . S
C1879 C1881 1.387 . S
H1880 C1887 0.950 . S
C1881 C1879 1.387 . S
C1881 C1883 1.390 . S
C1881 H1885 0.950 . S
H1882 C1878 0.950 . S
C1883 C1881 1.390 . S
C1883 C1884 1.387 . S
C1883 H1886 0.950 . S
C1884 C1883 1.387 . S
C1884 C1887 1.387 . S
H1885 C1881 0.950 . S
H1886 C1883 0.950 . S
C1887 C1878 1.390 . S
C1887 H1880 0.950 . S
C1887 C1884 1.387 . S
C1888 C1889 1.387 . S
C1888 H1892 0.950 . S
C1888 C1897 1.390 . S
C1889 C1888 1.387 . S
C1889 C1891 1.387 . S
H1890 C1897 0.950 . S
C1891 C1889 1.387 . S
C1891 C1893 1.390 . S
C1891 H1895 0.950 . S
H1892 C1888 0.950 . S
C1893 C1891 1.390 . S
C1893 C1894 1.387 . S
C1893 H1896 0.950 . S
C1894 C1893 1.387 . S
C1894 C1897 1.387 . S
H1895 C1891 0.950 . S
H1896 C1893 0.950 . S
C1897 C1888 1.390 . S
C1897 H1890 0.950 . S
C1897 C1894 1.387 . S
C1898 C1899 1.387 . S
C1898 H1902 0.950 . S
C1898 C1907 1.390 . S
C1899 C1898 1.387 . S
C1899 C1901 1.387 . S
H1900 C1907 0.950 . S
C1901 C1899 1.387 . S
C1901 C1903 1.390 . S
C1901 H1905 0.950 . S
H1902 C1898 0.950 . S
C1903 C1901 1.390 . S
C1903 C1904 1.387 . S
C1903 H1906 0.950 . S
C1904 C1903 1.387 . S
C1904 C1907 1.387 . S
H1905 C1901 0.950 . S
H1906 C1903 0.950 . S
C1907 C1898 1.390 . S
C1907 H1900 0.950 . S
C1907 C1904 1.387 . S
C1908 C1909 1.387 . S
C1908 H1912 0.950 . S
C1908 C1917 1.390 . S
C1909 C1908 1.387 . S
C1909 C1911 1.387 . S
H1910 C1917 0.950 . S
C1911 C1909 1.387 . S
C1911 C1913 1.390 . S
C1911 H1915 0.950 . S
H1912 C1908 0.950 . S
C1913 C1911 1.390 . S
C1913 C1914 1.387 . S
C1913 H1916 0.950 . S
C1914 C1913 1.387 . S
C1914 C1917 1.387 . S
H1915 C1911 0.950 . S
H1916 C1913 0.950 . S
C1917 C1908 1.390 . S
C1917 H1910 0.950 . S
C1917 C1914 1.387 . S
C1918 C1919 1.387 . S
C1918 H1922 0.950 . S
C1918 C1927 1.390 . S
C1919 C1918 1.387 . S
C1919 C1921 1.387 . S
H1920 C1927 0.950 . S
C1921 C1919 1.387 . S
C1921 C1923 1.390 . S
C1921 H1925 0.950 . S
H1922 C1918 0.950 . S
C1923 C1921 1.390 . S
C1923 C1924 1.387 . S
C1923 H1926 0.950 . S
C1924 C1923 1.387 . S
C1924 C1927 1.387 . S
H1925 C1921 0.950 . S
H1926 C1923 0.950 . S
C1927 C1918 1.390 . S
C1927 H1920 0.950 . S
C1927 C1924 1.387 . S
C1928 C1929 1.387 . S
C1928 H1932 0.950 . S
C1928 C1937 1.390 . S
C1929 C1928 1.387 . S
C1929 C1931 1.387 . S
H1930 C1937 0.950 . S
C1931 C1929 1.387 . S
C1931 C1933 1.390 . S
C1931 H1935 0.950 . S
H1932 C1928 0.950 . S
C1933 C1931 1.390 . S
C1933 C1934 1.387 . S
C1933 H1936 0.950 . S
C1934 C1933 1.387 . S
C1934 C1937 1.387 . S
H1935 C1931 0.950 . S
H1936 C1933 0.950 . S
C1937 C1928 1.390 . S
C1937 H1930 0.950 . S
C1937 C1934 1.387 . S
C1938 C1939 1.387 . S
C1938 H1942 0.950 . S
C1938 C1947 1.390 . S
C1939 C1938 1.387 . S
C1939 C1941 1.387 . S
H1940 C1947 0.950 . S
C1941 C1939 1.387 . S
C1941 C1943 1.390 . S
C1941 H1945 0.950 . S
H1942 C1938 0.950 . S
C1943 C1941 1.390 . S
C1943 C1944 1.387 . S
C1943 H1946 0.950 . S
C1944 C1943 1.387 . S
C1944 C1947 1.387 . S
H1945 C1941 0.950 . S
H1946 C1943 0.950 . S
C1947 C1938 1.390 . S
C1947 H1940 0.950 . S
C1947 C1944 1.387 . S
C1948 C1949 1.387 . S
C1948 H1952 0.950 . S
C1948 C1957 1.390 . S
C1949 C1948 1.387 . S
C1949 C1951 1.387 . S
H1950 C1957 0.950 . S
C1951 C1949 1.387 . S
C1951 C1953 1.390 . S
C1951 H1955 0.950 . S
H1952 C1948 0.950 . S
C1953 C1951 1.390 . S
C1953 C1954 1.387 . S
C1953 H1956 0.950 . S
C1954 C1953 1.387 . S
C1954 C1957 1.387 . S
H1955 C1951 0.950 . S
H1956 C1953 0.950 . S
C1957 C1948 1.390 . S
C1957 H1950 0.950 . S
C1957 C1954 1.387 . S
C1958 C1959 1.387 . S
C1958 H1962 0.950 . S
C1958 C1967 1.390 . S
C1959 C1958 1.387 . S
C1959 C1961 1.387 . S
H1960 C1967 0.950 . S
C1961 C1959 1.387 . S
C1961 C1963 1.390 . S
C1961 H1965 0.950 . S
H1962 C1958 0.950 . S
C1963 C1961 1.390 . S
C1963 C1964 1.387 . S
C1963 H1966 0.950 . S
C1964 C1963 1.387 . S
C1964 C1967 1.387 . S
H1965 C1961 0.950 . S
H1966 C1963 0.950 . S
C1967 C1958 1.390 . S
C1967 H1960 0.950 . S
C1967 C1964 1.387 . S
C1968 C1969 1.387 . S
C1968 H1972 0.950 . S
C1968 C1977 1.390 . S
C1969 C1968 1.387 . S
C1969 C1971 1.387 . S
H1970 C1977 0.950 . S
C1971 C1969 1.387 . S
C1971 C1973 1.390 . S
C1971 H1975 0.950 . S
H1972 C1968 0.950 . S
C1973 C1971 1.390 . S
C1973 C1974 1.387 . S
C1973 H1976 0.950 . S
C1974 C1973 1.387 . S
C1974 C1977 1.387 . S
H1975 C1971 0.950 . S
H1976 C1973 0.950 . S
C1977 C1968 1.390 . S
C1977 H1970 0.950 . S
C1977 C1974 1.387 . S
C1978 C1979 1.387 . S
C1978 H1982 0.950 . S
C1978 C1987 1.390 . S
C1979 C1978 1.387 . S
C1979 C1981 1.387 . S
H1980 C1987 0.950 . S
C1981 C1979 1.387 . S
C1981 C1983 1.390 . S
C1981 H1985 0.950 . S
H1982 C1978 0.950 . S
C1983 C1981 1.390 . S
C1983 C1984 1.387 . S
C1983 H1986 0.950 . S
C1984 C1983 1.387 . S
C1984 C1987 1.387 . S
H1985 C1981 0.950 . S
H1986 C1983 0.950 . S
C1987 C1978 1.390 . S
C1987 H1980 0.950 . S
C1987 C1984 1.387 . S
C1988 C1989 1.387 . S
C1988 H1992 0.950 . S
C1988 C1997 1.390 . S
C1989 C1988 1.387 . S
C1989 C1991 1.387 . S
H1990 C1997 0.950 . S
C1991 C1989 1.387 . S
C1991 C1993 1.390 . S
C1991 H1995 0.950 . S
H1992 C1988 0.950 . S
C1993 C1991 1.390 . S
C1993 C1994 1.387 . S
C1993 H1996 0.950 . S
C1994 C1993 1.387 . S
C1994 C1997 1.387 . S
H1995 C1991 0.950 . S
H1996 C1993 0.950 . S
C1997 C1988 1.390 . S
C1997 H1990 0.950 . S
C1997 C1994 1.387 . S
C1998 C1999 1.387 . S
C1998 H2002 0.950 . S
C1998 C2007 1.390 . S
C1999 C1998 1.387 . S
C1999 C2001 1.387 . S
H2000 C2007 0.950 . S
C2001 C1999 1.387 . S
C2001 C2003 1.390 . S
C2001 H2005 0.950 . S
H2002 C1998 0.950 . S
C2003 C2001 1.390 . S
C2003 C2004 1.387 . S
C2003 H2006 0.950 . S
C2004 C2003 1.387 . S
C2004 C2007 1.387 . S
H2005 C2001 0.950 . S
H2006 C2003 0.950 . S
C2007 C1998 1.390 . S
C2007 H2000 0.950 . S
C2007 C2004 1.387 . S
C2008 C2009 1.387 . S
C2008 H2012 0.950 . S
C2008 C2017 1.390 . S
C2009 C2008 1.387 . S
C2009 C2011 1.387 . S
H2010 C2017 0.950 . S
C2011 C2009 1.387 . S
C2011 C2013 1.390 . S
C2011 H2015 0.950 . S
H2012 C2008 0.950 . S
C2013 C2011 1.390 . S
C2013 C2014 1.387 . S
C2013 H2016 0.950 . S
C2014 C2013 1.387 . S
C2014 C2017 1.387 . S
H2015 C2011 0.950 . S
H2016 C2013 0.950 . S
C2017 C2008 1.390 . S
C2017 H2010 0.950 . S
C2017 C2014 1.387 . S
C2018 C2019 1.387 . S
C2018 H2022 0.950 . S
C2018 C2027 1.390 . S
C2019 C2018 1.387 . S
C2019 C2021 1.387 . S
H2020 C2027 0.950 . S
C2021 C2019 1.387 . S
C2021 C2023 1.390 . S
C2021 H2025 0.950 . S
H2022 C2018 0.950 . S
C2023 C2021 1.390 . S
C2023 C2024 1.387 . S
C2023 H2026 0.950 . S
C2024 C2023 1.387 . S
C2024 C2027 1.387 . S
H2025 C2021 0.950 . S
H2026 C2023 0.950 . S
C2027 C2018 1.390 . S
C2027 H2020 0.950 . S
C2027 C2024 1.387 . S
C2028 C2029 1.387 . S
C2028 H2032 0.950 . S
C2028 C2037 1.390 . S
C2029 C2028 1.387 . S
C2029 C2031 1.387 . S
H2030 C2037 0.950 . S
C2031 C2029 1.387 . S
C2031 C2033 1.390 . S
C2031 H2035 0.950 . S
H2032 C2028 0.950 . S
C2033 C2031 1.390 . S
C2033 C2034 1.387 . S
C2033 H2036 0.950 . S
C2034 C2033 1.387 . S
C2034 C2037 1.387 . S
H2035 C2031 0.950 . S
H2036 C2033 0.950 . S
C2037 C2028 1.390 . S
C2037 H2030 0.950 . S
C2037 C2034 1.387 . S
C2038 C2039 1.387 . S
C2038 H2042 0.950 . S
C2038 C2047 1.390 . S
C2039 C2038 1.387 . S
C2039 C2041 1.387 . S
H2040 C2047 0.950 . S
C2041 C2039 1.387 . S
C2041 C2043 1.390 . S
C2041 H2045 0.950 . S
H2042 C2038 0.950 . S
C2043 C2041 1.390 . S
C2043 C2044 1.387 . S
C2043 H2046 0.950 . S
C2044 C2043 1.387 . S
C2044 C2047 1.387 . S
H2045 C2041 0.950 . S
H2046 C2043 0.950 . S
C2047 C2038 1.390 . S
C2047 H2040 0.950 . S
C2047 C2044 1.387 . S
C2048 C2049 1.387 . S
C2048 H2052 0.950 . S
C2048 C2057 1.390 . S
C2049 C2048 1.387 . S
C2049 C2051 1.387 . S
H2050 C2057 0.950 . S
C2051 C2049 1.387 . S
C2051 C2053 1.390 . S
C2051 H2055 0.950 . S
H2052 C2048 0.950 . S
C2053 C2051 1.390 . S
C2053 C2054 1.387 . S
C2053 H2056 0.950 . S
C2054 C2053 1.387 . S
C2054 C2057 1.387 . S
H2055 C2051 0.950 . S
H2056 C2053 0.950 . S
C2057 C2048 1.390 . S
C2057 H2050 0.950 . S
C2057 C2054 1.387 . S
C2058 C2059 1.387 . S
C2058 H2062 0.950 . S
C2058 C2067 1.390 . S
C2059 C2058 1.387 . S
C2059 C2061 1.387 . S
H2060 C2067 0.950 . S
C2061 C2059 1.387 . S
C2061 C2063 1.390 . S
C2061 H2065 0.950 . S
H2062 C2058 0.950 . S
C2063 C2061 1.390 . S
C2063 C2064 1.387 . S
C2063 H2066 0.950 . S
C2064 C2063 1.387 . S
C2064 C2067 1.387 . S
H2065 C2061 0.950 . S
H2066 C2063 0.950 . S
C2067 C2058 1.390 . S
C2067 H2060 0.950 . S
C2067 C2064 1.387 . S
C2068 C2069 1.387 . S
C2068 H2072 0.950 . S
C2068 C2077 1.390 . S
C2069 C2068 1.387 . S
C2069 C2071 1.387 . S
H2070 C2077 0.950 . S
C2071 C2069 1.387 . S
C2071 C2073 1.390 . S
C2071 H2075 0.950 . S
H2072 C2068 0.950 . S
C2073 C2071 1.390 . S
C2073 C2074 1.387 . S
C2073 H2076 0.950 . S
C2074 C2073 1.387 . S
C2074 C2077 1.387 . S
H2075 C2071 0.950 . S
H2076 C2073 0.950 . S
C2077 C2068 1.390 . S
C2077 H2070 0.950 . S
C2077 C2074 1.387 . S
C2078 C2079 1.387 . S
C2078 H2082 0.950 . S
C2078 C2087 1.390 . S
C2079 C2078 1.387 . S
C2079 C2081 1.387 . S
H2080 C2087 0.950 . S
C2081 C2079 1.387 . S
C2081 C2083 1.390 . S
C2081 H2085 0.950 . S
H2082 C2078 0.950 . S
C2083 C2081 1.390 . S
C2083 C2084 1.387 . S
C2083 H2086 0.950 . S
C2084 C2083 1.387 . S
C2084 C2087 1.387 . S
H2085 C2081 0.950 . S
H2086 C2083 0.950 . S
C2087 C2078 1.390 . S
C2087 H2080 0.950 . S
C2087 C2084 1.387 . S
C2088 C2089 1.387 . S
C2088 H2092 0.950 . S
C2088 C2097 1.390 . S
C2089 C2088 1.387 . S
C2089 C2091 1.387 . S
H2090 C2097 0.950 . S
C2091 C2089 1.387 . S
C2091 C2093 1.390 . S
C2091 H2095 0.950 . S
H2092 C2088 0.950 . S
C2093 C2091 1.390 . S
C2093 C2094 1.387 . S
C2093 H2096 0.950 . S
C2094 C2093 1.387 . S
C2094 C2097 1.387 . S
H2095 C2091 0.950 . S
H2096 C2093 0.950 . S
C2097 C2088 1.390 . S
C2097 H2090 0.950 . S
C2097 C2094 1.387 . S
C2098 C2099 1.387 . S
C2098 H2102 0.950 . S
C2098 C2107 1.390 . S
C2099 C2098 1.387 . S
C2099 C2101 1.387 . S
H2100 C2107 0.950 . S
C2101 C2099 1.387 . S
C2101 C2103 1.390 . S
C2101 H2105 0.950 . S
H2102 C2098 0.950 . S
C2103 C2101 1.390 . S
C2103 C2104 1.387 . S
C2103 H2106 0.950 . S
C2104 C2103 1.387 . S
C2104 C2107 1.387 . S
H2105 C2101 0.950 . S
H2106 C2103 0.950 . S
C2107 C2098 1.390 . S
C2107 H2100 0.950 . S
C2107 C2104 1.387 . S
C2108 C2109 1.387 . S
C2108 H2112 0.950 . S
C2108 C2117 1.390 . S
C2109 C2108 1.387 . S
C2109 C2111 1.387 . S
H2110 C2117 0.950 . S
C2111 C2109 1.387 . S
C2111 C2113 1.390 . S
C2111 H2115 0.950 . S
H2112 C2108 0.950 . S
C2113 C2111 1.390 . S
C2113 C2114 1.387 . S
C2113 H2116 0.950 . S
C2114 C2113 1.387 . S
C2114 C2117 1.387 . S
H2115 C2111 0.950 . S
H2116 C2113 0.950 . S
C2117 C2108 1.390 . S
C2117 H2110 0.950 . S
C2117 C2114 1.387 . S
C2118 C2119 1.387 . S
C2118 H2122 0.950 . S
C2118 C2127 1.390 . S
C2119 C2118 1.387 . S
C2119 C2121 1.387 . S
H2120 C2127 0.950 . S
C2121 C2119 1.387 . S
C2121 C2123 1.390 . S
C2121 H2125 0.950 . S
H2122 C2118 0.950 . S
C2123 C2121 1.390 . S
C2123 C2124 1.387 . S
C2123 H2126 0.950 . S
C2124 C2123 1.387 . S
C2124 C2127 1.387 . S
H2125 C2121 0.950 . S
H2126 C2123 0.950 . S
C2127 C2118 1.390 . S
C2127 H2120 0.950 . S
C2127 C2124 1.387 . S
C2128 C2129 1.387 . S
C2128 H2132 0.950 . S
C2128 C2137 1.390 . S
C2129 C2128 1.387 . S
C2129 C2131 1.387 . S
H2130 C2137 0.950 . S
C2131 C2129 1.387 . S
C2131 C2133 1.390 . S
C2131 H2135 0.950 . S
H2132 C2128 0.950 . S
C2133 C2131 1.390 . S
C2133 C2134 1.387 . S
C2133 H2136 0.950 . S
C2134 C2133 1.387 . S
C2134 C2137 1.387 . S
H2135 C2131 0.950 . S
H2136 C2133 0.950 . S
C2137 C2128 1.390 . S
C2137 H2130 0.950 . S
C2137 C2134 1.387 . S
C2138 C2139 1.387 . S
C2138 H2142 0.950 . S
C2138 C2147 1.390 . S
C2139 C2138 1.387 . S
C2139 C2141 1.387 . S
H2140 C2147 0.950 . S
C2141 C2139 1.387 . S
C2141 C2143 1.390 . S
C2141 H2145 0.950 . S
H2142 C2138 0.950 . S
C2143 C2141 1.390 . S
C2143 C2144 1.387 . S
C2143 H2146 0.950 . S
C2144 C2143 1.387 . S
C2144 C2147 1.387 . S
H2145 C2141 0.950 . S
H2146 C2143 0.950 . S
C2147 C2138 1.390 . S
C2147 H2140 0.950 . S
C2147 C2144 1.387 . S
C2148 C2149 1.387 . S
C2148 H2152 0.950 . S
C2148 C2157 1.390 . S
C2149 C2148 1.387 . S
C2149 C2151 1.387 . S
H2150 C2157 0.950 . S
C2151 C2149 1.387 . S
C2151 C2153 1.390 . S
C2151 H2155 0.950 . S
H2152 C2148 0.950 . S
C2153 C2151 1.390 . S
C2153 C2154 1.387 . S
C2153 H2156 0.950 . S
C2154 C2153 1.387 . S
C2154 C2157 1.387 . S
H2155 C2151 0.950 . S
H2156 C2153 0.950 . S
C2157 C2148 1.390 . S
C2157 H2150 0.950 . S
C2157 C2154 1.387 . S
C2158 C2159 1.387 . S
C2158 H2162 0.950 . S
C2158 C2167 1.390 . S
C2159 C2158 1.387 . S
C2159 C2161 1.387 . S
H2160 C2167 0.950 . S
C2161 C2159 1.387 . S
C2161 C2163 1.390 . S
C2161 H2165 0.950 . S
H2162 C2158 0.950 . S
C2163 C2161 1.390 . S
C2163 C2164 1.387 . S
C2163 H2166 0.950 . S
C2164 C2163 1.387 . S
C2164 C2167 1.387 . S
H2165 C2161 0.950 . S
H2166 C2163 0.950 . S
C2167 C2158 1.390 . S
C2167 H2160 0.950 . S
C2167 C2164 1.387 . S
C2168 C2169 1.387 . S
C2168 H2172 0.950 . S
C2168 C2177 1.390 . S
C2169 C2168 1.387 . S
C2169 C2171 1.387 . S
H2170 C2177 0.950 . S
C2171 C2169 1.387 . S
C2171 C2173 1.390 . S
C2171 H2175 0.950 . S
H2172 C2168 0.950 . S
C2173 C2171 1.390 . S
C2173 C2174 1.387 . S
C2173 H2176 0.950 . S
C2174 C2173 1.387 . S
C2174 C2177 1.387 . S
H2175 C2171 0.950 . S
H2176 C2173 0.950 . S
C2177 C2168 1.390 . S
C2177 H2170 0.950 . S
C2177 C2174 1.387 . S
C2178 C2179 1.387 . S
C2178 H2182 0.950 . S
C2178 C2187 1.390 . S
C2179 C2178 1.387 . S
C2179 C2181 1.387 . S
H2180 C2187 0.950 . S
C2181 C2179 1.387 . S
C2181 C2183 1.390 . S
C2181 H2185 0.950 . S
H2182 C2178 0.950 . S
C2183 C2181 1.390 . S
C2183 C2184 1.387 . S
C2183 H2186 0.950 . S
C2184 C2183 1.387 . S
C2184 C2187 1.387 . S
H2185 C2181 0.950 . S
H2186 C2183 0.950 . S
C2187 C2178 1.390 . S
C2187 H2180 0.950 . S
C2187 C2184 1.387 . S
C2188 C2189 1.387 . S
C2188 H2192 0.950 . S
C2188 C2197 1.390 . S
C2189 C2188 1.387 . S
C2189 C2191 1.387 . S
H2190 C2197 0.950 . S
C2191 C2189 1.387 . S
C2191 C2193 1.390 . S
C2191 H2195 0.950 . S
H2192 C2188 0.950 . S
C2193 C2191 1.390 . S
C2193 C2194 1.387 . S
C2193 H2196 0.950 . S
C2194 C2193 1.387 . S
C2194 C2197 1.387 . S
H2195 C2191 0.950 . S
H2196 C2193 0.950 . S
C2197 C2188 1.390 . S
C2197 H2190 0.950 . S
C2197 C2194 1.387 . S
C2198 C2199 1.387 . S
C2198 H2202 0.950 . S
C2198 C2207 1.390 . S
C2199 C2198 1.387 . S
C2199 C2201 1.387 . S
H2200 C2207 0.950 . S
C2201 C2199 1.387 . S
C2201 C2203 1.390 . S
C2201 H2205 0.950 . S
H2202 C2198 0.950 . S
C2203 C2201 1.390 . S
C2203 C2204 1.387 . S
C2203 H2206 0.950 . S
C2204 C2203 1.387 . S
C2204 C2207 1.387 . S
H2205 C2201 0.950 . S
H2206 C2203 0.950 . S
C2207 C2198 1.390 . S
C2207 H2200 0.950 . S
C2207 C2204 1.387 . S
C2208 C2209 1.387 . S
C2208 H2212 0.950 . S
C2208 C2217 1.390 . S
C2209 C2208 1.387 . S
C2209 C2211 1.387 . S
H2210 C2217 0.950 . S
C2211 C2209 1.387 . S
C2211 C2213 1.390 . S
C2211 H2215 0.950 . S
H2212 C2208 0.950 . S
C2213 C2211 1.390 . S
C2213 C2214 1.387 . S
C2213 H2216 0.950 . S
C2214 C2213 1.387 . S
C2214 C2217 1.387 . S
H2215 C2211 0.950 . S
H2216 C2213 0.950 . S
C2217 C2208 1.390 . S
C2217 H2210 0.950 . S
C2217 C2214 1.387 . S
C2218 C2219 1.387 . S
C2218 H2222 0.950 . S
C2218 C2227 1.390 . S
C2219 C2218 1.387 . S
C2219 C2221 1.387 . S
H2220 C2227 0.950 . S
C2221 C2219 1.387 . S
C2221 C2223 1.390 . S
C2221 H2225 0.950 . S
H2222 C2218 0.950 . S
C2223 C2221 1.390 . S
C2223 C2224 1.387 . S
C2223 H2226 0.950 . S
C2224 C2223 1.387 . S
C2224 C2227 1.387 . S
H2225 C2221 0.950 . S
H2226 C2223 0.950 . S
C2227 C2218 1.390 . S
C2227 H2220 0.950 . S
C2227 C2224 1.387 . S
C2228 C2229 1.387 . S
C2228 H2232 0.950 . S
C2228 C2237 1.390 . S
C2229 C2228 1.387 . S
C2229 C2231 1.387 . S
H2230 C2237 0.950 . S
C2231 C2229 1.387 . S
C2231 C2233 1.390 . S
C2231 H2235 0.950 . S
H2232 C2228 0.950 . S
C2233 C2231 1.390 . S
C2233 C2234 1.387 . S
C2233 H2236 0.950 . S
C2234 C2233 1.387 . S
C2234 C2237 1.387 . S
H2235 C2231 0.950 . S
H2236 C2233 0.950 . S
C2237 C2228 1.390 . S
C2237 H2230 0.950 . S
C2237 C2234 1.387 . S
C2238 C2239 1.387 . S
C2238 H2242 0.950 . S
C2238 C2247 1.390 . S
C2239 C2238 1.387 . S
C2239 C2241 1.387 . S
H2240 C2247 0.950 . S
C2241 C2239 1.387 . S
C2241 C2243 1.390 . S
C2241 H2245 0.950 . S
H2242 C2238 0.950 . S
C2243 C2241 1.390 . S
C2243 C2244 1.387 . S
C2243 H2246 0.950 . S
C2244 C2243 1.387 . S
C2244 C2247 1.387 . S
H2245 C2241 0.950 . S
H2246 C2243 0.950 . S
C2247 C2238 1.390 . S
C2247 H2240 0.950 . S
C2247 C2244 1.387 . S
C2248 C2249 1.387 . S
C2248 H2252 0.950 . S
C2248 C2257 1.390 . S
C2249 C2248 1.387 . S
C2249 C2251 1.387 . S
H2250 C2257 0.950 . S
C2251 C2249 1.387 . S
C2251 C2253 1.390 . S
C2251 H2255 0.950 . S
H2252 C2248 0.950 . S
C2253 C2251 1.390 . S
C2253 C2254 1.387 . S
C2253 H2256 0.950 . S
C2254 C2253 1.387 . S
C2254 C2257 1.387 . S
H2255 C2251 0.950 . S
H2256 C2253 0.950 . S
C2257 C2248 1.390 . S
C2257 H2250 0.950 . S
C2257 C2254 1.387 . S
C2258 C2259 1.387 . S
C2258 H2262 0.950 . S
C2258 C2267 1.390 . S
C2259 C2258 1.387 . S
C2259 C2261 1.387 . S
H2260 C2267 0.950 . S
C2261 C2259 1.387 . S
C2261 C2263 1.390 . S
C2261 H2265 0.950 . S
H2262 C2258 0.950 . S
C2263 C2261 1.390 . S
C2263 C2264 1.387 . S
C2263 H2266 0.950 . S
C2264 C2263 1.387 . S
C2264 C2267 1.387 . S
H2265 C2261 0.950 . S
H2266 C2263 0.950 . S
C2267 C2258 1.390 . S
C2267 H2260 0.950 . S
C2267 C2264 1.387 . S
C2268 C2269 1.387 . S
C2268 H2272 0.950 . S
C2268 C2277 1.390 . S
C2269 C2268 1.387 . S
C2269 C2271 1.387 . S
H2270 C2277 0.950 . S
C2271 C2269 1.387 . S
C2271 C2273 1.390 . S
C2271 H2275 0.950 . S
H2272 C2268 0.950 . S
C2273 C2271 1.390 . S
C2273 C2274 1.387 . S
C2273 H2276 0.950 . S
C2274 C2273 1.387 . S
C2274 C2277 1.387 . S
H2275 C2271 0.950 . S
H2276 C2273 0.950 . S
C2277 C2268 1.390 . S
C2277 H2270 0.950 . S
C2277 C2274 1.387 . S
C2278 C2279 1.387 . S
C2278 H2282 0.950 . S
C2278 C2287 1.390 . S
C2279 C2278 1.387 . S
C2279 C2281 1.387 . S
H2280 C2287 0.950 . S
C2281 C2279 1.387 . S
C2281 C2283 1.390 . S
C2281 H2285 0.950 . S
H2282 C2278 0.950 . S
C2283 C2281 1.390 . S
C2283 C2284 1.387 . S
C2283 H2286 0.950 . S
C2284 C2283 1.387 . S
C2284 C2287 1.387 . S
H2285 C2281 0.950 . S
H2286 C2283 0.950 . S
C2287 C2278 1.390 . S
C2287 H2280 0.950 . S
C2287 C2284 1.387 . S
C2288 C2289 1.387 . S
C2288 H2292 0.950 . S
C2288 C2297 1.390 . S
C2289 C2288 1.387 . S
C2289 C2291 1.387 . S
H2290 C2297 0.950 . S
C2291 C2289 1.387 . S
C2291 C2293 1.390 . S
C2291 H2295 0.950 . S
H2292 C2288 0.950 . S
C2293 C2291 1.390 . S
C2293 C2294 1.387 . S
C2293 H2296 0.950 . S
C2294 C2293 1.387 . S
C2294 C2297 1.387 . S
H2295 C2291 0.950 . S
H2296 C2293 0.950 . S
C2297 C2288 1.390 . S
C2297 H2290 0.950 . S
C2297 C2294 1.387 . S
C2298 C2299 1.387 . S
C2298 H2302 0.950 . S
C2298 C2307 1.390 . S
C2299 C2298 1.387 . S
C2299 C2301 1.387 . S
H2300 C2307 0.950 . S
C2301 C2299 1.387 . S
C2301 C2303 1.390 . S
C2301 H2305 0.950 . S
H2302 C2298 0.950 . S
C2303 C2301 1.390 . S
C2303 C2304 1.387 . S
C2303 H2306 0.950 . S
C2304 C2303 1.387 . S
C2304 C2307 1.387 . S
H2305 C2301 0.950 . S
H2306 C2303 0.950 . S
C2307 C2298 1.390 . S
C2307 H2300 0.950 . S
C2307 C2304 1.387 . S
C2308 C2309 1.387 . S
C2308 H2312 0.950 . S
C2308 C2317 1.390 . S
C2309 C2308 1.387 . S
C2309 C2311 1.387 . S
H2310 C2317 0.950 . S
C2311 C2309 1.387 . S
C2311 C2313 1.390 . S
C2311 H2315 0.950 . S
H2312 C2308 0.950 . S
C2313 C2311 1.390 . S
C2313 C2314 1.387 . S
C2313 H2316 0.950 . S
C2314 C2313 1.387 . S
C2314 C2317 1.387 . S
H2315 C2311 0.950 . S
H2316 C2313 0.950 . S
C2317 C2308 1.390 . S
C2317 H2310 0.950 . S
C2317 C2314 1.387 . S
C2318 C2319 1.387 . S
C2318 H2322 0.950 . S
C2318 C2327 1.390 . S
C2319 C2318 1.387 . S
C2319 C2321 1.387 . S
H2320 C2327 0.950 . S
C2321 C2319 1.387 . S
C2321 C2323 1.390 . S
C2321 H2325 0.950 . S
H2322 C2318 0.950 . S
C2323 C2321 1.390 . S
C2323 C2324 1.387 . S
C2323 H2326 0.950 . S
C2324 C2323 1.387 . S
C2324 C2327 1.387 . S
H2325 C2321 0.950 . S
H2326 C2323 0.950 . S
C2327 C2318 1.390 . S
C2327 H2320 0.950 . S
C2327 C2324 1.387 . S
C2328 C2329 1.387 . S
C2328 H2332 0.950 . S
C2328 C2337 1.390 . S
C2329 C2328 1.387 . S
C2329 C2331 1.387 . S
H2330 C2337 0.950 . S
C2331 C2329 1.387 . S
C2331 C2333 1.390 . S
C2331 H2335 0.950 . S
H2332 C2328 0.950 . S
C2333 C2331 1.390 . S
C2333 C2334 1.387 . S
C2333 H2336 0.950 . S
C2334 C2333 1.387 . S
C2334 C2337 1.387 . S
H2335 C2331 0.950 . S
H2336 C2333 0.950 . S
C2337 C2328 1.390 . S
C2337 H2330 0.950 . S
C2337 C2334 1.387 . S
C2338 C2339 1.387 . S
C2338 H2342 0.950 . S
C2338 C2347 1.390 . S
C2339 C2338 1.387 . S
C2339 C2341 1.387 . S
H2340 C2347 0.950 . S
C2341 C2339 1.387 . S
C2341 C2343 1.390 . S
C2341 H2345 0.950 . S
H2342 C2338 0.950 . S
C2343 C2341 1.390 . S
C2343 C2344 1.387 . S
C2343 H2346 0.950 . S
C2344 C2343 1.387 . S
C2344 C2347 1.387 . S
H2345 C2341 0.950 . S
H2346 C2343 0.950 . S
C2347 C2338 1.390 . S
C2347 H2340 0.950 . S
C2347 C2344 1.387 . S
C2348 C2349 1.387 . S
C2348 H2352 0.950 . S
C2348 C2357 1.390 . S
C2349 C2348 1.387 . S
C2349 C2351 1.387 . S
H2350 C2357 0.950 . S
C2351 C2349 1.387 . S
C2351 C2353 1.390 . S
C2351 H2355 0.950 . S
H2352 C2348 0.950 . S
C2353 C2351 1.390 . S
C2353 C2354 1.387 . S
C2353 H2356 0.950 . S
C2354 C2353 1.387 . S
C2354 C2357 1.387 . S
H2355 C2351 0.950 . S
H2356 C2353 0.950 . S
C2357 C2348 1.390 . S
C2357 H2350 0.950 . S
C2357 C2354 1.387 . S
C2358 C2359 1.387 . S
C2358 H2362 0.950 . S
C2358 C2367 1.390 . S
C2359 C2358 1.387 . S
C2359 C2361 1.387 . S
H2360 C2367 0.950 . S
C2361 C2359 1.387 . S
C2361 C2363 1.390 . S
C2361 H2365 0.950 . S
H2362 C2358 0.950 . S
C2363 C2361 1.390 . S
C2363 C2364 1.387 . S
C2363 H2366 0.950 . S
C2364 C2363 1.387 . S
C2364 C2367 1.387 . S
H2365 C2361 0.950 . S
H2366 C2363 0.950 . S
C2367 C2358 1.390 . S
C2367 H2360 0.950 . S
C2367 C2364 1.387 . S
C2368 C2369 1.387 . S
C2368 H2372 0.950 . S
C2368 C2377 1.390 . S
C2369 C2368 1.387 . S
C2369 C2371 1.387 . S
H2370 C2377 0.950 . S
C2371 C2369 1.387 . S
C2371 C2373 1.390 . S
C2371 H2375 0.950 . S
H2372 C2368 0.950 . S
C2373 C2371 1.390 . S
C2373 C2374 1.387 . S
C2373 H2376 0.950 . S
C2374 C2373 1.387 . S
C2374 C2377 1.387 . S
H2375 C2371 0.950 . S
H2376 C2373 0.950 . S
C2377 C2368 1.390 . S
C2377 H2370 0.950 . S
C2377 C2374 1.387 . S
C2378 C2379 1.387 . S
C2378 H2382 0.950 . S
C2378 C2387 1.390 . S
C2379 C2378 1.387 . S
C2379 C2381 1.387 . S
H2380 C2387 0.950 . S
C2381 C2379 1.387 . S
C2381 C2383 1.390 . S
C2381 H2385 0.950 . S
H2382 C2378 0.950 . S
C2383 C2381 1.390 . S
C2383 C2384 1.387 . S
C2383 H2386 0.950 . S
C2384 C2383 1.387 . S
C2384 C2387 1.387 . S
H2385 C2381 0.950 . S
H2386 C2383 0.950 . S
C2387 C2378 1.390 . S
C2387 H2380 0.950 . S
C2387 C2384 1.387 . S
C2388 C2389 1.387 . S
C2388 H2392 0.950 . S
C2388 C2397 1.390 . S
C2389 C2388 1.387 . S
C2389 C2391 1.387 . S
H2390 C2397 0.950 . S
C2391 C2389 1.387 . S
C2391 C2393 1.390 . S
C2391 H2395 0.950 . S
H2392 C2388 0.950 . S
C2393 C2391 1.390 . S
C2393 C2394 1.387 . S
C2393 H2396 0.950 . S
C2394 C2393 1.387 . S
C2394 C2397 1.387 . S
H2395 C2391 0.950 . S
H2396 C2393 0.950 . S
C2397 C2388 1.390 . S
C2397 H2390 0.950 . S
C2397 C2394 1.387 . S
C2398 C2399 1.387 . S
C2398 H2402 0.950 . S
C2398 C2407 1.390 . S
C2399 C2398 1.387 . S
C2399 C2401 1.387 . S
H2400 C2407 0.950 . S
C2401 C2399 1.387 . S
C2401 C2403 1.390 . S
C2401 H2405 0.950 . S
H2402 C2398 0.950 . S
C2403 C2401 1.390 . S
C2403 C2404 1.387 . S
C2403 H2406 0.950 . S
C2404 C2403 1.387 . S
C2404 C2407 1.387 . S
H2405 C2401 0.950 . S
H2406 C2403 0.950 . S
C2407 C2398 1.390 . S
C2407 H2400 0.950 . S
C2407 C2404 1.387 . S
C2408 C2409 1.387 . S
C2408 H2412 0.950 . S
C2408 C2417 1.390 . S
C2409 C2408 1.387 . S
C2409 C2411 1.387 . S
H2410 C2417 0.950 . S
C2411 C2409 1.387 . S
C2411 C2413 1.390 . S
C2411 H2415 0.950 . S
H2412 C2408 0.950 . S
C2413 C2411 1.390 . S
C2413 C2414 1.387 . S
C2413 H2416 0.950 . S
C2414 C2413 1.387 . S
C2414 C2417 1.387 . S
H2415 C2411 0.950 . S
H2416 C2413 0.950 . S
C2417 C2408 1.390 . S
C2417 H2410 0.950 . S
C2417 C2414 1.387 . S
C2418 C2419 1.387 . S
C2418 H2422 0.950 . S
C2418 C2427 1.390 . S
C2419 C2418 1.387 . S
C2419 C2421 1.387 . S
H2420 C2427 0.950 . S
C2421 C2419 1.387 . S
C2421 C2423 1.390 . S
C2421 H2425 0.950 . S
H2422 C2418 0.950 . S
C2423 C2421 1.390 . S
C2423 C2424 1.387 . S
C2423 H2426 0.950 . S
C2424 C2423 1.387 . S
C2424 C2427 1.387 . S
H2425 C2421 0.950 . S
H2426 C2423 0.950 . S
C2427 C2418 1.390 . S
C2427 H2420 0.950 . S
C2427 C2424 1.387 . S
C2428 C2429 1.387 . S
C2428 H2432 0.950 . S
C2428 C2437 1.390 . S
C2429 C2428 1.387 . S
C2429 C2431 1.387 . S
H2430 C2437 0.950 . S
C2431 C2429 1.387 . S
C2431 C2433 1.390 . S
C2431 H2435 0.950 . S
H2432 C2428 0.950 . S
C2433 C2431 1.390 . S
C2433 C2434 1.387 . S
C2433 H2436 0.950 . S
C2434 C2433 1.387 . S
C2434 C2437 1.387 . S
H2435 C2431 0.950 . S
H2436 C2433 0.950 . S
C2437 C2428 1.390 . S
C2437 H2430 0.950 . S
C2437 C2434 1.387 . S
C2438 C2439 1.387 . S
C2438 H2442 0.950 . S
C2438 C2447 1.390 . S
C2439 C2438 1.387 . S
C2439 C2441 1.387 . S
H2440 C2447 0.950 . S
C2441 C2439 1.387 . S
C2441 C2443 1.390 . S
C2441 H2445 0.950 . S
H2442 C2438 0.950 . S
C2443 C2441 1.390 . S
C2443 C2444 1.387 . S
C2443 H2446 0.950 . S
C2444 C2443 1.387 . S
C2444 C2447 1.387 . S
H2445 C2441 0.950 . S
H2446 C2443 0.950 . S
C2447 C2438 1.390 . S
C2447 H2440 0.950 . S
C2447 C2444 1.387 . S
C2448 C2449 1.387 . S
C2448 H2452 0.950 . S
C2448 C2457 1.390 1_554 S
C2449 C2448 1.387 . S
C2449 C2451 1.387 . S
H2450 C2457 0.950 . S
C2451 C2449 1.387 . S
C2451 C2453 1.390 1_554 S
C2451 H2455 0.950 . S
H2452 C2448 0.950 . S
C2453 C2451 1.390 1_556 S
C2453 C2454 1.387 . S
C2453 H2456 0.950 . S
C2454 C2453 1.387 . S
C2454 C2457 1.387 . S
H2455 C2451 0.950 . S
H2456 C2453 0.950 . S
C2457 C2448 1.390 1_556 S
C2457 H2450 0.950 . S
C2457 C2454 1.387 . S
C2458 C2459 1.387 . S
C2458 H2462 0.950 . S
C2458 C2467 1.390 1_556 S
C2459 C2458 1.387 . S
C2459 C2461 1.387 . S
H2460 C2467 0.950 . S
C2461 C2459 1.387 . S
C2461 C2463 1.390 1_556 S
C2461 H2465 0.950 . S
H2462 C2458 0.950 . S
C2463 C2461 1.390 1_554 S
C2463 C2464 1.387 . S
C2463 H2466 0.950 . S
C2464 C2463 1.387 . S
C2464 C2467 1.387 . S
H2465 C2461 0.950 . S
H2466 C2463 0.950 . S
C2467 C2458 1.390 1_554 S
C2467 H2460 0.950 . S
C2467 C2464 1.387 . S
C2468 C2469 1.387 . S
C2468 H2472 0.950 . S
C2468 C2477 1.390 1_554 S
C2469 C2468 1.387 . S
C2469 C2471 1.387 . S
H2470 C2477 0.950 . S
C2471 C2469 1.387 . S
C2471 C2473 1.390 1_554 S
C2471 H2475 0.950 . S
H2472 C2468 0.950 . S
C2473 C2471 1.390 1_556 S
C2473 C2474 1.387 . S
C2473 H2476 0.950 . S
C2474 C2473 1.387 . S
C2474 C2477 1.387 . S
H2475 C2471 0.950 . S
H2476 C2473 0.950 . S
C2477 C2468 1.390 1_556 S
C2477 H2470 0.950 . S
C2477 C2474 1.387 . S
C2478 C2479 1.387 . S
C2478 H2482 0.950 . S
C2478 C2487 1.390 1_554 S
C2479 C2478 1.387 . S
C2479 C2481 1.387 . S
H2480 C2487 0.950 . S
C2481 C2479 1.387 . S
C2481 C2483 1.390 1_554 S
C2481 H2485 0.950 . S
H2482 C2478 0.950 . S
C2483 C2481 1.390 1_556 S
C2483 C2484 1.387 . S
C2483 H2486 0.950 . S
C2484 C2483 1.387 . S
C2484 C2487 1.387 . S
H2485 C2481 0.950 . S
H2486 C2483 0.950 . S
C2487 C2478 1.390 1_556 S
C2487 H2480 0.950 . S
C2487 C2484 1.387 . S
C2488 C2489 1.387 . S
C2488 H2492 0.950 . S
C2488 C2497 1.390 1_556 S
C2489 C2488 1.387 . S
C2489 C2491 1.387 . S
H2490 C2497 0.950 . S
C2491 C2489 1.387 . S
C2491 C2493 1.390 1_556 S
C2491 H2495 0.950 . S
H2492 C2488 0.950 . S
C2493 C2491 1.390 1_554 S
C2493 C2494 1.387 . S
C2493 H2496 0.950 . S
C2494 C2493 1.387 . S
C2494 C2497 1.387 . S
H2495 C2491 0.950 . S
H2496 C2493 0.950 . S
C2497 C2488 1.390 1_554 S
C2497 H2490 0.950 . S
C2497 C2494 1.387 . S
C2498 C2499 1.387 . S
C2498 H2502 0.950 . S
C2498 C2507 1.390 1_554 S
C2499 C2498 1.387 . S
C2499 C2501 1.387 . S
H2500 C2507 0.950 . S
C2501 C2499 1.387 . S
C2501 C2503 1.390 1_554 S
C2501 H2505 0.950 . S
H2502 C2498 0.950 . S
C2503 C2501 1.390 1_556 S
C2503 C2504 1.387 . S
C2503 H2506 0.950 . S
C2504 C2503 1.387 . S
C2504 C2507 1.387 . S
H2505 C2501 0.950 . S
H2506 C2503 0.950 . S
C2507 C2498 1.390 1_556 S
C2507 H2500 0.950 . S
C2507 C2504 1.387 . S
C2508 C2509 1.387 . S
C2508 H2512 0.950 . S
C2508 C2517 1.390 1_556 S
C2509 C2508 1.387 . S
C2509 C2511 1.387 . S
H2510 C2517 0.950 . S
C2511 C2509 1.387 . S
C2511 C2513 1.390 1_556 S
C2511 H2515 0.950 . S
H2512 C2508 0.950 . S
C2513 C2511 1.390 1_554 S
C2513 C2514 1.387 . S
C2513 H2516 0.950 . S
C2514 C2513 1.387 . S
C2514 C2517 1.387 . S
H2515 C2511 0.950 . S
H2516 C2513 0.950 . S
C2517 C2508 1.390 1_554 S
C2517 H2510 0.950 . S
C2517 C2514 1.387 . S
C2518 C2519 1.387 . S
C2518 H2522 0.950 . S
C2518 C2527 1.390 1_554 S
C2519 C2518 1.387 . S
C2519 C2521 1.387 . S
H2520 C2527 0.950 . S
C2521 C2519 1.387 . S
C2521 C2523 1.390 1_554 S
C2521 H2525 0.950 . S
H2522 C2518 0.950 . S
C2523 C2521 1.390 1_556 S
C2523 C2524 1.387 . S
C2523 H2526 0.950 . S
C2524 C2523 1.387 . S
C2524 C2527 1.387 . S
H2525 C2521 0.950 . S
H2526 C2523 0.950 . S
C2527 C2518 1.390 1_556 S
C2527 H2520 0.950 . S
C2527 C2524 1.387 . S
C2528 C2529 1.387 . S
C2528 H2532 0.950 . S
C2528 C2537 1.390 1_455 S
C2529 C2528 1.387 . S
C2529 C2531 1.387 . S
H2530 C2537 0.950 . S
C2531 C2529 1.387 . S
C2531 C2533 1.390 1_455 S
C2531 H2535 0.950 . S
H2532 C2528 0.950 . S
C2533 C2531 1.390 1_655 S
C2533 C2534 1.387 . S
C2533 H2536 0.950 . S
C2534 C2533 1.387 . S
C2534 C2537 1.387 . S
H2535 C2531 0.950 . S
H2536 C2533 0.950 . S
C2537 C2528 1.390 1_655 S
C2537 H2530 0.950 . S
C2537 C2534 1.387 . S
C2538 C2539 1.387 . S
C2538 H2542 0.950 . S
C2538 C2547 1.390 1_565 S
C2539 C2538 1.387 . S
C2539 C2541 1.387 . S
H2540 C2547 0.950 . S
C2541 C2539 1.387 . S
C2541 C2543 1.390 1_565 S
C2541 H2545 0.950 . S
H2542 C2538 0.950 . S
C2543 C2541 1.390 1_545 S
C2543 C2544 1.387 . S
C2543 H2546 0.950 . S
C2544 C2543 1.387 . S
C2544 C2547 1.387 . S
H2545 C2541 0.950 . S
H2546 C2543 0.950 . S
C2547 C2538 1.390 1_545 S
C2547 H2540 0.950 . S
C2547 C2544 1.387 . S
C2548 C2549 1.387 . S
C2548 H2552 0.950 . S
C2548 C2557 1.390 1_455 S
C2549 C2548 1.387 . S
C2549 C2551 1.387 . S
H2550 C2557 0.950 . S
C2551 C2549 1.387 . S
C2551 C2553 1.390 1_455 S
C2551 H2555 0.950 . S
H2552 C2548 0.950 . S
C2553 C2551 1.390 1_655 S
C2553 C2554 1.387 . S
C2553 H2556 0.950 . S
C2554 C2553 1.387 . S
C2554 C2557 1.387 . S
H2555 C2551 0.950 . S
H2556 C2553 0.950 . S
C2557 C2548 1.390 1_655 S
C2557 H2550 0.950 . S
C2557 C2554 1.387 . S
C2558 C2559 1.387 . S
C2558 H2562 0.950 . S
C2558 C2567 1.390 1_565 S
C2559 C2558 1.387 . S
C2559 C2561 1.387 . S
H2560 C2567 0.950 . S
C2561 C2559 1.387 . S
C2561 C2563 1.390 1_565 S
C2561 H2565 0.950 . S
H2562 C2558 0.950 . S
C2563 C2561 1.390 1_545 S
C2563 C2564 1.387 . S
C2563 H2566 0.950 . S
C2564 C2563 1.387 . S
C2564 C2567 1.387 . S
H2565 C2561 0.950 . S
H2566 C2563 0.950 . S
C2567 C2558 1.390 1_545 S
C2567 H2560 0.950 . S
C2567 C2564 1.387 . S
C2568 C2569 1.387 . S
C2568 H2572 0.950 . S
C2568 C2577 1.390 1_655 S
C2569 C2568 1.387 . S
C2569 C2571 1.387 . S
H2570 C2577 0.950 . S
C2571 C2569 1.387 . S
C2571 C2573 1.390 1_655 S
C2571 H2575 0.950 . S
H2572 C2568 0.950 . S
C2573 C2571 1.390 1_455 S
C2573 C2574 1.387 . S
C2573 H2576 0.950 . S
C2574 C2573 1.387 . S
C2574 C2577 1.387 . S
H2575 C2571 0.950 . S
H2576 C2573 0.950 . S
C2577 C2568 1.390 1_455 S
C2577 H2570 0.950 . S
C2577 C2574 1.387 . S
C2578 C2579 1.387 . S
C2578 H2582 0.950 . S
C2578 C2587 1.390 1_545 S
C2579 C2578 1.387 . S
C2579 C2581 1.387 . S
H2580 C2587 0.950 . S
C2581 C2579 1.387 . S
C2581 C2583 1.390 1_545 S
C2581 H2585 0.950 . S
H2582 C2578 0.950 . S
C2583 C2581 1.390 1_565 S
C2583 C2584 1.387 . S
C2583 H2586 0.950 . S
C2584 C2583 1.387 . S
C2584 C2587 1.387 . S
H2585 C2581 0.950 . S
H2586 C2583 0.950 . S
C2587 C2578 1.390 1_565 S
C2587 H2580 0.950 . S
C2587 C2584 1.387 . S
C2588 C2589 1.387 . S
C2588 H2592 0.950 . S
C2588 C2597 1.390 1_455 S
C2589 C2588 1.387 . S
C2589 C2591 1.387 . S
H2590 C2597 0.950 . S
C2591 C2589 1.387 . S
C2591 C2593 1.390 1_455 S
C2591 H2595 0.950 . S
H2592 C2588 0.950 . S
C2593 C2591 1.390 1_655 S
C2593 C2594 1.387 . S
C2593 H2596 0.950 . S
C2594 C2593 1.387 . S
C2594 C2597 1.387 . S
H2595 C2591 0.950 . S
H2596 C2593 0.950 . S
C2597 C2588 1.390 1_655 S
C2597 H2590 0.950 . S
C2597 C2594 1.387 . S
C2598 C2599 1.387 . S
C2598 H2602 0.950 . S
C2598 C2607 1.390 1_545 S
C2599 C2598 1.387 . S
C2599 C2601 1.387 . S
H2600 C2607 0.950 . S
C2601 C2599 1.387 . S
C2601 C2603 1.390 1_545 S
C2601 H2605 0.950 . S
H2602 C2598 0.950 . S
C2603 C2601 1.390 1_565 S
C2603 C2604 1.387 . S
C2603 H2606 0.950 . S
C2604 C2603 1.387 . S
C2604 C2607 1.387 . S
H2605 C2601 0.950 . S
H2606 C2603 0.950 . S
C2607 C2598 1.390 1_565 S
C2607 H2600 0.950 . S
C2607 C2604 1.387 . S
C2608 C2609 1.387 . S
C2608 H2612 0.950 . S
C2608 C2617 1.390 1_545 S
C2609 C2608 1.387 . S
C2609 C2611 1.387 . S
H2610 C2617 0.950 . S
C2611 C2609 1.387 . S
C2611 C2613 1.390 1_545 S
C2611 H2615 0.950 . S
H2612 C2608 0.950 . S
C2613 C2611 1.390 1_565 S
C2613 C2614 1.387 . S
C2613 H2616 0.950 . S
C2614 C2613 1.387 . S
C2614 C2617 1.387 . S
H2615 C2611 0.950 . S
H2616 C2613 0.950 . S
C2617 C2608 1.390 1_565 S
C2617 H2610 0.950 . S
C2617 C2614 1.387 . S
C2618 C2619 1.387 . S
C2618 H2622 0.950 . S
C2618 C2627 1.390 1_545 S
C2619 C2618 1.387 . S
C2619 C2621 1.387 . S
H2620 C2627 0.950 . S
C2621 C2619 1.387 . S
C2621 C2623 1.390 1_545 S
C2621 H2625 0.950 . S
H2622 C2618 0.950 . S
C2623 C2621 1.390 1_565 S
C2623 C2624 1.387 . S
C2623 H2626 0.950 . S
C2624 C2623 1.387 . S
C2624 C2627 1.387 . S
H2625 C2621 0.950 . S
H2626 C2623 0.950 . S
C2627 C2618 1.390 1_565 S
C2627 H2620 0.950 . S
C2627 C2624 1.387 . S
C2628 C2629 1.387 . S
C2628 H2632 0.950 . S
C2628 C2637 1.390 1_655 S
C2629 C2628 1.387 . S
C2629 C2631 1.387 . S
H2630 C2637 0.950 . S
C2631 C2629 1.387 . S
C2631 C2633 1.390 1_655 S
C2631 H2635 0.950 . S
H2632 C2628 0.950 . S
C2633 C2631 1.390 1_455 S
C2633 C2634 1.387 . S
C2633 H2636 0.950 . S
C2634 C2633 1.387 . S
C2634 C2637 1.387 . S
H2635 C2631 0.950 . S
H2636 C2633 0.950 . S
C2637 C2628 1.390 1_455 S
C2637 H2630 0.950 . S
C2637 C2634 1.387 . S
C2638 C2639 1.387 . S
C2638 H2642 0.950 . S
C2638 C2647 1.390 1_545 S
C2639 C2638 1.387 . S
C2639 C2641 1.387 . S
H2640 C2647 0.950 . S
C2641 C2639 1.387 . S
C2641 C2643 1.390 1_545 S
C2641 H2645 0.950 . S
H2642 C2638 0.950 . S
C2643 C2641 1.390 1_565 S
C2643 C2644 1.387 . S
C2643 H2646 0.950 . S
C2644 C2643 1.387 . S
C2644 C2647 1.387 . S
H2645 C2641 0.950 . S
H2646 C2643 0.950 . S
C2647 C2638 1.390 1_565 S
C2647 H2640 0.950 . S
C2647 C2644 1.387 . S
C2648 C2649 1.387 . S
C2648 H2652 0.950 . S
C2648 C2657 1.390 1_455 S
C2649 C2648 1.387 . S
C2649 C2651 1.387 . S
H2650 C2657 0.950 . S
C2651 C2649 1.387 . S
C2651 C2653 1.390 1_455 S
C2651 H2655 0.950 . S
H2652 C2648 0.950 . S
C2653 C2651 1.390 1_655 S
C2653 C2654 1.387 . S
C2653 H2656 0.950 . S
C2654 C2653 1.387 . S
C2654 C2657 1.387 . S
H2655 C2651 0.950 . S
H2656 C2653 0.950 . S
C2657 C2648 1.390 1_655 S
C2657 H2650 0.950 . S
C2657 C2654 1.387 . S
C2658 C2659 1.387 . S
C2658 H2662 0.950 . S
C2658 C2667 1.390 1_545 S
C2659 C2658 1.387 . S
C2659 C2661 1.387 . S
H2660 C2667 0.950 . S
C2661 C2659 1.387 . S
C2661 C2663 1.390 1_545 S
C2661 H2665 0.950 . S
H2662 C2658 0.950 . S
C2663 C2661 1.390 1_565 S
C2663 C2664 1.387 . S
C2663 H2666 0.950 . S
C2664 C2663 1.387 . S
C2664 C2667 1.387 . S
H2665 C2661 0.950 . S
H2666 C2663 0.950 . S
C2667 C2658 1.390 1_565 S
C2667 H2660 0.950 . S
C2667 C2664 1.387 . S
C2668 C2669 1.387 . S
C2668 H2672 0.950 . S
C2668 C2677 1.390 1_655 S
C2669 C2668 1.387 . S
C2669 C2671 1.387 . S
H2670 C2677 0.950 . S
C2671 C2669 1.387 . S
C2671 C2673 1.390 1_655 S
C2671 H2675 0.950 . S
H2672 C2668 0.950 . S
C2673 C2671 1.390 1_455 S
C2673 C2674 1.387 . S
C2673 H2676 0.950 . S
C2674 C2673 1.387 . S
C2674 C2677 1.387 . S
H2675 C2671 0.950 . S
H2676 C2673 0.950 . S
C2677 C2668 1.390 1_455 S
C2677 H2670 0.950 . S
C2677 C2674 1.387 . S
C2678 C2679 1.387 . S
C2678 H2682 0.950 . S
C2678 C2687 1.390 1_455 S
C2679 C2678 1.387 . S
C2679 C2681 1.387 . S
H2680 C2687 0.950 . S
C2681 C2679 1.387 . S
C2681 C2683 1.390 1_455 S
C2681 H2685 0.950 . S
H2682 C2678 0.950 . S
C2683 C2681 1.390 1_655 S
C2683 C2684 1.387 . S
C2683 H2686 0.950 . S
C2684 C2683 1.387 . S
C2684 C2687 1.387 . S
H2685 C2681 0.950 . S
H2686 C2683 0.950 . S
C2687 C2678 1.390 1_655 S
C2687 H2680 0.950 . S
C2687 C2684 1.387 . S
C1729 C1418 1.355 . S
C1734 C14 1.357 . S
C1739 C39 1.229 . S
C1744 C1310 1.175 . S
C1749 C86 1.304 . S
C1754 C1346 1.268 . S
C1759 C1371 1.308 . S
C1764 C111 1.302 . S
C1769 C1191 1.300 . S
C1774 C147 1.295 . S
C1779 C194 1.308 . S
C1784 C1227 1.354 . S
C1789 C219 1.215 . S
C1794 C1274 1.159 . S
C1799 C266 1.351 . S
C1804 C1155 1.420 . S
C1809 C291 1.415 . S
C1814 C1130 1.349 . S
C1819 C1011 1.252 . S
C1824 C327 1.254 . S
C1829 C1058 1.308 . S
C1834 C374 1.275 . S
C1839 C410 1.203 . S
C1844 C1083 1.254 . S
C1849 C446 1.225 . S
C1854 C903 1.272 . S
C1859 C482 1.275 . S
C1864 C950 1.312 . S
C1869 C975 1.275 . S
C1874 C507 1.279 . S
C1879 C878 1.350 . S
C1884 C543 1.414 . S
C1889 C579 1.396 . S
C1894 C1587 1.394 . S
C1899 C1706 1.213 . S
C1904 C626 1.203 . S
C1909 C1623 1.365 . S
C1914 C651 1.364 . S
C1919 C1670 1.185 . S
C1924 C698 1.196 . S
C1929 C1443 1.424 . S
C1934 C723 1.425 . S
C1939 C1515 1.331 . S
C1944 C759 1.330 . S
C1949 C806 1.196 . S
C1954 C1562 1.202 . S
C1959 C1490 1.170 . S
C1964 C842 1.181 . S
C1969 C1166 1.353 . S
C1974 C734 1.356 . S
C1979 C615 1.320 . S
C1984 C1202 1.275 . S
C1989 C1238 1.268 . S
C1994 C662 1.305 . S
C1999 C1263 1.220 . S
C2004 C687 1.219 . S
C2009 C831 1.213 . S
C2014 C1299 1.213 . S
C2019 C1335 1.352 . S
C2024 C770 1.305 . S
C2029 C795 1.306 . S
C2034 C1382 1.260 . S
C2039 C590 1.355 . S
C2044 C1407 1.421 . S
C2049 C1454 1.363 . S
C2054 C554 1.363 . S
C2059 C435 1.244 . S
C2064 C1695 1.241 . S
C2069 C1634 1.298 . S
C2074 C471 1.347 . S
C2079 C518 1.208 . S
C2084 C1659 1.265 . S
C2089 C338 1.233 . S
C2094 C1479 1.283 . S
C2099 C363 1.349 . S
C2104 C1526 1.305 . S
C2109 C399 1.268 . S
C2114 C1551 1.263 . S
C2119 C1598 1.364 . S
C2124 C302 1.357 . S
C2129 C867 1.367 . S
C2134 C255 1.366 . S
C2139 C1022 1.189 . S
C2144 C50 1.187 . S
C2149 C1047 1.389 . S
C2154 C75 1.390 . S
C2159 C1094 1.209 . S
C2164 C122 1.211 . S
C2169 C1119 1.400 . S
C2174 C3 1.399 . S
C2179 C183 1.361 . S
C2184 C939 1.360 . S
C2189 C986 1.178 . S
C2194 C230 1.180 . S
C2199 C914 1.198 . S
C2204 C158 1.196 . S
C2209 C2 1.554 . S
C2214 C938 1.547 . S
C2219 C976 1.347 . S
C2224 C40 1.344 . S
C2229 C74 1.550 . S
C2234 C866 1.555 . S
C2239 C112 1.359 . S
C2244 C904 1.351 . S
C2249 C148 1.343 . S
C2254 C1084 1.339 . S
C2259 C1118 1.554 . S
C2264 C182 1.554 . S
C2269 C220 1.324 . S
C2274 C1012 1.331 . S
C2279 C1046 1.549 . S
C2284 C254 1.552 . S
C2289 C292 1.447 . S
C2294 C1298 1.425 . S
C2299 C1334 1.390 . S
C2304 C328 1.401 . S
C2309 C362 1.426 . S
C2314 C1372 1.449 . S
C2319 C398 1.514 . S
C2324 C1406 1.529 . S
C2329 C434 1.485 . S
C2334 C1156 1.494 . S
C2339 C470 1.443 . S
C2344 C1192 1.465 . S
C2349 C1228 1.361 . S
C2354 C508 1.379 . S
C2359 C544 1.459 . S
C2364 C1262 1.444 . S
C2369 C1550 1.394 . S
C2374 C580 1.425 . S
C2379 C614 1.421 . S
C2384 C1624 1.439 . S
C2389 C652 1.504 . S
C2394 C1658 1.473 . S
C2399 C1444 1.474 . S
C2404 C686 1.433 . S
C2409 C1694 1.460 . S
C2414 C724 1.493 . S
C2419 C760 1.433 . S
C2424 C1478 1.405 . S
C2429 C1516 1.455 . S
C2434 C794 1.433 . S
C2439 C830 1.448 . S
C2444 C1588 1.490 . S
C2449 C1514 1.552 . S
C2454 C722 1.550 . S
C2459 C616 1.354 . S
C2464 C1552 1.361 . S
C2469 C1586 1.549 . S
C2474 C650 1.551 . S
C2479 C1480 1.338 . S
C2484 C688 1.352 . S
C2489 C1660 1.327 . S
C2494 C832 1.334 . S
C2499 C758 1.553 . S
C2504 C1442 1.546 . S
C2509 C1696 1.348 . S
C2514 C796 1.334 . S
C2519 C578 1.551 . S
C2524 C1622 1.556 . S
C2529 C1190 1.561 . S
C2534 C542 1.564 . S
C2539 C436 1.401 . S
C2544 C1226 1.391 . S
C2549 C472 1.313 . S
C2554 C1264 1.316 . S
C2559 C1154 1.525 . S
C2564 C506 1.516 . S
C2569 C326 1.486 . S
C2574 C1408 1.491 . S
C2579 C1300 1.334 . S
C2584 C364 1.330 . S
C2589 C400 1.378 . S
C2594 C1336 1.363 . S
C2599 C290 1.577 . S
C2604 C1370 1.576 . S
C2609 C974 1.385 . S
C2614 C256 1.423 . S
C2619 C38 1.457 . S
C2624 C1048 1.486 . S
C2629 C76 1.508 . S
C2634 C1082 1.482 . S
C2639 C1120 1.427 . S
C2644 C110 1.399 . S
C2649 C4 1.490 . S
C2654 C1010 1.451 . S
C2659 C184 1.438 . S
C2664 C902 1.416 . S
C2669 C218 1.471 . S
C2674 C940 1.504 . S
C2679 C146 1.410 . S
C2684 C868 1.442 . S
