# Generated by pormake.
# Topology whw, (6)-cn, num edge types: 1
# Building blocks:
#     Node 0, Type 0, BuildingBlock: INOVEN_clean_sbu_0, # of connection points: 6
#     Node 1, Type 0, BuildingBlock: INOVEN_clean_sbu_0, # of connection points: 6
#     Node 2, Type 0, BuildingBlock: INOVEN_clean_sbu_0, # of connection points: 6
#     Node 3, Type 0, BuildingBlock: INOVEN_clean_sbu_0, # of connection points: 6
#     Node 4, Type 0, BuildingBlock: INOVEN_clean_sbu_0, # of connection points: 6
#     Node 5, Type 0, BuildingBlock: INOVEN_clean_sbu_0, # of connection points: 6
#     Node 6, Type 0, BuildingBlock: INOVEN_clean_sbu_0, # of connection points: 6
#     Node 7, Type 0, BuildingBlock: INOVEN_clean_sbu_0, # of connection points: 6
#     Node 8, Type 0, BuildingBlock: INOVEN_clean_sbu_0, # of connection points: 6
#     Node 9, Type 0, BuildingBlock: INOVEN_clean_sbu_0, # of connection points: 6
#     Node 10, Type 0, BuildingBlock: INOVEN_clean_sbu_0, # of connection points: 6
#     Node 11, Type 0, BuildingBlock: INOVEN_clean_sbu_0, # of connection points: 6
#     Node 12, Type 0, BuildingBlock: INOVEN_clean_sbu_0, # of connection points: 6
#     Node 13, Type 0, BuildingBlock: INOVEN_clean_sbu_0, # of connection points: 6
#     Node 14, Type 0, BuildingBlock: INOVEN_clean_sbu_0, # of connection points: 6
#     Node 15, Type 0, BuildingBlock: INOVEN_clean_sbu_0, # of connection points: 6
#     Edge 16, Type (0, 0), BuildingBlock: KIFKEQ_clean_linker_1, # of connection points: 2
#     Edge 17, Type (0, 0), BuildingBlock: KIFKEQ_clean_linker_1, # of connection points: 2
#     Edge 18, Type (0, 0), BuildingBlock: KIFKEQ_clean_linker_1, # of connection points: 2
#     Edge 19, Type (0, 0), BuildingBlock: KIFKEQ_clean_linker_1, # of connection points: 2
#     Edge 20, Type (0, 0), BuildingBlock: KIFKEQ_clean_linker_1, # of connection points: 2
#     Edge 21, Type (0, 0), BuildingBlock: KIFKEQ_clean_linker_1, # of connection points: 2
#     Edge 22, Type (0, 0), BuildingBlock: KIFKEQ_clean_linker_1, # of connection points: 2
#     Edge 23, Type (0, 0), BuildingBlock: KIFKEQ_clean_linker_1, # of connection points: 2
#     Edge 24, Type (0, 0), BuildingBlock: KIFKEQ_clean_linker_1, # of connection points: 2
#     Edge 25, Type (0, 0), BuildingBlock: KIFKEQ_clean_linker_1, # of connection points: 2
#     Edge 26, Type (0, 0), BuildingBlock: KIFKEQ_clean_linker_1, # of connection points: 2
#     Edge 27, Type (0, 0), BuildingBlock: KIFKEQ_clean_linker_1, # of connection points: 2
#     Edge 28, Type (0, 0), BuildingBlock: KIFKEQ_clean_linker_1, # of connection points: 2
#     Edge 29, Type (0, 0), BuildingBlock: KIFKEQ_clean_linker_1, # of connection points: 2
#     Edge 30, Type (0, 0), BuildingBlock: KIFKEQ_clean_linker_1, # of connection points: 2
#     Edge 31, Type (0, 0), BuildingBlock: KIFKEQ_clean_linker_1, # of connection points: 2
#     Edge 32, Type (0, 0), BuildingBlock: KIFKEQ_clean_linker_1, # of connection points: 2
#     Edge 33, Type (0, 0), BuildingBlock: KIFKEQ_clean_linker_1, # of connection points: 2
#     Edge 34, Type (0, 0), BuildingBlock: KIFKEQ_clean_linker_1, # of connection points: 2
#     Edge 35, Type (0, 0), BuildingBlock: KIFKEQ_clean_linker_1, # of connection points: 2
#     Edge 36, Type (0, 0), BuildingBlock: KIFKEQ_clean_linker_1, # of connection points: 2
#     Edge 37, Type (0, 0), BuildingBlock: KIFKEQ_clean_linker_1, # of connection points: 2
#     Edge 38, Type (0, 0), BuildingBlock: KIFKEQ_clean_linker_1, # of connection points: 2
#     Edge 39, Type (0, 0), BuildingBlock: KIFKEQ_clean_linker_1, # of connection points: 2
#     Edge 40, Type (0, 0), BuildingBlock: KIFKEQ_clean_linker_1, # of connection points: 2
#     Edge 41, Type (0, 0), BuildingBlock: KIFKEQ_clean_linker_1, # of connection points: 2
#     Edge 42, Type (0, 0), BuildingBlock: KIFKEQ_clean_linker_1, # of connection points: 2
#     Edge 43, Type (0, 0), BuildingBlock: KIFKEQ_clean_linker_1, # of connection points: 2
#     Edge 44, Type (0, 0), BuildingBlock: KIFKEQ_clean_linker_1, # of connection points: 2
#     Edge 45, Type (0, 0), BuildingBlock: KIFKEQ_clean_linker_1, # of connection points: 2
#     Edge 46, Type (0, 0), BuildingBlock: KIFKEQ_clean_linker_1, # of connection points: 2
#     Edge 47, Type (0, 0), BuildingBlock: KIFKEQ_clean_linker_1, # of connection points: 2
#     Edge 48, Type (0, 0), BuildingBlock: KIFKEQ_clean_linker_1, # of connection points: 2
#     Edge 49, Type (0, 0), BuildingBlock: KIFKEQ_clean_linker_1, # of connection points: 2
#     Edge 50, Type (0, 0), BuildingBlock: KIFKEQ_clean_linker_1, # of connection points: 2
#     Edge 51, Type (0, 0), BuildingBlock: KIFKEQ_clean_linker_1, # of connection points: 2
#     Edge 52, Type (0, 0), BuildingBlock: KIFKEQ_clean_linker_1, # of connection points: 2
#     Edge 53, Type (0, 0), BuildingBlock: KIFKEQ_clean_linker_1, # of connection points: 2
#     Edge 54, Type (0, 0), BuildingBlock: KIFKEQ_clean_linker_1, # of connection points: 2
#     Edge 55, Type (0, 0), BuildingBlock: KIFKEQ_clean_linker_1, # of connection points: 2
#     Edge 56, Type (0, 0), BuildingBlock: KIFKEQ_clean_linker_1, # of connection points: 2
#     Edge 57, Type (0, 0), BuildingBlock: KIFKEQ_clean_linker_1, # of connection points: 2
#     Edge 58, Type (0, 0), BuildingBlock: KIFKEQ_clean_linker_1, # of connection points: 2
#     Edge 59, Type (0, 0), BuildingBlock: KIFKEQ_clean_linker_1, # of connection points: 2
#     Edge 60, Type (0, 0), BuildingBlock: KIFKEQ_clean_linker_1, # of connection points: 2
#     Edge 61, Type (0, 0), BuildingBlock: KIFKEQ_clean_linker_1, # of connection points: 2
#     Edge 62, Type (0, 0), BuildingBlock: KIFKEQ_clean_linker_1, # of connection points: 2
#     Edge 63, Type (0, 0), BuildingBlock: KIFKEQ_clean_linker_1, # of connection points: 2
# Relax obj value: 0.405
# Max RMSD: 0.231
# Mean RMSD: 0.209
data_MOF--net-whw--node1-INOVEN_clean_sbu_0--edge1-KIFKEQ_clean_linker_1
_symmetry_space_group_name_H-M    P1
_symmetry_Int_Tables_number       1
_symmetry_cell_setting            triclinic
loop_
_symmetry_equiv_pos_as_xyz
'x, y, z'
_cell_length_a     47.423092
_cell_length_b     46.665953
_cell_length_c     34.214207
_cell_angle_alpha  90.159294
_cell_angle_beta   77.81449
_cell_angle_gamma 99.623496
loop_
_atom_site_label
_atom_site_type_symbol
_atom_site_fract_x
_atom_site_fract_y
_atom_site_fract_z
_atom_type_partial_charge
Gd0 Gd 0.03542 0.11286 0.20334 0.0
Gd1 Gd 0.00753 0.12806 0.12815 0.0
C2 C 0.96339 0.10402 0.20963 0.0
C3 C 0.04928 0.12172 0.27308 0.0
C4 C 0.05584 0.12788 0.31418 0.0
C5 C 0.08133 0.12144 0.32477 0.0
C6 C 0.03774 0.14277 0.34229 0.0
C7 C 0.07073 0.14533 0.3898 0.0
C8 C 0.04488 0.15111 0.37925 0.0
C9 C 0.08866 0.13002 0.3617 0.0
C10 C 0.02512 0.06873 0.15376 0.0
C11 C 0.07707 0.12718 0.1193 0.0
C12 C -0.00599 0.14082 0.06093 0.0
C13 C -0.01355 0.15033 1.02264 0.0
C14 C -0.0114 0.18012 1.01305 0.0
C15 C 0.97644 0.13022 0.99573 0.0
C16 C 0.97082 0.16947 0.95092 0.0
C17 C 0.96892 0.13958 0.9605 0.0
C18 C 0.98083 0.18947 0.97817 0.0
C19 C 0.01525 0.16814 0.18342 0.0
O20 O -0.01372 0.10421 0.22655 0.0
O21 O 0.96547 0.11045 0.17122 0.0
O22 O 0.06273 0.10537 0.24647 0.0
O23 O 0.02754 0.13118 0.26226 0.0
O24 O 0.0441 0.06953 0.17673 0.0
O25 O 0.01046 0.08889 0.16233 0.0
O26 O 0.05377 0.12078 0.10312 0.0
O27 O 0.07513 0.13213 0.15775 0.0
O28 O 0.00954 0.15922 0.08042 0.0
O29 O -0.01366 0.11447 0.07757 0.0
O30 O -0.00658 0.16496 0.1656 0.0
O31 O 0.03252 0.15128 0.16945 0.0
H32 H 0.09615 0.11042 0.30397 0.0
H33 H 0.01797 0.14838 0.33559 0.0
H34 H 0.02982 0.16213 0.3996 0.0
H35 H 0.10895 0.12524 0.36757 0.0
H36 H -0.00407 0.19643 1.03297 0.0
H37 H 0.97449 0.10712 1.0018 0.0
H38 H 0.96186 0.12317 0.94058 0.0
H39 H 0.98218 0.21258 0.97316 0.0
Gd40 Gd 0.13425 0.76025 0.48234 0.0
Gd41 Gd 0.12547 0.6988 0.45704 0.0
C42 C 0.12436 0.70682 0.55051 0.0
C43 C 0.1413 0.80979 0.51578 0.0
C44 C 0.13812 0.82132 0.55632 0.0
C45 C 0.1628 0.83711 0.56787 0.0
C46 C 0.11104 0.81691 0.58364 0.0
C47 C 0.13335 0.84445 0.63311 0.0
C48 C 0.10868 0.82847 0.62164 0.0
C49 C 0.16049 0.84842 0.60604 0.0
C50 C 0.17789 0.74852 0.42303 0.0
C51 C 0.11022 0.74931 0.40121 0.0
C52 C 0.13345 0.65078 0.42237 0.0
C53 C 0.14905 0.64208 0.38376 0.0
C54 C 0.13773 0.61633 0.36737 0.0
C55 C 0.17461 0.65964 0.36251 0.0
C56 C 0.17614 0.62674 0.3072 0.0
C57 C 0.18819 0.65193 0.32463 0.0
C58 C 0.1511 0.60872 0.32937 0.0
C59 C 0.07651 0.71422 0.50295 0.0
O60 O 0.12576 0.73497 0.54275 0.0
O61 O 0.12734 0.68852 0.52095 0.0
O62 O 0.16225 0.79444 0.5054 0.0
O63 O 0.11735 0.7991 0.50355 0.0
O64 O 0.16712 0.77221 0.42575 0.0
O65 O 0.16588 0.7316 0.45338 0.0
O66 O 0.11798 0.72315 0.40252 0.0
O67 O 0.11141 0.76704 0.43164 0.0
O68 O 0.11069 0.66309 0.42158 0.0
O69 O 0.14993 0.66356 0.4458 0.0
O70 O 0.0816 0.68766 0.5011 0.0
O71 O 0.09594 0.72938 0.47724 0.0
H72 H 0.1839 0.84079 0.54724 0.0
H73 H 0.09168 0.80463 0.57571 0.0
H74 H 0.08755 0.8248 0.64219 0.0
H75 H 0.17977 0.86079 0.61409 0.0
H76 H 0.11799 0.60257 0.38345 0.0
H77 H 0.18366 0.67962 0.3748 0.0
H78 H 0.20758 0.66615 0.30852 0.0
H79 H 0.14086 0.5895 0.31661 0.0
Gd80 Gd 0.46601 0.8443 0.66354 0.0
Gd81 Gd 0.52495 0.87333 0.67076 0.0
C82 C 0.52212 0.83672 0.59108 0.0
C83 C 0.41518 0.8319 0.64563 0.0
C84 C 0.40039 0.83827 0.61406 0.0
C85 C 0.37431 0.82027 0.61074 0.0
C86 C 0.41119 0.86291 0.58854 0.0
C87 C 0.36975 0.85142 0.55643 0.0
C88 C 0.39591 0.8695 0.55999 0.0
C89 C 0.35911 0.82673 0.58204 0.0
C90 C 0.49451 0.8106 0.69986 0.0
C91 C 0.47179 0.85767 0.75329 0.0
C92 C 0.57077 0.8988 0.69443 0.0
C93 C 0.57791 0.89737 0.73396 0.0
C94 C 0.59597 0.92058 0.74732 0.0
C95 C 0.56333 0.87426 0.76061 0.0
C96 C 0.58289 0.89826 0.8143 0.0
C97 C 0.56582 0.87463 0.8003 0.0
C98 C 0.59864 0.92093 0.78735 0.0
C99 C 0.50067 0.90376 0.62347 0.0
O100 O 0.49336 0.83666 0.60154 0.0
O101 O 0.53956 0.84752 0.61542 0.0
O102 O 0.43519 0.81534 0.63651 0.0
O103 O 0.4228 0.85404 0.66692 0.0
O104 O 0.46616 0.8075 0.70744 0.0
O105 O 0.50521 0.82821 0.67107 0.0
O106 O 0.50028 0.86485 0.73732 0.0
O107 O 0.45306 0.85249 0.72951 0.0
O108 O 0.5481 0.91126 0.69398 0.0
O109 O 0.57032 0.8748 0.67449 0.0
O110 O 0.52748 0.89975 0.61594 0.0
O111 O 0.487 0.89139 0.65694 0.0
H112 H 0.36561 0.8013 0.6305 0.0
H113 H 0.43134 0.87706 0.59079 0.0
H114 H 0.40487 0.88836 0.54013 0.0
H115 H 0.339 0.81249 0.57993 0.0
H116 H 0.60709 0.93881 0.72725 0.0
H117 H 0.54899 0.8564 0.75128 0.0
H118 H 0.55386 0.85666 0.82032 0.0
H119 H 0.61201 0.93935 0.79759 0.0
Gd120 Gd 0.40578 0.23901 0.8602 0.0
Gd121 Gd 0.39647 0.29902 0.83754 0.0
C122 C 0.3977 0.28676 0.93109 0.0
C123 C 0.41744 0.19165 0.88677 0.0
C124 C 0.41848 0.1803 0.92603 0.0
C125 C 0.40938 0.15054 0.9352 0.0
C126 C 0.42574 0.19922 0.95563 0.0
C127 C 0.41315 0.1588 1.00408 0.0
C128 C 0.4232 0.18853 0.99438 0.0
C129 C 0.40676 0.13981 0.97401 0.0
C130 C 0.35391 0.24154 0.83993 0.0
C131 C 0.42292 0.25445 0.7675 0.0
C132 C 0.37214 0.3389 0.81284 0.0
C133 C 0.3532 0.33836 0.78398 0.0
C134 C 0.35279 0.31646 0.75603 0.0
C135 C 0.33518 0.3593 0.7844 0.0
C136 C 0.32073 0.33961 0.724 0.0
C137 C 0.31881 0.35978 0.75486 0.0
C138 C 0.33694 0.31713 0.72626 0.0
C139 C 0.44975 0.29808 0.85127 0.0
O140 O 0.40347 0.26072 0.92014 0.0
O141 O 0.3922 0.30516 0.90505 0.0
O142 O 0.39131 0.19461 0.88255 0.0
O143 O 0.43765 0.21378 0.87174 0.0
O144 O 0.36916 0.22119 0.82935 0.0
O145 O 0.36643 0.25921 0.86146 0.0
O146 O 0.40756 0.27621 0.77613 0.0
O147 O 0.42868 0.23942 0.7965 0.0
O148 O 0.39939 0.33611 0.79805 0.0
O149 O 0.36049 0.32291 0.84532 0.0
O150 O 0.43676 0.32059 0.85849 0.0
O151 O 0.43483 0.27911 0.83429 0.0
H152 H 0.40344 0.13576 0.91264 0.0
H153 H 0.43289 0.2223 0.94898 0.0
H154 H 0.42885 0.20355 1.01682 0.0
H155 H 0.39881 0.11685 0.98078 0.0
H156 H 0.3658 0.29949 0.75607 0.0
H157 H 0.33446 0.3758 0.80676 0.0
H158 H 0.30589 0.37685 0.75513 0.0
H159 H 0.33945 0.30113 0.70342 0.0
Gd160 Gd 0.00341 0.85314 0.97592 0.0
Gd161 Gd 0.97575 0.87113 0.90125 0.0
C162 C 0.93282 0.8493 0.98379 0.0
C163 C 0.01683 0.83962 1.04295 0.0
C164 C 0.02434 0.83068 0.08149 0.0
C165 C 0.02141 0.80107 0.09268 0.0
C166 C 0.03493 0.85138 0.10728 0.0
C167 C 0.04009 0.81311 0.15384 0.0
C168 C 0.04253 0.8428 0.14277 0.0
C169 C 0.02919 0.79246 0.12796 0.0
C170 C -0.00163 0.81585 0.91681 0.0
C171 C 0.04763 0.88165 0.89641 0.0
C172 C 0.96363 0.86453 0.83024 0.0
C173 C 0.95812 0.85918 0.78848 0.0
C174 C 0.93499 0.86896 0.77539 0.0
C175 C 0.97486 0.84203 0.76204 0.0
C176 C 0.94515 0.84401 0.7112 0.0
C177 C 0.96861 0.83471 0.72431 0.0
C178 C 0.92863 0.86155 0.73756 0.0
C179 C 0.98424 0.91334 0.95441 0.0
O180 O 0.95558 0.85373 1.00127 0.0
O181 O 0.93518 0.85053 0.94457 0.0
O182 O 0.00422 0.82062 1.02099 0.0
O183 O 0.02194 0.86651 1.02849 0.0
O184 O 0.01952 0.8184 0.93591 0.0
O185 O 0.98014 0.83161 0.93167 0.0
O186 O 0.02489 0.88196 0.87937 0.0
O187 O 0.04537 0.87329 0.93422 0.0
O188 O 0.94951 0.88013 0.85729 0.0
O189 O 0.98498 0.85466 0.84151 0.0
O190 O 0.9666 0.91375 0.92973 0.0
O191 O -0.00101 0.89327 0.94522 0.0
H192 H 0.01342 0.78432 0.0738 0.0
H193 H 0.03736 0.87436 0.10007 0.0
H194 H 0.05011 0.85968 0.16169 0.0
H195 H 0.02719 0.76942 0.13432 0.0
H196 H 0.92129 0.88188 0.79479 0.0
H197 H -0.0072 0.83382 0.77068 0.0
H198 H 0.98248 0.82175 0.70533 0.0
H199 H 0.91015 0.86906 0.72955 0.0
Gd200 Gd 0.39791 0.7986 0.14754 0.0
Gd201 Gd 0.39111 0.73766 0.12235 0.0
C202 C 0.41493 0.74982 0.20316 0.0
C203 C 0.38438 0.8482 0.17149 0.0
C204 C 0.37163 0.86014 0.20997 0.0
C205 C 0.39014 0.8749 0.23321 0.0
C206 C 0.34115 0.85592 0.22472 0.0
C207 C 0.34838 0.87695 0.28773 0.0
C208 C 0.32964 0.86415 0.26333 0.0
C209 C 0.3787 0.88305 0.27169 0.0
C210 C 0.45002 0.78335 0.11792 0.0
C211 C 0.39997 0.79021 0.05244 0.0
C212 C 0.37947 0.68966 0.08714 0.0
C213 C 0.37962 0.68153 1.04563 0.0
C214 C 0.35481 0.6639 1.03711 0.0
C215 C 0.40259 0.69347 1.01409 0.0
C216 C 0.37586 0.67001 0.96578 0.0
C217 C 0.40083 0.68756 0.97457 0.0
C218 C 0.35285 0.65829 0.99759 0.0
C219 C 0.34872 0.74692 0.18542 0.0
O220 O 0.40414 0.7746 0.20336 0.0
O221 O 0.41587 0.73297 0.17155 0.0
O222 O 0.41053 0.84171 0.16819 0.0
O223 O 0.36706 0.82865 0.15616 0.0
O224 O 0.44575 0.80294 0.14463 0.0
O225 O 0.4268 0.77463 0.10557 0.0
O226 O 0.39418 0.76186 0.06193 0.0
O227 O 0.40246 0.80909 0.08102 0.0
O228 O 0.35983 0.70573 0.10164 0.0
O229 O 0.40481 0.69816 0.09709 0.0
O230 O 0.36167 0.72463 0.18147 0.0
O231 O 0.35857 0.76409 0.15481 0.0
H232 H 0.41368 0.87901 0.22237 0.0
H233 H 0.32622 0.84537 0.20704 0.0
H234 H 0.30616 0.85958 0.27455 0.0
H235 H 0.39392 0.89251 0.28964 0.0
H236 H 0.3366 0.65498 0.06109 0.0
H237 H 0.42174 0.70758 1.01991 0.0
H238 H 0.41928 0.69649 0.95098 0.0
H239 H 0.33317 0.64502 0.99203 0.0
Gd240 Gd 0.48782 0.12885 0.4215 0.0
Gd241 Gd 0.54904 0.14268 0.43039 0.0
C242 C 0.5409 0.13079 0.34053 0.0
C243 C 0.43788 0.11686 0.40118 0.0
C244 C 0.42919 0.11939 0.36309 0.0
C245 C 0.40305 0.10302 0.35677 0.0
C246 C 0.44846 0.13615 0.33156 0.0
C247 C 0.41656 0.11875 0.28677 0.0
C248 C 0.44221 0.13586 0.2937 0.0
C249 C 0.39664 0.10283 0.31872 0.0
C250 C 0.50138 0.09051 0.47136 0.0
C251 C 0.49754 0.16407 0.49918 0.0
C252 C 0.59909 0.14276 0.44891 0.0
C253 C 0.61202 0.13439 0.4814 0.0
C254 C 0.64109 0.14636 0.48161 0.0
C255 C 0.59625 0.11371 0.51106 0.0
C256 C 0.6387 0.11724 0.5413 0.0
C257 C 0.60953 0.10516 0.5408 0.0
C258 C 0.65436 0.1379 0.51138 0.0
C259 C 0.5335 0.18392 0.38828 0.0
O260 O 0.51264 0.13051 0.35552 0.0
O261 O 0.55917 0.13111 0.36497 0.0
O262 O 0.45494 0.09766 0.40207 0.0
O263 O 0.4467 0.14142 0.41695 0.0
O264 O 0.4777 0.10149 0.47746 0.0
O265 O 0.51786 0.10046 0.43814 0.0
O266 O 0.5241 0.15662 0.49095 0.0
O267 O 0.47996 0.15842 0.47368 0.0
O268 O 0.58518 0.1649 0.45473 0.0
O269 O 0.58573 0.12128 0.43134 0.0
O270 O 0.56007 0.17879 0.38242 0.0
O271 O 0.51808 0.16956 0.41844 0.0
H272 H 0.38809 0.08981 0.38089 0.0
H273 H 0.46874 0.14887 0.3359 0.0
H274 H 0.45765 0.14873 0.26966 0.0
H275 H 0.37672 0.08952 0.31393 0.0
H276 H 0.65357 0.16218 0.45862 0.0
H277 H 0.57375 0.10422 0.51118 0.0
H278 H 0.59677 0.08959 0.56391 0.0
H279 H 0.67687 0.14747 0.51096 0.0
Gd280 Gd 0.11884 0.20175 0.7544 0.0
Gd281 Gd 0.11437 0.26311 0.73152 0.0
C282 C 0.09544 0.24709 0.82463 0.0
C283 C 0.13944 0.15879 0.77854 0.0
C284 C 0.15679 0.15488 0.80835 0.0
C285 C 0.15163 0.12844 0.82988 0.0
C286 C 0.17735 0.17793 0.81715 0.0
C287 C 0.18455 0.1494 0.87234 0.0
C288 C 0.19136 0.17516 0.84859 0.0
C289 C 0.16534 0.12569 0.86164 0.0
C290 C 0.06723 0.20592 0.73661 0.0
C291 C 0.11956 0.21489 0.66065 0.0
C292 C 0.10822 0.31288 0.70503 0.0
C293 C 0.10469 0.32607 0.66781 0.0
C294 C 0.12801 0.33092 0.63428 0.0
C295 C 0.07797 0.33458 0.66595 0.0
C296 C 0.09774 0.35196 0.5973 0.0
C297 C 0.07446 0.34733 0.63086 0.0
C298 C 0.12454 0.34375 0.59936 0.0
C299 C 0.16431 0.25655 0.75434 0.0
O300 O 0.10751 0.22323 0.81607 0.0
O301 O 0.09254 0.26446 0.79592 0.0
O302 O 0.11265 0.16321 0.79271 0.0
O303 O 0.15308 0.17584 0.74764 0.0
O304 O 0.07858 0.18226 0.73255 0.0
O305 O 0.08212 0.22436 0.75458 0.0
O306 O 0.11477 0.24133 0.67146 0.0
O307 O 0.12432 0.19619 0.68685 0.0
O308 O 0.13367 0.30544 0.70475 0.0
O309 O 0.08617 0.29382 0.72403 0.0
O310 O 0.14992 0.27738 0.76556 0.0
O311 O 0.15176 0.24018 0.73151 0.0
H312 H 0.13589 0.11038 0.82342 0.0
H313 H 0.18163 0.19848 0.80085 0.0
H314 H 0.20617 0.19375 0.85575 0.0
H315 H 0.1591 0.10566 0.8796 0.0
H316 H 0.14892 0.32466 0.63475 0.0
H317 H 0.05977 0.33125 0.69158 0.0
H318 H 0.05358 0.35351 0.6299 0.0
H319 H 0.14264 0.34658 0.57362 0.0
Gd320 Gd 0.89494 0.29259 0.64505 0.0
Gd321 Gd 0.88388 0.23194 0.61996 0.0
C322 C 0.90761 0.241 0.70141 0.0
C323 C 0.89107 0.34196 0.67824 0.0
C324 C 0.87903 0.35461 0.71618 0.0
C325 C 0.89685 0.37696 0.73135 0.0
C326 C 0.85014 0.34517 0.73716 0.0
C327 C 0.85764 0.37929 0.78935 0.0
C328 C 0.8395 0.35746 0.7734 0.0
C329 C 0.88633 0.38913 0.76762 0.0
C330 C 0.94265 0.27607 0.59775 0.0
C331 C 0.89463 0.28512 0.55157 0.0
C332 C 0.8747 0.18234 0.58721 0.0
C333 C 0.87709 0.17025 0.5471 0.0
C334 C 0.8519 0.15474 0.53657 0.0
C335 C 0.90391 0.17377 0.51928 0.0
C336 C 0.88031 0.14579 0.47136 0.0
C337 C 0.9055 0.16154 0.48178 0.0
C338 C 0.85343 0.14275 0.4989 0.0
C339 C 0.8409 0.2442 0.67992 0.0
O340 O 0.90113 0.26768 0.69993 0.0
O341 O 0.90601 0.22357 0.67079 0.0
O342 O 0.9131 0.3283 0.67789 0.0
O343 O 0.87228 0.32904 0.65801 0.0
O344 O 0.93791 0.30267 0.59933 0.0
O345 O 0.92369 0.261 0.62423 0.0
O346 O 0.89259 0.25691 0.55935 0.0
O347 O 0.89236 0.30337 0.5813 0.0
O348 O 0.85464 0.19874 0.59725 0.0
O349 O 0.89902 0.1922 0.59901 0.0
O350 O 0.8512 0.22028 0.67625 0.0
O351 O 0.85312 0.26144 0.64982 0.0
H352 H 0.91915 0.38464 0.71545 0.0
H353 H 0.8359 0.32814 0.72584 0.0
H354 H 0.81725 0.34953 0.78923 0.0
H355 H 0.90115 0.40543 0.77936 0.0
H356 H 0.83099 0.15176 0.55764 0.0
H357 H 0.92364 0.18585 0.52646 0.0
H358 H 0.92644 0.16447 0.4608 0.0
H359 H 0.83378 0.13058 0.49162 0.0
Gd360 Gd 0.6248 0.70543 0.25101 0.0
Gd361 Gd 0.61729 0.76583 0.22793 0.0
C362 C 0.60124 0.74951 0.32135 0.0
C363 C 0.64938 0.6612 0.26065 0.0
C364 C 0.65332 0.64257 0.29294 0.0
C365 C 0.62945 0.62918 0.32222 0.0
C366 C 0.68185 0.64 0.29607 0.0
C367 C 0.66283 0.61359 0.35971 0.0
C368 C 0.68661 0.62574 0.32931 0.0
C369 C 0.63418 0.61471 0.35524 0.0
C370 C 0.56885 0.71106 0.25874 0.0
C371 C 0.61895 0.71692 0.158 0.0
C372 C 0.61083 0.81449 0.19842 0.0
C373 C 0.60467 0.8269 0.16212 0.0
C374 C 0.62797 0.83789 0.13029 0.0
C375 C 0.57598 0.82942 0.15961 0.0
C376 C 0.59404 0.85255 0.09344 0.0
C377 C 0.57068 0.84191 0.12535 0.0
C378 C 0.6227 0.85049 0.09632 0.0
C379 C 0.66886 0.76168 0.24819 0.0
O380 O 0.61603 0.72739 0.31244 0.0
O381 O 0.59514 0.765 0.29287 0.0
O382 O 0.62327 0.65868 0.25262 0.0
O383 O 0.6624 0.68823 0.26025 0.0
O384 O 0.57719 0.69307 0.28127 0.0
O385 O 0.59017 0.72279 0.23201 0.0
O386 O 0.61582 0.7439 0.16824 0.0
O387 O 0.62398 0.69843 0.18437 0.0
O388 O 0.63604 0.80553 0.19396 0.0
O389 O 0.58939 0.79745 0.22258 0.0
O390 O 0.6536 0.78171 0.26018 0.0
O391 O 0.65598 0.74463 0.22637 0.0
H392 H 0.60724 0.63095 0.32058 0.0
H393 H 0.70055 0.65014 0.27362 0.0
H394 H 0.70886 0.6252 0.33201 0.0
H395 H 0.6154 0.60606 0.37855 0.0
H396 H 0.65041 0.83681 0.13153 0.0
H397 H 0.5577 0.82191 0.18415 0.0
H398 H 0.54841 0.84359 0.12396 0.0
H399 H 0.64108 0.85821 0.07197 0.0
Gd400 Gd 0.62333 0.25331 0.9772 0.0
Gd401 Gd 0.62643 0.19279 0.95021 0.0
C402 C 0.62073 0.2023 1.04606 0.0
C403 C 0.62707 0.3025 1.01176 0.0
C404 C 0.62421 0.3138 0.05238 0.0
C405 C 0.64912 0.32969 0.06324 0.0
C406 C 0.59753 0.30887 0.08051 0.0
C407 C 0.62087 0.3357 0.12965 0.0
C408 C 0.59587 0.31986 0.11883 0.0
C409 C 0.64753 0.34036 0.10161 0.0
C410 C 0.66993 0.24834 0.9176 0.0
C411 C 0.6023 0.2376 0.89566 0.0
C412 C 0.64776 0.14705 0.92455 0.0
C413 C 0.65111 0.13064 0.88775 0.0
C414 C 0.62878 0.12591 0.86621 0.0
C415 C 0.67794 0.12166 0.87228 0.0
C416 C 0.66086 0.10525 0.81261 0.0
C417 C 0.68285 0.10913 0.83486 0.0
C418 C 0.63357 0.11319 0.82904 0.0
C419 C 0.57132 0.20084 0.97614 0.0
O420 O 0.62008 0.22999 1.03784 0.0
O421 O 0.6245 0.18389 1.01654 0.0
O422 O 0.64927 0.28886 1.00033 0.0
O423 O 0.60327 0.29026 1.00017 0.0
O424 O 0.65386 0.26812 0.91881 0.0
O425 O 0.66057 0.23148 0.94841 0.0
O426 O 0.6164 0.21486 0.89507 0.0
O427 O 0.59832 0.25374 0.92784 0.0
O428 O 0.62116 0.14599 0.94573 0.0
O429 O 0.66332 0.17318 0.92131 0.0
O430 O 0.57921 0.18332 0.94766 0.0
O431 O 0.59286 0.21195 0.99082 0.0
H432 H 0.66992 0.33384 1.04195 0.0
H433 H 0.57802 0.29656 0.07304 0.0
H434 H 0.57508 0.31581 0.14012 0.0
H435 H 0.66701 0.35275 0.1091 0.0
H436 H 0.60802 0.13302 0.87735 0.0
H437 H 0.69545 0.1253 0.88852 0.0
H438 H 0.70405 0.10323 0.82285 0.0
H439 H 0.61641 0.11105 0.81222 0.0
Gd440 Gd 0.90321 0.73515 0.36321 0.0
Gd441 Gd 0.91043 0.79831 0.3374 0.0
C442 C 0.90303 0.78462 0.43359 0.0
C443 C 0.90035 0.68509 0.39604 0.0
C444 C 0.90602 0.67611 0.43405 0.0
C445 C 0.88984 0.65045 0.45371 0.0
C446 C 0.92533 0.69452 0.45277 0.0
C447 C 0.91093 0.66235 0.51177 0.0
C448 C 0.92786 0.68761 0.4913 0.0
C449 C 0.89226 0.64357 0.49235 0.0
C450 C 0.86115 0.74844 0.32667 0.0
C451 C 0.93292 0.75162 0.27245 0.0
C452 C 0.89555 0.84699 0.32125 0.0
C453 C 0.87662 0.85477 0.29527 0.0
C454 C 0.8885 0.87532 0.26393 0.0
C455 C 0.84798 0.8395 0.29832 0.0
C456 C 0.84577 0.86118 0.23474 0.0
C457 C 0.83266 0.84271 0.26835 0.0
C458 C 0.87329 0.8785 0.23395 0.0
C459 C 0.9604 0.78242 0.34827 0.0
O460 O 0.8998 0.75657 0.42462 0.0
O461 O 0.90773 0.80502 0.40463 0.0
O462 O 0.8776 0.69822 0.39939 0.0
O463 O 0.92334 0.69774 0.36965 0.0
O464 O 0.87248 0.7251 0.32059 0.0
O465 O 0.87206 0.76323 0.3523 0.0
O466 O 0.91926 0.77464 0.2777 0.0
O467 O 0.93415 0.73565 0.30368 0.0
O468 O 0.91992 0.83892 0.3027 0.0
O469 O 0.88251 0.83062 0.35302 0.0
O470 O 0.96025 0.80476 0.32569 0.0
O471 O 0.9348 0.7736 0.36691 0.0
H472 H 0.8746 0.63626 0.43972 0.0
H473 H 0.93782 0.71463 0.43807 0.0
H474 H 0.94268 0.70231 0.50531 0.0
H475 H 0.87864 0.62417 0.50756 0.0
H476 H 0.91045 0.88747 0.26112 0.0
H477 H 0.83802 0.8239 0.32265 0.0
H478 H 0.81135 0.82938 0.27029 0.0
H479 H 0.88439 0.89274 0.20845 0.0
Gd480 Gd 0.53451 0.60845 0.70571 0.0
Gd481 Gd 0.51345 0.62963 0.62619 0.0
C482 C 0.46778 0.61925 0.71314 0.0
C483 C 0.55378 0.61046 0.77249 0.0
C484 C 0.55626 0.62424 0.81232 0.0
C485 C 0.54142 0.60996 0.84905 0.0
C486 C 0.57672 0.64966 0.81437 0.0
C487 C 0.56808 0.64549 0.88823 0.0
C488 C 0.58244 0.66005 0.85134 0.0
C489 C 0.54707 0.62039 0.88612 0.0
C490 C 0.51967 0.56634 0.65542 0.0
C491 C 0.57747 0.6138 0.61823 0.0
C492 C 0.48877 0.64014 0.56701 0.0
C493 C 0.48826 0.65341 0.52663 0.0
C494 C 0.48573 0.6829 0.52193 0.0
C495 C 0.4859 0.63568 0.49361 0.0
C496 C 0.47718 0.67603 0.45335 0.0
C497 C 0.48062 0.64673 0.4578 0.0
C498 C 0.48045 0.69398 0.48609 0.0
C499 C 0.54656 0.66816 0.66434 0.0
O500 O 0.48872 0.61459 0.73132 0.0
O501 O 0.47162 0.62413 0.67398 0.0
O502 O 0.52965 0.59335 0.76815 0.0
O503 O 0.5676 0.62503 0.73929 0.0
O504 O 0.53714 0.56409 0.67965 0.0
O505 O 0.50837 0.58898 0.6625 0.0
O506 O 0.55527 0.61395 0.60031 0.0
O507 O 0.57569 0.61629 0.65727 0.0
O508 O 0.4901 0.65698 0.59759 0.0
O509 O 0.50075 0.6169 0.56951 0.0
O510 O 0.54762 0.67038 0.62616 0.0
O511 O 0.5267 0.64797 0.67972 0.0
H512 H 0.52583 0.59013 0.84917 0.0
H513 H 0.58919 0.66121 0.78712 0.0
H514 H 0.59907 0.6791 0.85061 0.0
H515 H 0.53491 0.60848 0.9132 0.0
H516 H 0.48686 0.69738 0.54655 0.0
H517 H 0.48729 0.61283 0.49582 0.0
H518 H 0.47899 0.63197 0.43362 0.0
H519 H 0.47782 0.71653 0.48482 0.0
Gd520 Gd 0.96329 0.35022 0.16599 0.0
Gd521 Gd 0.02481 0.3631 0.17515 0.0
C522 C 0.01526 0.33107 0.095 0.0
C523 C 0.91406 0.3537 0.14718 0.0
C524 C 0.90261 0.36621 0.11571 0.0
C525 C 0.87884 0.35006 0.10284 0.0
C526 C 0.91423 0.3944 0.09953 0.0
C527 C 0.87861 0.38983 0.05712 0.0
C528 C 0.90222 0.40617 0.07062 0.0
C529 C 0.86701 0.36167 0.07371 0.0
C530 C 0.97858 0.30732 0.20483 0.0
C531 C 0.97166 0.35869 0.25674 0.0
C532 C 0.07449 0.37355 0.19608 0.0
C533 C 0.0819 0.37167 0.23514 0.0
C534 C 0.10533 0.39115 0.24416 0.0
C535 C 0.06284 0.35346 0.26542 0.0
C536 C 0.08879 0.37621 0.31423 0.0
C537 C 0.06627 0.3557 0.30468 0.0
C538 C 0.1089 0.3933 0.2836 0.0
C539 C 0.01048 0.40283 0.12843 0.0
O540 O -0.0118 0.33733 0.10444 0.0
O541 O 0.03307 0.33635 0.12024 0.0
O542 O 0.92768 0.33158 0.13788 0.0
O543 O 0.92663 0.37236 0.1695 0.0
O544 O 0.95191 0.31226 0.2108 0.0
O545 O -0.00567 0.32272 0.17576 0.0
O546 O 4e-05 0.36002 0.24126 0.0
O547 O 0.95308 0.35843 0.2327 0.0
O548 O 0.05883 0.39368 0.19302 0.0
O549 O 0.06484 0.34882 0.18129 0.0
O550 O 0.03449 0.39238 0.1208 0.0
O551 O -0.00551 0.39197 0.1614 0.0
H552 H 0.86955 0.32832 0.11514 0.0
H553 H 0.93256 0.40735 0.10917 0.0
H554 H 0.91157 0.42795 0.05865 0.0
H555 H 0.84933 0.34818 0.06337 0.0
H556 H 0.11999 0.40556 0.22108 0.0
H557 H 0.0445 0.33845 0.2591 0.0
H558 H 0.05082 0.34194 0.32778 0.0
H559 H 0.12644 0.40923 0.29044 0.0
Gd560 Gd 0.49915 0.35501 0.47323 0.0
Gd561 Gd 0.47278 0.37324 0.3975 0.0
C562 C 0.43072 0.36079 0.48199 0.0
C563 C 0.51229 0.33965 0.53973 0.0
C564 C 0.51931 0.32987 0.57831 0.0
C565 C 0.50632 0.30238 0.59656 0.0
C566 C 0.54039 0.34691 0.59607 0.0
C567 C 0.53565 0.30903 0.64857 0.0
C568 C 0.54837 0.33674 0.63047 0.0
C569 C 0.51431 0.29221 0.63088 0.0
C570 C 0.49041 0.3161 0.41654 0.0
C571 C 0.54439 0.37965 0.39265 0.0
C572 C 0.45987 0.36632 0.32696 0.0
C573 C 0.45384 0.36137 0.2854 0.0
C574 C 0.42893 0.36891 0.27438 0.0
C575 C 0.47219 0.34702 0.25684 0.0
C576 C 0.44059 0.34722 0.20796 0.0
C577 C 0.46583 0.34027 0.21901 0.0
C578 C 0.42241 0.36196 0.23651 0.0
C579 C 0.48388 0.41671 0.44757 0.0
O580 O 0.45415 0.36532 0.4982 0.0
O581 O 0.43226 0.35617 0.44344 0.0
O582 O 0.49235 0.32412 0.52343 0.0
O583 O 0.52437 0.3645 0.52047 0.0
O584 O 0.51164 0.31776 0.43527 0.0
O585 O 0.47403 0.33375 0.43049 0.0
O586 O 0.5219 0.38064 0.37538 0.0
O587 O 0.54174 0.3722 0.43086 0.0
O588 O 0.4459 0.38177 0.35435 0.0
O589 O 0.48135 0.35634 0.33775 0.0
O590 O 0.46692 0.41767 0.42212 0.0
O591 O 0.49711 0.39528 0.44041 0.0
H592 H 0.49008 0.28838 0.58402 0.0
H593 H 0.55118 0.36804 0.58295 0.0
H594 H 0.56515 0.3505 0.64223 0.0
H595 H 0.50353 0.27107 0.64366 0.0
H596 H 0.414 0.37965 0.29544 0.0
H597 H 0.49157 0.34068 0.26381 0.0
H598 H 0.48103 0.3296 0.19835 0.0
H599 H 0.40256 0.36758 0.23018 0.0
Gd600 Gd -0.00362 0.62903 0.92584 0.0
Gd601 Gd 0.05828 0.64035 0.93255 0.0
C602 C 0.04739 0.63061 0.84321 0.0
C603 C 0.9453 0.61861 0.90865 0.0
C604 C 0.93359 0.62181 0.87267 0.0
C605 C 0.92483 0.59692 0.8522 0.0
C606 C 0.93281 0.64939 0.85696 0.0
C607 C 0.91826 0.6272 0.7985 0.0
C608 C 0.92523 0.65205 0.82009 0.0
C609 C 0.91738 0.59959 0.81529 0.0
C610 C 0.00981 0.58901 0.97337 0.0
C611 C 0.00895 0.66273 1.00343 0.0
C612 C 0.10873 0.63731 0.94794 0.0
C613 C 0.1222 0.62836 0.97946 0.0
C614 C 0.1057 0.62119 1.01819 0.0
C615 C 0.15208 0.62673 0.97034 0.0
C616 C 0.14949 0.61225 1.03926 0.0
C617 C 0.16567 0.61872 1.00001 0.0
C618 C 0.11928 0.61324 1.04796 0.0
C619 C 0.04373 0.68323 0.89227 0.0
O620 O 0.01948 0.63136 0.85926 0.0
O621 O 0.06611 0.62942 0.86672 0.0
O622 O 0.96238 0.59911 0.90688 0.0
O623 O 0.95493 0.6425 0.92536 0.0
O624 O -0.01342 0.6007 0.98091 0.0
O625 O 0.02588 0.59916 0.94005 0.0
O626 O 0.03491 0.65399 0.99435 0.0
O627 O -0.00899 0.65859 0.97826 0.0
O628 O 0.09636 0.66049 0.95414 0.0
O629 O 0.09344 0.61628 0.93201 0.0
O630 O 0.06996 0.67711 0.88564 0.0
O631 O 0.02816 0.66882 0.92239 0.0
H632 H 0.9248 0.5754 0.86404 0.0
H633 H 0.93898 0.66895 0.87238 0.0
H634 H 0.92617 0.6736 0.80766 0.0
H635 H 0.91164 0.5801 0.79938 0.0
H636 H 0.08251 0.62218 1.02549 0.0
H637 H 0.16496 0.63193 0.94031 0.0
H638 H 0.18887 0.6179 0.99236 0.0
H639 H 0.1063 0.60885 0.07806 0.0
H640 H 0.12812 0.16465 0.1191 0.0
H641 H 0.09076 0.08983 0.06127 0.0
H642 H 0.17304 0.16983 0.06658 0.0
H643 H 0.13507 0.09452 1.00972 0.0
H644 H 0.18465 0.19324 0.92523 0.0
H645 H 0.17364 0.186 0.99686 0.0
H646 H 0.18866 0.09742 0.98364 0.0
H647 H 0.20011 0.10474 0.91106 0.0
C648 C 0.12995 0.14884 0.09585 0.0
C649 C 0.10594 0.12737 0.09327 0.0
C650 C 0.15562 0.15167 0.06605 0.0
C651 C 0.15761 0.13267 1.03394 0.0
C652 C 0.13454 0.10936 1.03416 0.0
C653 C 0.10888 0.10693 0.0633 0.0
C654 C 0.18737 0.17268 0.93728 0.0
C655 C 0.19182 0.14906 0.91244 0.0
C656 C 0.18109 0.16855 0.97873 0.0
C657 C 0.179 0.14073 0.99575 0.0
C658 C 0.18928 0.11887 0.97112 0.0
C659 C 0.19562 0.12301 0.92957 0.0
H660 H 0.09959 0.80345 0.38214 0.0
H661 H 0.09465 0.71609 0.33949 0.0
H662 H 0.08175 0.81848 0.32466 0.0
H663 H 0.07658 0.7311 0.2821 0.0
H664 H 0.01872 0.76297 0.20259 0.0
H665 H 0.03452 0.74762 0.26145 0.0
H666 H 0.09761 0.82671 0.2515 0.0
H667 H 0.08265 0.84174 0.19201 0.0
C668 C 0.09475 0.78735 0.36057 0.0
C669 C 0.09898 0.7585 0.36573 0.0
C670 C 0.08455 0.79606 0.3273 0.0
C671 C 0.07772 0.77618 0.29811 0.0
C672 C 0.08136 0.74716 0.30374 0.0
C673 C 0.09199 0.73854 0.33672 0.0
C674 C 0.03623 0.77709 0.21235 0.0
C675 C 0.04922 0.8038 0.19151 0.0
C676 C 0.04529 0.76822 0.24655 0.0
C677 C 0.0675 0.78578 0.26175 0.0
C678 C 0.0802 0.8126 0.24138 0.0
C679 C 0.0714 0.82134 0.20696 0.0
H680 H 0.30584 0.83995 0.3391 0.0
H681 H 0.36621 0.92082 0.33513 0.0
H682 H 0.29883 0.83731 0.41141 0.0
H683 H 0.36107 0.91698 0.40697 0.0
H684 H 0.35676 0.9033 0.53472 0.0
H685 H 0.33866 0.9138 0.47541 0.0
H686 H 0.33238 0.82305 0.44589 0.0
H687 H 0.34946 0.81271 0.50531 0.0
C688 C 0.31698 0.85766 0.35365 0.0
C689 C 0.33739 0.88012 0.33119 0.0
C690 C 0.31326 0.85591 0.39519 0.0
C691 C 0.33026 0.87626 0.41491 0.0
C692 C 0.34775 0.90071 0.39295 0.0
C693 C 0.35105 0.90273 0.35152 0.0
C694 C 0.35094 0.88561 0.51577 0.0
C695 C 0.35482 0.85727 0.52423 0.0
C696 C 0.34056 0.89158 0.48188 0.0
C697 C 0.33427 0.86937 0.45556 0.0
C698 C 0.33643 0.8407 0.46566 0.0
C699 C 0.34647 0.83473 0.49968 0.0
H700 H 0.46662 0.22308 0.74443 0.0
H701 H 0.40738 0.26559 0.69471 0.0
H702 H 0.48406 0.20342 0.68045 0.0
H703 H 0.42602 0.24638 0.62877 0.0
H704 H 0.4431 0.17859 0.52871 0.0
H705 H 0.42619 0.20321 0.59014 0.0
H706 H 0.51233 0.21147 0.61618 0.0
H707 H 0.52884 0.18596 0.55551 0.0
C708 C 0.45735 0.22857 0.71966 0.0
C709 C 0.43516 0.2459 0.72545 0.0
C710 C 0.46773 0.21732 0.68236 0.0
C711 C 0.45668 0.22297 0.64863 0.0
C712 C 0.43496 0.24102 0.65389 0.0
C713 C 0.42441 0.2524 0.69172 0.0
C714 C 0.4585 0.18557 0.54754 0.0
C715 C 0.48739 0.17976 0.53694 0.0
C716 C 0.44878 0.20006 0.58286 0.0
C717 C 0.46758 0.2094 0.60901 0.0
C718 C 0.49672 0.20417 0.59778 0.0
C719 C 0.50637 0.18953 0.56261 0.0
H720 H 0.84627 0.90372 0.17893 0.0
H721 H 0.82 0.81134 0.20476 0.0
H722 H 0.85135 0.89518 0.10808 0.0
H723 H 0.82324 0.80308 0.13416 0.0
H724 H 0.91454 0.80821 1.04245 0.0
H725 H 0.87368 0.80706 0.09864 0.0
H726 H 0.84532 0.87704 1.04275 0.0
H727 H 0.88679 0.87777 0.98573 0.0
C728 C 0.8402 0.88173 0.16969 0.0
C729 C 0.83451 0.85811 0.19726 0.0
C730 C 0.84271 0.87683 0.12893 0.0
C731 C 0.83913 0.84822 0.1154 0.0
C732 C 0.82719 0.82528 0.1437 0.0
C733 C 0.82516 0.83012 0.1844 0.0
C734 C 0.89884 0.82248 1.04147 0.0
C735 C 0.90378 0.84326 1.01033 0.0
C736 C 0.87515 0.82171 0.07353 0.0
C737 C 0.85627 0.84223 0.07551 0.0
C738 C 0.85956 0.86109 1.04219 0.0
C739 C 0.88317 0.86149 1.00958 0.0
H740 H 0.91567 0.18576 0.72021 0.0
H741 H 0.92184 0.27239 0.76546 0.0
H742 H 0.93114 0.16878 0.7786 0.0
H743 H 0.9374 0.25543 0.82389 0.0
H744 H -0.00777 0.221 0.90513 0.0
H745 H 0.97736 0.23798 0.84653 0.0
H746 H 0.9154 0.15857 0.85053 0.0
H747 H 0.92953 0.14179 0.90983 0.0
C748 C 0.92029 0.20129 0.74255 0.0
C749 C 0.91728 0.23058 0.73765 0.0
C750 C 0.92909 0.19145 0.77641 0.0
C751 C 0.93563 0.21054 0.80662 0.0
C752 C 0.93291 0.23992 0.80146 0.0
C753 C 0.92375 0.24969 0.76782 0.0
C754 C 0.97511 0.20711 0.89418 0.0
C755 C 0.9622 0.17978 0.91333 0.0
C756 C 0.96658 0.21697 0.86009 0.0
C757 C 0.94498 0.19986 0.84321 0.0
C758 C 0.93234 0.17242 0.86191 0.0
C759 C 0.94064 0.16267 0.89625 0.0
H760 H 0.70924 0.12483 0.7545 0.0
H761 H 0.62619 0.06658 0.77558 0.0
H762 H 0.71332 0.12083 0.68256 0.0
H763 H 0.6296 0.0635 0.7039 0.0
H764 H 0.63633 0.06339 0.57458 0.0
H765 H 0.65122 0.05254 0.63635 0.0
H766 H 0.68513 0.14377 0.64476 0.0
H767 H 0.67063 0.1544 0.5833 0.0
C768 C 0.69233 0.1104 0.74378 0.0
C769 C 0.66707 0.09649 0.77052 0.0
C770 C 0.69455 0.10832 0.70258 0.0
C771 C 0.67148 0.09243 0.68754 0.0
C772 C 0.6478 0.07593 0.71439 0.0
C773 C 0.64565 0.07793 0.75552 0.0
C774 C 0.64744 0.08097 0.58941 0.0
C775 C 0.65193 0.10978 0.57456 0.0
C776 C 0.65605 0.07476 0.6246 0.0
C777 C 0.66913 0.0973 0.64565 0.0
C778 C 0.67553 0.12579 0.62907 0.0
C779 C 0.66705 0.13195 0.59387 0.0
H780 H 0.57974 0.84236 0.54961 0.0
H781 H 0.49293 0.79914 0.54436 0.0
H782 H 0.59965 0.81985 0.48732 0.0
H783 H 0.51289 0.77623 0.48244 0.0
H784 H 0.56331 0.71982 0.38751 0.0
H785 H 0.54439 0.73971 0.45285 0.0
H786 H 0.59955 0.82233 0.41503 0.0
H787 H 0.61773 0.80262 0.35003 0.0
C788 C 0.56481 0.82805 0.53532 0.0
C789 C 0.53455 0.82295 0.55239 0.0
C790 C 0.57628 0.81509 0.49931 0.0
C791 C 0.55806 0.79599 0.47928 0.0
C792 C 0.52784 0.7905 0.49676 0.0
C793 C 0.5163 0.80393 0.53234 0.0
C794 C 0.57182 0.74203 0.39353 0.0
C795 C 0.59258 0.75938 0.36357 0.0
C796 C 0.5607 0.75363 0.43092 0.0
C797 C 0.57038 0.78283 0.43984 0.0
C798 C 0.59168 0.79977 0.40999 0.0
C799 C 0.60221 0.7884 0.37251 0.0
H800 H 0.63434 0.56535 0.40551 0.0
H801 H 0.7012 0.64097 0.40262 0.0
H802 H 0.62805 0.56089 0.47753 0.0
H803 H 0.69572 0.63592 0.47474 0.0
H804 H 0.61545 0.65672 0.57426 0.0
H805 H 0.65228 0.65034 0.51533 0.0
H806 H 0.63828 0.55807 0.54376 0.0
H807 H 0.60092 0.56487 0.60291 0.0
C808 C 0.64862 0.58022 0.42013 0.0
C809 C 0.66742 0.6041 0.39878 0.0
C810 C 0.6453 0.5775 0.46147 0.0
C811 C 0.66076 0.59869 0.48203 0.0
C812 C 0.68304 0.61969 0.45976 0.0
C813 C 0.68627 0.62248 0.41836 0.0
C814 C 0.62135 0.63537 0.5688 0.0
C815 C 0.60556 0.61125 0.59248 0.0
C816 C 0.6426 0.63162 0.53518 0.0
C817 C 0.64794 0.60354 0.52445 0.0
C818 C 0.63442 0.57988 0.55104 0.0
C819 C 0.61316 0.58373 0.58485 0.0
H820 H 0.57129 0.2815 0.88868 0.0
H821 H 0.60816 0.21394 0.81994 0.0
H822 H 0.55488 0.29746 0.83103 0.0
H823 H 0.59192 0.23024 0.76152 0.0
H824 H 0.53819 0.2521 0.67058 0.0
H825 H 0.55269 0.23426 0.72906 0.0
H826 H 0.56947 0.32214 0.76854 0.0
H827 H 0.55387 0.33983 0.71113 0.0
C828 C 0.5761 0.26999 0.86119 0.0
C829 C 0.5914 0.24635 0.8595 0.0
C830 C 0.56674 0.27939 0.82764 0.0
C831 C 0.57208 0.26557 0.7907 0.0
C832 C 0.58696 0.24153 0.78914 0.0
C833 C 0.59648 0.23216 0.82284 0.0
C834 C 0.54462 0.26776 0.69181 0.0
C835 C 0.5447 0.29771 0.68522 0.0
C836 C 0.5534 0.25742 0.72548 0.0
C837 C 0.56253 0.2765 0.75427 0.0
C838 C 0.5624 0.30639 0.7478 0.0
C839 C 0.55373 0.31673 0.71413 0.0
H840 H 0.91109 0.42054 0.99026 0.0
H841 H 0.82206 0.38323 1.04662 0.0
H842 H 0.89586 0.42769 0.92833 0.0
H843 H 0.80695 0.38976 0.9837 0.0
H844 H 0.86851 0.43453 0.81688 0.0
H845 H 0.86524 0.44743 0.88675 0.0
H846 H 0.82218 0.35985 0.92425 0.0
H847 H 0.82602 0.34678 0.85506 0.0
C848 C 0.88804 0.41485 0.98996 0.0
C849 C 0.86793 0.40062 1.02313 0.0
C850 C 0.87927 0.41904 0.95433 0.0
C851 C 0.85027 0.40889 0.95107 0.0
C852 C 0.82951 0.39743 0.98534 0.0
C853 C 0.83824 0.39347 1.02117 0.0
C854 C 0.85776 0.41824 0.84012 0.0
C855 C 0.84827 0.38942 0.83042 0.0
C856 C 0.8557 0.42571 0.88004 0.0
C857 C 0.84385 0.40454 0.91082 0.0
C858 C 0.83123 0.37672 0.9012 0.0
C859 C 0.8335 0.36919 0.86136 0.0
H860 H 0.96726 0.70973 0.25457 0.0
H861 H 0.92937 0.7712 0.19681 0.0
H862 H -0.01339 0.69081 0.19023 0.0
H863 H 0.94947 0.75239 0.13147 0.0
H864 H 0.03753 0.67411 0.06617 0.0
H865 H 0.02155 0.69841 0.12847 0.0
H866 H 0.94299 0.71043 0.09058 0.0
H867 H 0.95912 0.68664 1.02832 0.0
C868 C 0.96312 0.71946 0.22809 0.0
C869 C 0.94633 0.74201 0.23147 0.0
C870 C 0.97458 0.70863 0.19077 0.0
C871 C 0.96973 0.71976 0.155 0.0
C872 C 0.95344 0.74279 0.15814 0.0
C873 C 0.94202 0.75381 0.19574 0.0
C874 C 0.01687 0.68197 0.071 0.0
C875 C -0.00033 0.67803 1.04186 0.0
C876 C 0.00756 0.6959 0.10702 0.0
C877 C 0.98072 0.70651 0.11523 0.0
C878 C 0.96386 0.70302 0.08565 0.0
C879 C 0.9731 0.68902 0.0498 0.0
H880 H 0.42166 0.39659 0.54318 0.0
H881 H 0.37608 0.33078 0.47926 0.0
H882 H 0.37769 0.39617 0.5935 0.0
H883 H 0.33092 0.33029 0.53034 0.0
H884 H 0.30329 0.30014 0.66926 0.0
H885 H 0.31842 0.31058 0.59792 0.0
H886 H 0.32872 0.40258 0.61913 0.0
H887 H 0.31732 0.39237 0.69022 0.0
C888 C 0.40188 0.38234 0.53962 0.0
C889 C 0.40237 0.36312 0.50811 0.0
C890 C 0.37632 0.38245 0.56816 0.0
C891 C 0.35051 0.36307 0.56625 0.0
C892 C 0.35043 0.34535 0.53284 0.0
C893 C 0.37621 0.34556 0.50372 0.0
C894 C 0.30833 0.32267 0.65881 0.0
C895 C 0.31195 0.34527 0.68565 0.0
C896 C 0.31646 0.32869 0.6176 0.0
C897 C 0.32698 0.35748 0.60309 0.0
C898 C 0.32242 0.38007 0.6297 0.0
C899 C 0.31556 0.37409 0.67086 0.0
H900 H 0.44447 0.64633 0.40251 0.0
H901 H 0.49129 0.73189 0.41729 0.0
H902 H 0.43092 0.66411 0.34352 0.0
H903 H 0.47725 0.74976 0.3583 0.0
H904 H 0.42218 0.77935 0.27216 0.0
H905 H 0.43783 0.76239 0.33064 0.0
H906 H 0.4468 0.68034 0.27522 0.0
H907 H 0.43114 0.69723 0.21716 0.0
C908 C 0.45232 0.6689 0.39319 0.0
C909 C 0.46925 0.68735 0.41566 0.0
C910 C 0.44436 0.67925 0.35891 0.0
C911 C 0.45274 0.70863 0.34535 0.0
C912 C 0.46975 0.72714 0.36763 0.0
C913 C 0.47787 0.71674 0.40189 0.0
C914 C 0.42746 0.75767 0.27235 0.0
C915 C 0.42505 0.73979 0.23944 0.0
C916 C 0.43669 0.74789 0.30607 0.0
C917 C 0.4436 0.71968 0.30856 0.0
C918 C 0.44126 0.70192 0.27546 0.0
C919 C 0.43237 0.7118 0.24166 0.0
H920 H 0.19419 0.66684 0.24548 0.0
H921 H 0.18151 0.57443 0.27172 0.0
H922 H 0.19895 0.65775 0.17511 0.0
H923 H 0.18596 0.56525 0.20051 0.0
H924 H 0.20199 0.64083 0.05122 0.0
H925 H 0.22122 0.63923 0.11162 0.0
H926 H 0.14894 0.57133 0.16219 0.0
H927 H 0.13045 0.57205 0.10119 0.0
C928 C 0.1936 0.6446 0.23614 0.0
C929 C 0.18682 0.62132 0.26435 0.0
C930 C 0.19637 0.63935 0.19555 0.0
C931 C 0.19234 0.61072 0.18231 0.0
C932 C 0.18864 0.58752 0.21001 0.0
C933 C 0.18598 0.59278 0.25072 0.0
C934 C 0.19082 0.62479 0.0746 0.0
C935 C 0.16432 0.60699 0.07189 0.0
C936 C 0.20177 0.62401 0.10928 0.0
C937 C 0.18635 0.60554 0.1419 0.0
C938 C 0.16145 0.58576 0.13757 0.0
C939 C 0.15056 0.58647 0.10286 0.0
H940 H 0.10933 0.30027 0.8541 0.0
H941 H 0.05787 0.21576 0.88995 0.0
H942 H 0.08963 0.31897 0.91911 0.0
H943 H 0.03742 0.23479 0.95544 0.0
H944 H 0.9841 0.29729 1.04576 0.0
H945 H 0.0037 0.27436 0.98308 0.0
H946 H 0.09141 0.31163 0.99251 0.0
H947 H 0.0721 0.3337 0.05507 0.0
C948 C 0.09404 0.28551 0.87616 0.0
C949 C 0.08567 0.25634 0.86681 0.0
C950 C 0.08263 0.2963 0.91354 0.0
C951 C 0.06174 0.27855 0.94284 0.0
C952 C 0.05328 0.24922 0.93366 0.0
C953 C 0.06532 0.23817 0.8963 0.0
C954 C 0.00756 0.3006 1.03444 0.0
C955 C 0.0264 0.31759 0.05575 0.0
C956 C 0.01884 0.28722 0.9986 0.0
C957 C 0.04926 0.29104 0.98243 0.0
C958 C 0.06793 0.30819 1.00369 0.0
C959 C 0.05676 0.3209 1.03979 0.0
H960 H 0.03391 0.29736 0.19643 0.0
H961 H 0.95032 0.28474 0.27929 0.0
H962 H 0.05144 0.26508 0.23635 0.0
H963 H 0.9677 0.25146 0.32 0.0
H964 H 0.96707 0.17233 0.24031 0.0
H965 H 0.96456 0.2056 0.29437 0.0
H966 H 0.05882 0.22504 0.27138 0.0
H967 H 0.06134 0.19084 0.21688 0.0
C968 C 0.01946 0.28801 0.22384 0.0
C969 C -0.00976 0.29186 0.23341 0.0
C970 C 0.02958 0.26962 0.24748 0.0
C971 C 0.00984 0.25301 0.27931 0.0
C972 C 0.98278 0.26216 0.29388 0.0
C973 C 0.97258 0.28074 0.27019 0.0
C974 C -0.01271 0.18343 0.24717 0.0
C975 C 0.01434 0.18151 0.22224 0.0
C976 C 0.98605 0.20215 0.27893 0.0
C977 C 0.01161 0.22146 0.28238 0.0
C978 C 0.0386 0.2127 0.26605 0.0
C979 C 0.04014 0.19374 0.2342 0.0
H980 H -0.00346 0.74296 0.3373 0.0
H981 H 0.97241 0.81448 0.40942 0.0
H982 H 0.01681 0.72525 0.39065 0.0
H983 H -0.0094 0.79591 0.46402 0.0
H984 H 0.06088 0.76544 0.52595 0.0
H985 H 0.03157 0.78676 0.48776 0.0
H986 H -0.00399 0.70089 0.45475 0.0
H987 H 0.02668 0.67988 0.49151 0.0
C988 C -0.00327 0.75548 0.36401 0.0
C989 C 0.98361 0.78028 0.36921 0.0
C990 C 0.00728 0.74485 0.39513 0.0
C991 C 0.00409 0.7585 0.43223 0.0
C992 C -0.00681 0.78477 0.43602 0.0
C993 C 0.98333 0.79574 0.4045 0.0
C994 C 0.04539 0.75103 0.51261 0.0
C995 C 0.04709 0.72134 0.50961 0.0
C996 C 0.02889 0.76329 0.49011 0.0
C997 C 0.013 0.74557 0.46617 0.0
C998 C 0.00942 0.71516 0.47123 0.0
C999 C 0.02631 0.703 0.49329 0.0
H1000 H 0.53905 0.66737 0.74524 0.0
H1001 H 0.58689 0.71673 0.63833 0.0
H1002 H 0.54582 0.71005 0.78456 0.0
H1003 H 0.59246 0.75969 0.67703 0.0
H1004 H 0.55256 0.82481 0.69386 0.0
H1005 H 0.58454 0.79754 0.71828 0.0
H1006 H 0.50881 0.73495 0.77445 0.0
H1007 H 0.47689 0.76523 0.75499 0.0
C1008 C 0.5523 0.68704 0.73037 0.0
C1009 C 0.56098 0.68944 0.68841 0.0
C1010 C 0.55622 0.7116 0.75307 0.0
C1011 C 0.56647 0.73882 0.73331 0.0
C1012 C 0.58225 0.73944 0.69319 0.0
C1013 C 0.57882 0.71481 0.67046 0.0
C1014 C 0.54274 0.80624 0.71348 0.0
C1015 C 0.51242 0.79663 0.72148 0.0
C1016 C 0.5611 0.79046 0.72754 0.0
C1017 C 0.54963 0.76279 0.74522 0.0
C1018 C 0.51889 0.7556 0.75926 0.0
C1019 C 0.50035 0.77257 0.74738 0.0
H1020 H 0.55877 0.25224 1.00799 0.0
H1021 H 0.5223 0.17563 0.95311 0.0
H1022 H 0.52704 0.28028 0.98216 0.0
H1023 H 0.48895 0.20255 0.93034 0.0
H1024 H 0.48658 0.26041 0.82939 0.0
H1025 H 0.5097 0.23613 0.87343 0.0
H1026 H 0.48093 0.29237 0.96901 0.0
H1027 H 0.45907 0.3179 0.92356 0.0
C1028 C 0.54308 0.24123 0.99188 0.0
C1029 C 0.54422 0.21263 0.97982 0.0
C1030 C 0.52478 0.25713 0.97737 0.0
C1031 C 0.50682 0.24384 0.95236 0.0
C1032 C 0.50367 0.2136 0.94799 0.0
C1033 C 0.52254 0.1981 0.96132 0.0
C1034 C 0.48589 0.26804 0.85948 0.0
C1035 C 0.47049 0.2903 0.87366 0.0
C1036 C 0.49853 0.25381 0.88499 0.0
C1037 C 0.4957 0.26143 0.92524 0.0
C1038 C 0.48281 0.28569 0.93836 0.0
C1039 C 0.47052 0.30034 0.91238 0.0
H1040 H 0.95416 0.79222 0.88017 0.0
H1041 H 0.04793 0.8164 0.86043 0.0
H1042 H 0.96002 0.76028 0.8232 0.0
H1043 H 0.05364 0.7855 0.80378 0.0
H1044 H 0.07262 0.70761 0.81888 0.0
H1045 H 0.05434 0.73993 0.77781 0.0
H1046 H 0.9691 0.72076 0.85753 0.0
H1047 H -0.01239 0.68982 0.89806 0.0
C1048 C 0.97595 0.7911 0.86315 0.0
C1049 C 0.0008 0.80419 0.87674 0.0
C1050 C 0.97939 0.77345 0.82989 0.0
C1051 C 0.00735 0.7666 0.81397 0.0
C1052 C 0.03157 0.7872 0.81904 0.0
C1053 C 0.02851 0.80459 0.85223 0.0
C1054 C 0.04989 0.71026 0.82709 0.0
C1055 C 0.03194 0.69804 0.86312 0.0
C1056 C 0.0392 0.72827 0.80315 0.0
C1057 C 0.01112 0.73554 0.81663 0.0
C1058 C -0.00844 0.71771 0.84735 0.0
C1059 C 0.00221 0.70003 0.87133 0.0
H1060 H 0.52569 0.742 0.28226 0.0
H1061 H 0.55028 0.6711 0.2091 0.0
H1062 H 0.49804 0.75484 0.23447 0.0
H1063 H 0.52343 0.68449 0.16029 0.0
H1064 H 0.45241 0.72594 0.10102 0.0
H1065 H 0.47613 0.69764 0.14086 0.0
H1066 H 0.52886 0.77708 0.16682 0.0
H1067 H 0.50344 0.80505 0.13026 0.0
C1068 C 0.52359 0.72807 0.25727 0.0
C1069 C 0.54021 0.70594 0.24883 0.0
C1070 C 0.5085 0.73581 0.22937 0.0
C1071 C 0.51007 0.72144 0.19294 0.0
C1072 C 0.52239 0.69611 0.18788 0.0
C1073 C 0.53723 0.68816 0.21617 0.0
C1074 C 0.46967 0.73706 0.1143 0.0
C1075 C 0.47444 0.76748 0.11591 0.0
C1076 C 0.48315 0.72096 0.13712 0.0
C1077 C 0.50258 0.73566 0.15914 0.0
C1078 C 0.51251 0.7656 0.15198 0.0
C1079 C 0.49845 0.78153 0.13037 0.0
H1080 H 0.56176 0.20757 0.31415 0.0
H1081 H 0.47745 0.19103 0.39522 0.0
H1082 H 0.54341 0.24048 0.27396 0.0
H1083 H 0.45877 0.22211 0.35514 0.0
H1084 H 0.44558 0.29413 0.3801 0.0
H1085 H 0.45029 0.26283 0.32232 0.0
H1086 H 0.54419 0.28566 0.30221 0.0
H1087 H 0.53956 0.31563 0.35986 0.0
C1088 C 0.53915 0.21055 0.3229 0.0
C1089 C 0.5215 0.1986 0.35926 0.0
C1090 C 0.52839 0.22885 0.29943 0.0
C1091 C 0.50062 0.23664 0.31375 0.0
C1092 C 0.48112 0.21881 0.34451 0.0
C1093 C 0.49188 0.20104 0.36821 0.0
C1094 C 0.46717 0.29256 0.36281 0.0
C1095 C 0.49234 0.30464 0.3764 0.0
C1096 C 0.46997 0.27533 0.32907 0.0
C1097 C 0.4976 0.26799 0.31241 0.0
C1098 C 0.52231 0.28774 0.31784 0.0
C1099 C 0.51986 0.30456 0.3516 0.0
H1100 H 0.05603 0.17744 0.67056 0.0
H1101 H 0.04073 0.25317 0.73912 0.0
H1102 H 0.038 0.19681 0.61632 0.0
H1103 H 0.02167 0.27226 0.68577 0.0
H1104 H -0.00478 0.31117 0.5955 0.0
H1105 H 0.03422 0.29285 0.61876 0.0
H1106 H -0.00677 0.2048 0.60329 0.0
H1107 H 0.95546 0.22325 0.57836 0.0
C1108 C 0.04838 0.19809 0.67421 0.0
C1109 C 0.05042 0.21432 0.70844 0.0
C1110 C 0.03836 0.20931 0.64298 0.0
C1111 C 0.02936 0.23656 0.64601 0.0
C1112 C 0.02981 0.25188 0.68148 0.0
C1113 C 0.0402 0.24081 0.71239 0.0
C1114 C -0.00427 0.28805 0.59452 0.0
C1115 C 0.97186 0.26838 0.58705 0.0
C1116 C 0.01775 0.2775 0.60853 0.0
C1117 C 0.01567 0.2474 0.61522 0.0
C1118 C -0.00483 0.22811 0.59946 0.0
C1119 C 0.97348 0.23868 0.58497 0.0
H1120 H 0.97512 0.05262 0.12651 0.0
H1121 H 0.06263 0.0344 0.11438 0.0
H1122 H 0.96499 0.01512 0.07955 0.0
H1123 H 0.05363 -0.00173 0.06484 0.0
H1124 H 0.0233 0.91688 1.00307 0.0
H1125 H 0.03235 0.95317 0.0519 0.0
H1126 H 0.97047 0.00049 1.01566 0.0
H1127 H 0.95957 0.96229 0.96977 0.0
C1128 C -0.00765 0.04073 0.11331 0.0
C1129 C 0.01958 0.04624 0.12434 0.0
C1130 C -0.01332 0.0193 0.0859 0.0
C1131 C 0.00839 0.00325 0.0678 0.0
C1132 C 0.03593 0.00936 0.07853 0.0
C1133 C 0.04129 0.0303 0.1068 0.0
C1134 C 0.01112 0.93463 1.00637 0.0
C1135 C -0.0098 0.93623 0.98331 0.0
C1136 C 0.01675 0.95599 1.03389 0.0
C1137 C 0.00224 0.98022 1.03832 0.0
C1138 C 0.98169 0.98203 1.01432 0.0
C1139 C 0.97555 0.9602 0.98754 0.0
H1140 H 0.18519 0.77077 0.34855 0.0
H1141 H 0.2242 0.71799 0.41815 0.0
H1142 H 0.22578 0.77109 0.29181 0.0
H1143 H 0.26584 0.71889 0.36128 0.0
H1144 H 0.32345 0.70424 0.24103 0.0
H1145 H 0.28253 0.70305 0.297 0.0
H1146 H 0.27524 0.79072 0.26547 0.0
H1147 H 0.31605 0.79124 0.20743 0.0
C1148 C 0.20253 0.75904 0.35166 0.0
C1149 C 0.20135 0.74424 0.38796 0.0
C1150 C 0.22612 0.75956 0.31907 0.0
C1151 C 0.24967 0.74548 0.32159 0.0
C1152 C 0.24814 0.7299 0.35774 0.0
C1153 C 0.22422 0.72924 0.39051 0.0
C1154 C 0.31318 0.72339 0.24573 0.0
C1155 C 0.32317 0.7479 0.21935 0.0
C1156 C 0.28968 0.72274 0.27842 0.0
C1157 C 0.27529 0.74674 0.28648 0.0
C1158 C 0.28534 0.77151 0.26018 0.0
C1159 C 0.3089 0.77202 0.22692 0.0
H1160 H 0.46336 0.06822 0.53885 0.0
H1161 H 0.54135 0.05206 0.4572 0.0
H1162 H 0.45998 0.02288 0.57493 0.0
H1163 H 0.53877 0.00654 0.49477 0.0
H1164 H 0.51197 0.91363 0.54395 0.0
H1165 H 0.51286 0.95873 0.5077 0.0
H1166 H 0.47776 0.99654 0.61913 0.0
H1167 H 0.47597 0.95067 0.65496 0.0
C1168 C 0.48013 0.05508 0.52877 0.0
C1169 C 0.50253 0.06383 0.4947 0.0
C1170 C 0.47826 0.02894 0.54988 0.0
C1171 C 0.4989 0.01052 0.53804 0.0
C1172 C 0.52198 0.01968 0.50454 0.0
C1173 C 0.52375 0.04599 0.4831 0.0
C1174 C 0.50356 0.93134 0.56049 0.0
C1175 C 0.49334 0.92835 0.60222 0.0
C1176 C 0.50466 0.95752 0.53978 0.0
C1177 C 0.49596 0.98186 0.5602 0.0
C1178 C 0.48449 0.97841 0.60197 0.0
C1179 C 0.48313 0.95196 0.62269 0.0
H1180 H 0.31809 0.28209 0.86051 0.0
H1181 H 0.32626 0.20504 0.79227 0.0
H1182 H 0.27401 0.28671 0.83727 0.0
H1183 H 0.28048 0.20761 0.77216 0.0
H1184 H 0.21012 0.23232 0.71291 0.0
H1185 H 0.25632 0.22957 0.73242 0.0
H1186 H 0.22536 0.26933 0.84424 0.0
H1187 H 0.18047 0.27386 0.82306 0.0
C1188 C 0.31052 0.26619 0.84037 0.0
C1189 C 0.32612 0.24366 0.82751 0.0
C1190 C 0.28473 0.2684 0.82761 0.0
C1191 C 0.2732 0.24748 0.80269 0.0
C1192 C 0.2887 0.22459 0.7905 0.0
C1193 C 0.3149 0.22287 0.80245 0.0
C1194 C 0.21343 0.24053 0.74154 0.0
C1195 C 0.19184 0.25342 0.7664 0.0
C1196 C 0.23984 0.23878 0.75302 0.0
C1197 C 0.24503 0.24933 0.79006 0.0
C1198 C 0.2229 0.26169 0.81507 0.0
C1199 C 0.1969 0.26407 0.80313 0.0
H1200 H 0.71776 0.22046 0.91328 0.0
H1201 H 0.67873 0.27331 0.8438 0.0
H1202 H 0.75977 0.22224 0.8572 0.0
H1203 H 0.71957 0.27402 0.78723 0.0
H1204 H 0.80802 0.28925 0.69772 0.0
H1205 H 0.76808 0.29121 0.75633 0.0
H1206 H 0.77643 0.20559 0.79544 0.0
H1207 H 0.8167 0.20477 0.73983 0.0
C1208 C 0.71794 0.23205 0.88582 0.0
C1209 C 0.69484 0.24667 0.88315 0.0
C1210 C 0.74205 0.2331 0.85335 0.0
C1211 C 0.7435 0.24837 0.81697 0.0
C1212 C 0.71998 0.26258 0.81453 0.0
C1213 C 0.69623 0.26188 0.84706 0.0
C1214 C 0.80151 0.27121 0.71934 0.0
C1215 C 0.81599 0.24712 0.71403 0.0
C1216 C 0.77832 0.27204 0.75284 0.0
C1217 C 0.76876 0.24857 0.78148 0.0
C1218 C 0.78323 0.22452 0.77536 0.0
C1219 C 0.8064 0.22394 0.74267 0.0
H1220 H 0.84661 0.73369 0.25567 0.0
H1221 H 0.81547 0.77256 0.3674 0.0
H1222 H 0.80181 0.73879 0.234 0.0
H1223 H 0.76976 0.7759 0.3475 0.0
H1224 H 0.69762 0.79864 0.29381 0.0
H1225 H 0.7451 0.798 0.30949 0.0
H1226 H 0.75303 0.72084 0.24038 0.0
H1227 H 0.7067 0.72347 0.22166 0.0
C1228 C 0.82999 0.74323 0.27565 0.0
C1229 C 0.83451 0.75287 0.31308 0.0
C1230 C 0.80409 0.74591 0.26347 0.0
C1231 C 0.78163 0.75759 0.28893 0.0
C1232 C 0.78647 0.76732 0.32646 0.0
C1233 C 0.81267 0.76525 0.33816 0.0
C1234 C 0.70961 0.78162 0.28179 0.0
C1235 C 0.698 0.76068 0.25723 0.0
C1236 C 0.73685 0.78102 0.29116 0.0
C1237 C 0.75314 0.75907 0.27695 0.0
C1238 C 0.74157 0.73832 0.25181 0.0
C1239 C 0.71459 0.73941 0.24161 0.0
H1240 H 0.55333 0.52683 0.62378 0.0
H1241 H 0.47457 0.55897 0.61583 0.0
H1242 H 0.54545 0.49216 0.57242 0.0
H1243 H 0.46525 0.52289 0.56621 0.0
H1244 H 0.46774 0.47036 0.4534 0.0
H1245 H 0.47702 0.5074 0.5017 0.0
H1246 H 0.51877 0.4491 0.55956 0.0
H1247 H 0.51113 0.41331 0.50947 0.0
C1248 C 0.53411 0.52622 0.61123 0.0
C1249 C 0.51452 0.54551 0.62389 0.0
C1250 C 0.52935 0.50608 0.58194 0.0
C1251 C 0.50442 0.50414 0.56509 0.0
C1252 C 0.48491 0.52375 0.57778 0.0
C1253 C 0.49007 0.54437 0.60652 0.0
C1254 C 0.47902 0.46562 0.47642 0.0
C1255 C 0.48885 0.43893 0.47759 0.0
C1256 C 0.48417 0.4868 0.50445 0.0
C1257 C 0.49881 0.48161 0.53491 0.0
C1258 C 0.50812 0.45452 0.53622 0.0
C1259 C 0.50349 0.43369 0.5077 0.0
H1260 H 0.05547 0.55763 0.96832 0.0
H1261 H 0.96605 0.55841 1.02886 0.0
H1262 H 0.05498 0.51298 1.00648 0.0
H1263 H 0.96491 0.51373 0.06495 0.0
H1264 H 0.97738 0.44592 0.15271 0.0
H1265 H 0.97866 0.49128 0.11604 0.0
H1266 H 0.03784 0.46316 1.0148 0.0
H1267 H 0.03743 0.41886 0.05218 0.0
C1268 C 0.0357 0.54819 0.98944 0.0
C1269 C 0.01087 0.5617 0.99533 0.0
C1270 C 0.03524 0.52242 1.01128 0.0
C1271 C 0.00981 0.50934 1.03922 0.0
C1272 C 0.98513 0.52307 1.04469 0.0
C1273 C 0.98574 0.5488 1.02345 0.0
C1274 C -0.00962 0.44941 0.1225 0.0
C1275 C 0.00732 0.4288 0.10548 0.0
C1276 C -0.00881 0.47547 0.10125 0.0
C1277 C 0.00866 0.48142 0.06216 0.0
C1278 C 0.02476 0.46012 1.04497 0.0
C1279 C 0.02422 0.43439 0.06633 0.0
H1280 H 0.0568 0.19299 0.43491 0.0
H1281 H 0.10377 0.12146 0.43607 0.0
H1282 H 0.06863 0.20858 0.49801 0.0
H1283 H 0.11736 0.13831 0.49796 0.0
H1284 H 0.11709 0.15959 0.62991 0.0
H1285 H 0.1056 0.14303 0.56645 0.0
H1286 H 0.10151 0.23125 0.53337 0.0
H1287 H 0.11194 0.2474 0.59733 0.0
C1288 C 0.06964 0.18034 0.44833 0.0
C1289 C 0.07894 0.15554 0.4293 0.0
C1290 C 0.077 0.18977 0.48481 0.0
C1291 C 0.09433 0.17511 0.50415 0.0
C1292 C 0.10374 0.15036 0.48509 0.0
C1293 C 0.0962 0.14079 0.44869 0.0
C1294 C 0.11411 0.17558 0.60894 0.0
C1295 C 0.11581 0.20503 0.61932 0.0
C1296 C 0.10747 0.16603 0.57206 0.0
C1297 C 0.10232 0.18549 0.54368 0.0
C1298 C 0.10462 0.21508 0.55393 0.0
C1299 C 0.11109 0.22458 0.59086 0.0
H1300 H 0.09222 0.87582 0.66799 0.0
H1301 H 0.16777 0.84237 0.68784 0.0
H1302 H 0.08389 0.89347 0.73545 0.0
H1303 H 0.15973 0.86064 0.75598 0.0
H1304 H 0.069 0.92893 0.84709 0.0
H1305 H 0.10179 0.9276 0.78214 0.0
H1306 H 0.12102 0.84523 0.8168 0.0
H1307 H 0.0895 0.84762 0.88259 0.0
C1308 C 0.10727 0.87259 0.68676 0.0
C1309 C 0.13038 0.85744 0.67295 0.0
C1310 C 0.10283 0.88313 0.72526 0.0
C1311 C 0.12137 0.87874 0.75104 0.0
C1312 C 0.14517 0.86442 0.73677 0.0
C1313 C 0.14977 0.85403 0.69787 0.0
C1314 C 0.08173 0.91152 0.84163 0.0
C1315 C 0.07642 0.88808 0.86923 0.0
C1316 C 0.1002 0.91053 0.80429 0.0
C1317 C 0.11294 0.88571 0.79382 0.0
C1318 C 0.11132 0.86455 0.82381 0.0
C1319 C 0.09331 0.86592 0.86161 0.0
H1320 H 0.39266 0.76023 0.98364 0.0
H1321 H 0.42843 0.84445 1.02062 0.0
H1322 H 0.40961 0.77701 0.91334 0.0
H1323 H 0.44585 0.86099 0.95053 0.0
H1324 H 0.49991 0.87037 0.81704 0.0
H1325 H 0.48244 0.85471 0.88787 0.0
H1326 H 0.40144 0.81048 0.862 0.0
H1327 H 0.4186 0.82639 0.79185 0.0
C1328 C 0.4039 0.78241 0.97702 0.0
C1329 C 0.40864 0.80088 1.00866 0.0
C1330 C 0.41374 0.79214 0.93635 0.0
C1331 C 0.42938 0.82058 0.92539 0.0
C1332 C 0.43422 0.83894 0.95707 0.0
C1333 C 0.42387 0.82942 0.99768 0.0
C1334 C 0.47826 0.85756 0.82641 0.0
C1335 C 0.46079 0.85009 0.79795 0.0
C1336 C 0.46811 0.84851 0.86736 0.0
C1337 C 0.44031 0.83102 0.88148 0.0
C1338 C 0.42299 0.82358 0.85291 0.0
C1339 C 0.43286 0.83307 0.81231 0.0
H1340 H 0.36675 0.12534 0.26235 0.0
H1341 H 0.45483 0.10902 0.21935 0.0
H1342 H 0.36092 0.12925 0.1932 0.0
H1343 H 0.44936 0.11354 0.15067 0.0
H1344 H 0.42831 0.10941 1.03001 0.0
H1345 H 0.42351 0.09297 0.09916 0.0
H1346 H 0.38395 0.16754 0.14076 0.0
H1347 H 0.3878 0.18338 0.07182 0.0
C1348 C 0.3846 0.12209 0.2381 0.0
C1349 C 0.41135 0.11731 0.24587 0.0
C1350 C 0.38135 0.12447 0.19869 0.0
C1351 C 0.40475 0.12187 0.16668 0.0
C1352 C 0.43086 0.11537 0.17471 0.0
C1353 C 0.43412 0.11312 0.21395 0.0
C1354 C 0.41809 0.12194 0.05398 0.0
C1355 C 0.40877 0.14784 1.04568 0.0
C1356 C 0.41546 0.11262 0.09345 0.0
C1357 C 0.40344 0.12903 0.12522 0.0
C1358 C 0.393 0.15427 0.11687 0.0
C1359 C 0.39565 0.16359 0.07744 0.0
H1360 H 0.90001 0.74931 0.49992 0.0
H1361 H 0.91547 0.83974 0.46258 0.0
H1362 H 0.90901 0.76309 0.56559 0.0
H1363 H 0.92532 0.85365 0.52778 0.0
H1364 H 0.92078 0.87398 0.65976 0.0
H1365 H 0.90904 0.85965 0.59582 0.0
H1366 H 0.9426 0.77998 0.60441 0.0
H1367 H 0.95279 0.79354 0.66927 0.0
C1368 C 0.90514 0.77223 0.50564 0.0
C1369 C 0.90657 0.79329 0.47539 0.0
C1370 C 0.91072 0.78025 0.54358 0.0
C1371 C 0.9181 0.80973 0.55305 0.0
C1372 C 0.9193 0.83075 0.52274 0.0
C1373 C 0.91367 0.82271 0.48484 0.0
C1374 C 0.92539 0.85319 0.64853 0.0
C1375 C 0.93796 0.83519 0.67074 0.0
C1376 C 0.91895 0.84503 0.61105 0.0
C1377 C 0.92477 0.81846 0.59381 0.0
C1378 C 0.93725 0.80043 0.61609 0.0
C1379 C 0.94362 0.80856 0.65357 0.0
H1380 H 0.91985 0.11251 0.43741 0.0
H1381 H 0.8456 0.14811 0.41715 0.0
H1382 H 0.92714 0.09377 0.37055 0.0
H1383 H 0.85259 0.1288 0.34959 0.0
H1384 H 0.94076 0.05739 0.25963 0.0
H1385 H 0.90802 0.05976 0.32441 0.0
H1386 H 0.89182 0.14324 0.28883 0.0
H1387 H 0.92333 0.13989 0.2233 0.0
C1388 C 0.90484 0.11595 0.41869 0.0
C1389 C 0.88245 0.13205 0.43213 0.0
C1390 C 0.90866 0.1048 0.38056 0.0
C1391 C 0.89022 0.10954 0.35482 0.0
C1392 C 0.86705 0.12474 0.36881 0.0
C1393 C 0.86306 0.13573 0.40735 0.0
C1394 C 0.92868 0.07531 0.26488 0.0
C1395 C 0.93475 0.09869 0.23708 0.0
C1396 C 0.91023 0.07686 0.30207 0.0
C1397 C 0.89834 0.10221 0.31219 0.0
C1398 C 0.90081 0.12349 0.28204 0.0
C1399 C 0.91882 0.12159 0.24442 0.0
H1400 H 0.59448 0.14685 0.07444 0.0
H1401 H 0.62446 0.23134 0.11635 0.0
H1402 H 0.57498 0.12881 0.14379 0.0
H1403 H 0.60597 0.21283 0.18591 0.0
H1404 H 0.59736 0.15469 0.30358 0.0
H1405 H 0.61678 0.17186 0.23406 0.0
H1406 H 0.53276 0.14103 0.20611 0.0
H1407 H 0.51278 0.12483 0.27641 0.0
C1408 C 0.59746 0.16155 0.09834 0.0
C1409 C 0.61154 0.19065 0.08916 0.0
C1410 C 0.58595 0.15117 0.13834 0.0
C1411 C 0.58874 0.16921 0.17093 0.0
C1412 C 0.60341 0.19813 0.16187 0.0
C1413 C 0.61415 0.20878 0.12178 0.0
C1414 C 0.58293 0.15111 0.28272 0.0
C1415 C 0.55339 0.13777 0.2962 0.0
C1416 C 0.59412 0.16133 0.24266 0.0
C1417 C 0.57652 0.15796 0.21396 0.0
C1418 C 0.54717 0.14395 0.22703 0.0
C1419 C 0.53568 0.13449 0.26751 0.0
H1420 H 0.53606 0.88981 0.87668 0.0
H1421 H 0.63054 0.90802 0.8484 0.0
H1422 H 0.53629 0.884 0.94739 0.0
H1423 H 0.63095 0.90161 0.91911 0.0
H1424 H 0.62339 0.90225 0.05193 0.0
H1425 H 0.61901 0.91908 0.98633 0.0
H1426 H 0.5491 0.84669 0.98552 0.0
H1427 H 0.55325 0.83024 0.05123 0.0
C1428 C 0.55687 0.8928 0.88579 0.0
C1429 C 0.58332 0.899 0.85726 0.0
C1430 C 0.55701 0.88939 0.92617 0.0
C1431 C 0.58362 0.89196 0.93878 0.0
C1432 C 0.61007 0.89976 0.91041 0.0
C1433 C 0.6099 0.90336 0.86994 0.0
C1434 C 0.6069 0.89018 1.03779 0.0
C1435 C 0.58881 0.86483 0.05639 0.0
C1436 C 0.60444 0.89975 1.00027 0.0
C1437 C 0.5839 0.88411 0.9806 0.0
C1438 C 0.56491 0.85948 1.00009 0.0
C1439 C 0.56728 0.84999 1.0377 0.0
H1440 H 0.5655 0.61354 0.95837 0.0
H1441 H 0.58784 0.70178 0.91041 0.0
H1442 H 0.57726 0.63022 1.02139 0.0
H1443 H 0.60121 0.71818 0.97249 0.0
H1444 H 0.60025 0.74648 0.10101 0.0
H1445 H 0.58769 0.72958 1.03855 0.0
H1446 H 0.61149 0.64651 0.05956 0.0
H1447 H 0.62312 0.66333 0.12301 0.0
C1448 C 0.57282 0.63656 0.9609 0.0
C1449 C 0.57543 0.65601 0.92813 0.0
C1450 C 0.58013 0.64622 0.99743 0.0
C1451 C 0.59051 0.67584 1.00317 0.0
C1452 C 0.59306 0.69527 0.97042 0.0
C1453 C 0.58568 0.68564 0.93397 0.0
C1454 C 0.60309 0.72463 0.09237 0.0
C1455 C 0.61312 0.70655 0.11766 0.0
C1456 C 0.5959 0.71481 0.05594 0.0
C1457 C 0.59845 0.6864 1.04274 0.0
C1458 C 0.60863 0.66835 0.06808 0.0
C1459 C 0.6157 0.67816 0.10471 0.0
H1460 H 0.58383 0.34296 0.37979 0.0
H1461 H 0.56804 0.42586 0.34228 0.0
H1462 H 0.6133 0.33773 0.31332 0.0
H1463 H 0.59865 0.42148 0.2765 0.0
H1464 H 0.65702 0.33277 0.18178 0.0
H1465 H 0.65189 0.3518 0.24948 0.0
H1466 H 0.57504 0.38528 0.23458 0.0
H1467 H 0.58032 0.36666 0.16757 0.0
C1468 C 0.58836 0.36096 0.35818 0.0
C1469 C 0.57317 0.38441 0.36544 0.0
C1470 C 0.60517 0.35794 0.32001 0.0
C1471 C 0.60726 0.37874 0.28941 0.0
C1472 C 0.59665 0.40477 0.29931 0.0
C1473 C 0.57945 0.40747 0.33707 0.0
C1474 C 0.63934 0.34461 0.19298 0.0
C1475 C 0.61889 0.3481 0.16973 0.0
C1476 C 0.63645 0.35547 0.23156 0.0
C1477 C 0.61339 0.37041 0.24706 0.0
C1478 C 0.5935 0.3745 0.22318 0.0
C1479 C 0.59618 0.36342 0.18503 0.0
H1480 H 0.00062 0.36421 0.32008 0.0
H1481 H 0.91546 0.33444 0.29481 0.0
H1482 H 0.98162 0.34745 0.39028 0.0
H1483 H 0.8969 0.31686 0.36431 0.0
H1484 H 0.88792 0.25748 0.48109 0.0
H1485 H 0.9058 0.27639 0.41165 0.0
H1486 H 0.9426 0.35823 0.45407 0.0
H1487 H 0.92385 0.3398 0.52336 0.0
C1488 C 0.97779 0.3544 0.32936 0.0
C1489 C 0.95968 0.35126 0.30115 0.0
C1490 C 0.96684 0.34464 0.36985 0.0
C1491 C 0.93756 0.33053 0.38353 0.0
C1492 C 0.91953 0.32739 0.35531 0.0
C1493 C 0.93022 0.33785 0.31523 0.0
C1494 C 0.89945 0.27966 0.47577 0.0
C1495 C 0.90388 0.29706 0.50851 0.0
C1496 C 0.90981 0.29056 0.43571 0.0
C1497 C 0.92587 0.31899 0.42665 0.0
C1498 C 0.93053 0.33626 0.45939 0.0
C1499 C 0.91945 0.32567 0.4994 0.0
H1500 H 0.94377 0.60039 0.73337 0.0
H1501 H 0.88477 0.66125 0.77067 0.0
H1502 H 0.94113 0.60817 0.66405 0.0
H1503 H 0.88154 0.66867 0.70119 0.0
H1504 H 0.91261 0.70127 0.57121 0.0
H1505 H 0.9131 0.69152 0.64079 0.0
H1506 H 0.90899 0.59991 0.61791 0.0
H1507 H 0.91024 0.6099 0.54768 0.0
C1508 C 0.92974 0.61498 0.72672 0.0
C1509 C 0.91441 0.6302 0.7572 0.0
C1510 C 0.92822 0.61944 0.68706 0.0
C1511 C 0.91118 0.63908 0.67718 0.0
C1512 C 0.89524 0.65376 0.70787 0.0
C1513 C 0.89695 0.64945 0.74755 0.0
C1514 C 0.91228 0.67911 0.58088 0.0
C1515 C 0.91157 0.65636 0.55393 0.0
C1516 C 0.91206 0.67346 0.6209 0.0
C1517 C 0.91089 0.64493 0.63485 0.0
C1518 C 0.91014 0.62216 0.60793 0.0
C1519 C 0.91057 0.62784 0.56782 0.0
H1520 H 0.41023 0.37439 0.16113 0.0
H1521 H 0.45391 0.30034 0.16113 0.0
H1522 H 0.39809 0.36018 0.09729 0.0
H1523 H 0.44348 0.28729 0.09646 0.0
H1524 H 0.40126 0.25267 0.99491 0.0
H1525 H 0.41035 0.26699 0.05998 0.0
H1526 H 0.41173 0.35675 1.02803 0.0
H1527 H 0.40171 0.342 0.96289 0.0
C1528 C 0.41736 0.35505 0.14784 0.0
C1529 C 0.43326 0.33876 0.16743 0.0
C1530 C 0.41066 0.34702 0.11041 0.0
C1531 C 0.41955 0.32232 0.09063 0.0
C1532 C 0.43554 0.30615 0.11018 0.0
C1533 C 0.44209 0.31407 0.1476 0.0
C1534 C 0.40326 0.27551 1.00163 0.0
C1535 C 0.40055 0.29601 0.97296 0.0
C1536 C 0.40886 0.28391 1.03932 0.0
C1537 C 0.41229 0.31333 0.05024 0.0
C1538 C 0.40901 0.33384 1.02175 0.0
C1539 C 0.40321 0.32535 0.98397 0.0
H1540 H 0.35215 0.61828 0.93785 0.0
H1541 H 0.39675 0.70513 0.89816 0.0
H1542 H 0.35905 0.60351 0.86891 0.0
H1543 H 0.40574 0.6897 0.82959 0.0
H1544 H 0.43239 0.65957 0.71112 0.0
H1545 H 0.39535 0.67082 0.76801 0.0
H1546 H 0.40418 0.59401 0.83187 0.0
H1547 H 0.44024 0.5829 0.77532 0.0
C1548 C 0.36284 0.63447 0.91447 0.0
C1549 C 0.3748 0.66268 0.92373 0.0
C1550 C 0.36698 0.62589 0.87484 0.0
C1551 C 0.38371 0.64511 0.84374 0.0
C1552 C 0.39282 0.67419 0.85264 0.0
C1553 C 0.38824 0.68292 0.8922 0.0
C1554 C 0.42523 0.6445 0.7367 0.0
C1555 C 0.43935 0.62069 0.73943 0.0
C1556 C 0.40427 0.65103 0.76939 0.0
C1557 C 0.39725 0.63373 0.80493 0.0
C1558 C 0.4088 0.60788 0.80518 0.0
C1559 C 0.42972 0.60152 0.7728 0.0
H1560 H 0.09598 0.65187 0.5777 0.0
H1561 H 0.13013 0.73437 0.62139 0.0
H1562 H 0.07718 0.63283 0.64664 0.0
H1563 H 0.11225 0.71478 0.69059 0.0
H1564 H 0.10397 0.65309 0.80502 0.0
H1565 H 0.12255 0.67166 0.73595 0.0
H1566 H 0.03692 0.64523 0.71082 0.0
H1567 H 0.01784 0.62765 0.78071 0.0
C1568 C 0.09997 0.66592 0.6019 0.0
C1569 C 0.11503 0.69475 0.59336 0.0
C1570 C 0.08888 0.65496 0.64167 0.0
C1571 C 0.09307 0.6721 0.67463 0.0
C1572 C 0.10863 0.70077 0.6662 0.0
C1573 C 0.11897 0.71204 0.62635 0.0
C1574 C 0.08901 0.65076 0.78484 0.0
C1575 C 0.05928 0.63826 0.79898 0.0
C1576 C 0.09972 0.66181 0.74509 0.0
C1577 C 0.0814 0.66011 0.71736 0.0
C1578 C 0.05185 0.64689 0.73102 0.0
C1579 C 0.04088 0.63661 0.77124 0.0
H1580 H 0.13646 0.3783 0.34734 0.0
H1581 H 0.04433 0.3835 0.37567 0.0
H1582 H 0.13725 0.37941 0.41842 0.0
H1583 H 0.04513 0.38523 0.44668 0.0
H1584 H 0.05221 0.33535 0.56106 0.0
H1585 H 0.0495 0.34803 0.49328 0.0
H1586 H 0.1319 0.40701 0.47945 0.0
H1587 H 0.1347 0.39396 0.54745 0.0
C1588 C 0.11659 0.38032 0.36881 0.0
C1589 C 0.09026 0.38033 0.3564 0.0
C1590 C 0.11702 0.38113 0.40941 0.0
C1591 C 0.09117 0.3822 0.43806 0.0
C1592 C 0.06524 0.38391 0.42528 0.0
C1593 C 0.06477 0.38289 0.38478 0.0
C1594 C 0.06932 0.35159 0.54391 0.0
C1595 C 0.09379 0.36347 0.55917 0.0
C1596 C 0.06778 0.35892 0.50511 0.0
C1597 C 0.09065 0.37834 0.481 0.0
C1598 C 0.11424 0.39161 0.4972 0.0
C1599 C 0.11581 0.3842 0.536 0.0
loop_
_geom_bond_atom_site_label_1
_geom_bond_atom_site_label_2
_geom_bond_distance
_geom_bond_site_symmetry_2
_ccdc_geom_bond_type
Gd0 C3 2.818 . S
Gd0 O20 2.377 . S
Gd0 O22 2.448 . S
Gd0 O23 2.506 . S
Gd0 O24 2.435 . S
Gd0 O25 2.717 . S
Gd0 O27 2.395 . S
Gd0 O31 2.327 . S
Gd1 C12 2.818 . S
Gd1 O21 2.395 . S
Gd1 O25 2.327 1_655 S
Gd1 O26 2.377 1_655 S
Gd1 O28 2.448 . S
Gd1 O29 2.506 . S
Gd1 O30 2.435 1_655 S
Gd1 O31 2.717 1_655 S
C2 O20 1.240 1_655 S
C2 O21 1.240 . S
C3 Gd0 2.818 . S
C3 C4 1.510 . S
C3 O22 1.249 . S
C3 O23 1.252 . S
C4 C3 1.510 . S
C4 C5 1.404 . S
C4 C6 1.352 . S
C5 C4 1.404 . S
C5 C9 1.389 . S
C5 H32 0.930 . S
C6 C4 1.352 . S
C6 C8 1.374 . S
C6 H33 0.931 . S
C7 C8 1.359 . S
C7 C9 1.364 . S
C8 C6 1.374 . S
C8 C7 1.359 . S
C8 H34 0.931 . S
C9 C5 1.389 . S
C9 C7 1.364 . S
C9 H35 0.931 . S
C10 O24 1.256 . S
C10 O25 1.257 . S
C11 O26 1.240 . S
C11 O27 1.240 . S
C12 Gd1 2.818 . S
C12 C13 1.510 1_554 S
C12 O28 1.249 . S
C12 O29 1.252 . S
C13 C12 1.510 1_556 S
C13 C14 1.404 . S
C13 C15 1.352 . S
C14 C13 1.404 . S
C14 C18 1.389 . S
C14 H36 0.930 . S
C15 C13 1.352 . S
C15 C17 1.374 . S
C15 H37 0.931 . S
C16 C17 1.359 . S
C16 C18 1.364 . S
C17 C15 1.374 . S
C17 C16 1.359 . S
C17 H38 0.931 . S
C18 C14 1.389 . S
C18 C16 1.364 . S
C18 H39 0.931 . S
C19 O30 1.256 . S
C19 O31 1.257 . S
O20 Gd0 2.377 . S
O20 C2 1.240 1_455 S
O21 Gd1 2.395 . S
O21 C2 1.240 . S
O22 Gd0 2.448 . S
O22 C3 1.249 . S
O23 Gd0 2.506 . S
O23 C3 1.252 . S
O24 Gd0 2.435 . S
O24 C10 1.256 . S
O25 Gd0 2.717 . S
O25 Gd1 2.327 1_455 S
O25 C10 1.257 . S
O26 Gd1 2.377 1_455 S
O26 C11 1.240 . S
O27 Gd0 2.395 . S
O27 C11 1.240 . S
O28 Gd1 2.448 . S
O28 C12 1.249 . S
O29 Gd1 2.506 . S
O29 C12 1.252 . S
O30 Gd1 2.435 1_455 S
O30 C19 1.256 . S
O31 Gd0 2.327 . S
O31 Gd1 2.717 1_455 S
O31 C19 1.257 . S
H32 C5 0.930 . S
H33 C6 0.931 . S
H34 C8 0.931 . S
H35 C9 0.931 . S
H36 C14 0.930 . S
H37 C15 0.931 . S
H38 C17 0.931 . S
H39 C18 0.931 . S
Gd40 C43 2.818 . S
Gd40 O60 2.377 . S
Gd40 O62 2.448 . S
Gd40 O63 2.506 . S
Gd40 O64 2.435 . S
Gd40 O65 2.717 . S
Gd40 O67 2.395 . S
Gd40 O71 2.327 . S
Gd41 C52 2.818 . S
Gd41 O61 2.395 . S
Gd41 O65 2.327 . S
Gd41 O66 2.377 . S
Gd41 O68 2.448 . S
Gd41 O69 2.506 . S
Gd41 O70 2.435 . S
Gd41 O71 2.717 . S
C42 O60 1.240 . S
C42 O61 1.240 . S
C43 Gd40 2.818 . S
C43 C44 1.510 . S
C43 O62 1.249 . S
C43 O63 1.252 . S
C44 C43 1.510 . S
C44 C45 1.404 . S
C44 C46 1.352 . S
C45 C44 1.404 . S
C45 C49 1.389 . S
C45 H72 0.930 . S
C46 C44 1.352 . S
C46 C48 1.374 . S
C46 H73 0.931 . S
C47 C48 1.359 . S
C47 C49 1.364 . S
C48 C46 1.374 . S
C48 C47 1.359 . S
C48 H74 0.931 . S
C49 C45 1.389 . S
C49 C47 1.364 . S
C49 H75 0.931 . S
C50 O64 1.256 . S
C50 O65 1.257 . S
C51 O66 1.240 . S
C51 O67 1.240 . S
C52 Gd41 2.818 . S
C52 C53 1.510 . S
C52 O68 1.249 . S
C52 O69 1.252 . S
C53 C52 1.510 . S
C53 C54 1.404 . S
C53 C55 1.352 . S
C54 C53 1.404 . S
C54 C58 1.389 . S
C54 H76 0.930 . S
C55 C53 1.352 . S
C55 C57 1.374 . S
C55 H77 0.931 . S
C56 C57 1.359 . S
C56 C58 1.364 . S
C57 C55 1.374 . S
C57 C56 1.359 . S
C57 H78 0.931 . S
C58 C54 1.389 . S
C58 C56 1.364 . S
C58 H79 0.931 . S
C59 O70 1.256 . S
C59 O71 1.257 . S
O60 Gd40 2.377 . S
O60 C42 1.240 . S
O61 Gd41 2.395 . S
O61 C42 1.240 . S
O62 Gd40 2.448 . S
O62 C43 1.249 . S
O63 Gd40 2.506 . S
O63 C43 1.252 . S
O64 Gd40 2.435 . S
O64 C50 1.256 . S
O65 Gd40 2.717 . S
O65 Gd41 2.327 . S
O65 C50 1.257 . S
O66 Gd41 2.377 . S
O66 C51 1.240 . S
O67 Gd40 2.395 . S
O67 C51 1.240 . S
O68 Gd41 2.448 . S
O68 C52 1.249 . S
O69 Gd41 2.506 . S
O69 C52 1.252 . S
O70 Gd41 2.435 . S
O70 C59 1.256 . S
O71 Gd40 2.327 . S
O71 Gd41 2.717 . S
O71 C59 1.257 . S
H72 C45 0.930 . S
H73 C46 0.931 . S
H74 C48 0.931 . S
H75 C49 0.931 . S
H76 C54 0.930 . S
H77 C55 0.931 . S
H78 C57 0.931 . S
H79 C58 0.931 . S
Gd80 C83 2.818 . S
Gd80 O100 2.377 . S
Gd80 O102 2.448 . S
Gd80 O103 2.506 . S
Gd80 O104 2.435 . S
Gd80 O105 2.717 . S
Gd80 O107 2.395 . S
Gd80 O111 2.327 . S
Gd81 C92 2.818 . S
Gd81 O101 2.395 . S
Gd81 O105 2.327 . S
Gd81 O106 2.377 . S
Gd81 O108 2.448 . S
Gd81 O109 2.506 . S
Gd81 O110 2.435 . S
Gd81 O111 2.717 . S
C82 O100 1.240 . S
C82 O101 1.240 . S
C83 Gd80 2.818 . S
C83 C84 1.510 . S
C83 O102 1.249 . S
C83 O103 1.252 . S
C84 C83 1.510 . S
C84 C85 1.404 . S
C84 C86 1.352 . S
C85 C84 1.404 . S
C85 C89 1.389 . S
C85 H112 0.930 . S
C86 C84 1.352 . S
C86 C88 1.374 . S
C86 H113 0.931 . S
C87 C88 1.359 . S
C87 C89 1.364 . S
C88 C86 1.374 . S
C88 C87 1.359 . S
C88 H114 0.931 . S
C89 C85 1.389 . S
C89 C87 1.364 . S
C89 H115 0.931 . S
C90 O104 1.256 . S
C90 O105 1.257 . S
C91 O106 1.240 . S
C91 O107 1.240 . S
C92 Gd81 2.818 . S
C92 C93 1.510 . S
C92 O108 1.249 . S
C92 O109 1.252 . S
C93 C92 1.510 . S
C93 C94 1.404 . S
C93 C95 1.352 . S
C94 C93 1.404 . S
C94 C98 1.389 . S
C94 H116 0.930 . S
C95 C93 1.352 . S
C95 C97 1.374 . S
C95 H117 0.931 . S
C96 C97 1.359 . S
C96 C98 1.364 . S
C97 C95 1.374 . S
C97 C96 1.359 . S
C97 H118 0.931 . S
C98 C94 1.389 . S
C98 C96 1.364 . S
C98 H119 0.931 . S
C99 O110 1.256 . S
C99 O111 1.257 . S
O100 Gd80 2.377 . S
O100 C82 1.240 . S
O101 Gd81 2.395 . S
O101 C82 1.240 . S
O102 Gd80 2.448 . S
O102 C83 1.249 . S
O103 Gd80 2.506 . S
O103 C83 1.252 . S
O104 Gd80 2.435 . S
O104 C90 1.256 . S
O105 Gd80 2.717 . S
O105 Gd81 2.327 . S
O105 C90 1.257 . S
O106 Gd81 2.377 . S
O106 C91 1.240 . S
O107 Gd80 2.395 . S
O107 C91 1.240 . S
O108 Gd81 2.448 . S
O108 C92 1.249 . S
O109 Gd81 2.506 . S
O109 C92 1.252 . S
O110 Gd81 2.435 . S
O110 C99 1.256 . S
O111 Gd80 2.327 . S
O111 Gd81 2.717 . S
O111 C99 1.257 . S
H112 C85 0.930 . S
H113 C86 0.931 . S
H114 C88 0.931 . S
H115 C89 0.931 . S
H116 C94 0.930 . S
H117 C95 0.931 . S
H118 C97 0.931 . S
H119 C98 0.931 . S
Gd120 C123 2.818 . S
Gd120 O140 2.377 . S
Gd120 O142 2.448 . S
Gd120 O143 2.506 . S
Gd120 O144 2.435 . S
Gd120 O145 2.717 . S
Gd120 O147 2.395 . S
Gd120 O151 2.327 . S
Gd121 C132 2.818 . S
Gd121 O141 2.395 . S
Gd121 O145 2.327 . S
Gd121 O146 2.377 . S
Gd121 O148 2.448 . S
Gd121 O149 2.506 . S
Gd121 O150 2.435 . S
Gd121 O151 2.717 . S
C122 O140 1.240 . S
C122 O141 1.240 . S
C123 Gd120 2.818 . S
C123 C124 1.510 . S
C123 O142 1.249 . S
C123 O143 1.252 . S
C124 C123 1.510 . S
C124 C125 1.404 . S
C124 C126 1.352 . S
C125 C124 1.404 . S
C125 C129 1.389 1_556 S
C125 H152 0.930 . S
C126 C124 1.352 . S
C126 C128 1.374 1_556 S
C126 H153 0.931 . S
C127 C128 1.359 . S
C127 C129 1.364 . S
C128 C126 1.374 1_554 S
C128 C127 1.359 . S
C128 H154 0.931 . S
C129 C125 1.389 1_554 S
C129 C127 1.364 . S
C129 H155 0.931 . S
C130 O144 1.256 . S
C130 O145 1.257 . S
C131 O146 1.240 . S
C131 O147 1.240 . S
C132 Gd121 2.818 . S
C132 C133 1.510 . S
C132 O148 1.249 . S
C132 O149 1.252 . S
C133 C132 1.510 . S
C133 C134 1.404 . S
C133 C135 1.352 . S
C134 C133 1.404 . S
C134 C138 1.389 . S
C134 H156 0.930 . S
C135 C133 1.352 . S
C135 C137 1.374 . S
C135 H157 0.931 . S
C136 C137 1.359 . S
C136 C138 1.364 . S
C137 C135 1.374 . S
C137 C136 1.359 . S
C137 H158 0.931 . S
C138 C134 1.389 . S
C138 C136 1.364 . S
C138 H159 0.931 . S
C139 O150 1.256 . S
C139 O151 1.257 . S
O140 Gd120 2.377 . S
O140 C122 1.240 . S
O141 Gd121 2.395 . S
O141 C122 1.240 . S
O142 Gd120 2.448 . S
O142 C123 1.249 . S
O143 Gd120 2.506 . S
O143 C123 1.252 . S
O144 Gd120 2.435 . S
O144 C130 1.256 . S
O145 Gd120 2.717 . S
O145 Gd121 2.327 . S
O145 C130 1.257 . S
O146 Gd121 2.377 . S
O146 C131 1.240 . S
O147 Gd120 2.395 . S
O147 C131 1.240 . S
O148 Gd121 2.448 . S
O148 C132 1.249 . S
O149 Gd121 2.506 . S
O149 C132 1.252 . S
O150 Gd121 2.435 . S
O150 C139 1.256 . S
O151 Gd120 2.327 . S
O151 Gd121 2.717 . S
O151 C139 1.257 . S
H152 C125 0.930 . S
H153 C126 0.931 . S
H154 C128 0.931 . S
H155 C129 0.931 . S
H156 C134 0.930 . S
H157 C135 0.931 . S
H158 C137 0.931 . S
H159 C138 0.931 . S
Gd160 C163 2.818 . S
Gd160 O180 2.377 . S
Gd160 O182 2.448 . S
Gd160 O183 2.506 . S
Gd160 O184 2.435 . S
Gd160 O185 2.717 . S
Gd160 O187 2.395 . S
Gd160 O191 2.327 . S
Gd161 C172 2.818 . S
Gd161 O181 2.395 . S
Gd161 O185 2.327 1_655 S
Gd161 O186 2.377 1_655 S
Gd161 O188 2.448 . S
Gd161 O189 2.506 . S
Gd161 O190 2.435 . S
Gd161 O191 2.717 1_655 S
C162 O180 1.240 1_655 S
C162 O181 1.240 . S
C163 Gd160 2.818 . S
C163 C164 1.510 1_556 S
C163 O182 1.249 . S
C163 O183 1.252 . S
C164 C163 1.510 1_554 S
C164 C165 1.404 . S
C164 C166 1.352 . S
C165 C164 1.404 . S
C165 C169 1.389 . S
C165 H192 0.930 . S
C166 C164 1.352 . S
C166 C168 1.374 . S
C166 H193 0.931 . S
C167 C168 1.359 . S
C167 C169 1.364 . S
C168 C166 1.374 . S
C168 C167 1.359 . S
C168 H194 0.931 . S
C169 C165 1.389 . S
C169 C167 1.364 . S
C169 H195 0.931 . S
C170 O184 1.256 . S
C170 O185 1.257 . S
C171 O186 1.240 . S
C171 O187 1.240 . S
C172 Gd161 2.818 . S
C172 C173 1.510 . S
C172 O188 1.249 . S
C172 O189 1.252 . S
C173 C172 1.510 . S
C173 C174 1.404 . S
C173 C175 1.352 . S
C174 C173 1.404 . S
C174 C178 1.389 . S
C174 H196 0.930 . S
C175 C173 1.352 . S
C175 C177 1.374 . S
C175 H197 0.931 . S
C176 C177 1.359 . S
C176 C178 1.364 . S
C177 C175 1.374 . S
C177 C176 1.359 . S
C177 H198 0.931 . S
C178 C174 1.389 . S
C178 C176 1.364 . S
C178 H199 0.931 . S
C179 O190 1.256 1_455 S
C179 O191 1.257 . S
O180 Gd160 2.377 . S
O180 C162 1.240 1_455 S
O181 Gd161 2.395 . S
O181 C162 1.240 . S
O182 Gd160 2.448 . S
O182 C163 1.249 . S
O183 Gd160 2.506 . S
O183 C163 1.252 . S
O184 Gd160 2.435 . S
O184 C170 1.256 . S
O185 Gd160 2.717 . S
O185 Gd161 2.327 1_455 S
O185 C170 1.257 . S
O186 Gd161 2.377 1_455 S
O186 C171 1.240 . S
O187 Gd160 2.395 . S
O187 C171 1.240 . S
O188 Gd161 2.448 . S
O188 C172 1.249 . S
O189 Gd161 2.506 . S
O189 C172 1.252 . S
O190 Gd161 2.435 . S
O190 C179 1.256 1_655 S
O191 Gd160 2.327 . S
O191 Gd161 2.717 1_455 S
O191 C179 1.257 . S
H192 C165 0.930 . S
H193 C166 0.931 . S
H194 C168 0.931 . S
H195 C169 0.931 . S
H196 C174 0.930 . S
H197 C175 0.931 . S
H198 C177 0.931 . S
H199 C178 0.931 . S
Gd200 C203 2.818 . S
Gd200 O220 2.377 . S
Gd200 O222 2.448 . S
Gd200 O223 2.506 . S
Gd200 O224 2.435 . S
Gd200 O225 2.717 . S
Gd200 O227 2.395 . S
Gd200 O231 2.327 . S
Gd201 C212 2.818 . S
Gd201 O221 2.395 . S
Gd201 O225 2.327 . S
Gd201 O226 2.377 . S
Gd201 O228 2.448 . S
Gd201 O229 2.506 . S
Gd201 O230 2.435 . S
Gd201 O231 2.717 . S
C202 O220 1.240 . S
C202 O221 1.240 . S
C203 Gd200 2.818 . S
C203 C204 1.510 . S
C203 O222 1.249 . S
C203 O223 1.252 . S
C204 C203 1.510 . S
C204 C205 1.404 . S
C204 C206 1.352 . S
C205 C204 1.404 . S
C205 C209 1.389 . S
C205 H232 0.930 . S
C206 C204 1.352 . S
C206 C208 1.374 . S
C206 H233 0.931 . S
C207 C208 1.359 . S
C207 C209 1.364 . S
C208 C206 1.374 . S
C208 C207 1.359 . S
C208 H234 0.931 . S
C209 C205 1.389 . S
C209 C207 1.364 . S
C209 H235 0.931 . S
C210 O224 1.256 . S
C210 O225 1.257 . S
C211 O226 1.240 . S
C211 O227 1.240 . S
C212 Gd201 2.818 . S
C212 C213 1.510 1_554 S
C212 O228 1.249 . S
C212 O229 1.252 . S
C213 C212 1.510 1_556 S
C213 C214 1.404 . S
C213 C215 1.352 . S
C214 C213 1.404 . S
C214 C218 1.389 . S
C214 H236 0.930 . S
C215 C213 1.352 . S
C215 C217 1.374 . S
C215 H237 0.931 . S
C216 C217 1.359 . S
C216 C218 1.364 . S
C217 C215 1.374 . S
C217 C216 1.359 . S
C217 H238 0.931 . S
C218 C214 1.389 . S
C218 C216 1.364 . S
C218 H239 0.931 . S
C219 O230 1.256 . S
C219 O231 1.257 . S
O220 Gd200 2.377 . S
O220 C202 1.240 . S
O221 Gd201 2.395 . S
O221 C202 1.240 . S
O222 Gd200 2.448 . S
O222 C203 1.249 . S
O223 Gd200 2.506 . S
O223 C203 1.252 . S
O224 Gd200 2.435 . S
O224 C210 1.256 . S
O225 Gd200 2.717 . S
O225 Gd201 2.327 . S
O225 C210 1.257 . S
O226 Gd201 2.377 . S
O226 C211 1.240 . S
O227 Gd200 2.395 . S
O227 C211 1.240 . S
O228 Gd201 2.448 . S
O228 C212 1.249 . S
O229 Gd201 2.506 . S
O229 C212 1.252 . S
O230 Gd201 2.435 . S
O230 C219 1.256 . S
O231 Gd200 2.327 . S
O231 Gd201 2.717 . S
O231 C219 1.257 . S
H232 C205 0.930 . S
H233 C206 0.931 . S
H234 C208 0.931 . S
H235 C209 0.931 . S
H236 C214 0.930 . S
H237 C215 0.931 . S
H238 C217 0.931 . S
H239 C218 0.931 . S
Gd240 C243 2.818 . S
Gd240 O260 2.377 . S
Gd240 O262 2.448 . S
Gd240 O263 2.506 . S
Gd240 O264 2.435 . S
Gd240 O265 2.717 . S
Gd240 O267 2.395 . S
Gd240 O271 2.327 . S
Gd241 C252 2.818 . S
Gd241 O261 2.395 . S
Gd241 O265 2.327 . S
Gd241 O266 2.377 . S
Gd241 O268 2.448 . S
Gd241 O269 2.506 . S
Gd241 O270 2.435 . S
Gd241 O271 2.717 . S
C242 O260 1.240 . S
C242 O261 1.240 . S
C243 Gd240 2.818 . S
C243 C244 1.510 . S
C243 O262 1.249 . S
C243 O263 1.252 . S
C244 C243 1.510 . S
C244 C245 1.404 . S
C244 C246 1.352 . S
C245 C244 1.404 . S
C245 C249 1.389 . S
C245 H272 0.930 . S
C246 C244 1.352 . S
C246 C248 1.374 . S
C246 H273 0.931 . S
C247 C248 1.359 . S
C247 C249 1.364 . S
C248 C246 1.374 . S
C248 C247 1.359 . S
C248 H274 0.931 . S
C249 C245 1.389 . S
C249 C247 1.364 . S
C249 H275 0.931 . S
C250 O264 1.256 . S
C250 O265 1.257 . S
C251 O266 1.240 . S
C251 O267 1.240 . S
C252 Gd241 2.818 . S
C252 C253 1.510 . S
C252 O268 1.249 . S
C252 O269 1.252 . S
C253 C252 1.510 . S
C253 C254 1.404 . S
C253 C255 1.352 . S
C254 C253 1.404 . S
C254 C258 1.389 . S
C254 H276 0.930 . S
C255 C253 1.352 . S
C255 C257 1.374 . S
C255 H277 0.931 . S
C256 C257 1.359 . S
C256 C258 1.364 . S
C257 C255 1.374 . S
C257 C256 1.359 . S
C257 H278 0.931 . S
C258 C254 1.389 . S
C258 C256 1.364 . S
C258 H279 0.931 . S
C259 O270 1.256 . S
C259 O271 1.257 . S
O260 Gd240 2.377 . S
O260 C242 1.240 . S
O261 Gd241 2.395 . S
O261 C242 1.240 . S
O262 Gd240 2.448 . S
O262 C243 1.249 . S
O263 Gd240 2.506 . S
O263 C243 1.252 . S
O264 Gd240 2.435 . S
O264 C250 1.256 . S
O265 Gd240 2.717 . S
O265 Gd241 2.327 . S
O265 C250 1.257 . S
O266 Gd241 2.377 . S
O266 C251 1.240 . S
O267 Gd240 2.395 . S
O267 C251 1.240 . S
O268 Gd241 2.448 . S
O268 C252 1.249 . S
O269 Gd241 2.506 . S
O269 C252 1.252 . S
O270 Gd241 2.435 . S
O270 C259 1.256 . S
O271 Gd240 2.327 . S
O271 Gd241 2.717 . S
O271 C259 1.257 . S
H272 C245 0.930 . S
H273 C246 0.931 . S
H274 C248 0.931 . S
H275 C249 0.931 . S
H276 C254 0.930 . S
H277 C255 0.931 . S
H278 C257 0.931 . S
H279 C258 0.931 . S
Gd280 C283 2.818 . S
Gd280 O300 2.377 . S
Gd280 O302 2.448 . S
Gd280 O303 2.506 . S
Gd280 O304 2.435 . S
Gd280 O305 2.717 . S
Gd280 O307 2.395 . S
Gd280 O311 2.327 . S
Gd281 C292 2.818 . S
Gd281 O301 2.395 . S
Gd281 O305 2.327 . S
Gd281 O306 2.377 . S
Gd281 O308 2.448 . S
Gd281 O309 2.506 . S
Gd281 O310 2.435 . S
Gd281 O311 2.717 . S
C282 O300 1.240 . S
C282 O301 1.240 . S
C283 Gd280 2.818 . S
C283 C284 1.510 . S
C283 O302 1.249 . S
C283 O303 1.252 . S
C284 C283 1.510 . S
C284 C285 1.404 . S
C284 C286 1.352 . S
C285 C284 1.404 . S
C285 C289 1.389 . S
C285 H312 0.930 . S
C286 C284 1.352 . S
C286 C288 1.374 . S
C286 H313 0.931 . S
C287 C288 1.359 . S
C287 C289 1.364 . S
C288 C286 1.374 . S
C288 C287 1.359 . S
C288 H314 0.931 . S
C289 C285 1.389 . S
C289 C287 1.364 . S
C289 H315 0.931 . S
C290 O304 1.256 . S
C290 O305 1.257 . S
C291 O306 1.240 . S
C291 O307 1.240 . S
C292 Gd281 2.818 . S
C292 C293 1.510 . S
C292 O308 1.249 . S
C292 O309 1.252 . S
C293 C292 1.510 . S
C293 C294 1.404 . S
C293 C295 1.352 . S
C294 C293 1.404 . S
C294 C298 1.389 . S
C294 H316 0.930 . S
C295 C293 1.352 . S
C295 C297 1.374 . S
C295 H317 0.931 . S
C296 C297 1.359 . S
C296 C298 1.364 . S
C297 C295 1.374 . S
C297 C296 1.359 . S
C297 H318 0.931 . S
C298 C294 1.389 . S
C298 C296 1.364 . S
C298 H319 0.931 . S
C299 O310 1.256 . S
C299 O311 1.257 . S
O300 Gd280 2.377 . S
O300 C282 1.240 . S
O301 Gd281 2.395 . S
O301 C282 1.240 . S
O302 Gd280 2.448 . S
O302 C283 1.249 . S
O303 Gd280 2.506 . S
O303 C283 1.252 . S
O304 Gd280 2.435 . S
O304 C290 1.256 . S
O305 Gd280 2.717 . S
O305 Gd281 2.327 . S
O305 C290 1.257 . S
O306 Gd281 2.377 . S
O306 C291 1.240 . S
O307 Gd280 2.395 . S
O307 C291 1.240 . S
O308 Gd281 2.448 . S
O308 C292 1.249 . S
O309 Gd281 2.506 . S
O309 C292 1.252 . S
O310 Gd281 2.435 . S
O310 C299 1.256 . S
O311 Gd280 2.327 . S
O311 Gd281 2.717 . S
O311 C299 1.257 . S
H312 C285 0.930 . S
H313 C286 0.931 . S
H314 C288 0.931 . S
H315 C289 0.931 . S
H316 C294 0.930 . S
H317 C295 0.931 . S
H318 C297 0.931 . S
H319 C298 0.931 . S
Gd320 C323 2.818 . S
Gd320 O340 2.377 . S
Gd320 O342 2.448 . S
Gd320 O343 2.506 . S
Gd320 O344 2.435 . S
Gd320 O345 2.717 . S
Gd320 O347 2.395 . S
Gd320 O351 2.327 . S
Gd321 C332 2.818 . S
Gd321 O341 2.395 . S
Gd321 O345 2.327 . S
Gd321 O346 2.377 . S
Gd321 O348 2.448 . S
Gd321 O349 2.506 . S
Gd321 O350 2.435 . S
Gd321 O351 2.717 . S
C322 O340 1.240 . S
C322 O341 1.240 . S
C323 Gd320 2.818 . S
C323 C324 1.510 . S
C323 O342 1.249 . S
C323 O343 1.252 . S
C324 C323 1.510 . S
C324 C325 1.404 . S
C324 C326 1.352 . S
C325 C324 1.404 . S
C325 C329 1.389 . S
C325 H352 0.930 . S
C326 C324 1.352 . S
C326 C328 1.374 . S
C326 H353 0.931 . S
C327 C328 1.359 . S
C327 C329 1.364 . S
C328 C326 1.374 . S
C328 C327 1.359 . S
C328 H354 0.931 . S
C329 C325 1.389 . S
C329 C327 1.364 . S
C329 H355 0.931 . S
C330 O344 1.256 . S
C330 O345 1.257 . S
C331 O346 1.240 . S
C331 O347 1.240 . S
C332 Gd321 2.818 . S
C332 C333 1.510 . S
C332 O348 1.249 . S
C332 O349 1.252 . S
C333 C332 1.510 . S
C333 C334 1.404 . S
C333 C335 1.352 . S
C334 C333 1.404 . S
C334 C338 1.389 . S
C334 H356 0.930 . S
C335 C333 1.352 . S
C335 C337 1.374 . S
C335 H357 0.931 . S
C336 C337 1.359 . S
C336 C338 1.364 . S
C337 C335 1.374 . S
C337 C336 1.359 . S
C337 H358 0.931 . S
C338 C334 1.389 . S
C338 C336 1.364 . S
C338 H359 0.931 . S
C339 O350 1.256 . S
C339 O351 1.257 . S
O340 Gd320 2.377 . S
O340 C322 1.240 . S
O341 Gd321 2.395 . S
O341 C322 1.240 . S
O342 Gd320 2.448 . S
O342 C323 1.249 . S
O343 Gd320 2.506 . S
O343 C323 1.252 . S
O344 Gd320 2.435 . S
O344 C330 1.256 . S
O345 Gd320 2.717 . S
O345 Gd321 2.327 . S
O345 C330 1.257 . S
O346 Gd321 2.377 . S
O346 C331 1.240 . S
O347 Gd320 2.395 . S
O347 C331 1.240 . S
O348 Gd321 2.448 . S
O348 C332 1.249 . S
O349 Gd321 2.506 . S
O349 C332 1.252 . S
O350 Gd321 2.435 . S
O350 C339 1.256 . S
O351 Gd320 2.327 . S
O351 Gd321 2.717 . S
O351 C339 1.257 . S
H352 C325 0.930 . S
H353 C326 0.931 . S
H354 C328 0.931 . S
H355 C329 0.931 . S
H356 C334 0.930 . S
H357 C335 0.931 . S
H358 C337 0.931 . S
H359 C338 0.931 . S
Gd360 C363 2.818 . S
Gd360 O380 2.377 . S
Gd360 O382 2.448 . S
Gd360 O383 2.506 . S
Gd360 O384 2.435 . S
Gd360 O385 2.717 . S
Gd360 O387 2.395 . S
Gd360 O391 2.327 . S
Gd361 C372 2.818 . S
Gd361 O381 2.395 . S
Gd361 O385 2.327 . S
Gd361 O386 2.377 . S
Gd361 O388 2.448 . S
Gd361 O389 2.506 . S
Gd361 O390 2.435 . S
Gd361 O391 2.717 . S
C362 O380 1.240 . S
C362 O381 1.240 . S
C363 Gd360 2.818 . S
C363 C364 1.510 . S
C363 O382 1.249 . S
C363 O383 1.252 . S
C364 C363 1.510 . S
C364 C365 1.404 . S
C364 C366 1.352 . S
C365 C364 1.404 . S
C365 C369 1.389 . S
C365 H392 0.930 . S
C366 C364 1.352 . S
C366 C368 1.374 . S
C366 H393 0.931 . S
C367 C368 1.359 . S
C367 C369 1.364 . S
C368 C366 1.374 . S
C368 C367 1.359 . S
C368 H394 0.931 . S
C369 C365 1.389 . S
C369 C367 1.364 . S
C369 H395 0.931 . S
C370 O384 1.256 . S
C370 O385 1.257 . S
C371 O386 1.240 . S
C371 O387 1.240 . S
C372 Gd361 2.818 . S
C372 C373 1.510 . S
C372 O388 1.249 . S
C372 O389 1.252 . S
C373 C372 1.510 . S
C373 C374 1.404 . S
C373 C375 1.352 . S
C374 C373 1.404 . S
C374 C378 1.389 1_554 S
C374 H396 0.930 . S
C375 C373 1.352 . S
C375 C377 1.374 1_554 S
C375 H397 0.931 . S
C376 C377 1.359 . S
C376 C378 1.364 . S
C377 C375 1.374 1_556 S
C377 C376 1.359 . S
C377 H398 0.931 . S
C378 C374 1.389 1_556 S
C378 C376 1.364 . S
C378 H399 0.931 . S
C379 O390 1.256 . S
C379 O391 1.257 . S
O380 Gd360 2.377 . S
O380 C362 1.240 . S
O381 Gd361 2.395 . S
O381 C362 1.240 . S
O382 Gd360 2.448 . S
O382 C363 1.249 . S
O383 Gd360 2.506 . S
O383 C363 1.252 . S
O384 Gd360 2.435 . S
O384 C370 1.256 . S
O385 Gd360 2.717 . S
O385 Gd361 2.327 . S
O385 C370 1.257 . S
O386 Gd361 2.377 . S
O386 C371 1.240 . S
O387 Gd360 2.395 . S
O387 C371 1.240 . S
O388 Gd361 2.448 . S
O388 C372 1.249 . S
O389 Gd361 2.506 . S
O389 C372 1.252 . S
O390 Gd361 2.435 . S
O390 C379 1.256 . S
O391 Gd360 2.327 . S
O391 Gd361 2.717 . S
O391 C379 1.257 . S
H392 C365 0.930 . S
H393 C366 0.931 . S
H394 C368 0.931 . S
H395 C369 0.931 . S
H396 C374 0.930 . S
H397 C375 0.931 . S
H398 C377 0.931 . S
H399 C378 0.931 . S
Gd400 C403 2.818 . S
Gd400 O420 2.377 . S
Gd400 O422 2.448 . S
Gd400 O423 2.506 . S
Gd400 O424 2.435 . S
Gd400 O425 2.717 . S
Gd400 O427 2.395 . S
Gd400 O431 2.327 . S
Gd401 C412 2.818 . S
Gd401 O421 2.395 . S
Gd401 O425 2.327 . S
Gd401 O426 2.377 . S
Gd401 O428 2.448 . S
Gd401 O429 2.506 . S
Gd401 O430 2.435 . S
Gd401 O431 2.717 . S
C402 O420 1.240 . S
C402 O421 1.240 . S
C403 Gd400 2.818 . S
C403 C404 1.510 1_556 S
C403 O422 1.249 . S
C403 O423 1.252 . S
C404 C403 1.510 1_554 S
C404 C405 1.404 . S
C404 C406 1.352 . S
C405 C404 1.404 . S
C405 C409 1.389 . S
C405 H432 0.930 . S
C406 C404 1.352 . S
C406 C408 1.374 . S
C406 H433 0.931 . S
C407 C408 1.359 . S
C407 C409 1.364 . S
C408 C406 1.374 . S
C408 C407 1.359 . S
C408 H434 0.931 . S
C409 C405 1.389 . S
C409 C407 1.364 . S
C409 H435 0.931 . S
C410 O424 1.256 . S
C410 O425 1.257 . S
C411 O426 1.240 . S
C411 O427 1.240 . S
C412 Gd401 2.818 . S
C412 C413 1.510 . S
C412 O428 1.249 . S
C412 O429 1.252 . S
C413 C412 1.510 . S
C413 C414 1.404 . S
C413 C415 1.352 . S
C414 C413 1.404 . S
C414 C418 1.389 . S
C414 H436 0.930 . S
C415 C413 1.352 . S
C415 C417 1.374 . S
C415 H437 0.931 . S
C416 C417 1.359 . S
C416 C418 1.364 . S
C417 C415 1.374 . S
C417 C416 1.359 . S
C417 H438 0.931 . S
C418 C414 1.389 . S
C418 C416 1.364 . S
C418 H439 0.931 . S
C419 O430 1.256 . S
C419 O431 1.257 . S
O420 Gd400 2.377 . S
O420 C402 1.240 . S
O421 Gd401 2.395 . S
O421 C402 1.240 . S
O422 Gd400 2.448 . S
O422 C403 1.249 . S
O423 Gd400 2.506 . S
O423 C403 1.252 . S
O424 Gd400 2.435 . S
O424 C410 1.256 . S
O425 Gd400 2.717 . S
O425 Gd401 2.327 . S
O425 C410 1.257 . S
O426 Gd401 2.377 . S
O426 C411 1.240 . S
O427 Gd400 2.395 . S
O427 C411 1.240 . S
O428 Gd401 2.448 . S
O428 C412 1.249 . S
O429 Gd401 2.506 . S
O429 C412 1.252 . S
O430 Gd401 2.435 . S
O430 C419 1.256 . S
O431 Gd400 2.327 . S
O431 Gd401 2.717 . S
O431 C419 1.257 . S
H432 C405 0.930 . S
H433 C406 0.931 . S
H434 C408 0.931 . S
H435 C409 0.931 . S
H436 C414 0.930 . S
H437 C415 0.931 . S
H438 C417 0.931 . S
H439 C418 0.931 . S
Gd440 C443 2.818 . S
Gd440 O460 2.377 . S
Gd440 O462 2.448 . S
Gd440 O463 2.506 . S
Gd440 O464 2.435 . S
Gd440 O465 2.717 . S
Gd440 O467 2.395 . S
Gd440 O471 2.327 . S
Gd441 C452 2.818 . S
Gd441 O461 2.395 . S
Gd441 O465 2.327 . S
Gd441 O466 2.377 . S
Gd441 O468 2.448 . S
Gd441 O469 2.506 . S
Gd441 O470 2.435 . S
Gd441 O471 2.717 . S
C442 O460 1.240 . S
C442 O461 1.240 . S
C443 Gd440 2.818 . S
C443 C444 1.510 . S
C443 O462 1.249 . S
C443 O463 1.252 . S
C444 C443 1.510 . S
C444 C445 1.404 . S
C444 C446 1.352 . S
C445 C444 1.404 . S
C445 C449 1.389 . S
C445 H472 0.930 . S
C446 C444 1.352 . S
C446 C448 1.374 . S
C446 H473 0.931 . S
C447 C448 1.359 . S
C447 C449 1.364 . S
C448 C446 1.374 . S
C448 C447 1.359 . S
C448 H474 0.931 . S
C449 C445 1.389 . S
C449 C447 1.364 . S
C449 H475 0.931 . S
C450 O464 1.256 . S
C450 O465 1.257 . S
C451 O466 1.240 . S
C451 O467 1.240 . S
C452 Gd441 2.818 . S
C452 C453 1.510 . S
C452 O468 1.249 . S
C452 O469 1.252 . S
C453 C452 1.510 . S
C453 C454 1.404 . S
C453 C455 1.352 . S
C454 C453 1.404 . S
C454 C458 1.389 . S
C454 H476 0.930 . S
C455 C453 1.352 . S
C455 C457 1.374 . S
C455 H477 0.931 . S
C456 C457 1.359 . S
C456 C458 1.364 . S
C457 C455 1.374 . S
C457 C456 1.359 . S
C457 H478 0.931 . S
C458 C454 1.389 . S
C458 C456 1.364 . S
C458 H479 0.931 . S
C459 O470 1.256 . S
C459 O471 1.257 . S
O460 Gd440 2.377 . S
O460 C442 1.240 . S
O461 Gd441 2.395 . S
O461 C442 1.240 . S
O462 Gd440 2.448 . S
O462 C443 1.249 . S
O463 Gd440 2.506 . S
O463 C443 1.252 . S
O464 Gd440 2.435 . S
O464 C450 1.256 . S
O465 Gd440 2.717 . S
O465 Gd441 2.327 . S
O465 C450 1.257 . S
O466 Gd441 2.377 . S
O466 C451 1.240 . S
O467 Gd440 2.395 . S
O467 C451 1.240 . S
O468 Gd441 2.448 . S
O468 C452 1.249 . S
O469 Gd441 2.506 . S
O469 C452 1.252 . S
O470 Gd441 2.435 . S
O470 C459 1.256 . S
O471 Gd440 2.327 . S
O471 Gd441 2.717 . S
O471 C459 1.257 . S
H472 C445 0.930 . S
H473 C446 0.931 . S
H474 C448 0.931 . S
H475 C449 0.931 . S
H476 C454 0.930 . S
H477 C455 0.931 . S
H478 C457 0.931 . S
H479 C458 0.931 . S
Gd480 C483 2.818 . S
Gd480 O500 2.377 . S
Gd480 O502 2.448 . S
Gd480 O503 2.506 . S
Gd480 O504 2.435 . S
Gd480 O505 2.717 . S
Gd480 O507 2.395 . S
Gd480 O511 2.327 . S
Gd481 C492 2.818 . S
Gd481 O501 2.395 . S
Gd481 O505 2.327 . S
Gd481 O506 2.377 . S
Gd481 O508 2.448 . S
Gd481 O509 2.506 . S
Gd481 O510 2.435 . S
Gd481 O511 2.717 . S
C482 O500 1.240 . S
C482 O501 1.240 . S
C483 Gd480 2.818 . S
C483 C484 1.510 . S
C483 O502 1.249 . S
C483 O503 1.252 . S
C484 C483 1.510 . S
C484 C485 1.404 . S
C484 C486 1.352 . S
C485 C484 1.404 . S
C485 C489 1.389 . S
C485 H512 0.930 . S
C486 C484 1.352 . S
C486 C488 1.374 . S
C486 H513 0.931 . S
C487 C488 1.359 . S
C487 C489 1.364 . S
C488 C486 1.374 . S
C488 C487 1.359 . S
C488 H514 0.931 . S
C489 C485 1.389 . S
C489 C487 1.364 . S
C489 H515 0.931 . S
C490 O504 1.256 . S
C490 O505 1.257 . S
C491 O506 1.240 . S
C491 O507 1.240 . S
C492 Gd481 2.818 . S
C492 C493 1.510 . S
C492 O508 1.249 . S
C492 O509 1.252 . S
C493 C492 1.510 . S
C493 C494 1.404 . S
C493 C495 1.352 . S
C494 C493 1.404 . S
C494 C498 1.389 . S
C494 H516 0.930 . S
C495 C493 1.352 . S
C495 C497 1.374 . S
C495 H517 0.931 . S
C496 C497 1.359 . S
C496 C498 1.364 . S
C497 C495 1.374 . S
C497 C496 1.359 . S
C497 H518 0.931 . S
C498 C494 1.389 . S
C498 C496 1.364 . S
C498 H519 0.931 . S
C499 O510 1.256 . S
C499 O511 1.257 . S
O500 Gd480 2.377 . S
O500 C482 1.240 . S
O501 Gd481 2.395 . S
O501 C482 1.240 . S
O502 Gd480 2.448 . S
O502 C483 1.249 . S
O503 Gd480 2.506 . S
O503 C483 1.252 . S
O504 Gd480 2.435 . S
O504 C490 1.256 . S
O505 Gd480 2.717 . S
O505 Gd481 2.327 . S
O505 C490 1.257 . S
O506 Gd481 2.377 . S
O506 C491 1.240 . S
O507 Gd480 2.395 . S
O507 C491 1.240 . S
O508 Gd481 2.448 . S
O508 C492 1.249 . S
O509 Gd481 2.506 . S
O509 C492 1.252 . S
O510 Gd481 2.435 . S
O510 C499 1.256 . S
O511 Gd480 2.327 . S
O511 Gd481 2.717 . S
O511 C499 1.257 . S
H512 C485 0.930 . S
H513 C486 0.931 . S
H514 C488 0.931 . S
H515 C489 0.931 . S
H516 C494 0.930 . S
H517 C495 0.931 . S
H518 C497 0.931 . S
H519 C498 0.931 . S
Gd520 C523 2.818 1_455 S
Gd520 O540 2.377 . S
Gd520 O542 2.448 1_455 S
Gd520 O543 2.506 1_455 S
Gd520 O544 2.435 . S
Gd520 O545 2.717 . S
Gd520 O547 2.395 1_455 S
Gd520 O551 2.327 . S
Gd521 C532 2.818 . S
Gd521 O541 2.395 . S
Gd521 O545 2.327 . S
Gd521 O546 2.377 . S
Gd521 O548 2.448 . S
Gd521 O549 2.506 . S
Gd521 O550 2.435 . S
Gd521 O551 2.717 . S
C522 O540 1.240 . S
C522 O541 1.240 . S
C523 Gd520 2.818 1_655 S
C523 C524 1.510 1_554 S
C523 O542 1.249 . S
C523 O543 1.252 . S
C524 C523 1.510 1_556 S
C524 C525 1.404 . S
C524 C526 1.352 . S
C525 C524 1.404 . S
C525 C529 1.389 . S
C525 H552 0.930 . S
C526 C524 1.352 . S
C526 C528 1.374 . S
C526 H553 0.931 . S
C527 C528 1.359 . S
C527 C529 1.364 . S
C528 C526 1.374 . S
C528 C527 1.359 . S
C528 H554 0.931 . S
C529 C525 1.389 . S
C529 C527 1.364 . S
C529 H555 0.931 . S
C530 O544 1.256 . S
C530 O545 1.257 . S
C531 O546 1.240 . S
C531 O547 1.240 1_455 S
C532 Gd521 2.818 . S
C532 C533 1.510 . S
C532 O548 1.249 . S
C532 O549 1.252 . S
C533 C532 1.510 . S
C533 C534 1.404 . S
C533 C535 1.352 . S
C534 C533 1.404 . S
C534 C538 1.389 . S
C534 H556 0.930 . S
C535 C533 1.352 . S
C535 C537 1.374 . S
C535 H557 0.931 . S
C536 C537 1.359 . S
C536 C538 1.364 . S
C537 C535 1.374 . S
C537 C536 1.359 . S
C537 H558 0.931 . S
C538 C534 1.389 . S
C538 C536 1.364 . S
C538 H559 0.931 . S
C539 O550 1.256 . S
C539 O551 1.257 . S
O540 Gd520 2.377 . S
O540 C522 1.240 . S
O541 Gd521 2.395 . S
O541 C522 1.240 . S
O542 Gd520 2.448 1_655 S
O542 C523 1.249 . S
O543 Gd520 2.506 1_655 S
O543 C523 1.252 . S
O544 Gd520 2.435 . S
O544 C530 1.256 . S
O545 Gd520 2.717 . S
O545 Gd521 2.327 . S
O545 C530 1.257 . S
O546 Gd521 2.377 . S
O546 C531 1.240 . S
O547 Gd520 2.395 1_655 S
O547 C531 1.240 1_655 S
O548 Gd521 2.448 . S
O548 C532 1.249 . S
O549 Gd521 2.506 . S
O549 C532 1.252 . S
O550 Gd521 2.435 . S
O550 C539 1.256 . S
O551 Gd520 2.327 . S
O551 Gd521 2.717 . S
O551 C539 1.257 . S
H552 C525 0.930 . S
H553 C526 0.931 . S
H554 C528 0.931 . S
H555 C529 0.931 . S
H556 C534 0.930 . S
H557 C535 0.931 . S
H558 C537 0.931 . S
H559 C538 0.931 . S
Gd560 C563 2.818 . S
Gd560 O580 2.377 . S
Gd560 O582 2.448 . S
Gd560 O583 2.506 . S
Gd560 O584 2.435 . S
Gd560 O585 2.717 . S
Gd560 O587 2.395 . S
Gd560 O591 2.327 . S
Gd561 C572 2.818 . S
Gd561 O581 2.395 . S
Gd561 O585 2.327 . S
Gd561 O586 2.377 . S
Gd561 O588 2.448 . S
Gd561 O589 2.506 . S
Gd561 O590 2.435 . S
Gd561 O591 2.717 . S
C562 O580 1.240 . S
C562 O581 1.240 . S
C563 Gd560 2.818 . S
C563 C564 1.510 . S
C563 O582 1.249 . S
C563 O583 1.252 . S
C564 C563 1.510 . S
C564 C565 1.404 . S
C564 C566 1.352 . S
C565 C564 1.404 . S
C565 C569 1.389 . S
C565 H592 0.930 . S
C566 C564 1.352 . S
C566 C568 1.374 . S
C566 H593 0.931 . S
C567 C568 1.359 . S
C567 C569 1.364 . S
C568 C566 1.374 . S
C568 C567 1.359 . S
C568 H594 0.931 . S
C569 C565 1.389 . S
C569 C567 1.364 . S
C569 H595 0.931 . S
C570 O584 1.256 . S
C570 O585 1.257 . S
C571 O586 1.240 . S
C571 O587 1.240 . S
C572 Gd561 2.818 . S
C572 C573 1.510 . S
C572 O588 1.249 . S
C572 O589 1.252 . S
C573 C572 1.510 . S
C573 C574 1.404 . S
C573 C575 1.352 . S
C574 C573 1.404 . S
C574 C578 1.389 . S
C574 H596 0.930 . S
C575 C573 1.352 . S
C575 C577 1.374 . S
C575 H597 0.931 . S
C576 C577 1.359 . S
C576 C578 1.364 . S
C577 C575 1.374 . S
C577 C576 1.359 . S
C577 H598 0.931 . S
C578 C574 1.389 . S
C578 C576 1.364 . S
C578 H599 0.931 . S
C579 O590 1.256 . S
C579 O591 1.257 . S
O580 Gd560 2.377 . S
O580 C562 1.240 . S
O581 Gd561 2.395 . S
O581 C562 1.240 . S
O582 Gd560 2.448 . S
O582 C563 1.249 . S
O583 Gd560 2.506 . S
O583 C563 1.252 . S
O584 Gd560 2.435 . S
O584 C570 1.256 . S
O585 Gd560 2.717 . S
O585 Gd561 2.327 . S
O585 C570 1.257 . S
O586 Gd561 2.377 . S
O586 C571 1.240 . S
O587 Gd560 2.395 . S
O587 C571 1.240 . S
O588 Gd561 2.448 . S
O588 C572 1.249 . S
O589 Gd561 2.506 . S
O589 C572 1.252 . S
O590 Gd561 2.435 . S
O590 C579 1.256 . S
O591 Gd560 2.327 . S
O591 Gd561 2.717 . S
O591 C579 1.257 . S
H592 C565 0.930 . S
H593 C566 0.931 . S
H594 C568 0.931 . S
H595 C569 0.931 . S
H596 C574 0.930 . S
H597 C575 0.931 . S
H598 C577 0.931 . S
H599 C578 0.931 . S
Gd600 C603 2.818 . S
Gd600 O620 2.377 1_655 S
Gd600 O622 2.448 . S
Gd600 O623 2.506 . S
Gd600 O624 2.435 . S
Gd600 O625 2.717 1_655 S
Gd600 O627 2.395 . S
Gd600 O631 2.327 . S
Gd601 C612 2.818 . S
Gd601 O621 2.395 . S
Gd601 O625 2.327 . S
Gd601 O626 2.377 1_455 S
Gd601 O628 2.448 . S
Gd601 O629 2.506 . S
Gd601 O630 2.435 . S
Gd601 O631 2.717 1_455 S
C602 O620 1.240 . S
C602 O621 1.240 . S
C603 Gd600 2.818 . S
C603 C604 1.510 . S
C603 O622 1.249 . S
C603 O623 1.252 . S
C604 C603 1.510 . S
C604 C605 1.404 . S
C604 C606 1.352 . S
C605 C604 1.404 . S
C605 C609 1.389 . S
C605 H632 0.930 . S
C606 C604 1.352 . S
C606 C608 1.374 . S
C606 H633 0.931 . S
C607 C608 1.359 . S
C607 C609 1.364 . S
C608 C606 1.374 . S
C608 C607 1.359 . S
C608 H634 0.931 . S
C609 C605 1.389 . S
C609 C607 1.364 . S
C609 H635 0.931 . S
C610 O624 1.256 . S
C610 O625 1.257 1_655 S
C611 O626 1.240 . S
C611 O627 1.240 . S
C612 Gd601 2.818 . S
C612 C613 1.510 1_556 S
C612 O628 1.249 . S
C612 O629 1.252 . S
C613 C612 1.510 1_554 S
C613 C614 1.404 . S
C613 C615 1.352 . S
C614 C613 1.404 . S
C614 C618 1.389 . S
C614 H636 0.930 . S
C615 C613 1.352 . S
C615 C617 1.374 . S
C615 H637 0.931 . S
C616 C617 1.359 . S
C616 C618 1.364 . S
C617 C615 1.374 . S
C617 C616 1.359 . S
C617 H638 0.931 . S
C618 C614 1.389 . S
C618 C616 1.364 . S
C618 H639 0.931 . S
C619 O630 1.256 . S
C619 O631 1.257 1_455 S
O620 Gd600 2.377 1_455 S
O620 C602 1.240 . S
O621 Gd601 2.395 . S
O621 C602 1.240 . S
O622 Gd600 2.448 . S
O622 C603 1.249 . S
O623 Gd600 2.506 . S
O623 C603 1.252 . S
O624 Gd600 2.435 . S
O624 C610 1.256 . S
O625 Gd600 2.717 1_455 S
O625 Gd601 2.327 . S
O625 C610 1.257 1_455 S
O626 Gd601 2.377 1_655 S
O626 C611 1.240 . S
O627 Gd600 2.395 . S
O627 C611 1.240 . S
O628 Gd601 2.448 . S
O628 C612 1.249 . S
O629 Gd601 2.506 . S
O629 C612 1.252 . S
O630 Gd601 2.435 . S
O630 C619 1.256 . S
O631 Gd600 2.327 . S
O631 Gd601 2.717 1_655 S
O631 C619 1.257 1_655 S
H632 C605 0.930 . S
H633 C606 0.931 . S
H634 C608 0.931 . S
H635 C609 0.931 . S
H636 C614 0.930 . S
H637 C615 0.931 . S
H638 C617 0.931 . S
H639 C618 0.931 . S
H640 C648 0.950 . S
H641 C653 0.950 . S
H642 C650 0.950 . S
H643 C652 0.950 . S
H644 C654 0.950 . S
H645 C656 0.950 . S
H646 C658 0.950 . S
H647 C659 0.950 . S
C648 H640 0.950 . S
C648 C649 1.386 . S
C648 C650 1.391 . S
C649 C648 1.386 . S
C649 C653 1.393 . S
C650 H642 0.950 . S
C650 C648 1.391 . S
C650 C651 1.400 1_554 S
C651 C650 1.400 1_556 S
C651 C652 1.398 . S
C651 C657 1.491 . S
C652 H643 0.950 . S
C652 C651 1.398 . S
C652 C653 1.391 1_556 S
C653 H641 0.950 . S
C653 C649 1.393 . S
C653 C652 1.391 1_554 S
C654 H644 0.950 . S
C654 C655 1.386 . S
C654 C656 1.391 . S
C655 C654 1.386 . S
C655 C659 1.393 . S
C656 H645 0.950 . S
C656 C654 1.391 . S
C656 C657 1.400 . S
C657 C651 1.491 . S
C657 C656 1.400 . S
C657 C658 1.398 . S
C658 H646 0.950 . S
C658 C657 1.398 . S
C658 C659 1.391 . S
C659 H647 0.950 . S
C659 C655 1.393 . S
C659 C658 1.391 . S
H660 C668 0.950 . S
H661 C673 0.950 . S
H662 C670 0.950 . S
H663 C672 0.950 . S
H664 C674 0.950 . S
H665 C676 0.950 . S
H666 C678 0.950 . S
H667 C679 0.950 . S
C668 H660 0.950 . S
C668 C669 1.386 . S
C668 C670 1.391 . S
C669 C668 1.386 . S
C669 C673 1.393 . S
C670 H662 0.950 . S
C670 C668 1.391 . S
C670 C671 1.400 . S
C671 C670 1.400 . S
C671 C672 1.398 . S
C671 C677 1.491 . S
C672 H663 0.950 . S
C672 C671 1.398 . S
C672 C673 1.391 . S
C673 H661 0.950 . S
C673 C669 1.393 . S
C673 C672 1.391 . S
C674 H664 0.950 . S
C674 C675 1.386 . S
C674 C676 1.391 . S
C675 C674 1.386 . S
C675 C679 1.393 . S
C676 H665 0.950 . S
C676 C674 1.391 . S
C676 C677 1.400 . S
C677 C671 1.491 . S
C677 C676 1.400 . S
C677 C678 1.398 . S
C678 H666 0.950 . S
C678 C677 1.398 . S
C678 C679 1.391 . S
C679 H667 0.950 . S
C679 C675 1.393 . S
C679 C678 1.391 . S
H680 C688 0.950 . S
H681 C693 0.950 . S
H682 C690 0.950 . S
H683 C692 0.950 . S
H684 C694 0.950 . S
H685 C696 0.950 . S
H686 C698 0.950 . S
H687 C699 0.950 . S
C688 H680 0.950 . S
C688 C689 1.386 . S
C688 C690 1.391 . S
C689 C688 1.386 . S
C689 C693 1.393 . S
C690 H682 0.950 . S
C690 C688 1.391 . S
C690 C691 1.400 . S
C691 C690 1.400 . S
C691 C692 1.398 . S
C691 C697 1.491 . S
C692 H683 0.950 . S
C692 C691 1.398 . S
C692 C693 1.391 . S
C693 H681 0.950 . S
C693 C689 1.393 . S
C693 C692 1.391 . S
C694 H684 0.950 . S
C694 C695 1.386 . S
C694 C696 1.391 . S
C695 C694 1.386 . S
C695 C699 1.393 . S
C696 H685 0.950 . S
C696 C694 1.391 . S
C696 C697 1.400 . S
C697 C691 1.491 . S
C697 C696 1.400 . S
C697 C698 1.398 . S
C698 H686 0.950 . S
C698 C697 1.398 . S
C698 C699 1.391 . S
C699 H687 0.950 . S
C699 C695 1.393 . S
C699 C698 1.391 . S
H700 C708 0.950 . S
H701 C713 0.950 . S
H702 C710 0.950 . S
H703 C712 0.950 . S
H704 C714 0.950 . S
H705 C716 0.950 . S
H706 C718 0.950 . S
H707 C719 0.950 . S
C708 H700 0.950 . S
C708 C709 1.386 . S
C708 C710 1.391 . S
C709 C708 1.386 . S
C709 C713 1.393 . S
C710 H702 0.950 . S
C710 C708 1.391 . S
C710 C711 1.400 . S
C711 C710 1.400 . S
C711 C712 1.398 . S
C711 C717 1.491 . S
C712 H703 0.950 . S
C712 C711 1.398 . S
C712 C713 1.391 . S
C713 H701 0.950 . S
C713 C709 1.393 . S
C713 C712 1.391 . S
C714 H704 0.950 . S
C714 C715 1.386 . S
C714 C716 1.391 . S
C715 C714 1.386 . S
C715 C719 1.393 . S
C716 H705 0.950 . S
C716 C714 1.391 . S
C716 C717 1.400 . S
C717 C711 1.491 . S
C717 C716 1.400 . S
C717 C718 1.398 . S
C718 H706 0.950 . S
C718 C717 1.398 . S
C718 C719 1.391 . S
C719 H707 0.950 . S
C719 C715 1.393 . S
C719 C718 1.391 . S
H720 C728 0.950 . S
H721 C733 0.950 . S
H722 C730 0.950 . S
H723 C732 0.950 . S
H724 C734 0.950 . S
H725 C736 0.950 1_554 S
H726 C738 0.950 . S
H727 C739 0.950 . S
C728 H720 0.950 . S
C728 C729 1.386 . S
C728 C730 1.391 . S
C729 C728 1.386 . S
C729 C733 1.393 . S
C730 H722 0.950 . S
C730 C728 1.391 . S
C730 C731 1.400 . S
C731 C730 1.400 . S
C731 C732 1.398 . S
C731 C737 1.491 . S
C732 H723 0.950 . S
C732 C731 1.398 . S
C732 C733 1.391 . S
C733 H721 0.950 . S
C733 C729 1.393 . S
C733 C732 1.391 . S
C734 H724 0.950 . S
C734 C735 1.386 . S
C734 C736 1.391 . S
C735 C734 1.386 . S
C735 C739 1.393 . S
C736 H725 0.950 1_556 S
C736 C734 1.391 . S
C736 C737 1.400 1_556 S
C737 C731 1.491 . S
C737 C736 1.400 1_554 S
C737 C738 1.398 . S
C738 H726 0.950 . S
C738 C737 1.398 . S
C738 C739 1.391 1_554 S
C739 H727 0.950 . S
C739 C735 1.393 . S
C739 C738 1.391 1_556 S
H740 C748 0.950 . S
H741 C753 0.950 . S
H742 C750 0.950 . S
H743 C752 0.950 . S
H744 C754 0.950 . S
H745 C756 0.950 . S
H746 C758 0.950 . S
H747 C759 0.950 . S
C748 H740 0.950 . S
C748 C749 1.386 . S
C748 C750 1.391 . S
C749 C748 1.386 . S
C749 C753 1.393 . S
C750 H742 0.950 . S
C750 C748 1.391 . S
C750 C751 1.400 . S
C751 C750 1.400 . S
C751 C752 1.398 . S
C751 C757 1.491 . S
C752 H743 0.950 . S
C752 C751 1.398 . S
C752 C753 1.391 . S
C753 H741 0.950 . S
C753 C749 1.393 . S
C753 C752 1.391 . S
C754 H744 0.950 . S
C754 C755 1.386 . S
C754 C756 1.391 . S
C755 C754 1.386 . S
C755 C759 1.393 . S
C756 H745 0.950 . S
C756 C754 1.391 . S
C756 C757 1.400 . S
C757 C751 1.491 . S
C757 C756 1.400 . S
C757 C758 1.398 . S
C758 H746 0.950 . S
C758 C757 1.398 . S
C758 C759 1.391 . S
C759 H747 0.950 . S
C759 C755 1.393 . S
C759 C758 1.391 . S
H760 C768 0.950 . S
H761 C773 0.950 . S
H762 C770 0.950 . S
H763 C772 0.950 . S
H764 C774 0.950 . S
H765 C776 0.950 . S
H766 C778 0.950 . S
H767 C779 0.950 . S
C768 H760 0.950 . S
C768 C769 1.386 . S
C768 C770 1.391 . S
C769 C768 1.386 . S
C769 C773 1.393 . S
C770 H762 0.950 . S
C770 C768 1.391 . S
C770 C771 1.400 . S
C771 C770 1.400 . S
C771 C772 1.398 . S
C771 C777 1.491 . S
C772 H763 0.950 . S
C772 C771 1.398 . S
C772 C773 1.391 . S
C773 H761 0.950 . S
C773 C769 1.393 . S
C773 C772 1.391 . S
C774 H764 0.950 . S
C774 C775 1.386 . S
C774 C776 1.391 . S
C775 C774 1.386 . S
C775 C779 1.393 . S
C776 H765 0.950 . S
C776 C774 1.391 . S
C776 C777 1.400 . S
C777 C771 1.491 . S
C777 C776 1.400 . S
C777 C778 1.398 . S
C778 H766 0.950 . S
C778 C777 1.398 . S
C778 C779 1.391 . S
C779 H767 0.950 . S
C779 C775 1.393 . S
C779 C778 1.391 . S
H780 C788 0.950 . S
H781 C793 0.950 . S
H782 C790 0.950 . S
H783 C792 0.950 . S
H784 C794 0.950 . S
H785 C796 0.950 . S
H786 C798 0.950 . S
H787 C799 0.950 . S
C788 H780 0.950 . S
C788 C789 1.386 . S
C788 C790 1.391 . S
C789 C788 1.386 . S
C789 C793 1.393 . S
C790 H782 0.950 . S
C790 C788 1.391 . S
C790 C791 1.400 . S
C791 C790 1.400 . S
C791 C792 1.398 . S
C791 C797 1.491 . S
C792 H783 0.950 . S
C792 C791 1.398 . S
C792 C793 1.391 . S
C793 H781 0.950 . S
C793 C789 1.393 . S
C793 C792 1.391 . S
C794 H784 0.950 . S
C794 C795 1.386 . S
C794 C796 1.391 . S
C795 C794 1.386 . S
C795 C799 1.393 . S
C796 H785 0.950 . S
C796 C794 1.391 . S
C796 C797 1.400 . S
C797 C791 1.491 . S
C797 C796 1.400 . S
C797 C798 1.398 . S
C798 H786 0.950 . S
C798 C797 1.398 . S
C798 C799 1.391 . S
C799 H787 0.950 . S
C799 C795 1.393 . S
C799 C798 1.391 . S
H800 C808 0.950 . S
H801 C813 0.950 . S
H802 C810 0.950 . S
H803 C812 0.950 . S
H804 C814 0.950 . S
H805 C816 0.950 . S
H806 C818 0.950 . S
H807 C819 0.950 . S
C808 H800 0.950 . S
C808 C809 1.386 . S
C808 C810 1.391 . S
C809 C808 1.386 . S
C809 C813 1.393 . S
C810 H802 0.950 . S
C810 C808 1.391 . S
C810 C811 1.400 . S
C811 C810 1.400 . S
C811 C812 1.398 . S
C811 C817 1.491 . S
C812 H803 0.950 . S
C812 C811 1.398 . S
C812 C813 1.391 . S
C813 H801 0.950 . S
C813 C809 1.393 . S
C813 C812 1.391 . S
C814 H804 0.950 . S
C814 C815 1.386 . S
C814 C816 1.391 . S
C815 C814 1.386 . S
C815 C819 1.393 . S
C816 H805 0.950 . S
C816 C814 1.391 . S
C816 C817 1.400 . S
C817 C811 1.491 . S
C817 C816 1.400 . S
C817 C818 1.398 . S
C818 H806 0.950 . S
C818 C817 1.398 . S
C818 C819 1.391 . S
C819 H807 0.950 . S
C819 C815 1.393 . S
C819 C818 1.391 . S
H820 C828 0.950 . S
H821 C833 0.950 . S
H822 C830 0.950 . S
H823 C832 0.950 . S
H824 C834 0.950 . S
H825 C836 0.950 . S
H826 C838 0.950 . S
H827 C839 0.950 . S
C828 H820 0.950 . S
C828 C829 1.386 . S
C828 C830 1.391 . S
C829 C828 1.386 . S
C829 C833 1.393 . S
C830 H822 0.950 . S
C830 C828 1.391 . S
C830 C831 1.400 . S
C831 C830 1.400 . S
C831 C832 1.398 . S
C831 C837 1.491 . S
C832 H823 0.950 . S
C832 C831 1.398 . S
C832 C833 1.391 . S
C833 H821 0.950 . S
C833 C829 1.393 . S
C833 C832 1.391 . S
C834 H824 0.950 . S
C834 C835 1.386 . S
C834 C836 1.391 . S
C835 C834 1.386 . S
C835 C839 1.393 . S
C836 H825 0.950 . S
C836 C834 1.391 . S
C836 C837 1.400 . S
C837 C831 1.491 . S
C837 C836 1.400 . S
C837 C838 1.398 . S
C838 H826 0.950 . S
C838 C837 1.398 . S
C838 C839 1.391 . S
C839 H827 0.950 . S
C839 C835 1.393 . S
C839 C838 1.391 . S
H840 C848 0.950 . S
H841 C853 0.950 . S
H842 C850 0.950 . S
H843 C852 0.950 . S
H844 C854 0.950 . S
H845 C856 0.950 . S
H846 C858 0.950 . S
H847 C859 0.950 . S
C848 H840 0.950 . S
C848 C849 1.386 . S
C848 C850 1.391 . S
C849 C848 1.386 . S
C849 C853 1.393 . S
C850 H842 0.950 . S
C850 C848 1.391 . S
C850 C851 1.400 . S
C851 C850 1.400 . S
C851 C852 1.398 . S
C851 C857 1.491 . S
C852 H843 0.950 . S
C852 C851 1.398 . S
C852 C853 1.391 . S
C853 H841 0.950 . S
C853 C849 1.393 . S
C853 C852 1.391 . S
C854 H844 0.950 . S
C854 C855 1.386 . S
C854 C856 1.391 . S
C855 C854 1.386 . S
C855 C859 1.393 . S
C856 H845 0.950 . S
C856 C854 1.391 . S
C856 C857 1.400 . S
C857 C851 1.491 . S
C857 C856 1.400 . S
C857 C858 1.398 . S
C858 H846 0.950 . S
C858 C857 1.398 . S
C858 C859 1.391 . S
C859 H847 0.950 . S
C859 C855 1.393 . S
C859 C858 1.391 . S
H860 C868 0.950 . S
H861 C873 0.950 . S
H862 C870 0.950 . S
H863 C872 0.950 . S
H864 C874 0.950 . S
H865 C876 0.950 . S
H866 C878 0.950 . S
H867 C879 0.950 . S
C868 H860 0.950 . S
C868 C869 1.386 . S
C868 C870 1.391 . S
C869 C868 1.386 . S
C869 C873 1.393 . S
C870 H862 0.950 . S
C870 C868 1.391 . S
C870 C871 1.400 . S
C871 C870 1.400 . S
C871 C872 1.398 . S
C871 C877 1.491 . S
C872 H863 0.950 . S
C872 C871 1.398 . S
C872 C873 1.391 . S
C873 H861 0.950 . S
C873 C869 1.393 . S
C873 C872 1.391 . S
C874 H864 0.950 . S
C874 C875 1.386 . S
C874 C876 1.391 . S
C875 C874 1.386 . S
C875 C879 1.393 . S
C876 H865 0.950 . S
C876 C874 1.391 . S
C876 C877 1.400 . S
C877 C871 1.491 . S
C877 C876 1.400 . S
C877 C878 1.398 . S
C878 H866 0.950 . S
C878 C877 1.398 . S
C878 C879 1.391 . S
C879 H867 0.950 . S
C879 C875 1.393 . S
C879 C878 1.391 . S
H880 C888 0.950 . S
H881 C893 0.950 . S
H882 C890 0.950 . S
H883 C892 0.950 . S
H884 C894 0.950 . S
H885 C896 0.950 . S
H886 C898 0.950 . S
H887 C899 0.950 . S
C888 H880 0.950 . S
C888 C889 1.386 . S
C888 C890 1.391 . S
C889 C888 1.386 . S
C889 C893 1.393 . S
C890 H882 0.950 . S
C890 C888 1.391 . S
C890 C891 1.400 . S
C891 C890 1.400 . S
C891 C892 1.398 . S
C891 C897 1.491 . S
C892 H883 0.950 . S
C892 C891 1.398 . S
C892 C893 1.391 . S
C893 H881 0.950 . S
C893 C889 1.393 . S
C893 C892 1.391 . S
C894 H884 0.950 . S
C894 C895 1.386 . S
C894 C896 1.391 . S
C895 C894 1.386 . S
C895 C899 1.393 . S
C896 H885 0.950 . S
C896 C894 1.391 . S
C896 C897 1.400 . S
C897 C891 1.491 . S
C897 C896 1.400 . S
C897 C898 1.398 . S
C898 H886 0.950 . S
C898 C897 1.398 . S
C898 C899 1.391 . S
C899 H887 0.950 . S
C899 C895 1.393 . S
C899 C898 1.391 . S
H900 C908 0.950 . S
H901 C913 0.950 . S
H902 C910 0.950 . S
H903 C912 0.950 . S
H904 C914 0.950 . S
H905 C916 0.950 . S
H906 C918 0.950 . S
H907 C919 0.950 . S
C908 H900 0.950 . S
C908 C909 1.386 . S
C908 C910 1.391 . S
C909 C908 1.386 . S
C909 C913 1.393 . S
C910 H902 0.950 . S
C910 C908 1.391 . S
C910 C911 1.400 . S
C911 C910 1.400 . S
C911 C912 1.398 . S
C911 C917 1.491 . S
C912 H903 0.950 . S
C912 C911 1.398 . S
C912 C913 1.391 . S
C913 H901 0.950 . S
C913 C909 1.393 . S
C913 C912 1.391 . S
C914 H904 0.950 . S
C914 C915 1.386 . S
C914 C916 1.391 . S
C915 C914 1.386 . S
C915 C919 1.393 . S
C916 H905 0.950 . S
C916 C914 1.391 . S
C916 C917 1.400 . S
C917 C911 1.491 . S
C917 C916 1.400 . S
C917 C918 1.398 . S
C918 H906 0.950 . S
C918 C917 1.398 . S
C918 C919 1.391 . S
C919 H907 0.950 . S
C919 C915 1.393 . S
C919 C918 1.391 . S
H920 C928 0.950 . S
H921 C933 0.950 . S
H922 C930 0.950 . S
H923 C932 0.950 . S
H924 C934 0.950 . S
H925 C936 0.950 . S
H926 C938 0.950 . S
H927 C939 0.950 . S
C928 H920 0.950 . S
C928 C929 1.386 . S
C928 C930 1.391 . S
C929 C928 1.386 . S
C929 C933 1.393 . S
C930 H922 0.950 . S
C930 C928 1.391 . S
C930 C931 1.400 . S
C931 C930 1.400 . S
C931 C932 1.398 . S
C931 C937 1.491 . S
C932 H923 0.950 . S
C932 C931 1.398 . S
C932 C933 1.391 . S
C933 H921 0.950 . S
C933 C929 1.393 . S
C933 C932 1.391 . S
C934 H924 0.950 . S
C934 C935 1.386 . S
C934 C936 1.391 . S
C935 C934 1.386 . S
C935 C939 1.393 . S
C936 H925 0.950 . S
C936 C934 1.391 . S
C936 C937 1.400 . S
C937 C931 1.491 . S
C937 C936 1.400 . S
C937 C938 1.398 . S
C938 H926 0.950 . S
C938 C937 1.398 . S
C938 C939 1.391 . S
C939 H927 0.950 . S
C939 C935 1.393 . S
C939 C938 1.391 . S
H940 C948 0.950 . S
H941 C953 0.950 . S
H942 C950 0.950 . S
H943 C952 0.950 . S
H944 C954 0.950 . S
H945 C956 0.950 . S
H946 C958 0.950 . S
H947 C959 0.950 . S
C948 H940 0.950 . S
C948 C949 1.386 . S
C948 C950 1.391 . S
C949 C948 1.386 . S
C949 C953 1.393 . S
C950 H942 0.950 . S
C950 C948 1.391 . S
C950 C951 1.400 . S
C951 C950 1.400 . S
C951 C952 1.398 . S
C951 C957 1.491 . S
C952 H943 0.950 . S
C952 C951 1.398 . S
C952 C953 1.391 . S
C953 H941 0.950 . S
C953 C949 1.393 . S
C953 C952 1.391 . S
C954 H944 0.950 . S
C954 C955 1.386 . S
C954 C956 1.391 . S
C955 C954 1.386 . S
C955 C959 1.393 . S
C956 H945 0.950 . S
C956 C954 1.391 . S
C956 C957 1.400 . S
C957 C951 1.491 . S
C957 C956 1.400 . S
C957 C958 1.398 . S
C958 H946 0.950 . S
C958 C957 1.398 . S
C958 C959 1.391 . S
C959 H947 0.950 . S
C959 C955 1.393 . S
C959 C958 1.391 . S
H960 C968 0.950 . S
H961 C973 0.950 . S
H962 C970 0.950 . S
H963 C972 0.950 . S
H964 C974 0.950 . S
H965 C976 0.950 . S
H966 C978 0.950 . S
H967 C979 0.950 . S
C968 H960 0.950 . S
C968 C969 1.386 . S
C968 C970 1.391 . S
C969 C968 1.386 . S
C969 C973 1.393 . S
C970 H962 0.950 . S
C970 C968 1.391 . S
C970 C971 1.400 . S
C971 C970 1.400 . S
C971 C972 1.398 . S
C971 C977 1.491 . S
C972 H963 0.950 . S
C972 C971 1.398 . S
C972 C973 1.391 . S
C973 H961 0.950 . S
C973 C969 1.393 . S
C973 C972 1.391 . S
C974 H964 0.950 . S
C974 C975 1.386 . S
C974 C976 1.391 . S
C975 C974 1.386 . S
C975 C979 1.393 . S
C976 H965 0.950 . S
C976 C974 1.391 . S
C976 C977 1.400 . S
C977 C971 1.491 . S
C977 C976 1.400 . S
C977 C978 1.398 . S
C978 H966 0.950 . S
C978 C977 1.398 . S
C978 C979 1.391 . S
C979 H967 0.950 . S
C979 C975 1.393 . S
C979 C978 1.391 . S
H980 C988 0.950 . S
H981 C993 0.950 . S
H982 C990 0.950 . S
H983 C992 0.950 1_455 S
H984 C994 0.950 . S
H985 C996 0.950 . S
H986 C998 0.950 . S
H987 C999 0.950 . S
C988 H980 0.950 . S
C988 C989 1.386 . S
C988 C990 1.391 . S
C989 C988 1.386 . S
C989 C993 1.393 . S
C990 H982 0.950 . S
C990 C988 1.391 . S
C990 C991 1.400 1_655 S
C991 C990 1.400 1_455 S
C991 C992 1.398 1_455 S
C991 C997 1.491 . S
C992 H983 0.950 1_655 S
C992 C991 1.398 1_655 S
C992 C993 1.391 . S
C993 H981 0.950 . S
C993 C989 1.393 . S
C993 C992 1.391 . S
C994 H984 0.950 . S
C994 C995 1.386 . S
C994 C996 1.391 . S
C995 C994 1.386 . S
C995 C999 1.393 . S
C996 H985 0.950 . S
C996 C994 1.391 . S
C996 C997 1.400 . S
C997 C991 1.491 . S
C997 C996 1.400 . S
C997 C998 1.398 . S
C998 H986 0.950 . S
C998 C997 1.398 . S
C998 C999 1.391 . S
C999 H987 0.950 . S
C999 C995 1.393 . S
C999 C998 1.391 . S
H1000 C1008 0.950 . S
H1001 C1013 0.950 . S
H1002 C1010 0.950 . S
H1003 C1012 0.950 . S
H1004 C1014 0.950 . S
H1005 C1016 0.950 . S
H1006 C1018 0.950 . S
H1007 C1019 0.950 . S
C1008 H1000 0.950 . S
C1008 C1009 1.386 . S
C1008 C1010 1.391 . S
C1009 C1008 1.386 . S
C1009 C1013 1.393 . S
C1010 H1002 0.950 . S
C1010 C1008 1.391 . S
C1010 C1011 1.400 . S
C1011 C1010 1.400 . S
C1011 C1012 1.398 . S
C1011 C1017 1.491 . S
C1012 H1003 0.950 . S
C1012 C1011 1.398 . S
C1012 C1013 1.391 . S
C1013 H1001 0.950 . S
C1013 C1009 1.393 . S
C1013 C1012 1.391 . S
C1014 H1004 0.950 . S
C1014 C1015 1.386 . S
C1014 C1016 1.391 . S
C1015 C1014 1.386 . S
C1015 C1019 1.393 . S
C1016 H1005 0.950 . S
C1016 C1014 1.391 . S
C1016 C1017 1.400 . S
C1017 C1011 1.491 . S
C1017 C1016 1.400 . S
C1017 C1018 1.398 . S
C1018 H1006 0.950 . S
C1018 C1017 1.398 . S
C1018 C1019 1.391 . S
C1019 H1007 0.950 . S
C1019 C1015 1.393 . S
C1019 C1018 1.391 . S
H1020 C1028 0.950 . S
H1021 C1033 0.950 . S
H1022 C1030 0.950 . S
H1023 C1032 0.950 . S
H1024 C1034 0.950 . S
H1025 C1036 0.950 . S
H1026 C1038 0.950 . S
H1027 C1039 0.950 . S
C1028 H1020 0.950 . S
C1028 C1029 1.386 . S
C1028 C1030 1.391 . S
C1029 C1028 1.386 . S
C1029 C1033 1.393 . S
C1030 H1022 0.950 . S
C1030 C1028 1.391 . S
C1030 C1031 1.400 . S
C1031 C1030 1.400 . S
C1031 C1032 1.398 . S
C1031 C1037 1.491 . S
C1032 H1023 0.950 . S
C1032 C1031 1.398 . S
C1032 C1033 1.391 . S
C1033 H1021 0.950 . S
C1033 C1029 1.393 . S
C1033 C1032 1.391 . S
C1034 H1024 0.950 . S
C1034 C1035 1.386 . S
C1034 C1036 1.391 . S
C1035 C1034 1.386 . S
C1035 C1039 1.393 . S
C1036 H1025 0.950 . S
C1036 C1034 1.391 . S
C1036 C1037 1.400 . S
C1037 C1031 1.491 . S
C1037 C1036 1.400 . S
C1037 C1038 1.398 . S
C1038 H1026 0.950 . S
C1038 C1037 1.398 . S
C1038 C1039 1.391 . S
C1039 H1027 0.950 . S
C1039 C1035 1.393 . S
C1039 C1038 1.391 . S
H1040 C1048 0.950 . S
H1041 C1053 0.950 . S
H1042 C1050 0.950 . S
H1043 C1052 0.950 . S
H1044 C1054 0.950 . S
H1045 C1056 0.950 . S
H1046 C1058 0.950 . S
H1047 C1059 0.950 . S
C1048 H1040 0.950 . S
C1048 C1049 1.386 . S
C1048 C1050 1.391 . S
C1049 C1048 1.386 . S
C1049 C1053 1.393 . S
C1050 H1042 0.950 . S
C1050 C1048 1.391 . S
C1050 C1051 1.400 . S
C1051 C1050 1.400 . S
C1051 C1052 1.398 . S
C1051 C1057 1.491 . S
C1052 H1043 0.950 . S
C1052 C1051 1.398 . S
C1052 C1053 1.391 . S
C1053 H1041 0.950 . S
C1053 C1049 1.393 . S
C1053 C1052 1.391 . S
C1054 H1044 0.950 . S
C1054 C1055 1.386 . S
C1054 C1056 1.391 . S
C1055 C1054 1.386 . S
C1055 C1059 1.393 . S
C1056 H1045 0.950 . S
C1056 C1054 1.391 . S
C1056 C1057 1.400 . S
C1057 C1051 1.491 . S
C1057 C1056 1.400 . S
C1057 C1058 1.398 . S
C1058 H1046 0.950 . S
C1058 C1057 1.398 . S
C1058 C1059 1.391 . S
C1059 H1047 0.950 . S
C1059 C1055 1.393 . S
C1059 C1058 1.391 . S
H1060 C1068 0.950 . S
H1061 C1073 0.950 . S
H1062 C1070 0.950 . S
H1063 C1072 0.950 . S
H1064 C1074 0.950 . S
H1065 C1076 0.950 . S
H1066 C1078 0.950 . S
H1067 C1079 0.950 . S
C1068 H1060 0.950 . S
C1068 C1069 1.386 . S
C1068 C1070 1.391 . S
C1069 C1068 1.386 . S
C1069 C1073 1.393 . S
C1070 H1062 0.950 . S
C1070 C1068 1.391 . S
C1070 C1071 1.400 . S
C1071 C1070 1.400 . S
C1071 C1072 1.398 . S
C1071 C1077 1.491 . S
C1072 H1063 0.950 . S
C1072 C1071 1.398 . S
C1072 C1073 1.391 . S
C1073 H1061 0.950 . S
C1073 C1069 1.393 . S
C1073 C1072 1.391 . S
C1074 H1064 0.950 . S
C1074 C1075 1.386 . S
C1074 C1076 1.391 . S
C1075 C1074 1.386 . S
C1075 C1079 1.393 . S
C1076 H1065 0.950 . S
C1076 C1074 1.391 . S
C1076 C1077 1.400 . S
C1077 C1071 1.491 . S
C1077 C1076 1.400 . S
C1077 C1078 1.398 . S
C1078 H1066 0.950 . S
C1078 C1077 1.398 . S
C1078 C1079 1.391 . S
C1079 H1067 0.950 . S
C1079 C1075 1.393 . S
C1079 C1078 1.391 . S
H1080 C1088 0.950 . S
H1081 C1093 0.950 . S
H1082 C1090 0.950 . S
H1083 C1092 0.950 . S
H1084 C1094 0.950 . S
H1085 C1096 0.950 . S
H1086 C1098 0.950 . S
H1087 C1099 0.950 . S
C1088 H1080 0.950 . S
C1088 C1089 1.386 . S
C1088 C1090 1.391 . S
C1089 C1088 1.386 . S
C1089 C1093 1.393 . S
C1090 H1082 0.950 . S
C1090 C1088 1.391 . S
C1090 C1091 1.400 . S
C1091 C1090 1.400 . S
C1091 C1092 1.398 . S
C1091 C1097 1.491 . S
C1092 H1083 0.950 . S
C1092 C1091 1.398 . S
C1092 C1093 1.391 . S
C1093 H1081 0.950 . S
C1093 C1089 1.393 . S
C1093 C1092 1.391 . S
C1094 H1084 0.950 . S
C1094 C1095 1.386 . S
C1094 C1096 1.391 . S
C1095 C1094 1.386 . S
C1095 C1099 1.393 . S
C1096 H1085 0.950 . S
C1096 C1094 1.391 . S
C1096 C1097 1.400 . S
C1097 C1091 1.491 . S
C1097 C1096 1.400 . S
C1097 C1098 1.398 . S
C1098 H1086 0.950 . S
C1098 C1097 1.398 . S
C1098 C1099 1.391 . S
C1099 H1087 0.950 . S
C1099 C1095 1.393 . S
C1099 C1098 1.391 . S
H1100 C1108 0.950 . S
H1101 C1113 0.950 . S
H1102 C1110 0.950 . S
H1103 C1112 0.950 . S
H1104 C1114 0.950 . S
H1105 C1116 0.950 . S
H1106 C1118 0.950 . S
H1107 C1119 0.950 . S
C1108 H1100 0.950 . S
C1108 C1109 1.386 . S
C1108 C1110 1.391 . S
C1109 C1108 1.386 . S
C1109 C1113 1.393 . S
C1110 H1102 0.950 . S
C1110 C1108 1.391 . S
C1110 C1111 1.400 . S
C1111 C1110 1.400 . S
C1111 C1112 1.398 . S
C1111 C1117 1.491 . S
C1112 H1103 0.950 . S
C1112 C1111 1.398 . S
C1112 C1113 1.391 . S
C1113 H1101 0.950 . S
C1113 C1109 1.393 . S
C1113 C1112 1.391 . S
C1114 H1104 0.950 . S
C1114 C1115 1.386 . S
C1114 C1116 1.391 1_655 S
C1115 C1114 1.386 . S
C1115 C1119 1.393 . S
C1116 H1105 0.950 . S
C1116 C1114 1.391 1_455 S
C1116 C1117 1.400 . S
C1117 C1111 1.491 . S
C1117 C1116 1.400 . S
C1117 C1118 1.398 1_455 S
C1118 H1106 0.950 . S
C1118 C1117 1.398 1_655 S
C1118 C1119 1.391 . S
C1119 H1107 0.950 . S
C1119 C1115 1.393 . S
C1119 C1118 1.391 . S
H1120 C1128 0.950 . S
H1121 C1133 0.950 . S
H1122 C1130 0.950 1_556 S
H1123 C1132 0.950 . S
H1124 C1134 0.950 . S
H1125 C1136 0.950 1_554 S
H1126 C1138 0.950 . S
H1127 C1139 0.950 . S
C1128 H1120 0.950 . S
C1128 C1129 1.386 . S
C1128 C1130 1.391 . S
C1129 C1128 1.386 . S
C1129 C1133 1.393 . S
C1130 H1122 0.950 1_554 S
C1130 C1128 1.391 . S
C1130 C1131 1.400 . S
C1131 C1130 1.400 . S
C1131 C1132 1.398 1_545 S
C1131 C1137 1.491 1_544 S
C1132 H1123 0.950 . S
C1132 C1131 1.398 1_565 S
C1132 C1133 1.391 1_565 S
C1133 H1121 0.950 . S
C1133 C1129 1.393 . S
C1133 C1132 1.391 1_545 S
C1134 H1124 0.950 . S
C1134 C1135 1.386 . S
C1134 C1136 1.391 . S
C1135 C1134 1.386 . S
C1135 C1139 1.393 . S
C1136 H1125 0.950 1_556 S
C1136 C1134 1.391 . S
C1136 C1137 1.400 . S
C1137 C1131 1.491 1_566 S
C1137 C1136 1.400 . S
C1137 C1138 1.398 1_565 S
C1138 H1126 0.950 . S
C1138 C1137 1.398 1_545 S
C1138 C1139 1.391 1_545 S
C1139 H1127 0.950 . S
C1139 C1135 1.393 . S
C1139 C1138 1.391 1_565 S
H1140 C1148 0.950 . S
H1141 C1153 0.950 . S
H1142 C1150 0.950 . S
H1143 C1152 0.950 . S
H1144 C1154 0.950 . S
H1145 C1156 0.950 . S
H1146 C1158 0.950 . S
H1147 C1159 0.950 . S
C1148 H1140 0.950 . S
C1148 C1149 1.386 . S
C1148 C1150 1.391 . S
C1149 C1148 1.386 . S
C1149 C1153 1.393 . S
C1150 H1142 0.950 . S
C1150 C1148 1.391 . S
C1150 C1151 1.400 . S
C1151 C1150 1.400 . S
C1151 C1152 1.398 . S
C1151 C1157 1.491 . S
C1152 H1143 0.950 . S
C1152 C1151 1.398 . S
C1152 C1153 1.391 . S
C1153 H1141 0.950 . S
C1153 C1149 1.393 . S
C1153 C1152 1.391 . S
C1154 H1144 0.950 . S
C1154 C1155 1.386 . S
C1154 C1156 1.391 . S
C1155 C1154 1.386 . S
C1155 C1159 1.393 . S
C1156 H1145 0.950 . S
C1156 C1154 1.391 . S
C1156 C1157 1.400 . S
C1157 C1151 1.491 . S
C1157 C1156 1.400 . S
C1157 C1158 1.398 . S
C1158 H1146 0.950 . S
C1158 C1157 1.398 . S
C1158 C1159 1.391 . S
C1159 H1147 0.950 . S
C1159 C1155 1.393 . S
C1159 C1158 1.391 . S
H1160 C1168 0.950 . S
H1161 C1173 0.950 . S
H1162 C1170 0.950 . S
H1163 C1172 0.927 1_565 S
H1164 C1174 0.950 . S
H1165 C1176 0.950 . S
H1166 C1178 0.950 1_545 S
H1167 C1179 0.950 . S
C1168 H1160 0.950 . S
C1168 C1169 1.386 . S
C1168 C1170 1.391 . S
C1169 C1168 1.386 . S
C1169 C1173 1.393 . S
C1170 H1162 0.950 . S
C1170 C1168 1.391 . S
C1170 C1171 1.400 . S
C1171 C1170 1.400 . S
C1171 C1172 1.398 . S
C1171 C1177 1.491 1_545 S
C1172 H1163 0.927 1_545 S
C1172 C1171 1.398 . S
C1172 C1173 1.391 . S
C1173 H1161 0.950 . S
C1173 C1169 1.393 . S
C1173 C1172 1.391 . S
C1174 H1164 0.950 . S
C1174 C1175 1.386 . S
C1174 C1176 1.391 . S
C1175 C1174 1.386 . S
C1175 C1179 1.393 . S
C1176 H1165 0.950 . S
C1176 C1174 1.391 . S
C1176 C1177 1.400 . S
C1177 C1171 1.491 1_565 S
C1177 C1176 1.400 . S
C1177 C1178 1.398 . S
C1178 H1166 0.950 1_565 S
C1178 C1177 1.398 . S
C1178 C1179 1.391 . S
C1179 H1167 0.950 . S
C1179 C1175 1.393 . S
C1179 C1178 1.391 . S
H1180 C1188 0.950 . S
H1181 C1193 0.950 . S
H1182 C1190 0.950 . S
H1183 C1192 0.950 . S
H1184 C1194 0.950 . S
H1185 C1196 0.950 . S
H1186 C1198 0.950 . S
H1187 C1199 0.950 . S
C1188 H1180 0.950 . S
C1188 C1189 1.386 . S
C1188 C1190 1.391 . S
C1189 C1188 1.386 . S
C1189 C1193 1.393 . S
C1190 H1182 0.950 . S
C1190 C1188 1.391 . S
C1190 C1191 1.400 . S
C1191 C1190 1.400 . S
C1191 C1192 1.398 . S
C1191 C1197 1.491 . S
C1192 H1183 0.950 . S
C1192 C1191 1.398 . S
C1192 C1193 1.391 . S
C1193 H1181 0.950 . S
C1193 C1189 1.393 . S
C1193 C1192 1.391 . S
C1194 H1184 0.950 . S
C1194 C1195 1.386 . S
C1194 C1196 1.391 . S
C1195 C1194 1.386 . S
C1195 C1199 1.393 . S
C1196 H1185 0.950 . S
C1196 C1194 1.391 . S
C1196 C1197 1.400 . S
C1197 C1191 1.491 . S
C1197 C1196 1.400 . S
C1197 C1198 1.398 . S
C1198 H1186 0.950 . S
C1198 C1197 1.398 . S
C1198 C1199 1.391 . S
C1199 H1187 0.950 . S
C1199 C1195 1.393 . S
C1199 C1198 1.391 . S
H1200 C1208 0.950 . S
H1201 C1213 0.950 . S
H1202 C1210 0.950 . S
H1203 C1212 0.950 . S
H1204 C1214 0.950 . S
H1205 C1216 0.950 . S
H1206 C1218 0.950 . S
H1207 C1219 0.950 . S
C1208 H1200 0.950 . S
C1208 C1209 1.386 . S
C1208 C1210 1.391 . S
C1209 C1208 1.386 . S
C1209 C1213 1.393 . S
C1210 H1202 0.950 . S
C1210 C1208 1.391 . S
C1210 C1211 1.400 . S
C1211 C1210 1.400 . S
C1211 C1212 1.398 . S
C1211 C1217 1.491 . S
C1212 H1203 0.950 . S
C1212 C1211 1.398 . S
C1212 C1213 1.391 . S
C1213 H1201 0.950 . S
C1213 C1209 1.393 . S
C1213 C1212 1.391 . S
C1214 H1204 0.950 . S
C1214 C1215 1.386 . S
C1214 C1216 1.391 . S
C1215 C1214 1.386 . S
C1215 C1219 1.393 . S
C1216 H1205 0.950 . S
C1216 C1214 1.391 . S
C1216 C1217 1.400 . S
C1217 C1211 1.491 . S
C1217 C1216 1.400 . S
C1217 C1218 1.398 . S
C1218 H1206 0.950 . S
C1218 C1217 1.398 . S
C1218 C1219 1.391 . S
C1219 H1207 0.950 . S
C1219 C1215 1.393 . S
C1219 C1218 1.391 . S
H1220 C1228 0.950 . S
H1221 C1233 0.950 . S
H1222 C1230 0.950 . S
H1223 C1232 0.950 . S
H1224 C1234 0.950 . S
H1225 C1236 0.950 . S
H1226 C1238 0.950 . S
H1227 C1239 0.950 . S
C1228 H1220 0.950 . S
C1228 C1229 1.386 . S
C1228 C1230 1.391 . S
C1229 C1228 1.386 . S
C1229 C1233 1.393 . S
C1230 H1222 0.950 . S
C1230 C1228 1.391 . S
C1230 C1231 1.400 . S
C1231 C1230 1.400 . S
C1231 C1232 1.398 . S
C1231 C1237 1.491 . S
C1232 H1223 0.950 . S
C1232 C1231 1.398 . S
C1232 C1233 1.391 . S
C1233 H1221 0.950 . S
C1233 C1229 1.393 . S
C1233 C1232 1.391 . S
C1234 H1224 0.950 . S
C1234 C1235 1.386 . S
C1234 C1236 1.391 . S
C1235 C1234 1.386 . S
C1235 C1239 1.393 . S
C1236 H1225 0.950 . S
C1236 C1234 1.391 . S
C1236 C1237 1.400 . S
C1237 C1231 1.491 . S
C1237 C1236 1.400 . S
C1237 C1238 1.398 . S
C1238 H1226 0.950 . S
C1238 C1237 1.398 . S
C1238 C1239 1.391 . S
C1239 H1227 0.950 . S
C1239 C1235 1.393 . S
C1239 C1238 1.391 . S
H1240 C1248 0.950 . S
H1241 C1253 0.950 . S
H1242 C1250 0.950 . S
H1243 C1252 0.950 . S
H1244 C1254 0.950 . S
H1245 C1256 0.950 . S
H1246 C1258 0.950 . S
H1247 C1259 0.950 . S
C1248 H1240 0.950 . S
C1248 C1249 1.386 . S
C1248 C1250 1.391 . S
C1249 C1248 1.386 . S
C1249 C1253 1.393 . S
C1250 H1242 0.950 . S
C1250 C1248 1.391 . S
C1250 C1251 1.400 . S
C1251 C1250 1.400 . S
C1251 C1252 1.398 . S
C1251 C1257 1.491 . S
C1252 H1243 0.950 . S
C1252 C1251 1.398 . S
C1252 C1253 1.391 . S
C1253 H1241 0.950 . S
C1253 C1249 1.393 . S
C1253 C1252 1.391 . S
C1254 H1244 0.950 . S
C1254 C1255 1.386 . S
C1254 C1256 1.391 . S
C1255 C1254 1.386 . S
C1255 C1259 1.393 . S
C1256 H1245 0.950 . S
C1256 C1254 1.391 . S
C1256 C1257 1.400 . S
C1257 C1251 1.491 . S
C1257 C1256 1.400 . S
C1257 C1258 1.398 . S
C1258 H1246 0.950 . S
C1258 C1257 1.398 . S
C1258 C1259 1.391 . S
C1259 H1247 0.950 . S
C1259 C1255 1.393 . S
C1259 C1258 1.391 . S
H1260 C1268 0.950 . S
H1261 C1273 0.950 . S
H1262 C1270 0.950 . S
H1263 C1272 0.950 1_554 S
H1264 C1274 0.950 1_655 S
H1265 C1276 0.950 1_655 S
H1266 C1278 0.950 1_556 S
H1267 C1279 0.950 . S
C1268 H1260 0.950 . S
C1268 C1269 1.386 . S
C1268 C1270 1.391 . S
C1269 C1268 1.386 . S
C1269 C1273 1.393 1_455 S
C1270 H1262 0.950 . S
C1270 C1268 1.391 . S
C1270 C1271 1.400 . S
C1271 C1270 1.400 . S
C1271 C1272 1.398 1_455 S
C1271 C1277 1.491 1_556 S
C1272 H1263 0.950 1_556 S
C1272 C1271 1.398 1_655 S
C1272 C1273 1.391 . S
C1273 H1261 0.950 . S
C1273 C1269 1.393 1_655 S
C1273 C1272 1.391 . S
C1274 H1264 0.950 1_455 S
C1274 C1275 1.386 . S
C1274 C1276 1.391 . S
C1275 C1274 1.386 . S
C1275 C1279 1.393 . S
C1276 H1265 0.950 1_455 S
C1276 C1274 1.391 . S
C1276 C1277 1.400 . S
C1277 C1271 1.491 1_554 S
C1277 C1276 1.400 . S
C1277 C1278 1.398 . S
C1278 H1266 0.950 1_554 S
C1278 C1277 1.398 . S
C1278 C1279 1.391 . S
C1279 H1267 0.950 . S
C1279 C1275 1.393 . S
C1279 C1278 1.391 . S
H1280 C1288 0.950 . S
H1281 C1293 0.950 . S
H1282 C1290 0.950 . S
H1283 C1292 0.950 . S
H1284 C1294 0.950 . S
H1285 C1296 0.950 . S
H1286 C1298 0.950 . S
H1287 C1299 0.950 . S
C1288 H1280 0.950 . S
C1288 C1289 1.386 . S
C1288 C1290 1.391 . S
C1289 C1288 1.386 . S
C1289 C1293 1.393 . S
C1290 H1282 0.950 . S
C1290 C1288 1.391 . S
C1290 C1291 1.400 . S
C1291 C1290 1.400 . S
C1291 C1292 1.398 . S
C1291 C1297 1.491 . S
C1292 H1283 0.950 . S
C1292 C1291 1.398 . S
C1292 C1293 1.391 . S
C1293 H1281 0.950 . S
C1293 C1289 1.393 . S
C1293 C1292 1.391 . S
C1294 H1284 0.950 . S
C1294 C1295 1.386 . S
C1294 C1296 1.391 . S
C1295 C1294 1.386 . S
C1295 C1299 1.393 . S
C1296 H1285 0.950 . S
C1296 C1294 1.391 . S
C1296 C1297 1.400 . S
C1297 C1291 1.491 . S
C1297 C1296 1.400 . S
C1297 C1298 1.398 . S
C1298 H1286 0.950 . S
C1298 C1297 1.398 . S
C1298 C1299 1.391 . S
C1299 H1287 0.950 . S
C1299 C1295 1.393 . S
C1299 C1298 1.391 . S
H1300 C1308 0.950 . S
H1301 C1313 0.950 . S
H1302 C1310 0.950 . S
H1303 C1312 0.950 . S
H1304 C1314 0.950 . S
H1305 C1316 0.950 . S
H1306 C1318 0.950 . S
H1307 C1319 0.950 . S
C1308 H1300 0.950 . S
C1308 C1309 1.386 . S
C1308 C1310 1.391 . S
C1309 C1308 1.386 . S
C1309 C1313 1.393 . S
C1310 H1302 0.950 . S
C1310 C1308 1.391 . S
C1310 C1311 1.400 . S
C1311 C1310 1.400 . S
C1311 C1312 1.398 . S
C1311 C1317 1.491 . S
C1312 H1303 0.950 . S
C1312 C1311 1.398 . S
C1312 C1313 1.391 . S
C1313 H1301 0.950 . S
C1313 C1309 1.393 . S
C1313 C1312 1.391 . S
C1314 H1304 0.950 . S
C1314 C1315 1.386 . S
C1314 C1316 1.391 . S
C1315 C1314 1.386 . S
C1315 C1319 1.393 . S
C1316 H1305 0.950 . S
C1316 C1314 1.391 . S
C1316 C1317 1.400 . S
C1317 C1311 1.491 . S
C1317 C1316 1.400 . S
C1317 C1318 1.398 . S
C1318 H1306 0.950 . S
C1318 C1317 1.398 . S
C1318 C1319 1.391 . S
C1319 H1307 0.950 . S
C1319 C1315 1.393 . S
C1319 C1318 1.391 . S
H1320 C1328 0.950 . S
H1321 C1333 0.950 . S
H1322 C1330 0.950 . S
H1323 C1332 0.950 . S
H1324 C1334 0.950 . S
H1325 C1336 0.950 . S
H1326 C1338 0.950 . S
H1327 C1339 0.950 . S
C1328 H1320 0.950 . S
C1328 C1329 1.386 . S
C1328 C1330 1.391 . S
C1329 C1328 1.386 . S
C1329 C1333 1.393 . S
C1330 H1322 0.950 . S
C1330 C1328 1.391 . S
C1330 C1331 1.400 . S
C1331 C1330 1.400 . S
C1331 C1332 1.398 . S
C1331 C1337 1.491 . S
C1332 H1323 0.950 . S
C1332 C1331 1.398 . S
C1332 C1333 1.391 . S
C1333 H1321 0.950 . S
C1333 C1329 1.393 . S
C1333 C1332 1.391 . S
C1334 H1324 0.950 . S
C1334 C1335 1.386 . S
C1334 C1336 1.391 . S
C1335 C1334 1.386 . S
C1335 C1339 1.393 . S
C1336 H1325 0.950 . S
C1336 C1334 1.391 . S
C1336 C1337 1.400 . S
C1337 C1331 1.491 . S
C1337 C1336 1.400 . S
C1337 C1338 1.398 . S
C1338 H1326 0.950 . S
C1338 C1337 1.398 . S
C1338 C1339 1.391 . S
C1339 H1327 0.950 . S
C1339 C1335 1.393 . S
C1339 C1338 1.391 . S
H1340 C1348 0.950 . S
H1341 C1353 0.950 . S
H1342 C1350 0.950 . S
H1343 C1352 0.950 . S
H1344 C1354 0.950 . S
H1345 C1356 0.950 . S
H1346 C1358 0.950 . S
H1347 C1359 0.950 . S
C1348 H1340 0.950 . S
C1348 C1349 1.386 . S
C1348 C1350 1.391 . S
C1349 C1348 1.386 . S
C1349 C1353 1.393 . S
C1350 H1342 0.950 . S
C1350 C1348 1.391 . S
C1350 C1351 1.400 . S
C1351 C1350 1.400 . S
C1351 C1352 1.398 . S
C1351 C1357 1.491 . S
C1352 H1343 0.950 . S
C1352 C1351 1.398 . S
C1352 C1353 1.391 . S
C1353 H1341 0.950 . S
C1353 C1349 1.393 . S
C1353 C1352 1.391 . S
C1354 H1344 0.950 . S
C1354 C1355 1.386 . S
C1354 C1356 1.391 . S
C1355 C1354 1.386 . S
C1355 C1359 1.393 . S
C1356 H1345 0.950 . S
C1356 C1354 1.391 . S
C1356 C1357 1.400 . S
C1357 C1351 1.491 . S
C1357 C1356 1.400 . S
C1357 C1358 1.398 . S
C1358 H1346 0.950 . S
C1358 C1357 1.398 . S
C1358 C1359 1.391 . S
C1359 H1347 0.950 . S
C1359 C1355 1.393 . S
C1359 C1358 1.391 . S
H1360 C1368 0.950 . S
H1361 C1373 0.950 . S
H1362 C1370 0.950 . S
H1363 C1372 0.950 . S
H1364 C1374 0.950 . S
H1365 C1376 0.950 . S
H1366 C1378 0.950 . S
H1367 C1379 0.950 . S
C1368 H1360 0.950 . S
C1368 C1369 1.386 . S
C1368 C1370 1.391 . S
C1369 C1368 1.386 . S
C1369 C1373 1.393 . S
C1370 H1362 0.950 . S
C1370 C1368 1.391 . S
C1370 C1371 1.400 . S
C1371 C1370 1.400 . S
C1371 C1372 1.398 . S
C1371 C1377 1.491 . S
C1372 H1363 0.950 . S
C1372 C1371 1.398 . S
C1372 C1373 1.391 . S
C1373 H1361 0.950 . S
C1373 C1369 1.393 . S
C1373 C1372 1.391 . S
C1374 H1364 0.950 . S
C1374 C1375 1.386 . S
C1374 C1376 1.391 . S
C1375 C1374 1.386 . S
C1375 C1379 1.393 . S
C1376 H1365 0.950 . S
C1376 C1374 1.391 . S
C1376 C1377 1.400 . S
C1377 C1371 1.491 . S
C1377 C1376 1.400 . S
C1377 C1378 1.398 . S
C1378 H1366 0.950 . S
C1378 C1377 1.398 . S
C1378 C1379 1.391 . S
C1379 H1367 0.950 . S
C1379 C1375 1.393 . S
C1379 C1378 1.391 . S
H1380 C1388 0.950 . S
H1381 C1393 0.950 . S
H1382 C1390 0.950 . S
H1383 C1392 0.950 . S
H1384 C1394 0.950 . S
H1385 C1396 0.950 . S
H1386 C1398 0.950 . S
H1387 C1399 0.936 1_455 S
C1388 H1380 0.950 . S
C1388 C1389 1.386 . S
C1388 C1390 1.391 . S
C1389 C1388 1.386 . S
C1389 C1393 1.393 . S
C1390 H1382 0.950 . S
C1390 C1388 1.391 . S
C1390 C1391 1.400 . S
C1391 C1390 1.400 . S
C1391 C1392 1.398 . S
C1391 C1397 1.491 . S
C1392 H1383 0.950 . S
C1392 C1391 1.398 . S
C1392 C1393 1.391 . S
C1393 H1381 0.950 . S
C1393 C1389 1.393 . S
C1393 C1392 1.391 . S
C1394 H1384 0.950 . S
C1394 C1395 1.386 . S
C1394 C1396 1.391 . S
C1395 C1394 1.386 . S
C1395 C1399 1.400 . S
C1396 H1385 0.950 . S
C1396 C1394 1.391 . S
C1396 C1397 1.400 . S
C1397 C1391 1.491 . S
C1397 C1396 1.400 . S
C1397 C1398 1.398 . S
C1398 H1386 0.950 . S
C1398 C1397 1.398 . S
C1398 C1399 1.397 . S
C1399 H1387 0.936 1_655 S
C1399 C1395 1.400 . S
C1399 C1398 1.397 . S
H1400 C1408 0.950 . S
H1401 C1413 0.950 . S
H1402 C1410 0.950 . S
H1403 C1412 0.950 . S
H1404 C1414 0.950 . S
H1405 C1416 0.950 . S
H1406 C1418 0.950 . S
H1407 C1419 0.950 . S
C1408 H1400 0.950 . S
C1408 C1409 1.386 . S
C1408 C1410 1.391 . S
C1409 C1408 1.386 . S
C1409 C1413 1.393 . S
C1410 H1402 0.950 . S
C1410 C1408 1.391 . S
C1410 C1411 1.400 . S
C1411 C1410 1.400 . S
C1411 C1412 1.398 . S
C1411 C1417 1.491 . S
C1412 H1403 0.950 . S
C1412 C1411 1.398 . S
C1412 C1413 1.391 . S
C1413 H1401 0.950 . S
C1413 C1409 1.393 . S
C1413 C1412 1.391 . S
C1414 H1404 0.950 . S
C1414 C1415 1.386 . S
C1414 C1416 1.391 . S
C1415 C1414 1.386 . S
C1415 C1419 1.393 . S
C1416 H1405 0.950 . S
C1416 C1414 1.391 . S
C1416 C1417 1.400 . S
C1417 C1411 1.491 . S
C1417 C1416 1.400 . S
C1417 C1418 1.398 . S
C1418 H1406 0.950 . S
C1418 C1417 1.398 . S
C1418 C1419 1.391 . S
C1419 H1407 0.950 . S
C1419 C1415 1.393 . S
C1419 C1418 1.391 . S
H1420 C1428 0.950 . S
H1421 C1433 0.950 . S
H1422 C1430 0.950 . S
H1423 C1432 0.950 . S
H1424 C1434 0.950 . S
H1425 C1436 0.950 . S
H1426 C1438 0.950 . S
H1427 C1439 0.950 . S
C1428 H1420 0.950 . S
C1428 C1429 1.386 . S
C1428 C1430 1.391 . S
C1429 C1428 1.386 . S
C1429 C1433 1.393 . S
C1430 H1422 0.950 . S
C1430 C1428 1.391 . S
C1430 C1431 1.400 . S
C1431 C1430 1.400 . S
C1431 C1432 1.398 . S
C1431 C1437 1.491 . S
C1432 H1423 0.950 . S
C1432 C1431 1.398 . S
C1432 C1433 1.391 . S
C1433 H1421 0.950 . S
C1433 C1429 1.393 . S
C1433 C1432 1.391 . S
C1434 H1424 0.950 . S
C1434 C1435 1.386 . S
C1434 C1436 1.391 . S
C1435 C1434 1.386 . S
C1435 C1439 1.393 . S
C1436 H1425 0.950 . S
C1436 C1434 1.391 . S
C1436 C1437 1.400 . S
C1437 C1431 1.491 . S
C1437 C1436 1.400 . S
C1437 C1438 1.398 . S
C1438 H1426 0.950 . S
C1438 C1437 1.398 . S
C1438 C1439 1.391 . S
C1439 H1427 0.950 . S
C1439 C1435 1.393 . S
C1439 C1438 1.391 . S
H1440 C1448 0.950 . S
H1441 C1453 0.950 . S
H1442 C1450 0.950 . S
H1443 C1452 0.950 . S
H1444 C1454 0.950 . S
H1445 C1456 0.950 . S
H1446 C1458 0.948 . S
H1447 C1459 0.950 . S
C1448 H1440 0.950 . S
C1448 C1449 1.386 . S
C1448 C1450 1.391 . S
C1449 C1448 1.386 . S
C1449 C1453 1.393 . S
C1450 H1442 0.950 . S
C1450 C1448 1.391 . S
C1450 C1451 1.400 . S
C1451 C1450 1.400 . S
C1451 C1452 1.398 . S
C1451 C1457 1.491 . S
C1452 H1443 0.950 . S
C1452 C1451 1.398 . S
C1452 C1453 1.391 . S
C1453 H1441 0.950 . S
C1453 C1449 1.393 . S
C1453 C1452 1.391 . S
C1454 H1444 0.950 . S
C1454 C1455 1.386 1_556 S
C1454 C1456 1.391 . S
C1455 C1454 1.386 1_554 S
C1455 C1459 1.393 . S
C1456 H1445 0.950 . S
C1456 C1454 1.391 . S
C1456 C1457 1.400 . S
C1457 C1451 1.491 . S
C1457 C1456 1.400 . S
C1457 C1458 1.375 1_556 S
C1458 H1446 0.948 . S
C1458 C1457 1.375 1_554 S
C1458 C1459 1.416 . S
C1459 H1447 0.950 . S
C1459 C1455 1.393 . S
C1459 C1458 1.416 . S
H1460 C1468 0.950 . S
H1461 C1473 0.950 . S
H1462 C1470 0.950 . S
H1463 C1472 0.950 . S
H1464 C1474 0.950 . S
H1465 C1476 0.950 . S
H1466 C1478 0.950 . S
H1467 C1479 0.950 . S
C1468 H1460 0.950 . S
C1468 C1469 1.386 . S
C1468 C1470 1.391 . S
C1469 C1468 1.386 . S
C1469 C1473 1.393 . S
C1470 H1462 0.950 . S
C1470 C1468 1.391 . S
C1470 C1471 1.400 . S
C1471 C1470 1.400 . S
C1471 C1472 1.398 . S
C1471 C1477 1.491 . S
C1472 H1463 0.950 . S
C1472 C1471 1.398 . S
C1472 C1473 1.391 . S
C1473 H1461 0.950 . S
C1473 C1469 1.393 . S
C1473 C1472 1.391 . S
C1474 H1464 0.950 . S
C1474 C1475 1.386 . S
C1474 C1476 1.391 . S
C1475 C1474 1.386 . S
C1475 C1479 1.393 . S
C1476 H1465 0.950 . S
C1476 C1474 1.391 . S
C1476 C1477 1.400 . S
C1477 C1471 1.491 . S
C1477 C1476 1.400 . S
C1477 C1478 1.398 . S
C1478 H1466 0.950 . S
C1478 C1477 1.398 . S
C1478 C1479 1.391 . S
C1479 H1467 0.950 . S
C1479 C1475 1.393 . S
C1479 C1478 1.391 . S
H1480 C1488 0.950 1_455 S
H1481 C1493 0.950 . S
H1482 C1490 0.950 . S
H1483 C1492 0.950 . S
H1484 C1494 0.950 . S
H1485 C1496 0.950 . S
H1486 C1498 0.950 . S
H1487 C1499 0.950 . S
C1488 H1480 0.950 1_655 S
C1488 C1489 1.386 . S
C1488 C1490 1.391 . S
C1489 C1488 1.386 . S
C1489 C1493 1.393 . S
C1490 H1482 0.950 . S
C1490 C1488 1.391 . S
C1490 C1491 1.400 . S
C1491 C1490 1.400 . S
C1491 C1492 1.398 . S
C1491 C1497 1.491 . S
C1492 H1483 0.950 . S
C1492 C1491 1.398 . S
C1492 C1493 1.391 . S
C1493 H1481 0.950 . S
C1493 C1489 1.393 . S
C1493 C1492 1.391 . S
C1494 H1484 0.950 . S
C1494 C1495 1.386 . S
C1494 C1496 1.391 . S
C1495 C1494 1.386 . S
C1495 C1499 1.393 . S
C1496 H1485 0.950 . S
C1496 C1494 1.391 . S
C1496 C1497 1.400 . S
C1497 C1491 1.491 . S
C1497 C1496 1.400 . S
C1497 C1498 1.398 . S
C1498 H1486 0.950 . S
C1498 C1497 1.398 . S
C1498 C1499 1.391 . S
C1499 H1487 0.950 . S
C1499 C1495 1.393 . S
C1499 C1498 1.391 . S
H1500 C1508 0.950 . S
H1501 C1513 0.950 . S
H1502 C1510 0.950 . S
H1503 C1512 0.950 . S
H1504 C1514 0.950 . S
H1505 C1516 0.950 . S
H1506 C1518 0.950 . S
H1507 C1519 0.950 . S
C1508 H1500 0.950 . S
C1508 C1509 1.386 . S
C1508 C1510 1.391 . S
C1509 C1508 1.386 . S
C1509 C1513 1.393 . S
C1510 H1502 0.950 . S
C1510 C1508 1.391 . S
C1510 C1511 1.400 . S
C1511 C1510 1.400 . S
C1511 C1512 1.398 . S
C1511 C1517 1.491 . S
C1512 H1503 0.950 . S
C1512 C1511 1.398 . S
C1512 C1513 1.391 . S
C1513 H1501 0.950 . S
C1513 C1509 1.393 . S
C1513 C1512 1.391 . S
C1514 H1504 0.950 . S
C1514 C1515 1.386 . S
C1514 C1516 1.391 . S
C1515 C1514 1.386 . S
C1515 C1519 1.393 . S
C1516 H1505 0.950 . S
C1516 C1514 1.391 . S
C1516 C1517 1.400 . S
C1517 C1511 1.491 . S
C1517 C1516 1.400 . S
C1517 C1518 1.398 . S
C1518 H1506 0.950 . S
C1518 C1517 1.398 . S
C1518 C1519 1.391 . S
C1519 H1507 0.950 . S
C1519 C1515 1.393 . S
C1519 C1518 1.391 . S
H1520 C1528 0.950 . S
H1521 C1533 0.950 . S
H1522 C1530 0.950 . S
H1523 C1532 0.950 . S
H1524 C1534 0.950 . S
H1525 C1536 0.950 . S
H1526 C1538 0.950 . S
H1527 C1539 0.950 . S
C1528 H1520 0.950 . S
C1528 C1529 1.386 . S
C1528 C1530 1.391 . S
C1529 C1528 1.386 . S
C1529 C1533 1.393 . S
C1530 H1522 0.950 . S
C1530 C1528 1.391 . S
C1530 C1531 1.400 . S
C1531 C1530 1.400 . S
C1531 C1532 1.398 . S
C1531 C1537 1.491 . S
C1532 H1523 0.950 . S
C1532 C1531 1.398 . S
C1532 C1533 1.391 . S
C1533 H1521 0.950 . S
C1533 C1529 1.393 . S
C1533 C1532 1.391 . S
C1534 H1524 0.950 . S
C1534 C1535 1.386 . S
C1534 C1536 1.391 1_556 S
C1535 C1534 1.386 . S
C1535 C1539 1.393 . S
C1536 H1525 0.950 . S
C1536 C1534 1.391 1_554 S
C1536 C1537 1.400 . S
C1537 C1531 1.491 . S
C1537 C1536 1.400 . S
C1537 C1538 1.398 . S
C1538 H1526 0.950 . S
C1538 C1537 1.398 . S
C1538 C1539 1.391 1_554 S
C1539 H1527 0.950 . S
C1539 C1535 1.393 . S
C1539 C1538 1.391 1_556 S
H1540 C1548 0.950 . S
H1541 C1553 0.950 . S
H1542 C1550 0.950 . S
H1543 C1552 0.950 . S
H1544 C1554 0.950 . S
H1545 C1556 0.950 . S
H1546 C1558 0.950 . S
H1547 C1559 0.950 . S
C1548 H1540 0.950 . S
C1548 C1549 1.386 . S
C1548 C1550 1.391 . S
C1549 C1548 1.386 . S
C1549 C1553 1.393 . S
C1550 H1542 0.950 . S
C1550 C1548 1.391 . S
C1550 C1551 1.400 . S
C1551 C1550 1.400 . S
C1551 C1552 1.398 . S
C1551 C1557 1.491 . S
C1552 H1543 0.950 . S
C1552 C1551 1.398 . S
C1552 C1553 1.391 . S
C1553 H1541 0.950 . S
C1553 C1549 1.393 . S
C1553 C1552 1.391 . S
C1554 H1544 0.950 . S
C1554 C1555 1.386 . S
C1554 C1556 1.391 . S
C1555 C1554 1.386 . S
C1555 C1559 1.393 . S
C1556 H1545 0.950 . S
C1556 C1554 1.391 . S
C1556 C1557 1.400 . S
C1557 C1551 1.491 . S
C1557 C1556 1.400 . S
C1557 C1558 1.398 . S
C1558 H1546 0.950 . S
C1558 C1557 1.398 . S
C1558 C1559 1.391 . S
C1559 H1547 0.950 . S
C1559 C1555 1.393 . S
C1559 C1558 1.391 . S
H1560 C1568 0.950 . S
H1561 C1573 0.950 . S
H1562 C1570 0.950 . S
H1563 C1572 0.950 . S
H1564 C1574 0.950 . S
H1565 C1576 0.950 . S
H1566 C1578 0.950 . S
H1567 C1579 0.950 . S
C1568 H1560 0.950 . S
C1568 C1569 1.386 . S
C1568 C1570 1.391 . S
C1569 C1568 1.386 . S
C1569 C1573 1.393 . S
C1570 H1562 0.950 . S
C1570 C1568 1.391 . S
C1570 C1571 1.400 . S
C1571 C1570 1.400 . S
C1571 C1572 1.398 . S
C1571 C1577 1.491 . S
C1572 H1563 0.950 . S
C1572 C1571 1.398 . S
C1572 C1573 1.391 . S
C1573 H1561 0.950 . S
C1573 C1569 1.393 . S
C1573 C1572 1.391 . S
C1574 H1564 0.950 . S
C1574 C1575 1.386 . S
C1574 C1576 1.391 . S
C1575 C1574 1.386 . S
C1575 C1579 1.393 . S
C1576 H1565 0.950 . S
C1576 C1574 1.391 . S
C1576 C1577 1.400 . S
C1577 C1571 1.491 . S
C1577 C1576 1.400 . S
C1577 C1578 1.398 . S
C1578 H1566 0.950 . S
C1578 C1577 1.398 . S
C1578 C1579 1.391 . S
C1579 H1567 0.950 . S
C1579 C1575 1.393 . S
C1579 C1578 1.391 . S
H1580 C1588 0.950 . S
H1581 C1593 0.950 . S
H1582 C1590 0.950 . S
H1583 C1592 0.950 . S
H1584 C1594 0.950 . S
H1585 C1596 0.950 . S
H1586 C1598 0.950 . S
H1587 C1599 0.950 . S
C1588 H1580 0.950 . S
C1588 C1589 1.386 . S
C1588 C1590 1.391 . S
C1589 C1588 1.386 . S
C1589 C1593 1.393 . S
C1590 H1582 0.950 . S
C1590 C1588 1.391 . S
C1590 C1591 1.400 . S
C1591 C1590 1.400 . S
C1591 C1592 1.398 . S
C1591 C1597 1.491 . S
C1592 H1583 0.950 . S
C1592 C1591 1.398 . S
C1592 C1593 1.391 . S
C1593 H1581 0.950 . S
C1593 C1589 1.393 . S
C1593 C1592 1.391 . S
C1594 H1584 0.950 . S
C1594 C1595 1.386 . S
C1594 C1596 1.391 . S
C1595 C1594 1.386 . S
C1595 C1599 1.393 . S
C1596 H1585 0.950 . S
C1596 C1594 1.391 . S
C1596 C1597 1.400 . S
C1597 C1591 1.491 . S
C1597 C1596 1.400 . S
C1597 C1598 1.398 . S
C1598 H1586 0.950 . S
C1598 C1597 1.398 . S
C1598 C1599 1.391 . S
C1599 H1587 0.950 . S
C1599 C1595 1.393 . S
C1599 C1598 1.391 . S
C649 C11 0.368 . S
C655 C287 0.363 . S
C669 C51 2.046 . S
C675 C167 2.057 . S
C689 C207 0.822 . S
C695 C87 0.737 . S
C709 C131 2.825 . S
C715 C251 2.772 . S
C729 C456 0.341 . S
C735 C162 0.334 . S
C749 C322 2.034 . S
C755 C16 2.054 . S
C769 C416 0.852 . S
C775 C256 0.760 . S
C789 C82 2.770 . S
C795 C362 2.817 . S
C809 C367 0.404 . S
C815 C491 0.357 . S
C829 C411 2.046 . S
C835 C567 2.050 . S
C849 C527 0.747 . S
C855 C327 0.813 . S
C869 C451 2.825 . S
C875 C611 2.776 1_554 S
C889 C562 0.331 . S
C895 C136 0.342 . S
C909 C496 2.053 . S
C915 C202 2.034 . S
C929 C56 0.832 . S
C935 C616 0.763 . S
C949 C282 2.816 . S
C955 C522 2.775 1_556 S
C969 C530 0.513 . S
C975 C19 0.375 . S
C989 C459 0.651 . S
C995 C59 0.748 . S
C1009 C499 0.463 . S
C1015 C90 0.424 . S
C1029 C419 0.685 . S
C1035 C139 0.654 . S
C1049 C170 0.461 . S
C1055 C619 0.426 . S
C1069 C370 0.637 . S
C1075 C210 0.664 . S
C1089 C259 0.513 . S
C1095 C570 0.375 . S
C1109 C290 0.667 . S
C1115 C330 0.752 . S
C1129 C10 1.560 . S
C1135 C179 1.560 . S
C1149 C50 1.950 . S
C1155 C219 1.950 . S
C1169 C250 1.502 . S
C1175 C99 1.502 . S
C1189 C130 1.230 . S
C1195 C299 1.230 . S
C1209 C410 1.937 . S
C1215 C339 1.937 . S
C1229 C450 1.246 . S
C1235 C379 1.246 . S
C1249 C490 1.577 . S
C1255 C579 1.577 . S
C1269 C610 1.485 1_455 S
C1275 C539 1.485 . S
C1289 C7 2.792 . S
C1295 C291 2.856 . S
C1309 C47 0.956 . S
C1315 C171 1.000 . S
C1329 C211 3.617 1_556 S
C1335 C91 3.592 . S
C1349 C247 0.615 . S
C1355 C127 0.658 . S
C1369 C442 2.851 . S
C1375 C176 2.794 . S
C1389 C336 0.957 . S
C1395 C2 0.983 . S
C1409 C402 3.617 1_554 S
C1415 C242 3.592 . S
C1429 C96 0.592 . S
C1435 C376 0.600 . S
C1449 C487 2.796 . S
C1455 C371 2.852 . S
C1469 C571 0.996 . S
C1475 C407 0.941 . S
C1489 C531 3.598 1_655 S
C1495 C331 3.616 . S
C1509 C607 0.624 . S
C1515 C447 0.591 . S
C1529 C576 2.795 . S
C1535 C122 2.855 . S
C1549 C216 0.973 . S
C1555 C482 0.990 . S
C1569 C42 3.619 . S
C1575 C602 3.594 . S
C1589 C536 0.639 . S
C1595 C296 0.662 . S
