# Generated by pormake.
# Topology soe, (5)-cn, num edge types: 1
# Building blocks:
#     Node 0, Type 0, BuildingBlock: XOMCOT_clean_sbu_1, # of connection points: 5
#     Node 1, Type 0, BuildingBlock: XOMCOT_clean_sbu_1, # of connection points: 5
#     Node 2, Type 0, BuildingBlock: XOMCOT_clean_sbu_1, # of connection points: 5
#     Node 3, Type 0, BuildingBlock: XOMCOT_clean_sbu_1, # of connection points: 5
#     Node 4, Type 0, BuildingBlock: XOMCOT_clean_sbu_1, # of connection points: 5
#     Node 5, Type 0, BuildingBlock: XOMCOT_clean_sbu_1, # of connection points: 5
#     Node 6, Type 0, BuildingBlock: XOMCOT_clean_sbu_1, # of connection points: 5
#     Node 7, Type 0, BuildingBlock: XOMCOT_clean_sbu_1, # of connection points: 5
#     Edge 8, Type (0, 0), BuildingBlock: CIFDUS_clean_linker_0, # of connection points: 2
#     Edge 9, Type (0, 0), BuildingBlock: CIFDUS_clean_linker_0, # of connection points: 2
#     Edge 10, Type (0, 0), BuildingBlock: CIFDUS_clean_linker_0, # of connection points: 2
#     Edge 11, Type (0, 0), BuildingBlock: CIFDUS_clean_linker_0, # of connection points: 2
#     Edge 12, Type (0, 0), BuildingBlock: CIFDUS_clean_linker_0, # of connection points: 2
#     Edge 13, Type (0, 0), BuildingBlock: CIFDUS_clean_linker_0, # of connection points: 2
#     Edge 14, Type (0, 0), BuildingBlock: CIFDUS_clean_linker_0, # of connection points: 2
#     Edge 15, Type (0, 0), BuildingBlock: CIFDUS_clean_linker_0, # of connection points: 2
#     Edge 16, Type (0, 0), BuildingBlock: CIFDUS_clean_linker_0, # of connection points: 2
#     Edge 17, Type (0, 0), BuildingBlock: CIFDUS_clean_linker_0, # of connection points: 2
#     Edge 18, Type (0, 0), BuildingBlock: CIFDUS_clean_linker_0, # of connection points: 2
#     Edge 19, Type (0, 0), BuildingBlock: CIFDUS_clean_linker_0, # of connection points: 2
#     Edge 20, Type (0, 0), BuildingBlock: CIFDUS_clean_linker_0, # of connection points: 2
#     Edge 21, Type (0, 0), BuildingBlock: CIFDUS_clean_linker_0, # of connection points: 2
#     Edge 22, Type (0, 0), BuildingBlock: CIFDUS_clean_linker_0, # of connection points: 2
#     Edge 23, Type (0, 0), BuildingBlock: CIFDUS_clean_linker_0, # of connection points: 2
#     Edge 24, Type (0, 0), BuildingBlock: CIFDUS_clean_linker_0, # of connection points: 2
#     Edge 25, Type (0, 0), BuildingBlock: CIFDUS_clean_linker_0, # of connection points: 2
#     Edge 26, Type (0, 0), BuildingBlock: CIFDUS_clean_linker_0, # of connection points: 2
#     Edge 27, Type (0, 0), BuildingBlock: CIFDUS_clean_linker_0, # of connection points: 2
# Relax obj value: 0.051
# Max RMSD: 0.083
# Mean RMSD: 0.083
data_MOF--net-soe--node1-XOMCOT_clean_sbu_1--edge1-CIFDUS_clean_linker_0
_symmetry_space_group_name_H-M    P1
_symmetry_Int_Tables_number       1
_symmetry_cell_setting            triclinic
loop_
_symmetry_equiv_pos_as_xyz
'x, y, z'
_cell_length_a     48.970295
_cell_length_b     40.421934
_cell_length_c     15.655442
_cell_angle_alpha  90.363434
_cell_angle_beta   89.730688
_cell_angle_gamma 90.288348
loop_
_atom_site_label
_atom_site_type_symbol
_atom_site_fract_x
_atom_site_fract_y
_atom_site_fract_z
_atom_type_partial_charge
C0 C 0.14443 0.15185 0.9957 0.0
C1 C 0.14788 0.15588 0.90915 0.0
N2 N 0.12682 0.14117 0.86824 0.0
N3 N 0.12131 0.13464 1.0105 0.0
C4 C 0.11095 0.1285 0.93158 0.0
H5 H 0.15829 0.16024 0.04496 0.0
Co6 Co 0.11016 0.12176 0.12088 0.0
C7 C 0.07747 0.06085 0.08763 0.0
O8 O 0.0913 0.04597 0.14792 0.0
N9 N 0.09843 0.10998 0.23445 0.0
C10 C 0.06919 0.09907 0.34088 0.0
C11 C 0.07221 0.10238 0.25416 0.0
C12 C 0.11053 0.11297 0.31246 0.0
N13 N 0.09328 0.10581 0.37795 0.0
O14 O 0.08432 0.15726 0.12437 0.0
H15 H 0.05569 0.10097 0.20876 0.0
H16 H 0.13115 0.12159 0.32234 0.0
O17 O 0.08286 0.09114 0.07019 0.0
C18 C 0.09674 0.18203 0.15712 0.0
O19 O 0.12247 0.1788 0.17864 0.0
N20 N 0.13811 0.08963 0.11882 0.0
C21 C 0.18835 0.05697 0.09982 0.0
C22 C 0.16633 0.0499 0.04507 0.0
C23 C 0.14152 0.06668 0.0551 0.0
C24 C 0.15941 0.09717 0.17118 0.0
C25 C 0.18421 0.0805 0.16485 0.0
H26 H 0.12588 0.06289 1.00761 0.0
H27 H 0.15812 0.11813 0.21364 0.0
H28 H 0.09223 0.11484 0.92075 0.0
H29 H 0.16513 0.16793 0.87891 0.0
H30 H 0.05029 0.09388 0.37448 0.0
H31 H 0.1686 0.03293 0.99178 0.0
H32 H 0.2003 0.08713 0.20897 0.0
C33 C 0.42257 0.88513 0.02832 0.0
C34 C 0.42571 0.88611 0.94084 0.0
N35 N 0.42924 0.91791 0.91788 0.0
N36 N 0.4243 0.91618 0.05991 0.0
C37 C 0.42857 0.93548 0.99118 0.0
H38 H 0.4182 0.86333 0.06569 0.0
Co39 Co 0.41884 0.93113 0.17073 0.0
C40 C 0.45781 0.98881 0.18953 0.0
O41 O 0.4436 1.00211 0.25216 0.0
N42 N 0.41318 0.94614 0.28395 0.0
C43 C 0.39398 0.96379 0.40487 0.0
C44 C 0.39082 0.96069 0.31819 0.0
C45 C 0.42967 0.94097 0.35167 0.0
N46 N 0.41836 0.9511 0.42601 0.0
O47 O 0.44307 0.89743 0.2122 0.0
H48 H 0.37265 0.96744 0.28394 0.0
H49 H 0.44936 0.92909 0.34702 0.0
O50 O 0.44956 0.96193 0.15444 0.0
C51 C 0.42788 0.87419 0.2406 0.0
O52 O 0.40128 0.87717 0.23356 0.0
N53 N 0.39239 0.96063 0.13055 0.0
C54 C 0.34383 0.99426 0.09578 0.0
C55 C 0.36928 1.01084 0.0943 0.0
C56 C 0.3934 0.99359 0.11237 0.0
C57 C 0.36834 0.94373 0.1255 0.0
C58 C 0.34391 0.95998 0.10988 0.0
H59 H 0.4125 1.00692 0.11289 0.0
H60 H 0.36795 0.91756 0.13935 0.0
H61 H 0.43025 0.96215 0.99456 0.0
H62 H 0.42388 0.86534 0.89721 0.0
H63 H 0.37868 0.97269 0.44941 0.0
H64 H 0.37063 0.03703 0.08095 0.0
H65 H 0.32521 0.94572 0.11353 0.0
C66 C 0.11013 0.37579 0.50017 0.0
C67 C 0.10702 0.37698 0.5876 0.0
N68 N 0.10616 0.40899 0.6119 0.0
N69 N 0.11109 0.40694 0.46992 0.0
C70 C 0.10836 0.42653 0.53937 0.0
H71 H 0.11272 0.35367 0.46194 0.0
Co72 Co 0.11787 0.42106 0.35948 0.0
C73 C 0.07687 0.47719 0.337 0.0
O74 O 0.08677 0.48742 0.26364 0.0
N75 N 0.12491 0.43475 0.2473 0.0
C76 C 0.14701 0.44697 0.12718 0.0
C77 C 0.14921 0.4443 0.21422 0.0
C78 C 0.10847 0.43117 0.17872 0.0
N79 N 0.12139 0.43848 0.10497 0.0
O80 O 0.09316 0.38748 0.31643 0.0
H81 H 0.1679 0.44715 0.24998 0.0
H82 H 0.08763 0.42228 0.18253 0.0
O83 O 0.0878 0.45268 0.37494 0.0
C84 C 0.10737 0.36375 0.28601 0.0
O85 O 0.13411 0.36575 0.29085 0.0
N86 N 0.14435 0.45118 0.40097 0.0
C87 C 0.19237 0.48657 0.43643 0.0
C88 C 0.16883 0.50278 0.40712 0.0
C89 C 0.14494 0.48467 0.39025 0.0
C90 C 0.16651 0.4353 0.43305 0.0
C91 C 0.19048 0.4525 0.45241 0.0
H92 H 0.12781 0.49733 0.36311 0.0
H93 H 0.16598 0.4087 0.44016 0.0
H94 H 0.10909 0.45328 0.53703 0.0
H95 H 0.10712 0.35604 0.63035 0.0
H96 H 0.16354 0.45233 0.08317 0.0
H97 H 0.16917 0.52892 0.39265 0.0
H98 H 0.20763 0.43885 0.47719 0.0
C99 C 0.3839 0.65335 0.54269 0.0
C100 C 0.38329 0.65699 0.63009 0.0
N101 N 0.40805 0.6489 0.66039 0.0
N102 N 0.40882 0.64263 0.51844 0.0
C103 C 0.42317 0.64059 0.59147 0.0
H104 H 0.36709 0.65763 0.4997 0.0
Co105 Co 0.4194 0.63126 0.40827 0.0
C106 C 0.45803 0.5745 0.43538 0.0
O107 O 0.44697 0.55722 0.37297 0.0
N108 N 0.43017 0.62091 0.29648 0.0
C109 C 0.45681 0.61594 0.18164 0.0
C110 C 0.45621 0.61723 0.26918 0.0
C111 C 0.41549 0.62295 0.22387 0.0
N112 N 0.43115 0.61978 0.15309 0.0
O113 O 0.44404 0.66827 0.40485 0.0
H114 H 0.47396 0.61747 0.30994 0.0
H115 H 0.39416 0.62932 0.22217 0.0
O116 O 0.44852 0.60306 0.45439 0.0
C117 C 0.43089 0.6947 0.39001 0.0
O118 O 0.40417 0.69315 0.38433 0.0
N119 N 0.39282 0.59727 0.40957 0.0
C120 C 0.34489 0.5595 0.4209 0.0
C121 C 0.36876 0.54949 0.46264 0.0
C122 C 0.39237 0.56926 0.45817 0.0
C123 C 0.36958 0.60742 0.37014 0.0
C124 C 0.34557 0.58886 0.37417 0.0
H125 H 0.40951 0.56286 0.4976 0.0
H126 H 0.36913 0.63134 0.33989 0.0
H127 H 0.44402 0.63209 0.59472 0.0
H128 H 0.36597 0.6647 0.66839 0.0
H129 H 0.47493 0.61362 0.14231 0.0
H130 H 0.36874 0.52749 0.50179 0.0
H131 H 0.32749 0.59783 0.34234 0.0
C132 C 0.91633 0.87323 0.92516 0.0
C133 C 0.91852 0.86819 1.01168 0.0
N134 N 0.92615 0.89682 0.04965 0.0
N135 N 0.92268 0.90488 0.90714 0.0
C136 C 0.92848 0.91873 0.98445 0.0
H137 H 0.90966 0.85507 0.87867 0.0
Co138 Co 0.91988 0.92362 0.79705 0.0
C139 C 0.95562 0.98477 0.80461 0.0
O140 O 0.94218 0.99937 0.74333 0.0
N141 N 0.91627 0.94245 0.68271 0.0
C142 C 0.89977 0.97176 0.57367 0.0
C143 C 0.89868 0.96665 0.66008 0.0
C144 C 0.92778 0.9334 0.60629 0.0
N145 N 0.91795 0.95075 0.5391 0.0
O146 O 0.94705 0.89298 0.75575 0.0
H147 H 0.88551 0.98025 0.70292 0.0
H148 H 0.94301 0.91434 0.59917 0.0
O149 O 0.94838 0.95589 0.82924 0.0
C150 C 0.93495 0.86906 0.71768 0.0
O151 O 0.90835 0.87049 0.70785 0.0
N152 N 0.89111 0.94948 0.8381 0.0
C153 C 0.84107 0.97618 0.8899 0.0
C154 C 0.86589 0.99184 0.91183 0.0
C155 C 0.89087 0.97793 0.88562 0.0
C156 C 0.86737 0.93368 0.81822 0.0
C157 C 0.84225 0.94673 0.84217 0.0
H158 H 0.90973 0.98977 0.90432 0.0
H159 H 0.86804 0.91086 0.78185 0.0
H160 H 0.93389 0.94452 0.99285 0.0
H161 H 0.91373 0.84535 0.04426 0.0
H162 H 0.88731 0.98899 0.53859 0.0
H163 H 0.86607 1.01432 0.94977 0.0
H164 H 0.8239 0.93395 0.82188 0.0
C165 C 0.64807 0.15877 0.05176 0.0
C166 C 0.64823 0.1622 0.1392 0.0
N167 N 0.62493 0.14893 0.16995 0.0
N168 N 0.62488 0.14317 0.02797 0.0
C169 C 0.6111 0.13775 0.10132 0.0
H170 H 0.66406 0.16654 1.00835 0.0
Co171 Co 0.61651 0.12971 0.91806 0.0
C172 C 0.58801 0.0647 0.94489 0.0
O173 O 0.60296 0.05081 0.88474 0.0
N174 N 0.60785 0.11671 0.80612 0.0
C175 C 0.58242 0.10477 0.69231 0.0
C176 C 0.58292 0.10647 0.77977 0.0
C177 C 0.62175 0.12225 0.73276 0.0
N178 N 0.60688 0.11489 0.6628 0.0
O179 O 0.58621 0.16039 0.91104 0.0
H180 H 0.56548 0.10245 0.82107 0.0
H181 H 0.64147 0.13409 0.72955 0.0
O182 O 0.59192 0.09518 0.96408 0.0
C183 C 0.58575 0.19089 0.93298 0.0
O184 O 0.60197 0.20155 0.99379 0.0
N185 N 0.64774 0.10244 0.92052 0.0
C186 C 0.70047 0.07569 0.92854 0.0
C187 C 0.67889 0.06229 0.97727 0.0
C188 C 0.65273 0.07638 0.97342 0.0
C189 C 0.66873 0.11643 0.87601 0.0
C190 C 0.69481 0.10299 0.87685 0.0
H191 H 0.63708 0.06742 0.0163 0.0
H192 H 0.66566 0.13957 0.84363 0.0
H193 H 0.59173 0.12488 0.10489 0.0
H194 H 0.6643 0.17327 0.17722 0.0
H195 H 0.56501 0.09789 0.65363 0.0
H196 H 0.68237 0.04204 0.02074 0.0
H197 H 0.71053 0.11458 0.83832 0.0
C198 C 0.88948 0.64483 0.52676 0.0
C199 C 0.88502 0.64573 0.44001 0.0
N200 N 0.90656 0.63186 0.39981 0.0
N201 N 0.91363 0.63025 0.54192 0.0
C202 C 0.92373 0.62289 0.4632 0.0
H203 H 0.87576 0.65374 0.57602 0.0
Co204 Co 0.92677 0.62154 0.65212 0.0
C205 C 0.96089 0.56148 0.62897 0.0
O206 O 0.94909 0.54886 0.69708 0.0
N207 N 0.94057 0.61385 0.76515 0.0
C208 C 0.97223 0.61009 0.86643 0.0
C209 C 0.96754 0.61069 0.78033 0.0
C210 C 0.92943 0.61637 0.84492 0.0
N211 N 0.94831 0.61403 0.9081 0.0
O212 O 0.95205 0.65786 0.64188 0.0
H213 H 0.98325 0.61026 0.73159 0.0
H214 H 0.90824 0.62192 0.85684 0.0
O215 O 0.95379 0.59022 0.60331 0.0
C216 C 0.9421 0.68238 0.68293 0.0
O217 O 0.91831 0.67884 0.72096 0.0
N218 N 0.89948 0.58872 0.66319 0.0
C219 C 0.85019 0.55311 0.664 0.0
C220 C 0.87198 0.54348 0.61083 0.0
C221 C 0.89624 0.56202 0.60999 0.0
C222 C 0.87833 0.59864 0.71398 0.0
C223 C 0.85379 0.58095 0.71663 0.0
H224 H 0.91154 0.55608 0.56258 0.0
H225 H 0.87969 0.62185 0.74809 0.0
H226 H 0.94291 0.61037 0.45242 0.0
H227 H 0.86728 0.65592 0.40895 0.0
H228 H 0.99212 0.60778 0.89531 0.0
H229 H 0.86978 0.5229 0.56673 0.0
H230 H 0.83749 0.58968 0.7578 0.0
C231 C 0.65309 0.39374 0.54307 0.0
C232 C 0.65353 0.39014 0.45568 0.0
N233 N 0.62886 0.39873 0.42568 0.0
N234 N 0.62833 0.40482 0.56778 0.0
C235 C 0.61392 0.40721 0.49491 0.0
H236 H 0.66995 0.38927 0.58575 0.0
Co237 Co 0.61842 0.41723 0.67805 0.0
C238 C 0.58254 0.4767 0.64757 0.0
O239 O 0.59423 0.49413 0.70855 0.0
N240 N 0.60829 0.42889 0.78977 0.0
C241 C 0.582 0.43671 0.90451 0.0
C242 C 0.5826 0.43535 0.81693 0.0
C243 C 0.62267 0.42534 0.86259 0.0
N244 N 0.60725 0.43024 0.93318 0.0
O245 O 0.59135 0.38254 0.68381 0.0
H246 H 0.56491 0.43683 0.77615 0.0
H247 H 0.64341 0.41662 0.86477 0.0
O248 O 0.59088 0.44738 0.63115 0.0
C249 C 0.59842 0.35227 0.67893 0.0
O250 O 0.62334 0.34502 0.65419 0.0
N251 N 0.64674 0.44914 0.67586 0.0
C252 C 0.69601 0.48466 0.66802 0.0
C253 C 0.67298 0.49517 0.6224 0.0
C254 C 0.64865 0.47665 0.62577 0.0
C255 C 0.66918 0.43821 0.71811 0.0
C256 C 0.69371 0.4558 0.7166 0.0
H257 H 0.63207 0.4836 0.58463 0.0
H258 H 0.66859 0.41448 0.74928 0.0
H259 H 0.59324 0.41627 0.49202 0.0
H260 H 0.67075 0.38226 0.41716 0.0
H261 H 0.5641 0.44085 0.94385 0.0
H262 H 0.67409 0.51663 0.58149 0.0
H263 H 0.7109 0.44636 0.75207 0.0
H264 H 0.29457 0.97154 0.03315 0.0
H265 H 0.33242 0.05837 0.14502 0.0
H266 H 0.28845 0.0859 0.1487 0.0
H267 H 0.23893 0.08436 0.12952 0.0
H268 H 0.2002 0.99453 0.03886 0.0
H269 H 0.24486 0.96927 0.01876 0.0
C270 C 0.2934 0.9963 0.05967 0.0
C271 C 0.31724 1.01243 0.08943 0.0
C272 C 0.26769 1.01153 0.06613 0.0
C273 C 0.31489 0.04514 0.1202 0.0
C274 C 0.28954 0.0609 0.1235 0.0
C275 C 0.23999 0.05902 0.10686 0.0
C276 C 0.21582 0.04146 0.08666 0.0
C277 C 0.26574 0.04408 0.09839 0.0
C278 C 0.21818 1.00902 0.05426 0.0
C279 C 0.24381 0.99438 0.04322 0.0
H280 H 0.24376 0.46245 0.40578 0.0
H281 H 0.20165 0.55129 0.48505 0.0
H282 H 0.24496 0.5813 0.4879 0.0
H283 H 0.29474 0.58284 0.46431 0.0
H284 H 0.337 0.4934 0.39358 0.0
H285 H 0.29368 0.4628 0.39402 0.0
C286 C 0.24391 0.48817 0.42568 0.0
C287 C 0.21912 0.50443 0.44468 0.0
C288 C 0.269 0.5052 0.42896 0.0
C289 C 0.22012 0.53809 0.46832 0.0
C290 C 0.24497 0.55529 0.47061 0.0
C291 C 0.29442 0.55661 0.44923 0.0
C292 C 0.31897 0.54041 0.42814 0.0
C293 C 0.26949 0.5392 0.45016 0.0
C294 C 0.31838 0.50635 0.41015 0.0
C295 C 0.29361 0.48893 0.40999 0.0
H296 H 0.71668 1.01123 0.94746 0.0
H297 H 0.74885 0.11035 0.92099 0.0
H298 H 0.79495 0.0887 0.91019 0.0
H299 H 0.82607 0.04141 0.89757 0.0
H300 H 0.79451 0.94271 0.93691 0.0
H301 H 0.74859 0.96457 0.95447 0.0
C302 C 0.73374 0.02823 0.94092 0.0
C303 C 0.72891 0.06238 0.93258 0.0
C304 C 0.76051 1.01569 0.93647 0.0
C305 C 0.75156 0.08383 0.92426 0.0
C306 C 0.77812 0.07152 0.91889 0.0
C307 C 0.80932 1.02467 0.91179 0.0
C308 C 0.81388 0.99032 0.91368 0.0
C309 C 0.78282 0.03743 0.92313 0.0
C310 C 0.79166 0.96918 0.93217 0.0
C311 C 0.7653 0.98167 0.94282 0.0
H312 H 0.7991 0.58002 0.66523 0.0
H313 H 0.84095 0.48634 0.65552 0.0
H314 H 0.79713 0.45719 0.65231 0.0
H315 H 0.74704 0.45819 0.65496 0.0
H316 H 0.70502 0.55168 0.66891 0.0
H317 H 0.74883 0.581 0.66706 0.0
C318 C 0.79867 0.5532 0.6633 0.0
C319 C 0.82339 0.53542 0.6613 0.0
C320 C 0.77337 0.53657 0.66186 0.0
C321 C 0.82233 0.50069 0.65662 0.0
C322 C 0.79726 0.48399 0.65515 0.0
C323 C 0.7474 0.48499 0.65841 0.0
C324 C 0.72266 0.50265 0.66291 0.0
C325 C 0.77266 0.50166 0.65822 0.0
C326 C 0.72365 0.53742 0.66492 0.0
C327 C 0.74873 0.5542 0.66442 0.0
H328 H 0.98686 0.96426 0.93884 0.0
H329 H 0.97543 0.04642 0.76804 0.0
H330 H 1.0118 0.0771 0.83951 0.0
H331 H 0.04682 0.08114 0.95166 0.0
H332 H 0.05843 0.99875 0.12156 0.0
H333 H 0.02224 0.968 0.04959 0.0
C334 C 0.99234 0.98884 0.91705 0.0
C335 C 0.97828 1.00288 0.84799 0.0
C336 C 1.01339 1.00651 0.95853 0.0
C337 C 0.98577 0.03485 0.82096 0.0
C338 C 1.00663 0.05252 0.86188 0.0
C339 C 0.04146 0.05646 0.97296 0.0
C340 C 0.05543 0.04243 0.04219 0.0
C341 C 0.02056 0.03868 0.93095 0.0
C342 C 0.04815 1.01031 0.06852 0.0
C343 C 0.02737 0.99261 0.02736 0.0
H344 H 0.49304 0.96828 0.06405 0.0
H345 H 0.47747 0.0495 0.23765 0.0
H346 H 0.51641 0.07976 0.17901 0.0
H347 H 0.55436 0.08396 0.07601 0.0
H348 H 0.57042 1.00236 0.90413 0.0
H349 H 0.53201 0.97167 0.96459 0.0
C350 C 0.49819 0.99255 0.08932 0.0
C351 C 0.48217 1.00653 0.15515 0.0
C352 C 0.52076 1.0099 0.05548 0.0
C353 C 0.48932 0.03803 0.18705 0.0
C354 C 0.51163 0.05544 0.15346 0.0
C355 C 0.54959 0.05941 0.05201 0.0
C356 C 0.56536 0.04563 0.98535 0.0
C357 C 0.52742 0.04173 0.08732 0.0
C358 C 0.55875 1.01369 0.95536 0.0
C359 C 0.5367 0.99607 0.98983 0.0
H360 H 0.0518 0.46409 0.48948 0.0
H361 H 0.0516 0.53314 0.28026 0.0
H362 H 1.01606 0.56539 0.35145 0.0
H363 H 0.9852 0.57456 0.47439 0.0
H364 H 0.98515 0.50476 0.68198 0.0
H365 H 0.0205 0.47258 0.61039 0.0
C366 C 0.04397 0.48613 0.45919 0.0
C367 C 0.05451 0.49607 0.37947 0.0
C368 C 0.02344 0.50464 0.50045 0.0
C369 C 0.04397 0.52476 0.34149 0.0
C370 C 0.02361 0.54333 0.38227 0.0
C371 C 0.9929 0.55232 0.50396 0.0
C372 C 0.98243 0.54223 0.58367 0.0
C373 C 1.01324 0.53361 0.462 0.0
C374 C 0.99269 0.5132 0.62068 0.0
C375 C 1.01298 0.4947 0.57978 0.0
H376 H 0.48126 0.51364 0.41765 0.0
H377 H 0.48829 0.60504 0.56012 0.0
H378 H 0.52731 0.5831 0.63746 0.0
H379 H 0.55965 0.53796 0.66479 0.0
H380 H 0.55216 0.44643 0.52297 0.0
H381 H 0.51341 0.46855 0.44519 0.0
C382 C 0.49128 0.52882 0.46561 0.0
C383 C 0.48167 0.56097 0.48299 0.0
C384 C 0.51382 0.51606 0.5099 0.0
C385 C 0.49503 0.58017 0.54553 0.0
C386 C 0.51746 0.56765 0.58976 0.0
C387 C 0.54961 0.52282 0.61678 0.0
C388 C 0.55909 0.49058 0.59962 0.0
C389 C 0.52706 0.53563 0.57249 0.0
C390 C 0.54563 0.4714 0.53725 0.0
C391 C 0.52331 0.484 0.49278 0.0
H392 H 0.09662 0.09593 0.77944 0.0
H393 H 0.14856 0.18158 0.74724 0.0
H394 H 0.14429 0.17704 0.5929 0.0
H395 H 0.12516 0.1494 0.46495 0.0
H396 H 0.07184 0.06529 0.49706 0.0
H397 H 0.07711 0.06874 0.65205 0.0
C398 C 0.10684 0.11381 0.739 0.0
C399 C 0.12309 0.13892 0.77623 0.0
C400 C 0.10409 0.11132 0.64933 0.0
C401 C 0.13631 0.16158 0.72152 0.0
C402 C 0.13378 0.15914 0.63265 0.0
C403 C 0.11499 0.13163 0.50589 0.0
C404 C 0.09818 0.10706 0.46915 0.0
C405 C 0.1178 0.13406 0.59558 0.0
C406 C 0.08476 0.08455 0.52353 0.0
C407 C 0.08778 0.0865 0.61231 0.0
H408 H 0.40693 0.9859 0.56816 0.0
H409 H 0.45068 0.9004 0.47607 0.0
H410 H 0.45946 0.88333 0.62234 0.0
H411 H 0.45079 0.88994 0.77686 0.0
H412 H 0.40656 0.97528 0.86771 0.0
H413 H 0.40198 0.99522 0.72201 0.0
C414 C 0.4185 0.96363 0.58016 0.0
C415 C 0.42751 0.94408 0.51124 0.0
C416 C 0.42327 0.95382 0.66441 0.0
C417 C 0.44324 0.91581 0.52772 0.0
C418 C 0.44816 0.9059 0.61152 0.0
C419 C 0.44031 0.91296 0.76445 0.0
C420 C 0.42891 0.93097 0.83272 0.0
C421 C 0.4376 0.92422 0.68031 0.0
C422 C 0.41574 0.96108 0.81633 0.0
C423 C 0.41294 0.97242 0.73296 0.0
H424 H 0.08253 0.38327 0.75177 0.0
H425 H 0.13405 0.46311 0.66439 0.0
H426 H 0.14115 0.48148 0.81118 0.0
H427 H 0.13609 0.47183 0.96476 0.0
H428 H 0.08502 0.39178 0.05321 0.0
H429 H 0.07409 0.37671 0.90611 0.0
C430 C 0.09513 0.40479 0.76519 0.0
C431 C 0.10786 0.42166 0.69763 0.0
C432 C 0.0993 0.41509 0.84988 0.0
C433 C 0.12383 0.44987 0.71529 0.0
C434 C 0.12807 0.46025 0.79924 0.0
C435 C 0.12244 0.45123 0.95163 0.0
C436 C 0.11181 0.43262 0.01954 0.0
C437 C 0.11641 0.44261 0.86703 0.0
C438 C 0.09359 0.40646 1.00207 0.0
C439 C 0.08744 0.3977 0.91791 0.0
H440 H 0.46216 0.64026 0.0204 0.0
H441 H 0.38069 0.60846 0.08864 0.0
H442 H 0.36584 0.61647 0.94168 0.0
H443 H 0.37635 0.6312 0.79302 0.0
H444 H 0.45817 0.66092 0.72436 0.0
H445 H 0.47274 0.65443 0.8724 0.0
C446 C 0.44124 0.63463 1.00324 0.0
C447 C 0.42261 0.62372 0.06579 0.0
C448 C 0.43294 0.6389 0.91852 0.0
C449 C 0.39541 0.61725 0.04219 0.0
C450 C 0.38692 0.62168 0.95804 0.0
C451 C 0.39726 0.63665 0.81085 0.0
C452 C 0.41615 0.64662 0.7482 0.0
C453 C 0.40552 0.6325 0.89573 0.0
C454 C 0.44334 0.65299 0.77158 0.0
C455 C 0.45164 0.64935 0.85609 0.0
H456 H 0.92189 0.95515 0.13705 0.0
H457 H 0.93727 0.85107 0.17097 0.0
H458 H 0.93782 0.85866 0.32537 0.0
H459 H 0.93099 0.89424 0.45299 0.0
H460 H 0.91647 0.99837 0.4187 0.0
H461 H 0.91894 0.99142 0.26401 0.0
C462 C 0.92577 0.93417 0.17785 0.0
C463 C 0.92908 0.90244 0.14117 0.0
C464 C 0.92613 0.93868 0.26759 0.0
C465 C 0.93397 0.87568 0.19637 0.0
C466 C 0.93447 0.88001 0.28525 0.0
C467 C 0.92887 0.91549 0.41177 0.0
C468 C 0.92324 0.94674 0.44817 0.0
C469 C 0.93012 0.91129 0.32193 0.0
C470 C 0.92034 0.97392 0.393 0.0
C471 C 0.92181 0.96999 0.30416 0.0
H472 H 0.57326 0.12847 0.53187 0.0
H473 H 0.65796 0.11434 0.59647 0.0
H474 H 0.67128 0.12532 0.44887 0.0
H475 H 0.6587 0.13775 0.30095 0.0
H476 H 0.57396 0.15003 0.23573 0.0
H477 H 0.56066 0.14035 0.38424 0.0
C478 C 0.5946 0.12735 0.51364 0.0
C479 C 0.61457 0.12054 0.57524 0.0
C480 C 0.60207 0.13335 0.42865 0.0
C481 C 0.64221 0.1199 0.55057 0.0
C482 C 0.64983 0.12603 0.46613 0.0
C483 C 0.63738 0.13871 0.31963 0.0
C484 C 0.61733 0.1447 0.25788 0.0
C485 C 0.62993 0.1328 0.40472 0.0
C486 C 0.5897 0.14523 0.2823 0.0
C487 C 0.58212 0.13978 0.36706 0.0
H488 H 0.95374 0.63177 0.30927 0.0
H489 H 0.86657 0.62115 0.28361 0.0
H490 H 0.87152 0.61452 0.12906 0.0
H491 H 0.90071 0.61176 1.00012 0.0
H492 H 0.9879 0.62506 0.02766 0.0
H493 H 0.98272 0.62993 0.18066 0.0
C494 C 0.93585 0.62774 0.26995 0.0
C495 C 0.90983 0.62703 0.30847 0.0
C496 C 0.93881 0.62428 0.18059 0.0
C497 C 0.88684 0.62221 0.25596 0.0
C498 C 0.88967 0.61828 0.16733 0.0
C499 C 0.91862 0.61594 0.03906 0.0
C500 C 0.9447 0.61761 1.00023 0.0
C501 C 0.91557 0.61942 0.12862 0.0
C502 C 0.96752 0.62289 0.05365 0.0
C503 C 0.96463 0.62597 0.1422 0.0
H504 H 0.66115 0.41533 0.29335 0.0
H505 H 0.57837 0.38946 0.36112 0.0
H506 H 0.56413 0.39716 0.21314 0.0
H507 H 0.57531 0.41127 0.06512 0.0
H508 H 0.65792 0.43863 0.998 0.0
H509 H 0.6723 0.42969 0.14511 0.0
C510 C 0.64009 0.41096 0.27542 0.0
C511 C 0.62084 0.40173 0.33785 0.0
C512 C 0.63205 0.41571 0.19055 0.0
C513 C 0.59348 0.3968 0.31417 0.0
C514 C 0.58537 0.40112 0.22965 0.0
C515 C 0.59639 0.41569 0.08271 0.0
C516 C 0.61549 0.42567 0.02049 0.0
C517 C 0.60445 0.41078 0.16747 0.0
C518 C 0.64286 0.4306 0.04435 0.0
C519 C 0.65108 0.42563 0.12853 0.0
H520 H 0.10238 0.23703 0.06461 0.0
H521 H 0.065 0.1988 0.29287 0.0
H522 H 0.05958 0.25515 0.34931 0.0
H523 H 0.07495 0.31384 0.34558 0.0
H524 H 0.11589 0.3501 0.12063 0.0
H525 H 0.10982 0.29669 0.04976 0.0
C526 C 0.09182 0.24129 0.12477 0.0
C527 C 0.08366 0.21409 0.17402 0.0
C528 C 0.08985 0.27358 0.15789 0.0
C529 C 0.07081 0.21956 0.25314 0.0
C530 C 0.06812 0.25176 0.28589 0.0
C531 C 0.08138 0.31029 0.27978 0.0
C532 C 0.09552 0.33584 0.23768 0.0
C533 C 0.07887 0.27884 0.2407 0.0
C534 C 0.10456 0.33086 0.15342 0.0
C535 C 0.10137 0.3002 0.11328 0.0
H536 H 0.45965 0.8221 0.19061 0.0
H537 H 0.41647 0.86423 0.40518 0.0
H538 H 0.41927 0.81206 0.48153 0.0
H539 H 0.42453 0.75205 0.47313 0.0
H540 H 0.46517 0.70786 0.25694 0.0
H541 H 0.47326 0.76283 0.19555 0.0
C542 C 0.45202 0.82008 0.25553 0.0
C543 C 0.43819 0.84694 0.293 0.0
C544 C 0.45272 0.78934 0.29784 0.0
C545 C 0.42763 0.84396 0.37608 0.0
C546 C 0.42892 0.81401 0.41929 0.0
C547 C 0.43621 0.75469 0.41443 0.0
C548 C 0.44439 0.72627 0.36964 0.0
C549 C 0.44007 0.78615 0.37894 0.0
C550 C 0.45911 0.72962 0.29299 0.0
C551 C 0.46338 0.76101 0.25744 0.0
H552 H 0.96167 0.8244 0.81383 0.0
H553 H 0.93668 0.84532 0.55668 0.0
H554 H 0.94357 0.78753 0.5157 0.0
H555 H 0.94594 0.72953 0.56228 0.0
H556 H 0.966 0.708 0.82324 0.0
H557 H 0.97246 0.76698 0.85355 0.0
C558 C 0.95909 0.81648 0.74798 0.0
C559 C 0.94899 0.83896 0.688 0.0
C560 C 0.96171 0.78276 0.72616 0.0
C561 C 0.9448 0.82839 0.60345 0.0
C562 C 0.94843 0.79526 0.58031 0.0
C563 C 0.95306 0.7378 0.62443 0.0
C564 C 0.95591 0.71467 0.6902 0.0
C565 C 0.95536 0.7719 0.64228 0.0
C566 C 0.96419 0.72551 0.77144 0.0
C567 C 0.96754 0.75925 0.78899 0.0
H568 H 0.56874 0.25366 0.96515 0.0
H569 H 0.5827 0.18401 0.75984 0.0
H570 H 0.58319 0.22895 0.65691 0.0
H571 H 0.58973 0.28866 0.63095 0.0
H572 H 0.57432 0.35838 0.83465 0.0
H573 H 0.56378 0.313 0.932 0.0
C574 C 0.57087 0.24826 0.89749 0.0
C575 C 0.57619 0.21563 0.87056 0.0
C576 C 0.57129 0.27434 0.8384 0.0
C577 C 0.57865 0.20887 0.78258 0.0
C578 C 0.57922 0.23466 0.72355 0.0
C579 C 0.58299 0.29386 0.69575 0.0
C580 C 0.58301 0.32668 0.72591 0.0
C581 C 0.57706 0.2676 0.75144 0.0
C582 C 0.57426 0.33329 0.80986 0.0
C583 C 0.56855 0.3073 0.86587 0.0
loop_
_geom_bond_atom_site_label_1
_geom_bond_atom_site_label_2
_geom_bond_distance
_geom_bond_site_symmetry_2
_ccdc_geom_bond_type
C0 C1 1.351 . S
C0 N3 1.368 . S
C0 H5 0.931 . S
C1 C0 1.351 . S
C1 N2 1.373 . S
C1 H29 0.930 . S
N2 C1 1.373 . S
N2 C4 1.340 . S
N3 C0 1.368 . S
N3 C4 1.321 . S
N3 Co6 2.135 1_556 S
C4 N2 1.340 . S
C4 N3 1.321 . S
C4 H28 0.930 . S
H5 C0 0.931 . S
Co6 N3 2.135 1_554 S
Co6 N9 2.121 . S
Co6 O14 2.055 . S
Co6 O17 2.039 . S
Co6 N20 2.140 . S
C7 O8 1.227 . S
C7 O17 1.265 . S
O8 C7 1.227 . S
N9 Co6 2.121 . S
N9 C11 1.375 . S
N9 C12 1.313 . S
C10 C11 1.338 . S
C10 N13 1.377 . S
C10 H30 0.930 . S
C11 N9 1.375 . S
C11 C10 1.338 . S
C11 H15 0.931 . S
C12 N9 1.313 . S
C12 N13 1.344 . S
C12 H16 0.930 . S
N13 C10 1.377 . S
N13 C12 1.344 . S
O14 Co6 2.055 . S
O14 C18 1.253 . S
H15 C11 0.931 . S
H16 C12 0.930 . S
O17 Co6 2.039 . S
O17 C7 1.265 . S
C18 O14 1.253 . S
C18 O19 1.227 . S
O19 C18 1.227 . S
N20 Co6 2.140 . S
N20 C23 1.346 . S
N20 C24 1.345 . S
C21 C22 1.387 . S
C21 C25 1.391 . S
C22 C21 1.387 . S
C22 C23 1.369 . S
C22 H31 0.933 . S
C23 N20 1.346 . S
C23 C22 1.369 . S
C23 H26 0.928 . S
C24 N20 1.345 . S
C24 C25 1.371 . S
C24 H27 0.931 . S
C25 C21 1.391 . S
C25 C24 1.371 . S
C25 H32 0.930 . S
H26 C23 0.928 . S
H27 C24 0.931 . S
H28 C4 0.930 . S
H29 C1 0.930 . S
H30 C10 0.930 . S
H31 C22 0.933 . S
H32 C25 0.930 . S
C33 C34 1.351 . S
C33 N36 1.368 . S
C33 H38 0.931 . S
C34 C33 1.351 . S
C34 N35 1.373 . S
C34 H62 0.930 . S
N35 C34 1.373 . S
N35 C37 1.340 . S
N36 C33 1.368 . S
N36 C37 1.321 . S
N36 Co39 2.135 1_556 S
C37 N35 1.340 . S
C37 N36 1.321 . S
C37 H61 0.930 . S
H38 C33 0.931 . S
Co39 N36 2.135 1_554 S
Co39 N42 2.121 . S
Co39 O47 2.055 . S
Co39 O50 2.039 . S
Co39 N53 2.140 . S
C40 O41 1.227 . S
C40 O50 1.265 . S
O41 C40 1.227 . S
N42 Co39 2.121 . S
N42 C44 1.375 . S
N42 C45 1.313 . S
C43 C44 1.338 . S
C43 N46 1.377 . S
C43 H63 0.930 . S
C44 N42 1.375 . S
C44 C43 1.338 . S
C44 H48 0.931 . S
C45 N42 1.313 . S
C45 N46 1.344 . S
C45 H49 0.930 . S
N46 C43 1.377 . S
N46 C45 1.344 . S
O47 Co39 2.055 . S
O47 C51 1.253 . S
H48 C44 0.931 . S
H49 C45 0.930 . S
O50 Co39 2.039 . S
O50 C40 1.265 . S
C51 O47 1.253 . S
C51 O52 1.227 . S
O52 C51 1.227 . S
N53 Co39 2.140 . S
N53 C56 1.346 . S
N53 C57 1.345 . S
C54 C55 1.387 . S
C54 C58 1.391 . S
C55 C54 1.387 . S
C55 C56 1.369 . S
C55 H64 0.933 . S
C56 N53 1.346 . S
C56 C55 1.369 . S
C56 H59 0.928 . S
C57 N53 1.345 . S
C57 C58 1.371 . S
C57 H60 0.931 . S
C58 C54 1.391 . S
C58 C57 1.371 . S
C58 H65 0.930 . S
H59 C56 0.928 . S
H60 C57 0.931 . S
H61 C37 0.930 . S
H62 C34 0.930 . S
H63 C43 0.930 . S
H64 C55 0.933 . S
H65 C58 0.930 . S
C66 C67 1.351 . S
C66 N69 1.368 . S
C66 H71 0.931 . S
C67 C66 1.351 . S
C67 N68 1.373 . S
C67 H95 0.930 . S
N68 C67 1.373 . S
N68 C70 1.340 . S
N69 C66 1.368 . S
N69 C70 1.321 . S
N69 Co72 2.135 . S
C70 N68 1.340 . S
C70 N69 1.321 . S
C70 H94 0.930 . S
H71 C66 0.931 . S
Co72 N69 2.135 . S
Co72 N75 2.121 . S
Co72 O80 2.055 . S
Co72 O83 2.039 . S
Co72 N86 2.140 . S
C73 O74 1.227 . S
C73 O83 1.265 . S
O74 C73 1.227 . S
N75 Co72 2.121 . S
N75 C77 1.375 . S
N75 C78 1.313 . S
C76 C77 1.338 . S
C76 N79 1.377 . S
C76 H96 0.930 . S
C77 N75 1.375 . S
C77 C76 1.338 . S
C77 H81 0.931 . S
C78 N75 1.313 . S
C78 N79 1.344 . S
C78 H82 0.930 . S
N79 C76 1.377 . S
N79 C78 1.344 . S
O80 Co72 2.055 . S
O80 C84 1.253 . S
H81 C77 0.931 . S
H82 C78 0.930 . S
O83 Co72 2.039 . S
O83 C73 1.265 . S
C84 O80 1.253 . S
C84 O85 1.227 . S
O85 C84 1.227 . S
N86 Co72 2.140 . S
N86 C89 1.346 . S
N86 C90 1.345 . S
C87 C88 1.387 . S
C87 C91 1.391 . S
C88 C87 1.387 . S
C88 C89 1.369 . S
C88 H97 0.929 . S
C89 N86 1.346 . S
C89 C88 1.369 . S
C89 H92 0.928 . S
C90 N86 1.345 . S
C90 C91 1.371 . S
C90 H93 0.931 . S
C91 C87 1.391 . S
C91 C90 1.371 . S
C91 H98 0.930 . S
H92 C89 0.928 . S
H93 C90 0.931 . S
H94 C70 0.930 . S
H95 C67 0.930 . S
H96 C76 0.930 . S
H97 C88 0.929 . S
H98 C91 0.930 . S
C99 C100 1.351 . S
C99 N102 1.368 . S
C99 H104 0.931 . S
C100 C99 1.351 . S
C100 N101 1.373 . S
C100 H128 0.930 . S
N101 C100 1.373 . S
N101 C103 1.340 . S
N102 C99 1.368 . S
N102 C103 1.321 . S
N102 Co105 2.135 . S
C103 N101 1.340 . S
C103 N102 1.321 . S
C103 H127 0.930 . S
H104 C99 0.931 . S
Co105 N102 2.135 . S
Co105 N108 2.121 . S
Co105 O113 2.055 . S
Co105 O116 2.039 . S
Co105 N119 2.140 . S
C106 O107 1.227 . S
C106 O116 1.265 . S
O107 C106 1.227 . S
N108 Co105 2.121 . S
N108 C110 1.375 . S
N108 C111 1.313 . S
C109 C110 1.338 . S
C109 N112 1.377 . S
C109 H129 0.930 . S
C110 N108 1.375 . S
C110 C109 1.338 . S
C110 H114 0.931 . S
C111 N108 1.313 . S
C111 N112 1.344 . S
C111 H115 0.930 . S
N112 C109 1.377 . S
N112 C111 1.344 . S
O113 Co105 2.055 . S
O113 C117 1.253 . S
H114 C110 0.931 . S
H115 C111 0.930 . S
O116 Co105 2.039 . S
O116 C106 1.265 . S
C117 O113 1.253 . S
C117 O118 1.227 . S
O118 C117 1.227 . S
N119 Co105 2.140 . S
N119 C122 1.346 . S
N119 C123 1.345 . S
C120 C121 1.387 . S
C120 C124 1.391 . S
C121 C120 1.387 . S
C121 C122 1.369 . S
C121 H130 0.929 . S
C122 N119 1.346 . S
C122 C121 1.369 . S
C122 H125 0.928 . S
C123 N119 1.345 . S
C123 C124 1.371 . S
C123 H126 0.931 . S
C124 C120 1.391 . S
C124 C123 1.371 . S
C124 H131 0.930 . S
H125 C122 0.928 . S
H126 C123 0.931 . S
H127 C103 0.930 . S
H128 C100 0.930 . S
H129 C109 0.930 . S
H130 C121 0.929 . S
H131 C124 0.930 . S
C132 C133 1.351 . S
C132 N135 1.368 . S
C132 H137 0.931 . S
C133 C132 1.351 . S
C133 N134 1.373 . S
C133 H161 0.930 . S
N134 C133 1.373 . S
N134 C136 1.340 . S
N135 C132 1.368 . S
N135 C136 1.321 . S
N135 Co138 2.135 1_554 S
C136 N134 1.340 . S
C136 N135 1.321 . S
C136 H160 0.930 . S
H137 C132 0.931 . S
Co138 N135 2.135 1_556 S
Co138 N141 2.121 . S
Co138 O146 2.055 . S
Co138 O149 2.039 . S
Co138 N152 2.140 . S
C139 O140 1.227 . S
C139 O149 1.265 . S
O140 C139 1.227 . S
N141 Co138 2.121 . S
N141 C143 1.375 . S
N141 C144 1.313 . S
C142 C143 1.338 . S
C142 N145 1.377 . S
C142 H162 0.930 . S
C143 N141 1.375 . S
C143 C142 1.338 . S
C143 H147 0.931 . S
C144 N141 1.313 . S
C144 N145 1.344 . S
C144 H148 0.930 . S
N145 C142 1.377 . S
N145 C144 1.344 . S
O146 Co138 2.055 . S
O146 C150 1.253 . S
H147 C143 0.931 . S
H148 C144 0.930 . S
O149 Co138 2.039 . S
O149 C139 1.265 . S
C150 O146 1.253 . S
C150 O151 1.227 . S
O151 C150 1.227 . S
N152 Co138 2.140 . S
N152 C155 1.346 . S
N152 C156 1.345 . S
C153 C154 1.387 . S
C153 C157 1.391 . S
C154 C153 1.387 . S
C154 C155 1.369 . S
C154 H163 0.933 . S
C155 N152 1.346 . S
C155 C154 1.369 . S
C155 H158 0.928 . S
C156 N152 1.345 . S
C156 C157 1.371 . S
C156 H159 0.931 . S
C157 C153 1.391 . S
C157 C156 1.371 . S
C157 H164 0.930 . S
H158 C155 0.928 . S
H159 C156 0.931 . S
H160 C136 0.930 . S
H161 C133 0.930 . S
H162 C142 0.930 . S
H163 C154 0.933 . S
H164 C157 0.930 . S
C165 C166 1.351 . S
C165 N168 1.368 . S
C165 H170 0.931 . S
C166 C165 1.351 . S
C166 N167 1.373 . S
C166 H194 0.930 . S
N167 C166 1.373 . S
N167 C169 1.340 . S
N168 C165 1.368 . S
N168 C169 1.321 . S
N168 Co171 2.135 1_554 S
C169 N167 1.340 . S
C169 N168 1.321 . S
C169 H193 0.930 . S
H170 C165 0.931 . S
Co171 N168 2.135 1_556 S
Co171 N174 2.121 . S
Co171 O179 2.055 . S
Co171 O182 2.039 . S
Co171 N185 2.140 . S
C172 O173 1.227 . S
C172 O182 1.265 . S
O173 C172 1.227 . S
N174 Co171 2.121 . S
N174 C176 1.375 . S
N174 C177 1.313 . S
C175 C176 1.338 . S
C175 N178 1.377 . S
C175 H195 0.930 . S
C176 N174 1.375 . S
C176 C175 1.338 . S
C176 H180 0.931 . S
C177 N174 1.313 . S
C177 N178 1.344 . S
C177 H181 0.930 . S
N178 C175 1.377 . S
N178 C177 1.344 . S
O179 Co171 2.055 . S
O179 C183 1.253 . S
H180 C176 0.931 . S
H181 C177 0.930 . S
O182 Co171 2.039 . S
O182 C172 1.265 . S
C183 O179 1.253 . S
C183 O184 1.227 . S
O184 C183 1.227 . S
N185 Co171 2.140 . S
N185 C188 1.346 . S
N185 C189 1.345 . S
C186 C187 1.387 . S
C186 C190 1.391 . S
C187 C186 1.387 . S
C187 C188 1.369 . S
C187 H196 0.933 . S
C188 N185 1.346 . S
C188 C187 1.369 . S
C188 H191 0.928 . S
C189 N185 1.345 . S
C189 C190 1.371 . S
C189 H192 0.931 . S
C190 C186 1.391 . S
C190 C189 1.371 . S
C190 H197 0.930 . S
H191 C188 0.928 . S
H192 C189 0.931 . S
H193 C169 0.930 . S
H194 C166 0.930 . S
H195 C175 0.930 . S
H196 C187 0.933 . S
H197 C190 0.930 . S
C198 C199 1.351 . S
C198 N201 1.368 . S
C198 H203 0.931 . S
C199 C198 1.351 . S
C199 N200 1.373 . S
C199 H227 0.930 . S
N200 C199 1.373 . S
N200 C202 1.340 . S
N201 C198 1.368 . S
N201 C202 1.321 . S
N201 Co204 2.135 . S
C202 N200 1.340 . S
C202 N201 1.321 . S
C202 H226 0.930 . S
H203 C198 0.931 . S
Co204 N201 2.135 . S
Co204 N207 2.121 . S
Co204 O212 2.055 . S
Co204 O215 2.039 . S
Co204 N218 2.140 . S
C205 O206 1.227 . S
C205 O215 1.265 . S
O206 C205 1.227 . S
N207 Co204 2.121 . S
N207 C209 1.375 . S
N207 C210 1.313 . S
C208 C209 1.338 . S
C208 N211 1.377 . S
C208 H228 0.930 . S
C209 N207 1.375 . S
C209 C208 1.338 . S
C209 H213 0.931 . S
C210 N207 1.313 . S
C210 N211 1.344 . S
C210 H214 0.930 . S
N211 C208 1.377 . S
N211 C210 1.344 . S
O212 Co204 2.055 . S
O212 C216 1.253 . S
H213 C209 0.931 . S
H214 C210 0.930 . S
O215 Co204 2.039 . S
O215 C205 1.265 . S
C216 O212 1.253 . S
C216 O217 1.227 . S
O217 C216 1.227 . S
N218 Co204 2.140 . S
N218 C221 1.346 . S
N218 C222 1.345 . S
C219 C220 1.387 . S
C219 C223 1.391 . S
C220 C219 1.387 . S
C220 C221 1.369 . S
C220 H229 0.929 . S
C221 N218 1.346 . S
C221 C220 1.369 . S
C221 H224 0.928 . S
C222 N218 1.345 . S
C222 C223 1.371 . S
C222 H225 0.931 . S
C223 C219 1.391 . S
C223 C222 1.371 . S
C223 H230 0.930 . S
H224 C221 0.928 . S
H225 C222 0.931 . S
H226 C202 0.930 . S
H227 C199 0.930 . S
H228 C208 0.930 . S
H229 C220 0.929 . S
H230 C223 0.930 . S
C231 C232 1.351 . S
C231 N234 1.368 . S
C231 H236 0.931 . S
C232 C231 1.351 . S
C232 N233 1.373 . S
C232 H260 0.930 . S
N233 C232 1.373 . S
N233 C235 1.340 . S
N234 C231 1.368 . S
N234 C235 1.321 . S
N234 Co237 2.135 . S
C235 N233 1.340 . S
C235 N234 1.321 . S
C235 H259 0.930 . S
H236 C231 0.931 . S
Co237 N234 2.135 . S
Co237 N240 2.121 . S
Co237 O245 2.055 . S
Co237 O248 2.039 . S
Co237 N251 2.140 . S
C238 O239 1.227 . S
C238 O248 1.265 . S
O239 C238 1.227 . S
N240 Co237 2.121 . S
N240 C242 1.375 . S
N240 C243 1.313 . S
C241 C242 1.338 . S
C241 N244 1.377 . S
C241 H261 0.930 . S
C242 N240 1.375 . S
C242 C241 1.338 . S
C242 H246 0.931 . S
C243 N240 1.313 . S
C243 N244 1.344 . S
C243 H247 0.930 . S
N244 C241 1.377 . S
N244 C243 1.344 . S
O245 Co237 2.055 . S
O245 C249 1.253 . S
H246 C242 0.931 . S
H247 C243 0.930 . S
O248 Co237 2.039 . S
O248 C238 1.265 . S
C249 O245 1.253 . S
C249 O250 1.227 . S
O250 C249 1.227 . S
N251 Co237 2.140 . S
N251 C254 1.346 . S
N251 C255 1.345 . S
C252 C253 1.387 . S
C252 C256 1.391 . S
C253 C252 1.387 . S
C253 C254 1.369 . S
C253 H262 0.929 . S
C254 N251 1.346 . S
C254 C253 1.369 . S
C254 H257 0.928 . S
C255 N251 1.345 . S
C255 C256 1.371 . S
C255 H258 0.931 . S
C256 C252 1.391 . S
C256 C255 1.371 . S
C256 H263 0.930 . S
H257 C254 0.928 . S
H258 C255 0.931 . S
H259 C235 0.930 . S
H260 C232 0.930 . S
H261 C241 0.930 . S
H262 C253 0.929 . S
H263 C256 0.930 . S
H264 C270 0.930 . S
H265 C273 0.930 . S
H266 C274 0.930 . S
H267 C275 0.930 . S
H268 C278 0.930 . S
H269 C279 0.930 . S
C270 H264 0.930 . S
C270 C271 1.355 . S
C270 C272 1.415 . S
C271 C270 1.355 . S
C271 C273 1.419 1_565 S
C272 C270 1.415 . S
C272 C277 1.425 1_565 S
C272 C279 1.409 . S
C273 H265 0.930 . S
C273 C271 1.419 1_545 S
C273 C274 1.362 . S
C274 H266 0.930 . S
C274 C273 1.362 . S
C274 C277 1.409 . S
C275 H267 0.930 . S
C275 C276 1.355 . S
C275 C277 1.415 . S
C276 C275 1.355 . S
C276 C278 1.419 1_545 S
C277 C272 1.425 1_545 S
C277 C274 1.409 . S
C277 C275 1.415 . S
C278 H268 0.930 . S
C278 C276 1.419 1_565 S
C278 C279 1.362 . S
C279 H269 0.930 . S
C279 C272 1.409 . S
C279 C278 1.362 . S
H280 C286 0.930 . S
H281 C289 0.930 . S
H282 C290 0.930 . S
H283 C291 0.930 . S
H284 C294 0.930 . S
H285 C295 0.930 . S
C286 H280 0.930 . S
C286 C287 1.355 . S
C286 C288 1.415 . S
C287 C286 1.355 . S
C287 C289 1.419 . S
C288 C286 1.415 . S
C288 C293 1.425 . S
C288 C295 1.409 . S
C289 H281 0.930 . S
C289 C287 1.419 . S
C289 C290 1.362 . S
C290 H282 0.930 . S
C290 C289 1.362 . S
C290 C293 1.409 . S
C291 H283 0.930 . S
C291 C292 1.355 . S
C291 C293 1.415 . S
C292 C291 1.355 . S
C292 C294 1.419 . S
C293 C288 1.425 . S
C293 C290 1.409 . S
C293 C291 1.415 . S
C294 H284 0.930 . S
C294 C292 1.419 . S
C294 C295 1.362 . S
C295 H285 0.930 . S
C295 C288 1.409 . S
C295 C294 1.362 . S
H296 C302 0.930 . S
H297 C305 0.930 . S
H298 C306 0.930 . S
H299 C307 0.930 . S
H300 C310 0.930 . S
H301 C311 0.930 . S
C302 H296 0.930 . S
C302 C303 1.355 1_565 S
C302 C304 1.415 . S
C303 C302 1.355 1_545 S
C303 C305 1.419 . S
C304 C302 1.415 . S
C304 C309 1.425 1_565 S
C304 C311 1.409 . S
C305 H297 0.930 . S
C305 C303 1.419 . S
C305 C306 1.362 . S
C306 H298 0.930 . S
C306 C305 1.362 . S
C306 C309 1.409 . S
C307 H299 0.930 . S
C307 C308 1.355 1_545 S
C307 C309 1.415 . S
C308 C307 1.355 1_565 S
C308 C310 1.419 . S
C309 C304 1.425 1_545 S
C309 C306 1.409 . S
C309 C307 1.415 . S
C310 H300 0.930 . S
C310 C308 1.419 . S
C310 C311 1.362 . S
C311 H301 0.930 . S
C311 C304 1.409 . S
C311 C310 1.362 . S
H312 C318 0.930 . S
H313 C321 0.930 . S
H314 C322 0.930 . S
H315 C323 0.930 . S
H316 C326 0.930 . S
H317 C327 0.930 . S
C318 H312 0.930 . S
C318 C319 1.355 . S
C318 C320 1.415 . S
C319 C318 1.355 . S
C319 C321 1.419 . S
C320 C318 1.415 . S
C320 C325 1.425 . S
C320 C327 1.409 . S
C321 H313 0.930 . S
C321 C319 1.419 . S
C321 C322 1.362 . S
C322 H314 0.930 . S
C322 C321 1.362 . S
C322 C325 1.409 . S
C323 H315 0.930 . S
C323 C324 1.355 . S
C323 C325 1.415 . S
C324 C323 1.355 . S
C324 C326 1.419 . S
C325 C320 1.425 . S
C325 C322 1.409 . S
C325 C323 1.415 . S
C326 H316 0.930 . S
C326 C324 1.419 . S
C326 C327 1.362 . S
C327 H317 0.930 . S
C327 C320 1.409 . S
C327 C326 1.362 . S
H328 C334 0.930 . S
H329 C337 0.930 . S
H330 C338 0.930 . S
H331 C339 0.930 . S
H332 C342 0.930 . S
H333 C343 0.930 . S
C334 H328 0.930 . S
C334 C335 1.355 . S
C334 C336 1.415 1_655 S
C335 C334 1.355 . S
C335 C337 1.419 . S
C336 C334 1.415 1_455 S
C336 C341 1.425 1_466 S
C336 C343 1.409 . S
C337 H329 0.930 . S
C337 C335 1.419 . S
C337 C338 1.362 1_566 S
C338 H330 0.930 . S
C338 C337 1.362 1_544 S
C338 C341 1.409 . S
C339 H331 0.930 . S
C339 C340 1.355 . S
C339 C341 1.415 1_455 S
C340 C339 1.355 . S
C340 C342 1.419 . S
C341 C336 1.425 1_644 S
C341 C338 1.409 . S
C341 C339 1.415 1_655 S
C342 H332 0.930 . S
C342 C340 1.419 . S
C342 C343 1.362 1_544 S
C343 H333 0.930 . S
C343 C336 1.409 . S
C343 C342 1.362 1_566 S
H344 C350 0.930 . S
H345 C353 0.930 1_556 S
H346 C354 0.930 . S
H347 C355 0.930 . S
H348 C358 0.930 1_554 S
H349 C359 0.930 . S
C350 H344 0.930 . S
C350 C351 1.355 . S
C350 C352 1.415 . S
C351 C350 1.355 . S
C351 C353 1.419 . S
C352 C350 1.415 . S
C352 C357 1.425 1_564 S
C352 C359 1.409 . S
C353 H345 0.930 1_554 S
C353 C351 1.419 . S
C353 C354 1.362 1_564 S
C354 H346 0.930 . S
C354 C353 1.362 1_546 S
C354 C357 1.409 . S
C355 H347 0.930 . S
C355 C356 1.355 . S
C355 C357 1.415 . S
C356 C355 1.355 . S
C356 C358 1.419 . S
C357 C352 1.425 1_546 S
C357 C354 1.409 . S
C357 C355 1.415 . S
C358 H348 0.930 1_556 S
C358 C356 1.419 . S
C358 C359 1.362 1_546 S
C359 H349 0.930 . S
C359 C352 1.409 . S
C359 C358 1.362 1_564 S
H360 C366 0.930 . S
H361 C369 0.930 . S
H362 C370 0.930 . S
H363 C371 0.930 . S
H364 C374 0.930 . S
H365 C375 0.930 . S
C366 H360 0.930 . S
C366 C367 1.355 . S
C366 C368 1.415 1_455 S
C367 C366 1.355 . S
C367 C369 1.419 . S
C368 C366 1.415 1_655 S
C368 C373 1.425 1_655 S
C368 C375 1.409 . S
C369 H361 0.930 . S
C369 C367 1.419 . S
C369 C370 1.362 . S
C370 H362 0.930 . S
C370 C369 1.362 . S
C370 C373 1.409 . S
C371 H363 0.930 . S
C371 C372 1.355 . S
C371 C373 1.415 1_655 S
C372 C371 1.355 . S
C372 C374 1.419 . S
C373 C368 1.425 1_455 S
C373 C370 1.409 . S
C373 C371 1.415 1_455 S
C374 H364 0.930 . S
C374 C372 1.419 . S
C374 C375 1.362 . S
C375 H365 0.930 . S
C375 C368 1.409 . S
C375 C374 1.362 . S
H376 C382 0.930 . S
H377 C385 0.930 . S
H378 C386 0.930 . S
H379 C387 0.930 . S
H380 C390 0.930 . S
H381 C391 0.930 . S
C382 H376 0.930 . S
C382 C383 1.355 . S
C382 C384 1.415 . S
C383 C382 1.355 . S
C383 C385 1.419 . S
C384 C382 1.415 . S
C384 C389 1.425 . S
C384 C391 1.409 . S
C385 H377 0.930 . S
C385 C383 1.419 . S
C385 C386 1.362 . S
C386 H378 0.930 . S
C386 C385 1.362 . S
C386 C389 1.409 . S
C387 H379 0.930 . S
C387 C388 1.355 . S
C387 C389 1.415 . S
C388 C387 1.355 . S
C388 C390 1.419 . S
C389 C384 1.425 . S
C389 C386 1.409 . S
C389 C387 1.415 . S
C390 H380 0.930 . S
C390 C388 1.419 . S
C390 C391 1.362 . S
C391 H381 0.930 . S
C391 C384 1.409 . S
C391 C390 1.362 . S
H392 C398 0.930 . S
H393 C401 0.930 . S
H394 C402 0.930 . S
H395 C403 0.930 . S
H396 C406 0.930 . S
H397 C407 0.930 . S
C398 H392 0.930 . S
C398 C399 1.355 . S
C398 C400 1.415 . S
C399 C398 1.355 . S
C399 C401 1.419 . S
C400 C398 1.415 . S
C400 C405 1.425 . S
C400 C407 1.409 . S
C401 H393 0.930 . S
C401 C399 1.419 . S
C401 C402 1.362 . S
C402 H394 0.930 . S
C402 C401 1.362 . S
C402 C405 1.409 . S
C403 H395 0.930 . S
C403 C404 1.355 . S
C403 C405 1.415 . S
C404 C403 1.355 . S
C404 C406 1.419 . S
C405 C400 1.425 . S
C405 C402 1.409 . S
C405 C403 1.415 . S
C406 H396 0.930 . S
C406 C404 1.419 . S
C406 C407 1.362 . S
C407 H397 0.930 . S
C407 C400 1.409 . S
C407 C406 1.362 . S
H408 C414 0.930 . S
H409 C417 0.930 . S
H410 C418 0.930 . S
H411 C419 0.930 . S
H412 C422 0.930 . S
H413 C423 0.930 . S
C414 H408 0.930 . S
C414 C415 1.355 . S
C414 C416 1.415 . S
C415 C414 1.355 . S
C415 C417 1.419 . S
C416 C414 1.415 . S
C416 C421 1.425 . S
C416 C423 1.409 . S
C417 H409 0.930 . S
C417 C415 1.419 . S
C417 C418 1.362 . S
C418 H410 0.930 . S
C418 C417 1.362 . S
C418 C421 1.409 . S
C419 H411 0.930 . S
C419 C420 1.355 . S
C419 C421 1.415 . S
C420 C419 1.355 . S
C420 C422 1.419 . S
C421 C416 1.425 . S
C421 C418 1.409 . S
C421 C419 1.415 . S
C422 H412 0.930 . S
C422 C420 1.419 . S
C422 C423 1.362 . S
C423 H413 0.930 . S
C423 C416 1.409 . S
C423 C422 1.362 . S
H424 C430 0.930 . S
H425 C433 0.930 . S
H426 C434 0.930 . S
H427 C435 0.930 1_554 S
H428 C438 0.930 . S
H429 C439 0.930 . S
C430 H424 0.930 . S
C430 C431 1.355 . S
C430 C432 1.415 . S
C431 C430 1.355 . S
C431 C433 1.419 . S
C432 C430 1.415 . S
C432 C437 1.425 . S
C432 C439 1.409 . S
C433 H425 0.930 . S
C433 C431 1.419 . S
C433 C434 1.362 . S
C434 H426 0.930 . S
C434 C433 1.362 . S
C434 C437 1.409 . S
C435 H427 0.930 1_556 S
C435 C436 1.355 1_556 S
C435 C437 1.415 . S
C436 C435 1.355 1_554 S
C436 C438 1.419 . S
C437 C432 1.425 . S
C437 C434 1.409 . S
C437 C435 1.415 . S
C438 H428 0.930 . S
C438 C436 1.419 . S
C438 C439 1.362 1_554 S
C439 H429 0.930 . S
C439 C432 1.409 . S
C439 C438 1.362 1_556 S
H440 C446 0.930 . S
H441 C449 0.930 . S
H442 C450 0.930 . S
H443 C451 0.930 . S
H444 C454 0.930 . S
H445 C455 0.930 . S
C446 H440 0.930 . S
C446 C447 1.355 1_556 S
C446 C448 1.415 . S
C447 C446 1.355 1_554 S
C447 C449 1.419 . S
C448 C446 1.415 . S
C448 C453 1.425 . S
C448 C455 1.409 . S
C449 H441 0.930 . S
C449 C447 1.419 . S
C449 C450 1.362 1_554 S
C450 H442 0.930 . S
C450 C449 1.362 1_556 S
C450 C453 1.409 . S
C451 H443 0.930 . S
C451 C452 1.355 . S
C451 C453 1.415 . S
C452 C451 1.355 . S
C452 C454 1.419 . S
C453 C448 1.425 . S
C453 C450 1.409 . S
C453 C451 1.415 . S
C454 H444 0.930 . S
C454 C452 1.419 . S
C454 C455 1.362 . S
C455 H445 0.930 . S
C455 C448 1.409 . S
C455 C454 1.362 . S
H456 C462 0.930 . S
H457 C465 0.930 . S
H458 C466 0.930 . S
H459 C467 0.930 . S
H460 C470 0.930 . S
H461 C471 0.930 . S
C462 H456 0.930 . S
C462 C463 1.355 . S
C462 C464 1.415 . S
C463 C462 1.355 . S
C463 C465 1.419 . S
C464 C462 1.415 . S
C464 C469 1.425 . S
C464 C471 1.409 . S
C465 H457 0.930 . S
C465 C463 1.419 . S
C465 C466 1.362 . S
C466 H458 0.930 . S
C466 C465 1.362 . S
C466 C469 1.409 . S
C467 H459 0.930 . S
C467 C468 1.355 . S
C467 C469 1.415 . S
C468 C467 1.355 . S
C468 C470 1.419 . S
C469 C464 1.425 . S
C469 C466 1.409 . S
C469 C467 1.415 . S
C470 H460 0.930 . S
C470 C468 1.419 . S
C470 C471 1.362 . S
C471 H461 0.930 . S
C471 C464 1.409 . S
C471 C470 1.362 . S
H472 C478 0.930 . S
H473 C481 0.930 . S
H474 C482 0.930 . S
H475 C483 0.930 . S
H476 C486 0.930 . S
H477 C487 0.930 . S
C478 H472 0.930 . S
C478 C479 1.355 . S
C478 C480 1.415 . S
C479 C478 1.355 . S
C479 C481 1.419 . S
C480 C478 1.415 . S
C480 C485 1.425 . S
C480 C487 1.409 . S
C481 H473 0.930 . S
C481 C479 1.419 . S
C481 C482 1.362 . S
C482 H474 0.930 . S
C482 C481 1.362 . S
C482 C485 1.409 . S
C483 H475 0.930 . S
C483 C484 1.355 . S
C483 C485 1.415 . S
C484 C483 1.355 . S
C484 C486 1.419 . S
C485 C480 1.425 . S
C485 C482 1.409 . S
C485 C483 1.415 . S
C486 H476 0.930 . S
C486 C484 1.419 . S
C486 C487 1.362 . S
C487 H477 0.930 . S
C487 C480 1.409 . S
C487 C486 1.362 . S
H488 C494 0.930 . S
H489 C497 0.930 . S
H490 C498 0.930 . S
H491 C499 0.930 1_556 S
H492 C502 0.933 . S
H493 C503 0.930 . S
C494 H488 0.930 . S
C494 C495 1.355 . S
C494 C496 1.415 . S
C495 C494 1.355 . S
C495 C497 1.419 . S
C496 C494 1.415 . S
C496 C501 1.425 . S
C496 C503 1.409 . S
C497 H489 0.930 . S
C497 C495 1.419 . S
C497 C498 1.362 . S
C498 H490 0.930 . S
C498 C497 1.362 . S
C498 C501 1.409 . S
C499 H491 0.930 1_554 S
C499 C500 1.355 1_554 S
C499 C501 1.415 . S
C500 C499 1.355 1_556 S
C500 C502 1.422 . S
C501 C496 1.425 . S
C501 C498 1.409 . S
C501 C499 1.415 . S
C502 H492 0.933 . S
C502 C500 1.422 . S
C502 C503 1.356 1_556 S
C503 H493 0.930 . S
C503 C496 1.409 . S
C503 C502 1.356 1_554 S
H504 C510 0.930 . S
H505 C513 0.930 . S
H506 C514 0.930 . S
H507 C515 0.930 1_556 S
H508 C518 0.930 . S
H509 C519 0.930 . S
C510 H504 0.930 . S
C510 C511 1.355 . S
C510 C512 1.415 . S
C511 C510 1.355 . S
C511 C513 1.419 . S
C512 C510 1.415 . S
C512 C517 1.425 . S
C512 C519 1.409 . S
C513 H505 0.930 . S
C513 C511 1.419 . S
C513 C514 1.362 . S
C514 H506 0.930 . S
C514 C513 1.362 . S
C514 C517 1.409 . S
C515 H507 0.930 1_554 S
C515 C516 1.355 1_554 S
C515 C517 1.415 . S
C516 C515 1.355 1_556 S
C516 C518 1.419 . S
C517 C512 1.425 . S
C517 C514 1.409 . S
C517 C515 1.415 . S
C518 H508 0.930 . S
C518 C516 1.419 . S
C518 C519 1.362 1_556 S
C519 H509 0.930 . S
C519 C512 1.409 . S
C519 C518 1.362 1_554 S
H520 C526 0.930 . S
H521 C529 0.930 . S
H522 C530 0.930 . S
H523 C531 0.930 . S
H524 C534 0.930 . S
H525 C535 0.930 . S
C526 H520 0.930 . S
C526 C527 1.355 . S
C526 C528 1.415 . S
C527 C526 1.355 . S
C527 C529 1.419 . S
C528 C526 1.415 . S
C528 C533 1.425 . S
C528 C535 1.409 . S
C529 H521 0.930 . S
C529 C527 1.419 . S
C529 C530 1.362 . S
C530 H522 0.930 . S
C530 C529 1.362 . S
C530 C533 1.409 . S
C531 H523 0.930 . S
C531 C532 1.355 . S
C531 C533 1.415 . S
C532 C531 1.355 . S
C532 C534 1.419 . S
C533 C528 1.425 . S
C533 C530 1.409 . S
C533 C531 1.415 . S
C534 H524 0.930 . S
C534 C532 1.419 . S
C534 C535 1.362 . S
C535 H525 0.930 . S
C535 C528 1.409 . S
C535 C534 1.362 . S
H536 C542 0.930 . S
H537 C545 0.930 . S
H538 C546 0.930 . S
H539 C547 0.930 . S
H540 C550 0.930 . S
H541 C551 0.930 . S
C542 H536 0.930 . S
C542 C543 1.355 . S
C542 C544 1.415 . S
C543 C542 1.355 . S
C543 C545 1.419 . S
C544 C542 1.415 . S
C544 C549 1.425 . S
C544 C551 1.409 . S
C545 H537 0.930 . S
C545 C543 1.419 . S
C545 C546 1.362 . S
C546 H538 0.930 . S
C546 C545 1.362 . S
C546 C549 1.409 . S
C547 H539 0.930 . S
C547 C548 1.355 . S
C547 C549 1.415 . S
C548 C547 1.355 . S
C548 C550 1.419 . S
C549 C544 1.425 . S
C549 C546 1.409 . S
C549 C547 1.415 . S
C550 H540 0.930 . S
C550 C548 1.419 . S
C550 C551 1.362 . S
C551 H541 0.930 . S
C551 C544 1.409 . S
C551 C550 1.362 . S
H552 C558 0.930 . S
H553 C561 0.930 . S
H554 C562 0.930 . S
H555 C563 0.930 . S
H556 C566 0.930 . S
H557 C567 0.930 . S
C558 H552 0.930 . S
C558 C559 1.355 . S
C558 C560 1.415 . S
C559 C558 1.355 . S
C559 C561 1.419 . S
C560 C558 1.415 . S
C560 C565 1.425 . S
C560 C567 1.409 . S
C561 H553 0.930 . S
C561 C559 1.419 . S
C561 C562 1.362 . S
C562 H554 0.930 . S
C562 C561 1.362 . S
C562 C565 1.409 . S
C563 H555 0.930 . S
C563 C564 1.355 . S
C563 C565 1.415 . S
C564 C563 1.355 . S
C564 C566 1.419 . S
C565 C560 1.425 . S
C565 C562 1.409 . S
C565 C563 1.415 . S
C566 H556 0.930 . S
C566 C564 1.419 . S
C566 C567 1.362 . S
C567 H557 0.930 . S
C567 C560 1.409 . S
C567 C566 1.362 . S
H568 C574 0.930 . S
H569 C577 0.930 . S
H570 C578 0.930 . S
H571 C579 0.930 . S
H572 C582 0.930 . S
H573 C583 0.930 . S
C574 H568 0.930 . S
C574 C575 1.355 . S
C574 C576 1.415 . S
C575 C574 1.355 . S
C575 C577 1.419 . S
C576 C574 1.415 . S
C576 C581 1.425 . S
C576 C583 1.409 . S
C577 H569 0.930 . S
C577 C575 1.419 . S
C577 C578 1.362 . S
C578 H570 0.930 . S
C578 C577 1.362 . S
C578 C581 1.409 . S
C579 H571 0.930 . S
C579 C580 1.355 . S
C579 C581 1.415 . S
C580 C579 1.355 . S
C580 C582 1.419 . S
C581 C576 1.425 . S
C581 C578 1.409 . S
C581 C579 1.415 . S
C582 H572 0.930 . S
C582 C580 1.419 . S
C582 C583 1.362 . S
C583 H573 0.930 . S
C583 C576 1.409 . S
C583 C582 1.362 . S
C271 C54 1.507 . S
C276 C21 1.505 . S
C287 C87 1.504 . S
C292 C120 1.501 . S
C303 C186 1.501 . S
C308 C153 1.500 . S
C319 C219 1.506 . S
C324 C252 1.507 . S
C335 C139 1.486 . S
C340 C7 1.486 . S
C351 C40 1.494 . S
C356 C172 1.494 . S
C367 C73 1.500 . S
C372 C205 1.500 . S
C383 C106 1.488 . S
C388 C238 1.488 . S
C399 N2 1.328 . S
C404 N13 1.331 . S
C415 N46 1.346 . S
C420 N35 1.344 . S
C431 N68 1.362 . S
C436 N79 1.363 . S
C447 N112 1.369 . S
C452 N101 1.368 . S
C463 N134 1.328 . S
C468 N145 1.330 . S
C479 N178 1.333 . S
C484 N167 1.331 . S
C495 N200 1.332 . S
C500 N211 1.334 . S
C511 N233 1.348 . S
C516 N244 1.350 . S
C527 C18 1.523 . S
C532 C84 1.529 . S
C543 C51 1.513 . S
C548 C117 1.515 . S
C559 C150 1.519 . S
C564 C216 1.514 . S
C575 C183 1.515 . S
C580 C249 1.513 . S
