# Generated by pormake.
# Topology umc, (4)-cn, num edge types: 1
# Building blocks:
#     Node 0, Type 0, BuildingBlock: QUQFOY_clean_sbu_3, # of connection points: 4
#     Node 1, Type 0, BuildingBlock: QUQFOY_clean_sbu_3, # of connection points: 4
#     Node 2, Type 0, BuildingBlock: QUQFOY_clean_sbu_3, # of connection points: 4
#     Node 3, Type 0, BuildingBlock: QUQFOY_clean_sbu_3, # of connection points: 4
#     Node 4, Type 0, BuildingBlock: QUQFOY_clean_sbu_3, # of connection points: 4
#     Node 5, Type 0, BuildingBlock: QUQFOY_clean_sbu_3, # of connection points: 4
#     Node 6, Type 0, BuildingBlock: QUQFOY_clean_sbu_3, # of connection points: 4
#     Node 7, Type 0, BuildingBlock: QUQFOY_clean_sbu_3, # of connection points: 4
#     Node 8, Type 0, BuildingBlock: QUQFOY_clean_sbu_3, # of connection points: 4
#     Node 9, Type 0, BuildingBlock: QUQFOY_clean_sbu_3, # of connection points: 4
#     Node 10, Type 0, BuildingBlock: QUQFOY_clean_sbu_3, # of connection points: 4
#     Node 11, Type 0, BuildingBlock: QUQFOY_clean_sbu_3, # of connection points: 4
#     Node 12, Type 0, BuildingBlock: QUQFOY_clean_sbu_3, # of connection points: 4
#     Node 13, Type 0, BuildingBlock: QUQFOY_clean_sbu_3, # of connection points: 4
#     Node 14, Type 0, BuildingBlock: QUQFOY_clean_sbu_3, # of connection points: 4
#     Node 15, Type 0, BuildingBlock: QUQFOY_clean_sbu_3, # of connection points: 4
#     Edge 16, Type (0, 0), BuildingBlock: UVAHIK_clean_linker_0, # of connection points: 2
#     Edge 17, Type (0, 0), BuildingBlock: UVAHIK_clean_linker_0, # of connection points: 2
#     Edge 18, Type (0, 0), BuildingBlock: UVAHIK_clean_linker_0, # of connection points: 2
#     Edge 19, Type (0, 0), BuildingBlock: UVAHIK_clean_linker_0, # of connection points: 2
#     Edge 20, Type (0, 0), BuildingBlock: UVAHIK_clean_linker_0, # of connection points: 2
#     Edge 21, Type (0, 0), BuildingBlock: UVAHIK_clean_linker_0, # of connection points: 2
#     Edge 22, Type (0, 0), BuildingBlock: UVAHIK_clean_linker_0, # of connection points: 2
#     Edge 23, Type (0, 0), BuildingBlock: UVAHIK_clean_linker_0, # of connection points: 2
#     Edge 24, Type (0, 0), BuildingBlock: UVAHIK_clean_linker_0, # of connection points: 2
#     Edge 25, Type (0, 0), BuildingBlock: UVAHIK_clean_linker_0, # of connection points: 2
#     Edge 26, Type (0, 0), BuildingBlock: UVAHIK_clean_linker_0, # of connection points: 2
#     Edge 27, Type (0, 0), BuildingBlock: UVAHIK_clean_linker_0, # of connection points: 2
#     Edge 28, Type (0, 0), BuildingBlock: UVAHIK_clean_linker_0, # of connection points: 2
#     Edge 29, Type (0, 0), BuildingBlock: UVAHIK_clean_linker_0, # of connection points: 2
#     Edge 30, Type (0, 0), BuildingBlock: UVAHIK_clean_linker_0, # of connection points: 2
#     Edge 31, Type (0, 0), BuildingBlock: UVAHIK_clean_linker_0, # of connection points: 2
#     Edge 32, Type (0, 0), BuildingBlock: UVAHIK_clean_linker_0, # of connection points: 2
#     Edge 33, Type (0, 0), BuildingBlock: UVAHIK_clean_linker_0, # of connection points: 2
#     Edge 34, Type (0, 0), BuildingBlock: UVAHIK_clean_linker_0, # of connection points: 2
#     Edge 35, Type (0, 0), BuildingBlock: UVAHIK_clean_linker_0, # of connection points: 2
#     Edge 36, Type (0, 0), BuildingBlock: UVAHIK_clean_linker_0, # of connection points: 2
#     Edge 37, Type (0, 0), BuildingBlock: UVAHIK_clean_linker_0, # of connection points: 2
#     Edge 38, Type (0, 0), BuildingBlock: UVAHIK_clean_linker_0, # of connection points: 2
#     Edge 39, Type (0, 0), BuildingBlock: UVAHIK_clean_linker_0, # of connection points: 2
#     Edge 40, Type (0, 0), BuildingBlock: UVAHIK_clean_linker_0, # of connection points: 2
#     Edge 41, Type (0, 0), BuildingBlock: UVAHIK_clean_linker_0, # of connection points: 2
#     Edge 42, Type (0, 0), BuildingBlock: UVAHIK_clean_linker_0, # of connection points: 2
#     Edge 43, Type (0, 0), BuildingBlock: UVAHIK_clean_linker_0, # of connection points: 2
#     Edge 44, Type (0, 0), BuildingBlock: UVAHIK_clean_linker_0, # of connection points: 2
#     Edge 45, Type (0, 0), BuildingBlock: UVAHIK_clean_linker_0, # of connection points: 2
#     Edge 46, Type (0, 0), BuildingBlock: UVAHIK_clean_linker_0, # of connection points: 2
#     Edge 47, Type (0, 0), BuildingBlock: UVAHIK_clean_linker_0, # of connection points: 2
# Relax obj value: 0.086
# Max RMSD: 0.169
# Mean RMSD: 0.169
data_MOF--net-umc--node1-QUQFOY_clean_sbu_3--edge1-UVAHIK_clean_linker_0
_symmetry_space_group_name_H-M    P1
_symmetry_Int_Tables_number       1
_symmetry_cell_setting            triclinic
loop_
_symmetry_equiv_pos_as_xyz
'x, y, z'
_cell_length_a     58.779354
_cell_length_b     45.494714
_cell_length_c     75.26195
_cell_angle_alpha  89.851176
_cell_angle_beta   89.992411
_cell_angle_gamma 90.2952
loop_
_atom_site_label
_atom_site_type_symbol
_atom_site_fract_x
_atom_site_fract_y
_atom_site_fract_z
_atom_type_partial_charge
C0 C 0.29837 -0.00565 0.32037 0.0
O1 O 0.30089 0.97152 0.32987 0.0
Cd2 Cd 0.32072 0.97359 0.3577 0.0
O3 O 0.30516 0.01929 0.32592 0.0
Cd4 Cd 0.32169 0.04375 0.352 0.0
C5 C 0.3714 0.00786 0.34549 0.0
O6 O 0.30461 0.01243 0.37481 0.0
O7 O 0.33192 0.04138 0.38306 0.0
O8 O 0.28976 0.07672 0.34949 0.0
C9 C 0.31681 0.02264 0.38728 0.0
O10 O 0.36032 0.9852 0.35059 0.0
C11 C 0.30104 0.10053 0.34907 0.0
O12 O 0.36153 0.03267 0.34382 0.0
O13 O 0.32261 0.09832 0.34985 0.0
C14 C 0.68616 0.98471 0.32283 0.0
O15 O 0.6831 0.00733 0.33236 0.0
Cd16 Cd 0.66565 0.00296 0.36119 0.0
O17 O 0.68026 0.95936 0.32838 0.0
Cd18 Cd 0.66424 0.93217 0.35355 0.0
C19 C 0.61432 0.9699 0.34994 0.0
O20 O 0.68378 0.96228 0.3755 0.0
O21 O 0.66062 0.92895 0.38552 0.0
O22 O 0.69486 0.89888 0.34651 0.0
C23 C 0.67493 0.94921 0.38872 0.0
O24 O 0.62581 -0.00791 0.35514 0.0
C25 C 0.68313 0.87543 0.34658 0.0
O26 O 0.6239 0.94507 0.34754 0.0
O27 O 0.66192 0.87809 0.34957 0.0
C28 C 0.29117 0.98753 0.13713 0.0
O29 O 0.29424 0.01136 0.12864 0.0
Cd30 Cd 0.31432 0.01154 0.10081 0.0
O31 O 0.29795 0.96326 0.13074 0.0
Cd32 Cd 0.31568 0.94121 0.10454 0.0
C33 C 0.36491 0.97786 0.11286 0.0
O34 O 0.29908 0.97365 0.08215 0.0
O35 O 0.32686 0.94585 0.07383 0.0
O36 O 0.28427 0.90674 0.10563 0.0
C37 C 0.31178 0.96451 0.06972 0.0
O38 O 0.35383 0.00057 0.10812 0.0
C39 C 0.29602 0.88347 0.10604 0.0
O40 O 0.35514 0.95274 0.11379 0.0
O41 O 0.31755 0.88671 0.10578 0.0
C42 C 0.68006 -0.00131 0.13865 0.0
O43 O 0.6778 0.97541 0.12956 0.0
Cd44 Cd 0.65892 0.97627 0.10142 0.0
O45 O 0.67363 0.02333 0.13244 0.0
Cd46 Cd 0.65843 0.04587 0.10522 0.0
C47 C 0.60824 0.01106 0.11203 0.0
O48 O 0.67685 0.01362 0.08389 0.0
O49 O 0.64929 0.04033 0.07391 0.0
O50 O 0.69048 0.07906 0.10774 0.0
C51 C 0.66533 0.02255 0.07073 0.0
O52 O 0.61913 0.98809 0.10755 0.0
C53 C 0.67941 0.10286 0.10696 0.0
O54 O 0.61841 0.03584 0.11326 0.0
O55 O 0.65789 0.10056 0.10551 0.0
C56 C 0.68089 0.98388 0.63879 0.0
O57 O 0.67917 0.00728 0.62969 0.0
Cd58 Cd 0.66039 0.00632 0.60146 0.0
O59 O 0.67405 0.95946 0.63252 0.0
Cd60 Cd 0.65876 0.93699 0.60541 0.0
C61 C 0.60905 0.97229 0.61186 0.0
O62 O 0.67792 0.96882 0.58399 0.0
O63 O 0.65011 0.94221 0.57402 0.0
O64 O 0.6905 0.90397 0.60841 0.0
C65 C 0.66646 0.95975 0.57082 0.0
O66 O 0.62034 -0.00485 0.60743 0.0
C67 C 0.6793 0.88012 0.60796 0.0
O68 O 0.61882 0.94738 0.61315 0.0
O69 O 0.65781 0.88227 0.60637 0.0
C70 C 0.29306 -0.00487 0.63663 0.0
O71 O 0.29535 0.97273 0.62678 0.0
Cd72 Cd 0.31525 0.97566 0.59902 0.0
O73 O 0.30011 0.02023 0.63147 0.0
Cd74 Cd 0.31702 0.04588 0.60585 0.0
C75 C 0.36611 0.00853 0.61224 0.0
O76 O 0.29989 0.01585 0.58259 0.0
O77 O 0.32745 0.04479 0.57479 0.0
O78 O 0.28565 0.07968 0.60887 0.0
C79 C 0.31232 0.02628 0.5703 0.0
O80 O 0.35481 0.98638 0.60672 0.0
C81 C 0.29741 0.10309 0.60954 0.0
O82 O 0.35657 0.0335 0.61416 0.0
O83 O 0.31892 0.10021 0.60868 0.0
C84 C 0.68363 -0.00919 0.82238 0.0
O85 O 0.67937 0.96793 0.83151 0.0
Cd86 Cd 0.66081 0.97227 0.85994 0.0
O87 O 0.67827 0.01611 0.8281 0.0
Cd88 Cd 0.66194 0.04279 0.85308 0.0
C89 C 0.61096 0.00752 0.84808 0.0
O90 O 0.67971 0.01146 0.87537 0.0
O91 O 0.65698 0.0453 0.88488 0.0
O92 O 0.69378 0.0751 0.84716 0.0
C93 C 0.67069 0.02466 0.88839 0.0
O94 O 0.62144 0.98466 0.85335 0.0
C95 C 0.68274 0.09895 0.84696 0.0
O96 O 0.62155 0.03188 0.84601 0.0
O97 O 0.66134 0.097 0.84934 0.0
C98 C 0.29411 0.98355 0.81994 0.0
O99 O 0.29702 0.00749 0.82828 0.0
Cd100 Cd 0.31684 0.00829 0.85619 0.0
O101 O 0.30092 0.95938 0.82654 0.0
Cd102 Cd 0.31846 0.93783 0.85306 0.0
C103 C 0.36769 0.97468 0.84483 0.0
O104 O 0.30136 0.97055 0.87493 0.0
O105 O 0.32897 0.94297 0.88391 0.0
O106 O 0.28713 0.9033 0.85188 0.0
C107 C 0.31379 0.96168 0.88762 0.0
O108 O 0.35647 -0.00259 0.84927 0.0
C109 C 0.2989 0.88003 0.85185 0.0
O110 O 0.35803 0.94949 0.84407 0.0
O111 O 0.32041 0.88329 0.85236 0.0
C112 C 0.7938 0.48821 0.32154 0.0
O113 O 0.79737 0.4658 0.33119 0.0
Cd114 Cd 0.81713 0.47215 0.35896 0.0
O115 O 0.80036 0.51354 0.32653 0.0
Cd116 Cd 0.81838 0.54051 0.35077 0.0
C117 C 0.86792 0.50353 0.34533 0.0
O118 O 0.80009 0.51246 0.37471 0.0
O119 O 0.8264 0.54366 0.38204 0.0
O120 O 0.78706 0.5735 0.34539 0.0
C121 C 0.81093 0.52583 0.38686 0.0
O122 O 0.85679 0.4816 0.35138 0.0
C123 C 0.79856 0.59709 0.34459 0.0
O124 O 0.85815 0.52821 0.34284 0.0
O125 O 0.82001 0.59472 0.34633 0.0
C126 C 0.18419 0.48414 0.31984 0.0
O127 O 0.18113 0.50666 0.32946 0.0
Cd128 Cd 0.16059 0.50356 0.35694 0.0
O129 O 0.17756 0.45891 0.32511 0.0
Cd130 Cd 0.16057 0.43348 0.35078 0.0
C131 C 0.11071 0.46873 0.34351 0.0
O132 O 0.17667 0.46453 0.37402 0.0
O133 O 0.14949 0.4349 0.38172 0.0
O134 O 0.19269 0.40064 0.34858 0.0
C135 C 0.16427 0.45385 0.38626 0.0
O136 O 0.12135 0.49146 0.34897 0.0
C137 C 0.18142 0.37684 0.34789 0.0
O138 O 0.12092 0.44415 0.3419 0.0
O139 O 0.15984 0.37903 0.34836 0.0
C140 C 0.79965 0.48179 0.13856 0.0
O141 O 0.80178 0.50548 0.12978 0.0
Cd142 Cd 0.82109 0.5057 0.10178 0.0
O143 O 0.80641 0.45755 0.13209 0.0
Cd144 Cd 0.82206 0.43635 0.10475 0.0
C145 C 0.87201 0.47131 0.1121 0.0
O146 O 0.80354 0.46902 0.08355 0.0
O147 O 0.83147 0.44301 0.07357 0.0
O148 O 0.79011 0.40297 0.10669 0.0
C149 C 0.81526 0.46055 0.07041 0.0
O150 O 0.86098 0.49433 0.10786 0.0
C151 C 0.80124 0.37923 0.10598 0.0
O152 O 0.86198 0.44639 0.11303 0.0
O153 O 0.82278 0.38162 0.10478 0.0
C154 C 0.18909 0.49635 0.13689 0.0
O155 O 0.18608 0.47255 0.12843 0.0
Cd156 Cd 0.16606 0.4722 0.10059 0.0
O157 O 0.18224 0.52064 0.13047 0.0
Cd158 Cd 0.16442 0.54267 0.1042 0.0
C159 C 0.1153 0.50557 0.11247 0.0
O160 O 0.18129 0.51033 0.08202 0.0
O161 O 0.15361 0.53807 0.07338 0.0
O162 O 0.19558 0.57753 0.10536 0.0
C163 C 0.16872 0.51938 0.06946 0.0
O164 O 0.12648 0.48293 0.1078 0.0
C165 C 0.18364 0.60064 0.10574 0.0
O166 O 0.12497 0.53074 0.11336 0.0
O167 O 0.16215 0.59712 0.10541 0.0
C168 C 0.18651 0.48944 0.63648 0.0
O169 O 0.18405 0.51193 0.62667 0.0
Cd170 Cd 0.16317 0.50892 0.59933 0.0
O171 O 0.17922 0.46444 0.63142 0.0
Cd172 Cd 0.16164 0.43904 0.6061 0.0
C173 C 0.11272 0.47606 0.61349 0.0
O174 O 0.1779 0.46904 0.5823 0.0
O175 O 0.14997 0.44011 0.57536 0.0
O176 O 0.19338 0.40572 0.60842 0.0
C177 C 0.16499 0.45847 0.57038 0.0
O178 O 0.12386 0.49828 0.6078 0.0
C179 C 0.1819 0.38213 0.60948 0.0
O180 O 0.1223 0.45106 0.61518 0.0
O181 O 0.16034 0.38465 0.60916 0.0
C182 C 0.79672 0.49865 0.63869 0.0
O183 O 0.79997 0.47552 0.62968 0.0
Cd184 Cd 0.8192 0.47954 0.60149 0.0
O185 O 0.80307 0.52352 0.63273 0.0
Cd186 Cd 0.82004 0.54798 0.60707 0.0
C187 C 0.87005 0.51244 0.61318 0.0
O188 O 0.80165 0.51781 0.58415 0.0
O189 O 0.82808 0.54823 0.5758 0.0
O190 O 0.78842 0.58092 0.61121 0.0
C191 C 0.81247 0.53023 0.57157 0.0
O192 O 0.85906 0.48985 0.60798 0.0
C193 C 0.79973 0.6047 0.61117 0.0
O194 O 0.86 0.53707 0.61503 0.0
O195 O 0.82121 0.60247 0.60952 0.0
C196 C 0.18709 0.49671 0.81948 0.0
O197 O 0.18372 0.47256 0.82756 0.0
Cd198 Cd 0.1638 0.47147 0.85547 0.0
O199 O 0.18069 0.52081 0.82633 0.0
Cd200 Cd 0.16342 0.54162 0.85308 0.0
C201 C 0.11347 0.50666 0.84471 0.0
O202 O 0.17979 0.50783 0.87489 0.0
O203 O 0.15234 0.53576 0.88372 0.0
O204 O 0.1952 0.57557 0.8528 0.0
C205 C 0.16727 0.51672 0.8875 0.0
O206 O 0.12424 0.48342 0.84892 0.0
C207 C 0.1837 0.59905 0.85251 0.0
O208 O 0.12366 0.53151 0.84407 0.0
O209 O 0.16214 0.59619 0.85251 0.0
C210 C 0.79896 0.48539 0.82232 0.0
O211 O 0.80119 0.50781 0.8322 0.0
Cd212 Cd 0.81882 0.50401 0.86093 0.0
O213 O 0.80515 0.46016 0.82775 0.0
Cd214 Cd 0.82022 0.43343 0.85341 0.0
C215 C 0.87018 0.47132 0.84989 0.0
O216 O 0.80052 0.46336 0.87524 0.0
O217 O 0.82382 0.43068 0.88542 0.0
O218 O 0.78946 0.40004 0.84642 0.0
C219 C 0.80937 0.45062 0.88853 0.0
O220 O 0.85874 0.49348 0.85497 0.0
C221 C 0.80104 0.37662 0.84665 0.0
O222 O 0.86054 0.44641 0.84754 0.0
O223 O 0.82225 0.37936 0.84971 0.0
C224 C 0.33184 0.01825 0.41803 0.0
C225 C 0.31466 0.01188 0.40567 0.0
C226 C 0.32979 0.00898 0.43558 0.0
C227 C 0.28771 -0.00505 0.46925 0.0
H228 H 0.34069 0.97009 0.49597 0.0
C229 C 0.29203 -0.00127 0.54619 0.0
C230 C 0.31085 0.01539 0.55193 0.0
C231 C 0.29069 0.98911 0.52858 0.0
C232 C 0.32567 0.97668 0.48867 0.0
H233 H 0.28201 0.99038 0.40185 0.0
H234 H 0.27818 0.97464 0.43292 0.0
H235 H 0.34158 0.96906 0.46356 0.0
H236 H 0.34323 0.03436 0.54397 0.0
H237 H 0.34093 0.01754 0.51342 0.0
H238 H 0.27231 0.00424 0.49441 0.0
C239 C 0.29329 0.98661 0.42886 0.0
C240 C 0.32617 0.97609 0.47017 0.0
C241 C 0.29549 -0.0044 0.41114 0.0
C242 C 0.32848 0.02167 0.53992 0.0
C243 C 0.32728 0.01176 0.52248 0.0
C244 C 0.28719 -0.00448 0.48781 0.0
C245 C 0.31042 -0.00666 0.44122 0.0
C246 C 0.30763 0.98663 0.46032 0.0
C247 C 0.30833 -0.00442 0.51659 0.0
C248 C 0.30661 0.98778 0.49761 0.0
H249 H 0.34684 0.03066 0.41418 0.0
H250 H 0.34306 0.01496 0.4449 0.0
H251 H 0.27321 0.00327 0.46195 0.0
H252 H 0.27821 -0.00643 0.55522 0.0
H253 H 0.27587 0.97676 0.52431 0.0
C254 C 0.65485 0.96799 0.53943 0.0
C255 C 0.6717 0.96933 0.5526 0.0
C256 C 0.66011 0.97511 0.52189 0.0
C257 C 0.67528 0.00358 0.4869 0.0
H258 H 0.71818 0.94791 0.4672 0.0
C259 C 0.68835 0.9856 0.41127 0.0
C260 C 0.68101 0.95701 0.40704 0.0
C261 C 0.69265 -0.00674 0.42893 0.0
C262 C 0.70659 0.96406 0.47258 0.0
H263 H 0.70706 0.97985 0.558 0.0
H264 H 0.71648 -0.00884 0.52695 0.0
H265 H 0.71481 0.95293 0.49947 0.0
H266 H 0.67344 0.9137 0.41762 0.0
H267 H 0.68159 0.92688 0.44839 0.0
H268 H 0.66624 0.01356 0.45999 0.0
C269 C 0.69916 0.98518 0.53038 0.0
C270 C 0.70472 0.96701 0.49096 0.0
C271 C 0.69377 0.97869 0.54805 0.0
C272 C 0.67894 0.93592 0.42057 0.0
C273 C 0.68379 0.94336 0.43811 0.0
C274 C 0.67746 0.00102 0.46851 0.0
C275 C 0.68239 0.98314 0.51717 0.0
C276 C 0.68834 0.98582 0.49823 0.0
C277 C 0.69032 0.97216 0.44244 0.0
C278 C 0.6924 0.9803 0.46128 0.0
H279 H 0.63769 0.96099 0.54264 0.0
H280 H 0.64699 0.97299 0.51185 0.0
H281 H 0.66254 0.0182 0.49229 0.0
H282 H 0.69 0.00223 0.40101 0.0
H283 H 0.69752 0.01565 0.43209 0.0
C284 C 0.32791 0.97118 0.03946 0.0
C285 C 0.31011 0.97612 0.05149 0.0
C286 C 0.3263 0.98101 0.02199 0.0
C287 C 0.28512 -0.00649 -0.01242 0.0
H288 H 0.33842 0.02168 0.96219 0.0
C289 C 0.29231 0.98943 0.9109 0.0
C290 C 0.31171 0.9737 0.9057 0.0
C291 C 0.29017 -0.00052 0.92837 0.0
C292 C 0.32329 0.01418 0.96912 0.0
H293 H 0.27685 -0.00426 0.05485 0.0
H294 H 0.2738 0.01243 0.0239 0.0
H295 H 0.33805 0.02232 -0.00538 0.0
H296 H 0.3444 0.95707 0.9144 0.0
H297 H 0.34074 0.97463 0.94469 0.0
H298 H 0.27095 0.98365 0.96205 0.0
C299 C 0.28905 0.00116 0.02816 0.0
C300 C 0.32308 0.01455 -0.01238 0.0
C301 C 0.2908 -0.00837 0.0458 0.0
C302 C 0.32921 0.96901 0.91804 0.0
C303 C 0.32722 0.97936 0.93535 0.0
C304 C 0.28533 -0.00684 0.96901 0.0
C305 C 0.30677 -0.00423 0.0161 0.0
C306 C 0.30448 0.00281 -0.00299 0.0
C307 C 0.3076 -0.00561 0.94075 0.0
C308 C 0.3049 0.00209 0.95969 0.0
H309 H 0.34305 0.95941 0.04348 0.0
H310 H 0.34005 0.97606 0.01291 0.0
H311 H 0.27059 0.98426 -0.0055 0.0
H312 H 0.27858 -0.00665 0.9016 0.0
H313 H 0.27486 0.01094 0.93226 0.0
C314 C 0.67475 0.03869 0.92007 0.0
C315 C 0.67643 0.01718 0.90684 0.0
C316 C 0.67956 0.03172 0.93769 0.0
C317 C 0.67247 0.97591 0.96921 0.0
H318 H 0.71228 0.02368 -0.0014 0.0
C319 C 0.69151 0.00161 0.04797 0.0
C320 C 0.66986 0.01206 0.05263 0.0
C321 C 0.69625 -0.00602 0.03039 0.0
C322 C 0.70148 0.00967 -0.00946 0.0
H323 H 0.68459 0.97165 0.90143 0.0
H324 H 0.69202 0.95906 0.93269 0.0
H325 H 0.71501 0.02697 0.9662 0.0
H326 H 0.63587 0.02117 0.04298 0.0
H327 H 0.64403 0.00724 0.01235 0.0
H328 H 0.65753 0.96064 -0.00645 0.0
C329 C 0.6875 0.98141 0.92922 0.0
C330 C 0.70301 0.01163 0.97209 0.0
C331 C 0.68324 0.98859 0.91145 0.0
C332 C 0.65274 0.01338 0.03968 0.0
C333 C 0.65733 0.00514 0.02224 0.0
C334 C 0.67065 0.97436 -0.01232 0.0
C335 C 0.68566 0.00298 0.94241 0.0
C336 C 0.68797 -0.00446 0.96134 0.0
C337 C 0.67922 -0.00403 0.01739 0.0
C338 C 0.6846 -0.00796 -0.00157 0.0
H339 H 0.66966 0.06092 0.91682 0.0
H340 H 0.67775 0.04857 0.94774 0.0
H341 H 0.6606 0.96353 0.96111 0.0
H342 H 0.705 0.00042 0.05775 0.0
H343 H 0.71328 0.98712 0.02685 0.0
C344 C 0.79134 0.50315 0.54765 0.0
C345 C 0.80599 0.52611 0.55284 0.0
C346 C 0.78507 0.50003 0.5298 0.0
C347 C 0.78044 0.54229 0.48851 0.0
H348 H 0.7966 0.47088 0.46355 0.0
C349 C 0.81292 0.54332 0.41805 0.0
C350 C 0.80472 0.52276 0.40573 0.0
C351 C 0.80671 0.54134 0.43583 0.0
C352 C 0.79144 0.49068 0.47039 0.0
H353 H 0.82545 0.56381 0.54357 0.0
H354 H 0.81438 0.55853 0.51267 0.0
H355 H 0.79687 0.47156 0.49613 0.0
H356 H 0.78379 0.48375 0.40233 0.0
H357 H 0.77334 0.47988 0.43387 0.0
H358 H 0.77634 0.56197 0.4629 0.0
C359 C 0.80766 0.54304 0.52232 0.0
C360 C 0.79159 0.49106 0.48897 0.0
C361 C 0.81417 0.54588 0.53998 0.0
C362 C 0.79031 0.49993 0.41158 0.0
C363 C 0.78433 0.49769 0.42954 0.0
C364 C 0.78029 0.54191 0.47003 0.0
C365 C 0.79303 0.5202 0.51706 0.0
C366 C 0.78718 0.51732 0.49809 0.0
C367 C 0.79235 0.51859 0.44175 0.0
C368 C 0.78688 0.51655 0.46083 0.0
H369 H 0.78484 0.48758 0.55733 0.0
H370 H 0.77388 0.48215 0.52598 0.0
H371 H 0.77663 0.56265 0.49531 0.0
H372 H 0.82401 0.56118 0.41394 0.0
H373 H 0.81347 0.55741 0.44506 0.0
C374 C 0.18488 0.48497 0.54555 0.0
C375 C 0.16627 0.46834 0.55175 0.0
C376 C 0.18618 0.49328 0.52766 0.0
C377 C 0.19036 0.48438 0.48726 0.0
H378 H 0.13578 0.50644 0.46162 0.0
C379 C 0.14842 0.45717 0.41682 0.0
C380 C 0.1657 0.46445 0.4047 0.0
C381 C 0.14972 0.46659 0.43437 0.0
C382 C 0.15122 0.50058 0.46861 0.0
H383 H 0.13415 0.44814 0.54431 0.0
H384 H 0.13639 0.46259 0.51329 0.0
H385 H 0.13592 0.50745 0.49404 0.0
H386 H 0.19777 0.4876 0.40131 0.0
H387 H 0.20026 0.50363 0.43234 0.0
H388 H 0.20524 0.47599 0.4618 0.0
C389 C 0.14991 0.4694 0.52218 0.0
C390 C 0.1513 0.50115 0.48712 0.0
C391 C 0.14875 0.46085 0.53992 0.0
C392 C 0.18422 0.48167 0.41041 0.0
C393 C 0.18567 0.49082 0.42811 0.0
C394 C 0.19029 0.48384 0.46869 0.0
C395 C 0.1687 0.48546 0.51583 0.0
C396 C 0.17051 0.49173 0.4966 0.0
C397 C 0.16841 0.48329 0.44023 0.0
C398 C 0.17035 0.49062 0.45928 0.0
H399 H 0.19862 0.49107 0.55442 0.0
H400 H 0.20085 0.50562 0.52306 0.0
H401 H 0.20537 0.47693 0.49426 0.0
H402 H 0.13391 0.44402 0.41279 0.0
H403 H 0.13638 0.46001 0.4435 0.0
C404 C 0.80531 0.43769 0.92044 0.0
C405 C 0.80322 0.45856 0.9068 0.0
C406 C 0.80031 0.44526 0.93791 0.0
C407 C 0.80613 0.50308 0.96821 0.0
H408 H 0.76799 0.45496 -0.00114 0.0
C409 C 0.78844 0.48005 0.04756 0.0
C410 C 0.81039 0.47073 0.05226 0.0
C411 C 0.78336 0.4869 0.0299 0.0
C412 C 0.7783 0.46906 -0.00956 0.0
H413 H 0.79408 0.50352 0.90052 0.0
H414 H 0.78628 0.51718 0.93151 0.0
H415 H 0.76516 0.44978 0.96658 0.0
H416 H 0.84456 0.46295 0.04257 0.0
H417 H 0.83581 0.47554 0.0118 0.0
H418 H 0.82074 0.52043 -0.00789 0.0
C419 C 0.79128 0.49486 0.92847 0.0
C420 C 0.77673 0.46602 0.97205 0.0
C421 C 0.79574 0.48706 0.91086 0.0
C422 C 0.82747 0.46989 0.03926 0.0
C423 C 0.82253 0.47736 0.02172 0.0
C424 C 0.808 0.50574 -0.01338 0.0
C425 C 0.79359 0.47397 0.94209 0.0
C426 C 0.7912 0.48225 0.96087 0.0
C427 C 0.80034 0.48525 0.01683 0.0
C428 C 0.79467 0.48796 -0.00216 0.0
H429 H 0.81092 0.41555 0.91761 0.0
H430 H 0.80248 0.42895 0.94829 0.0
H431 H 0.81756 0.51562 0.95978 0.0
H432 H 0.77498 0.48085 0.05739 0.0
H433 H 0.76611 0.49278 0.02635 0.0
C434 C 0.15275 0.51223 0.0392 0.0
C435 C 0.17044 0.50741 0.05135 0.0
C436 C 0.15435 0.50181 0.02188 0.0
C437 C 0.19546 0.48747 -0.01228 0.0
H438 H 0.14211 0.45844 0.96286 0.0
C439 C 0.1885 0.48908 0.91106 0.0
C440 C 0.16913 0.50469 0.90562 0.0
C441 C 0.19053 0.47939 0.92865 0.0
C442 C 0.15725 0.46618 0.96964 0.0
H443 H 0.20355 0.48749 0.05507 0.0
H444 H 0.2066 0.4698 0.02438 0.0
H445 H 0.14242 0.45934 -0.00472 0.0
H446 H 0.13632 0.52131 0.914 0.0
H447 H 0.13979 0.5044 0.94448 0.0
H448 H 0.2097 0.49611 0.96203 0.0
C449 C 0.19143 0.48141 0.02844 0.0
C450 C 0.15742 0.46669 -0.01185 0.0
C451 C 0.18967 0.49152 0.04593 0.0
C452 C 0.1515 0.50947 0.91783 0.0
C453 C 0.15338 0.49949 0.93525 0.0
C454 C 0.19528 0.48698 0.96916 0.0
C455 C 0.17378 0.48659 0.01626 0.0
C456 C 0.17606 0.47874 -0.00269 0.0
C457 C 0.17302 0.48472 0.94092 0.0
C458 C 0.1757 0.47774 0.95999 0.0
H459 H 0.13768 0.52429 0.04301 0.0
H460 H 0.14067 0.50661 0.01269 0.0
H461 H 0.21001 0.49694 -0.00553 0.0
H462 H 0.20233 0.48508 0.90187 0.0
H463 H 0.20585 0.4681 0.93274 0.0
C464 C 0.5801 0.00195 0.34672 0.0
C465 C 0.58952 0.97358 0.34691 0.0
C466 C 0.55673 0.00597 0.34472 0.0
C467 C 0.5033 0.96895 0.33054 0.0
H468 H 0.47527 0.02924 0.35946 0.0
C469 C 0.40621 0.977 0.3417 0.0
C470 C 0.39626 0.00504 0.3424 0.0
C471 C 0.42978 0.97387 0.34038 0.0
C472 C 0.48285 0.01262 0.35108 0.0
H473 H 0.5816 0.92714 0.34478 0.0
H474 H 0.54055 0.93412 0.3416 0.0
H475 H 0.51615 0.02168 0.36111 0.0
H476 H 0.40336 0.05184 0.34173 0.0
H477 H 0.44467 0.04635 0.33945 0.0
H478 H 0.46976 0.95956 0.32083 0.0
C479 C 0.5514 0.95332 0.34277 0.0
C480 C 0.50634 0.00824 0.35203 0.0
C481 C 0.57493 0.94928 0.34467 0.0
C482 C 0.41045 0.02993 0.34123 0.0
C483 C 0.43412 0.02678 0.34004 0.0
C484 C 0.47975 0.97326 0.32966 0.0
C485 C 0.54198 0.98175 0.34297 0.0
C486 C 0.5169 0.98632 0.34179 0.0
C487 C 0.44407 -0.00131 0.33984 0.0
C488 C 0.46924 -0.0049 0.33996 0.0
H489 H 0.59081 0.02125 0.34819 0.0
H490 H 0.55022 0.0282 0.34452 0.0
H491 H 0.51086 0.95218 0.32227 0.0
H492 H 0.39583 0.9573 0.34251 0.0
H493 H 0.43685 0.95193 0.34043 0.0
C494 C 0.40398 0.95644 0.11735 0.0
C495 C 0.38963 0.98104 0.11648 0.0
C496 C 0.42758 0.96009 0.11905 0.0
C497 C 0.47276 0.01551 0.11058 0.0
H498 H 0.51046 0.96261 0.13809 0.0
C499 C 0.56984 0.03368 0.1176 0.0
C500 C 0.58337 0.00859 0.11529 0.0
C501 C 0.5462 0.031 0.11954 0.0
C502 C 0.50016 0.97749 0.13027 0.0
H503 H 0.38882 0.02871 0.11762 0.0
H504 H 0.42964 0.03495 0.12091 0.0
H505 H 0.46918 0.9562 0.13825 0.0
H506 H 0.58263 0.96092 0.11375 0.0
H507 H 0.54165 0.95637 0.11704 0.0
H508 H 0.50369 0.03663 0.10247 0.0
C509 C 0.42283 0.01287 0.11981 0.0
C510 C 0.4765 0.97377 0.13033 0.0
C511 C 0.39934 0.00924 0.11803 0.0
C512 C 0.57278 0.98077 0.11545 0.0
C513 C 0.54924 0.9781 0.11747 0.0
C514 C 0.49637 0.01926 0.11056 0.0
C515 C 0.43732 0.98841 0.11998 0.0
C516 C 0.46249 -0.00735 0.12041 0.0
C517 C 0.53561 0.00317 0.11934 0.0
C518 C 0.51039 0.00018 0.12029 0.0
H519 H 0.39707 0.93442 0.11615 0.0
H520 H 0.43825 0.94075 0.11901 0.0
H521 H 0.46258 0.03014 0.10251 0.0
H522 H 0.57742 0.05543 0.11758 0.0
H523 H 0.5362 0.05074 0.12115 0.0
C524 C 0.5702 0.95007 0.61687 0.0
C525 C 0.58419 0.97504 0.61497 0.0
C526 C 0.54658 0.95303 0.61864 0.0
C527 C 0.50133 0.0066 0.62977 0.0
H528 H 0.46325 0.95603 0.60085 0.0
C529 C 0.40546 0.0293 0.61715 0.0
C530 C 0.39081 0.00491 0.61568 0.0
C531 C 0.42902 0.02535 0.61875 0.0
C532 C 0.47356 0.97006 0.60925 0.0
H533 H 0.58429 0.02276 0.61396 0.0
H534 H 0.54334 0.02781 0.617 0.0
H535 H 0.50426 0.94903 0.60097 0.0
H536 H 0.38939 0.95721 0.61565 0.0
H537 H 0.43012 0.9504 0.61882 0.0
H538 H 0.47059 0.02775 0.63798 0.0
C539 C 0.55056 0.00595 0.61722 0.0
C540 C 0.49711 0.96602 0.60931 0.0
C541 C 0.57407 0.003 0.61535 0.0
C542 C 0.40017 0.97654 0.61653 0.0
C543 C 0.4236 0.97261 0.61823 0.0
C544 C 0.47772 0.01058 0.62977 0.0
C545 C 0.53648 0.98102 0.61868 0.0
C546 C 0.51131 0.98434 0.61947 0.0
C547 C 0.43841 -0.00309 0.61901 0.0
C548 C 0.46353 -0.00756 0.61944 0.0
H549 H 0.57741 0.92821 0.61665 0.0
H550 H 0.53622 0.93339 0.61992 0.0
H551 H 0.51177 0.02089 0.63791 0.0
H552 H 0.39883 0.05144 0.61649 0.0
H553 H 0.43992 0.0446 0.61918 0.0
C554 C 0.57283 0.03046 0.84169 0.0
C555 C 0.58611 0.00531 0.84469 0.0
C556 C 0.54921 0.02797 0.83947 0.0
C557 C 0.50321 0.97443 0.82894 0.0
H558 H 0.46503 0.02809 0.8553 0.0
C559 C 0.40691 0.95343 0.84102 0.0
C560 C 0.39246 0.97794 0.84141 0.0
C561 C 0.43053 0.9572 0.83951 0.0
C562 C 0.47538 0.01317 0.84761 0.0
H563 H 0.58494 0.95775 0.84722 0.0
H564 H 0.54405 0.95354 0.84343 0.0
H565 H 0.50615 0.03458 0.85578 0.0
H566 H 0.39146 0.02556 0.8396 0.0
H567 H 0.43232 0.032 0.83663 0.0
H568 H 0.47242 0.95286 0.82088 0.0
C569 C 0.5518 0.97516 0.84267 0.0
C570 C 0.499 0.01693 0.84789 0.0
C571 C 0.5753 0.97764 0.84499 0.0
C572 C 0.40208 0.00616 0.83956 0.0
C573 C 0.42558 0.0099 0.83797 0.0
C574 C 0.47956 0.97072 0.8286 0.0
C575 C 0.53842 0.00027 0.84006 0.0
C576 C 0.51323 -0.00255 0.8387 0.0
C577 C 0.44017 0.98555 0.83828 0.0
C578 C 0.46534 0.98992 0.83804 0.0
H579 H 0.58059 0.05209 0.84136 0.0
H580 H 0.53939 0.04773 0.83732 0.0
H581 H 0.51368 0.95925 0.82153 0.0
H582 H 0.40007 0.9314 0.84246 0.0
H583 H 0.44126 0.93793 0.83994 0.0
C584 C 0.9071 0.5243 0.3395 0.0
C585 C 0.89258 0.49992 0.3417 0.0
C586 C 0.93062 0.52039 0.33752 0.0
C587 C 0.97565 0.46552 0.34689 0.0
H588 H 0.01274 0.51569 0.31678 0.0
C589 C 0.07214 0.446 0.33812 0.0
C590 C 0.08596 0.47114 0.33986 0.0
C591 C 0.04849 0.44869 0.33635 0.0
C592 C 0.00261 0.50156 0.3253 0.0
H593 H 0.89132 0.45224 0.34266 0.0
H594 H 0.93194 0.44547 0.33879 0.0
H595 H 0.97154 0.52238 0.31748 0.0
H596 H 0.08577 0.51887 0.34035 0.0
H597 H 0.04479 0.52345 0.33726 0.0
H598 H 0.00668 0.44482 0.35478 0.0
C599 C 0.92539 0.46767 0.33912 0.0
C600 C 0.97899 0.50546 0.32575 0.0
C601 C 0.90201 0.47157 0.34123 0.0
C602 C 0.07568 0.49899 0.33912 0.0
C603 C 0.05214 0.50167 0.33722 0.0
C604 C -0.00079 0.46153 0.34637 0.0
C605 C 0.94009 0.49199 0.33757 0.0
C606 C 0.96521 0.48758 0.33664 0.0
C607 C 0.03821 0.47658 0.33611 0.0
C608 C 0.013 0.47963 0.33567 0.0
H609 H 0.9004 0.54643 0.33985 0.0
H610 H 0.94143 0.53966 0.3365 0.0
H611 H 0.9657 0.45169 0.35571 0.0
H612 H 0.07948 0.42423 0.33862 0.0
H613 H 0.03823 0.42893 0.33533 0.0
C614 C 0.07618 0.52676 0.11706 0.0
C615 C 0.09057 0.50223 0.11606 0.0
C616 C 0.05258 0.523 0.11878 0.0
C617 C 0.00748 0.46765 0.11018 0.0
H618 H 0.96981 0.51973 0.13813 0.0
C619 C 0.91052 0.4488 0.11744 0.0
C620 C 0.89687 0.47386 0.11536 0.0
C621 C 0.93415 0.45157 0.11933 0.0
C622 C 0.98009 0.50509 0.13018 0.0
H623 H 0.09148 0.45454 0.11699 0.0
H624 H 0.05067 0.4481 0.12032 0.0
H625 H 0.01107 0.52632 0.13815 0.0
H626 H 0.89742 0.52157 0.11416 0.0
H627 H 0.9384 0.52629 0.11734 0.0
H628 H 0.97655 0.44659 0.10208 0.0
C629 C 0.05744 0.47023 0.1193 0.0
C630 C 0.00375 0.50891 0.13017 0.0
C631 C 0.08092 0.47396 0.1175 0.0
C632 C 0.90736 0.50174 0.1157 0.0
C633 C 0.9309 0.5045 0.11765 0.0
C634 C 0.98387 0.46379 0.11023 0.0
C635 C 0.0429 0.49464 0.11961 0.0
C636 C 0.01774 0.49032 0.1201 0.0
C637 C 0.94464 0.47947 0.11928 0.0
C638 C 0.96986 0.48257 0.12013 0.0
H639 H 0.08304 0.54883 0.11595 0.0
H640 H 0.04189 0.54231 0.11885 0.0
H641 H 0.01764 0.45324 0.10199 0.0
H642 H 0.90302 0.42701 0.11728 0.0
H643 H 0.94423 0.43185 0.12075 0.0
C644 C 0.90872 0.53464 0.61905 0.0
C645 C 0.89485 0.50971 0.61655 0.0
C646 C 0.93231 0.5317 0.62101 0.0
C647 C 0.9776 0.4777 0.63157 0.0
H648 H 0.01588 0.52978 0.60363 0.0
C649 C 0.07339 0.45527 0.61854 0.0
C650 C 0.08811 0.47964 0.61732 0.0
C651 C 0.04986 0.45928 0.62034 0.0
C652 C 0.00552 0.51531 0.61177 0.0
H653 H 0.89495 0.46207 0.61473 0.0
H654 H 0.93585 0.45707 0.61811 0.0
H655 H 0.97488 0.53683 0.60374 0.0
H656 H 0.08972 0.52731 0.61803 0.0
H657 H 0.04905 0.5342 0.62158 0.0
H658 H 0.00827 0.45605 0.6395 0.0
C659 C 0.92856 0.47886 0.61864 0.0
C660 C 0.98197 0.51939 0.61182 0.0
C661 C 0.90507 0.48179 0.61657 0.0
C662 C 0.07888 0.50801 0.61869 0.0
C663 C 0.05548 0.512 0.62062 0.0
C664 C 0.0012 0.47369 0.63158 0.0
C665 C 0.94252 0.50377 0.62067 0.0
C666 C 0.96769 0.50051 0.6216 0.0
C667 C 0.04058 0.48775 0.62108 0.0
C668 C 0.01547 0.49234 0.62159 0.0
H669 H 0.90142 0.55645 0.61912 0.0
H670 H 0.94259 0.55131 0.62272 0.0
H671 H 0.96709 0.46296 0.63941 0.0
H672 H 0.07994 0.43313 0.61747 0.0
H673 H 0.0389 0.44008 0.62052 0.0
C674 C 0.07812 0.47668 0.84009 0.0
C675 C 0.08858 0.50447 0.84156 0.0
C676 C 0.0545 0.47404 0.83881 0.0
C677 C 0.00226 0.51287 0.85094 0.0
H678 H 0.97287 0.45475 0.82098 0.0
C679 C 0.90475 0.5034 0.84722 0.0
C680 C 0.89502 0.47508 0.8469 0.0
C681 C 0.92816 0.50739 0.84512 0.0
C682 C 0.98082 0.47087 0.82956 0.0
H683 H 0.0823 0.55138 0.84224 0.0
H684 H 0.0409 0.54674 0.83998 0.0
H685 H 0.01405 0.46171 0.81929 0.0
H686 H 0.90239 0.42873 0.84382 0.0
H687 H 0.94345 0.43565 0.84044 0.0
H688 H 0.96925 0.52169 0.8615 0.0
C689 C 0.0511 0.52698 0.83997 0.0
C690 C 0.00442 0.47494 0.82855 0.0
C691 C 0.07482 0.52965 0.84114 0.0
C692 C 0.90931 0.45084 0.84411 0.0
C693 C 0.93284 0.45484 0.84208 0.0
C694 C 0.97872 0.50874 0.85201 0.0
C695 C 0.04065 0.4991 0.83905 0.0
C696 C 0.01543 0.49591 0.83928 0.0
C697 C 0.94258 0.48318 0.84274 0.0
C698 C 0.96768 0.48763 0.84138 0.0
H699 H 0.08816 0.45678 0.8403 0.0
H700 H 0.04704 0.45224 0.83829 0.0
H701 H 0.01023 0.52881 0.85965 0.0
H702 H 0.89429 0.52266 0.84915 0.0
H703 H 0.93494 0.52956 0.84532 0.0
C704 C 0.21714 0.34733 0.34661 0.0
C705 C 0.19323 0.34816 0.34694 0.0
C706 C 0.22862 0.32056 0.3462 0.0
C707 C 0.22139 0.24173 0.35662 0.0
H708 H 0.27587 0.23331 0.32801 0.0
C709 C 0.26532 0.12994 0.34735 0.0
C710 C 0.28922 0.1292 0.34804 0.0
C711 C 0.25378 0.15665 0.34684 0.0
C712 C 0.26084 0.23541 0.33622 0.0
H713 H 0.16261 0.32142 0.34692 0.0
H714 H 0.18271 0.27447 0.34601 0.0
H715 H 0.25496 0.27948 0.32739 0.0
H716 H 0.31976 0.15608 0.34857 0.0
H717 H 0.29952 0.20299 0.34776 0.0
H718 H 0.22727 0.19767 0.36545 0.0
C719 C 0.19257 0.29463 0.34629 0.0
C720 C 0.24881 0.26187 0.33586 0.0
C721 C 0.18104 0.32152 0.3467 0.0
C722 C 0.30135 0.1559 0.34802 0.0
C723 C 0.28975 0.18275 0.34748 0.0
C724 C 0.23339 0.21527 0.35696 0.0
C725 C 0.21652 0.29385 0.34609 0.0
C726 C 0.22896 0.26538 0.34608 0.0
C727 C 0.2658 0.18341 0.347 0.0
C728 C 0.25326 0.21177 0.34677 0.0
H729 H 0.22709 0.36743 0.34684 0.0
H730 H 0.24705 0.32082 0.34633 0.0
H731 H 0.20642 0.24382 0.3649 0.0
H732 H 0.25542 0.10979 0.34726 0.0
H733 H 0.23537 0.15632 0.34618 0.0
C734 C 0.68142 0.82029 0.34417 0.0
C735 C 0.69413 0.84652 0.34398 0.0
C736 C 0.69231 0.79309 0.34265 0.0
C737 C 0.74726 0.7587 0.32945 0.0
H738 H 0.72643 0.69498 0.35972 0.0
C739 C 0.79935 0.65234 0.34214 0.0
C740 C 0.78703 0.62578 0.34244 0.0
C741 C 0.78794 0.67928 0.3411 0.0
C742 C 0.73232 0.71246 0.35104 0.0
H743 H 0.72822 0.86475 0.34179 0.0
H744 H 0.74711 0.81761 0.33949 0.0
H745 H 0.70623 0.74156 0.35987 0.0
H746 H 0.75312 0.6067 0.34143 0.0
H747 H 0.73341 0.65344 0.33959 0.0
H748 H 0.77364 0.72959 0.3209 0.0
C749 C 0.72874 0.81788 0.34049 0.0
C750 C 0.72068 0.73916 0.35107 0.0
C751 C 0.71787 0.84498 0.34193 0.0
C752 C 0.76316 0.62673 0.34133 0.0
C753 C 0.75181 0.65355 0.34037 0.0
C754 C 0.75899 0.73201 0.3295 0.0
C755 C 0.71615 0.79154 0.34096 0.0
C756 C 0.72802 0.76268 0.34032 0.0
C757 C 0.76402 0.68015 0.34045 0.0
C758 C 0.75166 0.70859 0.3403 0.0
H759 H 0.6631 0.82075 0.34567 0.0
H760 H 0.68204 0.77326 0.34281 0.0
H761 H 0.75321 0.77617 0.32079 0.0
H762 H 0.81774 0.65234 0.34299 0.0
H763 H 0.79781 0.69945 0.34128 0.0
C764 C 0.18167 0.6559 0.10664 0.0
C765 C 0.19462 0.63003 0.10643 0.0
C766 C 0.19241 0.68346 0.10711 0.0
C767 C 0.24748 0.71946 0.11812 0.0
H768 H 0.22476 0.78257 0.08844 0.0
C769 C 0.29754 0.82816 0.10678 0.0
C770 C 0.28481 0.85422 0.10664 0.0
C771 C 0.28656 0.80074 0.10711 0.0
C772 C 0.23119 0.76528 0.09696 0.0
H773 H 0.229 0.61284 0.1066 0.0
H774 H 0.2476 0.66063 0.10723 0.0
H775 H 0.20514 0.73525 0.08869 0.0
H776 H 0.25057 0.87189 0.10695 0.0
H777 H 0.23158 0.82434 0.10768 0.0
H778 H 0.2736 0.74949 0.12633 0.0
C779 C 0.22918 0.65976 0.10728 0.0
C780 C 0.2199 0.73815 0.09712 0.0
C781 C 0.21848 0.63231 0.10679 0.0
C782 C 0.26093 0.85226 0.10696 0.0
C783 C 0.25 0.82496 0.10726 0.0
C784 C 0.25878 0.74659 0.11795 0.0
C785 C 0.21632 0.6857 0.10743 0.0
C786 C 0.22793 0.71487 0.10766 0.0
C787 C 0.26264 0.79884 0.10727 0.0
C788 C 0.25079 0.76983 0.10736 0.0
H789 H 0.16326 0.65487 0.10641 0.0
H790 H 0.18199 0.70301 0.1074 0.0
H791 H 0.25394 0.70214 0.1266 0.0
H792 H 0.31596 0.82893 0.10653 0.0
H793 H 0.29681 0.78103 0.10695 0.0
C794 C 0.71532 0.13238 0.10826 0.0
C795 C 0.69142 0.13158 0.10745 0.0
C796 C 0.72705 0.15913 0.1084 0.0
C797 C 0.7209 0.23772 0.09686 0.0
H798 H 0.77472 0.24668 0.12623 0.0
C799 C 0.76533 0.34965 0.10679 0.0
C800 C 0.78925 0.35048 0.10638 0.0
C801 C 0.75362 0.3229 0.10697 0.0
C802 C 0.75988 0.24442 0.1178 0.0
H803 H 0.66108 0.15836 0.1063 0.0
H804 H 0.68159 0.2053 0.10681 0.0
H805 H 0.75333 0.20062 0.12695 0.0
H806 H 0.81964 0.32372 0.10593 0.0
H807 H 0.7991 0.27671 0.10626 0.0
H808 H 0.7274 0.28161 0.0878 0.0
C809 C 0.69127 0.18512 0.10708 0.0
C810 C 0.74758 0.21801 0.11822 0.0
C811 C 0.67949 0.15824 0.10689 0.0
C812 C 0.80122 0.32382 0.10626 0.0
C813 C 0.78945 0.29693 0.10653 0.0
C814 C 0.73315 0.26415 0.09649 0.0
C815 C 0.71522 0.18587 0.10781 0.0
C816 C 0.72795 0.21429 0.10772 0.0
C817 C 0.7655 0.2962 0.10681 0.0
C818 C 0.75279 0.26782 0.10696 0.0
H819 H 0.72509 0.11226 0.10862 0.0
H820 H 0.74547 0.1588 0.10866 0.0
H821 H 0.70612 0.23548 0.08836 0.0
H822 H 0.75554 0.36976 0.10694 0.0
H823 H 0.73521 0.32315 0.10746 0.0
C824 C 0.67915 0.82474 0.60925 0.0
C825 C 0.69119 0.85151 0.60905 0.0
C826 C 0.69085 0.79799 0.61012 0.0
C827 C 0.74713 0.76544 0.60096 0.0
H828 H 0.72659 0.70279 0.63214 0.0
C829 C 0.80013 0.66004 0.61188 0.0
C830 C 0.78799 0.63337 0.6124 0.0
C831 C 0.78856 0.6869 0.61225 0.0
C832 C 0.73244 0.71995 0.62323 0.0
H833 H 0.72493 0.87114 0.60973 0.0
H834 H 0.74514 0.82477 0.61127 0.0
H835 H 0.70534 0.74868 0.63078 0.0
H836 H 0.7542 0.61402 0.61391 0.0
H837 H 0.73418 0.66053 0.61428 0.0
H838 H 0.77407 0.73672 0.59324 0.0
C839 C 0.72673 0.82433 0.61057 0.0
C840 C 0.72023 0.74624 0.62244 0.0
C841 C 0.71509 0.85095 0.60979 0.0
C842 C 0.76412 0.63415 0.61355 0.0
C843 C 0.7526 0.66089 0.61388 0.0
C844 C 0.75929 0.73914 0.60169 0.0
C845 C 0.7148 0.79752 0.61068 0.0
C846 C 0.72745 0.7693 0.61131 0.0
C847 C 0.76462 0.68763 0.61313 0.0
C848 C 0.7521 0.71602 0.61281 0.0
H849 H 0.66074 0.82445 0.60868 0.0
H850 H 0.68118 0.77766 0.61005 0.0
H851 H 0.75298 0.78264 0.59206 0.0
H852 H 0.81852 0.66017 0.61103 0.0
H853 H 0.79838 0.70709 0.61189 0.0
C854 C 0.18108 0.32683 0.61126 0.0
C855 C 0.19347 0.35331 0.61069 0.0
C856 C 0.19241 0.2998 0.61188 0.0
C857 C 0.24804 0.26604 0.60154 0.0
H858 H 0.22662 0.20279 0.63192 0.0
C859 C 0.29891 0.15837 0.61088 0.0
C860 C 0.28621 0.13212 0.61089 0.0
C861 C 0.28791 0.18561 0.61158 0.0
C862 C 0.23271 0.22015 0.62324 0.0
H863 H 0.22748 0.37216 0.61061 0.0
H864 H 0.24708 0.32532 0.61185 0.0
H865 H 0.20638 0.24948 0.63151 0.0
H866 H 0.25201 0.11391 0.61178 0.0
H867 H 0.23298 0.16114 0.61282 0.0
H868 H 0.27427 0.2367 0.59316 0.0
C869 C 0.22866 0.32529 0.61154 0.0
C870 C 0.22108 0.24689 0.62299 0.0
C871 C 0.21737 0.35219 0.61095 0.0
C872 C 0.26235 0.1337 0.6118 0.0
C873 C 0.2514 0.16082 0.61252 0.0
C874 C 0.25965 0.2393 0.60177 0.0
C875 C 0.21636 0.29874 0.6119 0.0
C876 C 0.22859 0.27016 0.61213 0.0
C877 C 0.264 0.18714 0.61235 0.0
C878 C 0.25211 0.21598 0.61258 0.0
H879 H 0.16266 0.32695 0.61104 0.0
H880 H 0.18243 0.27973 0.612 0.0
H881 H 0.25409 0.28335 0.59281 0.0
H882 H 0.31731 0.15789 0.61021 0.0
H883 H 0.29815 0.20546 0.61163 0.0
C884 C 0.68277 0.15415 0.84448 0.0
C885 C 0.69469 0.12746 0.84469 0.0
C886 C 0.69454 0.18093 0.84317 0.0
C887 C 0.7507 0.21375 0.85222 0.0
H888 H 0.73011 0.27697 0.82169 0.0
C889 C 0.80239 0.32147 0.84448 0.0
C890 C 0.78985 0.34766 0.84422 0.0
C891 C 0.79131 0.29423 0.84314 0.0
C892 C 0.73599 0.25964 0.83042 0.0
H893 H 0.72829 0.10795 0.84331 0.0
H894 H 0.74866 0.15446 0.84105 0.0
H895 H 0.70919 0.23049 0.82229 0.0
H896 H 0.75587 0.3658 0.84209 0.0
H897 H 0.73665 0.31861 0.84012 0.0
H898 H 0.77718 0.24292 0.86067 0.0
C899 C 0.73028 0.15477 0.84207 0.0
C900 C 0.72398 0.23302 0.83075 0.0
C901 C 0.71855 0.1281 0.84327 0.0
C902 C 0.76608 0.34606 0.84228 0.0
C903 C 0.75503 0.31892 0.84102 0.0
C904 C 0.76261 0.2404 0.85199 0.0
C905 C 0.71846 0.18151 0.84218 0.0
C906 C 0.73118 0.2098 0.84168 0.0
C907 C 0.76745 0.29262 0.84157 0.0
C908 C 0.75537 0.26376 0.84114 0.0
H909 H 0.6644 0.15437 0.84556 0.0
H910 H 0.68498 0.20121 0.8434 0.0
H911 H 0.7565 0.1964 0.86098 0.0
H912 H 0.82072 0.32199 0.8459 0.0
H913 H 0.80145 0.27443 0.84335 0.0
C914 C 0.18277 0.65438 0.8517 0.0
C915 C 0.19523 0.62811 0.8522 0.0
C916 C 0.19404 0.68161 0.85141 0.0
C917 C 0.2495 0.71647 0.86206 0.0
H918 H 0.22819 0.77893 0.83126 0.0
C919 C 0.30039 0.8247 0.85167 0.0
C920 C 0.28769 0.85078 0.85135 0.0
C921 C 0.2894 0.79729 0.85142 0.0
C922 C 0.23425 0.76182 0.84007 0.0
H923 H 0.22928 0.60986 0.85268 0.0
H924 H 0.24877 0.65707 0.85203 0.0
H925 H 0.20802 0.73197 0.83184 0.0
H926 H 0.25348 0.86848 0.85047 0.0
H927 H 0.23445 0.82097 0.85021 0.0
H928 H 0.27568 0.74634 0.87033 0.0
C929 C 0.23035 0.65677 0.85211 0.0
C930 C 0.22265 0.7349 0.84042 0.0
C931 C 0.21913 0.62966 0.85237 0.0
C932 C 0.26382 0.84884 0.85068 0.0
C933 C 0.25287 0.82155 0.85041 0.0
C934 C 0.2611 0.74339 0.86172 0.0
C935 C 0.21798 0.6831 0.85166 0.0
C936 C 0.23012 0.7119 0.85143 0.0
C937 C 0.26548 0.79542 0.85079 0.0
C938 C 0.25358 0.76643 0.85075 0.0
H939 H 0.16435 0.65392 0.85158 0.0
H940 H 0.184 0.7015 0.85124 0.0
H941 H 0.25554 0.69937 0.87089 0.0
H942 H 0.3188 0.82546 0.85215 0.0
H943 H 0.29963 0.77757 0.85154 0.0
C944 C 0.28634 0.01729 0.29171 0.0
C945 C 0.2881 -0.00786 0.30251 0.0
C946 C 0.27854 0.01504 0.27428 0.0
C947 C 0.2774 0.9617 0.23836 0.0
H948 H 0.24559 0.02386 0.2134 0.0
C949 C 0.27369 0.96122 0.16287 0.0
C950 C 0.28092 0.98773 0.15502 0.0
C951 C 0.26709 0.96039 0.18064 0.0
C952 C 0.25441 0.00629 0.22021 0.0
H953 H 0.28169 0.94516 0.30382 0.0
H954 H 0.26789 0.94129 0.27333 0.0
H955 H 0.24735 0.0244 0.24586 0.0
H956 H 0.28534 0.03454 0.15926 0.0
H957 H 0.27436 0.033 0.19049 0.0
H958 H 0.28535 0.94423 0.21287 0.0
C959 C 0.27291 0.96267 0.27831 0.0
C960 C 0.25543 0.00658 0.23877 0.0
C961 C 0.28079 0.9649 0.29577 0.0
C962 C 0.27993 0.01377 0.16497 0.0
C963 C 0.27349 0.0129 0.18283 0.0
C964 C 0.27636 0.96139 0.21988 0.0
C965 C 0.27224 0.98761 0.26725 0.0
C966 C 0.26753 0.98475 0.24799 0.0
C967 C 0.26777 0.98601 0.191 0.0
C968 C 0.26542 0.98411 0.21057 0.0
H969 H 0.29169 0.03866 0.29651 0.0
H970 H 0.27853 0.03462 0.26607 0.0
H971 H 0.28717 0.94481 0.24501 0.0
H972 H 0.27386 0.94085 0.15544 0.0
H973 H 0.2623 0.93946 0.18647 0.0
C974 C 0.68972 0.02243 0.16759 0.0
C975 C 0.68963 -0.0027 0.15676 0.0
C976 C 0.69691 0.0207 0.18521 0.0
C977 C 0.69966 0.9668 0.22101 0.0
H978 H 0.72778 0.03105 0.24689 0.0
C979 C 0.70442 0.96235 0.29631 0.0
C980 C 0.69578 0.98739 0.30481 0.0
C981 C 0.71065 0.96349 0.27848 0.0
C982 C 0.71997 0.01293 0.23981 0.0
H983 H 0.69842 0.95108 0.15558 0.0
H984 H 0.71124 0.94815 0.18634 0.0
H985 H 0.72633 0.0327 0.21442 0.0
H986 H 0.68839 0.03375 0.30171 0.0
H987 H 0.6987 0.03558 0.27029 0.0
H988 H 0.69249 0.94749 0.24623 0.0
C989 C 0.70531 0.96906 0.18127 0.0
C990 C 0.71914 0.01385 0.22126 0.0
C991 C 0.69799 0.97074 0.16366 0.0
C992 C 0.69491 0.0141 0.29546 0.0
C993 C 0.70096 0.01517 0.27751 0.0
C994 C 0.70054 0.96585 0.23948 0.0
C995 C 0.70428 -0.00616 0.19236 0.0
C996 C 0.70846 -0.00889 0.2117 0.0
C997 C 0.70814 0.98959 0.26871 0.0
C998 C 0.71024 0.98919 0.2491 0.0
H999 H 0.68349 0.04328 0.16267 0.0
H1000 H 0.69562 0.04011 0.19344 0.0
H1001 H 0.69094 0.94918 0.21411 0.0
H1002 H 0.7057 0.94157 0.30329 0.0
H1003 H 0.7166 0.9436 0.27215 0.0
C1004 C 0.70386 0.0137 0.79678 0.0
C1005 C 0.69407 0.9886 0.80463 0.0
C1006 C 0.71081 0.01326 0.7791 0.0
C1007 C 0.72007 0.96571 0.73981 0.0
H1008 H 0.69288 0.03125 0.71468 0.0
C1009 C 0.69016 0.95933 0.66756 0.0
C1010 C 0.69043 0.98477 0.65693 0.0
C1011 C 0.69742 0.96044 0.68517 0.0
C1012 C 0.70113 0.01315 0.72142 0.0
H1013 H 0.68542 0.94273 0.80059 0.0
H1014 H 0.69704 0.94213 0.76943 0.0
H1015 H 0.69395 0.03148 0.74682 0.0
H1016 H 0.69989 0.03091 0.65607 0.0
H1017 H 0.71284 0.03277 0.68685 0.0
H1018 H 0.72645 0.94693 0.71424 0.0
C1019 C 0.69961 0.96205 0.77704 0.0
C1020 C 0.70171 0.01325 0.7399 0.0
C1021 C 0.69282 0.96242 0.79484 0.0
C1022 C 0.69919 0.01103 0.66401 0.0
C1023 C 0.70658 0.0121 0.68163 0.0
C1024 C 0.71956 0.96565 0.72125 0.0
C1025 C 0.7079 0.9878 0.76884 0.0
C1026 C 0.71064 0.98921 0.74931 0.0
C1027 C 0.70524 0.98698 0.69252 0.0
C1028 C 0.70948 0.98901 0.71189 0.0
H1029 H 0.70546 0.03406 0.80412 0.0
H1030 H 0.71758 0.03324 0.77324 0.0
H1031 H 0.7273 0.94706 0.74673 0.0
H1032 H 0.68362 0.93868 0.6625 0.0
H1033 H 0.69584 0.94079 0.69324 0.0
C1034 C 0.27706 0.9568 0.79425 0.0
C1035 C 0.28369 0.9835 0.8021 0.0
C1036 C 0.2698 0.95603 0.77663 0.0
C1037 C 0.25343 0.00229 0.73794 0.0
H1038 H 0.28622 0.94307 0.71141 0.0
C1039 C 0.28119 0.01681 0.66561 0.0
C1040 C 0.28309 -0.00792 0.65457 0.0
C1041 C 0.27416 0.01371 0.6832 0.0
C1042 C 0.27643 0.95931 0.71857 0.0
H1043 H 0.28655 0.03058 0.79801 0.0
H1044 H 0.27442 0.02916 0.76705 0.0
H1045 H 0.28651 0.94156 0.74358 0.0
H1046 H 0.2776 0.94495 0.65297 0.0
H1047 H 0.26518 0.93959 0.68376 0.0
H1048 H 0.24424 0.02075 0.71274 0.0
C1049 C 0.27451 0.00886 0.7746 0.0
C1050 C 0.27661 0.95846 0.73707 0.0
C1051 C 0.28163 0.00966 0.7923 0.0
C1052 C 0.27656 0.96439 0.6612 0.0
C1053 C 0.26949 0.96131 0.67883 0.0
C1054 C 0.25323 0.00313 0.71938 0.0
C1055 C 0.26918 0.98191 0.76644 0.0
C1056 C 0.26568 0.98042 0.74696 0.0
C1057 C 0.26883 0.98583 0.69015 0.0
C1058 C 0.26533 0.98214 0.70952 0.0
H1059 H 0.27808 0.9363 0.80156 0.0
H1060 H 0.26538 0.93501 0.77081 0.0
H1061 H 0.24456 0.01924 0.74522 0.0
H1062 H 0.28593 0.03851 0.66089 0.0
H1063 H 0.27411 0.03301 0.6916 0.0
C1064 C 0.78043 0.50804 0.1636 0.0
C1065 C 0.78968 0.48215 0.15657 0.0
C1066 C 0.77255 0.50868 0.1811 0.0
C1067 C 0.75912 0.46153 0.2204 0.0
H1068 H 0.78312 0.52818 0.24645 0.0
C1069 C 0.78428 0.45913 0.29432 0.0
C1070 C 0.78293 0.48539 0.304 0.0
C1071 C 0.77755 0.45845 0.27651 0.0
C1072 C 0.77577 0.5097 0.2394 0.0
H1073 H 0.79691 0.43625 0.16209 0.0
H1074 H 0.78386 0.43766 0.19265 0.0
H1075 H 0.78511 0.52808 0.21436 0.0
H1076 H 0.77124 0.53054 0.30338 0.0
H1077 H 0.75908 0.52916 0.2725 0.0
H1078 H 0.75088 0.44261 0.24574 0.0
C1079 C 0.78225 0.45732 0.18462 0.0
C1080 C 0.7769 0.50967 0.22093 0.0
C1081 C 0.78998 0.45662 0.16712 0.0
C1082 C 0.77292 0.51015 0.2961 0.0
C1083 C 0.76597 0.50939 0.27843 0.0
C1084 C 0.75805 0.46153 0.23896 0.0
C1085 C 0.77392 0.48352 0.19193 0.0
C1086 C 0.76915 0.48528 0.21124 0.0
C1087 C 0.76917 0.48396 0.26822 0.0
C1088 C 0.76688 0.48534 0.24864 0.0
H1089 H 0.77968 0.52797 0.15572 0.0
H1090 H 0.76589 0.5291 0.18628 0.0
H1091 H 0.75269 0.44259 0.21326 0.0
H1092 H 0.79188 0.43971 0.30014 0.0
H1093 H 0.78033 0.43856 0.26896 0.0
C1094 C 0.1969 0.4624 0.29109 0.0
C1095 C 0.19468 0.48715 0.30208 0.0
C1096 C 0.20461 0.46543 0.27366 0.0
C1097 C 0.20425 0.51998 0.23826 0.0
H1098 H 0.23661 0.45954 0.21239 0.0
C1099 C 0.20631 0.52263 0.16268 0.0
C1100 C 0.19945 0.49609 0.15474 0.0
C1101 C 0.2132 0.52321 0.18039 0.0
C1102 C 0.22763 0.47664 0.21946 0.0
H1103 H 0.2003 0.53423 0.30379 0.0
H1104 H 0.21396 0.53949 0.27332 0.0
H1105 H 0.23554 0.45797 0.24485 0.0
H1106 H 0.19596 0.44906 0.15875 0.0
H1107 H 0.20745 0.45016 0.18986 0.0
H1108 H 0.19544 0.53796 0.21302 0.0
C1109 C 0.20934 0.51781 0.27814 0.0
C1110 C 0.22702 0.47576 0.23801 0.0
C1111 C 0.20155 0.51478 0.29559 0.0
C1112 C 0.20106 0.46986 0.16453 0.0
C1113 C 0.2078 0.47048 0.18232 0.0
C1114 C 0.20489 0.52088 0.21977 0.0
C1115 C 0.21036 0.49327 0.26685 0.0
C1116 C 0.21472 0.49693 0.24757 0.0
C1117 C 0.21322 0.49732 0.19059 0.0
C1118 C 0.216 0.49875 0.21014 0.0
H1119 H 0.19189 0.44074 0.2957 0.0
H1120 H 0.2049 0.44613 0.26527 0.0
H1121 H 0.19432 0.53637 0.24516 0.0
H1122 H 0.20565 0.54316 0.15538 0.0
H1123 H 0.21772 0.54413 0.1863 0.0
C1124 C 0.1994 0.47129 0.79162 0.0
C1125 C 0.19754 0.49716 0.80164 0.0
C1126 C 0.20654 0.47256 0.77392 0.0
C1127 C 0.20465 0.52407 0.73682 0.0
H1128 H 0.2367 0.4623 0.71195 0.0
C1129 C 0.20353 0.51977 0.66094 0.0
C1130 C 0.19692 0.4922 0.65427 0.0
C1131 C 0.21096 0.52252 0.6785 0.0
C1132 C 0.2278 0.47979 0.71874 0.0
H1133 H 0.20355 0.54429 0.80149 0.0
H1134 H 0.21624 0.54639 0.77075 0.0
H1135 H 0.23655 0.4629 0.74444 0.0
H1136 H 0.19437 0.44562 0.66043 0.0
H1137 H 0.20677 0.45054 0.691 0.0
H1138 H 0.1949 0.54018 0.71132 0.0
C1139 C 0.21167 0.52525 0.7764 0.0
C1140 C 0.2277 0.4801 0.7373 0.0
C1141 C 0.20441 0.52401 0.79402 0.0
C1142 C 0.19915 0.46725 0.66518 0.0
C1143 C 0.20651 0.47001 0.68269 0.0
C1144 C 0.20471 0.52372 0.71832 0.0
C1145 C 0.21208 0.4997 0.76599 0.0
C1146 C 0.21555 0.50177 0.74652 0.0
C1147 C 0.21189 0.49777 0.6897 0.0
C1148 C 0.21567 0.50107 0.70907 0.0
H1149 H 0.1943 0.45026 0.79715 0.0
H1150 H 0.20648 0.4525 0.7662 0.0
H1151 H 0.19484 0.54084 0.7435 0.0
H1152 H 0.20225 0.53937 0.65281 0.0
H1153 H 0.21529 0.54416 0.68347 0.0
C1154 C 0.77846 0.52309 0.66453 0.0
C1155 C 0.78639 0.49721 0.65653 0.0
C1156 C 0.77163 0.52303 0.68224 0.0
C1157 C 0.78061 0.52106 0.72151 0.0
H1158 H 0.75087 0.45705 0.7466 0.0
C1159 C 0.78279 0.51569 0.79749 0.0
C1160 C 0.78958 0.48826 0.8042 0.0
C1161 C 0.77557 0.51837 0.77987 0.0
C1162 C 0.75916 0.47513 0.73976 0.0
H1163 H 0.79182 0.45053 0.66037 0.0
H1164 H 0.78034 0.45053 0.69156 0.0
H1165 H 0.75021 0.45821 0.71412 0.0
H1166 H 0.793 0.44189 0.79796 0.0
H1167 H 0.78106 0.44672 0.76731 0.0
H1168 H 0.79062 0.53725 0.7469 0.0
C1169 C 0.77917 0.4708 0.68405 0.0
C1170 C 0.75876 0.47577 0.7212 0.0
C1171 C 0.78588 0.47082 0.66623 0.0
C1172 C 0.78803 0.46341 0.7932 0.0
C1173 C 0.78091 0.4661 0.77563 0.0
C1174 C 0.78109 0.52035 0.74 0.0
C1175 C 0.77273 0.49714 0.69237 0.0
C1176 C 0.76999 0.49837 0.7119 0.0
C1177 C 0.77506 0.4937 0.76865 0.0
C1178 C 0.77094 0.49695 0.74932 0.0
H1179 H 0.77824 0.5437 0.65728 0.0
H1180 H 0.76632 0.54352 0.68822 0.0
H1181 H 0.78973 0.53854 0.71473 0.0
H1182 H 0.78355 0.5352 0.80569 0.0
H1183 H 0.77088 0.53988 0.77492 0.0
loop_
_geom_bond_atom_site_label_1
_geom_bond_atom_site_label_2
_geom_bond_distance
_geom_bond_site_symmetry_2
_ccdc_geom_bond_type
C0 O1 1.306 1_545 S
C0 O3 1.160 . S
O1 C0 1.306 1_565 S
O1 Cd2 2.228 . S
Cd2 O1 2.228 . S
Cd2 O6 2.273 1_565 S
Cd2 O10 2.277 1_565 S
O3 C0 1.160 . S
O3 Cd4 2.203 . S
Cd4 O3 2.203 . S
Cd4 O6 2.411 . S
Cd4 O7 2.333 . S
Cd4 O8 2.352 . S
Cd4 O12 2.277 . S
Cd4 O13 2.356 . S
C5 O10 1.209 . S
C5 O12 1.226 . S
O6 Cd2 2.273 1_545 S
O6 Cd4 2.411 . S
O6 C9 1.320 . S
O7 Cd4 2.333 . S
O7 C9 1.214 . S
O8 Cd4 2.352 . S
O8 C11 1.258 . S
C9 O6 1.320 . S
C9 O7 1.214 . S
O10 Cd2 2.277 1_545 S
O10 C5 1.209 . S
C11 O8 1.258 . S
C11 O13 1.282 . S
O12 Cd4 2.277 . S
O12 C5 1.226 . S
O13 Cd4 2.356 . S
O13 C11 1.282 . S
C14 O15 1.306 1_565 S
C14 O17 1.160 . S
O15 C14 1.306 1_545 S
O15 Cd16 2.228 . S
Cd16 O15 2.228 . S
Cd16 O20 2.273 1_545 S
Cd16 O24 2.277 1_545 S
O17 C14 1.160 . S
O17 Cd18 2.203 . S
Cd18 O17 2.203 . S
Cd18 O20 2.411 . S
Cd18 O21 2.333 . S
Cd18 O22 2.352 . S
Cd18 O26 2.277 . S
Cd18 O27 2.356 . S
C19 O24 1.209 . S
C19 O26 1.226 . S
O20 Cd16 2.273 1_565 S
O20 Cd18 2.411 . S
O20 C23 1.320 . S
O21 Cd18 2.333 . S
O21 C23 1.214 . S
O22 Cd18 2.352 . S
O22 C25 1.258 . S
C23 O20 1.320 . S
C23 O21 1.214 . S
O24 Cd16 2.277 1_565 S
O24 C19 1.209 . S
C25 O22 1.258 . S
C25 O27 1.282 . S
O26 Cd18 2.277 . S
O26 C19 1.226 . S
O27 Cd18 2.356 . S
O27 C25 1.282 . S
C28 O29 1.306 1_565 S
C28 O31 1.160 . S
O29 C28 1.306 1_545 S
O29 Cd30 2.228 . S
Cd30 O29 2.228 . S
Cd30 O34 2.273 1_545 S
Cd30 O38 2.277 1_545 S
O31 C28 1.160 . S
O31 Cd32 2.203 . S
Cd32 O31 2.203 . S
Cd32 O34 2.411 . S
Cd32 O35 2.333 . S
Cd32 O36 2.352 . S
Cd32 O40 2.277 . S
Cd32 O41 2.356 . S
C33 O38 1.209 . S
C33 O40 1.226 . S
O34 Cd30 2.273 1_565 S
O34 Cd32 2.411 . S
O34 C37 1.320 . S
O35 Cd32 2.333 . S
O35 C37 1.214 . S
O36 Cd32 2.352 . S
O36 C39 1.258 . S
C37 O34 1.320 . S
C37 O35 1.214 . S
O38 Cd30 2.277 1_565 S
O38 C33 1.209 . S
C39 O36 1.258 . S
C39 O41 1.282 . S
O40 Cd32 2.277 . S
O40 C33 1.226 . S
O41 Cd32 2.356 . S
O41 C39 1.282 . S
C42 O43 1.306 1_545 S
C42 O45 1.160 . S
O43 C42 1.306 1_565 S
O43 Cd44 2.228 . S
Cd44 O43 2.228 . S
Cd44 O48 2.273 1_565 S
Cd44 O52 2.277 1_565 S
O45 C42 1.160 . S
O45 Cd46 2.203 . S
Cd46 O45 2.203 . S
Cd46 O48 2.411 . S
Cd46 O49 2.333 . S
Cd46 O50 2.352 . S
Cd46 O54 2.277 . S
Cd46 O55 2.356 . S
C47 O52 1.209 . S
C47 O54 1.226 . S
O48 Cd44 2.273 1_545 S
O48 Cd46 2.411 . S
O48 C51 1.320 . S
O49 Cd46 2.333 . S
O49 C51 1.214 . S
O50 Cd46 2.352 . S
O50 C53 1.258 . S
C51 O48 1.320 . S
C51 O49 1.214 . S
O52 Cd44 2.277 1_545 S
O52 C47 1.209 . S
C53 O50 1.258 . S
C53 O55 1.282 . S
O54 Cd46 2.277 . S
O54 C47 1.226 . S
O55 Cd46 2.356 . S
O55 C53 1.282 . S
C56 O57 1.306 1_565 S
C56 O59 1.160 . S
O57 C56 1.306 1_545 S
O57 Cd58 2.228 . S
Cd58 O57 2.228 . S
Cd58 O62 2.273 1_545 S
Cd58 O66 2.277 1_545 S
O59 C56 1.160 . S
O59 Cd60 2.203 . S
Cd60 O59 2.203 . S
Cd60 O62 2.411 . S
Cd60 O63 2.333 . S
Cd60 O64 2.352 . S
Cd60 O68 2.277 . S
Cd60 O69 2.356 . S
C61 O66 1.209 . S
C61 O68 1.226 . S
O62 Cd58 2.273 1_565 S
O62 Cd60 2.411 . S
O62 C65 1.320 . S
O63 Cd60 2.333 . S
O63 C65 1.214 . S
O64 Cd60 2.352 . S
O64 C67 1.258 . S
C65 O62 1.320 . S
C65 O63 1.214 . S
O66 Cd58 2.277 1_565 S
O66 C61 1.209 . S
C67 O64 1.258 . S
C67 O69 1.282 . S
O68 Cd60 2.277 . S
O68 C61 1.226 . S
O69 Cd60 2.356 . S
O69 C67 1.282 . S
C70 O71 1.306 1_545 S
C70 O73 1.160 . S
O71 C70 1.306 1_565 S
O71 Cd72 2.228 . S
Cd72 O71 2.228 . S
Cd72 O76 2.273 1_565 S
Cd72 O80 2.277 1_565 S
O73 C70 1.160 . S
O73 Cd74 2.203 . S
Cd74 O73 2.203 . S
Cd74 O76 2.411 . S
Cd74 O77 2.333 . S
Cd74 O78 2.352 . S
Cd74 O82 2.277 . S
Cd74 O83 2.356 . S
C75 O80 1.209 . S
C75 O82 1.226 . S
O76 Cd72 2.273 1_545 S
O76 Cd74 2.411 . S
O76 C79 1.320 . S
O77 Cd74 2.333 . S
O77 C79 1.214 . S
O78 Cd74 2.352 . S
O78 C81 1.258 . S
C79 O76 1.320 . S
C79 O77 1.214 . S
O80 Cd72 2.277 1_545 S
O80 C75 1.209 . S
C81 O78 1.258 . S
C81 O83 1.282 . S
O82 Cd74 2.277 . S
O82 C75 1.226 . S
O83 Cd74 2.356 . S
O83 C81 1.282 . S
C84 O85 1.306 1_545 S
C84 O87 1.160 . S
O85 C84 1.306 1_565 S
O85 Cd86 2.228 . S
Cd86 O85 2.228 . S
Cd86 O90 2.273 1_565 S
Cd86 O94 2.277 1_565 S
O87 C84 1.160 . S
O87 Cd88 2.203 . S
Cd88 O87 2.203 . S
Cd88 O90 2.411 . S
Cd88 O91 2.333 . S
Cd88 O92 2.352 . S
Cd88 O96 2.277 . S
Cd88 O97 2.356 . S
C89 O94 1.209 . S
C89 O96 1.226 . S
O90 Cd86 2.273 1_545 S
O90 Cd88 2.411 . S
O90 C93 1.320 . S
O91 Cd88 2.333 . S
O91 C93 1.214 . S
O92 Cd88 2.352 . S
O92 C95 1.258 . S
C93 O90 1.320 . S
C93 O91 1.214 . S
O94 Cd86 2.277 1_545 S
O94 C89 1.209 . S
C95 O92 1.258 . S
C95 O97 1.282 . S
O96 Cd88 2.277 . S
O96 C89 1.226 . S
O97 Cd88 2.356 . S
O97 C95 1.282 . S
C98 O99 1.306 1_565 S
C98 O101 1.160 . S
O99 C98 1.306 1_545 S
O99 Cd100 2.228 . S
Cd100 O99 2.228 . S
Cd100 O104 2.273 1_545 S
Cd100 O108 2.277 1_545 S
O101 C98 1.160 . S
O101 Cd102 2.203 . S
Cd102 O101 2.203 . S
Cd102 O104 2.411 . S
Cd102 O105 2.333 . S
Cd102 O106 2.352 . S
Cd102 O110 2.277 . S
Cd102 O111 2.356 . S
C103 O108 1.209 . S
C103 O110 1.226 . S
O104 Cd100 2.273 1_565 S
O104 Cd102 2.411 . S
O104 C107 1.320 . S
O105 Cd102 2.333 . S
O105 C107 1.214 . S
O106 Cd102 2.352 . S
O106 C109 1.258 . S
C107 O104 1.320 . S
C107 O105 1.214 . S
O108 Cd100 2.277 1_565 S
O108 C103 1.209 . S
C109 O106 1.258 . S
C109 O111 1.282 . S
O110 Cd102 2.277 . S
O110 C103 1.226 . S
O111 Cd102 2.356 . S
O111 C109 1.282 . S
C112 O113 1.306 . S
C112 O115 1.160 . S
O113 C112 1.306 . S
O113 Cd114 2.228 . S
Cd114 O113 2.228 . S
Cd114 O118 2.273 . S
Cd114 O122 2.277 . S
O115 C112 1.160 . S
O115 Cd116 2.203 . S
Cd116 O115 2.203 . S
Cd116 O118 2.411 . S
Cd116 O119 2.333 . S
Cd116 O120 2.352 . S
Cd116 O124 2.277 . S
Cd116 O125 2.356 . S
C117 O122 1.209 . S
C117 O124 1.226 . S
O118 Cd114 2.273 . S
O118 Cd116 2.411 . S
O118 C121 1.320 . S
O119 Cd116 2.333 . S
O119 C121 1.214 . S
O120 Cd116 2.352 . S
O120 C123 1.258 . S
C121 O118 1.320 . S
C121 O119 1.214 . S
O122 Cd114 2.277 . S
O122 C117 1.209 . S
C123 O120 1.258 . S
C123 O125 1.282 . S
O124 Cd116 2.277 . S
O124 C117 1.226 . S
O125 Cd116 2.356 . S
O125 C123 1.282 . S
C126 O127 1.306 . S
C126 O129 1.160 . S
O127 C126 1.306 . S
O127 Cd128 2.228 . S
Cd128 O127 2.228 . S
Cd128 O132 2.273 . S
Cd128 O136 2.277 . S
O129 C126 1.160 . S
O129 Cd130 2.203 . S
Cd130 O129 2.203 . S
Cd130 O132 2.411 . S
Cd130 O133 2.333 . S
Cd130 O134 2.352 . S
Cd130 O138 2.277 . S
Cd130 O139 2.356 . S
C131 O136 1.209 . S
C131 O138 1.226 . S
O132 Cd128 2.273 . S
O132 Cd130 2.411 . S
O132 C135 1.320 . S
O133 Cd130 2.333 . S
O133 C135 1.214 . S
O134 Cd130 2.352 . S
O134 C137 1.258 . S
C135 O132 1.320 . S
C135 O133 1.214 . S
O136 Cd128 2.277 . S
O136 C131 1.209 . S
C137 O134 1.258 . S
C137 O139 1.282 . S
O138 Cd130 2.277 . S
O138 C131 1.226 . S
O139 Cd130 2.356 . S
O139 C137 1.282 . S
C140 O141 1.306 . S
C140 O143 1.160 . S
O141 C140 1.306 . S
O141 Cd142 2.228 . S
Cd142 O141 2.228 . S
Cd142 O146 2.273 . S
Cd142 O150 2.277 . S
O143 C140 1.160 . S
O143 Cd144 2.203 . S
Cd144 O143 2.203 . S
Cd144 O146 2.411 . S
Cd144 O147 2.333 . S
Cd144 O148 2.352 . S
Cd144 O152 2.277 . S
Cd144 O153 2.356 . S
C145 O150 1.209 . S
C145 O152 1.226 . S
O146 Cd142 2.273 . S
O146 Cd144 2.411 . S
O146 C149 1.320 . S
O147 Cd144 2.333 . S
O147 C149 1.214 . S
O148 Cd144 2.352 . S
O148 C151 1.258 . S
C149 O146 1.320 . S
C149 O147 1.214 . S
O150 Cd142 2.277 . S
O150 C145 1.209 . S
C151 O148 1.258 . S
C151 O153 1.282 . S
O152 Cd144 2.277 . S
O152 C145 1.226 . S
O153 Cd144 2.356 . S
O153 C151 1.282 . S
C154 O155 1.306 . S
C154 O157 1.160 . S
O155 C154 1.306 . S
O155 Cd156 2.228 . S
Cd156 O155 2.228 . S
Cd156 O160 2.273 . S
Cd156 O164 2.277 . S
O157 C154 1.160 . S
O157 Cd158 2.203 . S
Cd158 O157 2.203 . S
Cd158 O160 2.411 . S
Cd158 O161 2.333 . S
Cd158 O162 2.352 . S
Cd158 O166 2.277 . S
Cd158 O167 2.356 . S
C159 O164 1.209 . S
C159 O166 1.226 . S
O160 Cd156 2.273 . S
O160 Cd158 2.411 . S
O160 C163 1.320 . S
O161 Cd158 2.333 . S
O161 C163 1.214 . S
O162 Cd158 2.352 . S
O162 C165 1.258 . S
C163 O160 1.320 . S
C163 O161 1.214 . S
O164 Cd156 2.277 . S
O164 C159 1.209 . S
C165 O162 1.258 . S
C165 O167 1.282 . S
O166 Cd158 2.277 . S
O166 C159 1.226 . S
O167 Cd158 2.356 . S
O167 C165 1.282 . S
C168 O169 1.306 . S
C168 O171 1.160 . S
O169 C168 1.306 . S
O169 Cd170 2.228 . S
Cd170 O169 2.228 . S
Cd170 O174 2.273 . S
Cd170 O178 2.277 . S
O171 C168 1.160 . S
O171 Cd172 2.203 . S
Cd172 O171 2.203 . S
Cd172 O174 2.411 . S
Cd172 O175 2.333 . S
Cd172 O176 2.352 . S
Cd172 O180 2.277 . S
Cd172 O181 2.356 . S
C173 O178 1.209 . S
C173 O180 1.226 . S
O174 Cd170 2.273 . S
O174 Cd172 2.411 . S
O174 C177 1.320 . S
O175 Cd172 2.333 . S
O175 C177 1.214 . S
O176 Cd172 2.352 . S
O176 C179 1.258 . S
C177 O174 1.320 . S
C177 O175 1.214 . S
O178 Cd170 2.277 . S
O178 C173 1.209 . S
C179 O176 1.258 . S
C179 O181 1.282 . S
O180 Cd172 2.277 . S
O180 C173 1.226 . S
O181 Cd172 2.356 . S
O181 C179 1.282 . S
C182 O183 1.306 . S
C182 O185 1.160 . S
O183 C182 1.306 . S
O183 Cd184 2.228 . S
Cd184 O183 2.228 . S
Cd184 O188 2.273 . S
Cd184 O192 2.277 . S
O185 C182 1.160 . S
O185 Cd186 2.203 . S
Cd186 O185 2.203 . S
Cd186 O188 2.411 . S
Cd186 O189 2.333 . S
Cd186 O190 2.352 . S
Cd186 O194 2.277 . S
Cd186 O195 2.356 . S
C187 O192 1.209 . S
C187 O194 1.226 . S
O188 Cd184 2.273 . S
O188 Cd186 2.411 . S
O188 C191 1.320 . S
O189 Cd186 2.333 . S
O189 C191 1.214 . S
O190 Cd186 2.352 . S
O190 C193 1.258 . S
C191 O188 1.320 . S
C191 O189 1.214 . S
O192 Cd184 2.277 . S
O192 C187 1.209 . S
C193 O190 1.258 . S
C193 O195 1.282 . S
O194 Cd186 2.277 . S
O194 C187 1.226 . S
O195 Cd186 2.356 . S
O195 C193 1.282 . S
C196 O197 1.306 . S
C196 O199 1.160 . S
O197 C196 1.306 . S
O197 Cd198 2.228 . S
Cd198 O197 2.228 . S
Cd198 O202 2.273 . S
Cd198 O206 2.277 . S
O199 C196 1.160 . S
O199 Cd200 2.203 . S
Cd200 O199 2.203 . S
Cd200 O202 2.411 . S
Cd200 O203 2.333 . S
Cd200 O204 2.352 . S
Cd200 O208 2.277 . S
Cd200 O209 2.356 . S
C201 O206 1.209 . S
C201 O208 1.226 . S
O202 Cd198 2.273 . S
O202 Cd200 2.411 . S
O202 C205 1.320 . S
O203 Cd200 2.333 . S
O203 C205 1.214 . S
O204 Cd200 2.352 . S
O204 C207 1.258 . S
C205 O202 1.320 . S
C205 O203 1.214 . S
O206 Cd198 2.277 . S
O206 C201 1.209 . S
C207 O204 1.258 . S
C207 O209 1.282 . S
O208 Cd200 2.277 . S
O208 C201 1.226 . S
O209 Cd200 2.356 . S
O209 C207 1.282 . S
C210 O211 1.306 . S
C210 O213 1.160 . S
O211 C210 1.306 . S
O211 Cd212 2.228 . S
Cd212 O211 2.228 . S
Cd212 O216 2.273 . S
Cd212 O220 2.277 . S
O213 C210 1.160 . S
O213 Cd214 2.203 . S
Cd214 O213 2.203 . S
Cd214 O216 2.411 . S
Cd214 O217 2.333 . S
Cd214 O218 2.352 . S
Cd214 O222 2.277 . S
Cd214 O223 2.356 . S
C215 O220 1.209 . S
C215 O222 1.226 . S
O216 Cd212 2.273 . S
O216 Cd214 2.411 . S
O216 C219 1.320 . S
O217 Cd214 2.333 . S
O217 C219 1.214 . S
O218 Cd214 2.352 . S
O218 C221 1.258 . S
C219 O216 1.320 . S
C219 O217 1.214 . S
O220 Cd212 2.277 . S
O220 C215 1.209 . S
C221 O218 1.258 . S
C221 O223 1.282 . S
O222 Cd214 2.277 . S
O222 C215 1.226 . S
O223 Cd214 2.356 . S
O223 C221 1.282 . S
C224 C225 1.349 . S
C224 C226 1.327 . S
C224 H249 0.950 1_545 S
C225 C224 1.349 . S
C225 C241 1.349 . S
C226 C224 1.327 . S
C226 C245 1.429 . S
C226 H250 0.950 1_545 S
C227 C244 1.574 . S
C227 C246 1.368 . S
C227 H251 0.949 . S
H228 C232 0.949 1_565 S
C229 C230 1.349 . S
C229 C231 1.327 . S
C229 H252 0.950 . S
C230 C229 1.349 . S
C230 C242 1.349 . S
C231 C229 1.327 . S
C231 C247 1.429 . S
C231 H253 0.950 . S
C232 H228 0.949 1_545 S
C232 C240 1.574 . S
C232 C248 1.368 . S
H233 C241 0.950 . S
H234 C239 0.950 . S
H235 C240 0.949 1_565 S
H236 C242 0.950 1_565 S
H237 C243 0.950 1_565 S
H238 C244 0.949 . S
C239 H234 0.950 . S
C239 C241 1.327 . S
C239 C245 1.429 . S
C240 C232 1.574 . S
C240 H235 0.949 1_545 S
C240 C246 1.368 . S
C241 C225 1.349 . S
C241 H233 0.950 . S
C241 C239 1.327 . S
C242 C230 1.349 . S
C242 H236 0.950 1_545 S
C242 C243 1.327 . S
C243 H237 0.950 1_545 S
C243 C242 1.327 . S
C243 C247 1.429 . S
C244 C227 1.574 . S
C244 H238 0.949 . S
C244 C248 1.368 . S
C245 C226 1.429 . S
C245 C239 1.429 . S
C245 C246 1.523 . S
C246 C227 1.368 . S
C246 C240 1.368 . S
C246 C245 1.523 . S
C247 C231 1.429 . S
C247 C243 1.429 . S
C247 C248 1.523 . S
C248 C232 1.368 . S
C248 C244 1.368 . S
C248 C247 1.523 . S
H249 C224 0.950 1_565 S
H250 C226 0.950 1_565 S
H251 C227 0.949 . S
H252 C229 0.950 . S
H253 C231 0.950 . S
C254 C255 1.349 . S
C254 C256 1.327 . S
C254 H279 0.950 . S
C255 C254 1.349 . S
C255 C271 1.349 . S
C256 C254 1.327 . S
C256 C275 1.429 . S
C256 H280 0.950 . S
C257 C274 1.574 . S
C257 C276 1.368 . S
C257 H281 0.949 1_565 S
H258 C262 0.949 . S
C259 C260 1.349 . S
C259 C261 1.327 . S
C259 H282 0.950 1_565 S
C260 C259 1.349 . S
C260 C272 1.349 . S
C261 C259 1.327 . S
C261 C277 1.429 . S
C261 H283 0.950 1_565 S
C262 H258 0.949 . S
C262 C270 1.574 . S
C262 C278 1.368 . S
H263 C271 0.950 1_545 S
H264 C269 0.950 1_545 S
H265 C270 0.949 . S
H266 C272 0.950 . S
H267 C273 0.950 . S
H268 C274 0.949 1_545 S
C269 H264 0.950 1_565 S
C269 C271 1.327 . S
C269 C275 1.429 . S
C270 C262 1.574 . S
C270 H265 0.949 . S
C270 C276 1.368 . S
C271 C255 1.349 . S
C271 H263 0.950 1_565 S
C271 C269 1.327 . S
C272 C260 1.349 . S
C272 H266 0.950 . S
C272 C273 1.327 . S
C273 H267 0.950 . S
C273 C272 1.327 . S
C273 C277 1.429 . S
C274 C257 1.574 . S
C274 H268 0.949 1_565 S
C274 C278 1.368 . S
C275 C256 1.429 . S
C275 C269 1.429 . S
C275 C276 1.523 . S
C276 C257 1.368 . S
C276 C270 1.368 . S
C276 C275 1.523 . S
C277 C261 1.429 . S
C277 C273 1.429 . S
C277 C278 1.523 . S
C278 C262 1.368 . S
C278 C274 1.368 . S
C278 C277 1.523 . S
H279 C254 0.950 . S
H280 C256 0.950 . S
H281 C257 0.949 1_545 S
H282 C259 0.950 1_545 S
H283 C261 0.950 1_545 S
C284 C285 1.349 . S
C284 C286 1.327 . S
C284 H309 0.950 1_565 S
C285 C284 1.349 . S
C285 C301 1.349 . S
C286 C284 1.327 . S
C286 C305 1.429 . S
C286 H310 0.950 1_565 S
C287 C304 1.574 1_554 S
C287 C306 1.368 . S
C287 H311 0.949 . S
H288 C292 0.949 1_545 S
C289 C290 1.349 . S
C289 C291 1.327 . S
C289 H312 0.950 . S
C290 C289 1.349 . S
C290 C302 1.349 . S
C291 C289 1.327 . S
C291 C307 1.429 . S
C291 H313 0.950 . S
C292 H288 0.949 1_565 S
C292 C300 1.574 1_556 S
C292 C308 1.368 . S
H293 C301 0.950 . S
H294 C299 0.950 . S
H295 C300 0.949 1_545 S
H296 C302 0.950 1_545 S
H297 C303 0.950 1_545 S
H298 C304 0.949 . S
C299 H294 0.950 . S
C299 C301 1.327 . S
C299 C305 1.429 . S
C300 C292 1.574 1_554 S
C300 H295 0.949 1_565 S
C300 C306 1.368 . S
C301 C285 1.349 . S
C301 H293 0.950 . S
C301 C299 1.327 . S
C302 C290 1.349 . S
C302 H296 0.950 1_565 S
C302 C303 1.327 . S
C303 H297 0.950 1_565 S
C303 C302 1.327 . S
C303 C307 1.429 . S
C304 C287 1.574 1_556 S
C304 H298 0.949 . S
C304 C308 1.368 . S
C305 C286 1.429 . S
C305 C299 1.429 . S
C305 C306 1.523 . S
C306 C287 1.368 . S
C306 C300 1.368 . S
C306 C305 1.523 . S
C307 C291 1.429 . S
C307 C303 1.429 . S
C307 C308 1.523 . S
C308 C292 1.368 . S
C308 C304 1.368 . S
C308 C307 1.523 . S
H309 C284 0.950 1_545 S
H310 C286 0.950 1_545 S
H311 C287 0.949 . S
H312 C289 0.950 . S
H313 C291 0.950 . S
C314 C315 1.349 . S
C314 C316 1.327 . S
C314 H339 0.950 . S
C315 C314 1.349 . S
C315 C331 1.349 . S
C316 C314 1.327 . S
C316 C335 1.429 . S
C316 H340 0.950 . S
C317 C334 1.574 1_556 S
C317 C336 1.368 . S
C317 H341 0.949 1_545 S
H318 C322 0.949 . S
C319 C320 1.349 . S
C319 C321 1.327 . S
C319 H342 0.950 1_545 S
C320 C319 1.349 . S
C320 C332 1.349 . S
C321 C319 1.327 . S
C321 C337 1.429 . S
C321 H343 0.950 1_545 S
C322 H318 0.949 . S
C322 C330 1.574 1_554 S
C322 C338 1.368 . S
H323 C331 0.950 1_565 S
H324 C329 0.950 1_565 S
H325 C330 0.949 . S
H326 C332 0.950 . S
H327 C333 0.950 . S
H328 C334 0.949 1_565 S
C329 H324 0.950 1_545 S
C329 C331 1.327 . S
C329 C335 1.429 . S
C330 C322 1.574 1_556 S
C330 H325 0.949 . S
C330 C336 1.368 . S
C331 C315 1.349 . S
C331 H323 0.950 1_545 S
C331 C329 1.327 . S
C332 C320 1.349 . S
C332 H326 0.950 . S
C332 C333 1.327 . S
C333 H327 0.950 . S
C333 C332 1.327 . S
C333 C337 1.429 . S
C334 C317 1.574 1_554 S
C334 H328 0.949 1_545 S
C334 C338 1.368 . S
C335 C316 1.429 . S
C335 C329 1.429 . S
C335 C336 1.523 . S
C336 C317 1.368 . S
C336 C330 1.368 . S
C336 C335 1.523 . S
C337 C321 1.429 . S
C337 C333 1.429 . S
C337 C338 1.523 . S
C338 C322 1.368 . S
C338 C334 1.368 . S
C338 C337 1.523 . S
H339 C314 0.950 . S
H340 C316 0.950 . S
H341 C317 0.949 1_565 S
H342 C319 0.950 1_565 S
H343 C321 0.950 1_565 S
C344 C345 1.349 . S
C344 C346 1.327 . S
C344 H369 0.950 . S
C345 C344 1.349 . S
C345 C361 1.349 . S
C346 C344 1.327 . S
C346 C365 1.429 . S
C346 H370 0.950 . S
C347 C364 1.574 . S
C347 C366 1.368 . S
C347 H371 0.949 . S
H348 C352 0.949 . S
C349 C350 1.349 . S
C349 C351 1.327 . S
C349 H372 0.950 . S
C350 C349 1.349 . S
C350 C362 1.349 . S
C351 C349 1.327 . S
C351 C367 1.429 . S
C351 H373 0.950 . S
C352 H348 0.949 . S
C352 C360 1.574 . S
C352 C368 1.368 . S
H353 C361 0.950 . S
H354 C359 0.950 . S
H355 C360 0.949 . S
H356 C362 0.950 . S
H357 C363 0.950 . S
H358 C364 0.949 . S
C359 H354 0.950 . S
C359 C361 1.327 . S
C359 C365 1.429 . S
C360 C352 1.574 . S
C360 H355 0.949 . S
C360 C366 1.368 . S
C361 C345 1.349 . S
C361 H353 0.950 . S
C361 C359 1.327 . S
C362 C350 1.349 . S
C362 H356 0.950 . S
C362 C363 1.327 . S
C363 H357 0.950 . S
C363 C362 1.327 . S
C363 C367 1.429 . S
C364 C347 1.574 . S
C364 H358 0.949 . S
C364 C368 1.368 . S
C365 C346 1.429 . S
C365 C359 1.429 . S
C365 C366 1.523 . S
C366 C347 1.368 . S
C366 C360 1.368 . S
C366 C365 1.523 . S
C367 C351 1.429 . S
C367 C363 1.429 . S
C367 C368 1.523 . S
C368 C352 1.368 . S
C368 C364 1.368 . S
C368 C367 1.523 . S
H369 C344 0.950 . S
H370 C346 0.950 . S
H371 C347 0.949 . S
H372 C349 0.950 . S
H373 C351 0.950 . S
C374 C375 1.349 . S
C374 C376 1.327 . S
C374 H399 0.950 . S
C375 C374 1.349 . S
C375 C391 1.349 . S
C376 C374 1.327 . S
C376 C395 1.429 . S
C376 H400 0.950 . S
C377 C394 1.574 . S
C377 C396 1.368 . S
C377 H401 0.949 . S
H378 C382 0.949 . S
C379 C380 1.349 . S
C379 C381 1.327 . S
C379 H402 0.950 . S
C380 C379 1.349 . S
C380 C392 1.349 . S
C381 C379 1.327 . S
C381 C397 1.429 . S
C381 H403 0.950 . S
C382 H378 0.949 . S
C382 C390 1.574 . S
C382 C398 1.368 . S
H383 C391 0.950 . S
H384 C389 0.950 . S
H385 C390 0.949 . S
H386 C392 0.950 . S
H387 C393 0.950 . S
H388 C394 0.949 . S
C389 H384 0.950 . S
C389 C391 1.327 . S
C389 C395 1.429 . S
C390 C382 1.574 . S
C390 H385 0.949 . S
C390 C396 1.368 . S
C391 C375 1.349 . S
C391 H383 0.950 . S
C391 C389 1.327 . S
C392 C380 1.349 . S
C392 H386 0.950 . S
C392 C393 1.327 . S
C393 H387 0.950 . S
C393 C392 1.327 . S
C393 C397 1.429 . S
C394 C377 1.574 . S
C394 H388 0.949 . S
C394 C398 1.368 . S
C395 C376 1.429 . S
C395 C389 1.429 . S
C395 C396 1.523 . S
C396 C377 1.368 . S
C396 C390 1.368 . S
C396 C395 1.523 . S
C397 C381 1.429 . S
C397 C393 1.429 . S
C397 C398 1.523 . S
C398 C382 1.368 . S
C398 C394 1.368 . S
C398 C397 1.523 . S
H399 C374 0.950 . S
H400 C376 0.950 . S
H401 C377 0.949 . S
H402 C379 0.950 . S
H403 C381 0.950 . S
C404 C405 1.349 . S
C404 C406 1.327 . S
C404 H429 0.950 . S
C405 C404 1.349 . S
C405 C421 1.349 . S
C406 C404 1.327 . S
C406 C425 1.429 . S
C406 H430 0.950 . S
C407 C424 1.574 1_556 S
C407 C426 1.368 . S
C407 H431 0.949 . S
H408 C412 0.949 . S
C409 C410 1.349 . S
C409 C411 1.327 . S
C409 H432 0.950 . S
C410 C409 1.349 . S
C410 C422 1.349 . S
C411 C409 1.327 . S
C411 C427 1.429 . S
C411 H433 0.950 . S
C412 H408 0.949 . S
C412 C420 1.574 1_554 S
C412 C428 1.368 . S
H413 C421 0.950 . S
H414 C419 0.950 . S
H415 C420 0.949 . S
H416 C422 0.950 . S
H417 C423 0.950 . S
H418 C424 0.949 . S
C419 H414 0.950 . S
C419 C421 1.327 . S
C419 C425 1.429 . S
C420 C412 1.574 1_556 S
C420 H415 0.949 . S
C420 C426 1.368 . S
C421 C405 1.349 . S
C421 H413 0.950 . S
C421 C419 1.327 . S
C422 C410 1.349 . S
C422 H416 0.950 . S
C422 C423 1.327 . S
C423 H417 0.950 . S
C423 C422 1.327 . S
C423 C427 1.429 . S
C424 C407 1.574 1_554 S
C424 H418 0.949 . S
C424 C428 1.368 . S
C425 C406 1.429 . S
C425 C419 1.429 . S
C425 C426 1.523 . S
C426 C407 1.368 . S
C426 C420 1.368 . S
C426 C425 1.523 . S
C427 C411 1.429 . S
C427 C423 1.429 . S
C427 C428 1.523 . S
C428 C412 1.368 . S
C428 C424 1.368 . S
C428 C427 1.523 . S
H429 C404 0.950 . S
H430 C406 0.950 . S
H431 C407 0.949 . S
H432 C409 0.950 . S
H433 C411 0.950 . S
C434 C435 1.349 . S
C434 C436 1.327 . S
C434 H459 0.950 . S
C435 C434 1.349 . S
C435 C451 1.349 . S
C436 C434 1.327 . S
C436 C455 1.429 . S
C436 H460 0.950 . S
C437 C454 1.574 1_554 S
C437 C456 1.368 . S
C437 H461 0.949 . S
H438 C442 0.949 . S
C439 C440 1.349 . S
C439 C441 1.327 . S
C439 H462 0.950 . S
C440 C439 1.349 . S
C440 C452 1.349 . S
C441 C439 1.327 . S
C441 C457 1.429 . S
C441 H463 0.950 . S
C442 H438 0.949 . S
C442 C450 1.574 1_556 S
C442 C458 1.368 . S
H443 C451 0.950 . S
H444 C449 0.950 . S
H445 C450 0.949 . S
H446 C452 0.950 . S
H447 C453 0.950 . S
H448 C454 0.949 . S
C449 H444 0.950 . S
C449 C451 1.327 . S
C449 C455 1.429 . S
C450 C442 1.574 1_554 S
C450 H445 0.949 . S
C450 C456 1.368 . S
C451 C435 1.349 . S
C451 H443 0.950 . S
C451 C449 1.327 . S
C452 C440 1.349 . S
C452 H446 0.950 . S
C452 C453 1.327 . S
C453 H447 0.950 . S
C453 C452 1.327 . S
C453 C457 1.429 . S
C454 C437 1.574 1_556 S
C454 H448 0.949 . S
C454 C458 1.368 . S
C455 C436 1.429 . S
C455 C449 1.429 . S
C455 C456 1.523 . S
C456 C437 1.368 . S
C456 C450 1.368 . S
C456 C455 1.523 . S
C457 C441 1.429 . S
C457 C453 1.429 . S
C457 C458 1.523 . S
C458 C442 1.368 . S
C458 C454 1.368 . S
C458 C457 1.523 . S
H459 C434 0.950 . S
H460 C436 0.950 . S
H461 C437 0.949 . S
H462 C439 0.950 . S
H463 C441 0.950 . S
C464 C465 1.349 . S
C464 C466 1.327 . S
C464 H489 0.950 . S
C465 C464 1.349 . S
C465 C481 1.349 . S
C466 C464 1.327 . S
C466 C485 1.429 . S
C466 H490 0.950 1_565 S
C467 C484 1.574 . S
C467 C486 1.368 . S
C467 H491 0.949 . S
H468 C472 0.949 . S
C469 C470 1.349 . S
C469 C471 1.327 . S
C469 H492 0.950 . S
C470 C469 1.349 . S
C470 C482 1.349 . S
C471 C469 1.327 . S
C471 C487 1.429 . S
C471 H493 0.950 1_545 S
C472 H468 0.949 . S
C472 C480 1.574 . S
C472 C488 1.368 . S
H473 C481 0.950 . S
H474 C479 0.950 . S
H475 C480 0.949 . S
H476 C482 0.950 . S
H477 C483 0.950 . S
H478 C484 0.949 . S
C479 H474 0.950 . S
C479 C481 1.327 . S
C479 C485 1.429 . S
C480 C472 1.574 . S
C480 H475 0.949 . S
C480 C486 1.368 1_545 S
C481 C465 1.349 . S
C481 H473 0.950 . S
C481 C479 1.327 . S
C482 C470 1.349 . S
C482 H476 0.950 . S
C482 C483 1.327 . S
C483 H477 0.950 . S
C483 C482 1.327 . S
C483 C487 1.429 . S
C484 C467 1.574 . S
C484 H478 0.949 . S
C484 C488 1.368 1_565 S
C485 C466 1.429 . S
C485 C479 1.429 . S
C485 C486 1.523 . S
C486 C467 1.368 . S
C486 C480 1.368 1_565 S
C486 C485 1.523 . S
C487 C471 1.429 . S
C487 C483 1.429 . S
C487 C488 1.523 . S
C488 C472 1.368 . S
C488 C484 1.368 1_545 S
C488 C487 1.523 . S
H489 C464 0.950 . S
H490 C466 0.950 1_545 S
H491 C467 0.949 . S
H492 C469 0.950 . S
H493 C471 0.950 1_565 S
C494 C495 1.349 . S
C494 C496 1.327 . S
C494 H519 0.950 . S
C495 C494 1.349 . S
C495 C511 1.349 . S
C496 C494 1.327 . S
C496 C515 1.429 . S
C496 H520 0.950 . S
C497 C514 1.574 . S
C497 C516 1.368 1_545 S
C497 H521 0.949 . S
H498 C502 0.949 . S
C499 C500 1.349 . S
C499 C501 1.327 . S
C499 H522 0.950 . S
C500 C499 1.349 . S
C500 C512 1.349 . S
C501 C499 1.327 . S
C501 C517 1.429 . S
C501 H523 0.950 . S
C502 H498 0.949 . S
C502 C510 1.574 . S
C502 C518 1.368 1_565 S
H503 C511 0.950 . S
H504 C509 0.950 1_545 S
H505 C510 0.949 . S
H506 C512 0.950 . S
H507 C513 0.950 1_565 S
H508 C514 0.949 . S
C509 H504 0.950 1_565 S
C509 C511 1.327 . S
C509 C515 1.429 . S
C510 C502 1.574 . S
C510 H505 0.949 . S
C510 C516 1.368 . S
C511 C495 1.349 . S
C511 H503 0.950 . S
C511 C509 1.327 . S
C512 C500 1.349 . S
C512 H506 0.950 . S
C512 C513 1.327 . S
C513 H507 0.950 1_545 S
C513 C512 1.327 . S
C513 C517 1.429 . S
C514 C497 1.574 . S
C514 H508 0.949 . S
C514 C518 1.368 . S
C515 C496 1.429 . S
C515 C509 1.429 . S
C515 C516 1.523 . S
C516 C497 1.368 1_565 S
C516 C510 1.368 . S
C516 C515 1.523 . S
C517 C501 1.429 . S
C517 C513 1.429 . S
C517 C518 1.523 . S
C518 C502 1.368 1_545 S
C518 C514 1.368 . S
C518 C517 1.523 . S
H519 C494 0.950 . S
H520 C496 0.950 . S
H521 C497 0.949 . S
H522 C499 0.950 . S
H523 C501 0.950 . S
C524 C525 1.349 . S
C524 C526 1.327 . S
C524 H549 0.950 . S
C525 C524 1.349 . S
C525 C541 1.349 . S
C526 C524 1.327 . S
C526 C545 1.429 . S
C526 H550 0.950 . S
C527 C544 1.574 . S
C527 C546 1.368 1_545 S
C527 H551 0.949 . S
H528 C532 0.949 . S
C529 C530 1.349 . S
C529 C531 1.327 . S
C529 H552 0.950 . S
C530 C529 1.349 . S
C530 C542 1.349 . S
C531 C529 1.327 . S
C531 C547 1.429 . S
C531 H553 0.950 . S
C532 H528 0.949 . S
C532 C540 1.574 . S
C532 C548 1.368 1_565 S
H533 C541 0.950 . S
H534 C539 0.950 1_545 S
H535 C540 0.949 . S
H536 C542 0.950 . S
H537 C543 0.950 1_565 S
H538 C544 0.949 . S
C539 H534 0.950 1_565 S
C539 C541 1.327 . S
C539 C545 1.429 . S
C540 C532 1.574 . S
C540 H535 0.949 . S
C540 C546 1.368 . S
C541 C525 1.349 . S
C541 H533 0.950 . S
C541 C539 1.327 . S
C542 C530 1.349 . S
C542 H536 0.950 . S
C542 C543 1.327 . S
C543 H537 0.950 1_545 S
C543 C542 1.327 . S
C543 C547 1.429 . S
C544 C527 1.574 . S
C544 H538 0.949 . S
C544 C548 1.368 . S
C545 C526 1.429 . S
C545 C539 1.429 . S
C545 C546 1.523 . S
C546 C527 1.368 1_565 S
C546 C540 1.368 . S
C546 C545 1.523 . S
C547 C531 1.429 . S
C547 C543 1.429 . S
C547 C548 1.523 . S
C548 C532 1.368 1_545 S
C548 C544 1.368 . S
C548 C547 1.523 . S
H549 C524 0.950 . S
H550 C526 0.950 . S
H551 C527 0.949 . S
H552 C529 0.950 . S
H553 C531 0.950 . S
C554 C555 1.349 . S
C554 C556 1.327 . S
C554 H579 0.950 . S
C555 C554 1.349 . S
C555 C571 1.349 . S
C556 C554 1.327 . S
C556 C575 1.429 . S
C556 H580 0.950 . S
C557 C574 1.574 . S
C557 C576 1.368 1_565 S
C557 H581 0.949 . S
H558 C562 0.949 . S
C559 C560 1.349 . S
C559 C561 1.327 . S
C559 H582 0.950 . S
C560 C559 1.349 . S
C560 C572 1.349 . S
C561 C559 1.327 . S
C561 C577 1.429 . S
C561 H583 0.950 . S
C562 H558 0.949 . S
C562 C570 1.574 . S
C562 C578 1.368 1_545 S
H563 C571 0.950 . S
H564 C569 0.950 1_565 S
H565 C570 0.949 . S
H566 C572 0.950 . S
H567 C573 0.950 1_545 S
H568 C574 0.949 . S
C569 H564 0.950 1_545 S
C569 C571 1.327 . S
C569 C575 1.429 . S
C570 C562 1.574 . S
C570 H565 0.949 . S
C570 C576 1.368 . S
C571 C555 1.349 . S
C571 H563 0.950 . S
C571 C569 1.327 . S
C572 C560 1.349 . S
C572 H566 0.950 . S
C572 C573 1.327 . S
C573 H567 0.950 1_565 S
C573 C572 1.327 . S
C573 C577 1.429 . S
C574 C557 1.574 . S
C574 H568 0.949 . S
C574 C578 1.368 . S
C575 C556 1.429 . S
C575 C569 1.429 . S
C575 C576 1.523 . S
C576 C557 1.368 1_545 S
C576 C570 1.368 . S
C576 C575 1.523 . S
C577 C561 1.429 . S
C577 C573 1.429 . S
C577 C578 1.523 . S
C578 C562 1.368 1_565 S
C578 C574 1.368 . S
C578 C577 1.523 . S
H579 C554 0.950 . S
H580 C556 0.950 . S
H581 C557 0.949 . S
H582 C559 0.950 . S
H583 C561 0.950 . S
C584 C585 1.349 . S
C584 C586 1.327 . S
C584 H609 0.950 . S
C585 C584 1.349 . S
C585 C601 1.349 . S
C586 C584 1.327 . S
C586 C605 1.429 . S
C586 H610 0.950 . S
C587 C604 1.574 1_655 S
C587 C606 1.368 . S
C587 H611 0.949 . S
H588 C592 0.949 . S
C589 C590 1.349 . S
C589 C591 1.327 . S
C589 H612 0.950 . S
C590 C589 1.349 . S
C590 C602 1.349 . S
C591 C589 1.327 . S
C591 C607 1.429 . S
C591 H613 0.950 . S
C592 H588 0.949 . S
C592 C600 1.574 1_455 S
C592 C608 1.368 . S
H593 C601 0.950 . S
H594 C599 0.950 . S
H595 C600 0.949 . S
H596 C602 0.950 . S
H597 C603 0.950 . S
H598 C604 0.949 . S
C599 H594 0.950 . S
C599 C601 1.327 . S
C599 C605 1.429 . S
C600 C592 1.574 1_655 S
C600 H595 0.949 . S
C600 C606 1.368 . S
C601 C585 1.349 . S
C601 H593 0.950 . S
C601 C599 1.327 . S
C602 C590 1.349 . S
C602 H596 0.950 . S
C602 C603 1.327 . S
C603 H597 0.950 . S
C603 C602 1.327 . S
C603 C607 1.429 . S
C604 C587 1.574 1_455 S
C604 H598 0.949 . S
C604 C608 1.368 . S
C605 C586 1.429 . S
C605 C599 1.429 . S
C605 C606 1.523 . S
C606 C587 1.368 . S
C606 C600 1.368 . S
C606 C605 1.523 . S
C607 C591 1.429 . S
C607 C603 1.429 . S
C607 C608 1.523 . S
C608 C592 1.368 . S
C608 C604 1.368 . S
C608 C607 1.523 . S
H609 C584 0.950 . S
H610 C586 0.950 . S
H611 C587 0.949 . S
H612 C589 0.950 . S
H613 C591 0.950 . S
C614 C615 1.349 . S
C614 C616 1.327 . S
C614 H639 0.950 . S
C615 C614 1.349 . S
C615 C631 1.349 . S
C616 C614 1.327 . S
C616 C635 1.429 . S
C616 H640 0.950 . S
C617 C634 1.574 1_455 S
C617 C636 1.368 . S
C617 H641 0.949 . S
H618 C622 0.949 . S
C619 C620 1.349 . S
C619 C621 1.327 . S
C619 H642 0.950 . S
C620 C619 1.349 . S
C620 C632 1.349 . S
C621 C619 1.327 . S
C621 C637 1.429 . S
C621 H643 0.950 . S
C622 H618 0.949 . S
C622 C630 1.574 1_655 S
C622 C638 1.368 . S
H623 C631 0.950 . S
H624 C629 0.950 . S
H625 C630 0.949 . S
H626 C632 0.950 . S
H627 C633 0.950 . S
H628 C634 0.949 . S
C629 H624 0.950 . S
C629 C631 1.327 . S
C629 C635 1.429 . S
C630 C622 1.574 1_455 S
C630 H625 0.949 . S
C630 C636 1.368 . S
C631 C615 1.349 . S
C631 H623 0.950 . S
C631 C629 1.327 . S
C632 C620 1.349 . S
C632 H626 0.950 . S
C632 C633 1.327 . S
C633 H627 0.950 . S
C633 C632 1.327 . S
C633 C637 1.429 . S
C634 C617 1.574 1_655 S
C634 H628 0.949 . S
C634 C638 1.368 . S
C635 C616 1.429 . S
C635 C629 1.429 . S
C635 C636 1.523 . S
C636 C617 1.368 . S
C636 C630 1.368 . S
C636 C635 1.523 . S
C637 C621 1.429 . S
C637 C633 1.429 . S
C637 C638 1.523 . S
C638 C622 1.368 . S
C638 C634 1.368 . S
C638 C637 1.523 . S
H639 C614 0.950 . S
H640 C616 0.950 . S
H641 C617 0.949 . S
H642 C619 0.950 . S
H643 C621 0.950 . S
C644 C645 1.349 . S
C644 C646 1.327 . S
C644 H669 0.950 . S
C645 C644 1.349 . S
C645 C661 1.349 . S
C646 C644 1.327 . S
C646 C665 1.429 . S
C646 H670 0.950 . S
C647 C664 1.574 1_655 S
C647 C666 1.368 . S
C647 H671 0.949 . S
H648 C652 0.949 . S
C649 C650 1.349 . S
C649 C651 1.327 . S
C649 H672 0.950 . S
C650 C649 1.349 . S
C650 C662 1.349 . S
C651 C649 1.327 . S
C651 C667 1.429 . S
C651 H673 0.950 . S
C652 H648 0.949 . S
C652 C660 1.574 1_455 S
C652 C668 1.368 . S
H653 C661 0.950 . S
H654 C659 0.950 . S
H655 C660 0.949 . S
H656 C662 0.950 . S
H657 C663 0.950 . S
H658 C664 0.949 . S
C659 H654 0.950 . S
C659 C661 1.327 . S
C659 C665 1.429 . S
C660 C652 1.574 1_655 S
C660 H655 0.949 . S
C660 C666 1.368 . S
C661 C645 1.349 . S
C661 H653 0.950 . S
C661 C659 1.327 . S
C662 C650 1.349 . S
C662 H656 0.950 . S
C662 C663 1.327 . S
C663 H657 0.950 . S
C663 C662 1.327 . S
C663 C667 1.429 . S
C664 C647 1.574 1_455 S
C664 H658 0.949 . S
C664 C668 1.368 . S
C665 C646 1.429 . S
C665 C659 1.429 . S
C665 C666 1.523 . S
C666 C647 1.368 . S
C666 C660 1.368 . S
C666 C665 1.523 . S
C667 C651 1.429 . S
C667 C663 1.429 . S
C667 C668 1.523 . S
C668 C652 1.368 . S
C668 C664 1.368 . S
C668 C667 1.523 . S
H669 C644 0.950 . S
H670 C646 0.950 . S
H671 C647 0.949 . S
H672 C649 0.950 . S
H673 C651 0.950 . S
C674 C675 1.349 . S
C674 C676 1.327 . S
C674 H699 0.950 . S
C675 C674 1.349 . S
C675 C691 1.349 . S
C676 C674 1.327 . S
C676 C695 1.429 . S
C676 H700 0.950 . S
C677 C694 1.574 1_455 S
C677 C696 1.368 . S
C677 H701 0.949 . S
H678 C682 0.949 . S
C679 C680 1.349 . S
C679 C681 1.327 . S
C679 H702 0.950 . S
C680 C679 1.349 . S
C680 C692 1.349 . S
C681 C679 1.327 . S
C681 C697 1.429 . S
C681 H703 0.950 . S
C682 H678 0.949 . S
C682 C690 1.574 1_655 S
C682 C698 1.368 . S
H683 C691 0.950 . S
H684 C689 0.950 . S
H685 C690 0.949 . S
H686 C692 0.950 . S
H687 C693 0.950 . S
H688 C694 0.949 . S
C689 H684 0.950 . S
C689 C691 1.327 . S
C689 C695 1.429 . S
C690 C682 1.574 1_455 S
C690 H685 0.949 . S
C690 C696 1.368 . S
C691 C675 1.349 . S
C691 H683 0.950 . S
C691 C689 1.327 . S
C692 C680 1.349 . S
C692 H686 0.950 . S
C692 C693 1.327 . S
C693 H687 0.950 . S
C693 C692 1.327 . S
C693 C697 1.429 . S
C694 C677 1.574 1_655 S
C694 H688 0.949 . S
C694 C698 1.368 . S
C695 C676 1.429 . S
C695 C689 1.429 . S
C695 C696 1.523 . S
C696 C677 1.368 . S
C696 C690 1.368 . S
C696 C695 1.523 . S
C697 C681 1.429 . S
C697 C693 1.429 . S
C697 C698 1.523 . S
C698 C682 1.368 . S
C698 C694 1.368 . S
C698 C697 1.523 . S
H699 C674 0.950 . S
H700 C676 0.950 . S
H701 C677 0.949 . S
H702 C679 0.950 . S
H703 C681 0.950 . S
C704 C705 1.349 . S
C704 C706 1.327 . S
C704 H729 0.950 . S
C705 C704 1.349 . S
C705 C721 1.349 . S
C706 C704 1.327 . S
C706 C725 1.429 . S
C706 H730 0.950 . S
C707 C724 1.574 . S
C707 C726 1.368 . S
C707 H731 0.949 . S
H708 C712 0.949 . S
C709 C710 1.349 . S
C709 C711 1.327 . S
C709 H732 0.950 . S
C710 C709 1.349 . S
C710 C722 1.349 . S
C711 C709 1.327 . S
C711 C727 1.429 . S
C711 H733 0.950 . S
C712 H708 0.949 . S
C712 C720 1.574 . S
C712 C728 1.368 . S
H713 C721 0.950 . S
H714 C719 0.950 . S
H715 C720 0.949 . S
H716 C722 0.950 . S
H717 C723 0.950 . S
H718 C724 0.949 . S
C719 H714 0.950 . S
C719 C721 1.327 . S
C719 C725 1.429 . S
C720 C712 1.574 . S
C720 H715 0.949 . S
C720 C726 1.368 . S
C721 C705 1.349 . S
C721 H713 0.950 . S
C721 C719 1.327 . S
C722 C710 1.349 . S
C722 H716 0.950 . S
C722 C723 1.327 . S
C723 H717 0.950 . S
C723 C722 1.327 . S
C723 C727 1.429 . S
C724 C707 1.574 . S
C724 H718 0.949 . S
C724 C728 1.368 . S
C725 C706 1.429 . S
C725 C719 1.429 . S
C725 C726 1.523 . S
C726 C707 1.368 . S
C726 C720 1.368 . S
C726 C725 1.523 . S
C727 C711 1.429 . S
C727 C723 1.429 . S
C727 C728 1.523 . S
C728 C712 1.368 . S
C728 C724 1.368 . S
C728 C727 1.523 . S
H729 C704 0.950 . S
H730 C706 0.950 . S
H731 C707 0.949 . S
H732 C709 0.950 . S
H733 C711 0.950 . S
C734 C735 1.349 . S
C734 C736 1.327 . S
C734 H759 0.950 . S
C735 C734 1.349 . S
C735 C751 1.349 . S
C736 C734 1.327 . S
C736 C755 1.429 . S
C736 H760 0.950 . S
C737 C754 1.574 . S
C737 C756 1.368 . S
C737 H761 0.949 . S
H738 C742 0.949 . S
C739 C740 1.349 . S
C739 C741 1.327 . S
C739 H762 0.950 . S
C740 C739 1.349 . S
C740 C752 1.349 . S
C741 C739 1.327 . S
C741 C757 1.429 . S
C741 H763 0.950 . S
C742 H738 0.949 . S
C742 C750 1.574 . S
C742 C758 1.368 . S
H743 C751 0.950 . S
H744 C749 0.950 . S
H745 C750 0.949 . S
H746 C752 0.950 . S
H747 C753 0.950 . S
H748 C754 0.949 . S
C749 H744 0.950 . S
C749 C751 1.327 . S
C749 C755 1.429 . S
C750 C742 1.574 . S
C750 H745 0.949 . S
C750 C756 1.368 . S
C751 C735 1.349 . S
C751 H743 0.950 . S
C751 C749 1.327 . S
C752 C740 1.349 . S
C752 H746 0.950 . S
C752 C753 1.327 . S
C753 H747 0.950 . S
C753 C752 1.327 . S
C753 C757 1.429 . S
C754 C737 1.574 . S
C754 H748 0.949 . S
C754 C758 1.368 . S
C755 C736 1.429 . S
C755 C749 1.429 . S
C755 C756 1.523 . S
C756 C737 1.368 . S
C756 C750 1.368 . S
C756 C755 1.523 . S
C757 C741 1.429 . S
C757 C753 1.429 . S
C757 C758 1.523 . S
C758 C742 1.368 . S
C758 C754 1.368 . S
C758 C757 1.523 . S
H759 C734 0.950 . S
H760 C736 0.950 . S
H761 C737 0.949 . S
H762 C739 0.950 . S
H763 C741 0.950 . S
C764 C765 1.349 . S
C764 C766 1.327 . S
C764 H789 0.950 . S
C765 C764 1.349 . S
C765 C781 1.349 . S
C766 C764 1.327 . S
C766 C785 1.429 . S
C766 H790 0.950 . S
C767 C784 1.574 . S
C767 C786 1.368 . S
C767 H791 0.949 . S
H768 C772 0.949 . S
C769 C770 1.349 . S
C769 C771 1.327 . S
C769 H792 0.950 . S
C770 C769 1.349 . S
C770 C782 1.349 . S
C771 C769 1.327 . S
C771 C787 1.429 . S
C771 H793 0.950 . S
C772 H768 0.949 . S
C772 C780 1.574 . S
C772 C788 1.368 . S
H773 C781 0.950 . S
H774 C779 0.950 . S
H775 C780 0.949 . S
H776 C782 0.950 . S
H777 C783 0.950 . S
H778 C784 0.949 . S
C779 H774 0.950 . S
C779 C781 1.327 . S
C779 C785 1.429 . S
C780 C772 1.574 . S
C780 H775 0.949 . S
C780 C786 1.368 . S
C781 C765 1.349 . S
C781 H773 0.950 . S
C781 C779 1.327 . S
C782 C770 1.349 . S
C782 H776 0.950 . S
C782 C783 1.327 . S
C783 H777 0.950 . S
C783 C782 1.327 . S
C783 C787 1.429 . S
C784 C767 1.574 . S
C784 H778 0.949 . S
C784 C788 1.368 . S
C785 C766 1.429 . S
C785 C779 1.429 . S
C785 C786 1.523 . S
C786 C767 1.368 . S
C786 C780 1.368 . S
C786 C785 1.523 . S
C787 C771 1.429 . S
C787 C783 1.429 . S
C787 C788 1.523 . S
C788 C772 1.368 . S
C788 C784 1.368 . S
C788 C787 1.523 . S
H789 C764 0.950 . S
H790 C766 0.950 . S
H791 C767 0.949 . S
H792 C769 0.950 . S
H793 C771 0.950 . S
C794 C795 1.349 . S
C794 C796 1.327 . S
C794 H819 0.950 . S
C795 C794 1.349 . S
C795 C811 1.349 . S
C796 C794 1.327 . S
C796 C815 1.429 . S
C796 H820 0.950 . S
C797 C814 1.574 . S
C797 C816 1.368 . S
C797 H821 0.949 . S
H798 C802 0.949 . S
C799 C800 1.349 . S
C799 C801 1.327 . S
C799 H822 0.950 . S
C800 C799 1.349 . S
C800 C812 1.349 . S
C801 C799 1.327 . S
C801 C817 1.429 . S
C801 H823 0.950 . S
C802 H798 0.949 . S
C802 C810 1.574 . S
C802 C818 1.368 . S
H803 C811 0.950 . S
H804 C809 0.950 . S
H805 C810 0.949 . S
H806 C812 0.950 . S
H807 C813 0.950 . S
H808 C814 0.949 . S
C809 H804 0.950 . S
C809 C811 1.327 . S
C809 C815 1.429 . S
C810 C802 1.574 . S
C810 H805 0.949 . S
C810 C816 1.368 . S
C811 C795 1.349 . S
C811 H803 0.950 . S
C811 C809 1.327 . S
C812 C800 1.349 . S
C812 H806 0.950 . S
C812 C813 1.327 . S
C813 H807 0.950 . S
C813 C812 1.327 . S
C813 C817 1.429 . S
C814 C797 1.574 . S
C814 H808 0.949 . S
C814 C818 1.368 . S
C815 C796 1.429 . S
C815 C809 1.429 . S
C815 C816 1.523 . S
C816 C797 1.368 . S
C816 C810 1.368 . S
C816 C815 1.523 . S
C817 C801 1.429 . S
C817 C813 1.429 . S
C817 C818 1.523 . S
C818 C802 1.368 . S
C818 C814 1.368 . S
C818 C817 1.523 . S
H819 C794 0.950 . S
H820 C796 0.950 . S
H821 C797 0.949 . S
H822 C799 0.950 . S
H823 C801 0.950 . S
C824 C825 1.349 . S
C824 C826 1.327 . S
C824 H849 0.950 . S
C825 C824 1.349 . S
C825 C841 1.349 . S
C826 C824 1.327 . S
C826 C845 1.429 . S
C826 H850 0.950 . S
C827 C844 1.574 . S
C827 C846 1.368 . S
C827 H851 0.949 . S
H828 C832 0.949 . S
C829 C830 1.349 . S
C829 C831 1.327 . S
C829 H852 0.950 . S
C830 C829 1.349 . S
C830 C842 1.349 . S
C831 C829 1.327 . S
C831 C847 1.429 . S
C831 H853 0.950 . S
C832 H828 0.949 . S
C832 C840 1.574 . S
C832 C848 1.368 . S
H833 C841 0.950 . S
H834 C839 0.950 . S
H835 C840 0.949 . S
H836 C842 0.950 . S
H837 C843 0.950 . S
H838 C844 0.949 . S
C839 H834 0.950 . S
C839 C841 1.327 . S
C839 C845 1.429 . S
C840 C832 1.574 . S
C840 H835 0.949 . S
C840 C846 1.368 . S
C841 C825 1.349 . S
C841 H833 0.950 . S
C841 C839 1.327 . S
C842 C830 1.349 . S
C842 H836 0.950 . S
C842 C843 1.327 . S
C843 H837 0.950 . S
C843 C842 1.327 . S
C843 C847 1.429 . S
C844 C827 1.574 . S
C844 H838 0.949 . S
C844 C848 1.368 . S
C845 C826 1.429 . S
C845 C839 1.429 . S
C845 C846 1.523 . S
C846 C827 1.368 . S
C846 C840 1.368 . S
C846 C845 1.523 . S
C847 C831 1.429 . S
C847 C843 1.429 . S
C847 C848 1.523 . S
C848 C832 1.368 . S
C848 C844 1.368 . S
C848 C847 1.523 . S
H849 C824 0.950 . S
H850 C826 0.950 . S
H851 C827 0.949 . S
H852 C829 0.950 . S
H853 C831 0.950 . S
C854 C855 1.349 . S
C854 C856 1.327 . S
C854 H879 0.950 . S
C855 C854 1.349 . S
C855 C871 1.349 . S
C856 C854 1.327 . S
C856 C875 1.429 . S
C856 H880 0.950 . S
C857 C874 1.574 . S
C857 C876 1.368 . S
C857 H881 0.949 . S
H858 C862 0.949 . S
C859 C860 1.349 . S
C859 C861 1.327 . S
C859 H882 0.950 . S
C860 C859 1.349 . S
C860 C872 1.349 . S
C861 C859 1.327 . S
C861 C877 1.429 . S
C861 H883 0.950 . S
C862 H858 0.949 . S
C862 C870 1.574 . S
C862 C878 1.368 . S
H863 C871 0.950 . S
H864 C869 0.950 . S
H865 C870 0.949 . S
H866 C872 0.950 . S
H867 C873 0.950 . S
H868 C874 0.949 . S
C869 H864 0.950 . S
C869 C871 1.327 . S
C869 C875 1.429 . S
C870 C862 1.574 . S
C870 H865 0.949 . S
C870 C876 1.368 . S
C871 C855 1.349 . S
C871 H863 0.950 . S
C871 C869 1.327 . S
C872 C860 1.349 . S
C872 H866 0.950 . S
C872 C873 1.327 . S
C873 H867 0.950 . S
C873 C872 1.327 . S
C873 C877 1.429 . S
C874 C857 1.574 . S
C874 H868 0.949 . S
C874 C878 1.368 . S
C875 C856 1.429 . S
C875 C869 1.429 . S
C875 C876 1.523 . S
C876 C857 1.368 . S
C876 C870 1.368 . S
C876 C875 1.523 . S
C877 C861 1.429 . S
C877 C873 1.429 . S
C877 C878 1.523 . S
C878 C862 1.368 . S
C878 C874 1.368 . S
C878 C877 1.523 . S
H879 C854 0.950 . S
H880 C856 0.950 . S
H881 C857 0.949 . S
H882 C859 0.950 . S
H883 C861 0.950 . S
C884 C885 1.349 . S
C884 C886 1.327 . S
C884 H909 0.950 . S
C885 C884 1.349 . S
C885 C901 1.349 . S
C886 C884 1.327 . S
C886 C905 1.429 . S
C886 H910 0.950 . S
C887 C904 1.574 . S
C887 C906 1.368 . S
C887 H911 0.949 . S
H888 C892 0.949 . S
C889 C890 1.349 . S
C889 C891 1.327 . S
C889 H912 0.950 . S
C890 C889 1.349 . S
C890 C902 1.349 . S
C891 C889 1.327 . S
C891 C907 1.429 . S
C891 H913 0.950 . S
C892 H888 0.949 . S
C892 C900 1.574 . S
C892 C908 1.368 . S
H893 C901 0.950 . S
H894 C899 0.950 . S
H895 C900 0.949 . S
H896 C902 0.950 . S
H897 C903 0.950 . S
H898 C904 0.949 . S
C899 H894 0.950 . S
C899 C901 1.327 . S
C899 C905 1.429 . S
C900 C892 1.574 . S
C900 H895 0.949 . S
C900 C906 1.368 . S
C901 C885 1.349 . S
C901 H893 0.950 . S
C901 C899 1.327 . S
C902 C890 1.349 . S
C902 H896 0.950 . S
C902 C903 1.327 . S
C903 H897 0.950 . S
C903 C902 1.327 . S
C903 C907 1.429 . S
C904 C887 1.574 . S
C904 H898 0.949 . S
C904 C908 1.368 . S
C905 C886 1.429 . S
C905 C899 1.429 . S
C905 C906 1.523 . S
C906 C887 1.368 . S
C906 C900 1.368 . S
C906 C905 1.523 . S
C907 C891 1.429 . S
C907 C903 1.429 . S
C907 C908 1.523 . S
C908 C892 1.368 . S
C908 C904 1.368 . S
C908 C907 1.523 . S
H909 C884 0.950 . S
H910 C886 0.950 . S
H911 C887 0.949 . S
H912 C889 0.950 . S
H913 C891 0.950 . S
C914 C915 1.349 . S
C914 C916 1.327 . S
C914 H939 0.950 . S
C915 C914 1.349 . S
C915 C931 1.349 . S
C916 C914 1.327 . S
C916 C935 1.429 . S
C916 H940 0.950 . S
C917 C934 1.574 . S
C917 C936 1.368 . S
C917 H941 0.949 . S
H918 C922 0.949 . S
C919 C920 1.349 . S
C919 C921 1.327 . S
C919 H942 0.950 . S
C920 C919 1.349 . S
C920 C932 1.349 . S
C921 C919 1.327 . S
C921 C937 1.429 . S
C921 H943 0.950 . S
C922 H918 0.949 . S
C922 C930 1.574 . S
C922 C938 1.368 . S
H923 C931 0.950 . S
H924 C929 0.950 . S
H925 C930 0.949 . S
H926 C932 0.950 . S
H927 C933 0.950 . S
H928 C934 0.949 . S
C929 H924 0.950 . S
C929 C931 1.327 . S
C929 C935 1.429 . S
C930 C922 1.574 . S
C930 H925 0.949 . S
C930 C936 1.368 . S
C931 C915 1.349 . S
C931 H923 0.950 . S
C931 C929 1.327 . S
C932 C920 1.349 . S
C932 H926 0.950 . S
C932 C933 1.327 . S
C933 H927 0.950 . S
C933 C932 1.327 . S
C933 C937 1.429 . S
C934 C917 1.574 . S
C934 H928 0.949 . S
C934 C938 1.368 . S
C935 C916 1.429 . S
C935 C929 1.429 . S
C935 C936 1.523 . S
C936 C917 1.368 . S
C936 C930 1.368 . S
C936 C935 1.523 . S
C937 C921 1.429 . S
C937 C933 1.429 . S
C937 C938 1.523 . S
C938 C922 1.368 . S
C938 C934 1.368 . S
C938 C937 1.523 . S
H939 C914 0.950 . S
H940 C916 0.950 . S
H941 C917 0.949 . S
H942 C919 0.950 . S
H943 C921 0.950 . S
C944 C945 1.349 . S
C944 C946 1.327 . S
C944 H969 0.950 . S
C945 C944 1.349 . S
C945 C961 1.349 1_545 S
C946 C944 1.327 . S
C946 C965 1.429 . S
C946 H970 0.950 . S
C947 C964 1.574 . S
C947 C966 1.368 1_565 S
C947 H971 0.949 . S
H948 C952 0.949 . S
C949 C950 1.349 . S
C949 C951 1.327 . S
C949 H972 0.950 . S
C950 C949 1.349 . S
C950 C962 1.349 1_565 S
C951 C949 1.327 . S
C951 C967 1.429 . S
C951 H973 0.950 . S
C952 H948 0.949 . S
C952 C960 1.574 . S
C952 C968 1.368 1_545 S
H953 C961 0.950 . S
H954 C959 0.950 . S
H955 C960 0.949 . S
H956 C962 0.950 . S
H957 C963 0.950 . S
H958 C964 0.949 . S
C959 H954 0.950 . S
C959 C961 1.327 . S
C959 C965 1.429 1_565 S
C960 C952 1.574 . S
C960 H955 0.949 . S
C960 C966 1.368 . S
C961 C945 1.349 1_565 S
C961 H953 0.950 . S
C961 C959 1.327 . S
C962 C950 1.349 1_545 S
C962 H956 0.950 . S
C962 C963 1.327 . S
C963 H957 0.950 . S
C963 C962 1.327 . S
C963 C967 1.429 1_545 S
C964 C947 1.574 . S
C964 H958 0.949 . S
C964 C968 1.368 . S
C965 C946 1.429 . S
C965 C959 1.429 1_545 S
C965 C966 1.523 . S
C966 C947 1.368 1_545 S
C966 C960 1.368 . S
C966 C965 1.523 . S
C967 C951 1.429 . S
C967 C963 1.429 1_565 S
C967 C968 1.523 . S
C968 C952 1.368 1_565 S
C968 C964 1.368 . S
C968 C967 1.523 . S
H969 C944 0.950 . S
H970 C946 0.950 . S
H971 C947 0.949 . S
H972 C949 0.950 . S
H973 C951 0.950 . S
C974 C975 1.349 . S
C974 C976 1.327 . S
C974 H999 0.950 . S
C975 C974 1.349 . S
C975 C991 1.349 1_545 S
C976 C974 1.327 . S
C976 C995 1.429 . S
C976 H1000 0.950 . S
C977 C994 1.574 . S
C977 C996 1.368 1_565 S
C977 H1001 0.949 . S
H978 C982 0.949 . S
C979 C980 1.349 . S
C979 C981 1.327 . S
C979 H1002 0.950 . S
C980 C979 1.349 . S
C980 C992 1.349 1_565 S
C981 C979 1.327 . S
C981 C997 1.429 . S
C981 H1003 0.950 . S
C982 H978 0.949 . S
C982 C990 1.574 . S
C982 C998 1.368 1_545 S
H983 C991 0.950 . S
H984 C989 0.950 . S
H985 C990 0.949 . S
H986 C992 0.950 . S
H987 C993 0.950 . S
H988 C994 0.949 . S
C989 H984 0.950 . S
C989 C991 1.327 . S
C989 C995 1.429 1_565 S
C990 C982 1.574 . S
C990 H985 0.949 . S
C990 C996 1.368 . S
C991 C975 1.349 1_565 S
C991 H983 0.950 . S
C991 C989 1.327 . S
C992 C980 1.349 1_545 S
C992 H986 0.950 . S
C992 C993 1.327 . S
C993 H987 0.950 . S
C993 C992 1.327 . S
C993 C997 1.429 1_545 S
C994 C977 1.574 . S
C994 H988 0.949 . S
C994 C998 1.368 . S
C995 C976 1.429 . S
C995 C989 1.429 1_545 S
C995 C996 1.523 . S
C996 C977 1.368 1_545 S
C996 C990 1.368 . S
C996 C995 1.523 . S
C997 C981 1.429 . S
C997 C993 1.429 1_565 S
C997 C998 1.523 . S
C998 C982 1.368 1_565 S
C998 C994 1.368 . S
C998 C997 1.523 . S
H999 C974 0.950 . S
H1000 C976 0.950 . S
H1001 C977 0.949 . S
H1002 C979 0.950 . S
H1003 C981 0.950 . S
C1004 C1005 1.349 . S
C1004 C1006 1.327 . S
C1004 H1029 0.950 . S
C1005 C1004 1.349 . S
C1005 C1021 1.349 1_545 S
C1006 C1004 1.327 . S
C1006 C1025 1.429 . S
C1006 H1030 0.950 . S
C1007 C1024 1.574 . S
C1007 C1026 1.368 1_565 S
C1007 H1031 0.949 . S
H1008 C1012 0.949 . S
C1009 C1010 1.349 . S
C1009 C1011 1.327 . S
C1009 H1032 0.950 . S
C1010 C1009 1.349 . S
C1010 C1022 1.349 1_565 S
C1011 C1009 1.327 . S
C1011 C1027 1.429 . S
C1011 H1033 0.950 . S
C1012 H1008 0.949 . S
C1012 C1020 1.574 . S
C1012 C1028 1.368 1_545 S
H1013 C1021 0.950 . S
H1014 C1019 0.950 . S
H1015 C1020 0.949 . S
H1016 C1022 0.950 . S
H1017 C1023 0.950 . S
H1018 C1024 0.949 . S
C1019 H1014 0.950 . S
C1019 C1021 1.327 . S
C1019 C1025 1.429 1_565 S
C1020 C1012 1.574 . S
C1020 H1015 0.949 . S
C1020 C1026 1.368 . S
C1021 C1005 1.349 1_565 S
C1021 H1013 0.950 . S
C1021 C1019 1.327 . S
C1022 C1010 1.349 1_545 S
C1022 H1016 0.950 . S
C1022 C1023 1.327 . S
C1023 H1017 0.950 . S
C1023 C1022 1.327 . S
C1023 C1027 1.429 1_545 S
C1024 C1007 1.574 . S
C1024 H1018 0.949 . S
C1024 C1028 1.368 . S
C1025 C1006 1.429 . S
C1025 C1019 1.429 1_545 S
C1025 C1026 1.523 . S
C1026 C1007 1.368 1_545 S
C1026 C1020 1.368 . S
C1026 C1025 1.523 . S
C1027 C1011 1.429 . S
C1027 C1023 1.429 1_565 S
C1027 C1028 1.523 . S
C1028 C1012 1.368 1_565 S
C1028 C1024 1.368 . S
C1028 C1027 1.523 . S
H1029 C1004 0.950 . S
H1030 C1006 0.950 . S
H1031 C1007 0.949 . S
H1032 C1009 0.950 . S
H1033 C1011 0.950 . S
C1034 C1035 1.349 . S
C1034 C1036 1.327 . S
C1034 H1059 0.950 . S
C1035 C1034 1.349 . S
C1035 C1051 1.349 1_565 S
C1036 C1034 1.327 . S
C1036 C1055 1.429 . S
C1036 H1060 0.950 . S
C1037 C1054 1.574 . S
C1037 C1056 1.368 1_545 S
C1037 H1061 0.949 . S
H1038 C1042 0.949 . S
C1039 C1040 1.349 . S
C1039 C1041 1.327 . S
C1039 H1062 0.950 . S
C1040 C1039 1.349 . S
C1040 C1052 1.349 1_545 S
C1041 C1039 1.327 . S
C1041 C1057 1.429 . S
C1041 H1063 0.950 . S
C1042 H1038 0.949 . S
C1042 C1050 1.574 . S
C1042 C1058 1.368 1_565 S
H1043 C1051 0.950 . S
H1044 C1049 0.950 . S
H1045 C1050 0.949 . S
H1046 C1052 0.950 . S
H1047 C1053 0.950 . S
H1048 C1054 0.949 . S
C1049 H1044 0.950 . S
C1049 C1051 1.327 . S
C1049 C1055 1.429 1_545 S
C1050 C1042 1.574 . S
C1050 H1045 0.949 . S
C1050 C1056 1.368 . S
C1051 C1035 1.349 1_545 S
C1051 H1043 0.950 . S
C1051 C1049 1.327 . S
C1052 C1040 1.349 1_565 S
C1052 H1046 0.950 . S
C1052 C1053 1.327 . S
C1053 H1047 0.950 . S
C1053 C1052 1.327 . S
C1053 C1057 1.429 1_565 S
C1054 C1037 1.574 . S
C1054 H1048 0.949 . S
C1054 C1058 1.368 . S
C1055 C1036 1.429 . S
C1055 C1049 1.429 1_565 S
C1055 C1056 1.523 . S
C1056 C1037 1.368 1_565 S
C1056 C1050 1.368 . S
C1056 C1055 1.523 . S
C1057 C1041 1.429 . S
C1057 C1053 1.429 1_545 S
C1057 C1058 1.523 . S
C1058 C1042 1.368 1_545 S
C1058 C1054 1.368 . S
C1058 C1057 1.523 . S
H1059 C1034 0.950 . S
H1060 C1036 0.950 . S
H1061 C1037 0.949 . S
H1062 C1039 0.950 . S
H1063 C1041 0.950 . S
C1064 C1065 1.349 . S
C1064 C1066 1.327 . S
C1064 H1089 0.950 . S
C1065 C1064 1.349 . S
C1065 C1081 1.349 . S
C1066 C1064 1.327 . S
C1066 C1085 1.429 . S
C1066 H1090 0.950 . S
C1067 C1084 1.574 . S
C1067 C1086 1.368 . S
C1067 H1091 0.949 . S
H1068 C1072 0.949 . S
C1069 C1070 1.349 . S
C1069 C1071 1.327 . S
C1069 H1092 0.950 . S
C1070 C1069 1.349 . S
C1070 C1082 1.349 . S
C1071 C1069 1.327 . S
C1071 C1087 1.429 . S
C1071 H1093 0.950 . S
C1072 H1068 0.949 . S
C1072 C1080 1.574 . S
C1072 C1088 1.368 . S
H1073 C1081 0.950 . S
H1074 C1079 0.950 . S
H1075 C1080 0.949 . S
H1076 C1082 0.950 . S
H1077 C1083 0.950 . S
H1078 C1084 0.949 . S
C1079 H1074 0.950 . S
C1079 C1081 1.327 . S
C1079 C1085 1.429 . S
C1080 C1072 1.574 . S
C1080 H1075 0.949 . S
C1080 C1086 1.368 . S
C1081 C1065 1.349 . S
C1081 H1073 0.950 . S
C1081 C1079 1.327 . S
C1082 C1070 1.349 . S
C1082 H1076 0.950 . S
C1082 C1083 1.327 . S
C1083 H1077 0.950 . S
C1083 C1082 1.327 . S
C1083 C1087 1.429 . S
C1084 C1067 1.574 . S
C1084 H1078 0.949 . S
C1084 C1088 1.368 . S
C1085 C1066 1.429 . S
C1085 C1079 1.429 . S
C1085 C1086 1.523 . S
C1086 C1067 1.368 . S
C1086 C1080 1.368 . S
C1086 C1085 1.523 . S
C1087 C1071 1.429 . S
C1087 C1083 1.429 . S
C1087 C1088 1.523 . S
C1088 C1072 1.368 . S
C1088 C1084 1.368 . S
C1088 C1087 1.523 . S
H1089 C1064 0.950 . S
H1090 C1066 0.950 . S
H1091 C1067 0.949 . S
H1092 C1069 0.950 . S
H1093 C1071 0.950 . S
C1094 C1095 1.349 . S
C1094 C1096 1.327 . S
C1094 H1119 0.950 . S
C1095 C1094 1.349 . S
C1095 C1111 1.349 . S
C1096 C1094 1.327 . S
C1096 C1115 1.429 . S
C1096 H1120 0.950 . S
C1097 C1114 1.574 . S
C1097 C1116 1.368 . S
C1097 H1121 0.949 . S
H1098 C1102 0.949 . S
C1099 C1100 1.349 . S
C1099 C1101 1.327 . S
C1099 H1122 0.950 . S
C1100 C1099 1.349 . S
C1100 C1112 1.349 . S
C1101 C1099 1.327 . S
C1101 C1117 1.429 . S
C1101 H1123 0.950 . S
C1102 H1098 0.949 . S
C1102 C1110 1.574 . S
C1102 C1118 1.368 . S
H1103 C1111 0.950 . S
H1104 C1109 0.950 . S
H1105 C1110 0.949 . S
H1106 C1112 0.950 . S
H1107 C1113 0.950 . S
H1108 C1114 0.949 . S
C1109 H1104 0.950 . S
C1109 C1111 1.327 . S
C1109 C1115 1.429 . S
C1110 C1102 1.574 . S
C1110 H1105 0.949 . S
C1110 C1116 1.368 . S
C1111 C1095 1.349 . S
C1111 H1103 0.950 . S
C1111 C1109 1.327 . S
C1112 C1100 1.349 . S
C1112 H1106 0.950 . S
C1112 C1113 1.327 . S
C1113 H1107 0.950 . S
C1113 C1112 1.327 . S
C1113 C1117 1.429 . S
C1114 C1097 1.574 . S
C1114 H1108 0.949 . S
C1114 C1118 1.368 . S
C1115 C1096 1.429 . S
C1115 C1109 1.429 . S
C1115 C1116 1.523 . S
C1116 C1097 1.368 . S
C1116 C1110 1.368 . S
C1116 C1115 1.523 . S
C1117 C1101 1.429 . S
C1117 C1113 1.429 . S
C1117 C1118 1.523 . S
C1118 C1102 1.368 . S
C1118 C1114 1.368 . S
C1118 C1117 1.523 . S
H1119 C1094 0.950 . S
H1120 C1096 0.950 . S
H1121 C1097 0.949 . S
H1122 C1099 0.950 . S
H1123 C1101 0.950 . S
C1124 C1125 1.349 . S
C1124 C1126 1.327 . S
C1124 H1149 0.950 . S
C1125 C1124 1.349 . S
C1125 C1141 1.349 . S
C1126 C1124 1.327 . S
C1126 C1145 1.429 . S
C1126 H1150 0.950 . S
C1127 C1144 1.574 . S
C1127 C1146 1.368 . S
C1127 H1151 0.949 . S
H1128 C1132 0.949 . S
C1129 C1130 1.349 . S
C1129 C1131 1.327 . S
C1129 H1152 0.950 . S
C1130 C1129 1.349 . S
C1130 C1142 1.349 . S
C1131 C1129 1.327 . S
C1131 C1147 1.429 . S
C1131 H1153 0.950 . S
C1132 H1128 0.949 . S
C1132 C1140 1.574 . S
C1132 C1148 1.368 . S
H1133 C1141 0.950 . S
H1134 C1139 0.950 . S
H1135 C1140 0.949 . S
H1136 C1142 0.950 . S
H1137 C1143 0.950 . S
H1138 C1144 0.949 . S
C1139 H1134 0.950 . S
C1139 C1141 1.327 . S
C1139 C1145 1.429 . S
C1140 C1132 1.574 . S
C1140 H1135 0.949 . S
C1140 C1146 1.368 . S
C1141 C1125 1.349 . S
C1141 H1133 0.950 . S
C1141 C1139 1.327 . S
C1142 C1130 1.349 . S
C1142 H1136 0.950 . S
C1142 C1143 1.327 . S
C1143 H1137 0.950 . S
C1143 C1142 1.327 . S
C1143 C1147 1.429 . S
C1144 C1127 1.574 . S
C1144 H1138 0.949 . S
C1144 C1148 1.368 . S
C1145 C1126 1.429 . S
C1145 C1139 1.429 . S
C1145 C1146 1.523 . S
C1146 C1127 1.368 . S
C1146 C1140 1.368 . S
C1146 C1145 1.523 . S
C1147 C1131 1.429 . S
C1147 C1143 1.429 . S
C1147 C1148 1.523 . S
C1148 C1132 1.368 . S
C1148 C1144 1.368 . S
C1148 C1147 1.523 . S
H1149 C1124 0.950 . S
H1150 C1126 0.950 . S
H1151 C1127 0.949 . S
H1152 C1129 0.950 . S
H1153 C1131 0.950 . S
C1154 C1155 1.349 . S
C1154 C1156 1.327 . S
C1154 H1179 0.950 . S
C1155 C1154 1.349 . S
C1155 C1171 1.349 . S
C1156 C1154 1.327 . S
C1156 C1175 1.429 . S
C1156 H1180 0.950 . S
C1157 C1174 1.574 . S
C1157 C1176 1.368 . S
C1157 H1181 0.949 . S
H1158 C1162 0.949 . S
C1159 C1160 1.349 . S
C1159 C1161 1.327 . S
C1159 H1182 0.950 . S
C1160 C1159 1.349 . S
C1160 C1172 1.349 . S
C1161 C1159 1.327 . S
C1161 C1177 1.429 . S
C1161 H1183 0.950 . S
C1162 H1158 0.949 . S
C1162 C1170 1.574 . S
C1162 C1178 1.368 . S
H1163 C1171 0.950 . S
H1164 C1169 0.950 . S
H1165 C1170 0.949 . S
H1166 C1172 0.950 . S
H1167 C1173 0.950 . S
H1168 C1174 0.949 . S
C1169 H1164 0.950 . S
C1169 C1171 1.327 . S
C1169 C1175 1.429 . S
C1170 C1162 1.574 . S
C1170 H1165 0.949 . S
C1170 C1176 1.368 . S
C1171 C1155 1.349 . S
C1171 H1163 0.950 . S
C1171 C1169 1.327 . S
C1172 C1160 1.349 . S
C1172 H1166 0.950 . S
C1172 C1173 1.327 . S
C1173 H1167 0.950 . S
C1173 C1172 1.327 . S
C1173 C1177 1.429 . S
C1174 C1157 1.574 . S
C1174 H1168 0.949 . S
C1174 C1178 1.368 . S
C1175 C1156 1.429 . S
C1175 C1169 1.429 . S
C1175 C1176 1.523 . S
C1176 C1157 1.368 . S
C1176 C1170 1.368 . S
C1176 C1175 1.523 . S
C1177 C1161 1.429 . S
C1177 C1173 1.429 . S
C1177 C1178 1.523 . S
C1178 C1162 1.368 . S
C1178 C1174 1.368 . S
C1178 C1177 1.523 . S
H1179 C1154 0.950 . S
H1180 C1156 0.950 . S
H1181 C1157 0.949 . S
H1182 C1159 0.950 . S
H1183 C1161 0.950 . S
C225 C9 1.105 . S
C230 C79 1.105 . S
C255 C65 1.105 . S
C260 C23 1.105 . S
C285 C37 1.105 . S
C290 C107 1.105 . S
C315 C93 1.105 . S
C320 C51 1.105 . S
C345 C191 1.105 . S
C350 C121 1.105 . S
C375 C177 1.105 . S
C380 C135 1.105 . S
C405 C219 1.105 . S
C410 C149 1.105 . S
C435 C163 1.105 . S
C440 C205 1.105 . S
C465 C19 1.505 . S
C470 C5 1.505 . S
C495 C33 1.505 . S
C500 C47 1.505 . S
C525 C61 1.505 . S
C530 C75 1.505 . S
C555 C89 1.505 . S
C560 C103 1.505 . S
C585 C117 1.505 . S
C590 C131 1.505 . S
C615 C159 1.505 . S
C620 C145 1.505 . S
C645 C187 1.505 . S
C650 C173 1.505 . S
C675 C201 1.505 . S
C680 C215 1.505 . S
C705 C137 1.522 . S
C710 C11 1.522 . S
C735 C25 1.522 . S
C740 C123 1.522 . S
C765 C165 1.522 . S
C770 C39 1.522 . S
C795 C53 1.522 . S
C800 C151 1.522 . S
C825 C67 1.522 . S
C830 C193 1.522 . S
C855 C179 1.522 . S
C860 C81 1.522 . S
C885 C95 1.522 . S
C890 C221 1.522 . S
C915 C207 1.522 . S
C920 C109 1.522 . S
C945 C0 1.132 . S
C950 C28 1.132 . S
C975 C42 1.132 . S
C980 C14 1.132 . S
C1005 C84 1.132 . S
C1010 C56 1.132 . S
C1035 C98 1.132 . S
C1040 C70 1.132 . S
C1065 C140 1.132 . S
C1070 C112 1.132 . S
C1095 C126 1.132 . S
C1100 C154 1.132 . S
C1125 C196 1.132 . S
C1130 C168 1.132 . S
C1155 C182 1.132 . S
C1160 C210 1.132 . S
