# Generated by pormake.
# Topology umj, (4)-cn, num edge types: 1
# Building blocks:
#     Node 0, Type 0, BuildingBlock: NAWXER_clean_sbu_0, # of connection points: 4
#     Node 1, Type 0, BuildingBlock: NAWXER_clean_sbu_0, # of connection points: 4
#     Node 2, Type 0, BuildingBlock: NAWXER_clean_sbu_0, # of connection points: 4
#     Node 3, Type 0, BuildingBlock: NAWXER_clean_sbu_0, # of connection points: 4
#     Node 4, Type 0, BuildingBlock: NAWXER_clean_sbu_0, # of connection points: 4
#     Node 5, Type 0, BuildingBlock: NAWXER_clean_sbu_0, # of connection points: 4
#     Node 6, Type 0, BuildingBlock: NAWXER_clean_sbu_0, # of connection points: 4
#     Node 7, Type 0, BuildingBlock: NAWXER_clean_sbu_0, # of connection points: 4
#     Node 8, Type 0, BuildingBlock: NAWXER_clean_sbu_0, # of connection points: 4
#     Node 9, Type 0, BuildingBlock: NAWXER_clean_sbu_0, # of connection points: 4
#     Node 10, Type 0, BuildingBlock: NAWXER_clean_sbu_0, # of connection points: 4
#     Node 11, Type 0, BuildingBlock: NAWXER_clean_sbu_0, # of connection points: 4
#     Edge 12, Type (0, 0), BuildingBlock: ZUJKAS_clean_linker_0, # of connection points: 2
#     Edge 13, Type (0, 0), BuildingBlock: ZUJKAS_clean_linker_0, # of connection points: 2
#     Edge 14, Type (0, 0), BuildingBlock: ZUJKAS_clean_linker_0, # of connection points: 2
#     Edge 15, Type (0, 0), BuildingBlock: ZUJKAS_clean_linker_0, # of connection points: 2
#     Edge 16, Type (0, 0), BuildingBlock: ZUJKAS_clean_linker_0, # of connection points: 2
#     Edge 17, Type (0, 0), BuildingBlock: ZUJKAS_clean_linker_0, # of connection points: 2
#     Edge 18, Type (0, 0), BuildingBlock: ZUJKAS_clean_linker_0, # of connection points: 2
#     Edge 19, Type (0, 0), BuildingBlock: ZUJKAS_clean_linker_0, # of connection points: 2
#     Edge 20, Type (0, 0), BuildingBlock: ZUJKAS_clean_linker_0, # of connection points: 2
#     Edge 21, Type (0, 0), BuildingBlock: ZUJKAS_clean_linker_0, # of connection points: 2
#     Edge 22, Type (0, 0), BuildingBlock: ZUJKAS_clean_linker_0, # of connection points: 2
#     Edge 23, Type (0, 0), BuildingBlock: ZUJKAS_clean_linker_0, # of connection points: 2
#     Edge 24, Type (0, 0), BuildingBlock: ZUJKAS_clean_linker_0, # of connection points: 2
#     Edge 25, Type (0, 0), BuildingBlock: ZUJKAS_clean_linker_0, # of connection points: 2
#     Edge 26, Type (0, 0), BuildingBlock: ZUJKAS_clean_linker_0, # of connection points: 2
#     Edge 27, Type (0, 0), BuildingBlock: ZUJKAS_clean_linker_0, # of connection points: 2
#     Edge 28, Type (0, 0), BuildingBlock: ZUJKAS_clean_linker_0, # of connection points: 2
#     Edge 29, Type (0, 0), BuildingBlock: ZUJKAS_clean_linker_0, # of connection points: 2
#     Edge 30, Type (0, 0), BuildingBlock: ZUJKAS_clean_linker_0, # of connection points: 2
#     Edge 31, Type (0, 0), BuildingBlock: ZUJKAS_clean_linker_0, # of connection points: 2
#     Edge 32, Type (0, 0), BuildingBlock: ZUJKAS_clean_linker_0, # of connection points: 2
#     Edge 33, Type (0, 0), BuildingBlock: ZUJKAS_clean_linker_0, # of connection points: 2
#     Edge 34, Type (0, 0), BuildingBlock: ZUJKAS_clean_linker_0, # of connection points: 2
#     Edge 35, Type (0, 0), BuildingBlock: ZUJKAS_clean_linker_0, # of connection points: 2
# Relax obj value: 0.019
# Max RMSD: 0.123
# Mean RMSD: 0.123
data_MOF--net-umj--node1-NAWXER_clean_sbu_0--edge1-ZUJKAS_clean_linker_0
_symmetry_space_group_name_H-M    P1
_symmetry_Int_Tables_number       1
_symmetry_cell_setting            triclinic
loop_
_symmetry_equiv_pos_as_xyz
'x, y, z'
_cell_length_a     38.514342
_cell_length_b     38.525845
_cell_length_c     111.04998
_cell_angle_alpha  89.984345
_cell_angle_beta   89.993683
_cell_angle_gamma 120.00472
loop_
_atom_site_label
_atom_site_type_symbol
_atom_site_fract_x
_atom_site_fract_y
_atom_site_fract_z
_atom_type_partial_charge
C0 C 0.04731 0.27536 0.11103 0.0
C1 C 0.08872 0.29649 0.06868 0.0
O2 O 0.08306 0.29316 0.10703 0.0
Zn3 Zn 0.06994 0.28683 0.08995 0.0
O4 O 0.01797 0.26088 0.10359 0.0
Zn5 Zn 0.008 0.25612 0.08465 0.0
O6 O 0.98032 0.19841 0.08214 0.0
O7 O 0.04382 0.22377 0.08726 0.0
O8 O 0.05063 0.27752 0.07024 0.0
O9 O 0.11187 0.30779 0.0778 0.0
O10 O 0.0442 0.32414 0.08738 0.0
O11 O 0.98065 0.28647 0.08223 0.0
C12 C 0.01003 0.19351 0.08432 0.0
C13 C 0.01053 0.32093 0.08445 0.0
C14 C 0.79211 0.08664 0.4019 0.0
C15 C 0.77243 0.04347 0.44407 0.0
O16 O 0.80311 0.10929 0.41112 0.0
Zn17 Zn 0.78336 0.06677 0.42313 0.0
O18 O 0.77409 0.04854 0.4033 0.0
Zn19 Zn 0.75369 0.00535 0.41745 0.0
O20 O 0.69622 0.97693 0.41464 0.0
O21 O 0.7198 0.03908 0.42101 0.0
O22 O 0.75805 0.01434 0.43653 0.0
O23 O 0.79011 0.07935 0.44018 0.0
O24 O 0.82178 0.0423 0.42029 0.0
O25 O 0.78492 0.97905 0.41479 0.0
C26 C 0.69023 0.00533 0.4177 0.0
C27 C 0.81915 0.00906 0.41715 0.0
C28 C 0.72782 0.77587 0.77804 0.0
C29 C 0.70908 0.80069 0.73593 0.0
O30 O 0.70943 0.79339 0.77418 0.0
Zn31 Zn 0.71714 0.78877 0.75706 0.0
O32 O 0.74341 0.76248 0.77048 0.0
Zn33 Zn 0.7494 0.75952 0.75149 0.0
O34 O 0.80704 0.79037 0.74936 0.0
O35 O 0.78058 0.82727 0.75481 0.0
O36 O 0.72904 0.78249 0.73728 0.0
O37 O 0.6956 0.80985 0.74512 0.0
O38 O 0.68109 0.72594 0.75389 0.0
O39 O 0.72024 0.70213 0.74843 0.0
C40 C 0.81134 0.82453 0.75188 0.0
C41 C 0.68533 0.69636 0.75064 0.0
C42 C 0.99165 0.68421 0.08494 0.0
C43 C 0.99064 0.81082 0.08479 0.0
O44 O 0.02122 0.71883 0.08268 0.0
Zn45 Zn 0.99326 0.74852 0.08508 0.0
O46 O 0.95778 0.68053 0.08787 0.0
Zn47 Zn 0.93134 0.71734 0.0904 0.0
O48 O 0.88943 0.69604 0.07819 0.0
O49 O 0.95075 0.7265 0.07069 0.0
O50 O 0.95698 0.78043 0.08777 0.0
O51 O 0.0204 0.8061 0.08251 0.0
O52 O 0.98334 0.7437 0.10401 0.0
O53 O 0.91827 0.71077 0.1075 0.0
C54 C 0.91269 0.70724 0.0691 0.0
C55 C 0.95405 0.72892 0.11147 0.0
C56 C 0.18462 0.99338 0.41723 0.0
C57 C 0.31277 0.99555 0.41766 0.0
O58 O 0.21895 0.023 0.41473 0.0
Zn59 Zn 0.24965 0.99621 0.41744 0.0
O60 O 0.18161 0.96002 0.42045 0.0
Zn61 Zn 0.21956 0.93495 0.42325 0.0
O62 O 0.21295 0.92266 0.44032 0.0
O63 O 0.24532 0.98761 0.43655 0.0
O64 O 0.28304 0.962 0.42105 0.0
O65 O 0.30706 0.0241 0.41456 0.0
O66 O 0.22862 0.95276 0.40337 0.0
O67 O 0.19923 0.89217 0.41132 0.0
C68 C 0.23081 0.95861 0.44414 0.0
C69 C 0.21024 0.91463 0.40205 0.0
C70 C 0.29799 0.20909 0.73549 0.0
C71 C 0.27783 0.23056 0.77781 0.0
O72 O 0.30924 0.19727 0.74462 0.0
Zn73 Zn 0.28894 0.21896 0.75675 0.0
O74 O 0.27946 0.22864 0.73701 0.0
Zn75 Zn 0.25879 0.25065 0.7514 0.0
O76 O 0.28967 0.30827 0.74889 0.0
O77 O 0.32687 0.28195 0.7541 0.0
O78 O 0.26357 0.24558 0.77035 0.0
O79 O 0.29533 0.21229 0.77383 0.0
O80 O 0.22567 0.18257 0.75419 0.0
O81 O 0.20101 0.22123 0.74897 0.0
C82 C 0.32401 0.31256 0.75113 0.0
C83 C 0.19563 0.1865 0.75126 0.0
C84 C 0.68378 0.98895 0.59748 0.0
C85 C 0.80954 0.98615 0.59655 0.0
O86 O 0.71876 0.01807 0.59963 0.0
Zn87 Zn 0.74767 0.9894 0.59686 0.0
O88 O 0.67935 0.95484 0.5945 0.0
Zn89 Zn 0.71517 0.92754 0.59173 0.0
O90 O 0.69375 0.88592 0.60396 0.0
O91 O 0.7274 0.94724 0.6114 0.0
O92 O 0.77864 0.95248 0.59385 0.0
O93 O 0.80541 0.01624 0.59885 0.0
O94 O 0.7411 0.97887 0.57792 0.0
O95 O 0.70704 0.91367 0.57473 0.0
C96 C 0.70735 0.9092 0.61301 0.0
C97 C 0.72529 0.94924 0.5706 0.0
C98 C 0.79583 0.70694 0.9468 0.0
C99 C 0.77348 0.72496 0.90436 0.0
O100 O 0.80721 0.69496 0.93773 0.0
Zn101 Zn 0.78585 0.7152 0.92548 0.0
O102 O 0.77677 0.72593 0.94515 0.0
Zn103 Zn 0.75503 0.74642 0.93066 0.0
O104 O 0.69743 0.71646 0.93334 0.0
O105 O 0.72286 0.67827 0.92834 0.0
O106 O 0.7591 0.74007 0.91174 0.0
O107 O 0.7917 0.70751 0.90842 0.0
O108 O 0.82308 0.77847 0.92767 0.0
O109 O 0.78534 0.80428 0.93277 0.0
C110 C 0.69261 0.68181 0.93129 0.0
C111 C 0.8198 0.80899 0.93045 0.0
C112 C 0.09059 0.79319 0.28028 0.0
C113 C 0.05012 0.77276 0.23783 0.0
O114 O 0.11399 0.80505 0.27121 0.0
Zn115 Zn 0.07235 0.78432 0.25895 0.0
O116 O 0.05255 0.77437 0.27863 0.0
Zn117 Zn 0.01032 0.75361 0.26414 0.0
O118 O 0.98235 0.69597 0.26662 0.0
O119 O 0.0459 0.7211 0.26157 0.0
O120 O 0.02067 0.75827 0.24523 0.0
O121 O 0.08582 0.7907 0.24187 0.0
O122 O 0.04664 0.82177 0.26135 0.0
O123 O 0.98306 0.78414 0.26646 0.0
C124 C 0.01198 0.69091 0.26446 0.0
C125 C 0.01291 0.81858 0.26419 0.0
C126 C 0.29728 0.08997 0.61333 0.0
C127 C 0.27908 0.05179 0.57073 0.0
O128 O 0.30886 0.11372 0.60436 0.0
Zn129 Zn 0.28892 0.07267 0.59195 0.0
O130 O 0.27866 0.05201 0.61154 0.0
Zn131 Zn 0.25838 0.01051 0.59684 0.0
O132 O 0.28873 0.98321 0.59922 0.0
O133 O 0.32656 0.04713 0.5945 0.0
O134 O 0.2643 0.02187 0.57796 0.0
O135 O 0.29635 0.08719 0.57497 0.0
O136 O 0.22548 0.04584 0.59426 0.0
O137 O 0.20058 0.98215 0.59904 0.0
C138 C 0.32328 0.0133 0.59724 0.0
C139 C 0.1953 0.01166 0.59694 0.0
C140 C 0.22779 0.27568 0.90424 0.0
C141 C 0.20719 0.2961 0.94662 0.0
O142 O 0.2099 0.2935 0.90825 0.0
Zn143 Zn 0.21617 0.28651 0.92533 0.0
O144 O 0.24223 0.26073 0.91166 0.0
Zn145 Zn 0.2468 0.25523 0.93059 0.0
O146 O 0.21635 0.19757 0.93299 0.0
O147 O 0.17862 0.22336 0.92784 0.0
O148 O 0.22597 0.27683 0.94502 0.0
O149 O 0.19544 0.30761 0.93753 0.0
O150 O 0.27942 0.32327 0.92794 0.0
O151 O 0.30439 0.28483 0.93311 0.0
C152 C 0.18187 0.1929 0.93074 0.0
C153 C 0.30955 0.31951 0.93089 0.0
C154 C 0.95154 0.22428 0.23746 0.0
C155 C 0.91147 0.20495 0.27993 0.0
O156 O 0.9159 0.20634 0.24155 0.0
Zn157 Zn 0.92956 0.21329 0.2586 0.0
O158 O 0.98109 0.23916 0.24483 0.0
Zn159 Zn 0.99163 0.24457 0.26373 0.0
O160 O 0.01929 0.21454 0.2662 0.0
O161 O 0.95572 0.17628 0.26118 0.0
O162 O 0.9495 0.22395 0.27826 0.0
O163 O 0.88802 0.19271 0.27089 0.0
O164 O 0.95557 0.27651 0.26102 0.0
O165 O 0.01924 0.30232 0.26603 0.0
C166 C 0.98962 0.17989 0.26405 0.0
C167 C 0.98938 0.30698 0.26383 0.0
H168 H 0.02463 0.26037 0.22655 0.0
H169 H 0.03956 0.26873 0.2051 0.0
H170 H 0.91311 0.20629 0.19703 0.0
H171 H 0.89766 0.19808 0.21865 0.0
H172 H 0.01783 0.20993 0.18751 0.0
H173 H 0.95682 0.31052 0.17747 0.0
H174 H 0.96634 0.30054 0.19263 0.0
H175 H 0.92242 0.26414 0.18473 0.0
C176 C 0.99983 0.24843 0.22026 0.0
C177 C 0.95986 0.22865 0.22434 0.0
C178 C 0.00851 0.25324 0.20798 0.0
C179 C 0.97751 0.23858 0.19948 0.0
C180 C 0.93751 0.21846 0.20346 0.0
H181 H 0.97395 0.23929 0.12179 0.0
H182 H 0.95855 0.23067 0.14322 0.0
C183 C 0.92872 0.2136 0.21581 0.0
C184 C 0.98752 0.24403 0.18647 0.0
H185 H 0.97989 0.28902 0.1609 0.0
C186 C 0.00961 0.22727 0.18169 0.0
C187 C 0.97688 0.2668 0.17892 0.0
C188 C 0.95461 0.28687 0.18368 0.0
C189 C 0.02082 0.23212 0.1695 0.0
C190 C 0.01023 0.25494 0.16195 0.0
C191 C 0.98809 0.27166 0.16673 0.0
C192 C 0.02047 0.26059 0.14896 0.0
C193 C 0.04309 0.21204 0.16474 0.0
C194 C 0.06056 0.28067 0.14505 0.0
C195 C 0.06961 0.28566 0.13272 0.0
C196 C 0.03867 0.27079 0.12413 0.0
C197 C 0.99861 0.25107 0.12813 0.0
C198 C 0.98966 0.24613 0.1404 0.0
H199 H 0.04066 0.18823 0.17092 0.0
H200 H 0.03153 0.19857 0.15576 0.0
H201 H 0.07532 0.23472 0.16377 0.0
H202 H 0.08482 0.2927 0.15153 0.0
H203 H 0.10074 0.30114 0.12994 0.0
H204 H 0.73582 0.96989 0.45473 0.0
H205 H 0.7272 0.95426 0.47617 0.0
H206 H 0.79024 0.08042 0.48458 0.0
H207 H 0.79865 0.09654 0.46303 0.0
H208 H 0.78552 0.97486 0.49377 0.0
H209 H 0.68643 0.03728 0.50416 0.0
H210 H 0.69641 0.02818 0.48895 0.0
H211 H 0.73292 0.07176 0.49697 0.0
C212 C 0.74781 0.99446 0.46111 0.0
C213 C 0.76781 0.03455 0.45714 0.0
C214 C 0.74286 0.98539 0.47337 0.0
C215 C 0.7576 0.01612 0.48196 0.0
C216 C 0.77796 0.05623 0.47809 0.0
H217 H 0.76154 0.02209 0.55953 0.0
H218 H 0.76869 0.03644 0.53803 0.0
C219 C 0.78294 0.06539 0.46577 0.0
C220 C 0.75212 0.00586 0.49495 0.0
H221 H 0.70882 0.01484 0.52071 0.0
C222 C 0.76864 0.98346 0.49966 0.0
C223 C 0.72996 0.01702 0.5026 0.0
C224 C 0.71007 0.03958 0.49793 0.0
C225 C 0.76429 0.97258 0.51187 0.0
C226 C 0.74224 0.98385 0.51952 0.0
C227 C 0.72562 0.00615 0.51481 0.0
C228 C 0.73741 0.97425 0.53256 0.0
C229 C 0.78417 0.95003 0.51655 0.0
C230 C 0.71704 0.93438 0.53664 0.0
C231 C 0.71288 0.92594 0.54901 0.0
C232 C 0.72891 0.95729 0.55747 0.0
C233 C 0.74889 0.99714 0.55329 0.0
C234 C 0.753 0.00548 0.54098 0.0
H235 H 0.80732 0.95169 0.51023 0.0
H236 H 0.79843 0.96196 0.52543 0.0
H237 H 0.76119 0.91799 0.51774 0.0
H238 H 0.70416 0.90982 0.53027 0.0
H239 H 0.69717 0.89496 0.55192 0.0
H240 H 0.6987 0.79929 0.79715 0.0
H241 H 0.70674 0.79046 0.81869 0.0
H242 H 0.77342 0.73137 0.80987 0.0
H243 H 0.76601 0.74027 0.78851 0.0
H244 H 0.68261 0.7178 0.83149 0.0
H245 H 0.84747 0.81899 0.83357 0.0
H246 H 0.81741 0.81965 0.82119 0.0
H247 H 0.83128 0.78155 0.82199 0.0
C248 C 0.71519 0.78456 0.79981 0.0
C249 C 0.73189 0.77072 0.7911 0.0
C250 C 0.71973 0.77952 0.8121 0.0
C251 C 0.74127 0.76087 0.81586 0.0
C252 C 0.75745 0.7466 0.80718 0.0
H253 H 0.80186 0.69964 0.88551 0.0
H254 H 0.79299 0.70637 0.86388 0.0
C255 C 0.75294 0.75156 0.79495 0.0
C256 C 0.74618 0.75533 0.82883 0.0
H257 H 0.81671 0.77807 0.85071 0.0
C258 C 0.71188 0.73116 0.83572 0.0
C259 C 0.78447 0.77254 0.83429 0.0
C260 C 0.82227 0.79993 0.82742 0.0
C261 C 0.71486 0.72327 0.84791 0.0
C262 C 0.75314 0.74057 0.85338 0.0
C263 C 0.78745 0.76465 0.84647 0.0
C264 C 0.75805 0.73567 0.8664 0.0
C265 C 0.67706 0.69591 0.85478 0.0
C266 C 0.74183 0.75038 0.87492 0.0
C267 C 0.74683 0.74664 0.88719 0.0
C268 C 0.76842 0.72828 0.89125 0.0
C269 C 0.78496 0.71378 0.88269 0.0
C270 C 0.77995 0.71763 0.87035 0.0
H271 H 0.65201 0.6765 0.84863 0.0
H272 H 0.68202 0.67655 0.86113 0.0
H273 H 0.66777 0.71433 0.86007 0.0
H274 H 0.72558 0.76518 0.87207 0.0
H275 H 0.73382 0.75837 0.89351 0.0
H276 H 0.90094 0.69981 0.13048 0.0
H277 H 0.91725 0.70786 0.15206 0.0
H278 H 0.04324 0.77544 0.14352 0.0
H279 H 0.02749 0.76801 0.12213 0.0
H280 H 0.96589 0.68385 0.16486 0.0
H281 H 0.02865 0.84844 0.16736 0.0
H282 H 0.99827 0.81865 0.15489 0.0
H283 H 0.05034 0.83288 0.15573 0.0
C284 C 0.93208 0.71656 0.13321 0.0
C285 C 0.96285 0.73341 0.12456 0.0
C286 C 0.94134 0.72109 0.14552 0.0
C287 C 0.98144 0.74282 0.14937 0.0
C288 C 0.01209 0.75931 0.14076 0.0
H289 H 0.10362 0.80173 0.21892 0.0
H290 H 0.08775 0.7935 0.1973 0.0
C291 C 0.00294 0.75478 0.12851 0.0
C292 C 0.99165 0.74744 0.16236 0.0
H293 H 0.0393 0.81746 0.18437 0.0
C294 C 0.98168 0.71301 0.16916 0.0
C295 C 0.01258 0.78558 0.1679 0.0
C296 C 0.02281 0.8235 0.16114 0.0
C297 C 0.99264 0.71573 0.18133 0.0
C298 C 0.01353 0.75387 0.18688 0.0
C299 C 0.02354 0.7883 0.18007 0.0
C300 C 0.02351 0.75848 0.19988 0.0
C301 C 0.9824 0.67781 0.1881 0.0
C302 C 0.99269 0.74201 0.20844 0.0
C303 C 1.00159 0.74665 0.22071 0.0
C304 C 0.0416 0.76812 0.22472 0.0
C305 C 0.07255 0.78492 0.21613 0.0
C306 C 0.06353 0.78028 0.20379 0.0
H307 H 0.97671 0.65292 0.18188 0.0
H308 H 0.00688 0.6827 0.19438 0.0
H309 H 0.95478 0.66835 0.19346 0.0
H310 H 0.9616 0.72582 0.20563 0.0
H311 H 0.97692 0.73344 0.22704 0.0
H312 H 0.2446 0.97935 0.55946 0.0
H313 H 0.23771 0.96565 0.53794 0.0
H314 H 0.29733 0.09243 0.53049 0.0
H315 H 0.3049 0.10666 0.55218 0.0
H316 H 0.19788 0.98632 0.52101 0.0
H317 H 0.35953 0.05337 0.50979 0.0
H318 H 0.3411 0.04247 0.52507 0.0
H319 H 0.34627 0.08607 0.51753 0.0
C320 C 0.25647 0.00449 0.55329 0.0
C321 C 0.27546 0.04419 0.55757 0.0
C322 C 0.25242 0.99651 0.54097 0.0
C323 C 0.26737 0.02797 0.53262 0.0
C324 C 0.2862 0.0677 0.5368 0.0
H325 H 0.26657 0.03234 0.4547 0.0
H326 H 0.27424 0.04825 0.47612 0.0
C327 C 0.29032 0.07578 0.54919 0.0
C328 C 0.26226 0.01868 0.51956 0.0
H329 H 0.31382 0.0293 0.49352 0.0
C330 C 0.22321 0.99568 0.51499 0.0
C331 C 0.29537 0.03086 0.51175 0.0
C332 C 0.33798 0.05427 0.51626 0.0
C333 C 0.21633 0.9849 0.50278 0.0
C334 C 0.24944 0.99687 0.49498 0.0
C335 C 0.2885 0.02006 0.49954 0.0
C336 C 0.24425 0.98648 0.482 0.0
C337 C 0.1737 0.96149 0.49829 0.0
C338 C 0.22509 0.94634 0.47818 0.0
C339 C 0.2205 0.93702 0.46588 0.0
C340 C 0.23525 0.96773 0.4572 0.0
C341 C 0.25474 0.00787 0.46111 0.0
C342 C 0.25924 0.0171 0.47336 0.0
H343 H 0.15234 0.96331 0.50463 0.0
H344 H 0.1707 0.97256 0.48934 0.0
H345 H 0.16501 0.92948 0.49736 0.0
H346 H 0.21396 0.92224 0.48471 0.0
H347 H 0.20558 0.90584 0.46318 0.0
H348 H 0.30346 0.20291 0.79677 0.0
H349 H 0.29439 0.20997 0.81835 0.0
H350 H 0.23348 0.27518 0.80992 0.0
H351 H 0.24192 0.26805 0.78851 0.0
H352 H 0.32068 0.28165 0.83185 0.0
H353 H 0.15488 0.1868 0.83265 0.0
H354 H 0.18503 0.18585 0.82034 0.0
H355 H 0.1735 0.22556 0.82143 0.0
C356 C 0.28802 0.21861 0.79952 0.0
C357 C 0.27323 0.23468 0.7909 0.0
C358 C 0.28288 0.22263 0.81184 0.0
C359 C 0.26263 0.24248 0.81571 0.0
C360 C 0.24839 0.25898 0.80713 0.0
H361 H 0.20203 0.30337 0.88532 0.0
H362 H 0.21139 0.29679 0.86372 0.0
C363 C 0.2535 0.25504 0.79487 0.0
C364 C 0.2571 0.24701 0.82871 0.0
H365 H 0.18556 0.22564 0.85016 0.0
C366 C 0.29117 0.26919 0.83589 0.0
C367 C 0.21853 0.23097 0.83391 0.0
C368 C 0.18086 0.20565 0.82672 0.0
C369 C 0.28772 0.27634 0.84811 0.0
C370 C 0.24915 0.26028 0.85331 0.0
C371 C 0.21507 0.23812 0.84613 0.0
C372 C 0.24359 0.26468 0.86632 0.0
C373 C 0.32539 0.30168 0.85528 0.0
C374 C 0.25799 0.24827 0.87488 0.0
C375 C 0.25273 0.25195 0.88714 0.0
C376 C 0.23266 0.27193 0.89114 0.0
C377 C 0.21773 0.28795 0.88254 0.0
C378 C 0.22304 0.2842 0.87021 0.0
H379 H 0.3513 0.32069 0.84935 0.0
H380 H 0.32117 0.32134 0.86171 0.0
H381 H 0.3329 0.28178 0.86052 0.0
H382 H 0.27312 0.2323 0.87207 0.0
H383 H 0.26442 0.23898 0.89348 0.0
H384 H 0.04586 0.27852 0.04788 0.0
H385 H 0.07036 0.28566 0.02731 0.0
H386 H 0.19164 0.33784 0.04037 0.0
H387 H 0.16735 0.33086 0.06121 0.0
H388 H 0.17509 0.37662 0.01847 0.0
H389 H 0.11692 0.21253 0.01519 0.0
H390 H 0.0824 0.2271 0.02093 0.0
H391 H 0.12641 0.23829 0.02945 0.0
C392 C 0.07783 0.29178 0.04645 0.0
C393 C 0.10465 0.30377 0.05623 0.0
C394 C 0.09172 0.29586 0.03466 0.0
C395 C 0.13266 0.31194 0.03237 0.0
C396 C 0.15986 0.32532 0.04201 0.0
H397 H 0.23438 0.2802 0.96729 0.0
H398 H 0.21854 0.28825 0.98793 0.0
C399 C 0.14595 0.32121 0.05389 0.0
C400 C 0.14631 0.3124 0.0199 0.0
H401 H 0.14052 0.25006 0.99722 0.0
C402 C 0.1678 0.34907 0.01381 0.0
C403 C 0.13674 0.27634 0.01392 0.0
C404 C 0.11461 0.23627 0.02019 0.0
C405 C 0.17954 0.35048 1.00174 0.0
C406 C 0.16919 0.31428 0.99568 0.0
C407 C 0.14814 0.27774 1.00187 0.0
C408 C 0.18122 0.3133 0.98308 0.0
C409 C 0.20335 0.39056 0.9956 0.0
C410 C 0.16566 0.32503 0.97347 0.0
C411 C 0.17465 0.32041 0.96154 0.0
C412 C 0.19913 0.30376 0.9591 0.0
C413 C 0.21525 0.29292 0.96881 0.0
C414 C 0.20631 0.29757 0.98064 0.0
H415 H 0.21571 0.41572 1.00215 0.0
H416 H 0.22847 0.3918 0.99033 0.0
H417 H 0.18358 0.39486 0.98924 0.0
H418 H 0.14569 0.33666 0.97517 0.0
H419 H 0.16173 0.32897 0.95427 0.0
H420 H 0.76659 0.04473 0.38098 0.0
H421 H 0.78437 0.06991 0.36049 0.0
H422 H 0.85452 0.19053 0.37393 0.0
H423 H 0.8368 0.16554 0.39471 0.0
H424 H 0.79945 0.1749 0.35181 0.0
H425 H 0.90475 0.11589 0.34875 0.0
H426 H 0.85549 0.08159 0.35442 0.0
H427 H 0.88835 0.12547 0.36297 0.0
C428 C 0.7856 0.07671 0.37965 0.0
C429 C 0.80065 0.10312 0.38952 0.0
C430 C 0.79563 0.09099 0.36791 0.0
C431 C 0.82096 0.13192 0.36574 0.0
C432 C 0.8349 0.15876 0.37548 0.0
H433 H 0.95499 0.23226 0.30053 0.0
H434 H 0.93136 0.21713 0.32122 0.0
C435 C 0.82484 0.14445 0.38731 0.0
C436 C 0.8346 0.14583 0.35332 0.0
H437 H 0.89121 0.13959 0.33073 0.0
C438 C 0.81969 0.16749 0.34719 0.0
C439 C 0.86106 0.13609 0.34739 0.0
C440 C 0.87868 0.11374 0.35371 0.0
C441 C 0.8302 0.17916 0.33512 0.0
C442 C 0.85593 0.16854 0.32911 0.0
C443 C 0.87123 0.14741 0.33534 0.0
C444 C 0.86885 0.18018 0.31648 0.0
C445 C 0.81418 0.2031 0.32893 0.0
C446 C 0.84139 0.16454 0.3069 0.0
C447 C 0.85484 0.17311 0.29495 0.0
C448 C 0.89598 0.19724 0.29244 0.0
C449 C 0.92311 0.2134 0.3021 0.0
C450 C 0.9097 0.20489 0.31397 0.0
H451 H 0.80169 0.21584 0.33547 0.0
H452 H 0.83811 0.22795 0.3236 0.0
H453 H 0.78991 0.18332 0.32264 0.0
H454 H 0.80977 0.14485 0.30866 0.0
H455 H 0.83322 0.16016 0.28772 0.0
H456 H 0.75456 0.81011 0.71629 0.0
H457 H 0.74411 0.82446 0.6957 0.0
H458 H 0.63768 0.82641 0.70679 0.0
H459 H 0.64912 0.81363 0.72769 0.0
H460 H 0.68506 0.78214 0.6807 0.0
H461 H 0.69432 0.92912 0.68827 0.0
H462 H 0.70755 0.9047 0.69975 0.0
H463 H 0.65573 0.88838 0.69673 0.0
C464 C 0.72904 0.81386 0.71438 0.0
C465 C 0.7027 0.81088 0.7236 0.0
C466 C 0.72303 0.82196 0.70259 0.0
C467 C 0.69028 0.82683 0.69967 0.0
C468 C 0.66367 0.82366 0.70885 0.0
H469 H 0.64877 0.83591 0.62146 0.0
H470 H 0.63783 0.81245 0.64243 0.0
C471 C 0.67011 0.81622 0.72077 0.0
C472 C 0.68452 0.83479 0.68694 0.0
H473 H 0.68204 0.90431 0.66845 0.0
C474 C 0.68416 0.80876 0.67801 0.0
C475 C 0.68345 0.86957 0.68345 0.0
C476 C 0.68562 0.89977 0.69252 0.0
C477 C 0.6847 0.81742 0.66571 0.0
C478 C 0.68402 0.8524 0.66221 0.0
C479 C 0.68246 0.87745 0.67114 0.0
C480 C 0.68916 0.86595 0.64948 0.0
C481 C 0.68833 0.79021 0.65664 0.0
C482 C 0.72092 0.90411 0.6465 0.0
C483 C 0.72665 0.91777 0.63465 0.0
C484 C 0.701 0.89344 0.62544 0.0
C485 C 0.66926 0.8551 0.62836 0.0
C486 C 0.66309 0.84163 0.64032 0.0
H487 H 0.69831 0.77055 0.6609 0.0
H488 H 0.65864 0.77065 0.65245 0.0
H489 H 0.70991 0.80783 0.6494 0.0
H490 H 0.74155 0.92338 0.65336 0.0
H491 H 0.7515 0.94741 0.6327 0.0
H492 H 0.83468 0.6765 0.06137 0.0
H493 H 0.81131 0.66885 0.04042 0.0
H494 H 0.93205 0.71232 0.02783 0.0
H495 H 0.95559 0.72035 0.04851 0.0
H496 H 0.89547 0.75293 0.01823 0.0
H497 H 0.79859 0.58773 0.01375 0.0
H498 H 0.78838 0.61007 0.02649 0.0
H499 H 0.83523 0.61069 0.02562 0.0
C500 C 0.85609 0.68393 0.05412 0.0
C501 C 0.89701 0.69928 0.05662 0.0
C502 C 0.84268 0.67935 0.04217 0.0
C503 C 0.86996 0.68975 0.03259 0.0
C504 C 0.91052 0.70405 0.03509 0.0
H505 H 0.83797 0.67048 0.95443 0.0
H506 H 0.85505 0.66357 0.9753 0.0
C507 C 0.92389 0.7087 0.04695 0.0
C508 C 0.85735 0.68902 0.01995 0.0
H509 H 0.79916 0.62741 0.99728 0.0
C510 C 0.87447 0.72546 0.01365 0.0
C511 C 0.83027 0.65309 0.01398 0.0
C512 C 0.8122 0.61305 0.02024 0.0
C513 C 0.86489 0.72705 1.00157 0.0
C514 C 0.83717 0.69131 0.99567 0.0
C515 C 0.82037 0.65472 1.00188 0.0
C516 C 0.82432 0.69211 0.98318 0.0
C517 C 0.88456 0.76698 0.99517 0.0
C518 C 0.8009 0.70976 0.98081 0.0
C519 C 0.79121 0.71379 0.969 0.0
C520 C 0.80473 0.70021 0.95928 0.0
C521 C 0.82725 0.68139 0.9617 0.0
C522 C 0.83691 0.6773 0.9736 0.0
H523 H 0.91116 0.79008 1.00014 0.0
H524 H 0.89398 0.76406 0.98595 0.0
H525 H 0.86269 0.77763 0.99433 0.0
H526 H 0.79071 0.7211 0.98811 0.0
H527 H 0.77357 0.72818 0.96751 0.0
H528 H 0.16876 0.83897 0.28803 0.0
H529 H 0.19218 0.85479 0.30896 0.0
H530 H 0.07085 0.78096 0.32157 0.0
H531 H 0.04726 0.76536 0.3009 0.0
H532 H 0.1095 0.85825 0.33102 0.0
H533 H 0.20227 0.78554 0.33586 0.0
H534 H 0.21356 0.81797 0.32303 0.0
H535 H 0.16586 0.77269 0.32395 0.0
C536 C 0.1472 0.82578 0.29527 0.0
C537 C 0.10613 0.80111 0.29278 0.0
C538 C 0.16064 0.83464 0.30722 0.0
C539 C 0.13324 0.81874 0.3168 0.0
C540 C 0.09248 0.79345 0.31431 0.0
H541 H 0.1663 0.83548 0.39503 0.0
H542 H 0.1484 0.8099 0.37433 0.0
C543 C 0.07908 0.78466 0.30245 0.0
C544 C 0.14607 0.8307 0.32943 0.0
H545 H 0.20372 0.82639 0.35213 0.0
C546 C 0.13 0.85117 0.33564 0.0
C547 C 0.17251 0.82105 0.33545 0.0
C548 C 0.18939 0.79781 0.3293 0.0
C549 C 0.1401 0.86279 0.34766 0.0
C550 C 0.16726 0.85405 0.35361 0.0
C551 C 0.18293 0.83304 0.3475 0.0
C552 C 0.18088 0.8684 0.366 0.0
C553 C 0.12167 0.88443 0.35396 0.0
C554 C 0.2056 0.90949 0.36806 0.0
C555 C 0.21574 0.92409 0.37977 0.0
C556 C 0.20138 0.89788 0.3897 0.0
C557 C 0.17771 0.85643 0.38759 0.0
C558 C 0.16756 0.84179 0.37579 0.0
H559 H 0.0953 0.88155 0.349 0.0
H560 H 0.11222 0.87267 0.36324 0.0
H561 H 0.14431 0.91676 0.35464 0.0
H562 H 0.21635 0.93041 0.36059 0.0
H563 H 0.23431 0.95616 0.38101 0.0
H564 H 0.33103 0.16802 0.62126 0.0
H565 H 0.33819 0.191 0.64222 0.0
H566 H 0.28632 0.06895 0.65459 0.0
H567 H 0.27879 0.04578 0.63388 0.0
H568 H 0.24983 0.11012 0.66401 0.0
H569 H 0.41556 0.19687 0.66926 0.0
H570 H 0.3958 0.20955 0.65638 0.0
H571 H 0.39114 0.16088 0.65731 0.0
C572 C 0.32154 0.14618 0.62846 0.0
C573 C 0.30418 0.10507 0.62588 0.0
C574 C 0.32587 0.15936 0.64042 0.0
C575 C 0.31311 0.13166 0.64995 0.0
C576 C 0.29648 0.0908 0.64738 0.0
H577 H 0.33139 0.16387 0.72811 0.0
H578 H 0.3377 0.14574 0.70732 0.0
C579 C 0.29215 0.07765 0.6355 0.0
C580 C 0.31417 0.14444 0.66258 0.0
H581 H 0.37678 0.19971 0.68547 0.0
C582 C 0.27759 0.12964 0.66871 0.0
C583 C 0.35047 0.16954 0.66871 0.0
C584 C 0.39058 0.18496 0.66265 0.0
C585 C 0.27626 0.13971 0.68075 0.0
C586 C 0.31244 0.16557 0.68679 0.0
C587 C 0.34913 0.17995 0.68077 0.0
C588 C 0.31215 0.17902 0.69924 0.0
C589 C 0.23612 0.12253 0.68696 0.0
C590 C 0.29651 0.20429 0.70148 0.0
C591 C 0.29283 0.21458 0.71324 0.0
C592 C 0.3048 0.19985 0.72305 0.0
C593 C 0.32178 0.17557 0.72077 0.0
C594 C 0.32549 0.16528 0.70892 0.0
H595 H 0.2122 0.09656 0.68197 0.0
H596 H 0.23775 0.11284 0.69626 0.0
H597 H 0.22746 0.14595 0.68756 0.0
H598 H 0.28641 0.21546 0.6941 0.0
H599 H 0.27993 0.23362 0.71463 0.0
H600 H 0.93126 0.60665 0.08613 0.0
H601 H 0.93613 0.54603 0.08516 0.0
H602 H 0.0643 0.61763 0.08089 0.0
H603 H 0.05983 0.67901 0.08184 0.0
H604 H 0.97174 0.52155 0.06587 0.0
H605 H 0.0446 0.54192 0.11063 0.0
H606 H 0.01801 0.56766 0.10646 0.0
H607 H 0.067 0.58387 0.10045 0.0
C608 C 0.9606 0.60971 0.08499 0.0
C609 C 0.99525 0.64776 0.08413 0.0
C610 C 0.96323 0.57495 0.0844 0.0
C611 C 1.00053 0.57743 0.08305 0.0
C612 C 0.03524 0.61522 0.08205 0.0
H613 H 0.07198 0.39796 0.08481 0.0
H614 H 0.06849 0.45923 0.08377 0.0
C615 C 0.03263 0.65019 0.08256 0.0
C616 C 0.00275 0.5402 0.08283 0.0
H617 H 0.03328 0.48558 0.0993 0.0
C618 C 0.98527 0.51362 0.07315 0.0
C619 C 0.02025 0.53004 0.09237 0.0
C620 C 0.03835 0.55712 0.10314 0.0
C621 C 0.98538 0.47723 0.07266 0.0
C622 C 0.00254 0.46683 0.08228 0.0
C623 C 0.02005 0.49355 0.09195 0.0
C624 C 0.00385 0.42899 0.08239 0.0
C625 C 0.96795 0.45078 0.06174 0.0
C626 C 0.96855 0.39141 0.08197 0.0
C627 C 0.97042 0.35603 0.08247 0.0
C628 C 0.00761 0.35774 0.08358 0.0
C629 C 0.04278 0.39546 0.08401 0.0
C630 C 0.0409 0.43062 0.08341 0.0
H631 H 0.96609 0.46773 0.05391 0.0
H632 H 0.98613 0.43693 0.05913 0.0
H633 H 0.93713 0.42639 0.06385 0.0
H634 H 0.93954 0.38943 0.08145 0.0
H635 H 0.94281 0.32745 0.08219 0.0
H636 H 0.62875 0.95969 0.40216 0.0
H637 H 0.56493 0.95913 0.40022 0.0
H638 H 0.59671 0.03884 0.4307 0.0
H639 H 0.661 0.04116 0.43221 0.0
H640 H 0.50257 0.93634 0.41359 0.0
H641 H 0.56951 0.09943 0.40749 0.0
H642 H 0.59933 0.07532 0.40731 0.0
H643 H 0.58637 0.08935 0.42139 0.0
C644 C 0.62191 0.97695 0.40844 0.0
C645 C 0.64989 1.00082 0.41724 0.0
C646 C 0.58557 0.97677 0.40731 0.0
C647 C 0.57651 1.00004 0.41507 0.0
C648 C 0.60363 0.02203 0.42427 0.0
H649 H 0.3415 0.95895 0.43207 0.0
H650 H 0.40565 0.961 0.43056 0.0
C651 C 0.64019 0.02296 0.42522 0.0
C652 C 0.53844 1.00077 0.41378 0.0
H653 H 0.50016 0.06388 0.41367 0.0
C654 C 0.50211 0.96425 0.41345 0.0
C655 C 0.53763 0.03713 0.41323 0.0
C656 C 0.57536 0.07744 0.41222 0.0
C657 C 0.4651 0.96308 0.41316 0.0
C658 C 0.46428 0.99943 0.41375 0.0
C659 C 0.50061 0.03596 0.41349 0.0
C660 C 0.4262 1.00017 0.415 0.0
C661 C 0.42738 0.9228 0.41207 0.0
C662 C 0.41735 0.02369 0.40728 0.0
C663 C 0.38109 0.02366 0.40841 0.0
C664 C 0.35296 0.99969 0.41717 0.0
C665 C 0.36242 0.97724 0.42511 0.0
C666 C 0.3989 0.97801 0.42416 0.0
H667 H 0.43332 0.90091 0.40732 0.0
H668 H 0.41623 0.9107 0.42121 0.0
H669 H 0.40349 0.92502 0.40714 0.0
H670 H 0.43812 0.04145 0.40023 0.0
H671 H 0.37445 0.04116 0.40217 0.0
H672 H 0.40099 0.32782 0.75173 0.0
H673 H 0.46247 0.39245 0.75076 0.0
H674 H 0.39328 0.45203 0.74779 0.0
H675 H 0.33103 0.38688 0.74849 0.0
H676 H 0.45716 0.48181 0.73192 0.0
H677 H 0.50815 0.47297 0.77793 0.0
H678 H 0.49813 0.43071 0.76872 0.0
H679 H 0.45783 0.43937 0.77274 0.0
C680 C 0.39866 0.3546 0.75091 0.0
C681 C 0.36101 0.3522 0.75031 0.0
C682 C 0.43395 0.39159 0.75041 0.0
C683 C 0.43249 0.42711 0.74949 0.0
C684 C 0.39503 0.42493 0.74862 0.0
H685 H 0.60752 0.67852 0.75074 0.0
H686 H 0.54736 0.61272 0.7496 0.0
C687 C 0.35953 0.38774 0.74902 0.0
C688 C 0.47021 0.46637 0.74932 0.0
H689 H 0.55566 0.52515 0.76535 0.0
C690 C 0.4786 0.49138 0.73925 0.0
C691 C 0.49821 0.47876 0.75889 0.0
C692 C 0.49002 0.45424 0.77023 0.0
C693 C 0.5145 0.52824 0.73844 0.0
C694 C 0.54252 0.54041 0.74797 0.0
C695 C 0.53425 0.51542 0.75801 0.0
C696 C 0.57941 0.58018 0.74806 0.0
C697 C 0.52244 0.55381 0.72736 0.0
C698 C 0.61746 0.58362 0.74769 0.0
C699 C 0.65218 0.6214 0.74831 0.0
C700 C 0.64923 0.65617 0.74951 0.0
C701 C 0.61095 0.6524 0.74985 0.0
C702 C 0.57645 0.61482 0.74913 0.0
H703 H 0.50266 0.53639 0.71975 0.0
H704 H 0.51677 0.5787 0.72947 0.0
H705 H 0.55419 0.56715 0.72447 0.0
H706 H 0.62024 0.55707 0.74696 0.0
H707 H 0.68119 0.62331 0.74806 0.0
H708 H 0.32956 0.94544 0.59921 0.0
H709 H 0.39136 0.94192 0.60017 0.0
H710 H 0.46161 0.07094 0.59863 0.0
H711 H 0.40047 0.07469 0.59736 0.0
H712 H 0.48919 0.03684 0.58317 0.0
H713 H 0.46738 0.96595 0.62812 0.0
H714 H 0.42673 0.93774 0.61789 0.0
H715 H 0.43705 0.98647 0.62283 0.0
C716 C 0.35819 0.97302 0.59915 0.0
C717 C 0.36006 0.01031 0.5982 0.0
C718 C 0.39348 0.971 0.59978 0.0
C719 C 0.43114 0.00623 0.59966 0.0
C720 C 0.43294 0.04339 0.59877 0.0
H721 H 0.68024 0.05795 0.60082 0.0
H722 H 0.61972 0.06397 0.60177 0.0
C723 C 0.39786 0.04543 0.59804 0.0
C724 C 0.46888 0.00469 0.59994 0.0
H725 H 0.52149 0.97132 0.61631 0.0
C726 C 0.49638 0.02277 0.59047 0.0
C727 C 0.47828 0.98645 0.60949 0.0
C728 C 0.45101 0.96839 0.62022 0.0
C729 C 0.5326 0.02237 0.59015 0.0
C730 C 0.54169 0.00367 0.5996 0.0
C731 C 0.51439 0.98574 0.6091 0.0
C732 C 0.57845 1.00052 0.59944 0.0
C733 C 0.56043 0.04101 0.57956 0.0
C734 C 0.57512 0.96286 0.59802 0.0
C735 C 0.60941 0.95935 0.59745 0.0
C736 C 0.64784 0.99344 0.59839 0.0
C737 C 0.65112 0.03116 0.60004 0.0
C738 C 0.61664 0.03466 0.60054 0.0
H739 H 0.54588 0.04802 0.57205 0.0
H740 H 0.58716 0.06933 0.58247 0.0
H741 H 0.57091 0.02069 0.57617 0.0
H742 H 0.54592 0.93618 0.59718 0.0
H743 H 0.60568 0.92978 0.59624 0.0
H744 H 0.32705 0.39714 0.92947 0.0
H745 H 0.39264 0.45764 0.9305 0.0
H746 H 0.44864 0.38576 0.93536 0.0
H747 H 0.3827 0.32452 0.93433 0.0
H748 H 0.45186 0.48277 0.94984 0.0
H749 H 0.50619 0.46031 0.90568 0.0
H750 H 0.45371 0.43455 0.90969 0.0
H751 H 0.48647 0.41882 0.91603 0.0
C752 C 0.35323 0.394 0.93075 0.0
C753 C 0.34964 0.3559 0.93175 0.0
C754 C 0.39068 0.42869 0.93137 0.0
C755 C 0.42539 0.42611 0.9329 0.0
C756 C 0.42211 0.38826 0.93405 0.0
H757 H 0.67673 0.60471 0.93167 0.0
H758 H 0.61179 0.54366 0.93282 0.0
C759 C 0.38447 0.35337 0.9335 0.0
C760 C 0.46493 0.46326 0.93315 0.0
H761 H 0.55102 0.51684 0.91699 0.0
C762 C 0.47368 0.49029 0.94269 0.0
C763 C 0.49306 0.47289 0.92377 0.0
C764 C 0.48451 0.44537 0.91314 0.0
C765 C 0.51026 0.52659 0.94319 0.0
C766 C 0.53831 0.53645 0.93374 0.0
C767 C 0.52946 0.50929 0.92421 0.0
C768 C 0.57757 0.57419 0.93365 0.0
C769 C 0.51884 0.55357 0.95396 0.0
C770 C 0.58003 0.61185 0.93375 0.0
C771 C 0.61739 0.64712 0.93319 0.0
C772 C 0.6528 0.64517 0.93234 0.0
C773 C 0.65008 0.60737 0.93226 0.0
C774 C 0.61294 0.57234 0.93292 0.0
H775 H 0.49959 0.53702 0.96177 0.0
H776 H 0.55074 0.56743 0.95673 0.0
H777 H 0.51266 0.57793 0.95159 0.0
H778 H 0.55306 0.61399 0.93404 0.0
H779 H 0.61849 0.67576 0.9332 0.0
H780 H 0.94356 0.61734 0.26687 0.0
H781 H 0.93909 0.55145 0.26774 0.0
H782 H 0.0677 0.60845 0.26484 0.0
H783 H 0.07255 0.67392 0.26395 0.0
H784 H 0.97175 0.52012 0.24925 0.0
H785 H 0.03763 0.53224 0.29465 0.0
H786 H 0.01645 0.56272 0.29002 0.0
H787 H 0.0653 0.57446 0.28484 0.0
C788 C 0.97086 0.6158 0.2665 0.0
C789 C 0.00838 0.65087 0.26533 0.0
C790 C 0.96826 0.57822 0.26699 0.0
C791 C 0.00313 0.57526 0.2665 0.0
C792 C 0.04052 0.61017 0.26541 0.0
H793 H 0.05734 0.38103 0.26613 0.0
H794 H 0.06107 0.44657 0.26665 0.0
C795 C 0.04314 0.64757 0.26483 0.0
C796 C 1.0007 0.5357 0.26655 0.0
H797 H 0.02801 0.47743 0.28254 0.0
C798 C 0.98371 0.51055 0.25656 0.0
C799 C 0.01692 0.52374 0.27603 0.0
C800 C 0.03488 0.54949 0.28706 0.0
C801 C 0.98307 0.4739 0.25569 0.0
C802 C 0.99893 0.46165 0.26524 0.0
C803 C 0.01594 0.48688 0.27524 0.0
C804 C 0.99697 0.42221 0.26515 0.0
C805 C 0.96635 0.44915 0.24442 0.0
C806 C 0.95974 0.3869 0.2644 0.0
C807 C 0.95756 0.3497 0.26401 0.0
C808 C 0.99257 0.34687 0.26455 0.0
C809 C 0.02987 0.38222 0.26566 0.0
C810 C 0.03203 0.41963 0.26596 0.0
H811 H 0.96693 0.46779 0.23669 0.0
H812 H 0.98342 0.43403 0.2419 0.0
H813 H 0.93467 0.42582 0.24601 0.0
H814 H 0.93224 0.38809 0.26412 0.0
H815 H 0.92826 0.32309 0.26333 0.0
H816 H 0.0711 0.17734 0.08418 0.0
H817 H 0.06702 0.1123 0.0832 0.0
H818 H 0.93795 0.05391 0.08187 0.0
H819 H 0.94183 0.11944 0.08253 0.0
H820 H 0.03308 0.05163 0.09899 0.0
H821 H 0.9611 1.00001 0.05427 0.0
H822 H 0.98183 0.05116 0.05928 0.0
H823 H 0.93329 0.01308 0.06447 0.0
C824 C 0.04175 0.15074 0.08361 0.0
C825 C 0.00673 0.1536 0.08343 0.0
C826 C 0.03952 0.11353 0.08305 0.0
C827 C 0.00225 0.07822 0.08232 0.0
C828 C 0.96711 0.08081 0.08215 0.0
H829 H 0.92995 0.82754 0.08634 0.0
H830 H 0.93433 0.89285 0.08547 0.0
C831 C 0.96933 0.11825 0.0826 0.0
C832 C 1.00062 0.03888 0.08226 0.0
H833 H 0.96784 0.95242 0.06619 0.0
C834 C 0.01901 0.03005 0.09178 0.0
C835 C 0.98234 0.01077 0.07283 0.0
C836 C 0.96384 0.01929 0.06207 0.0
C837 C 0.01912 0.9937 0.09221 0.0
C838 C 1.0006 0.96556 0.08284 0.0
C839 C 0.98214 0.97423 0.07333 0.0
C840 C 0.9986 0.92617 0.08303 0.0
C841 C 0.03826 0.98523 0.10282 0.0
C842 C 0.03338 0.92329 0.08182 0.0
C843 C 0.03104 0.88582 0.08228 0.0
C844 C 0.99387 0.85074 0.084 0.0
C845 C 0.95913 0.85392 0.08508 0.0
C846 C 0.96149 0.89121 0.08454 0.0
H847 H 0.04485 0.00679 0.1103 0.0
H848 H 0.01847 0.95437 0.10625 0.0
H849 H 0.06688 0.98748 0.09991 0.0
H850 H 0.06228 0.95 0.08052 0.0
H851 H 0.0583 0.88439 0.08139 0.0
H852 H 0.89603 0.07104 0.41744 0.0
H853 H 0.9577 0.06819 0.41635 0.0
H854 H 0.88876 0.9392 0.41417 0.0
H855 H 0.82648 0.94187 0.41492 0.0
H856 H 0.98537 0.03428 0.43171 0.0
H857 H 0.96628 0.96499 0.38663 0.0
H858 H 0.93507 0.98456 0.39186 0.0
H859 H 0.9254 0.93594 0.39671 0.0
C860 C 0.89383 0.04198 0.41665 0.0
C861 C 0.85626 0.00663 0.41625 0.0
C862 C 0.92921 0.04045 0.41603 0.0
C863 C 0.92796 0.00356 0.41502 0.0
C864 C 0.89051 0.9681 0.41465 0.0
H865 H 0.10726 0.9326 0.4189 0.0
H866 H 0.0462 0.93682 0.41806 0.0
C867 C 0.85493 0.96962 0.41516 0.0
C868 C 0.96601 0.00255 0.41485 0.0
H869 H 0.02035 0.97096 0.39857 0.0
C870 C 0.99311 0.02067 0.42442 0.0
C871 C 0.97617 0.98489 0.40532 0.0
C872 C 0.94941 0.96683 0.39449 0.0
C873 C 0.0297 0.021 0.4248 0.0
C874 C 0.03957 0.00295 0.41535 0.0
C875 C 0.01262 0.98486 0.40578 0.0
C876 C 0.07701 1.00103 0.41552 0.0
C877 C 0.05719 0.03983 0.43545 0.0
C878 C 0.11462 0.03581 0.41424 0.0
C879 C 0.14981 0.03356 0.41467 0.0
C880 C 0.14784 0.99647 0.41645 0.0
C881 C 0.10997 0.96172 0.4176 0.0
C882 C 0.07496 0.96398 0.41708 0.0
H883 H 0.04225 0.0465 0.44292 0.0
H884 H 0.06796 0.01978 0.43887 0.0
H885 H 0.08379 0.06834 0.43258 0.0
H886 H 0.11672 0.06466 0.41292 0.0
H887 H 0.17846 0.06083 0.41373 0.0
H888 H 0.17811 0.10883 0.75165 0.0
H889 H 0.1125 0.04848 0.75092 0.0
H890 H 0.056 0.12079 0.7489 0.0
H891 H 0.12211 0.18181 0.74931 0.0
H892 H 0.05179 0.02349 0.76669 0.0
H893 H 1.00125 0.04255 0.72161 0.0
H894 H 0.05249 0.07254 0.72661 0.0
H895 H 0.01496 0.08407 0.73159 0.0
C896 C 0.15181 0.11207 0.75098 0.0
C897 C 0.15538 0.15023 0.75053 0.0
C898 C 0.11427 0.07743 0.75056 0.0
C899 C 0.07931 0.08001 0.74972 0.0
C900 C 0.08261 0.11803 0.74928 0.0
H901 H 0.8276 0.90178 0.75368 0.0
H902 H 0.89285 0.96298 0.75302 0.0
C903 C 0.12037 0.15289 0.74959 0.0
C904 C 0.03962 0.04268 0.74977 0.0
H905 H 0.95325 0.98893 0.73363 0.0
C906 C 0.03034 0.01587 0.75943 0.0
C907 C 0.01167 0.03272 0.74028 0.0
C908 C 0.02064 0.05926 0.72938 0.0
C909 C 0.99377 0.97963 0.75992 0.0
C910 C 0.96584 0.96982 0.75047 0.0
C911 C 0.97489 0.9966 0.74084 0.0
C912 C 0.9265 0.93237 0.75063 0.0
C913 C 0.98488 0.95237 0.77064 0.0
C914 C 0.92384 0.89484 0.74939 0.0
C915 C 0.88645 0.8596 0.74971 0.0
C916 C 0.85118 0.86142 0.75134 0.0
C917 C 0.85413 0.8992 0.75248 0.0
C918 C 0.89138 0.93428 0.75207 0.0
H919 H 0.00637 0.96747 0.77813 0.0
H920 H 0.95399 0.94167 0.77399 0.0
H921 H 0.98687 0.92573 0.76788 0.0
H922 H 0.95069 0.89284 0.74815 0.0
H923 H 0.88521 0.83102 0.74878 0.0
H924 H 0.88369 0.05372 0.59901 0.0
H925 H 0.94916 0.05736 0.59928 0.0
H926 H 0.8906 0.92878 0.59583 0.0
H927 H 0.82555 0.92492 0.59528 0.0
H928 H 0.97974 0.02383 0.61481 0.0
H929 H 0.97122 0.96488 0.56871 0.0
H930 H 0.93708 0.98077 0.57401 0.0
H931 H 0.92923 0.93202 0.57793 0.0
C932 C 0.88482 0.02627 0.59826 0.0
C933 C 0.8494 0.9891 0.597 0.0
C934 C 0.92221 0.02838 0.59842 0.0
C935 C 0.92481 0.9934 0.59732 0.0
C936 C 0.88944 0.95626 0.59636 0.0
H937 H 0.12203 0.94268 0.59903 0.0
H938 H 0.0557 0.93727 0.5997 0.0
C939 C 0.8522 0.95413 0.59611 0.0
C940 C 0.96434 0.99544 0.5974 0.0
H941 H 0.02375 0.96991 0.58121 0.0
C942 C 0.98945 0.01224 0.60744 0.0
C943 C 0.97697 0.98024 0.58777 0.0
C944 C 0.9524 0.96383 0.57645 0.0
C945 C 0.02657 0.01371 0.60818 0.0
C946 C 0.03894 0.9982 0.59861 0.0
C947 C 0.01389 0.98136 0.58859 0.0
C948 C 0.07878 1.00118 0.59854 0.0
C949 C 0.05217 0.03146 0.61924 0.0
C950 C 0.11346 0.03881 0.59755 0.0
C951 C 0.15114 0.04197 0.59708 0.0
C952 C 0.15496 0.00752 0.59761 0.0
C953 C 0.12011 0.96976 0.59864 0.0
C954 C 0.08226 0.96662 0.59902 0.0
H955 H 0.03476 0.0338 0.62686 0.0
H956 H 0.06561 0.01315 0.62213 0.0
H957 H 0.07701 0.06204 0.61711 0.0
H958 H 0.11135 0.06577 0.597 0.0
H959 H 0.1773 0.07155 0.59629 0.0
H960 H 0.82578 0.88292 0.933 0.0
H961 H 0.88746 0.94861 0.93327 0.0
H962 H 0.95805 0.89067 0.92975 0.0
H963 H 0.89713 0.82552 0.92921 0.0
H964 H 0.95223 0.97947 0.94876 0.0
H965 H 1.00142 0.97103 0.90249 0.0
H966 H 0.9515 0.93694 0.9079 0.0
H967 H 0.99244 0.92892 0.91162 0.0
C968 C 0.85446 0.88425 0.93224 0.0
C969 C 0.85647 0.84899 0.93095 0.0
C970 C 0.88964 0.92175 0.9324 0.0
C971 C 0.92731 0.92455 0.93126 0.0
C972 C 0.92933 0.88934 0.9303 0.0
H973 H 0.17598 0.11899 0.93297 0.0
H974 H 0.11425 0.05334 0.93368 0.0
C975 C 0.89436 0.85204 0.93006 0.0
C976 C 0.96473 0.9641 0.93128 0.0
H977 H 0.04968 0.023 0.91503 0.0
C978 C 0.9734 0.98912 0.94136 0.0
C979 C 0.99239 0.97662 0.92161 0.0
C980 C 0.98384 0.95216 0.91024 0.0
C981 C 0.00932 0.02599 0.9421 0.0
C982 C 0.0371 0.03816 0.9325 0.0
C983 C 0.02846 0.01327 0.92243 0.0
C984 C 0.07441 0.0776 0.93248 0.0
C985 C 0.01764 0.0515 0.95321 0.0
C986 C 0.07227 0.11271 0.93146 0.0
C987 C 0.10724 0.15 0.93096 0.0
C988 C 0.14517 0.15299 0.93149 0.0
C989 C 0.14727 0.11771 0.93258 0.0
C990 C 0.1121 0.08025 0.93298 0.0
H991 H 0.99756 0.03429 0.9608 0.0
H992 H 0.04927 0.06411 0.95613 0.0
H993 H 0.01281 0.07694 0.95111 0.0
H994 H 0.04347 0.11122 0.9309 0.0
H995 H 0.10446 0.17652 0.93014 0.0
H996 H 0.94496 0.82471 0.26645 0.0
H997 H 0.94109 0.88644 0.26671 0.0
H998 H 0.06988 0.95687 0.26397 0.0
H999 H 0.07397 0.89587 0.26343 0.0
H1000 H 0.97378 0.95066 0.28233 0.0
H1001 H 0.03512 0.00125 0.23646 0.0
H1002 H 0.01892 0.9512 0.2418 0.0
H1003 H 0.06753 0.99205 0.24586 0.0
C1004 C 0.97239 0.85336 0.26587 0.0
C1005 C 0.0097 0.85531 0.26478 0.0
C1006 C 0.97016 0.88859 0.26603 0.0
C1007 C 0.00515 0.92625 0.26509 0.0
C1008 C 0.04241 0.92818 0.26435 0.0
H1009 H 0.05797 0.17464 0.26651 0.0
H1010 H 0.06245 0.11323 0.26737 0.0
C1011 C 0.04466 0.89317 0.26411 0.0
C1012 C 0.00307 0.9637 0.26506 0.0
H1013 H 0.03008 0.04897 0.24887 0.0
C1014 C 0.98585 0.97203 0.27498 0.0
C1015 C 0.01891 0.99161 0.25546 0.0
C1016 C 0.0358 0.98346 0.24424 0.0
C1017 C 0.98467 0.00784 0.27566 0.0
C1018 C 1.00091 0.03585 0.26614 0.0
C1019 C 0.01808 0.02757 0.25621 0.0
C1020 C 0.99845 0.07299 0.266 0.0
C1021 C 0.96651 0.01574 0.28662 0.0
C1022 C 0.96109 0.07054 0.26485 0.0
C1023 C 0.95846 0.10533 0.26427 0.0
C1024 C 0.99319 0.1434 0.26486 0.0
C1025 C 0.03069 0.14581 0.26608 0.0
C1026 C 0.0333 0.11082 0.26656 0.0
H1027 H 0.96357 0.9958 0.29425 0.0
H1028 H 0.98492 0.04741 0.28956 0.0
H1029 H 0.93615 0.01033 0.28433 0.0
H1030 H 0.93393 0.04164 0.26423 0.0
H1031 H 0.92907 0.10229 0.26334 0.0
loop_
_geom_bond_atom_site_label_1
_geom_bond_atom_site_label_2
_geom_bond_distance
_geom_bond_site_symmetry_2
_ccdc_geom_bond_type
C0 O2 1.247 . S
C0 O4 1.258 1_455 S
C1 O8 1.247 . S
C1 O9 1.258 . S
O2 C0 1.247 . S
O2 Zn3 2.028 . S
Zn3 O2 2.028 . S
Zn3 O7 2.035 . S
Zn3 O9 2.035 . S
Zn3 O10 2.028 . S
O4 C0 1.258 1_655 S
O4 Zn5 2.035 1_655 S
Zn5 O4 2.035 1_455 S
Zn5 O6 2.028 . S
Zn5 O8 2.028 . S
Zn5 O11 2.035 . S
O6 Zn5 2.028 . S
O6 C12 1.247 . S
O7 Zn3 2.035 . S
O7 C12 1.258 . S
O8 C1 1.247 . S
O8 Zn5 2.028 . S
O9 C1 1.258 . S
O9 Zn3 2.035 . S
O10 Zn3 2.028 . S
O10 C13 1.247 . S
O11 Zn5 2.035 . S
O11 C13 1.258 . S
C12 O6 1.247 . S
C12 O7 1.258 . S
C13 O10 1.247 . S
C13 O11 1.258 . S
C14 O16 1.247 . S
C14 O18 1.258 . S
C15 O22 1.247 1_545 S
C15 O23 1.258 . S
O16 C14 1.247 . S
O16 Zn17 2.028 . S
Zn17 O16 2.028 . S
Zn17 O21 2.035 . S
Zn17 O23 2.035 . S
Zn17 O24 2.028 . S
O18 C14 1.258 . S
O18 Zn19 2.046 . S
Zn19 O18 2.046 . S
Zn19 O20 2.050 . S
Zn19 O22 2.027 1_545 S
Zn19 O25 2.023 . S
O20 Zn19 2.050 . S
O20 C26 1.247 . S
O21 Zn17 2.035 . S
O21 C26 1.258 . S
O22 C15 1.247 1_565 S
O22 Zn19 2.027 1_565 S
O23 C15 1.258 . S
O23 Zn17 2.035 . S
O24 Zn17 2.028 . S
O24 C27 1.247 . S
O25 Zn19 2.023 . S
O25 C27 1.258 . S
C26 O20 1.247 . S
C26 O21 1.258 . S
C27 O24 1.247 . S
C27 O25 1.258 . S
C28 O30 1.247 . S
C28 O32 1.258 . S
C29 O36 1.247 . S
C29 O37 1.258 . S
O30 C28 1.247 . S
O30 Zn31 2.028 . S
Zn31 O30 2.028 . S
Zn31 O35 2.035 . S
Zn31 O37 2.035 . S
Zn31 O38 2.028 . S
O32 C28 1.258 . S
O32 Zn33 2.035 . S
Zn33 O32 2.035 . S
Zn33 O34 2.028 . S
Zn33 O36 2.028 . S
Zn33 O39 2.035 . S
O34 Zn33 2.028 . S
O34 C40 1.247 . S
O35 Zn31 2.035 . S
O35 C40 1.258 . S
O36 C29 1.247 . S
O36 Zn33 2.028 . S
O37 C29 1.258 . S
O37 Zn31 2.035 . S
O38 Zn31 2.028 . S
O38 C41 1.247 . S
O39 Zn33 2.035 . S
O39 C41 1.258 . S
C40 O34 1.247 . S
C40 O35 1.258 . S
C41 O38 1.247 . S
C41 O39 1.258 . S
C42 O44 1.247 . S
C42 O46 1.258 . S
C43 O50 1.247 . S
C43 O51 1.258 . S
O44 C42 1.247 . S
O44 Zn45 2.018 . S
Zn45 O44 2.018 . S
Zn45 O49 2.047 . S
Zn45 O51 2.055 . S
Zn45 O52 2.026 1_655 S
O46 C42 1.258 . S
O46 Zn47 2.035 . S
Zn47 O46 2.035 . S
Zn47 O48 2.028 . S
Zn47 O50 2.028 . S
Zn47 O53 2.035 . S
O48 Zn47 2.028 . S
O48 C54 1.247 . S
O49 Zn45 2.047 . S
O49 C54 1.258 . S
O50 C43 1.247 . S
O50 Zn47 2.028 . S
O51 C43 1.258 . S
O51 Zn45 2.055 . S
O52 Zn45 2.026 1_455 S
O52 C55 1.247 1_455 S
O53 Zn47 2.035 . S
O53 C55 1.258 . S
C54 O48 1.247 . S
C54 O49 1.258 . S
C55 O52 1.247 1_655 S
C55 O53 1.258 . S
C56 O58 1.247 . S
C56 O60 1.258 . S
C57 O64 1.247 . S
C57 O65 1.258 . S
O58 C56 1.247 . S
O58 Zn59 2.028 . S
Zn59 O58 2.028 . S
Zn59 O63 2.035 1_565 S
Zn59 O65 2.035 . S
Zn59 O66 2.028 . S
O60 C56 1.258 . S
O60 Zn61 2.035 . S
Zn61 O60 2.035 . S
Zn61 O62 2.028 . S
Zn61 O64 2.028 . S
Zn61 O67 2.035 . S
O62 Zn61 2.028 . S
O62 C68 1.247 . S
O63 Zn59 2.035 1_545 S
O63 C68 1.258 1_545 S
O64 C57 1.247 . S
O64 Zn61 2.028 . S
O65 C57 1.258 . S
O65 Zn59 2.035 . S
O66 Zn59 2.028 . S
O66 C69 1.247 . S
O67 Zn61 2.035 . S
O67 C69 1.258 . S
C68 O62 1.247 . S
C68 O63 1.258 1_565 S
C69 O66 1.247 . S
C69 O67 1.258 . S
C70 O72 1.247 . S
C70 O74 1.258 . S
C71 O78 1.247 . S
C71 O79 1.258 . S
O72 C70 1.247 . S
O72 Zn73 2.028 . S
Zn73 O72 2.028 . S
Zn73 O77 2.035 . S
Zn73 O79 2.035 . S
Zn73 O80 2.028 . S
O74 C70 1.258 . S
O74 Zn75 2.035 . S
Zn75 O74 2.035 . S
Zn75 O76 2.028 . S
Zn75 O78 2.028 . S
Zn75 O81 2.035 . S
O76 Zn75 2.028 . S
O76 C82 1.247 . S
O77 Zn73 2.035 . S
O77 C82 1.258 . S
O78 C71 1.247 . S
O78 Zn75 2.028 . S
O79 C71 1.258 . S
O79 Zn73 2.035 . S
O80 Zn73 2.028 . S
O80 C83 1.247 . S
O81 Zn75 2.035 . S
O81 C83 1.258 . S
C82 O76 1.247 . S
C82 O77 1.258 . S
C83 O80 1.247 . S
C83 O81 1.258 . S
C84 O86 1.247 . S
C84 O88 1.258 . S
C85 O92 1.247 . S
C85 O93 1.258 . S
O86 C84 1.247 . S
O86 Zn87 2.017 . S
Zn87 O86 2.017 . S
Zn87 O91 2.048 . S
Zn87 O93 2.057 . S
Zn87 O94 2.026 1_565 S
O88 C84 1.258 . S
O88 Zn89 2.035 . S
Zn89 O88 2.035 . S
Zn89 O90 2.028 . S
Zn89 O92 2.028 . S
Zn89 O95 2.035 . S
O90 Zn89 2.028 . S
O90 C96 1.247 . S
O91 Zn87 2.048 . S
O91 C96 1.258 . S
O92 C85 1.247 . S
O92 Zn89 2.028 . S
O93 C85 1.258 . S
O93 Zn87 2.057 . S
O94 Zn87 2.026 1_545 S
O94 C97 1.247 1_545 S
O95 Zn89 2.035 . S
O95 C97 1.258 . S
C96 O90 1.247 . S
C96 O91 1.258 . S
C97 O94 1.247 1_565 S
C97 O95 1.258 . S
C98 O100 1.247 . S
C98 O102 1.258 . S
C99 O106 1.247 . S
C99 O107 1.258 . S
O100 C98 1.247 . S
O100 Zn101 2.028 . S
Zn101 O100 2.028 . S
Zn101 O105 2.035 . S
Zn101 O107 2.035 . S
Zn101 O108 2.028 . S
O102 C98 1.258 . S
O102 Zn103 2.035 . S
Zn103 O102 2.035 . S
Zn103 O104 2.028 . S
Zn103 O106 2.028 . S
Zn103 O109 2.035 . S
O104 Zn103 2.028 . S
O104 C110 1.247 . S
O105 Zn101 2.035 . S
O105 C110 1.258 . S
O106 C99 1.247 . S
O106 Zn103 2.028 . S
O107 C99 1.258 . S
O107 Zn101 2.035 . S
O108 Zn101 2.028 . S
O108 C111 1.247 . S
O109 Zn103 2.035 . S
O109 C111 1.258 . S
C110 O104 1.247 . S
C110 O105 1.258 . S
C111 O108 1.247 . S
C111 O109 1.258 . S
C112 O114 1.247 . S
C112 O116 1.258 . S
C113 O120 1.247 1_455 S
C113 O121 1.258 . S
O114 C112 1.247 . S
O114 Zn115 2.028 . S
Zn115 O114 2.028 . S
Zn115 O119 2.035 . S
Zn115 O121 2.035 . S
Zn115 O122 2.028 . S
O116 C112 1.258 . S
O116 Zn117 2.046 . S
Zn117 O116 2.046 . S
Zn117 O118 2.049 . S
Zn117 O120 2.027 1_455 S
Zn117 O123 2.024 . S
O118 Zn117 2.049 . S
O118 C124 1.247 . S
O119 Zn115 2.035 . S
O119 C124 1.258 . S
O120 C113 1.247 1_655 S
O120 Zn117 2.027 1_655 S
O121 C113 1.258 . S
O121 Zn115 2.035 . S
O122 Zn115 2.028 . S
O122 C125 1.247 . S
O123 Zn117 2.024 . S
O123 C125 1.258 . S
C124 O118 1.247 . S
C124 O119 1.258 . S
C125 O122 1.247 . S
C125 O123 1.258 . S
C126 O128 1.247 . S
C126 O130 1.258 . S
C127 O134 1.247 1_545 S
C127 O135 1.258 . S
O128 C126 1.247 . S
O128 Zn129 2.028 . S
Zn129 O128 2.028 . S
Zn129 O133 2.035 . S
Zn129 O135 2.035 . S
Zn129 O136 2.028 . S
O130 C126 1.258 . S
O130 Zn131 2.035 . S
Zn131 O130 2.035 . S
Zn131 O132 2.028 . S
Zn131 O134 2.028 1_545 S
Zn131 O137 2.035 . S
O132 Zn131 2.028 . S
O132 C138 1.247 . S
O133 Zn129 2.035 . S
O133 C138 1.258 . S
O134 C127 1.247 1_565 S
O134 Zn131 2.028 1_565 S
O135 C127 1.258 . S
O135 Zn129 2.035 . S
O136 Zn129 2.028 . S
O136 C139 1.247 . S
O137 Zn131 2.035 . S
O137 C139 1.258 . S
C138 O132 1.247 . S
C138 O133 1.258 . S
C139 O136 1.247 . S
C139 O137 1.258 . S
C140 O142 1.247 . S
C140 O144 1.258 . S
C141 O148 1.247 . S
C141 O149 1.258 . S
O142 C140 1.247 . S
O142 Zn143 2.028 . S
Zn143 O142 2.028 . S
Zn143 O147 2.035 . S
Zn143 O149 2.035 . S
Zn143 O150 2.028 . S
O144 C140 1.258 . S
O144 Zn145 2.035 . S
Zn145 O144 2.035 . S
Zn145 O146 2.028 . S
Zn145 O148 2.028 . S
Zn145 O151 2.035 . S
O146 Zn145 2.028 . S
O146 C152 1.247 . S
O147 Zn143 2.035 . S
O147 C152 1.258 . S
O148 C141 1.247 . S
O148 Zn145 2.028 . S
O149 C141 1.258 . S
O149 Zn143 2.035 . S
O150 Zn143 2.028 . S
O150 C153 1.247 . S
O151 Zn145 2.035 . S
O151 C153 1.258 . S
C152 O146 1.247 . S
C152 O147 1.258 . S
C153 O150 1.247 . S
C153 O151 1.258 . S
C154 O156 1.247 . S
C154 O158 1.258 1_655 S
C155 O162 1.247 . S
C155 O163 1.258 . S
O156 C154 1.247 . S
O156 Zn157 2.028 . S
Zn157 O156 2.028 . S
Zn157 O161 2.035 . S
Zn157 O163 2.035 . S
Zn157 O164 2.028 . S
O158 C154 1.258 1_455 S
O158 Zn159 2.035 1_455 S
Zn159 O158 2.035 1_655 S
Zn159 O160 2.028 . S
Zn159 O162 2.028 . S
Zn159 O165 2.035 . S
O160 Zn159 2.028 . S
O160 C166 1.247 . S
O161 Zn157 2.035 . S
O161 C166 1.258 . S
O162 C155 1.247 . S
O162 Zn159 2.028 . S
O163 C155 1.258 . S
O163 Zn157 2.035 . S
O164 Zn157 2.028 . S
O164 C167 1.247 . S
O165 Zn159 2.035 . S
O165 C167 1.258 . S
C166 O160 1.247 . S
C166 O161 1.258 . S
C167 O164 1.247 . S
C167 O165 1.258 . S
H168 C176 0.929 . S
H169 C178 0.930 . S
H170 C180 0.930 . S
H171 C183 0.929 . S
H172 C186 0.930 . S
H173 C188 0.960 . S
H174 C188 0.960 . S
H175 C188 0.960 1_655 S
C176 H168 0.929 . S
C176 C177 1.377 1_455 S
C176 C178 1.384 . S
C177 C176 1.377 1_655 S
C177 C183 1.390 . S
C178 H169 0.930 . S
C178 C176 1.384 . S
C178 C179 1.372 1_455 S
C179 C178 1.372 1_655 S
C179 C180 1.400 . S
C179 C184 1.490 . S
C180 H170 0.930 . S
C180 C179 1.400 . S
C180 C183 1.386 . S
H181 C197 0.930 . S
H182 C198 0.931 . S
C183 H171 0.929 . S
C183 C177 1.390 . S
C183 C180 1.386 . S
C184 C179 1.490 . S
C184 C186 1.395 . S
C184 C187 1.403 1_655 S
H185 C191 0.930 . S
C186 H172 0.930 . S
C186 C184 1.395 . S
C186 C189 1.403 . S
C187 C184 1.403 1_455 S
C187 C188 1.524 . S
C187 C191 1.400 . S
C188 H173 0.960 . S
C188 H174 0.960 . S
C188 H175 0.960 1_455 S
C188 C187 1.524 . S
C189 C186 1.403 . S
C189 C190 1.392 1_655 S
C189 C193 1.495 . S
C190 C189 1.392 1_455 S
C190 C191 1.385 . S
C190 C192 1.478 . S
C191 H185 0.930 . S
C191 C187 1.400 . S
C191 C190 1.385 . S
C192 C190 1.478 . S
C192 C194 1.381 . S
C192 C198 1.383 1_455 S
C193 C189 1.495 . S
C193 H199 0.959 . S
C193 H200 0.961 . S
C193 H201 0.960 1_655 S
C194 C192 1.381 . S
C194 C195 1.394 . S
C194 H202 0.930 . S
C195 C194 1.394 . S
C195 C196 1.383 . S
C195 H203 0.929 . S
C196 C195 1.383 . S
C196 C197 1.377 1_455 S
C197 H181 0.930 . S
C197 C196 1.377 1_655 S
C197 C198 1.379 . S
C198 H182 0.931 . S
C198 C192 1.383 1_655 S
C198 C197 1.379 . S
H199 C193 0.959 . S
H200 C193 0.961 . S
H201 C193 0.960 1_455 S
H202 C194 0.930 . S
H203 C195 0.929 . S
H204 C212 0.929 . S
H205 C214 0.930 . S
H206 C216 0.930 . S
H207 C219 0.929 . S
H208 C222 0.930 . S
H209 C224 0.960 . S
H210 C224 0.960 . S
H211 C224 0.960 1_545 S
C212 H204 0.929 . S
C212 C213 1.377 1_565 S
C212 C214 1.384 . S
C213 C212 1.377 1_545 S
C213 C219 1.390 . S
C214 H205 0.930 . S
C214 C212 1.384 . S
C214 C215 1.372 1_565 S
C215 C214 1.372 1_545 S
C215 C216 1.400 . S
C215 C220 1.490 . S
C216 H206 0.930 . S
C216 C215 1.400 . S
C216 C219 1.386 . S
H217 C233 0.930 . S
H218 C234 0.931 . S
C219 H207 0.929 . S
C219 C213 1.390 . S
C219 C216 1.386 . S
C220 C215 1.490 . S
C220 C222 1.395 . S
C220 C223 1.403 1_545 S
H221 C227 0.930 . S
C222 H208 0.930 . S
C222 C220 1.395 . S
C222 C225 1.403 1_545 S
C223 C220 1.403 1_565 S
C223 C224 1.524 . S
C223 C227 1.400 . S
C224 H209 0.960 . S
C224 H210 0.960 . S
C224 H211 0.960 1_565 S
C224 C223 1.524 . S
C225 C222 1.403 1_565 S
C225 C226 1.392 . S
C225 C229 1.494 . S
C226 C225 1.392 . S
C226 C227 1.385 . S
C226 C228 1.478 . S
C227 H221 0.930 . S
C227 C223 1.400 . S
C227 C226 1.385 . S
C228 C226 1.478 . S
C228 C230 1.381 . S
C228 C234 1.383 1_565 S
C229 C225 1.494 . S
C229 H235 0.960 1_565 S
C229 H236 0.960 1_565 S
C229 H237 0.961 . S
C230 C228 1.381 . S
C230 C231 1.394 . S
C230 H238 0.930 . S
C231 C230 1.394 . S
C231 C232 1.383 . S
C231 H239 0.929 . S
C232 C231 1.383 . S
C232 C233 1.377 1_565 S
C233 H217 0.930 . S
C233 C232 1.377 1_545 S
C233 C234 1.379 . S
C234 H218 0.931 . S
C234 C228 1.383 1_545 S
C234 C233 1.379 . S
H235 C229 0.960 1_545 S
H236 C229 0.960 1_545 S
H237 C229 0.961 . S
H238 C230 0.930 . S
H239 C231 0.929 . S
H240 C248 0.929 . S
H241 C250 0.930 . S
H242 C252 0.930 . S
H243 C255 0.929 . S
H244 C258 0.930 . S
H245 C260 0.960 . S
H246 C260 0.960 . S
H247 C260 0.960 . S
C248 H240 0.929 . S
C248 C249 1.377 . S
C248 C250 1.384 . S
C249 C248 1.377 . S
C249 C255 1.390 . S
C250 H241 0.930 . S
C250 C248 1.384 . S
C250 C251 1.372 . S
C251 C250 1.372 . S
C251 C252 1.400 . S
C251 C256 1.490 . S
C252 H242 0.930 . S
C252 C251 1.400 . S
C252 C255 1.386 . S
H253 C269 0.930 . S
H254 C270 0.931 . S
C255 H243 0.929 . S
C255 C249 1.390 . S
C255 C252 1.386 . S
C256 C251 1.490 . S
C256 C258 1.395 . S
C256 C259 1.403 . S
H257 C263 0.930 . S
C258 H244 0.930 . S
C258 C256 1.395 . S
C258 C261 1.403 . S
C259 C256 1.403 . S
C259 C260 1.524 . S
C259 C263 1.400 . S
C260 H245 0.960 . S
C260 H246 0.960 . S
C260 H247 0.960 . S
C260 C259 1.524 . S
C261 C258 1.403 . S
C261 C262 1.392 . S
C261 C265 1.495 . S
C262 C261 1.392 . S
C262 C263 1.385 . S
C262 C264 1.478 . S
C263 H257 0.930 . S
C263 C259 1.400 . S
C263 C262 1.385 . S
C264 C262 1.478 . S
C264 C266 1.381 . S
C264 C270 1.383 . S
C265 C261 1.495 . S
C265 H271 0.959 . S
C265 H272 0.961 . S
C265 H273 0.960 . S
C266 C264 1.381 . S
C266 C267 1.394 . S
C266 H274 0.930 . S
C267 C266 1.394 . S
C267 C268 1.383 . S
C267 H275 0.929 . S
C268 C267 1.383 . S
C268 C269 1.377 . S
C269 H253 0.930 . S
C269 C268 1.377 . S
C269 C270 1.379 . S
C270 H254 0.931 . S
C270 C264 1.383 . S
C270 C269 1.379 . S
H271 C265 0.959 . S
H272 C265 0.961 . S
H273 C265 0.960 . S
H274 C266 0.930 . S
H275 C267 0.929 . S
H276 C284 0.929 . S
H277 C286 0.930 . S
H278 C288 0.930 . S
H279 C291 0.929 . S
H280 C294 0.930 . S
H281 C296 0.960 . S
H282 C296 0.960 . S
H283 C296 0.960 . S
C284 H276 0.929 . S
C284 C285 1.377 . S
C284 C286 1.384 . S
C285 C284 1.377 . S
C285 C291 1.390 1_655 S
C286 H277 0.930 . S
C286 C284 1.384 . S
C286 C287 1.372 . S
C287 C286 1.372 . S
C287 C288 1.400 1_655 S
C287 C292 1.490 . S
C288 H278 0.930 . S
C288 C287 1.400 1_455 S
C288 C291 1.386 . S
H289 C305 0.930 . S
H290 C306 0.931 . S
C291 H279 0.929 . S
C291 C285 1.390 1_455 S
C291 C288 1.386 . S
C292 C287 1.490 . S
C292 C294 1.395 1_655 S
C292 C295 1.403 . S
H293 C299 0.930 . S
C294 H280 0.930 . S
C294 C292 1.395 1_455 S
C294 C297 1.403 . S
C295 C292 1.403 . S
C295 C296 1.524 . S
C295 C299 1.400 . S
C296 H281 0.960 . S
C296 H282 0.960 . S
C296 H283 0.960 . S
C296 C295 1.524 . S
C297 C294 1.403 . S
C297 C298 1.392 . S
C297 C301 1.495 . S
C298 C297 1.392 . S
C298 C299 1.385 1_455 S
C298 C300 1.478 . S
C299 H293 0.930 . S
C299 C295 1.400 . S
C299 C298 1.385 1_655 S
C300 C298 1.478 . S
C300 C302 1.381 1_455 S
C300 C306 1.383 . S
C301 C297 1.495 . S
C301 H307 0.959 . S
C301 H308 0.961 . S
C301 H309 0.960 . S
C302 C300 1.381 1_655 S
C302 C303 1.394 . S
C302 H310 0.930 . S
C303 C302 1.394 . S
C303 C304 1.383 1_655 S
C303 H311 0.929 . S
C304 C303 1.383 1_455 S
C304 C305 1.377 . S
C305 H289 0.930 . S
C305 C304 1.377 . S
C305 C306 1.379 . S
C306 H290 0.931 . S
C306 C300 1.383 . S
C306 C305 1.379 . S
H307 C301 0.959 . S
H308 C301 0.961 . S
H309 C301 0.960 . S
H310 C302 0.930 . S
H311 C303 0.929 . S
H312 C320 0.929 . S
H313 C322 0.930 . S
H314 C324 0.930 . S
H315 C327 0.929 . S
H316 C330 0.930 . S
H317 C332 0.960 . S
H318 C332 0.960 . S
H319 C332 0.960 . S
C320 H312 0.929 . S
C320 C321 1.377 1_565 S
C320 C322 1.384 . S
C321 C320 1.377 1_545 S
C321 C327 1.390 . S
C322 H313 0.930 . S
C322 C320 1.384 . S
C322 C323 1.372 1_565 S
C323 C322 1.372 1_545 S
C323 C324 1.400 . S
C323 C328 1.490 . S
C324 H314 0.930 . S
C324 C323 1.400 . S
C324 C327 1.386 . S
H325 C341 0.930 . S
H326 C342 0.931 . S
C327 H315 0.929 . S
C327 C321 1.390 . S
C327 C324 1.386 . S
C328 C323 1.490 . S
C328 C330 1.395 1_545 S
C328 C331 1.403 . S
H329 C335 0.930 . S
C330 H316 0.930 . S
C330 C328 1.395 1_565 S
C330 C333 1.403 . S
C331 C328 1.403 . S
C331 C332 1.524 . S
C331 C335 1.400 . S
C332 H317 0.960 . S
C332 H318 0.960 . S
C332 H319 0.960 . S
C332 C331 1.524 . S
C333 C330 1.403 . S
C333 C334 1.392 . S
C333 C337 1.495 . S
C334 C333 1.392 . S
C334 C335 1.385 1_565 S
C334 C336 1.478 . S
C335 H329 0.930 . S
C335 C331 1.400 . S
C335 C334 1.385 1_545 S
C336 C334 1.478 . S
C336 C338 1.381 . S
C336 C342 1.383 1_565 S
C337 C333 1.495 . S
C337 H343 0.959 . S
C337 H344 0.961 . S
C337 H345 0.960 . S
C338 C336 1.381 . S
C338 C339 1.394 . S
C338 H346 0.930 . S
C339 C338 1.394 . S
C339 C340 1.383 . S
C339 H347 0.929 . S
C340 C339 1.383 . S
C340 C341 1.377 1_565 S
C341 H325 0.930 . S
C341 C340 1.377 1_545 S
C341 C342 1.379 . S
C342 H326 0.931 . S
C342 C336 1.383 1_545 S
C342 C341 1.379 . S
H343 C337 0.959 . S
H344 C337 0.961 . S
H345 C337 0.960 . S
H346 C338 0.930 . S
H347 C339 0.929 . S
H348 C356 0.929 . S
H349 C358 0.930 . S
H350 C360 0.930 . S
H351 C363 0.929 . S
H352 C366 0.930 . S
H353 C368 0.960 . S
H354 C368 0.960 . S
H355 C368 0.960 . S
C356 H348 0.929 . S
C356 C357 1.377 . S
C356 C358 1.384 . S
C357 C356 1.377 . S
C357 C363 1.390 . S
C358 H349 0.930 . S
C358 C356 1.384 . S
C358 C359 1.372 . S
C359 C358 1.372 . S
C359 C360 1.400 . S
C359 C364 1.490 . S
C360 H350 0.930 . S
C360 C359 1.400 . S
C360 C363 1.386 . S
H361 C377 0.930 . S
H362 C378 0.931 . S
C363 H351 0.929 . S
C363 C357 1.390 . S
C363 C360 1.386 . S
C364 C359 1.490 . S
C364 C366 1.395 . S
C364 C367 1.403 . S
H365 C371 0.930 . S
C366 H352 0.930 . S
C366 C364 1.395 . S
C366 C369 1.403 . S
C367 C364 1.403 . S
C367 C368 1.524 . S
C367 C371 1.400 . S
C368 H353 0.960 . S
C368 H354 0.960 . S
C368 H355 0.960 . S
C368 C367 1.524 . S
C369 C366 1.403 . S
C369 C370 1.392 . S
C369 C373 1.495 . S
C370 C369 1.392 . S
C370 C371 1.385 . S
C370 C372 1.478 . S
C371 H365 0.930 . S
C371 C367 1.400 . S
C371 C370 1.385 . S
C372 C370 1.478 . S
C372 C374 1.381 . S
C372 C378 1.383 . S
C373 C369 1.495 . S
C373 H379 0.959 . S
C373 H380 0.961 . S
C373 H381 0.960 . S
C374 C372 1.381 . S
C374 C375 1.394 . S
C374 H382 0.930 . S
C375 C374 1.394 . S
C375 C376 1.383 . S
C375 H383 0.929 . S
C376 C375 1.383 . S
C376 C377 1.377 . S
C377 H361 0.930 . S
C377 C376 1.377 . S
C377 C378 1.379 . S
C378 H362 0.931 . S
C378 C372 1.383 . S
C378 C377 1.379 . S
H379 C373 0.959 . S
H380 C373 0.961 . S
H381 C373 0.960 . S
H382 C374 0.930 . S
H383 C375 0.929 . S
H384 C392 0.929 . S
H385 C394 0.930 . S
H386 C396 0.930 . S
H387 C399 0.929 . S
H388 C402 0.930 . S
H389 C404 0.960 . S
H390 C404 0.960 . S
H391 C404 0.960 . S
C392 H384 0.929 . S
C392 C393 1.377 . S
C392 C394 1.384 . S
C393 C392 1.377 . S
C393 C399 1.390 . S
C394 H385 0.930 . S
C394 C392 1.384 . S
C394 C395 1.372 . S
C395 C394 1.372 . S
C395 C396 1.400 . S
C395 C400 1.490 . S
C396 H386 0.930 . S
C396 C395 1.400 . S
C396 C399 1.386 . S
H397 C413 0.930 . S
H398 C414 0.931 . S
C399 H387 0.929 . S
C399 C393 1.390 . S
C399 C396 1.386 . S
C400 C395 1.490 . S
C400 C402 1.395 . S
C400 C403 1.403 . S
H401 C407 0.930 . S
C402 H388 0.930 . S
C402 C400 1.395 . S
C402 C405 1.403 1_554 S
C403 C400 1.403 . S
C403 C404 1.524 . S
C403 C407 1.400 1_554 S
C404 H389 0.960 . S
C404 H390 0.960 . S
C404 H391 0.960 . S
C404 C403 1.524 . S
C405 C402 1.403 1_556 S
C405 C406 1.392 . S
C405 C409 1.495 . S
C406 C405 1.392 . S
C406 C407 1.385 . S
C406 C408 1.478 . S
C407 H401 0.930 . S
C407 C403 1.400 1_556 S
C407 C406 1.385 . S
C408 C406 1.478 . S
C408 C410 1.381 . S
C408 C414 1.383 . S
C409 C405 1.495 . S
C409 H415 0.959 . S
C409 H416 0.961 . S
C409 H417 0.960 . S
C410 C408 1.381 . S
C410 C411 1.394 . S
C410 H418 0.930 . S
C411 C410 1.394 . S
C411 C412 1.383 . S
C411 H419 0.929 . S
C412 C411 1.383 . S
C412 C413 1.377 . S
C413 H397 0.930 . S
C413 C412 1.377 . S
C413 C414 1.379 . S
C414 H398 0.931 . S
C414 C408 1.383 . S
C414 C413 1.379 . S
H415 C409 0.959 . S
H416 C409 0.961 . S
H417 C409 0.960 . S
H418 C410 0.930 . S
H419 C411 0.929 . S
H420 C428 0.929 . S
H421 C430 0.930 . S
H422 C432 0.930 . S
H423 C435 0.929 . S
H424 C438 0.930 . S
H425 C440 0.960 . S
H426 C440 0.960 . S
H427 C440 0.960 . S
C428 H420 0.929 . S
C428 C429 1.377 . S
C428 C430 1.384 . S
C429 C428 1.377 . S
C429 C435 1.390 . S
C430 H421 0.930 . S
C430 C428 1.384 . S
C430 C431 1.372 . S
C431 C430 1.372 . S
C431 C432 1.400 . S
C431 C436 1.490 . S
C432 H422 0.930 . S
C432 C431 1.400 . S
C432 C435 1.386 . S
H433 C449 0.930 . S
H434 C450 0.931 . S
C435 H423 0.929 . S
C435 C429 1.390 . S
C435 C432 1.386 . S
C436 C431 1.490 . S
C436 C438 1.395 . S
C436 C439 1.403 . S
H437 C443 0.930 . S
C438 H424 0.930 . S
C438 C436 1.395 . S
C438 C441 1.403 . S
C439 C436 1.403 . S
C439 C440 1.524 . S
C439 C443 1.400 . S
C440 H425 0.960 . S
C440 H426 0.960 . S
C440 H427 0.960 . S
C440 C439 1.524 . S
C441 C438 1.403 . S
C441 C442 1.392 . S
C441 C445 1.495 . S
C442 C441 1.392 . S
C442 C443 1.385 . S
C442 C444 1.478 . S
C443 H437 0.930 . S
C443 C439 1.400 . S
C443 C442 1.385 . S
C444 C442 1.478 . S
C444 C446 1.381 . S
C444 C450 1.383 . S
C445 C441 1.495 . S
C445 H451 0.959 . S
C445 H452 0.961 . S
C445 H453 0.960 . S
C446 C444 1.381 . S
C446 C447 1.394 . S
C446 H454 0.930 . S
C447 C446 1.394 . S
C447 C448 1.383 . S
C447 H455 0.929 . S
C448 C447 1.383 . S
C448 C449 1.377 . S
C449 H433 0.930 . S
C449 C448 1.377 . S
C449 C450 1.379 . S
C450 H434 0.931 . S
C450 C444 1.383 . S
C450 C449 1.379 . S
H451 C445 0.959 . S
H452 C445 0.961 . S
H453 C445 0.960 . S
H454 C446 0.930 . S
H455 C447 0.929 . S
H456 C464 0.929 . S
H457 C466 0.930 . S
H458 C468 0.930 . S
H459 C471 0.929 . S
H460 C474 0.930 . S
H461 C476 0.960 . S
H462 C476 0.960 . S
H463 C476 0.960 . S
C464 H456 0.929 . S
C464 C465 1.377 . S
C464 C466 1.384 . S
C465 C464 1.377 . S
C465 C471 1.390 . S
C466 H457 0.930 . S
C466 C464 1.384 . S
C466 C467 1.372 . S
C467 C466 1.372 . S
C467 C468 1.400 . S
C467 C472 1.490 . S
C468 H458 0.930 . S
C468 C467 1.400 . S
C468 C471 1.386 . S
H469 C485 0.930 . S
H470 C486 0.931 . S
C471 H459 0.929 . S
C471 C465 1.390 . S
C471 C468 1.386 . S
C472 C467 1.490 . S
C472 C474 1.395 . S
C472 C475 1.403 . S
H473 C479 0.930 . S
C474 H460 0.930 . S
C474 C472 1.395 . S
C474 C477 1.403 . S
C475 C472 1.403 . S
C475 C476 1.524 . S
C475 C479 1.400 . S
C476 H461 0.960 . S
C476 H462 0.960 . S
C476 H463 0.960 . S
C476 C475 1.524 . S
C477 C474 1.403 . S
C477 C478 1.392 . S
C477 C481 1.495 . S
C478 C477 1.392 . S
C478 C479 1.385 . S
C478 C480 1.478 . S
C479 H473 0.930 . S
C479 C475 1.400 . S
C479 C478 1.385 . S
C480 C478 1.478 . S
C480 C482 1.381 . S
C480 C486 1.383 . S
C481 C477 1.495 . S
C481 H487 0.959 . S
C481 H488 0.961 . S
C481 H489 0.960 . S
C482 C480 1.381 . S
C482 C483 1.394 . S
C482 H490 0.930 . S
C483 C482 1.394 . S
C483 C484 1.383 . S
C483 H491 0.929 . S
C484 C483 1.383 . S
C484 C485 1.377 . S
C485 H469 0.930 . S
C485 C484 1.377 . S
C485 C486 1.379 . S
C486 H470 0.931 . S
C486 C480 1.383 . S
C486 C485 1.379 . S
H487 C481 0.959 . S
H488 C481 0.961 . S
H489 C481 0.960 . S
H490 C482 0.930 . S
H491 C483 0.929 . S
H492 C500 0.929 . S
H493 C502 0.930 . S
H494 C504 0.930 . S
H495 C507 0.929 . S
H496 C510 0.930 . S
H497 C512 0.960 . S
H498 C512 0.960 . S
H499 C512 0.960 . S
C500 H492 0.929 . S
C500 C501 1.377 . S
C500 C502 1.384 . S
C501 C500 1.377 . S
C501 C507 1.390 . S
C502 H493 0.930 . S
C502 C500 1.384 . S
C502 C503 1.372 . S
C503 C502 1.372 . S
C503 C504 1.400 . S
C503 C508 1.490 . S
C504 H494 0.930 . S
C504 C503 1.400 . S
C504 C507 1.386 . S
H505 C521 0.930 . S
H506 C522 0.931 . S
C507 H495 0.929 . S
C507 C501 1.390 . S
C507 C504 1.386 . S
C508 C503 1.490 . S
C508 C510 1.395 . S
C508 C511 1.403 . S
H509 C515 0.930 . S
C510 H496 0.930 . S
C510 C508 1.395 . S
C510 C513 1.403 1_554 S
C511 C508 1.403 . S
C511 C512 1.524 . S
C511 C515 1.400 1_554 S
C512 H497 0.960 . S
C512 H498 0.960 . S
C512 H499 0.960 . S
C512 C511 1.524 . S
C513 C510 1.403 1_556 S
C513 C514 1.392 . S
C513 C517 1.495 . S
C514 C513 1.392 . S
C514 C515 1.385 . S
C514 C516 1.478 . S
C515 H509 0.930 . S
C515 C511 1.400 1_556 S
C515 C514 1.385 . S
C516 C514 1.478 . S
C516 C518 1.381 . S
C516 C522 1.383 . S
C517 C513 1.495 . S
C517 H523 0.959 . S
C517 H524 0.961 . S
C517 H525 0.960 . S
C518 C516 1.381 . S
C518 C519 1.394 . S
C518 H526 0.930 . S
C519 C518 1.394 . S
C519 C520 1.383 . S
C519 H527 0.929 . S
C520 C519 1.383 . S
C520 C521 1.377 . S
C521 H505 0.930 . S
C521 C520 1.377 . S
C521 C522 1.379 . S
C522 H506 0.931 . S
C522 C516 1.383 . S
C522 C521 1.379 . S
H523 C517 0.959 . S
H524 C517 0.961 . S
H525 C517 0.960 . S
H526 C518 0.930 . S
H527 C519 0.929 . S
H528 C536 0.929 . S
H529 C538 0.930 . S
H530 C540 0.930 . S
H531 C543 0.929 . S
H532 C546 0.930 . S
H533 C548 0.960 . S
H534 C548 0.960 . S
H535 C548 0.960 . S
C536 H528 0.929 . S
C536 C537 1.377 . S
C536 C538 1.384 . S
C537 C536 1.377 . S
C537 C543 1.390 . S
C538 H529 0.930 . S
C538 C536 1.384 . S
C538 C539 1.372 . S
C539 C538 1.372 . S
C539 C540 1.400 . S
C539 C544 1.490 . S
C540 H530 0.930 . S
C540 C539 1.400 . S
C540 C543 1.386 . S
H541 C557 0.930 . S
H542 C558 0.931 . S
C543 H531 0.929 . S
C543 C537 1.390 . S
C543 C540 1.386 . S
C544 C539 1.490 . S
C544 C546 1.395 . S
C544 C547 1.403 . S
H545 C551 0.930 . S
C546 H532 0.930 . S
C546 C544 1.395 . S
C546 C549 1.403 . S
C547 C544 1.403 . S
C547 C548 1.524 . S
C547 C551 1.400 . S
C548 H533 0.960 . S
C548 H534 0.960 . S
C548 H535 0.960 . S
C548 C547 1.524 . S
C549 C546 1.403 . S
C549 C550 1.392 . S
C549 C553 1.495 . S
C550 C549 1.392 . S
C550 C551 1.385 . S
C550 C552 1.478 . S
C551 H545 0.930 . S
C551 C547 1.400 . S
C551 C550 1.385 . S
C552 C550 1.478 . S
C552 C554 1.381 . S
C552 C558 1.383 . S
C553 C549 1.495 . S
C553 H559 0.959 . S
C553 H560 0.961 . S
C553 H561 0.960 . S
C554 C552 1.381 . S
C554 C555 1.394 . S
C554 H562 0.930 . S
C555 C554 1.394 . S
C555 C556 1.383 . S
C555 H563 0.929 . S
C556 C555 1.383 . S
C556 C557 1.377 . S
C557 H541 0.930 . S
C557 C556 1.377 . S
C557 C558 1.379 . S
C558 H542 0.931 . S
C558 C552 1.383 . S
C558 C557 1.379 . S
H559 C553 0.959 . S
H560 C553 0.961 . S
H561 C553 0.960 . S
H562 C554 0.930 . S
H563 C555 0.929 . S
H564 C572 0.929 . S
H565 C574 0.930 . S
H566 C576 0.930 . S
H567 C579 0.929 . S
H568 C582 0.930 . S
H569 C584 0.960 . S
H570 C584 0.960 . S
H571 C584 0.960 . S
C572 H564 0.929 . S
C572 C573 1.377 . S
C572 C574 1.384 . S
C573 C572 1.377 . S
C573 C579 1.390 . S
C574 H565 0.930 . S
C574 C572 1.384 . S
C574 C575 1.372 . S
C575 C574 1.372 . S
C575 C576 1.400 . S
C575 C580 1.490 . S
C576 H566 0.930 . S
C576 C575 1.400 . S
C576 C579 1.386 . S
H577 C593 0.930 . S
H578 C594 0.931 . S
C579 H567 0.929 . S
C579 C573 1.390 . S
C579 C576 1.386 . S
C580 C575 1.490 . S
C580 C582 1.395 . S
C580 C583 1.403 . S
H581 C587 0.930 . S
C582 H568 0.930 . S
C582 C580 1.395 . S
C582 C585 1.403 . S
C583 C580 1.403 . S
C583 C584 1.524 . S
C583 C587 1.400 . S
C584 H569 0.960 . S
C584 H570 0.960 . S
C584 H571 0.960 . S
C584 C583 1.524 . S
C585 C582 1.403 . S
C585 C586 1.392 . S
C585 C589 1.495 . S
C586 C585 1.392 . S
C586 C587 1.385 . S
C586 C588 1.478 . S
C587 H581 0.930 . S
C587 C583 1.400 . S
C587 C586 1.385 . S
C588 C586 1.478 . S
C588 C590 1.381 . S
C588 C594 1.383 . S
C589 C585 1.495 . S
C589 H595 0.959 . S
C589 H596 0.961 . S
C589 H597 0.960 . S
C590 C588 1.381 . S
C590 C591 1.394 . S
C590 H598 0.930 . S
C591 C590 1.394 . S
C591 C592 1.383 . S
C591 H599 0.929 . S
C592 C591 1.383 . S
C592 C593 1.377 . S
C593 H577 0.930 . S
C593 C592 1.377 . S
C593 C594 1.379 . S
C594 H578 0.931 . S
C594 C588 1.383 . S
C594 C593 1.379 . S
H595 C589 0.959 . S
H596 C589 0.961 . S
H597 C589 0.960 . S
H598 C590 0.930 . S
H599 C591 0.929 . S
H600 C608 0.929 . S
H601 C610 0.930 . S
H602 C612 0.930 . S
H603 C615 0.941 . S
H604 C618 0.930 . S
H605 C620 0.960 . S
H606 C620 0.960 . S
H607 C620 0.960 . S
C608 H600 0.929 . S
C608 C609 1.377 . S
C608 C610 1.384 . S
C609 C608 1.377 . S
C609 C615 1.356 1_655 S
C610 H601 0.930 . S
C610 C608 1.384 . S
C610 C611 1.372 . S
C611 C610 1.372 . S
C611 C612 1.400 1_655 S
C611 C616 1.490 . S
C612 H602 0.930 . S
C612 C611 1.400 1_455 S
C612 C615 1.409 . S
H613 C629 0.930 . S
H614 C630 0.931 . S
C615 H603 0.941 . S
C615 C609 1.356 1_455 S
C615 C612 1.409 . S
C616 C611 1.490 . S
C616 C618 1.395 . S
C616 C619 1.403 1_655 S
H617 C623 0.930 . S
C618 H604 0.930 . S
C618 C616 1.395 . S
C618 C621 1.403 . S
C619 C616 1.403 1_455 S
C619 C620 1.524 . S
C619 C623 1.400 . S
C620 H605 0.960 . S
C620 H606 0.960 . S
C620 H607 0.960 . S
C620 C619 1.524 . S
C621 C618 1.403 . S
C621 C622 1.392 1_655 S
C621 C625 1.495 . S
C622 C621 1.392 1_455 S
C622 C623 1.385 . S
C622 C624 1.478 . S
C623 H617 0.930 . S
C623 C619 1.400 . S
C623 C622 1.385 . S
C624 C622 1.478 . S
C624 C626 1.381 1_455 S
C624 C630 1.383 . S
C625 C621 1.495 . S
C625 H631 0.959 . S
C625 H632 0.961 . S
C625 H633 0.960 . S
C626 C624 1.381 1_655 S
C626 C627 1.394 . S
C626 H634 0.930 . S
C627 C626 1.394 . S
C627 C628 1.383 1_655 S
C627 H635 0.929 . S
C628 C627 1.383 1_455 S
C628 C629 1.377 . S
C629 H613 0.930 . S
C629 C628 1.377 . S
C629 C630 1.379 . S
C630 H614 0.931 . S
C630 C624 1.383 . S
C630 C629 1.379 . S
H631 C625 0.959 . S
H632 C625 0.961 . S
H633 C625 0.960 . S
H634 C626 0.930 . S
H635 C627 0.929 . S
H636 C644 0.929 . S
H637 C646 0.930 . S
H638 C648 0.930 . S
H639 C651 0.929 . S
H640 C654 0.930 . S
H641 C656 0.960 . S
H642 C656 0.960 . S
H643 C656 0.960 . S
C644 H636 0.929 . S
C644 C645 1.377 . S
C644 C646 1.384 . S
C645 C644 1.377 . S
C645 C651 1.390 . S
C646 H637 0.930 . S
C646 C644 1.384 . S
C646 C647 1.372 . S
C647 C646 1.372 . S
C647 C648 1.400 . S
C647 C652 1.490 . S
C648 H638 0.930 . S
C648 C647 1.400 . S
C648 C651 1.386 . S
H649 C665 0.930 . S
H650 C666 0.931 . S
C651 H639 0.929 . S
C651 C645 1.390 . S
C651 C648 1.386 . S
C652 C647 1.490 . S
C652 C654 1.395 1_545 S
C652 C655 1.403 . S
H653 C659 0.930 . S
C654 H640 0.930 . S
C654 C652 1.395 1_565 S
C654 C657 1.403 . S
C655 C652 1.403 . S
C655 C656 1.524 . S
C655 C659 1.400 . S
C656 H641 0.960 . S
C656 H642 0.960 . S
C656 H643 0.960 . S
C656 C655 1.524 . S
C657 C654 1.403 . S
C657 C658 1.392 . S
C657 C661 1.495 . S
C658 C657 1.392 . S
C658 C659 1.385 1_565 S
C658 C660 1.478 . S
C659 H653 0.930 . S
C659 C655 1.400 . S
C659 C658 1.385 1_545 S
C660 C658 1.478 . S
C660 C662 1.381 . S
C660 C666 1.383 . S
C661 C657 1.495 . S
C661 H667 0.959 . S
C661 H668 0.961 . S
C661 H669 0.960 . S
C662 C660 1.381 . S
C662 C663 1.394 . S
C662 H670 0.930 . S
C663 C662 1.394 . S
C663 C664 1.383 . S
C663 H671 0.929 . S
C664 C663 1.383 . S
C664 C665 1.377 . S
C665 H649 0.930 . S
C665 C664 1.377 . S
C665 C666 1.379 . S
C666 H650 0.931 . S
C666 C660 1.383 . S
C666 C665 1.379 . S
H667 C661 0.959 . S
H668 C661 0.961 . S
H669 C661 0.960 . S
H670 C662 0.930 . S
H671 C663 0.929 . S
H672 C680 0.929 . S
H673 C682 0.930 . S
H674 C684 0.930 . S
H675 C687 0.929 . S
H676 C690 0.930 . S
H677 C692 0.960 . S
H678 C692 0.960 . S
H679 C692 0.960 . S
C680 H672 0.929 . S
C680 C681 1.377 . S
C680 C682 1.384 . S
C681 C680 1.377 . S
C681 C687 1.390 . S
C682 H673 0.930 . S
C682 C680 1.384 . S
C682 C683 1.372 . S
C683 C682 1.372 . S
C683 C684 1.400 . S
C683 C688 1.490 . S
C684 H674 0.930 . S
C684 C683 1.400 . S
C684 C687 1.386 . S
H685 C701 0.930 . S
H686 C702 0.931 . S
C687 H675 0.929 . S
C687 C681 1.390 . S
C687 C684 1.386 . S
C688 C683 1.490 . S
C688 C690 1.395 . S
C688 C691 1.403 . S
H689 C695 0.930 . S
C690 H676 0.930 . S
C690 C688 1.395 . S
C690 C693 1.403 . S
C691 C688 1.403 . S
C691 C692 1.524 . S
C691 C695 1.400 . S
C692 H677 0.960 . S
C692 H678 0.960 . S
C692 H679 0.960 . S
C692 C691 1.524 . S
C693 C690 1.403 . S
C693 C694 1.392 . S
C693 C697 1.495 . S
C694 C693 1.392 . S
C694 C695 1.385 . S
C694 C696 1.478 . S
C695 H689 0.930 . S
C695 C691 1.400 . S
C695 C694 1.385 . S
C696 C694 1.478 . S
C696 C698 1.381 . S
C696 C702 1.383 . S
C697 C693 1.495 . S
C697 H703 0.959 . S
C697 H704 0.961 . S
C697 H705 0.960 . S
C698 C696 1.381 . S
C698 C699 1.394 . S
C698 H706 0.930 . S
C699 C698 1.394 . S
C699 C700 1.383 . S
C699 H707 0.929 . S
C700 C699 1.383 . S
C700 C701 1.377 . S
C701 H685 0.930 . S
C701 C700 1.377 . S
C701 C702 1.379 . S
C702 H686 0.931 . S
C702 C696 1.383 . S
C702 C701 1.379 . S
H703 C697 0.959 . S
H704 C697 0.961 . S
H705 C697 0.960 . S
H706 C698 0.930 . S
H707 C699 0.929 . S
H708 C716 0.929 . S
H709 C718 0.930 . S
H710 C720 0.930 . S
H711 C723 0.929 . S
H712 C726 0.930 . S
H713 C728 0.960 . S
H714 C728 0.960 . S
H715 C728 0.960 . S
C716 H708 0.929 . S
C716 C717 1.377 . S
C716 C718 1.384 . S
C717 C716 1.377 . S
C717 C723 1.390 . S
C718 H709 0.930 . S
C718 C716 1.384 . S
C718 C719 1.372 . S
C719 C718 1.372 . S
C719 C720 1.400 . S
C719 C724 1.490 . S
C720 H710 0.930 . S
C720 C719 1.400 . S
C720 C723 1.386 . S
H721 C737 0.930 . S
H722 C738 0.931 1_545 S
C723 H711 0.929 . S
C723 C717 1.390 . S
C723 C720 1.386 . S
C724 C719 1.490 . S
C724 C726 1.395 . S
C724 C727 1.403 1_545 S
H725 C731 0.930 . S
C726 H712 0.930 . S
C726 C724 1.395 . S
C726 C729 1.403 . S
C727 C724 1.403 1_565 S
C727 C728 1.524 . S
C727 C731 1.400 . S
C728 H713 0.960 . S
C728 H714 0.960 . S
C728 H715 0.960 . S
C728 C727 1.524 . S
C729 C726 1.403 . S
C729 C730 1.392 1_545 S
C729 C733 1.495 . S
C730 C729 1.392 1_565 S
C730 C731 1.385 . S
C730 C732 1.478 . S
C731 H725 0.930 . S
C731 C727 1.400 . S
C731 C730 1.385 . S
C732 C730 1.478 . S
C732 C734 1.381 . S
C732 C738 1.383 . S
C733 C729 1.495 . S
C733 H739 0.959 . S
C733 H740 0.961 . S
C733 H741 0.960 . S
C734 C732 1.381 . S
C734 C735 1.394 . S
C734 H742 0.930 . S
C735 C734 1.394 . S
C735 C736 1.383 . S
C735 H743 0.929 . S
C736 C735 1.383 . S
C736 C737 1.377 . S
C737 H721 0.930 . S
C737 C736 1.377 . S
C737 C738 1.379 . S
C738 H722 0.931 1_565 S
C738 C732 1.383 . S
C738 C737 1.379 . S
H739 C733 0.959 . S
H740 C733 0.961 . S
H741 C733 0.960 . S
H742 C734 0.930 . S
H743 C735 0.929 . S
H744 C752 0.929 . S
H745 C754 0.930 . S
H746 C756 0.930 . S
H747 C759 0.929 . S
H748 C762 0.930 . S
H749 C764 0.960 . S
H750 C764 0.960 . S
H751 C764 0.960 . S
C752 H744 0.929 . S
C752 C753 1.377 . S
C752 C754 1.384 . S
C753 C752 1.377 . S
C753 C759 1.390 . S
C754 H745 0.930 . S
C754 C752 1.384 . S
C754 C755 1.372 . S
C755 C754 1.372 . S
C755 C756 1.400 . S
C755 C760 1.490 . S
C756 H746 0.930 . S
C756 C755 1.400 . S
C756 C759 1.386 . S
H757 C773 0.930 . S
H758 C774 0.931 . S
C759 H747 0.929 . S
C759 C753 1.390 . S
C759 C756 1.386 . S
C760 C755 1.490 . S
C760 C762 1.395 . S
C760 C763 1.403 . S
H761 C767 0.930 . S
C762 H748 0.930 . S
C762 C760 1.395 . S
C762 C765 1.403 . S
C763 C760 1.403 . S
C763 C764 1.524 . S
C763 C767 1.400 . S
C764 H749 0.960 . S
C764 H750 0.960 . S
C764 H751 0.960 . S
C764 C763 1.524 . S
C765 C762 1.403 . S
C765 C766 1.392 . S
C765 C769 1.495 . S
C766 C765 1.392 . S
C766 C767 1.385 . S
C766 C768 1.478 . S
C767 H761 0.930 . S
C767 C763 1.400 . S
C767 C766 1.385 . S
C768 C766 1.478 . S
C768 C770 1.381 . S
C768 C774 1.383 . S
C769 C765 1.495 . S
C769 H775 0.959 . S
C769 H776 0.961 . S
C769 H777 0.960 . S
C770 C768 1.381 . S
C770 C771 1.394 . S
C770 H778 0.930 . S
C771 C770 1.394 . S
C771 C772 1.383 . S
C771 H779 0.929 . S
C772 C771 1.383 . S
C772 C773 1.377 . S
C773 H757 0.930 . S
C773 C772 1.377 . S
C773 C774 1.379 . S
C774 H758 0.931 . S
C774 C768 1.383 . S
C774 C773 1.379 . S
H775 C769 0.959 . S
H776 C769 0.961 . S
H777 C769 0.960 . S
H778 C770 0.930 . S
H779 C771 0.929 . S
H780 C788 0.929 1_655 S
H781 C790 0.930 . S
H782 C792 0.930 . S
H783 C795 0.929 . S
H784 C798 0.930 . S
H785 C800 0.960 . S
H786 C800 0.960 . S
H787 C800 0.960 . S
C788 H780 0.929 1_455 S
C788 C789 1.377 . S
C788 C790 1.384 1_455 S
C789 C788 1.377 . S
C789 C795 1.390 . S
C790 H781 0.930 . S
C790 C788 1.384 1_655 S
C790 C791 1.372 1_655 S
C791 C790 1.372 1_455 S
C791 C792 1.400 . S
C791 C796 1.490 . S
C792 H782 0.930 . S
C792 C791 1.400 . S
C792 C795 1.386 . S
H793 C809 0.930 . S
H794 C810 0.931 1_455 S
C795 H783 0.929 . S
C795 C789 1.390 . S
C795 C792 1.386 . S
C796 C791 1.490 . S
C796 C798 1.395 1_455 S
C796 C799 1.403 . S
H797 C803 0.930 . S
C798 H784 0.930 . S
C798 C796 1.395 1_655 S
C798 C801 1.403 . S
C799 C796 1.403 . S
C799 C800 1.524 . S
C799 C803 1.400 . S
C800 H785 0.960 . S
C800 H786 0.960 . S
C800 H787 0.960 . S
C800 C799 1.524 . S
C801 C798 1.403 . S
C801 C802 1.392 . S
C801 C805 1.495 . S
C802 C801 1.392 . S
C802 C803 1.385 1_655 S
C802 C804 1.478 . S
C803 H797 0.930 . S
C803 C799 1.400 . S
C803 C802 1.385 1_455 S
C804 C802 1.478 . S
C804 C806 1.381 . S
C804 C810 1.383 . S
C805 C801 1.495 . S
C805 H811 0.959 . S
C805 H812 0.961 . S
C805 H813 0.960 . S
C806 C804 1.381 . S
C806 C807 1.394 . S
C806 H814 0.930 . S
C807 C806 1.394 . S
C807 C808 1.383 . S
C807 H815 0.929 . S
C808 C807 1.383 . S
C808 C809 1.377 . S
C809 H793 0.930 . S
C809 C808 1.377 . S
C809 C810 1.379 . S
C810 H794 0.931 1_655 S
C810 C804 1.383 . S
C810 C809 1.379 . S
H811 C805 0.959 . S
H812 C805 0.961 . S
H813 C805 0.960 . S
H814 C806 0.930 . S
H815 C807 0.929 . S
H816 C824 0.929 . S
H817 C826 0.930 . S
H818 C828 0.930 1_655 S
H819 C831 0.929 . S
H820 C834 0.930 . S
H821 C836 0.960 1_565 S
H822 C836 0.960 . S
H823 C836 0.960 . S
C824 H816 0.929 . S
C824 C825 1.377 . S
C824 C826 1.384 . S
C825 C824 1.377 . S
C825 C831 1.390 . S
C826 H817 0.930 . S
C826 C824 1.384 . S
C826 C827 1.372 . S
C827 C826 1.372 . S
C827 C828 1.400 . S
C827 C832 1.490 . S
C828 H818 0.930 1_455 S
C828 C827 1.400 . S
C828 C831 1.386 . S
H829 C845 0.930 . S
H830 C846 0.931 . S
C831 H819 0.929 . S
C831 C825 1.390 . S
C831 C828 1.386 . S
C832 C827 1.490 . S
C832 C834 1.395 . S
C832 C835 1.403 1_455 S
H833 C839 0.930 . S
C834 H820 0.930 . S
C834 C832 1.395 . S
C834 C837 1.403 1_545 S
C835 C832 1.403 1_655 S
C835 C836 1.524 . S
C835 C839 1.400 1_545 S
C836 H821 0.960 1_545 S
C836 H822 0.960 . S
C836 H823 0.960 . S
C836 C835 1.524 . S
C837 C834 1.403 1_565 S
C837 C838 1.392 1_455 S
C837 C841 1.495 . S
C838 C837 1.392 1_655 S
C838 C839 1.385 . S
C838 C840 1.478 . S
C839 H833 0.930 . S
C839 C835 1.400 1_565 S
C839 C838 1.385 . S
C840 C838 1.478 . S
C840 C842 1.381 . S
C840 C846 1.383 . S
C841 C837 1.495 . S
C841 H847 0.959 1_565 S
C841 H848 0.961 . S
C841 H849 0.960 . S
C842 C840 1.381 . S
C842 C843 1.394 . S
C842 H850 0.930 1_655 S
C843 C842 1.394 . S
C843 C844 1.383 . S
C843 H851 0.929 . S
C844 C843 1.383 . S
C844 C845 1.377 . S
C845 H829 0.930 . S
C845 C844 1.377 . S
C845 C846 1.379 . S
C846 H830 0.931 . S
C846 C840 1.383 . S
C846 C845 1.379 . S
H847 C841 0.959 1_545 S
H848 C841 0.961 . S
H849 C841 0.960 . S
H850 C842 0.930 1_455 S
H851 C843 0.929 . S
H852 C860 0.929 . S
H853 C862 0.930 . S
H854 C864 0.930 1_565 S
H855 C867 0.929 . S
H856 C870 0.930 . S
H857 C872 0.960 . S
H858 C872 0.960 . S
H859 C872 0.960 . S
C860 H852 0.929 . S
C860 C861 1.377 . S
C860 C862 1.384 . S
C861 C860 1.377 . S
C861 C867 1.390 . S
C862 H853 0.930 . S
C862 C860 1.384 . S
C862 C863 1.372 . S
C863 C862 1.372 . S
C863 C864 1.400 . S
C863 C868 1.490 . S
C864 H854 0.930 1_545 S
C864 C863 1.400 . S
C864 C867 1.386 . S
H865 C881 0.930 . S
H866 C882 0.931 . S
C867 H855 0.929 . S
C867 C861 1.390 . S
C867 C864 1.386 . S
C868 C863 1.490 . S
C868 C870 1.395 1_655 S
C868 C871 1.403 1_545 S
H869 C875 0.930 . S
C870 H856 0.930 . S
C870 C868 1.395 1_455 S
C870 C873 1.403 . S
C871 C868 1.403 1_565 S
C871 C872 1.524 . S
C871 C875 1.400 . S
C872 H857 0.960 . S
C872 H858 0.960 . S
C872 H859 0.960 . S
C872 C871 1.524 . S
C873 C870 1.403 . S
C873 C874 1.392 1_545 S
C873 C877 1.495 . S
C874 C873 1.392 1_565 S
C874 C875 1.385 1_455 S
C874 C876 1.478 . S
C875 H869 0.930 . S
C875 C871 1.400 . S
C875 C874 1.385 1_655 S
C876 C874 1.478 . S
C876 C878 1.381 . S
C876 C882 1.383 . S
C877 C873 1.495 . S
C877 H883 0.959 . S
C877 H884 0.961 . S
C877 H885 0.960 . S
C878 C876 1.381 . S
C878 C879 1.394 . S
C878 H886 0.930 1_565 S
C879 C878 1.394 . S
C879 C880 1.383 . S
C879 H887 0.929 . S
C880 C879 1.383 . S
C880 C881 1.377 . S
C881 H865 0.930 . S
C881 C880 1.377 . S
C881 C882 1.379 . S
C882 H866 0.931 . S
C882 C876 1.383 . S
C882 C881 1.379 . S
H883 C877 0.959 . S
H884 C877 0.961 . S
H885 C877 0.960 . S
H886 C878 0.930 1_545 S
H887 C879 0.929 . S
H888 C896 0.929 . S
H889 C898 0.930 . S
H890 C900 0.930 . S
H891 C903 0.929 . S
H892 C906 0.930 . S
H893 C908 0.960 1_655 S
H894 C908 0.960 . S
H895 C908 0.960 . S
C896 H888 0.929 . S
C896 C897 1.377 . S
C896 C898 1.384 . S
C897 C896 1.377 . S
C897 C903 1.390 . S
C898 H889 0.930 . S
C898 C896 1.384 . S
C898 C899 1.372 . S
C899 C898 1.372 . S
C899 C900 1.400 . S
C899 C904 1.490 . S
C900 H890 0.930 . S
C900 C899 1.400 . S
C900 C903 1.386 . S
H901 C917 0.930 . S
H902 C918 0.931 . S
C903 H891 0.929 . S
C903 C897 1.390 . S
C903 C900 1.386 . S
C904 C899 1.490 . S
C904 C906 1.395 1_545 S
C904 C907 1.403 . S
H905 C911 0.930 . S
C906 H892 0.930 . S
C906 C904 1.395 1_565 S
C906 C909 1.403 1_455 S
C907 C904 1.403 . S
C907 C908 1.524 . S
C907 C911 1.400 1_445 S
C908 H893 0.960 1_455 S
C908 H894 0.960 . S
C908 H895 0.960 . S
C908 C907 1.524 . S
C909 C906 1.403 1_655 S
C909 C910 1.392 . S
C909 C913 1.495 . S
C910 C909 1.392 . S
C910 C911 1.385 . S
C910 C912 1.478 . S
C911 H905 0.930 . S
C911 C907 1.400 1_665 S
C911 C910 1.385 . S
C912 C910 1.478 . S
C912 C914 1.381 . S
C912 C918 1.383 . S
C913 C909 1.495 . S
C913 H919 0.959 1_655 S
C913 H920 0.961 . S
C913 H921 0.960 . S
C914 C912 1.381 . S
C914 C915 1.394 . S
C914 H922 0.930 . S
C915 C914 1.394 . S
C915 C916 1.383 . S
C915 H923 0.929 . S
C916 C915 1.383 . S
C916 C917 1.377 . S
C917 H901 0.930 . S
C917 C916 1.377 . S
C917 C918 1.379 . S
C918 H902 0.931 . S
C918 C912 1.383 . S
C918 C917 1.379 . S
H919 C913 0.959 1_455 S
H920 C913 0.961 . S
H921 C913 0.960 . S
H922 C914 0.930 . S
H923 C915 0.929 . S
H924 C932 0.929 1_545 S
H925 C934 0.930 . S
H926 C936 0.930 . S
H927 C939 0.929 . S
H928 C942 0.930 . S
H929 C944 0.960 . S
H930 C944 0.960 . S
H931 C944 0.960 . S
C932 H924 0.929 1_565 S
C932 C933 1.377 . S
C932 C934 1.384 1_565 S
C933 C932 1.377 . S
C933 C939 1.390 . S
C934 H925 0.930 . S
C934 C932 1.384 1_545 S
C934 C935 1.372 1_545 S
C935 C934 1.372 1_565 S
C935 C936 1.400 . S
C935 C940 1.490 . S
C936 H926 0.930 . S
C936 C935 1.400 . S
C936 C939 1.386 . S
H937 C953 0.930 1_565 S
H938 C954 0.945 . S
C939 H927 0.929 . S
C939 C933 1.390 . S
C939 C936 1.386 . S
C940 C935 1.490 . S
C940 C942 1.395 1_565 S
C940 C943 1.403 . S
H941 C947 0.930 . S
C942 H928 0.930 . S
C942 C940 1.395 1_545 S
C942 C945 1.403 1_655 S
C943 C940 1.403 . S
C943 C944 1.524 . S
C943 C947 1.400 1_655 S
C944 H929 0.960 . S
C944 H930 0.960 . S
C944 H931 0.960 . S
C944 C943 1.524 . S
C945 C942 1.403 1_455 S
C945 C946 1.392 . S
C945 C949 1.495 . S
C946 C945 1.392 . S
C946 C947 1.385 1_545 S
C946 C948 1.478 . S
C947 H941 0.930 . S
C947 C943 1.400 1_455 S
C947 C946 1.385 1_565 S
C948 C946 1.478 . S
C948 C950 1.381 . S
C948 C954 1.361 1_545 S
C949 C945 1.495 . S
C949 H955 0.959 . S
C949 H956 0.961 . S
C949 H957 0.960 . S
C950 C948 1.381 . S
C950 C951 1.394 . S
C950 H958 0.930 . S
C951 C950 1.394 . S
C951 C952 1.383 . S
C951 H959 0.929 . S
C952 C951 1.383 . S
C952 C953 1.377 . S
C953 H937 0.930 1_545 S
C953 C952 1.377 . S
C953 C954 1.388 1_545 S
C954 H938 0.945 . S
C954 C948 1.361 1_565 S
C954 C953 1.388 1_565 S
H955 C949 0.959 . S
H956 C949 0.961 . S
H957 C949 0.960 . S
H958 C950 0.930 . S
H959 C951 0.929 . S
H960 C968 0.929 . S
H961 C970 0.930 . S
H962 C972 0.930 . S
H963 C975 0.929 . S
H964 C978 0.930 . S
H965 C980 0.960 1_455 S
H966 C980 0.960 . S
H967 C980 0.960 . S
C968 H960 0.929 . S
C968 C969 1.377 . S
C968 C970 1.384 . S
C969 C968 1.377 . S
C969 C975 1.390 . S
C970 H961 0.930 . S
C970 C968 1.384 . S
C970 C971 1.372 . S
C971 C970 1.372 . S
C971 C972 1.400 . S
C971 C976 1.490 . S
C972 H962 0.930 . S
C972 C971 1.400 . S
C972 C975 1.386 . S
H973 C989 0.930 . S
H974 C990 0.931 . S
C975 H963 0.929 . S
C975 C969 1.390 . S
C975 C972 1.386 . S
C976 C971 1.490 . S
C976 C978 1.395 . S
C976 C979 1.403 . S
H977 C983 0.930 . S
C978 H964 0.930 . S
C978 C976 1.395 . S
C978 C981 1.398 1_665 S
C979 C976 1.403 . S
C979 C980 1.524 . S
C979 C983 1.400 1_665 S
C980 H965 0.960 1_655 S
C980 H966 0.960 . S
C980 H967 0.960 . S
C980 C979 1.524 . S
C981 C978 1.398 1_445 S
C981 C982 1.404 . S
C981 C985 1.490 . S
C982 C981 1.404 . S
C982 C983 1.385 . S
C982 C984 1.478 . S
C983 H977 0.930 . S
C983 C979 1.400 1_445 S
C983 C982 1.385 . S
C984 C982 1.478 . S
C984 C986 1.381 . S
C984 C990 1.383 . S
C985 C981 1.490 . S
C985 H991 0.959 1_455 S
C985 H992 0.961 . S
C985 H993 0.959 1_455 S
C986 C984 1.381 . S
C986 C987 1.394 . S
C986 H994 0.930 . S
C987 C986 1.394 . S
C987 C988 1.383 . S
C987 H995 0.929 . S
C988 C987 1.383 . S
C988 C989 1.377 . S
C989 H973 0.930 . S
C989 C988 1.377 . S
C989 C990 1.379 . S
C990 H974 0.931 . S
C990 C984 1.383 . S
C990 C989 1.379 . S
H991 C985 0.959 1_655 S
H992 C985 0.961 . S
H993 C985 0.959 1_655 S
H994 C986 0.930 . S
H995 C987 0.929 . S
H996 C1004 0.929 1_655 S
H997 C1006 0.930 . S
H998 C1008 0.930 . S
H999 C1011 0.929 . S
H1000 C1014 0.930 . S
H1001 C1016 0.960 . S
H1002 C1016 0.960 . S
H1003 C1016 0.960 . S
C1004 H996 0.929 1_455 S
C1004 C1005 1.377 . S
C1004 C1006 1.384 1_455 S
C1005 C1004 1.377 . S
C1005 C1011 1.390 . S
C1006 H997 0.930 . S
C1006 C1004 1.384 1_655 S
C1006 C1007 1.372 1_655 S
C1007 C1006 1.372 1_455 S
C1007 C1008 1.400 . S
C1007 C1012 1.490 . S
C1008 H998 0.930 . S
C1008 C1007 1.400 . S
C1008 C1011 1.386 . S
H1009 C1025 0.930 . S
H1010 C1026 0.931 1_455 S
C1011 H999 0.929 . S
C1011 C1005 1.390 . S
C1011 C1008 1.386 . S
C1012 C1007 1.490 . S
C1012 C1014 1.395 1_455 S
C1012 C1015 1.403 1_565 S
H1013 C1019 0.930 . S
C1014 H1000 0.930 . S
C1014 C1012 1.395 1_655 S
C1014 C1017 1.403 . S
C1015 C1012 1.403 1_545 S
C1015 C1016 1.524 . S
C1015 C1019 1.400 . S
C1016 H1001 0.960 . S
C1016 H1002 0.960 . S
C1016 H1003 0.960 . S
C1016 C1015 1.524 . S
C1017 C1014 1.403 . S
C1017 C1018 1.392 1_565 S
C1017 C1021 1.495 . S
C1018 C1017 1.392 1_545 S
C1018 C1019 1.385 1_655 S
C1018 C1020 1.478 . S
C1019 H1013 0.930 . S
C1019 C1015 1.400 . S
C1019 C1018 1.385 1_455 S
C1020 C1018 1.478 . S
C1020 C1022 1.381 . S
C1020 C1026 1.383 . S
C1021 C1017 1.495 . S
C1021 H1027 0.959 . S
C1021 H1028 0.961 . S
C1021 H1029 0.960 . S
C1022 C1020 1.381 . S
C1022 C1023 1.394 . S
C1022 H1030 0.930 . S
C1023 C1022 1.394 . S
C1023 C1024 1.383 . S
C1023 H1031 0.929 . S
C1024 C1023 1.383 . S
C1024 C1025 1.377 . S
C1025 H1009 0.930 . S
C1025 C1024 1.377 . S
C1025 C1026 1.379 . S
C1026 H1010 0.931 1_655 S
C1026 C1020 1.383 . S
C1026 C1025 1.379 . S
H1027 C1021 0.959 . S
H1028 C1021 0.961 . S
H1029 C1021 0.960 . S
H1030 C1022 0.930 . S
H1031 C1023 0.929 . S
C177 C154 1.577 . S
C196 C0 1.564 . S
C213 C15 1.578 . S
C232 C97 1.564 . S
C249 C28 1.574 . S
C268 C99 1.579 . S
C285 C55 1.574 . S
C304 C113 1.578 . S
C321 C127 1.578 . S
C340 C68 1.561 . S
C357 C71 1.574 . S
C376 C140 1.582 . S
C393 C1 1.584 . S
C412 C141 1.576 . S
C429 C14 1.583 . S
C448 C155 1.578 . S
C465 C29 1.582 . S
C484 C96 1.575 . S
C501 C54 1.580 . S
C520 C98 1.577 . S
C537 C112 1.580 . S
C556 C69 1.581 . S
C573 C126 1.580 . S
C592 C70 1.582 . S
C609 C42 1.599 . S
C628 C13 1.586 . S
C645 C26 1.598 . S
C664 C57 1.602 . S
C681 C82 1.599 . S
C700 C41 1.597 . S
C717 C138 1.596 . S
C736 C84 1.589 . S
C753 C153 1.599 . S
C772 C110 1.583 . S
C789 C124 1.596 . S
C808 C167 1.606 . S
C825 C12 1.557 . S
C844 C43 1.543 . S
C861 C27 1.559 . S
C880 C56 1.542 . S
C897 C83 1.561 . S
C916 C40 1.543 . S
C933 C85 1.557 . S
C952 C139 1.567 . S
C969 C111 1.557 . S
C988 C152 1.564 . S
C1005 C125 1.558 . S
C1024 C166 1.567 . S
