# Generated by pormake.
# Topology wir, (6)-cn, num edge types: 1
# Building blocks:
#     Node 0, Type 0, BuildingBlock: BETDAH_clean_sbu_0, # of connection points: 6
#     Node 1, Type 0, BuildingBlock: BETDAH_clean_sbu_0, # of connection points: 6
#     Node 2, Type 0, BuildingBlock: BETDAH_clean_sbu_0, # of connection points: 6
#     Node 3, Type 0, BuildingBlock: BETDAH_clean_sbu_0, # of connection points: 6
#     Node 4, Type 0, BuildingBlock: BETDAH_clean_sbu_0, # of connection points: 6
#     Node 5, Type 0, BuildingBlock: BETDAH_clean_sbu_0, # of connection points: 6
#     Node 6, Type 0, BuildingBlock: BETDAH_clean_sbu_0, # of connection points: 6
#     Node 7, Type 0, BuildingBlock: BETDAH_clean_sbu_0, # of connection points: 6
#     Node 8, Type 0, BuildingBlock: BETDAH_clean_sbu_0, # of connection points: 6
#     Node 9, Type 0, BuildingBlock: BETDAH_clean_sbu_0, # of connection points: 6
#     Node 10, Type 0, BuildingBlock: BETDAH_clean_sbu_0, # of connection points: 6
#     Node 11, Type 0, BuildingBlock: BETDAH_clean_sbu_0, # of connection points: 6
#     Node 12, Type 0, BuildingBlock: BETDAH_clean_sbu_0, # of connection points: 6
#     Node 13, Type 0, BuildingBlock: BETDAH_clean_sbu_0, # of connection points: 6
#     Node 14, Type 0, BuildingBlock: BETDAH_clean_sbu_0, # of connection points: 6
#     Node 15, Type 0, BuildingBlock: BETDAH_clean_sbu_0, # of connection points: 6
#     Node 16, Type 0, BuildingBlock: BETDAH_clean_sbu_0, # of connection points: 6
#     Node 17, Type 0, BuildingBlock: BETDAH_clean_sbu_0, # of connection points: 6
#     Node 18, Type 0, BuildingBlock: BETDAH_clean_sbu_0, # of connection points: 6
#     Node 19, Type 0, BuildingBlock: BETDAH_clean_sbu_0, # of connection points: 6
#     Node 20, Type 0, BuildingBlock: BETDAH_clean_sbu_0, # of connection points: 6
#     Node 21, Type 0, BuildingBlock: BETDAH_clean_sbu_0, # of connection points: 6
#     Node 22, Type 0, BuildingBlock: BETDAH_clean_sbu_0, # of connection points: 6
#     Node 23, Type 0, BuildingBlock: BETDAH_clean_sbu_0, # of connection points: 6
#     Node 24, Type 0, BuildingBlock: BETDAH_clean_sbu_0, # of connection points: 6
#     Node 25, Type 0, BuildingBlock: BETDAH_clean_sbu_0, # of connection points: 6
#     Node 26, Type 0, BuildingBlock: BETDAH_clean_sbu_0, # of connection points: 6
#     Node 27, Type 0, BuildingBlock: BETDAH_clean_sbu_0, # of connection points: 6
#     Node 28, Type 0, BuildingBlock: BETDAH_clean_sbu_0, # of connection points: 6
#     Node 29, Type 0, BuildingBlock: BETDAH_clean_sbu_0, # of connection points: 6
#     Node 30, Type 0, BuildingBlock: BETDAH_clean_sbu_0, # of connection points: 6
#     Node 31, Type 0, BuildingBlock: BETDAH_clean_sbu_0, # of connection points: 6
#     Edge 32, Type (0, 0), BuildingBlock: ZUJKAS_clean_linker_0, # of connection points: 2
#     Edge 33, Type (0, 0), BuildingBlock: ZUJKAS_clean_linker_0, # of connection points: 2
#     Edge 34, Type (0, 0), BuildingBlock: ZUJKAS_clean_linker_0, # of connection points: 2
#     Edge 35, Type (0, 0), BuildingBlock: ZUJKAS_clean_linker_0, # of connection points: 2
#     Edge 36, Type (0, 0), BuildingBlock: ZUJKAS_clean_linker_0, # of connection points: 2
#     Edge 37, Type (0, 0), BuildingBlock: ZUJKAS_clean_linker_0, # of connection points: 2
#     Edge 38, Type (0, 0), BuildingBlock: ZUJKAS_clean_linker_0, # of connection points: 2
#     Edge 39, Type (0, 0), BuildingBlock: ZUJKAS_clean_linker_0, # of connection points: 2
#     Edge 40, Type (0, 0), BuildingBlock: ZUJKAS_clean_linker_0, # of connection points: 2
#     Edge 41, Type (0, 0), BuildingBlock: ZUJKAS_clean_linker_0, # of connection points: 2
#     Edge 42, Type (0, 0), BuildingBlock: ZUJKAS_clean_linker_0, # of connection points: 2
#     Edge 43, Type (0, 0), BuildingBlock: ZUJKAS_clean_linker_0, # of connection points: 2
#     Edge 44, Type (0, 0), BuildingBlock: ZUJKAS_clean_linker_0, # of connection points: 2
#     Edge 45, Type (0, 0), BuildingBlock: ZUJKAS_clean_linker_0, # of connection points: 2
#     Edge 46, Type (0, 0), BuildingBlock: ZUJKAS_clean_linker_0, # of connection points: 2
#     Edge 47, Type (0, 0), BuildingBlock: ZUJKAS_clean_linker_0, # of connection points: 2
#     Edge 48, Type (0, 0), BuildingBlock: ZUJKAS_clean_linker_0, # of connection points: 2
#     Edge 49, Type (0, 0), BuildingBlock: ZUJKAS_clean_linker_0, # of connection points: 2
#     Edge 50, Type (0, 0), BuildingBlock: ZUJKAS_clean_linker_0, # of connection points: 2
#     Edge 51, Type (0, 0), BuildingBlock: ZUJKAS_clean_linker_0, # of connection points: 2
#     Edge 52, Type (0, 0), BuildingBlock: ZUJKAS_clean_linker_0, # of connection points: 2
#     Edge 53, Type (0, 0), BuildingBlock: ZUJKAS_clean_linker_0, # of connection points: 2
#     Edge 54, Type (0, 0), BuildingBlock: ZUJKAS_clean_linker_0, # of connection points: 2
#     Edge 55, Type (0, 0), BuildingBlock: ZUJKAS_clean_linker_0, # of connection points: 2
#     Edge 56, Type (0, 0), BuildingBlock: ZUJKAS_clean_linker_0, # of connection points: 2
#     Edge 57, Type (0, 0), BuildingBlock: ZUJKAS_clean_linker_0, # of connection points: 2
#     Edge 58, Type (0, 0), BuildingBlock: ZUJKAS_clean_linker_0, # of connection points: 2
#     Edge 59, Type (0, 0), BuildingBlock: ZUJKAS_clean_linker_0, # of connection points: 2
#     Edge 60, Type (0, 0), BuildingBlock: ZUJKAS_clean_linker_0, # of connection points: 2
#     Edge 61, Type (0, 0), BuildingBlock: ZUJKAS_clean_linker_0, # of connection points: 2
#     Edge 62, Type (0, 0), BuildingBlock: ZUJKAS_clean_linker_0, # of connection points: 2
#     Edge 63, Type (0, 0), BuildingBlock: ZUJKAS_clean_linker_0, # of connection points: 2
#     Edge 64, Type (0, 0), BuildingBlock: ZUJKAS_clean_linker_0, # of connection points: 2
#     Edge 65, Type (0, 0), BuildingBlock: ZUJKAS_clean_linker_0, # of connection points: 2
#     Edge 66, Type (0, 0), BuildingBlock: ZUJKAS_clean_linker_0, # of connection points: 2
#     Edge 67, Type (0, 0), BuildingBlock: ZUJKAS_clean_linker_0, # of connection points: 2
#     Edge 68, Type (0, 0), BuildingBlock: ZUJKAS_clean_linker_0, # of connection points: 2
#     Edge 69, Type (0, 0), BuildingBlock: ZUJKAS_clean_linker_0, # of connection points: 2
#     Edge 70, Type (0, 0), BuildingBlock: ZUJKAS_clean_linker_0, # of connection points: 2
#     Edge 71, Type (0, 0), BuildingBlock: ZUJKAS_clean_linker_0, # of connection points: 2
#     Edge 72, Type (0, 0), BuildingBlock: ZUJKAS_clean_linker_0, # of connection points: 2
#     Edge 73, Type (0, 0), BuildingBlock: ZUJKAS_clean_linker_0, # of connection points: 2
#     Edge 74, Type (0, 0), BuildingBlock: ZUJKAS_clean_linker_0, # of connection points: 2
#     Edge 75, Type (0, 0), BuildingBlock: ZUJKAS_clean_linker_0, # of connection points: 2
#     Edge 76, Type (0, 0), BuildingBlock: ZUJKAS_clean_linker_0, # of connection points: 2
#     Edge 77, Type (0, 0), BuildingBlock: ZUJKAS_clean_linker_0, # of connection points: 2
#     Edge 78, Type (0, 0), BuildingBlock: ZUJKAS_clean_linker_0, # of connection points: 2
#     Edge 79, Type (0, 0), BuildingBlock: ZUJKAS_clean_linker_0, # of connection points: 2
#     Edge 80, Type (0, 0), BuildingBlock: ZUJKAS_clean_linker_0, # of connection points: 2
#     Edge 81, Type (0, 0), BuildingBlock: ZUJKAS_clean_linker_0, # of connection points: 2
#     Edge 82, Type (0, 0), BuildingBlock: ZUJKAS_clean_linker_0, # of connection points: 2
#     Edge 83, Type (0, 0), BuildingBlock: ZUJKAS_clean_linker_0, # of connection points: 2
#     Edge 84, Type (0, 0), BuildingBlock: ZUJKAS_clean_linker_0, # of connection points: 2
#     Edge 85, Type (0, 0), BuildingBlock: ZUJKAS_clean_linker_0, # of connection points: 2
#     Edge 86, Type (0, 0), BuildingBlock: ZUJKAS_clean_linker_0, # of connection points: 2
#     Edge 87, Type (0, 0), BuildingBlock: ZUJKAS_clean_linker_0, # of connection points: 2
#     Edge 88, Type (0, 0), BuildingBlock: ZUJKAS_clean_linker_0, # of connection points: 2
#     Edge 89, Type (0, 0), BuildingBlock: ZUJKAS_clean_linker_0, # of connection points: 2
#     Edge 90, Type (0, 0), BuildingBlock: ZUJKAS_clean_linker_0, # of connection points: 2
#     Edge 91, Type (0, 0), BuildingBlock: ZUJKAS_clean_linker_0, # of connection points: 2
#     Edge 92, Type (0, 0), BuildingBlock: ZUJKAS_clean_linker_0, # of connection points: 2
#     Edge 93, Type (0, 0), BuildingBlock: ZUJKAS_clean_linker_0, # of connection points: 2
#     Edge 94, Type (0, 0), BuildingBlock: ZUJKAS_clean_linker_0, # of connection points: 2
#     Edge 95, Type (0, 0), BuildingBlock: ZUJKAS_clean_linker_0, # of connection points: 2
#     Edge 96, Type (0, 0), BuildingBlock: ZUJKAS_clean_linker_0, # of connection points: 2
#     Edge 97, Type (0, 0), BuildingBlock: ZUJKAS_clean_linker_0, # of connection points: 2
#     Edge 98, Type (0, 0), BuildingBlock: ZUJKAS_clean_linker_0, # of connection points: 2
#     Edge 99, Type (0, 0), BuildingBlock: ZUJKAS_clean_linker_0, # of connection points: 2
#     Edge 100, Type (0, 0), BuildingBlock: ZUJKAS_clean_linker_0, # of connection points: 2
#     Edge 101, Type (0, 0), BuildingBlock: ZUJKAS_clean_linker_0, # of connection points: 2
#     Edge 102, Type (0, 0), BuildingBlock: ZUJKAS_clean_linker_0, # of connection points: 2
#     Edge 103, Type (0, 0), BuildingBlock: ZUJKAS_clean_linker_0, # of connection points: 2
#     Edge 104, Type (0, 0), BuildingBlock: ZUJKAS_clean_linker_0, # of connection points: 2
#     Edge 105, Type (0, 0), BuildingBlock: ZUJKAS_clean_linker_0, # of connection points: 2
#     Edge 106, Type (0, 0), BuildingBlock: ZUJKAS_clean_linker_0, # of connection points: 2
#     Edge 107, Type (0, 0), BuildingBlock: ZUJKAS_clean_linker_0, # of connection points: 2
#     Edge 108, Type (0, 0), BuildingBlock: ZUJKAS_clean_linker_0, # of connection points: 2
#     Edge 109, Type (0, 0), BuildingBlock: ZUJKAS_clean_linker_0, # of connection points: 2
#     Edge 110, Type (0, 0), BuildingBlock: ZUJKAS_clean_linker_0, # of connection points: 2
#     Edge 111, Type (0, 0), BuildingBlock: ZUJKAS_clean_linker_0, # of connection points: 2
#     Edge 112, Type (0, 0), BuildingBlock: ZUJKAS_clean_linker_0, # of connection points: 2
#     Edge 113, Type (0, 0), BuildingBlock: ZUJKAS_clean_linker_0, # of connection points: 2
#     Edge 114, Type (0, 0), BuildingBlock: ZUJKAS_clean_linker_0, # of connection points: 2
#     Edge 115, Type (0, 0), BuildingBlock: ZUJKAS_clean_linker_0, # of connection points: 2
#     Edge 116, Type (0, 0), BuildingBlock: ZUJKAS_clean_linker_0, # of connection points: 2
#     Edge 117, Type (0, 0), BuildingBlock: ZUJKAS_clean_linker_0, # of connection points: 2
#     Edge 118, Type (0, 0), BuildingBlock: ZUJKAS_clean_linker_0, # of connection points: 2
#     Edge 119, Type (0, 0), BuildingBlock: ZUJKAS_clean_linker_0, # of connection points: 2
#     Edge 120, Type (0, 0), BuildingBlock: ZUJKAS_clean_linker_0, # of connection points: 2
#     Edge 121, Type (0, 0), BuildingBlock: ZUJKAS_clean_linker_0, # of connection points: 2
#     Edge 122, Type (0, 0), BuildingBlock: ZUJKAS_clean_linker_0, # of connection points: 2
#     Edge 123, Type (0, 0), BuildingBlock: ZUJKAS_clean_linker_0, # of connection points: 2
#     Edge 124, Type (0, 0), BuildingBlock: ZUJKAS_clean_linker_0, # of connection points: 2
#     Edge 125, Type (0, 0), BuildingBlock: ZUJKAS_clean_linker_0, # of connection points: 2
#     Edge 126, Type (0, 0), BuildingBlock: ZUJKAS_clean_linker_0, # of connection points: 2
#     Edge 127, Type (0, 0), BuildingBlock: ZUJKAS_clean_linker_0, # of connection points: 2
# Relax obj value: 0.366
# Max RMSD: 0.203
# Mean RMSD: 0.203
data_MOF--net-wir--node1-BETDAH_clean_sbu_0--edge1-ZUJKAS_clean_linker_0
_symmetry_space_group_name_H-M    P1
_symmetry_Int_Tables_number       1
_symmetry_cell_setting            triclinic
loop_
_symmetry_equiv_pos_as_xyz
'x, y, z'
_cell_length_a     48.61202
_cell_length_b     48.70979
_cell_length_c     133.89423
_cell_angle_alpha  90.046325
_cell_angle_beta   89.962229
_cell_angle_gamma 89.936891
loop_
_atom_site_label
_atom_site_type_symbol
_atom_site_fract_x
_atom_site_fract_y
_atom_site_fract_z
_atom_type_partial_charge
Ho0 Ho 0.2402 0.23561 0.38515 0.0
Ho1 Ho 0.22577 0.19491 0.37641 0.0
C2 C 0.20173 0.19788 0.39725 0.0
C3 C 0.25156 0.28487 0.39117 0.0
C4 C 0.2426 0.3126 0.38834 0.0
C5 C 0.2152 0.31747 0.38557 0.0
C6 C 0.20498 0.34421 0.38528 0.0
C7 C 0.22211 0.3666 0.38763 0.0
C8 C 0.25042 0.36169 0.38907 0.0
C9 C 0.2605 0.33484 0.38955 0.0
C10 C 0.26997 0.19449 0.39558 0.0
C11 C 0.24997 0.23868 0.36099 0.0
C12 C 0.22798 0.15225 0.36496 0.0
C13 C 0.22538 0.1502 0.35398 0.0
C14 C 0.24341 0.16471 0.34768 0.0
C15 C 0.23953 0.1647 0.33737 0.0
C16 C 0.21767 0.15005 0.33311 0.0
C17 C 0.19994 0.13505 0.33936 0.0
C18 C 0.20374 0.13519 0.34972 0.0
C19 C 0.17681 0.22456 0.37736 0.0
O20 O 0.20451 0.22396 0.39502 0.0
O21 O 0.21452 0.18012 0.39157 0.0
O22 O 0.23259 0.26943 0.39511 0.0
O23 O 0.26682 0.27152 0.38481 0.0
O24 O 0.25869 0.21633 0.3991 0.0
O25 O 0.26562 0.19548 0.38595 0.0
O26 O 0.23332 0.21771 0.36172 0.0
O27 O 0.25896 0.24817 0.36966 0.0
O28 O 0.20583 0.1593 0.36983 0.0
O29 O 0.24971 0.16508 0.36824 0.0
O30 O 0.17974 0.19822 0.37833 0.0
O31 O 0.20099 0.23513 0.37577 0.0
H32 H 0.20112 0.30054 0.38441 0.0
H33 H 0.1831 0.34689 0.38415 0.0
H34 H 0.2644 0.37847 0.39058 0.0
H35 H 0.28187 0.33144 0.3915 0.0
H36 H 0.26038 0.1765 0.35068 0.0
H37 H 0.25382 0.17601 0.33272 0.0
H38 H 0.18291 0.12356 0.33626 0.0
H39 H 0.18953 0.12392 0.35441 0.0
Ho40 Ho 0.09061 1.00179 0.63699 0.0
Ho41 Ho 0.13317 0.98542 0.62948 0.0
C42 C 0.11945 0.95893 0.64993 0.0
C43 C 0.04438 1.02096 0.64367 0.0
C44 C 1.03587 1.02797 0.65388 0.0
C45 C 1.01031 1.01863 0.65725 0.0
C46 C 1.00577 1.01492 0.66744 0.0
C47 C 1.02696 1.02013 0.67435 0.0
C48 C 0.05113 1.03295 0.67105 0.0
C49 C 0.05539 0.03722 0.66085 0.0
C50 C 0.13317 1.02878 0.64785 0.0
C51 C 0.09256 1.01113 0.61283 0.0
C52 C 0.18201 0.97958 0.62194 0.0
C53 C 0.19605 0.95689 0.61686 0.0
C54 C 0.18102 0.93641 0.61191 0.0
C55 C 0.19473 0.91549 0.60678 0.0
C56 C 0.22363 0.91464 0.60663 0.0
C57 C 0.2385 0.93455 0.61199 0.0
C58 C 0.22478 0.95553 0.61705 0.0
C59 C 0.1018 0.93752 0.62924 0.0
O60 O 0.09455 0.96545 0.64711 0.0
O61 O 0.14001 0.97008 0.64508 0.0
O62 O 0.06321 1.03634 0.63957 0.0
O63 O 0.04932 0.9949 0.64237 0.0
O64 O 0.11228 1.01557 0.65131 0.0
O65 O 0.13159 1.02586 0.63819 0.0
O66 O 0.11591 0.99788 0.61409 0.0
O67 O 0.07901 1.01701 0.6211 0.0
O68 O 0.17629 0.97541 0.63129 0.0
O69 O 0.16156 0.9908 0.61717 0.0
O70 O 0.12802 0.93959 0.63045 0.0
O71 O 0.09219 0.96208 0.62768 0.0
H72 H 0.99498 1.01143 0.65199 0.0
H73 H 0.98695 1.00488 0.66977 0.0
H74 H 0.06762 0.03739 0.67624 0.0
H75 H 0.07493 0.04538 0.65842 0.0
H76 H 0.15874 0.93693 0.61183 0.0
H77 H 0.18279 0.90036 0.60274 0.0
H78 H 0.26078 0.93469 0.61187 0.0
H79 H 0.23663 0.97105 0.62094 0.0
Ho80 Ho 0.31095 0.83396 0.88613 0.0
Ho81 Ho 0.33554 0.87578 0.87996 0.0
C82 C 0.34732 0.86081 0.90203 0.0
C83 C 0.29812 0.78612 0.89299 0.0
C84 C 0.31389 0.76074 0.89164 0.0
C85 C 0.33212 0.75841 0.88353 0.0
C86 C 0.353 0.73874 0.88362 0.0
C87 C 0.35613 0.72129 0.89189 0.0
C88 C 0.33626 0.72214 0.89957 0.0
C89 C 0.31534 0.74177 0.89944 0.0
C90 C 0.27741 0.87906 0.89268 0.0
C91 C 0.30703 0.83807 0.86226 0.0
C92 C 0.3479 0.92307 0.87254 0.0
C93 C 0.36256 0.93212 0.86357 0.0
C94 C 0.35441 0.9563 0.85878 0.0
C95 C 0.36928 0.96606 0.85062 0.0
C96 C 0.39266 0.95185 0.84719 0.0
C97 C 0.40057 0.92739 0.8519 0.0
C98 C 0.38546 0.91743 0.85998 0.0
C99 C 0.37726 0.83735 0.88053 0.0
O100 O 0.34225 0.83648 0.89838 0.0
O101 O 0.34057 0.882 0.89649 0.0
O102 O 0.31084 0.80461 0.89825 0.0
O103 O 0.28714 0.79647 0.88496 0.0
O104 O 0.26909 0.8565 0.88852 0.0
O105 O 0.30349 0.87745 0.89223 0.0
O106 O 0.31936 0.86165 0.86433 0.0
O107 O 0.30134 0.82247 0.86996 0.0
O108 O 0.36295 0.91024 0.87909 0.0
O109 O 0.32392 0.91148 0.8712 0.0
O110 O 0.3792 0.86296 0.88283 0.0
O111 O 0.35225 0.83275 0.87753 0.0
H112 H 0.33155 0.77313 0.87747 0.0
H113 H 0.36775 0.73843 0.87756 0.0
H114 H 0.33822 0.70934 0.90614 0.0
H115 H 0.30173 0.74354 0.90583 0.0
H116 H 0.33683 0.96786 0.86146 0.0
H117 H 0.36294 0.9851 0.84713 0.0
H118 H 0.41838 0.91602 0.84932 0.0
H119 H 0.39196 0.89851 0.86352 0.0
Ho120 Ho 0.4908 0.08681 0.13985 0.0
Ho121 Ho 0.44899 0.10709 0.13302 0.0
C122 C 0.46145 0.12577 0.15488 0.0
C123 C 0.53877 0.07433 0.14685 0.0
C124 C 0.5658 0.08472 0.14389 0.0
C125 C 0.56881 0.09919 0.13488 0.0
C126 C 0.59253 0.11453 0.13306 0.0
C127 C 0.61339 0.11594 0.14031 0.0
C128 C 0.61109 0.09949 0.14895 0.0
C129 C 0.58746 0.08405 0.15071 0.0
C130 C 0.44688 0.05321 0.14754 0.0
C131 C 0.48934 0.08037 0.11583 0.0
C132 C 0.40111 0.10745 0.1248 0.0
C133 C 0.3926 0.10278 0.11446 0.0
C134 C 0.37122 0.08422 0.11259 0.0
C135 C 0.36628 0.07501 0.10291 0.0
C136 C 0.38255 0.0844 0.09495 0.0
C137 C 0.40318 0.10391 0.09675 0.0
C138 C 0.40834 0.11289 0.10646 0.0
C139 C 0.48281 0.15239 0.13314 0.0
O140 O 0.48609 0.11787 0.15215 0.0
O141 O 0.44089 0.12053 0.14879 0.0
O142 O 0.52275 0.0927 0.15087 0.0
O143 O 0.52599 0.05953 0.14021 0.0
O144 O 0.46896 0.0448 0.14303 0.0
O145 O 0.44815 0.07914 0.14658 0.0
O146 O 0.46449 0.09006 0.11769 0.0
O147 O 0.505 0.07755 0.12375 0.0
O148 O 0.41493 0.12988 0.12669 0.0
O149 O 0.41185 0.08577 0.12902 0.0
O150 O 0.45661 0.15191 0.13494 0.0
O151 O 0.49082 0.12747 0.13089 0.0
H152 H 0.55214 0.1001 0.12954 0.0
H153 H 0.59372 0.12666 0.1263 0.0
H154 H 0.62638 0.10032 0.15481 0.0
H155 H 0.58533 0.07318 0.15773 0.0
H156 H 0.35912 0.07596 0.11869 0.0
H157 H 0.34991 0.06034 0.10165 0.0
H158 H 0.41593 0.11143 0.0907 0.0
H159 H 0.42531 0.12684 0.10776 0.0
Ho160 Ho 0.2553 0.84924 0.23891 0.0
Ho161 Ho 0.23703 0.89052 0.24605 0.0
C162 C 0.21984 0.88228 0.22432 0.0
C163 C 0.27262 0.80002 0.23512 0.0
C164 C 0.28359 0.78314 0.22705 0.0
C165 C 0.28219 0.75466 0.22809 0.0
C166 C 0.28658 0.73779 0.21986 0.0
C167 C 0.29245 0.74923 0.21045 0.0
C168 C 0.29716 0.77772 0.20977 0.0
C169 C 0.2924 0.79467 0.21802 0.0
C170 C 0.28427 0.88958 0.2279 0.0
C171 C 0.26154 0.8507 0.26291 0.0
C172 C 0.23367 0.93746 0.25509 0.0
C173 C 0.24155 0.96644 0.25401 0.0
C174 C 0.23493 0.98194 0.24549 0.0
C175 C 0.23901 1.01042 0.24545 0.0
C176 C 0.24978 1.02372 0.25393 0.0
C177 C 0.25783 1.00768 0.26218 0.0
C178 C 0.25376 0.97942 0.2622 0.0
C179 C 0.18977 0.85866 0.24448 0.0
O180 O 0.22346 0.85667 0.22704 0.0
O181 O 0.22902 0.90165 0.23021 0.0
O182 O 0.28837 0.81952 0.23851 0.0
O183 O 0.24706 0.80773 0.23413 0.0
O184 O 0.27479 0.86637 0.22475 0.0
O185 O 0.27826 0.8907 0.23743 0.0
O186 O 0.24324 0.87013 0.26146 0.0
O187 O 0.27303 0.84139 0.25469 0.0
O188 O 0.2535 0.91992 0.25662 0.0
O189 O 0.21478 0.92799 0.24913 0.0
O190 O 0.19203 0.88465 0.2427 0.0
O191 O 0.21386 0.84974 0.24721 0.0
H192 H 0.27562 0.74554 0.23508 0.0
H193 H 0.28254 0.71607 0.22074 0.0
H194 H 0.3023 0.78713 0.20269 0.0
H195 H 0.29393 0.81672 0.21717 0.0
H196 H 0.22565 0.97229 0.23903 0.0
H197 H 0.2328 1.02212 0.23896 0.0
H198 H 0.26561 1.01706 0.26894 0.0
H199 H 0.25891 0.96784 0.26886 0.0
Ho200 Ho 0.47806 0.99699 0.4829 0.0
Ho201 Ho 0.43757 0.97424 0.48908 0.0
C202 C 0.45276 0.96116 0.46696 0.0
C203 C 0.52512 1.0128 0.47591 0.0
C204 C 0.55278 1.00156 0.47737 0.0
C205 C 0.5561 0.97387 0.47995 0.0
C206 C 0.58229 0.96235 0.48046 0.0
C207 C 0.60573 0.97843 0.47851 0.0
C208 C 0.60231 1.00674 0.47672 0.0
C209 C 0.57598 1.01818 0.47609 0.0
C210 C 0.43315 1.03049 0.47568 0.0
C211 C 0.4761 1.00161 0.50675 0.0
C212 C 0.38984 0.96453 0.49682 0.0
C213 C 0.38114 0.95245 0.50631 0.0
C214 C 0.35388 0.95528 0.5095 0.0
C215 C 0.34526 0.94276 0.51834 0.0
C216 C 0.36379 0.92712 0.52407 0.0
C217 C 0.39116 0.92444 0.52085 0.0
C218 C 0.39982 0.93714 0.51205 0.0
C219 C 0.47309 0.93001 0.48869 0.0
O220 O 0.47699 0.96561 0.47077 0.0
O221 O 0.43157 0.96829 0.47251 0.0
O222 O 0.50819 0.99706 0.47102 0.0
O223 O 0.5138 1.02346 0.48382 0.0
O224 O 0.4551 0.03876 0.48028 0.0
O225 O 0.4348 1.00453 0.47632 0.0
O226 O 0.45178 0.9908 0.50472 0.0
O227 O 0.49181 1.00569 0.49896 0.0
O228 O 0.40258 0.94764 0.49085 0.0
O229 O 0.4019 0.98847 0.49735 0.0
O230 O 0.44724 0.93011 0.48658 0.0
O231 O 0.48009 0.95498 0.49125 0.0
H232 H 0.53834 0.96084 0.48115 0.0
H233 H 0.58393 0.94046 0.48173 0.0
H234 H 0.61993 1.01981 0.47537 0.0
H235 H 0.57371 0.03976 0.47431 0.0
H236 H 0.33924 0.96694 0.50512 0.0
H237 H 0.324 0.945 0.52064 0.0
H238 H 0.40591 0.9128 0.52519 0.0
H239 H 0.42102 0.93484 0.50968 0.0
Ho240 Ho 0.32654 0.24172 0.73511 0.0
Ho241 Ho 0.35112 0.20192 0.74038 0.0
C242 C 0.36565 0.22211 0.71901 0.0
C243 C 0.30813 0.28861 0.72895 0.0
C244 C 0.31906 0.31613 0.73081 0.0
C245 C 0.33677 0.32067 0.73894 0.0
C246 C 0.35224 0.34473 0.73949 0.0
C247 C 0.35052 0.36441 0.73185 0.0
C248 C 0.33104 0.36064 0.72416 0.0
C249 C 0.31546 0.33665 0.72366 0.0
C250 C 0.29549 0.19606 0.72715 0.0
C251 C 0.32432 0.23819 0.75894 0.0
C252 C 0.36017 0.15291 0.74691 0.0
C253 C 0.37266 0.14083 0.75583 0.0
C254 C 0.36336 0.11534 0.75923 0.0
C255 C 0.37658 0.10243 0.76719 0.0
C256 C 0.39943 0.11478 0.77178 0.0
C257 C 0.40843 0.14057 0.76848 0.0
C258 C 0.39498 0.15365 0.7606 0.0
C259 C 0.39446 0.23792 0.74072 0.0
O260 O 0.35854 0.24511 0.72325 0.0
O261 O 0.35962 0.19942 0.72383 0.0
O262 O 0.32415 0.27293 0.72364 0.0
O263 O 0.29831 0.27586 0.73671 0.0
O264 O 0.28607 0.2163 0.73245 0.0
O265 O 0.32128 0.19981 0.72747 0.0
O266 O 0.3374 0.21519 0.75656 0.0
O267 O 0.31719 0.25333 0.75131 0.0
O268 O 0.37708 0.16632 0.74115 0.0
O269 O 0.33656 0.16547 0.74808 0.0
O270 O 0.39522 0.21217 0.73848 0.0
O271 O 0.36918 0.24446 0.74318 0.0
H272 H 0.33995 0.30488 0.74452 0.0
H273 H 0.36683 0.3471 0.74554 0.0
H274 H 0.32941 0.37506 0.71804 0.0
H275 H 0.30208 0.33333 0.7173 0.0
H276 H 0.34625 0.10517 0.75561 0.0
H277 H 0.36939 0.08243 0.76958 0.0
H278 H 0.42583 0.15057 0.77199 0.0
H279 H 0.40237 0.17347 0.7581 0.0
Ho280 Ho 0.06988 0.07362 0.98043 0.0
Ho281 Ho 0.11333 0.095 0.98663 0.0
C282 C 0.09609 0.1129 0.96492 0.0
C283 C 1.02173 0.05932 0.97407 0.0
C284 C 0.99445 0.06996 0.97666 0.0
C285 C 0.99018 0.08363 0.98577 0.0
C286 C 0.96651 0.09942 0.98725 0.0
C287 C 0.94701 0.10213 0.97956 0.0
C288 C 0.95048 0.08649 0.97077 0.0
C289 C 0.97399 0.07055 0.96935 0.0
C290 C 0.11423 0.04032 0.97301 0.0
C291 C 0.07493 0.06808 1.00432 0.0
C292 C 0.16427 0.09933 0.99191 0.0
C293 C 0.18389 0.09512 1.0 0.0
C294 C 0.17838 0.07687 1.00783 0.0
C295 C 0.19939 0.06933 1.01439 0.0
C296 C 0.22609 0.07993 1.01315 0.0
C297 C 0.23108 0.09908 1.00552 0.0
C298 C 0.2101 0.1066 0.999 0.0
C299 C 0.07849 0.13959 0.98647 0.0
O300 O 0.07206 0.10426 0.96798 0.0
O301 O 0.11759 0.10829 0.97063 0.0
O302 O 1.03742 0.07686 0.96946 0.0
O303 O 1.0348 0.04628 0.98111 0.0
O304 O 0.09276 1.03183 0.97785 0.0
O305 O 0.11198 0.06623 0.97342 0.0
O306 O 0.10004 0.07667 1.00206 0.0
O307 O 0.05783 0.06637 0.99677 0.0
O308 O 0.14675 0.11953 0.99268 0.0
O309 O 0.15339 0.07705 0.98822 0.0
O310 O 0.10445 0.13934 0.98434 0.0
O311 O 0.0712 0.11477 0.98908 0.0
H312 H 1.00588 0.08354 0.99151 0.0
H313 H 0.96437 0.11082 0.99415 0.0
H314 H 0.93631 0.08829 0.96458 0.0
H315 H 0.9771 0.06033 0.96224 0.0
H316 H 0.15819 0.06771 1.00864 0.0
H317 H 0.19487 0.05491 1.02032 0.0
H318 H 0.25146 0.10742 1.00433 0.0
H319 H 0.21469 0.12045 0.99289 0.0
Ho320 Ho 0.83697 0.87855 0.73876 0.0
Ho321 Ho 0.81716 0.83714 0.73199 0.0
C322 C 0.80948 0.83865 0.75582 0.0
C323 C 0.84033 0.92683 0.7466 0.0
C324 C 0.85044 0.93633 0.75629 0.0
C325 C 0.84491 0.96309 0.7595 0.0
C326 C 0.85678 0.97296 0.76829 0.0
C327 C 0.87461 0.95624 0.77394 0.0
C328 C 0.87947 0.92913 0.77079 0.0
C329 C 0.86736 0.91922 0.76207 0.0
C330 C 0.88276 0.84552 0.73998 0.0
C331 C 0.86103 0.86267 0.71849 0.0
C332 C 0.80379 0.79024 0.72428 0.0
C333 C 0.81603 0.76298 0.72561 0.0
C334 C 0.84398 0.76048 0.72802 0.0
C335 C 0.85595 0.73464 0.72898 0.0
C336 C 0.84011 0.71072 0.72768 0.0
C337 C 0.81168 0.71341 0.72589 0.0
C338 C 0.79976 0.73938 0.72482 0.0
C339 C 0.78412 0.88136 0.72422 0.0
O340 O 0.82025 0.86306 0.75408 0.0
O341 O 0.80615 0.82321 0.74789 0.0
O342 O 0.85925 0.91619 0.74089 0.0
O343 O 0.81767 0.91234 0.7467 0.0
O344 O 0.88212 0.87174 0.73862 0.0
O345 O 0.85759 0.83667 0.74131 0.0
O346 O 0.85401 0.83864 0.72195 0.0
O347 O 0.85021 0.88417 0.72287 0.0
O348 O 0.81904 0.80826 0.71971 0.0
O349 O 0.79216 0.80036 0.73222 0.0
O350 O 0.77546 0.85996 0.72902 0.0
O351 O 0.81007 0.87942 0.72498 0.0
H352 H 0.83183 0.97649 0.75512 0.0
H353 H 0.85208 0.99372 0.77063 0.0
H354 H 0.89324 0.91578 0.77489 0.0
H355 H 0.87184 0.89843 0.75967 0.0
H356 H 0.85676 0.77855 0.72887 0.0
H357 H 0.87794 0.73354 0.7302 0.0
H358 H 0.79882 0.69544 0.72499 0.0
H359 H 0.77798 0.74103 0.72321 0.0
Ho360 Ho 0.94533 0.09965 0.49105 0.0
Ho361 Ho 0.98749 0.07923 0.48506 0.0
C362 C 0.98267 0.07533 0.50914 0.0
C363 C 0.89623 0.10922 0.49784 0.0
C364 C 0.88305 0.13099 0.50367 0.0
C365 C 0.89814 0.14715 0.5104 0.0
C366 C 0.88482 0.1672 0.51611 0.0
C367 C 0.85635 0.17149 0.51507 0.0
C368 C 0.84168 0.15607 0.50797 0.0
C369 C 0.85495 0.13595 0.50234 0.0
C370 C 0.97885 0.14575 0.49019 0.0
C371 C 0.96097 0.11514 0.46916 0.0
C372 C 1.03362 0.05622 0.48033 0.0
C373 C 0.04206 0.0435 0.47086 0.0
C374 C 0.06716 0.05128 0.46662 0.0
C375 C 0.07147 0.048 0.4564 0.0
C376 C 0.05053 0.03724 0.45029 0.0
C377 C 1.0269 1.02625 0.45476 0.0
C378 C 1.02285 1.02904 0.46503 0.0
C379 C 0.94595 0.05116 0.47415 0.0
O380 O 0.96107 0.09085 0.50714 0.0
O381 O 0.99586 0.06593 0.50128 0.0
O382 O 0.90453 0.11641 0.48902 0.0
O383 O 0.91419 0.09392 0.50245 0.0
O384 O 0.95301 0.14426 0.48815 0.0
O385 O 0.98703 0.12145 0.4929 0.0
O386 O 0.98548 0.11022 0.47277 0.0
O387 O 0.93983 0.10809 0.47468 0.0
O388 O 1.01432 0.04369 0.48533 0.0
O389 O 1.02938 0.08265 0.47978 0.0
O390 O 0.969 0.06062 0.47096 0.0
O391 O 0.94532 0.05728 0.48364 0.0
H392 H 0.92003 0.1439 0.51137 0.0
H393 H 0.8966 0.17885 0.52151 0.0
H394 H 0.81965 0.15856 0.50713 0.0
H395 H 0.84312 0.12383 0.49708 0.0
H396 H 0.08225 0.06238 0.471 0.0
H397 H 0.08987 0.05685 0.45317 0.0
H398 H 1.01059 1.01767 0.45021 0.0
H399 H 1.00361 1.02207 0.4682 0.0
Ho400 Ho 0.71756 0.19565 0.23859 0.0
Ho401 Ho 0.7424 0.23482 0.23361 0.0
C402 C 0.74504 0.23089 0.25731 0.0
C403 C 0.70707 0.14691 0.24513 0.0
C404 C 0.69323 0.13664 0.2541 0.0
C405 C 0.69924 0.11036 0.25768 0.0
C406 C 0.68497 0.09991 0.26589 0.0
C407 C 0.66422 0.11551 0.27059 0.0
C408 C 0.65857 0.14206 0.26702 0.0
C409 C 0.67308 0.15259 0.25889 0.0
C410 C 0.67408 0.23151 0.23909 0.0
C411 C 0.70374 0.2175 0.21737 0.0
C412 C 0.76265 0.28105 0.22753 0.0
C413 C 0.75284 0.30921 0.22893 0.0
C414 C 0.72511 0.31401 0.23121 0.0
C415 C 0.71506 0.34075 0.23173 0.0
C416 C 0.73265 0.36323 0.23008 0.0
C417 C 0.76091 0.35826 0.22857 0.0
C418 C 0.7709 0.33139 0.22794 0.0
C419 C 0.77313 0.18899 0.22549 0.0
O420 O 0.73226 0.20785 0.2548 0.0
O421 O 0.75155 0.24653 0.24977 0.0
O422 O 0.69118 0.16029 0.23899 0.0
O423 O 0.73086 0.15894 0.24644 0.0
O424 O 0.67346 0.20585 0.23676 0.0
O425 O 0.69936 0.23822 0.24149 0.0
O426 O 0.71014 0.24003 0.22202 0.0
O427 O 0.7102 0.19442 0.2219 0.0
O428 O 0.74705 0.26543 0.22204 0.0
O429 O 0.77067 0.26873 0.23563 0.0
O430 O 0.78251 0.20861 0.23108 0.0
O431 O 0.7474 0.19317 0.22569 0.0
H432 H 0.71483 0.09786 0.25409 0.0
H433 H 0.69036 0.07966 0.2686 0.0
H434 H 0.64265 0.15456 0.27039 0.0
H435 H 0.66821 0.17304 0.25624 0.0
H436 H 0.71097 0.29702 0.23219 0.0
H437 H 0.69315 0.3436 0.23277 0.0
H438 H 0.77508 0.37511 0.22743 0.0
H439 H 0.7925 0.32794 0.22639 0.0
Ho440 Ho 0.63969 0.98826 0.99473 0.0
Ho441 Ho 0.59849 1.00753 0.98726 0.0
C442 C 0.59829 1.01593 1.01125 0.0
C443 C 0.68651 0.98028 1.00339 0.0
C444 C 0.69339 0.96363 1.01214 0.0
C445 C 0.71969 0.96484 1.01632 0.0
C446 C 0.72731 0.94612 1.02373 0.0
C447 C 0.70888 0.92554 1.02691 0.0
C448 C 0.68221 0.92507 1.02287 0.0
C449 C 0.67447 0.94411 1.01563 0.0
C450 C 0.60647 0.94201 0.99468 0.0
C451 C 0.62928 0.96712 0.97382 0.0
C452 C 0.55205 1.01789 0.97858 0.0
C453 C 0.5261 1.00262 0.97858 0.0
C454 C 0.52619 0.97407 0.97994 0.0
C455 C 0.50174 0.95927 0.97936 0.0
C456 C 0.47666 0.97281 0.97754 0.0
C457 C 0.47652 1.00168 0.97684 0.0
C458 C 0.50111 1.01645 0.9773 0.0
C459 C 0.64213 0.04291 0.98038 0.0
O460 O 0.62347 1.00674 1.00968 0.0
O461 O 0.58297 1.01784 1.00318 0.0
O462 O 0.6777 0.9659 0.99587 0.0
O463 O 0.67158 1.00222 1.00494 0.0
O464 O 0.63275 0.94305 0.99362 0.0
O465 O 0.59764 0.96693 0.99633 0.0
O466 O 0.60426 0.97141 0.97701 0.0
O467 O 0.64882 0.9799 0.97866 0.0
O468 O 0.57262 1.00584 0.97415 0.0
O469 O 0.55908 1.02842 0.98713 0.0
O470 O 0.61906 0.05032 0.98445 0.0
O471 O 0.64197 1.01693 0.98139 0.0
H472 H 0.73451 0.9798 1.0137 0.0
H473 H 0.74775 0.94768 1.02688 0.0
H474 H 0.66751 0.9095 1.02504 0.0
H475 H 0.65401 0.94289 1.01247 0.0
H476 H 0.5453 0.96307 0.98113 0.0
H477 H 0.50279 0.9371 0.97982 0.0
H478 H 0.45751 1.01279 0.97563 0.0
H479 H 0.50068 0.03857 0.97646 0.0
Ho480 Ho 0.85026 0.21064 0.88317 0.0
Ho481 Ho 0.82915 0.25151 0.88871 0.0
C482 C 0.82476 0.24612 0.8648 0.0
C483 C 0.86003 0.16176 0.87633 0.0
C484 C 0.8785 0.14813 0.86913 0.0
C485 C 0.87395 0.15001 0.8588 0.0
C486 C 0.88972 0.13443 0.85218 0.0
C487 C 0.91035 0.11666 0.85575 0.0
C488 C 0.91574 0.11586 0.86604 0.0
C489 C 0.89987 0.13134 0.87267 0.0
C490 C 0.89636 0.24428 0.88383 0.0
C491 C 0.86415 0.22726 0.90485 0.0
C492 C 0.811 0.30111 0.89103 0.0
C493 C 0.82082 0.32701 0.88681 0.0
C494 C 0.83945 0.32677 0.87879 0.0
C495 C 0.85593 0.34967 0.8769 0.0
C496 C 0.85435 0.37287 0.88315 0.0
C497 C 0.83317 0.37403 0.89036 0.0
C498 C 0.81661 0.35123 0.89218 0.0
C499 C 0.79989 0.2112 0.89994 0.0
O500 O 0.84294 0.22681 0.86694 0.0
O501 O 0.81302 0.25724 0.87265 0.0
O502 O 0.8716 0.17187 0.88427 0.0
O503 O 0.84071 0.17771 0.87285 0.0
O504 O 0.89493 0.21868 0.88622 0.0
O505 O 0.87191 0.25217 0.88108 0.0
O506 O 0.8612 0.25113 0.90059 0.0
O507 O 0.85615 0.20582 0.89972 0.0
O508 O 0.82856 0.28947 0.89702 0.0
O509 O 0.80007 0.28364 0.88483 0.0
O510 O 0.80702 0.23555 0.90261 0.0
O511 O 0.80764 0.20917 0.89063 0.0
H512 H 0.85759 0.16272 0.85583 0.0
H513 H 0.88468 0.1352 0.8443 0.0
H514 H 0.93163 0.10257 0.86901 0.0
H515 H 0.90378 0.12949 0.88061 0.0
H516 H 0.843 0.30811 0.87456 0.0
H517 H 0.87156 0.34824 0.87116 0.0
H518 H 0.83125 0.3913 0.89541 0.0
H519 H 0.80243 0.35168 0.89843 0.0
Ho520 Ho 0.62358 0.0964 0.62813 0.0
Ho521 Ho 0.58194 0.07488 0.63482 0.0
C522 C 0.58362 0.06937 0.61086 0.0
C523 C 0.67151 0.1039 0.62023 0.0
C524 C 0.68107 0.11542 0.61077 0.0
C525 C 0.70916 0.11524 0.60854 0.0
C526 C 0.71881 0.12862 0.60002 0.0
C527 C 0.70045 0.14247 0.59365 0.0
C528 C 0.67219 0.14222 0.59585 0.0
C529 C 0.66255 0.12872 0.60435 0.0
C530 C 0.58872 0.14112 0.62854 0.0
C531 C 0.61045 0.1119 0.65014 0.0
C532 C 0.53439 0.06219 0.64214 0.0
C533 C 0.50783 0.07558 0.6405 0.0
C534 C 0.50435 0.09334 0.63234 0.0
C535 C 0.48185 0.11114 0.63198 0.0
C536 C 0.46271 0.11165 0.63985 0.0
C537 C 0.46527 0.0922 0.6476 0.0
C538 C 0.48768 0.07434 0.64792 0.0
C539 C 0.62627 0.04061 0.64176 0.0
O540 O 0.60818 0.0799 0.61269 0.0
O541 O 0.56808 0.06572 0.61876 0.0
O542 O 0.65945 0.12156 0.62608 0.0
O543 O 0.65835 0.08052 0.61975 0.0
O544 O 0.61481 0.14088 0.63022 0.0
O545 O 0.58114 0.11621 0.6262 0.0
O546 O 0.58572 0.10665 0.64685 0.0
O547 O 0.63113 0.10424 0.64446 0.0
O548 O 0.55224 0.07736 0.64682 0.0
O549 O 0.5451 0.04991 0.63443 0.0
O550 O 0.60372 1.03262 0.63749 0.0
O551 O 0.62514 0.06657 0.64105 0.0
H552 H 0.72369 0.10531 0.6135 0.0
H553 H 0.74073 0.12872 0.59856 0.0
H554 H 0.65758 0.15245 0.59101 0.0
H555 H 0.64074 0.12913 0.60604 0.0
H556 H 0.51993 0.09471 0.62657 0.0
H557 H 0.48038 0.12562 0.62587 0.0
H558 H 0.45129 0.09223 0.6539 0.0
H559 H 0.49026 0.06097 0.65432 0.0
Ho560 Ho 0.73217 0.8789 0.38064 0.0
Ho561 Ho 0.75247 0.83753 0.38683 0.0
C562 C 0.75864 0.84179 0.36292 0.0
C563 C 0.722 0.92655 0.37284 0.0
C564 C 0.70201 0.93779 0.36561 0.0
C565 C 0.71017 0.94288 0.35574 0.0
C566 C 0.69191 0.95483 0.34899 0.0
C567 C 0.66515 0.96213 0.352 0.0
C568 C 0.65681 0.95667 0.36183 0.0
C569 C 0.67506 0.9446 0.36858 0.0
C570 C 0.6859 0.84547 0.38194 0.0
C571 C 0.7187 0.86619 0.4026 0.0
C572 C 0.76803 0.78753 0.39032 0.0
C573 C 0.75587 0.76107 0.38763 0.0
C574 C 0.73486 0.75973 0.38046 0.0
C575 C 0.71743 0.73693 0.3801 0.0
C576 C 0.72047 0.71546 0.38705 0.0
C577 C 0.74343 0.71588 0.39351 0.0
C578 C 0.76094 0.73849 0.39377 0.0
C579 C 0.78282 0.87834 0.39724 0.0
O580 O 0.74076 0.86159 0.36474 0.0
O581 O 0.76947 0.83054 0.37093 0.0
O582 O 0.71223 0.91845 0.38137 0.0
O583 O 0.74064 0.90977 0.36938 0.0
O584 O 0.68753 0.87124 0.38403 0.0
O585 O 0.71013 0.83735 0.37911 0.0
O586 O 0.72076 0.84157 0.39881 0.0
O587 O 0.72703 0.88658 0.39702 0.0
O588 O 0.75285 0.80192 0.39636 0.0
O589 O 0.77803 0.80235 0.38309 0.0
O590 O 0.7756 0.8544 0.40028 0.0
O591 O 0.7749 0.87959 0.38794 0.0
H592 H 0.73087 0.93814 0.35327 0.0
H593 H 0.69915 0.95933 0.34152 0.0
H594 H 0.63631 0.96206 0.36434 0.0
H595 H 0.66814 0.94105 0.37616 0.0
H596 H 0.73059 0.77716 0.37568 0.0
H597 H 0.70043 0.73711 0.37489 0.0
H598 H 0.74651 0.70011 0.39908 0.0
H599 H 0.7769 0.73936 0.39941 0.0
Ho600 Ho 0.93516 0.97814 0.12754 0.0
Ho601 Ho 0.9761 1.00011 0.13266 0.0
C602 C 0.97005 1.00301 0.10882 0.0
C603 C 0.88677 0.96625 0.12069 0.0
C604 C 0.8759 0.94421 0.11426 0.0
C605 C 0.86581 0.9508 0.10476 0.0
C606 C 0.85522 0.93036 0.09859 0.0
C607 C 0.8543 0.9029 0.10181 0.0
C608 C 0.86444 0.89621 0.11131 0.0
C609 C 0.8753 0.91667 0.11747 0.0
C610 C 0.96932 0.9326 0.12824 0.0
C611 C 0.95393 0.96428 0.14926 0.0
C612 C 1.02286 1.02407 0.1358 0.0
C613 C 1.0358 1.03635 0.14459 0.0
C614 C 0.06416 1.03316 0.14584 0.0
C615 C 0.0758 1.03621 0.15527 0.0
C616 C 0.05903 0.04206 0.16358 0.0
C617 C 1.03127 0.04877 0.16205 0.0
C618 C 1.01974 0.04611 0.15256 0.0
C619 C 0.93508 1.02734 0.14428 0.0
O620 O 0.95038 0.98546 0.11117 0.0
O621 O 0.98194 1.01463 0.11651 0.0
O622 O 0.89546 0.95905 0.12948 0.0
O623 O 0.90311 0.98396 0.11645 0.0
O624 O 0.94387 0.93401 0.13087 0.0
O625 O 0.97685 0.95693 0.12523 0.0
O626 O 0.97759 0.97009 0.14517 0.0
O627 O 0.93173 0.97004 0.14407 0.0
O628 O 1.00141 1.03667 0.13219 0.0
O629 O 1.01921 0.9976 0.13641 0.0
O630 O 0.95906 1.01902 0.14703 0.0
O631 O 0.9333 1.02064 0.13486 0.0
H632 H 0.86589 0.97184 0.10214 0.0
H633 H 0.84696 0.93621 0.09138 0.0
H634 H 0.86387 0.87522 0.11397 0.0
H635 H 0.88301 0.9109 0.12476 0.0
H636 H 0.07686 1.02577 0.13974 0.0
H637 H 0.09725 1.03075 0.15622 0.0
H638 H 1.01802 0.05359 0.16832 0.0
H639 H 0.99792 0.04952 0.15168 0.0
Ho640 Ho 0.73424 0.73481 0.88317 0.0
Ho641 Ho 0.71407 0.69291 0.87706 0.0
C642 C 0.69689 0.70935 0.89871 0.0
C643 C 0.75626 0.78098 0.88832 0.0
C644 C 0.76676 0.7898 0.89809 0.0
C645 C 0.7583 0.81522 0.90187 0.0
C646 C 0.75971 0.82036 0.9121 0.0
C647 C 0.76924 0.79994 0.91868 0.0
C648 C 0.78047 0.7757 0.91477 0.0
C649 C 0.77966 0.77086 0.9045 0.0
C650 C 0.76143 0.69314 0.89437 0.0
C651 C 0.73914 0.73055 0.85919 0.0
C652 C 0.70625 0.64427 0.86968 0.0
C653 C 0.6884 0.63278 0.86197 0.0
C654 C 0.69047 0.6049 0.85962 0.0
C655 C 0.67404 0.59372 0.85212 0.0
C656 C 0.65533 0.61033 0.84685 0.0
C657 C 0.65277 0.63819 0.84943 0.0
C658 C 0.66928 0.64937 0.85695 0.0
C659 C 0.66784 0.72613 0.87765 0.0
O660 O 0.70167 0.73347 0.89484 0.0
O661 O 0.70472 0.68788 0.89347 0.0
O662 O 0.76987 0.7615 0.8838 0.0
O663 O 0.72977 0.77681 0.88812 0.0
O664 O 0.75148 0.71604 0.89751 0.0
O665 O 0.75601 0.69264 0.88485 0.0
O666 O 0.72242 0.70981 0.86107 0.0
O667 O 0.74923 0.74275 0.86713 0.0
O668 O 0.69371 0.65354 0.87756 0.0
O669 O 0.7254 0.66091 0.86658 0.0
O670 O 0.66926 0.70031 0.8797 0.0
O671 O 0.6923 0.73437 0.87504 0.0
H672 H 0.74831 0.83008 0.89707 0.0
H673 H 0.75069 0.83918 0.91493 0.0
H674 H 0.78809 0.75978 0.9197 0.0
H675 H 0.78715 0.7514 0.90171 0.0
H676 H 0.70499 0.59184 0.86351 0.0
H677 H 0.67617 0.5721 0.85038 0.0
H678 H 0.6387 0.65148 0.84544 0.0
H679 H 0.66742 0.67099 0.85875 0.0
Ho680 Ho 0.59681 0.5077 0.13699 0.0
Ho681 Ho 0.63807 0.4855 0.13035 0.0
C682 C 0.62546 0.47339 0.1527 0.0
C683 C 0.54903 0.52 0.14423 0.0
C684 C 0.52261 0.50634 0.14267 0.0
C685 C 0.51934 0.48797 0.13467 0.0
C686 C 0.4965 0.47065 0.13428 0.0
C687 C 0.47678 0.47127 0.14195 0.0
C688 C 0.47942 0.49099 0.14962 0.0
C689 C 0.50217 0.50836 0.14996 0.0
C690 C 0.6405 0.54276 0.14397 0.0
C691 C 0.59877 0.51303 0.11299 0.0
C692 C 0.6858 0.47448 0.12274 0.0
C693 C 0.6959 0.4602 0.11383 0.0
C694 C 0.72059 0.4455 0.11447 0.0
C695 C 0.72923 0.42907 0.10653 0.0
C696 C 0.71335 0.42716 0.09778 0.0
C697 C 0.68869 0.44224 0.09714 0.0
C698 C 0.67994 0.45852 0.10513 0.0
C699 C 0.60243 0.44123 0.13138 0.0
O700 O 0.60069 0.47682 0.14922 0.0
O701 O 0.64577 0.48127 0.14689 0.0
O702 O 0.56707 0.50519 0.14897 0.0
O703 O 0.55955 0.53208 0.13644 0.0
O704 O 0.61702 0.55014 0.14027 0.0
O705 O 0.64083 0.5168 0.14281 0.0
O706 O 0.62321 0.50224 0.11487 0.0
O707 O 0.58324 0.51702 0.12088 0.0
O708 O 0.67312 0.45869 0.12906 0.0
O709 O 0.67323 0.49799 0.12145 0.0
O710 O 0.62838 0.44145 0.13329 0.0
O711 O 0.59552 0.46597 0.12861 0.0
H712 H 0.53516 0.48598 0.12901 0.0
H713 H 0.495 0.45591 0.12825 0.0
H714 H 0.46499 0.49175 0.15578 0.0
H715 H 0.50461 0.52218 0.15625 0.0
H716 H 0.73286 0.44618 0.12122 0.0
H717 H 0.7481 0.41745 0.10733 0.0
H718 H 0.67619 0.44158 0.09045 0.0
H719 H 0.66057 0.46941 0.10457 0.0
Ho720 Ho 0.82022 0.332 0.38611 0.0
Ho721 Ho 0.83878 0.37341 0.37938 0.0
C722 C 0.85504 0.362 0.40124 0.0
C723 C 0.80521 0.2821 0.39013 0.0
C724 C 0.81708 0.25538 0.38748 0.0
C725 C 0.84472 0.25378 0.38455 0.0
C726 C 0.8584 0.22862 0.38461 0.0
C727 C 0.84451 0.20452 0.38749 0.0
C728 C 0.81587 0.20589 0.38912 0.0
C729 C 0.80233 0.23124 0.38926 0.0
C730 C 0.78959 0.37298 0.3965 0.0
C731 C 0.81275 0.33492 0.36204 0.0
C732 C 0.847 0.4216 0.37169 0.0
C733 C 0.86746 0.43396 0.36506 0.0
C734 C 0.88272 0.41794 0.35832 0.0
C735 C 0.90223 0.43032 0.35211 0.0
C736 C 0.9069 0.45877 0.35266 0.0
C737 C 0.89204 0.47449 0.35964 0.0
C738 C 0.87247 0.46216 0.36577 0.0
C739 C 0.88613 0.34091 0.38037 0.0
O740 O 0.85297 0.33709 0.39769 0.0
O741 O 0.84562 0.38185 0.39562 0.0
O742 O 0.8207 0.29696 0.3959 0.0
O743 O 0.79458 0.29645 0.3829 0.0
O744 O 0.79866 0.34991 0.39979 0.0
O745 O 0.79631 0.37336 0.38706 0.0
O746 O 0.82938 0.35587 0.3636 0.0
O747 O 0.80337 0.32321 0.37023 0.0
O748 O 0.85625 0.41409 0.38035 0.0
O749 O 0.83057 0.40338 0.36779 0.0
O750 O 0.88404 0.36682 0.3822 0.0
O751 O 0.86183 0.33226 0.3779 0.0
H752 H 0.85632 0.27231 0.38305 0.0
H753 H 0.88039 0.22867 0.38333 0.0
H754 H 0.80431 0.18765 0.39104 0.0
H755 H 0.78084 0.23212 0.39139 0.0
H756 H 0.87939 0.39599 0.35781 0.0
H757 H 0.91344 0.41774 0.34681 0.0
H758 H 0.89482 0.49651 0.36011 0.0
H759 H 0.86102 0.47472 0.37102 0.0
Ho760 Ho 0.98631 0.58196 0.63716 0.0
Ho761 Ho 0.94593 0.6056 0.63093 0.0
C762 C 0.96052 0.61845 0.65313 0.0
C763 C 1.03321 0.56525 0.64403 0.0
C764 C 0.06141 0.5738 0.64184 0.0
C765 C 0.06739 0.58869 0.63312 0.0
C766 C 0.09296 0.6014 0.63199 0.0
C767 C 0.11272 0.59977 0.63964 0.0
C768 C 0.10715 0.58303 0.648 0.0
C769 C 0.08173 0.57018 0.64907 0.0
C770 C 0.94102 0.54938 0.64447 0.0
C771 C 0.98393 0.57755 0.61326 0.0
C772 C 0.89862 0.61607 0.62301 0.0
C773 C 0.89042 0.62806 0.61343 0.0
C774 C 0.864 0.62339 0.60969 0.0
C775 C 0.85573 0.63569 0.60077 0.0
C776 C 0.87374 0.65308 0.59549 0.0
C777 C 0.90039 0.6574 0.59923 0.0
C778 C 0.90871 0.64488 0.60811 0.0
C779 C 0.98258 0.64879 0.6313 0.0
O780 O 0.98483 0.61248 0.64962 0.0
O781 O 0.93936 0.61251 0.6474 0.0
O782 O 1.01817 0.58383 0.64841 0.0
O783 O 1.02015 0.55306 0.6368 0.0
O784 O 0.96297 0.54065 0.63998 0.0
O785 O 0.94289 0.57531 0.64371 0.0
O786 O 0.95993 0.58909 0.6153 0.0
O787 O 0.99954 0.57289 0.62104 0.0
O788 O 0.91144 0.63282 0.62899 0.0
O789 O 0.91018 0.59183 0.62262 0.0
O790 O 0.95674 0.64942 0.63346 0.0
O791 O 0.98888 0.62367 0.6287 0.0
H792 H 0.05181 0.59175 0.62745 0.0
H793 H 0.0966 0.6138 0.62542 0.0
H794 H 0.12145 0.58157 0.65417 0.0
H795 H 0.07734 0.55888 0.65586 0.0
H796 H 0.84973 0.61032 0.61369 0.0
H797 H 0.83529 0.63137 0.59798 0.0
H798 H 0.9147 0.67079 0.59541 0.0
H799 H 0.9293 0.64864 0.61089 0.0
Ho800 Ho 0.75167 0.34594 0.73647 0.0
Ho801 Ho 0.73125 0.38636 0.74209 0.0
C802 C 0.71827 0.37188 0.72024 0.0
C803 C 0.76699 0.29524 0.73406 0.0
C804 C 0.75147 0.26958 0.73475 0.0
C805 C 0.72266 0.27037 0.73485 0.0
C806 C 0.70757 0.24623 0.73386 0.0
C807 C 0.72106 0.22079 0.73282 0.0
C808 C 0.74996 0.21997 0.73362 0.0
C809 C 0.76507 0.24426 0.7345 0.0
C810 C 0.78274 0.38547 0.72566 0.0
C811 C 0.75881 0.35138 0.76006 0.0
C812 C 0.72024 0.43427 0.74958 0.0
C813 C 0.69831 0.44475 0.75606 0.0
C814 C 0.68549 0.4277 0.76311 0.0
C815 C 0.66422 0.43792 0.76907 0.0
C816 C 0.65522 0.46518 0.76796 0.0
C817 C 0.66758 0.48187 0.76067 0.0
C818 C 0.689 0.47172 0.75478 0.0
C819 C 0.68429 0.35402 0.74064 0.0
O820 O 0.7202 0.34769 0.72436 0.0
O821 O 0.72657 0.39273 0.7256 0.0
O822 O 0.75954 0.31129 0.7268 0.0
O823 O 0.77018 0.30868 0.74236 0.0
O824 O 0.77567 0.36114 0.72295 0.0
O825 O 0.77424 0.38795 0.73488 0.0
O826 O 0.73856 0.36858 0.75807 0.0
O827 O 0.77175 0.34253 0.75205 0.0
O828 O 0.71211 0.42627 0.74082 0.0
O829 O 0.73776 0.41719 0.75355 0.0
O830 O 0.68667 0.3796 0.73838 0.0
O831 O 0.70824 0.34545 0.74361 0.0
H832 H 0.71185 0.28983 0.73511 0.0
H833 H 0.68544 0.24788 0.73316 0.0
H834 H 0.76097 0.2007 0.73304 0.0
H835 H 0.78734 0.24336 0.73454 0.0
H836 H 0.69203 0.40658 0.76405 0.0
H837 H 0.65498 0.42463 0.77462 0.0
H838 H 0.66135 0.50308 0.75976 0.0
H839 H 0.69843 0.48499 0.74927 0.0
Ho840 Ho 0.97131 0.49572 0.98182 0.0
Ho841 Ho 0.92995 0.47551 0.9872 0.0
C842 C 0.94967 0.45855 0.966 0.0
C843 C 1.02029 0.51557 0.9791 0.0
C844 C 0.04806 0.50695 0.98201 0.0
C845 C 0.0538 0.4791 0.98362 0.0
C846 C 0.08097 0.47 0.98404 0.0
C847 C 0.1029 0.48868 0.98298 0.0
C848 C 0.09685 0.51696 0.9826 0.0
C849 C 0.06959 0.52599 0.982 0.0
C850 C 0.93065 0.5248 0.97068 0.0
C851 C 0.96537 0.50017 1.00569 0.0
C852 C 0.88034 0.46634 0.99353 0.0
C853 C 0.86773 0.44563 0.99996 0.0
C854 C 0.88404 0.4285 1.00594 0.0
C855 C 0.87167 0.40935 1.01226 0.0
C856 C 0.84286 0.40697 1.01261 0.0
C857 C 0.82673 0.42347 1.00629 0.0
C858 C 0.83911 0.44269 1.00002 0.0
C859 C 0.96256 0.4288 0.98693 0.0
O860 O 0.97297 0.46216 0.97062 0.0
O861 O 0.92749 0.46743 0.97059 0.0
O862 O 1.00793 0.4993 0.97284 0.0
O863 O 1.004 0.52373 0.98622 0.0
O864 O 0.95411 0.51582 0.9677 0.0
O865 O 0.92942 0.51823 0.98008 0.0
O866 O 0.9455 0.48272 1.00347 0.0
O867 O 0.97739 0.51131 0.99791 0.0
O868 O 0.88988 0.45718 0.98511 0.0
O869 O 0.89728 0.48334 0.99784 0.0
O870 O 0.93692 0.43067 0.98458 0.0
O871 O 0.97115 0.45311 0.98952 0.0
H872 H 1.03734 0.46411 0.98379 0.0
H873 H 0.08454 0.44807 0.98429 0.0
H874 H 0.11318 0.53199 0.98206 0.0
H875 H 0.06544 0.54765 0.98093 0.0
H876 H 0.90626 0.43029 1.00584 0.0
H877 H 0.88456 0.3968 1.01703 0.0
H878 H 0.80448 0.42241 1.00652 0.0
H879 H 0.82632 0.45564 0.99536 0.0
Ho880 Ho 0.83323 0.74465 0.23462 0.0
Ho881 Ho 0.85685 0.70388 0.24016 0.0
C882 C 0.87266 0.7236 0.21887 0.0
C883 C 0.81693 0.7922 0.22829 0.0
C884 C 0.82932 0.81946 0.22931 0.0
C885 C 0.85781 0.82198 0.23061 0.0
C886 C 0.87003 0.84782 0.2308 0.0
C887 C 0.85392 0.8717 0.2298 0.0
C888 C 0.82509 0.86904 0.22928 0.0
C889 C 0.8129 0.84306 0.22898 0.0
C890 C 0.80094 0.70016 0.22656 0.0
C891 C 0.82848 0.73985 0.2584 0.0
C892 C 0.86496 0.65491 0.24695 0.0
C893 C 0.87579 0.64356 0.25627 0.0
C894 C 0.86885 0.61678 0.25906 0.0
C895 C 0.88012 0.60528 0.26768 0.0
C896 C 0.89865 0.62039 0.27357 0.0
C897 C 0.90539 0.64734 0.2708 0.0
C898 C 0.89388 0.65893 0.26223 0.0
C899 C 0.90057 0.73966 0.24078 0.0
O900 O 0.86617 0.74678 0.22311 0.0
O901 O 0.86593 0.70103 0.22365 0.0
O902 O 0.83065 0.77481 0.22282 0.0
O903 O 0.8083 0.78121 0.23656 0.0
O904 O 0.79204 0.72143 0.23141 0.0
O905 O 0.82696 0.70234 0.22722 0.0
O906 O 0.84192 0.71703 0.25613 0.0
O907 O 0.82192 0.75524 0.25076 0.0
O908 O 0.88278 0.66829 0.24155 0.0
O909 O 0.84117 0.66743 0.24751 0.0
O910 O 0.90117 0.71393 0.23847 0.0
O911 O 0.87522 0.74628 0.24311 0.0
H912 H 0.87077 0.80391 0.23109 0.0
H913 H 0.89226 0.84884 0.23107 0.0
H914 H 0.81204 0.88699 0.22868 0.0
H915 H 0.79078 0.8414 0.2282 0.0
H916 H 0.85496 0.60468 0.25451 0.0
H917 H 0.87475 0.58438 0.26964 0.0
H918 H 0.91936 0.65948 0.27529 0.0
H919 H 0.89934 0.67976 0.26019 0.0
Ho920 Ho 0.58011 0.57361 0.48379 0.0
Ho921 Ho 0.62178 0.59254 0.49042 0.0
C922 C 0.60691 0.61224 0.4689 0.0
C923 C 0.53473 0.55114 0.47792 0.0
C924 C 0.52768 0.54055 0.46796 0.0
C925 C 0.50338 0.54973 0.46347 0.0
C926 C 0.50128 0.55034 0.45309 0.0
C927 C 0.52369 0.5422 0.4471 0.0
C928 C 0.54623 0.52919 0.45161 0.0
C929 C 0.548 0.52798 0.46201 0.0
C930 C 0.62261 0.5461 0.47298 0.0
C931 C 0.58263 0.56764 0.50793 0.0
C932 C 0.67056 0.60044 0.49779 0.0
C933 C 0.68528 0.62206 0.50339 0.0
C934 C 0.68538 0.62198 0.51387 0.0
C935 C 0.70151 0.6407 0.51914 0.0
C936 C 0.718 0.65985 0.51405 0.0
C937 C 0.71717 0.66056 0.50357 0.0
C938 C 0.70103 0.6418 0.49829 0.0
C939 C 0.58933 0.63967 0.48979 0.0
O940 O 0.58234 0.6067 0.47229 0.0
O941 O 0.62796 0.60389 0.47424 0.0
O942 O 0.55367 0.53785 0.48284 0.0
O943 O 0.53862 0.57764 0.47818 0.0
O944 O 0.60066 0.55745 0.46956 0.0
O945 O 0.62188 0.55072 0.48257 0.0
O946 O 0.60504 0.58224 0.50627 0.0
O947 O 0.56947 0.55975 0.49984 0.0
O948 O 0.66383 0.60606 0.48864 0.0
O949 O 0.65118 0.58712 0.50244 0.0
O950 O 0.61537 0.63772 0.48814 0.0
O951 O 0.58041 0.61527 0.49209 0.0
H952 H 0.48741 0.55935 0.46791 0.0
H953 H 0.48363 0.56056 0.44983 0.0
H954 H 0.56362 0.52253 0.44716 0.0
H955 H 0.56657 0.51982 0.46533 0.0
H956 H 0.67372 0.60687 0.51802 0.0
H957 H 0.7021 0.63918 0.5272 0.0
H958 H 0.72956 0.67514 0.49944 0.0
H959 H 0.70152 0.64229 0.4902 0.0
Ho960 Ho 0.33734 0.3809 0.238 0.0
Ho961 Ho 0.31682 0.3396 0.23283 0.0
C962 C 0.31308 0.34593 0.25667 0.0
C963 C 0.34647 0.43053 0.24422 0.0
C964 C 0.3667 0.44368 0.25072 0.0
C965 C 0.38384 0.42801 0.25692 0.0
C966 C 0.40266 0.44102 0.26323 0.0
C967 C 0.40467 0.46983 0.26334 0.0
C968 C 0.38803 0.48527 0.25684 0.0
C969 C 0.36919 0.47227 0.25058 0.0
C970 C 0.38417 0.34828 0.2377 0.0
C971 C 0.35323 0.36127 0.21678 0.0
C972 C 0.29802 0.29012 0.23066 0.0
C973 C 0.30884 0.26351 0.2339 0.0
C974 C 0.33626 0.26149 0.23704 0.0
C975 C 0.34899 0.2359 0.23765 0.0
C976 C 0.33437 0.21187 0.2352 0.0
C977 C 0.30588 0.21391 0.23337 0.0
C978 C 0.29328 0.23964 0.23259 0.0
C979 C 0.28692 0.37967 0.22164 0.0
O980 O 0.33064 0.3656 0.25435 0.0
O981 O 0.30145 0.33408 0.24896 0.0
O982 O 0.35623 0.42064 0.23593 0.0
O983 O 0.3292 0.4138 0.24849 0.0
O984 O 0.38221 0.37375 0.2352 0.0
O985 O 0.35982 0.33981 0.24037 0.0
O986 O 0.34997 0.33802 0.22142 0.0
O987 O 0.34432 0.38336 0.22136 0.0
O988 O 0.31319 0.3026 0.22408 0.0
O989 O 0.28976 0.30669 0.23767 0.0
O990 O 0.29497 0.3557 0.21886 0.0
O991 O 0.29441 0.38149 0.23095 0.0
H992 H 0.38237 0.40581 0.25698 0.0
H993 H 0.41529 0.42863 0.26814 0.0
H994 H 0.38873 0.5075 0.25688 0.0
H995 H 0.35621 0.48457 0.24576 0.0
H996 H 0.34848 0.27982 0.23819 0.0
H997 H 0.37091 0.23539 0.23906 0.0
H998 H 0.29383 0.19578 0.23172 0.0
H999 H 0.27193 0.2409 0.23031 0.0
Ho1000 Ho 0.45689 0.60704 0.99018 0.0
Ho1001 Ho 0.49842 0.58484 0.98456 0.0
C1002 C 0.49344 0.57915 1.00827 0.0
C1003 C 0.40559 0.61148 0.99511 0.0
C1004 C 0.38532 0.60393 1.00278 0.0
C1005 C 0.37717 0.57645 1.00398 0.0
C1006 C 0.35415 0.57 1.00969 0.0
C1007 C 0.33892 0.59083 1.01441 0.0
C1008 C 0.3481 0.61815 1.0137 0.0
C1009 C 0.37099 0.62465 1.00787 0.0
C1010 C 0.49095 0.6519 0.99087 0.0
C1011 C 0.47899 0.62792 0.96947 0.0
C1012 C 0.54586 0.56731 0.97849 0.0
C1013 C 0.57318 0.57905 0.98019 0.0
C1014 C 0.57545 0.60658 0.98311 0.0
C1015 C 0.60106 0.6193 0.98334 0.0
C1016 C 0.625 0.60461 0.98077 0.0
C1017 C 0.62279 0.57621 0.97886 0.0
C1018 C 0.59698 0.56358 0.97847 0.0
C1019 C 0.45343 0.55372 0.9762 0.0
O1020 O 0.46845 0.58768 1.00575 0.0
O1021 O 0.51076 0.57751 1.00082 0.0
O1022 O 0.42381 0.63026 0.99722 0.0
O1023 O 0.41577 0.59137 0.98984 0.0
O1024 O 0.46506 0.65163 0.98864 0.0
O1025 O 0.49886 0.62681 0.99301 0.0
O1026 O 0.5017 0.61755 0.97303 0.0
O1027 O 0.45605 0.62363 0.97444 0.0
O1028 O 0.52953 0.58236 0.97306 0.0
O1029 O 0.53357 0.55783 0.9864 0.0
O1030 O 0.47306 0.54432 0.98182 0.0
O1031 O 0.45732 0.57948 0.97658 0.0
H1032 H 0.38768 0.55995 1.00011 0.0
H1033 H 0.34755 0.54879 1.00998 0.0
H1034 H 0.33717 0.63461 1.01744 0.0
H1035 H 0.3768 0.64599 1.00701 0.0
H1036 H 0.55721 0.6187 0.98465 0.0
H1037 H 0.60161 0.64118 0.98476 0.0
H1038 H 0.64083 0.56409 0.97708 0.0
H1039 H 0.59554 0.54211 0.97642 0.0
Ho1040 Ho 0.21824 0.69442 0.74052 0.0
Ho1041 Ho 0.23932 0.73496 0.7343 0.0
C1042 C 0.24359 0.73233 0.75817 0.0
C1043 C 0.21128 0.64697 0.74896 0.0
C1044 C 0.21993 0.61792 0.74887 0.0
C1045 C 0.20892 0.59894 0.74204 0.0
C1046 C 0.21291 0.57071 0.74345 0.0
C1047 C 0.22773 0.56102 0.75176 0.0
C1048 C 0.24022 0.58029 0.75816 0.0
C1049 C 0.23634 0.60832 0.75672 0.0
C1050 C 0.17246 0.72815 0.73948 0.0
C1051 C 0.20257 0.7082 0.71872 0.0
C1052 C 0.26147 0.781 0.72904 0.0
C1053 C 0.27177 0.78953 0.71919 0.0
C1054 C 0.26228 0.8143 0.71518 0.0
C1055 C 0.26255 0.8183 0.70488 0.0
C1056 C 0.27194 0.79738 0.69847 0.0
C1057 C 0.28468 0.77415 0.70257 0.0
C1058 C 0.28504 0.77049 0.71291 0.0
C1059 C 0.26626 0.69317 0.72309 0.0
O1060 O 0.22521 0.71313 0.7563 0.0
O1061 O 0.25547 0.74257 0.75021 0.0
O1062 O 0.22942 0.66497 0.75186 0.0
O1063 O 0.19595 0.65603 0.74171 0.0
O1064 O 0.17382 0.70237 0.7373 0.0
O1065 O 0.19691 0.73623 0.74219 0.0
O1066 O 0.20749 0.7326 0.72236 0.0
O1067 O 0.20976 0.68702 0.7242 0.0
O1068 O 0.27505 0.76153 0.73355 0.0
O1069 O 0.23496 0.77696 0.72934 0.0
O1070 O 0.2572 0.71653 0.72006 0.0
O1071 O 0.26023 0.69228 0.7326 0.0
H1072 H 0.19611 0.60574 0.7359 0.0
H1073 H 0.20329 0.5565 0.73831 0.0
H1074 H 0.25129 0.57388 0.76477 0.0
H1075 H 0.24481 0.62243 0.76217 0.0
H1076 H 0.25208 0.82928 0.71989 0.0
H1077 H 0.25245 0.83639 0.70192 0.0
H1078 H 0.29225 0.75789 0.69777 0.0
H1079 H 0.29345 0.75162 0.71587 0.0
Ho1080 Ho 0.12663 0.48223 0.49139 0.0
Ho1081 Ho 0.08483 0.50169 0.48499 0.0
C1082 C 0.08871 0.50867 0.50895 0.0
C1083 C 0.1747 0.472 0.49893 0.0
C1084 C 0.18711 0.44951 0.5048 0.0
C1085 C 0.18898 0.45165 0.51523 0.0
C1086 C 0.20219 0.43129 0.52075 0.0
C1087 C 0.21397 0.40838 0.51596 0.0
C1088 C 0.21155 0.4059 0.50556 0.0
C1089 C 0.19827 0.42628 0.50002 0.0
C1090 C 0.09408 0.43531 0.49 0.0
C1091 C 0.11427 0.46816 0.46937 0.0
C1092 C 1.03473 0.51698 0.48123 0.0
C1093 C 1.00787 0.50479 0.48348 0.0
C1094 C 1.00604 0.4767 0.48564 0.0
C1095 C 0.98065 0.46345 0.48533 0.0
C1096 C 0.95659 0.47819 0.48295 0.0
C1097 C 0.95826 0.50696 0.482 0.0
C1098 C 0.98381 0.52012 0.48215 0.0
C1099 C 0.1258 0.53281 0.47494 0.0
O1100 O 0.10965 0.49204 0.50725 0.0
O1101 O 0.07658 0.51816 0.50088 0.0
O1102 O 0.16782 0.46622 0.4898 0.0
O1103 O 0.1563 0.48723 0.50335 0.0
O1104 O 0.11995 0.43747 0.4881 0.0
O1105 O 0.0853 0.45937 0.49269 0.0
O1106 O 0.08946 0.46992 0.47307 0.0
O1107 O 0.13442 0.4769 0.47501 0.0
O1108 O 0.04984 0.50266 0.47514 0.0
O1109 O 0.04885 0.52623 0.48877 0.0
O1110 O 0.10217 0.5251 0.47169 0.0
O1111 O 0.12657 0.52498 0.48424 0.0
H1112 H 0.18085 0.46942 0.51911 0.0
H1113 H 0.20426 0.43416 0.52874 0.0
H1114 H 0.22041 0.38849 0.50167 0.0
H1115 H 0.19728 0.42405 0.49198 0.0
H1116 H 1.0245 0.46462 0.48678 0.0
H1117 H 0.98042 0.44132 0.48606 0.0
H1118 H 0.94007 0.51906 0.48044 0.0
H1119 H 0.98488 0.54193 0.4806 0.0
Ho1120 Ho 0.35111 0.69414 0.3825 0.0
Ho1121 Ho 0.33108 0.73568 0.38933 0.0
C1122 C 0.325 0.73493 0.36548 0.0
C1123 C 0.35508 0.64599 0.37455 0.0
C1124 C 0.3646 0.63639 0.36479 0.0
C1125 C 0.35989 0.60921 0.36187 0.0
C1126 C 0.37081 0.59943 0.3529 0.0
C1127 C 0.38675 0.61669 0.34679 0.0
C1128 C 0.39104 0.64406 0.34968 0.0
C1129 C 0.37991 0.65389 0.3586 0.0
C1130 C 0.39672 0.72752 0.38171 0.0
C1131 C 0.37339 0.70893 0.40317 0.0
C1132 C 0.31651 0.78231 0.39698 0.0
C1133 C 0.32633 0.81024 0.39509 0.0
C1134 C 0.35356 0.81472 0.39205 0.0
C1135 C 0.36322 0.84136 0.39065 0.0
C1136 C 0.34571 0.86402 0.39216 0.0
C1137 C 0.31787 0.85925 0.3945 0.0
C1138 C 0.3083 0.83253 0.396 0.0
C1139 C 0.29741 0.69144 0.39665 0.0
O1140 O 0.33456 0.71001 0.36723 0.0
O1141 O 0.32219 0.75051 0.3734 0.0
O1142 O 0.37419 0.65705 0.38006 0.0
O1143 O 0.33216 0.66012 0.37463 0.0
O1144 O 0.39622 0.70133 0.38315 0.0
O1145 O 0.37159 0.73609 0.38011 0.0
O1146 O 0.36695 0.73325 0.39981 0.0
O1147 O 0.36279 0.68779 0.3985 0.0
O1148 O 0.33394 0.76566 0.40123 0.0
O1149 O 0.30391 0.7709 0.3895 0.0
O1150 O 0.28918 0.71301 0.39186 0.0
O1151 O 0.32342 0.69317 0.3961 0.0
H1152 H 0.34822 0.59546 0.36661 0.0
H1153 H 0.36736 0.57818 0.35086 0.0
H1154 H 0.40295 0.65785 0.34503 0.0
H1155 H 0.38368 0.675 0.36076 0.0
H1156 H 0.36762 0.79764 0.39107 0.0
H1157 H 0.38484 0.84414 0.389 0.0
H1158 H 0.30377 0.87623 0.39558 0.0
H1159 H 0.28701 0.82931 0.39809 0.0
Ho1160 Ho 0.11034 0.59203 0.12584 0.0
Ho1161 Ho 0.07848 0.575 0.13371 0.0
C1162 C 0.07024 0.56954 0.10981 0.0
C1163 C 0.14557 0.57322 0.11342 0.0
C1164 C 0.1439 0.56931 0.10249 0.0
C1165 C 0.13087 0.546 0.09845 0.0
C1166 C 0.12812 0.54297 0.08814 0.0
C1167 C 0.13859 0.56302 0.08166 0.0
C1168 C 0.15135 0.58643 0.08572 0.0
C1169 C 0.15399 0.58952 0.09601 0.0
C1170 C 0.08193 0.64045 0.12572 0.0
C1171 C 0.11543 0.61991 0.14514 0.0
C1172 C 1.03158 0.5655 0.14233 0.0
C1173 C 1.00489 0.57854 0.14059 0.0
C1174 C 1.00097 0.59499 0.13209 0.0
C1175 C 0.97826 0.61246 0.13148 0.0
C1176 C 0.95926 0.61377 0.13937 0.0
C1177 C 0.96219 0.5955 0.14747 0.0
C1178 C 0.98491 0.57808 0.14808 0.0
C1179 C 0.12094 0.54218 0.14215 0.0
O1180 O 0.0859 0.59082 0.11121 0.0
O1181 O 0.06652 0.55569 0.11816 0.0
O1182 O 0.14625 0.59871 0.11665 0.0
O1183 O 0.12936 0.5573 0.11873 0.0
O1184 O 0.10863 0.63778 0.12528 0.0
O1185 O 0.07021 0.61624 0.12576 0.0
O1186 O 0.09175 0.60666 0.1455 0.0
O1187 O 0.13107 0.61599 0.13737 0.0
O1188 O 0.05014 0.58179 0.14595 0.0
O1189 O 0.04118 0.55086 0.13502 0.0
O1190 O 0.09868 0.53317 0.13798 0.0
O1191 O 0.12076 0.56789 0.14029 0.0
H1192 H 0.12267 0.53006 0.10323 0.0
H1193 H 0.11819 0.52475 0.08523 0.0
H1194 H 0.1604 0.60191 0.08093 0.0
H1195 H 0.16416 0.60765 0.09889 0.0
H1196 H 1.01633 0.59558 0.12623 0.0
H1197 H 0.97649 0.62613 0.12513 0.0
H1198 H 0.94825 0.59624 0.15377 0.0
H1199 H 0.98778 0.56564 0.1547 0.0
Ho1200 Ho 0.23658 0.3877 0.88012 0.0
Ho1201 Ho 0.25478 0.34709 0.88738 0.0
C1202 C 0.2621 0.34698 0.8635 0.0
C1203 C 0.23349 0.43153 0.86924 0.0
C1204 C 0.22869 0.43487 0.85842 0.0
C1205 C 0.24501 0.42071 0.85142 0.0
C1206 C 0.23927 0.4224 0.84124 0.0
C1207 C 0.21726 0.43845 0.83781 0.0
C1208 C 0.20122 0.45305 0.84478 0.0
C1209 C 0.20684 0.45118 0.855 0.0
C1210 C 0.18893 0.3568 0.88226 0.0
C1211 C 0.22152 0.38162 0.90221 0.0
C1212 C 0.26671 0.29649 0.89159 0.0
C1213 C 0.2527 0.27085 0.88894 0.0
C1214 C 0.22471 0.27147 0.88645 0.0
C1215 C 0.20958 0.24725 0.88601 0.0
C1216 C 0.22228 0.2218 0.88792 0.0
C1217 C 0.25105 0.22115 0.88929 0.0
C1218 C 0.2661 0.24556 0.88992 0.0
C1219 C 0.28591 0.3873 0.89776 0.0
O1220 O 0.24293 0.36559 0.86495 0.0
O1221 O 0.27411 0.33869 0.87179 0.0
O1222 O 0.21289 0.42225 0.87446 0.0
O1223 O 0.25661 0.41987 0.87175 0.0
O1224 O 0.1918 0.38278 0.88412 0.0
O1225 O 0.21277 0.34721 0.87949 0.0
O1226 O 0.22373 0.35602 0.89931 0.0
O1227 O 0.22951 0.40067 0.89595 0.0
O1228 O 0.25256 0.31257 0.8974 0.0
O1229 O 0.27823 0.30992 0.88431 0.0
O1230 O 0.27778 0.3637 0.90088 0.0
O1231 O 0.27858 0.38828 0.88836 0.0
H1232 H 0.26215 0.40807 0.85377 0.0
H1233 H 0.25229 0.41136 0.83603 0.0
H1234 H 0.1841 0.46558 0.84232 0.0
H1235 H 0.19394 0.46222 0.86025 0.0
H1236 H 0.21413 0.29089 0.88558 0.0
H1237 H 0.18755 0.24891 0.88501 0.0
H1238 H 0.2617 0.2019 0.8905 0.0
H1239 H 0.28783 0.24473 0.89169 0.0
Ho1240 Ho 0.43534 0.47392 0.62993 0.0
Ho1241 Ho 0.47537 0.49744 0.63563 0.0
C1242 C 0.47286 0.5014 0.61186 0.0
C1243 C 0.3874 0.46428 0.62245 0.0
C1244 C 0.37916 0.45021 0.61325 0.0
C1245 C 0.35366 0.4558 0.60888 0.0
C1246 C 0.34533 0.44132 0.60039 0.0
C1247 C 0.3623 0.42079 0.59623 0.0
C1248 C 0.38805 0.41559 0.6006 0.0
C1249 C 0.39649 0.43032 0.60898 0.0
C1250 C 0.47058 0.42986 0.62978 0.0
C1251 C 0.45369 0.45905 0.65142 0.0
C1252 C 0.5221 0.51445 0.64257 0.0
C1253 C 0.54956 0.50219 0.64197 0.0
C1254 C 0.55237 0.47397 0.64015 0.0
C1255 C 0.57824 0.46169 0.64041 0.0
C1256 C 0.60186 0.47747 0.64239 0.0
C1257 C 0.59905 0.50611 0.64348 0.0
C1258 C 0.57303 0.51836 0.64333 0.0
C1259 C 0.42981 0.52959 0.64314 0.0
O1260 O 0.44939 0.48895 0.61403 0.0
O1261 O 0.48809 0.5074 0.6196 0.0
O1262 O 0.3993 0.4485 0.629 0.0
O1263 O 0.40001 0.48782 0.62137 0.0
O1264 O 0.44474 0.42978 0.6319 0.0
O1265 O 0.47789 0.45494 0.62746 0.0
O1266 O 0.47713 0.46471 0.6472 0.0
O1267 O 0.43144 0.46634 0.64651 0.0
O1268 O 0.50427 0.50077 0.64784 0.0
O1269 O 0.51186 0.52266 0.63411 0.0
O1270 O 0.45077 0.53847 0.63809 0.0
O1271 O 0.43284 0.50376 0.64279 0.0
H1272 H 0.34015 0.47122 0.61205 0.0
H1273 H 0.32566 0.44635 0.59708 0.0
H1274 H 0.40154 0.39981 0.59767 0.0
H1275 H 0.41639 0.42582 0.61224 0.0
H1276 H 0.53442 0.46124 0.63891 0.0
H1277 H 0.57941 0.43958 0.63967 0.0
H1278 H 0.61685 0.51893 0.64484 0.0
H1279 H 0.57118 0.54027 0.64455 0.0
H1280 H 0.23865 0.40012 0.40283 0.0
H1281 H 0.21024 0.4326 0.4117 0.0
H1282 H 0.14729 0.42536 0.3892 0.0
H1283 H 0.17623 0.39293 0.37994 0.0
H1284 H 0.17718 0.48122 0.40919 0.0
H1285 H 0.11573 0.3852 0.41394 0.0
H1286 H 0.14932 0.38427 0.40824 0.0
H1287 H 0.12077 0.3989 0.40161 0.0
C1288 C 0.21947 0.40628 0.3994 0.0
C1289 C 0.20945 0.39309 0.39078 0.0
C1290 C 0.20309 0.42493 0.40456 0.0
C1291 C 0.17637 0.4307 0.40126 0.0
C1292 C 0.16768 0.42064 0.39197 0.0
H1293 H 0.07567 0.46006 0.45474 0.0
H1294 H 0.08399 0.4568 0.43669 0.0
C1295 C 0.18421 0.40201 0.38672 0.0
C1296 C 0.15673 0.44206 0.40862 0.0
H1297 H 0.1125 0.41829 0.4264 0.0
C1298 C 0.16227 0.4679 0.41278 0.0
C1299 C 0.13711 0.4247 0.41324 0.0
C1300 C 0.13027 0.39668 0.40909 0.0
C1301 C 0.1508 0.47568 0.42197 0.0
C1302 C 0.13387 0.45686 0.42715 0.0
C1303 C 0.1258 0.43247 0.42245 0.0
C1304 C 0.12826 0.4598 0.43796 0.0
C1305 C 0.15822 0.50329 0.4263 0.0
C1306 C 0.15044 0.46144 0.44463 0.0
C1307 C 0.14581 0.46303 0.45487 0.0
C1308 C 0.11889 0.46275 0.45867 0.0
C1309 C 0.09666 0.46019 0.45202 0.0
C1310 C 0.10134 0.45863 0.44172 0.0
H1311 H 0.16165 0.51861 0.42029 0.0
H1312 H 0.14192 0.51103 0.4314 0.0
H1313 H 0.17768 0.50142 0.43058 0.0
H1314 H 0.17143 0.46132 0.44191 0.0
H1315 H 0.16337 0.46491 0.45981 0.0
H1316 H 0.06567 0.98562 0.68176 0.0
H1317 H 0.05597 0.94746 0.69304 0.0
H1318 H 0.97638 0.98226 0.69955 0.0
H1319 H 0.98591 1.02044 0.68827 0.0
H1320 H 1.00335 0.94601 0.7156 0.0
H1321 H 0.99536 0.90209 0.67715 0.0
H1322 H 1.02703 0.91748 0.68128 0.0
H1323 H 0.99756 0.93872 0.67893 0.0
C1324 C 0.04677 0.98602 0.68605 0.0
C1325 C 1.02624 1.00566 0.68403 0.0
C1326 C 0.04125 0.96409 0.69246 0.0
C1327 C 1.0153 0.96186 0.69692 0.0
C1328 C 0.99653 0.98367 0.69612 0.0
H1329 H 0.87251 0.90468 0.70603 0.0
H1330 H 0.91838 0.9184 0.70053 0.0
C1331 C 1.00194 1.00546 0.68967 0.0
C1332 C 1.00455 0.93492 0.70005 0.0
H1333 H 0.9676 0.88289 0.68956 0.0
C1334 C 0.99657 0.93136 0.71002 0.0
C1335 C 0.99587 0.91581 0.69272 0.0
C1336 C 1.00429 0.91852 0.6819 0.0
C1337 C 0.97759 0.91091 0.71264 0.0
C1338 C 0.9661 0.89439 0.70503 0.0
C1339 C 0.97655 0.89575 0.69532 0.0
C1340 C 0.93867 0.88232 0.70642 0.0
C1341 C 0.96754 0.90905 0.72327 0.0
C1342 C 0.935 0.8568 0.71103 0.0
C1343 C 0.90863 0.84864 0.71397 0.0
C1344 C 0.88603 0.86628 0.71251 0.0
C1345 C 0.88961 0.89075 0.70719 0.0
C1346 C 0.91576 0.89862 0.7041 0.0
H1347 H 0.9808 0.92084 0.72849 0.0
H1348 H 0.94626 0.91726 0.72375 0.0
H1349 H 0.96698 0.88727 0.7257 0.0
H1350 H 0.95256 0.84408 0.71287 0.0
H1351 H 0.90637 0.82976 0.71817 0.0
H1352 H 0.36311 0.67036 0.90014 0.0
H1353 H 0.40455 0.65481 0.90858 0.0
H1354 H 0.4505 0.7213 0.8954 0.0
H1355 H 0.40862 0.73828 0.88754 0.0
H1356 H 0.45865 0.64171 0.90675 0.0
H1357 H 0.44722 0.74565 0.924 0.0
H1358 H 0.42228 0.73296 0.91522 0.0
H1359 H 0.45572 0.74368 0.91098 0.0
C1360 C 0.38215 0.68135 0.89885 0.0
C1361 C 0.38226 0.70617 0.89354 0.0
C1362 C 0.40597 0.67227 0.90359 0.0
C1363 C 0.43033 0.68762 0.90295 0.0
C1364 C 0.43165 0.70972 0.89626 0.0
H1365 H 0.52208 0.63403 0.95651 0.0
H1366 H 0.52017 0.65153 0.93935 0.0
C1367 C 0.40764 0.71921 0.89167 0.0
C1368 C 0.45127 0.6838 0.91085 0.0
H1369 H 0.46819 0.71179 0.93341 0.0
C1370 C 0.4617 0.65726 0.91244 0.0
C1371 C 0.45527 0.70427 0.91827 0.0
C1372 C 0.44452 0.73322 0.91711 0.0
C1373 C 0.473 0.64979 0.92169 0.0
C1374 C 0.4742 0.66954 0.92941 0.0
C1375 C 0.46696 0.6968 0.92743 0.0
C1376 C 0.47679 0.66124 0.93995 0.0
C1377 C 0.4809 0.62026 0.9235 0.0
C1378 C 0.4532 0.66172 0.94599 0.0
C1379 C 0.45417 0.65184 0.95574 0.0
C1380 C 0.47881 0.64137 0.95962 0.0
C1381 C 0.50276 0.64195 0.95369 0.0
C1382 C 0.50173 0.6518 0.94389 0.0
H1383 H 0.47829 0.60733 0.91673 0.0
H1384 H 0.50271 0.61913 0.9259 0.0
H1385 H 0.4681 0.61159 0.92961 0.0
H1386 H 0.43376 0.66899 0.94303 0.0
H1387 H 0.43543 0.6517 0.96012 0.0
H1388 H 0.70571 0.17554 0.20399 0.0
H1389 H 0.69836 0.17829 0.18597 0.0
H1390 H 0.67773 0.2641 0.18865 0.0
H1391 H 0.68567 0.26173 0.20674 0.0
H1392 H 0.63885 0.22488 0.17801 0.0
H1393 H 0.74595 0.22292 0.16407 0.0
H1394 H 0.73964 0.20016 0.17439 0.0
H1395 H 0.73646 0.2366 0.17617 0.0
C1396 C 0.69956 0.19498 0.20077 0.0
C1397 C 0.69624 0.2184 0.20674 0.0
C1398 C 0.69574 0.19662 0.19047 0.0
C1399 C 0.68827 0.22159 0.18602 0.0
C1400 C 0.68409 0.24485 0.19197 0.0
H1401 H 0.60719 0.16887 0.13344 0.0
H1402 H 0.63243 0.20808 0.13992 0.0
C1403 C 0.68834 0.24335 0.20228 0.0
C1404 C 0.68219 0.22199 0.17526 0.0
H1405 H 0.71151 0.20277 0.15325 0.0
C1406 C 0.65457 0.22101 0.17243 0.0
C1407 C 0.70297 0.21745 0.16809 0.0
C1408 C 0.73298 0.21958 0.17079 0.0
C1409 C 0.64695 0.21146 0.16296 0.0
C1410 C 0.66786 0.20359 0.15607 0.0
C1411 C 0.69553 0.20855 0.15851 0.0
C1412 C 0.66191 0.18345 0.14805 0.0
C1413 C 0.61669 0.20664 0.16102 0.0
C1414 C 0.67312 0.15698 0.14902 0.0
C1415 C 0.65957 0.1345 0.1449 0.0
C1416 C 0.63423 0.13822 0.14006 0.0
C1417 C 0.62625 0.16507 0.13738 0.0
C1418 C 0.64047 0.18766 0.14122 0.0
H1419 H 0.60365 0.212 0.16756 0.0
H1420 H 0.6098 0.21946 0.15466 0.0
H1421 H 0.61294 0.18474 0.15917 0.0
H1422 H 0.69028 0.15317 0.15399 0.0
H1423 H 0.66703 0.1141 0.14664 0.0
H1424 H 0.26703 0.76666 0.19344 0.0
H1425 H 0.24067 0.7378 0.18229 0.0
H1426 H 0.27492 0.66542 0.19597 0.0
H1427 H 0.30286 0.69428 0.20699 0.0
H1428 H 0.25848 0.6656 0.17298 0.0
H1429 H 0.17941 0.69657 0.2008 0.0
H1430 H 0.19986 0.72424 0.19593 0.0
H1431 H 0.21589 0.698 0.20334 0.0
C1432 C 0.27039 0.74471 0.19378 0.0
C1433 C 0.28644 0.73279 0.20138 0.0
C1434 C 0.25496 0.72822 0.18743 0.0
C1435 C 0.25531 0.69969 0.1886 0.0
C1436 C 0.27419 0.68753 0.19513 0.0
H1437 H 0.11664 0.6038 0.16456 0.0
H1438 H 0.14995 0.62058 0.17699 0.0
C1439 C 0.29 0.70407 0.20142 0.0
C1440 C 0.23274 0.68358 0.1843 0.0
H1441 H 0.16287 0.67774 0.18544 0.0
C1442 C 0.23765 0.66772 0.17578 0.0
C1443 C 0.20575 0.68607 0.18817 0.0
C1444 C 0.19982 0.70193 0.19762 0.0
C1445 C 0.21572 0.65583 0.17057 0.0
C1446 C 0.1885 0.66047 0.17394 0.0
C1447 C 0.18381 0.67457 0.18287 0.0
C1448 C 0.16486 0.65353 0.16761 0.0
C1449 C 0.22164 0.63933 0.16127 0.0
C1450 C 0.16125 0.66778 0.15863 0.0
C1451 C 0.14239 0.65841 0.15163 0.0
C1452 C 0.12674 0.6349 0.15361 0.0
C1453 C 0.12826 0.62229 0.16301 0.0
C1454 C 0.14743 0.63159 0.17002 0.0
H1455 H 0.24317 0.63165 0.16117 0.0
H1456 H 0.20741 0.62158 0.16066 0.0
H1457 H 0.21862 0.65256 0.15462 0.0
H1458 H 0.17432 0.68505 0.15677 0.0
H1459 H 0.14153 0.66825 0.14438 0.0
H1460 H 0.71649 0.91469 0.41253 0.0
H1461 H 0.71209 0.92182 0.43044 0.0
H1462 H 0.70571 0.83438 0.435 0.0
H1463 H 0.70978 0.82701 0.41692 0.0
H1464 H 0.66647 0.86237 0.44474 0.0
H1465 H 0.76568 0.91101 0.45316 0.0
H1466 H 0.75078 0.92737 0.44247 0.0
H1467 H 0.75997 0.89151 0.44185 0.0
C1468 C 0.71411 0.89694 0.41732 0.0
C1469 C 0.71338 0.87031 0.41332 0.0
C1470 C 0.71211 0.90101 0.42758 0.0
C1471 C 0.70961 0.87856 0.43408 0.0
C1472 C 0.70825 0.85192 0.43011 0.0
H1473 H 0.62875 0.93414 0.48832 0.0
H1474 H 0.66381 0.90339 0.48136 0.0
C1475 C 0.71025 0.8478 0.4198 0.0
C1476 C 0.70515 0.88376 0.44483 0.0
H1477 H 0.72569 0.92861 0.46287 0.0
C1478 C 0.67986 0.87592 0.44894 0.0
C1479 C 0.72297 0.9009 0.45037 0.0
C1480 C 0.7515 0.90787 0.44675 0.0
C1481 C 0.67009 0.88811 0.45774 0.0
C1482 C 0.6863 0.90842 0.46251 0.0
C1483 C 0.71319 0.91328 0.45914 0.0
C1484 C 0.67296 0.92958 0.46875 0.0
C1485 C 0.64116 0.88167 0.46113 0.0
C1486 C 0.66826 0.95534 0.46441 0.0
C1487 C 0.6482 0.97273 0.46828 0.0
C1488 C 0.63252 0.9647 0.4766 0.0
C1489 C 0.63992 0.94053 0.48173 0.0
C1490 C 0.66004 0.923 0.4778 0.0
H1491 H 0.63111 0.86595 0.45635 0.0
H1492 H 0.64156 0.87389 0.46891 0.0
H1493 H 0.62837 0.90057 0.46099 0.0
H1494 H 0.67808 0.96082 0.45742 0.0
H1495 H 0.64317 0.99106 0.46408 0.0
H1496 H 0.49682 0.44477 0.66338 0.0
H1497 H 0.49555 0.43576 0.68139 0.0
H1498 H 0.40755 0.44686 0.68133 0.0
H1499 H 0.40852 0.45581 0.66337 0.0
H1500 H 0.44479 0.47755 0.69736 0.0
H1501 H 0.45622 0.36392 0.69382 0.0
H1502 H 0.47779 0.38687 0.68674 0.0
H1503 H 0.4421 0.38362 0.68363 0.0
C1504 C 0.47717 0.44506 0.6672 0.0
C1505 C 0.45271 0.45086 0.66198 0.0
C1506 C 0.47657 0.44012 0.67747 0.0
C1507 C 0.45152 0.44099 0.68263 0.0
C1508 C 0.42709 0.44642 0.67743 0.0
H1509 H 0.34492 0.41721 0.72507 0.0
H1510 H 0.38075 0.44248 0.7165 0.0
C1511 C 0.42764 0.45123 0.66718 0.0
C1512 C 0.45009 0.43501 0.69338 0.0
H1513 H 0.43894 0.38106 0.70886 0.0
C1514 C 0.44423 0.45652 0.70001 0.0
C1515 C 0.45017 0.40768 0.69681 0.0
C1516 C 0.45692 0.38405 0.68994 0.0
C1517 C 0.43583 0.45112 0.70984 0.0
C1518 C 0.43241 0.42355 0.7129 0.0
C1519 C 0.44134 0.40227 0.70656 0.0
C1520 C 0.41402 0.41583 0.72128 0.0
C1521 C 0.42941 0.47494 0.71664 0.0
C1522 C 0.42079 0.39342 0.72739 0.0
C1523 C 0.40001 0.37825 0.732 0.0
C1524 C 0.37223 0.38557 0.73065 0.0
C1525 C 0.36607 0.41063 0.72599 0.0
C1526 C 0.38675 0.42546 0.72121 0.0
H1527 H 0.44466 0.49164 0.71555 0.0
H1528 H 0.4089 0.48345 0.7147 0.0
H1529 H 0.42942 0.46881 0.72463 0.0
H1530 H 0.4417 0.38572 0.72763 0.0
H1531 H 0.40564 0.35913 0.73559 0.0
H1532 H 0.89479 0.10218 0.97176 0.0
H1533 H 0.87218 0.14278 0.96525 0.0
H1534 H 0.92747 0.19436 0.98204 0.0
H1535 H 0.95228 0.15387 0.98768 0.0
H1536 H 0.84934 0.19112 0.9679 0.0
H1537 H 0.95762 0.20808 0.95511 0.0
H1538 H 0.94869 0.17819 0.96225 0.0
H1539 H 0.95057 0.21136 0.96818 0.0
C1540 C 0.90193 0.12213 0.97422 0.0
C1541 C 0.92641 0.12473 0.9797 0.0
C1542 C 0.88869 0.14545 0.97059 0.0
C1543 C 0.89927 0.17167 0.97267 0.0
C1544 C 0.91994 0.17429 0.97991 0.0
H1545 H 0.88453 0.2669 0.91731 0.0
H1546 H 0.88955 0.26407 0.93555 0.0
C1547 C 0.93388 0.15094 0.98326 0.0
C1548 C 0.8931 0.19413 0.96553 0.0
H1549 H 0.92269 0.22434 0.94518 0.0
C1550 C 0.86543 0.19919 0.96312 0.0
C1551 C 0.91412 0.20509 0.95931 0.0
C1552 C 0.9444 0.20041 0.96127 0.0
C1553 C 0.85823 0.21152 0.95403 0.0
C1554 C 0.87925 0.21928 0.94732 0.0
C1555 C 0.90673 0.21799 0.95035 0.0
C1556 C 0.8739 0.2226 0.93655 0.0
C1557 C 0.82825 0.21404 0.95129 0.0
C1558 C 0.86436 0.19991 0.93112 0.0
C1559 C 0.86214 0.2012 0.92077 0.0
C1560 C 0.86934 0.22528 0.91565 0.0
C1561 C 0.87899 0.24804 0.92108 0.0
C1562 C 0.88155 0.24659 0.93148 0.0
H1563 H 0.81525 0.21644 0.95806 0.0
H1564 H 0.82467 0.23174 0.94623 0.0
H1565 H 0.82163 0.19504 0.9474 0.0
H1566 H 0.85916 0.18092 0.93488 0.0
H1567 H 0.85436 0.18344 0.9168 0.0
H1568 H 0.82807 0.67021 0.71435 0.0
H1569 H 0.85942 0.6356 0.70839 0.0
H1570 H 0.91663 0.65574 0.7319 0.0
H1571 H 0.88464 0.69055 0.73813 0.0
H1572 H 0.93652 0.66899 0.7144 0.0
H1573 H 0.89859 0.56403 0.71044 0.0
H1574 H 0.87061 0.58615 0.70721 0.0
H1575 H 0.88455 0.58716 0.71972 0.0
C1576 C 0.84651 0.66638 0.71866 0.0
C1577 C 0.85418 0.68381 0.72654 0.0
C1578 C 0.86455 0.64624 0.71525 0.0
C1579 C 0.89059 0.64311 0.71964 0.0
C1580 C 0.89669 0.65785 0.72838 0.0
H1581 H 0.99941 0.61697 0.66791 0.0
H1582 H 0.99102 0.61702 0.68598 0.0
C1583 C 0.87851 0.67797 0.73185 0.0
C1584 C 0.91295 0.63157 0.7134 0.0
H1585 H 0.91918 0.58466 0.69468 0.0
C1586 C 0.93367 0.64989 0.71037 0.0
C1587 C 0.90967 0.6065 0.70823 0.0
C1588 C 0.88977 0.5848 0.71169 0.0
C1589 C 0.94774 0.64602 0.70134 0.0
C1590 C 0.94113 0.62305 0.69539 0.0
C1591 C 0.92366 0.60264 0.69918 0.0
C1592 C 0.94709 0.62295 0.68459 0.0
C1593 C 0.96701 0.66811 0.69768 0.0
C1594 C 0.92521 0.62676 0.67792 0.0
C1595 C 0.92988 0.62691 0.66766 0.0
C1596 C 0.95656 0.62317 0.6639 0.0
C1597 C 0.97865 0.62019 0.67061 0.0
C1598 C 0.97391 0.61998 0.68091 0.0
H1599 H 0.96926 0.68515 0.70314 0.0
H1600 H 0.98764 0.65915 0.69626 0.0
H1601 H 0.95933 0.6767 0.69052 0.0
H1602 H 0.90439 0.62944 0.68066 0.0
H1603 H 0.91246 0.62912 0.66268 0.0
H1604 H 0.09208 1.02956 0.43686 0.0
H1605 H 0.10047 0.06027 0.42283 0.0
H1606 H 1.01832 0.09281 0.42559 0.0
H1607 H 1.00994 0.06255 0.43979 0.0
H1608 H 0.07629 0.08442 0.40441 0.0
H1609 H 0.07205 0.15063 0.4385 0.0
H1610 H 0.07136 0.11373 0.43945 0.0
H1611 H 0.04186 0.1319 0.43485 0.0
C1612 C 0.07534 0.04221 0.43414 0.0
C1613 C 0.05073 0.0443 0.43957 0.0
C1614 C 0.08009 0.05973 0.42611 0.0
C1615 C 0.06026 0.07936 0.42345 0.0
C1616 C 1.03397 0.07808 0.4277 0.0
H1617 H 0.15212 0.22282 0.40041 0.0
H1618 H 0.10983 0.19936 0.40577 0.0
C1619 C 1.02919 0.06057 0.43577 0.0
C1620 C 0.06992 0.10462 0.41852 0.0
H1621 H 0.0985 0.166 0.42514 0.0
C1622 C 0.08023 0.10276 0.40878 0.0
C1623 C 0.07504 0.12854 0.42428 0.0
C1624 C 0.06465 0.13151 0.43487 0.0
C1625 C 0.09778 0.12304 0.405 0.0
C1626 C 0.10534 0.14527 0.41121 0.0
C1627 C 0.09262 0.14875 0.42048 0.0
C1628 C 0.13043 0.1611 0.40914 0.0
C1629 C 0.11002 0.11945 0.39473 0.0
C1630 C 0.15587 0.14774 0.40992 0.0
C1631 C 0.17984 0.161 0.40699 0.0
C1632 C 0.1787 0.18788 0.4033 0.0
C1633 C 0.15352 0.20215 0.40336 0.0
C1634 C 0.12936 0.18873 0.40626 0.0
H1635 H 0.09666 0.10654 0.38992 0.0
H1636 H 0.11326 0.13963 0.39106 0.0
H1637 H 0.13029 0.1091 0.3954 0.0
H1638 H 0.15699 0.12655 0.41235 0.0
H1639 H 0.19901 0.14962 0.407 0.0
H1640 H 0.5866 0.46562 0.16721 0.0
H1641 H 0.5943 0.46276 0.18527 0.0
H1642 H 0.68189 0.46802 0.1804 0.0
H1643 H 0.6744 0.47137 0.16245 0.0
H1644 H 0.62162 0.42422 0.19523 0.0
H1645 H 0.67211 0.52298 0.2027 0.0
H1646 H 0.65268 0.5167 0.19142 0.0
H1647 H 0.68838 0.5068 0.19223 0.0
C1648 C 0.6075 0.46613 0.17001 0.0
C1649 C 0.62994 0.46867 0.16344 0.0
C1650 C 0.61181 0.4648 0.18031 0.0
C1651 C 0.63859 0.46617 0.18418 0.0
C1652 C 0.66099 0.46804 0.1776 0.0
H1653 H 0.74841 0.39982 0.21582 0.0
H1654 H 0.71996 0.4354 0.20866 0.0
C1655 C 0.65672 0.46942 0.16733 0.0
C1656 C 0.64381 0.46238 0.19496 0.0
H1657 H 0.68821 0.48381 0.21303 0.0
C1658 C 0.63529 0.4377 0.19933 0.0
C1659 C 0.66111 0.48035 0.20037 0.0
C1660 C 0.66879 0.50833 0.19646 0.0
C1661 C 0.64682 0.42862 0.20832 0.0
C1662 C 0.66716 0.44492 0.21304 0.0
C1663 C 0.67283 0.47125 0.20934 0.0
C1664 C 0.68757 0.4319 0.21968 0.0
C1665 C 0.63959 0.40022 0.21202 0.0
C1666 C 0.67988 0.41983 0.22877 0.0
C1667 C 0.69635 0.3993 0.23296 0.0
C1668 C 0.72057 0.39069 0.22808 0.0
C1669 C 0.72995 0.40574 0.21981 0.0
C1670 C 0.71359 0.4262 0.21566 0.0
H1671 H 0.62411 0.38992 0.2072 0.0
H1672 H 0.6583 0.38715 0.21228 0.0
H1673 H 0.63106 0.40156 0.21969 0.0
H1674 H 0.66008 0.42442 0.23209 0.0
H1675 H 0.68897 0.38862 0.23953 0.0
H1676 H 0.35905 0.82094 0.91582 0.0
H1677 H 0.36929 0.82764 0.93362 0.0
H1678 H 0.36322 0.91533 0.92967 0.0
H1679 H 0.35286 0.9089 0.91206 0.0
H1680 H 0.41281 0.85584 0.94155 0.0
H1681 H 0.31653 0.9035 0.95451 0.0
H1682 H 0.31861 0.88398 0.94304 0.0
H1683 H 0.3279 0.9198 0.94324 0.0
C1684 C 0.35985 0.84163 0.91879 0.0
C1685 C 0.35515 0.86443 0.91257 0.0
C1686 C 0.36547 0.84537 0.92894 0.0
C1687 C 0.36612 0.87191 0.93301 0.0
C1688 C 0.36183 0.89462 0.92676 0.0
H1689 H 0.43873 0.98435 0.96318 0.0
H1690 H 0.40504 0.95329 0.95616 0.0
C1691 C 0.35633 0.89093 0.91665 0.0
C1692 C 0.37415 0.87669 0.9435 0.0
H1693 H 0.35897 0.91995 0.96273 0.0
C1694 C 0.40072 0.86895 0.94642 0.0
C1695 C 0.35807 0.89332 0.9499 0.0
C1696 C 0.32856 0.90034 0.94754 0.0
C1697 C 0.41306 0.88059 0.95488 0.0
C1698 C 0.39817 0.90021 0.96053 0.0
C1699 C 0.3704 0.90512 0.95832 0.0
C1700 C 0.4129 0.92054 0.96669 0.0
C1701 C 0.44289 0.87425 0.95702 0.0
C1702 C 0.42737 0.91295 0.97531 0.0
C1703 C 0.44671 0.93092 0.97945 0.0
C1704 C 0.45181 0.9566 0.97497 0.0
C1705 C 0.43529 0.96494 0.96691 0.0
C1706 C 0.41599 0.9471 0.96284 0.0
H1707 H 0.45171 0.85927 0.95163 0.0
H1708 H 0.45529 0.89337 0.95672 0.0
H1709 H 0.44486 0.86557 0.96464 0.0
H1710 H 0.42493 0.89263 0.97847 0.0
H1711 H 0.45867 0.92414 0.9858 0.0
H1712 H 0.85365 0.42799 0.88771 0.0
H1713 H 0.88938 0.44994 0.89742 0.0
H1714 H 0.9457 0.38457 0.88987 0.0
H1715 H 0.90932 0.36118 0.88096 0.0
H1716 H 0.93558 0.38179 0.90823 0.0
H1717 H 0.95783 0.49034 0.90169 0.0
H1718 H 0.92127 0.48686 0.90108 0.0
H1719 H 0.94266 0.46923 0.89206 0.0
C1720 C 0.87391 0.41871 0.88781 0.0
C1721 C 0.87803 0.39208 0.88404 0.0
C1722 C 0.89466 0.43162 0.89325 0.0
C1723 C 0.92019 0.41858 0.89463 0.0
C1724 C 0.92601 0.3948 0.88908 0.0
H1725 H 0.99223 0.43826 0.95492 0.0
H1726 H 0.99265 0.42932 0.93689 0.0
C1727 C 0.90502 0.38146 0.88389 0.0
C1728 C 0.93611 0.42452 0.90385 0.0
H1729 H 0.95106 0.47723 0.91974 0.0
C1730 C 0.94006 0.40263 0.91057 0.0
C1731 C 0.94207 0.45158 0.90702 0.0
C1732 C 0.94097 0.47569 0.89999 0.0
C1733 C 0.94678 0.40734 0.92058 0.0
C1734 C 0.94961 0.43459 0.92396 0.0
C1735 C 0.94832 0.45634 0.91711 0.0
C1736 C 0.9501 0.44079 0.93472 0.0
C1737 C 0.94844 0.38336 0.92769 0.0
C1738 C 0.92591 0.44977 0.9394 0.0
C1739 C 0.92545 0.45454 0.94967 0.0
C1740 C 0.9493 0.45055 0.9554 0.0
C1741 C 0.9735 0.44135 0.95069 0.0
C1742 C 0.97388 0.43644 0.94041 0.0
H1743 H 0.94527 0.36336 0.92388 0.0
H1744 H 0.9689 0.38308 0.93136 0.0
H1745 H 0.93266 0.38564 0.93364 0.0
H1746 H 0.90731 0.45297 0.93509 0.0
H1747 H 0.90662 0.46193 0.95307 0.0
H1748 H 0.47192 0.16591 0.63537 0.0
H1749 H 0.44885 0.20465 0.64325 0.0
H1750 H 0.38879 0.14957 0.6559 0.0
H1751 H 0.41021 0.11111 0.64733 0.0
H1752 H 0.36873 0.20087 0.6551 0.0
H1753 H 0.47433 0.20234 0.67164 0.0
H1754 H 0.47104 0.21154 0.65873 0.0
H1755 H 0.46456 0.17678 0.66262 0.0
C1756 C 0.45291 0.16213 0.63935 0.0
C1757 C 0.44358 0.13518 0.64112 0.0
C1758 C 0.43993 0.18439 0.64397 0.0
C1759 C 0.41812 0.17974 0.65062 0.0
C1760 C 0.40607 0.15358 0.651 0.0
H1761 H 0.37072 0.17753 0.70694 0.0
H1762 H 0.38229 0.17704 0.68919 0.0
C1763 C 0.41855 0.13148 0.64618 0.0
C1764 C 0.41184 0.19928 0.65879 0.0
H1765 H 0.43865 0.21933 0.68122 0.0
C1766 C 0.38416 0.20582 0.66066 0.0
C1767 C 0.43205 0.20572 0.66609 0.0
C1768 C 0.46213 0.19869 0.66475 0.0
C1769 C 0.37584 0.21581 0.67002 0.0
C1770 C 0.39573 0.21962 0.67754 0.0
C1771 C 0.42362 0.21623 0.67534 0.0
C1772 C 0.38785 0.22099 0.68813 0.0
C1773 C 0.34566 0.21992 0.67213 0.0
C1774 C 0.38781 0.24588 0.69335 0.0
C1775 C 0.38118 0.24625 0.70352 0.0
C1776 C 0.37491 0.22166 0.70855 0.0
C1777 C 0.37558 0.19676 0.70329 0.0
C1778 C 0.38193 0.19646 0.69314 0.0
H1779 H 0.33345 0.22142 0.66514 0.0
H1780 H 0.33789 0.20223 0.67653 0.0
H1781 H 0.34241 0.23879 0.67664 0.0
H1782 H 0.39272 0.26491 0.68957 0.0
H1783 H 0.38075 0.26575 0.70741 0.0
H1784 H 0.66465 0.72476 0.38538 0.0
H1785 H 0.62909 0.70047 0.39454 0.0
H1786 H 0.68856 0.63969 0.40366 0.0
H1787 H 0.72345 0.66187 0.39352 0.0
H1788 H 0.6398 0.61859 0.40499 0.0
H1789 H 0.63606 0.72221 0.42281 0.0
H1790 H 0.62332 0.72037 0.41028 0.0
H1791 H 0.65933 0.71469 0.41275 0.0
C1792 C 0.67001 0.70543 0.38886 0.0
C1793 C 0.69747 0.69607 0.38914 0.0
C1794 C 0.64959 0.6918 0.39428 0.0
C1795 C 0.65661 0.6694 0.40035 0.0
C1796 C 0.68278 0.65751 0.39929 0.0
H1797 H 0.65116 0.60355 0.45695 0.0
H1798 H 0.65595 0.61548 0.43932 0.0
C1799 C 0.70291 0.67047 0.39358 0.0
C1800 C 0.6394 0.66143 0.40904 0.0
H1801 H 0.61811 0.68581 0.43171 0.0
C1802 C 0.63452 0.63339 0.41074 0.0
C1803 C 0.63246 0.68075 0.4166 0.0
C1804 C 0.63818 0.71113 0.41559 0.0
C1805 C 0.62502 0.62397 0.42002 0.0
C1806 C 0.61989 0.64316 0.42772 0.0
C1807 C 0.62221 0.67126 0.42575 0.0
C1808 C 0.61589 0.63467 0.4382 0.0
C1809 C 0.62211 0.59347 0.42164 0.0
C1810 C 0.59215 0.64233 0.44346 0.0
C1811 C 0.58926 0.63538 0.45354 0.0
C1812 C 0.61054 0.62153 0.45854 0.0
C1813 C 0.63458 0.61453 0.45331 0.0
C1814 C 0.63716 0.62093 0.44321 0.0
H1815 H 0.61578 0.583 0.41464 0.0
H1816 H 0.64235 0.58493 0.4239 0.0
H1817 H 0.60697 0.58865 0.42758 0.0
H1818 H 0.57588 0.65357 0.43975 0.0
H1819 H 0.57048 0.6409 0.45741 0.0
H1820 H 0.17003 0.86155 0.2192 0.0
H1821 H 0.13622 0.88472 0.20844 0.0
H1822 H 0.19752 0.94469 0.20027 0.0
H1823 H 0.23095 0.92192 0.21104 0.0
H1824 H 0.1235 0.94121 0.2131 0.0
H1825 H 0.15701 0.92862 0.17383 0.0
H1826 H 0.16672 0.90491 0.1836 0.0
H1827 H 0.18489 0.9368 0.18209 0.0
C1828 C 0.17647 0.87892 0.21472 0.0
C1829 C 0.2029 0.89004 0.21581 0.0
C1830 C 0.15718 0.89222 0.20868 0.0
C1831 C 0.16453 0.91625 0.20357 0.0
C1832 C 0.19165 0.92591 0.20405 0.0
H1833 H 0.10794 0.0545 0.17257 0.0
H1834 H 0.13072 1.02487 0.18477 0.0
C1835 C 0.21069 0.91295 0.21018 0.0
C1836 C 0.14351 0.93388 0.19897 0.0
H1837 H 0.13009 0.96884 0.17755 0.0
C1838 C 0.12442 0.94692 0.20528 0.0
C1839 C 0.14503 0.94122 0.18881 0.0
C1840 C 0.16435 0.92695 0.18166 0.0
C1841 C 0.10787 0.96844 0.20177 0.0
C1842 C 0.1106 0.97679 0.19174 0.0
C1843 C 0.12863 0.96273 0.18532 0.0
C1844 C 0.0948 0.99975 0.1875 0.0
C1845 C 0.08852 0.98288 0.20884 0.0
C1846 C 0.06666 0.99654 0.18563 0.0
C1847 C 0.0536 1.01354 0.17874 0.0
C1848 C 0.06875 1.03359 0.17355 0.0
C1849 C 0.09594 0.03907 0.17644 0.0
C1850 C 0.10894 1.02213 0.18336 0.0
H1851 H 0.09234 0.97709 0.21675 0.0
H1852 H 0.09053 1.00549 0.20809 0.0
H1853 H 0.06702 0.97732 0.20694 0.0
H1854 H 0.05553 0.9792 0.18868 0.0
H1855 H 1.03267 1.00866 0.1766 0.0
H1856 H 0.59931 0.92009 0.97148 0.0
H1857 H 0.6178 0.87544 0.96615 0.0
H1858 H 0.69438 0.91433 0.95816 0.0
H1859 H 0.67628 0.9587 0.96352 0.0
H1860 H 0.64513 0.85795 0.94709 0.0
H1861 H 0.7135 0.85451 0.97998 0.0
H1862 H 0.68254 0.87514 0.97954 0.0
H1863 H 0.71391 0.88746 0.97397 0.0
C1864 C 0.61976 0.91919 0.96827 0.0
C1865 C 0.63651 0.94273 0.96793 0.0
C1866 C 0.63036 0.89368 0.96536 0.0
C1867 C 0.65767 0.89166 0.96208 0.0
C1868 C 0.67346 0.91552 0.96093 0.0
H1869 H 0.77848 0.8428 0.93129 0.0
H1870 H 0.75008 0.85362 0.94578 0.0
C1871 C 0.66302 0.94085 0.96387 0.0
C1872 C 0.67059 0.86494 0.95994 0.0
H1873 H 0.73063 0.8316 0.96494 0.0
C1874 C 0.66321 0.85125 0.95116 0.0
C1875 C 0.69374 0.85607 0.96544 0.0
C1876 C 0.70123 0.8689 0.97533 0.0
C1877 C 0.68066 0.83139 0.94699 0.0
C1878 C 0.70592 0.8253 0.9518 0.0
C1879 C 0.71138 0.83645 0.96124 0.0
C1880 C 0.72921 0.81436 0.94596 0.0
C1881 C 0.6735 0.81949 0.9369 0.0
C1882 C 0.72853 0.78787 0.94188 0.0
C1883 C 0.74486 0.78166 0.93358 0.0
C1884 C 0.7618 0.80199 0.92934 0.0
C1885 C 0.76534 0.82697 0.93437 0.0
C1886 C 0.74915 0.8331 0.94266 0.0
H1887 H 0.6534 0.82708 0.93407 0.0
H1888 H 0.68966 0.8248 0.93137 0.0
H1889 H 0.67248 0.79678 0.93742 0.0
H1890 H 0.71353 0.77303 0.94445 0.0
H1891 H 0.74184 0.76217 0.92984 0.0
H1892 H 0.34898 0.40379 0.20376 0.0
H1893 H 0.36344 0.40479 0.18631 0.0
H1894 H 0.3929 0.32148 0.18869 0.0
H1895 H 0.37829 0.32025 0.20624 0.0
H1896 H 0.43117 0.35995 0.1813 0.0
H1897 H 0.33305 0.36731 0.1608 0.0
H1898 H 0.33394 0.39005 0.17135 0.0
H1899 H 0.33551 0.35352 0.17331 0.0
C1900 C 0.35845 0.38565 0.20057 0.0
C1901 C 0.3627 0.36201 0.20635 0.0
C1902 C 0.36629 0.38608 0.19057 0.0
C1903 C 0.37855 0.36295 0.18617 0.0
C1904 C 0.38295 0.33932 0.19192 0.0
H1905 H 0.48315 0.41637 0.13778 0.0
H1906 H 0.45512 0.37923 0.14449 0.0
C1907 C 0.37483 0.33875 0.20194 0.0
C1908 C 0.38985 0.36525 0.17598 0.0
H1909 H 0.37248 0.38998 0.15306 0.0
C1910 C 0.41849 0.36562 0.17496 0.0
C1911 C 0.37308 0.37219 0.16776 0.0
C1912 C 0.34216 0.37047 0.16832 0.0
C1913 C 0.43092 0.37641 0.16638 0.0
C1914 C 0.41401 0.38632 0.15852 0.0
C1915 C 0.3854 0.38261 0.15909 0.0
C1916 C 0.42486 0.40622 0.15116 0.0
C1917 C 0.46182 0.37989 0.16638 0.0
C1918 C 0.41518 0.43336 0.15158 0.0
C1919 C 0.43055 0.45459 0.14743 0.0
C1920 C 0.45612 0.44904 0.14298 0.0
C1921 C 0.46372 0.42149 0.14129 0.0
C1922 C 0.4479 0.40016 0.14524 0.0
H1923 H 0.47129 0.37385 0.1736 0.0
H1924 H 0.47102 0.36685 0.16045 0.0
H1925 H 0.46739 0.40159 0.16486 0.0
H1926 H 0.39712 0.43853 0.15595 0.0
H1927 H 0.42361 0.47552 0.14852 0.0
H1928 H 0.91255 0.11988 0.45925 0.0
H1929 H 0.90562 0.1223 0.44128 0.0
H1930 H 0.99328 0.12486 0.43664 0.0
H1931 H 1.00066 0.12206 0.45476 0.0
H1932 H 0.9628 0.16434 0.42578 0.0
H1933 H 0.91918 0.0609 0.42051 0.0
H1934 H 0.90376 0.07793 0.431 0.0
H1935 H 0.93996 0.07002 0.43121 0.0
C1936 C 0.93044 0.12112 0.45445 0.0
C1937 C 0.95715 0.12078 0.45843 0.0
C1938 C 0.92644 0.1221 0.44416 0.0
C1939 C 0.94901 0.12278 0.43765 0.0
C1940 C 0.97572 0.12367 0.44157 0.0
H1941 H 0.89298 0.18339 0.37971 0.0
H1942 H 0.92586 0.15466 0.38884 0.0
C1943 C 0.97981 0.12243 0.45191 0.0
C1944 C 0.94394 0.12455 0.42679 0.0
H1945 H 0.90187 0.09661 0.40918 0.0
C1946 C 0.95037 0.14917 0.42194 0.0
C1947 C 0.92826 0.10441 0.42177 0.0
C1948 C 0.92266 0.0767 0.42637 0.0
C1949 C 0.93823 0.15582 0.41275 0.0
C1950 C 0.91951 0.13709 0.40834 0.0
C1951 C 0.91602 0.11102 0.41261 0.0
C1952 C 0.89841 0.14696 0.40124 0.0
C1953 C 0.94305 0.18405 0.40844 0.0
C1954 C 0.87153 0.1503 0.40483 0.0
C1955 C 0.85288 0.1668 0.39973 0.0
C1956 C 0.86069 0.18027 0.39088 0.0
C1957 C 0.88654 0.174 0.38665 0.0
C1958 C 0.90534 0.15751 0.39183 0.0
H1959 H 0.95729 0.19651 0.41308 0.0
H1960 H 0.95204 0.18216 0.40085 0.0
H1961 H 0.92324 0.19528 0.40778 0.0
H1962 H 0.86573 0.14227 0.41208 0.0
H1963 H 0.83339 0.17106 0.40332 0.0
H1964 H 0.16454 0.59118 0.64725 0.0
H1965 H 0.19106 0.62697 0.65539 0.0
H1966 H 0.14304 0.68884 0.64035 0.0
H1967 H 0.11447 0.65327 0.63301 0.0
H1968 H 0.21825 0.6751 0.65517 0.0
H1969 H 0.10973 0.6926 0.66762 0.0
H1970 H 0.1183 0.665 0.65927 0.0
H1971 H 0.11772 0.69991 0.65483 0.0
C1972 C 0.15996 0.61239 0.64548 0.0
C1973 C 0.13619 0.61932 0.64006 0.0
C1974 C 0.17544 0.63292 0.65004 0.0
C1975 C 0.1678 0.66056 0.64895 0.0
C1976 C 0.14832 0.66754 0.64167 0.0
H1977 H 0.18052 0.74662 0.70633 0.0
H1978 H 0.17568 0.74357 0.68814 0.0
C1979 C 0.13213 0.647 0.63737 0.0
C1980 C 0.17449 0.6797 0.6572 0.0
H1981 H 0.14441 0.70586 0.67821 0.0
C1982 C 0.20213 0.6826 0.66008 0.0
C1983 C 0.1534 0.68963 0.66363 0.0
C1984 C 0.12314 0.6866 0.66125 0.0
C1985 C 0.20907 0.69261 0.66958 0.0
C1986 C 0.18783 0.69979 0.67629 0.0
C1987 C 0.16053 0.69999 0.67302 0.0
C1988 C 0.19266 0.70266 0.68711 0.0
C1989 C 0.23894 0.69392 0.67258 0.0
C1990 C 0.20259 0.6801 0.69254 0.0
C1991 C 0.20456 0.6814 0.70292 0.0
C1992 C 0.19673 0.70536 0.70801 0.0
C1993 C 0.18653 0.72784 0.70257 0.0
C1994 C 0.18418 0.72634 0.6922 0.0
H1995 H 0.25243 0.69685 0.66596 0.0
H1996 H 0.24266 0.71083 0.67797 0.0
H1997 H 0.24484 0.67427 0.67618 0.0
H1998 H 0.20837 0.66128 0.68876 0.0
H1999 H 0.21286 0.66392 0.70691 0.0
H2000 H 0.57186 0.12034 0.66474 0.0
H2001 H 0.58038 0.1293 0.6825 0.0
H2002 H 0.66774 0.13064 0.67685 0.0
H2003 H 0.6595 0.1214 0.6592 0.0
H2004 H 0.6506 0.09687 0.69351 0.0
H2005 H 0.60692 0.20285 0.69467 0.0
H2006 H 0.58592 0.1756 0.68977 0.0
H2007 H 0.61587 0.18645 0.68302 0.0
C2008 C 0.59286 0.12288 0.66727 0.0
C2009 C 0.61504 0.1203 0.66058 0.0
C2010 C 0.59766 0.1279 0.67741 0.0
C2011 C 0.62467 0.13058 0.68095 0.0
C2012 C 0.64675 0.12845 0.67425 0.0
H2013 H 0.73775 0.18297 0.71906 0.0
H2014 H 0.7087 0.15254 0.7095 0.0
C2015 C 0.642 0.12339 0.66415 0.0
C2016 C 0.63049 0.13597 0.69159 0.0
H2017 H 0.63241 0.18827 0.70845 0.0
C2018 C 0.6461 0.11661 0.6969 0.0
C2019 C 0.62412 0.1615 0.69603 0.0
C2020 C 0.60739 0.18295 0.69062 0.0
C2021 C 0.65746 0.12304 0.70623 0.0
C2022 C 0.6534 0.14959 0.71022 0.0
C2023 C 0.63554 0.16791 0.70536 0.0
C2024 C 0.67172 0.16099 0.71799 0.0
C2025 C 0.67489 0.10189 0.71147 0.0
C2026 C 0.6609 0.17515 0.72623 0.0
C2027 C 0.67769 0.19263 0.73184 0.0
C2028 C 0.70542 0.19659 0.72914 0.0
C2029 C 0.71667 0.18031 0.72148 0.0
C2030 C 0.69997 0.16274 0.71596 0.0
H2031 H 0.66721 0.08083 0.70992 0.0
H2032 H 0.69629 0.10311 0.70862 0.0
H2033 H 0.67519 0.10525 0.71968 0.0
H2034 H 0.63911 0.17412 0.7279 0.0
H2035 H 0.6685 0.20443 0.73783 0.0
H2036 H 0.21623 0.34639 0.91793 0.0
H2037 H 0.20863 0.35828 0.93547 0.0
H2038 H 0.20342 0.44395 0.92754 0.0
H2039 H 0.2118 0.43232 0.91004 0.0
H2040 H 0.23608 0.43444 0.94434 0.0
H2041 H 0.13515 0.38077 0.94728 0.0
H2042 H 0.16397 0.36021 0.94345 0.0
H2043 H 0.15155 0.38702 0.93542 0.0
C2044 C 0.21315 0.36774 0.91991 0.0
C2045 C 0.21427 0.38844 0.91261 0.0
C2046 C 0.2089 0.37447 0.92994 0.0
C2047 C 0.20527 0.40195 0.93278 0.0
C2048 C 0.20628 0.42261 0.92549 0.0
H2049 H 0.13848 0.51105 0.96944 0.0
H2050 H 0.17395 0.48684 0.96043 0.0
C2051 C 0.21081 0.41593 0.91549 0.0
C2052 C 0.19958 0.4095 0.94328 0.0
H2053 H 0.14907 0.40712 0.96089 0.0
C2054 C 0.21729 0.42811 0.94806 0.0
C2055 C 0.17531 0.40083 0.94817 0.0
C2056 C 0.15525 0.38126 0.94333 0.0
C2057 C 0.21035 0.4398 0.9573 0.0
C2058 C 0.18503 0.43281 0.96179 0.0
C2059 C 0.16857 0.41237 0.95744 0.0
C2060 C 0.1721 0.45021 0.96954 0.0
C2061 C 0.22954 0.46048 0.96194 0.0
C2062 C 0.16031 0.43834 0.97808 0.0
C2063 C 0.13993 0.45242 0.9834 0.0
C2064 C 0.13061 0.47826 0.98009 0.0
C2065 C 0.14499 0.49131 0.9723 0.0
C2066 C 0.16552 0.4774 0.96709 0.0
H2067 H 0.25129 0.45571 0.96005 0.0
H2068 H 0.22482 0.48116 0.95891 0.0
H2069 H 0.22727 0.46112 0.97019 0.0
H2070 H 0.16516 0.41736 0.9801 0.0
H2071 H 0.12987 0.44206 0.98955 0.0
H2072 H 0.99561 0.96636 0.16295 0.0
H2073 H 0.99109 0.96535 0.18117 0.0
H2074 H 0.9039 0.95119 0.17821 0.0
H2075 H 0.9081 0.95249 0.16005 0.0
H2076 H 0.92096 0.99584 0.19205 0.0
H2077 H 0.97441 0.89587 0.19846 0.0
H2078 H 0.99075 0.92227 0.19115 0.0
H2079 H 0.96136 0.90461 0.18625 0.0
C2080 C 0.97555 0.96252 0.16619 0.0
C2081 C 0.95218 0.95927 0.16008 0.0
C2082 C 0.97302 0.96218 0.17659 0.0
C2083 C 0.94716 0.95838 0.18098 0.0
C2084 C 0.924 0.95442 0.17491 0.0
H2085 H 0.83728 0.91045 0.21643 0.0
H2086 H 0.8662 0.94399 0.20845 0.0
C2087 C 0.92646 0.95487 0.16455 0.0
C2088 C 0.94361 0.95777 0.19191 0.0
H2089 H 0.94506 0.91181 0.21098 0.0
C2090 C 0.92691 0.97791 0.19635 0.0
C2091 C 0.95212 0.93484 0.19756 0.0
C2092 C 0.97064 0.91305 0.19318 0.0
C2093 C 0.91572 0.97395 0.20588 0.0
C2094 C 0.92094 0.94902 0.21092 0.0
C2095 C 0.94076 0.93082 0.20707 0.0
C2096 C 0.90115 0.93768 0.21823 0.0
C2097 C 0.89669 0.99546 0.21011 0.0
C2098 C 0.91045 0.92394 0.2268 0.0
C2099 C 0.89366 0.9045 0.23147 0.0
C2100 C 0.86756 0.89825 0.22751 0.0
C2101 C 0.85714 0.91465 0.21975 0.0
C2102 C 0.87378 0.93414 0.21516 0.0
H2103 H 0.90439 1.01635 0.20831 0.0
H2104 H 0.8761 0.99336 0.20662 0.0
H2105 H 0.89451 0.99352 0.21834 0.0
H2106 H 0.93149 0.92639 0.22931 0.0
H2107 H 0.90203 0.89273 0.23762 0.0
H2108 H 0.56642 0.57257 0.4402 0.0
H2109 H 0.56054 0.61106 0.42877 0.0
H2110 H 0.48064 0.58056 0.42051 0.0
H2111 H 0.48636 0.54182 0.43184 0.0
H2112 H 0.51119 0.61972 0.40581 0.0
H2113 H 0.4983 0.65394 0.4454 0.0
H2114 H 0.52938 0.63682 0.44161 0.0
H2115 H 0.49786 0.61793 0.4423 0.0
C2116 C 0.54839 0.57294 0.43544 0.0
C2117 C 0.5264 0.55468 0.4371 0.0
C2118 C 0.54509 0.5951 0.42895 0.0
C2119 C 0.51991 0.59895 0.42409 0.0
C2120 C 0.50018 0.57795 0.42429 0.0
H2121 H 0.38108 0.66785 0.41635 0.0
H2122 H 0.42564 0.65123 0.42217 0.0
C2123 C 0.50341 0.55582 0.43078 0.0
C2124 C 0.51039 0.62688 0.42166 0.0
H2125 H 0.47464 0.67829 0.43313 0.0
C2126 C 0.50421 0.63331 0.41172 0.0
C2127 C 0.5013 0.64444 0.42944 0.0
C2128 C 0.50693 0.63811 0.4403 0.0
C2129 C 0.4867 0.65536 0.40944 0.0
C2130 C 0.47509 0.67083 0.41733 0.0
C2131 C 0.48381 0.66636 0.42714 0.0
C2132 C 0.44871 0.68509 0.4159 0.0
C2133 C 0.47821 0.66009 0.39874 0.0
C2134 C 0.44701 0.71045 0.41101 0.0
C2135 C 0.42138 0.72032 0.4079 0.0
C2136 C 0.39756 0.7045 0.40947 0.0
C2137 C 0.39918 0.68039 0.41512 0.0
C2138 C 0.42459 0.67087 0.41839 0.0
H2139 H 0.49031 0.64737 0.39343 0.0
H2140 H 0.45607 0.65508 0.39783 0.0
H2141 H 0.48095 0.68205 0.39677 0.0
H2142 H 0.46549 0.72162 0.40906 0.0
H2143 H 0.42059 0.73886 0.40345 0.0
H2144 H 0.38146 0.18976 0.24363 0.0
H2145 H 0.41478 0.16099 0.2347 0.0
H2146 H 0.35608 0.14918 0.21096 0.0
H2147 H 0.32322 0.17769 0.21959 0.0
H2148 H 0.39215 0.10498 0.21294 0.0
H2149 H 0.44751 0.20546 0.21173 0.0
H2150 H 0.44211 0.18924 0.22362 0.0
H2151 H 0.41333 0.20302 0.21685 0.0
C2152 C 0.37538 0.18032 0.23665 0.0
C2153 C 0.34993 0.18686 0.23219 0.0
C2154 C 0.39445 0.16387 0.23157 0.0
C2155 C 0.3882 0.1538 0.22202 0.0
C2156 C 0.36145 0.15695 0.21829 0.0
H2157 H 0.41163 0.13545 0.1634 0.0
H2158 H 0.40121 0.13779 0.18118 0.0
C2159 C 0.34249 0.17331 0.22332 0.0
C2160 C 0.40989 0.14512 0.21493 0.0
H2161 H 0.45532 0.17475 0.19874 0.0
C2162 C 0.40673 0.11982 0.21004 0.0
C2163 C 0.42903 0.1645 0.21116 0.0
C2164 C 0.4333 0.19214 0.21605 0.0
C2165 C 0.4199 0.11464 0.20091 0.0
C2166 C 0.43647 0.13533 0.19662 0.0
C2167 C 0.4423 0.15916 0.20206 0.0
C2168 C 0.44365 0.13479 0.18592 0.0
C2169 C 0.41438 0.08792 0.19557 0.0
C2170 C 0.4711 0.13388 0.18273 0.0
C2171 C 0.47719 0.1327 0.17252 0.0
C2172 C 0.45587 0.13274 0.16541 0.0
C2173 C 0.42853 0.13533 0.16867 0.0
C2174 C 0.4225 0.13629 0.17883 0.0
H2175 H 0.40901 0.07135 0.20092 0.0
H2176 H 0.39671 0.09068 0.19042 0.0
H2177 H 0.43248 0.08136 0.19109 0.0
H2178 H 0.48768 0.13326 0.18813 0.0
H2179 H 0.49847 0.13068 0.17023 0.0
H2180 H 0.64672 0.65145 0.98945 0.0
H2181 H 0.67481 0.68523 0.98056 0.0
H2182 H 0.68875 0.62652 0.95697 0.0
H2183 H 0.66048 0.59337 0.96548 0.0
H2184 H 0.73179 0.66676 0.95907 0.0
H2185 H 0.62648 0.7127 0.95722 0.0
H2186 H 0.64349 0.70885 0.96906 0.0
H2187 H 0.6312 0.67906 0.96253 0.0
C2188 C 0.65647 0.64547 0.98251 0.0
C2189 C 0.65028 0.62005 0.97799 0.0
C2190 C 0.67266 0.66477 0.97748 0.0
C2191 C 0.68301 0.65862 0.96797 0.0
C2192 C 0.68072 0.63177 0.96429 0.0
H2193 H 0.69852 0.66309 0.91005 0.0
H2194 H 0.69969 0.66062 0.92822 0.0
C2195 C 0.66444 0.61265 0.96923 0.0
C2196 C 0.68985 0.68038 0.9607 0.0
H2197 H 0.65467 0.71738 0.94325 0.0
C2198 C 0.71534 0.67888 0.95582 0.0
C2199 C 0.66849 0.69657 0.95653 0.0
C2200 C 0.64083 0.69955 0.96156 0.0
C2201 C 0.71869 0.68992 0.94623 0.0
C2202 C 0.69587 0.70216 0.94146 0.0
C2203 C 0.67187 0.70736 0.94691 0.0
C2204 C 0.69459 0.70437 0.93048 0.0
C2205 C 0.74582 0.68638 0.94093 0.0
C2206 C 0.68948 0.72954 0.92578 0.0
C2207 C 0.68844 0.73097 0.91537 0.0
C2208 C 0.6921 0.70715 0.90954 0.0
C2209 C 0.69558 0.68178 0.91432 0.0
C2210 C 0.69677 0.68042 0.9247 0.0
H2211 H 0.76309 0.68473 0.94633 0.0
H2212 H 0.74526 0.66718 0.93648 0.0
H2213 H 0.74982 0.70376 0.93577 0.0
H2214 H 0.68701 0.7481 0.93015 0.0
H2215 H 0.68577 0.75086 0.91189 0.0
H2216 H 0.27705 0.83782 0.68455 0.0
H2217 H 0.24302 0.84634 0.67156 0.0
H2218 H 0.20874 0.76577 0.67619 0.0
H2219 H 0.24262 0.7572 0.68932 0.0
H2220 H 0.21251 0.82064 0.65418 0.0
H2221 H 0.15721 0.82397 0.69078 0.0
H2222 H 0.19424 0.82239 0.69036 0.0
H2223 H 0.17426 0.79296 0.68691 0.0
C2224 C 0.26327 0.82137 0.68241 0.0
C2225 C 0.26196 0.7972 0.68807 0.0
C2226 C 0.24383 0.82619 0.67498 0.0
C2227 C 0.22294 0.80694 0.67318 0.0
C2228 C 0.22451 0.78095 0.67762 0.0
H2229 H 0.08786 0.91285 0.65145 0.0
H2230 H 0.10483 0.86735 0.65649 0.0
C2231 C 0.24403 0.77606 0.68506 0.0
C2232 C 0.19672 0.81732 0.66915 0.0
H2233 H 0.1407 0.85197 0.67799 0.0
C2234 C 0.19604 0.82644 0.65923 0.0
C2235 C 0.17529 0.82489 0.6758 0.0
C2236 C 0.17508 0.81567 0.68657 0.0
C2237 C 0.17612 0.84541 0.65612 0.0
C2238 C 0.15695 0.85556 0.66315 0.0
C2239 C 0.15555 0.84399 0.67268 0.0
C2240 C 0.14413 0.88255 0.66163 0.0
C2241 C 0.1774 0.85677 0.64566 0.0
C2242 C 0.16017 0.90595 0.66338 0.0
C2243 C 0.1507 0.93169 0.66051 0.0
C2244 C 0.12494 0.93438 0.65593 0.0
C2245 C 0.10773 0.91127 0.65507 0.0
C2246 C 0.11743 0.8853 0.65783 0.0
H2247 H 0.18935 0.84319 0.64059 0.0
H2248 H 0.15634 0.85948 0.64261 0.0
H2249 H 0.18744 0.87723 0.64582 0.0
H2250 H 0.18076 0.90405 0.6664 0.0
H2251 H 0.16431 0.94919 0.66121 0.0
H2252 H 0.93478 0.42944 0.49 0.0
H2253 H 0.90463 0.3986 0.48055 0.0
H2254 H 0.89257 0.46167 0.45842 0.0
H2255 H 0.92276 0.49208 0.46751 0.0
H2256 H 0.84583 0.4263 0.46127 0.0
H2257 H 0.94457 0.36976 0.45531 0.0
H2258 H 0.93169 0.37382 0.46782 0.0
H2259 H 0.94413 0.40317 0.4611 0.0
C2260 C 0.92516 0.43696 0.48324 0.0
C2261 C 0.93185 0.46306 0.47941 0.0
C2262 C 0.90786 0.41933 0.47789 0.0
C2263 C 0.89697 0.42769 0.46868 0.0
C2264 C 0.90085 0.4548 0.4655 0.0
H2265 H 0.85808 0.4114 0.4105 0.0
H2266 H 0.86341 0.42029 0.42828 0.0
C2267 C 0.91815 0.47231 0.47079 0.0
C2268 C 0.88606 0.40773 0.46137 0.0
H2269 H 0.91018 0.36418 0.44341 0.0
C2270 C 0.85954 0.41199 0.45754 0.0
C2271 C 0.90394 0.38891 0.45656 0.0
C2272 C 0.93272 0.38354 0.46034 0.0
C2273 C 0.85138 0.39989 0.44851 0.0
C2274 C 0.87046 0.38364 0.44314 0.0
C2275 C 0.89577 0.37694 0.44751 0.0
C2276 C 0.86659 0.37745 0.43243 0.0
C2277 C 0.82299 0.40593 0.44452 0.0
C2278 C 0.86805 0.35045 0.42879 0.0
C2279 C 0.8654 0.34529 0.41855 0.0
C2280 C 0.86151 0.36712 0.41183 0.0
C2281 C 0.86098 0.39413 0.41549 0.0
C2282 C 0.86359 0.39923 0.42567 0.0
H2283 H 0.80812 0.4092 0.45072 0.0
H2284 H 0.82361 0.42509 0.44004 0.0
H2285 H 0.81539 0.38903 0.43969 0.0
H2286 H 0.87091 0.33341 0.43389 0.0
H2287 H 0.86576 0.32424 0.41594 0.0
H2288 H 0.49336 0.9583 0.45281 0.0
H2289 H 0.48739 0.96005 0.43464 0.0
H2290 H 0.39929 0.95887 0.4385 0.0
H2291 H 0.405 0.95722 0.45656 0.0
H2292 H 0.46195 0.92299 0.42274 0.0
H2293 H 0.40881 1.022 0.41884 0.0
H2294 H 0.42867 1.01319 0.42981 0.0
H2295 H 0.39325 1.00267 0.42872 0.0
C2296 C 0.47272 0.95819 0.44977 0.0
C2297 C 0.44959 0.95769 0.4561 0.0
C2298 C 0.46939 0.95959 0.43941 0.0
C2299 C 0.44293 0.96075 0.43527 0.0
C2300 C 0.4199 0.95917 0.44157 0.0
H2301 H 0.33266 0.90264 0.40605 0.0
H2302 H 0.3626 0.93865 0.41185 0.0
C2303 C 0.42319 0.95768 0.45188 0.0
C2304 C 0.43873 0.96029 0.42436 0.0
H2305 H 0.39321 0.98508 0.4073 0.0
C2306 C 0.44783 0.9371 0.41914 0.0
C2307 C 0.42106 0.97925 0.4196 0.0
C2308 C 0.41269 1.00584 0.42452 0.0
C2309 C 0.43592 0.92979 0.40999 0.0
C2310 C 0.41462 0.94648 0.40602 0.0
C2311 C 0.40915 0.97208 0.41043 0.0
C2312 C 0.39257 0.93374 0.39999 0.0
C2313 C 0.44353 0.90239 0.40547 0.0
C2314 C 0.39803 0.92083 0.39083 0.0
C2315 C 0.38075 0.8998 0.38747 0.0
C2316 C 0.3578 0.89182 0.39321 0.0
C2317 C 0.35016 0.90799 0.40145 0.0
C2318 C 0.36741 0.92878 0.4048 0.0
H2319 H 0.4604 0.89204 0.40961 0.0
H2320 H 0.42539 0.88856 0.40545 0.0
H2321 H 0.45038 0.90529 0.39764 0.0
H2322 H 0.41694 0.92501 0.38684 0.0
H2323 H 0.38667 0.88824 0.3809 0.0
H2324 H 0.88434 0.67869 0.20751 0.0
H2325 H 0.89466 0.67776 0.18962 0.0
H2326 H 0.89117 0.76613 0.18858 0.0
H2327 H 0.881 0.7674 0.20651 0.0
H2328 H 0.85583 0.71954 0.17327 0.0
H2329 H 0.96994 0.72398 0.17608 0.0
H2330 H 0.95192 0.7052 0.18565 0.0
H2331 H 0.9475 0.74167 0.18474 0.0
C2332 C 0.88608 0.69794 0.20351 0.0
C2333 C 0.8819 0.72308 0.2084 0.0
C2334 C 0.89178 0.69737 0.19331 0.0
C2335 C 0.89334 0.72188 0.18786 0.0
C2336 C 0.88983 0.74708 0.19271 0.0
H2337 H 0.96915 0.66759 0.13485 0.0
H2338 H 0.94606 0.70654 0.14253 0.0
C2339 C 0.88421 0.7477 0.20294 0.0
C2340 C 0.89886 0.72051 0.17708 0.0
H2341 H 0.95122 0.70414 0.16142 0.0
C2342 C 0.87668 0.71698 0.17052 0.0
C2343 C 0.92601 0.718 0.17354 0.0
C2344 C 0.95034 0.72257 0.18032 0.0
C2345 C 0.88102 0.70799 0.16069 0.0
C2346 C 0.9081 0.70177 0.15754 0.0
C2347 C 0.93035 0.70865 0.16378 0.0
C2348 C 0.91377 0.68229 0.14928 0.0
C2349 C 0.85648 0.70373 0.154 0.0
C2350 C 0.90174 0.65608 0.14968 0.0
C2351 C 0.91462 0.63378 0.14512 0.0
C2352 C 0.94001 0.63727 0.14029 0.0
C2353 C 0.94969 0.66409 0.13857 0.0
C2354 C 0.93653 0.68649 0.14301 0.0
H2355 H 0.84128 0.72051 0.1551 0.0
H2356 H 0.86241 0.70297 0.14599 0.0
H2357 H 0.84615 0.68421 0.15603 0.0
H2358 H 0.88439 0.65205 0.15453 0.0
H2359 H 0.90634 0.61341 0.14635 0.0
H2360 H 0.23227 0.18266 0.90207 0.0
H2361 H 0.19903 0.15248 0.90963 0.0
H2362 H 0.13838 0.17649 0.88784 0.0
H2363 H 0.17226 0.20632 0.8798 0.0
H2364 H 0.12405 0.19002 0.90702 0.0
H2365 H 0.15642 0.08184 0.90645 0.0
H2366 H 0.18556 0.10312 0.90908 0.0
H2367 H 0.16817 0.10632 0.89723 0.0
C2368 C 0.21246 0.1806 0.89846 0.0
C2369 C 0.20494 0.19751 0.8904 0.0
C2370 C 0.1933 0.16316 0.90285 0.0
C2371 C 0.16618 0.16219 0.89931 0.0
C2372 C 0.15923 0.17693 0.89068 0.0
H2373 H 0.05798 0.11506 0.94982 0.0
H2374 H 0.06697 0.12482 0.9321 0.0
C2375 C 0.17859 0.19418 0.88616 0.0
C2376 C 0.14469 0.1509 0.90596 0.0
H2377 H 0.13644 0.09837 0.92246 0.0
C2378 C 0.12581 0.16954 0.91013 0.0
C2379 C 0.14684 0.12418 0.90997 0.0
C2380 C 0.16518 0.10268 0.90535 0.0
C2381 C 0.11179 0.16332 0.91901 0.0
C2382 C 0.11678 0.13789 0.92369 0.0
C2383 C 0.13302 0.11806 0.91888 0.0
C2384 C 0.11011 0.13365 0.93432 0.0
C2385 C 0.09404 0.18492 0.92388 0.0
C2386 C 0.13128 0.13607 0.94135 0.0
C2387 C 0.12627 0.13071 0.9514 0.0
C2388 C 0.09997 0.12271 0.95459 0.0
C2389 C 0.07845 0.1213 0.94757 0.0
C2390 C 0.08352 0.12671 0.93747 0.0
H2391 H 0.09105 0.20314 0.91901 0.0
H2392 H 0.0736 0.17616 0.92574 0.0
H2393 H 0.10372 0.19169 0.93098 0.0
H2394 H 0.1519 0.14162 0.93902 0.0
H2395 H 0.14327 0.132 0.95661 0.0
H2396 H 0.62469 0.43123 0.63378 0.0
H2397 H 0.65923 0.40135 0.64152 0.0
H2398 H 0.67263 0.46205 0.66446 0.0
H2399 H 0.63813 0.49146 0.65704 0.0
H2400 H 0.7209 0.42952 0.65925 0.0
H2401 H 0.62699 0.3673 0.66739 0.0
H2402 H 0.63678 0.37375 0.65465 0.0
H2403 H 0.62394 0.40134 0.66224 0.0
C2404 C 0.63551 0.43846 0.64034 0.0
C2405 C 0.62808 0.46345 0.64493 0.0
C2406 C 0.65533 0.42144 0.6447 0.0
C2407 C 0.66798 0.42931 0.65366 0.0
C2408 C 0.66306 0.4556 0.65753 0.0
H2409 H 0.71572 0.41954 0.70986 0.0
H2410 H 0.70997 0.42534 0.69195 0.0
C2411 C 0.64326 0.4725 0.65324 0.0
C2412 C 0.68167 0.40917 0.66021 0.0
H2413 H 0.66321 0.3648 0.6787 0.0
C2414 C 0.70871 0.41454 0.66329 0.0
C2415 C 0.66584 0.38934 0.66538 0.0
C2416 C 0.63676 0.38246 0.66231 0.0
C2417 C 0.71915 0.40298 0.67209 0.0
C2418 C 0.70182 0.38625 0.67799 0.0
C2419 C 0.67625 0.37801 0.67422 0.0
C2420 C 0.70718 0.38183 0.68874 0.0
C2421 C 0.74793 0.41033 0.67534 0.0
C2422 C 0.70618 0.35548 0.69296 0.0
C2423 C 0.70897 0.35213 0.70329 0.0
C2424 C 0.71255 0.37512 0.70951 0.0
C2425 C 0.71302 0.40143 0.70526 0.0
C2426 C 0.71023 0.40475 0.69499 0.0
H2427 H 0.76161 0.41295 0.66875 0.0
H2428 H 0.74748 0.43018 0.67941 0.0
H2429 H 0.75683 0.39442 0.68032 0.0
H2430 H 0.70325 0.33759 0.68827 0.0
H2431 H 0.70868 0.33158 0.70637 0.0
H2432 H 0.15873 0.28088 0.376 0.0
H2433 H 0.11124 0.29929 0.37646 0.0
H2434 H 0.07966 0.21699 0.37823 0.0
H2435 H 0.12633 0.199 0.37822 0.0
H2436 H 0.06587 0.30102 0.36639 0.0
H2437 H 1.0317 0.24264 0.39924 0.0
H2438 H 0.06718 0.24277 0.39539 0.0
H2439 H 0.04288 0.21961 0.38965 0.0
C2440 C 0.14178 0.26659 0.37655 0.0
C2441 C 0.14751 0.23801 0.37711 0.0
C2442 C 0.11404 0.27727 0.37681 0.0
C2443 C 0.09033 0.26011 0.37771 0.0
C2444 C 0.09635 0.23161 0.37799 0.0
H2445 H 0.90314 0.28458 0.3775 0.0
H2446 H 0.9504 0.26552 0.37677 0.0
C2447 C 0.12378 0.22106 0.37781 0.0
C2448 C 0.05986 0.27142 0.3781 0.0
H2449 H 0.99606 0.26323 0.38957 0.0
C2450 C 0.05096 0.29263 0.37157 0.0
C2451 C 0.03892 0.26136 0.38474 0.0
C2452 C 0.04569 0.24058 0.39271 0.0
C2453 C 1.02316 0.30303 0.37133 0.0
C2454 C 1.00222 0.2927 0.37787 0.0
C2455 C 1.01104 0.27152 0.38439 0.0
C2456 C 0.97193 0.30425 0.37829 0.0
C2457 C 1.01637 0.32479 0.36372 0.0
C2458 C 0.96649 0.33261 0.37956 0.0
C2459 C 0.93923 0.34354 0.38007 0.0
C2460 C 0.91514 0.32708 0.37929 0.0
C2461 C 0.92035 0.29855 0.37805 0.0
C2462 C 0.94792 0.28747 0.37766 0.0
H2463 H 1.03092 0.32427 0.35732 0.0
H2464 H 0.99513 0.32233 0.36082 0.0
H2465 H 1.01803 0.34531 0.36728 0.0
H2466 H 0.98355 0.34669 0.38037 0.0
H2467 H 0.93712 0.36547 0.38115 0.0
H2468 H 0.95977 0.70011 0.6295 0.0
H2469 H 0.97989 0.74561 0.62871 0.0
H2470 H 0.06085 0.70995 0.62974 0.0
H2471 H 0.04034 0.66352 0.63022 0.0
H2472 H 1.00461 0.77853 0.63945 0.0
H2473 H 0.08206 0.76386 0.60979 0.0
H2474 H 0.05673 0.73798 0.61255 0.0
H2475 H 0.08723 0.74108 0.62013 0.0
C2476 C 0.982 0.70142 0.62941 0.0
C2477 C 0.99787 0.67684 0.62979 0.0
C2478 C 0.99376 0.72823 0.62902 0.0
C2479 C 1.02249 0.7329 0.62902 0.0
C2480 C 0.0387 0.70832 0.6294 0.0
H2481 H 0.12648 0.88671 0.63024 0.0
H2482 H 0.10767 0.84033 0.63026 0.0
C2483 C 1.02679 0.68112 0.62971 0.0
C2484 C 1.03435 0.76315 0.62891 0.0
H2485 H 0.08356 0.80617 0.61845 0.0
C2486 C 1.02181 0.7842 0.63474 0.0
C2487 C 0.05704 0.77226 0.62293 0.0
C2488 C 0.07143 0.75275 0.61592 0.0
C2489 C 1.03098 0.81236 0.63489 0.0
C2490 C 0.05357 0.82147 0.62888 0.0
C2491 C 0.06628 0.80044 0.62311 0.0
C2492 C 0.06492 0.85185 0.62874 0.0
C2493 C 1.01662 0.83195 0.64188 0.0
C2494 C 0.04813 0.87584 0.62777 0.0
C2495 C 0.05922 0.90335 0.62774 0.0
C2496 C 0.08785 0.90855 0.62863 0.0
C2497 C 0.10442 0.88454 0.62948 0.0
C2498 C 0.09346 0.85733 0.62948 0.0
H2499 H 1.00599 0.82091 0.64803 0.0
H2500 H 1.03134 0.84675 0.64522 0.0
H2501 H 1.00084 0.84362 0.63766 0.0
H2502 H 1.02615 0.87348 0.6269 0.0
H2503 H 0.04521 0.92053 0.62709 0.0
H2504 H 0.40938 0.81258 0.895 0.0
H2505 H 0.45672 0.79516 0.89398 0.0
H2506 H 0.45616 0.80823 0.8622 0.0
H2507 H 0.40883 0.8261 0.86332 0.0
H2508 H 0.48641 0.75643 0.8873 0.0
H2509 H 0.52707 0.84455 0.86625 0.0
H2510 H 0.49241 0.84411 0.87103 0.0
H2511 H 0.50061 0.82719 0.85941 0.0
C2512 C 0.41893 0.81113 0.88771 0.0
C2513 C 0.40396 0.82015 0.87922 0.0
C2514 C 0.44666 0.80127 0.88712 0.0
C2515 C 0.46174 0.80052 0.87803 0.0
C2516 C 0.44647 0.8089 0.86947 0.0
H2517 H 0.61827 0.70097 0.87417 0.0
H2518 H 0.57146 0.71855 0.87404 0.0
C2519 C 0.4186 0.81866 0.87006 0.0
C2520 C 0.49274 0.79108 0.87765 0.0
H2521 H 0.55743 0.80655 0.86807 0.0
C2522 C 0.50166 0.76765 0.88304 0.0
C2523 C 0.51416 0.8053 0.8724 0.0
C2524 C 0.50823 0.83183 0.86703 0.0
C2525 C 0.5297 0.75811 0.88318 0.0
C2526 C 0.5509 0.77153 0.87753 0.0
C2527 C 0.54215 0.79537 0.87233 0.0
C2528 C 0.58155 0.76106 0.87693 0.0
C2529 C 0.53623 0.73397 0.88982 0.0
C2530 C 0.60503 0.77851 0.87788 0.0
C2531 C 0.63292 0.76823 0.87769 0.0
C2532 C 0.63893 0.73987 0.87648 0.0
C2533 C 0.61545 0.72285 0.8752 0.0
C2534 C 0.58794 0.73304 0.87528 0.0
H2535 H 0.52146 0.73248 0.89613 0.0
H2536 H 0.53447 0.71475 0.88541 0.0
H2537 H 0.55733 0.73537 0.89294 0.0
H2538 H 0.60187 0.80027 0.87906 0.0
H2539 H 0.6497 0.78248 0.87883 0.0
H2540 H 0.45891 0.20326 0.13099 0.0
H2541 H 0.47818 0.24921 0.13015 0.0
H2542 H 0.5597 0.21519 0.13236 0.0
H2543 H 0.5401 0.16845 0.13278 0.0
H2544 H 0.50094 0.28385 0.14049 0.0
H2545 H 0.58251 0.26775 0.11246 0.0
H2546 H 0.55736 0.24164 0.11511 0.0
H2547 H 0.58693 0.24593 0.1231 0.0
C2548 C 0.4811 0.20508 0.13114 0.0
C2549 C 0.49743 0.18086 0.13179 0.0
C2550 C 0.49236 0.23213 0.13072 0.0
C2551 C 0.52101 0.2374 0.13099 0.0
C2552 C 0.53763 0.21315 0.13174 0.0
H2553 H 0.62514 0.38981 0.13286 0.0
H2554 H 0.60523 0.34415 0.1327 0.0
C2555 C 0.52624 0.18574 0.13204 0.0
C2556 C 0.53243 0.26785 0.13076 0.0
H2557 H 0.58286 0.31044 0.12087 0.0
C2558 C 0.51881 0.28928 0.13608 0.0
C2559 C 0.55587 0.27673 0.12512 0.0
C2560 C 0.57138 0.25693 0.11854 0.0
C2561 C 0.52774 0.31756 0.13612 0.0
C2562 C 0.55129 0.32634 0.13054 0.0
C2563 C 0.56491 0.30496 0.12523 0.0
C2564 C 0.56303 0.3566 0.13047 0.0
C2565 C 0.512 0.33766 0.14251 0.0
C2566 C 0.54695 0.38101 0.12914 0.0
C2567 C 0.55874 0.40829 0.12918 0.0
C2568 C 0.58738 0.4128 0.13054 0.0
C2569 C 0.60314 0.38834 0.13174 0.0
C2570 C 0.59153 0.36145 0.13165 0.0
H2571 H 0.49993 0.3271 0.14841 0.0
H2572 H 0.52604 0.35259 0.14614 0.0
H2573 H 0.49733 0.34918 0.13775 0.0
H2574 H 0.52504 0.37917 0.12793 0.0
H2575 H 0.54527 0.42581 0.12825 0.0
H2576 H 0.91667 0.797 0.24056 0.0
H2577 H 0.96377 0.81647 0.24139 0.0
H2578 H 0.99662 0.73555 0.24613 0.0
H2579 H 0.95067 0.71637 0.245 0.0
H2580 H 1.00672 0.8232 0.25337 0.0
H2581 H 0.04938 0.75276 0.22525 0.0
H2582 H 1.01303 0.75421 0.22777 0.0
H2583 H 1.03549 0.73375 0.23551 0.0
C2584 C 0.93379 0.78325 0.24186 0.0
C2585 C 0.92867 0.7546 0.24269 0.0
C2586 C 0.96132 0.79453 0.24228 0.0
C2587 C 0.98537 0.77788 0.24348 0.0
C2588 C 0.97979 0.74956 0.24473 0.0
H2589 H 0.17194 0.80306 0.24849 0.0
H2590 H 0.12451 0.78426 0.24842 0.0
C2591 C 0.95269 0.7384 0.24423 0.0
C2592 C 1.01576 0.78943 0.24357 0.0
H2593 H 0.0823 0.77732 0.23494 0.0
C2594 C 1.02294 0.81302 0.24923 0.0
C2595 C 0.03836 0.77704 0.23828 0.0
C2596 C 1.03368 0.75325 0.23128 0.0
C2597 C 0.05062 0.82358 0.24995 0.0
C2598 C 0.07321 0.81098 0.24476 0.0
C2599 C 0.06606 0.78745 0.23909 0.0
C2600 C 0.10361 0.82237 0.24485 0.0
C2601 C 0.05539 0.84798 0.25665 0.0
C2602 C 0.10955 0.85021 0.2427 0.0
C2603 C 0.13689 0.86097 0.2427 0.0
C2604 C 0.16061 0.84486 0.24485 0.0
C2605 C 0.15498 0.81678 0.24689 0.0
C2606 C 0.12732 0.80586 0.24681 0.0
H2607 H 0.03932 0.84951 0.26253 0.0
H2608 H 0.07583 0.8469 0.26033 0.0
H2609 H 0.05446 0.86702 0.25212 0.0
H2610 H 0.09288 0.86397 0.2408 0.0
H2611 H 0.13936 0.88249 0.2409 0.0
H2612 H 0.53056 0.91335 0.48961 0.0
H2613 H 0.54963 0.86605 0.49008 0.0
H2614 H 0.4676 0.83346 0.49168 0.0
H2615 H 0.44889 0.87955 0.49093 0.0
H2616 H 0.55278 0.82123 0.50161 0.0
H2617 H 0.48999 0.78396 0.4703 0.0
H2618 H 0.49107 0.8198 0.47357 0.0
H2619 H 0.46836 0.79662 0.4801 0.0
C2620 C 0.51646 0.89623 0.49011 0.0
C2621 C 0.48767 0.90151 0.49018 0.0
C2622 C 0.52752 0.86861 0.49034 0.0
C2623 C 0.51052 0.84463 0.49057 0.0
C2624 C 0.48198 0.85029 0.49104 0.0
H2625 H 0.53283 0.65748 0.49237 0.0
H2626 H 0.5144 0.70502 0.49276 0.0
C2627 C 0.47106 0.87748 0.49076 0.0
C2628 C 0.52182 0.81419 0.49045 0.0
H2629 H 0.51158 0.74933 0.48013 0.0
C2630 C 0.54367 0.80583 0.4968 0.0
C2631 C 0.51074 0.79264 0.48432 0.0
C2632 C 0.48897 0.79872 0.47662 0.0
C2633 C 0.55371 0.77795 0.49737 0.0
C2634 C 0.54243 0.75639 0.4913 0.0
C2635 C 0.52065 0.76475 0.48495 0.0
C2636 C 0.55354 0.72592 0.49118 0.0
C2637 C 0.57603 0.77183 0.50485 0.0
C2638 C 0.58188 0.71997 0.49 0.0
C2639 C 0.59243 0.69259 0.48975 0.0
C2640 C 0.57562 0.66879 0.49066 0.0
C2641 C 0.54708 0.67446 0.49177 0.0
C2642 C 0.53638 0.70219 0.49194 0.0
H2643 H 0.57587 0.78687 0.51109 0.0
H2644 H 0.57382 0.75089 0.50801 0.0
H2645 H 0.59634 0.77331 0.5011 0.0
H2646 H 0.59626 0.73669 0.48905 0.0
H2647 H 0.6144 0.69017 0.48873 0.0
H2648 H 0.66601 0.29918 0.74567 0.0
H2649 H 0.61839 0.28096 0.74607 0.0
H2650 H 0.58737 0.36067 0.73807 0.0
H2651 H 0.63403 0.37835 0.7374 0.0
H2652 H 0.57129 0.2869 0.75596 0.0
H2653 H 0.54248 0.32234 0.71841 0.0
H2654 H 0.57746 0.32414 0.72278 0.0
H2655 H 0.55306 0.35069 0.726 0.0
C2656 C 0.64916 0.31291 0.74394 0.0
C2657 C 0.65504 0.34064 0.74143 0.0
C2658 C 0.62138 0.30235 0.74417 0.0
C2659 C 0.59785 0.31876 0.74181 0.0
C2660 C 0.604 0.34649 0.73956 0.0
H2661 H 0.41051 0.29496 0.73927 0.0
H2662 H 0.45766 0.31449 0.73977 0.0
C2663 C 0.63142 0.3569 0.7393 0.0
C2664 C 0.56734 0.30768 0.74189 0.0
H2665 H 0.50535 0.30854 0.72888 0.0
C2666 C 0.55722 0.29165 0.74993 0.0
C2667 C 0.5475 0.31328 0.7342 0.0
C2668 C 0.55571 0.32829 0.72482 0.0
C2669 C 0.52919 0.28212 0.75061 0.0
C2670 C 0.50935 0.28783 0.74295 0.0
C2671 C 0.51944 0.30387 0.73491 0.0
C2672 C 0.47904 0.27636 0.74295 0.0
C2673 C 0.52098 0.26657 0.75987 0.0
C2674 C 0.47358 0.24815 0.74448 0.0
C2675 C 0.44647 0.23699 0.74421 0.0
C2676 C 0.42248 0.25303 0.74243 0.0
C2677 C 0.42761 0.28147 0.74094 0.0
C2678 C 0.45513 0.29273 0.74112 0.0
H2679 H 0.53426 0.27206 0.76632 0.0
H2680 H 0.49923 0.27066 0.76194 0.0
H2681 H 0.52347 0.24424 0.75849 0.0
H2682 H 0.49057 0.23414 0.74561 0.0
H2683 H 0.44445 0.21503 0.74524 0.0
H2684 H 1.02115 0.15595 0.98712 0.0
H2685 H 1.00196 0.20322 0.98751 0.0
H2686 H 0.08387 0.236 0.98948 0.0
H2687 H 0.10272 0.18994 0.98881 0.0
H2688 H 0.99878 0.24794 0.99919 0.0
H2689 H 0.06171 0.28482 0.96783 0.0
H2690 H 0.06059 0.24902 0.97116 0.0
H2691 H 0.0833 0.27227 0.97765 0.0
C2692 C 1.03517 0.17313 0.98771 0.0
C2693 C 0.06396 0.16801 0.98791 0.0
C2694 C 1.02406 0.20069 0.98788 0.0
C2695 C 0.04106 0.22463 0.98819 0.0
C2696 C 0.06958 0.21911 0.98879 0.0
H2697 H 1.01879 0.41131 0.98997 0.0
H2698 H 1.03726 0.36379 0.9905 0.0
C2699 C 0.08055 0.19199 0.98855 0.0
C2700 C 1.02975 0.25494 0.98803 0.0
H2701 H 0.04013 0.31958 0.97766 0.0
C2702 C 1.0079 0.2633 0.99437 0.0
C2703 C 0.04091 0.27635 0.98187 0.0
C2704 C 0.0627 0.27014 0.97417 0.0
C2705 C 0.99791 0.29115 0.99492 0.0
C2706 C 1.00928 0.31257 0.98884 0.0
C2707 C 1.03105 0.30421 0.98248 0.0
C2708 C 0.99819 0.34292 0.98868 0.0
C2709 C 0.97553 0.29739 1.00238 0.0
C2710 C 0.96992 0.34874 0.98734 0.0
C2711 C 0.95936 0.37604 0.98701 0.0
C2712 C 0.97613 0.39981 0.98801 0.0
C2713 C 1.00461 0.39428 0.98931 0.0
C2714 C 1.01533 0.36662 0.98956 0.0
H2715 H 0.97559 0.2824 1.00863 0.0
H2716 H 0.97776 0.31835 1.00554 0.0
H2717 H 0.95525 0.29594 0.99862 0.0
H2718 H 0.95563 0.33196 0.9863 0.0
H2719 H 0.93744 0.37844 0.98586 0.0
H2720 H 0.15551 0.78434 0.74317 0.0
H2721 H 0.10812 0.8034 0.7437 0.0
H2722 H 0.07531 0.72302 0.73797 0.0
H2723 H 0.12162 0.70426 0.73748 0.0
H2724 H 0.06377 0.80812 0.73058 0.0
H2725 H 1.02562 0.74111 0.76066 0.0
H2726 H 0.06172 0.74347 0.75769 0.0
H2727 H 0.03939 0.72173 0.75043 0.0
C2728 C 0.1383 0.77055 0.74213 0.0
C2729 C 0.14354 0.74222 0.74041 0.0
C2730 C 0.11069 0.78162 0.74239 0.0
C2731 C 0.08674 0.76499 0.74111 0.0
C2732 C 0.09227 0.7369 0.73932 0.0
H2733 H 0.89955 0.78832 0.74001 0.0
H2734 H 0.94698 0.76941 0.74009 0.0
C2735 C 0.11951 0.72601 0.73897 0.0
C2736 C 0.05641 0.77637 0.74137 0.0
H2737 H 0.99143 0.76536 0.75149 0.0
C2738 C 0.04824 0.79873 0.73527 0.0
C2739 C 1.03477 0.76464 0.74727 0.0
C2740 C 0.04078 0.7416 0.75445 0.0
C2741 C 1.02036 0.80879 0.73474 0.0
C2742 C 0.99873 0.79721 0.74072 0.0
C2743 C 1.00693 0.77483 0.74681 0.0
C2744 C 0.9683 0.80847 0.74095 0.0
C2745 C 1.01437 0.83124 0.72729 0.0
C2746 C 0.96263 0.83689 0.74172 0.0
C2747 C 0.93538 0.8477 0.74166 0.0
C2748 C 0.91139 0.83106 0.74104 0.0
C2749 C 0.9167 0.80238 0.74059 0.0
C2750 C 0.94436 0.79143 0.74059 0.0
H2751 H 1.02916 0.83072 0.72096 0.0
H2752 H 0.99325 0.82952 0.72422 0.0
H2753 H 1.01656 0.85149 0.73101 0.0
H2754 H 0.97947 0.85123 0.74244 0.0
H2755 H 0.93324 0.8698 0.74206 0.0
H2756 H 1.03558 0.16261 0.49189 0.0
H2757 H 0.05449 0.20992 0.49233 0.0
H2758 H 0.97244 0.24271 0.491 0.0
H2759 H 0.95383 0.19638 0.49055 0.0
H2760 H 0.05349 0.25542 0.47946 0.0
H2761 H 0.99938 0.28981 0.51343 0.0
H2762 H 1.00083 0.25412 0.50987 0.0
H2763 H 0.97625 0.27686 0.50413 0.0
C2764 C 1.02143 0.17978 0.49184 0.0
C2765 C 0.99272 0.17456 0.49131 0.0
C2766 C 1.03239 0.20733 0.49203 0.0
C2767 C 1.0153 0.23121 0.4919 0.0
C2768 C 0.98677 0.22573 0.49139 0.0
H2769 H 0.03786 0.41772 0.49295 0.0
H2770 H 1.01938 0.37033 0.49321 0.0
C2771 C 0.97595 0.19853 0.49107 0.0
C2772 C 1.02666 0.26143 0.49201 0.0
H2773 H 1.02017 0.32491 0.50367 0.0
C2774 C 0.04622 0.27033 0.48487 0.0
C2775 C 1.01752 0.28224 0.49883 0.0
C2776 C 0.99754 0.27531 0.50706 0.0
C2777 C 0.05598 0.2982 0.48421 0.0
C2778 C 0.04717 0.319 0.49112 0.0
C2779 C 1.02754 0.31005 0.49827 0.0
C2780 C 0.05839 0.34936 0.49118 0.0
C2781 C 0.07489 0.3051 0.47564 0.0
C2782 C 0.08681 0.35521 0.49024 0.0
C2783 C 0.09738 0.3825 0.49 0.0
C2784 C 0.08054 0.40627 0.4909 0.0
C2785 C 0.05206 0.40073 0.49219 0.0
C2786 C 0.04134 0.37308 0.49234 0.0
H2787 H 0.07153 0.29111 0.4692 0.0
H2788 H 0.07188 0.32652 0.47304 0.0
H2789 H 0.09654 0.30248 0.47808 0.0
H2790 H 0.10137 0.33846 0.48977 0.0
H2791 H 0.11938 0.38489 0.4891 0.0
H2792 H 0.65777 0.28854 0.23763 0.0
H2793 H 0.61053 0.30796 0.238 0.0
H2794 H 0.57782 0.2275 0.24365 0.0
H2795 H 0.62404 0.20851 0.24344 0.0
H2796 H 0.56344 0.3024 0.22699 0.0
H2797 H 0.53287 0.26478 0.26411 0.0
H2798 H 0.56809 0.26341 0.25992 0.0
H2799 H 0.54399 0.23716 0.25624 0.0
C2800 C 0.6407 0.27499 0.23924 0.0
C2801 C 0.64594 0.24657 0.24073 0.0
C2802 C 0.61312 0.2862 0.23933 0.0
C2803 C 0.58921 0.26977 0.24107 0.0
C2804 C 0.59478 0.24156 0.24259 0.0
H2805 H 0.40191 0.29307 0.24263 0.0
H2806 H 0.44946 0.27457 0.2433 0.0
C2807 C 0.62195 0.23047 0.24242 0.0
C2808 C 0.55884 0.28122 0.24095 0.0
H2809 H 0.4963 0.27997 0.25361 0.0
C2810 C 0.54909 0.29754 0.23293 0.0
C2811 C 0.53865 0.27529 0.24848 0.0
C2812 C 0.54644 0.25944 0.25772 0.0
C2813 C 0.52106 0.30703 0.23211 0.0
C2814 C 0.50087 0.30122 0.23966 0.0
C2815 C 0.51064 0.28489 0.24768 0.0
C2816 C 0.47039 0.31246 0.23947 0.0
C2817 C 0.51326 0.32241 0.22276 0.0
C2818 C 0.46447 0.34034 0.23737 0.0
C2819 C 0.43711 0.35092 0.23696 0.0
C2820 C 0.41329 0.3347 0.23878 0.0
C2821 C 0.41892 0.3068 0.24115 0.0
C2822 C 0.44666 0.29607 0.24153 0.0
H2823 H 0.52678 0.31668 0.21639 0.0
H2824 H 0.49161 0.31838 0.22059 0.0
H2825 H 0.51584 0.34476 0.22407 0.0
H2826 H 0.48124 0.35448 0.2361 0.0
H2827 H 0.43472 0.37247 0.23518 0.0
H2828 H 0.6306 0.89114 0.99381 0.0
H2829 H 0.61165 0.84502 0.99354 0.0
H2830 H 0.53 0.87842 0.99609 0.0
H2831 H 0.54925 0.92546 0.99622 0.0
H2832 H 0.58707 0.81118 1.00505 0.0
H2833 H 0.5111 0.82548 0.9749 0.0
H2834 H 0.53615 0.85147 0.97789 0.0
H2835 H 0.5054 0.84799 0.9853 0.0
C2836 C 0.60846 0.88917 0.99437 0.0
C2837 C 0.59197 0.91329 0.99512 0.0
C2838 C 0.59743 0.86205 0.99421 0.0
C2839 C 0.56886 0.85665 0.99465 0.0
C2840 C 0.55205 0.88072 0.99548 0.0
H2841 H 0.46664 0.70267 0.99227 0.0
H2842 H 0.48549 0.7487 0.99335 0.0
C2843 C 0.56323 0.90822 0.99569 0.0
C2844 C 0.55769 0.82622 0.99436 0.0
H2845 H 0.51031 0.78272 0.98317 0.0
C2846 C 0.57026 0.80527 1.0002 0.0
C2847 C 0.53567 0.81691 0.98813 0.0
C2848 C 0.52142 0.8365 0.98112 0.0
C2849 C 0.56151 0.77696 1.00019 0.0
C2850 C 0.53954 0.76758 0.99392 0.0
C2851 C 0.52703 0.78857 0.98807 0.0
C2852 C 0.52841 0.73707 0.99356 0.0
C2853 C 0.57561 0.75759 1.00731 0.0
C2854 C 0.54527 0.71292 0.99332 0.0
C2855 C 0.5341 0.68543 0.99283 0.0
C2856 C 0.50534 0.6804 0.99243 0.0
C2857 C 0.48881 0.70457 0.99263 0.0
C2858 C 0.49982 0.73167 0.99318 0.0
H2859 H 0.58532 0.76879 1.01362 0.0
H2860 H 0.56093 0.7424 1.01043 0.0
H2861 H 0.59213 0.74642 1.00328 0.0
H2862 H 0.56739 0.7151 0.99323 0.0
H2863 H 0.54815 0.66819 0.99249 0.0
H2864 H 0.13848 0.38146 0.88548 0.0
H2865 H 0.09164 0.36341 0.88523 0.0
H2866 H 0.123 0.28347 0.8777 0.0
H2867 H 0.17039 0.30176 0.87786 0.0
H2868 H 0.0563 0.34287 0.87225 0.0
H2869 H 0.07175 0.25824 0.89905 0.0
H2870 H 0.09757 0.28419 0.89701 0.0
H2871 H 0.0939 0.25613 0.88836 0.0
C2872 C 0.13585 0.35991 0.88375 0.0
C2873 C 0.15951 0.34352 0.88176 0.0
C2874 C 0.10836 0.34941 0.8836 0.0
C2875 C 0.10227 0.32149 0.88162 0.0
C2876 C 0.12588 0.3049 0.87953 0.0
H2877 H 0.94718 0.21957 0.88213 0.0
H2878 H 0.9935 0.23827 0.88129 0.0
C2879 C 0.1536 0.31557 0.87957 0.0
C2880 C 0.07166 0.31057 0.88165 0.0
H2881 H 1.02842 0.26035 0.8912 0.0
C2882 C 0.0505 0.32475 0.87644 0.0
C2883 C 0.06252 0.28687 0.88702 0.0
C2884 C 0.08247 0.27056 0.89326 0.0
C2885 C 1.02211 0.31598 0.87619 0.0
C2886 C 1.01282 0.29236 0.88165 0.0
C2887 C 1.03409 0.27831 0.8869 0.0
C2888 C 0.98215 0.28123 0.8818 0.0
C2889 C 1.00265 0.33193 0.86964 0.0
C2890 C 0.95798 0.29807 0.88232 0.0
C2891 C 0.93041 0.28699 0.88256 0.0
C2892 C 0.9252 0.25829 0.88252 0.0
C2893 C 0.94929 0.24169 0.88211 0.0
C2894 C 0.97655 0.25265 0.8817 0.0
H2895 H 1.01381 0.34304 0.86363 0.0
H2896 H 0.98722 0.31827 0.86609 0.0
H2897 H 0.99178 0.34751 0.87423 0.0
H2898 H 0.96017 0.32009 0.88283 0.0
H2899 H 0.9132 0.30104 0.88311 0.0
H2900 H 0.44717 0.37872 0.62987 0.0
H2901 H 0.46666 0.33293 0.62923 0.0
H2902 H 0.5476 0.36747 0.62608 0.0
H2903 H 0.5278 0.4143 0.62695 0.0
H2904 H 0.48994 0.30032 0.61726 0.0
H2905 H 0.5696 0.31309 0.64624 0.0
H2906 H 0.54404 0.33914 0.64391 0.0
H2907 H 0.57385 0.33631 0.63597 0.0
C2908 C 0.46927 0.37713 0.62902 0.0
C2909 C 0.48539 0.40149 0.62846 0.0
C2910 C 0.48061 0.35016 0.62864 0.0
C2911 C 0.50916 0.34516 0.62777 0.0
C2912 C 0.52561 0.36947 0.62703 0.0
H2913 H 0.61242 0.19192 0.62666 0.0
H2914 H 0.59308 0.23787 0.6263 0.0
C2915 C 0.51409 0.39684 0.62738 0.0
C2916 C 0.52061 0.31485 0.62757 0.0
H2917 H 0.5696 0.2709 0.63757 0.0
C2918 C 0.50739 0.29421 0.62178 0.0
C2919 C 0.54344 0.30528 0.63336 0.0
C2920 C 0.55844 0.32446 0.6403 0.0
C2921 C 0.5162 0.26594 0.62143 0.0
C2922 C 0.53902 0.25635 0.62722 0.0
C2923 C 0.55222 0.277 0.63302 0.0
C2924 C 0.55034 0.22595 0.62712 0.0
C2925 C 0.50119 0.24684 0.61446 0.0
C2926 C 0.53368 0.20174 0.62766 0.0
C2927 C 0.5451 0.17432 0.62772 0.0
C2928 C 0.5739 0.1695 0.62737 0.0
C2929 C 0.59022 0.19371 0.62687 0.0
C2930 C 0.57895 0.22075 0.62674 0.0
H2931 H 0.49041 0.25828 0.60844 0.0
H2932 H 0.5155 0.23192 0.61094 0.0
H2933 H 0.48543 0.23532 0.61874 0.0
H2934 H 0.51161 0.20384 0.6283 0.0
H2935 H 0.53128 0.15699 0.62836 0.0
H2936 H 0.63471 0.86922 0.3835 0.0
H2937 H 0.58856 0.84982 0.38307 0.0
H2938 H 0.62291 0.76952 0.37813 0.0
H2939 H 0.66981 0.78918 0.37863 0.0
H2940 H 0.55552 0.82676 0.37044 0.0
H2941 H 0.57 0.74631 0.399 0.0
H2942 H 0.59565 0.77227 0.39672 0.0
H2943 H 0.59299 0.74296 0.38859 0.0
C2944 C 0.63288 0.84731 0.38229 0.0
C2945 C 0.65714 0.83126 0.38109 0.0
C2946 C 0.60582 0.83602 0.38204 0.0
C2947 C 0.60077 0.80765 0.38072 0.0
C2948 C 0.625 0.79133 0.37941 0.0
H2949 H 0.44781 0.70372 0.38057 0.0
H2950 H 0.4938 0.723 0.38014 0.0
C2951 C 0.65238 0.80279 0.37958 0.0
C2952 C 0.57052 0.79609 0.38062 0.0
H2953 H 0.52726 0.74668 0.39066 0.0
C2954 C 0.54963 0.80921 0.37492 0.0
C2955 C 0.56134 0.77305 0.38635 0.0
C2956 C 0.58102 0.75792 0.39309 0.0
C2957 C 0.52144 0.80008 0.37459 0.0
C2958 C 0.51212 0.77719 0.3804 0.0
C2959 C 0.53307 0.76412 0.38611 0.0
C2960 C 0.48172 0.76575 0.38041 0.0
C2961 C 0.50219 0.8148 0.36758 0.0
C2962 C 0.45738 0.78234 0.38072 0.0
C2963 C 0.42996 0.77093 0.38079 0.0
C2964 C 0.42522 0.74219 0.38069 0.0
C2965 C 0.44954 0.72588 0.38051 0.0
C2966 C 0.4766 0.73714 0.38035 0.0
H2967 H 0.5136 0.82531 0.36149 0.0
H2968 H 0.48725 0.80041 0.36414 0.0
H2969 H 0.4907 0.83073 0.37179 0.0
H2970 H 0.45935 0.8044 0.38116 0.0
H2971 H 0.41254 0.78474 0.38118 0.0
H2972 H 1.02505 0.91532 0.1237 0.0
H2973 H 0.04403 0.86825 0.12316 0.0
H2974 H 0.96381 0.83551 0.12963 0.0
H2975 H 0.94539 0.88183 0.13051 0.0
H2976 H 0.99359 0.80338 0.13879 0.0
H2977 H 0.05192 0.81022 0.10356 0.0
H2978 H 0.06368 0.83468 0.1126 0.0
H2979 H 1.02934 0.83741 0.10758 0.0
C2980 C 1.01127 0.89821 0.12491 0.0
C2981 C 0.98316 0.90361 0.12707 0.0
C2982 C 1.02224 0.8706 0.12453 0.0
C2983 C 1.00578 0.84662 0.12614 0.0
C2984 C 0.97783 0.85238 0.12831 0.0
H2985 H 1.02565 0.65832 0.12746 0.0
H2986 H 1.00703 0.70554 0.12747 0.0
C2987 C 0.96704 0.87964 0.12876 0.0
C2988 C 1.01683 0.81602 0.12589 0.0
H2989 H 0.05854 0.76985 0.11307 0.0
C2990 C 1.00766 0.7964 0.13304 0.0
C2991 C 1.03543 0.80517 0.11856 0.0
C2992 C 0.04549 0.82282 0.11008 0.0
C2993 C 1.01643 0.76807 0.13321 0.0
C2994 C 1.03512 0.7573 0.12591 0.0
C2995 C 0.04437 0.77688 0.11878 0.0
C2996 C 0.04605 0.72672 0.12571 0.0
C2997 C 1.00599 0.75015 0.14156 0.0
C2998 C 0.07437 0.72079 0.12436 0.0
C2999 C 0.08506 0.69341 0.12427 0.0
C3000 C 0.0683 0.66966 0.12537 0.0
C3001 C 0.03979 0.67529 0.12656 0.0
C3002 C 1.02902 0.70294 0.12669 0.0
H3003 H 0.99898 0.76252 0.14806 0.0
H3004 H 0.98813 0.73812 0.13884 0.0
H3005 H 1.0221 0.73563 0.14414 0.0
H3006 H 0.08873 0.73761 0.12354 0.0
H3007 H 0.10706 0.69094 0.12338 0.0
H3008 H 0.23109 0.22395 0.34202 0.0
H3009 H 0.24247 0.24203 0.32545 0.0
H3010 H 0.29684 0.30092 0.33897 0.0
H3011 H 0.28601 0.28217 0.35558 0.0
H3012 H 0.2357 0.28547 0.31501 0.0
H3013 H 0.34874 0.28151 0.31775 0.0
H3014 H 0.32694 0.26611 0.32708 0.0
H3015 H 0.33386 0.30247 0.32734 0.0
C3016 C 0.24584 0.24053 0.34157 0.0
C3017 C 0.25768 0.25087 0.35053 0.0
C3018 C 0.25235 0.25121 0.33188 0.0
C3019 C 0.27132 0.273 0.3304 0.0
C3020 C 0.2829 0.28369 0.33938 0.0
H3021 H 0.33345 0.3648 0.27535 0.0
H3022 H 0.32348 0.34832 0.29239 0.0
C3023 C 0.27637 0.27294 0.34911 0.0
C3024 C 0.27802 0.28454 0.31965 0.0
H3025 H 0.33065 0.30496 0.3037 0.0
C3026 C 0.25664 0.28946 0.31265 0.0
C3027 C 0.30515 0.29042 0.31601 0.0
C3028 C 0.33003 0.28463 0.32238 0.0
C3029 C 0.26119 0.30006 0.30273 0.0
C3030 C 0.28832 0.30578 0.29907 0.0
C3031 C 0.30972 0.301 0.30608 0.0
C3032 C 0.29478 0.31636 0.28817 0.0
C3033 C 0.23623 0.30596 0.29641 0.0
C3034 C 0.28291 0.30444 0.27949 0.0
C3035 C 0.28861 0.31411 0.26959 0.0
C3036 C 0.30681 0.33626 0.26761 0.0
C3037 C 0.31913 0.34798 0.27624 0.0
C3038 C 0.31339 0.33827 0.28618 0.0
H3039 H 0.21777 0.30985 0.3011 0.0
H3040 H 0.23952 0.32405 0.29152 0.0
H3041 H 0.23177 0.28783 0.29166 0.0
H3042 H 0.26931 0.28703 0.28028 0.0
H3043 H 0.27871 0.30379 0.2634 0.0
H3044 H 1.02871 0.04544 0.5155 0.0
H3045 H 0.04568 1.03554 0.53239 0.0
H3046 H 0.97798 0.08103 0.54486 0.0
H3047 H 0.96078 0.09063 0.52794 0.0
H3048 H 0.0662 0.06187 0.54763 0.0
H3049 H 0.9708 1.01837 0.56325 0.0
H3050 H 0.97439 1.02561 0.55012 0.0
H3051 H 0.96603 0.05271 0.55878 0.0
C3052 C 1.01708 0.05328 0.52179 0.0
C3053 C 0.99283 0.06884 0.51997 0.0
C3054 C 1.02706 0.04758 0.53164 0.0
C3055 C 1.01335 0.05674 0.54041 0.0
C3056 C 0.98919 0.07255 0.53859 0.0
H3057 H 0.04462 0.03986 0.6071 0.0
H3058 H 1.02684 0.05074 0.59035 0.0
C3059 C 0.97924 0.07837 0.52871 0.0
C3060 C 1.02468 0.05032 0.55117 0.0
H3061 H 1.0067 1.02699 0.57481 0.0
C3062 C 0.05292 0.0541 0.55348 0.0
C3063 C 1.00829 0.04014 0.55926 0.0
C3064 C 0.97827 1.03369 0.55774 0.0
C3065 C 0.0646 0.04892 0.56319 0.0
C3066 C 0.04826 0.03853 0.57127 0.0
C3067 C 1.01998 1.03482 0.56897 0.0
C3068 C 0.05983 1.03161 0.58198 0.0
C3069 C 0.09451 0.05586 0.5647 0.0
C3070 C 0.08458 1.01659 0.58354 0.0
C3071 C 0.09504 1.01044 0.5933 0.0
C3072 C 0.08135 1.01856 0.60221 0.0
C3073 C 0.05637 1.03316 0.60068 0.0
C3074 C 0.04594 0.0394 0.5909 0.0
H3075 H 0.10148 0.07182 0.55935 0.0
H3076 H 0.09847 0.06338 0.57239 0.0
H3077 H 0.10714 0.03723 0.56337 0.0
H3078 H 0.09591 1.00897 0.57717 0.0
H3079 H 0.11401 0.99886 0.59385 0.0
H3080 H 0.32048 0.86107 0.84344 0.0
H3081 H 0.31006 0.84403 0.82649 0.0
H3082 H 0.26779 0.77481 0.83916 0.0
H3083 H 0.27802 0.79174 0.85598 0.0
H3084 H 0.32259 0.79921 0.81525 0.0
H3085 H 0.20986 0.79476 0.81946 0.0
H3086 H 0.23146 0.81148 0.82856 0.0
H3087 H 0.22738 0.77473 0.82872 0.0
C3088 C 0.30873 0.84232 0.84269 0.0
C3089 C 0.30005 0.82831 0.85144 0.0
C3090 C 0.30274 0.83233 0.83283 0.0
C3091 C 0.28735 0.80796 0.83108 0.0
C3092 C 0.27891 0.79394 0.83985 0.0
H3093 H 0.22524 0.71399 0.77706 0.0
H3094 H 0.23611 0.73144 0.79387 0.0
C3095 C 0.28507 0.80375 0.84968 0.0
C3096 C 0.28072 0.79701 0.82032 0.0
H3097 H 0.22826 0.77325 0.80502 0.0
C3098 C 0.30181 0.79379 0.81309 0.0
C3099 C 0.25379 0.78928 0.81703 0.0
C3100 C 0.22926 0.79295 0.8238 0.0
C3101 C 0.29717 0.78287 0.80323 0.0
C3102 C 0.27016 0.77532 0.7999 0.0
C3103 C 0.24907 0.77862 0.80715 0.0
C3104 C 0.2634 0.7641 0.78915 0.0
C3105 C 0.32196 0.77847 0.79666 0.0
C3106 C 0.27419 0.77604 0.78029 0.0
C3107 C 0.26809 0.7657 0.77053 0.0
C3108 C 0.25039 0.74296 0.7689 0.0
C3109 C 0.23908 0.73129 0.77771 0.0
C3110 C 0.24536 0.74155 0.78751 0.0
H3111 H 0.34096 0.77575 0.80116 0.0
H3112 H 0.31946 0.76016 0.79181 0.0
H3113 H 0.32496 0.79681 0.79188 0.0
H3114 H 0.2872 0.79396 0.78083 0.0
H3115 H 0.27718 0.77596 0.76416 0.0
H3116 H 0.46282 0.0836 0.09698 0.0
H3117 H 0.48032 0.07301 0.08013 0.0
H3118 H 0.55876 0.05139 0.09272 0.0
H3119 H 0.54114 0.06139 0.10949 0.0
H3120 H 0.51617 0.0903 0.06709 0.0
H3121 H 0.55639 0.98712 0.07531 0.0
H3122 H 0.53569 1.0057 0.0842 0.0
H3123 H 0.57206 1.0125 0.08314 0.0
C3124 C 0.48377 0.07634 0.09626 0.0
C3125 C 0.50002 0.0733 0.10503 0.0
C3126 C 0.49406 0.07023 0.08641 0.0
C3127 C 0.52125 0.06039 0.08461 0.0
C3128 C 0.53753 0.05778 0.0934 0.0
H3129 H 0.62396 1.01291 1.0302 0.0
H3130 H 0.60592 1.02362 1.04695 0.0
C3131 C 0.52728 0.06389 0.10322 0.0
C3132 C 0.5325 0.05364 0.07377 0.0
H3133 H 0.56997 1.00631 0.05978 0.0
C3134 C 0.52774 0.07171 0.06562 0.0
C3135 C 0.54803 1.02952 0.07123 0.0
C3136 C 0.55314 1.00746 0.07889 0.0
C3137 C 0.5381 0.06709 1.05563 0.0
C3138 C 0.55369 0.043 1.0531 0.0
C3139 C 0.5584 1.02491 0.06125 0.0
C3140 C 0.56519 1.0363 1.04228 0.0
C3141 C 0.53293 0.08911 1.04796 0.0
C3142 C 0.5492 0.03893 1.03342 0.0
C3143 C 0.55977 1.03276 1.02363 0.0
C3144 C 0.58708 1.02329 1.02196 0.0
C3145 C 0.603 1.02027 1.03081 0.0
C3146 C 0.5924 1.02642 1.04061 0.0
H3147 H 0.52947 0.10942 1.05153 0.0
H3148 H 0.55044 0.09098 1.04268 0.0
H3149 H 0.51412 0.08391 1.04367 0.0
H3150 H 0.52797 0.04537 1.034 0.0
H3151 H 0.54615 1.03525 1.0173 0.0
H3152 H 0.29952 0.78398 0.35965 0.0
H3153 H 0.28908 0.80182 0.34294 0.0
H3154 H 0.32599 0.72998 0.32982 0.0
H3155 H 0.3353 0.71164 0.34655 0.0
H3156 H 0.31199 0.82052 0.32769 0.0
H3157 H 0.26415 0.72792 0.31175 0.0
H3158 H 0.27276 0.7301 0.3248 0.0
H3159 H 0.29864 0.72098 0.3157 0.0
C3160 C 0.3052 0.77161 0.35325 0.0
C3161 C 0.31813 0.7458 0.35481 0.0
C3162 C 0.29922 0.78209 0.34349 0.0
C3163 C 0.30578 0.76752 0.3346 0.0
C3164 C 0.31925 0.7419 0.33618 0.0
H3165 H 0.29401 0.80535 0.26838 0.0
H3166 H 0.30422 0.7864 0.28502 0.0
C3167 C 0.32498 0.73128 0.34596 0.0
C3168 C 0.29926 0.77949 0.32393 0.0
H3169 H 0.27513 0.7633 0.30022 0.0
C3170 C 0.30371 0.80771 0.3218 0.0
C3171 C 0.28831 0.7638 0.31578 0.0
C3172 C 0.2804 0.73413 0.31713 0.0
C3173 C 0.29838 0.81997 0.31221 0.0
C3174 C 0.28771 0.80422 0.30407 0.0
C3175 C 0.28333 0.77602 0.30616 0.0
C3176 C 0.28108 0.81641 0.29349 0.0
C3177 C 0.30516 0.84992 0.31086 0.0
C3178 C 0.26411 0.83988 0.29209 0.0
C3179 C 0.25799 0.85081 0.2824 0.0
C3180 C 0.26854 0.83909 0.27347 0.0
C3181 C 0.28539 0.81554 0.27486 0.0
C3182 C 0.29127 0.80444 0.28454 0.0
H3183 H 0.32045 0.85705 0.31645 0.0
H3184 H 0.31342 0.85398 0.30327 0.0
H3185 H 0.28617 0.86227 0.31187 0.0
H3186 H 0.255 0.84974 0.29853 0.0
H3187 H 0.24477 0.86866 0.28193 0.0
H3188 H 0.60901 0.07499 0.59186 0.0
H3189 H 0.59109 0.06417 0.57508 0.0
H3190 H 0.51571 1.03543 0.58822 0.0
H3191 H 0.53328 0.04673 0.60486 0.0
H3192 H 0.57651 1.02228 0.56412 0.0
H3193 H 0.47852 0.07825 0.56759 0.0
H3194 H 0.50518 0.08125 0.57686 0.0
H3195 H 0.48178 0.05253 0.57707 0.0
C3196 C 0.58851 0.06647 0.59125 0.0
C3197 C 0.57296 0.06213 0.60011 0.0
C3198 C 0.57804 0.06013 0.58146 0.0
C3199 C 0.5512 0.04929 0.57983 0.0
C3200 C 0.53594 0.04454 0.58873 0.0
H3201 H 0.4504 0.99539 0.52573 0.0
H3202 H 0.46804 1.00615 0.54256 0.0
C3203 C 0.54636 0.05085 0.59849 0.0
C3204 C 0.53965 0.04254 0.56908 0.0
H3205 H 0.48242 0.04841 0.55362 0.0
C3206 C 0.55593 1.02834 0.56193 0.0
C3207 C 0.51261 0.04978 0.56565 0.0
C3208 C 0.49359 0.06652 0.57214 0.0
C3209 C 0.54633 1.02093 0.55209 0.0
C3210 C 0.5193 1.02817 0.54867 0.0
C3211 C 0.503 0.04235 0.55581 0.0
C3212 C 0.50784 1.0215 0.53789 0.0
C3213 C 0.56536 1.00423 0.54559 0.0
C3214 C 0.52313 1.02656 0.52903 0.0
C3215 C 0.51287 1.0203 0.51925 0.0
C3216 C 0.48642 1.00876 0.51756 0.0
C3217 C 0.4708 1.00411 0.52638 0.0
C3218 C 0.48111 1.01042 0.5362 0.0
H3219 H 0.58043 0.99248 0.55014 0.0
H3220 H 0.55379 0.98953 0.54085 0.0
H3221 H 0.57718 1.01825 0.54068 0.0
H3222 H 0.54326 1.03585 0.52958 0.0
H3223 H 0.52599 1.02468 0.51291 0.0
H3224 H 0.34068 0.21652 0.77782 0.0
H3225 H 0.33087 0.23362 0.79484 0.0
H3226 H 0.2839 0.30015 0.78242 0.0
H3227 H 0.29356 0.2832 0.76556 0.0
H3228 H 0.34161 0.27907 0.80606 0.0
H3229 H 0.22863 0.27892 0.80284 0.0
H3230 H 0.25029 0.26294 0.79357 0.0
H3231 H 0.24459 0.29949 0.79338 0.0
C3232 C 0.32803 0.23469 0.77863 0.0
C3233 C 0.3179 0.24789 0.7699 0.0
C3234 C 0.32238 0.24474 0.78856 0.0
C3235 C 0.30585 0.26839 0.79044 0.0
C3236 C 0.29597 0.28159 0.78168 0.0
H3237 H 0.24125 0.36126 0.84456 0.0
H3238 H 0.25235 0.34334 0.82789 0.0
C3239 C 0.3018 0.27174 0.7718 0.0
C3240 C 0.29943 0.27943 0.8013 0.0
H3241 H 0.24697 0.30175 0.817 0.0
C3242 C 0.32075 0.28375 0.80837 0.0
C3243 C 0.27243 0.28627 0.80483 0.0
C3244 C 0.24762 0.28145 0.79832 0.0
C3245 C 0.31625 0.29489 0.81824 0.0
C3246 C 0.28917 0.30157 0.82183 0.0
C3247 C 0.26786 0.29711 0.81473 0.0
C3248 C 0.28251 0.31325 0.83261 0.0
C3249 C 0.34127 0.30052 0.82456 0.0
C3250 C 0.29484 0.30309 0.84154 0.0
C3251 C 0.28866 0.31392 0.85129 0.0
C3252 C 0.26934 0.33541 0.85286 0.0
C3253 C 0.25653 0.34518 0.844 0.0
C3254 C 0.26289 0.33453 0.83424 0.0
H3255 H 0.35987 0.30365 0.81986 0.0
H3256 H 0.33838 0.319 0.8293 0.0
H3257 H 0.34527 0.28256 0.82944 0.0
H3258 H 0.30915 0.28614 0.84109 0.0
H3259 H 0.29898 0.30502 0.85768 0.0
H3260 H 1.02564 0.0443 1.01078 0.0
H3261 H 1.00906 1.0336 1.02766 0.0
H3262 H 0.0846 0.0644 1.04001 0.0
H3263 H 0.10132 0.07503 1.02306 0.0
H3264 H 1.02318 0.99994 1.0429 0.0
H3265 H 1.03347 0.10434 1.05847 0.0
H3266 H 1.03687 0.09757 1.04528 0.0
H3267 H 0.06514 0.0909 1.0536 0.0
C3268 C 0.03899 0.04891 1.01703 0.0
C3269 C 0.0652 0.06083 1.01516 0.0
C3270 C 1.02928 0.04264 1.02688 0.0
C3271 C 0.04484 0.04832 1.03561 0.0
C3272 C 0.0712 0.06005 1.03376 0.0
H3273 H 1.01523 1.03355 0.10223 0.0
H3274 H 1.03214 0.04299 0.08534 0.0
C3275 C 0.08108 0.06604 1.02387 0.0
C3276 C 1.03364 0.04169 1.04638 0.0
H3277 H 1.02202 0.06929 0.06993 0.0
C3278 C 1.02296 1.01536 1.04874 0.0
C3279 C 1.03287 0.06103 1.05444 0.0
C3280 C 0.04243 0.09012 1.05285 0.0
C3281 C 1.01276 1.00789 1.05849 0.0
C3282 C 1.01164 1.02735 0.06654 0.0
C3283 C 1.0223 0.05373 0.06414 0.0
C3284 C 1.00034 1.02092 0.07737 0.0
C3285 C 1.00443 0.97842 0.06006 0.0
C3286 C 0.97603 1.00537 0.07929 0.0
C3287 C 0.9663 0.99951 0.08921 0.0
C3288 C 0.97985 1.00929 0.09791 0.0
C3289 C 1.00371 1.02532 0.09599 0.0
C3290 C 1.01358 1.03091 0.0861 0.0
H3291 H 1.01497 0.96453 1.05469 0.0
H3292 H 1.00929 0.9714 0.06774 0.0
H3293 H 0.98197 0.9764 1.05879 0.0
H3294 H 0.96398 0.99788 0.07309 0.0
H3295 H 0.9478 0.98737 0.09005 0.0
H3296 H 0.76978 0.77628 0.85312 0.0
H3297 H 0.78033 0.79362 0.83635 0.0
H3298 H 0.73653 0.72556 0.82346 0.0
H3299 H 0.72511 0.70882 0.84026 0.0
H3300 H 0.80812 0.78264 0.82098 0.0
H3301 H 0.70343 0.77812 0.80539 0.0
H3302 H 0.7099 0.77199 0.81844 0.0
H3303 H 0.71469 0.7449 0.80939 0.0
C3304 C 0.7621 0.76488 0.84676 0.0
C3305 C 0.74617 0.74086 0.84843 0.0
C3306 C 0.76832 0.77499 0.83696 0.0
C3307 C 0.759 0.76187 0.8281 0.0
C3308 C 0.74354 0.73745 0.82979 0.0
H3309 H 0.78316 0.79003 0.76172 0.0
H3310 H 0.77183 0.77274 0.77846 0.0
C3311 C 0.73714 0.72742 0.83961 0.0
C3312 C 0.766 0.77337 0.81739 0.0
H3313 H 0.73938 0.78625 0.79376 0.0
C3314 C 0.79272 0.78346 0.81514 0.0
C3315 C 0.74675 0.77512 0.8093 0.0
C3316 C 0.71704 0.76724 0.81075 0.0
C3317 C 0.80056 0.79405 0.80551 0.0
C3318 C 0.78138 0.79557 0.79741 0.0
C3319 C 0.75469 0.78547 0.79963 0.0
C3320 C 0.78848 0.80707 0.78674 0.0
C3321 C 0.83004 0.80275 0.80405 0.0
C3322 C 0.80152 0.83286 0.78514 0.0
C3323 C 0.80797 0.84307 0.77535 0.0
C3324 C 0.80183 0.82819 0.76651 0.0
C3325 C 0.78854 0.80258 0.7681 0.0
C3326 C 0.7819 0.79248 0.77787 0.0
H3327 H 0.84389 0.79282 0.80957 0.0
H3328 H 0.83744 0.79763 0.79643 0.0
H3329 H 0.83159 0.82529 0.80511 0.0
H3330 H 0.80653 0.84558 0.7915 0.0
H3331 H 0.81801 0.86284 0.77475 0.0
H3332 H 0.82779 0.3546 0.34291 0.0
H3333 H 0.81616 0.3371 0.32618 0.0
H3334 H 0.76965 0.2717 0.33958 0.0
H3335 H 0.78062 0.2896 0.35622 0.0
H3336 H 0.825 0.29604 0.31461 0.0
H3337 H 0.71306 0.28711 0.31987 0.0
H3338 H 0.73457 0.30368 0.329 0.0
H3339 H 0.73134 0.26678 0.32881 0.0
C3340 C 0.81479 0.33662 0.34238 0.0
C3341 C 0.80513 0.32416 0.35133 0.0
C3342 C 0.80807 0.32632 0.3326 0.0
C3343 C 0.79105 0.3029 0.33104 0.0
C3344 C 0.78182 0.29022 0.34002 0.0
H3345 H 0.73182 0.20703 0.27622 0.0
H3346 H 0.7427 0.22338 0.29325 0.0
C3347 C 0.78847 0.30055 0.34979 0.0
C3348 C 0.78383 0.29166 0.32026 0.0
H3349 H 0.73122 0.26587 0.30531 0.0
C3350 C 0.8043 0.28972 0.3127 0.0
C3351 C 0.75697 0.2828 0.31716 0.0
C3352 C 0.73266 0.28543 0.32409 0.0
C3353 C 0.79921 0.27924 0.30278 0.0
C3354 C 0.77238 0.27037 0.2997 0.0
C3355 C 0.75191 0.2722 0.30725 0.0
C3356 C 0.76526 0.25976 0.28884 0.0
C3357 C 0.82339 0.27693 0.29579 0.0
C3358 C 0.7733 0.27411 0.28007 0.0
C3359 C 0.76694 0.26464 0.2702 0.0
C3360 C 0.75195 0.24011 0.26828 0.0
C3361 C 0.74354 0.22579 0.27702 0.0
C3362 C 0.74982 0.2354 0.28696 0.0
H3363 H 0.84309 0.27529 0.29995 0.0
H3364 H 0.82149 0.25878 0.29081 0.0
H3365 H 0.82447 0.29567 0.2911 0.0
H3366 H 0.78432 0.29327 0.2808 0.0
H3367 H 0.77383 0.27696 0.26396 0.0
H3368 H 0.73614 0.36547 0.77889 0.0
H3369 H 0.74735 0.34834 0.79572 0.0
H3370 H 0.80867 0.29497 0.78304 0.0
H3371 H 0.79801 0.31259 0.76635 0.0
H3372 H 0.74443 0.30471 0.80648 0.0
H3373 H 0.85667 0.31843 0.80461 0.0
H3374 H 0.83428 0.33174 0.79506 0.0
H3375 H 0.84484 0.29621 0.79486 0.0
C3376 C 0.75231 0.35031 0.77961 0.0
C3377 C 0.76618 0.34113 0.77086 0.0
C3378 C 0.7588 0.3402 0.78944 0.0
C3379 C 0.77973 0.3203 0.79125 0.0
C3380 C 0.79322 0.31085 0.78244 0.0
H3381 H 0.84633 0.22979 0.84595 0.0
H3382 H 0.83555 0.24676 0.82904 0.0
C3383 C 0.78679 0.32099 0.77264 0.0
C3384 C 0.78672 0.30919 0.80207 0.0
H3385 H 0.84013 0.2919 0.81822 0.0
C3386 C 0.76552 0.30225 0.80894 0.0
C3387 C 0.81408 0.30527 0.80587 0.0
C3388 C 0.83877 0.31355 0.79977 0.0
C3389 C 0.7705 0.29147 0.81882 0.0
C3390 C 0.79784 0.28749 0.82261 0.0
C3391 C 0.81905 0.29439 0.81575 0.0
C3392 C 0.80474 0.27656 0.83345 0.0
C3393 C 0.74585 0.28346 0.825 0.0
C3394 C 0.79199 0.28709 0.84223 0.0
C3395 C 0.79828 0.27721 0.85207 0.0
C3396 C 0.81788 0.25611 0.85392 0.0
C3397 C 0.83096 0.24575 0.84518 0.0
C3398 C 0.82472 0.25574 0.83531 0.0
H3399 H 0.72779 0.27878 0.82021 0.0
H3400 H 0.75027 0.26524 0.8297 0.0
H3401 H 0.74012 0.30085 0.82993 0.0
H3402 H 0.77723 0.3036 0.84156 0.0
H3403 H 0.78767 0.28649 0.85833 0.0
H3404 H 0.79227 0.798 0.35669 0.0
H3405 H 0.80355 0.78145 0.33982 0.0
H3406 H 0.75274 0.84486 0.3272 0.0
H3407 H 0.74173 0.8616 0.34407 0.0
H3408 H 0.77876 0.75869 0.32439 0.0
H3409 H 0.81537 0.85697 0.30899 0.0
H3410 H 0.80825 0.85275 0.32211 0.0
H3411 H 0.78066 0.85924 0.31344 0.0
C3412 C 0.78354 0.80877 0.35037 0.0
C3413 C 0.76606 0.83171 0.35213 0.0
C3414 C 0.79004 0.79904 0.34053 0.0
C3415 C 0.77983 0.81174 0.33172 0.0
C3416 C 0.76209 0.83453 0.33349 0.0
H3417 H 0.79811 0.78517 0.26506 0.0
H3418 H 0.78691 0.80071 0.282 0.0
C3419 C 0.75546 0.84419 0.34335 0.0
C3420 C 0.78723 0.80093 0.32094 0.0
H3421 H 0.80913 0.82087 0.29734 0.0
C3422 C 0.78553 0.77255 0.31856 0.0
C3423 C 0.79622 0.81806 0.31288 0.0
C3424 C 0.80053 0.84839 0.31447 0.0
C3425 C 0.79146 0.76145 0.3088 0.0
C3426 C 0.80055 0.77858 0.30074 0.0
C3427 C 0.80232 0.80696 0.30314 0.0
C3428 C 0.80774 0.76796 0.28989 0.0
C3429 C 0.78666 0.7312 0.30722 0.0
C3430 C 0.8238 0.74402 0.28792 0.0
C3431 C 0.83015 0.73474 0.27798 0.0
C3432 C 0.8212 0.74897 0.26931 0.0
C3433 C 0.80555 0.77306 0.27128 0.0
C3434 C 0.7991 0.78223 0.28119 0.0
H3435 H 0.7715 0.72294 0.31265 0.0
H3436 H 0.77904 0.72691 0.29956 0.0
H3437 H 0.80628 0.71998 0.30836 0.0
H3438 H 0.83212 0.73246 0.29411 0.0
H3439 H 0.84254 0.71641 0.27711 0.0
H3440 H 0.62438 0.50727 0.094 0.0
H3441 H 0.6068 0.51826 0.07719 0.0
H3442 H 0.53036 0.54505 0.09013 0.0
H3443 H 0.54807 0.53475 0.10682 0.0
H3444 H 0.56971 0.50276 0.06446 0.0
H3445 H 0.53541 0.60826 0.07241 0.0
H3446 H 0.55536 0.58891 0.08129 0.0
H3447 H 0.51863 0.58411 0.08043 0.0
C3448 C 0.60388 0.51579 0.09336 0.0
C3449 C 0.58821 0.5202 0.1022 0.0
C3450 C 0.59355 0.52213 0.08354 0.0
C3451 C 0.56692 0.53353 0.08185 0.0
C3452 C 0.5512 0.53745 0.09071 0.0
H3453 H 0.46568 0.5829 1.02705 0.0
H3454 H 0.48255 0.57199 1.044 0.0
C3455 C 0.56148 0.53115 0.1005 0.0
C3456 C 0.55561 0.5405 0.07106 0.0
H3457 H 0.52016 0.58923 1.05704 0.0
C3458 C 0.55909 0.52189 0.06297 0.0
C3459 C 0.54126 0.56531 0.06849 0.0
C3460 C 0.53766 0.58792 0.07607 0.0
C3461 C 0.54867 0.52673 1.05302 0.0
C3462 C 0.5343 0.55151 1.05047 0.0
C3463 C 0.53077 0.5701 1.05855 0.0
C3464 C 0.52331 0.55851 1.03964 0.0
C3465 C 0.55248 0.50427 1.0454 0.0
C3466 C 0.53979 0.55553 1.03093 0.0
C3467 C 0.52999 0.56188 1.0211 0.0
C3468 C 0.50298 0.57182 1.01917 0.0
C3469 C 0.48645 0.57518 1.02786 0.0
C3470 C 0.49636 0.5689 1.03776 0.0
H3471 H 0.55484 0.48388 1.04902 0.0
H3472 H 0.53483 0.50326 1.04015 0.0
H3473 H 0.5715 0.5083 1.04105 0.0
H3474 H 0.56084 0.54864 1.03168 0.0
H3475 H 0.54405 0.55907 1.0149 0.0
H3476 H 0.95967 0.58788 0.59434 0.0
H3477 H 0.97659 0.57662 0.57744 0.0
H3478 H 0.0488 0.53972 0.59023 0.0
H3479 H 1.03192 0.55072 0.60701 0.0
H3480 H 1.01887 0.58983 0.56547 0.0
H3481 H 1.03309 0.47886 0.57151 0.0
H3482 H 1.01546 0.50021 0.58047 0.0
H3483 H 0.05251 0.49896 0.58022 0.0
C3484 C 0.97909 0.57714 0.59364 0.0
C3485 C 0.99389 0.5702 0.60244 0.0
C3486 C 0.98901 0.57065 0.58378 0.0
C3487 C 1.0142 0.55643 0.58206 0.0
C3488 C 1.02904 0.54979 0.59088 0.0
H3489 H 0.1098 0.49474 0.52801 0.0
H3490 H 0.09256 0.50643 0.54479 0.0
C3491 C 1.01925 0.55643 0.6007 0.0
C3492 C 1.02505 0.5492 0.57127 0.0
H3493 H 0.05231 0.4969 0.5566 0.0
C3494 C 1.02594 0.56934 0.56362 0.0
C3495 C 1.03488 0.52262 0.56834 0.0
C3496 C 1.03374 0.49883 0.57552 0.0
C3497 C 1.03652 0.56421 0.55372 0.0
C3498 C 0.04623 0.53757 0.55076 0.0
C3499 C 0.04528 0.51742 0.55842 0.0
C3500 C 0.05731 0.53025 0.53998 0.0
C3501 C 0.03819 0.58826 0.54667 0.0
C3502 C 0.04393 0.53875 0.53105 0.0
C3503 C 0.05412 0.53213 0.52128 0.0
C3504 C 0.07823 0.51619 0.51969 0.0
C3505 C 0.0914 0.50718 0.52859 0.0
C3506 C 0.08125 0.51393 0.53838 0.0
H3507 H 0.03947 0.60801 0.5508 0.0
H3508 H 0.05635 0.58666 0.54167 0.0
H3509 H 1.01929 0.58892 0.54204 0.0
H3510 H 1.02498 0.5503 0.53154 0.0
H3511 H 0.04265 0.53942 0.51487 0.0
H3512 H 1.03371 0.52714 0.10384 0.0
H3513 H 1.01649 0.5153 0.08703 0.0
H3514 H 0.06324 0.58189 0.07457 0.0
H3515 H 0.08036 0.59357 0.09123 0.0
H3516 H 0.98515 0.53773 0.07269 0.0
H3517 H 0.08635 0.52698 1.05454 0.0
H3518 H 0.08297 0.53058 0.06788 0.0
H3519 H 0.08167 0.56035 0.05991 0.0
C3520 C 0.04051 0.53934 0.09756 0.0
C3521 C 0.05886 0.56153 0.09927 0.0
C3522 C 1.03046 0.53248 0.08776 0.0
C3523 C 0.03847 0.54703 0.079 0.0
C3524 C 0.05668 0.56931 0.08078 0.0
H3525 H 1.00477 0.53782 1.01251 0.0
H3526 H 1.02067 0.54828 1.02948 0.0
C3527 C 0.06646 0.57632 0.09055 0.0
C3528 C 1.02759 0.53944 0.06826 0.0
H3529 H 0.04767 0.52785 1.04371 0.0
C3530 C 0.99911 0.53545 0.06643 0.0
C3531 C 0.04485 0.53625 0.05965 0.0
C3532 C 0.07566 0.53847 0.06057 0.0
C3533 C 0.98782 0.52952 1.0567 0.0
C3534 C 1.00509 0.52625 1.04807 0.0
C3535 C 1.03361 0.53011 1.04994 0.0
C3536 C 0.99434 0.51943 1.03721 0.0
C3537 C 0.95696 0.52807 1.05579 0.0
C3538 C 0.97393 0.49921 1.03513 0.0
C3539 C 0.96439 0.49328 1.02519 0.0
C3540 C 0.97488 0.50687 1.01661 0.0
C3541 C 0.99558 0.5267 1.01866 0.0
C3542 C 1.00497 0.53273 1.02858 0.0
H3543 H 0.94664 0.53983 0.06184 0.0
H3544 H 0.94981 0.53625 1.0485 0.0
H3545 H 0.95034 0.50636 1.05646 0.0
H3546 H 0.96545 0.48731 1.0412 0.0
H3547 H 0.94886 0.47759 1.02424 0.0
H3548 H 0.52045 0.52859 0.60549 0.0
H3549 H 0.53732 0.53916 0.58867 0.0
H3550 H 0.46635 0.49953 0.57605 0.0
H3551 H 0.44908 0.48961 0.59294 0.0
H3552 H 0.55633 0.51568 0.5732 0.0
H3553 H 0.4618 0.56176 0.55791 0.0
H3554 H 0.46495 0.55341 0.57096 0.0
H3555 H 0.45614 0.52721 0.56199 0.0
C3556 C 0.50804 0.52223 0.5992 0.0
C3557 C 0.48282 0.50827 0.60099 0.0
C3558 C 0.51798 0.52832 0.58935 0.0
C3559 C 0.50341 0.52106 0.58054 0.0
C3560 C 0.4783 0.50672 0.58234 0.0
H3561 H 0.53531 0.53873 0.51388 0.0
H3562 H 0.51765 0.52796 0.53063 0.0
C3563 C 0.46829 0.50066 0.59221 0.0
C3564 C 0.51487 0.52788 0.56977 0.0
H3565 H 0.49732 0.5525 0.54623 0.0
C3566 C 0.54312 0.52391 0.56741 0.0
C3567 C 0.49869 0.53874 0.56172 0.0
C3568 C 0.46881 0.54582 0.56326 0.0
C3569 C 0.55493 0.52953 0.55773 0.0
C3570 C 0.53876 0.54038 0.54969 0.0
C3571 C 0.5105 0.5443 0.55203 0.0
C3572 C 0.55039 0.54741 0.53898 0.0
C3573 C 0.58486 0.52263 0.55619 0.0
C3574 C 0.57503 0.56262 0.53736 0.0
C3575 C 0.5854 0.5689 0.52756 0.0
C3576 C 0.57179 0.56055 0.51867 0.0
C3577 C 0.54701 0.54567 0.52027 0.0
C3578 C 0.53663 0.53946 0.53006 0.0
H3579 H 0.59196 0.50671 0.56154 0.0
H3580 H 0.58878 0.51511 0.54849 0.0
H3581 H 0.59741 0.54131 0.55748 0.0
H3582 H 0.58635 0.57028 0.54372 0.0
H3583 H 0.60424 0.58061 0.52697 0.0
H3584 H 0.29434 0.20726 0.41384 0.0
H3585 H 0.32086 0.18046 0.42581 0.0
H3586 H 0.31472 0.11009 0.40654 0.0
H3587 H 0.28941 0.13779 0.39421 0.0
H3588 H 0.32121 0.14692 0.43853 0.0
H3589 H 0.3856 0.08467 0.41335 0.0
H3590 H 0.36555 0.11296 0.4087 0.0
H3591 H 0.34977 0.07988 0.41084 0.0
C3592 C 0.29897 0.18619 0.41188 0.0
C3593 C 0.28938 0.17593 0.4025 0.0
C3594 C 0.31444 0.17022 0.41903 0.0
C3595 C 0.32165 0.14206 0.41765 0.0
C3596 C 0.31166 0.13152 0.40826 0.0
H3597 H 0.40124 1.01178 0.45917 0.0
H3598 H 0.37644 1.03695 0.44598 0.0
C3599 C 0.29646 0.14779 0.40096 0.0
C3600 C 0.33828 0.12476 0.42604 0.0
H3601 H 0.38567 0.07166 0.4303 0.0
C3602 C 0.33543 0.13077 0.43646 0.0
C3603 C 0.35762 0.10274 0.42421 0.0
C3604 C 0.36512 0.09478 0.41369 0.0
C3605 C 0.3498 0.11647 0.44447 0.0
C3606 C 0.36886 0.09442 0.44262 0.0
C3607 C 0.3716 0.08808 0.43225 0.0
C3608 C 0.38556 0.07808 0.45115 0.0
C3609 C 0.34348 0.12493 0.45505 0.0
C3610 C 0.4007 0.09115 0.45899 0.0
C3611 C 0.41569 0.07632 0.46667 0.0
C3612 C 0.41662 0.04706 0.46727 0.0
C3613 C 0.40162 1.03398 0.45941 0.0
C3614 C 0.38706 0.04879 0.45163 0.0
H3615 H 0.32325 0.13544 0.45561 0.0
H3616 H 0.34338 0.10695 0.46013 0.0
H3617 H 0.35948 0.13951 0.45764 0.0
H3618 H 0.40148 0.11333 0.45917 0.0
H3619 H 0.42665 0.08812 0.47224 0.0
H3620 H 0.23816 0.18374 0.72475 0.0
H3621 H 0.21378 0.15724 0.71182 0.0
H3622 H 0.29043 0.14437 0.69646 0.0
H3623 H 0.31468 0.16917 0.70967 0.0
H3624 H 0.19608 0.154 0.69486 0.0
H3625 H 0.27195 0.07149 0.68974 0.0
H3626 H 0.27525 0.09594 0.69972 0.0
H3627 H 0.28738 0.10412 0.6873 0.0
C3628 C 0.25018 0.175 0.71872 0.0
C3629 C 0.27927 0.1791 0.71878 0.0
C3630 C 0.23583 0.15946 0.71106 0.0
C3631 C 0.24919 0.14674 0.7027 0.0
C3632 C 0.27826 0.15169 0.70267 0.0
H3633 H 0.18681 0.0555 0.64564 0.0
H3634 H 0.21357 0.08253 0.658 0.0
C3635 C 0.29263 0.16676 0.7104 0.0
C3636 C 0.23297 0.12956 0.69419 0.0
H3637 H 0.23726 0.07434 0.67741 0.0
C3638 C 0.20558 0.13651 0.69123 0.0
C3639 C 0.24353 0.10589 0.68888 0.0
C3640 C 0.27098 0.09369 0.69162 0.0
C3641 C 0.18986 0.12206 0.6836 0.0
C3642 C 0.20062 0.09883 0.67821 0.0
C3643 C 0.22797 0.09186 0.6811 0.0
C3644 C 0.18373 0.08144 0.67005 0.0
C3645 C 0.16148 0.13262 0.68122 0.0
C3646 C 0.15722 0.07025 0.67201 0.0
C3647 C 0.14186 0.05425 0.66486 0.0
C3648 C 0.15115 0.04817 0.65496 0.0
C3649 C 0.17772 0.05934 0.65289 0.0
C3650 C 0.19348 0.07508 0.66019 0.0
H3651 H 0.15904 0.1545 0.6834 0.0
H3652 H 0.15686 0.13059 0.67313 0.0
H3653 H 0.1461 0.12048 0.68545 0.0
H3654 H 0.14824 0.07333 0.67932 0.0
H3655 H 0.12212 0.04632 0.66724 0.0
H3656 H 0.1466 0.05833 0.95661 0.0
H3657 H 0.17184 1.03242 0.94376 0.0
H3658 H 0.14812 0.95689 0.95795 0.0
H3659 H 0.12172 0.98282 0.9704 0.0
H3660 H 0.21174 1.00435 0.93949 0.0
H3661 H 0.1352 0.92369 0.93269 0.0
H3662 H 0.12745 0.95282 0.94046 0.0
H3663 H 0.14551 0.92349 0.94552 0.0
C3664 C 0.14637 1.03613 0.95703 0.0
C3665 C 0.13112 1.02344 0.96488 0.0
C3666 C 0.16128 1.02085 0.94949 0.0
C3667 C 0.16238 0.99152 0.94914 0.0
C3668 C 0.14765 0.97896 0.95719 0.0
H3669 H 0.21969 0.88527 0.89589 0.0
H3670 H 0.1941 0.91154 0.90859 0.0
C3671 C 0.1324 0.99422 0.96465 0.0
C3672 C 0.17904 0.97484 0.9407 0.0
H3673 H 0.17952 0.91552 0.92599 0.0
C3674 C 0.20419 0.98496 0.93663 0.0
C3675 C 0.17049 0.94926 0.93624 0.0
C3676 C 0.14308 0.93679 0.93885 0.0
C3677 C 0.22015 0.97119 0.92892 0.0
C3678 C 0.21238 0.94489 0.92485 0.0
C3679 C 0.18698 0.93499 0.9288 0.0
C3680 C 0.22929 0.928 0.91654 0.0
C3681 C 0.24489 0.98623 0.92493 0.0
C3682 C 0.25868 0.92663 0.91609 0.0
C3683 C 0.27366 0.91166 0.90849 0.0
C3684 C 0.26065 0.89608 0.90082 0.0
C3685 C 0.23135 0.8967 0.90138 0.0
C3686 C 0.21634 0.91206 0.90889 0.0
H3687 H 0.24282 1.00878 0.92598 0.0
H3688 H 0.26344 0.97958 0.92911 0.0
H3689 H 0.248 0.98216 0.91686 0.0
H3690 H 0.27063 0.93679 0.92179 0.0
H3691 H 0.29591 0.91197 0.90879 0.0
H3692 H 0.31012 0.8764 0.20991 0.0
H3693 H 0.33627 0.90333 0.19786 0.0
H3694 H 0.32559 0.97496 0.21625 0.0
H3695 H 0.3006 0.94724 0.22866 0.0
H3696 H 0.33597 0.93613 0.18477 0.0
H3697 H 0.39628 1.00211 0.20994 0.0
H3698 H 0.37685 0.97351 0.21466 0.0
H3699 H 0.36012 1.00591 0.21208 0.0
C3700 C 0.31362 0.89782 0.21165 0.0
C3701 C 0.30289 0.90846 0.22082 0.0
C3702 C 0.32889 0.91384 0.20446 0.0
C3703 C 0.33477 0.94238 0.2056 0.0
C3704 C 0.32357 0.95328 0.21475 0.0
H3705 H 0.41382 0.07238 0.16376 0.0
H3706 H 0.38868 0.0474 0.17693 0.0
C3707 C 0.30855 0.93701 0.22208 0.0
C3708 C 0.35136 0.95966 0.19719 0.0
H3709 H 0.3972 1.01398 0.19288 0.0
C3710 C 0.34946 0.95288 0.18681 0.0
C3711 C 0.36978 0.98243 0.199 0.0
C3712 C 0.37618 0.99133 0.20951 0.0
C3713 C 0.36388 0.96714 0.17881 0.0
C3714 C 0.38206 0.98991 0.18062 0.0
C3715 C 0.38383 0.997 0.19095 0.0
C3716 C 0.39888 1.00617 0.1721 0.0
C3717 C 0.35852 0.95783 0.16826 0.0
C3718 C 0.41472 0.993 0.16445 0.0
C3719 C 0.42981 1.0077 0.15678 0.0
C3720 C 0.43022 1.03693 0.15599 0.0
C3721 C 0.41457 0.05017 0.16366 0.0
C3722 C 0.39984 1.03546 0.17143 0.0
H3723 H 0.33858 0.94684 0.16762 0.0
H3724 H 0.35834 0.97545 0.163 0.0
H3725 H 0.37502 0.94342 0.16594 0.0
H3726 H 0.41599 0.97083 0.16443 0.0
H3727 H 0.44129 0.99581 0.15136 0.0
H3728 H 0.80289 0.91406 0.70797 0.0
H3729 H 0.77754 0.93858 0.69481 0.0
H3730 H 0.70119 0.9135 0.7082 0.0
H3731 H 0.72661 0.8878 0.72094 0.0
H3732 H 0.74923 0.97747 0.68994 0.0
H3733 H 0.66958 0.90015 0.68278 0.0
H3734 H 0.66847 0.9108 0.69557 0.0
H3735 H 0.69833 0.8929 0.6908 0.0
C3736 C 0.78064 0.91336 0.70815 0.0
C3737 C 0.7676 0.89793 0.71588 0.0
C3738 C 0.76566 0.92786 0.70042 0.0
C3739 C 0.73628 0.92837 0.69973 0.0
C3740 C 0.72335 0.91348 0.70767 0.0
H3741 H 0.63204 0.98303 0.64545 0.0
H3742 H 0.65772 0.95811 0.65846 0.0
C3743 C 0.73833 0.89864 0.71531 0.0
C3744 C 0.71993 0.94458 0.69107 0.0
H3745 H 0.66145 0.94405 0.67586 0.0
C3746 C 0.73007 0.96964 0.68696 0.0
C3747 C 0.69467 0.9357 0.68642 0.0
C3748 C 0.68224 0.9083 0.68902 0.0
C3749 C 0.71665 0.98518 0.67906 0.0
C3750 C 0.69061 0.97709 0.67481 0.0
C3751 C 0.6807 0.95178 0.67879 0.0
C3752 C 0.67405 0.99357 0.66627 0.0
C3753 C 0.73182 1.00983 0.67509 0.0
C3754 C 0.67275 1.02289 0.66559 0.0
C3755 C 0.65815 0.03747 0.65781 0.0
C3756 C 0.64279 1.02416 0.65013 0.0
C3757 C 0.64329 0.99494 0.65091 0.0
C3758 C 0.65832 0.98031 0.65861 0.0
H3759 H 0.75434 1.00796 0.67634 0.0
H3760 H 0.72827 1.01259 0.66697 0.0
H3761 H 0.72475 1.02845 0.67913 0.0
H3762 H 0.68269 1.03514 0.67126 0.0
H3763 H 0.65855 0.05969 0.65796 0.0
H3764 H 0.957 1.03193 0.45507 0.0
H3765 H 0.9303 1.00542 0.44309 0.0
H3766 H 0.86292 1.00273 0.46389 0.0
H3767 H 0.89055 1.02846 0.47618 0.0
H3768 H 0.89327 1.00516 0.43126 0.0
H3769 H 0.84709 0.9289 0.45649 0.0
H3770 H 0.83796 0.96317 0.46004 0.0
H3771 H 0.87338 0.95207 0.46075 0.0
C3772 C 0.93663 1.02547 0.45734 0.0
C3773 C 0.9271 1.03274 0.46709 0.0
C3774 C 0.92077 1.00998 0.45021 0.0
C3775 C 0.89363 1.00028 0.45208 0.0
C3776 C 0.88372 1.00799 0.46182 0.0
H3777 H 0.80792 0.86693 0.41538 0.0
H3778 H 0.83278 0.89524 0.42736 0.0
C3779 C 0.89985 1.0234 0.46906 0.0
C3780 C 0.87659 0.98323 0.44383 0.0
H3781 H 0.82977 0.92984 0.44008 0.0
C3782 C 0.87959 0.98864 0.43339 0.0
C3783 C 0.85818 0.96073 0.44584 0.0
C3784 C 0.85409 0.9506 0.45636 0.0
C3785 C 0.8658 0.97347 0.42548 0.0
C3786 C 0.84664 0.95161 0.42751 0.0
C3787 C 0.8437 0.94615 0.43794 0.0
C3788 C 0.8307 0.9336 0.41924 0.0
C3789 C 0.8732 0.98074 0.41489 0.0
C3790 C 0.81971 0.94379 0.40998 0.0
C3791 C 0.80534 0.92677 0.40272 0.0
C3792 C 0.80041 0.89821 0.40421 0.0
C3793 C 0.81097 0.88832 0.41349 0.0
C3794 C 0.82545 0.90509 0.42063 0.0
H3795 H 0.8936 0.99094 0.41445 0.0
H3796 H 0.87374 0.96223 0.41005 0.0
H3797 H 0.8577 0.99532 0.41191 0.0
H3798 H 0.82147 0.9654 0.40833 0.0
H3799 H 0.79745 0.93636 0.39602 0.0
H3800 H 0.94865 0.05104 0.16256 0.0
H3801 H 0.92208 0.07677 0.17494 0.0
H3802 H 0.85067 0.07139 0.15618 0.0
H3803 H 0.87762 0.04547 0.14361 0.0
H3804 H 0.89747 0.12408 0.17773 0.0
H3805 H 0.80984 0.05301 0.18093 0.0
H3806 H 0.84055 0.04395 0.17411 0.0
H3807 H 0.8149 0.06567 0.16848 0.0
C3808 C 0.92728 0.05523 0.16085 0.0
C3809 C 0.91633 0.04545 0.15159 0.0
C3810 C 0.91163 0.07039 0.16819 0.0
C3811 C 0.88318 0.07675 0.16714 0.0
C3812 C 0.87201 0.0671 0.15783 0.0
H3813 H 0.75438 0.16007 0.20828 0.0
H3814 H 0.77948 0.1355 0.19504 0.0
C3815 C 0.88792 0.05214 0.15035 0.0
C3816 C 0.86636 0.09337 0.17559 0.0
H3817 H 0.80598 0.09471 0.18981 0.0
C3818 C 0.87747 0.11721 0.18028 0.0
C3819 C 0.8397 0.08602 0.17943 0.0
C3820 C 0.82553 0.06066 0.17558 0.0
C3821 C 0.86351 0.13325 0.18796 0.0
C3822 C 0.83702 0.12564 0.19199 0.0
C3823 C 0.82589 0.10175 0.18725 0.0
C3824 C 0.82073 0.14184 0.20074 0.0
C3825 C 0.87741 0.15931 0.19129 0.0
C3826 C 0.83365 0.15463 0.20918 0.0
C3827 C 0.81884 0.16951 0.2169 0.0
C3828 C 0.78964 0.17243 0.21706 0.0
C3829 C 0.77657 0.15909 0.20881 0.0
C3830 C 0.79141 0.14452 0.20102 0.0
H3831 H 0.89142 0.16738 0.18543 0.0
H3832 H 0.86219 0.17556 0.19311 0.0
H3833 H 0.8901 0.15497 0.19799 0.0
H3834 H 0.85566 0.15286 0.21004 0.0
H3835 H 0.83061 0.17861 0.2229 0.0
H3836 H 0.64596 0.10055 0.97639 0.0
H3837 H 0.67117 0.12607 0.96335 0.0
H3838 H 0.7018 0.05004 0.95148 0.0
H3839 H 0.67706 1.02466 0.96459 0.0
H3840 H 0.72465 0.13594 0.95731 0.0
H3841 H 0.68059 0.0817 0.92495 0.0
H3842 H 0.66669 0.07771 0.93737 0.0
H3843 H 0.69717 0.05926 0.93371 0.0
C3844 C 0.65799 0.0889 0.97106 0.0
C3845 C 0.65861 0.05967 0.97199 0.0
C3846 C 0.67284 0.10391 0.96338 0.0
C3847 C 0.68904 0.09103 0.95578 0.0
C3848 C 0.68963 0.06177 0.95673 0.0
H3849 H 0.7865 0.15243 0.89999 0.0
H3850 H 0.76186 0.12498 0.91277 0.0
C3851 C 0.67523 0.04681 0.96452 0.0
C3852 C 0.70519 0.1078 0.94721 0.0
H3853 H 0.71704 0.11238 0.92146 0.0
C3854 C 0.72254 0.13052 0.9495 0.0
C3855 C 0.70406 0.10192 0.93667 0.0
C3856 C 0.68599 0.07901 0.93295 0.0
C3857 C 0.73825 0.14604 0.94215 0.0
C3858 C 0.73657 0.14073 0.93154 0.0
C3859 C 0.71925 0.11785 0.92926 0.0
C3860 C 0.75211 0.15829 0.92297 0.0
C3861 C 0.75787 0.16731 0.94615 0.0
C3862 C 0.75557 0.18736 0.92346 0.0
C3863 C 0.77015 0.20324 0.91607 0.0
C3864 C 0.78208 0.19201 0.9072 0.0
C3865 C 0.77799 0.16302 0.9064 0.0
C3866 C 0.76355 0.14689 0.91396 0.0
H3867 H 0.76478 0.16212 0.95383 0.0
H3868 H 0.7764 0.16927 0.94135 0.0
H3869 H 0.74723 0.18744 0.94656 0.0
H3870 H 0.74664 0.19848 0.92965 0.0
H3871 H 0.77202 0.22509 0.91738 0.0
H3872 H 0.79809 0.6463 0.89098 0.0
H3873 H 0.82458 0.61889 0.9033 0.0
H3874 H 0.79177 0.66824 0.92708 0.0
H3875 H 0.76562 0.69517 0.91499 0.0
H3876 H 0.86631 0.6259 0.91718 0.0
H3877 H 0.77809 0.59696 0.94055 0.0
H3878 H 0.77344 0.61452 0.92883 0.0
H3879 H 0.78198 0.63347 0.93999 0.0
C3880 C 0.79615 0.6514 0.89882 0.0
C3881 C 0.77873 0.67374 0.9016 0.0
C3882 C 0.81173 0.63541 0.90606 0.0
C3883 C 0.81067 0.64012 0.91663 0.0
C3884 C 0.79334 0.66251 0.9193 0.0
H3885 H 0.88459 0.56267 0.974 0.0
H3886 H 0.85767 0.5893 0.9616 0.0
C3887 C 0.77815 0.67852 0.91213 0.0
C3888 C 0.82752 0.6227 0.92474 0.0
H3889 H 0.82233 0.58854 0.94763 0.0
C3890 C 0.85624 0.61767 0.92375 0.0
C3891 C 0.81599 0.61143 0.93377 0.0
C3892 C 0.78565 0.61411 0.93583 0.0
C3893 C 0.87287 0.60335 0.93112 0.0
C3894 C 0.86128 0.59157 0.94009 0.0
C3895 C 0.8325 0.59666 0.94106 0.0
C3896 C 0.8782 0.57424 0.94826 0.0
C3897 C 0.90344 0.60251 0.92929 0.0
C3898 C 0.89925 0.55515 0.94566 0.0
C3899 C 0.91511 0.54004 0.95288 0.0
C3900 C 0.91107 0.54181 0.96342 0.0
C3901 C 0.8893 0.56001 0.96615 0.0
C3902 C 0.87352 0.57562 0.95885 0.0
H3903 H 0.91023 0.62015 0.92465 0.0
H3904 H 0.9152 0.60296 0.93639 0.0
H3905 H 0.90867 0.5835 0.92513 0.0
H3906 H 0.90356 0.5513 0.93787 0.0
H3907 H 0.93085 0.52632 0.95006 0.0
H3908 H 0.68989 0.52947 0.15444 0.0
H3909 H 0.71545 0.55452 0.1675 0.0
H3910 H 0.65568 0.61942 0.16641 0.0
H3911 H 0.63044 0.59461 0.15327 0.0
H3912 H 0.74416 0.60321 0.16997 0.0
H3913 H 0.65773 0.61395 0.19629 0.0
H3914 H 0.65586 0.59162 0.18556 0.0
H3915 H 0.65052 0.628 0.18419 0.0
C3916 C 0.68192 0.54913 0.15687 0.0
C3917 C 0.6573 0.55923 0.15233 0.0
C3918 C 0.69694 0.56386 0.16456 0.0
C3919 C 0.68831 0.58968 0.16859 0.0
C3920 C 0.66366 0.59973 0.16404 0.0
H3921 H 0.74593 0.70554 0.2192 0.0
H3922 H 0.72128 0.68065 0.20593 0.0
C3923 C 0.64891 0.58523 0.15623 0.0
C3924 C 0.70485 0.60575 0.17721 0.0
H3925 H 0.69809 0.63857 0.20032 0.0
C3926 C 0.7337 0.61068 0.17658 0.0
C3927 C 0.69274 0.61661 0.1862 0.0
C3928 C 0.66259 0.61215 0.18821 0.0
C3929 C 0.74961 0.62583 0.18399 0.0
C3930 C 0.73763 0.63637 0.19311 0.0
C3931 C 0.7087 0.63129 0.19371 0.0
C3932 C 0.75404 0.65257 0.20181 0.0
C3933 C 0.77931 0.63141 0.18151 0.0
C3934 C 0.78167 0.64652 0.20485 0.0
C3935 C 0.79631 0.6615 0.21256 0.0
C3936 C 0.78451 0.68349 0.21816 0.0
C3937 C 0.75672 0.68918 0.21536 0.0
C3938 C 0.74218 0.67442 0.20755 0.0
H3939 H 0.78291 0.63111 0.17332 0.0
H3940 H 0.78602 0.65166 0.18441 0.0
H3941 H 0.79233 0.61508 0.18483 0.0
H3942 H 0.79236 0.62957 0.20138 0.0
H3943 H 0.81726 0.65544 0.2142 0.0
H3944 H 0.78609 0.37298 0.41718 0.0
H3945 H 0.76041 0.40092 0.42915 0.0
H3946 H 0.72725 0.44851 0.40498 0.0
H3947 H 0.75323 0.42016 0.39286 0.0
H3948 H 0.75712 0.44894 0.43695 0.0
H3949 H 0.65592 0.44396 0.41859 0.0
H3950 H 0.68447 0.42328 0.41441 0.0
H3951 H 0.68186 0.45877 0.41075 0.0
C3952 C 0.77328 0.38925 0.41421 0.0
C3953 C 0.77244 0.3931 0.40362 0.0
C3954 C 0.75821 0.40577 0.42131 0.0
C3955 C 0.74028 0.42759 0.41852 0.0
C3956 C 0.73961 0.43188 0.40789 0.0
H3957 H 0.62354 0.54368 0.45226 0.0
H3958 H 0.65079 0.51732 0.44032 0.0
C3959 C 0.75512 0.4154 0.40073 0.0
C3960 C 0.72338 0.44521 0.42667 0.0
H3961 H 0.65922 0.47348 0.43248 0.0
C3962 C 0.73565 0.45404 0.43582 0.0
C3963 C 0.69488 0.45299 0.42588 0.0
C3964 C 0.67833 0.4441 0.41695 0.0
C3965 C 0.72161 0.46997 0.44352 0.0
C3966 C 0.69297 0.47759 0.44278 0.0
C3967 C 0.68073 0.46863 0.43363 0.0
C3968 C 0.67575 0.49499 0.45097 0.0
C3969 C 0.73862 0.47942 0.45226 0.0
C3970 C 0.67875 0.49299 0.46165 0.0
C3971 C 0.66278 0.50907 0.46879 0.0
C3972 C 0.64202 0.52815 0.46586 0.0
C3973 C 0.63884 0.52977 0.45525 0.0
C3974 C 0.65486 0.51408 0.44818 0.0
H3975 H 0.76086 0.48012 0.45037 0.0
H3976 H 0.73224 0.50015 0.45481 0.0
H3977 H 0.73608 0.46468 0.45851 0.0
H3978 H 0.69322 0.47836 0.46467 0.0
H3979 H 0.66651 0.50604 0.47668 0.0
H3980 H 0.79515 0.44441 0.72529 0.0
H3981 H 0.81991 0.47153 0.71244 0.0
H3982 H 0.83726 0.39731 0.69625 0.0
H3983 H 0.81189 0.37097 0.7086 0.0
H3984 H 0.86555 0.48384 0.70389 0.0
H3985 H 0.81808 0.43251 0.67183 0.0
H3986 H 0.80653 0.42582 0.68434 0.0
H3987 H 0.83573 0.40754 0.67922 0.0
C3988 C 0.80421 0.4336 0.71903 0.0
C3989 C 0.80073 0.4045 0.71844 0.0
C3990 C 0.81869 0.44952 0.71143 0.0
C3991 C 0.83072 0.43774 0.70259 0.0
C3992 C 0.82787 0.40861 0.70231 0.0
H3993 H 0.93503 0.49197 0.64845 0.0
H3994 H 0.90978 0.46752 0.66173 0.0
C3995 C 0.81329 0.39293 0.70975 0.0
C3996 C 0.84622 0.45498 0.69396 0.0
H3997 H 0.8583 0.45847 0.6682 0.0
C3998 C 0.86345 0.47799 0.69612 0.0
C3999 C 0.84461 0.44914 0.6834 0.0
C4000 C 0.82503 0.42765 0.67953 0.0
C4001 C 0.87871 0.49356 0.68864 0.0
C4002 C 0.8777 0.4871 0.67814 0.0
C4003 C 0.86036 0.46428 0.67597 0.0
C4004 C 0.89396 0.50327 0.66947 0.0
C4005 C 0.89672 0.51666 0.69227 0.0
C4006 C 0.89451 0.53253 0.66852 0.0
C4007 C 0.90901 0.54687 0.66062 0.0
C4008 C 0.92448 0.53331 0.65299 0.0
C4009 C 0.92391 0.5041 0.65389 0.0
C4010 C 0.90904 0.48972 0.66171 0.0
H4011 H 0.90236 0.51405 0.70025 0.0
H4012 H 0.9159 0.51813 0.6878 0.0
H4013 H 0.88533 0.53632 0.69157 0.0
H4014 H 0.88318 0.54477 0.67386 0.0
H4015 H 0.90815 0.56908 0.66057 0.0
H4016 H 0.27187 0.43783 0.22196 0.0
H4017 H 0.24547 0.46499 0.20954 0.0
H4018 H 0.23316 0.39224 0.19199 0.0
H4019 H 0.25938 0.36556 0.20415 0.0
H4020 H 0.24934 0.47989 0.18912 0.0
H4021 H 0.15499 0.41774 0.19069 0.0
H4022 H 0.18201 0.414 0.19982 0.0
H4023 H 0.18488 0.39762 0.1878 0.0
C4024 C 0.2633 0.42724 0.21557 0.0
C4025 C 0.26819 0.39843 0.21458 0.0
C4026 C 0.24796 0.4432 0.20822 0.0
C4027 C 0.23582 0.43159 0.19941 0.0
C4028 C 0.24083 0.40288 0.19851 0.0
H4029 H 0.12522 0.48536 0.14699 0.0
H4030 H 0.15195 0.46129 0.1599 0.0
C4031 C 0.2564 0.38718 0.20569 0.0
C4032 C 0.21874 0.44871 0.19122 0.0
H4033 H 0.15783 0.44951 0.17737 0.0
C4034 C 0.22923 0.47302 0.18669 0.0
C4035 C 0.19212 0.441 0.18745 0.0
C4036 C 0.17762 0.41634 0.19173 0.0
C4037 C 0.21529 0.48833 0.17882 0.0
C4038 C 0.18839 0.48085 0.1751 0.0
C4039 C 0.17792 0.45655 0.17972 0.0
C4040 C 0.17128 0.49698 0.16657 0.0
C4041 C 0.23085 0.5119 0.17424 0.0
C4042 C 0.17122 0.52622 0.16525 0.0
C4043 C 0.1559 0.54032 0.1575 0.0
C4044 C 0.13859 0.52662 0.15049 0.0
C4045 C 0.13797 0.49757 0.15191 0.0
C4046 C 0.15364 0.48342 0.15957 0.0
H4047 H 0.25342 0.5094 0.17519 0.0
H4048 H 0.22649 0.51379 0.16614 0.0
H4049 H 0.22486 0.53123 0.17805 0.0
H4050 H 0.18269 0.53884 0.1704 0.0
H4051 H 0.15731 0.56248 0.15715 0.0
H4052 H 0.44233 0.49631 0.97377 0.0
H4053 H 0.41583 0.47129 0.96095 0.0
H4054 H 0.39767 0.54755 0.94628 0.0
H4055 H 0.42386 0.57247 0.95913 0.0
H4056 H 0.36395 0.46558 0.95404 0.0
H4057 H 0.41607 0.50882 0.92111 0.0
H4058 H 0.42903 0.51419 0.93357 0.0
H4059 H 0.40093 0.53464 0.92893 0.0
C4060 C 0.43287 0.50811 0.96785 0.0
C4061 C 0.43622 0.53727 0.96791 0.0
C4062 C 0.41724 0.49339 0.9603 0.0
C4063 C 0.40408 0.50639 0.95198 0.0
C4064 C 0.4074 0.53559 0.9521 0.0
H4065 H 0.30392 0.44491 0.89672 0.0
H4066 H 0.33029 0.47227 0.90908 0.0
C4067 C 0.42264 0.55034 0.95973 0.0
C4068 C 0.38695 0.48984 0.94359 0.0
H4069 H 0.37656 0.48187 0.91785 0.0
C4070 C 0.3672 0.46939 0.94616 0.0
C4071 C 0.38946 0.49365 0.93295 0.0
C4072 C 0.41015 0.51379 0.92891 0.0
C4073 C 0.3506 0.45419 0.93897 0.0
C4074 C 0.35356 0.45744 0.92829 0.0
C4075 C 0.37324 0.47805 0.92573 0.0
C4076 C 0.33701 0.43991 0.91996 0.0
C4077 C 0.32875 0.43556 0.94318 0.0
C4078 C 0.33123 0.41135 0.921 0.0
C4079 C 0.31574 0.39553 0.91383 0.0
C4080 C 0.30498 0.40626 0.90469 0.0
C4081 C 0.31136 0.43469 0.90336 0.0
C4082 C 0.32681 0.45078 0.91068 0.0
H4083 H 0.32182 0.44267 0.95066 0.0
H4084 H 0.31048 0.43451 0.93824 0.0
H4085 H 0.33741 0.41464 0.94413 0.0
H4086 H 0.339 0.40056 0.92745 0.0
H4087 H 0.31215 0.37413 0.91556 0.0
H4088 H 0.41951 0.58708 0.64584 0.0
H4089 H 0.39349 0.61187 0.65889 0.0
H4090 H 0.3751 0.53524 0.67325 0.0
H4091 H 0.40063 0.51055 0.66015 0.0
H4092 H 0.34038 0.61609 0.66597 0.0
H4093 H 0.39648 0.57439 0.69834 0.0
H4094 H 0.40865 0.56957 0.68572 0.0
H4095 H 0.38151 0.54832 0.69058 0.0
C4096 C 0.41005 0.57517 0.65173 0.0
C4097 C 0.41305 0.546 0.65152 0.0
C4098 C 0.39474 0.58973 0.65941 0.0
C4099 C 0.38171 0.57647 0.66768 0.0
C4100 C 0.38474 0.54728 0.66744 0.0
H4101 H 0.28612 0.6362 0.72408 0.0
H4102 H 0.31186 0.60932 0.71139 0.0
C4103 C 0.39959 0.53271 0.65968 0.0
C4104 C 0.36497 0.59272 0.67621 0.0
H4105 H 0.35684 0.6008 0.70202 0.0
C4106 C 0.34445 0.61255 0.67382 0.0
C4107 C 0.3686 0.58908 0.6868 0.0
C4108 C 0.39013 0.5694 0.69058 0.0
C4109 C 0.32806 0.62736 0.68117 0.0
C4110 C 0.33218 0.62438 0.6918 0.0
C4111 C 0.35268 0.60438 0.69418 0.0
C4112 C 0.31597 0.64154 0.70029 0.0
C4113 C 0.30518 0.64518 0.6772 0.0
C4114 C 0.30902 0.66982 0.6992 0.0
C4115 C 0.2938 0.68528 0.70654 0.0
C4116 C 0.28467 0.67448 0.71588 0.0
C4117 C 0.29227 0.64639 0.71726 0.0
C4118 C 0.30736 0.63061 0.70976 0.0
H4119 H 0.29774 0.63763 0.66985 0.0
H4120 H 0.2874 0.64579 0.68239 0.0
H4121 H 0.313 0.66633 0.67605 0.0
H4122 H 0.31562 0.68066 0.69259 0.0
H4123 H 0.28916 0.70647 0.70477 0.0
H4124 H 0.11336 0.56227 0.45777 0.0
H4125 H 0.14181 0.58744 0.44582 0.0
H4126 H 0.21342 0.57006 0.4635 0.0
H4127 H 0.18455 0.54479 0.47566 0.0
H4128 H 0.17229 0.63267 0.44459 0.0
H4129 H 0.24811 0.55082 0.43728 0.0
H4130 H 0.21691 0.54449 0.44421 0.0
H4131 H 0.24587 0.56054 0.45019 0.0
C4132 C 0.13515 0.5638 0.45934 0.0
C4133 C 0.14561 0.55102 0.46816 0.0
C4134 C 0.15187 0.57855 0.45226 0.0
C4135 C 0.18088 0.58132 0.45317 0.0
C4136 C 0.1916 0.56864 0.46204 0.0
H4137 H 0.31477 0.65673 0.41259 0.0
H4138 H 0.28822 0.63236 0.42551 0.0
C4139 C 0.17463 0.55413 0.46927 0.0
C4140 C 0.19883 0.59743 0.44501 0.0
H4141 H 0.25678 0.59361 0.42963 0.0
C4142 C 0.19072 0.62371 0.44139 0.0
C4143 C 0.22353 0.58723 0.4404 0.0
C4144 C 0.23413 0.55915 0.44311 0.0
C4145 C 0.20586 0.63945 0.43399 0.0
C4146 C 0.23035 0.62909 0.42919 0.0
C4147 C 0.23849 0.60274 0.43285 0.0
C4148 C 0.24755 0.64491 0.42068 0.0
C4149 C 0.19559 0.66801 0.4318 0.0
C4150 C 0.23532 0.66088 0.41287 0.0
C4151 C 0.25096 0.67549 0.40537 0.0
C4152 C 0.28024 0.67495 0.40482 0.0
C4153 C 0.29256 0.65843 0.41241 0.0
C4154 C 0.27691 0.64405 0.42 0.0
H4155 H 0.1838 0.67653 0.4382 0.0
H4156 H 0.21279 0.68224 0.43013 0.0
H4157 H 0.18146 0.66728 0.4253 0.0
H4158 H 0.21318 0.66193 0.41237 0.0
H4159 H 0.23976 0.68724 0.39984 0.0
H4160 H 0.22019 0.19342 0.32009 0.0
H4161 H 0.21804 0.19168 0.30178 0.0
H4162 H 0.20658 0.1039 0.30319 0.0
H4163 H 0.20816 0.10564 0.32133 0.0
H4164 H 0.25119 0.16796 0.28911 0.0
H4165 H 0.1498 0.1226 0.28299 0.0
H4166 H 0.15923 0.13741 0.29487 0.0
H4167 H 0.16665 0.10182 0.29214 0.0
C4168 C 0.21683 0.17384 0.31645 0.0
C4169 C 0.21416 0.14964 0.32212 0.0
C4170 C 0.2155 0.1729 0.30602 0.0
C4171 C 0.21145 0.14778 0.3011 0.0
C4172 C 0.20863 0.1237 0.30679 0.0
H4173 H 0.28732 0.05712 0.26311 0.0
H4174 H 0.27648 0.10043 0.27093 0.0
C4175 C 0.2097 0.12466 0.31718 0.0
C4176 C 0.21295 0.14561 0.29007 0.0
H4177 H 0.18677 0.10546 0.27169 0.0
C4178 C 0.23669 0.15501 0.28516 0.0
C4179 C 0.19341 0.13021 0.28464 0.0
C4180 C 0.1657 0.12281 0.28894 0.0
C4181 C 0.24327 0.14576 0.27551 0.0
C4182 C 0.22637 0.12571 0.27093 0.0
C4183 C 0.20055 0.11999 0.27522 0.0
C4184 C 0.23723 0.10586 0.26342 0.0
C4185 C 0.26896 0.15656 0.27058 0.0
C4186 C 0.21975 0.09466 0.25611 0.0
C4187 C 0.22535 0.06882 0.25202 0.0
C4188 C 0.24887 0.05411 0.25501 0.0
C4189 C 0.26855 0.0675 0.26094 0.0
C4190 C 0.26255 0.09283 0.26527 0.0
H4191 H 0.27025 0.17916 0.27159 0.0
H4192 H 0.28733 0.14755 0.27426 0.0
H4193 H 0.26955 0.15184 0.26247 0.0
H4194 H 0.20029 0.10443 0.25439 0.0
H4195 H 0.2098 0.05931 0.24738 0.0
H4196 H 0.21138 0.9034 0.5873 0.0
H4197 H 0.24175 0.88317 0.57498 0.0
H4198 H 0.30018 0.863 0.59811 0.0
H4199 H 0.26979 0.88406 0.61055 0.0
H4200 H 0.3229 0.89461 0.5854 0.0
H4201 H 0.27205 0.81541 0.56307 0.0
H4202 H 0.24823 0.84323 0.56423 0.0
H4203 H 0.25934 0.825 0.57527 0.0
C4204 C 0.23011 0.89358 0.58985 0.0
C4205 C 0.2384 0.89563 0.59986 0.0
C4206 C 0.24747 0.88173 0.58277 0.0
C4207 C 0.27328 0.8713 0.58559 0.0
C4208 C 0.28036 0.87085 0.59576 0.0
H4209 H 0.37323 0.87449 0.53042 0.0
H4210 H 0.35755 0.85338 0.54612 0.0
C4211 C 0.26308 0.88301 0.60284 0.0
C4212 C 0.29463 0.86752 0.57779 0.0
H4213 H 0.29993 0.84969 0.55323 0.0
C4214 C 0.3184 0.88381 0.57851 0.0
C4215 C 0.28937 0.85308 0.56882 0.0
C4216 C 0.26596 0.83297 0.56788 0.0
C4217 C 0.33474 0.88899 0.57012 0.0
C4218 C 0.32688 0.87793 0.56081 0.0
C4219 C 0.30545 0.85873 0.56036 0.0
C4220 C 0.33711 0.89003 0.55143 0.0
C4221 C 0.35899 0.9081 0.57111 0.0
C4222 C 0.33039 0.91738 0.54925 0.0
C4223 C 0.33908 0.92935 0.54036 0.0
C4224 C 0.35468 0.91415 0.53348 0.0
C4225 C 0.36142 0.88669 0.53566 0.0
C4226 C 0.35246 0.87461 0.54457 0.0
H4227 H 0.36762 0.90753 0.57879 0.0
H4228 H 0.37547 0.90273 0.56569 0.0
H4229 H 0.35216 0.92944 0.56958 0.0
H4230 H 0.3182 0.92946 0.55442 0.0
H4231 H 0.33381 0.95058 0.5389 0.0
H4232 H 0.45469 0.10532 0.77355 0.0
H4233 H 0.47776 0.07715 0.78633 0.0
H4234 H 0.39967 0.0638 0.80084 0.0
H4235 H 0.37668 0.09167 0.7882 0.0
H4236 H 0.4533 0.07915 0.81336 0.0
H4237 H 0.45734 0.98907 0.78777 0.0
H4238 H 0.4674 1.02307 0.7838 0.0
H4239 H 0.43168 1.01509 0.78548 0.0
C4240 C 0.44265 0.09671 0.77959 0.0
C4241 C 0.41393 0.10039 0.7799 0.0
C4242 C 0.4558 0.08068 0.78683 0.0
C4243 C 0.44031 0.06854 0.79446 0.0
C4244 C 0.41187 0.07316 0.79498 0.0
H4245 H 0.37365 0.96867 0.82921 0.0
H4246 H 0.39913 0.99317 0.81629 0.0
C4247 C 0.39877 0.08888 0.78775 0.0
C4248 C 0.45246 0.04911 0.8016 0.0
H4249 H 0.45152 0.97995 0.80507 0.0
C4250 C 0.45443 0.05744 0.81159 0.0
C4251 C 0.45404 1.02096 0.79916 0.0
C4252 C 0.45266 1.01132 0.78847 0.0
C4253 C 0.45394 0.03808 0.81931 0.0
C4254 C 0.45135 1.00996 0.81687 0.0
C4255 C 0.45341 1.00158 0.80688 0.0
C4256 C 0.43826 0.99101 0.82398 0.0
C4257 C 0.45245 0.04793 0.82999 0.0
C4258 C 0.45209 0.98115 0.83243 0.0
C4259 C 0.43748 0.9671 0.83984 0.0
C4260 C 0.40894 0.9631 0.83887 0.0
C4261 C 0.39556 0.9718 0.83016 0.0
C4262 C 0.41013 0.98555 0.82277 0.0
H4263 H 0.45587 0.07041 0.83062 0.0
H4264 H 0.43194 0.04302 0.83317 0.0
H4265 H 0.46817 0.03719 0.83455 0.0
H4266 H 0.47379 0.98526 0.83346 0.0
H4267 H 0.44816 0.96058 0.84653 0.0
H4268 H 0.26631 0.11135 1.02148 0.0
H4269 H 0.30338 0.09645 1.03243 0.0
H4270 H 0.27455 1.01287 1.03053 0.0
H4271 H 0.23738 1.02763 1.01939 0.0
H4272 H 0.27961 1.03182 1.04961 0.0
H4273 H 0.3751 0.05414 1.02899 0.0
H4274 H 0.35187 0.08268 1.02832 0.0
H4275 H 0.34221 0.05028 1.02285 0.0
C4276 C 0.26819 0.0897 1.0232 0.0
C4277 C 0.24892 0.07067 1.01961 0.0
C4278 C 0.28953 0.08117 1.02939 0.0
C4279 C 0.29209 0.05345 1.03207 0.0
C4280 C 0.27312 1.03428 1.0284 0.0
H4281 H 0.37772 1.03108 0.08903 0.0
H4282 H 0.36267 1.01444 0.07262 0.0
C4283 C 0.25174 0.0428 1.02217 0.0
C4284 C 0.31194 0.04581 1.0399 0.0
H4285 H 0.37761 0.05935 1.04724 0.0
C4286 C 0.30129 1.03684 1.04905 0.0
C4287 C 0.34019 0.05216 1.03906 0.0
C4288 C 0.35303 0.06006 1.02922 0.0
C4289 C 0.31738 0.03734 1.05771 0.0
C4290 C 0.34496 0.04649 1.05706 0.0
C4291 C 0.35639 0.05258 1.0477 0.0
C4292 C 0.36004 0.05498 0.06609 0.0
C4293 C 0.30388 1.03078 0.06759 0.0
C4294 C 0.36508 0.08305 0.0676 0.0
C4295 C 0.37387 0.09252 0.07687 0.0
C4296 C 0.37754 0.07403 0.08478 0.0
C4297 C 0.37444 0.04573 0.08306 0.0
C4298 C 0.36596 1.03622 0.07373 0.0
H4299 H 0.28138 1.02734 0.06685 0.0
H4300 H 0.31316 1.01186 0.07074 0.0
H4301 H 0.30721 0.04774 0.073 0.0
H4302 H 0.36057 0.09784 0.06178 0.0
H4303 H 0.37619 0.11441 0.07803 0.0
H4304 H 0.88511 0.9295 0.79158 0.0
H4305 H 0.90584 0.94852 0.80669 0.0
H4306 H 0.91481 1.02689 0.79208 0.0
H4307 H 0.89576 1.00767 0.77676 0.0
H4308 H 0.9592 1.01431 0.80435 0.0
H4309 H 0.85908 0.99878 0.82384 0.0
H4310 H 0.87502 0.96834 0.81896 0.0
H4311 H 0.86275 0.99435 0.81055 0.0
C4312 C 0.89201 0.95062 0.7915 0.0
C4313 C 0.88832 0.96721 0.783 0.0
C4314 C 0.90366 0.9615 0.80017 0.0
C4315 C 0.91135 0.98922 0.80054 0.0
C4316 C 0.90887 1.00546 0.79195 0.0
H4317 H 0.92851 0.12526 0.83662 0.0
H4318 H 0.93782 0.08992 0.82415 0.0
C4319 C 0.89756 0.99455 0.78325 0.0
C4320 C 0.91953 1.00223 0.81005 0.0
H4321 H 0.89319 1.02246 0.83245 0.0
C4322 C 0.945 1.01576 0.81058 0.0
C4323 C 0.90095 1.00401 0.81815 0.0
C4324 C 0.87284 0.99081 0.81787 0.0
C4325 C 0.95187 1.03204 0.81887 0.0
C4326 C 0.93266 1.03492 0.82672 0.0
C4327 C 0.90797 1.02005 0.82643 0.0
C4328 C 0.93538 0.05604 0.83458 0.0
C4329 C 0.97924 0.04655 0.81902 0.0
C4330 C 0.93172 0.04881 0.84463 0.0
C4331 C 0.9258 0.06894 0.85173 0.0
C4332 C 0.92342 0.09663 0.84888 0.0
C4333 C 0.92976 0.10405 0.839 0.0
C4334 C 0.93553 0.08388 0.83189 0.0
H4335 H 0.9949 1.03501 0.81466 0.0
H4336 H 0.97691 0.06709 0.81554 0.0
H4337 H 0.98685 0.04936 0.82677 0.0
H4338 H 0.93133 1.02741 0.84683 0.0
H4339 H 0.92084 0.06245 0.85925 0.0
H4340 H 0.73813 0.1241 0.58023 0.0
H4341 H 0.75696 0.14863 0.5659 0.0
H4342 H 0.7052 0.21829 0.57248 0.0
H4343 H 0.68638 0.19388 0.58705 0.0
H4344 H 0.72151 0.17447 0.54928 0.0
H4345 H 0.79038 0.24515 0.57035 0.0
H4346 H 0.78013 0.21296 0.57588 0.0
H4347 H 0.75514 0.23958 0.57412 0.0
C4348 C 0.73084 0.14468 0.57868 0.0
C4349 C 0.71092 0.15714 0.58477 0.0
C4350 C 0.74148 0.15859 0.57048 0.0
C4351 C 0.73248 0.18522 0.56822 0.0
C4352 C 0.71239 0.19776 0.57418 0.0
H4353 H 0.81524 0.20876 0.51127 0.0
H4354 H 0.78207 0.22645 0.52351 0.0
C4355 C 0.70159 0.18375 0.58241 0.0
C4356 C 0.74468 0.19919 0.55954 0.0
H4357 H 0.8018 0.23609 0.55353 0.0
C4358 C 0.73847 0.18878 0.55006 0.0
C4359 C 0.76656 0.21792 0.5607 0.0
C4360 C 0.7736 0.22973 0.57079 0.0
C4361 C 0.75565 0.19397 0.54188 0.0
C4362 C 0.77935 0.2105 0.54326 0.0
C4363 C 0.78364 0.22349 0.5525 0.0
C4364 C 0.80276 0.20852 0.53624 0.0
C4365 C 0.74995 0.17914 0.53219 0.0
C4366 C 0.82655 0.19478 0.53946 0.0
C4367 C 0.84559 0.18503 0.53254 0.0
C4368 C 0.84105 0.18874 0.52228 0.0
C4369 C 0.81889 0.20521 0.51914 0.0
C4370 C 0.79995 0.21528 0.52611 0.0
H4371 H 0.73205 0.16507 0.53274 0.0
H4372 H 0.74552 0.19433 0.52623 0.0
H4373 H 0.76818 0.16693 0.52988 0.0
H4374 H 0.82918 0.18938 0.54725 0.0
H4375 H 0.8624 0.17237 0.53519 0.0
H4376 H 0.65605 0.95194 0.33223 0.0
H4377 H 0.63619 0.98369 0.32011 0.0
H4378 H 0.61345 0.03885 0.34394 0.0
H4379 H 0.63405 1.00755 0.35611 0.0
H4380 H 0.58498 1.01496 0.31691 0.0
H4381 H 0.67558 0.0782 0.32819 0.0
H4382 H 0.6722 0.04287 0.33197 0.0
H4383 H 0.65114 0.06883 0.33766 0.0
C4384 C 0.64631 0.97056 0.33491 0.0
C4385 C 0.64719 0.97761 0.34507 0.0
C4386 C 0.6347 0.98852 0.32799 0.0
C4387 C 0.6238 1.01374 0.33115 0.0
C4388 C 0.62201 1.01953 0.34138 0.0
H4389 H 0.64728 0.1428 0.28744 0.0
H4390 H 0.62674 0.12311 0.30244 0.0
C4391 C 0.63371 1.00158 0.34832 0.0
C4392 C 0.61955 1.03547 0.32364 0.0
H4393 H 0.65384 0.08936 0.31334 0.0
C4394 C 0.59953 1.03172 0.31623 0.0
C4395 C 0.63847 0.0574 0.32283 0.0
C4396 C 0.66069 0.06216 0.33053 0.0
C4397 C 0.59908 0.04835 0.30767 0.0
C4398 C 0.61964 0.06862 0.30644 0.0
C4399 C 0.63813 0.07378 0.31426 0.0
C4400 C 0.62552 0.08159 0.29667 0.0
C4401 C 0.57717 0.04341 0.29991 0.0
C4402 C 0.63105 0.06495 0.28834 0.0
C4403 C 0.64238 0.07621 0.27971 0.0
C4404 C 0.64901 0.10427 0.27929 0.0
C4405 C 0.64226 0.12115 0.28746 0.0
C4406 C 0.63055 0.10992 0.29606 0.0
H4407 H 0.55762 1.03689 0.30349 0.0
H4408 H 0.57321 0.06203 0.29536 0.0
H4409 H 0.58386 1.02653 0.29489 0.0
H4410 H 0.62812 0.04294 0.2887 0.0
H4411 H 0.64677 0.06271 0.27347 0.0
H4412 H 0.86179 0.89424 0.08193 0.0
H4413 H 0.82981 0.87101 0.07078 0.0
H4414 H 0.78423 0.84086 0.09615 0.0
H4415 H 0.81581 0.86495 0.10739 0.0
H4416 H 0.80151 0.81969 0.06717 0.0
H4417 H 0.73471 0.90069 0.08421 0.0
H4418 H 0.77104 0.89977 0.08678 0.0
H4419 H 0.74869 0.8742 0.09203 0.0
C4420 C 0.84541 0.88201 0.08514 0.0
C4421 C 0.84068 0.8821 0.09548 0.0
C4422 C 0.82733 0.86846 0.07877 0.0
C4423 C 0.80429 0.85481 0.08265 0.0
C4424 C 0.80169 0.85166 0.09302 0.0
H4425 H 0.67773 0.90165 1.04171 0.0
H4426 H 0.69332 0.87077 1.05484 0.0
C4427 C 0.81977 0.86539 0.09943 0.0
C4428 C 0.78066 0.85051 0.07591 0.0
H4429 H 0.72517 0.88719 0.06807 0.0
C4430 C 0.78416 0.83369 0.06749 0.0
C4431 C 0.75773 0.86842 0.07641 0.0
C4432 C 0.75266 0.88688 0.08531 0.0
C4433 C 0.76714 0.83664 0.05909 0.0
C4434 C 0.74678 0.85744 0.05908 0.0
C4435 C 0.74102 0.87151 0.06799 0.0
C4436 C 0.73555 0.86923 1.04972 0.0
C4437 C 0.77221 0.81852 1.05015 0.0
C4438 C 0.75382 0.878 1.04225 0.0
C4439 C 0.74483 0.89516 1.03459 0.0
C4440 C 0.71752 0.90465 1.03438 0.0
C4441 C 0.69889 0.89472 1.04158 0.0
C4442 C 0.70778 0.87703 1.04912 0.0
H4443 H 0.77724 0.7973 1.05258 0.0
H4444 H 0.75411 0.81781 1.0451 0.0
H4445 H 0.79023 0.82635 1.04593 0.0
H4446 H 0.77552 0.87308 1.04265 0.0
H4447 H 0.75961 0.90172 1.02903 0.0
H4448 H 0.60072 0.61735 0.842 0.0
H4449 H 0.57634 0.59779 0.82749 0.0
H4450 H 0.65137 0.55825 0.81802 0.0
H4451 H 0.67571 0.5778 0.83221 0.0
H4452 H 0.61563 0.5948 0.8032 0.0
H4453 H 0.56462 0.50804 0.82277 0.0
H4454 H 0.56569 0.54237 0.82791 0.0
H4455 H 0.596 0.52136 0.82806 0.0
C4456 C 0.61192 0.60456 0.83677 0.0
C4457 C 0.64003 0.59885 0.83826 0.0
C4458 C 0.59798 0.59339 0.82855 0.0
C4459 C 0.61215 0.5766 0.82177 0.0
C4460 C 0.64015 0.57112 0.82323 0.0
H4461 H 0.65581 0.46062 0.78811 0.0
H4462 H 0.63035 0.48842 0.80003 0.0
C4463 C 0.65396 0.58213 0.83138 0.0
C4464 C 0.59877 0.56428 0.81299 0.0
H4465 H 0.57784 0.50062 0.80584 0.0
C4466 C 0.60617 0.57467 0.80362 0.0
C4467 C 0.58624 0.53827 0.81369 0.0
C4468 C 0.57746 0.52675 0.82363 0.0
C4469 C 0.60537 0.55799 0.7951 0.0
C4470 C 0.59632 0.53044 0.79604 0.0
C4471 C 0.58497 0.52163 0.80515 0.0
C4472 C 0.60567 0.50922 0.78887 0.0
C4473 C 0.61757 0.56893 0.78552 0.0
C4474 C 0.59929 0.51059 0.77866 0.0
C4475 C 0.6143 0.49494 0.77178 0.0
C4476 C 0.63536 0.4773 0.77508 0.0
C4477 C 0.63965 0.47395 0.78536 0.0
C4478 C 0.62502 0.48983 0.79218 0.0
H4479 H 0.62548 0.59021 0.78635 0.0
H4480 H 0.63479 0.55562 0.783 0.0
H4481 H 0.60165 0.56906 0.77959 0.0
H4482 H 0.58395 0.5249 0.77597 0.0
H4483 H 0.61032 0.49751 0.76388 0.0
H4484 H 0.79866 0.37238 1.01058 0.0
H4485 H 0.77068 0.35335 1.02417 0.0
H4486 H 0.82818 0.38576 1.04569 0.0
H4487 H 0.85627 0.40415 1.03225 0.0
H4488 H 0.80444 0.33686 1.05198 0.0
H4489 H 0.72541 0.41134 1.03839 0.0
H4490 H 0.73571 0.38417 1.03012 0.0
H4491 H 0.75968 0.41086 1.03328 0.0
C4492 C 0.80559 0.37479 1.01821 0.0
C4493 C 0.82937 0.3901 1.02038 0.0
C4494 C 0.78963 0.36394 1.02595 0.0
C4495 C 0.79703 0.36875 1.03592 0.0
C4496 C 0.82207 0.38182 1.03803 0.0
H4497 H 0.76581 0.42131 0.09085 0.0
H4498 H 0.78121 0.39608 0.07622 0.0
C4499 C 0.83815 0.39235 1.03033 0.0
C4500 C 0.77735 0.36461 1.04421 0.0
H4501 H 0.72207 0.39653 1.05478 0.0
C4502 C 0.78592 0.34923 1.05251 0.0
C4503 C 0.75301 0.38056 1.04485 0.0
C4504 C 0.74283 0.39779 1.03623 0.0
C4505 C 0.7724 0.35158 0.06172 0.0
C4506 C 0.74997 0.36988 0.06261 0.0
C4507 C 0.73945 0.38267 1.05406 0.0
C4508 C 0.74086 0.38051 0.0724 0.0
C4509 C 0.78331 0.33586 0.07057 0.0
C4510 C 0.71297 0.38035 0.07508 0.0
C4511 C 0.70404 0.39484 0.0835 0.0
C4512 C 0.72284 0.41 0.08929 0.0
C4513 C 0.75085 0.40947 0.08669 0.0
C4514 C 0.75974 0.3949 0.07834 0.0
H4515 H 0.79263 0.31608 0.06817 0.0
H4516 H 0.79965 0.34811 0.07426 0.0
H4517 H 0.76684 0.33166 0.07611 0.0
H4518 H 0.69804 0.36967 0.0705 0.0
H4519 H 0.68238 0.39451 0.08539 0.0
H4520 H 0.90847 0.45065 0.3326 0.0
H4521 H 0.92843 0.48107 0.32022 0.0
H4522 H 0.96531 0.52957 0.34363 0.0
H4523 H 0.94488 0.49914 0.35615 0.0
H4524 H 0.93231 0.55949 0.33296 0.0
H4525 H 0.99753 0.50326 0.30643 0.0
H4526 H 0.96672 0.48385 0.30832 0.0
H4527 H 0.98971 0.48978 0.31868 0.0
C4528 C 0.92179 0.46707 0.33512 0.0
C4529 C 0.92484 0.47275 0.34533 0.0
C4530 C 0.93342 0.48442 0.328 0.0
C4531 C 0.94861 0.50754 0.33097 0.0
C4532 C 0.95376 0.5118 0.34117 0.0
H4533 H 0.95273 0.61988 0.27923 0.0
H4534 H 0.97264 0.59744 0.29401 0.0
C4535 C 0.94195 0.49453 0.3483 0.0
C4536 C 0.9533 0.52986 0.32367 0.0
H4537 H 0.96716 0.53912 0.29893 0.0
C4538 C 0.94091 0.55537 0.32563 0.0
C4539 C 0.9649 0.52488 0.31414 0.0
C4540 C 0.98072 0.49901 0.31184 0.0
C4541 C 0.93681 0.57454 0.318 0.0
C4542 C 0.94499 0.56782 0.30819 0.0
C4543 C 0.96036 0.54391 0.30645 0.0
C4544 C 0.93357 0.58268 0.29955 0.0
C4545 C 0.92194 0.60096 0.32035 0.0
C4546 C 0.90515 0.58149 0.2978 0.0
C4547 C 0.89384 0.59401 0.28941 0.0
C4548 C 0.91076 0.60798 0.28262 0.0
C4549 C 0.93924 0.60942 0.28442 0.0
C4550 C 0.95063 0.5966 0.29281 0.0
H4551 H 0.92509 0.60711 0.32826 0.0
H4552 H 0.92897 0.61788 0.31542 0.0
H4553 H 0.89954 0.59799 0.31918 0.0
H4554 H 0.89174 0.57044 0.30286 0.0
H4555 H 0.87183 0.59276 0.28823 0.0
H4556 H 0.71057 0.68651 0.53185 0.0
H4557 H 0.7467 0.70218 0.54307 0.0
H4558 H 0.8075 0.68689 0.52025 0.0
H4559 H 0.77158 0.67003 0.50912 0.0
H4560 H 0.81568 0.65637 0.53629 0.0
H4561 H 0.80035 0.76291 0.54892 0.0
H4562 H 0.76858 0.74436 0.54954 0.0
H4563 H 0.78488 0.74979 0.5376 0.0
C4564 C 0.73155 0.68717 0.52913 0.0
C4565 C 0.73828 0.67649 0.51968 0.0
C4566 C 0.75217 0.69659 0.5355 0.0
C4567 C 0.77983 0.69583 0.53249 0.0
C4568 C 0.78626 0.68781 0.52269 0.0
H4569 H 0.90402 0.66147 0.57843 0.0
H4570 H 0.88764 0.67901 0.5624 0.0
C4571 C 0.76565 0.67822 0.51633 0.0
C4572 C 0.80167 0.69696 0.54017 0.0
H4573 H 0.82072 0.73146 0.56123 0.0
C4574 C 0.8175 0.67316 0.54157 0.0
C4575 C 0.80392 0.71883 0.54706 0.0
C4576 C 0.78869 0.7455 0.54563 0.0
C4577 C 0.83346 0.6695 0.55016 0.0
C4578 C 0.83414 0.69058 0.55743 0.0
C4579 C 0.82005 0.7153 0.55566 0.0
C4580 C 0.84585 0.68554 0.56745 0.0
C4581 C 0.84748 0.64213 0.55174 0.0
C4582 C 0.82816 0.68496 0.57572 0.0
C4583 C 0.83755 0.67548 0.58493 0.0
C4584 C 0.86477 0.66618 0.58602 0.0
C4585 C 0.88292 0.66843 0.57786 0.0
C4586 C 0.87356 0.67826 0.56867 0.0
H4587 H 0.84088 0.62651 0.54619 0.0
H4588 H 0.87006 0.64475 0.55101 0.0
H4589 H 0.84308 0.63409 0.55933 0.0
H4590 H 0.80671 0.69064 0.57494 0.0
H4591 H 0.82324 0.67479 0.59113 0.0
H4592 H 0.43963 0.62271 0.34017 0.0
H4593 H 0.45982 0.60398 0.32476 0.0
H4594 H 0.3816 0.56794 0.31713 0.0
H4595 H 0.36136 0.58657 0.33241 0.0
H4596 H 0.45992 0.54507 0.31886 0.0
H4597 H 0.40678 0.61293 0.29193 0.0
H4598 H 0.41177 0.62209 0.3049 0.0
H4599 H 0.38407 0.59964 0.30135 0.0
C4600 C 0.42675 0.61101 0.33513 0.0
C4601 C 0.39894 0.60607 0.33744 0.0
C4602 C 0.43831 0.60029 0.32639 0.0
C4603 C 0.42206 0.58493 0.31981 0.0
C4604 C 0.39432 0.58008 0.32209 0.0
H4605 H 0.40844 0.45769 0.2831 0.0
H4606 H 0.42577 0.48737 0.29622 0.0
C4607 C 0.38285 0.59053 0.33084 0.0
C4608 C 0.43376 0.57278 0.31066 0.0
H4609 H 0.41961 0.56793 0.28588 0.0
C4610 C 0.45184 0.55047 0.31157 0.0
C4611 C 0.4238 0.58038 0.30117 0.0
C4612 C 0.40575 0.60527 0.29974 0.0
C4613 C 0.45773 0.53366 0.30332 0.0
C4614 C 0.44479 0.53921 0.29408 0.0
C4615 C 0.42932 0.56339 0.29298 0.0
C4616 C 0.44218 0.51813 0.28617 0.0
C4617 C 0.47655 0.50936 0.30472 0.0
C4618 C 0.4462 0.52511 0.2761 0.0
C4619 C 0.43594 0.50819 0.26854 0.0
C4620 C 0.42149 0.4841 0.27096 0.0
C4621 C 0.41973 0.47595 0.28099 0.0
C4622 C 0.42984 0.4929 0.28853 0.0
H4623 H 0.49314 0.51429 0.31014 0.0
H4624 H 0.46461 0.49195 0.30785 0.0
H4625 H 0.48604 0.50277 0.29756 0.0
H4626 H 0.45556 0.54453 0.27412 0.0
H4627 H 0.43789 0.51476 0.26085 0.0
H4628 H 0.29106 0.62051 1.0144 0.0
H4629 H 0.24808 0.6095 1.02296 0.0
H4630 H 0.2837 0.53398 1.03372 0.0
H4631 H 0.3273 0.54564 1.02581 0.0
H4632 H 0.21169 0.56582 1.02176 0.0
H4633 H 0.26063 0.57237 0.05913 0.0
H4634 H 0.27765 0.58383 1.04793 0.0
H4635 H 0.27705 0.54791 1.05108 0.0
C4636 C 0.28994 0.60179 1.01874 0.0
C4637 C 0.31279 0.58416 1.01955 0.0
C4638 C 0.26521 0.59533 1.02347 0.0
C4639 C 0.26288 0.57108 1.02902 0.0
C4640 C 0.28528 0.55299 1.02957 0.0
H4641 H 0.15144 0.5149 0.07235 0.0
H4642 H 0.17265 0.51138 1.05598 0.0
C4643 C 0.31012 0.55961 1.02498 0.0
C4644 C 0.2377 0.56558 1.03481 0.0
H4645 H 0.21504 0.55618 1.0586 0.0
C4646 C 0.21232 0.56359 1.02981 0.0
C4647 C 0.23868 0.56313 1.04531 0.0
C4648 C 0.2649 0.5672 1.0512 0.0
C4649 C 0.18782 0.55893 1.03512 0.0
C4650 C 0.18908 0.55593 1.04557 0.0
C4651 C 0.21441 0.55784 1.05052 0.0
C4652 C 0.16458 0.55355 1.05193 0.0
C4653 C 0.16081 0.55739 1.02965 0.0
C4654 C 0.15078 0.57773 1.05461 0.0
C4655 C 0.1386 0.57988 0.06402 0.0
C4656 C 0.14038 0.55789 0.07078 0.0
C4657 C 0.14995 0.53232 0.06736 0.0
C4658 C 0.16199 0.53017 1.05795 0.0
H4659 H 0.16366 0.55656 1.02142 0.0
H4660 H 0.1491 0.53902 1.0321 0.0
H4661 H 0.14826 0.57575 1.03152 0.0
H4662 H 0.15262 0.596 1.05005 0.0
H4663 H 0.13053 0.59958 0.06637 0.0
H4664 H 0.26804 0.53046 0.76085 0.0
H4665 H 0.25999 0.49122 0.77149 0.0
H4666 H 0.17756 0.48373 0.7598 0.0
H4667 H 0.18456 0.52499 0.74993 0.0
H4668 H 0.17257 0.48931 0.77781 0.0
H4669 H 0.25384 0.41258 0.77489 0.0
H4670 H 0.27148 0.44466 0.77566 0.0
H4671 H 0.24899 0.43783 0.76518 0.0
C4672 C 0.24834 0.52017 0.76038 0.0
C4673 C 0.22662 0.53167 0.75485 0.0
C4674 C 0.2439 0.49716 0.76635 0.0
C4675 C 0.21799 0.48439 0.76659 0.0
C4676 C 0.19764 0.49336 0.75988 0.0
H4677 H 0.2152 0.39694 0.82402 0.0
H4678 H 0.20919 0.40125 0.8059 0.0
C4679 C 0.20179 0.51695 0.75413 0.0
C4680 C 0.2105 0.46703 0.77532 0.0
H4681 H 0.24033 0.42508 0.79259 0.0
C4682 C 0.18699 0.4745 0.78083 0.0
C4683 C 0.22849 0.44695 0.77931 0.0
C4684 C 0.25188 0.4349 0.77334 0.0
C4685 C 0.18295 0.46514 0.7906 0.0
C4686 C 0.20347 0.44883 0.79514 0.0
C4687 C 0.22508 0.43852 0.78926 0.0
C4688 C 0.2048 0.44547 0.80614 0.0
C4689 C 0.15729 0.47395 0.7961 0.0
C4690 C 0.2045 0.46887 0.81229 0.0
C4691 C 0.20767 0.46645 0.8226 0.0
C4692 C 0.2118 0.44062 0.82696 0.0
C4693 C 0.21211 0.41714 0.82083 0.0
C4694 C 0.20862 0.41955 0.8105 0.0
H4695 H 0.1396 0.47553 0.79088 0.0
H4696 H 0.15187 0.45939 0.80216 0.0
H4697 H 0.16057 0.49461 0.79938 0.0
H4698 H 0.20264 0.4892 0.80909 0.0
H4699 H 0.20791 0.48492 0.82711 0.0
H4700 H 0.26421 0.3876 0.5108 0.0
H4701 H 0.2978 0.36726 0.52213 0.0
H4702 H 0.23726 0.36722 0.54571 0.0
H4703 H 0.20335 0.38642 0.53433 0.0
H4704 H 0.31144 0.40051 0.53676 0.0
H4705 H 0.28254 0.30213 0.55386 0.0
H4706 H 0.26822 0.3135 0.54211 0.0
H4707 H 0.25331 0.32454 0.55379 0.0
C4708 C 0.25764 0.38195 0.51825 0.0
C4709 C 0.23133 0.38915 0.52176 0.0
C4710 C 0.2769 0.37032 0.52473 0.0
C4711 C 0.27012 0.36574 0.53478 0.0
C4712 C 0.24293 0.37008 0.53796 0.0
H4713 H 0.31044 0.40262 0.59183 0.0
H4714 H 0.29459 0.38213 0.57627 0.0
C4715 C 0.22365 0.38154 0.53149 0.0
C4716 C 0.29211 0.36386 0.54238 0.0
H4717 H 0.30565 0.33533 0.5651 0.0
C4718 C 0.31092 0.38566 0.5428 0.0
C4719 C 0.29138 0.34454 0.55024 0.0
C4720 C 0.27291 0.31972 0.5499 0.0
C4721 C 0.32672 0.39054 0.55134 0.0
C4722 C 0.32418 0.37255 0.55959 0.0
C4723 C 0.30739 0.3492 0.55879 0.0
C4724 C 0.33501 0.3803 0.5695 0.0
C4725 C 0.34387 0.41638 0.55179 0.0
C4726 C 0.36311 0.3853 0.57098 0.0
C4727 C 0.37215 0.3979 0.57975 0.0
C4728 C 0.35326 0.40515 0.58729 0.0
C4729 C 0.32542 0.39813 0.58607 0.0
C4730 C 0.31638 0.38596 0.57724 0.0
H4731 H 0.3399 0.43025 0.54537 0.0
H4732 H 0.33966 0.42791 0.55879 0.0
H4733 H 0.366 0.41083 0.55168 0.0
H4734 H 0.37788 0.38063 0.56516 0.0
H4735 H 0.39374 0.40299 0.58042 0.0
loop_
_geom_bond_atom_site_label_1
_geom_bond_atom_site_label_2
_geom_bond_distance
_geom_bond_site_symmetry_2
_ccdc_geom_bond_type
Ho0 C3 2.811 . S
Ho0 O20 2.322 . S
Ho0 O22 2.378 . S
Ho0 O23 2.524 . S
Ho0 O24 2.381 . S
Ho0 O25 2.669 . S
Ho0 O27 2.346 . S
Ho0 O31 2.305 . S
Ho1 C12 2.811 . S
Ho1 O21 2.346 . S
Ho1 O25 2.305 . S
Ho1 O26 2.322 . S
Ho1 O28 2.378 . S
Ho1 O29 2.524 . S
Ho1 O30 2.381 . S
Ho1 O31 2.669 . S
C2 O20 1.259 . S
C2 O21 1.268 . S
C3 Ho0 2.811 . S
C3 C4 1.488 . S
C3 O22 1.215 . S
C3 O23 1.289 . S
C4 C3 1.488 . S
C4 C5 1.348 . S
C4 C9 1.413 . S
C5 C4 1.348 . S
C5 C6 1.442 . S
C5 H32 0.930 . S
C6 C5 1.442 . S
C6 C7 1.381 . S
C6 H33 0.931 . S
C7 C6 1.381 . S
C7 C8 1.321 . S
C8 C7 1.321 . S
C8 C9 1.403 . S
C8 H34 0.934 . S
C9 C4 1.413 . S
C9 C8 1.403 . S
C9 H35 0.930 . S
C10 O24 1.275 . S
C10 O25 1.256 . S
C11 O26 1.259 . S
C11 O27 1.268 . S
C12 Ho1 2.811 . S
C12 C13 1.488 . S
C12 O28 1.215 . S
C12 O29 1.289 . S
C13 C12 1.488 . S
C13 C14 1.348 . S
C13 C18 1.413 . S
C14 C13 1.348 . S
C14 C15 1.442 . S
C14 H36 0.930 . S
C15 C14 1.442 . S
C15 C16 1.381 . S
C15 H37 0.931 . S
C16 C15 1.381 . S
C16 C17 1.321 . S
C17 C16 1.321 . S
C17 C18 1.403 . S
C17 H38 0.934 . S
C18 C13 1.413 . S
C18 C17 1.403 . S
C18 H39 0.930 . S
C19 O30 1.275 . S
C19 O31 1.256 . S
O20 Ho0 2.322 . S
O20 C2 1.259 . S
O21 Ho1 2.346 . S
O21 C2 1.268 . S
O22 Ho0 2.378 . S
O22 C3 1.215 . S
O23 Ho0 2.524 . S
O23 C3 1.289 . S
O24 Ho0 2.381 . S
O24 C10 1.275 . S
O25 Ho0 2.669 . S
O25 Ho1 2.305 . S
O25 C10 1.256 . S
O26 Ho1 2.322 . S
O26 C11 1.259 . S
O27 Ho0 2.346 . S
O27 C11 1.268 . S
O28 Ho1 2.378 . S
O28 C12 1.215 . S
O29 Ho1 2.524 . S
O29 C12 1.289 . S
O30 Ho1 2.381 . S
O30 C19 1.275 . S
O31 Ho0 2.305 . S
O31 Ho1 2.669 . S
O31 C19 1.256 . S
H32 C5 0.930 . S
H33 C6 0.931 . S
H34 C8 0.934 . S
H35 C9 0.930 . S
H36 C14 0.930 . S
H37 C15 0.931 . S
H38 C17 0.934 . S
H39 C18 0.930 . S
Ho40 C43 2.811 1_455 S
Ho40 O60 2.322 . S
Ho40 O62 2.378 1_455 S
Ho40 O63 2.524 1_455 S
Ho40 O64 2.381 . S
Ho40 O65 2.669 . S
Ho40 O67 2.346 . S
Ho40 O71 2.305 . S
Ho41 C52 2.811 . S
Ho41 O61 2.346 . S
Ho41 O65 2.305 . S
Ho41 O66 2.322 . S
Ho41 O68 2.378 . S
Ho41 O69 2.524 . S
Ho41 O70 2.381 . S
Ho41 O71 2.669 . S
C42 O60 1.259 . S
C42 O61 1.268 . S
C43 Ho40 2.811 1_655 S
C43 C44 1.488 . S
C43 O62 1.215 . S
C43 O63 1.289 . S
C44 C43 1.488 . S
C44 C45 1.348 . S
C44 C49 1.413 . S
C45 C44 1.348 . S
C45 C46 1.442 . S
C45 H72 0.930 . S
C46 C45 1.442 . S
C46 C47 1.381 . S
C46 H73 0.931 . S
C47 C46 1.381 . S
C47 C48 1.321 . S
C48 C47 1.321 . S
C48 C49 1.403 . S
C48 H74 0.934 . S
C49 C44 1.413 . S
C49 C48 1.403 . S
C49 H75 0.930 . S
C50 O64 1.275 . S
C50 O65 1.256 . S
C51 O66 1.259 . S
C51 O67 1.268 . S
C52 Ho41 2.811 . S
C52 C53 1.488 . S
C52 O68 1.215 . S
C52 O69 1.289 . S
C53 C52 1.488 . S
C53 C54 1.348 . S
C53 C58 1.413 . S
C54 C53 1.348 . S
C54 C55 1.442 . S
C54 H76 0.930 . S
C55 C54 1.442 . S
C55 C56 1.381 . S
C55 H77 0.931 . S
C56 C55 1.381 . S
C56 C57 1.321 . S
C57 C56 1.321 . S
C57 C58 1.403 . S
C57 H78 0.934 . S
C58 C53 1.413 . S
C58 C57 1.403 . S
C58 H79 0.930 . S
C59 O70 1.275 . S
C59 O71 1.256 . S
O60 Ho40 2.322 . S
O60 C42 1.259 . S
O61 Ho41 2.346 . S
O61 C42 1.268 . S
O62 Ho40 2.378 1_655 S
O62 C43 1.215 . S
O63 Ho40 2.524 1_655 S
O63 C43 1.289 . S
O64 Ho40 2.381 . S
O64 C50 1.275 . S
O65 Ho40 2.669 . S
O65 Ho41 2.305 . S
O65 C50 1.256 . S
O66 Ho41 2.322 . S
O66 C51 1.259 . S
O67 Ho40 2.346 . S
O67 C51 1.268 . S
O68 Ho41 2.378 . S
O68 C52 1.215 . S
O69 Ho41 2.524 . S
O69 C52 1.289 . S
O70 Ho41 2.381 . S
O70 C59 1.275 . S
O71 Ho40 2.305 . S
O71 Ho41 2.669 . S
O71 C59 1.256 . S
H72 C45 0.930 . S
H73 C46 0.931 . S
H74 C48 0.934 . S
H75 C49 0.930 . S
H76 C54 0.930 . S
H77 C55 0.931 . S
H78 C57 0.934 . S
H79 C58 0.930 . S
Ho80 C83 2.811 . S
Ho80 O100 2.322 . S
Ho80 O102 2.378 . S
Ho80 O103 2.524 . S
Ho80 O104 2.381 . S
Ho80 O105 2.669 . S
Ho80 O107 2.346 . S
Ho80 O111 2.305 . S
Ho81 C92 2.811 . S
Ho81 O101 2.346 . S
Ho81 O105 2.305 . S
Ho81 O106 2.322 . S
Ho81 O108 2.378 . S
Ho81 O109 2.524 . S
Ho81 O110 2.381 . S
Ho81 O111 2.669 . S
C82 O100 1.259 . S
C82 O101 1.268 . S
C83 Ho80 2.811 . S
C83 C84 1.488 . S
C83 O102 1.215 . S
C83 O103 1.289 . S
C84 C83 1.488 . S
C84 C85 1.348 . S
C84 C89 1.413 . S
C85 C84 1.348 . S
C85 C86 1.442 . S
C85 H112 0.930 . S
C86 C85 1.442 . S
C86 C87 1.381 . S
C86 H113 0.931 . S
C87 C86 1.381 . S
C87 C88 1.321 . S
C88 C87 1.321 . S
C88 C89 1.403 . S
C88 H114 0.934 . S
C89 C84 1.413 . S
C89 C88 1.403 . S
C89 H115 0.930 . S
C90 O104 1.275 . S
C90 O105 1.256 . S
C91 O106 1.259 . S
C91 O107 1.268 . S
C92 Ho81 2.811 . S
C92 C93 1.488 . S
C92 O108 1.215 . S
C92 O109 1.289 . S
C93 C92 1.488 . S
C93 C94 1.348 . S
C93 C98 1.413 . S
C94 C93 1.348 . S
C94 C95 1.442 . S
C94 H116 0.930 . S
C95 C94 1.442 . S
C95 C96 1.381 . S
C95 H117 0.931 . S
C96 C95 1.381 . S
C96 C97 1.321 . S
C97 C96 1.321 . S
C97 C98 1.403 . S
C97 H118 0.934 . S
C98 C93 1.413 . S
C98 C97 1.403 . S
C98 H119 0.930 . S
C99 O110 1.275 . S
C99 O111 1.256 . S
O100 Ho80 2.322 . S
O100 C82 1.259 . S
O101 Ho81 2.346 . S
O101 C82 1.268 . S
O102 Ho80 2.378 . S
O102 C83 1.215 . S
O103 Ho80 2.524 . S
O103 C83 1.289 . S
O104 Ho80 2.381 . S
O104 C90 1.275 . S
O105 Ho80 2.669 . S
O105 Ho81 2.305 . S
O105 C90 1.256 . S
O106 Ho81 2.322 . S
O106 C91 1.259 . S
O107 Ho80 2.346 . S
O107 C91 1.268 . S
O108 Ho81 2.378 . S
O108 C92 1.215 . S
O109 Ho81 2.524 . S
O109 C92 1.289 . S
O110 Ho81 2.381 . S
O110 C99 1.275 . S
O111 Ho80 2.305 . S
O111 Ho81 2.669 . S
O111 C99 1.256 . S
H112 C85 0.930 . S
H113 C86 0.931 . S
H114 C88 0.934 . S
H115 C89 0.930 . S
H116 C94 0.930 . S
H117 C95 0.931 . S
H118 C97 0.934 . S
H119 C98 0.930 . S
Ho120 C123 2.811 . S
Ho120 O140 2.322 . S
Ho120 O142 2.378 . S
Ho120 O143 2.524 . S
Ho120 O144 2.381 . S
Ho120 O145 2.669 . S
Ho120 O147 2.346 . S
Ho120 O151 2.305 . S
Ho121 C132 2.811 . S
Ho121 O141 2.346 . S
Ho121 O145 2.305 . S
Ho121 O146 2.322 . S
Ho121 O148 2.378 . S
Ho121 O149 2.524 . S
Ho121 O150 2.381 . S
Ho121 O151 2.669 . S
C122 O140 1.259 . S
C122 O141 1.268 . S
C123 Ho120 2.811 . S
C123 C124 1.488 . S
C123 O142 1.215 . S
C123 O143 1.289 . S
C124 C123 1.488 . S
C124 C125 1.348 . S
C124 C129 1.413 . S
C125 C124 1.348 . S
C125 C126 1.442 . S
C125 H152 0.930 . S
C126 C125 1.442 . S
C126 C127 1.381 . S
C126 H153 0.931 . S
C127 C126 1.381 . S
C127 C128 1.321 . S
C128 C127 1.321 . S
C128 C129 1.403 . S
C128 H154 0.934 . S
C129 C124 1.413 . S
C129 C128 1.403 . S
C129 H155 0.930 . S
C130 O144 1.275 . S
C130 O145 1.256 . S
C131 O146 1.259 . S
C131 O147 1.268 . S
C132 Ho121 2.811 . S
C132 C133 1.488 . S
C132 O148 1.215 . S
C132 O149 1.289 . S
C133 C132 1.488 . S
C133 C134 1.348 . S
C133 C138 1.413 . S
C134 C133 1.348 . S
C134 C135 1.442 . S
C134 H156 0.930 . S
C135 C134 1.442 . S
C135 C136 1.381 . S
C135 H157 0.931 . S
C136 C135 1.381 . S
C136 C137 1.321 . S
C137 C136 1.321 . S
C137 C138 1.403 . S
C137 H158 0.934 . S
C138 C133 1.413 . S
C138 C137 1.403 . S
C138 H159 0.930 . S
C139 O150 1.275 . S
C139 O151 1.256 . S
O140 Ho120 2.322 . S
O140 C122 1.259 . S
O141 Ho121 2.346 . S
O141 C122 1.268 . S
O142 Ho120 2.378 . S
O142 C123 1.215 . S
O143 Ho120 2.524 . S
O143 C123 1.289 . S
O144 Ho120 2.381 . S
O144 C130 1.275 . S
O145 Ho120 2.669 . S
O145 Ho121 2.305 . S
O145 C130 1.256 . S
O146 Ho121 2.322 . S
O146 C131 1.259 . S
O147 Ho120 2.346 . S
O147 C131 1.268 . S
O148 Ho121 2.378 . S
O148 C132 1.215 . S
O149 Ho121 2.524 . S
O149 C132 1.289 . S
O150 Ho121 2.381 . S
O150 C139 1.275 . S
O151 Ho120 2.305 . S
O151 Ho121 2.669 . S
O151 C139 1.256 . S
H152 C125 0.930 . S
H153 C126 0.931 . S
H154 C128 0.934 . S
H155 C129 0.930 . S
H156 C134 0.930 . S
H157 C135 0.931 . S
H158 C137 0.934 . S
H159 C138 0.930 . S
Ho160 C163 2.811 . S
Ho160 O180 2.322 . S
Ho160 O182 2.378 . S
Ho160 O183 2.524 . S
Ho160 O184 2.381 . S
Ho160 O185 2.669 . S
Ho160 O187 2.346 . S
Ho160 O191 2.305 . S
Ho161 C172 2.811 . S
Ho161 O181 2.346 . S
Ho161 O185 2.305 . S
Ho161 O186 2.322 . S
Ho161 O188 2.378 . S
Ho161 O189 2.524 . S
Ho161 O190 2.381 . S
Ho161 O191 2.669 . S
C162 O180 1.259 . S
C162 O181 1.268 . S
C163 Ho160 2.811 . S
C163 C164 1.488 . S
C163 O182 1.215 . S
C163 O183 1.289 . S
C164 C163 1.488 . S
C164 C165 1.348 . S
C164 C169 1.413 . S
C165 C164 1.348 . S
C165 C166 1.442 . S
C165 H192 0.930 . S
C166 C165 1.442 . S
C166 C167 1.381 . S
C166 H193 0.931 . S
C167 C166 1.381 . S
C167 C168 1.321 . S
C168 C167 1.321 . S
C168 C169 1.403 . S
C168 H194 0.934 . S
C169 C164 1.413 . S
C169 C168 1.403 . S
C169 H195 0.930 . S
C170 O184 1.275 . S
C170 O185 1.256 . S
C171 O186 1.259 . S
C171 O187 1.268 . S
C172 Ho161 2.811 . S
C172 C173 1.488 . S
C172 O188 1.215 . S
C172 O189 1.289 . S
C173 C172 1.488 . S
C173 C174 1.348 . S
C173 C178 1.413 . S
C174 C173 1.348 . S
C174 C175 1.442 . S
C174 H196 0.930 . S
C175 C174 1.442 . S
C175 C176 1.381 . S
C175 H197 0.931 . S
C176 C175 1.381 . S
C176 C177 1.321 . S
C177 C176 1.321 . S
C177 C178 1.403 . S
C177 H198 0.934 . S
C178 C173 1.413 . S
C178 C177 1.403 . S
C178 H199 0.930 . S
C179 O190 1.275 . S
C179 O191 1.256 . S
O180 Ho160 2.322 . S
O180 C162 1.259 . S
O181 Ho161 2.346 . S
O181 C162 1.268 . S
O182 Ho160 2.378 . S
O182 C163 1.215 . S
O183 Ho160 2.524 . S
O183 C163 1.289 . S
O184 Ho160 2.381 . S
O184 C170 1.275 . S
O185 Ho160 2.669 . S
O185 Ho161 2.305 . S
O185 C170 1.256 . S
O186 Ho161 2.322 . S
O186 C171 1.259 . S
O187 Ho160 2.346 . S
O187 C171 1.268 . S
O188 Ho161 2.378 . S
O188 C172 1.215 . S
O189 Ho161 2.524 . S
O189 C172 1.289 . S
O190 Ho161 2.381 . S
O190 C179 1.275 . S
O191 Ho160 2.305 . S
O191 Ho161 2.669 . S
O191 C179 1.256 . S
H192 C165 0.930 . S
H193 C166 0.931 . S
H194 C168 0.934 . S
H195 C169 0.930 . S
H196 C174 0.930 . S
H197 C175 0.931 . S
H198 C177 0.934 . S
H199 C178 0.930 . S
Ho200 C203 2.811 . S
Ho200 O220 2.322 . S
Ho200 O222 2.378 . S
Ho200 O223 2.524 . S
Ho200 O224 2.381 . S
Ho200 O225 2.669 . S
Ho200 O227 2.346 . S
Ho200 O231 2.305 . S
Ho201 C212 2.811 . S
Ho201 O221 2.346 . S
Ho201 O225 2.305 . S
Ho201 O226 2.322 . S
Ho201 O228 2.378 . S
Ho201 O229 2.524 . S
Ho201 O230 2.381 . S
Ho201 O231 2.669 . S
C202 O220 1.259 . S
C202 O221 1.268 . S
C203 Ho200 2.811 . S
C203 C204 1.488 . S
C203 O222 1.215 . S
C203 O223 1.289 . S
C204 C203 1.488 . S
C204 C205 1.348 . S
C204 C209 1.413 . S
C205 C204 1.348 . S
C205 C206 1.442 . S
C205 H232 0.930 . S
C206 C205 1.442 . S
C206 C207 1.381 . S
C206 H233 0.931 . S
C207 C206 1.381 . S
C207 C208 1.321 . S
C208 C207 1.321 . S
C208 C209 1.403 . S
C208 H234 0.934 . S
C209 C204 1.413 . S
C209 C208 1.403 . S
C209 H235 0.930 . S
C210 O224 1.275 . S
C210 O225 1.256 . S
C211 O226 1.259 . S
C211 O227 1.268 . S
C212 Ho201 2.811 . S
C212 C213 1.488 . S
C212 O228 1.215 . S
C212 O229 1.289 . S
C213 C212 1.488 . S
C213 C214 1.348 . S
C213 C218 1.413 . S
C214 C213 1.348 . S
C214 C215 1.442 . S
C214 H236 0.930 . S
C215 C214 1.442 . S
C215 C216 1.381 . S
C215 H237 0.931 . S
C216 C215 1.381 . S
C216 C217 1.321 . S
C217 C216 1.321 . S
C217 C218 1.403 . S
C217 H238 0.934 . S
C218 C213 1.413 . S
C218 C217 1.403 . S
C218 H239 0.930 . S
C219 O230 1.275 . S
C219 O231 1.256 . S
O220 Ho200 2.322 . S
O220 C202 1.259 . S
O221 Ho201 2.346 . S
O221 C202 1.268 . S
O222 Ho200 2.378 . S
O222 C203 1.215 . S
O223 Ho200 2.524 . S
O223 C203 1.289 . S
O224 Ho200 2.381 . S
O224 C210 1.275 . S
O225 Ho200 2.669 . S
O225 Ho201 2.305 . S
O225 C210 1.256 . S
O226 Ho201 2.322 . S
O226 C211 1.259 . S
O227 Ho200 2.346 . S
O227 C211 1.268 . S
O228 Ho201 2.378 . S
O228 C212 1.215 . S
O229 Ho201 2.524 . S
O229 C212 1.289 . S
O230 Ho201 2.381 . S
O230 C219 1.275 . S
O231 Ho200 2.305 . S
O231 Ho201 2.669 . S
O231 C219 1.256 . S
H232 C205 0.930 . S
H233 C206 0.931 . S
H234 C208 0.934 . S
H235 C209 0.930 . S
H236 C214 0.930 . S
H237 C215 0.931 . S
H238 C217 0.934 . S
H239 C218 0.930 . S
Ho240 C243 2.811 . S
Ho240 O260 2.322 . S
Ho240 O262 2.378 . S
Ho240 O263 2.524 . S
Ho240 O264 2.381 . S
Ho240 O265 2.669 . S
Ho240 O267 2.346 . S
Ho240 O271 2.305 . S
Ho241 C252 2.811 . S
Ho241 O261 2.346 . S
Ho241 O265 2.305 . S
Ho241 O266 2.322 . S
Ho241 O268 2.378 . S
Ho241 O269 2.524 . S
Ho241 O270 2.381 . S
Ho241 O271 2.669 . S
C242 O260 1.259 . S
C242 O261 1.268 . S
C243 Ho240 2.811 . S
C243 C244 1.488 . S
C243 O262 1.215 . S
C243 O263 1.289 . S
C244 C243 1.488 . S
C244 C245 1.348 . S
C244 C249 1.413 . S
C245 C244 1.348 . S
C245 C246 1.442 . S
C245 H272 0.930 . S
C246 C245 1.442 . S
C246 C247 1.381 . S
C246 H273 0.931 . S
C247 C246 1.381 . S
C247 C248 1.321 . S
C248 C247 1.321 . S
C248 C249 1.403 . S
C248 H274 0.934 . S
C249 C244 1.413 . S
C249 C248 1.403 . S
C249 H275 0.930 . S
C250 O264 1.275 . S
C250 O265 1.256 . S
C251 O266 1.259 . S
C251 O267 1.268 . S
C252 Ho241 2.811 . S
C252 C253 1.488 . S
C252 O268 1.215 . S
C252 O269 1.289 . S
C253 C252 1.488 . S
C253 C254 1.348 . S
C253 C258 1.413 . S
C254 C253 1.348 . S
C254 C255 1.442 . S
C254 H276 0.930 . S
C255 C254 1.442 . S
C255 C256 1.381 . S
C255 H277 0.931 . S
C256 C255 1.381 . S
C256 C257 1.321 . S
C257 C256 1.321 . S
C257 C258 1.403 . S
C257 H278 0.934 . S
C258 C253 1.413 . S
C258 C257 1.403 . S
C258 H279 0.930 . S
C259 O270 1.275 . S
C259 O271 1.256 . S
O260 Ho240 2.322 . S
O260 C242 1.259 . S
O261 Ho241 2.346 . S
O261 C242 1.268 . S
O262 Ho240 2.378 . S
O262 C243 1.215 . S
O263 Ho240 2.524 . S
O263 C243 1.289 . S
O264 Ho240 2.381 . S
O264 C250 1.275 . S
O265 Ho240 2.669 . S
O265 Ho241 2.305 . S
O265 C250 1.256 . S
O266 Ho241 2.322 . S
O266 C251 1.259 . S
O267 Ho240 2.346 . S
O267 C251 1.268 . S
O268 Ho241 2.378 . S
O268 C252 1.215 . S
O269 Ho241 2.524 . S
O269 C252 1.289 . S
O270 Ho241 2.381 . S
O270 C259 1.275 . S
O271 Ho240 2.305 . S
O271 Ho241 2.669 . S
O271 C259 1.256 . S
H272 C245 0.930 . S
H273 C246 0.931 . S
H274 C248 0.934 . S
H275 C249 0.930 . S
H276 C254 0.930 . S
H277 C255 0.931 . S
H278 C257 0.934 . S
H279 C258 0.930 . S
Ho280 C283 2.811 1_455 S
Ho280 O300 2.322 . S
Ho280 O302 2.378 1_455 S
Ho280 O303 2.524 1_455 S
Ho280 O304 2.381 . S
Ho280 O305 2.669 . S
Ho280 O307 2.346 . S
Ho280 O311 2.305 . S
Ho281 C292 2.811 . S
Ho281 O301 2.346 . S
Ho281 O305 2.305 . S
Ho281 O306 2.322 . S
Ho281 O308 2.378 . S
Ho281 O309 2.524 . S
Ho281 O310 2.381 . S
Ho281 O311 2.669 . S
C282 O300 1.259 . S
C282 O301 1.268 . S
C283 Ho280 2.811 1_655 S
C283 C284 1.488 . S
C283 O302 1.215 . S
C283 O303 1.289 . S
C284 C283 1.488 . S
C284 C285 1.348 . S
C284 C289 1.413 . S
C285 C284 1.348 . S
C285 C286 1.442 . S
C285 H312 0.930 . S
C286 C285 1.442 . S
C286 C287 1.381 . S
C286 H313 0.931 . S
C287 C286 1.381 . S
C287 C288 1.321 . S
C288 C287 1.321 . S
C288 C289 1.403 . S
C288 H314 0.934 . S
C289 C284 1.413 . S
C289 C288 1.403 . S
C289 H315 0.930 . S
C290 O304 1.275 . S
C290 O305 1.256 . S
C291 O306 1.259 . S
C291 O307 1.268 . S
C292 Ho281 2.811 . S
C292 C293 1.488 . S
C292 O308 1.215 . S
C292 O309 1.289 . S
C293 C292 1.488 . S
C293 C294 1.348 . S
C293 C298 1.413 . S
C294 C293 1.348 . S
C294 C295 1.442 . S
C294 H316 0.930 . S
C295 C294 1.442 . S
C295 C296 1.381 . S
C295 H317 0.931 . S
C296 C295 1.381 . S
C296 C297 1.321 . S
C297 C296 1.321 . S
C297 C298 1.403 . S
C297 H318 0.934 . S
C298 C293 1.413 . S
C298 C297 1.403 . S
C298 H319 0.930 . S
C299 O310 1.275 . S
C299 O311 1.256 . S
O300 Ho280 2.322 . S
O300 C282 1.259 . S
O301 Ho281 2.346 . S
O301 C282 1.268 . S
O302 Ho280 2.378 1_655 S
O302 C283 1.215 . S
O303 Ho280 2.524 1_655 S
O303 C283 1.289 . S
O304 Ho280 2.381 . S
O304 C290 1.275 . S
O305 Ho280 2.669 . S
O305 Ho281 2.305 . S
O305 C290 1.256 . S
O306 Ho281 2.322 . S
O306 C291 1.259 . S
O307 Ho280 2.346 . S
O307 C291 1.268 . S
O308 Ho281 2.378 . S
O308 C292 1.215 . S
O309 Ho281 2.524 . S
O309 C292 1.289 . S
O310 Ho281 2.381 . S
O310 C299 1.275 . S
O311 Ho280 2.305 . S
O311 Ho281 2.669 . S
O311 C299 1.256 . S
H312 C285 0.930 . S
H313 C286 0.931 . S
H314 C288 0.934 . S
H315 C289 0.930 . S
H316 C294 0.930 . S
H317 C295 0.931 . S
H318 C297 0.934 . S
H319 C298 0.930 . S
Ho320 C323 2.811 . S
Ho320 O340 2.322 . S
Ho320 O342 2.378 . S
Ho320 O343 2.524 . S
Ho320 O344 2.381 . S
Ho320 O345 2.669 . S
Ho320 O347 2.346 . S
Ho320 O351 2.305 . S
Ho321 C332 2.811 . S
Ho321 O341 2.346 . S
Ho321 O345 2.305 . S
Ho321 O346 2.322 . S
Ho321 O348 2.378 . S
Ho321 O349 2.524 . S
Ho321 O350 2.381 . S
Ho321 O351 2.669 . S
C322 O340 1.259 . S
C322 O341 1.268 . S
C323 Ho320 2.811 . S
C323 C324 1.488 . S
C323 O342 1.215 . S
C323 O343 1.289 . S
C324 C323 1.488 . S
C324 C325 1.348 . S
C324 C329 1.413 . S
C325 C324 1.348 . S
C325 C326 1.442 . S
C325 H352 0.930 . S
C326 C325 1.442 . S
C326 C327 1.381 . S
C326 H353 0.931 . S
C327 C326 1.381 . S
C327 C328 1.321 . S
C328 C327 1.321 . S
C328 C329 1.403 . S
C328 H354 0.934 . S
C329 C324 1.413 . S
C329 C328 1.403 . S
C329 H355 0.930 . S
C330 O344 1.275 . S
C330 O345 1.256 . S
C331 O346 1.259 . S
C331 O347 1.268 . S
C332 Ho321 2.811 . S
C332 C333 1.488 . S
C332 O348 1.215 . S
C332 O349 1.289 . S
C333 C332 1.488 . S
C333 C334 1.348 . S
C333 C338 1.413 . S
C334 C333 1.348 . S
C334 C335 1.442 . S
C334 H356 0.930 . S
C335 C334 1.442 . S
C335 C336 1.381 . S
C335 H357 0.931 . S
C336 C335 1.381 . S
C336 C337 1.321 . S
C337 C336 1.321 . S
C337 C338 1.403 . S
C337 H358 0.934 . S
C338 C333 1.413 . S
C338 C337 1.403 . S
C338 H359 0.930 . S
C339 O350 1.275 . S
C339 O351 1.256 . S
O340 Ho320 2.322 . S
O340 C322 1.259 . S
O341 Ho321 2.346 . S
O341 C322 1.268 . S
O342 Ho320 2.378 . S
O342 C323 1.215 . S
O343 Ho320 2.524 . S
O343 C323 1.289 . S
O344 Ho320 2.381 . S
O344 C330 1.275 . S
O345 Ho320 2.669 . S
O345 Ho321 2.305 . S
O345 C330 1.256 . S
O346 Ho321 2.322 . S
O346 C331 1.259 . S
O347 Ho320 2.346 . S
O347 C331 1.268 . S
O348 Ho321 2.378 . S
O348 C332 1.215 . S
O349 Ho321 2.524 . S
O349 C332 1.289 . S
O350 Ho321 2.381 . S
O350 C339 1.275 . S
O351 Ho320 2.305 . S
O351 Ho321 2.669 . S
O351 C339 1.256 . S
H352 C325 0.930 . S
H353 C326 0.931 . S
H354 C328 0.934 . S
H355 C329 0.930 . S
H356 C334 0.930 . S
H357 C335 0.931 . S
H358 C337 0.934 . S
H359 C338 0.930 . S
Ho360 C363 2.811 . S
Ho360 O380 2.322 . S
Ho360 O382 2.378 . S
Ho360 O383 2.524 . S
Ho360 O384 2.381 . S
Ho360 O385 2.669 . S
Ho360 O387 2.346 . S
Ho360 O391 2.305 . S
Ho361 C372 2.811 1_655 S
Ho361 O381 2.346 . S
Ho361 O385 2.305 . S
Ho361 O386 2.322 . S
Ho361 O388 2.378 1_655 S
Ho361 O389 2.524 1_655 S
Ho361 O390 2.381 . S
Ho361 O391 2.669 . S
C362 O380 1.259 . S
C362 O381 1.268 . S
C363 Ho360 2.811 . S
C363 C364 1.488 . S
C363 O382 1.215 . S
C363 O383 1.289 . S
C364 C363 1.488 . S
C364 C365 1.348 . S
C364 C369 1.413 . S
C365 C364 1.348 . S
C365 C366 1.442 . S
C365 H392 0.930 . S
C366 C365 1.442 . S
C366 C367 1.381 . S
C366 H393 0.931 . S
C367 C366 1.381 . S
C367 C368 1.321 . S
C368 C367 1.321 . S
C368 C369 1.403 . S
C368 H394 0.934 . S
C369 C364 1.413 . S
C369 C368 1.403 . S
C369 H395 0.930 . S
C370 O384 1.275 . S
C370 O385 1.256 . S
C371 O386 1.259 . S
C371 O387 1.268 . S
C372 Ho361 2.811 1_455 S
C372 C373 1.488 . S
C372 O388 1.215 . S
C372 O389 1.289 . S
C373 C372 1.488 . S
C373 C374 1.348 . S
C373 C378 1.413 . S
C374 C373 1.348 . S
C374 C375 1.442 . S
C374 H396 0.930 . S
C375 C374 1.442 . S
C375 C376 1.381 . S
C375 H397 0.931 . S
C376 C375 1.381 . S
C376 C377 1.321 . S
C377 C376 1.321 . S
C377 C378 1.403 . S
C377 H398 0.934 . S
C378 C373 1.413 . S
C378 C377 1.403 . S
C378 H399 0.930 . S
C379 O390 1.275 . S
C379 O391 1.256 . S
O380 Ho360 2.322 . S
O380 C362 1.259 . S
O381 Ho361 2.346 . S
O381 C362 1.268 . S
O382 Ho360 2.378 . S
O382 C363 1.215 . S
O383 Ho360 2.524 . S
O383 C363 1.289 . S
O384 Ho360 2.381 . S
O384 C370 1.275 . S
O385 Ho360 2.669 . S
O385 Ho361 2.305 . S
O385 C370 1.256 . S
O386 Ho361 2.322 . S
O386 C371 1.259 . S
O387 Ho360 2.346 . S
O387 C371 1.268 . S
O388 Ho361 2.378 1_455 S
O388 C372 1.215 . S
O389 Ho361 2.524 1_455 S
O389 C372 1.289 . S
O390 Ho361 2.381 . S
O390 C379 1.275 . S
O391 Ho360 2.305 . S
O391 Ho361 2.669 . S
O391 C379 1.256 . S
H392 C365 0.930 . S
H393 C366 0.931 . S
H394 C368 0.934 . S
H395 C369 0.930 . S
H396 C374 0.930 . S
H397 C375 0.931 . S
H398 C377 0.934 . S
H399 C378 0.930 . S
Ho400 C403 2.811 . S
Ho400 O420 2.322 . S
Ho400 O422 2.378 . S
Ho400 O423 2.524 . S
Ho400 O424 2.381 . S
Ho400 O425 2.669 . S
Ho400 O427 2.346 . S
Ho400 O431 2.305 . S
Ho401 C412 2.811 . S
Ho401 O421 2.346 . S
Ho401 O425 2.305 . S
Ho401 O426 2.322 . S
Ho401 O428 2.378 . S
Ho401 O429 2.524 . S
Ho401 O430 2.381 . S
Ho401 O431 2.669 . S
C402 O420 1.259 . S
C402 O421 1.268 . S
C403 Ho400 2.811 . S
C403 C404 1.488 . S
C403 O422 1.215 . S
C403 O423 1.289 . S
C404 C403 1.488 . S
C404 C405 1.348 . S
C404 C409 1.413 . S
C405 C404 1.348 . S
C405 C406 1.442 . S
C405 H432 0.930 . S
C406 C405 1.442 . S
C406 C407 1.381 . S
C406 H433 0.931 . S
C407 C406 1.381 . S
C407 C408 1.321 . S
C408 C407 1.321 . S
C408 C409 1.403 . S
C408 H434 0.934 . S
C409 C404 1.413 . S
C409 C408 1.403 . S
C409 H435 0.930 . S
C410 O424 1.275 . S
C410 O425 1.256 . S
C411 O426 1.259 . S
C411 O427 1.268 . S
C412 Ho401 2.811 . S
C412 C413 1.488 . S
C412 O428 1.215 . S
C412 O429 1.289 . S
C413 C412 1.488 . S
C413 C414 1.348 . S
C413 C418 1.413 . S
C414 C413 1.348 . S
C414 C415 1.442 . S
C414 H436 0.930 . S
C415 C414 1.442 . S
C415 C416 1.381 . S
C415 H437 0.931 . S
C416 C415 1.381 . S
C416 C417 1.321 . S
C417 C416 1.321 . S
C417 C418 1.403 . S
C417 H438 0.934 . S
C418 C413 1.413 . S
C418 C417 1.403 . S
C418 H439 0.930 . S
C419 O430 1.275 . S
C419 O431 1.256 . S
O420 Ho400 2.322 . S
O420 C402 1.259 . S
O421 Ho401 2.346 . S
O421 C402 1.268 . S
O422 Ho400 2.378 . S
O422 C403 1.215 . S
O423 Ho400 2.524 . S
O423 C403 1.289 . S
O424 Ho400 2.381 . S
O424 C410 1.275 . S
O425 Ho400 2.669 . S
O425 Ho401 2.305 . S
O425 C410 1.256 . S
O426 Ho401 2.322 . S
O426 C411 1.259 . S
O427 Ho400 2.346 . S
O427 C411 1.268 . S
O428 Ho401 2.378 . S
O428 C412 1.215 . S
O429 Ho401 2.524 . S
O429 C412 1.289 . S
O430 Ho401 2.381 . S
O430 C419 1.275 . S
O431 Ho400 2.305 . S
O431 Ho401 2.669 . S
O431 C419 1.256 . S
H432 C405 0.930 . S
H433 C406 0.931 . S
H434 C408 0.934 . S
H435 C409 0.930 . S
H436 C414 0.930 . S
H437 C415 0.931 . S
H438 C417 0.934 . S
H439 C418 0.930 . S
Ho440 C443 2.811 . S
Ho440 O460 2.322 . S
Ho440 O462 2.378 . S
Ho440 O463 2.524 . S
Ho440 O464 2.381 . S
Ho440 O465 2.669 . S
Ho440 O467 2.346 . S
Ho440 O471 2.305 . S
Ho441 C452 2.811 . S
Ho441 O461 2.346 . S
Ho441 O465 2.305 . S
Ho441 O466 2.322 . S
Ho441 O468 2.378 . S
Ho441 O469 2.524 . S
Ho441 O470 2.381 . S
Ho441 O471 2.669 . S
C442 O460 1.259 . S
C442 O461 1.268 . S
C443 Ho440 2.811 . S
C443 C444 1.488 . S
C443 O462 1.215 . S
C443 O463 1.289 . S
C444 C443 1.488 . S
C444 C445 1.348 . S
C444 C449 1.413 . S
C445 C444 1.348 . S
C445 C446 1.442 . S
C445 H472 0.930 . S
C446 C445 1.442 . S
C446 C447 1.381 . S
C446 H473 0.931 . S
C447 C446 1.381 . S
C447 C448 1.321 . S
C448 C447 1.321 . S
C448 C449 1.403 . S
C448 H474 0.934 . S
C449 C444 1.413 . S
C449 C448 1.403 . S
C449 H475 0.930 . S
C450 O464 1.275 . S
C450 O465 1.256 . S
C451 O466 1.259 . S
C451 O467 1.268 . S
C452 Ho441 2.811 . S
C452 C453 1.488 . S
C452 O468 1.215 . S
C452 O469 1.289 . S
C453 C452 1.488 . S
C453 C454 1.348 . S
C453 C458 1.413 . S
C454 C453 1.348 . S
C454 C455 1.442 . S
C454 H476 0.930 . S
C455 C454 1.442 . S
C455 C456 1.381 . S
C455 H477 0.931 . S
C456 C455 1.381 . S
C456 C457 1.321 . S
C457 C456 1.321 . S
C457 C458 1.403 . S
C457 H478 0.934 . S
C458 C453 1.413 . S
C458 C457 1.403 . S
C458 H479 0.930 . S
C459 O470 1.275 . S
C459 O471 1.256 . S
O460 Ho440 2.322 . S
O460 C442 1.259 . S
O461 Ho441 2.346 . S
O461 C442 1.268 . S
O462 Ho440 2.378 . S
O462 C443 1.215 . S
O463 Ho440 2.524 . S
O463 C443 1.289 . S
O464 Ho440 2.381 . S
O464 C450 1.275 . S
O465 Ho440 2.669 . S
O465 Ho441 2.305 . S
O465 C450 1.256 . S
O466 Ho441 2.322 . S
O466 C451 1.259 . S
O467 Ho440 2.346 . S
O467 C451 1.268 . S
O468 Ho441 2.378 . S
O468 C452 1.215 . S
O469 Ho441 2.524 . S
O469 C452 1.289 . S
O470 Ho441 2.381 . S
O470 C459 1.275 . S
O471 Ho440 2.305 . S
O471 Ho441 2.669 . S
O471 C459 1.256 . S
H472 C445 0.930 . S
H473 C446 0.931 . S
H474 C448 0.934 . S
H475 C449 0.930 . S
H476 C454 0.930 . S
H477 C455 0.931 . S
H478 C457 0.934 . S
H479 C458 0.930 . S
Ho480 C483 2.811 . S
Ho480 O500 2.322 . S
Ho480 O502 2.378 . S
Ho480 O503 2.524 . S
Ho480 O504 2.381 . S
Ho480 O505 2.669 . S
Ho480 O507 2.346 . S
Ho480 O511 2.305 . S
Ho481 C492 2.811 . S
Ho481 O501 2.346 . S
Ho481 O505 2.305 . S
Ho481 O506 2.322 . S
Ho481 O508 2.378 . S
Ho481 O509 2.524 . S
Ho481 O510 2.381 . S
Ho481 O511 2.669 . S
C482 O500 1.259 . S
C482 O501 1.268 . S
C483 Ho480 2.811 . S
C483 C484 1.488 . S
C483 O502 1.215 . S
C483 O503 1.289 . S
C484 C483 1.488 . S
C484 C485 1.348 . S
C484 C489 1.413 . S
C485 C484 1.348 . S
C485 C486 1.442 . S
C485 H512 0.930 . S
C486 C485 1.442 . S
C486 C487 1.381 . S
C486 H513 0.931 . S
C487 C486 1.381 . S
C487 C488 1.321 . S
C488 C487 1.321 . S
C488 C489 1.403 . S
C488 H514 0.934 . S
C489 C484 1.413 . S
C489 C488 1.403 . S
C489 H515 0.930 . S
C490 O504 1.275 . S
C490 O505 1.256 . S
C491 O506 1.259 . S
C491 O507 1.268 . S
C492 Ho481 2.811 . S
C492 C493 1.488 . S
C492 O508 1.215 . S
C492 O509 1.289 . S
C493 C492 1.488 . S
C493 C494 1.348 . S
C493 C498 1.413 . S
C494 C493 1.348 . S
C494 C495 1.442 . S
C494 H516 0.930 . S
C495 C494 1.442 . S
C495 C496 1.381 . S
C495 H517 0.931 . S
C496 C495 1.381 . S
C496 C497 1.321 . S
C497 C496 1.321 . S
C497 C498 1.403 . S
C497 H518 0.934 . S
C498 C493 1.413 . S
C498 C497 1.403 . S
C498 H519 0.930 . S
C499 O510 1.275 . S
C499 O511 1.256 . S
O500 Ho480 2.322 . S
O500 C482 1.259 . S
O501 Ho481 2.346 . S
O501 C482 1.268 . S
O502 Ho480 2.378 . S
O502 C483 1.215 . S
O503 Ho480 2.524 . S
O503 C483 1.289 . S
O504 Ho480 2.381 . S
O504 C490 1.275 . S
O505 Ho480 2.669 . S
O505 Ho481 2.305 . S
O505 C490 1.256 . S
O506 Ho481 2.322 . S
O506 C491 1.259 . S
O507 Ho480 2.346 . S
O507 C491 1.268 . S
O508 Ho481 2.378 . S
O508 C492 1.215 . S
O509 Ho481 2.524 . S
O509 C492 1.289 . S
O510 Ho481 2.381 . S
O510 C499 1.275 . S
O511 Ho480 2.305 . S
O511 Ho481 2.669 . S
O511 C499 1.256 . S
H512 C485 0.930 . S
H513 C486 0.931 . S
H514 C488 0.934 . S
H515 C489 0.930 . S
H516 C494 0.930 . S
H517 C495 0.931 . S
H518 C497 0.934 . S
H519 C498 0.930 . S
Ho520 C523 2.811 . S
Ho520 O540 2.322 . S
Ho520 O542 2.378 . S
Ho520 O543 2.524 . S
Ho520 O544 2.381 . S
Ho520 O545 2.669 . S
Ho520 O547 2.346 . S
Ho520 O551 2.305 . S
Ho521 C532 2.811 . S
Ho521 O541 2.346 . S
Ho521 O545 2.305 . S
Ho521 O546 2.322 . S
Ho521 O548 2.378 . S
Ho521 O549 2.524 . S
Ho521 O550 2.381 . S
Ho521 O551 2.669 . S
C522 O540 1.259 . S
C522 O541 1.268 . S
C523 Ho520 2.811 . S
C523 C524 1.488 . S
C523 O542 1.215 . S
C523 O543 1.289 . S
C524 C523 1.488 . S
C524 C525 1.348 . S
C524 C529 1.413 . S
C525 C524 1.348 . S
C525 C526 1.442 . S
C525 H552 0.930 . S
C526 C525 1.442 . S
C526 C527 1.381 . S
C526 H553 0.931 . S
C527 C526 1.381 . S
C527 C528 1.321 . S
C528 C527 1.321 . S
C528 C529 1.403 . S
C528 H554 0.934 . S
C529 C524 1.413 . S
C529 C528 1.403 . S
C529 H555 0.930 . S
C530 O544 1.275 . S
C530 O545 1.256 . S
C531 O546 1.259 . S
C531 O547 1.268 . S
C532 Ho521 2.811 . S
C532 C533 1.488 . S
C532 O548 1.215 . S
C532 O549 1.289 . S
C533 C532 1.488 . S
C533 C534 1.348 . S
C533 C538 1.413 . S
C534 C533 1.348 . S
C534 C535 1.442 . S
C534 H556 0.930 . S
C535 C534 1.442 . S
C535 C536 1.381 . S
C535 H557 0.931 . S
C536 C535 1.381 . S
C536 C537 1.321 . S
C537 C536 1.321 . S
C537 C538 1.403 . S
C537 H558 0.934 . S
C538 C533 1.413 . S
C538 C537 1.403 . S
C538 H559 0.930 . S
C539 O550 1.275 . S
C539 O551 1.256 . S
O540 Ho520 2.322 . S
O540 C522 1.259 . S
O541 Ho521 2.346 . S
O541 C522 1.268 . S
O542 Ho520 2.378 . S
O542 C523 1.215 . S
O543 Ho520 2.524 . S
O543 C523 1.289 . S
O544 Ho520 2.381 . S
O544 C530 1.275 . S
O545 Ho520 2.669 . S
O545 Ho521 2.305 . S
O545 C530 1.256 . S
O546 Ho521 2.322 . S
O546 C531 1.259 . S
O547 Ho520 2.346 . S
O547 C531 1.268 . S
O548 Ho521 2.378 . S
O548 C532 1.215 . S
O549 Ho521 2.524 . S
O549 C532 1.289 . S
O550 Ho521 2.381 . S
O550 C539 1.275 . S
O551 Ho520 2.305 . S
O551 Ho521 2.669 . S
O551 C539 1.256 . S
H552 C525 0.930 . S
H553 C526 0.931 . S
H554 C528 0.934 . S
H555 C529 0.930 . S
H556 C534 0.930 . S
H557 C535 0.931 . S
H558 C537 0.934 . S
H559 C538 0.930 . S
Ho560 C563 2.811 . S
Ho560 O580 2.322 . S
Ho560 O582 2.378 . S
Ho560 O583 2.524 . S
Ho560 O584 2.381 . S
Ho560 O585 2.669 . S
Ho560 O587 2.346 . S
Ho560 O591 2.305 . S
Ho561 C572 2.811 . S
Ho561 O581 2.346 . S
Ho561 O585 2.305 . S
Ho561 O586 2.322 . S
Ho561 O588 2.378 . S
Ho561 O589 2.524 . S
Ho561 O590 2.381 . S
Ho561 O591 2.669 . S
C562 O580 1.259 . S
C562 O581 1.268 . S
C563 Ho560 2.811 . S
C563 C564 1.488 . S
C563 O582 1.215 . S
C563 O583 1.289 . S
C564 C563 1.488 . S
C564 C565 1.348 . S
C564 C569 1.413 . S
C565 C564 1.348 . S
C565 C566 1.442 . S
C565 H592 0.930 . S
C566 C565 1.442 . S
C566 C567 1.381 . S
C566 H593 0.931 . S
C567 C566 1.381 . S
C567 C568 1.321 . S
C568 C567 1.321 . S
C568 C569 1.403 . S
C568 H594 0.934 . S
C569 C564 1.413 . S
C569 C568 1.403 . S
C569 H595 0.930 . S
C570 O584 1.275 . S
C570 O585 1.256 . S
C571 O586 1.259 . S
C571 O587 1.268 . S
C572 Ho561 2.811 . S
C572 C573 1.488 . S
C572 O588 1.215 . S
C572 O589 1.289 . S
C573 C572 1.488 . S
C573 C574 1.348 . S
C573 C578 1.413 . S
C574 C573 1.348 . S
C574 C575 1.442 . S
C574 H596 0.930 . S
C575 C574 1.442 . S
C575 C576 1.381 . S
C575 H597 0.931 . S
C576 C575 1.381 . S
C576 C577 1.321 . S
C577 C576 1.321 . S
C577 C578 1.403 . S
C577 H598 0.934 . S
C578 C573 1.413 . S
C578 C577 1.403 . S
C578 H599 0.930 . S
C579 O590 1.275 . S
C579 O591 1.256 . S
O580 Ho560 2.322 . S
O580 C562 1.259 . S
O581 Ho561 2.346 . S
O581 C562 1.268 . S
O582 Ho560 2.378 . S
O582 C563 1.215 . S
O583 Ho560 2.524 . S
O583 C563 1.289 . S
O584 Ho560 2.381 . S
O584 C570 1.275 . S
O585 Ho560 2.669 . S
O585 Ho561 2.305 . S
O585 C570 1.256 . S
O586 Ho561 2.322 . S
O586 C571 1.259 . S
O587 Ho560 2.346 . S
O587 C571 1.268 . S
O588 Ho561 2.378 . S
O588 C572 1.215 . S
O589 Ho561 2.524 . S
O589 C572 1.289 . S
O590 Ho561 2.381 . S
O590 C579 1.275 . S
O591 Ho560 2.305 . S
O591 Ho561 2.669 . S
O591 C579 1.256 . S
H592 C565 0.930 . S
H593 C566 0.931 . S
H594 C568 0.934 . S
H595 C569 0.930 . S
H596 C574 0.930 . S
H597 C575 0.931 . S
H598 C577 0.934 . S
H599 C578 0.930 . S
Ho600 C603 2.811 . S
Ho600 O620 2.322 . S
Ho600 O622 2.378 . S
Ho600 O623 2.524 . S
Ho600 O624 2.381 . S
Ho600 O625 2.669 . S
Ho600 O627 2.346 . S
Ho600 O631 2.305 . S
Ho601 C612 2.811 1_655 S
Ho601 O621 2.346 . S
Ho601 O625 2.305 . S
Ho601 O626 2.322 . S
Ho601 O628 2.378 1_655 S
Ho601 O629 2.524 1_655 S
Ho601 O630 2.381 . S
Ho601 O631 2.669 . S
C602 O620 1.259 . S
C602 O621 1.268 . S
C603 Ho600 2.811 . S
C603 C604 1.488 . S
C603 O622 1.215 . S
C603 O623 1.289 . S
C604 C603 1.488 . S
C604 C605 1.348 . S
C604 C609 1.413 . S
C605 C604 1.348 . S
C605 C606 1.442 . S
C605 H632 0.930 . S
C606 C605 1.442 . S
C606 C607 1.381 . S
C606 H633 0.931 . S
C607 C606 1.381 . S
C607 C608 1.321 . S
C608 C607 1.321 . S
C608 C609 1.403 . S
C608 H634 0.934 . S
C609 C604 1.413 . S
C609 C608 1.403 . S
C609 H635 0.930 . S
C610 O624 1.275 . S
C610 O625 1.256 . S
C611 O626 1.259 . S
C611 O627 1.268 . S
C612 Ho601 2.811 1_455 S
C612 C613 1.488 . S
C612 O628 1.215 . S
C612 O629 1.289 . S
C613 C612 1.488 . S
C613 C614 1.348 . S
C613 C618 1.413 . S
C614 C613 1.348 . S
C614 C615 1.442 . S
C614 H636 0.930 . S
C615 C614 1.442 . S
C615 C616 1.381 . S
C615 H637 0.931 . S
C616 C615 1.381 . S
C616 C617 1.321 . S
C617 C616 1.321 . S
C617 C618 1.403 . S
C617 H638 0.934 . S
C618 C613 1.413 . S
C618 C617 1.403 . S
C618 H639 0.930 . S
C619 O630 1.275 . S
C619 O631 1.256 . S
O620 Ho600 2.322 . S
O620 C602 1.259 . S
O621 Ho601 2.346 . S
O621 C602 1.268 . S
O622 Ho600 2.378 . S
O622 C603 1.215 . S
O623 Ho600 2.524 . S
O623 C603 1.289 . S
O624 Ho600 2.381 . S
O624 C610 1.275 . S
O625 Ho600 2.669 . S
O625 Ho601 2.305 . S
O625 C610 1.256 . S
O626 Ho601 2.322 . S
O626 C611 1.259 . S
O627 Ho600 2.346 . S
O627 C611 1.268 . S
O628 Ho601 2.378 1_455 S
O628 C612 1.215 . S
O629 Ho601 2.524 1_455 S
O629 C612 1.289 . S
O630 Ho601 2.381 . S
O630 C619 1.275 . S
O631 Ho600 2.305 . S
O631 Ho601 2.669 . S
O631 C619 1.256 . S
H632 C605 0.930 . S
H633 C606 0.931 . S
H634 C608 0.934 . S
H635 C609 0.930 . S
H636 C614 0.930 . S
H637 C615 0.931 . S
H638 C617 0.934 . S
H639 C618 0.930 . S
Ho640 C643 2.811 . S
Ho640 O660 2.322 . S
Ho640 O662 2.378 . S
Ho640 O663 2.524 . S
Ho640 O664 2.381 . S
Ho640 O665 2.669 . S
Ho640 O667 2.346 . S
Ho640 O671 2.305 . S
Ho641 C652 2.811 . S
Ho641 O661 2.346 . S
Ho641 O665 2.305 . S
Ho641 O666 2.322 . S
Ho641 O668 2.378 . S
Ho641 O669 2.524 . S
Ho641 O670 2.381 . S
Ho641 O671 2.669 . S
C642 O660 1.259 . S
C642 O661 1.268 . S
C643 Ho640 2.811 . S
C643 C644 1.488 . S
C643 O662 1.215 . S
C643 O663 1.289 . S
C644 C643 1.488 . S
C644 C645 1.348 . S
C644 C649 1.413 . S
C645 C644 1.348 . S
C645 C646 1.442 . S
C645 H672 0.930 . S
C646 C645 1.442 . S
C646 C647 1.381 . S
C646 H673 0.931 . S
C647 C646 1.381 . S
C647 C648 1.321 . S
C648 C647 1.321 . S
C648 C649 1.403 . S
C648 H674 0.934 . S
C649 C644 1.413 . S
C649 C648 1.403 . S
C649 H675 0.930 . S
C650 O664 1.275 . S
C650 O665 1.256 . S
C651 O666 1.259 . S
C651 O667 1.268 . S
C652 Ho641 2.811 . S
C652 C653 1.488 . S
C652 O668 1.215 . S
C652 O669 1.289 . S
C653 C652 1.488 . S
C653 C654 1.348 . S
C653 C658 1.413 . S
C654 C653 1.348 . S
C654 C655 1.442 . S
C654 H676 0.930 . S
C655 C654 1.442 . S
C655 C656 1.381 . S
C655 H677 0.931 . S
C656 C655 1.381 . S
C656 C657 1.321 . S
C657 C656 1.321 . S
C657 C658 1.403 . S
C657 H678 0.934 . S
C658 C653 1.413 . S
C658 C657 1.403 . S
C658 H679 0.930 . S
C659 O670 1.275 . S
C659 O671 1.256 . S
O660 Ho640 2.322 . S
O660 C642 1.259 . S
O661 Ho641 2.346 . S
O661 C642 1.268 . S
O662 Ho640 2.378 . S
O662 C643 1.215 . S
O663 Ho640 2.524 . S
O663 C643 1.289 . S
O664 Ho640 2.381 . S
O664 C650 1.275 . S
O665 Ho640 2.669 . S
O665 Ho641 2.305 . S
O665 C650 1.256 . S
O666 Ho641 2.322 . S
O666 C651 1.259 . S
O667 Ho640 2.346 . S
O667 C651 1.268 . S
O668 Ho641 2.378 . S
O668 C652 1.215 . S
O669 Ho641 2.524 . S
O669 C652 1.289 . S
O670 Ho641 2.381 . S
O670 C659 1.275 . S
O671 Ho640 2.305 . S
O671 Ho641 2.669 . S
O671 C659 1.256 . S
H672 C645 0.930 . S
H673 C646 0.931 . S
H674 C648 0.934 . S
H675 C649 0.930 . S
H676 C654 0.930 . S
H677 C655 0.931 . S
H678 C657 0.934 . S
H679 C658 0.930 . S
Ho680 C683 2.811 . S
Ho680 O700 2.322 . S
Ho680 O702 2.378 . S
Ho680 O703 2.524 . S
Ho680 O704 2.381 . S
Ho680 O705 2.669 . S
Ho680 O707 2.346 . S
Ho680 O711 2.305 . S
Ho681 C692 2.811 . S
Ho681 O701 2.346 . S
Ho681 O705 2.305 . S
Ho681 O706 2.322 . S
Ho681 O708 2.378 . S
Ho681 O709 2.524 . S
Ho681 O710 2.381 . S
Ho681 O711 2.669 . S
C682 O700 1.259 . S
C682 O701 1.268 . S
C683 Ho680 2.811 . S
C683 C684 1.488 . S
C683 O702 1.215 . S
C683 O703 1.289 . S
C684 C683 1.488 . S
C684 C685 1.348 . S
C684 C689 1.413 . S
C685 C684 1.348 . S
C685 C686 1.442 . S
C685 H712 0.930 . S
C686 C685 1.442 . S
C686 C687 1.381 . S
C686 H713 0.931 . S
C687 C686 1.381 . S
C687 C688 1.321 . S
C688 C687 1.321 . S
C688 C689 1.403 . S
C688 H714 0.934 . S
C689 C684 1.413 . S
C689 C688 1.403 . S
C689 H715 0.930 . S
C690 O704 1.275 . S
C690 O705 1.256 . S
C691 O706 1.259 . S
C691 O707 1.268 . S
C692 Ho681 2.811 . S
C692 C693 1.488 . S
C692 O708 1.215 . S
C692 O709 1.289 . S
C693 C692 1.488 . S
C693 C694 1.348 . S
C693 C698 1.413 . S
C694 C693 1.348 . S
C694 C695 1.442 . S
C694 H716 0.930 . S
C695 C694 1.442 . S
C695 C696 1.381 . S
C695 H717 0.931 . S
C696 C695 1.381 . S
C696 C697 1.321 . S
C697 C696 1.321 . S
C697 C698 1.403 . S
C697 H718 0.934 . S
C698 C693 1.413 . S
C698 C697 1.403 . S
C698 H719 0.930 . S
C699 O710 1.275 . S
C699 O711 1.256 . S
O700 Ho680 2.322 . S
O700 C682 1.259 . S
O701 Ho681 2.346 . S
O701 C682 1.268 . S
O702 Ho680 2.378 . S
O702 C683 1.215 . S
O703 Ho680 2.524 . S
O703 C683 1.289 . S
O704 Ho680 2.381 . S
O704 C690 1.275 . S
O705 Ho680 2.669 . S
O705 Ho681 2.305 . S
O705 C690 1.256 . S
O706 Ho681 2.322 . S
O706 C691 1.259 . S
O707 Ho680 2.346 . S
O707 C691 1.268 . S
O708 Ho681 2.378 . S
O708 C692 1.215 . S
O709 Ho681 2.524 . S
O709 C692 1.289 . S
O710 Ho681 2.381 . S
O710 C699 1.275 . S
O711 Ho680 2.305 . S
O711 Ho681 2.669 . S
O711 C699 1.256 . S
H712 C685 0.930 . S
H713 C686 0.931 . S
H714 C688 0.934 . S
H715 C689 0.930 . S
H716 C694 0.930 . S
H717 C695 0.931 . S
H718 C697 0.934 . S
H719 C698 0.930 . S
Ho720 C723 2.811 . S
Ho720 O740 2.322 . S
Ho720 O742 2.378 . S
Ho720 O743 2.524 . S
Ho720 O744 2.381 . S
Ho720 O745 2.669 . S
Ho720 O747 2.346 . S
Ho720 O751 2.305 . S
Ho721 C732 2.811 . S
Ho721 O741 2.346 . S
Ho721 O745 2.305 . S
Ho721 O746 2.322 . S
Ho721 O748 2.378 . S
Ho721 O749 2.524 . S
Ho721 O750 2.381 . S
Ho721 O751 2.669 . S
C722 O740 1.259 . S
C722 O741 1.268 . S
C723 Ho720 2.811 . S
C723 C724 1.488 . S
C723 O742 1.215 . S
C723 O743 1.289 . S
C724 C723 1.488 . S
C724 C725 1.348 . S
C724 C729 1.413 . S
C725 C724 1.348 . S
C725 C726 1.442 . S
C725 H752 0.930 . S
C726 C725 1.442 . S
C726 C727 1.381 . S
C726 H753 0.931 . S
C727 C726 1.381 . S
C727 C728 1.321 . S
C728 C727 1.321 . S
C728 C729 1.403 . S
C728 H754 0.934 . S
C729 C724 1.413 . S
C729 C728 1.403 . S
C729 H755 0.930 . S
C730 O744 1.275 . S
C730 O745 1.256 . S
C731 O746 1.259 . S
C731 O747 1.268 . S
C732 Ho721 2.811 . S
C732 C733 1.488 . S
C732 O748 1.215 . S
C732 O749 1.289 . S
C733 C732 1.488 . S
C733 C734 1.348 . S
C733 C738 1.413 . S
C734 C733 1.348 . S
C734 C735 1.442 . S
C734 H756 0.930 . S
C735 C734 1.442 . S
C735 C736 1.381 . S
C735 H757 0.931 . S
C736 C735 1.381 . S
C736 C737 1.321 . S
C737 C736 1.321 . S
C737 C738 1.403 . S
C737 H758 0.934 . S
C738 C733 1.413 . S
C738 C737 1.403 . S
C738 H759 0.930 . S
C739 O750 1.275 . S
C739 O751 1.256 . S
O740 Ho720 2.322 . S
O740 C722 1.259 . S
O741 Ho721 2.346 . S
O741 C722 1.268 . S
O742 Ho720 2.378 . S
O742 C723 1.215 . S
O743 Ho720 2.524 . S
O743 C723 1.289 . S
O744 Ho720 2.381 . S
O744 C730 1.275 . S
O745 Ho720 2.669 . S
O745 Ho721 2.305 . S
O745 C730 1.256 . S
O746 Ho721 2.322 . S
O746 C731 1.259 . S
O747 Ho720 2.346 . S
O747 C731 1.268 . S
O748 Ho721 2.378 . S
O748 C732 1.215 . S
O749 Ho721 2.524 . S
O749 C732 1.289 . S
O750 Ho721 2.381 . S
O750 C739 1.275 . S
O751 Ho720 2.305 . S
O751 Ho721 2.669 . S
O751 C739 1.256 . S
H752 C725 0.930 . S
H753 C726 0.931 . S
H754 C728 0.934 . S
H755 C729 0.930 . S
H756 C734 0.930 . S
H757 C735 0.931 . S
H758 C737 0.934 . S
H759 C738 0.930 . S
Ho760 C763 2.811 1_655 S
Ho760 O780 2.322 . S
Ho760 O782 2.378 1_655 S
Ho760 O783 2.524 1_655 S
Ho760 O784 2.381 . S
Ho760 O785 2.669 . S
Ho760 O787 2.346 . S
Ho760 O791 2.305 . S
Ho761 C772 2.811 . S
Ho761 O781 2.346 . S
Ho761 O785 2.305 . S
Ho761 O786 2.322 . S
Ho761 O788 2.378 . S
Ho761 O789 2.524 . S
Ho761 O790 2.381 . S
Ho761 O791 2.669 . S
C762 O780 1.259 . S
C762 O781 1.268 . S
C763 Ho760 2.811 1_455 S
C763 C764 1.488 . S
C763 O782 1.215 . S
C763 O783 1.289 . S
C764 C763 1.488 . S
C764 C765 1.348 . S
C764 C769 1.413 . S
C765 C764 1.348 . S
C765 C766 1.442 . S
C765 H792 0.930 . S
C766 C765 1.442 . S
C766 C767 1.381 . S
C766 H793 0.931 . S
C767 C766 1.381 . S
C767 C768 1.321 . S
C768 C767 1.321 . S
C768 C769 1.403 . S
C768 H794 0.934 . S
C769 C764 1.413 . S
C769 C768 1.403 . S
C769 H795 0.930 . S
C770 O784 1.275 . S
C770 O785 1.256 . S
C771 O786 1.259 . S
C771 O787 1.268 . S
C772 Ho761 2.811 . S
C772 C773 1.488 . S
C772 O788 1.215 . S
C772 O789 1.289 . S
C773 C772 1.488 . S
C773 C774 1.348 . S
C773 C778 1.413 . S
C774 C773 1.348 . S
C774 C775 1.442 . S
C774 H796 0.930 . S
C775 C774 1.442 . S
C775 C776 1.381 . S
C775 H797 0.931 . S
C776 C775 1.381 . S
C776 C777 1.321 . S
C777 C776 1.321 . S
C777 C778 1.403 . S
C777 H798 0.934 . S
C778 C773 1.413 . S
C778 C777 1.403 . S
C778 H799 0.930 . S
C779 O790 1.275 . S
C779 O791 1.256 . S
O780 Ho760 2.322 . S
O780 C762 1.259 . S
O781 Ho761 2.346 . S
O781 C762 1.268 . S
O782 Ho760 2.378 1_455 S
O782 C763 1.215 . S
O783 Ho760 2.524 1_455 S
O783 C763 1.289 . S
O784 Ho760 2.381 . S
O784 C770 1.275 . S
O785 Ho760 2.669 . S
O785 Ho761 2.305 . S
O785 C770 1.256 . S
O786 Ho761 2.322 . S
O786 C771 1.259 . S
O787 Ho760 2.346 . S
O787 C771 1.268 . S
O788 Ho761 2.378 . S
O788 C772 1.215 . S
O789 Ho761 2.524 . S
O789 C772 1.289 . S
O790 Ho761 2.381 . S
O790 C779 1.275 . S
O791 Ho760 2.305 . S
O791 Ho761 2.669 . S
O791 C779 1.256 . S
H792 C765 0.930 . S
H793 C766 0.931 . S
H794 C768 0.934 . S
H795 C769 0.930 . S
H796 C774 0.930 . S
H797 C775 0.931 . S
H798 C777 0.934 . S
H799 C778 0.930 . S
Ho800 C803 2.811 . S
Ho800 O820 2.322 . S
Ho800 O822 2.378 . S
Ho800 O823 2.524 . S
Ho800 O824 2.381 . S
Ho800 O825 2.669 . S
Ho800 O827 2.346 . S
Ho800 O831 2.305 . S
Ho801 C812 2.811 . S
Ho801 O821 2.346 . S
Ho801 O825 2.305 . S
Ho801 O826 2.322 . S
Ho801 O828 2.378 . S
Ho801 O829 2.524 . S
Ho801 O830 2.381 . S
Ho801 O831 2.669 . S
C802 O820 1.259 . S
C802 O821 1.268 . S
C803 Ho800 2.811 . S
C803 C804 1.488 . S
C803 O822 1.215 . S
C803 O823 1.289 . S
C804 C803 1.488 . S
C804 C805 1.348 . S
C804 C809 1.413 . S
C805 C804 1.348 . S
C805 C806 1.442 . S
C805 H832 0.930 . S
C806 C805 1.442 . S
C806 C807 1.381 . S
C806 H833 0.931 . S
C807 C806 1.381 . S
C807 C808 1.321 . S
C808 C807 1.321 . S
C808 C809 1.403 . S
C808 H834 0.934 . S
C809 C804 1.413 . S
C809 C808 1.403 . S
C809 H835 0.930 . S
C810 O824 1.275 . S
C810 O825 1.256 . S
C811 O826 1.259 . S
C811 O827 1.268 . S
C812 Ho801 2.811 . S
C812 C813 1.488 . S
C812 O828 1.215 . S
C812 O829 1.289 . S
C813 C812 1.488 . S
C813 C814 1.348 . S
C813 C818 1.413 . S
C814 C813 1.348 . S
C814 C815 1.442 . S
C814 H836 0.930 . S
C815 C814 1.442 . S
C815 C816 1.381 . S
C815 H837 0.931 . S
C816 C815 1.381 . S
C816 C817 1.321 . S
C817 C816 1.321 . S
C817 C818 1.403 . S
C817 H838 0.934 . S
C818 C813 1.413 . S
C818 C817 1.403 . S
C818 H839 0.930 . S
C819 O830 1.275 . S
C819 O831 1.256 . S
O820 Ho800 2.322 . S
O820 C802 1.259 . S
O821 Ho801 2.346 . S
O821 C802 1.268 . S
O822 Ho800 2.378 . S
O822 C803 1.215 . S
O823 Ho800 2.524 . S
O823 C803 1.289 . S
O824 Ho800 2.381 . S
O824 C810 1.275 . S
O825 Ho800 2.669 . S
O825 Ho801 2.305 . S
O825 C810 1.256 . S
O826 Ho801 2.322 . S
O826 C811 1.259 . S
O827 Ho800 2.346 . S
O827 C811 1.268 . S
O828 Ho801 2.378 . S
O828 C812 1.215 . S
O829 Ho801 2.524 . S
O829 C812 1.289 . S
O830 Ho801 2.381 . S
O830 C819 1.275 . S
O831 Ho800 2.305 . S
O831 Ho801 2.669 . S
O831 C819 1.256 . S
H832 C805 0.930 . S
H833 C806 0.931 . S
H834 C808 0.934 . S
H835 C809 0.930 . S
H836 C814 0.930 . S
H837 C815 0.931 . S
H838 C817 0.934 . S
H839 C818 0.930 . S
Ho840 C843 2.811 1_655 S
Ho840 O860 2.322 . S
Ho840 O862 2.378 1_655 S
Ho840 O863 2.524 1_655 S
Ho840 O864 2.381 . S
Ho840 O865 2.669 . S
Ho840 O867 2.346 . S
Ho840 O871 2.305 . S
Ho841 C852 2.811 . S
Ho841 O861 2.346 . S
Ho841 O865 2.305 . S
Ho841 O866 2.322 . S
Ho841 O868 2.378 . S
Ho841 O869 2.524 . S
Ho841 O870 2.381 . S
Ho841 O871 2.669 . S
C842 O860 1.259 . S
C842 O861 1.268 . S
C843 Ho840 2.811 1_455 S
C843 C844 1.488 . S
C843 O862 1.215 . S
C843 O863 1.289 . S
C844 C843 1.488 . S
C844 C845 1.348 . S
C844 C849 1.413 . S
C845 C844 1.348 . S
C845 C846 1.442 . S
C845 H872 0.930 . S
C846 C845 1.442 . S
C846 C847 1.381 . S
C846 H873 0.931 . S
C847 C846 1.381 . S
C847 C848 1.321 . S
C848 C847 1.321 . S
C848 C849 1.403 . S
C848 H874 0.934 . S
C849 C844 1.413 . S
C849 C848 1.403 . S
C849 H875 0.930 . S
C850 O864 1.275 . S
C850 O865 1.256 . S
C851 O866 1.259 . S
C851 O867 1.268 . S
C852 Ho841 2.811 . S
C852 C853 1.488 . S
C852 O868 1.215 . S
C852 O869 1.289 . S
C853 C852 1.488 . S
C853 C854 1.348 . S
C853 C858 1.413 . S
C854 C853 1.348 . S
C854 C855 1.442 . S
C854 H876 0.930 . S
C855 C854 1.442 . S
C855 C856 1.381 . S
C855 H877 0.931 . S
C856 C855 1.381 . S
C856 C857 1.321 . S
C857 C856 1.321 . S
C857 C858 1.403 . S
C857 H878 0.934 . S
C858 C853 1.413 . S
C858 C857 1.403 . S
C858 H879 0.930 . S
C859 O870 1.275 . S
C859 O871 1.256 . S
O860 Ho840 2.322 . S
O860 C842 1.259 . S
O861 Ho841 2.346 . S
O861 C842 1.268 . S
O862 Ho840 2.378 1_455 S
O862 C843 1.215 . S
O863 Ho840 2.524 1_455 S
O863 C843 1.289 . S
O864 Ho840 2.381 . S
O864 C850 1.275 . S
O865 Ho840 2.669 . S
O865 Ho841 2.305 . S
O865 C850 1.256 . S
O866 Ho841 2.322 . S
O866 C851 1.259 . S
O867 Ho840 2.346 . S
O867 C851 1.268 . S
O868 Ho841 2.378 . S
O868 C852 1.215 . S
O869 Ho841 2.524 . S
O869 C852 1.289 . S
O870 Ho841 2.381 . S
O870 C859 1.275 . S
O871 Ho840 2.305 . S
O871 Ho841 2.669 . S
O871 C859 1.256 . S
H872 C845 0.930 . S
H873 C846 0.931 . S
H874 C848 0.934 . S
H875 C849 0.930 . S
H876 C854 0.930 . S
H877 C855 0.931 . S
H878 C857 0.934 . S
H879 C858 0.930 . S
Ho880 C883 2.811 . S
Ho880 O900 2.322 . S
Ho880 O902 2.378 . S
Ho880 O903 2.524 . S
Ho880 O904 2.381 . S
Ho880 O905 2.669 . S
Ho880 O907 2.346 . S
Ho880 O911 2.305 . S
Ho881 C892 2.811 . S
Ho881 O901 2.346 . S
Ho881 O905 2.305 . S
Ho881 O906 2.322 . S
Ho881 O908 2.378 . S
Ho881 O909 2.524 . S
Ho881 O910 2.381 . S
Ho881 O911 2.669 . S
C882 O900 1.259 . S
C882 O901 1.268 . S
C883 Ho880 2.811 . S
C883 C884 1.488 . S
C883 O902 1.215 . S
C883 O903 1.289 . S
C884 C883 1.488 . S
C884 C885 1.348 . S
C884 C889 1.413 . S
C885 C884 1.348 . S
C885 C886 1.442 . S
C885 H912 0.930 . S
C886 C885 1.442 . S
C886 C887 1.381 . S
C886 H913 0.931 . S
C887 C886 1.381 . S
C887 C888 1.321 . S
C888 C887 1.321 . S
C888 C889 1.403 . S
C888 H914 0.934 . S
C889 C884 1.413 . S
C889 C888 1.403 . S
C889 H915 0.930 . S
C890 O904 1.275 . S
C890 O905 1.256 . S
C891 O906 1.259 . S
C891 O907 1.268 . S
C892 Ho881 2.811 . S
C892 C893 1.488 . S
C892 O908 1.215 . S
C892 O909 1.289 . S
C893 C892 1.488 . S
C893 C894 1.348 . S
C893 C898 1.413 . S
C894 C893 1.348 . S
C894 C895 1.442 . S
C894 H916 0.930 . S
C895 C894 1.442 . S
C895 C896 1.381 . S
C895 H917 0.931 . S
C896 C895 1.381 . S
C896 C897 1.321 . S
C897 C896 1.321 . S
C897 C898 1.403 . S
C897 H918 0.934 . S
C898 C893 1.413 . S
C898 C897 1.403 . S
C898 H919 0.930 . S
C899 O910 1.275 . S
C899 O911 1.256 . S
O900 Ho880 2.322 . S
O900 C882 1.259 . S
O901 Ho881 2.346 . S
O901 C882 1.268 . S
O902 Ho880 2.378 . S
O902 C883 1.215 . S
O903 Ho880 2.524 . S
O903 C883 1.289 . S
O904 Ho880 2.381 . S
O904 C890 1.275 . S
O905 Ho880 2.669 . S
O905 Ho881 2.305 . S
O905 C890 1.256 . S
O906 Ho881 2.322 . S
O906 C891 1.259 . S
O907 Ho880 2.346 . S
O907 C891 1.268 . S
O908 Ho881 2.378 . S
O908 C892 1.215 . S
O909 Ho881 2.524 . S
O909 C892 1.289 . S
O910 Ho881 2.381 . S
O910 C899 1.275 . S
O911 Ho880 2.305 . S
O911 Ho881 2.669 . S
O911 C899 1.256 . S
H912 C885 0.930 . S
H913 C886 0.931 . S
H914 C888 0.934 . S
H915 C889 0.930 . S
H916 C894 0.930 . S
H917 C895 0.931 . S
H918 C897 0.934 . S
H919 C898 0.930 . S
Ho920 C923 2.811 . S
Ho920 O940 2.322 . S
Ho920 O942 2.378 . S
Ho920 O943 2.524 . S
Ho920 O944 2.381 . S
Ho920 O945 2.669 . S
Ho920 O947 2.346 . S
Ho920 O951 2.305 . S
Ho921 C932 2.811 . S
Ho921 O941 2.346 . S
Ho921 O945 2.305 . S
Ho921 O946 2.322 . S
Ho921 O948 2.378 . S
Ho921 O949 2.524 . S
Ho921 O950 2.381 . S
Ho921 O951 2.669 . S
C922 O940 1.259 . S
C922 O941 1.268 . S
C923 Ho920 2.811 . S
C923 C924 1.488 . S
C923 O942 1.215 . S
C923 O943 1.289 . S
C924 C923 1.488 . S
C924 C925 1.348 . S
C924 C929 1.413 . S
C925 C924 1.348 . S
C925 C926 1.442 . S
C925 H952 0.930 . S
C926 C925 1.442 . S
C926 C927 1.381 . S
C926 H953 0.931 . S
C927 C926 1.381 . S
C927 C928 1.321 . S
C928 C927 1.321 . S
C928 C929 1.403 . S
C928 H954 0.934 . S
C929 C924 1.413 . S
C929 C928 1.403 . S
C929 H955 0.930 . S
C930 O944 1.275 . S
C930 O945 1.256 . S
C931 O946 1.259 . S
C931 O947 1.268 . S
C932 Ho921 2.811 . S
C932 C933 1.488 . S
C932 O948 1.215 . S
C932 O949 1.289 . S
C933 C932 1.488 . S
C933 C934 1.348 . S
C933 C938 1.413 . S
C934 C933 1.348 . S
C934 C935 1.442 . S
C934 H956 0.930 . S
C935 C934 1.442 . S
C935 C936 1.381 . S
C935 H957 0.931 . S
C936 C935 1.381 . S
C936 C937 1.321 . S
C937 C936 1.321 . S
C937 C938 1.403 . S
C937 H958 0.934 . S
C938 C933 1.413 . S
C938 C937 1.403 . S
C938 H959 0.930 . S
C939 O950 1.275 . S
C939 O951 1.256 . S
O940 Ho920 2.322 . S
O940 C922 1.259 . S
O941 Ho921 2.346 . S
O941 C922 1.268 . S
O942 Ho920 2.378 . S
O942 C923 1.215 . S
O943 Ho920 2.524 . S
O943 C923 1.289 . S
O944 Ho920 2.381 . S
O944 C930 1.275 . S
O945 Ho920 2.669 . S
O945 Ho921 2.305 . S
O945 C930 1.256 . S
O946 Ho921 2.322 . S
O946 C931 1.259 . S
O947 Ho920 2.346 . S
O947 C931 1.268 . S
O948 Ho921 2.378 . S
O948 C932 1.215 . S
O949 Ho921 2.524 . S
O949 C932 1.289 . S
O950 Ho921 2.381 . S
O950 C939 1.275 . S
O951 Ho920 2.305 . S
O951 Ho921 2.669 . S
O951 C939 1.256 . S
H952 C925 0.930 . S
H953 C926 0.931 . S
H954 C928 0.934 . S
H955 C929 0.930 . S
H956 C934 0.930 . S
H957 C935 0.931 . S
H958 C937 0.934 . S
H959 C938 0.930 . S
Ho960 C963 2.811 . S
Ho960 O980 2.322 . S
Ho960 O982 2.378 . S
Ho960 O983 2.524 . S
Ho960 O984 2.381 . S
Ho960 O985 2.669 . S
Ho960 O987 2.346 . S
Ho960 O991 2.305 . S
Ho961 C972 2.811 . S
Ho961 O981 2.346 . S
Ho961 O985 2.305 . S
Ho961 O986 2.322 . S
Ho961 O988 2.378 . S
Ho961 O989 2.524 . S
Ho961 O990 2.381 . S
Ho961 O991 2.669 . S
C962 O980 1.259 . S
C962 O981 1.268 . S
C963 Ho960 2.811 . S
C963 C964 1.488 . S
C963 O982 1.215 . S
C963 O983 1.289 . S
C964 C963 1.488 . S
C964 C965 1.348 . S
C964 C969 1.413 . S
C965 C964 1.348 . S
C965 C966 1.442 . S
C965 H992 0.930 . S
C966 C965 1.442 . S
C966 C967 1.381 . S
C966 H993 0.931 . S
C967 C966 1.381 . S
C967 C968 1.321 . S
C968 C967 1.321 . S
C968 C969 1.403 . S
C968 H994 0.934 . S
C969 C964 1.413 . S
C969 C968 1.403 . S
C969 H995 0.930 . S
C970 O984 1.275 . S
C970 O985 1.256 . S
C971 O986 1.259 . S
C971 O987 1.268 . S
C972 Ho961 2.811 . S
C972 C973 1.488 . S
C972 O988 1.215 . S
C972 O989 1.289 . S
C973 C972 1.488 . S
C973 C974 1.348 . S
C973 C978 1.413 . S
C974 C973 1.348 . S
C974 C975 1.442 . S
C974 H996 0.930 . S
C975 C974 1.442 . S
C975 C976 1.381 . S
C975 H997 0.931 . S
C976 C975 1.381 . S
C976 C977 1.321 . S
C977 C976 1.321 . S
C977 C978 1.403 . S
C977 H998 0.934 . S
C978 C973 1.413 . S
C978 C977 1.403 . S
C978 H999 0.930 . S
C979 O990 1.275 . S
C979 O991 1.256 . S
O980 Ho960 2.322 . S
O980 C962 1.259 . S
O981 Ho961 2.346 . S
O981 C962 1.268 . S
O982 Ho960 2.378 . S
O982 C963 1.215 . S
O983 Ho960 2.524 . S
O983 C963 1.289 . S
O984 Ho960 2.381 . S
O984 C970 1.275 . S
O985 Ho960 2.669 . S
O985 Ho961 2.305 . S
O985 C970 1.256 . S
O986 Ho961 2.322 . S
O986 C971 1.259 . S
O987 Ho960 2.346 . S
O987 C971 1.268 . S
O988 Ho961 2.378 . S
O988 C972 1.215 . S
O989 Ho961 2.524 . S
O989 C972 1.289 . S
O990 Ho961 2.381 . S
O990 C979 1.275 . S
O991 Ho960 2.305 . S
O991 Ho961 2.669 . S
O991 C979 1.256 . S
H992 C965 0.930 . S
H993 C966 0.931 . S
H994 C968 0.934 . S
H995 C969 0.930 . S
H996 C974 0.930 . S
H997 C975 0.931 . S
H998 C977 0.934 . S
H999 C978 0.930 . S
Ho1000 C1003 2.811 . S
Ho1000 O1020 2.322 . S
Ho1000 O1022 2.378 . S
Ho1000 O1023 2.524 . S
Ho1000 O1024 2.381 . S
Ho1000 O1025 2.669 . S
Ho1000 O1027 2.346 . S
Ho1000 O1031 2.305 . S
Ho1001 C1012 2.811 . S
Ho1001 O1021 2.346 . S
Ho1001 O1025 2.305 . S
Ho1001 O1026 2.322 . S
Ho1001 O1028 2.378 . S
Ho1001 O1029 2.524 . S
Ho1001 O1030 2.381 . S
Ho1001 O1031 2.669 . S
C1002 O1020 1.259 . S
C1002 O1021 1.268 . S
C1003 Ho1000 2.811 . S
C1003 C1004 1.488 . S
C1003 O1022 1.215 . S
C1003 O1023 1.289 . S
C1004 C1003 1.488 . S
C1004 C1005 1.348 . S
C1004 C1009 1.413 . S
C1005 C1004 1.348 . S
C1005 C1006 1.442 . S
C1005 H1032 0.930 . S
C1006 C1005 1.442 . S
C1006 C1007 1.381 . S
C1006 H1033 0.931 . S
C1007 C1006 1.381 . S
C1007 C1008 1.321 . S
C1008 C1007 1.321 . S
C1008 C1009 1.403 . S
C1008 H1034 0.934 . S
C1009 C1004 1.413 . S
C1009 C1008 1.403 . S
C1009 H1035 0.930 . S
C1010 O1024 1.275 . S
C1010 O1025 1.256 . S
C1011 O1026 1.259 . S
C1011 O1027 1.268 . S
C1012 Ho1001 2.811 . S
C1012 C1013 1.488 . S
C1012 O1028 1.215 . S
C1012 O1029 1.289 . S
C1013 C1012 1.488 . S
C1013 C1014 1.348 . S
C1013 C1018 1.413 . S
C1014 C1013 1.348 . S
C1014 C1015 1.442 . S
C1014 H1036 0.930 . S
C1015 C1014 1.442 . S
C1015 C1016 1.381 . S
C1015 H1037 0.931 . S
C1016 C1015 1.381 . S
C1016 C1017 1.321 . S
C1017 C1016 1.321 . S
C1017 C1018 1.403 . S
C1017 H1038 0.934 . S
C1018 C1013 1.413 . S
C1018 C1017 1.403 . S
C1018 H1039 0.930 . S
C1019 O1030 1.275 . S
C1019 O1031 1.256 . S
O1020 Ho1000 2.322 . S
O1020 C1002 1.259 . S
O1021 Ho1001 2.346 . S
O1021 C1002 1.268 . S
O1022 Ho1000 2.378 . S
O1022 C1003 1.215 . S
O1023 Ho1000 2.524 . S
O1023 C1003 1.289 . S
O1024 Ho1000 2.381 . S
O1024 C1010 1.275 . S
O1025 Ho1000 2.669 . S
O1025 Ho1001 2.305 . S
O1025 C1010 1.256 . S
O1026 Ho1001 2.322 . S
O1026 C1011 1.259 . S
O1027 Ho1000 2.346 . S
O1027 C1011 1.268 . S
O1028 Ho1001 2.378 . S
O1028 C1012 1.215 . S
O1029 Ho1001 2.524 . S
O1029 C1012 1.289 . S
O1030 Ho1001 2.381 . S
O1030 C1019 1.275 . S
O1031 Ho1000 2.305 . S
O1031 Ho1001 2.669 . S
O1031 C1019 1.256 . S
H1032 C1005 0.930 . S
H1033 C1006 0.931 . S
H1034 C1008 0.934 . S
H1035 C1009 0.930 . S
H1036 C1014 0.930 . S
H1037 C1015 0.931 . S
H1038 C1017 0.934 . S
H1039 C1018 0.930 . S
Ho1040 C1043 2.811 . S
Ho1040 O1060 2.322 . S
Ho1040 O1062 2.378 . S
Ho1040 O1063 2.524 . S
Ho1040 O1064 2.381 . S
Ho1040 O1065 2.669 . S
Ho1040 O1067 2.346 . S
Ho1040 O1071 2.305 . S
Ho1041 C1052 2.811 . S
Ho1041 O1061 2.346 . S
Ho1041 O1065 2.305 . S
Ho1041 O1066 2.322 . S
Ho1041 O1068 2.378 . S
Ho1041 O1069 2.524 . S
Ho1041 O1070 2.381 . S
Ho1041 O1071 2.669 . S
C1042 O1060 1.259 . S
C1042 O1061 1.268 . S
C1043 Ho1040 2.811 . S
C1043 C1044 1.488 . S
C1043 O1062 1.215 . S
C1043 O1063 1.289 . S
C1044 C1043 1.488 . S
C1044 C1045 1.348 . S
C1044 C1049 1.413 . S
C1045 C1044 1.348 . S
C1045 C1046 1.442 . S
C1045 H1072 0.930 . S
C1046 C1045 1.442 . S
C1046 C1047 1.381 . S
C1046 H1073 0.931 . S
C1047 C1046 1.381 . S
C1047 C1048 1.321 . S
C1048 C1047 1.321 . S
C1048 C1049 1.403 . S
C1048 H1074 0.934 . S
C1049 C1044 1.413 . S
C1049 C1048 1.403 . S
C1049 H1075 0.930 . S
C1050 O1064 1.275 . S
C1050 O1065 1.256 . S
C1051 O1066 1.259 . S
C1051 O1067 1.268 . S
C1052 Ho1041 2.811 . S
C1052 C1053 1.488 . S
C1052 O1068 1.215 . S
C1052 O1069 1.289 . S
C1053 C1052 1.488 . S
C1053 C1054 1.348 . S
C1053 C1058 1.413 . S
C1054 C1053 1.348 . S
C1054 C1055 1.442 . S
C1054 H1076 0.930 . S
C1055 C1054 1.442 . S
C1055 C1056 1.381 . S
C1055 H1077 0.931 . S
C1056 C1055 1.381 . S
C1056 C1057 1.321 . S
C1057 C1056 1.321 . S
C1057 C1058 1.403 . S
C1057 H1078 0.934 . S
C1058 C1053 1.413 . S
C1058 C1057 1.403 . S
C1058 H1079 0.930 . S
C1059 O1070 1.275 . S
C1059 O1071 1.256 . S
O1060 Ho1040 2.322 . S
O1060 C1042 1.259 . S
O1061 Ho1041 2.346 . S
O1061 C1042 1.268 . S
O1062 Ho1040 2.378 . S
O1062 C1043 1.215 . S
O1063 Ho1040 2.524 . S
O1063 C1043 1.289 . S
O1064 Ho1040 2.381 . S
O1064 C1050 1.275 . S
O1065 Ho1040 2.669 . S
O1065 Ho1041 2.305 . S
O1065 C1050 1.256 . S
O1066 Ho1041 2.322 . S
O1066 C1051 1.259 . S
O1067 Ho1040 2.346 . S
O1067 C1051 1.268 . S
O1068 Ho1041 2.378 . S
O1068 C1052 1.215 . S
O1069 Ho1041 2.524 . S
O1069 C1052 1.289 . S
O1070 Ho1041 2.381 . S
O1070 C1059 1.275 . S
O1071 Ho1040 2.305 . S
O1071 Ho1041 2.669 . S
O1071 C1059 1.256 . S
H1072 C1045 0.930 . S
H1073 C1046 0.931 . S
H1074 C1048 0.934 . S
H1075 C1049 0.930 . S
H1076 C1054 0.930 . S
H1077 C1055 0.931 . S
H1078 C1057 0.934 . S
H1079 C1058 0.930 . S
Ho1080 C1083 2.811 . S
Ho1080 O1100 2.322 . S
Ho1080 O1102 2.378 . S
Ho1080 O1103 2.524 . S
Ho1080 O1104 2.381 . S
Ho1080 O1105 2.669 . S
Ho1080 O1107 2.346 . S
Ho1080 O1111 2.305 . S
Ho1081 C1092 2.811 1_455 S
Ho1081 O1101 2.346 . S
Ho1081 O1105 2.305 . S
Ho1081 O1106 2.322 . S
Ho1081 O1108 2.378 1_455 S
Ho1081 O1109 2.524 1_455 S
Ho1081 O1110 2.381 . S
Ho1081 O1111 2.669 . S
C1082 O1100 1.259 . S
C1082 O1101 1.268 . S
C1083 Ho1080 2.811 . S
C1083 C1084 1.488 . S
C1083 O1102 1.215 . S
C1083 O1103 1.289 . S
C1084 C1083 1.488 . S
C1084 C1085 1.348 . S
C1084 C1089 1.413 . S
C1085 C1084 1.348 . S
C1085 C1086 1.442 . S
C1085 H1112 0.930 . S
C1086 C1085 1.442 . S
C1086 C1087 1.381 . S
C1086 H1113 0.931 . S
C1087 C1086 1.381 . S
C1087 C1088 1.321 . S
C1088 C1087 1.321 . S
C1088 C1089 1.403 . S
C1088 H1114 0.934 . S
C1089 C1084 1.413 . S
C1089 C1088 1.403 . S
C1089 H1115 0.930 . S
C1090 O1104 1.275 . S
C1090 O1105 1.256 . S
C1091 O1106 1.259 . S
C1091 O1107 1.268 . S
C1092 Ho1081 2.811 1_655 S
C1092 C1093 1.488 . S
C1092 O1108 1.215 . S
C1092 O1109 1.289 . S
C1093 C1092 1.488 . S
C1093 C1094 1.348 . S
C1093 C1098 1.413 . S
C1094 C1093 1.348 . S
C1094 C1095 1.442 . S
C1094 H1116 0.930 . S
C1095 C1094 1.442 . S
C1095 C1096 1.381 . S
C1095 H1117 0.931 . S
C1096 C1095 1.381 . S
C1096 C1097 1.321 . S
C1097 C1096 1.321 . S
C1097 C1098 1.403 . S
C1097 H1118 0.934 . S
C1098 C1093 1.413 . S
C1098 C1097 1.403 . S
C1098 H1119 0.930 . S
C1099 O1110 1.275 . S
C1099 O1111 1.256 . S
O1100 Ho1080 2.322 . S
O1100 C1082 1.259 . S
O1101 Ho1081 2.346 . S
O1101 C1082 1.268 . S
O1102 Ho1080 2.378 . S
O1102 C1083 1.215 . S
O1103 Ho1080 2.524 . S
O1103 C1083 1.289 . S
O1104 Ho1080 2.381 . S
O1104 C1090 1.275 . S
O1105 Ho1080 2.669 . S
O1105 Ho1081 2.305 . S
O1105 C1090 1.256 . S
O1106 Ho1081 2.322 . S
O1106 C1091 1.259 . S
O1107 Ho1080 2.346 . S
O1107 C1091 1.268 . S
O1108 Ho1081 2.378 1_655 S
O1108 C1092 1.215 . S
O1109 Ho1081 2.524 1_655 S
O1109 C1092 1.289 . S
O1110 Ho1081 2.381 . S
O1110 C1099 1.275 . S
O1111 Ho1080 2.305 . S
O1111 Ho1081 2.669 . S
O1111 C1099 1.256 . S
H1112 C1085 0.930 . S
H1113 C1086 0.931 . S
H1114 C1088 0.934 . S
H1115 C1089 0.930 . S
H1116 C1094 0.930 . S
H1117 C1095 0.931 . S
H1118 C1097 0.934 . S
H1119 C1098 0.930 . S
Ho1120 C1123 2.811 . S
Ho1120 O1140 2.322 . S
Ho1120 O1142 2.378 . S
Ho1120 O1143 2.524 . S
Ho1120 O1144 2.381 . S
Ho1120 O1145 2.669 . S
Ho1120 O1147 2.346 . S
Ho1120 O1151 2.305 . S
Ho1121 C1132 2.811 . S
Ho1121 O1141 2.346 . S
Ho1121 O1145 2.305 . S
Ho1121 O1146 2.322 . S
Ho1121 O1148 2.378 . S
Ho1121 O1149 2.524 . S
Ho1121 O1150 2.381 . S
Ho1121 O1151 2.669 . S
C1122 O1140 1.259 . S
C1122 O1141 1.268 . S
C1123 Ho1120 2.811 . S
C1123 C1124 1.488 . S
C1123 O1142 1.215 . S
C1123 O1143 1.289 . S
C1124 C1123 1.488 . S
C1124 C1125 1.348 . S
C1124 C1129 1.413 . S
C1125 C1124 1.348 . S
C1125 C1126 1.442 . S
C1125 H1152 0.930 . S
C1126 C1125 1.442 . S
C1126 C1127 1.381 . S
C1126 H1153 0.931 . S
C1127 C1126 1.381 . S
C1127 C1128 1.321 . S
C1128 C1127 1.321 . S
C1128 C1129 1.403 . S
C1128 H1154 0.934 . S
C1129 C1124 1.413 . S
C1129 C1128 1.403 . S
C1129 H1155 0.930 . S
C1130 O1144 1.275 . S
C1130 O1145 1.256 . S
C1131 O1146 1.259 . S
C1131 O1147 1.268 . S
C1132 Ho1121 2.811 . S
C1132 C1133 1.488 . S
C1132 O1148 1.215 . S
C1132 O1149 1.289 . S
C1133 C1132 1.488 . S
C1133 C1134 1.348 . S
C1133 C1138 1.413 . S
C1134 C1133 1.348 . S
C1134 C1135 1.442 . S
C1134 H1156 0.930 . S
C1135 C1134 1.442 . S
C1135 C1136 1.381 . S
C1135 H1157 0.931 . S
C1136 C1135 1.381 . S
C1136 C1137 1.321 . S
C1137 C1136 1.321 . S
C1137 C1138 1.403 . S
C1137 H1158 0.934 . S
C1138 C1133 1.413 . S
C1138 C1137 1.403 . S
C1138 H1159 0.930 . S
C1139 O1150 1.275 . S
C1139 O1151 1.256 . S
O1140 Ho1120 2.322 . S
O1140 C1122 1.259 . S
O1141 Ho1121 2.346 . S
O1141 C1122 1.268 . S
O1142 Ho1120 2.378 . S
O1142 C1123 1.215 . S
O1143 Ho1120 2.524 . S
O1143 C1123 1.289 . S
O1144 Ho1120 2.381 . S
O1144 C1130 1.275 . S
O1145 Ho1120 2.669 . S
O1145 Ho1121 2.305 . S
O1145 C1130 1.256 . S
O1146 Ho1121 2.322 . S
O1146 C1131 1.259 . S
O1147 Ho1120 2.346 . S
O1147 C1131 1.268 . S
O1148 Ho1121 2.378 . S
O1148 C1132 1.215 . S
O1149 Ho1121 2.524 . S
O1149 C1132 1.289 . S
O1150 Ho1121 2.381 . S
O1150 C1139 1.275 . S
O1151 Ho1120 2.305 . S
O1151 Ho1121 2.669 . S
O1151 C1139 1.256 . S
H1152 C1125 0.930 . S
H1153 C1126 0.931 . S
H1154 C1128 0.934 . S
H1155 C1129 0.930 . S
H1156 C1134 0.930 . S
H1157 C1135 0.931 . S
H1158 C1137 0.934 . S
H1159 C1138 0.930 . S
Ho1160 C1163 2.811 . S
Ho1160 O1180 2.322 . S
Ho1160 O1182 2.378 . S
Ho1160 O1183 2.524 . S
Ho1160 O1184 2.381 . S
Ho1160 O1185 2.669 . S
Ho1160 O1187 2.346 . S
Ho1160 O1191 2.305 . S
Ho1161 C1172 2.811 1_455 S
Ho1161 O1181 2.346 . S
Ho1161 O1185 2.305 . S
Ho1161 O1186 2.322 . S
Ho1161 O1188 2.378 1_455 S
Ho1161 O1189 2.524 1_455 S
Ho1161 O1190 2.381 . S
Ho1161 O1191 2.669 . S
C1162 O1180 1.259 . S
C1162 O1181 1.268 . S
C1163 Ho1160 2.811 . S
C1163 C1164 1.488 . S
C1163 O1182 1.215 . S
C1163 O1183 1.289 . S
C1164 C1163 1.488 . S
C1164 C1165 1.348 . S
C1164 C1169 1.413 . S
C1165 C1164 1.348 . S
C1165 C1166 1.442 . S
C1165 H1192 0.930 . S
C1166 C1165 1.442 . S
C1166 C1167 1.381 . S
C1166 H1193 0.931 . S
C1167 C1166 1.381 . S
C1167 C1168 1.321 . S
C1168 C1167 1.321 . S
C1168 C1169 1.403 . S
C1168 H1194 0.934 . S
C1169 C1164 1.413 . S
C1169 C1168 1.403 . S
C1169 H1195 0.930 . S
C1170 O1184 1.275 . S
C1170 O1185 1.256 . S
C1171 O1186 1.259 . S
C1171 O1187 1.268 . S
C1172 Ho1161 2.811 1_655 S
C1172 C1173 1.488 . S
C1172 O1188 1.215 . S
C1172 O1189 1.289 . S
C1173 C1172 1.488 . S
C1173 C1174 1.348 . S
C1173 C1178 1.413 . S
C1174 C1173 1.348 . S
C1174 C1175 1.442 . S
C1174 H1196 0.930 . S
C1175 C1174 1.442 . S
C1175 C1176 1.381 . S
C1175 H1197 0.931 . S
C1176 C1175 1.381 . S
C1176 C1177 1.321 . S
C1177 C1176 1.321 . S
C1177 C1178 1.403 . S
C1177 H1198 0.934 . S
C1178 C1173 1.413 . S
C1178 C1177 1.403 . S
C1178 H1199 0.930 . S
C1179 O1190 1.275 . S
C1179 O1191 1.256 . S
O1180 Ho1160 2.322 . S
O1180 C1162 1.259 . S
O1181 Ho1161 2.346 . S
O1181 C1162 1.268 . S
O1182 Ho1160 2.378 . S
O1182 C1163 1.215 . S
O1183 Ho1160 2.524 . S
O1183 C1163 1.289 . S
O1184 Ho1160 2.381 . S
O1184 C1170 1.275 . S
O1185 Ho1160 2.669 . S
O1185 Ho1161 2.305 . S
O1185 C1170 1.256 . S
O1186 Ho1161 2.322 . S
O1186 C1171 1.259 . S
O1187 Ho1160 2.346 . S
O1187 C1171 1.268 . S
O1188 Ho1161 2.378 1_655 S
O1188 C1172 1.215 . S
O1189 Ho1161 2.524 1_655 S
O1189 C1172 1.289 . S
O1190 Ho1161 2.381 . S
O1190 C1179 1.275 . S
O1191 Ho1160 2.305 . S
O1191 Ho1161 2.669 . S
O1191 C1179 1.256 . S
H1192 C1165 0.930 . S
H1193 C1166 0.931 . S
H1194 C1168 0.934 . S
H1195 C1169 0.930 . S
H1196 C1174 0.930 . S
H1197 C1175 0.931 . S
H1198 C1177 0.934 . S
H1199 C1178 0.930 . S
Ho1200 C1203 2.811 . S
Ho1200 O1220 2.322 . S
Ho1200 O1222 2.378 . S
Ho1200 O1223 2.524 . S
Ho1200 O1224 2.381 . S
Ho1200 O1225 2.669 . S
Ho1200 O1227 2.346 . S
Ho1200 O1231 2.305 . S
Ho1201 C1212 2.811 . S
Ho1201 O1221 2.346 . S
Ho1201 O1225 2.305 . S
Ho1201 O1226 2.322 . S
Ho1201 O1228 2.378 . S
Ho1201 O1229 2.524 . S
Ho1201 O1230 2.381 . S
Ho1201 O1231 2.669 . S
C1202 O1220 1.259 . S
C1202 O1221 1.268 . S
C1203 Ho1200 2.811 . S
C1203 C1204 1.488 . S
C1203 O1222 1.215 . S
C1203 O1223 1.289 . S
C1204 C1203 1.488 . S
C1204 C1205 1.348 . S
C1204 C1209 1.413 . S
C1205 C1204 1.348 . S
C1205 C1206 1.442 . S
C1205 H1232 0.930 . S
C1206 C1205 1.442 . S
C1206 C1207 1.381 . S
C1206 H1233 0.931 . S
C1207 C1206 1.381 . S
C1207 C1208 1.321 . S
C1208 C1207 1.321 . S
C1208 C1209 1.403 . S
C1208 H1234 0.934 . S
C1209 C1204 1.413 . S
C1209 C1208 1.403 . S
C1209 H1235 0.930 . S
C1210 O1224 1.275 . S
C1210 O1225 1.256 . S
C1211 O1226 1.259 . S
C1211 O1227 1.268 . S
C1212 Ho1201 2.811 . S
C1212 C1213 1.488 . S
C1212 O1228 1.215 . S
C1212 O1229 1.289 . S
C1213 C1212 1.488 . S
C1213 C1214 1.348 . S
C1213 C1218 1.413 . S
C1214 C1213 1.348 . S
C1214 C1215 1.442 . S
C1214 H1236 0.930 . S
C1215 C1214 1.442 . S
C1215 C1216 1.381 . S
C1215 H1237 0.931 . S
C1216 C1215 1.381 . S
C1216 C1217 1.321 . S
C1217 C1216 1.321 . S
C1217 C1218 1.403 . S
C1217 H1238 0.934 . S
C1218 C1213 1.413 . S
C1218 C1217 1.403 . S
C1218 H1239 0.930 . S
C1219 O1230 1.275 . S
C1219 O1231 1.256 . S
O1220 Ho1200 2.322 . S
O1220 C1202 1.259 . S
O1221 Ho1201 2.346 . S
O1221 C1202 1.268 . S
O1222 Ho1200 2.378 . S
O1222 C1203 1.215 . S
O1223 Ho1200 2.524 . S
O1223 C1203 1.289 . S
O1224 Ho1200 2.381 . S
O1224 C1210 1.275 . S
O1225 Ho1200 2.669 . S
O1225 Ho1201 2.305 . S
O1225 C1210 1.256 . S
O1226 Ho1201 2.322 . S
O1226 C1211 1.259 . S
O1227 Ho1200 2.346 . S
O1227 C1211 1.268 . S
O1228 Ho1201 2.378 . S
O1228 C1212 1.215 . S
O1229 Ho1201 2.524 . S
O1229 C1212 1.289 . S
O1230 Ho1201 2.381 . S
O1230 C1219 1.275 . S
O1231 Ho1200 2.305 . S
O1231 Ho1201 2.669 . S
O1231 C1219 1.256 . S
H1232 C1205 0.930 . S
H1233 C1206 0.931 . S
H1234 C1208 0.934 . S
H1235 C1209 0.930 . S
H1236 C1214 0.930 . S
H1237 C1215 0.931 . S
H1238 C1217 0.934 . S
H1239 C1218 0.930 . S
Ho1240 C1243 2.811 . S
Ho1240 O1260 2.322 . S
Ho1240 O1262 2.378 . S
Ho1240 O1263 2.524 . S
Ho1240 O1264 2.381 . S
Ho1240 O1265 2.669 . S
Ho1240 O1267 2.346 . S
Ho1240 O1271 2.305 . S
Ho1241 C1252 2.811 . S
Ho1241 O1261 2.346 . S
Ho1241 O1265 2.305 . S
Ho1241 O1266 2.322 . S
Ho1241 O1268 2.378 . S
Ho1241 O1269 2.524 . S
Ho1241 O1270 2.381 . S
Ho1241 O1271 2.669 . S
C1242 O1260 1.259 . S
C1242 O1261 1.268 . S
C1243 Ho1240 2.811 . S
C1243 C1244 1.488 . S
C1243 O1262 1.215 . S
C1243 O1263 1.289 . S
C1244 C1243 1.488 . S
C1244 C1245 1.348 . S
C1244 C1249 1.413 . S
C1245 C1244 1.348 . S
C1245 C1246 1.442 . S
C1245 H1272 0.930 . S
C1246 C1245 1.442 . S
C1246 C1247 1.381 . S
C1246 H1273 0.931 . S
C1247 C1246 1.381 . S
C1247 C1248 1.321 . S
C1248 C1247 1.321 . S
C1248 C1249 1.403 . S
C1248 H1274 0.934 . S
C1249 C1244 1.413 . S
C1249 C1248 1.403 . S
C1249 H1275 0.930 . S
C1250 O1264 1.275 . S
C1250 O1265 1.256 . S
C1251 O1266 1.259 . S
C1251 O1267 1.268 . S
C1252 Ho1241 2.811 . S
C1252 C1253 1.488 . S
C1252 O1268 1.215 . S
C1252 O1269 1.289 . S
C1253 C1252 1.488 . S
C1253 C1254 1.348 . S
C1253 C1258 1.413 . S
C1254 C1253 1.348 . S
C1254 C1255 1.442 . S
C1254 H1276 0.930 . S
C1255 C1254 1.442 . S
C1255 C1256 1.381 . S
C1255 H1277 0.931 . S
C1256 C1255 1.381 . S
C1256 C1257 1.321 . S
C1257 C1256 1.321 . S
C1257 C1258 1.403 . S
C1257 H1278 0.934 . S
C1258 C1253 1.413 . S
C1258 C1257 1.403 . S
C1258 H1279 0.930 . S
C1259 O1270 1.275 . S
C1259 O1271 1.256 . S
O1260 Ho1240 2.322 . S
O1260 C1242 1.259 . S
O1261 Ho1241 2.346 . S
O1261 C1242 1.268 . S
O1262 Ho1240 2.378 . S
O1262 C1243 1.215 . S
O1263 Ho1240 2.524 . S
O1263 C1243 1.289 . S
O1264 Ho1240 2.381 . S
O1264 C1250 1.275 . S
O1265 Ho1240 2.669 . S
O1265 Ho1241 2.305 . S
O1265 C1250 1.256 . S
O1266 Ho1241 2.322 . S
O1266 C1251 1.259 . S
O1267 Ho1240 2.346 . S
O1267 C1251 1.268 . S
O1268 Ho1241 2.378 . S
O1268 C1252 1.215 . S
O1269 Ho1241 2.524 . S
O1269 C1252 1.289 . S
O1270 Ho1241 2.381 . S
O1270 C1259 1.275 . S
O1271 Ho1240 2.305 . S
O1271 Ho1241 2.669 . S
O1271 C1259 1.256 . S
H1272 C1245 0.930 . S
H1273 C1246 0.931 . S
H1274 C1248 0.934 . S
H1275 C1249 0.930 . S
H1276 C1254 0.930 . S
H1277 C1255 0.931 . S
H1278 C1257 0.934 . S
H1279 C1258 0.930 . S
H1280 C1288 0.929 . S
H1281 C1290 0.930 . S
H1282 C1292 0.930 . S
H1283 C1295 0.929 . S
H1284 C1298 0.930 . S
H1285 C1300 0.960 . S
H1286 C1300 0.960 . S
H1287 C1300 0.960 . S
C1288 H1280 0.929 . S
C1288 C1289 1.377 . S
C1288 C1290 1.384 . S
C1289 C1288 1.377 . S
C1289 C1295 1.390 . S
C1290 H1281 0.930 . S
C1290 C1288 1.384 . S
C1290 C1291 1.372 . S
C1291 C1290 1.372 . S
C1291 C1292 1.400 . S
C1291 C1296 1.490 . S
C1292 H1282 0.930 . S
C1292 C1291 1.400 . S
C1292 C1295 1.386 . S
H1293 C1309 0.930 . S
H1294 C1310 0.931 . S
C1295 H1283 0.929 . S
C1295 C1289 1.390 . S
C1295 C1292 1.386 . S
C1296 C1291 1.490 . S
C1296 C1298 1.395 . S
C1296 C1299 1.403 . S
H1297 C1303 0.930 . S
C1298 H1284 0.930 . S
C1298 C1296 1.395 . S
C1298 C1301 1.403 . S
C1299 C1296 1.403 . S
C1299 C1300 1.524 . S
C1299 C1303 1.400 . S
C1300 H1285 0.960 . S
C1300 H1286 0.960 . S
C1300 H1287 0.960 . S
C1300 C1299 1.524 . S
C1301 C1298 1.403 . S
C1301 C1302 1.392 . S
C1301 C1305 1.495 . S
C1302 C1301 1.392 . S
C1302 C1303 1.385 . S
C1302 C1304 1.478 . S
C1303 H1297 0.930 . S
C1303 C1299 1.400 . S
C1303 C1302 1.385 . S
C1304 C1302 1.478 . S
C1304 C1306 1.381 . S
C1304 C1310 1.383 . S
C1305 C1301 1.495 . S
C1305 H1311 0.959 . S
C1305 H1312 0.961 . S
C1305 H1313 0.960 . S
C1306 C1304 1.381 . S
C1306 C1307 1.394 . S
C1306 H1314 0.930 . S
C1307 C1306 1.394 . S
C1307 C1308 1.383 . S
C1307 H1315 0.929 . S
C1308 C1307 1.383 . S
C1308 C1309 1.377 . S
C1309 H1293 0.930 . S
C1309 C1308 1.377 . S
C1309 C1310 1.379 . S
C1310 H1294 0.931 . S
C1310 C1304 1.383 . S
C1310 C1309 1.379 . S
H1311 C1305 0.959 . S
H1312 C1305 0.961 . S
H1313 C1305 0.960 . S
H1314 C1306 0.930 . S
H1315 C1307 0.929 . S
H1316 C1324 0.929 . S
H1317 C1326 0.930 . S
H1318 C1328 0.930 . S
H1319 C1331 0.929 . S
H1320 C1334 0.930 . S
H1321 C1336 0.960 . S
H1322 C1336 0.960 . S
H1323 C1336 0.960 . S
C1324 H1316 0.929 . S
C1324 C1325 1.377 . S
C1324 C1326 1.384 . S
C1325 C1324 1.377 . S
C1325 C1331 1.390 . S
C1326 H1317 0.930 . S
C1326 C1324 1.384 . S
C1326 C1327 1.372 . S
C1327 C1326 1.372 . S
C1327 C1328 1.400 . S
C1327 C1332 1.490 . S
C1328 H1318 0.930 . S
C1328 C1327 1.400 . S
C1328 C1331 1.386 . S
H1329 C1345 0.930 . S
H1330 C1346 0.931 . S
C1331 H1319 0.929 . S
C1331 C1325 1.390 . S
C1331 C1328 1.386 . S
C1332 C1327 1.490 . S
C1332 C1334 1.395 . S
C1332 C1335 1.403 . S
H1333 C1339 0.930 . S
C1334 H1320 0.930 . S
C1334 C1332 1.395 . S
C1334 C1337 1.403 . S
C1335 C1332 1.403 . S
C1335 C1336 1.524 . S
C1335 C1339 1.400 . S
C1336 H1321 0.960 . S
C1336 H1322 0.960 . S
C1336 H1323 0.960 . S
C1336 C1335 1.524 . S
C1337 C1334 1.403 . S
C1337 C1338 1.392 . S
C1337 C1341 1.495 . S
C1338 C1337 1.392 . S
C1338 C1339 1.385 . S
C1338 C1340 1.478 . S
C1339 H1333 0.930 . S
C1339 C1335 1.400 . S
C1339 C1338 1.385 . S
C1340 C1338 1.478 . S
C1340 C1342 1.381 . S
C1340 C1346 1.383 . S
C1341 C1337 1.495 . S
C1341 H1347 0.959 . S
C1341 H1348 0.961 . S
C1341 H1349 0.960 . S
C1342 C1340 1.381 . S
C1342 C1343 1.394 . S
C1342 H1350 0.930 . S
C1343 C1342 1.394 . S
C1343 C1344 1.383 . S
C1343 H1351 0.929 . S
C1344 C1343 1.383 . S
C1344 C1345 1.377 . S
C1345 H1329 0.930 . S
C1345 C1344 1.377 . S
C1345 C1346 1.379 . S
C1346 H1330 0.931 . S
C1346 C1340 1.383 . S
C1346 C1345 1.379 . S
H1347 C1341 0.959 . S
H1348 C1341 0.961 . S
H1349 C1341 0.960 . S
H1350 C1342 0.930 . S
H1351 C1343 0.929 . S
H1352 C1360 0.929 . S
H1353 C1362 0.930 . S
H1354 C1364 0.930 . S
H1355 C1367 0.929 . S
H1356 C1370 0.930 . S
H1357 C1372 0.960 . S
H1358 C1372 0.960 . S
H1359 C1372 0.960 . S
C1360 H1352 0.929 . S
C1360 C1361 1.377 . S
C1360 C1362 1.384 . S
C1361 C1360 1.377 . S
C1361 C1367 1.390 . S
C1362 H1353 0.930 . S
C1362 C1360 1.384 . S
C1362 C1363 1.372 . S
C1363 C1362 1.372 . S
C1363 C1364 1.400 . S
C1363 C1368 1.490 . S
C1364 H1354 0.930 . S
C1364 C1363 1.400 . S
C1364 C1367 1.386 . S
H1365 C1381 0.930 . S
H1366 C1382 0.931 . S
C1367 H1355 0.929 . S
C1367 C1361 1.390 . S
C1367 C1364 1.386 . S
C1368 C1363 1.490 . S
C1368 C1370 1.395 . S
C1368 C1371 1.403 . S
H1369 C1375 0.930 . S
C1370 H1356 0.930 . S
C1370 C1368 1.395 . S
C1370 C1373 1.403 . S
C1371 C1368 1.403 . S
C1371 C1372 1.524 . S
C1371 C1375 1.400 . S
C1372 H1357 0.960 . S
C1372 H1358 0.960 . S
C1372 H1359 0.960 . S
C1372 C1371 1.524 . S
C1373 C1370 1.403 . S
C1373 C1374 1.392 . S
C1373 C1377 1.495 . S
C1374 C1373 1.392 . S
C1374 C1375 1.385 . S
C1374 C1376 1.478 . S
C1375 H1369 0.930 . S
C1375 C1371 1.400 . S
C1375 C1374 1.385 . S
C1376 C1374 1.478 . S
C1376 C1378 1.381 . S
C1376 C1382 1.383 . S
C1377 C1373 1.495 . S
C1377 H1383 0.959 . S
C1377 H1384 0.961 . S
C1377 H1385 0.960 . S
C1378 C1376 1.381 . S
C1378 C1379 1.394 . S
C1378 H1386 0.930 . S
C1379 C1378 1.394 . S
C1379 C1380 1.383 . S
C1379 H1387 0.929 . S
C1380 C1379 1.383 . S
C1380 C1381 1.377 . S
C1381 H1365 0.930 . S
C1381 C1380 1.377 . S
C1381 C1382 1.379 . S
C1382 H1366 0.931 . S
C1382 C1376 1.383 . S
C1382 C1381 1.379 . S
H1383 C1377 0.959 . S
H1384 C1377 0.961 . S
H1385 C1377 0.960 . S
H1386 C1378 0.930 . S
H1387 C1379 0.929 . S
H1388 C1396 0.929 . S
H1389 C1398 0.930 . S
H1390 C1400 0.930 . S
H1391 C1403 0.929 . S
H1392 C1406 0.930 . S
H1393 C1408 0.960 . S
H1394 C1408 0.960 . S
H1395 C1408 0.960 . S
C1396 H1388 0.929 . S
C1396 C1397 1.377 . S
C1396 C1398 1.384 . S
C1397 C1396 1.377 . S
C1397 C1403 1.390 . S
C1398 H1389 0.930 . S
C1398 C1396 1.384 . S
C1398 C1399 1.372 . S
C1399 C1398 1.372 . S
C1399 C1400 1.400 . S
C1399 C1404 1.490 . S
C1400 H1390 0.930 . S
C1400 C1399 1.400 . S
C1400 C1403 1.386 . S
H1401 C1417 0.930 . S
H1402 C1418 0.931 . S
C1403 H1391 0.929 . S
C1403 C1397 1.390 . S
C1403 C1400 1.386 . S
C1404 C1399 1.490 . S
C1404 C1406 1.395 . S
C1404 C1407 1.403 . S
H1405 C1411 0.930 . S
C1406 H1392 0.930 . S
C1406 C1404 1.395 . S
C1406 C1409 1.403 . S
C1407 C1404 1.403 . S
C1407 C1408 1.524 . S
C1407 C1411 1.400 . S
C1408 H1393 0.960 . S
C1408 H1394 0.960 . S
C1408 H1395 0.960 . S
C1408 C1407 1.524 . S
C1409 C1406 1.403 . S
C1409 C1410 1.392 . S
C1409 C1413 1.495 . S
C1410 C1409 1.392 . S
C1410 C1411 1.385 . S
C1410 C1412 1.478 . S
C1411 H1405 0.930 . S
C1411 C1407 1.400 . S
C1411 C1410 1.385 . S
C1412 C1410 1.478 . S
C1412 C1414 1.381 . S
C1412 C1418 1.383 . S
C1413 C1409 1.495 . S
C1413 H1419 0.959 . S
C1413 H1420 0.961 . S
C1413 H1421 0.960 . S
C1414 C1412 1.381 . S
C1414 C1415 1.394 . S
C1414 H1422 0.930 . S
C1415 C1414 1.394 . S
C1415 C1416 1.383 . S
C1415 H1423 0.929 . S
C1416 C1415 1.383 . S
C1416 C1417 1.377 . S
C1417 H1401 0.930 . S
C1417 C1416 1.377 . S
C1417 C1418 1.379 . S
C1418 H1402 0.931 . S
C1418 C1412 1.383 . S
C1418 C1417 1.379 . S
H1419 C1413 0.959 . S
H1420 C1413 0.961 . S
H1421 C1413 0.960 . S
H1422 C1414 0.930 . S
H1423 C1415 0.929 . S
H1424 C1432 0.929 . S
H1425 C1434 0.930 . S
H1426 C1436 0.930 . S
H1427 C1439 0.929 . S
H1428 C1442 0.930 . S
H1429 C1444 0.960 . S
H1430 C1444 0.960 . S
H1431 C1444 0.960 . S
C1432 H1424 0.929 . S
C1432 C1433 1.377 . S
C1432 C1434 1.384 . S
C1433 C1432 1.377 . S
C1433 C1439 1.390 . S
C1434 H1425 0.930 . S
C1434 C1432 1.384 . S
C1434 C1435 1.372 . S
C1435 C1434 1.372 . S
C1435 C1436 1.400 . S
C1435 C1440 1.490 . S
C1436 H1426 0.930 . S
C1436 C1435 1.400 . S
C1436 C1439 1.386 . S
H1437 C1453 0.930 . S
H1438 C1454 0.931 . S
C1439 H1427 0.929 . S
C1439 C1433 1.390 . S
C1439 C1436 1.386 . S
C1440 C1435 1.490 . S
C1440 C1442 1.395 . S
C1440 C1443 1.403 . S
H1441 C1447 0.930 . S
C1442 H1428 0.930 . S
C1442 C1440 1.395 . S
C1442 C1445 1.403 . S
C1443 C1440 1.403 . S
C1443 C1444 1.524 . S
C1443 C1447 1.400 . S
C1444 H1429 0.960 . S
C1444 H1430 0.960 . S
C1444 H1431 0.960 . S
C1444 C1443 1.524 . S
C1445 C1442 1.403 . S
C1445 C1446 1.392 . S
C1445 C1449 1.495 . S
C1446 C1445 1.392 . S
C1446 C1447 1.385 . S
C1446 C1448 1.478 . S
C1447 H1441 0.930 . S
C1447 C1443 1.400 . S
C1447 C1446 1.385 . S
C1448 C1446 1.478 . S
C1448 C1450 1.381 . S
C1448 C1454 1.383 . S
C1449 C1445 1.495 . S
C1449 H1455 0.959 . S
C1449 H1456 0.961 . S
C1449 H1457 0.960 . S
C1450 C1448 1.381 . S
C1450 C1451 1.394 . S
C1450 H1458 0.930 . S
C1451 C1450 1.394 . S
C1451 C1452 1.383 . S
C1451 H1459 0.929 . S
C1452 C1451 1.383 . S
C1452 C1453 1.377 . S
C1453 H1437 0.930 . S
C1453 C1452 1.377 . S
C1453 C1454 1.379 . S
C1454 H1438 0.931 . S
C1454 C1448 1.383 . S
C1454 C1453 1.379 . S
H1455 C1449 0.959 . S
H1456 C1449 0.961 . S
H1457 C1449 0.960 . S
H1458 C1450 0.930 . S
H1459 C1451 0.929 . S
H1460 C1468 0.929 . S
H1461 C1470 0.930 . S
H1462 C1472 0.930 . S
H1463 C1475 0.929 . S
H1464 C1478 0.930 . S
H1465 C1480 0.960 . S
H1466 C1480 0.960 . S
H1467 C1480 0.960 . S
C1468 H1460 0.929 . S
C1468 C1469 1.377 . S
C1468 C1470 1.384 . S
C1469 C1468 1.377 . S
C1469 C1475 1.390 . S
C1470 H1461 0.930 . S
C1470 C1468 1.384 . S
C1470 C1471 1.372 . S
C1471 C1470 1.372 . S
C1471 C1472 1.400 . S
C1471 C1476 1.490 . S
C1472 H1462 0.930 . S
C1472 C1471 1.400 . S
C1472 C1475 1.386 . S
H1473 C1489 0.930 . S
H1474 C1490 0.931 . S
C1475 H1463 0.929 . S
C1475 C1469 1.390 . S
C1475 C1472 1.386 . S
C1476 C1471 1.490 . S
C1476 C1478 1.395 . S
C1476 C1479 1.403 . S
H1477 C1483 0.930 . S
C1478 H1464 0.930 . S
C1478 C1476 1.395 . S
C1478 C1481 1.403 . S
C1479 C1476 1.403 . S
C1479 C1480 1.524 . S
C1479 C1483 1.400 . S
C1480 H1465 0.960 . S
C1480 H1466 0.960 . S
C1480 H1467 0.960 . S
C1480 C1479 1.524 . S
C1481 C1478 1.403 . S
C1481 C1482 1.392 . S
C1481 C1485 1.495 . S
C1482 C1481 1.392 . S
C1482 C1483 1.385 . S
C1482 C1484 1.478 . S
C1483 H1477 0.930 . S
C1483 C1479 1.400 . S
C1483 C1482 1.385 . S
C1484 C1482 1.478 . S
C1484 C1486 1.381 . S
C1484 C1490 1.383 . S
C1485 C1481 1.495 . S
C1485 H1491 0.959 . S
C1485 H1492 0.961 . S
C1485 H1493 0.960 . S
C1486 C1484 1.381 . S
C1486 C1487 1.394 . S
C1486 H1494 0.930 . S
C1487 C1486 1.394 . S
C1487 C1488 1.383 . S
C1487 H1495 0.929 . S
C1488 C1487 1.383 . S
C1488 C1489 1.377 . S
C1489 H1473 0.930 . S
C1489 C1488 1.377 . S
C1489 C1490 1.379 . S
C1490 H1474 0.931 . S
C1490 C1484 1.383 . S
C1490 C1489 1.379 . S
H1491 C1485 0.959 . S
H1492 C1485 0.961 . S
H1493 C1485 0.960 . S
H1494 C1486 0.930 . S
H1495 C1487 0.929 . S
H1496 C1504 0.929 . S
H1497 C1506 0.930 . S
H1498 C1508 0.930 . S
H1499 C1511 0.929 . S
H1500 C1514 0.930 . S
H1501 C1516 0.960 . S
H1502 C1516 0.960 . S
H1503 C1516 0.960 . S
C1504 H1496 0.929 . S
C1504 C1505 1.377 . S
C1504 C1506 1.384 . S
C1505 C1504 1.377 . S
C1505 C1511 1.390 . S
C1506 H1497 0.930 . S
C1506 C1504 1.384 . S
C1506 C1507 1.372 . S
C1507 C1506 1.372 . S
C1507 C1508 1.400 . S
C1507 C1512 1.490 . S
C1508 H1498 0.930 . S
C1508 C1507 1.400 . S
C1508 C1511 1.386 . S
H1509 C1525 0.930 . S
H1510 C1526 0.931 . S
C1511 H1499 0.929 . S
C1511 C1505 1.390 . S
C1511 C1508 1.386 . S
C1512 C1507 1.490 . S
C1512 C1514 1.395 . S
C1512 C1515 1.403 . S
H1513 C1519 0.930 . S
C1514 H1500 0.930 . S
C1514 C1512 1.395 . S
C1514 C1517 1.403 . S
C1515 C1512 1.403 . S
C1515 C1516 1.524 . S
C1515 C1519 1.400 . S
C1516 H1501 0.960 . S
C1516 H1502 0.960 . S
C1516 H1503 0.960 . S
C1516 C1515 1.524 . S
C1517 C1514 1.403 . S
C1517 C1518 1.392 . S
C1517 C1521 1.495 . S
C1518 C1517 1.392 . S
C1518 C1519 1.385 . S
C1518 C1520 1.478 . S
C1519 H1513 0.930 . S
C1519 C1515 1.400 . S
C1519 C1518 1.385 . S
C1520 C1518 1.478 . S
C1520 C1522 1.381 . S
C1520 C1526 1.383 . S
C1521 C1517 1.495 . S
C1521 H1527 0.959 . S
C1521 H1528 0.961 . S
C1521 H1529 0.960 . S
C1522 C1520 1.381 . S
C1522 C1523 1.394 . S
C1522 H1530 0.930 . S
C1523 C1522 1.394 . S
C1523 C1524 1.383 . S
C1523 H1531 0.929 . S
C1524 C1523 1.383 . S
C1524 C1525 1.377 . S
C1525 H1509 0.930 . S
C1525 C1524 1.377 . S
C1525 C1526 1.379 . S
C1526 H1510 0.931 . S
C1526 C1520 1.383 . S
C1526 C1525 1.379 . S
H1527 C1521 0.959 . S
H1528 C1521 0.961 . S
H1529 C1521 0.960 . S
H1530 C1522 0.930 . S
H1531 C1523 0.929 . S
H1532 C1540 0.929 . S
H1533 C1542 0.930 . S
H1534 C1544 0.930 . S
H1535 C1547 0.929 . S
H1536 C1550 0.930 . S
H1537 C1552 0.960 . S
H1538 C1552 0.960 . S
H1539 C1552 0.960 . S
C1540 H1532 0.929 . S
C1540 C1541 1.377 . S
C1540 C1542 1.384 . S
C1541 C1540 1.377 . S
C1541 C1547 1.390 . S
C1542 H1533 0.930 . S
C1542 C1540 1.384 . S
C1542 C1543 1.372 . S
C1543 C1542 1.372 . S
C1543 C1544 1.400 . S
C1543 C1548 1.490 . S
C1544 H1534 0.930 . S
C1544 C1543 1.400 . S
C1544 C1547 1.386 . S
H1545 C1561 0.930 . S
H1546 C1562 0.931 . S
C1547 H1535 0.929 . S
C1547 C1541 1.390 . S
C1547 C1544 1.386 . S
C1548 C1543 1.490 . S
C1548 C1550 1.395 . S
C1548 C1551 1.403 . S
H1549 C1555 0.930 . S
C1550 H1536 0.930 . S
C1550 C1548 1.395 . S
C1550 C1553 1.403 . S
C1551 C1548 1.403 . S
C1551 C1552 1.524 . S
C1551 C1555 1.400 . S
C1552 H1537 0.960 . S
C1552 H1538 0.960 . S
C1552 H1539 0.960 . S
C1552 C1551 1.524 . S
C1553 C1550 1.403 . S
C1553 C1554 1.392 . S
C1553 C1557 1.495 . S
C1554 C1553 1.392 . S
C1554 C1555 1.385 . S
C1554 C1556 1.478 . S
C1555 H1549 0.930 . S
C1555 C1551 1.400 . S
C1555 C1554 1.385 . S
C1556 C1554 1.478 . S
C1556 C1558 1.381 . S
C1556 C1562 1.383 . S
C1557 C1553 1.495 . S
C1557 H1563 0.959 . S
C1557 H1564 0.961 . S
C1557 H1565 0.960 . S
C1558 C1556 1.381 . S
C1558 C1559 1.394 . S
C1558 H1566 0.930 . S
C1559 C1558 1.394 . S
C1559 C1560 1.383 . S
C1559 H1567 0.929 . S
C1560 C1559 1.383 . S
C1560 C1561 1.377 . S
C1561 H1545 0.930 . S
C1561 C1560 1.377 . S
C1561 C1562 1.379 . S
C1562 H1546 0.931 . S
C1562 C1556 1.383 . S
C1562 C1561 1.379 . S
H1563 C1557 0.959 . S
H1564 C1557 0.961 . S
H1565 C1557 0.960 . S
H1566 C1558 0.930 . S
H1567 C1559 0.929 . S
H1568 C1576 0.929 . S
H1569 C1578 0.930 . S
H1570 C1580 0.930 . S
H1571 C1583 0.929 . S
H1572 C1586 0.930 . S
H1573 C1588 0.960 . S
H1574 C1588 0.960 . S
H1575 C1588 0.960 . S
C1576 H1568 0.929 . S
C1576 C1577 1.377 . S
C1576 C1578 1.384 . S
C1577 C1576 1.377 . S
C1577 C1583 1.390 . S
C1578 H1569 0.930 . S
C1578 C1576 1.384 . S
C1578 C1579 1.372 . S
C1579 C1578 1.372 . S
C1579 C1580 1.400 . S
C1579 C1584 1.490 . S
C1580 H1570 0.930 . S
C1580 C1579 1.400 . S
C1580 C1583 1.386 . S
H1581 C1597 0.930 . S
H1582 C1598 0.931 . S
C1583 H1571 0.929 . S
C1583 C1577 1.390 . S
C1583 C1580 1.386 . S
C1584 C1579 1.490 . S
C1584 C1586 1.395 . S
C1584 C1587 1.403 . S
H1585 C1591 0.930 . S
C1586 H1572 0.930 . S
C1586 C1584 1.395 . S
C1586 C1589 1.403 . S
C1587 C1584 1.403 . S
C1587 C1588 1.524 . S
C1587 C1591 1.400 . S
C1588 H1573 0.960 . S
C1588 H1574 0.960 . S
C1588 H1575 0.960 . S
C1588 C1587 1.524 . S
C1589 C1586 1.403 . S
C1589 C1590 1.392 . S
C1589 C1593 1.495 . S
C1590 C1589 1.392 . S
C1590 C1591 1.385 . S
C1590 C1592 1.478 . S
C1591 H1585 0.930 . S
C1591 C1587 1.400 . S
C1591 C1590 1.385 . S
C1592 C1590 1.478 . S
C1592 C1594 1.381 . S
C1592 C1598 1.383 . S
C1593 C1589 1.495 . S
C1593 H1599 0.959 . S
C1593 H1600 0.961 . S
C1593 H1601 0.960 . S
C1594 C1592 1.381 . S
C1594 C1595 1.394 . S
C1594 H1602 0.930 . S
C1595 C1594 1.394 . S
C1595 C1596 1.383 . S
C1595 H1603 0.929 . S
C1596 C1595 1.383 . S
C1596 C1597 1.377 . S
C1597 H1581 0.930 . S
C1597 C1596 1.377 . S
C1597 C1598 1.379 . S
C1598 H1582 0.931 . S
C1598 C1592 1.383 . S
C1598 C1597 1.379 . S
H1599 C1593 0.959 . S
H1600 C1593 0.961 . S
H1601 C1593 0.960 . S
H1602 C1594 0.930 . S
H1603 C1595 0.929 . S
H1604 C1612 0.929 . S
H1605 C1614 0.930 . S
H1606 C1616 0.930 . S
H1607 C1619 0.929 . S
H1608 C1622 0.930 . S
H1609 C1624 0.960 . S
H1610 C1624 0.960 . S
H1611 C1624 0.960 . S
C1612 H1604 0.929 . S
C1612 C1613 1.377 . S
C1612 C1614 1.384 . S
C1613 C1612 1.377 . S
C1613 C1619 1.390 . S
C1614 H1605 0.930 . S
C1614 C1612 1.384 . S
C1614 C1615 1.372 . S
C1615 C1614 1.372 . S
C1615 C1616 1.400 . S
C1615 C1620 1.490 . S
C1616 H1606 0.930 . S
C1616 C1615 1.400 . S
C1616 C1619 1.386 . S
H1617 C1633 0.930 . S
H1618 C1634 0.931 . S
C1619 H1607 0.929 . S
C1619 C1613 1.390 . S
C1619 C1616 1.386 . S
C1620 C1615 1.490 . S
C1620 C1622 1.395 . S
C1620 C1623 1.403 . S
H1621 C1627 0.930 . S
C1622 H1608 0.930 . S
C1622 C1620 1.395 . S
C1622 C1625 1.403 . S
C1623 C1620 1.403 . S
C1623 C1624 1.524 . S
C1623 C1627 1.400 . S
C1624 H1609 0.960 . S
C1624 H1610 0.960 . S
C1624 H1611 0.960 . S
C1624 C1623 1.524 . S
C1625 C1622 1.403 . S
C1625 C1626 1.392 . S
C1625 C1629 1.495 . S
C1626 C1625 1.392 . S
C1626 C1627 1.385 . S
C1626 C1628 1.478 . S
C1627 H1621 0.930 . S
C1627 C1623 1.400 . S
C1627 C1626 1.385 . S
C1628 C1626 1.478 . S
C1628 C1630 1.381 . S
C1628 C1634 1.383 . S
C1629 C1625 1.495 . S
C1629 H1635 0.959 . S
C1629 H1636 0.961 . S
C1629 H1637 0.960 . S
C1630 C1628 1.381 . S
C1630 C1631 1.394 . S
C1630 H1638 0.930 . S
C1631 C1630 1.394 . S
C1631 C1632 1.383 . S
C1631 H1639 0.929 . S
C1632 C1631 1.383 . S
C1632 C1633 1.377 . S
C1633 H1617 0.930 . S
C1633 C1632 1.377 . S
C1633 C1634 1.379 . S
C1634 H1618 0.931 . S
C1634 C1628 1.383 . S
C1634 C1633 1.379 . S
H1635 C1629 0.959 . S
H1636 C1629 0.961 . S
H1637 C1629 0.960 . S
H1638 C1630 0.930 . S
H1639 C1631 0.929 . S
H1640 C1648 0.929 . S
H1641 C1650 0.930 . S
H1642 C1652 0.930 . S
H1643 C1655 0.929 . S
H1644 C1658 0.930 . S
H1645 C1660 0.960 . S
H1646 C1660 0.960 . S
H1647 C1660 0.960 . S
C1648 H1640 0.929 . S
C1648 C1649 1.377 . S
C1648 C1650 1.384 . S
C1649 C1648 1.377 . S
C1649 C1655 1.390 . S
C1650 H1641 0.930 . S
C1650 C1648 1.384 . S
C1650 C1651 1.372 . S
C1651 C1650 1.372 . S
C1651 C1652 1.400 . S
C1651 C1656 1.490 . S
C1652 H1642 0.930 . S
C1652 C1651 1.400 . S
C1652 C1655 1.386 . S
H1653 C1669 0.930 . S
H1654 C1670 0.931 . S
C1655 H1643 0.929 . S
C1655 C1649 1.390 . S
C1655 C1652 1.386 . S
C1656 C1651 1.490 . S
C1656 C1658 1.395 . S
C1656 C1659 1.403 . S
H1657 C1663 0.930 . S
C1658 H1644 0.930 . S
C1658 C1656 1.395 . S
C1658 C1661 1.403 . S
C1659 C1656 1.403 . S
C1659 C1660 1.524 . S
C1659 C1663 1.400 . S
C1660 H1645 0.960 . S
C1660 H1646 0.960 . S
C1660 H1647 0.960 . S
C1660 C1659 1.524 . S
C1661 C1658 1.403 . S
C1661 C1662 1.392 . S
C1661 C1665 1.495 . S
C1662 C1661 1.392 . S
C1662 C1663 1.385 . S
C1662 C1664 1.478 . S
C1663 H1657 0.930 . S
C1663 C1659 1.400 . S
C1663 C1662 1.385 . S
C1664 C1662 1.478 . S
C1664 C1666 1.381 . S
C1664 C1670 1.383 . S
C1665 C1661 1.495 . S
C1665 H1671 0.959 . S
C1665 H1672 0.961 . S
C1665 H1673 0.960 . S
C1666 C1664 1.381 . S
C1666 C1667 1.394 . S
C1666 H1674 0.930 . S
C1667 C1666 1.394 . S
C1667 C1668 1.383 . S
C1667 H1675 0.929 . S
C1668 C1667 1.383 . S
C1668 C1669 1.377 . S
C1669 H1653 0.930 . S
C1669 C1668 1.377 . S
C1669 C1670 1.379 . S
C1670 H1654 0.931 . S
C1670 C1664 1.383 . S
C1670 C1669 1.379 . S
H1671 C1665 0.959 . S
H1672 C1665 0.961 . S
H1673 C1665 0.960 . S
H1674 C1666 0.930 . S
H1675 C1667 0.929 . S
H1676 C1684 0.929 . S
H1677 C1686 0.930 . S
H1678 C1688 0.930 . S
H1679 C1691 0.929 . S
H1680 C1694 0.930 . S
H1681 C1696 0.960 . S
H1682 C1696 0.960 . S
H1683 C1696 0.960 . S
C1684 H1676 0.929 . S
C1684 C1685 1.377 . S
C1684 C1686 1.384 . S
C1685 C1684 1.377 . S
C1685 C1691 1.390 . S
C1686 H1677 0.930 . S
C1686 C1684 1.384 . S
C1686 C1687 1.372 . S
C1687 C1686 1.372 . S
C1687 C1688 1.400 . S
C1687 C1692 1.490 . S
C1688 H1678 0.930 . S
C1688 C1687 1.400 . S
C1688 C1691 1.386 . S
H1689 C1705 0.930 . S
H1690 C1706 0.931 . S
C1691 H1679 0.929 . S
C1691 C1685 1.390 . S
C1691 C1688 1.386 . S
C1692 C1687 1.490 . S
C1692 C1694 1.395 . S
C1692 C1695 1.403 . S
H1693 C1699 0.930 . S
C1694 H1680 0.930 . S
C1694 C1692 1.395 . S
C1694 C1697 1.403 . S
C1695 C1692 1.403 . S
C1695 C1696 1.524 . S
C1695 C1699 1.400 . S
C1696 H1681 0.960 . S
C1696 H1682 0.960 . S
C1696 H1683 0.960 . S
C1696 C1695 1.524 . S
C1697 C1694 1.403 . S
C1697 C1698 1.392 . S
C1697 C1701 1.495 . S
C1698 C1697 1.392 . S
C1698 C1699 1.385 . S
C1698 C1700 1.478 . S
C1699 H1693 0.930 . S
C1699 C1695 1.400 . S
C1699 C1698 1.385 . S
C1700 C1698 1.478 . S
C1700 C1702 1.381 . S
C1700 C1706 1.383 . S
C1701 C1697 1.495 . S
C1701 H1707 0.959 . S
C1701 H1708 0.961 . S
C1701 H1709 0.960 . S
C1702 C1700 1.381 . S
C1702 C1703 1.394 . S
C1702 H1710 0.930 . S
C1703 C1702 1.394 . S
C1703 C1704 1.383 . S
C1703 H1711 0.929 . S
C1704 C1703 1.383 . S
C1704 C1705 1.377 . S
C1705 H1689 0.930 . S
C1705 C1704 1.377 . S
C1705 C1706 1.379 . S
C1706 H1690 0.931 . S
C1706 C1700 1.383 . S
C1706 C1705 1.379 . S
H1707 C1701 0.959 . S
H1708 C1701 0.961 . S
H1709 C1701 0.960 . S
H1710 C1702 0.930 . S
H1711 C1703 0.929 . S
H1712 C1720 0.929 . S
H1713 C1722 0.930 . S
H1714 C1724 0.930 . S
H1715 C1727 0.929 . S
H1716 C1730 0.930 . S
H1717 C1732 0.960 . S
H1718 C1732 0.960 . S
H1719 C1732 0.960 . S
C1720 H1712 0.929 . S
C1720 C1721 1.377 . S
C1720 C1722 1.384 . S
C1721 C1720 1.377 . S
C1721 C1727 1.390 . S
C1722 H1713 0.930 . S
C1722 C1720 1.384 . S
C1722 C1723 1.372 . S
C1723 C1722 1.372 . S
C1723 C1724 1.400 . S
C1723 C1728 1.490 . S
C1724 H1714 0.930 . S
C1724 C1723 1.400 . S
C1724 C1727 1.386 . S
H1725 C1741 0.930 . S
H1726 C1742 0.931 . S
C1727 H1715 0.929 . S
C1727 C1721 1.390 . S
C1727 C1724 1.386 . S
C1728 C1723 1.490 . S
C1728 C1730 1.395 . S
C1728 C1731 1.403 . S
H1729 C1735 0.930 . S
C1730 H1716 0.930 . S
C1730 C1728 1.395 . S
C1730 C1733 1.403 . S
C1731 C1728 1.403 . S
C1731 C1732 1.524 . S
C1731 C1735 1.400 . S
C1732 H1717 0.960 . S
C1732 H1718 0.960 . S
C1732 H1719 0.960 . S
C1732 C1731 1.524 . S
C1733 C1730 1.403 . S
C1733 C1734 1.392 . S
C1733 C1737 1.495 . S
C1734 C1733 1.392 . S
C1734 C1735 1.385 . S
C1734 C1736 1.478 . S
C1735 H1729 0.930 . S
C1735 C1731 1.400 . S
C1735 C1734 1.385 . S
C1736 C1734 1.478 . S
C1736 C1738 1.381 . S
C1736 C1742 1.383 . S
C1737 C1733 1.495 . S
C1737 H1743 0.959 . S
C1737 H1744 0.961 . S
C1737 H1745 0.960 . S
C1738 C1736 1.381 . S
C1738 C1739 1.394 . S
C1738 H1746 0.930 . S
C1739 C1738 1.394 . S
C1739 C1740 1.383 . S
C1739 H1747 0.929 . S
C1740 C1739 1.383 . S
C1740 C1741 1.377 . S
C1741 H1725 0.930 . S
C1741 C1740 1.377 . S
C1741 C1742 1.379 . S
C1742 H1726 0.931 . S
C1742 C1736 1.383 . S
C1742 C1741 1.379 . S
H1743 C1737 0.959 . S
H1744 C1737 0.961 . S
H1745 C1737 0.960 . S
H1746 C1738 0.930 . S
H1747 C1739 0.929 . S
H1748 C1756 0.929 . S
H1749 C1758 0.930 . S
H1750 C1760 0.930 . S
H1751 C1763 0.929 . S
H1752 C1766 0.930 . S
H1753 C1768 0.960 . S
H1754 C1768 0.960 . S
H1755 C1768 0.960 . S
C1756 H1748 0.929 . S
C1756 C1757 1.377 . S
C1756 C1758 1.384 . S
C1757 C1756 1.377 . S
C1757 C1763 1.390 . S
C1758 H1749 0.930 . S
C1758 C1756 1.384 . S
C1758 C1759 1.372 . S
C1759 C1758 1.372 . S
C1759 C1760 1.400 . S
C1759 C1764 1.490 . S
C1760 H1750 0.930 . S
C1760 C1759 1.400 . S
C1760 C1763 1.386 . S
H1761 C1777 0.930 . S
H1762 C1778 0.931 . S
C1763 H1751 0.929 . S
C1763 C1757 1.390 . S
C1763 C1760 1.386 . S
C1764 C1759 1.490 . S
C1764 C1766 1.395 . S
C1764 C1767 1.403 . S
H1765 C1771 0.930 . S
C1766 H1752 0.930 . S
C1766 C1764 1.395 . S
C1766 C1769 1.403 . S
C1767 C1764 1.403 . S
C1767 C1768 1.524 . S
C1767 C1771 1.400 . S
C1768 H1753 0.960 . S
C1768 H1754 0.960 . S
C1768 H1755 0.960 . S
C1768 C1767 1.524 . S
C1769 C1766 1.403 . S
C1769 C1770 1.392 . S
C1769 C1773 1.495 . S
C1770 C1769 1.392 . S
C1770 C1771 1.385 . S
C1770 C1772 1.478 . S
C1771 H1765 0.930 . S
C1771 C1767 1.400 . S
C1771 C1770 1.385 . S
C1772 C1770 1.478 . S
C1772 C1774 1.381 . S
C1772 C1778 1.383 . S
C1773 C1769 1.495 . S
C1773 H1779 0.959 . S
C1773 H1780 0.961 . S
C1773 H1781 0.960 . S
C1774 C1772 1.381 . S
C1774 C1775 1.394 . S
C1774 H1782 0.930 . S
C1775 C1774 1.394 . S
C1775 C1776 1.383 . S
C1775 H1783 0.929 . S
C1776 C1775 1.383 . S
C1776 C1777 1.377 . S
C1777 H1761 0.930 . S
C1777 C1776 1.377 . S
C1777 C1778 1.379 . S
C1778 H1762 0.931 . S
C1778 C1772 1.383 . S
C1778 C1777 1.379 . S
H1779 C1773 0.959 . S
H1780 C1773 0.961 . S
H1781 C1773 0.960 . S
H1782 C1774 0.930 . S
H1783 C1775 0.929 . S
H1784 C1792 0.929 . S
H1785 C1794 0.930 . S
H1786 C1796 0.930 . S
H1787 C1799 0.929 . S
H1788 C1802 0.930 . S
H1789 C1804 0.960 . S
H1790 C1804 0.960 . S
H1791 C1804 0.960 . S
C1792 H1784 0.929 . S
C1792 C1793 1.377 . S
C1792 C1794 1.384 . S
C1793 C1792 1.377 . S
C1793 C1799 1.390 . S
C1794 H1785 0.930 . S
C1794 C1792 1.384 . S
C1794 C1795 1.372 . S
C1795 C1794 1.372 . S
C1795 C1796 1.400 . S
C1795 C1800 1.490 . S
C1796 H1786 0.930 . S
C1796 C1795 1.400 . S
C1796 C1799 1.386 . S
H1797 C1813 0.930 . S
H1798 C1814 0.931 . S
C1799 H1787 0.929 . S
C1799 C1793 1.390 . S
C1799 C1796 1.386 . S
C1800 C1795 1.490 . S
C1800 C1802 1.395 . S
C1800 C1803 1.403 . S
H1801 C1807 0.930 . S
C1802 H1788 0.930 . S
C1802 C1800 1.395 . S
C1802 C1805 1.403 . S
C1803 C1800 1.403 . S
C1803 C1804 1.524 . S
C1803 C1807 1.400 . S
C1804 H1789 0.960 . S
C1804 H1790 0.960 . S
C1804 H1791 0.960 . S
C1804 C1803 1.524 . S
C1805 C1802 1.403 . S
C1805 C1806 1.392 . S
C1805 C1809 1.495 . S
C1806 C1805 1.392 . S
C1806 C1807 1.385 . S
C1806 C1808 1.478 . S
C1807 H1801 0.930 . S
C1807 C1803 1.400 . S
C1807 C1806 1.385 . S
C1808 C1806 1.478 . S
C1808 C1810 1.381 . S
C1808 C1814 1.383 . S
C1809 C1805 1.495 . S
C1809 H1815 0.959 . S
C1809 H1816 0.961 . S
C1809 H1817 0.960 . S
C1810 C1808 1.381 . S
C1810 C1811 1.394 . S
C1810 H1818 0.930 . S
C1811 C1810 1.394 . S
C1811 C1812 1.383 . S
C1811 H1819 0.929 . S
C1812 C1811 1.383 . S
C1812 C1813 1.377 . S
C1813 H1797 0.930 . S
C1813 C1812 1.377 . S
C1813 C1814 1.379 . S
C1814 H1798 0.931 . S
C1814 C1808 1.383 . S
C1814 C1813 1.379 . S
H1815 C1809 0.959 . S
H1816 C1809 0.961 . S
H1817 C1809 0.960 . S
H1818 C1810 0.930 . S
H1819 C1811 0.929 . S
H1820 C1828 0.929 . S
H1821 C1830 0.930 . S
H1822 C1832 0.930 . S
H1823 C1835 0.929 . S
H1824 C1838 0.930 . S
H1825 C1840 0.960 . S
H1826 C1840 0.960 . S
H1827 C1840 0.960 . S
C1828 H1820 0.929 . S
C1828 C1829 1.377 . S
C1828 C1830 1.384 . S
C1829 C1828 1.377 . S
C1829 C1835 1.390 . S
C1830 H1821 0.930 . S
C1830 C1828 1.384 . S
C1830 C1831 1.372 . S
C1831 C1830 1.372 . S
C1831 C1832 1.400 . S
C1831 C1836 1.490 . S
C1832 H1822 0.930 . S
C1832 C1831 1.400 . S
C1832 C1835 1.386 . S
H1833 C1849 0.930 . S
H1834 C1850 0.931 . S
C1835 H1823 0.929 . S
C1835 C1829 1.390 . S
C1835 C1832 1.386 . S
C1836 C1831 1.490 . S
C1836 C1838 1.395 . S
C1836 C1839 1.403 . S
H1837 C1843 0.930 . S
C1838 H1824 0.930 . S
C1838 C1836 1.395 . S
C1838 C1841 1.403 . S
C1839 C1836 1.403 . S
C1839 C1840 1.524 . S
C1839 C1843 1.400 . S
C1840 H1825 0.960 . S
C1840 H1826 0.960 . S
C1840 H1827 0.960 . S
C1840 C1839 1.524 . S
C1841 C1838 1.403 . S
C1841 C1842 1.392 . S
C1841 C1845 1.495 . S
C1842 C1841 1.392 . S
C1842 C1843 1.385 . S
C1842 C1844 1.478 . S
C1843 H1837 0.930 . S
C1843 C1839 1.400 . S
C1843 C1842 1.385 . S
C1844 C1842 1.478 . S
C1844 C1846 1.381 . S
C1844 C1850 1.383 . S
C1845 C1841 1.495 . S
C1845 H1851 0.959 . S
C1845 H1852 0.961 . S
C1845 H1853 0.960 . S
C1846 C1844 1.381 . S
C1846 C1847 1.394 . S
C1846 H1854 0.930 . S
C1847 C1846 1.394 . S
C1847 C1848 1.383 . S
C1847 H1855 0.929 . S
C1848 C1847 1.383 . S
C1848 C1849 1.377 . S
C1849 H1833 0.930 . S
C1849 C1848 1.377 . S
C1849 C1850 1.379 . S
C1850 H1834 0.931 . S
C1850 C1844 1.383 . S
C1850 C1849 1.379 . S
H1851 C1845 0.959 . S
H1852 C1845 0.961 . S
H1853 C1845 0.960 . S
H1854 C1846 0.930 . S
H1855 C1847 0.929 . S
H1856 C1864 0.929 . S
H1857 C1866 0.930 . S
H1858 C1868 0.930 . S
H1859 C1871 0.929 . S
H1860 C1874 0.930 . S
H1861 C1876 0.960 . S
H1862 C1876 0.960 . S
H1863 C1876 0.960 . S
C1864 H1856 0.929 . S
C1864 C1865 1.377 . S
C1864 C1866 1.384 . S
C1865 C1864 1.377 . S
C1865 C1871 1.390 . S
C1866 H1857 0.930 . S
C1866 C1864 1.384 . S
C1866 C1867 1.372 . S
C1867 C1866 1.372 . S
C1867 C1868 1.400 . S
C1867 C1872 1.490 . S
C1868 H1858 0.930 . S
C1868 C1867 1.400 . S
C1868 C1871 1.386 . S
H1869 C1885 0.930 . S
H1870 C1886 0.931 . S
C1871 H1859 0.929 . S
C1871 C1865 1.390 . S
C1871 C1868 1.386 . S
C1872 C1867 1.490 . S
C1872 C1874 1.395 . S
C1872 C1875 1.403 . S
H1873 C1879 0.930 . S
C1874 H1860 0.930 . S
C1874 C1872 1.395 . S
C1874 C1877 1.403 . S
C1875 C1872 1.403 . S
C1875 C1876 1.524 . S
C1875 C1879 1.400 . S
C1876 H1861 0.960 . S
C1876 H1862 0.960 . S
C1876 H1863 0.960 . S
C1876 C1875 1.524 . S
C1877 C1874 1.403 . S
C1877 C1878 1.392 . S
C1877 C1881 1.495 . S
C1878 C1877 1.392 . S
C1878 C1879 1.385 . S
C1878 C1880 1.478 . S
C1879 H1873 0.930 . S
C1879 C1875 1.400 . S
C1879 C1878 1.385 . S
C1880 C1878 1.478 . S
C1880 C1882 1.381 . S
C1880 C1886 1.383 . S
C1881 C1877 1.495 . S
C1881 H1887 0.959 . S
C1881 H1888 0.961 . S
C1881 H1889 0.960 . S
C1882 C1880 1.381 . S
C1882 C1883 1.394 . S
C1882 H1890 0.930 . S
C1883 C1882 1.394 . S
C1883 C1884 1.383 . S
C1883 H1891 0.929 . S
C1884 C1883 1.383 . S
C1884 C1885 1.377 . S
C1885 H1869 0.930 . S
C1885 C1884 1.377 . S
C1885 C1886 1.379 . S
C1886 H1870 0.931 . S
C1886 C1880 1.383 . S
C1886 C1885 1.379 . S
H1887 C1881 0.959 . S
H1888 C1881 0.961 . S
H1889 C1881 0.960 . S
H1890 C1882 0.930 . S
H1891 C1883 0.929 . S
H1892 C1900 0.929 . S
H1893 C1902 0.930 . S
H1894 C1904 0.930 . S
H1895 C1907 0.929 . S
H1896 C1910 0.930 . S
H1897 C1912 0.960 . S
H1898 C1912 0.960 . S
H1899 C1912 0.960 . S
C1900 H1892 0.929 . S
C1900 C1901 1.377 . S
C1900 C1902 1.384 . S
C1901 C1900 1.377 . S
C1901 C1907 1.390 . S
C1902 H1893 0.930 . S
C1902 C1900 1.384 . S
C1902 C1903 1.372 . S
C1903 C1902 1.372 . S
C1903 C1904 1.400 . S
C1903 C1908 1.490 . S
C1904 H1894 0.930 . S
C1904 C1903 1.400 . S
C1904 C1907 1.386 . S
H1905 C1921 0.930 . S
H1906 C1922 0.931 . S
C1907 H1895 0.929 . S
C1907 C1901 1.390 . S
C1907 C1904 1.386 . S
C1908 C1903 1.490 . S
C1908 C1910 1.395 . S
C1908 C1911 1.403 . S
H1909 C1915 0.930 . S
C1910 H1896 0.930 . S
C1910 C1908 1.395 . S
C1910 C1913 1.403 . S
C1911 C1908 1.403 . S
C1911 C1912 1.524 . S
C1911 C1915 1.400 . S
C1912 H1897 0.960 . S
C1912 H1898 0.960 . S
C1912 H1899 0.960 . S
C1912 C1911 1.524 . S
C1913 C1910 1.403 . S
C1913 C1914 1.392 . S
C1913 C1917 1.495 . S
C1914 C1913 1.392 . S
C1914 C1915 1.385 . S
C1914 C1916 1.478 . S
C1915 H1909 0.930 . S
C1915 C1911 1.400 . S
C1915 C1914 1.385 . S
C1916 C1914 1.478 . S
C1916 C1918 1.381 . S
C1916 C1922 1.383 . S
C1917 C1913 1.495 . S
C1917 H1923 0.959 . S
C1917 H1924 0.961 . S
C1917 H1925 0.960 . S
C1918 C1916 1.381 . S
C1918 C1919 1.394 . S
C1918 H1926 0.930 . S
C1919 C1918 1.394 . S
C1919 C1920 1.383 . S
C1919 H1927 0.929 . S
C1920 C1919 1.383 . S
C1920 C1921 1.377 . S
C1921 H1905 0.930 . S
C1921 C1920 1.377 . S
C1921 C1922 1.379 . S
C1922 H1906 0.931 . S
C1922 C1916 1.383 . S
C1922 C1921 1.379 . S
H1923 C1917 0.959 . S
H1924 C1917 0.961 . S
H1925 C1917 0.960 . S
H1926 C1918 0.930 . S
H1927 C1919 0.929 . S
H1928 C1936 0.929 . S
H1929 C1938 0.930 . S
H1930 C1940 0.930 . S
H1931 C1943 0.929 . S
H1932 C1946 0.930 . S
H1933 C1948 0.960 . S
H1934 C1948 0.960 . S
H1935 C1948 0.960 . S
C1936 H1928 0.929 . S
C1936 C1937 1.377 . S
C1936 C1938 1.384 . S
C1937 C1936 1.377 . S
C1937 C1943 1.390 . S
C1938 H1929 0.930 . S
C1938 C1936 1.384 . S
C1938 C1939 1.372 . S
C1939 C1938 1.372 . S
C1939 C1940 1.400 . S
C1939 C1944 1.490 . S
C1940 H1930 0.930 . S
C1940 C1939 1.400 . S
C1940 C1943 1.386 . S
H1941 C1957 0.930 . S
H1942 C1958 0.931 . S
C1943 H1931 0.929 . S
C1943 C1937 1.390 . S
C1943 C1940 1.386 . S
C1944 C1939 1.490 . S
C1944 C1946 1.395 . S
C1944 C1947 1.403 . S
H1945 C1951 0.930 . S
C1946 H1932 0.930 . S
C1946 C1944 1.395 . S
C1946 C1949 1.403 . S
C1947 C1944 1.403 . S
C1947 C1948 1.524 . S
C1947 C1951 1.400 . S
C1948 H1933 0.960 . S
C1948 H1934 0.960 . S
C1948 H1935 0.960 . S
C1948 C1947 1.524 . S
C1949 C1946 1.403 . S
C1949 C1950 1.392 . S
C1949 C1953 1.495 . S
C1950 C1949 1.392 . S
C1950 C1951 1.385 . S
C1950 C1952 1.478 . S
C1951 H1945 0.930 . S
C1951 C1947 1.400 . S
C1951 C1950 1.385 . S
C1952 C1950 1.478 . S
C1952 C1954 1.381 . S
C1952 C1958 1.383 . S
C1953 C1949 1.495 . S
C1953 H1959 0.959 . S
C1953 H1960 0.961 . S
C1953 H1961 0.960 . S
C1954 C1952 1.381 . S
C1954 C1955 1.394 . S
C1954 H1962 0.930 . S
C1955 C1954 1.394 . S
C1955 C1956 1.383 . S
C1955 H1963 0.929 . S
C1956 C1955 1.383 . S
C1956 C1957 1.377 . S
C1957 H1941 0.930 . S
C1957 C1956 1.377 . S
C1957 C1958 1.379 . S
C1958 H1942 0.931 . S
C1958 C1952 1.383 . S
C1958 C1957 1.379 . S
H1959 C1953 0.959 . S
H1960 C1953 0.961 . S
H1961 C1953 0.960 . S
H1962 C1954 0.930 . S
H1963 C1955 0.929 . S
H1964 C1972 0.929 . S
H1965 C1974 0.930 . S
H1966 C1976 0.930 . S
H1967 C1979 0.929 . S
H1968 C1982 0.930 . S
H1969 C1984 0.960 . S
H1970 C1984 0.960 . S
H1971 C1984 0.960 . S
C1972 H1964 0.929 . S
C1972 C1973 1.377 . S
C1972 C1974 1.384 . S
C1973 C1972 1.377 . S
C1973 C1979 1.390 . S
C1974 H1965 0.930 . S
C1974 C1972 1.384 . S
C1974 C1975 1.372 . S
C1975 C1974 1.372 . S
C1975 C1976 1.400 . S
C1975 C1980 1.490 . S
C1976 H1966 0.930 . S
C1976 C1975 1.400 . S
C1976 C1979 1.386 . S
H1977 C1993 0.930 . S
H1978 C1994 0.931 . S
C1979 H1967 0.929 . S
C1979 C1973 1.390 . S
C1979 C1976 1.386 . S
C1980 C1975 1.490 . S
C1980 C1982 1.395 . S
C1980 C1983 1.403 . S
H1981 C1987 0.930 . S
C1982 H1968 0.930 . S
C1982 C1980 1.395 . S
C1982 C1985 1.403 . S
C1983 C1980 1.403 . S
C1983 C1984 1.524 . S
C1983 C1987 1.400 . S
C1984 H1969 0.960 . S
C1984 H1970 0.960 . S
C1984 H1971 0.960 . S
C1984 C1983 1.524 . S
C1985 C1982 1.403 . S
C1985 C1986 1.392 . S
C1985 C1989 1.495 . S
C1986 C1985 1.392 . S
C1986 C1987 1.385 . S
C1986 C1988 1.478 . S
C1987 H1981 0.930 . S
C1987 C1983 1.400 . S
C1987 C1986 1.385 . S
C1988 C1986 1.478 . S
C1988 C1990 1.381 . S
C1988 C1994 1.383 . S
C1989 C1985 1.495 . S
C1989 H1995 0.959 . S
C1989 H1996 0.961 . S
C1989 H1997 0.960 . S
C1990 C1988 1.381 . S
C1990 C1991 1.394 . S
C1990 H1998 0.930 . S
C1991 C1990 1.394 . S
C1991 C1992 1.383 . S
C1991 H1999 0.929 . S
C1992 C1991 1.383 . S
C1992 C1993 1.377 . S
C1993 H1977 0.930 . S
C1993 C1992 1.377 . S
C1993 C1994 1.379 . S
C1994 H1978 0.931 . S
C1994 C1988 1.383 . S
C1994 C1993 1.379 . S
H1995 C1989 0.959 . S
H1996 C1989 0.961 . S
H1997 C1989 0.960 . S
H1998 C1990 0.930 . S
H1999 C1991 0.929 . S
H2000 C2008 0.929 . S
H2001 C2010 0.930 . S
H2002 C2012 0.930 . S
H2003 C2015 0.929 . S
H2004 C2018 0.930 . S
H2005 C2020 0.960 . S
H2006 C2020 0.960 . S
H2007 C2020 0.960 . S
C2008 H2000 0.929 . S
C2008 C2009 1.377 . S
C2008 C2010 1.384 . S
C2009 C2008 1.377 . S
C2009 C2015 1.390 . S
C2010 H2001 0.930 . S
C2010 C2008 1.384 . S
C2010 C2011 1.372 . S
C2011 C2010 1.372 . S
C2011 C2012 1.400 . S
C2011 C2016 1.490 . S
C2012 H2002 0.930 . S
C2012 C2011 1.400 . S
C2012 C2015 1.386 . S
H2013 C2029 0.930 . S
H2014 C2030 0.931 . S
C2015 H2003 0.929 . S
C2015 C2009 1.390 . S
C2015 C2012 1.386 . S
C2016 C2011 1.490 . S
C2016 C2018 1.395 . S
C2016 C2019 1.403 . S
H2017 C2023 0.930 . S
C2018 H2004 0.930 . S
C2018 C2016 1.395 . S
C2018 C2021 1.403 . S
C2019 C2016 1.403 . S
C2019 C2020 1.524 . S
C2019 C2023 1.400 . S
C2020 H2005 0.960 . S
C2020 H2006 0.960 . S
C2020 H2007 0.960 . S
C2020 C2019 1.524 . S
C2021 C2018 1.403 . S
C2021 C2022 1.392 . S
C2021 C2025 1.495 . S
C2022 C2021 1.392 . S
C2022 C2023 1.385 . S
C2022 C2024 1.478 . S
C2023 H2017 0.930 . S
C2023 C2019 1.400 . S
C2023 C2022 1.385 . S
C2024 C2022 1.478 . S
C2024 C2026 1.381 . S
C2024 C2030 1.383 . S
C2025 C2021 1.495 . S
C2025 H2031 0.959 . S
C2025 H2032 0.961 . S
C2025 H2033 0.960 . S
C2026 C2024 1.381 . S
C2026 C2027 1.394 . S
C2026 H2034 0.930 . S
C2027 C2026 1.394 . S
C2027 C2028 1.383 . S
C2027 H2035 0.929 . S
C2028 C2027 1.383 . S
C2028 C2029 1.377 . S
C2029 H2013 0.930 . S
C2029 C2028 1.377 . S
C2029 C2030 1.379 . S
C2030 H2014 0.931 . S
C2030 C2024 1.383 . S
C2030 C2029 1.379 . S
H2031 C2025 0.959 . S
H2032 C2025 0.961 . S
H2033 C2025 0.960 . S
H2034 C2026 0.930 . S
H2035 C2027 0.929 . S
H2036 C2044 0.929 . S
H2037 C2046 0.930 . S
H2038 C2048 0.930 . S
H2039 C2051 0.929 . S
H2040 C2054 0.930 . S
H2041 C2056 0.960 . S
H2042 C2056 0.960 . S
H2043 C2056 0.960 . S
C2044 H2036 0.929 . S
C2044 C2045 1.377 . S
C2044 C2046 1.384 . S
C2045 C2044 1.377 . S
C2045 C2051 1.390 . S
C2046 H2037 0.930 . S
C2046 C2044 1.384 . S
C2046 C2047 1.372 . S
C2047 C2046 1.372 . S
C2047 C2048 1.400 . S
C2047 C2052 1.490 . S
C2048 H2038 0.930 . S
C2048 C2047 1.400 . S
C2048 C2051 1.386 . S
H2049 C2065 0.930 . S
H2050 C2066 0.931 . S
C2051 H2039 0.929 . S
C2051 C2045 1.390 . S
C2051 C2048 1.386 . S
C2052 C2047 1.490 . S
C2052 C2054 1.395 . S
C2052 C2055 1.403 . S
H2053 C2059 0.930 . S
C2054 H2040 0.930 . S
C2054 C2052 1.395 . S
C2054 C2057 1.403 . S
C2055 C2052 1.403 . S
C2055 C2056 1.524 . S
C2055 C2059 1.400 . S
C2056 H2041 0.960 . S
C2056 H2042 0.960 . S
C2056 H2043 0.960 . S
C2056 C2055 1.524 . S
C2057 C2054 1.403 . S
C2057 C2058 1.392 . S
C2057 C2061 1.495 . S
C2058 C2057 1.392 . S
C2058 C2059 1.385 . S
C2058 C2060 1.478 . S
C2059 H2053 0.930 . S
C2059 C2055 1.400 . S
C2059 C2058 1.385 . S
C2060 C2058 1.478 . S
C2060 C2062 1.381 . S
C2060 C2066 1.383 . S
C2061 C2057 1.495 . S
C2061 H2067 0.959 . S
C2061 H2068 0.961 . S
C2061 H2069 0.960 . S
C2062 C2060 1.381 . S
C2062 C2063 1.394 . S
C2062 H2070 0.930 . S
C2063 C2062 1.394 . S
C2063 C2064 1.383 . S
C2063 H2071 0.929 . S
C2064 C2063 1.383 . S
C2064 C2065 1.377 . S
C2065 H2049 0.930 . S
C2065 C2064 1.377 . S
C2065 C2066 1.379 . S
C2066 H2050 0.931 . S
C2066 C2060 1.383 . S
C2066 C2065 1.379 . S
H2067 C2061 0.959 . S
H2068 C2061 0.961 . S
H2069 C2061 0.960 . S
H2070 C2062 0.930 . S
H2071 C2063 0.929 . S
H2072 C2080 0.929 . S
H2073 C2082 0.930 . S
H2074 C2084 0.930 . S
H2075 C2087 0.929 . S
H2076 C2090 0.930 . S
H2077 C2092 0.960 . S
H2078 C2092 0.960 . S
H2079 C2092 0.960 . S
C2080 H2072 0.929 . S
C2080 C2081 1.377 . S
C2080 C2082 1.384 . S
C2081 C2080 1.377 . S
C2081 C2087 1.390 . S
C2082 H2073 0.930 . S
C2082 C2080 1.384 . S
C2082 C2083 1.372 . S
C2083 C2082 1.372 . S
C2083 C2084 1.400 . S
C2083 C2088 1.490 . S
C2084 H2074 0.930 . S
C2084 C2083 1.400 . S
C2084 C2087 1.386 . S
H2085 C2101 0.930 . S
H2086 C2102 0.931 . S
C2087 H2075 0.929 . S
C2087 C2081 1.390 . S
C2087 C2084 1.386 . S
C2088 C2083 1.490 . S
C2088 C2090 1.395 . S
C2088 C2091 1.403 . S
H2089 C2095 0.930 . S
C2090 H2076 0.930 . S
C2090 C2088 1.395 . S
C2090 C2093 1.403 . S
C2091 C2088 1.403 . S
C2091 C2092 1.524 . S
C2091 C2095 1.400 . S
C2092 H2077 0.960 . S
C2092 H2078 0.960 . S
C2092 H2079 0.960 . S
C2092 C2091 1.524 . S
C2093 C2090 1.403 . S
C2093 C2094 1.392 . S
C2093 C2097 1.495 . S
C2094 C2093 1.392 . S
C2094 C2095 1.385 . S
C2094 C2096 1.478 . S
C2095 H2089 0.930 . S
C2095 C2091 1.400 . S
C2095 C2094 1.385 . S
C2096 C2094 1.478 . S
C2096 C2098 1.381 . S
C2096 C2102 1.383 . S
C2097 C2093 1.495 . S
C2097 H2103 0.959 . S
C2097 H2104 0.961 . S
C2097 H2105 0.960 . S
C2098 C2096 1.381 . S
C2098 C2099 1.394 . S
C2098 H2106 0.930 . S
C2099 C2098 1.394 . S
C2099 C2100 1.383 . S
C2099 H2107 0.929 . S
C2100 C2099 1.383 . S
C2100 C2101 1.377 . S
C2101 H2085 0.930 . S
C2101 C2100 1.377 . S
C2101 C2102 1.379 . S
C2102 H2086 0.931 . S
C2102 C2096 1.383 . S
C2102 C2101 1.379 . S
H2103 C2097 0.959 . S
H2104 C2097 0.961 . S
H2105 C2097 0.960 . S
H2106 C2098 0.930 . S
H2107 C2099 0.929 . S
H2108 C2116 0.929 . S
H2109 C2118 0.930 . S
H2110 C2120 0.930 . S
H2111 C2123 0.929 . S
H2112 C2126 0.930 . S
H2113 C2128 0.960 . S
H2114 C2128 0.960 . S
H2115 C2128 0.960 . S
C2116 H2108 0.929 . S
C2116 C2117 1.377 . S
C2116 C2118 1.384 . S
C2117 C2116 1.377 . S
C2117 C2123 1.390 . S
C2118 H2109 0.930 . S
C2118 C2116 1.384 . S
C2118 C2119 1.372 . S
C2119 C2118 1.372 . S
C2119 C2120 1.400 . S
C2119 C2124 1.490 . S
C2120 H2110 0.930 . S
C2120 C2119 1.400 . S
C2120 C2123 1.386 . S
H2121 C2137 0.930 . S
H2122 C2138 0.931 . S
C2123 H2111 0.929 . S
C2123 C2117 1.390 . S
C2123 C2120 1.386 . S
C2124 C2119 1.490 . S
C2124 C2126 1.395 . S
C2124 C2127 1.403 . S
H2125 C2131 0.930 . S
C2126 H2112 0.930 . S
C2126 C2124 1.395 . S
C2126 C2129 1.403 . S
C2127 C2124 1.403 . S
C2127 C2128 1.524 . S
C2127 C2131 1.400 . S
C2128 H2113 0.960 . S
C2128 H2114 0.960 . S
C2128 H2115 0.960 . S
C2128 C2127 1.524 . S
C2129 C2126 1.403 . S
C2129 C2130 1.392 . S
C2129 C2133 1.495 . S
C2130 C2129 1.392 . S
C2130 C2131 1.385 . S
C2130 C2132 1.478 . S
C2131 H2125 0.930 . S
C2131 C2127 1.400 . S
C2131 C2130 1.385 . S
C2132 C2130 1.478 . S
C2132 C2134 1.381 . S
C2132 C2138 1.383 . S
C2133 C2129 1.495 . S
C2133 H2139 0.959 . S
C2133 H2140 0.961 . S
C2133 H2141 0.960 . S
C2134 C2132 1.381 . S
C2134 C2135 1.394 . S
C2134 H2142 0.930 . S
C2135 C2134 1.394 . S
C2135 C2136 1.383 . S
C2135 H2143 0.929 . S
C2136 C2135 1.383 . S
C2136 C2137 1.377 . S
C2137 H2121 0.930 . S
C2137 C2136 1.377 . S
C2137 C2138 1.379 . S
C2138 H2122 0.931 . S
C2138 C2132 1.383 . S
C2138 C2137 1.379 . S
H2139 C2133 0.959 . S
H2140 C2133 0.961 . S
H2141 C2133 0.960 . S
H2142 C2134 0.930 . S
H2143 C2135 0.929 . S
H2144 C2152 0.929 . S
H2145 C2154 0.930 . S
H2146 C2156 0.930 . S
H2147 C2159 0.929 . S
H2148 C2162 0.930 . S
H2149 C2164 0.960 . S
H2150 C2164 0.960 . S
H2151 C2164 0.960 . S
C2152 H2144 0.929 . S
C2152 C2153 1.377 . S
C2152 C2154 1.384 . S
C2153 C2152 1.377 . S
C2153 C2159 1.390 . S
C2154 H2145 0.930 . S
C2154 C2152 1.384 . S
C2154 C2155 1.372 . S
C2155 C2154 1.372 . S
C2155 C2156 1.400 . S
C2155 C2160 1.490 . S
C2156 H2146 0.930 . S
C2156 C2155 1.400 . S
C2156 C2159 1.386 . S
H2157 C2173 0.930 . S
H2158 C2174 0.931 . S
C2159 H2147 0.929 . S
C2159 C2153 1.390 . S
C2159 C2156 1.386 . S
C2160 C2155 1.490 . S
C2160 C2162 1.395 . S
C2160 C2163 1.403 . S
H2161 C2167 0.930 . S
C2162 H2148 0.930 . S
C2162 C2160 1.395 . S
C2162 C2165 1.403 . S
C2163 C2160 1.403 . S
C2163 C2164 1.524 . S
C2163 C2167 1.400 . S
C2164 H2149 0.960 . S
C2164 H2150 0.960 . S
C2164 H2151 0.960 . S
C2164 C2163 1.524 . S
C2165 C2162 1.403 . S
C2165 C2166 1.392 . S
C2165 C2169 1.495 . S
C2166 C2165 1.392 . S
C2166 C2167 1.385 . S
C2166 C2168 1.478 . S
C2167 H2161 0.930 . S
C2167 C2163 1.400 . S
C2167 C2166 1.385 . S
C2168 C2166 1.478 . S
C2168 C2170 1.381 . S
C2168 C2174 1.383 . S
C2169 C2165 1.495 . S
C2169 H2175 0.959 . S
C2169 H2176 0.961 . S
C2169 H2177 0.960 . S
C2170 C2168 1.381 . S
C2170 C2171 1.394 . S
C2170 H2178 0.930 . S
C2171 C2170 1.394 . S
C2171 C2172 1.383 . S
C2171 H2179 0.929 . S
C2172 C2171 1.383 . S
C2172 C2173 1.377 . S
C2173 H2157 0.930 . S
C2173 C2172 1.377 . S
C2173 C2174 1.379 . S
C2174 H2158 0.931 . S
C2174 C2168 1.383 . S
C2174 C2173 1.379 . S
H2175 C2169 0.959 . S
H2176 C2169 0.961 . S
H2177 C2169 0.960 . S
H2178 C2170 0.930 . S
H2179 C2171 0.929 . S
H2180 C2188 0.929 . S
H2181 C2190 0.930 . S
H2182 C2192 0.930 . S
H2183 C2195 0.929 . S
H2184 C2198 0.930 . S
H2185 C2200 0.960 . S
H2186 C2200 0.960 . S
H2187 C2200 0.960 . S
C2188 H2180 0.929 . S
C2188 C2189 1.377 . S
C2188 C2190 1.384 . S
C2189 C2188 1.377 . S
C2189 C2195 1.390 . S
C2190 H2181 0.930 . S
C2190 C2188 1.384 . S
C2190 C2191 1.372 . S
C2191 C2190 1.372 . S
C2191 C2192 1.400 . S
C2191 C2196 1.490 . S
C2192 H2182 0.930 . S
C2192 C2191 1.400 . S
C2192 C2195 1.386 . S
H2193 C2209 0.930 . S
H2194 C2210 0.931 . S
C2195 H2183 0.929 . S
C2195 C2189 1.390 . S
C2195 C2192 1.386 . S
C2196 C2191 1.490 . S
C2196 C2198 1.395 . S
C2196 C2199 1.403 . S
H2197 C2203 0.930 . S
C2198 H2184 0.930 . S
C2198 C2196 1.395 . S
C2198 C2201 1.403 . S
C2199 C2196 1.403 . S
C2199 C2200 1.524 . S
C2199 C2203 1.400 . S
C2200 H2185 0.960 . S
C2200 H2186 0.960 . S
C2200 H2187 0.960 . S
C2200 C2199 1.524 . S
C2201 C2198 1.403 . S
C2201 C2202 1.392 . S
C2201 C2205 1.495 . S
C2202 C2201 1.392 . S
C2202 C2203 1.385 . S
C2202 C2204 1.478 . S
C2203 H2197 0.930 . S
C2203 C2199 1.400 . S
C2203 C2202 1.385 . S
C2204 C2202 1.478 . S
C2204 C2206 1.381 . S
C2204 C2210 1.383 . S
C2205 C2201 1.495 . S
C2205 H2211 0.959 . S
C2205 H2212 0.961 . S
C2205 H2213 0.960 . S
C2206 C2204 1.381 . S
C2206 C2207 1.394 . S
C2206 H2214 0.930 . S
C2207 C2206 1.394 . S
C2207 C2208 1.383 . S
C2207 H2215 0.929 . S
C2208 C2207 1.383 . S
C2208 C2209 1.377 . S
C2209 H2193 0.930 . S
C2209 C2208 1.377 . S
C2209 C2210 1.379 . S
C2210 H2194 0.931 . S
C2210 C2204 1.383 . S
C2210 C2209 1.379 . S
H2211 C2205 0.959 . S
H2212 C2205 0.961 . S
H2213 C2205 0.960 . S
H2214 C2206 0.930 . S
H2215 C2207 0.929 . S
H2216 C2224 0.929 . S
H2217 C2226 0.930 . S
H2218 C2228 0.930 . S
H2219 C2231 0.929 . S
H2220 C2234 0.930 . S
H2221 C2236 0.960 . S
H2222 C2236 0.960 . S
H2223 C2236 0.960 . S
C2224 H2216 0.929 . S
C2224 C2225 1.377 . S
C2224 C2226 1.384 . S
C2225 C2224 1.377 . S
C2225 C2231 1.390 . S
C2226 H2217 0.930 . S
C2226 C2224 1.384 . S
C2226 C2227 1.372 . S
C2227 C2226 1.372 . S
C2227 C2228 1.400 . S
C2227 C2232 1.490 . S
C2228 H2218 0.930 . S
C2228 C2227 1.400 . S
C2228 C2231 1.386 . S
H2229 C2245 0.930 . S
H2230 C2246 0.931 . S
C2231 H2219 0.929 . S
C2231 C2225 1.390 . S
C2231 C2228 1.386 . S
C2232 C2227 1.490 . S
C2232 C2234 1.395 . S
C2232 C2235 1.403 . S
H2233 C2239 0.930 . S
C2234 H2220 0.930 . S
C2234 C2232 1.395 . S
C2234 C2237 1.403 . S
C2235 C2232 1.403 . S
C2235 C2236 1.524 . S
C2235 C2239 1.400 . S
C2236 H2221 0.960 . S
C2236 H2222 0.960 . S
C2236 H2223 0.960 . S
C2236 C2235 1.524 . S
C2237 C2234 1.403 . S
C2237 C2238 1.392 . S
C2237 C2241 1.495 . S
C2238 C2237 1.392 . S
C2238 C2239 1.385 . S
C2238 C2240 1.478 . S
C2239 H2233 0.930 . S
C2239 C2235 1.400 . S
C2239 C2238 1.385 . S
C2240 C2238 1.478 . S
C2240 C2242 1.381 . S
C2240 C2246 1.383 . S
C2241 C2237 1.495 . S
C2241 H2247 0.959 . S
C2241 H2248 0.961 . S
C2241 H2249 0.960 . S
C2242 C2240 1.381 . S
C2242 C2243 1.394 . S
C2242 H2250 0.930 . S
C2243 C2242 1.394 . S
C2243 C2244 1.383 . S
C2243 H2251 0.929 . S
C2244 C2243 1.383 . S
C2244 C2245 1.377 . S
C2245 H2229 0.930 . S
C2245 C2244 1.377 . S
C2245 C2246 1.379 . S
C2246 H2230 0.931 . S
C2246 C2240 1.383 . S
C2246 C2245 1.379 . S
H2247 C2241 0.959 . S
H2248 C2241 0.961 . S
H2249 C2241 0.960 . S
H2250 C2242 0.930 . S
H2251 C2243 0.929 . S
H2252 C2260 0.929 . S
H2253 C2262 0.930 . S
H2254 C2264 0.930 . S
H2255 C2267 0.929 . S
H2256 C2270 0.930 . S
H2257 C2272 0.960 . S
H2258 C2272 0.960 . S
H2259 C2272 0.960 . S
C2260 H2252 0.929 . S
C2260 C2261 1.377 . S
C2260 C2262 1.384 . S
C2261 C2260 1.377 . S
C2261 C2267 1.390 . S
C2262 H2253 0.930 . S
C2262 C2260 1.384 . S
C2262 C2263 1.372 . S
C2263 C2262 1.372 . S
C2263 C2264 1.400 . S
C2263 C2268 1.490 . S
C2264 H2254 0.930 . S
C2264 C2263 1.400 . S
C2264 C2267 1.386 . S
H2265 C2281 0.930 . S
H2266 C2282 0.931 . S
C2267 H2255 0.929 . S
C2267 C2261 1.390 . S
C2267 C2264 1.386 . S
C2268 C2263 1.490 . S
C2268 C2270 1.395 . S
C2268 C2271 1.403 . S
H2269 C2275 0.930 . S
C2270 H2256 0.930 . S
C2270 C2268 1.395 . S
C2270 C2273 1.403 . S
C2271 C2268 1.403 . S
C2271 C2272 1.524 . S
C2271 C2275 1.400 . S
C2272 H2257 0.960 . S
C2272 H2258 0.960 . S
C2272 H2259 0.960 . S
C2272 C2271 1.524 . S
C2273 C2270 1.403 . S
C2273 C2274 1.392 . S
C2273 C2277 1.495 . S
C2274 C2273 1.392 . S
C2274 C2275 1.385 . S
C2274 C2276 1.478 . S
C2275 H2269 0.930 . S
C2275 C2271 1.400 . S
C2275 C2274 1.385 . S
C2276 C2274 1.478 . S
C2276 C2278 1.381 . S
C2276 C2282 1.383 . S
C2277 C2273 1.495 . S
C2277 H2283 0.959 . S
C2277 H2284 0.961 . S
C2277 H2285 0.960 . S
C2278 C2276 1.381 . S
C2278 C2279 1.394 . S
C2278 H2286 0.930 . S
C2279 C2278 1.394 . S
C2279 C2280 1.383 . S
C2279 H2287 0.929 . S
C2280 C2279 1.383 . S
C2280 C2281 1.377 . S
C2281 H2265 0.930 . S
C2281 C2280 1.377 . S
C2281 C2282 1.379 . S
C2282 H2266 0.931 . S
C2282 C2276 1.383 . S
C2282 C2281 1.379 . S
H2283 C2277 0.959 . S
H2284 C2277 0.961 . S
H2285 C2277 0.960 . S
H2286 C2278 0.930 . S
H2287 C2279 0.929 . S
H2288 C2296 0.929 . S
H2289 C2298 0.930 . S
H2290 C2300 0.930 . S
H2291 C2303 0.929 . S
H2292 C2306 0.930 . S
H2293 C2308 0.960 . S
H2294 C2308 0.960 . S
H2295 C2308 0.960 . S
C2296 H2288 0.929 . S
C2296 C2297 1.377 . S
C2296 C2298 1.384 . S
C2297 C2296 1.377 . S
C2297 C2303 1.390 . S
C2298 H2289 0.930 . S
C2298 C2296 1.384 . S
C2298 C2299 1.372 . S
C2299 C2298 1.372 . S
C2299 C2300 1.400 . S
C2299 C2304 1.490 . S
C2300 H2290 0.930 . S
C2300 C2299 1.400 . S
C2300 C2303 1.386 . S
H2301 C2317 0.930 . S
H2302 C2318 0.931 . S
C2303 H2291 0.929 . S
C2303 C2297 1.390 . S
C2303 C2300 1.386 . S
C2304 C2299 1.490 . S
C2304 C2306 1.395 . S
C2304 C2307 1.403 . S
H2305 C2311 0.930 . S
C2306 H2292 0.930 . S
C2306 C2304 1.395 . S
C2306 C2309 1.403 . S
C2307 C2304 1.403 . S
C2307 C2308 1.524 . S
C2307 C2311 1.400 . S
C2308 H2293 0.960 . S
C2308 H2294 0.960 . S
C2308 H2295 0.960 . S
C2308 C2307 1.524 . S
C2309 C2306 1.403 . S
C2309 C2310 1.392 . S
C2309 C2313 1.495 . S
C2310 C2309 1.392 . S
C2310 C2311 1.385 . S
C2310 C2312 1.478 . S
C2311 H2305 0.930 . S
C2311 C2307 1.400 . S
C2311 C2310 1.385 . S
C2312 C2310 1.478 . S
C2312 C2314 1.381 . S
C2312 C2318 1.383 . S
C2313 C2309 1.495 . S
C2313 H2319 0.959 . S
C2313 H2320 0.961 . S
C2313 H2321 0.960 . S
C2314 C2312 1.381 . S
C2314 C2315 1.394 . S
C2314 H2322 0.930 . S
C2315 C2314 1.394 . S
C2315 C2316 1.383 . S
C2315 H2323 0.929 . S
C2316 C2315 1.383 . S
C2316 C2317 1.377 . S
C2317 H2301 0.930 . S
C2317 C2316 1.377 . S
C2317 C2318 1.379 . S
C2318 H2302 0.931 . S
C2318 C2312 1.383 . S
C2318 C2317 1.379 . S
H2319 C2313 0.959 . S
H2320 C2313 0.961 . S
H2321 C2313 0.960 . S
H2322 C2314 0.930 . S
H2323 C2315 0.929 . S
H2324 C2332 0.929 . S
H2325 C2334 0.930 . S
H2326 C2336 0.930 . S
H2327 C2339 0.929 . S
H2328 C2342 0.930 . S
H2329 C2344 0.960 . S
H2330 C2344 0.960 . S
H2331 C2344 0.960 . S
C2332 H2324 0.929 . S
C2332 C2333 1.377 . S
C2332 C2334 1.384 . S
C2333 C2332 1.377 . S
C2333 C2339 1.390 . S
C2334 H2325 0.930 . S
C2334 C2332 1.384 . S
C2334 C2335 1.372 . S
C2335 C2334 1.372 . S
C2335 C2336 1.400 . S
C2335 C2340 1.490 . S
C2336 H2326 0.930 . S
C2336 C2335 1.400 . S
C2336 C2339 1.386 . S
H2337 C2353 0.930 . S
H2338 C2354 0.931 . S
C2339 H2327 0.929 . S
C2339 C2333 1.390 . S
C2339 C2336 1.386 . S
C2340 C2335 1.490 . S
C2340 C2342 1.395 . S
C2340 C2343 1.403 . S
H2341 C2347 0.930 . S
C2342 H2328 0.930 . S
C2342 C2340 1.395 . S
C2342 C2345 1.403 . S
C2343 C2340 1.403 . S
C2343 C2344 1.524 . S
C2343 C2347 1.400 . S
C2344 H2329 0.960 . S
C2344 H2330 0.960 . S
C2344 H2331 0.960 . S
C2344 C2343 1.524 . S
C2345 C2342 1.403 . S
C2345 C2346 1.392 . S
C2345 C2349 1.495 . S
C2346 C2345 1.392 . S
C2346 C2347 1.385 . S
C2346 C2348 1.478 . S
C2347 H2341 0.930 . S
C2347 C2343 1.400 . S
C2347 C2346 1.385 . S
C2348 C2346 1.478 . S
C2348 C2350 1.381 . S
C2348 C2354 1.383 . S
C2349 C2345 1.495 . S
C2349 H2355 0.959 . S
C2349 H2356 0.961 . S
C2349 H2357 0.960 . S
C2350 C2348 1.381 . S
C2350 C2351 1.394 . S
C2350 H2358 0.930 . S
C2351 C2350 1.394 . S
C2351 C2352 1.383 . S
C2351 H2359 0.929 . S
C2352 C2351 1.383 . S
C2352 C2353 1.377 . S
C2353 H2337 0.930 . S
C2353 C2352 1.377 . S
C2353 C2354 1.379 . S
C2354 H2338 0.931 . S
C2354 C2348 1.383 . S
C2354 C2353 1.379 . S
H2355 C2349 0.959 . S
H2356 C2349 0.961 . S
H2357 C2349 0.960 . S
H2358 C2350 0.930 . S
H2359 C2351 0.929 . S
H2360 C2368 0.929 . S
H2361 C2370 0.930 . S
H2362 C2372 0.930 . S
H2363 C2375 0.929 . S
H2364 C2378 0.930 . S
H2365 C2380 0.960 . S
H2366 C2380 0.960 . S
H2367 C2380 0.960 . S
C2368 H2360 0.929 . S
C2368 C2369 1.377 . S
C2368 C2370 1.384 . S
C2369 C2368 1.377 . S
C2369 C2375 1.390 . S
C2370 H2361 0.930 . S
C2370 C2368 1.384 . S
C2370 C2371 1.372 . S
C2371 C2370 1.372 . S
C2371 C2372 1.400 . S
C2371 C2376 1.490 . S
C2372 H2362 0.930 . S
C2372 C2371 1.400 . S
C2372 C2375 1.386 . S
H2373 C2389 0.930 . S
H2374 C2390 0.931 . S
C2375 H2363 0.929 . S
C2375 C2369 1.390 . S
C2375 C2372 1.386 . S
C2376 C2371 1.490 . S
C2376 C2378 1.395 . S
C2376 C2379 1.403 . S
H2377 C2383 0.930 . S
C2378 H2364 0.930 . S
C2378 C2376 1.395 . S
C2378 C2381 1.403 . S
C2379 C2376 1.403 . S
C2379 C2380 1.524 . S
C2379 C2383 1.400 . S
C2380 H2365 0.960 . S
C2380 H2366 0.960 . S
C2380 H2367 0.960 . S
C2380 C2379 1.524 . S
C2381 C2378 1.403 . S
C2381 C2382 1.392 . S
C2381 C2385 1.495 . S
C2382 C2381 1.392 . S
C2382 C2383 1.385 . S
C2382 C2384 1.478 . S
C2383 H2377 0.930 . S
C2383 C2379 1.400 . S
C2383 C2382 1.385 . S
C2384 C2382 1.478 . S
C2384 C2386 1.381 . S
C2384 C2390 1.383 . S
C2385 C2381 1.495 . S
C2385 H2391 0.959 . S
C2385 H2392 0.961 . S
C2385 H2393 0.960 . S
C2386 C2384 1.381 . S
C2386 C2387 1.394 . S
C2386 H2394 0.930 . S
C2387 C2386 1.394 . S
C2387 C2388 1.383 . S
C2387 H2395 0.929 . S
C2388 C2387 1.383 . S
C2388 C2389 1.377 . S
C2389 H2373 0.930 . S
C2389 C2388 1.377 . S
C2389 C2390 1.379 . S
C2390 H2374 0.931 . S
C2390 C2384 1.383 . S
C2390 C2389 1.379 . S
H2391 C2385 0.959 . S
H2392 C2385 0.961 . S
H2393 C2385 0.960 . S
H2394 C2386 0.930 . S
H2395 C2387 0.929 . S
H2396 C2404 0.929 . S
H2397 C2406 0.930 . S
H2398 C2408 0.930 . S
H2399 C2411 0.929 . S
H2400 C2414 0.930 . S
H2401 C2416 0.960 . S
H2402 C2416 0.960 . S
H2403 C2416 0.960 . S
C2404 H2396 0.929 . S
C2404 C2405 1.377 . S
C2404 C2406 1.384 . S
C2405 C2404 1.377 . S
C2405 C2411 1.390 . S
C2406 H2397 0.930 . S
C2406 C2404 1.384 . S
C2406 C2407 1.372 . S
C2407 C2406 1.372 . S
C2407 C2408 1.400 . S
C2407 C2412 1.490 . S
C2408 H2398 0.930 . S
C2408 C2407 1.400 . S
C2408 C2411 1.386 . S
H2409 C2425 0.930 . S
H2410 C2426 0.931 . S
C2411 H2399 0.929 . S
C2411 C2405 1.390 . S
C2411 C2408 1.386 . S
C2412 C2407 1.490 . S
C2412 C2414 1.395 . S
C2412 C2415 1.403 . S
H2413 C2419 0.930 . S
C2414 H2400 0.930 . S
C2414 C2412 1.395 . S
C2414 C2417 1.403 . S
C2415 C2412 1.403 . S
C2415 C2416 1.524 . S
C2415 C2419 1.400 . S
C2416 H2401 0.960 . S
C2416 H2402 0.960 . S
C2416 H2403 0.960 . S
C2416 C2415 1.524 . S
C2417 C2414 1.403 . S
C2417 C2418 1.392 . S
C2417 C2421 1.495 . S
C2418 C2417 1.392 . S
C2418 C2419 1.385 . S
C2418 C2420 1.478 . S
C2419 H2413 0.930 . S
C2419 C2415 1.400 . S
C2419 C2418 1.385 . S
C2420 C2418 1.478 . S
C2420 C2422 1.381 . S
C2420 C2426 1.383 . S
C2421 C2417 1.495 . S
C2421 H2427 0.959 . S
C2421 H2428 0.961 . S
C2421 H2429 0.960 . S
C2422 C2420 1.381 . S
C2422 C2423 1.394 . S
C2422 H2430 0.930 . S
C2423 C2422 1.394 . S
C2423 C2424 1.383 . S
C2423 H2431 0.929 . S
C2424 C2423 1.383 . S
C2424 C2425 1.377 . S
C2425 H2409 0.930 . S
C2425 C2424 1.377 . S
C2425 C2426 1.379 . S
C2426 H2410 0.931 . S
C2426 C2420 1.383 . S
C2426 C2425 1.379 . S
H2427 C2421 0.959 . S
H2428 C2421 0.961 . S
H2429 C2421 0.960 . S
H2430 C2422 0.930 . S
H2431 C2423 0.929 . S
H2432 C2440 0.929 . S
H2433 C2442 0.930 . S
H2434 C2444 0.930 . S
H2435 C2447 0.929 . S
H2436 C2450 0.930 . S
H2437 C2452 0.960 . S
H2438 C2452 0.960 . S
H2439 C2452 0.960 . S
C2440 H2432 0.929 . S
C2440 C2441 1.377 . S
C2440 C2442 1.384 . S
C2441 C2440 1.377 . S
C2441 C2447 1.390 . S
C2442 H2433 0.930 . S
C2442 C2440 1.384 . S
C2442 C2443 1.372 . S
C2443 C2442 1.372 . S
C2443 C2444 1.400 . S
C2443 C2448 1.490 . S
C2444 H2434 0.930 . S
C2444 C2443 1.400 . S
C2444 C2447 1.386 . S
H2445 C2461 0.930 . S
H2446 C2462 0.931 . S
C2447 H2435 0.929 . S
C2447 C2441 1.390 . S
C2447 C2444 1.386 . S
C2448 C2443 1.490 . S
C2448 C2450 1.395 . S
C2448 C2451 1.403 . S
H2449 C2455 0.930 . S
C2450 H2436 0.930 . S
C2450 C2448 1.395 . S
C2450 C2453 1.403 1_455 S
C2451 C2448 1.403 . S
C2451 C2452 1.524 . S
C2451 C2455 1.400 1_455 S
C2452 H2437 0.960 . S
C2452 H2438 0.960 . S
C2452 H2439 0.960 . S
C2452 C2451 1.524 . S
C2453 C2450 1.403 1_655 S
C2453 C2454 1.392 . S
C2453 C2457 1.495 . S
C2454 C2453 1.392 . S
C2454 C2455 1.385 . S
C2454 C2456 1.478 . S
C2455 H2449 0.930 . S
C2455 C2451 1.400 1_655 S
C2455 C2454 1.385 . S
C2456 C2454 1.478 . S
C2456 C2458 1.381 . S
C2456 C2462 1.383 . S
C2457 C2453 1.495 . S
C2457 H2463 0.959 . S
C2457 H2464 0.961 . S
C2457 H2465 0.960 . S
C2458 C2456 1.381 . S
C2458 C2459 1.394 . S
C2458 H2466 0.930 . S
C2459 C2458 1.394 . S
C2459 C2460 1.383 . S
C2459 H2467 0.929 . S
C2460 C2459 1.383 . S
C2460 C2461 1.377 . S
C2461 H2445 0.930 . S
C2461 C2460 1.377 . S
C2461 C2462 1.379 . S
C2462 H2446 0.931 . S
C2462 C2456 1.383 . S
C2462 C2461 1.379 . S
H2463 C2457 0.959 . S
H2464 C2457 0.961 . S
H2465 C2457 0.960 . S
H2466 C2458 0.930 . S
H2467 C2459 0.929 . S
H2468 C2476 0.929 . S
H2469 C2478 0.930 . S
H2470 C2480 0.930 . S
H2471 C2483 0.929 1_455 S
H2472 C2486 0.930 . S
H2473 C2488 0.960 . S
H2474 C2488 0.960 . S
H2475 C2488 0.960 . S
C2476 H2468 0.929 . S
C2476 C2477 1.377 . S
C2476 C2478 1.384 . S
C2477 C2476 1.377 . S
C2477 C2483 1.390 . S
C2478 H2469 0.930 . S
C2478 C2476 1.384 . S
C2478 C2479 1.372 . S
C2479 C2478 1.372 . S
C2479 C2480 1.400 1_655 S
C2479 C2484 1.490 . S
C2480 H2470 0.930 . S
C2480 C2479 1.400 1_455 S
C2480 C2483 1.386 1_455 S
H2481 C2497 0.930 . S
H2482 C2498 0.931 . S
C2483 H2471 0.929 1_655 S
C2483 C2477 1.390 . S
C2483 C2480 1.386 1_655 S
C2484 C2479 1.490 . S
C2484 C2486 1.395 . S
C2484 C2487 1.403 1_655 S
H2485 C2491 0.930 . S
C2486 H2472 0.930 . S
C2486 C2484 1.395 . S
C2486 C2489 1.403 . S
C2487 C2484 1.403 1_455 S
C2487 C2488 1.524 . S
C2487 C2491 1.400 . S
C2488 H2473 0.960 . S
C2488 H2474 0.960 . S
C2488 H2475 0.960 . S
C2488 C2487 1.524 . S
C2489 C2486 1.403 . S
C2489 C2490 1.395 . S
C2489 C2493 1.495 . S
C2490 C2489 1.395 . S
C2490 C2491 1.382 1_655 S
C2490 C2492 1.477 1_655 S
C2491 H2485 0.930 . S
C2491 C2487 1.400 . S
C2491 C2490 1.382 1_455 S
C2492 C2490 1.477 1_455 S
C2492 C2494 1.381 1_455 S
C2492 C2498 1.383 . S
C2493 C2489 1.495 . S
C2493 H2499 0.959 . S
C2493 H2500 0.961 . S
C2493 H2501 0.960 . S
C2494 C2492 1.381 1_655 S
C2494 C2495 1.394 1_655 S
C2494 H2502 0.930 . S
C2495 C2494 1.394 1_455 S
C2495 C2496 1.383 . S
C2495 H2503 0.929 1_455 S
C2496 C2495 1.383 . S
C2496 C2497 1.377 . S
C2497 H2481 0.930 . S
C2497 C2496 1.377 . S
C2497 C2498 1.379 . S
C2498 H2482 0.931 . S
C2498 C2492 1.383 . S
C2498 C2497 1.379 . S
H2499 C2493 0.959 . S
H2500 C2493 0.961 . S
H2501 C2493 0.960 . S
H2502 C2494 0.930 . S
H2503 C2495 0.929 1_655 S
H2504 C2512 0.929 . S
H2505 C2514 0.930 . S
H2506 C2516 0.930 . S
H2507 C2519 0.929 . S
H2508 C2522 0.930 . S
H2509 C2524 0.960 . S
H2510 C2524 0.960 . S
H2511 C2524 0.960 . S
C2512 H2504 0.929 . S
C2512 C2513 1.377 . S
C2512 C2514 1.384 . S
C2513 C2512 1.377 . S
C2513 C2519 1.390 . S
C2514 H2505 0.930 . S
C2514 C2512 1.384 . S
C2514 C2515 1.372 . S
C2515 C2514 1.372 . S
C2515 C2516 1.400 . S
C2515 C2520 1.490 . S
C2516 H2506 0.930 . S
C2516 C2515 1.400 . S
C2516 C2519 1.386 . S
H2517 C2533 0.930 . S
H2518 C2534 0.931 . S
C2519 H2507 0.929 . S
C2519 C2513 1.390 . S
C2519 C2516 1.386 . S
C2520 C2515 1.490 . S
C2520 C2522 1.395 . S
C2520 C2523 1.403 . S
H2521 C2527 0.930 . S
C2522 H2508 0.930 . S
C2522 C2520 1.395 . S
C2522 C2525 1.403 . S
C2523 C2520 1.403 . S
C2523 C2524 1.524 . S
C2523 C2527 1.400 . S
C2524 H2509 0.960 . S
C2524 H2510 0.960 . S
C2524 H2511 0.960 . S
C2524 C2523 1.524 . S
C2525 C2522 1.403 . S
C2525 C2526 1.392 . S
C2525 C2529 1.495 . S
C2526 C2525 1.392 . S
C2526 C2527 1.385 . S
C2526 C2528 1.478 . S
C2527 H2521 0.930 . S
C2527 C2523 1.400 . S
C2527 C2526 1.385 . S
C2528 C2526 1.478 . S
C2528 C2530 1.381 . S
C2528 C2534 1.383 . S
C2529 C2525 1.495 . S
C2529 H2535 0.959 . S
C2529 H2536 0.961 . S
C2529 H2537 0.960 . S
C2530 C2528 1.381 . S
C2530 C2531 1.394 . S
C2530 H2538 0.930 . S
C2531 C2530 1.394 . S
C2531 C2532 1.383 . S
C2531 H2539 0.929 . S
C2532 C2531 1.383 . S
C2532 C2533 1.377 . S
C2533 H2517 0.930 . S
C2533 C2532 1.377 . S
C2533 C2534 1.379 . S
C2534 H2518 0.931 . S
C2534 C2528 1.383 . S
C2534 C2533 1.379 . S
H2535 C2529 0.959 . S
H2536 C2529 0.961 . S
H2537 C2529 0.960 . S
H2538 C2530 0.930 . S
H2539 C2531 0.929 . S
H2540 C2548 0.929 . S
H2541 C2550 0.930 . S
H2542 C2552 0.930 . S
H2543 C2555 0.929 . S
H2544 C2558 0.930 . S
H2545 C2560 0.960 . S
H2546 C2560 0.960 . S
H2547 C2560 0.960 . S
C2548 H2540 0.929 . S
C2548 C2549 1.377 . S
C2548 C2550 1.384 . S
C2549 C2548 1.377 . S
C2549 C2555 1.390 . S
C2550 H2541 0.930 . S
C2550 C2548 1.384 . S
C2550 C2551 1.372 . S
C2551 C2550 1.372 . S
C2551 C2552 1.400 . S
C2551 C2556 1.490 . S
C2552 H2542 0.930 . S
C2552 C2551 1.400 . S
C2552 C2555 1.386 . S
H2553 C2569 0.930 . S
H2554 C2570 0.931 . S
C2555 H2543 0.929 . S
C2555 C2549 1.390 . S
C2555 C2552 1.386 . S
C2556 C2551 1.490 . S
C2556 C2558 1.395 . S
C2556 C2559 1.403 . S
H2557 C2563 0.930 . S
C2558 H2544 0.930 . S
C2558 C2556 1.395 . S
C2558 C2561 1.403 . S
C2559 C2556 1.403 . S
C2559 C2560 1.524 . S
C2559 C2563 1.400 . S
C2560 H2545 0.960 . S
C2560 H2546 0.960 . S
C2560 H2547 0.960 . S
C2560 C2559 1.524 . S
C2561 C2558 1.403 . S
C2561 C2562 1.392 . S
C2561 C2565 1.495 . S
C2562 C2561 1.392 . S
C2562 C2563 1.385 . S
C2562 C2564 1.478 . S
C2563 H2557 0.930 . S
C2563 C2559 1.400 . S
C2563 C2562 1.385 . S
C2564 C2562 1.478 . S
C2564 C2566 1.381 . S
C2564 C2570 1.383 . S
C2565 C2561 1.495 . S
C2565 H2571 0.959 . S
C2565 H2572 0.961 . S
C2565 H2573 0.960 . S
C2566 C2564 1.381 . S
C2566 C2567 1.394 . S
C2566 H2574 0.930 . S
C2567 C2566 1.394 . S
C2567 C2568 1.383 . S
C2567 H2575 0.929 . S
C2568 C2567 1.383 . S
C2568 C2569 1.377 . S
C2569 H2553 0.930 . S
C2569 C2568 1.377 . S
C2569 C2570 1.379 . S
C2570 H2554 0.931 . S
C2570 C2564 1.383 . S
C2570 C2569 1.379 . S
H2571 C2565 0.959 . S
H2572 C2565 0.961 . S
H2573 C2565 0.960 . S
H2574 C2566 0.930 . S
H2575 C2567 0.929 . S
H2576 C2584 0.929 . S
H2577 C2586 0.930 . S
H2578 C2588 0.930 . S
H2579 C2591 0.929 . S
H2580 C2594 0.930 . S
H2581 C2596 0.926 1_455 S
H2582 C2596 0.960 . S
H2583 C2596 0.960 . S
C2584 H2576 0.929 . S
C2584 C2585 1.377 . S
C2584 C2586 1.384 . S
C2585 C2584 1.377 . S
C2585 C2591 1.390 . S
C2586 H2577 0.930 . S
C2586 C2584 1.384 . S
C2586 C2587 1.372 . S
C2587 C2586 1.372 . S
C2587 C2588 1.400 . S
C2587 C2592 1.490 . S
C2588 H2578 0.930 . S
C2588 C2587 1.400 . S
C2588 C2591 1.386 . S
H2589 C2605 0.930 . S
H2590 C2606 0.931 . S
C2591 H2579 0.929 . S
C2591 C2585 1.390 . S
C2591 C2588 1.386 . S
C2592 C2587 1.490 . S
C2592 C2594 1.395 . S
C2592 C2595 1.403 . S
H2593 C2599 0.930 . S
C2594 H2580 0.930 . S
C2594 C2592 1.395 . S
C2594 C2597 1.403 1_655 S
C2595 C2592 1.403 . S
C2595 C2596 1.524 . S
C2595 C2599 1.400 1_655 S
C2596 H2581 0.926 1_655 S
C2596 H2582 0.960 . S
C2596 H2583 0.960 . S
C2596 C2595 1.524 . S
C2597 C2594 1.403 1_455 S
C2597 C2598 1.392 . S
C2597 C2601 1.495 . S
C2598 C2597 1.392 . S
C2598 C2599 1.385 . S
C2598 C2600 1.478 . S
C2599 H2593 0.930 . S
C2599 C2595 1.400 1_455 S
C2599 C2598 1.385 . S
C2600 C2598 1.478 . S
C2600 C2602 1.381 . S
C2600 C2606 1.383 . S
C2601 C2597 1.495 . S
C2601 H2607 0.924 1_455 S
C2601 H2608 0.961 . S
C2601 H2609 0.960 . S
C2602 C2600 1.381 . S
C2602 C2603 1.394 . S
C2602 H2610 0.930 . S
C2603 C2602 1.394 . S
C2603 C2604 1.383 . S
C2603 H2611 0.929 . S
C2604 C2603 1.383 . S
C2604 C2605 1.377 . S
C2605 H2589 0.930 . S
C2605 C2604 1.377 . S
C2605 C2606 1.379 . S
C2606 H2590 0.931 . S
C2606 C2600 1.383 . S
C2606 C2605 1.379 . S
H2607 C2601 0.924 1_655 S
H2608 C2601 0.961 . S
H2609 C2601 0.960 . S
H2610 C2602 0.930 . S
H2611 C2603 0.929 . S
H2612 C2620 0.929 . S
H2613 C2622 0.930 . S
H2614 C2624 0.930 . S
H2615 C2627 0.929 . S
H2616 C2630 0.930 . S
H2617 C2632 0.960 . S
H2618 C2632 0.960 . S
H2619 C2632 0.960 . S
C2620 H2612 0.929 . S
C2620 C2621 1.377 . S
C2620 C2622 1.384 . S
C2621 C2620 1.377 . S
C2621 C2627 1.390 . S
C2622 H2613 0.930 . S
C2622 C2620 1.384 . S
C2622 C2623 1.372 . S
C2623 C2622 1.372 . S
C2623 C2624 1.400 . S
C2623 C2628 1.490 . S
C2624 H2614 0.930 . S
C2624 C2623 1.400 . S
C2624 C2627 1.386 . S
H2625 C2641 0.930 . S
H2626 C2642 0.931 . S
C2627 H2615 0.929 . S
C2627 C2621 1.390 . S
C2627 C2624 1.386 . S
C2628 C2623 1.490 . S
C2628 C2630 1.395 . S
C2628 C2631 1.403 . S
H2629 C2635 0.930 . S
C2630 H2616 0.930 . S
C2630 C2628 1.395 . S
C2630 C2633 1.403 . S
C2631 C2628 1.403 . S
C2631 C2632 1.524 . S
C2631 C2635 1.400 . S
C2632 H2617 0.960 . S
C2632 H2618 0.960 . S
C2632 H2619 0.960 . S
C2632 C2631 1.524 . S
C2633 C2630 1.403 . S
C2633 C2634 1.392 . S
C2633 C2637 1.495 . S
C2634 C2633 1.392 . S
C2634 C2635 1.385 . S
C2634 C2636 1.478 . S
C2635 H2629 0.930 . S
C2635 C2631 1.400 . S
C2635 C2634 1.385 . S
C2636 C2634 1.478 . S
C2636 C2638 1.381 . S
C2636 C2642 1.383 . S
C2637 C2633 1.495 . S
C2637 H2643 0.959 . S
C2637 H2644 0.961 . S
C2637 H2645 0.960 . S
C2638 C2636 1.381 . S
C2638 C2639 1.394 . S
C2638 H2646 0.930 . S
C2639 C2638 1.394 . S
C2639 C2640 1.383 . S
C2639 H2647 0.929 . S
C2640 C2639 1.383 . S
C2640 C2641 1.377 . S
C2641 H2625 0.930 . S
C2641 C2640 1.377 . S
C2641 C2642 1.379 . S
C2642 H2626 0.931 . S
C2642 C2636 1.383 . S
C2642 C2641 1.379 . S
H2643 C2637 0.959 . S
H2644 C2637 0.961 . S
H2645 C2637 0.960 . S
H2646 C2638 0.930 . S
H2647 C2639 0.929 . S
H2648 C2656 0.929 . S
H2649 C2658 0.930 . S
H2650 C2660 0.930 . S
H2651 C2663 0.929 . S
H2652 C2666 0.930 . S
H2653 C2668 0.960 . S
H2654 C2668 0.960 . S
H2655 C2668 0.960 . S
C2656 H2648 0.929 . S
C2656 C2657 1.377 . S
C2656 C2658 1.384 . S
C2657 C2656 1.377 . S
C2657 C2663 1.390 . S
C2658 H2649 0.930 . S
C2658 C2656 1.384 . S
C2658 C2659 1.372 . S
C2659 C2658 1.372 . S
C2659 C2660 1.400 . S
C2659 C2664 1.490 . S
C2660 H2650 0.930 . S
C2660 C2659 1.400 . S
C2660 C2663 1.386 . S
H2661 C2677 0.930 . S
H2662 C2678 0.931 . S
C2663 H2651 0.929 . S
C2663 C2657 1.390 . S
C2663 C2660 1.386 . S
C2664 C2659 1.490 . S
C2664 C2666 1.395 . S
C2664 C2667 1.403 . S
H2665 C2671 0.930 . S
C2666 H2652 0.930 . S
C2666 C2664 1.395 . S
C2666 C2669 1.403 . S
C2667 C2664 1.403 . S
C2667 C2668 1.524 . S
C2667 C2671 1.400 . S
C2668 H2653 0.960 . S
C2668 H2654 0.960 . S
C2668 H2655 0.960 . S
C2668 C2667 1.524 . S
C2669 C2666 1.403 . S
C2669 C2670 1.392 . S
C2669 C2673 1.495 . S
C2670 C2669 1.392 . S
C2670 C2671 1.385 . S
C2670 C2672 1.478 . S
C2671 H2665 0.930 . S
C2671 C2667 1.400 . S
C2671 C2670 1.385 . S
C2672 C2670 1.478 . S
C2672 C2674 1.381 . S
C2672 C2678 1.383 . S
C2673 C2669 1.495 . S
C2673 H2679 0.959 . S
C2673 H2680 0.961 . S
C2673 H2681 0.960 . S
C2674 C2672 1.381 . S
C2674 C2675 1.394 . S
C2674 H2682 0.930 . S
C2675 C2674 1.394 . S
C2675 C2676 1.383 . S
C2675 H2683 0.929 . S
C2676 C2675 1.383 . S
C2676 C2677 1.377 . S
C2677 H2661 0.930 . S
C2677 C2676 1.377 . S
C2677 C2678 1.379 . S
C2678 H2662 0.931 . S
C2678 C2672 1.383 . S
C2678 C2677 1.379 . S
H2679 C2673 0.959 . S
H2680 C2673 0.961 . S
H2681 C2673 0.960 . S
H2682 C2674 0.930 . S
H2683 C2675 0.929 . S
H2684 C2692 0.929 . S
H2685 C2694 0.930 1_655 S
H2686 C2696 0.930 . S
H2687 C2699 0.929 . S
H2688 C2702 0.930 . S
H2689 C2704 0.960 . S
H2690 C2704 0.960 . S
H2691 C2704 0.960 . S
C2692 H2684 0.929 . S
C2692 C2693 1.377 . S
C2692 C2694 1.384 . S
C2693 C2692 1.377 . S
C2693 C2699 1.390 . S
C2694 H2685 0.930 1_455 S
C2694 C2692 1.384 . S
C2694 C2695 1.372 . S
C2695 C2694 1.372 . S
C2695 C2696 1.400 . S
C2695 C2700 1.490 . S
C2696 H2686 0.930 . S
C2696 C2695 1.400 . S
C2696 C2699 1.386 . S
H2697 C2713 0.930 . S
H2698 C2714 0.931 . S
C2699 H2687 0.929 . S
C2699 C2693 1.390 . S
C2699 C2696 1.386 . S
C2700 C2695 1.490 . S
C2700 C2702 1.395 1_455 S
C2700 C2703 1.403 . S
H2701 C2707 0.930 . S
C2702 H2688 0.930 . S
C2702 C2700 1.395 1_655 S
C2702 C2705 1.403 . S
C2703 C2700 1.403 . S
C2703 C2704 1.524 . S
C2703 C2707 1.400 . S
C2704 H2689 0.960 . S
C2704 H2690 0.960 . S
C2704 H2691 0.960 . S
C2704 C2703 1.524 . S
C2705 C2702 1.403 . S
C2705 C2706 1.392 . S
C2705 C2709 1.495 . S
C2706 C2705 1.392 . S
C2706 C2707 1.385 1_655 S
C2706 C2708 1.478 . S
C2707 H2701 0.930 . S
C2707 C2703 1.400 . S
C2707 C2706 1.385 1_455 S
C2708 C2706 1.478 . S
C2708 C2710 1.381 . S
C2708 C2714 1.383 . S
C2709 C2705 1.495 . S
C2709 H2715 0.959 . S
C2709 H2716 0.961 . S
C2709 H2717 0.960 . S
C2710 C2708 1.381 . S
C2710 C2711 1.394 . S
C2710 H2718 0.930 . S
C2711 C2710 1.394 . S
C2711 C2712 1.383 . S
C2711 H2719 0.929 . S
C2712 C2711 1.383 . S
C2712 C2713 1.377 . S
C2713 H2697 0.930 . S
C2713 C2712 1.377 . S
C2713 C2714 1.379 . S
C2714 H2698 0.931 . S
C2714 C2708 1.383 . S
C2714 C2713 1.379 . S
H2715 C2709 0.959 . S
H2716 C2709 0.961 . S
H2717 C2709 0.960 . S
H2718 C2710 0.930 . S
H2719 C2711 0.929 . S
H2720 C2728 0.929 . S
H2721 C2730 0.930 . S
H2722 C2732 0.930 . S
H2723 C2735 0.929 . S
H2724 C2738 0.930 . S
H2725 C2740 0.960 . S
H2726 C2740 0.960 . S
H2727 C2740 0.960 . S
C2728 H2720 0.929 . S
C2728 C2729 1.377 . S
C2728 C2730 1.384 . S
C2729 C2728 1.377 . S
C2729 C2735 1.390 . S
C2730 H2721 0.930 . S
C2730 C2728 1.384 . S
C2730 C2731 1.372 . S
C2731 C2730 1.372 . S
C2731 C2732 1.400 . S
C2731 C2736 1.490 . S
C2732 H2722 0.930 . S
C2732 C2731 1.400 . S
C2732 C2735 1.386 . S
H2733 C2749 0.930 . S
H2734 C2750 0.931 . S
C2735 H2723 0.929 . S
C2735 C2729 1.390 . S
C2735 C2732 1.386 . S
C2736 C2731 1.490 . S
C2736 C2738 1.395 . S
C2736 C2739 1.403 . S
H2737 C2743 0.930 . S
C2738 H2724 0.930 . S
C2738 C2736 1.395 . S
C2738 C2741 1.403 1_455 S
C2739 C2736 1.403 . S
C2739 C2740 1.524 . S
C2739 C2743 1.400 1_455 S
C2740 H2725 0.960 . S
C2740 H2726 0.960 . S
C2740 H2727 0.960 . S
C2740 C2739 1.524 . S
C2741 C2738 1.403 1_655 S
C2741 C2742 1.392 . S
C2741 C2745 1.495 . S
C2742 C2741 1.392 . S
C2742 C2743 1.385 . S
C2742 C2744 1.478 . S
C2743 H2737 0.930 . S
C2743 C2739 1.400 1_655 S
C2743 C2742 1.385 . S
C2744 C2742 1.478 . S
C2744 C2746 1.381 . S
C2744 C2750 1.383 . S
C2745 C2741 1.495 . S
C2745 H2751 0.959 . S
C2745 H2752 0.961 . S
C2745 H2753 0.960 . S
C2746 C2744 1.381 . S
C2746 C2747 1.394 . S
C2746 H2754 0.930 . S
C2747 C2746 1.394 . S
C2747 C2748 1.383 . S
C2747 H2755 0.929 . S
C2748 C2747 1.383 . S
C2748 C2749 1.377 . S
C2749 H2733 0.930 . S
C2749 C2748 1.377 . S
C2749 C2750 1.379 . S
C2750 H2734 0.931 . S
C2750 C2744 1.383 . S
C2750 C2749 1.379 . S
H2751 C2745 0.959 . S
H2752 C2745 0.961 . S
H2753 C2745 0.960 . S
H2754 C2746 0.930 . S
H2755 C2747 0.929 . S
H2756 C2764 0.929 . S
H2757 C2766 0.930 1_455 S
H2758 C2768 0.930 . S
H2759 C2771 0.929 . S
H2760 C2774 0.930 . S
H2761 C2776 0.960 . S
H2762 C2776 0.960 . S
H2763 C2776 0.960 . S
C2764 H2756 0.929 . S
C2764 C2765 1.377 . S
C2764 C2766 1.384 . S
C2765 C2764 1.377 . S
C2765 C2771 1.390 . S
C2766 H2757 0.930 1_655 S
C2766 C2764 1.384 . S
C2766 C2767 1.372 . S
C2767 C2766 1.372 . S
C2767 C2768 1.400 . S
C2767 C2772 1.490 . S
C2768 H2758 0.930 . S
C2768 C2767 1.400 . S
C2768 C2771 1.386 . S
H2769 C2785 0.936 . S
H2770 C2786 0.940 . S
C2771 H2759 0.929 . S
C2771 C2765 1.390 . S
C2771 C2768 1.386 . S
C2772 C2767 1.490 . S
C2772 C2774 1.395 . S
C2772 C2775 1.403 1_655 S
H2773 C2779 0.930 . S
C2774 H2760 0.930 . S
C2774 C2772 1.395 . S
C2774 C2777 1.403 . S
C2775 C2772 1.403 1_455 S
C2775 C2776 1.524 . S
C2775 C2779 1.400 . S
C2776 H2761 0.960 . S
C2776 H2762 0.960 . S
C2776 H2763 0.960 . S
C2776 C2775 1.524 . S
C2777 C2774 1.403 . S
C2777 C2778 1.392 1_655 S
C2777 C2781 1.495 . S
C2778 C2777 1.392 1_455 S
C2778 C2779 1.385 . S
C2778 C2780 1.478 . S
C2779 H2773 0.930 . S
C2779 C2775 1.400 . S
C2779 C2778 1.385 . S
C2780 C2778 1.478 . S
C2780 C2782 1.381 . S
C2780 C2786 1.378 1_455 S
C2781 C2777 1.495 . S
C2781 H2787 0.959 . S
C2781 H2788 0.961 . S
C2781 H2789 0.960 . S
C2782 C2780 1.381 . S
C2782 C2783 1.394 . S
C2782 H2790 0.930 . S
C2783 C2782 1.394 . S
C2783 C2784 1.383 . S
C2783 H2791 0.929 . S
C2784 C2783 1.383 . S
C2784 C2785 1.377 . S
C2785 H2769 0.936 . S
C2785 C2784 1.377 . S
C2785 C2786 1.376 1_455 S
C2786 H2770 0.940 . S
C2786 C2780 1.378 1_655 S
C2786 C2785 1.376 1_655 S
H2787 C2781 0.959 . S
H2788 C2781 0.961 . S
H2789 C2781 0.960 . S
H2790 C2782 0.930 . S
H2791 C2783 0.929 . S
H2792 C2800 0.929 . S
H2793 C2802 0.930 . S
H2794 C2804 0.930 . S
H2795 C2807 0.929 . S
H2796 C2810 0.930 . S
H2797 C2812 0.960 . S
H2798 C2812 0.960 . S
H2799 C2812 0.960 . S
C2800 H2792 0.929 . S
C2800 C2801 1.377 . S
C2800 C2802 1.384 . S
C2801 C2800 1.377 . S
C2801 C2807 1.390 . S
C2802 H2793 0.930 . S
C2802 C2800 1.384 . S
C2802 C2803 1.372 . S
C2803 C2802 1.372 . S
C2803 C2804 1.400 . S
C2803 C2808 1.490 . S
C2804 H2794 0.930 . S
C2804 C2803 1.400 . S
C2804 C2807 1.386 . S
H2805 C2821 0.930 . S
H2806 C2822 0.931 . S
C2807 H2795 0.929 . S
C2807 C2801 1.390 . S
C2807 C2804 1.386 . S
C2808 C2803 1.490 . S
C2808 C2810 1.395 . S
C2808 C2811 1.403 . S
H2809 C2815 0.930 . S
C2810 H2796 0.930 . S
C2810 C2808 1.395 . S
C2810 C2813 1.403 . S
C2811 C2808 1.403 . S
C2811 C2812 1.524 . S
C2811 C2815 1.400 . S
C2812 H2797 0.960 . S
C2812 H2798 0.960 . S
C2812 H2799 0.960 . S
C2812 C2811 1.524 . S
C2813 C2810 1.403 . S
C2813 C2814 1.392 . S
C2813 C2817 1.495 . S
C2814 C2813 1.392 . S
C2814 C2815 1.385 . S
C2814 C2816 1.478 . S
C2815 H2809 0.930 . S
C2815 C2811 1.400 . S
C2815 C2814 1.385 . S
C2816 C2814 1.478 . S
C2816 C2818 1.381 . S
C2816 C2822 1.383 . S
C2817 C2813 1.495 . S
C2817 H2823 0.959 . S
C2817 H2824 0.961 . S
C2817 H2825 0.960 . S
C2818 C2816 1.381 . S
C2818 C2819 1.394 . S
C2818 H2826 0.930 . S
C2819 C2818 1.394 . S
C2819 C2820 1.383 . S
C2819 H2827 0.929 . S
C2820 C2819 1.383 . S
C2820 C2821 1.377 . S
C2821 H2805 0.930 . S
C2821 C2820 1.377 . S
C2821 C2822 1.379 . S
C2822 H2806 0.931 . S
C2822 C2816 1.383 . S
C2822 C2821 1.379 . S
H2823 C2817 0.959 . S
H2824 C2817 0.961 . S
H2825 C2817 0.960 . S
H2826 C2818 0.930 . S
H2827 C2819 0.929 . S
H2828 C2836 0.929 . S
H2829 C2838 0.930 . S
H2830 C2840 0.930 . S
H2831 C2843 0.929 . S
H2832 C2846 0.930 . S
H2833 C2848 0.960 . S
H2834 C2848 0.960 . S
H2835 C2848 0.960 . S
C2836 H2828 0.929 . S
C2836 C2837 1.377 . S
C2836 C2838 1.384 . S
C2837 C2836 1.377 . S
C2837 C2843 1.390 . S
C2838 H2829 0.930 . S
C2838 C2836 1.384 . S
C2838 C2839 1.372 . S
C2839 C2838 1.372 . S
C2839 C2840 1.400 . S
C2839 C2844 1.490 . S
C2840 H2830 0.930 . S
C2840 C2839 1.400 . S
C2840 C2843 1.386 . S
H2841 C2857 0.930 . S
H2842 C2858 0.931 . S
C2843 H2831 0.929 . S
C2843 C2837 1.390 . S
C2843 C2840 1.386 . S
C2844 C2839 1.490 . S
C2844 C2846 1.395 . S
C2844 C2847 1.403 . S
H2845 C2851 0.930 . S
C2846 H2832 0.930 . S
C2846 C2844 1.395 . S
C2846 C2849 1.403 . S
C2847 C2844 1.403 . S
C2847 C2848 1.524 . S
C2847 C2851 1.400 . S
C2848 H2833 0.960 . S
C2848 H2834 0.960 . S
C2848 H2835 0.960 . S
C2848 C2847 1.524 . S
C2849 C2846 1.403 . S
C2849 C2850 1.392 . S
C2849 C2853 1.495 . S
C2850 C2849 1.392 . S
C2850 C2851 1.385 . S
C2850 C2852 1.478 . S
C2851 H2845 0.930 . S
C2851 C2847 1.400 . S
C2851 C2850 1.385 . S
C2852 C2850 1.478 . S
C2852 C2854 1.381 . S
C2852 C2858 1.383 . S
C2853 C2849 1.495 . S
C2853 H2859 0.959 . S
C2853 H2860 0.961 . S
C2853 H2861 0.960 . S
C2854 C2852 1.381 . S
C2854 C2855 1.394 . S
C2854 H2862 0.930 . S
C2855 C2854 1.394 . S
C2855 C2856 1.383 . S
C2855 H2863 0.929 . S
C2856 C2855 1.383 . S
C2856 C2857 1.377 . S
C2857 H2841 0.930 . S
C2857 C2856 1.377 . S
C2857 C2858 1.379 . S
C2858 H2842 0.931 . S
C2858 C2852 1.383 . S
C2858 C2857 1.379 . S
H2859 C2853 0.959 . S
H2860 C2853 0.961 . S
H2861 C2853 0.960 . S
H2862 C2854 0.930 . S
H2863 C2855 0.929 . S
H2864 C2872 0.929 . S
H2865 C2874 0.930 . S
H2866 C2876 0.930 . S
H2867 C2879 0.929 . S
H2868 C2882 0.930 . S
H2869 C2884 0.960 . S
H2870 C2884 0.960 . S
H2871 C2884 0.960 . S
C2872 H2864 0.929 . S
C2872 C2873 1.377 . S
C2872 C2874 1.384 . S
C2873 C2872 1.377 . S
C2873 C2879 1.390 . S
C2874 H2865 0.930 . S
C2874 C2872 1.384 . S
C2874 C2875 1.372 . S
C2875 C2874 1.372 . S
C2875 C2876 1.400 . S
C2875 C2880 1.490 . S
C2876 H2866 0.930 . S
C2876 C2875 1.400 . S
C2876 C2879 1.386 . S
H2877 C2893 0.930 . S
H2878 C2894 0.931 . S
C2879 H2867 0.929 . S
C2879 C2873 1.390 . S
C2879 C2876 1.386 . S
C2880 C2875 1.490 . S
C2880 C2882 1.395 . S
C2880 C2883 1.403 . S
H2881 C2887 0.930 . S
C2882 H2868 0.930 . S
C2882 C2880 1.395 . S
C2882 C2885 1.403 1_455 S
C2883 C2880 1.403 . S
C2883 C2884 1.524 . S
C2883 C2887 1.400 1_455 S
C2884 H2869 0.960 . S
C2884 H2870 0.960 . S
C2884 H2871 0.960 . S
C2884 C2883 1.524 . S
C2885 C2882 1.403 1_655 S
C2885 C2886 1.392 . S
C2885 C2889 1.495 . S
C2886 C2885 1.392 . S
C2886 C2887 1.385 . S
C2886 C2888 1.478 . S
C2887 H2881 0.930 . S
C2887 C2883 1.400 1_655 S
C2887 C2886 1.385 . S
C2888 C2886 1.478 . S
C2888 C2890 1.381 . S
C2888 C2894 1.383 . S
C2889 C2885 1.495 . S
C2889 H2895 0.959 . S
C2889 H2896 0.961 . S
C2889 H2897 0.960 . S
C2890 C2888 1.381 . S
C2890 C2891 1.394 . S
C2890 H2898 0.930 . S
C2891 C2890 1.394 . S
C2891 C2892 1.383 . S
C2891 H2899 0.929 . S
C2892 C2891 1.383 . S
C2892 C2893 1.377 . S
C2893 H2877 0.930 . S
C2893 C2892 1.377 . S
C2893 C2894 1.379 . S
C2894 H2878 0.931 . S
C2894 C2888 1.383 . S
C2894 C2893 1.379 . S
H2895 C2889 0.959 . S
H2896 C2889 0.961 . S
H2897 C2889 0.960 . S
H2898 C2890 0.930 . S
H2899 C2891 0.929 . S
H2900 C2908 0.929 . S
H2901 C2910 0.930 . S
H2902 C2912 0.930 . S
H2903 C2915 0.929 . S
H2904 C2918 0.930 . S
H2905 C2920 0.960 . S
H2906 C2920 0.960 . S
H2907 C2920 0.960 . S
C2908 H2900 0.929 . S
C2908 C2909 1.377 . S
C2908 C2910 1.384 . S
C2909 C2908 1.377 . S
C2909 C2915 1.390 . S
C2910 H2901 0.930 . S
C2910 C2908 1.384 . S
C2910 C2911 1.372 . S
C2911 C2910 1.372 . S
C2911 C2912 1.400 . S
C2911 C2916 1.490 . S
C2912 H2902 0.930 . S
C2912 C2911 1.400 . S
C2912 C2915 1.386 . S
H2913 C2929 0.930 . S
H2914 C2930 0.931 . S
C2915 H2903 0.929 . S
C2915 C2909 1.390 . S
C2915 C2912 1.386 . S
C2916 C2911 1.490 . S
C2916 C2918 1.395 . S
C2916 C2919 1.403 . S
H2917 C2923 0.930 . S
C2918 H2904 0.930 . S
C2918 C2916 1.395 . S
C2918 C2921 1.403 . S
C2919 C2916 1.403 . S
C2919 C2920 1.524 . S
C2919 C2923 1.400 . S
C2920 H2905 0.960 . S
C2920 H2906 0.960 . S
C2920 H2907 0.960 . S
C2920 C2919 1.524 . S
C2921 C2918 1.403 . S
C2921 C2922 1.392 . S
C2921 C2925 1.495 . S
C2922 C2921 1.392 . S
C2922 C2923 1.385 . S
C2922 C2924 1.478 . S
C2923 H2917 0.930 . S
C2923 C2919 1.400 . S
C2923 C2922 1.385 . S
C2924 C2922 1.478 . S
C2924 C2926 1.381 . S
C2924 C2930 1.383 . S
C2925 C2921 1.495 . S
C2925 H2931 0.959 . S
C2925 H2932 0.961 . S
C2925 H2933 0.960 . S
C2926 C2924 1.381 . S
C2926 C2927 1.394 . S
C2926 H2934 0.930 . S
C2927 C2926 1.394 . S
C2927 C2928 1.383 . S
C2927 H2935 0.929 . S
C2928 C2927 1.383 . S
C2928 C2929 1.377 . S
C2929 H2913 0.930 . S
C2929 C2928 1.377 . S
C2929 C2930 1.379 . S
C2930 H2914 0.931 . S
C2930 C2924 1.383 . S
C2930 C2929 1.379 . S
H2931 C2925 0.959 . S
H2932 C2925 0.961 . S
H2933 C2925 0.960 . S
H2934 C2926 0.930 . S
H2935 C2927 0.929 . S
H2936 C2944 0.929 . S
H2937 C2946 0.930 . S
H2938 C2948 0.930 . S
H2939 C2951 0.929 . S
H2940 C2954 0.930 . S
H2941 C2956 0.960 . S
H2942 C2956 0.960 . S
H2943 C2956 0.960 . S
C2944 H2936 0.929 . S
C2944 C2945 1.377 . S
C2944 C2946 1.384 . S
C2945 C2944 1.377 . S
C2945 C2951 1.390 . S
C2946 H2937 0.930 . S
C2946 C2944 1.384 . S
C2946 C2947 1.372 . S
C2947 C2946 1.372 . S
C2947 C2948 1.400 . S
C2947 C2952 1.490 . S
C2948 H2938 0.930 . S
C2948 C2947 1.400 . S
C2948 C2951 1.386 . S
H2949 C2965 0.930 . S
H2950 C2966 0.931 . S
C2951 H2939 0.929 . S
C2951 C2945 1.390 . S
C2951 C2948 1.386 . S
C2952 C2947 1.490 . S
C2952 C2954 1.395 . S
C2952 C2955 1.403 . S
H2953 C2959 0.930 . S
C2954 H2940 0.930 . S
C2954 C2952 1.395 . S
C2954 C2957 1.403 . S
C2955 C2952 1.403 . S
C2955 C2956 1.524 . S
C2955 C2959 1.400 . S
C2956 H2941 0.960 . S
C2956 H2942 0.960 . S
C2956 H2943 0.960 . S
C2956 C2955 1.524 . S
C2957 C2954 1.403 . S
C2957 C2958 1.392 . S
C2957 C2961 1.495 . S
C2958 C2957 1.392 . S
C2958 C2959 1.385 . S
C2958 C2960 1.478 . S
C2959 H2953 0.930 . S
C2959 C2955 1.400 . S
C2959 C2958 1.385 . S
C2960 C2958 1.478 . S
C2960 C2962 1.381 . S
C2960 C2966 1.383 . S
C2961 C2957 1.495 . S
C2961 H2967 0.959 . S
C2961 H2968 0.961 . S
C2961 H2969 0.960 . S
C2962 C2960 1.381 . S
C2962 C2963 1.394 . S
C2962 H2970 0.930 . S
C2963 C2962 1.394 . S
C2963 C2964 1.383 . S
C2963 H2971 0.929 . S
C2964 C2963 1.383 . S
C2964 C2965 1.377 . S
C2965 H2949 0.930 . S
C2965 C2964 1.377 . S
C2965 C2966 1.379 . S
C2966 H2950 0.931 . S
C2966 C2960 1.383 . S
C2966 C2965 1.379 . S
H2967 C2961 0.959 . S
H2968 C2961 0.961 . S
H2969 C2961 0.960 . S
H2970 C2962 0.930 . S
H2971 C2963 0.929 . S
H2972 C2980 0.929 1_455 S
H2973 C2982 0.930 . S
H2974 C2984 0.930 . S
H2975 C2987 0.929 . S
H2976 C2990 0.930 . S
H2977 C2992 0.960 . S
H2978 C2992 0.960 . S
H2979 C2992 0.960 1_655 S
C2980 H2972 0.929 1_655 S
C2980 C2981 1.377 . S
C2980 C2982 1.384 1_655 S
C2981 C2980 1.377 . S
C2981 C2987 1.390 . S
C2982 H2973 0.930 . S
C2982 C2980 1.384 1_455 S
C2982 C2983 1.372 1_455 S
C2983 C2982 1.372 1_655 S
C2983 C2984 1.400 . S
C2983 C2988 1.490 . S
C2984 H2974 0.930 . S
C2984 C2983 1.400 . S
C2984 C2987 1.386 . S
H2985 C3001 0.948 . S
H2986 C3002 0.931 . S
C2987 H2975 0.929 . S
C2987 C2981 1.390 . S
C2987 C2984 1.386 . S
C2988 C2983 1.490 . S
C2988 C2990 1.395 . S
C2988 C2991 1.403 1_655 S
H2989 C2995 0.930 . S
C2990 H2976 0.930 . S
C2990 C2988 1.395 . S
C2990 C2993 1.403 . S
C2991 C2988 1.403 1_455 S
C2991 C2992 1.524 . S
C2991 C2995 1.400 . S
C2992 H2977 0.960 . S
C2992 H2978 0.960 . S
C2992 H2979 0.960 1_455 S
C2992 C2991 1.524 . S
C2993 C2990 1.403 . S
C2993 C2994 1.392 1_655 S
C2993 C2997 1.495 . S
C2994 C2993 1.392 1_455 S
C2994 C2995 1.385 . S
C2994 C2996 1.478 . S
C2995 H2989 0.930 . S
C2995 C2991 1.400 . S
C2995 C2994 1.385 . S
C2996 C2994 1.478 . S
C2996 C2998 1.381 . S
C2996 C3002 1.383 1_455 S
C2997 C2993 1.495 . S
C2997 H3003 0.959 . S
C2997 H3004 0.961 . S
C2997 H3005 0.960 1_655 S
C2998 C2996 1.381 . S
C2998 C2999 1.394 . S
C2998 H3006 0.930 . S
C2999 C2998 1.394 . S
C2999 C3000 1.383 . S
C2999 H3007 0.929 . S
C3000 C2999 1.383 . S
C3000 C3001 1.353 1_455 S
C3001 H2985 0.948 . S
C3001 C3000 1.353 1_655 S
C3001 C3002 1.386 . S
C3002 H2986 0.931 . S
C3002 C2996 1.383 1_655 S
C3002 C3001 1.386 . S
H3003 C2997 0.959 . S
H3004 C2997 0.961 . S
H3005 C2997 0.960 1_455 S
H3006 C2998 0.930 . S
H3007 C2999 0.929 . S
H3008 C3016 0.929 . S
H3009 C3018 0.930 . S
H3010 C3020 0.930 . S
H3011 C3023 0.929 . S
H3012 C3026 0.930 . S
H3013 C3028 0.960 . S
H3014 C3028 0.960 . S
H3015 C3028 0.960 . S
C3016 H3008 0.929 . S
C3016 C3017 1.377 . S
C3016 C3018 1.384 . S
C3017 C3016 1.377 . S
C3017 C3023 1.390 . S
C3018 H3009 0.930 . S
C3018 C3016 1.384 . S
C3018 C3019 1.372 . S
C3019 C3018 1.372 . S
C3019 C3020 1.400 . S
C3019 C3024 1.490 . S
C3020 H3010 0.930 . S
C3020 C3019 1.400 . S
C3020 C3023 1.386 . S
H3021 C3037 0.930 . S
H3022 C3038 0.931 . S
C3023 H3011 0.929 . S
C3023 C3017 1.390 . S
C3023 C3020 1.386 . S
C3024 C3019 1.490 . S
C3024 C3026 1.395 . S
C3024 C3027 1.403 . S
H3025 C3031 0.930 . S
C3026 H3012 0.930 . S
C3026 C3024 1.395 . S
C3026 C3029 1.403 . S
C3027 C3024 1.403 . S
C3027 C3028 1.524 . S
C3027 C3031 1.400 . S
C3028 H3013 0.960 . S
C3028 H3014 0.960 . S
C3028 H3015 0.960 . S
C3028 C3027 1.524 . S
C3029 C3026 1.403 . S
C3029 C3030 1.392 . S
C3029 C3033 1.495 . S
C3030 C3029 1.392 . S
C3030 C3031 1.385 . S
C3030 C3032 1.478 . S
C3031 H3025 0.930 . S
C3031 C3027 1.400 . S
C3031 C3030 1.385 . S
C3032 C3030 1.478 . S
C3032 C3034 1.381 . S
C3032 C3038 1.383 . S
C3033 C3029 1.495 . S
C3033 H3039 0.959 . S
C3033 H3040 0.961 . S
C3033 H3041 0.960 . S
C3034 C3032 1.381 . S
C3034 C3035 1.394 . S
C3034 H3042 0.930 . S
C3035 C3034 1.394 . S
C3035 C3036 1.383 . S
C3035 H3043 0.929 . S
C3036 C3035 1.383 . S
C3036 C3037 1.377 . S
C3037 H3021 0.930 . S
C3037 C3036 1.377 . S
C3037 C3038 1.379 . S
C3038 H3022 0.931 . S
C3038 C3032 1.383 . S
C3038 C3037 1.379 . S
H3039 C3033 0.959 . S
H3040 C3033 0.961 . S
H3041 C3033 0.960 . S
H3042 C3034 0.930 . S
H3043 C3035 0.929 . S
H3044 C3052 0.929 1_565 S
H3045 C3054 0.930 . S
H3046 C3056 0.949 . S
H3047 C3059 0.929 1_455 S
H3048 C3062 0.930 . S
H3049 C3064 0.960 . S
H3050 C3064 0.960 . S
H3051 C3064 0.960 . S
C3052 H3044 0.929 1_545 S
C3052 C3053 1.377 . S
C3052 C3054 1.384 1_545 S
C3053 C3052 1.377 . S
C3053 C3059 1.390 . S
C3054 H3045 0.930 . S
C3054 C3052 1.384 1_565 S
C3054 C3055 1.372 1_565 S
C3055 C3054 1.372 1_545 S
C3055 C3056 1.386 1_655 S
C3055 C3060 1.490 . S
C3056 H3046 0.949 . S
C3056 C3055 1.386 1_455 S
C3056 C3059 1.380 1_455 S
H3057 C3073 0.919 1_545 S
H3058 C3074 0.931 1_545 S
C3059 H3047 0.929 1_655 S
C3059 C3053 1.390 . S
C3059 C3056 1.380 1_655 S
C3060 C3055 1.490 . S
C3060 C3062 1.395 1_545 S
C3060 C3063 1.403 . S
H3061 C3067 0.932 . S
C3062 H3048 0.930 . S
C3062 C3060 1.395 1_565 S
C3062 C3065 1.403 1_655 S
C3063 C3060 1.403 . S
C3063 C3064 1.524 . S
C3063 C3067 1.394 1_655 S
C3064 H3049 0.960 . S
C3064 H3050 0.960 . S
C3064 H3051 0.960 . S
C3064 C3063 1.524 . S
C3065 C3062 1.403 1_455 S
C3065 C3066 1.392 . S
C3065 C3069 1.495 . S
C3066 C3065 1.392 . S
C3066 C3067 1.390 1_565 S
C3066 C3068 1.478 . S
C3067 H3061 0.932 . S
C3067 C3063 1.394 1_455 S
C3067 C3066 1.390 1_545 S
C3068 C3066 1.478 . S
C3068 C3070 1.381 1_455 S
C3068 C3074 1.383 . S
C3069 C3065 1.495 . S
C3069 H3075 0.959 . S
C3069 H3076 0.961 . S
C3069 H3077 0.957 . S
C3070 C3068 1.381 1_655 S
C3070 C3071 1.394 1_655 S
C3070 H3078 0.930 . S
C3071 C3070 1.394 1_455 S
C3071 C3072 1.383 . S
C3071 H3079 0.929 1_455 S
C3072 C3071 1.383 . S
C3072 C3073 1.377 . S
C3073 H3057 0.919 1_565 S
C3073 C3072 1.377 . S
C3073 C3074 1.379 . S
C3074 H3058 0.931 1_565 S
C3074 C3068 1.383 . S
C3074 C3073 1.379 . S
H3075 C3069 0.959 . S
H3076 C3069 0.961 . S
H3077 C3069 0.957 . S
H3078 C3070 0.930 . S
H3079 C3071 0.929 1_655 S
H3080 C3088 0.929 . S
H3081 C3090 0.930 . S
H3082 C3092 0.930 . S
H3083 C3095 0.929 . S
H3084 C3098 0.930 . S
H3085 C3100 0.960 . S
H3086 C3100 0.960 . S
H3087 C3100 0.960 . S
C3088 H3080 0.929 . S
C3088 C3089 1.377 . S
C3088 C3090 1.384 . S
C3089 C3088 1.377 . S
C3089 C3095 1.390 . S
C3090 H3081 0.930 . S
C3090 C3088 1.384 . S
C3090 C3091 1.372 . S
C3091 C3090 1.372 . S
C3091 C3092 1.400 . S
C3091 C3096 1.490 . S
C3092 H3082 0.930 . S
C3092 C3091 1.400 . S
C3092 C3095 1.386 . S
H3093 C3109 0.930 . S
H3094 C3110 0.931 . S
C3095 H3083 0.929 . S
C3095 C3089 1.390 . S
C3095 C3092 1.386 . S
C3096 C3091 1.490 . S
C3096 C3098 1.395 . S
C3096 C3099 1.403 . S
H3097 C3103 0.930 . S
C3098 H3084 0.930 . S
C3098 C3096 1.395 . S
C3098 C3101 1.403 . S
C3099 C3096 1.403 . S
C3099 C3100 1.524 . S
C3099 C3103 1.400 . S
C3100 H3085 0.960 . S
C3100 H3086 0.960 . S
C3100 H3087 0.960 . S
C3100 C3099 1.524 . S
C3101 C3098 1.403 . S
C3101 C3102 1.392 . S
C3101 C3105 1.495 . S
C3102 C3101 1.392 . S
C3102 C3103 1.385 . S
C3102 C3104 1.478 . S
C3103 H3097 0.930 . S
C3103 C3099 1.400 . S
C3103 C3102 1.385 . S
C3104 C3102 1.478 . S
C3104 C3106 1.381 . S
C3104 C3110 1.383 . S
C3105 C3101 1.495 . S
C3105 H3111 0.959 . S
C3105 H3112 0.961 . S
C3105 H3113 0.960 . S
C3106 C3104 1.381 . S
C3106 C3107 1.394 . S
C3106 H3114 0.930 . S
C3107 C3106 1.394 . S
C3107 C3108 1.383 . S
C3107 H3115 0.929 . S
C3108 C3107 1.383 . S
C3108 C3109 1.377 . S
C3109 H3093 0.930 . S
C3109 C3108 1.377 . S
C3109 C3110 1.379 . S
C3110 H3094 0.931 . S
C3110 C3104 1.383 . S
C3110 C3109 1.379 . S
H3111 C3105 0.959 . S
H3112 C3105 0.961 . S
H3113 C3105 0.960 . S
H3114 C3106 0.930 . S
H3115 C3107 0.929 . S
H3116 C3124 0.929 . S
H3117 C3126 0.930 . S
H3118 C3128 0.930 . S
H3119 C3131 0.929 1_565 S
H3120 C3134 0.930 . S
H3121 C3136 0.960 1_556 S
H3122 C3136 0.960 . S
H3123 C3136 0.960 . S
C3124 H3116 0.929 . S
C3124 C3125 1.377 . S
C3124 C3126 1.384 . S
C3125 C3124 1.377 . S
C3125 C3131 1.390 . S
C3126 H3117 0.930 . S
C3126 C3124 1.384 . S
C3126 C3127 1.372 . S
C3127 C3126 1.372 . S
C3127 C3128 1.400 1_545 S
C3127 C3132 1.490 . S
C3128 H3118 0.930 . S
C3128 C3127 1.400 1_565 S
C3128 C3131 1.386 1_565 S
H3129 C3145 0.930 . S
H3130 C3146 0.931 . S
C3131 H3119 0.929 1_545 S
C3131 C3125 1.390 . S
C3131 C3128 1.386 1_545 S
C3132 C3127 1.490 . S
C3132 C3134 1.395 1_545 S
C3132 C3135 1.403 . S
H3133 C3139 0.930 . S
C3134 H3120 0.930 . S
C3134 C3132 1.395 1_565 S
C3134 C3137 1.403 1_554 S
C3135 C3132 1.403 . S
C3135 C3136 1.524 . S
C3135 C3139 1.400 1_554 S
C3136 H3121 0.960 1_554 S
C3136 H3122 0.960 . S
C3136 H3123 0.960 . S
C3136 C3135 1.524 . S
C3137 C3134 1.403 1_556 S
C3137 C3138 1.392 . S
C3137 C3141 1.495 . S
C3138 C3137 1.392 . S
C3138 C3139 1.385 1_565 S
C3138 C3140 1.478 . S
C3139 H3133 0.930 . S
C3139 C3135 1.400 1_556 S
C3139 C3138 1.385 1_545 S
C3140 C3138 1.478 . S
C3140 C3142 1.381 1_565 S
C3140 C3146 1.383 . S
C3141 C3137 1.495 . S
C3141 H3147 0.959 1_556 S
C3141 H3148 0.961 . S
C3141 H3149 0.960 . S
C3142 C3140 1.381 1_545 S
C3142 C3143 1.394 1_545 S
C3142 H3150 0.930 . S
C3143 C3142 1.394 1_565 S
C3143 C3144 1.383 . S
C3143 H3151 0.929 1_565 S
C3144 C3143 1.383 . S
C3144 C3145 1.377 . S
C3145 H3129 0.930 . S
C3145 C3144 1.377 . S
C3145 C3146 1.379 . S
C3146 H3130 0.931 . S
C3146 C3140 1.383 . S
C3146 C3145 1.379 . S
H3147 C3141 0.959 1_554 S
H3148 C3141 0.961 . S
H3149 C3141 0.960 . S
H3150 C3142 0.930 . S
H3151 C3143 0.929 1_545 S
H3152 C3160 0.929 . S
H3153 C3162 0.930 . S
H3154 C3164 0.930 . S
H3155 C3167 0.929 . S
H3156 C3170 0.930 . S
H3157 C3172 0.960 . S
H3158 C3172 0.960 . S
H3159 C3172 0.960 . S
C3160 H3152 0.929 . S
C3160 C3161 1.377 . S
C3160 C3162 1.384 . S
C3161 C3160 1.377 . S
C3161 C3167 1.390 . S
C3162 H3153 0.930 . S
C3162 C3160 1.384 . S
C3162 C3163 1.372 . S
C3163 C3162 1.372 . S
C3163 C3164 1.400 . S
C3163 C3168 1.490 . S
C3164 H3154 0.930 . S
C3164 C3163 1.400 . S
C3164 C3167 1.386 . S
H3165 C3181 0.930 . S
H3166 C3182 0.931 . S
C3167 H3155 0.929 . S
C3167 C3161 1.390 . S
C3167 C3164 1.386 . S
C3168 C3163 1.490 . S
C3168 C3170 1.395 . S
C3168 C3171 1.403 . S
H3169 C3175 0.930 . S
C3170 H3156 0.930 . S
C3170 C3168 1.395 . S
C3170 C3173 1.403 . S
C3171 C3168 1.403 . S
C3171 C3172 1.524 . S
C3171 C3175 1.400 . S
C3172 H3157 0.960 . S
C3172 H3158 0.960 . S
C3172 H3159 0.960 . S
C3172 C3171 1.524 . S
C3173 C3170 1.403 . S
C3173 C3174 1.392 . S
C3173 C3177 1.495 . S
C3174 C3173 1.392 . S
C3174 C3175 1.385 . S
C3174 C3176 1.478 . S
C3175 H3169 0.930 . S
C3175 C3171 1.400 . S
C3175 C3174 1.385 . S
C3176 C3174 1.478 . S
C3176 C3178 1.381 . S
C3176 C3182 1.383 . S
C3177 C3173 1.495 . S
C3177 H3183 0.959 . S
C3177 H3184 0.961 . S
C3177 H3185 0.960 . S
C3178 C3176 1.381 . S
C3178 C3179 1.394 . S
C3178 H3186 0.930 . S
C3179 C3178 1.394 . S
C3179 C3180 1.383 . S
C3179 H3187 0.929 . S
C3180 C3179 1.383 . S
C3180 C3181 1.377 . S
C3181 H3165 0.930 . S
C3181 C3180 1.377 . S
C3181 C3182 1.379 . S
C3182 H3166 0.931 . S
C3182 C3176 1.383 . S
C3182 C3181 1.379 . S
H3183 C3177 0.959 . S
H3184 C3177 0.961 . S
H3185 C3177 0.960 . S
H3186 C3178 0.930 . S
H3187 C3179 0.929 . S
H3188 C3196 0.929 . S
H3189 C3198 0.930 . S
H3190 C3200 0.930 . S
H3191 C3203 0.929 1_565 S
H3192 C3206 0.930 . S
H3193 C3208 0.960 . S
H3194 C3208 0.960 . S
H3195 C3208 0.960 . S
C3196 H3188 0.929 . S
C3196 C3197 1.377 . S
C3196 C3198 1.384 . S
C3197 C3196 1.377 . S
C3197 C3203 1.390 . S
C3198 H3189 0.930 . S
C3198 C3196 1.384 . S
C3198 C3199 1.372 . S
C3199 C3198 1.372 . S
C3199 C3200 1.400 1_545 S
C3199 C3204 1.490 . S
C3200 H3190 0.930 . S
C3200 C3199 1.400 1_565 S
C3200 C3203 1.386 1_565 S
H3201 C3217 0.930 . S
H3202 C3218 0.931 . S
C3203 H3191 0.929 1_545 S
C3203 C3197 1.390 . S
C3203 C3200 1.386 1_545 S
C3204 C3199 1.490 . S
C3204 C3206 1.395 1_545 S
C3204 C3207 1.403 . S
H3205 C3211 0.930 . S
C3206 H3192 0.930 . S
C3206 C3204 1.395 1_565 S
C3206 C3209 1.403 . S
C3207 C3204 1.403 . S
C3207 C3208 1.524 . S
C3207 C3211 1.400 . S
C3208 H3193 0.960 . S
C3208 H3194 0.960 . S
C3208 H3195 0.960 . S
C3208 C3207 1.524 . S
C3209 C3206 1.403 . S
C3209 C3210 1.392 . S
C3209 C3213 1.495 . S
C3210 C3209 1.392 . S
C3210 C3211 1.385 1_565 S
C3210 C3212 1.478 . S
C3211 H3205 0.930 . S
C3211 C3207 1.400 . S
C3211 C3210 1.385 1_545 S
C3212 C3210 1.478 . S
C3212 C3214 1.381 1_565 S
C3212 C3218 1.383 . S
C3213 C3209 1.495 . S
C3213 H3219 0.959 . S
C3213 H3220 0.961 . S
C3213 H3221 0.960 . S
C3214 C3212 1.381 1_545 S
C3214 C3215 1.394 1_545 S
C3214 H3222 0.930 . S
C3215 C3214 1.394 1_565 S
C3215 C3216 1.383 . S
C3215 H3223 0.929 1_565 S
C3216 C3215 1.383 . S
C3216 C3217 1.377 . S
C3217 H3201 0.930 . S
C3217 C3216 1.377 . S
C3217 C3218 1.379 . S
C3218 H3202 0.931 . S
C3218 C3212 1.383 . S
C3218 C3217 1.379 . S
H3219 C3213 0.959 . S
H3220 C3213 0.961 . S
H3221 C3213 0.960 . S
H3222 C3214 0.930 . S
H3223 C3215 0.929 1_545 S
H3224 C3232 0.929 . S
H3225 C3234 0.930 . S
H3226 C3236 0.930 . S
H3227 C3239 0.929 . S
H3228 C3242 0.930 . S
H3229 C3244 0.960 . S
H3230 C3244 0.960 . S
H3231 C3244 0.960 . S
C3232 H3224 0.929 . S
C3232 C3233 1.377 . S
C3232 C3234 1.384 . S
C3233 C3232 1.377 . S
C3233 C3239 1.390 . S
C3234 H3225 0.930 . S
C3234 C3232 1.384 . S
C3234 C3235 1.372 . S
C3235 C3234 1.372 . S
C3235 C3236 1.400 . S
C3235 C3240 1.490 . S
C3236 H3226 0.930 . S
C3236 C3235 1.400 . S
C3236 C3239 1.386 . S
H3237 C3253 0.930 . S
H3238 C3254 0.931 . S
C3239 H3227 0.929 . S
C3239 C3233 1.390 . S
C3239 C3236 1.386 . S
C3240 C3235 1.490 . S
C3240 C3242 1.395 . S
C3240 C3243 1.403 . S
H3241 C3247 0.930 . S
C3242 H3228 0.930 . S
C3242 C3240 1.395 . S
C3242 C3245 1.403 . S
C3243 C3240 1.403 . S
C3243 C3244 1.524 . S
C3243 C3247 1.400 . S
C3244 H3229 0.960 . S
C3244 H3230 0.960 . S
C3244 H3231 0.960 . S
C3244 C3243 1.524 . S
C3245 C3242 1.403 . S
C3245 C3246 1.392 . S
C3245 C3249 1.495 . S
C3246 C3245 1.392 . S
C3246 C3247 1.385 . S
C3246 C3248 1.478 . S
C3247 H3241 0.930 . S
C3247 C3243 1.400 . S
C3247 C3246 1.385 . S
C3248 C3246 1.478 . S
C3248 C3250 1.381 . S
C3248 C3254 1.383 . S
C3249 C3245 1.495 . S
C3249 H3255 0.959 . S
C3249 H3256 0.961 . S
C3249 H3257 0.960 . S
C3250 C3248 1.381 . S
C3250 C3251 1.394 . S
C3250 H3258 0.930 . S
C3251 C3250 1.394 . S
C3251 C3252 1.383 . S
C3251 H3259 0.929 . S
C3252 C3251 1.383 . S
C3252 C3253 1.377 . S
C3253 H3237 0.930 . S
C3253 C3252 1.377 . S
C3253 C3254 1.379 . S
C3254 H3238 0.931 . S
C3254 C3248 1.383 . S
C3254 C3253 1.379 . S
H3255 C3249 0.959 . S
H3256 C3249 0.961 . S
H3257 C3249 0.960 . S
H3258 C3250 0.930 . S
H3259 C3251 0.929 . S
H3260 C3268 0.929 . S
H3261 C3270 0.930 . S
H3262 C3272 0.930 . S
H3263 C3275 0.929 . S
H3264 C3278 0.930 . S
H3265 C3280 0.960 . S
H3266 C3280 0.960 . S
H3267 C3280 0.960 . S
C3268 H3260 0.929 . S
C3268 C3269 1.377 1_565 S
C3268 C3270 1.384 . S
C3269 C3268 1.377 1_545 S
C3269 C3275 1.390 . S
C3270 H3261 0.930 . S
C3270 C3268 1.384 . S
C3270 C3271 1.372 1_565 S
C3271 C3270 1.372 1_545 S
C3271 C3272 1.400 . S
C3271 C3276 1.490 . S
C3272 H3262 0.930 . S
C3272 C3271 1.400 . S
C3272 C3275 1.386 . S
H3273 C3289 0.930 . S
H3274 C3290 0.931 . S
C3275 H3263 0.929 . S
C3275 C3269 1.390 . S
C3275 C3272 1.386 . S
C3276 C3271 1.490 . S
C3276 C3278 1.395 1_545 S
C3276 C3279 1.403 1_455 S
H3277 C3283 0.930 . S
C3278 H3264 0.930 . S
C3278 C3276 1.395 1_565 S
C3278 C3281 1.403 1_556 S
C3279 C3276 1.403 1_655 S
C3279 C3280 1.524 . S
C3279 C3283 1.400 1_556 S
C3280 H3265 0.960 . S
C3280 H3266 0.960 . S
C3280 H3267 0.960 . S
C3280 C3279 1.524 . S
C3281 C3278 1.403 1_554 S
C3281 C3282 1.392 1_455 S
C3281 C3285 1.495 . S
C3282 C3281 1.392 1_655 S
C3282 C3283 1.385 1_565 S
C3282 C3284 1.478 . S
C3283 H3277 0.930 . S
C3283 C3279 1.400 1_554 S
C3283 C3282 1.385 1_545 S
C3284 C3282 1.478 . S
C3284 C3286 1.381 . S
C3284 C3290 1.383 1_565 S
C3285 C3281 1.495 . S
C3285 H3291 0.959 . S
C3285 H3292 0.961 . S
C3285 H3293 0.960 . S
C3286 C3284 1.381 . S
C3286 C3287 1.394 . S
C3286 H3294 0.930 . S
C3287 C3286 1.394 . S
C3287 C3288 1.383 . S
C3287 H3295 0.929 . S
C3288 C3287 1.383 . S
C3288 C3289 1.377 1_565 S
C3289 H3273 0.930 . S
C3289 C3288 1.377 1_545 S
C3289 C3290 1.379 . S
C3290 H3274 0.931 . S
C3290 C3284 1.383 1_545 S
C3290 C3289 1.379 . S
H3291 C3285 0.959 . S
H3292 C3285 0.961 . S
H3293 C3285 0.960 . S
H3294 C3286 0.930 . S
H3295 C3287 0.929 . S
H3296 C3304 0.929 . S
H3297 C3306 0.930 . S
H3298 C3308 0.930 . S
H3299 C3311 0.929 . S
H3300 C3314 0.930 . S
H3301 C3316 0.960 . S
H3302 C3316 0.960 . S
H3303 C3316 0.960 . S
C3304 H3296 0.929 . S
C3304 C3305 1.377 . S
C3304 C3306 1.384 . S
C3305 C3304 1.377 . S
C3305 C3311 1.390 . S
C3306 H3297 0.930 . S
C3306 C3304 1.384 . S
C3306 C3307 1.372 . S
C3307 C3306 1.372 . S
C3307 C3308 1.400 . S
C3307 C3312 1.490 . S
C3308 H3298 0.930 . S
C3308 C3307 1.400 . S
C3308 C3311 1.386 . S
H3309 C3325 0.930 . S
H3310 C3326 0.931 . S
C3311 H3299 0.929 . S
C3311 C3305 1.390 . S
C3311 C3308 1.386 . S
C3312 C3307 1.490 . S
C3312 C3314 1.395 . S
C3312 C3315 1.403 . S
H3313 C3319 0.930 . S
C3314 H3300 0.930 . S
C3314 C3312 1.395 . S
C3314 C3317 1.403 . S
C3315 C3312 1.403 . S
C3315 C3316 1.524 . S
C3315 C3319 1.400 . S
C3316 H3301 0.960 . S
C3316 H3302 0.960 . S
C3316 H3303 0.960 . S
C3316 C3315 1.524 . S
C3317 C3314 1.403 . S
C3317 C3318 1.392 . S
C3317 C3321 1.495 . S
C3318 C3317 1.392 . S
C3318 C3319 1.385 . S
C3318 C3320 1.478 . S
C3319 H3313 0.930 . S
C3319 C3315 1.400 . S
C3319 C3318 1.385 . S
C3320 C3318 1.478 . S
C3320 C3322 1.381 . S
C3320 C3326 1.383 . S
C3321 C3317 1.495 . S
C3321 H3327 0.959 . S
C3321 H3328 0.961 . S
C3321 H3329 0.960 . S
C3322 C3320 1.381 . S
C3322 C3323 1.394 . S
C3322 H3330 0.930 . S
C3323 C3322 1.394 . S
C3323 C3324 1.383 . S
C3323 H3331 0.929 . S
C3324 C3323 1.383 . S
C3324 C3325 1.377 . S
C3325 H3309 0.930 . S
C3325 C3324 1.377 . S
C3325 C3326 1.379 . S
C3326 H3310 0.931 . S
C3326 C3320 1.383 . S
C3326 C3325 1.379 . S
H3327 C3321 0.959 . S
H3328 C3321 0.961 . S
H3329 C3321 0.960 . S
H3330 C3322 0.930 . S
H3331 C3323 0.929 . S
H3332 C3340 0.929 . S
H3333 C3342 0.930 . S
H3334 C3344 0.930 . S
H3335 C3347 0.929 . S
H3336 C3350 0.930 . S
H3337 C3352 0.960 . S
H3338 C3352 0.960 . S
H3339 C3352 0.960 . S
C3340 H3332 0.929 . S
C3340 C3341 1.377 . S
C3340 C3342 1.384 . S
C3341 C3340 1.377 . S
C3341 C3347 1.390 . S
C3342 H3333 0.930 . S
C3342 C3340 1.384 . S
C3342 C3343 1.372 . S
C3343 C3342 1.372 . S
C3343 C3344 1.400 . S
C3343 C3348 1.490 . S
C3344 H3334 0.930 . S
C3344 C3343 1.400 . S
C3344 C3347 1.386 . S
H3345 C3361 0.930 . S
H3346 C3362 0.931 . S
C3347 H3335 0.929 . S
C3347 C3341 1.390 . S
C3347 C3344 1.386 . S
C3348 C3343 1.490 . S
C3348 C3350 1.395 . S
C3348 C3351 1.403 . S
H3349 C3355 0.930 . S
C3350 H3336 0.930 . S
C3350 C3348 1.395 . S
C3350 C3353 1.403 . S
C3351 C3348 1.403 . S
C3351 C3352 1.524 . S
C3351 C3355 1.400 . S
C3352 H3337 0.960 . S
C3352 H3338 0.960 . S
C3352 H3339 0.960 . S
C3352 C3351 1.524 . S
C3353 C3350 1.403 . S
C3353 C3354 1.392 . S
C3353 C3357 1.495 . S
C3354 C3353 1.392 . S
C3354 C3355 1.385 . S
C3354 C3356 1.478 . S
C3355 H3349 0.930 . S
C3355 C3351 1.400 . S
C3355 C3354 1.385 . S
C3356 C3354 1.478 . S
C3356 C3358 1.381 . S
C3356 C3362 1.383 . S
C3357 C3353 1.495 . S
C3357 H3363 0.959 . S
C3357 H3364 0.961 . S
C3357 H3365 0.960 . S
C3358 C3356 1.381 . S
C3358 C3359 1.394 . S
C3358 H3366 0.930 . S
C3359 C3358 1.394 . S
C3359 C3360 1.383 . S
C3359 H3367 0.929 . S
C3360 C3359 1.383 . S
C3360 C3361 1.377 . S
C3361 H3345 0.930 . S
C3361 C3360 1.377 . S
C3361 C3362 1.379 . S
C3362 H3346 0.931 . S
C3362 C3356 1.383 . S
C3362 C3361 1.379 . S
H3363 C3357 0.959 . S
H3364 C3357 0.961 . S
H3365 C3357 0.960 . S
H3366 C3358 0.930 . S
H3367 C3359 0.929 . S
H3368 C3376 0.929 . S
H3369 C3378 0.930 . S
H3370 C3380 0.930 . S
H3371 C3383 0.929 . S
H3372 C3386 0.930 . S
H3373 C3388 0.960 . S
H3374 C3388 0.960 . S
H3375 C3388 0.960 . S
C3376 H3368 0.929 . S
C3376 C3377 1.377 . S
C3376 C3378 1.384 . S
C3377 C3376 1.377 . S
C3377 C3383 1.390 . S
C3378 H3369 0.930 . S
C3378 C3376 1.384 . S
C3378 C3379 1.372 . S
C3379 C3378 1.372 . S
C3379 C3380 1.400 . S
C3379 C3384 1.490 . S
C3380 H3370 0.930 . S
C3380 C3379 1.400 . S
C3380 C3383 1.386 . S
H3381 C3397 0.930 . S
H3382 C3398 0.931 . S
C3383 H3371 0.929 . S
C3383 C3377 1.390 . S
C3383 C3380 1.386 . S
C3384 C3379 1.490 . S
C3384 C3386 1.395 . S
C3384 C3387 1.403 . S
H3385 C3391 0.930 . S
C3386 H3372 0.930 . S
C3386 C3384 1.395 . S
C3386 C3389 1.403 . S
C3387 C3384 1.403 . S
C3387 C3388 1.524 . S
C3387 C3391 1.400 . S
C3388 H3373 0.960 . S
C3388 H3374 0.960 . S
C3388 H3375 0.960 . S
C3388 C3387 1.524 . S
C3389 C3386 1.403 . S
C3389 C3390 1.392 . S
C3389 C3393 1.495 . S
C3390 C3389 1.392 . S
C3390 C3391 1.385 . S
C3390 C3392 1.478 . S
C3391 H3385 0.930 . S
C3391 C3387 1.400 . S
C3391 C3390 1.385 . S
C3392 C3390 1.478 . S
C3392 C3394 1.381 . S
C3392 C3398 1.383 . S
C3393 C3389 1.495 . S
C3393 H3399 0.959 . S
C3393 H3400 0.961 . S
C3393 H3401 0.960 . S
C3394 C3392 1.381 . S
C3394 C3395 1.394 . S
C3394 H3402 0.930 . S
C3395 C3394 1.394 . S
C3395 C3396 1.383 . S
C3395 H3403 0.929 . S
C3396 C3395 1.383 . S
C3396 C3397 1.377 . S
C3397 H3381 0.930 . S
C3397 C3396 1.377 . S
C3397 C3398 1.379 . S
C3398 H3382 0.931 . S
C3398 C3392 1.383 . S
C3398 C3397 1.379 . S
H3399 C3393 0.959 . S
H3400 C3393 0.961 . S
H3401 C3393 0.960 . S
H3402 C3394 0.930 . S
H3403 C3395 0.929 . S
H3404 C3412 0.929 . S
H3405 C3414 0.930 . S
H3406 C3416 0.930 . S
H3407 C3419 0.929 . S
H3408 C3422 0.930 . S
H3409 C3424 0.960 . S
H3410 C3424 0.960 . S
H3411 C3424 0.960 . S
C3412 H3404 0.929 . S
C3412 C3413 1.377 . S
C3412 C3414 1.384 . S
C3413 C3412 1.377 . S
C3413 C3419 1.390 . S
C3414 H3405 0.930 . S
C3414 C3412 1.384 . S
C3414 C3415 1.372 . S
C3415 C3414 1.372 . S
C3415 C3416 1.400 . S
C3415 C3420 1.490 . S
C3416 H3406 0.930 . S
C3416 C3415 1.400 . S
C3416 C3419 1.386 . S
H3417 C3433 0.930 . S
H3418 C3434 0.931 . S
C3419 H3407 0.929 . S
C3419 C3413 1.390 . S
C3419 C3416 1.386 . S
C3420 C3415 1.490 . S
C3420 C3422 1.395 . S
C3420 C3423 1.403 . S
H3421 C3427 0.930 . S
C3422 H3408 0.930 . S
C3422 C3420 1.395 . S
C3422 C3425 1.403 . S
C3423 C3420 1.403 . S
C3423 C3424 1.524 . S
C3423 C3427 1.400 . S
C3424 H3409 0.960 . S
C3424 H3410 0.960 . S
C3424 H3411 0.960 . S
C3424 C3423 1.524 . S
C3425 C3422 1.403 . S
C3425 C3426 1.392 . S
C3425 C3429 1.495 . S
C3426 C3425 1.392 . S
C3426 C3427 1.385 . S
C3426 C3428 1.478 . S
C3427 H3421 0.930 . S
C3427 C3423 1.400 . S
C3427 C3426 1.385 . S
C3428 C3426 1.478 . S
C3428 C3430 1.381 . S
C3428 C3434 1.383 . S
C3429 C3425 1.495 . S
C3429 H3435 0.959 . S
C3429 H3436 0.961 . S
C3429 H3437 0.960 . S
C3430 C3428 1.381 . S
C3430 C3431 1.394 . S
C3430 H3438 0.930 . S
C3431 C3430 1.394 . S
C3431 C3432 1.383 . S
C3431 H3439 0.929 . S
C3432 C3431 1.383 . S
C3432 C3433 1.377 . S
C3433 H3417 0.930 . S
C3433 C3432 1.377 . S
C3433 C3434 1.379 . S
C3434 H3418 0.931 . S
C3434 C3428 1.383 . S
C3434 C3433 1.379 . S
H3435 C3429 0.959 . S
H3436 C3429 0.961 . S
H3437 C3429 0.960 . S
H3438 C3430 0.930 . S
H3439 C3431 0.929 . S
H3440 C3448 0.929 . S
H3441 C3450 0.930 . S
H3442 C3452 0.930 . S
H3443 C3455 0.929 . S
H3444 C3458 0.930 . S
H3445 C3460 0.960 . S
H3446 C3460 0.960 . S
H3447 C3460 0.960 . S
C3448 H3440 0.929 . S
C3448 C3449 1.377 . S
C3448 C3450 1.384 . S
C3449 C3448 1.377 . S
C3449 C3455 1.390 . S
C3450 H3441 0.930 . S
C3450 C3448 1.384 . S
C3450 C3451 1.372 . S
C3451 C3450 1.372 . S
C3451 C3452 1.400 . S
C3451 C3456 1.490 . S
C3452 H3442 0.930 . S
C3452 C3451 1.400 . S
C3452 C3455 1.386 . S
H3453 C3469 0.930 . S
H3454 C3470 0.931 . S
C3455 H3443 0.929 . S
C3455 C3449 1.390 . S
C3455 C3452 1.386 . S
C3456 C3451 1.490 . S
C3456 C3458 1.395 . S
C3456 C3459 1.403 . S
H3457 C3463 0.930 . S
C3458 H3444 0.930 . S
C3458 C3456 1.395 . S
C3458 C3461 1.403 1_554 S
C3459 C3456 1.403 . S
C3459 C3460 1.524 . S
C3459 C3463 1.400 1_554 S
C3460 H3445 0.960 . S
C3460 H3446 0.960 . S
C3460 H3447 0.960 . S
C3460 C3459 1.524 . S
C3461 C3458 1.403 1_556 S
C3461 C3462 1.392 . S
C3461 C3465 1.495 . S
C3462 C3461 1.392 . S
C3462 C3463 1.385 . S
C3462 C3464 1.478 . S
C3463 H3457 0.930 . S
C3463 C3459 1.400 1_556 S
C3463 C3462 1.385 . S
C3464 C3462 1.478 . S
C3464 C3466 1.381 . S
C3464 C3470 1.383 . S
C3465 C3461 1.495 . S
C3465 H3471 0.959 . S
C3465 H3472 0.961 . S
C3465 H3473 0.960 . S
C3466 C3464 1.381 . S
C3466 C3467 1.394 . S
C3466 H3474 0.930 . S
C3467 C3466 1.394 . S
C3467 C3468 1.383 . S
C3467 H3475 0.929 . S
C3468 C3467 1.383 . S
C3468 C3469 1.377 . S
C3469 H3453 0.930 . S
C3469 C3468 1.377 . S
C3469 C3470 1.379 . S
C3470 H3454 0.931 . S
C3470 C3464 1.383 . S
C3470 C3469 1.379 . S
H3471 C3465 0.959 . S
H3472 C3465 0.961 . S
H3473 C3465 0.960 . S
H3474 C3466 0.930 . S
H3475 C3467 0.929 . S
H3476 C3484 0.929 . S
H3477 C3486 0.930 . S
H3478 C3488 0.930 . S
H3479 C3491 0.929 . S
H3480 C3494 0.930 . S
H3481 C3496 0.960 . S
H3482 C3496 0.960 . S
H3483 C3496 0.960 . S
C3484 H3476 0.929 . S
C3484 C3485 1.377 . S
C3484 C3486 1.384 . S
C3485 C3484 1.377 . S
C3485 C3491 1.390 . S
C3486 H3477 0.930 . S
C3486 C3484 1.384 . S
C3486 C3487 1.372 . S
C3487 C3486 1.372 . S
C3487 C3488 1.400 . S
C3487 C3492 1.490 . S
C3488 H3478 0.930 . S
C3488 C3487 1.400 . S
C3488 C3491 1.386 . S
H3489 C3505 0.930 . S
H3490 C3506 0.931 . S
C3491 H3479 0.929 . S
C3491 C3485 1.390 . S
C3491 C3488 1.386 . S
C3492 C3487 1.490 . S
C3492 C3494 1.395 1_655 S
C3492 C3495 1.403 . S
H3493 C3499 0.930 . S
C3494 H3480 0.930 . S
C3494 C3492 1.395 1_455 S
C3494 C3497 1.403 . S
C3495 C3492 1.403 . S
C3495 C3496 1.524 . S
C3495 C3499 1.400 . S
C3496 H3481 0.960 . S
C3496 H3482 0.960 . S
C3496 H3483 0.960 . S
C3496 C3495 1.524 . S
C3497 C3494 1.403 . S
C3497 C3498 1.392 . S
C3497 C3501 1.495 . S
C3498 C3497 1.392 . S
C3498 C3499 1.385 1_455 S
C3498 C3500 1.478 . S
C3499 H3493 0.930 . S
C3499 C3495 1.400 . S
C3499 C3498 1.385 1_655 S
C3500 C3498 1.478 . S
C3500 C3502 1.381 . S
C3500 C3506 1.383 . S
C3501 C3497 1.495 . S
C3501 H3507 0.959 . S
C3501 H3508 0.961 . S
C3501 H3509 0.960 . S
C3502 C3500 1.381 . S
C3502 C3503 1.394 . S
C3502 H3510 0.930 . S
C3503 C3502 1.394 . S
C3503 C3504 1.383 . S
C3503 H3511 0.929 . S
C3504 C3503 1.383 . S
C3504 C3505 1.377 . S
C3505 H3489 0.930 . S
C3505 C3504 1.377 . S
C3505 C3506 1.379 . S
C3506 H3490 0.931 . S
C3506 C3500 1.383 . S
C3506 C3505 1.379 . S
H3507 C3501 0.959 . S
H3508 C3501 0.961 . S
H3509 C3501 0.960 . S
H3510 C3502 0.930 . S
H3511 C3503 0.929 . S
H3512 C3520 0.927 1_655 S
H3513 C3522 0.903 1_655 S
H3514 C3524 0.930 . S
H3515 C3527 0.929 . S
H3516 C3530 0.930 . S
H3517 C3532 0.927 1_556 S
H3518 C3532 0.960 . S
H3519 C3532 0.960 . S
C3520 H3512 0.927 1_455 S
C3520 C3521 1.377 . S
C3520 C3522 1.394 . S
C3521 C3520 1.377 . S
C3521 C3527 1.390 . S
C3522 H3513 0.903 1_455 S
C3522 C3520 1.394 . S
C3522 C3523 1.389 . S
C3523 C3522 1.389 . S
C3523 C3524 1.400 . S
C3523 C3528 1.490 . S
C3524 H3514 0.930 . S
C3524 C3523 1.400 . S
C3524 C3527 1.386 . S
H3525 C3541 0.930 . S
H3526 C3542 0.931 1_455 S
C3527 H3515 0.929 . S
C3527 C3521 1.390 . S
C3527 C3524 1.386 . S
C3528 C3523 1.490 . S
C3528 C3530 1.395 1_455 S
C3528 C3531 1.403 . S
H3529 C3535 0.930 . S
C3530 H3516 0.930 . S
C3530 C3528 1.395 1_655 S
C3530 C3533 1.403 1_554 S
C3531 C3528 1.403 . S
C3531 C3532 1.524 . S
C3531 C3535 1.400 1_554 S
C3532 H3517 0.927 1_554 S
C3532 H3518 0.960 . S
C3532 H3519 0.960 . S
C3532 C3531 1.524 . S
C3533 C3530 1.403 1_556 S
C3533 C3534 1.392 . S
C3533 C3537 1.495 . S
C3534 C3533 1.392 . S
C3534 C3535 1.385 1_655 S
C3534 C3536 1.478 . S
C3535 H3529 0.930 . S
C3535 C3531 1.400 1_556 S
C3535 C3534 1.385 1_455 S
C3536 C3534 1.478 . S
C3536 C3538 1.381 . S
C3536 C3542 1.383 . S
C3537 C3533 1.495 . S
C3537 H3543 0.895 1_556 S
C3537 H3544 0.961 . S
C3537 H3545 0.960 . S
C3538 C3536 1.381 . S
C3538 C3539 1.394 . S
C3538 H3546 0.930 . S
C3539 C3538 1.394 . S
C3539 C3540 1.383 . S
C3539 H3547 0.929 . S
C3540 C3539 1.383 . S
C3540 C3541 1.377 . S
C3541 H3525 0.930 . S
C3541 C3540 1.377 . S
C3541 C3542 1.379 . S
C3542 H3526 0.931 1_655 S
C3542 C3536 1.383 . S
C3542 C3541 1.379 . S
H3543 C3537 0.895 1_554 S
H3544 C3537 0.961 . S
H3545 C3537 0.960 . S
H3546 C3538 0.930 . S
H3547 C3539 0.929 . S
H3548 C3556 0.929 . S
H3549 C3558 0.930 . S
H3550 C3560 0.930 . S
H3551 C3563 0.929 . S
H3552 C3566 0.930 . S
H3553 C3568 0.960 . S
H3554 C3568 0.960 . S
H3555 C3568 0.960 . S
C3556 H3548 0.929 . S
C3556 C3557 1.377 . S
C3556 C3558 1.384 . S
C3557 C3556 1.377 . S
C3557 C3563 1.390 . S
C3558 H3549 0.930 . S
C3558 C3556 1.384 . S
C3558 C3559 1.372 . S
C3559 C3558 1.372 . S
C3559 C3560 1.400 . S
C3559 C3564 1.490 . S
C3560 H3550 0.930 . S
C3560 C3559 1.400 . S
C3560 C3563 1.386 . S
H3561 C3577 0.930 . S
H3562 C3578 0.931 . S
C3563 H3551 0.929 . S
C3563 C3557 1.390 . S
C3563 C3560 1.386 . S
C3564 C3559 1.490 . S
C3564 C3566 1.395 . S
C3564 C3567 1.403 . S
H3565 C3571 0.930 . S
C3566 H3552 0.930 . S
C3566 C3564 1.395 . S
C3566 C3569 1.403 . S
C3567 C3564 1.403 . S
C3567 C3568 1.524 . S
C3567 C3571 1.400 . S
C3568 H3553 0.960 . S
C3568 H3554 0.960 . S
C3568 H3555 0.960 . S
C3568 C3567 1.524 . S
C3569 C3566 1.403 . S
C3569 C3570 1.392 . S
C3569 C3573 1.495 . S
C3570 C3569 1.392 . S
C3570 C3571 1.385 . S
C3570 C3572 1.478 . S
C3571 H3565 0.930 . S
C3571 C3567 1.400 . S
C3571 C3570 1.385 . S
C3572 C3570 1.478 . S
C3572 C3574 1.381 . S
C3572 C3578 1.383 . S
C3573 C3569 1.495 . S
C3573 H3579 0.959 . S
C3573 H3580 0.961 . S
C3573 H3581 0.960 . S
C3574 C3572 1.381 . S
C3574 C3575 1.394 . S
C3574 H3582 0.930 . S
C3575 C3574 1.394 . S
C3575 C3576 1.383 . S
C3575 H3583 0.929 . S
C3576 C3575 1.383 . S
C3576 C3577 1.377 . S
C3577 H3561 0.930 . S
C3577 C3576 1.377 . S
C3577 C3578 1.379 . S
C3578 H3562 0.931 . S
C3578 C3572 1.383 . S
C3578 C3577 1.379 . S
H3579 C3573 0.959 . S
H3580 C3573 0.961 . S
H3581 C3573 0.960 . S
H3582 C3574 0.930 . S
H3583 C3575 0.929 . S
H3584 C3592 0.929 . S
H3585 C3594 0.930 . S
H3586 C3596 0.930 . S
H3587 C3599 0.929 . S
H3588 C3602 0.930 . S
H3589 C3604 0.960 . S
H3590 C3604 0.960 . S
H3591 C3604 0.960 . S
C3592 H3584 0.929 . S
C3592 C3593 1.377 . S
C3592 C3594 1.384 . S
C3593 C3592 1.377 . S
C3593 C3599 1.390 . S
C3594 H3585 0.930 . S
C3594 C3592 1.384 . S
C3594 C3595 1.372 . S
C3595 C3594 1.372 . S
C3595 C3596 1.400 . S
C3595 C3600 1.490 . S
C3596 H3586 0.930 . S
C3596 C3595 1.400 . S
C3596 C3599 1.386 . S
H3597 C3613 0.930 . S
H3598 C3614 0.931 . S
C3599 H3587 0.929 . S
C3599 C3593 1.390 . S
C3599 C3596 1.386 . S
C3600 C3595 1.490 . S
C3600 C3602 1.395 . S
C3600 C3603 1.403 . S
H3601 C3607 0.930 . S
C3602 H3588 0.930 . S
C3602 C3600 1.395 . S
C3602 C3605 1.403 . S
C3603 C3600 1.403 . S
C3603 C3604 1.524 . S
C3603 C3607 1.400 . S
C3604 H3589 0.960 . S
C3604 H3590 0.960 . S
C3604 H3591 0.960 . S
C3604 C3603 1.524 . S
C3605 C3602 1.403 . S
C3605 C3606 1.392 . S
C3605 C3609 1.495 . S
C3606 C3605 1.392 . S
C3606 C3607 1.385 . S
C3606 C3608 1.478 . S
C3607 H3601 0.930 . S
C3607 C3603 1.400 . S
C3607 C3606 1.385 . S
C3608 C3606 1.478 . S
C3608 C3610 1.381 . S
C3608 C3614 1.383 . S
C3609 C3605 1.495 . S
C3609 H3615 0.959 . S
C3609 H3616 0.961 . S
C3609 H3617 0.960 . S
C3610 C3608 1.381 . S
C3610 C3611 1.394 . S
C3610 H3618 0.930 . S
C3611 C3610 1.394 . S
C3611 C3612 1.383 . S
C3611 H3619 0.929 . S
C3612 C3611 1.383 . S
C3612 C3613 1.377 . S
C3613 H3597 0.930 . S
C3613 C3612 1.377 . S
C3613 C3614 1.379 . S
C3614 H3598 0.931 . S
C3614 C3608 1.383 . S
C3614 C3613 1.379 . S
H3615 C3609 0.959 . S
H3616 C3609 0.961 . S
H3617 C3609 0.960 . S
H3618 C3610 0.930 . S
H3619 C3611 0.929 . S
H3620 C3628 0.929 . S
H3621 C3630 0.930 . S
H3622 C3632 0.930 . S
H3623 C3635 0.929 . S
H3624 C3638 0.930 . S
H3625 C3640 0.960 . S
H3626 C3640 0.960 . S
H3627 C3640 0.960 . S
C3628 H3620 0.929 . S
C3628 C3629 1.377 . S
C3628 C3630 1.384 . S
C3629 C3628 1.377 . S
C3629 C3635 1.390 . S
C3630 H3621 0.930 . S
C3630 C3628 1.384 . S
C3630 C3631 1.372 . S
C3631 C3630 1.372 . S
C3631 C3632 1.400 . S
C3631 C3636 1.490 . S
C3632 H3622 0.930 . S
C3632 C3631 1.400 . S
C3632 C3635 1.386 . S
H3633 C3649 0.930 . S
H3634 C3650 0.931 . S
C3635 H3623 0.929 . S
C3635 C3629 1.390 . S
C3635 C3632 1.386 . S
C3636 C3631 1.490 . S
C3636 C3638 1.395 . S
C3636 C3639 1.403 . S
H3637 C3643 0.930 . S
C3638 H3624 0.930 . S
C3638 C3636 1.395 . S
C3638 C3641 1.403 . S
C3639 C3636 1.403 . S
C3639 C3640 1.524 . S
C3639 C3643 1.400 . S
C3640 H3625 0.960 . S
C3640 H3626 0.960 . S
C3640 H3627 0.960 . S
C3640 C3639 1.524 . S
C3641 C3638 1.403 . S
C3641 C3642 1.392 . S
C3641 C3645 1.495 . S
C3642 C3641 1.392 . S
C3642 C3643 1.385 . S
C3642 C3644 1.478 . S
C3643 H3637 0.930 . S
C3643 C3639 1.400 . S
C3643 C3642 1.385 . S
C3644 C3642 1.478 . S
C3644 C3646 1.381 . S
C3644 C3650 1.383 . S
C3645 C3641 1.495 . S
C3645 H3651 0.959 . S
C3645 H3652 0.961 . S
C3645 H3653 0.960 . S
C3646 C3644 1.381 . S
C3646 C3647 1.394 . S
C3646 H3654 0.930 . S
C3647 C3646 1.394 . S
C3647 C3648 1.383 . S
C3647 H3655 0.929 . S
C3648 C3647 1.383 . S
C3648 C3649 1.377 . S
C3649 H3633 0.930 . S
C3649 C3648 1.377 . S
C3649 C3650 1.379 . S
C3650 H3634 0.931 . S
C3650 C3644 1.383 . S
C3650 C3649 1.379 . S
H3651 C3645 0.959 . S
H3652 C3645 0.961 . S
H3653 C3645 0.960 . S
H3654 C3646 0.930 . S
H3655 C3647 0.929 . S
H3656 C3664 0.929 . S
H3657 C3666 0.930 . S
H3658 C3668 0.930 . S
H3659 C3671 0.929 . S
H3660 C3674 0.930 . S
H3661 C3676 0.960 . S
H3662 C3676 0.960 . S
H3663 C3676 0.960 . S
C3664 H3656 0.929 . S
C3664 C3665 1.377 . S
C3664 C3666 1.384 . S
C3665 C3664 1.377 . S
C3665 C3671 1.390 . S
C3666 H3657 0.930 . S
C3666 C3664 1.384 . S
C3666 C3667 1.372 . S
C3667 C3666 1.372 . S
C3667 C3668 1.400 . S
C3667 C3672 1.490 . S
C3668 H3658 0.930 . S
C3668 C3667 1.400 . S
C3668 C3671 1.386 . S
H3669 C3685 0.930 . S
H3670 C3686 0.931 . S
C3671 H3659 0.929 . S
C3671 C3665 1.390 . S
C3671 C3668 1.386 . S
C3672 C3667 1.490 . S
C3672 C3674 1.395 . S
C3672 C3675 1.403 . S
H3673 C3679 0.930 . S
C3674 H3660 0.930 . S
C3674 C3672 1.395 . S
C3674 C3677 1.403 . S
C3675 C3672 1.403 . S
C3675 C3676 1.524 . S
C3675 C3679 1.400 . S
C3676 H3661 0.960 . S
C3676 H3662 0.960 . S
C3676 H3663 0.960 . S
C3676 C3675 1.524 . S
C3677 C3674 1.403 . S
C3677 C3678 1.392 . S
C3677 C3681 1.495 . S
C3678 C3677 1.392 . S
C3678 C3679 1.385 . S
C3678 C3680 1.478 . S
C3679 H3673 0.930 . S
C3679 C3675 1.400 . S
C3679 C3678 1.385 . S
C3680 C3678 1.478 . S
C3680 C3682 1.381 . S
C3680 C3686 1.383 . S
C3681 C3677 1.495 . S
C3681 H3687 0.959 . S
C3681 H3688 0.961 . S
C3681 H3689 0.960 . S
C3682 C3680 1.381 . S
C3682 C3683 1.394 . S
C3682 H3690 0.930 . S
C3683 C3682 1.394 . S
C3683 C3684 1.383 . S
C3683 H3691 0.929 . S
C3684 C3683 1.383 . S
C3684 C3685 1.377 . S
C3685 H3669 0.930 . S
C3685 C3684 1.377 . S
C3685 C3686 1.379 . S
C3686 H3670 0.931 . S
C3686 C3680 1.383 . S
C3686 C3685 1.379 . S
H3687 C3681 0.959 . S
H3688 C3681 0.961 . S
H3689 C3681 0.960 . S
H3690 C3682 0.930 . S
H3691 C3683 0.929 . S
H3692 C3700 0.929 . S
H3693 C3702 0.930 . S
H3694 C3704 0.930 . S
H3695 C3707 0.929 . S
H3696 C3710 0.930 . S
H3697 C3712 0.960 . S
H3698 C3712 0.960 . S
H3699 C3712 0.960 . S
C3700 H3692 0.929 . S
C3700 C3701 1.377 . S
C3700 C3702 1.384 . S
C3701 C3700 1.377 . S
C3701 C3707 1.390 . S
C3702 H3693 0.930 . S
C3702 C3700 1.384 . S
C3702 C3703 1.372 . S
C3703 C3702 1.372 . S
C3703 C3704 1.400 . S
C3703 C3708 1.490 . S
C3704 H3694 0.930 . S
C3704 C3703 1.400 . S
C3704 C3707 1.386 . S
H3705 C3721 0.930 . S
H3706 C3722 0.931 . S
C3707 H3695 0.929 . S
C3707 C3701 1.390 . S
C3707 C3704 1.386 . S
C3708 C3703 1.490 . S
C3708 C3710 1.395 . S
C3708 C3711 1.403 . S
H3709 C3715 0.930 . S
C3710 H3696 0.930 . S
C3710 C3708 1.395 . S
C3710 C3713 1.403 . S
C3711 C3708 1.403 . S
C3711 C3712 1.524 . S
C3711 C3715 1.400 . S
C3712 H3697 0.960 . S
C3712 H3698 0.960 . S
C3712 H3699 0.960 . S
C3712 C3711 1.524 . S
C3713 C3710 1.403 . S
C3713 C3714 1.392 . S
C3713 C3717 1.495 . S
C3714 C3713 1.392 . S
C3714 C3715 1.385 . S
C3714 C3716 1.478 . S
C3715 H3709 0.930 . S
C3715 C3711 1.400 . S
C3715 C3714 1.385 . S
C3716 C3714 1.478 . S
C3716 C3718 1.381 . S
C3716 C3722 1.383 . S
C3717 C3713 1.495 . S
C3717 H3723 0.959 . S
C3717 H3724 0.961 . S
C3717 H3725 0.960 . S
C3718 C3716 1.381 . S
C3718 C3719 1.394 . S
C3718 H3726 0.930 . S
C3719 C3718 1.394 . S
C3719 C3720 1.383 . S
C3719 H3727 0.929 . S
C3720 C3719 1.383 . S
C3720 C3721 1.377 . S
C3721 H3705 0.930 . S
C3721 C3720 1.377 . S
C3721 C3722 1.379 . S
C3722 H3706 0.931 . S
C3722 C3716 1.383 . S
C3722 C3721 1.379 . S
H3723 C3717 0.959 . S
H3724 C3717 0.961 . S
H3725 C3717 0.960 . S
H3726 C3718 0.930 . S
H3727 C3719 0.929 . S
H3728 C3736 0.929 . S
H3729 C3738 0.930 . S
H3730 C3740 0.930 . S
H3731 C3743 0.929 . S
H3732 C3746 0.930 . S
H3733 C3748 0.960 . S
H3734 C3748 0.960 . S
H3735 C3748 0.960 . S
C3736 H3728 0.929 . S
C3736 C3737 1.377 . S
C3736 C3738 1.384 . S
C3737 C3736 1.377 . S
C3737 C3743 1.390 . S
C3738 H3729 0.930 . S
C3738 C3736 1.384 . S
C3738 C3739 1.372 . S
C3739 C3738 1.372 . S
C3739 C3740 1.400 . S
C3739 C3744 1.490 . S
C3740 H3730 0.930 . S
C3740 C3739 1.400 . S
C3740 C3743 1.386 . S
H3741 C3757 0.930 . S
H3742 C3758 0.931 . S
C3743 H3731 0.929 . S
C3743 C3737 1.390 . S
C3743 C3740 1.386 . S
C3744 C3739 1.490 . S
C3744 C3746 1.395 . S
C3744 C3747 1.403 . S
H3745 C3751 0.930 . S
C3746 H3732 0.930 . S
C3746 C3744 1.395 . S
C3746 C3749 1.403 . S
C3747 C3744 1.403 . S
C3747 C3748 1.524 . S
C3747 C3751 1.400 . S
C3748 H3733 0.960 . S
C3748 H3734 0.960 . S
C3748 H3735 0.960 . S
C3748 C3747 1.524 . S
C3749 C3746 1.403 . S
C3749 C3750 1.392 . S
C3749 C3753 1.495 . S
C3750 C3749 1.392 . S
C3750 C3751 1.385 . S
C3750 C3752 1.478 . S
C3751 H3745 0.930 . S
C3751 C3747 1.400 . S
C3751 C3750 1.385 . S
C3752 C3750 1.478 . S
C3752 C3754 1.381 . S
C3752 C3758 1.383 . S
C3753 C3749 1.495 . S
C3753 H3759 0.959 . S
C3753 H3760 0.961 . S
C3753 H3761 0.960 . S
C3754 C3752 1.381 . S
C3754 C3755 1.394 . S
C3754 H3762 0.930 . S
C3755 C3754 1.394 . S
C3755 C3756 1.383 . S
C3755 H3763 0.929 1_565 S
C3756 C3755 1.383 . S
C3756 C3757 1.377 . S
C3757 H3741 0.930 . S
C3757 C3756 1.377 . S
C3757 C3758 1.379 . S
C3758 H3742 0.931 . S
C3758 C3752 1.383 . S
C3758 C3757 1.379 . S
H3759 C3753 0.959 . S
H3760 C3753 0.961 . S
H3761 C3753 0.960 . S
H3762 C3754 0.930 . S
H3763 C3755 0.929 1_545 S
H3764 C3772 0.929 . S
H3765 C3774 0.930 . S
H3766 C3776 0.930 . S
H3767 C3779 0.929 . S
H3768 C3782 0.930 . S
H3769 C3784 0.960 . S
H3770 C3784 0.960 . S
H3771 C3784 0.960 . S
C3772 H3764 0.929 . S
C3772 C3773 1.377 . S
C3772 C3774 1.384 . S
C3773 C3772 1.377 . S
C3773 C3779 1.390 . S
C3774 H3765 0.930 . S
C3774 C3772 1.384 . S
C3774 C3775 1.372 . S
C3775 C3774 1.372 . S
C3775 C3776 1.400 . S
C3775 C3780 1.490 . S
C3776 H3766 0.930 . S
C3776 C3775 1.400 . S
C3776 C3779 1.386 . S
H3777 C3793 0.930 . S
H3778 C3794 0.931 . S
C3779 H3767 0.929 . S
C3779 C3773 1.390 . S
C3779 C3776 1.386 . S
C3780 C3775 1.490 . S
C3780 C3782 1.395 . S
C3780 C3783 1.403 . S
H3781 C3787 0.930 . S
C3782 H3768 0.930 . S
C3782 C3780 1.395 . S
C3782 C3785 1.403 . S
C3783 C3780 1.403 . S
C3783 C3784 1.524 . S
C3783 C3787 1.400 . S
C3784 H3769 0.960 . S
C3784 H3770 0.960 . S
C3784 H3771 0.960 . S
C3784 C3783 1.524 . S
C3785 C3782 1.403 . S
C3785 C3786 1.392 . S
C3785 C3789 1.495 . S
C3786 C3785 1.392 . S
C3786 C3787 1.385 . S
C3786 C3788 1.478 . S
C3787 H3781 0.930 . S
C3787 C3783 1.400 . S
C3787 C3786 1.385 . S
C3788 C3786 1.478 . S
C3788 C3790 1.381 . S
C3788 C3794 1.383 . S
C3789 C3785 1.495 . S
C3789 H3795 0.959 . S
C3789 H3796 0.961 . S
C3789 H3797 0.960 . S
C3790 C3788 1.381 . S
C3790 C3791 1.394 . S
C3790 H3798 0.930 . S
C3791 C3790 1.394 . S
C3791 C3792 1.383 . S
C3791 H3799 0.929 . S
C3792 C3791 1.383 . S
C3792 C3793 1.377 . S
C3793 H3777 0.930 . S
C3793 C3792 1.377 . S
C3793 C3794 1.379 . S
C3794 H3778 0.931 . S
C3794 C3788 1.383 . S
C3794 C3793 1.379 . S
H3795 C3789 0.959 . S
H3796 C3789 0.961 . S
H3797 C3789 0.960 . S
H3798 C3790 0.930 . S
H3799 C3791 0.929 . S
H3800 C3808 0.929 . S
H3801 C3810 0.930 . S
H3802 C3812 0.930 . S
H3803 C3815 0.929 . S
H3804 C3818 0.930 . S
H3805 C3820 0.960 . S
H3806 C3820 0.960 . S
H3807 C3820 0.960 . S
C3808 H3800 0.929 . S
C3808 C3809 1.377 . S
C3808 C3810 1.384 . S
C3809 C3808 1.377 . S
C3809 C3815 1.390 . S
C3810 H3801 0.930 . S
C3810 C3808 1.384 . S
C3810 C3811 1.372 . S
C3811 C3810 1.372 . S
C3811 C3812 1.400 . S
C3811 C3816 1.490 . S
C3812 H3802 0.930 . S
C3812 C3811 1.400 . S
C3812 C3815 1.386 . S
H3813 C3829 0.930 . S
H3814 C3830 0.931 . S
C3815 H3803 0.929 . S
C3815 C3809 1.390 . S
C3815 C3812 1.386 . S
C3816 C3811 1.490 . S
C3816 C3818 1.395 . S
C3816 C3819 1.403 . S
H3817 C3823 0.930 . S
C3818 H3804 0.930 . S
C3818 C3816 1.395 . S
C3818 C3821 1.403 . S
C3819 C3816 1.403 . S
C3819 C3820 1.524 . S
C3819 C3823 1.400 . S
C3820 H3805 0.960 . S
C3820 H3806 0.960 . S
C3820 H3807 0.960 . S
C3820 C3819 1.524 . S
C3821 C3818 1.403 . S
C3821 C3822 1.392 . S
C3821 C3825 1.495 . S
C3822 C3821 1.392 . S
C3822 C3823 1.385 . S
C3822 C3824 1.478 . S
C3823 H3817 0.930 . S
C3823 C3819 1.400 . S
C3823 C3822 1.385 . S
C3824 C3822 1.478 . S
C3824 C3826 1.381 . S
C3824 C3830 1.383 . S
C3825 C3821 1.495 . S
C3825 H3831 0.959 . S
C3825 H3832 0.961 . S
C3825 H3833 0.960 . S
C3826 C3824 1.381 . S
C3826 C3827 1.394 . S
C3826 H3834 0.930 . S
C3827 C3826 1.394 . S
C3827 C3828 1.383 . S
C3827 H3835 0.929 . S
C3828 C3827 1.383 . S
C3828 C3829 1.377 . S
C3829 H3813 0.930 . S
C3829 C3828 1.377 . S
C3829 C3830 1.379 . S
C3830 H3814 0.931 . S
C3830 C3824 1.383 . S
C3830 C3829 1.379 . S
H3831 C3825 0.959 . S
H3832 C3825 0.961 . S
H3833 C3825 0.960 . S
H3834 C3826 0.930 . S
H3835 C3827 0.929 . S
H3836 C3844 0.929 . S
H3837 C3846 0.930 . S
H3838 C3848 0.930 . S
H3839 C3851 0.972 . S
H3840 C3854 0.930 . S
H3841 C3856 0.960 . S
H3842 C3856 0.960 . S
H3843 C3856 0.960 . S
C3844 H3836 0.929 . S
C3844 C3845 1.377 . S
C3844 C3846 1.384 . S
C3845 C3844 1.377 . S
C3845 C3851 1.390 . S
C3846 H3837 0.930 . S
C3846 C3844 1.384 . S
C3846 C3847 1.372 . S
C3847 C3846 1.372 . S
C3847 C3848 1.400 . S
C3847 C3852 1.490 . S
C3848 H3838 0.930 . S
C3848 C3847 1.400 . S
C3848 C3851 1.386 . S
H3849 C3865 0.930 . S
H3850 C3866 0.931 . S
C3851 H3839 0.972 . S
C3851 C3845 1.390 . S
C3851 C3848 1.386 . S
C3852 C3847 1.490 . S
C3852 C3854 1.395 . S
C3852 C3855 1.403 . S
H3853 C3859 0.930 . S
C3854 H3840 0.930 . S
C3854 C3852 1.395 . S
C3854 C3857 1.403 . S
C3855 C3852 1.403 . S
C3855 C3856 1.524 . S
C3855 C3859 1.400 . S
C3856 H3841 0.960 . S
C3856 H3842 0.960 . S
C3856 H3843 0.960 . S
C3856 C3855 1.524 . S
C3857 C3854 1.403 . S
C3857 C3858 1.392 . S
C3857 C3861 1.495 . S
C3858 C3857 1.392 . S
C3858 C3859 1.385 . S
C3858 C3860 1.478 . S
C3859 H3853 0.930 . S
C3859 C3855 1.400 . S
C3859 C3858 1.385 . S
C3860 C3858 1.478 . S
C3860 C3862 1.381 . S
C3860 C3866 1.383 . S
C3861 C3857 1.495 . S
C3861 H3867 0.959 . S
C3861 H3868 0.961 . S
C3861 H3869 0.960 . S
C3862 C3860 1.381 . S
C3862 C3863 1.394 . S
C3862 H3870 0.930 . S
C3863 C3862 1.394 . S
C3863 C3864 1.383 . S
C3863 H3871 0.929 . S
C3864 C3863 1.383 . S
C3864 C3865 1.377 . S
C3865 H3849 0.930 . S
C3865 C3864 1.377 . S
C3865 C3866 1.379 . S
C3866 H3850 0.931 . S
C3866 C3860 1.383 . S
C3866 C3865 1.379 . S
H3867 C3861 0.959 . S
H3868 C3861 0.961 . S
H3869 C3861 0.960 . S
H3870 C3862 0.930 . S
H3871 C3863 0.929 . S
H3872 C3880 0.929 . S
H3873 C3882 0.930 . S
H3874 C3884 0.930 . S
H3875 C3887 0.929 . S
H3876 C3890 0.930 . S
H3877 C3892 0.960 . S
H3878 C3892 0.960 . S
H3879 C3892 0.960 . S
C3880 H3872 0.929 . S
C3880 C3881 1.377 . S
C3880 C3882 1.384 . S
C3881 C3880 1.377 . S
C3881 C3887 1.390 . S
C3882 H3873 0.930 . S
C3882 C3880 1.384 . S
C3882 C3883 1.372 . S
C3883 C3882 1.372 . S
C3883 C3884 1.400 . S
C3883 C3888 1.490 . S
C3884 H3874 0.930 . S
C3884 C3883 1.400 . S
C3884 C3887 1.386 . S
H3885 C3901 0.930 . S
H3886 C3902 0.931 . S
C3887 H3875 0.929 . S
C3887 C3881 1.390 . S
C3887 C3884 1.386 . S
C3888 C3883 1.490 . S
C3888 C3890 1.395 . S
C3888 C3891 1.403 . S
H3889 C3895 0.930 . S
C3890 H3876 0.930 . S
C3890 C3888 1.395 . S
C3890 C3893 1.403 . S
C3891 C3888 1.403 . S
C3891 C3892 1.524 . S
C3891 C3895 1.400 . S
C3892 H3877 0.960 . S
C3892 H3878 0.960 . S
C3892 H3879 0.960 . S
C3892 C3891 1.524 . S
C3893 C3890 1.403 . S
C3893 C3894 1.392 . S
C3893 C3897 1.495 . S
C3894 C3893 1.392 . S
C3894 C3895 1.385 . S
C3894 C3896 1.478 . S
C3895 H3889 0.930 . S
C3895 C3891 1.400 . S
C3895 C3894 1.385 . S
C3896 C3894 1.478 . S
C3896 C3898 1.381 . S
C3896 C3902 1.383 . S
C3897 C3893 1.495 . S
C3897 H3903 0.959 . S
C3897 H3904 0.961 . S
C3897 H3905 0.960 . S
C3898 C3896 1.381 . S
C3898 C3899 1.394 . S
C3898 H3906 0.930 . S
C3899 C3898 1.394 . S
C3899 C3900 1.383 . S
C3899 H3907 0.929 . S
C3900 C3899 1.383 . S
C3900 C3901 1.377 . S
C3901 H3885 0.930 . S
C3901 C3900 1.377 . S
C3901 C3902 1.379 . S
C3902 H3886 0.931 . S
C3902 C3896 1.383 . S
C3902 C3901 1.379 . S
H3903 C3897 0.959 . S
H3904 C3897 0.961 . S
H3905 C3897 0.960 . S
H3906 C3898 0.930 . S
H3907 C3899 0.929 . S
H3908 C3916 0.929 . S
H3909 C3918 0.930 . S
H3910 C3920 0.930 . S
H3911 C3923 0.929 . S
H3912 C3926 0.930 . S
H3913 C3928 0.960 . S
H3914 C3928 0.960 . S
H3915 C3928 0.960 . S
C3916 H3908 0.929 . S
C3916 C3917 1.377 . S
C3916 C3918 1.384 . S
C3917 C3916 1.377 . S
C3917 C3923 1.390 . S
C3918 H3909 0.930 . S
C3918 C3916 1.384 . S
C3918 C3919 1.372 . S
C3919 C3918 1.372 . S
C3919 C3920 1.400 . S
C3919 C3924 1.490 . S
C3920 H3910 0.930 . S
C3920 C3919 1.400 . S
C3920 C3923 1.386 . S
H3921 C3937 0.930 . S
H3922 C3938 0.931 . S
C3923 H3911 0.929 . S
C3923 C3917 1.390 . S
C3923 C3920 1.386 . S
C3924 C3919 1.490 . S
C3924 C3926 1.395 . S
C3924 C3927 1.403 . S
H3925 C3931 0.930 . S
C3926 H3912 0.930 . S
C3926 C3924 1.395 . S
C3926 C3929 1.403 . S
C3927 C3924 1.403 . S
C3927 C3928 1.524 . S
C3927 C3931 1.400 . S
C3928 H3913 0.960 . S
C3928 H3914 0.960 . S
C3928 H3915 0.960 . S
C3928 C3927 1.524 . S
C3929 C3926 1.403 . S
C3929 C3930 1.392 . S
C3929 C3933 1.495 . S
C3930 C3929 1.392 . S
C3930 C3931 1.385 . S
C3930 C3932 1.478 . S
C3931 H3925 0.930 . S
C3931 C3927 1.400 . S
C3931 C3930 1.385 . S
C3932 C3930 1.478 . S
C3932 C3934 1.381 . S
C3932 C3938 1.383 . S
C3933 C3929 1.495 . S
C3933 H3939 0.959 . S
C3933 H3940 0.961 . S
C3933 H3941 0.960 . S
C3934 C3932 1.381 . S
C3934 C3935 1.394 . S
C3934 H3942 0.930 . S
C3935 C3934 1.394 . S
C3935 C3936 1.383 . S
C3935 H3943 0.929 . S
C3936 C3935 1.383 . S
C3936 C3937 1.377 . S
C3937 H3921 0.930 . S
C3937 C3936 1.377 . S
C3937 C3938 1.379 . S
C3938 H3922 0.931 . S
C3938 C3932 1.383 . S
C3938 C3937 1.379 . S
H3939 C3933 0.959 . S
H3940 C3933 0.961 . S
H3941 C3933 0.960 . S
H3942 C3934 0.930 . S
H3943 C3935 0.929 . S
H3944 C3952 0.929 . S
H3945 C3954 0.930 . S
H3946 C3956 0.930 . S
H3947 C3959 0.929 . S
H3948 C3962 0.930 . S
H3949 C3964 0.960 . S
H3950 C3964 0.960 . S
H3951 C3964 0.960 . S
C3952 H3944 0.929 . S
C3952 C3953 1.377 . S
C3952 C3954 1.384 . S
C3953 C3952 1.377 . S
C3953 C3959 1.390 . S
C3954 H3945 0.930 . S
C3954 C3952 1.384 . S
C3954 C3955 1.372 . S
C3955 C3954 1.372 . S
C3955 C3956 1.400 . S
C3955 C3960 1.490 . S
C3956 H3946 0.930 . S
C3956 C3955 1.400 . S
C3956 C3959 1.386 . S
H3957 C3973 0.930 . S
H3958 C3974 0.931 . S
C3959 H3947 0.929 . S
C3959 C3953 1.390 . S
C3959 C3956 1.386 . S
C3960 C3955 1.490 . S
C3960 C3962 1.395 . S
C3960 C3963 1.403 . S
H3961 C3967 0.930 . S
C3962 H3948 0.930 . S
C3962 C3960 1.395 . S
C3962 C3965 1.403 . S
C3963 C3960 1.403 . S
C3963 C3964 1.524 . S
C3963 C3967 1.400 . S
C3964 H3949 0.960 . S
C3964 H3950 0.960 . S
C3964 H3951 0.960 . S
C3964 C3963 1.524 . S
C3965 C3962 1.403 . S
C3965 C3966 1.392 . S
C3965 C3969 1.495 . S
C3966 C3965 1.392 . S
C3966 C3967 1.385 . S
C3966 C3968 1.478 . S
C3967 H3961 0.930 . S
C3967 C3963 1.400 . S
C3967 C3966 1.385 . S
C3968 C3966 1.478 . S
C3968 C3970 1.381 . S
C3968 C3974 1.383 . S
C3969 C3965 1.495 . S
C3969 H3975 0.959 . S
C3969 H3976 0.961 . S
C3969 H3977 0.960 . S
C3970 C3968 1.381 . S
C3970 C3971 1.394 . S
C3970 H3978 0.930 . S
C3971 C3970 1.394 . S
C3971 C3972 1.383 . S
C3971 H3979 0.929 . S
C3972 C3971 1.383 . S
C3972 C3973 1.377 . S
C3973 H3957 0.930 . S
C3973 C3972 1.377 . S
C3973 C3974 1.379 . S
C3974 H3958 0.931 . S
C3974 C3968 1.383 . S
C3974 C3973 1.379 . S
H3975 C3969 0.959 . S
H3976 C3969 0.961 . S
H3977 C3969 0.960 . S
H3978 C3970 0.930 . S
H3979 C3971 0.929 . S
H3980 C3988 0.929 . S
H3981 C3990 0.930 . S
H3982 C3992 0.930 . S
H3983 C3995 0.929 . S
H3984 C3998 0.930 . S
H3985 C4000 0.960 . S
H3986 C4000 0.960 . S
H3987 C4000 0.960 . S
C3988 H3980 0.929 . S
C3988 C3989 1.377 . S
C3988 C3990 1.384 . S
C3989 C3988 1.377 . S
C3989 C3995 1.390 . S
C3990 H3981 0.930 . S
C3990 C3988 1.384 . S
C3990 C3991 1.372 . S
C3991 C3990 1.372 . S
C3991 C3992 1.400 . S
C3991 C3996 1.490 . S
C3992 H3982 0.930 . S
C3992 C3991 1.400 . S
C3992 C3995 1.386 . S
H3993 C4009 0.930 . S
H3994 C4010 0.931 . S
C3995 H3983 0.929 . S
C3995 C3989 1.390 . S
C3995 C3992 1.386 . S
C3996 C3991 1.490 . S
C3996 C3998 1.395 . S
C3996 C3999 1.403 . S
H3997 C4003 0.930 . S
C3998 H3984 0.930 . S
C3998 C3996 1.395 . S
C3998 C4001 1.403 . S
C3999 C3996 1.403 . S
C3999 C4000 1.524 . S
C3999 C4003 1.400 . S
C4000 H3985 0.960 . S
C4000 H3986 0.960 . S
C4000 H3987 0.960 . S
C4000 C3999 1.524 . S
C4001 C3998 1.403 . S
C4001 C4002 1.392 . S
C4001 C4005 1.495 . S
C4002 C4001 1.392 . S
C4002 C4003 1.385 . S
C4002 C4004 1.478 . S
C4003 H3997 0.930 . S
C4003 C3999 1.400 . S
C4003 C4002 1.385 . S
C4004 C4002 1.478 . S
C4004 C4006 1.381 . S
C4004 C4010 1.383 . S
C4005 C4001 1.495 . S
C4005 H4011 0.959 . S
C4005 H4012 0.961 . S
C4005 H4013 0.960 . S
C4006 C4004 1.381 . S
C4006 C4007 1.394 . S
C4006 H4014 0.930 . S
C4007 C4006 1.394 . S
C4007 C4008 1.383 . S
C4007 H4015 0.929 . S
C4008 C4007 1.383 . S
C4008 C4009 1.377 . S
C4009 H3993 0.930 . S
C4009 C4008 1.377 . S
C4009 C4010 1.379 . S
C4010 H3994 0.931 . S
C4010 C4004 1.383 . S
C4010 C4009 1.379 . S
H4011 C4005 0.959 . S
H4012 C4005 0.961 . S
H4013 C4005 0.960 . S
H4014 C4006 0.930 . S
H4015 C4007 0.929 . S
H4016 C4024 0.929 . S
H4017 C4026 0.930 . S
H4018 C4028 0.930 . S
H4019 C4031 0.929 . S
H4020 C4034 0.930 . S
H4021 C4036 0.960 . S
H4022 C4036 0.960 . S
H4023 C4036 0.960 . S
C4024 H4016 0.929 . S
C4024 C4025 1.377 . S
C4024 C4026 1.384 . S
C4025 C4024 1.377 . S
C4025 C4031 1.390 . S
C4026 H4017 0.930 . S
C4026 C4024 1.384 . S
C4026 C4027 1.372 . S
C4027 C4026 1.372 . S
C4027 C4028 1.400 . S
C4027 C4032 1.490 . S
C4028 H4018 0.930 . S
C4028 C4027 1.400 . S
C4028 C4031 1.386 . S
H4029 C4045 0.930 . S
H4030 C4046 0.931 . S
C4031 H4019 0.929 . S
C4031 C4025 1.390 . S
C4031 C4028 1.386 . S
C4032 C4027 1.490 . S
C4032 C4034 1.395 . S
C4032 C4035 1.403 . S
H4033 C4039 0.930 . S
C4034 H4020 0.930 . S
C4034 C4032 1.395 . S
C4034 C4037 1.403 . S
C4035 C4032 1.403 . S
C4035 C4036 1.524 . S
C4035 C4039 1.400 . S
C4036 H4021 0.960 . S
C4036 H4022 0.960 . S
C4036 H4023 0.960 . S
C4036 C4035 1.524 . S
C4037 C4034 1.403 . S
C4037 C4038 1.392 . S
C4037 C4041 1.495 . S
C4038 C4037 1.392 . S
C4038 C4039 1.385 . S
C4038 C4040 1.478 . S
C4039 H4033 0.930 . S
C4039 C4035 1.400 . S
C4039 C4038 1.385 . S
C4040 C4038 1.478 . S
C4040 C4042 1.381 . S
C4040 C4046 1.383 . S
C4041 C4037 1.495 . S
C4041 H4047 0.959 . S
C4041 H4048 0.961 . S
C4041 H4049 0.960 . S
C4042 C4040 1.381 . S
C4042 C4043 1.394 . S
C4042 H4050 0.930 . S
C4043 C4042 1.394 . S
C4043 C4044 1.383 . S
C4043 H4051 0.929 . S
C4044 C4043 1.383 . S
C4044 C4045 1.377 . S
C4045 H4029 0.930 . S
C4045 C4044 1.377 . S
C4045 C4046 1.379 . S
C4046 H4030 0.931 . S
C4046 C4040 1.383 . S
C4046 C4045 1.379 . S
H4047 C4041 0.959 . S
H4048 C4041 0.961 . S
H4049 C4041 0.960 . S
H4050 C4042 0.930 . S
H4051 C4043 0.929 . S
H4052 C4060 0.929 . S
H4053 C4062 0.930 . S
H4054 C4064 0.930 . S
H4055 C4067 0.929 . S
H4056 C4070 0.930 . S
H4057 C4072 0.960 . S
H4058 C4072 0.960 . S
H4059 C4072 0.960 . S
C4060 H4052 0.929 . S
C4060 C4061 1.377 . S
C4060 C4062 1.384 . S
C4061 C4060 1.377 . S
C4061 C4067 1.390 . S
C4062 H4053 0.930 . S
C4062 C4060 1.384 . S
C4062 C4063 1.372 . S
C4063 C4062 1.372 . S
C4063 C4064 1.400 . S
C4063 C4068 1.490 . S
C4064 H4054 0.930 . S
C4064 C4063 1.400 . S
C4064 C4067 1.386 . S
H4065 C4081 0.930 . S
H4066 C4082 0.931 . S
C4067 H4055 0.929 . S
C4067 C4061 1.390 . S
C4067 C4064 1.386 . S
C4068 C4063 1.490 . S
C4068 C4070 1.395 . S
C4068 C4071 1.403 . S
H4069 C4075 0.930 . S
C4070 H4056 0.930 . S
C4070 C4068 1.395 . S
C4070 C4073 1.403 . S
C4071 C4068 1.403 . S
C4071 C4072 1.524 . S
C4071 C4075 1.400 . S
C4072 H4057 0.960 . S
C4072 H4058 0.960 . S
C4072 H4059 0.960 . S
C4072 C4071 1.524 . S
C4073 C4070 1.403 . S
C4073 C4074 1.392 . S
C4073 C4077 1.495 . S
C4074 C4073 1.392 . S
C4074 C4075 1.385 . S
C4074 C4076 1.478 . S
C4075 H4069 0.930 . S
C4075 C4071 1.400 . S
C4075 C4074 1.385 . S
C4076 C4074 1.478 . S
C4076 C4078 1.381 . S
C4076 C4082 1.383 . S
C4077 C4073 1.495 . S
C4077 H4083 0.959 . S
C4077 H4084 0.961 . S
C4077 H4085 0.960 . S
C4078 C4076 1.381 . S
C4078 C4079 1.394 . S
C4078 H4086 0.930 . S
C4079 C4078 1.394 . S
C4079 C4080 1.383 . S
C4079 H4087 0.929 . S
C4080 C4079 1.383 . S
C4080 C4081 1.377 . S
C4081 H4065 0.930 . S
C4081 C4080 1.377 . S
C4081 C4082 1.379 . S
C4082 H4066 0.931 . S
C4082 C4076 1.383 . S
C4082 C4081 1.379 . S
H4083 C4077 0.959 . S
H4084 C4077 0.961 . S
H4085 C4077 0.960 . S
H4086 C4078 0.930 . S
H4087 C4079 0.929 . S
H4088 C4096 0.929 . S
H4089 C4098 0.930 . S
H4090 C4100 0.930 . S
H4091 C4103 0.929 . S
H4092 C4106 0.930 . S
H4093 C4108 0.960 . S
H4094 C4108 0.960 . S
H4095 C4108 0.960 . S
C4096 H4088 0.929 . S
C4096 C4097 1.377 . S
C4096 C4098 1.384 . S
C4097 C4096 1.377 . S
C4097 C4103 1.390 . S
C4098 H4089 0.930 . S
C4098 C4096 1.384 . S
C4098 C4099 1.372 . S
C4099 C4098 1.372 . S
C4099 C4100 1.400 . S
C4099 C4104 1.490 . S
C4100 H4090 0.930 . S
C4100 C4099 1.400 . S
C4100 C4103 1.386 . S
H4101 C4117 0.930 . S
H4102 C4118 0.931 . S
C4103 H4091 0.929 . S
C4103 C4097 1.390 . S
C4103 C4100 1.386 . S
C4104 C4099 1.490 . S
C4104 C4106 1.395 . S
C4104 C4107 1.403 . S
H4105 C4111 0.930 . S
C4106 H4092 0.930 . S
C4106 C4104 1.395 . S
C4106 C4109 1.403 . S
C4107 C4104 1.403 . S
C4107 C4108 1.524 . S
C4107 C4111 1.400 . S
C4108 H4093 0.960 . S
C4108 H4094 0.960 . S
C4108 H4095 0.960 . S
C4108 C4107 1.524 . S
C4109 C4106 1.403 . S
C4109 C4110 1.392 . S
C4109 C4113 1.495 . S
C4110 C4109 1.392 . S
C4110 C4111 1.385 . S
C4110 C4112 1.478 . S
C4111 H4105 0.930 . S
C4111 C4107 1.400 . S
C4111 C4110 1.385 . S
C4112 C4110 1.478 . S
C4112 C4114 1.381 . S
C4112 C4118 1.383 . S
C4113 C4109 1.495 . S
C4113 H4119 0.959 . S
C4113 H4120 0.961 . S
C4113 H4121 0.960 . S
C4114 C4112 1.381 . S
C4114 C4115 1.394 . S
C4114 H4122 0.930 . S
C4115 C4114 1.394 . S
C4115 C4116 1.383 . S
C4115 H4123 0.929 . S
C4116 C4115 1.383 . S
C4116 C4117 1.377 . S
C4117 H4101 0.930 . S
C4117 C4116 1.377 . S
C4117 C4118 1.379 . S
C4118 H4102 0.931 . S
C4118 C4112 1.383 . S
C4118 C4117 1.379 . S
H4119 C4113 0.959 . S
H4120 C4113 0.961 . S
H4121 C4113 0.960 . S
H4122 C4114 0.930 . S
H4123 C4115 0.929 . S
H4124 C4132 0.929 . S
H4125 C4134 0.930 . S
H4126 C4136 0.930 . S
H4127 C4139 0.929 . S
H4128 C4142 0.930 . S
H4129 C4144 0.960 . S
H4130 C4144 0.960 . S
H4131 C4144 0.960 . S
C4132 H4124 0.929 . S
C4132 C4133 1.377 . S
C4132 C4134 1.384 . S
C4133 C4132 1.377 . S
C4133 C4139 1.390 . S
C4134 H4125 0.930 . S
C4134 C4132 1.384 . S
C4134 C4135 1.372 . S
C4135 C4134 1.372 . S
C4135 C4136 1.400 . S
C4135 C4140 1.490 . S
C4136 H4126 0.930 . S
C4136 C4135 1.400 . S
C4136 C4139 1.386 . S
H4137 C4153 0.930 . S
H4138 C4154 0.931 . S
C4139 H4127 0.929 . S
C4139 C4133 1.390 . S
C4139 C4136 1.386 . S
C4140 C4135 1.490 . S
C4140 C4142 1.395 . S
C4140 C4143 1.403 . S
H4141 C4147 0.930 . S
C4142 H4128 0.930 . S
C4142 C4140 1.395 . S
C4142 C4145 1.403 . S
C4143 C4140 1.403 . S
C4143 C4144 1.524 . S
C4143 C4147 1.400 . S
C4144 H4129 0.960 . S
C4144 H4130 0.960 . S
C4144 H4131 0.960 . S
C4144 C4143 1.524 . S
C4145 C4142 1.403 . S
C4145 C4146 1.392 . S
C4145 C4149 1.495 . S
C4146 C4145 1.392 . S
C4146 C4147 1.385 . S
C4146 C4148 1.478 . S
C4147 H4141 0.930 . S
C4147 C4143 1.400 . S
C4147 C4146 1.385 . S
C4148 C4146 1.478 . S
C4148 C4150 1.381 . S
C4148 C4154 1.383 . S
C4149 C4145 1.495 . S
C4149 H4155 0.959 . S
C4149 H4156 0.961 . S
C4149 H4157 0.960 . S
C4150 C4148 1.381 . S
C4150 C4151 1.394 . S
C4150 H4158 0.930 . S
C4151 C4150 1.394 . S
C4151 C4152 1.383 . S
C4151 H4159 0.929 . S
C4152 C4151 1.383 . S
C4152 C4153 1.377 . S
C4153 H4137 0.930 . S
C4153 C4152 1.377 . S
C4153 C4154 1.379 . S
C4154 H4138 0.931 . S
C4154 C4148 1.383 . S
C4154 C4153 1.379 . S
H4155 C4149 0.959 . S
H4156 C4149 0.961 . S
H4157 C4149 0.960 . S
H4158 C4150 0.930 . S
H4159 C4151 0.929 . S
H4160 C4168 0.929 . S
H4161 C4170 0.930 . S
H4162 C4172 0.930 . S
H4163 C4175 0.929 . S
H4164 C4178 0.930 . S
H4165 C4180 0.960 . S
H4166 C4180 0.960 . S
H4167 C4180 0.960 . S
C4168 H4160 0.929 . S
C4168 C4169 1.377 . S
C4168 C4170 1.384 . S
C4169 C4168 1.377 . S
C4169 C4175 1.390 . S
C4170 H4161 0.930 . S
C4170 C4168 1.384 . S
C4170 C4171 1.372 . S
C4171 C4170 1.372 . S
C4171 C4172 1.400 . S
C4171 C4176 1.490 . S
C4172 H4162 0.930 . S
C4172 C4171 1.400 . S
C4172 C4175 1.386 . S
H4173 C4189 0.930 . S
H4174 C4190 0.931 . S
C4175 H4163 0.929 . S
C4175 C4169 1.390 . S
C4175 C4172 1.386 . S
C4176 C4171 1.490 . S
C4176 C4178 1.395 . S
C4176 C4179 1.403 . S
H4177 C4183 0.930 . S
C4178 H4164 0.930 . S
C4178 C4176 1.395 . S
C4178 C4181 1.403 1_545 S
C4179 C4176 1.403 . S
C4179 C4180 1.524 . S
C4179 C4183 1.400 1_545 S
C4180 H4165 0.960 . S
C4180 H4166 0.960 . S
C4180 H4167 0.960 . S
C4180 C4179 1.524 . S
C4181 C4178 1.403 1_565 S
C4181 C4182 1.392 . S
C4181 C4185 1.495 . S
C4182 C4181 1.392 . S
C4182 C4183 1.385 . S
C4182 C4184 1.478 . S
C4183 H4177 0.930 . S
C4183 C4179 1.400 1_565 S
C4183 C4182 1.385 . S
C4184 C4182 1.478 . S
C4184 C4186 1.381 . S
C4184 C4190 1.383 . S
C4185 C4181 1.495 . S
C4185 H4191 0.959 . S
C4185 H4192 0.961 . S
C4185 H4193 0.960 . S
C4186 C4184 1.381 . S
C4186 C4187 1.394 . S
C4186 H4194 0.930 . S
C4187 C4186 1.394 . S
C4187 C4188 1.383 . S
C4187 H4195 0.929 . S
C4188 C4187 1.383 . S
C4188 C4189 1.377 . S
C4189 H4173 0.930 . S
C4189 C4188 1.377 . S
C4189 C4190 1.379 . S
C4190 H4174 0.931 . S
C4190 C4184 1.383 . S
C4190 C4189 1.379 . S
H4191 C4185 0.959 . S
H4192 C4185 0.961 . S
H4193 C4185 0.960 . S
H4194 C4186 0.930 . S
H4195 C4187 0.929 . S
H4196 C4204 0.929 . S
H4197 C4206 0.930 . S
H4198 C4208 0.930 . S
H4199 C4211 0.929 . S
H4200 C4214 0.930 . S
H4201 C4216 0.960 . S
H4202 C4216 0.960 . S
H4203 C4216 0.960 . S
C4204 H4196 0.929 . S
C4204 C4205 1.377 . S
C4204 C4206 1.384 . S
C4205 C4204 1.377 . S
C4205 C4211 1.390 . S
C4206 H4197 0.930 . S
C4206 C4204 1.384 . S
C4206 C4207 1.372 . S
C4207 C4206 1.372 . S
C4207 C4208 1.400 . S
C4207 C4212 1.490 . S
C4208 H4198 0.930 . S
C4208 C4207 1.400 . S
C4208 C4211 1.386 . S
H4209 C4225 0.930 . S
H4210 C4226 0.931 . S
C4211 H4199 0.929 . S
C4211 C4205 1.390 . S
C4211 C4208 1.386 . S
C4212 C4207 1.490 . S
C4212 C4214 1.395 . S
C4212 C4215 1.403 . S
H4213 C4219 0.930 . S
C4214 H4200 0.930 . S
C4214 C4212 1.395 . S
C4214 C4217 1.403 . S
C4215 C4212 1.403 . S
C4215 C4216 1.524 . S
C4215 C4219 1.400 . S
C4216 H4201 0.960 . S
C4216 H4202 0.960 . S
C4216 H4203 0.960 . S
C4216 C4215 1.524 . S
C4217 C4214 1.403 . S
C4217 C4218 1.392 . S
C4217 C4221 1.495 . S
C4218 C4217 1.392 . S
C4218 C4219 1.385 . S
C4218 C4220 1.478 . S
C4219 H4213 0.930 . S
C4219 C4215 1.400 . S
C4219 C4218 1.385 . S
C4220 C4218 1.478 . S
C4220 C4222 1.381 . S
C4220 C4226 1.383 . S
C4221 C4217 1.495 . S
C4221 H4227 0.959 . S
C4221 H4228 0.961 . S
C4221 H4229 0.960 . S
C4222 C4220 1.381 . S
C4222 C4223 1.394 . S
C4222 H4230 0.930 . S
C4223 C4222 1.394 . S
C4223 C4224 1.383 . S
C4223 H4231 0.929 . S
C4224 C4223 1.383 . S
C4224 C4225 1.377 . S
C4225 H4209 0.930 . S
C4225 C4224 1.377 . S
C4225 C4226 1.379 . S
C4226 H4210 0.931 . S
C4226 C4220 1.383 . S
C4226 C4225 1.379 . S
H4227 C4221 0.959 . S
H4228 C4221 0.961 . S
H4229 C4221 0.960 . S
H4230 C4222 0.930 . S
H4231 C4223 0.929 . S
H4232 C4240 0.929 . S
H4233 C4242 0.930 . S
H4234 C4244 0.930 . S
H4235 C4247 0.929 . S
H4236 C4250 0.930 . S
H4237 C4252 0.960 . S
H4238 C4252 0.960 . S
H4239 C4252 0.960 1_545 S
C4240 H4232 0.929 . S
C4240 C4241 1.377 . S
C4240 C4242 1.384 . S
C4241 C4240 1.377 . S
C4241 C4247 1.390 . S
C4242 H4233 0.930 . S
C4242 C4240 1.384 . S
C4242 C4243 1.372 . S
C4243 C4242 1.372 . S
C4243 C4244 1.400 . S
C4243 C4248 1.490 . S
C4244 H4234 0.930 . S
C4244 C4243 1.400 . S
C4244 C4247 1.386 . S
H4245 C4261 0.930 . S
H4246 C4262 0.931 . S
C4247 H4235 0.929 . S
C4247 C4241 1.390 . S
C4247 C4244 1.386 . S
C4248 C4243 1.490 . S
C4248 C4250 1.395 . S
C4248 C4251 1.403 1_545 S
H4249 C4255 0.930 . S
C4250 H4236 0.930 . S
C4250 C4248 1.395 . S
C4250 C4253 1.403 . S
C4251 C4248 1.403 1_565 S
C4251 C4252 1.524 . S
C4251 C4255 1.400 . S
C4252 H4237 0.960 . S
C4252 H4238 0.960 . S
C4252 H4239 0.960 1_565 S
C4252 C4251 1.524 . S
C4253 C4250 1.403 . S
C4253 C4254 1.392 1_545 S
C4253 C4257 1.495 . S
C4254 C4253 1.392 1_565 S
C4254 C4255 1.385 . S
C4254 C4256 1.478 . S
C4255 H4249 0.930 . S
C4255 C4251 1.400 . S
C4255 C4254 1.385 . S
C4256 C4254 1.478 . S
C4256 C4258 1.381 . S
C4256 C4262 1.383 . S
C4257 C4253 1.495 . S
C4257 H4263 0.959 . S
C4257 H4264 0.961 . S
C4257 H4265 0.960 1_545 S
C4258 C4256 1.381 . S
C4258 C4259 1.394 . S
C4258 H4266 0.930 . S
C4259 C4258 1.394 . S
C4259 C4260 1.383 . S
C4259 H4267 0.929 . S
C4260 C4259 1.383 . S
C4260 C4261 1.377 . S
C4261 H4245 0.930 . S
C4261 C4260 1.377 . S
C4261 C4262 1.379 . S
C4262 H4246 0.931 . S
C4262 C4256 1.383 . S
C4262 C4261 1.379 . S
H4263 C4257 0.959 . S
H4264 C4257 0.961 . S
H4265 C4257 0.960 1_565 S
H4266 C4258 0.930 . S
H4267 C4259 0.929 . S
H4268 C4276 0.929 . S
H4269 C4278 0.930 . S
H4270 C4280 0.930 . S
H4271 C4283 0.929 . S
H4272 C4286 0.930 . S
H4273 C4288 0.960 . S
H4274 C4288 0.960 . S
H4275 C4288 0.960 . S
C4276 H4268 0.929 . S
C4276 C4277 1.377 . S
C4276 C4278 1.384 . S
C4277 C4276 1.377 . S
C4277 C4283 1.390 . S
C4278 H4269 0.930 . S
C4278 C4276 1.384 . S
C4278 C4279 1.372 . S
C4279 C4278 1.372 . S
C4279 C4280 1.400 . S
C4279 C4284 1.490 . S
C4280 H4270 0.930 . S
C4280 C4279 1.400 . S
C4280 C4283 1.386 . S
H4281 C4297 0.930 . S
H4282 C4298 0.931 . S
C4283 H4271 0.929 . S
C4283 C4277 1.390 . S
C4283 C4280 1.386 . S
C4284 C4279 1.490 . S
C4284 C4286 1.395 1_556 S
C4284 C4287 1.403 . S
H4285 C4291 0.930 . S
C4286 H4272 0.930 . S
C4286 C4284 1.395 1_554 S
C4286 C4289 1.403 . S
C4287 C4284 1.403 . S
C4287 C4288 1.524 . S
C4287 C4291 1.400 . S
C4288 H4273 0.960 . S
C4288 H4274 0.960 . S
C4288 H4275 0.960 . S
C4288 C4287 1.524 . S
C4289 C4286 1.403 . S
C4289 C4290 1.392 . S
C4289 C4293 1.495 . S
C4290 C4289 1.392 . S
C4290 C4291 1.385 1_554 S
C4290 C4292 1.478 . S
C4291 H4285 0.930 . S
C4291 C4287 1.400 . S
C4291 C4290 1.385 1_556 S
C4292 C4290 1.478 . S
C4292 C4294 1.381 . S
C4292 C4298 1.383 . S
C4293 C4289 1.495 . S
C4293 H4299 0.959 . S
C4293 H4300 0.961 . S
C4293 H4301 0.960 . S
C4294 C4292 1.381 . S
C4294 C4295 1.394 . S
C4294 H4302 0.930 . S
C4295 C4294 1.394 . S
C4295 C4296 1.383 . S
C4295 H4303 0.929 . S
C4296 C4295 1.383 . S
C4296 C4297 1.377 . S
C4297 H4281 0.930 . S
C4297 C4296 1.377 . S
C4297 C4298 1.379 . S
C4298 H4282 0.931 . S
C4298 C4292 1.383 . S
C4298 C4297 1.379 . S
H4299 C4293 0.959 . S
H4300 C4293 0.961 . S
H4301 C4293 0.960 . S
H4302 C4294 0.930 . S
H4303 C4295 0.929 . S
H4304 C4312 0.929 . S
H4305 C4314 0.930 . S
H4306 C4316 0.930 . S
H4307 C4319 0.929 . S
H4308 C4322 0.930 . S
H4309 C4324 0.960 . S
H4310 C4324 0.960 . S
H4311 C4324 0.960 . S
C4312 H4304 0.929 . S
C4312 C4313 1.377 . S
C4312 C4314 1.384 . S
C4313 C4312 1.377 . S
C4313 C4319 1.390 . S
C4314 H4305 0.930 . S
C4314 C4312 1.384 . S
C4314 C4315 1.372 . S
C4315 C4314 1.372 . S
C4315 C4316 1.400 . S
C4315 C4320 1.490 . S
C4316 H4306 0.930 . S
C4316 C4315 1.400 . S
C4316 C4319 1.386 . S
H4317 C4333 0.930 . S
H4318 C4334 0.931 . S
C4319 H4307 0.929 . S
C4319 C4313 1.390 . S
C4319 C4316 1.386 . S
C4320 C4315 1.490 . S
C4320 C4322 1.395 . S
C4320 C4323 1.403 . S
H4321 C4327 0.930 . S
C4322 H4308 0.930 . S
C4322 C4320 1.395 . S
C4322 C4325 1.403 1_565 S
C4323 C4320 1.403 . S
C4323 C4324 1.524 . S
C4323 C4327 1.400 1_565 S
C4324 H4309 0.960 . S
C4324 H4310 0.960 . S
C4324 H4311 0.960 . S
C4324 C4323 1.524 . S
C4325 C4322 1.403 1_545 S
C4325 C4326 1.392 . S
C4325 C4329 1.495 . S
C4326 C4325 1.392 . S
C4326 C4327 1.385 . S
C4326 C4328 1.478 . S
C4327 H4321 0.930 . S
C4327 C4323 1.400 1_545 S
C4327 C4326 1.385 . S
C4328 C4326 1.478 . S
C4328 C4330 1.381 . S
C4328 C4334 1.383 . S
C4329 C4325 1.495 . S
C4329 H4335 0.959 . S
C4329 H4336 0.961 . S
C4329 H4337 0.960 . S
C4330 C4328 1.381 . S
C4330 C4331 1.394 . S
C4330 H4338 0.930 . S
C4331 C4330 1.394 . S
C4331 C4332 1.383 . S
C4331 H4339 0.929 . S
C4332 C4331 1.383 . S
C4332 C4333 1.377 . S
C4333 H4317 0.930 . S
C4333 C4332 1.377 . S
C4333 C4334 1.379 . S
C4334 H4318 0.931 . S
C4334 C4328 1.383 . S
C4334 C4333 1.379 . S
H4335 C4329 0.959 . S
H4336 C4329 0.961 . S
H4337 C4329 0.960 . S
H4338 C4330 0.930 . S
H4339 C4331 0.929 . S
H4340 C4348 0.929 . S
H4341 C4350 0.930 . S
H4342 C4352 0.930 . S
H4343 C4355 0.929 . S
H4344 C4358 0.930 . S
H4345 C4360 0.960 1_565 S
H4346 C4360 0.960 1_565 S
H4347 C4360 0.960 . S
C4348 H4340 0.929 . S
C4348 C4349 1.377 . S
C4348 C4350 1.384 . S
C4349 C4348 1.377 . S
C4349 C4355 1.390 . S
C4350 H4341 0.930 . S
C4350 C4348 1.384 . S
C4350 C4351 1.372 . S
C4351 C4350 1.372 . S
C4351 C4352 1.400 . S
C4351 C4356 1.490 . S
C4352 H4342 0.930 . S
C4352 C4351 1.400 . S
C4352 C4355 1.386 . S
H4353 C4369 0.930 . S
H4354 C4370 0.931 . S
C4355 H4343 0.929 . S
C4355 C4349 1.390 . S
C4355 C4352 1.386 . S
C4356 C4351 1.490 . S
C4356 C4358 1.395 . S
C4356 C4359 1.403 . S
H4357 C4363 0.930 . S
C4358 H4344 0.930 . S
C4358 C4356 1.395 . S
C4358 C4361 1.403 . S
C4359 C4356 1.403 . S
C4359 C4360 1.524 . S
C4359 C4363 1.400 . S
C4360 H4345 0.960 1_545 S
C4360 H4346 0.960 1_545 S
C4360 H4347 0.960 . S
C4360 C4359 1.524 . S
C4361 C4358 1.403 . S
C4361 C4362 1.392 . S
C4361 C4365 1.495 . S
C4362 C4361 1.392 . S
C4362 C4363 1.385 . S
C4362 C4364 1.478 . S
C4363 H4357 0.930 . S
C4363 C4359 1.400 . S
C4363 C4362 1.385 . S
C4364 C4362 1.478 . S
C4364 C4366 1.381 . S
C4364 C4370 1.383 . S
C4365 C4361 1.495 . S
C4365 H4371 0.959 . S
C4365 H4372 0.961 . S
C4365 H4373 0.960 . S
C4366 C4364 1.381 . S
C4366 C4367 1.394 . S
C4366 H4374 0.930 . S
C4367 C4366 1.394 . S
C4367 C4368 1.383 . S
C4367 H4375 0.929 . S
C4368 C4367 1.383 . S
C4368 C4369 1.377 . S
C4369 H4353 0.930 . S
C4369 C4368 1.377 . S
C4369 C4370 1.379 . S
C4370 H4354 0.931 . S
C4370 C4364 1.383 . S
C4370 C4369 1.379 . S
H4371 C4365 0.959 . S
H4372 C4365 0.961 . S
H4373 C4365 0.960 . S
H4374 C4366 0.930 . S
H4375 C4367 0.929 . S
H4376 C4384 0.929 . S
H4377 C4386 0.930 . S
H4378 C4388 0.930 . S
H4379 C4391 0.929 . S
H4380 C4394 0.930 . S
H4381 C4396 0.960 . S
H4382 C4396 0.958 1_565 S
H4383 C4396 0.960 . S
C4384 H4376 0.929 . S
C4384 C4385 1.377 . S
C4384 C4386 1.384 . S
C4385 C4384 1.377 . S
C4385 C4391 1.390 . S
C4386 H4377 0.930 . S
C4386 C4384 1.384 . S
C4386 C4387 1.372 . S
C4387 C4386 1.372 . S
C4387 C4388 1.400 . S
C4387 C4392 1.490 . S
C4388 H4378 0.930 . S
C4388 C4387 1.400 . S
C4388 C4391 1.386 . S
H4389 C4405 0.930 . S
H4390 C4406 0.931 . S
C4391 H4379 0.929 . S
C4391 C4385 1.390 . S
C4391 C4388 1.386 . S
C4392 C4387 1.490 . S
C4392 C4394 1.395 . S
C4392 C4395 1.403 1_565 S
H4393 C4399 0.930 . S
C4394 H4380 0.930 . S
C4394 C4392 1.395 . S
C4394 C4397 1.403 . S
C4395 C4392 1.403 1_545 S
C4395 C4396 1.524 . S
C4395 C4399 1.400 . S
C4396 H4381 0.960 . S
C4396 H4382 0.958 1_545 S
C4396 H4383 0.960 . S
C4396 C4395 1.524 . S
C4397 C4394 1.403 . S
C4397 C4398 1.392 1_565 S
C4397 C4401 1.495 . S
C4398 C4397 1.392 1_545 S
C4398 C4399 1.385 . S
C4398 C4400 1.478 . S
C4399 H4393 0.930 . S
C4399 C4395 1.400 . S
C4399 C4398 1.385 . S
C4400 C4398 1.478 . S
C4400 C4402 1.381 . S
C4400 C4406 1.383 . S
C4401 C4397 1.495 . S
C4401 H4407 0.959 . S
C4401 H4408 0.961 . S
C4401 H4409 0.960 . S
C4402 C4400 1.381 . S
C4402 C4403 1.394 . S
C4402 H4410 0.930 . S
C4403 C4402 1.394 . S
C4403 C4404 1.383 . S
C4403 H4411 0.929 . S
C4404 C4403 1.383 . S
C4404 C4405 1.377 . S
C4405 H4389 0.930 . S
C4405 C4404 1.377 . S
C4405 C4406 1.379 . S
C4406 H4390 0.931 . S
C4406 C4400 1.383 . S
C4406 C4405 1.379 . S
H4407 C4401 0.959 . S
H4408 C4401 0.961 . S
H4409 C4401 0.960 . S
H4410 C4402 0.930 . S
H4411 C4403 0.929 . S
H4412 C4420 0.963 . S
H4413 C4422 0.939 . S
H4414 C4424 0.930 . S
H4415 C4427 0.929 . S
H4416 C4430 0.930 . S
H4417 C4432 0.960 . S
H4418 C4432 0.960 . S
H4419 C4432 0.960 . S
C4420 H4412 0.963 . S
C4420 C4421 1.377 . S
C4420 C4422 1.384 . S
C4421 C4420 1.377 . S
C4421 C4427 1.390 . S
C4422 H4413 0.939 . S
C4422 C4420 1.384 . S
C4422 C4423 1.372 . S
C4423 C4422 1.372 . S
C4423 C4424 1.400 . S
C4423 C4428 1.490 . S
C4424 H4414 0.930 . S
C4424 C4423 1.400 . S
C4424 C4427 1.386 . S
H4425 C4441 0.930 . S
H4426 C4442 0.931 . S
C4427 H4415 0.929 . S
C4427 C4421 1.390 . S
C4427 C4424 1.386 . S
C4428 C4423 1.490 . S
C4428 C4430 1.395 1_554 S
C4428 C4431 1.403 . S
H4429 C4435 0.930 . S
C4430 H4416 0.930 . S
C4430 C4428 1.395 1_556 S
C4430 C4433 1.403 . S
C4431 C4428 1.403 . S
C4431 C4432 1.524 . S
C4431 C4435 1.400 . S
C4432 H4417 0.960 . S
C4432 H4418 0.960 . S
C4432 H4419 0.960 . S
C4432 C4431 1.524 . S
C4433 C4430 1.403 . S
C4433 C4434 1.392 . S
C4433 C4437 1.495 . S
C4434 C4433 1.392 . S
C4434 C4435 1.385 1_556 S
C4434 C4436 1.478 . S
C4435 H4429 0.930 . S
C4435 C4431 1.400 . S
C4435 C4434 1.385 1_554 S
C4436 C4434 1.478 . S
C4436 C4438 1.381 . S
C4436 C4442 1.383 . S
C4437 C4433 1.495 . S
C4437 H4443 0.959 . S
C4437 H4444 0.961 . S
C4437 H4445 0.960 . S
C4438 C4436 1.381 . S
C4438 C4439 1.394 . S
C4438 H4446 0.911 1_565 S
C4439 C4438 1.394 . S
C4439 C4440 1.383 . S
C4439 H4447 0.921 1_565 S
C4440 C4439 1.383 . S
C4440 C4441 1.377 . S
C4441 H4425 0.930 . S
C4441 C4440 1.377 . S
C4441 C4442 1.379 . S
C4442 H4426 0.931 . S
C4442 C4436 1.383 . S
C4442 C4441 1.379 . S
H4443 C4437 0.959 . S
H4444 C4437 0.961 . S
H4445 C4437 0.960 . S
H4446 C4438 0.911 1_545 S
H4447 C4439 0.921 1_545 S
H4448 C4456 0.929 . S
H4449 C4458 0.930 . S
H4450 C4460 0.930 . S
H4451 C4463 0.929 . S
H4452 C4466 0.930 . S
H4453 C4468 0.960 . S
H4454 C4468 0.960 . S
H4455 C4468 0.960 . S
C4456 H4448 0.929 . S
C4456 C4457 1.377 . S
C4456 C4458 1.384 . S
C4457 C4456 1.377 . S
C4457 C4463 1.390 . S
C4458 H4449 0.930 . S
C4458 C4456 1.384 . S
C4458 C4459 1.372 . S
C4459 C4458 1.372 . S
C4459 C4460 1.400 . S
C4459 C4464 1.490 . S
C4460 H4450 0.930 . S
C4460 C4459 1.400 . S
C4460 C4463 1.386 . S
H4461 C4477 0.930 . S
H4462 C4478 0.931 . S
C4463 H4451 0.929 . S
C4463 C4457 1.390 . S
C4463 C4460 1.386 . S
C4464 C4459 1.490 . S
C4464 C4466 1.395 . S
C4464 C4467 1.403 . S
H4465 C4471 0.930 . S
C4466 H4452 0.930 . S
C4466 C4464 1.395 . S
C4466 C4469 1.403 . S
C4467 C4464 1.403 . S
C4467 C4468 1.524 . S
C4467 C4471 1.400 . S
C4468 H4453 0.960 . S
C4468 H4454 0.960 . S
C4468 H4455 0.960 . S
C4468 C4467 1.524 . S
C4469 C4466 1.403 . S
C4469 C4470 1.392 . S
C4469 C4473 1.495 . S
C4470 C4469 1.392 . S
C4470 C4471 1.385 . S
C4470 C4472 1.478 . S
C4471 H4465 0.930 . S
C4471 C4467 1.400 . S
C4471 C4470 1.385 . S
C4472 C4470 1.478 . S
C4472 C4474 1.381 . S
C4472 C4478 1.383 . S
C4473 C4469 1.495 . S
C4473 H4479 0.959 . S
C4473 H4480 0.961 . S
C4473 H4481 0.960 . S
C4474 C4472 1.381 . S
C4474 C4475 1.394 . S
C4474 H4482 0.930 . S
C4475 C4474 1.394 . S
C4475 C4476 1.383 . S
C4475 H4483 0.929 . S
C4476 C4475 1.383 . S
C4476 C4477 1.377 . S
C4477 H4461 0.930 . S
C4477 C4476 1.377 . S
C4477 C4478 1.379 . S
C4478 H4462 0.931 . S
C4478 C4472 1.383 . S
C4478 C4477 1.379 . S
H4479 C4473 0.959 . S
H4480 C4473 0.961 . S
H4481 C4473 0.960 . S
H4482 C4474 0.930 . S
H4483 C4475 0.929 . S
H4484 C4492 0.929 . S
H4485 C4494 0.930 . S
H4486 C4496 0.930 . S
H4487 C4499 0.929 . S
H4488 C4502 0.930 . S
H4489 C4504 0.960 . S
H4490 C4504 0.960 . S
H4491 C4504 0.960 . S
C4492 H4484 0.929 . S
C4492 C4493 1.377 . S
C4492 C4494 1.384 . S
C4493 C4492 1.377 . S
C4493 C4499 1.390 . S
C4494 H4485 0.930 . S
C4494 C4492 1.384 . S
C4494 C4495 1.372 . S
C4495 C4494 1.372 . S
C4495 C4496 1.400 . S
C4495 C4500 1.490 . S
C4496 H4486 0.930 . S
C4496 C4495 1.400 . S
C4496 C4499 1.386 . S
H4497 C4513 0.930 . S
H4498 C4514 0.931 . S
C4499 H4487 0.929 . S
C4499 C4493 1.390 . S
C4499 C4496 1.386 . S
C4500 C4495 1.490 . S
C4500 C4502 1.395 1_556 S
C4500 C4503 1.403 . S
H4501 C4507 0.930 . S
C4502 H4488 0.930 . S
C4502 C4500 1.395 1_554 S
C4502 C4505 1.403 . S
C4503 C4500 1.403 . S
C4503 C4504 1.524 . S
C4503 C4507 1.400 . S
C4504 H4489 0.960 . S
C4504 H4490 0.960 . S
C4504 H4491 0.960 . S
C4504 C4503 1.524 . S
C4505 C4502 1.403 . S
C4505 C4506 1.392 . S
C4505 C4509 1.495 . S
C4506 C4505 1.392 . S
C4506 C4507 1.385 1_554 S
C4506 C4508 1.478 . S
C4507 H4501 0.930 . S
C4507 C4503 1.400 . S
C4507 C4506 1.385 1_556 S
C4508 C4506 1.478 . S
C4508 C4510 1.381 . S
C4508 C4514 1.383 . S
C4509 C4505 1.495 . S
C4509 H4515 0.959 . S
C4509 H4516 0.961 . S
C4509 H4517 0.960 . S
C4510 C4508 1.381 . S
C4510 C4511 1.394 . S
C4510 H4518 0.930 . S
C4511 C4510 1.394 . S
C4511 C4512 1.383 . S
C4511 H4519 0.929 . S
C4512 C4511 1.383 . S
C4512 C4513 1.377 . S
C4513 H4497 0.930 . S
C4513 C4512 1.377 . S
C4513 C4514 1.379 . S
C4514 H4498 0.931 . S
C4514 C4508 1.383 . S
C4514 C4513 1.379 . S
H4515 C4509 0.959 . S
H4516 C4509 0.961 . S
H4517 C4509 0.960 . S
H4518 C4510 0.930 . S
H4519 C4511 0.929 . S
H4520 C4528 0.929 . S
H4521 C4530 0.930 . S
H4522 C4532 0.930 . S
H4523 C4535 0.929 . S
H4524 C4538 0.930 . S
H4525 C4540 0.960 . S
H4526 C4540 0.960 . S
H4527 C4540 0.960 . S
C4528 H4520 0.929 . S
C4528 C4529 1.377 . S
C4528 C4530 1.384 . S
C4529 C4528 1.377 . S
C4529 C4535 1.390 . S
C4530 H4521 0.930 . S
C4530 C4528 1.384 . S
C4530 C4531 1.372 . S
C4531 C4530 1.372 . S
C4531 C4532 1.400 . S
C4531 C4536 1.490 . S
C4532 H4522 0.930 . S
C4532 C4531 1.400 . S
C4532 C4535 1.386 . S
H4533 C4549 0.930 . S
H4534 C4550 0.931 . S
C4535 H4523 0.929 . S
C4535 C4529 1.390 . S
C4535 C4532 1.386 . S
C4536 C4531 1.490 . S
C4536 C4538 1.395 . S
C4536 C4539 1.403 . S
H4537 C4543 0.930 . S
C4538 H4524 0.930 . S
C4538 C4536 1.395 . S
C4538 C4541 1.403 . S
C4539 C4536 1.403 . S
C4539 C4540 1.524 . S
C4539 C4543 1.400 . S
C4540 H4525 0.960 . S
C4540 H4526 0.960 . S
C4540 H4527 0.960 . S
C4540 C4539 1.524 . S
C4541 C4538 1.403 . S
C4541 C4542 1.392 . S
C4541 C4545 1.495 . S
C4542 C4541 1.392 . S
C4542 C4543 1.385 . S
C4542 C4544 1.478 . S
C4543 H4537 0.930 . S
C4543 C4539 1.400 . S
C4543 C4542 1.385 . S
C4544 C4542 1.478 . S
C4544 C4546 1.381 . S
C4544 C4550 1.383 . S
C4545 C4541 1.495 . S
C4545 H4551 0.959 . S
C4545 H4552 0.961 . S
C4545 H4553 0.960 . S
C4546 C4544 1.381 . S
C4546 C4547 1.394 . S
C4546 H4554 0.930 . S
C4547 C4546 1.394 . S
C4547 C4548 1.383 . S
C4547 H4555 0.929 . S
C4548 C4547 1.383 . S
C4548 C4549 1.377 . S
C4549 H4533 0.930 . S
C4549 C4548 1.377 . S
C4549 C4550 1.379 . S
C4550 H4534 0.931 . S
C4550 C4544 1.383 . S
C4550 C4549 1.379 . S
H4551 C4545 0.959 . S
H4552 C4545 0.961 . S
H4553 C4545 0.960 . S
H4554 C4546 0.930 . S
H4555 C4547 0.929 . S
H4556 C4564 0.929 . S
H4557 C4566 0.930 . S
H4558 C4568 0.930 . S
H4559 C4571 0.929 . S
H4560 C4574 0.930 . S
H4561 C4576 0.960 . S
H4562 C4576 0.960 . S
H4563 C4576 0.960 . S
C4564 H4556 0.929 . S
C4564 C4565 1.377 . S
C4564 C4566 1.384 . S
C4565 C4564 1.377 . S
C4565 C4571 1.390 . S
C4566 H4557 0.930 . S
C4566 C4564 1.384 . S
C4566 C4567 1.372 . S
C4567 C4566 1.372 . S
C4567 C4568 1.400 . S
C4567 C4572 1.490 . S
C4568 H4558 0.930 . S
C4568 C4567 1.400 . S
C4568 C4571 1.386 . S
H4569 C4585 0.930 . S
H4570 C4586 0.931 . S
C4571 H4559 0.929 . S
C4571 C4565 1.390 . S
C4571 C4568 1.386 . S
C4572 C4567 1.490 . S
C4572 C4574 1.395 . S
C4572 C4575 1.403 . S
H4573 C4579 0.930 . S
C4574 H4560 0.930 . S
C4574 C4572 1.395 . S
C4574 C4577 1.403 . S
C4575 C4572 1.403 . S
C4575 C4576 1.524 . S
C4575 C4579 1.400 . S
C4576 H4561 0.960 . S
C4576 H4562 0.960 . S
C4576 H4563 0.960 . S
C4576 C4575 1.524 . S
C4577 C4574 1.403 . S
C4577 C4578 1.392 . S
C4577 C4581 1.495 . S
C4578 C4577 1.392 . S
C4578 C4579 1.385 . S
C4578 C4580 1.478 . S
C4579 H4573 0.930 . S
C4579 C4575 1.400 . S
C4579 C4578 1.385 . S
C4580 C4578 1.478 . S
C4580 C4582 1.381 . S
C4580 C4586 1.383 . S
C4581 C4577 1.495 . S
C4581 H4587 0.959 . S
C4581 H4588 0.961 . S
C4581 H4589 0.960 . S
C4582 C4580 1.381 . S
C4582 C4583 1.394 . S
C4582 H4590 0.930 . S
C4583 C4582 1.394 . S
C4583 C4584 1.383 . S
C4583 H4591 0.929 . S
C4584 C4583 1.383 . S
C4584 C4585 1.377 . S
C4585 H4569 0.930 . S
C4585 C4584 1.377 . S
C4585 C4586 1.379 . S
C4586 H4570 0.931 . S
C4586 C4580 1.383 . S
C4586 C4585 1.379 . S
H4587 C4581 0.959 . S
H4588 C4581 0.961 . S
H4589 C4581 0.960 . S
H4590 C4582 0.930 . S
H4591 C4583 0.929 . S
H4592 C4600 0.929 . S
H4593 C4602 0.930 . S
H4594 C4604 0.930 . S
H4595 C4607 0.929 . S
H4596 C4610 0.930 . S
H4597 C4612 0.960 . S
H4598 C4612 0.960 . S
H4599 C4612 0.960 . S
C4600 H4592 0.929 . S
C4600 C4601 1.377 . S
C4600 C4602 1.384 . S
C4601 C4600 1.377 . S
C4601 C4607 1.390 . S
C4602 H4593 0.930 . S
C4602 C4600 1.384 . S
C4602 C4603 1.372 . S
C4603 C4602 1.372 . S
C4603 C4604 1.400 . S
C4603 C4608 1.490 . S
C4604 H4594 0.930 . S
C4604 C4603 1.400 . S
C4604 C4607 1.386 . S
H4605 C4621 0.930 . S
H4606 C4622 0.931 . S
C4607 H4595 0.929 . S
C4607 C4601 1.390 . S
C4607 C4604 1.386 . S
C4608 C4603 1.490 . S
C4608 C4610 1.395 . S
C4608 C4611 1.403 . S
H4609 C4615 0.930 . S
C4610 H4596 0.930 . S
C4610 C4608 1.395 . S
C4610 C4613 1.403 . S
C4611 C4608 1.403 . S
C4611 C4612 1.524 . S
C4611 C4615 1.400 . S
C4612 H4597 0.960 . S
C4612 H4598 0.960 . S
C4612 H4599 0.960 . S
C4612 C4611 1.524 . S
C4613 C4610 1.403 . S
C4613 C4614 1.392 . S
C4613 C4617 1.495 . S
C4614 C4613 1.392 . S
C4614 C4615 1.385 . S
C4614 C4616 1.478 . S
C4615 H4609 0.930 . S
C4615 C4611 1.400 . S
C4615 C4614 1.385 . S
C4616 C4614 1.478 . S
C4616 C4618 1.381 . S
C4616 C4622 1.383 . S
C4617 C4613 1.495 . S
C4617 H4623 0.959 . S
C4617 H4624 0.961 . S
C4617 H4625 0.960 . S
C4618 C4616 1.381 . S
C4618 C4619 1.394 . S
C4618 H4626 0.930 . S
C4619 C4618 1.394 . S
C4619 C4620 1.383 . S
C4619 H4627 0.929 . S
C4620 C4619 1.383 . S
C4620 C4621 1.377 . S
C4621 H4605 0.930 . S
C4621 C4620 1.377 . S
C4621 C4622 1.379 . S
C4622 H4606 0.931 . S
C4622 C4616 1.383 . S
C4622 C4621 1.379 . S
H4623 C4617 0.959 . S
H4624 C4617 0.961 . S
H4625 C4617 0.960 . S
H4626 C4618 0.930 . S
H4627 C4619 0.929 . S
H4628 C4636 0.929 . S
H4629 C4638 0.930 . S
H4630 C4640 0.930 . S
H4631 C4643 0.929 . S
H4632 C4646 0.930 . S
H4633 C4648 0.960 . S
H4634 C4648 0.960 . S
H4635 C4648 0.960 . S
C4636 H4628 0.929 . S
C4636 C4637 1.377 . S
C4636 C4638 1.384 . S
C4637 C4636 1.377 . S
C4637 C4643 1.390 . S
C4638 H4629 0.930 . S
C4638 C4636 1.384 . S
C4638 C4639 1.372 . S
C4639 C4638 1.372 . S
C4639 C4640 1.400 . S
C4639 C4644 1.490 . S
C4640 H4630 0.930 . S
C4640 C4639 1.400 . S
C4640 C4643 1.386 . S
H4641 C4657 0.930 . S
H4642 C4658 0.931 . S
C4643 H4631 0.929 . S
C4643 C4637 1.390 . S
C4643 C4640 1.386 . S
C4644 C4639 1.490 . S
C4644 C4646 1.395 . S
C4644 C4647 1.403 1_556 S
H4645 C4651 0.930 . S
C4646 H4632 0.930 . S
C4646 C4644 1.395 . S
C4646 C4649 1.403 . S
C4647 C4644 1.403 1_554 S
C4647 C4648 1.524 . S
C4647 C4651 1.400 . S
C4648 H4633 0.960 . S
C4648 H4634 0.960 . S
C4648 H4635 0.960 . S
C4648 C4647 1.524 . S
C4649 C4646 1.403 . S
C4649 C4650 1.392 1_556 S
C4649 C4653 1.495 . S
C4650 C4649 1.392 1_554 S
C4650 C4651 1.385 . S
C4650 C4652 1.478 . S
C4651 H4645 0.930 . S
C4651 C4647 1.400 . S
C4651 C4650 1.385 . S
C4652 C4650 1.478 . S
C4652 C4654 1.381 . S
C4652 C4658 1.383 . S
C4653 C4649 1.495 . S
C4653 H4659 0.959 . S
C4653 H4660 0.961 . S
C4653 H4661 0.960 . S
C4654 C4652 1.381 . S
C4654 C4655 1.394 . S
C4654 H4662 0.930 . S
C4655 C4654 1.394 . S
C4655 C4656 1.383 . S
C4655 H4663 0.929 . S
C4656 C4655 1.383 . S
C4656 C4657 1.377 . S
C4657 H4641 0.930 . S
C4657 C4656 1.377 . S
C4657 C4658 1.379 . S
C4658 H4642 0.931 . S
C4658 C4652 1.383 . S
C4658 C4657 1.379 . S
H4659 C4653 0.959 . S
H4660 C4653 0.961 . S
H4661 C4653 0.960 . S
H4662 C4654 0.930 . S
H4663 C4655 0.929 . S
H4664 C4672 0.929 . S
H4665 C4674 0.930 . S
H4666 C4676 0.930 . S
H4667 C4679 0.929 . S
H4668 C4682 0.930 . S
H4669 C4684 0.960 . S
H4670 C4684 0.960 . S
H4671 C4684 0.960 . S
C4672 H4664 0.929 . S
C4672 C4673 1.377 . S
C4672 C4674 1.384 . S
C4673 C4672 1.377 . S
C4673 C4679 1.390 . S
C4674 H4665 0.930 . S
C4674 C4672 1.384 . S
C4674 C4675 1.372 . S
C4675 C4674 1.372 . S
C4675 C4676 1.400 . S
C4675 C4680 1.490 . S
C4676 H4666 0.930 . S
C4676 C4675 1.400 . S
C4676 C4679 1.386 . S
H4677 C4693 0.930 . S
H4678 C4694 0.931 . S
C4679 H4667 0.929 . S
C4679 C4673 1.390 . S
C4679 C4676 1.386 . S
C4680 C4675 1.490 . S
C4680 C4682 1.395 . S
C4680 C4683 1.403 . S
H4681 C4687 0.930 . S
C4682 H4668 0.930 . S
C4682 C4680 1.395 . S
C4682 C4685 1.403 . S
C4683 C4680 1.403 . S
C4683 C4684 1.524 . S
C4683 C4687 1.400 . S
C4684 H4669 0.960 . S
C4684 H4670 0.960 . S
C4684 H4671 0.960 . S
C4684 C4683 1.524 . S
C4685 C4682 1.403 . S
C4685 C4686 1.392 . S
C4685 C4689 1.495 . S
C4686 C4685 1.392 . S
C4686 C4687 1.385 . S
C4686 C4688 1.478 . S
C4687 H4681 0.930 . S
C4687 C4683 1.400 . S
C4687 C4686 1.385 . S
C4688 C4686 1.478 . S
C4688 C4690 1.381 . S
C4688 C4694 1.383 . S
C4689 C4685 1.495 . S
C4689 H4695 0.959 . S
C4689 H4696 0.961 . S
C4689 H4697 0.960 . S
C4690 C4688 1.381 . S
C4690 C4691 1.394 . S
C4690 H4698 0.930 . S
C4691 C4690 1.394 . S
C4691 C4692 1.383 . S
C4691 H4699 0.929 . S
C4692 C4691 1.383 . S
C4692 C4693 1.377 . S
C4693 H4677 0.930 . S
C4693 C4692 1.377 . S
C4693 C4694 1.379 . S
C4694 H4678 0.931 . S
C4694 C4688 1.383 . S
C4694 C4693 1.379 . S
H4695 C4689 0.959 . S
H4696 C4689 0.961 . S
H4697 C4689 0.960 . S
H4698 C4690 0.930 . S
H4699 C4691 0.929 . S
H4700 C4708 0.929 . S
H4701 C4710 0.930 . S
H4702 C4712 0.930 . S
H4703 C4715 0.929 . S
H4704 C4718 0.930 . S
H4705 C4720 0.960 . S
H4706 C4720 0.960 . S
H4707 C4720 0.960 . S
C4708 H4700 0.929 . S
C4708 C4709 1.377 . S
C4708 C4710 1.384 . S
C4709 C4708 1.377 . S
C4709 C4715 1.390 . S
C4710 H4701 0.930 . S
C4710 C4708 1.384 . S
C4710 C4711 1.372 . S
C4711 C4710 1.372 . S
C4711 C4712 1.400 . S
C4711 C4716 1.490 . S
C4712 H4702 0.930 . S
C4712 C4711 1.400 . S
C4712 C4715 1.386 . S
H4713 C4729 0.930 . S
H4714 C4730 0.931 . S
C4715 H4703 0.929 . S
C4715 C4709 1.390 . S
C4715 C4712 1.386 . S
C4716 C4711 1.490 . S
C4716 C4718 1.395 . S
C4716 C4719 1.403 . S
H4717 C4723 0.930 . S
C4718 H4704 0.930 . S
C4718 C4716 1.395 . S
C4718 C4721 1.403 . S
C4719 C4716 1.403 . S
C4719 C4720 1.524 . S
C4719 C4723 1.400 . S
C4720 H4705 0.960 . S
C4720 H4706 0.960 . S
C4720 H4707 0.960 . S
C4720 C4719 1.524 . S
C4721 C4718 1.403 . S
C4721 C4722 1.392 . S
C4721 C4725 1.495 . S
C4722 C4721 1.392 . S
C4722 C4723 1.385 . S
C4722 C4724 1.478 . S
C4723 H4717 0.930 . S
C4723 C4719 1.400 . S
C4723 C4722 1.385 . S
C4724 C4722 1.478 . S
C4724 C4726 1.381 . S
C4724 C4730 1.383 . S
C4725 C4721 1.495 . S
C4725 H4731 0.959 . S
C4725 H4732 0.961 . S
C4725 H4733 0.960 . S
C4726 C4724 1.381 . S
C4726 C4727 1.394 . S
C4726 H4734 0.930 . S
C4727 C4726 1.394 . S
C4727 C4728 1.383 . S
C4727 H4735 0.929 . S
C4728 C4727 1.383 . S
C4728 C4729 1.377 . S
C4729 H4713 0.930 . S
C4729 C4728 1.377 . S
C4729 C4730 1.379 . S
C4730 H4714 0.931 . S
C4730 C4724 1.383 . S
C4730 C4729 1.379 . S
H4731 C4725 0.959 . S
H4732 C4725 0.961 . S
H4733 C4725 0.960 . S
H4734 C4726 0.930 . S
H4735 C4727 0.929 . S
C1289 C7 0.385 . S
C1308 C1091 0.431 . S
C1325 C47 0.366 . S
C1344 C331 0.398 . S
C1361 C87 0.393 . S
C1380 C1011 0.528 . S
C1397 C411 0.461 . S
C1416 C127 0.426 . S
C1433 C167 0.377 . S
C1452 C1171 0.402 . S
C1469 C571 0.455 . S
C1488 C207 0.348 . S
C1505 C1251 0.463 . S
C1524 C247 0.302 . S
C1541 C287 0.391 . S
C1560 C491 0.547 . S
C1577 C336 0.393 . S
C1596 C762 0.550 . S
C1613 C376 0.374 . S
C1632 C2 0.408 . S
C1649 C682 0.473 . S
C1668 C416 0.319 . S
C1685 C82 0.468 . S
C1704 C456 0.304 . S
C1721 C496 0.373 . S
C1740 C842 0.406 . S
C1757 C536 0.367 . S
C1776 C242 0.522 . S
C1793 C576 0.376 . S
C1812 C922 0.550 . S
C1829 C162 0.491 . S
C1848 C616 0.431 . S
C1865 C451 0.457 . S
C1884 C647 0.327 . S
C1901 C971 0.459 . S
C1920 C687 0.414 . S
C1937 C371 0.458 . S
C1956 C727 0.407 . S
C1973 C767 0.393 . S
C1992 C1051 0.506 . S
C2009 C531 0.488 . S
C2028 C807 0.371 . S
C2045 C1211 0.489 . S
C2064 C847 0.382 . S
C2081 C611 0.490 . S
C2100 C887 0.390 . S
C2117 C927 0.371 . S
C2136 C1131 0.395 . S
C2153 C976 0.360 . S
C2172 C122 0.406 . S
C2189 C1016 0.362 . S
C2208 C642 0.398 . S
C2225 C1056 0.381 . S
C2244 C42 0.432 . S
C2261 C1096 0.362 . S
C2280 C722 0.492 . S
C2297 C202 0.476 . S
C2316 C1136 0.327 . S
C2333 C882 0.458 . S
C2352 C1176 0.383 . S
C2369 C1216 0.394 . S
C2388 C282 0.532 . S
C2405 C1256 0.361 . S
C2424 C802 0.482 . S
C2441 C19 2.327 . S
C2460 C739 2.334 . S
C2477 C779 2.325 . S
C2496 C59 2.337 . S
C2513 C99 2.321 . S
C2532 C659 2.299 . S
C2549 C139 2.322 . S
C2568 C699 2.330 . S
C2585 C899 2.322 . S
C2604 C179 2.301 . S
C2621 C219 2.321 . S
C2640 C939 2.299 . S
C2657 C819 2.319 . S
C2676 C259 2.301 . S
C2693 C299 2.321 . S
C2712 C859 2.299 . S
C2729 C1050 2.325 . S
C2748 C330 2.302 . S
C2765 C370 2.327 . S
C2784 C1090 2.331 . S
C2801 C410 2.325 . S
C2820 C970 2.301 . S
C2837 C450 2.324 . S
C2856 C1010 2.339 . S
C2873 C1210 2.325 . S
C2892 C490 2.338 . S
C2909 C1250 2.321 . S
C2928 C530 2.335 . S
C2945 C570 2.324 . S
C2964 C1130 2.339 . S
C2981 C610 2.328 . S
C3000 C1170 2.324 . S
C3017 C11 3.153 . S
C3036 C962 3.156 . S
C3053 C362 3.151 . S
C3072 C51 3.135 . S
C3089 C91 3.153 . S
C3108 C1042 3.155 . S
C3125 C131 3.148 . S
C3144 C442 3.143 . S
C3161 C1122 3.153 . S
C3180 C171 3.147 . S
C3197 C522 3.148 . S
C3216 C211 3.137 . S
C3233 C251 3.152 . S
C3252 C1202 3.158 . S
C3269 C291 3.152 . S
C3288 C602 3.140 . S
C3305 C651 3.148 . S
C3324 C322 3.135 . S
C3341 C731 3.151 . S
C3360 C402 3.157 . S
C3377 C811 3.149 . S
C3396 C482 3.148 . S
C3413 C562 3.150 . S
C3432 C891 3.134 . S
C3449 C691 3.151 . S
C3468 C1002 3.157 . S
C3485 C771 3.150 . S
C3504 C1082 3.154 . S
C3521 C1162 3.153 . S
C3540 C851 3.153 . S
C3557 C1242 3.151 . S
C3576 C931 3.135 . S
C3593 C10 4.630 . S
C3612 C210 4.632 1_545 S
C3629 C250 4.633 . S
C3648 C50 4.629 1_545 S
C3665 C290 4.629 1_565 S
C3684 C90 4.626 . S
C3701 C170 4.631 . S
C3720 C130 4.635 1_565 S
C3737 C339 4.634 . S
C3756 C539 4.633 1_565 S
C3773 C379 4.631 1_565 S
C3792 C579 4.634 . S
C3809 C619 4.629 1_545 S
C3828 C419 4.623 . S
C3845 C459 4.631 1_545 S
C3864 C499 4.616 . S
C3881 C650 4.633 . S
C3900 C850 4.622 . S
C3917 C690 4.630 . S
C3936 C890 4.616 . S
C3953 C730 4.630 . S
C3972 C930 4.632 . S
C3989 C810 4.631 . S
C4008 C770 4.615 . S
C4025 C979 4.633 . S
C4044 C1179 4.630 . S
C4061 C1019 4.631 . S
C4080 C1219 4.616 . S
C4097 C1259 4.631 . S
C4116 C1059 4.616 . S
C4133 C1099 4.629 . S
C4152 C1139 4.624 . S
C4169 C16 0.880 . S
C4188 C176 0.892 . S
C4205 C56 0.882 . S
C4224 C216 0.900 . S
C4241 C256 0.871 . S
C4260 C96 0.846 . S
C4277 C296 0.873 . S
C4296 C136 0.856 . S
C4313 C327 0.882 . S
C4332 C487 0.882 . S
C4349 C527 0.882 . S
C4368 C367 0.847 . S
C4385 C567 0.879 . S
C4404 C407 0.847 . S
C4421 C607 0.877 . S
C4440 C447 0.851 . S
C4457 C656 0.873 . S
C4476 C816 0.858 . S
C4493 C856 0.872 . S
C4512 C696 0.849 . S
C4529 C736 0.883 . S
C4548 C896 0.903 . S
C4565 C936 0.880 . S
C4584 C776 0.888 . S
C4601 C1127 0.876 . S
C4620 C967 0.904 . S
C4637 C1007 0.875 . S
C4656 C1167 0.905 . S
C4673 C1047 0.884 . S
C4692 C1207 0.862 . S
C4709 C1087 0.876 . S
C4728 C1247 0.904 . S
