# Generated by pormake.
# Topology pcl, (4)-cn, num edge types: 1
# Building blocks:
#     Node 0, Type 0, BuildingBlock: KUFVIS_clean_sbu_0, # of connection points: 4
#     Node 1, Type 0, BuildingBlock: KUFVIS_clean_sbu_0, # of connection points: 4
#     Node 2, Type 0, BuildingBlock: KUFVIS_clean_sbu_0, # of connection points: 4
#     Node 3, Type 0, BuildingBlock: KUFVIS_clean_sbu_0, # of connection points: 4
#     Node 4, Type 0, BuildingBlock: KUFVIS_clean_sbu_0, # of connection points: 4
#     Node 5, Type 0, BuildingBlock: KUFVIS_clean_sbu_0, # of connection points: 4
#     Node 6, Type 0, BuildingBlock: KUFVIS_clean_sbu_0, # of connection points: 4
#     Node 7, Type 0, BuildingBlock: KUFVIS_clean_sbu_0, # of connection points: 4
#     Node 8, Type 0, BuildingBlock: KUFVIS_clean_sbu_0, # of connection points: 4
#     Node 9, Type 0, BuildingBlock: KUFVIS_clean_sbu_0, # of connection points: 4
#     Node 10, Type 0, BuildingBlock: KUFVIS_clean_sbu_0, # of connection points: 4
#     Node 11, Type 0, BuildingBlock: KUFVIS_clean_sbu_0, # of connection points: 4
#     Node 12, Type 0, BuildingBlock: KUFVIS_clean_sbu_0, # of connection points: 4
#     Node 13, Type 0, BuildingBlock: KUFVIS_clean_sbu_0, # of connection points: 4
#     Node 14, Type 0, BuildingBlock: KUFVIS_clean_sbu_0, # of connection points: 4
#     Node 15, Type 0, BuildingBlock: KUFVIS_clean_sbu_0, # of connection points: 4
#     Edge 16, Type (0, 0), BuildingBlock: XIVTED_clean_linker_0, # of connection points: 2
#     Edge 17, Type (0, 0), BuildingBlock: XIVTED_clean_linker_0, # of connection points: 2
#     Edge 18, Type (0, 0), BuildingBlock: XIVTED_clean_linker_0, # of connection points: 2
#     Edge 19, Type (0, 0), BuildingBlock: XIVTED_clean_linker_0, # of connection points: 2
#     Edge 20, Type (0, 0), BuildingBlock: XIVTED_clean_linker_0, # of connection points: 2
#     Edge 21, Type (0, 0), BuildingBlock: XIVTED_clean_linker_0, # of connection points: 2
#     Edge 22, Type (0, 0), BuildingBlock: XIVTED_clean_linker_0, # of connection points: 2
#     Edge 23, Type (0, 0), BuildingBlock: XIVTED_clean_linker_0, # of connection points: 2
#     Edge 24, Type (0, 0), BuildingBlock: XIVTED_clean_linker_0, # of connection points: 2
#     Edge 25, Type (0, 0), BuildingBlock: XIVTED_clean_linker_0, # of connection points: 2
#     Edge 26, Type (0, 0), BuildingBlock: XIVTED_clean_linker_0, # of connection points: 2
#     Edge 27, Type (0, 0), BuildingBlock: XIVTED_clean_linker_0, # of connection points: 2
#     Edge 28, Type (0, 0), BuildingBlock: XIVTED_clean_linker_0, # of connection points: 2
#     Edge 29, Type (0, 0), BuildingBlock: XIVTED_clean_linker_0, # of connection points: 2
#     Edge 30, Type (0, 0), BuildingBlock: XIVTED_clean_linker_0, # of connection points: 2
#     Edge 31, Type (0, 0), BuildingBlock: XIVTED_clean_linker_0, # of connection points: 2
#     Edge 32, Type (0, 0), BuildingBlock: XIVTED_clean_linker_0, # of connection points: 2
#     Edge 33, Type (0, 0), BuildingBlock: XIVTED_clean_linker_0, # of connection points: 2
#     Edge 34, Type (0, 0), BuildingBlock: XIVTED_clean_linker_0, # of connection points: 2
#     Edge 35, Type (0, 0), BuildingBlock: XIVTED_clean_linker_0, # of connection points: 2
#     Edge 36, Type (0, 0), BuildingBlock: XIVTED_clean_linker_0, # of connection points: 2
#     Edge 37, Type (0, 0), BuildingBlock: XIVTED_clean_linker_0, # of connection points: 2
#     Edge 38, Type (0, 0), BuildingBlock: XIVTED_clean_linker_0, # of connection points: 2
#     Edge 39, Type (0, 0), BuildingBlock: XIVTED_clean_linker_0, # of connection points: 2
#     Edge 40, Type (0, 0), BuildingBlock: XIVTED_clean_linker_0, # of connection points: 2
#     Edge 41, Type (0, 0), BuildingBlock: XIVTED_clean_linker_0, # of connection points: 2
#     Edge 42, Type (0, 0), BuildingBlock: XIVTED_clean_linker_0, # of connection points: 2
#     Edge 43, Type (0, 0), BuildingBlock: XIVTED_clean_linker_0, # of connection points: 2
#     Edge 44, Type (0, 0), BuildingBlock: XIVTED_clean_linker_0, # of connection points: 2
#     Edge 45, Type (0, 0), BuildingBlock: XIVTED_clean_linker_0, # of connection points: 2
#     Edge 46, Type (0, 0), BuildingBlock: XIVTED_clean_linker_0, # of connection points: 2
#     Edge 47, Type (0, 0), BuildingBlock: XIVTED_clean_linker_0, # of connection points: 2
# Relax obj value: 0.079
# Max RMSD: 0.060
# Mean RMSD: 0.059
data_MOF--net-pcl--node1-KUFVIS_clean_sbu_0--edge1-XIVTED_clean_linker_0
_symmetry_space_group_name_H-M    P1
_symmetry_Int_Tables_number       1
_symmetry_cell_setting            triclinic
loop_
_symmetry_equiv_pos_as_xyz
'x, y, z'
_cell_length_a     52.603746
_cell_length_b     42.68763
_cell_length_c     42.321813
_cell_angle_alpha  89.996307
_cell_angle_beta   89.992829
_cell_angle_gamma 90.001119
loop_
_atom_site_label
_atom_site_type_symbol
_atom_site_fract_x
_atom_site_fract_y
_atom_site_fract_z
_atom_type_partial_charge
Mn0 Mn 0.16272 0.34084 0.07407 0.0
Mn1 Mn 0.21697 0.36651 0.10818 0.0
C2 C 0.17287 0.32547 0.12501 0.0
C3 C 0.11912 0.34805 0.06532 0.0
C4 C 0.21563 0.31508 0.05849 0.0
O5 O 0.17203 0.37877 0.04718 0.0
O6 O 0.20732 0.39488 0.07284 0.0
C7 C 0.19976 0.42713 0.13465 0.0
N8 N 0.21035 0.39831 0.13888 0.0
C9 C 0.21748 0.40855 0.1941 0.0
C10 C 0.20695 0.43848 0.19022 0.0
C11 C 0.19795 0.44774 0.16041 0.0
C12 C 0.21923 0.38923 0.16744 0.0
H13 H 0.19281 0.43437 0.11178 0.0
C14 C 0.19033 0.39805 0.05134 0.0
O15 O 0.1325 0.33015 0.04683 0.0
O16 O 0.13118 0.36211 0.08784 0.0
N17 N 0.22793 0.34149 0.14316 0.0
C18 C 0.23521 0.31087 0.14351 0.0
C19 C 0.24313 0.2972 0.17204 0.0
C20 C 0.24352 0.31514 0.19986 0.0
C21 C 0.2359 0.3466 0.19893 0.0
C22 C 0.22837 0.35903 0.16977 0.0
H23 H 0.23473 0.29691 0.12226 0.0
O24 O 0.15765 0.30868 0.10785 0.0
O25 O 0.18217 0.35037 0.11153 0.0
O26 O 0.19158 0.31451 0.0539 0.0
O27 O 0.22635 0.33383 0.07778 0.0
C28 C 0.23476 0.36584 0.22595 0.0
C29 C 0.22562 0.39682 0.22353 0.0
H30 H 0.20534 0.45437 0.21007 0.0
H31 H 0.1896 0.47071 0.15731 0.0
H32 H 0.24882 0.27284 0.17261 0.0
H33 H 0.24941 0.30442 0.22187 0.0
H34 H 0.24043 0.35686 0.24883 0.0
H35 H 0.22443 0.41118 0.24457 0.0
Mn36 Mn 0.85435 0.66316 0.57502 0.0
Mn37 Mn 0.80041 0.6379 0.60998 0.0
C38 C 0.8445 0.679 0.62588 0.0
C39 C 0.89777 0.65565 0.5656 0.0
C40 C 0.80139 0.68864 0.55956 0.0
O41 O 0.84474 0.62508 0.54858 0.0
O42 O 0.80989 0.60883 0.5751 0.0
C43 C 0.81687 0.57738 0.63728 0.0
N44 N 0.80722 0.60674 0.64124 0.0
C45 C 0.80011 0.59754 0.69663 0.0
C46 C 0.80951 0.56701 0.69298 0.0
C47 C 0.81813 0.557 0.66325 0.0
C48 C 0.79885 0.6166 0.66976 0.0
H49 H 0.82332 0.56946 0.61441 0.0
C50 C 0.82669 0.60559 0.55335 0.0
O51 O 0.88429 0.67357 0.54725 0.0
O52 O 0.88594 0.64186 0.58848 0.0
N53 N 0.78983 0.66374 0.64453 0.0
C54 C 0.78246 0.69433 0.64427 0.0
C55 C 0.77498 0.70871 0.67262 0.0
C56 C 0.77502 0.69145 0.70089 0.0
C57 C 0.78263 0.65998 0.70055 0.0
C58 C 0.78991 0.64691 0.67158 0.0
H59 H 0.78255 0.70776 0.62265 0.0
O60 O 0.8597 0.69556 0.60846 0.0
O61 O 0.83519 0.65393 0.61279 0.0
O62 O 0.82542 0.68942 0.55497 0.0
O63 O 0.79082 0.66993 0.57901 0.0
C64 C 0.7837 0.64121 0.7279 0.0
C65 C 0.79222 0.60994 0.7259 0.0
H66 H 0.81051 0.55116 0.7129 0.0
H67 H 0.82562 0.53356 0.66034 0.0
H68 H 0.76925 0.73306 0.67271 0.0
H69 H 0.76935 0.70267 0.72274 0.0
H70 H 0.77815 0.65065 0.75064 0.0
H71 H 0.79288 0.59579 0.74709 0.0
Mn72 Mn 0.16102 0.66519 0.92239 0.0
Mn73 Mn 0.21506 0.63943 0.88789 0.0
C74 C 0.17082 0.68027 0.87126 0.0
C75 C 0.11756 0.65797 0.93185 0.0
C76 C 0.21397 0.69083 0.93765 0.0
O77 O 0.17057 0.62738 0.94934 0.0
O78 O 0.20552 0.61092 0.92318 0.0
C79 C 0.19781 0.57889 0.86131 0.0
N80 N 0.20827 0.60778 0.85709 0.0
C81 C 0.21495 0.59788 0.80172 0.0
C82 C 0.20456 0.56787 0.80558 0.0
C83 C 0.19584 0.55841 0.83546 0.0
C84 C 0.21688 0.61705 0.82846 0.0
H85 H 0.19107 0.57148 0.88422 0.0
C86 C 0.18869 0.60791 0.94491 0.0
O87 O 0.1311 0.67601 0.95002 0.0
O88 O 0.12938 0.64382 0.90917 0.0
N89 N 0.22581 0.66463 0.85294 0.0
C90 C 0.23313 0.69524 0.85269 0.0
C91 C 0.24077 0.70911 0.82414 0.0
C92 C 0.24086 0.69136 0.79619 0.0
C93 C 0.23324 0.65989 0.79702 0.0
C94 C 0.22597 0.64728 0.8262 0.0
H95 H 0.2329 0.70905 0.87406 0.0
O96 O 0.15568 0.69715 0.88844 0.0
O97 O 0.18024 0.65551 0.88485 0.0
O98 O 0.18993 0.69159 0.94214 0.0
O99 O 0.22464 0.67197 0.91841 0.0
C100 C 0.23187 0.64083 0.76989 0.0
C101 C 0.22281 0.60981 0.77225 0.0
H102 H 0.20287 0.55206 0.78568 0.0
H103 H 0.1876 0.53538 0.83855 0.0
H104 H 0.24648 0.73346 0.82365 0.0
H105 H 0.24654 0.70223 0.77416 0.0
H106 H 0.23732 0.64996 0.74699 0.0
H107 H 0.22146 0.59556 0.75114 0.0
Mn108 Mn 0.85365 0.33896 0.42334 0.0
Mn109 Mn 0.79929 0.36477 0.38971 0.0
C110 C 0.84339 0.32424 0.37221 0.0
C111 C 0.89724 0.34629 0.43194 0.0
C112 C 0.80084 0.31306 0.43911 0.0
O113 O 0.84429 0.37659 0.45068 0.0
O114 O 0.80896 0.39293 0.42519 0.0
C115 C 0.81646 0.42552 0.36348 0.0
N116 N 0.80592 0.39669 0.35913 0.0
C117 C 0.79904 0.40701 0.30387 0.0
C118 C 0.80955 0.43693 0.30786 0.0
C119 C 0.8184 0.44616 0.33775 0.0
C120 C 0.79723 0.38763 0.33048 0.0
H121 H 0.82329 0.43274 0.38641 0.0
C122 C 0.82596 0.39588 0.44672 0.0
O123 O 0.88399 0.32811 0.45031 0.0
O124 O 0.88505 0.36052 0.40964 0.0
N125 N 0.78838 0.33986 0.35463 0.0
C126 C 0.781 0.30928 0.3542 0.0
C127 C 0.77313 0.29568 0.32562 0.0
C128 C 0.77287 0.31368 0.29783 0.0
C129 C 0.78057 0.3451 0.29885 0.0
C130 C 0.7881 0.35743 0.32805 0.0
H131 H 0.78133 0.29529 0.37545 0.0
O132 O 0.85869 0.30723 0.38903 0.0
O133 O 0.83406 0.34882 0.3862 0.0
O134 O 0.82492 0.31239 0.4434 0.0
O135 O 0.79 0.33194 0.42003 0.0
C136 C 0.78171 0.36443 0.27189 0.0
C137 C 0.79092 0.39537 0.2744 0.0
H138 H 0.81122 0.45286 0.28804 0.0
H139 H 0.82672 0.46913 0.34095 0.0
H140 H 0.76736 0.27136 0.32499 0.0
H141 H 0.76698 0.30303 0.27578 0.0
H142 H 0.776 0.35554 0.249 0.0
H143 H 0.79217 0.40979 0.25339 0.0
Mn144 Mn 0.8743 0.66208 0.90987 0.0
Mn145 Mn 0.89387 0.6081 0.85702 0.0
C146 C 0.87446 0.67389 0.8564 0.0
C147 C 0.84209 0.68458 0.94052 0.0
C148 C 0.92962 0.64291 0.90128 0.0
O149 O 0.8726 0.6208 0.93433 0.0
O150 O 0.88084 0.58645 0.89504 0.0
C151 C 0.84603 0.57576 0.8403 0.0
N152 N 0.86685 0.59253 0.83143 0.0
C153 C 0.85733 0.58512 0.77635 0.0
C154 C 0.83587 0.56754 0.78488 0.0
C155 C 0.83006 0.56311 0.81698 0.0
C156 C 0.87242 0.59729 0.80062 0.0
H157 H 0.84184 0.57176 0.86496 0.0
C158 C 0.8744 0.59287 0.92351 0.0
O159 O 0.86589 0.68685 0.94828 0.0
O160 O 0.83689 0.66866 0.91521 0.0
N161 N 0.90676 0.62635 0.81901 0.0
C162 C 0.92735 0.64528 0.81494 0.0
C163 C 0.93487 0.65362 0.78423 0.0
C164 C 0.92145 0.64191 0.75807 0.0
C165 C 0.90041 0.62231 0.7629 0.0
C166 C 0.89351 0.61533 0.79404 0.0
H167 H 0.93796 0.65391 0.83496 0.0
O168 O 0.87494 0.69625 0.8772 0.0
O169 O 0.87413 0.64559 0.86754 0.0
O170 O 0.91341 0.66189 0.91291 0.0
O171 O 0.92372 0.6218 0.88131 0.0
C172 C 0.886 0.60943 0.73807 0.0
C173 C 0.86445 0.59092 0.74478 0.0
H174 H 0.82374 0.55727 0.76705 0.0
H175 H 0.81351 0.54961 0.82371 0.0
H176 H 0.95111 0.66877 0.78071 0.0
H177 H 0.92741 0.64819 0.7344 0.0
H178 H 0.89114 0.61393 0.7137 0.0
H179 H 0.85348 0.58142 0.72546 0.0
Mn180 Mn 0.14068 0.34231 0.40907 0.0
Mn181 Mn 0.12192 0.39735 0.35683 0.0
C182 C 0.14083 0.33142 0.35534 0.0
C183 C 0.17252 0.31902 0.43971 0.0
C184 C 0.08543 0.36171 0.39955 0.0
O185 O 0.14245 0.38308 0.4344 0.0
O186 O 0.13434 0.41801 0.39565 0.0
C187 C 0.17023 0.42981 0.34219 0.0
N188 N 0.14935 0.41369 0.33235 0.0
C189 C 0.1585 0.42506 0.27786 0.0
C190 C 0.18016 0.44175 0.28735 0.0
C191 C 0.18619 0.44385 0.31964 0.0
C192 C 0.14373 0.41087 0.30133 0.0
H193 H 0.17446 0.43224 0.36705 0.0
C194 C 0.14069 0.41116 0.42403 0.0
O195 O 0.14865 0.31675 0.44712 0.0
O196 O 0.17799 0.33532 0.41474 0.0
N197 N 0.10962 0.38039 0.31794 0.0
C198 C 0.08914 0.36155 0.31274 0.0
C199 C 0.08156 0.3552 0.28158 0.0
C200 C 0.09465 0.36899 0.25619 0.0
C201 C 0.11553 0.38852 0.26221 0.0
C202 C 0.12272 0.39312 0.29368 0.0
H203 H 0.07864 0.3516 0.33223 0.0
O204 O 0.14005 0.30874 0.37577 0.0
O205 O 0.14134 0.35953 0.36695 0.0
O206 O 0.10153 0.34284 0.4116 0.0
O207 O 0.09163 0.38298 0.37988 0.0
C208 C 0.12936 0.40385 0.23827 0.0
C209 C 0.15081 0.42217 0.24611 0.0
H210 H 0.19227 0.45305 0.27008 0.0
H211 H 0.20285 0.45673 0.32715 0.0
H212 H 0.06539 0.34015 0.27714 0.0
H213 H 0.08849 0.36446 0.2322 0.0
H214 H 0.124 0.40122 0.2137 0.0
H215 H 0.16148 0.43343 0.22745 0.0
Mn216 Mn 0.8757 0.34263 0.08751 0.0
Mn217 Mn 0.89403 0.39892 0.13851 0.0
C218 C 0.87558 0.3329 0.14153 0.0
C219 C 0.84384 0.31876 0.05734 0.0
C220 C 0.93074 0.36295 0.0963 0.0
O221 O 0.87381 0.38288 0.06131 0.0
O222 O 0.88106 0.41869 0.09951 0.0
C223 C 0.84529 0.43039 0.15317 0.0
N224 N 0.86652 0.41499 0.16302 0.0
C225 C 0.85736 0.42655 0.21746 0.0
C226 C 0.83532 0.44247 0.20797 0.0
C227 C 0.82913 0.44411 0.17569 0.0
C228 C 0.8723 0.41259 0.19403 0.0
H229 H 0.84089 0.43241 0.12832 0.0
C230 C 0.87499 0.41118 0.07121 0.0
O231 O 0.86772 0.31628 0.04998 0.0
O232 O 0.8384 0.33549 0.08203 0.0
N233 N 0.90681 0.38276 0.1775 0.0
C234 C 0.92765 0.36454 0.18276 0.0
C235 C 0.93554 0.35881 0.21393 0.0
C236 C 0.92235 0.37257 0.23925 0.0
C237 C 0.90108 0.39143 0.23317 0.0
C238 C 0.89363 0.39545 0.20171 0.0
H239 H 0.93822 0.35462 0.16332 0.0
O240 O 0.87639 0.30976 0.12164 0.0
O241 O 0.87501 0.36068 0.1292 0.0
O242 O 0.91485 0.34335 0.08504 0.0
O243 O 0.92434 0.38474 0.1153 0.0
C244 C 0.8871 0.40666 0.25704 0.0
C245 C 0.86524 0.4242 0.24918 0.0
H246 H 0.82304 0.45351 0.22523 0.0
H247 H 0.81218 0.45639 0.16818 0.0
H248 H 0.952 0.34427 0.21841 0.0
H249 H 0.92873 0.36853 0.26324 0.0
H250 H 0.89265 0.40448 0.28159 0.0
H251 H 0.85443 0.43532 0.2678 0.0
Mn252 Mn 0.14143 0.66212 0.58639 0.0
Mn253 Mn 0.1218 0.60701 0.63806 0.0
C254 C 0.14094 0.67289 0.64016 0.0
C255 C 0.17366 0.68522 0.55621 0.0
C256 C 0.08605 0.6429 0.59463 0.0
O257 O 0.14326 0.6214 0.56099 0.0
O258 O 0.13487 0.58635 0.59956 0.0
C259 C 0.16978 0.57442 0.654 0.0
N260 N 0.14875 0.59059 0.66327 0.0
C261 C 0.15686 0.5791 0.71799 0.0
C262 C 0.17866 0.56237 0.70908 0.0
C263 C 0.18529 0.56031 0.67697 0.0
C264 C 0.14256 0.59336 0.69413 0.0
H265 H 0.17446 0.57202 0.62926 0.0
C266 C 0.14144 0.59328 0.57128 0.0
O267 O 0.14986 0.68765 0.54851 0.0
O268 O 0.17885 0.6689 0.58127 0.0
N269 N 0.10883 0.62398 0.6766 0.0
C270 C 0.0883 0.64288 0.68124 0.0
C271 C 0.08014 0.64918 0.71219 0.0
C272 C 0.09271 0.63529 0.73792 0.0
C273 C 0.11366 0.61571 0.73247 0.0
C274 C 0.12144 0.61115 0.7012 0.0
H275 H 0.07819 0.65291 0.66148 0.0
O276 O 0.14057 0.69562 0.61976 0.0
O277 O 0.14149 0.6448 0.6285 0.0
O278 O 0.10233 0.66192 0.58322 0.0
O279 O 0.09193 0.62142 0.61421 0.0
C280 C 0.12701 0.60031 0.75677 0.0
C281 C 0.14858 0.58197 0.74952 0.0
H282 H 0.19042 0.551 0.72667 0.0
H283 H 0.20205 0.54739 0.66991 0.0
H284 H 0.06392 0.66428 0.71619 0.0
H285 H 0.08611 0.63979 0.76174 0.0
H286 H 0.12119 0.6029 0.78118 0.0
H287 H 0.15887 0.57064 0.76846 0.0
Mn288 Mn 0.66177 0.84132 0.07439 0.0
Mn289 Mn 0.7163 0.86584 0.10846 0.0
C290 C 0.67198 0.82548 0.12516 0.0
C291 C 0.61829 0.84925 0.06568 0.0
C292 C 0.71434 0.815 0.05818 0.0
O293 O 0.67144 0.87927 0.04773 0.0
O294 O 0.70681 0.89486 0.07357 0.0
C295 C 0.70027 0.92654 0.1358 0.0
N296 N 0.71 0.89722 0.13968 0.0
C297 C 0.71759 0.90653 0.19496 0.0
C298 C 0.70803 0.93699 0.19143 0.0
C299 C 0.69916 0.94695 0.16178 0.0
C300 C 0.7186 0.88741 0.16812 0.0
H301 H 0.69359 0.9344 0.11302 0.0
C302 C 0.68984 0.89836 0.0521 0.0
O303 O 0.63148 0.83121 0.04712 0.0
O304 O 0.63047 0.86299 0.08832 0.0
N305 N 0.72698 0.84004 0.14298 0.0
C306 C 0.73414 0.80936 0.14276 0.0
C307 C 0.74193 0.79509 0.17104 0.0
C308 C 0.74242 0.81253 0.19918 0.0
C309 C 0.735 0.84407 0.19881 0.0
C310 C 0.72739 0.85703 0.16993 0.0
H311 H 0.73367 0.79582 0.12123 0.0
O312 O 0.65648 0.80905 0.10803 0.0
O313 O 0.68139 0.85034 0.1118 0.0
O314 O 0.69026 0.81467 0.05393 0.0
O315 O 0.72532 0.83351 0.07749 0.0
C316 C 0.73441 0.863 0.22606 0.0
C317 C 0.72581 0.89424 0.22412 0.0
H318 H 0.70707 0.9528 0.21141 0.0
H319 H 0.69154 0.97033 0.15895 0.0
H320 H 0.7475 0.77069 0.17116 0.0
H321 H 0.74832 0.80139 0.22097 0.0
H322 H 0.74026 0.85365 0.24872 0.0
H323 H 0.72529 0.90845 0.2453 0.0
Mn324 Mn 0.3533 0.16371 0.57413 0.0
Mn325 Mn 0.29915 0.13884 0.60883 0.0
C326 C 0.34334 0.17962 0.62494 0.0
C327 C 0.39678 0.15623 0.56504 0.0
C328 C 0.30046 0.18947 0.55831 0.0
O329 O 0.3437 0.12559 0.54773 0.0
O330 O 0.30853 0.10979 0.57387 0.0
C331 C 0.31552 0.07825 0.63607 0.0
N332 N 0.30589 0.10761 0.64006 0.0
C333 C 0.29931 0.09862 0.69559 0.0
C334 C 0.30873 0.0681 0.69193 0.0
C335 C 0.31704 0.05797 0.66211 0.0
C336 C 0.29776 0.11756 0.66866 0.0
H337 H 0.3218 0.07027 0.61315 0.0
C338 C 0.32542 0.10637 0.55227 0.0
O339 O 0.38335 0.17403 0.54651 0.0
O340 O 0.38484 0.14244 0.58784 0.0
N341 N 0.28867 0.16468 0.64342 0.0
C342 C 0.2813 0.19528 0.64316 0.0
C343 C 0.27402 0.20973 0.67156 0.0
C344 C 0.27427 0.19255 0.69987 0.0
C345 C 0.28187 0.16106 0.69953 0.0
C346 C 0.28889 0.14791 0.67051 0.0
H347 H 0.28123 0.20865 0.62151 0.0
O348 O 0.35859 0.19616 0.60755 0.0
O349 O 0.33399 0.15462 0.61178 0.0
O350 O 0.32452 0.18998 0.55384 0.0
O351 O 0.28971 0.171 0.57785 0.0
C352 C 0.2832 0.1424 0.72694 0.0
C353 C 0.29173 0.11113 0.72493 0.0
H354 H 0.30998 0.05236 0.71192 0.0
H355 H 0.32455 0.03454 0.65918 0.0
H356 H 0.26829 0.23408 0.67166 0.0
H357 H 0.26879 0.20383 0.72176 0.0
H358 H 0.27788 0.15192 0.74972 0.0
H359 H 0.29268 0.09708 0.74618 0.0
Mn360 Mn 0.66157 0.16568 0.92329 0.0
Mn361 Mn 0.71564 0.13969 0.88904 0.0
C362 C 0.67152 0.18056 0.87212 0.0
C363 C 0.61802 0.15852 0.93238 0.0
C364 C 0.71456 0.1911 0.93882 0.0
O365 O 0.67098 0.12789 0.95034 0.0
O366 O 0.70595 0.11125 0.92432 0.0
C367 C 0.6984 0.07915 0.86242 0.0
N368 N 0.70885 0.10805 0.85822 0.0
C369 C 0.71544 0.09822 0.80282 0.0
C370 C 0.70506 0.06821 0.80667 0.0
C371 C 0.69639 0.0587 0.83656 0.0
C372 C 0.71742 0.11736 0.82959 0.0
H373 H 0.6917 0.07172 0.88535 0.0
C374 C 0.68906 0.10835 0.946 0.0
O375 O 0.63147 0.17657 0.95064 0.0
O376 O 0.62999 0.14433 0.90985 0.0
N377 N 0.72647 0.16487 0.85411 0.0
C378 C 0.73385 0.19547 0.8539 0.0
C379 C 0.74147 0.20935 0.82535 0.0
C380 C 0.74147 0.19165 0.79737 0.0
C381 C 0.73378 0.16022 0.79816 0.0
C382 C 0.72654 0.14757 0.82735 0.0
H383 H 0.73369 0.20924 0.87529 0.0
O384 O 0.65641 0.19757 0.88922 0.0
O385 O 0.68088 0.15585 0.88587 0.0
O386 O 0.6905 0.19202 0.94318 0.0
O387 O 0.72521 0.17219 0.9196 0.0
C388 C 0.73233 0.1412 0.771 0.0
C389 C 0.72325 0.11018 0.77335 0.0
H390 H 0.70333 0.05243 0.78675 0.0
H391 H 0.68815 0.03567 0.83964 0.0
H392 H 0.74724 0.23368 0.82489 0.0
H393 H 0.74714 0.20254 0.77535 0.0
H394 H 0.73775 0.15035 0.7481 0.0
H395 H 0.72183 0.09597 0.75222 0.0
Mn396 Mn 0.35476 0.84007 0.4215 0.0
Mn397 Mn 0.30029 0.86536 0.38788 0.0
C398 C 0.34436 0.82478 0.3706 0.0
C399 C 0.39829 0.84764 0.43017 0.0
C400 C 0.30209 0.81415 0.43781 0.0
O401 O 0.34531 0.87782 0.44856 0.0
O402 O 0.31007 0.8941 0.42288 0.0
C403 C 0.31651 0.9261 0.36078 0.0
N404 N 0.30665 0.89685 0.35678 0.0
C405 C 0.29894 0.90651 0.30159 0.0
C406 C 0.30863 0.9369 0.30524 0.0
C407 C 0.31763 0.94664 0.3349 0.0
C408 C 0.29791 0.88726 0.32834 0.0
H409 H 0.32329 0.93378 0.38357 0.0
C410 C 0.32708 0.8972 0.44439 0.0
O411 O 0.38506 0.82951 0.44859 0.0
O412 O 0.38614 0.86165 0.40768 0.0
N413 N 0.28936 0.83983 0.35327 0.0
C414 C 0.28205 0.8092 0.35337 0.0
C415 C 0.27414 0.79512 0.32505 0.0
C416 C 0.27368 0.81269 0.29699 0.0
C417 C 0.28125 0.84418 0.29749 0.0
C418 C 0.28898 0.85695 0.32641 0.0
H419 H 0.2825 0.79555 0.37484 0.0
O420 O 0.35981 0.80808 0.38754 0.0
O421 O 0.3351 0.84958 0.38423 0.0
O422 O 0.32618 0.81346 0.44185 0.0
O423 O 0.29118 0.83295 0.41873 0.0
C424 C 0.28187 0.86324 0.27032 0.0
C425 C 0.2906 0.89442 0.27239 0.0
H426 H 0.30959 0.9528 0.28535 0.0
H427 H 0.32534 0.96996 0.33782 0.0
H428 H 0.26845 0.77076 0.32483 0.0
H429 H 0.26767 0.80171 0.27517 0.0
H430 H 0.27594 0.85404 0.24764 0.0
H431 H 0.29114 0.90873 0.25129 0.0
Mn432 Mn 0.37469 0.16207 0.90885 0.0
Mn433 Mn 0.39427 0.10782 0.85632 0.0
C434 C 0.37478 0.17359 0.85531 0.0
C435 C 0.3423 0.18449 0.93923 0.0
C436 C 0.43007 0.14308 0.90024 0.0
O437 O 0.37319 0.12098 0.93362 0.0
O438 O 0.38138 0.08635 0.89457 0.0
C439 C 0.3463 0.07551 0.84 0.0
N440 N 0.36716 0.09211 0.83093 0.0
C441 C 0.35712 0.08501 0.77595 0.0
C442 C 0.3356 0.06765 0.78468 0.0
C443 C 0.33005 0.06312 0.81683 0.0
C444 C 0.37251 0.09692 0.80007 0.0
H445 H 0.34226 0.07153 0.8647 0.0
C446 C 0.37503 0.09298 0.92304 0.0
O447 O 0.36607 0.18707 0.94707 0.0
O448 O 0.33727 0.16833 0.91404 0.0
N449 N 0.40703 0.12587 0.81813 0.0
C450 C 0.42762 0.14476 0.81385 0.0
C451 C 0.43492 0.15314 0.78307 0.0
C452 C 0.42126 0.14155 0.75705 0.0
C453 C 0.40023 0.122 0.76208 0.0
C454 C 0.39359 0.1149 0.79329 0.0
H455 H 0.43838 0.15336 0.83376 0.0
O456 O 0.3752 0.19606 0.87599 0.0
O457 O 0.37454 0.14535 0.86661 0.0
O458 O 0.41383 0.16206 0.91182 0.0
O459 O 0.42416 0.1218 0.88043 0.0
C460 C 0.38553 0.10936 0.73739 0.0
C461 C 0.36396 0.09096 0.74431 0.0
H462 H 0.3232 0.05767 0.76695 0.0
H463 H 0.31345 0.04979 0.82373 0.0
H464 H 0.45116 0.16826 0.7794 0.0
H465 H 0.42703 0.1479 0.73333 0.0
H466 H 0.39045 0.11398 0.71298 0.0
H467 H 0.35273 0.08168 0.7251 0.0
Mn468 Mn 0.64209 0.84109 0.40954 0.0
Mn469 Mn 0.62286 0.89614 0.35766 0.0
C470 C 0.64232 0.83042 0.35583 0.0
C471 C 0.67436 0.81833 0.43985 0.0
C472 C 0.58677 0.8602 0.40066 0.0
O473 O 0.64344 0.8818 0.43494 0.0
O474 O 0.63557 0.91702 0.39632 0.0
C475 C 0.6711 0.92836 0.3422 0.0
N476 N 0.65017 0.91212 0.33273 0.0
C477 C 0.66058 0.91989 0.27793 0.0
C478 C 0.68221 0.93683 0.28707 0.0
C479 C 0.6876 0.94086 0.31934 0.0
C480 C 0.64498 0.90778 0.30175 0.0
H481 H 0.67503 0.93194 0.36699 0.0
C482 C 0.64172 0.90996 0.42475 0.0
O483 O 0.65054 0.81554 0.44745 0.0
O484 O 0.67949 0.83485 0.41493 0.0
N485 N 0.6103 0.87869 0.3191 0.0
C486 C 0.58968 0.85997 0.31437 0.0
C487 C 0.58249 0.85214 0.2834 0.0
C488 C 0.5963 0.86409 0.25767 0.0
C489 C 0.61737 0.88344 0.26318 0.0
C490 C 0.62389 0.88999 0.29454 0.0
H491 H 0.57878 0.85111 0.33406 0.0
O492 O 0.64182 0.8076 0.37611 0.0
O493 O 0.64246 0.85845 0.36763 0.0
O494 O 0.60296 0.84106 0.41212 0.0
O495 O 0.59282 0.88183 0.3813 0.0
C496 C 0.63224 0.89639 0.23879 0.0
C497 C 0.65387 0.91449 0.24616 0.0
H498 H 0.69482 0.94681 0.26954 0.0
H499 H 0.70427 0.95386 0.32656 0.0
H500 H 0.56621 0.83717 0.27937 0.0
H501 H 0.59062 0.85816 0.23381 0.0
H502 H 0.62741 0.89221 0.21427 0.0
H503 H 0.66526 0.92394 0.22718 0.0
Mn504 Mn 0.37463 0.84241 0.08622 0.0
Mn505 Mn 0.39357 0.89716 0.13856 0.0
C506 C 0.37413 0.8314 0.1399 0.0
C507 C 0.34266 0.81974 0.05538 0.0
C508 C 0.42985 0.86161 0.09549 0.0
O509 O 0.37339 0.88331 0.06107 0.0
O510 O 0.38083 0.91828 0.10005 0.0
C511 C 0.34527 0.92912 0.15424 0.0
N512 N 0.36622 0.91286 0.1636 0.0
C513 C 0.35581 0.92024 0.21845 0.0
C514 C 0.33416 0.93719 0.20943 0.0
C515 C 0.32876 0.94143 0.17719 0.0
C516 C 0.37142 0.90832 0.19454 0.0
H517 H 0.34133 0.93287 0.12948 0.0
C518 C 0.37489 0.9114 0.07151 0.0
O519 O 0.36653 0.81711 0.04805 0.0
O520 O 0.33728 0.83606 0.08036 0.0
N521 N 0.40614 0.87943 0.17699 0.0
C522 C 0.42678 0.8607 0.18159 0.0
C523 C 0.43397 0.85265 0.2125 0.0
C524 C 0.42015 0.8644 0.23832 0.0
C525 C 0.39906 0.88375 0.23295 0.0
C526 C 0.39254 0.89053 0.20163 0.0
H527 H 0.43768 0.852 0.16185 0.0
O528 O 0.37475 0.80871 0.11947 0.0
O529 O 0.37403 0.8595 0.12826 0.0
O530 O 0.41375 0.84243 0.08396 0.0
O531 O 0.4237 0.88318 0.11487 0.0
C532 C 0.38418 0.89651 0.25742 0.0
C533 C 0.36253 0.91462 0.25018 0.0
H534 H 0.32153 0.94703 0.22703 0.0
H535 H 0.31207 0.95445 0.17006 0.0
H536 H 0.45026 0.83767 0.21643 0.0
H537 H 0.42584 0.85831 0.26214 0.0
H538 H 0.38902 0.89216 0.28191 0.0
H539 H 0.35113 0.92392 0.26922 0.0
Mn540 Mn 0.64001 0.16122 0.58754 0.0
Mn541 Mn 0.62116 0.10534 0.63873 0.0
C542 C 0.63966 0.17153 0.64137 0.0
C543 C 0.67204 0.18478 0.55744 0.0
C544 C 0.58489 0.14109 0.59581 0.0
O545 O 0.64203 0.12081 0.56174 0.0
O546 O 0.63431 0.08517 0.59995 0.0
C547 C 0.66955 0.07347 0.65421 0.0
N548 N 0.64837 0.08919 0.66369 0.0
C549 C 0.65707 0.07802 0.71834 0.0
C550 C 0.67904 0.06175 0.70922 0.0
C551 C 0.68543 0.05974 0.67702 0.0
C552 C 0.64235 0.09186 0.69462 0.0
H553 H 0.6741 0.07116 0.62942 0.0
C554 C 0.64057 0.09255 0.57166 0.0
O555 O 0.6482 0.18716 0.54984 0.0
O556 O 0.67735 0.16832 0.58236 0.0
N557 N 0.60813 0.12184 0.67745 0.0
C558 C 0.58743 0.14039 0.68231 0.0
C559 C 0.57942 0.14659 0.71335 0.0
C560 C 0.59236 0.13298 0.73895 0.0
C561 C 0.61351 0.11379 0.73327 0.0
C562 C 0.62106 0.10926 0.70192 0.0
H563 H 0.57707 0.15026 0.66267 0.0
O564 O 0.63903 0.19442 0.62116 0.0
O565 O 0.6404 0.14354 0.62945 0.0
O566 O 0.6009 0.16057 0.5846 0.0
O567 O 0.59109 0.11947 0.61509 0.0
C568 C 0.62729 0.09878 0.75745 0.0
C569 C 0.64905 0.08087 0.74997 0.0
H570 H 0.69113 0.05074 0.7267 0.0
H571 H 0.70233 0.04718 0.6698 0.0
H572 H 0.56307 0.16141 0.71752 0.0
H573 H 0.58591 0.13743 0.76284 0.0
H574 H 0.62166 0.10136 0.78193 0.0
H575 H 0.65967 0.06986 0.76882 0.0
H576 H 0.08422 0.30862 0.03672 0.0
H577 H 0.9676 0.40589 0.10888 0.0
H578 H 0.09032 0.39483 0.08931 0.0
H579 H 0.95654 0.31641 0.06327 0.0
H580 H 0.01237 0.40334 0.09653 0.0
H581 H 0.03749 0.31234 0.0405 0.0
C582 C 0.07575 0.32854 0.04855 0.0
C583 C 0.09116 0.35137 0.06288 0.0
C584 C 1.0003 0.38416 0.08909 0.0
C585 C 0.03806 0.35565 0.06745 0.0
C586 C 0.97454 0.38556 0.09623 0.0
C587 C 0.95809 0.36116 0.08741 0.0
C588 C 0.01015 0.35808 0.07305 0.0
C589 C 0.96849 0.3357 0.07068 0.0
C590 C 0.04914 0.33054 0.05088 0.0
C591 C 0.07924 0.37655 0.07813 0.0
N592 N 0.99393 0.3347 0.0642 0.0
N593 N 0.05355 0.3779 0.08009 0.0
H594 H 0.92599 0.6068 0.58596 0.0
H595 H 0.06106 0.69002 0.56156 0.0
H596 H 0.93292 0.69613 0.53915 0.0
H597 H 0.04879 0.6002 0.60602 0.0
H598 H 0.01533 0.69231 0.54902 0.0
H599 H 0.97195 0.60305 0.58854 0.0
C600 C 0.93727 0.62556 0.5759 0.0
C601 C 0.92562 0.65189 0.56249 0.0
C602 C 0.02281 0.67209 0.56135 0.0
C603 C 0.97871 0.64811 0.56591 0.0
C604 C 0.04888 0.67076 0.56853 0.0
C605 C 0.05887 0.64503 0.58519 0.0
C606 C 1.00675 0.64744 0.57078 0.0
C607 C 0.04213 0.62074 0.59351 0.0
C608 C 0.96362 0.62346 0.57744 0.0
C609 C 0.94122 0.67538 0.54963 0.0
N610 N 0.01709 0.62264 0.58633 0.0
N611 N 0.96705 0.67315 0.55201 0.0
H612 H 0.9659 0.59855 0.89217 0.0
H613 H 0.08292 0.69808 0.95983 0.0
H614 H 0.95541 0.69046 0.93276 0.0
H615 H 0.0887 0.61032 0.90985 0.0
H616 H 0.03618 0.69417 0.95683 0.0
H617 H 0.0106 0.60101 0.90504 0.0
C618 C 0.97298 0.6194 0.90381 0.0
C619 C 0.95676 0.64453 0.91098 0.0
C620 C 0.04776 0.67567 0.94687 0.0
C621 C 0.00867 0.64754 0.92591 0.0
C622 C 0.07437 0.67778 0.94876 0.0
C623 C 0.08968 0.65457 0.93489 0.0
C624 C 0.03658 0.65005 0.93124 0.0
C625 C 0.07768 0.6289 0.92062 0.0
C626 C 0.99867 0.62075 0.91127 0.0
C627 C 0.96722 0.67061 0.92662 0.0
N628 N 0.05198 0.62744 0.91909 0.0
N629 N 0.99262 0.67158 0.93334 0.0
H630 H 0.04811 0.40342 0.3851 0.0
H631 H 0.93237 0.30691 0.46023 0.0
H632 H 0.06011 0.31604 0.43438 0.0
H633 H 0.92581 0.39324 0.4079 0.0
H634 H 0.97907 0.31075 0.45601 0.0
H635 H 1.00343 0.40075 0.39771 0.0
C636 C 0.04139 0.38352 0.39862 0.0
C637 C 0.05809 0.35976 0.40842 0.0
C638 C 0.96733 0.32895 0.44578 0.0
C639 C 1.00611 0.35655 0.42312 0.0
C640 C 0.94073 0.32688 0.44837 0.0
C641 C 0.9252 0.3497 0.43421 0.0
C642 C 0.97826 0.3541 0.42911 0.0
C643 C 0.93698 0.37495 0.41893 0.0
C644 C 0.01568 0.38207 0.40592 0.0
C645 C 0.04797 0.33484 0.4262 0.0
N646 N 0.96265 0.37635 0.41669 0.0
N647 N 0.02256 0.33375 0.43283 0.0
H648 H 0.45484 0.81554 0.06099 0.0
H649 H 0.59018 0.89735 0.08812 0.0
H650 H 0.46737 0.90335 0.10925 0.0
H651 H 0.58293 0.80961 0.03842 0.0
H652 H 0.54423 0.90099 0.09133 0.0
H653 H 0.50059 0.81341 0.04862 0.0
C654 C 0.46708 0.83438 0.06886 0.0
C655 C 0.45714 0.85952 0.08645 0.0
C656 C 0.5525 0.88096 0.07947 0.0
C657 C 0.5093 0.8573 0.07224 0.0
C658 C 0.57883 0.87893 0.07757 0.0
C659 C 0.5904 0.85306 0.06315 0.0
C660 C 0.53733 0.85672 0.06724 0.0
C661 C 0.57471 0.83 0.04969 0.0
C662 C 0.49317 0.83315 0.06177 0.0
C663 C 0.47397 0.88329 0.09592 0.0
N664 N 0.54889 0.83216 0.05239 0.0
N665 N 0.49903 0.8815 0.08879 0.0
H666 H 0.54835 0.09729 0.60643 0.0
H667 H 0.43158 0.19572 0.53642 0.0
H668 H 0.55908 0.18824 0.56373 0.0
H669 H 0.42555 0.10909 0.58834 0.0
H670 H 0.47831 0.19184 0.5398 0.0
H671 H 0.50363 0.0998 0.59379 0.0
C672 C 0.54133 0.11794 0.59436 0.0
C673 C 0.55766 0.14278 0.5865 0.0
C674 C 0.46668 0.17358 0.55012 0.0
C675 C 0.50568 0.14581 0.57182 0.0
C676 C 0.44007 0.17567 0.54801 0.0
C677 C 0.42469 0.15277 0.56229 0.0
C678 C 0.47778 0.14829 0.56637 0.0
C679 C 0.43662 0.12742 0.57722 0.0
C680 C 0.51562 0.11931 0.58705 0.0
C681 C 0.54722 0.16861 0.57041 0.0
N682 N 0.46231 0.12598 0.57895 0.0
N683 N 0.52181 0.16959 0.56379 0.0
H684 H 0.58311 0.1986 0.96001 0.0
H685 H 0.46677 0.09944 0.88995 0.0
H686 H 0.58933 0.11093 0.90996 0.0
H687 H 0.45558 0.19031 0.93261 0.0
H688 H 0.5114 0.10208 0.90298 0.0
H689 H 0.53639 0.19468 0.95635 0.0
C690 C 0.57466 0.17832 0.94879 0.0
C691 C 0.5901 0.15513 0.93509 0.0
C692 C 0.49934 0.12155 0.90963 0.0
C693 C 0.53701 0.15062 0.93067 0.0
C694 C 0.47367 0.1201 0.90208 0.0
C695 C 0.45725 0.14488 0.90982 0.0
C696 C 0.50914 0.14807 0.92497 0.0
C697 C 0.46753 0.17073 0.92603 0.0
C698 C 0.54806 0.17621 0.94652 0.0
C699 C 0.57822 0.12949 0.92061 0.0
N700 N 0.49291 0.17179 0.93286 0.0
N701 N 0.55254 0.12804 0.9187 0.0
H702 H 0.42649 0.89587 0.40819 0.0
H703 H 0.56177 0.81367 0.43459 0.0
H704 H 0.4336 0.80765 0.45705 0.0
H705 H 0.5493 0.90219 0.38763 0.0
H706 H 0.516 0.81139 0.44689 0.0
H707 H 0.47244 0.8995 0.40512 0.0
C708 C 0.43781 0.87733 0.41858 0.0
C709 C 0.42619 0.85134 0.43273 0.0
C710 C 0.52345 0.83132 0.43405 0.0
C711 C 0.47928 0.85499 0.4288 0.0
C712 C 0.54954 0.83263 0.42699 0.0
C713 C 0.5595 0.85801 0.40977 0.0
C714 C 0.50732 0.85562 0.42389 0.0
C715 C 0.54269 0.88194 0.40065 0.0
C716 C 0.46414 0.87935 0.41676 0.0
C717 C 0.44185 0.82813 0.44599 0.0
N718 N 0.51762 0.88006 0.40773 0.0
N719 N 0.46768 0.83029 0.44337 0.0
H720 H 0.17016 0.37242 0.16711 0.0
H721 H 0.12092 0.28791 0.31429 0.0
H722 H 0.16889 0.2718 0.16113 0.0
H723 H 0.17829 0.35949 0.32246 0.0
H724 H 0.13268 0.28104 0.25812 0.0
H725 H 0.16999 0.36862 0.22428 0.0
C726 C 0.17051 0.3495 0.17795 0.0
C727 C 0.17188 0.3224 0.15962 0.0
C728 C 0.14282 0.29791 0.27248 0.0
C729 C 0.16613 0.31828 0.22491 0.0
C730 C 0.136 0.30202 0.30423 0.0
C731 C 0.14792 0.3253 0.32231 0.0
C732 C 0.16162 0.31722 0.25925 0.0
C733 C 0.16782 0.3424 0.30876 0.0
C734 C 0.16928 0.34744 0.21052 0.0
C735 C 0.16904 0.29326 0.17474 0.0
N736 N 0.17373 0.33848 0.27787 0.0
N737 N 0.16583 0.2919 0.20674 0.0
H738 H 0.84436 0.73363 0.66015 0.0
H739 H 0.89532 0.71749 0.81633 0.0
H740 H 0.84958 0.63334 0.66947 0.0
H741 H 0.83719 0.64664 0.82233 0.0
H742 H 0.8848 0.72477 0.7599 0.0
H743 H 0.8499 0.73847 0.71801 0.0
C744 C 0.84602 0.71269 0.67446 0.0
C745 C 0.84522 0.68292 0.6604 0.0
C746 C 0.87419 0.70799 0.77384 0.0
C747 C 0.85154 0.68826 0.72557 0.0
C748 C 0.88029 0.70367 0.80576 0.0
C749 C 0.8678 0.68049 0.82332 0.0
C750 C 0.8555 0.68898 0.75991 0.0
C751 C 0.84803 0.6637 0.80904 0.0
C752 C 0.84928 0.71549 0.7072 0.0
C753 C 0.84844 0.65656 0.6796 0.0
N754 N 0.8429 0.66769 0.77791 0.0
N755 N 0.85091 0.65983 0.71125 0.0
H756 H 0.16713 0.63285 0.82984 0.0
H757 H 0.1205 0.71666 0.6805 0.0
H758 H 0.16744 0.73358 0.83445 0.0
H759 H 0.17748 0.64443 0.67431 0.0
H760 H 0.13122 0.72364 0.73698 0.0
H761 H 0.16671 0.63591 0.77262 0.0
C762 C 0.16769 0.65563 0.81868 0.0
C763 C 0.16957 0.68294 0.83662 0.0
C764 C 0.14148 0.70656 0.72299 0.0
C765 C 0.1639 0.68634 0.77129 0.0
C766 C 0.13525 0.7024 0.69106 0.0
C767 C 0.14736 0.67893 0.67342 0.0
C768 C 0.15988 0.68711 0.73685 0.0
C769 C 0.16684 0.66164 0.68764 0.0
C770 C 0.16639 0.65728 0.78609 0.0
C771 C 0.16718 0.71194 0.82113 0.0
N772 N 0.17217 0.66562 0.71869 0.0
N773 N 0.16406 0.71296 0.7891 0.0
H774 H 0.83688 0.36064 0.17219 0.0
H775 H 0.84762 0.37252 0.33203 0.0
H776 H 0.89573 0.29158 0.1848 0.0
H777 H 0.84613 0.27172 0.33409 0.0
H778 H 0.84844 0.37093 0.2749 0.0
H779 H 0.82512 0.35485 0.22766 0.0
C780 C 0.84745 0.34441 0.18684 0.0
C781 C 0.86806 0.32766 0.17457 0.0
C782 C 0.84827 0.34918 0.2877 0.0
C783 C 0.85422 0.32016 0.23762 0.0
C784 C 0.84685 0.35003 0.3203 0.0
C785 C 0.84461 0.32231 0.33754 0.0
C786 C 0.85015 0.32044 0.2721 0.0
C787 C 0.84664 0.29367 0.32131 0.0
C788 C 0.84056 0.34087 0.21831 0.0
C789 C 0.88021 0.30557 0.1939 0.0
N790 N 0.84968 0.2934 0.28925 0.0
N791 N 0.87334 0.30271 0.22485 0.0
H792 H 0.68051 0.85828 0.32414 0.0
H793 H 0.67158 0.77122 0.16016 0.0
H794 H 0.62234 0.78799 0.31364 0.0
H795 H 0.66759 0.87169 0.16818 0.0
H796 H 0.66657 0.76728 0.21822 0.0
H797 H 0.69081 0.85297 0.26805 0.0
C798 C 0.66992 0.84171 0.30991 0.0
C799 C 0.64971 0.8247 0.32284 0.0
C800 C 0.66743 0.79008 0.20706 0.0
C801 C 0.66243 0.81717 0.25951 0.0
C802 C 0.67035 0.79237 0.17421 0.0
C803 C 0.67141 0.82193 0.15972 0.0
C804 C 0.66591 0.81757 0.22507 0.0
C805 C 0.66864 0.8486 0.1786 0.0
C806 C 0.67605 0.83842 0.27815 0.0
C807 C 0.63753 0.80219 0.30403 0.0
N808 N 0.66654 0.84581 0.21033 0.0
N809 N 0.64386 0.79929 0.27293 0.0
H810 H 0.39551 0.21708 0.81504 0.0
H811 H 0.34338 0.23399 0.65963 0.0
H812 H 0.33741 0.14622 0.82145 0.0
H813 H 0.34869 0.13365 0.66816 0.0
H814 H 0.34936 0.23842 0.71745 0.0
H815 H 0.38466 0.22446 0.75873 0.0
C816 C 0.38043 0.20325 0.80457 0.0
C817 C 0.36804 0.18005 0.82222 0.0
C818 C 0.34867 0.21551 0.70649 0.0
C819 C 0.35536 0.18868 0.75893 0.0
C820 C 0.34515 0.21296 0.67376 0.0
C821 C 0.34426 0.1833 0.65949 0.0
C822 C 0.3511 0.18816 0.72463 0.0
C823 C 0.34763 0.15679 0.67847 0.0
C824 C 0.37414 0.20763 0.77273 0.0
C825 C 0.34819 0.16328 0.80808 0.0
N826 N 0.35037 0.15983 0.71012 0.0
N827 N 0.34287 0.16733 0.77701 0.0
H828 H 0.66751 0.13269 0.83126 0.0
H829 H 0.61922 0.21502 0.68196 0.0
H830 H 0.668 0.23346 0.83476 0.0
H831 H 0.67653 0.14323 0.67519 0.0
H832 H 0.63044 0.22229 0.73824 0.0
H833 H 0.66639 0.1351 0.77403 0.0
C834 C 0.668 0.15534 0.81985 0.0
C835 C 0.67008 0.18285 0.83747 0.0
C836 C 0.64063 0.20521 0.72418 0.0
C837 C 0.66371 0.18553 0.7722 0.0
C838 C 0.63412 0.20087 0.69237 0.0
C839 C 0.64619 0.17746 0.67462 0.0
C840 C 0.65927 0.18598 0.73784 0.0
C841 C 0.66589 0.16036 0.68863 0.0
C842 C 0.66632 0.15663 0.78726 0.0
C843 C 0.66758 0.21168 0.82169 0.0
N844 N 0.67148 0.16449 0.7196 0.0
N845 N 0.66412 0.21235 0.78971 0.0
H846 H 0.33587 0.85903 0.17171 0.0
H847 H 0.34455 0.77084 0.33512 0.0
H848 H 0.39407 0.78874 0.18188 0.0
H849 H 0.34884 0.87135 0.32794 0.0
H850 H 0.34957 0.76735 0.27703 0.0
H851 H 0.32551 0.85337 0.22777 0.0
C852 C 0.34645 0.84239 0.18586 0.0
C853 C 0.36669 0.82547 0.17285 0.0
C854 C 0.34876 0.79007 0.28838 0.0
C855 C 0.3539 0.81755 0.23613 0.0
C856 C 0.34583 0.7921 0.32124 0.0
C857 C 0.34487 0.82155 0.33599 0.0
C858 C 0.35038 0.8177 0.27058 0.0
C859 C 0.34771 0.84835 0.31732 0.0
C860 C 0.3403 0.8389 0.2176 0.0
C861 C 0.37886 0.80287 0.19155 0.0
N862 N 0.34982 0.84581 0.28556 0.0
N863 N 0.37249 0.79977 0.22263 0.0
H864 H 0.29117 0.18852 0.92575 0.0
H865 H 0.26483 0.30173 0.07274 0.0
H866 H 0.3473 0.21708 0.99429 0.0
H867 H 0.20584 0.27755 0.00604 0.0
H868 H 0.29403 0.26795 0.04497 0.0
H869 H 0.25878 0.21795 0.95526 0.0
C870 C 0.29666 0.20078 0.9471 0.0
C871 C 0.32204 0.20042 0.95752 0.0
C872 C 0.27474 0.26984 0.03625 0.0
C873 C 0.28513 0.2341 0.99124 0.0
C874 C 0.2579 0.28931 0.05215 0.0
C875 C 0.23271 0.29288 0.04163 0.0
C876 C 0.26667 0.2536 0.00927 0.0
C877 C 0.22506 0.27563 0.01497 0.0
C878 C 0.27816 0.2176 0.96386 0.0
C879 C 0.32805 0.21674 0.98526 0.0
N880 N 0.24205 0.25686 -0.00046 0.0
N881 N 0.3098 0.2329 0.00101 0.0
H882 H 0.75189 0.70095 0.57321 0.0
H883 H 0.7256 0.81509 0.42694 0.0
H884 H 0.81112 0.72652 0.50736 0.0
H885 H 0.66914 0.78482 0.49432 0.0
H886 H 0.75801 0.78574 0.45649 0.0
H887 H 0.72253 0.73435 0.54526 0.0
C888 C 0.75884 0.71358 0.55276 0.0
C889 C 0.78415 0.71053 0.54254 0.0
C890 C 0.73855 0.78569 0.46483 0.0
C891 C 0.75 0.74938 0.50999 0.0
C892 C 0.72004 0.80246 0.44804 0.0
C893 C 0.69457 0.80232 0.45813 0.0
C894 C 0.7315 0.76875 0.4919 0.0
C895 C 0.68847 0.78555 0.48556 0.0
C896 C 0.74191 0.73284 0.53676 0.0
C897 C 0.79181 0.72804 0.51605 0.0
N898 N 0.70673 0.76945 0.50135 0.0
N899 N 0.77474 0.74661 0.50053 0.0
H900 H 0.34844 0.78726 0.0004 0.0
H901 H 0.20351 0.7293 0.98905 0.0
H902 H 0.29139 0.81555 0.06789 0.0
H903 H 0.26376 0.70272 0.92507 0.0
H904 H 0.23387 0.7633 0.01718 0.0
H905 H 0.31615 0.75851 0.97125 0.0
C906 C 0.32906 0.78754 0.00904 0.0
C907 C 0.32267 0.80375 0.03671 0.0
C908 C 0.24028 0.75002 0.99689 0.0
C909 C 0.28533 0.77052 0.00339 0.0
C910 C 0.22297 0.73067 0.98082 0.0
C911 C 0.23105 0.71282 0.95477 0.0
C912 C 0.26573 0.75158 0.98669 0.0
C913 C 0.25654 0.71563 0.94517 0.0
C914 C 0.31055 0.77105 0.99237 0.0
C915 C 0.29715 0.80332 0.04666 0.0
N916 N 0.27283 0.73445 0.9611 0.0
N917 N 0.27941 0.78681 0.03011 0.0
H918 H 0.66637 0.21725 0.50247 0.0
H919 H 0.81128 0.2753 0.49109 0.0
H920 H 0.72326 0.18927 0.5703 0.0
H921 H 0.75127 0.30039 0.42619 0.0
H922 H 0.7809 0.24156 0.51957 0.0
H923 H 0.69873 0.24579 0.47326 0.0
C924 C 0.68573 0.21702 0.5112 0.0
C925 C 0.69206 0.20092 0.53895 0.0
C926 C 0.77455 0.25444 0.499 0.0
C927 C 0.7295 0.2339 0.50553 0.0
C928 C 0.79188 0.27363 0.48272 0.0
C929 C 0.78387 0.29102 0.45633 0.0
C930 C 0.74915 0.2526 0.48865 0.0
C931 C 0.75844 0.28786 0.44656 0.0
C932 C 0.70429 0.23338 0.49447 0.0
C933 C 0.71755 0.20142 0.549 0.0
N934 N 0.74214 0.26923 0.46269 0.0
N935 N 0.73535 0.21779 0.53238 0.0
H936 H 0.70356 0.77744 0.00612 0.0
H937 H 0.84754 0.71562 0.99632 0.0
H938 H 0.76381 0.80166 0.07103 0.0
H939 H 0.79105 0.69031 0.92695 0.0
H940 H 0.81537 0.74466 0.02531 0.0
H941 H 0.73356 0.74298 0.97787 0.0
C942 C 0.72294 0.77546 0.01453 0.0
C943 C 0.73112 0.79279 0.04088 0.0
C944 C 0.80985 0.73272 0.00381 0.0
C945 C 0.76538 0.75348 0.00887 0.0
C946 C 0.82829 0.71606 0.98722 0.0
C947 C 0.82204 0.7006 0.95908 0.0
C948 C 0.78482 0.73422 0.99222 0.0
C949 C 0.79669 0.70194 0.94856 0.0
C950 C 0.74004 0.75584 -0.00161 0.0
C951 C 0.7565 0.7892 0.0507 0.0
N952 N 0.779 0.71863 0.96504 0.0
N953 N 0.77257 0.77013 0.03473 0.0
H954 H 0.31122 0.22776 0.50681 0.0
H955 H 0.16646 0.28627 0.49447 0.0
H956 H 0.25054 0.20127 0.57021 0.0
H957 H 0.22381 0.31439 0.4273 0.0
H958 H 0.19852 0.25718 0.52364 0.0
H959 H 0.28104 0.26172 0.47831 0.0
C960 C 0.2917 0.22912 0.51483 0.0
C961 C 0.28347 0.21132 0.54085 0.0
C962 C 0.20424 0.26975 0.50259 0.0
C963 C 0.24898 0.25006 0.50851 0.0
C964 C 0.18586 0.28643 0.48589 0.0
C965 C 0.1924 0.30272 0.45832 0.0
C966 C 0.2295 0.2691 0.49169 0.0
C967 C 0.21794 0.30211 0.44846 0.0
C968 C 0.27449 0.24846 0.49854 0.0
C969 C 0.2579 0.21413 0.55016 0.0
N970 N 0.23557 0.28543 0.46504 0.0
N971 N 0.24172 0.23294 0.53404 0.0
H972 H 0.84976 0.28509 0.00311 0.0
H973 H 0.70426 0.22943 0.99042 0.0
H974 H 0.79248 0.31511 0.06952 0.0
H975 H 0.76447 0.20254 0.92651 0.0
H976 H 0.73484 0.2628 0.01897 0.0
H977 H 0.8174 0.25648 0.97392 0.0
C978 C 0.83032 0.28575 0.01152 0.0
C979 C 0.82388 0.30246 0.03887 0.0
C980 C 0.7412 0.2496 -0.00139 0.0
C981 C 0.78644 0.26943 0.00548 0.0
C982 C 0.72376 0.23061 0.98228 0.0
C983 C 0.73174 0.21285 0.95613 0.0
C984 C 0.76671 0.25085 0.98856 0.0
C985 C 0.7573 0.21539 0.94668 0.0
C986 C 0.81176 0.26935 0.99482 0.0
C987 C 0.79829 0.30249 0.04854 0.0
N988 N 0.77372 0.23384 0.96286 0.0
N989 N 0.78049 0.2861 0.03195 0.0
H990 H 0.16811 0.71717 0.50096 0.0
H991 H 0.3128 0.77616 0.48959 0.0
H992 H 0.22487 0.69009 0.56931 0.0
H993 H 0.25239 0.80168 0.42542 0.0
H994 H 0.28259 0.7422 0.51811 0.0
H995 H 0.20039 0.74587 0.47181 0.0
C996 C 0.18743 0.71717 0.50981 0.0
C997 C 0.19373 0.70129 0.5377 0.0
C998 C 0.27611 0.75523 0.4977 0.0
C999 C 0.2311 0.73448 0.50435 0.0
C1000 C 0.29335 0.77456 0.4814 0.0
C1001 C 0.28518 0.79212 0.45518 0.0
C1002 C 0.25067 0.7534 0.48752 0.0
C1003 C 0.25969 0.78902 0.44564 0.0
C1004 C 0.20595 0.73362 0.49313 0.0
C1005 C 0.21918 0.70206 0.5479 0.0
N1006 N 0.2435 0.77024 0.46176 0.0
N1007 N 0.23695 0.71854 0.53132 0.0
H1008 H 0.14897 0.57879 0.97502 0.0
H1009 H 0.23137 0.43499 0.03802 0.0
H1010 H 0.22926 0.56944 0.95617 0.0
H1011 H 0.15032 0.42869 0.02351 0.0
H1012 H 0.23113 0.48677 0.01332 0.0
H1013 H 0.1493 0.52676 -0.00039 0.0
C1014 C 0.16674 0.56605 0.97651 0.0
C1015 C 0.18915 0.57854 0.96357 0.0
C1016 C 0.21343 0.47394 0.0153 0.0
C1017 C 0.18956 0.51899 0.99138 0.0
C1018 C 0.21356 0.44436 0.02932 0.0
C1019 C 0.19085 0.4274 0.03268 0.0
C1020 C 0.19037 0.48702 0.0051 0.0
C1021 C 0.16831 0.44079 0.02108 0.0
C1022 C 0.16684 0.53623 0.99021 0.0
C1023 C 0.21154 0.56074 0.96579 0.0
N1024 N 0.16859 0.46997 0.00809 0.0
N1025 N 0.21119 0.53194 0.97945 0.0
H1026 H 0.86634 0.57683 0.52278 0.0
H1027 H 0.7847 0.43202 0.46106 0.0
H1028 H 0.7864 0.56628 0.54331 0.0
H1029 H 0.86593 0.42679 0.47428 0.0
H1030 H 0.78469 0.48361 0.48615 0.0
H1031 H 0.86624 0.52472 0.49844 0.0
C1032 C 0.84869 0.5638 0.52174 0.0
C1033 C 0.82631 0.576 0.53504 0.0
C1034 C 0.80248 0.47105 0.48382 0.0
C1035 C 0.82618 0.51634 0.50749 0.0
C1036 C 0.80251 0.44158 0.46958 0.0
C1037 C 0.82534 0.42499 0.46571 0.0
C1038 C 0.82552 0.48439 0.49373 0.0
C1039 C 0.84786 0.4386 0.47709 0.0
C1040 C 0.84873 0.53394 0.50817 0.0
C1041 C 0.80409 0.55782 0.53339 0.0
N1042 N 0.84743 0.46768 0.49029 0.0
N1043 N 0.80457 0.52898 0.51981 0.0
H1044 H 0.86604 0.47235 0.08616 0.0
H1045 H 0.87038 0.531 0.90747 0.0
H1046 H 0.87199 0.40988 0.00619 0.0
H1047 H 0.86736 0.59314 0.98798 0.0
H1048 H 0.86618 0.48639 0.94284 0.0
H1049 H 0.8616 0.51635 0.05018 0.0
C1050 C 0.86631 0.4678 0.06098 0.0
C1051 C 0.86979 0.43732 0.04919 0.0
C1052 C 0.86627 0.50977 0.95278 0.0
C1053 C 0.8647 0.48794 0.00776 0.0
C1054 C 0.86872 0.53536 0.9326 0.0
C1055 C 0.86959 0.56599 0.94479 0.0
C1056 C 0.86473 0.5147 0.98546 0.0
C1057 C 0.86697 0.57001 0.97752 0.0
C1058 C 0.86372 0.49304 0.04044 0.0
C1059 C 0.86953 0.43296 0.01634 0.0
N1060 N 0.86488 0.54462 0.99674 0.0
N1061 N 0.8673 0.45807 0.99674 0.0
H1062 H 0.14666 0.47278 0.40831 0.0
H1063 H 0.14795 0.53174 0.58694 0.0
H1064 H 0.14607 0.41052 0.4888 0.0
H1065 H 0.14625 0.59398 0.50646 0.0
H1066 H 0.15197 0.48734 0.55134 0.0
H1067 H 0.15114 0.51717 0.44381 0.0
C1068 C 0.14756 0.46835 0.43349 0.0
C1069 C 0.14561 0.43777 0.4456 0.0
C1070 C 0.15088 0.51069 0.54143 0.0
C1071 C 0.15079 0.48884 0.48646 0.0
C1072 C 0.14853 0.53616 0.56174 0.0
C1073 C 0.14637 0.56673 0.54966 0.0
C1074 C 0.15099 0.51566 0.5087 0.0
C1075 C 0.14768 0.57087 0.51682 0.0
C1076 C 0.15018 0.49382 0.45375 0.0
C1077 C 0.14732 0.43363 0.47841 0.0
N1078 N 0.14966 0.54556 0.49746 0.0
N1079 N 0.14959 0.45894 0.49773 0.0
H1080 H 0.64918 0.07939 0.97591 0.0
H1081 H 0.73101 0.93534 0.03945 0.0
H1082 H 0.72954 0.06983 0.9576 0.0
H1083 H 0.65005 0.92926 0.0241 0.0
H1084 H 0.73099 0.9872 0.01494 0.0
H1085 H 0.64933 0.0274 0.00056 0.0
C1086 C 0.66693 0.06662 0.97754 0.0
C1087 C 0.68941 0.07902 0.96472 0.0
C1088 C 0.71327 0.97441 0.0167 0.0
C1089 C 0.68961 0.01953 0.99261 0.0
C1090 C 0.71326 0.94478 0.03061 0.0
C1091 C 0.69051 0.92784 0.03367 0.0
C1092 C 0.69029 0.98755 0.0063 0.0
C1093 C 0.66806 0.94133 0.02191 0.0
C1094 C 0.66692 0.03682 0.99127 0.0
C1095 C 0.71177 0.06119 0.96712 0.0
N1096 N 0.66847 0.97054 0.00902 0.0
N1097 N 0.71131 0.03241 0.98082 0.0
H1098 H 0.36689 0.92642 0.47416 0.0
H1099 H 0.28446 0.06874 0.54029 0.0
H1100 H 0.2864 0.93529 0.45643 0.0
H1101 H 0.36516 0.07615 0.52342 0.0
H1102 H 0.28468 0.0171 0.51527 0.0
H1103 H 0.36647 0.97814 0.49935 0.0
C1104 C 0.34907 0.93899 0.476 0.0
C1105 C 0.32663 0.92646 0.46321 0.0
C1106 C 0.30229 0.03014 0.51683 0.0
C1107 C 0.3261 0.98565 0.49176 0.0
C1108 C 0.30219 0.05964 0.53104 0.0
C1109 C 0.3248 0.0769 0.5338 0.0
C1110 C 0.32526 0.01745 0.50584 0.0
C1111 C 0.34723 0.06384 0.5215 0.0
C1112 C 0.34891 0.96863 0.49006 0.0
C1113 C 0.30415 0.94404 0.46591 0.0
N1114 N 0.34695 0.03475 0.50833 0.0
N1115 N 0.30445 0.97267 0.47994 0.0
H1116 H 0.36878 0.97318 0.0867 0.0
H1117 H 0.37033 0.03104 0.90757 0.0
H1118 H 0.37041 0.91037 0.00668 0.0
H1119 H 0.36912 0.09377 0.98768 0.0
H1120 H 0.36633 0.98674 0.94336 0.0
H1121 H 0.36485 0.01734 0.05073 0.0
C1122 C 0.36821 0.96859 0.06153 0.0
C1123 C 0.37028 0.93792 0.04971 0.0
C1124 C 0.36678 0.01017 0.95314 0.0
C1125 C 0.36577 0.9887 0.0083 0.0
C1126 C 0.36912 0.03558 0.93271 0.0
C1127 C 0.3704 0.06629 0.94463 0.0
C1128 C 0.36581 0.01534 0.98583 0.0
C1129 C 0.36837 0.07056 0.97741 0.0
C1130 C 0.36591 0.99392 0.041 0.0
C1131 C 0.36904 0.93356 0.01688 0.0
N1132 N 0.36639 0.04534 0.99688 0.0
N1133 N 0.36709 0.95871 0.99731 0.0
H1134 H 0.64654 0.09482 0.50705 0.0
H1135 H 0.64827 0.90804 0.48926 0.0
H1136 H 0.64605 0.03047 0.58587 0.0
H1137 H 0.64568 0.97222 0.41036 0.0
H1138 H 0.65226 0.95277 0.52502 0.0
H1139 H 0.65104 0.05024 0.47114 0.0
C1140 C 0.64759 0.07141 0.51684 0.0
C1141 C 0.64555 0.06643 0.54951 0.0
C1142 C 0.65097 0.957 0.49984 0.0
C1143 C 0.65063 0.01533 0.5086 0.0
C1144 C 0.64873 0.93145 0.47942 0.0
C1145 C 0.64628 0.93631 0.44677 0.0
C1146 C 0.65078 0.98761 0.48753 0.0
C1147 C 0.64714 0.96725 0.43538 0.0
C1148 C 0.65011 0.04595 0.49633 0.0
C1149 C 0.64715 0.03551 0.56083 0.0
N1150 N 0.64914 0.99168 0.45573 0.0
N1151 N 0.64941 0.01118 0.54042 0.0
loop_
_geom_bond_atom_site_label_1
_geom_bond_atom_site_label_2
_geom_bond_distance
_geom_bond_site_symmetry_2
_ccdc_geom_bond_type
Mn0 O5 2.095 . S
Mn0 O15 2.162 . S
Mn0 O16 2.297 . S
Mn0 O24 2.385 . S
Mn0 O25 2.209 . S
Mn0 O26 2.094 . S
Mn1 O6 2.121 . S
Mn1 N8 2.257 . S
Mn1 N17 2.282 . S
Mn1 O25 2.215 . S
Mn1 O27 2.117 . S
C2 O24 1.234 . S
C2 O25 1.283 . S
C3 O15 1.281 . S
C3 O16 1.236 . S
C4 O26 1.240 . S
C4 O27 1.264 . S
O5 Mn0 2.095 . S
O5 C14 1.250 . S
O6 Mn1 2.121 . S
O6 C14 1.258 . S
C7 N8 1.326 . S
C7 C11 1.460 . S
C7 H13 0.929 . S
N8 Mn1 2.257 . S
N8 C7 1.326 . S
N8 C12 1.362 . S
C9 C10 1.258 . S
C9 C12 1.431 . S
C9 C29 1.449 . S
C10 C9 1.258 . S
C10 C11 1.477 . S
C10 H30 0.931 . S
C11 C7 1.460 . S
C11 C10 1.477 . S
C11 H31 0.930 . S
C12 N8 1.362 . S
C12 C9 1.431 . S
C12 C22 1.476 . S
H13 C7 0.929 . S
C14 O5 1.250 . S
C14 O6 1.258 . S
O15 Mn0 2.162 . S
O15 C3 1.281 . S
O16 Mn0 2.297 . S
O16 C3 1.236 . S
N17 Mn1 2.282 . S
N17 C18 1.328 . S
N17 C22 1.318 . S
C18 N17 1.328 . S
C18 C19 1.457 . S
C18 H23 0.929 . S
C19 C18 1.457 . S
C19 C20 1.291 . S
C19 H32 0.931 . S
C20 C19 1.291 . S
C20 C21 1.373 . S
C20 H33 0.929 . S
C21 C20 1.373 . S
C21 C22 1.396 . S
C21 C28 1.403 . S
C22 C12 1.476 . S
C22 N17 1.318 . S
C22 C21 1.396 . S
H23 C18 0.929 . S
O24 Mn0 2.385 . S
O24 C2 1.234 . S
O25 Mn0 2.209 . S
O25 Mn1 2.215 . S
O25 C2 1.283 . S
O26 Mn0 2.094 . S
O26 C4 1.240 . S
O27 Mn1 2.117 . S
O27 C4 1.264 . S
C28 C21 1.403 . S
C28 C29 1.399 . S
C28 H34 0.929 . S
C29 C9 1.449 . S
C29 C28 1.399 . S
C29 H35 0.930 . S
H30 C10 0.931 . S
H31 C11 0.930 . S
H32 C19 0.931 . S
H33 C20 0.929 . S
H34 C28 0.929 . S
H35 C29 0.930 . S
Mn36 O41 2.095 . S
Mn36 O51 2.162 . S
Mn36 O52 2.297 . S
Mn36 O60 2.385 . S
Mn36 O61 2.209 . S
Mn36 O62 2.094 . S
Mn37 O42 2.121 . S
Mn37 N44 2.257 . S
Mn37 N53 2.282 . S
Mn37 O61 2.215 . S
Mn37 O63 2.117 . S
C38 O60 1.234 . S
C38 O61 1.283 . S
C39 O51 1.281 . S
C39 O52 1.236 . S
C40 O62 1.240 . S
C40 O63 1.264 . S
O41 Mn36 2.095 . S
O41 C50 1.250 . S
O42 Mn37 2.121 . S
O42 C50 1.258 . S
C43 N44 1.326 . S
C43 C47 1.460 . S
C43 H49 0.929 . S
N44 Mn37 2.257 . S
N44 C43 1.326 . S
N44 C48 1.362 . S
C45 C46 1.258 . S
C45 C48 1.431 . S
C45 C65 1.449 . S
C46 C45 1.258 . S
C46 C47 1.477 . S
C46 H66 0.931 . S
C47 C43 1.460 . S
C47 C46 1.477 . S
C47 H67 0.930 . S
C48 N44 1.362 . S
C48 C45 1.431 . S
C48 C58 1.476 . S
H49 C43 0.929 . S
C50 O41 1.250 . S
C50 O42 1.258 . S
O51 Mn36 2.162 . S
O51 C39 1.281 . S
O52 Mn36 2.297 . S
O52 C39 1.236 . S
N53 Mn37 2.282 . S
N53 C54 1.328 . S
N53 C58 1.318 . S
C54 N53 1.328 . S
C54 C55 1.457 . S
C54 H59 0.929 . S
C55 C54 1.457 . S
C55 C56 1.291 . S
C55 H68 0.931 . S
C56 C55 1.291 . S
C56 C57 1.373 . S
C56 H69 0.929 . S
C57 C56 1.373 . S
C57 C58 1.396 . S
C57 C64 1.403 . S
C58 C48 1.476 . S
C58 N53 1.318 . S
C58 C57 1.396 . S
H59 C54 0.929 . S
O60 Mn36 2.385 . S
O60 C38 1.234 . S
O61 Mn36 2.209 . S
O61 Mn37 2.215 . S
O61 C38 1.283 . S
O62 Mn36 2.094 . S
O62 C40 1.240 . S
O63 Mn37 2.117 . S
O63 C40 1.264 . S
C64 C57 1.403 . S
C64 C65 1.399 . S
C64 H70 0.929 . S
C65 C45 1.449 . S
C65 C64 1.399 . S
C65 H71 0.930 . S
H66 C46 0.931 . S
H67 C47 0.930 . S
H68 C55 0.931 . S
H69 C56 0.929 . S
H70 C64 0.929 . S
H71 C65 0.930 . S
Mn72 O77 2.095 . S
Mn72 O87 2.162 . S
Mn72 O88 2.297 . S
Mn72 O96 2.385 . S
Mn72 O97 2.209 . S
Mn72 O98 2.094 . S
Mn73 O78 2.121 . S
Mn73 N80 2.257 . S
Mn73 N89 2.282 . S
Mn73 O97 2.215 . S
Mn73 O99 2.117 . S
C74 O96 1.234 . S
C74 O97 1.283 . S
C75 O87 1.281 . S
C75 O88 1.236 . S
C76 O98 1.240 . S
C76 O99 1.264 . S
O77 Mn72 2.095 . S
O77 C86 1.250 . S
O78 Mn73 2.121 . S
O78 C86 1.258 . S
C79 N80 1.326 . S
C79 C83 1.460 . S
C79 H85 0.929 . S
N80 Mn73 2.257 . S
N80 C79 1.326 . S
N80 C84 1.362 . S
C81 C82 1.258 . S
C81 C84 1.431 . S
C81 C101 1.449 . S
C82 C81 1.258 . S
C82 C83 1.477 . S
C82 H102 0.931 . S
C83 C79 1.460 . S
C83 C82 1.477 . S
C83 H103 0.930 . S
C84 N80 1.362 . S
C84 C81 1.431 . S
C84 C94 1.476 . S
H85 C79 0.929 . S
C86 O77 1.250 . S
C86 O78 1.258 . S
O87 Mn72 2.162 . S
O87 C75 1.281 . S
O88 Mn72 2.297 . S
O88 C75 1.236 . S
N89 Mn73 2.282 . S
N89 C90 1.328 . S
N89 C94 1.318 . S
C90 N89 1.328 . S
C90 C91 1.457 . S
C90 H95 0.929 . S
C91 C90 1.457 . S
C91 C92 1.291 . S
C91 H104 0.931 . S
C92 C91 1.291 . S
C92 C93 1.373 . S
C92 H105 0.929 . S
C93 C92 1.373 . S
C93 C94 1.396 . S
C93 C100 1.403 . S
C94 C84 1.476 . S
C94 N89 1.318 . S
C94 C93 1.396 . S
H95 C90 0.929 . S
O96 Mn72 2.385 . S
O96 C74 1.234 . S
O97 Mn72 2.209 . S
O97 Mn73 2.215 . S
O97 C74 1.283 . S
O98 Mn72 2.094 . S
O98 C76 1.240 . S
O99 Mn73 2.117 . S
O99 C76 1.264 . S
C100 C93 1.403 . S
C100 C101 1.399 . S
C100 H106 0.929 . S
C101 C81 1.449 . S
C101 C100 1.399 . S
C101 H107 0.930 . S
H102 C82 0.931 . S
H103 C83 0.930 . S
H104 C91 0.931 . S
H105 C92 0.929 . S
H106 C100 0.929 . S
H107 C101 0.930 . S
Mn108 O113 2.095 . S
Mn108 O123 2.162 . S
Mn108 O124 2.297 . S
Mn108 O132 2.385 . S
Mn108 O133 2.209 . S
Mn108 O134 2.094 . S
Mn109 O114 2.121 . S
Mn109 N116 2.257 . S
Mn109 N125 2.282 . S
Mn109 O133 2.215 . S
Mn109 O135 2.117 . S
C110 O132 1.234 . S
C110 O133 1.283 . S
C111 O123 1.281 . S
C111 O124 1.236 . S
C112 O134 1.240 . S
C112 O135 1.264 . S
O113 Mn108 2.095 . S
O113 C122 1.250 . S
O114 Mn109 2.121 . S
O114 C122 1.258 . S
C115 N116 1.326 . S
C115 C119 1.460 . S
C115 H121 0.929 . S
N116 Mn109 2.257 . S
N116 C115 1.326 . S
N116 C120 1.362 . S
C117 C118 1.258 . S
C117 C120 1.431 . S
C117 C137 1.449 . S
C118 C117 1.258 . S
C118 C119 1.477 . S
C118 H138 0.931 . S
C119 C115 1.460 . S
C119 C118 1.477 . S
C119 H139 0.930 . S
C120 N116 1.362 . S
C120 C117 1.431 . S
C120 C130 1.476 . S
H121 C115 0.929 . S
C122 O113 1.250 . S
C122 O114 1.258 . S
O123 Mn108 2.162 . S
O123 C111 1.281 . S
O124 Mn108 2.297 . S
O124 C111 1.236 . S
N125 Mn109 2.282 . S
N125 C126 1.328 . S
N125 C130 1.318 . S
C126 N125 1.328 . S
C126 C127 1.457 . S
C126 H131 0.929 . S
C127 C126 1.457 . S
C127 C128 1.291 . S
C127 H140 0.931 . S
C128 C127 1.291 . S
C128 C129 1.373 . S
C128 H141 0.929 . S
C129 C128 1.373 . S
C129 C130 1.396 . S
C129 C136 1.403 . S
C130 C120 1.476 . S
C130 N125 1.318 . S
C130 C129 1.396 . S
H131 C126 0.929 . S
O132 Mn108 2.385 . S
O132 C110 1.234 . S
O133 Mn108 2.209 . S
O133 Mn109 2.215 . S
O133 C110 1.283 . S
O134 Mn108 2.094 . S
O134 C112 1.240 . S
O135 Mn109 2.117 . S
O135 C112 1.264 . S
C136 C129 1.403 . S
C136 C137 1.399 . S
C136 H142 0.929 . S
C137 C117 1.449 . S
C137 C136 1.399 . S
C137 H143 0.930 . S
H138 C118 0.931 . S
H139 C119 0.930 . S
H140 C127 0.931 . S
H141 C128 0.929 . S
H142 C136 0.929 . S
H143 C137 0.930 . S
Mn144 O149 2.095 . S
Mn144 O159 2.162 . S
Mn144 O160 2.297 . S
Mn144 O168 2.385 . S
Mn144 O169 2.209 . S
Mn144 O170 2.094 . S
Mn145 O150 2.121 . S
Mn145 N152 2.257 . S
Mn145 N161 2.282 . S
Mn145 O169 2.215 . S
Mn145 O171 2.117 . S
C146 O168 1.234 . S
C146 O169 1.283 . S
C147 O159 1.281 . S
C147 O160 1.236 . S
C148 O170 1.240 . S
C148 O171 1.264 . S
O149 Mn144 2.095 . S
O149 C158 1.250 . S
O150 Mn145 2.121 . S
O150 C158 1.258 . S
C151 N152 1.326 . S
C151 C155 1.460 . S
C151 H157 0.929 . S
N152 Mn145 2.257 . S
N152 C151 1.326 . S
N152 C156 1.362 . S
C153 C154 1.258 . S
C153 C156 1.431 . S
C153 C173 1.449 . S
C154 C153 1.258 . S
C154 C155 1.477 . S
C154 H174 0.931 . S
C155 C151 1.460 . S
C155 C154 1.477 . S
C155 H175 0.930 . S
C156 N152 1.362 . S
C156 C153 1.431 . S
C156 C166 1.476 . S
H157 C151 0.929 . S
C158 O149 1.250 . S
C158 O150 1.258 . S
O159 Mn144 2.162 . S
O159 C147 1.281 . S
O160 Mn144 2.297 . S
O160 C147 1.236 . S
N161 Mn145 2.282 . S
N161 C162 1.328 . S
N161 C166 1.318 . S
C162 N161 1.328 . S
C162 C163 1.457 . S
C162 H167 0.929 . S
C163 C162 1.457 . S
C163 C164 1.291 . S
C163 H176 0.931 . S
C164 C163 1.291 . S
C164 C165 1.373 . S
C164 H177 0.929 . S
C165 C164 1.373 . S
C165 C166 1.396 . S
C165 C172 1.403 . S
C166 C156 1.476 . S
C166 N161 1.318 . S
C166 C165 1.396 . S
H167 C162 0.929 . S
O168 Mn144 2.385 . S
O168 C146 1.234 . S
O169 Mn144 2.209 . S
O169 Mn145 2.215 . S
O169 C146 1.283 . S
O170 Mn144 2.094 . S
O170 C148 1.240 . S
O171 Mn145 2.117 . S
O171 C148 1.264 . S
C172 C165 1.403 . S
C172 C173 1.399 . S
C172 H178 0.929 . S
C173 C153 1.449 . S
C173 C172 1.399 . S
C173 H179 0.930 . S
H174 C154 0.931 . S
H175 C155 0.930 . S
H176 C163 0.931 . S
H177 C164 0.929 . S
H178 C172 0.929 . S
H179 C173 0.930 . S
Mn180 O185 2.095 . S
Mn180 O195 2.162 . S
Mn180 O196 2.297 . S
Mn180 O204 2.385 . S
Mn180 O205 2.209 . S
Mn180 O206 2.094 . S
Mn181 O186 2.121 . S
Mn181 N188 2.257 . S
Mn181 N197 2.282 . S
Mn181 O205 2.215 . S
Mn181 O207 2.117 . S
C182 O204 1.234 . S
C182 O205 1.283 . S
C183 O195 1.281 . S
C183 O196 1.236 . S
C184 O206 1.240 . S
C184 O207 1.264 . S
O185 Mn180 2.095 . S
O185 C194 1.250 . S
O186 Mn181 2.121 . S
O186 C194 1.258 . S
C187 N188 1.326 . S
C187 C191 1.460 . S
C187 H193 0.929 . S
N188 Mn181 2.257 . S
N188 C187 1.326 . S
N188 C192 1.362 . S
C189 C190 1.258 . S
C189 C192 1.431 . S
C189 C209 1.449 . S
C190 C189 1.258 . S
C190 C191 1.477 . S
C190 H210 0.931 . S
C191 C187 1.460 . S
C191 C190 1.477 . S
C191 H211 0.930 . S
C192 N188 1.362 . S
C192 C189 1.431 . S
C192 C202 1.476 . S
H193 C187 0.929 . S
C194 O185 1.250 . S
C194 O186 1.258 . S
O195 Mn180 2.162 . S
O195 C183 1.281 . S
O196 Mn180 2.297 . S
O196 C183 1.236 . S
N197 Mn181 2.282 . S
N197 C198 1.328 . S
N197 C202 1.318 . S
C198 N197 1.328 . S
C198 C199 1.457 . S
C198 H203 0.929 . S
C199 C198 1.457 . S
C199 C200 1.291 . S
C199 H212 0.931 . S
C200 C199 1.291 . S
C200 C201 1.373 . S
C200 H213 0.929 . S
C201 C200 1.373 . S
C201 C202 1.396 . S
C201 C208 1.403 . S
C202 C192 1.476 . S
C202 N197 1.318 . S
C202 C201 1.396 . S
H203 C198 0.929 . S
O204 Mn180 2.385 . S
O204 C182 1.234 . S
O205 Mn180 2.209 . S
O205 Mn181 2.215 . S
O205 C182 1.283 . S
O206 Mn180 2.094 . S
O206 C184 1.240 . S
O207 Mn181 2.117 . S
O207 C184 1.264 . S
C208 C201 1.403 . S
C208 C209 1.399 . S
C208 H214 0.929 . S
C209 C189 1.449 . S
C209 C208 1.399 . S
C209 H215 0.930 . S
H210 C190 0.931 . S
H211 C191 0.930 . S
H212 C199 0.931 . S
H213 C200 0.929 . S
H214 C208 0.929 . S
H215 C209 0.930 . S
Mn216 O221 2.095 . S
Mn216 O231 2.162 . S
Mn216 O232 2.297 . S
Mn216 O240 2.385 . S
Mn216 O241 2.209 . S
Mn216 O242 2.094 . S
Mn217 O222 2.121 . S
Mn217 N224 2.257 . S
Mn217 N233 2.282 . S
Mn217 O241 2.215 . S
Mn217 O243 2.117 . S
C218 O240 1.234 . S
C218 O241 1.283 . S
C219 O231 1.281 . S
C219 O232 1.236 . S
C220 O242 1.240 . S
C220 O243 1.264 . S
O221 Mn216 2.095 . S
O221 C230 1.250 . S
O222 Mn217 2.121 . S
O222 C230 1.258 . S
C223 N224 1.326 . S
C223 C227 1.460 . S
C223 H229 0.929 . S
N224 Mn217 2.257 . S
N224 C223 1.326 . S
N224 C228 1.362 . S
C225 C226 1.258 . S
C225 C228 1.431 . S
C225 C245 1.449 . S
C226 C225 1.258 . S
C226 C227 1.477 . S
C226 H246 0.931 . S
C227 C223 1.460 . S
C227 C226 1.477 . S
C227 H247 0.930 . S
C228 N224 1.362 . S
C228 C225 1.431 . S
C228 C238 1.476 . S
H229 C223 0.929 . S
C230 O221 1.250 . S
C230 O222 1.258 . S
O231 Mn216 2.162 . S
O231 C219 1.281 . S
O232 Mn216 2.297 . S
O232 C219 1.236 . S
N233 Mn217 2.282 . S
N233 C234 1.328 . S
N233 C238 1.318 . S
C234 N233 1.328 . S
C234 C235 1.457 . S
C234 H239 0.929 . S
C235 C234 1.457 . S
C235 C236 1.291 . S
C235 H248 0.931 . S
C236 C235 1.291 . S
C236 C237 1.373 . S
C236 H249 0.929 . S
C237 C236 1.373 . S
C237 C238 1.396 . S
C237 C244 1.403 . S
C238 C228 1.476 . S
C238 N233 1.318 . S
C238 C237 1.396 . S
H239 C234 0.929 . S
O240 Mn216 2.385 . S
O240 C218 1.234 . S
O241 Mn216 2.209 . S
O241 Mn217 2.215 . S
O241 C218 1.283 . S
O242 Mn216 2.094 . S
O242 C220 1.240 . S
O243 Mn217 2.117 . S
O243 C220 1.264 . S
C244 C237 1.403 . S
C244 C245 1.399 . S
C244 H250 0.929 . S
C245 C225 1.449 . S
C245 C244 1.399 . S
C245 H251 0.930 . S
H246 C226 0.931 . S
H247 C227 0.930 . S
H248 C235 0.931 . S
H249 C236 0.929 . S
H250 C244 0.929 . S
H251 C245 0.930 . S
Mn252 O257 2.095 . S
Mn252 O267 2.162 . S
Mn252 O268 2.297 . S
Mn252 O276 2.385 . S
Mn252 O277 2.209 . S
Mn252 O278 2.094 . S
Mn253 O258 2.121 . S
Mn253 N260 2.257 . S
Mn253 N269 2.282 . S
Mn253 O277 2.215 . S
Mn253 O279 2.117 . S
C254 O276 1.234 . S
C254 O277 1.283 . S
C255 O267 1.281 . S
C255 O268 1.236 . S
C256 O278 1.240 . S
C256 O279 1.264 . S
O257 Mn252 2.095 . S
O257 C266 1.250 . S
O258 Mn253 2.121 . S
O258 C266 1.258 . S
C259 N260 1.326 . S
C259 C263 1.460 . S
C259 H265 0.929 . S
N260 Mn253 2.257 . S
N260 C259 1.326 . S
N260 C264 1.362 . S
C261 C262 1.258 . S
C261 C264 1.431 . S
C261 C281 1.449 . S
C262 C261 1.258 . S
C262 C263 1.477 . S
C262 H282 0.931 . S
C263 C259 1.460 . S
C263 C262 1.477 . S
C263 H283 0.930 . S
C264 N260 1.362 . S
C264 C261 1.431 . S
C264 C274 1.476 . S
H265 C259 0.929 . S
C266 O257 1.250 . S
C266 O258 1.258 . S
O267 Mn252 2.162 . S
O267 C255 1.281 . S
O268 Mn252 2.297 . S
O268 C255 1.236 . S
N269 Mn253 2.282 . S
N269 C270 1.328 . S
N269 C274 1.318 . S
C270 N269 1.328 . S
C270 C271 1.457 . S
C270 H275 0.929 . S
C271 C270 1.457 . S
C271 C272 1.291 . S
C271 H284 0.931 . S
C272 C271 1.291 . S
C272 C273 1.373 . S
C272 H285 0.929 . S
C273 C272 1.373 . S
C273 C274 1.396 . S
C273 C280 1.403 . S
C274 C264 1.476 . S
C274 N269 1.318 . S
C274 C273 1.396 . S
H275 C270 0.929 . S
O276 Mn252 2.385 . S
O276 C254 1.234 . S
O277 Mn252 2.209 . S
O277 Mn253 2.215 . S
O277 C254 1.283 . S
O278 Mn252 2.094 . S
O278 C256 1.240 . S
O279 Mn253 2.117 . S
O279 C256 1.264 . S
C280 C273 1.403 . S
C280 C281 1.399 . S
C280 H286 0.929 . S
C281 C261 1.449 . S
C281 C280 1.399 . S
C281 H287 0.930 . S
H282 C262 0.931 . S
H283 C263 0.930 . S
H284 C271 0.931 . S
H285 C272 0.929 . S
H286 C280 0.929 . S
H287 C281 0.930 . S
Mn288 O293 2.095 . S
Mn288 O303 2.162 . S
Mn288 O304 2.297 . S
Mn288 O312 2.385 . S
Mn288 O313 2.209 . S
Mn288 O314 2.094 . S
Mn289 O294 2.121 . S
Mn289 N296 2.257 . S
Mn289 N305 2.282 . S
Mn289 O313 2.215 . S
Mn289 O315 2.117 . S
C290 O312 1.234 . S
C290 O313 1.283 . S
C291 O303 1.281 . S
C291 O304 1.236 . S
C292 O314 1.240 . S
C292 O315 1.264 . S
O293 Mn288 2.095 . S
O293 C302 1.250 . S
O294 Mn289 2.121 . S
O294 C302 1.258 . S
C295 N296 1.326 . S
C295 C299 1.460 . S
C295 H301 0.929 . S
N296 Mn289 2.257 . S
N296 C295 1.326 . S
N296 C300 1.362 . S
C297 C298 1.258 . S
C297 C300 1.431 . S
C297 C317 1.449 . S
C298 C297 1.258 . S
C298 C299 1.477 . S
C298 H318 0.931 . S
C299 C295 1.460 . S
C299 C298 1.477 . S
C299 H319 0.930 . S
C300 N296 1.362 . S
C300 C297 1.431 . S
C300 C310 1.476 . S
H301 C295 0.929 . S
C302 O293 1.250 . S
C302 O294 1.258 . S
O303 Mn288 2.162 . S
O303 C291 1.281 . S
O304 Mn288 2.297 . S
O304 C291 1.236 . S
N305 Mn289 2.282 . S
N305 C306 1.328 . S
N305 C310 1.318 . S
C306 N305 1.328 . S
C306 C307 1.457 . S
C306 H311 0.929 . S
C307 C306 1.457 . S
C307 C308 1.291 . S
C307 H320 0.931 . S
C308 C307 1.291 . S
C308 C309 1.373 . S
C308 H321 0.929 . S
C309 C308 1.373 . S
C309 C310 1.396 . S
C309 C316 1.403 . S
C310 C300 1.476 . S
C310 N305 1.318 . S
C310 C309 1.396 . S
H311 C306 0.929 . S
O312 Mn288 2.385 . S
O312 C290 1.234 . S
O313 Mn288 2.209 . S
O313 Mn289 2.215 . S
O313 C290 1.283 . S
O314 Mn288 2.094 . S
O314 C292 1.240 . S
O315 Mn289 2.117 . S
O315 C292 1.264 . S
C316 C309 1.403 . S
C316 C317 1.399 . S
C316 H322 0.929 . S
C317 C297 1.449 . S
C317 C316 1.399 . S
C317 H323 0.930 . S
H318 C298 0.931 . S
H319 C299 0.930 . S
H320 C307 0.931 . S
H321 C308 0.929 . S
H322 C316 0.929 . S
H323 C317 0.930 . S
Mn324 O329 2.095 . S
Mn324 O339 2.162 . S
Mn324 O340 2.297 . S
Mn324 O348 2.385 . S
Mn324 O349 2.209 . S
Mn324 O350 2.094 . S
Mn325 O330 2.121 . S
Mn325 N332 2.257 . S
Mn325 N341 2.282 . S
Mn325 O349 2.215 . S
Mn325 O351 2.117 . S
C326 O348 1.234 . S
C326 O349 1.283 . S
C327 O339 1.281 . S
C327 O340 1.236 . S
C328 O350 1.240 . S
C328 O351 1.264 . S
O329 Mn324 2.095 . S
O329 C338 1.250 . S
O330 Mn325 2.121 . S
O330 C338 1.258 . S
C331 N332 1.326 . S
C331 C335 1.460 . S
C331 H337 0.929 . S
N332 Mn325 2.257 . S
N332 C331 1.326 . S
N332 C336 1.362 . S
C333 C334 1.258 . S
C333 C336 1.431 . S
C333 C353 1.449 . S
C334 C333 1.258 . S
C334 C335 1.477 . S
C334 H354 0.931 . S
C335 C331 1.460 . S
C335 C334 1.477 . S
C335 H355 0.930 . S
C336 N332 1.362 . S
C336 C333 1.431 . S
C336 C346 1.476 . S
H337 C331 0.929 . S
C338 O329 1.250 . S
C338 O330 1.258 . S
O339 Mn324 2.162 . S
O339 C327 1.281 . S
O340 Mn324 2.297 . S
O340 C327 1.236 . S
N341 Mn325 2.282 . S
N341 C342 1.328 . S
N341 C346 1.318 . S
C342 N341 1.328 . S
C342 C343 1.457 . S
C342 H347 0.929 . S
C343 C342 1.457 . S
C343 C344 1.291 . S
C343 H356 0.931 . S
C344 C343 1.291 . S
C344 C345 1.373 . S
C344 H357 0.929 . S
C345 C344 1.373 . S
C345 C346 1.396 . S
C345 C352 1.403 . S
C346 C336 1.476 . S
C346 N341 1.318 . S
C346 C345 1.396 . S
H347 C342 0.929 . S
O348 Mn324 2.385 . S
O348 C326 1.234 . S
O349 Mn324 2.209 . S
O349 Mn325 2.215 . S
O349 C326 1.283 . S
O350 Mn324 2.094 . S
O350 C328 1.240 . S
O351 Mn325 2.117 . S
O351 C328 1.264 . S
C352 C345 1.403 . S
C352 C353 1.399 . S
C352 H358 0.929 . S
C353 C333 1.449 . S
C353 C352 1.399 . S
C353 H359 0.930 . S
H354 C334 0.931 . S
H355 C335 0.930 . S
H356 C343 0.931 . S
H357 C344 0.929 . S
H358 C352 0.929 . S
H359 C353 0.930 . S
Mn360 O365 2.095 . S
Mn360 O375 2.162 . S
Mn360 O376 2.297 . S
Mn360 O384 2.385 . S
Mn360 O385 2.209 . S
Mn360 O386 2.094 . S
Mn361 O366 2.121 . S
Mn361 N368 2.257 . S
Mn361 N377 2.282 . S
Mn361 O385 2.215 . S
Mn361 O387 2.117 . S
C362 O384 1.234 . S
C362 O385 1.283 . S
C363 O375 1.281 . S
C363 O376 1.236 . S
C364 O386 1.240 . S
C364 O387 1.264 . S
O365 Mn360 2.095 . S
O365 C374 1.250 . S
O366 Mn361 2.121 . S
O366 C374 1.258 . S
C367 N368 1.326 . S
C367 C371 1.460 . S
C367 H373 0.929 . S
N368 Mn361 2.257 . S
N368 C367 1.326 . S
N368 C372 1.362 . S
C369 C370 1.258 . S
C369 C372 1.431 . S
C369 C389 1.449 . S
C370 C369 1.258 . S
C370 C371 1.477 . S
C370 H390 0.931 . S
C371 C367 1.460 . S
C371 C370 1.477 . S
C371 H391 0.930 . S
C372 N368 1.362 . S
C372 C369 1.431 . S
C372 C382 1.476 . S
H373 C367 0.929 . S
C374 O365 1.250 . S
C374 O366 1.258 . S
O375 Mn360 2.162 . S
O375 C363 1.281 . S
O376 Mn360 2.297 . S
O376 C363 1.236 . S
N377 Mn361 2.282 . S
N377 C378 1.328 . S
N377 C382 1.318 . S
C378 N377 1.328 . S
C378 C379 1.457 . S
C378 H383 0.929 . S
C379 C378 1.457 . S
C379 C380 1.291 . S
C379 H392 0.931 . S
C380 C379 1.291 . S
C380 C381 1.373 . S
C380 H393 0.929 . S
C381 C380 1.373 . S
C381 C382 1.396 . S
C381 C388 1.403 . S
C382 C372 1.476 . S
C382 N377 1.318 . S
C382 C381 1.396 . S
H383 C378 0.929 . S
O384 Mn360 2.385 . S
O384 C362 1.234 . S
O385 Mn360 2.209 . S
O385 Mn361 2.215 . S
O385 C362 1.283 . S
O386 Mn360 2.094 . S
O386 C364 1.240 . S
O387 Mn361 2.117 . S
O387 C364 1.264 . S
C388 C381 1.403 . S
C388 C389 1.399 . S
C388 H394 0.929 . S
C389 C369 1.449 . S
C389 C388 1.399 . S
C389 H395 0.930 . S
H390 C370 0.931 . S
H391 C371 0.930 . S
H392 C379 0.931 . S
H393 C380 0.929 . S
H394 C388 0.929 . S
H395 C389 0.930 . S
Mn396 O401 2.095 . S
Mn396 O411 2.162 . S
Mn396 O412 2.297 . S
Mn396 O420 2.385 . S
Mn396 O421 2.209 . S
Mn396 O422 2.094 . S
Mn397 O402 2.121 . S
Mn397 N404 2.257 . S
Mn397 N413 2.282 . S
Mn397 O421 2.215 . S
Mn397 O423 2.117 . S
C398 O420 1.234 . S
C398 O421 1.283 . S
C399 O411 1.281 . S
C399 O412 1.236 . S
C400 O422 1.240 . S
C400 O423 1.264 . S
O401 Mn396 2.095 . S
O401 C410 1.250 . S
O402 Mn397 2.121 . S
O402 C410 1.258 . S
C403 N404 1.326 . S
C403 C407 1.460 . S
C403 H409 0.929 . S
N404 Mn397 2.257 . S
N404 C403 1.326 . S
N404 C408 1.362 . S
C405 C406 1.258 . S
C405 C408 1.431 . S
C405 C425 1.449 . S
C406 C405 1.258 . S
C406 C407 1.477 . S
C406 H426 0.931 . S
C407 C403 1.460 . S
C407 C406 1.477 . S
C407 H427 0.930 . S
C408 N404 1.362 . S
C408 C405 1.431 . S
C408 C418 1.476 . S
H409 C403 0.929 . S
C410 O401 1.250 . S
C410 O402 1.258 . S
O411 Mn396 2.162 . S
O411 C399 1.281 . S
O412 Mn396 2.297 . S
O412 C399 1.236 . S
N413 Mn397 2.282 . S
N413 C414 1.328 . S
N413 C418 1.318 . S
C414 N413 1.328 . S
C414 C415 1.457 . S
C414 H419 0.929 . S
C415 C414 1.457 . S
C415 C416 1.291 . S
C415 H428 0.931 . S
C416 C415 1.291 . S
C416 C417 1.373 . S
C416 H429 0.929 . S
C417 C416 1.373 . S
C417 C418 1.396 . S
C417 C424 1.403 . S
C418 C408 1.476 . S
C418 N413 1.318 . S
C418 C417 1.396 . S
H419 C414 0.929 . S
O420 Mn396 2.385 . S
O420 C398 1.234 . S
O421 Mn396 2.209 . S
O421 Mn397 2.215 . S
O421 C398 1.283 . S
O422 Mn396 2.094 . S
O422 C400 1.240 . S
O423 Mn397 2.117 . S
O423 C400 1.264 . S
C424 C417 1.403 . S
C424 C425 1.399 . S
C424 H430 0.929 . S
C425 C405 1.449 . S
C425 C424 1.399 . S
C425 H431 0.930 . S
H426 C406 0.931 . S
H427 C407 0.930 . S
H428 C415 0.931 . S
H429 C416 0.929 . S
H430 C424 0.929 . S
H431 C425 0.930 . S
Mn432 O437 2.095 . S
Mn432 O447 2.162 . S
Mn432 O448 2.297 . S
Mn432 O456 2.385 . S
Mn432 O457 2.209 . S
Mn432 O458 2.094 . S
Mn433 O438 2.121 . S
Mn433 N440 2.257 . S
Mn433 N449 2.282 . S
Mn433 O457 2.215 . S
Mn433 O459 2.117 . S
C434 O456 1.234 . S
C434 O457 1.283 . S
C435 O447 1.281 . S
C435 O448 1.236 . S
C436 O458 1.240 . S
C436 O459 1.264 . S
O437 Mn432 2.095 . S
O437 C446 1.250 . S
O438 Mn433 2.121 . S
O438 C446 1.258 . S
C439 N440 1.326 . S
C439 C443 1.460 . S
C439 H445 0.929 . S
N440 Mn433 2.257 . S
N440 C439 1.326 . S
N440 C444 1.362 . S
C441 C442 1.258 . S
C441 C444 1.431 . S
C441 C461 1.449 . S
C442 C441 1.258 . S
C442 C443 1.477 . S
C442 H462 0.931 . S
C443 C439 1.460 . S
C443 C442 1.477 . S
C443 H463 0.930 . S
C444 N440 1.362 . S
C444 C441 1.431 . S
C444 C454 1.476 . S
H445 C439 0.929 . S
C446 O437 1.250 . S
C446 O438 1.258 . S
O447 Mn432 2.162 . S
O447 C435 1.281 . S
O448 Mn432 2.297 . S
O448 C435 1.236 . S
N449 Mn433 2.282 . S
N449 C450 1.328 . S
N449 C454 1.318 . S
C450 N449 1.328 . S
C450 C451 1.457 . S
C450 H455 0.929 . S
C451 C450 1.457 . S
C451 C452 1.291 . S
C451 H464 0.931 . S
C452 C451 1.291 . S
C452 C453 1.373 . S
C452 H465 0.929 . S
C453 C452 1.373 . S
C453 C454 1.396 . S
C453 C460 1.403 . S
C454 C444 1.476 . S
C454 N449 1.318 . S
C454 C453 1.396 . S
H455 C450 0.929 . S
O456 Mn432 2.385 . S
O456 C434 1.234 . S
O457 Mn432 2.209 . S
O457 Mn433 2.215 . S
O457 C434 1.283 . S
O458 Mn432 2.094 . S
O458 C436 1.240 . S
O459 Mn433 2.117 . S
O459 C436 1.264 . S
C460 C453 1.403 . S
C460 C461 1.399 . S
C460 H466 0.929 . S
C461 C441 1.449 . S
C461 C460 1.399 . S
C461 H467 0.930 . S
H462 C442 0.931 . S
H463 C443 0.930 . S
H464 C451 0.931 . S
H465 C452 0.929 . S
H466 C460 0.929 . S
H467 C461 0.930 . S
Mn468 O473 2.095 . S
Mn468 O483 2.162 . S
Mn468 O484 2.297 . S
Mn468 O492 2.385 . S
Mn468 O493 2.209 . S
Mn468 O494 2.094 . S
Mn469 O474 2.121 . S
Mn469 N476 2.257 . S
Mn469 N485 2.282 . S
Mn469 O493 2.215 . S
Mn469 O495 2.117 . S
C470 O492 1.234 . S
C470 O493 1.283 . S
C471 O483 1.281 . S
C471 O484 1.236 . S
C472 O494 1.240 . S
C472 O495 1.264 . S
O473 Mn468 2.095 . S
O473 C482 1.250 . S
O474 Mn469 2.121 . S
O474 C482 1.258 . S
C475 N476 1.326 . S
C475 C479 1.460 . S
C475 H481 0.929 . S
N476 Mn469 2.257 . S
N476 C475 1.326 . S
N476 C480 1.362 . S
C477 C478 1.258 . S
C477 C480 1.431 . S
C477 C497 1.449 . S
C478 C477 1.258 . S
C478 C479 1.477 . S
C478 H498 0.931 . S
C479 C475 1.460 . S
C479 C478 1.477 . S
C479 H499 0.930 . S
C480 N476 1.362 . S
C480 C477 1.431 . S
C480 C490 1.476 . S
H481 C475 0.929 . S
C482 O473 1.250 . S
C482 O474 1.258 . S
O483 Mn468 2.162 . S
O483 C471 1.281 . S
O484 Mn468 2.297 . S
O484 C471 1.236 . S
N485 Mn469 2.282 . S
N485 C486 1.328 . S
N485 C490 1.318 . S
C486 N485 1.328 . S
C486 C487 1.457 . S
C486 H491 0.929 . S
C487 C486 1.457 . S
C487 C488 1.291 . S
C487 H500 0.931 . S
C488 C487 1.291 . S
C488 C489 1.373 . S
C488 H501 0.929 . S
C489 C488 1.373 . S
C489 C490 1.396 . S
C489 C496 1.403 . S
C490 C480 1.476 . S
C490 N485 1.318 . S
C490 C489 1.396 . S
H491 C486 0.929 . S
O492 Mn468 2.385 . S
O492 C470 1.234 . S
O493 Mn468 2.209 . S
O493 Mn469 2.215 . S
O493 C470 1.283 . S
O494 Mn468 2.094 . S
O494 C472 1.240 . S
O495 Mn469 2.117 . S
O495 C472 1.264 . S
C496 C489 1.403 . S
C496 C497 1.399 . S
C496 H502 0.929 . S
C497 C477 1.449 . S
C497 C496 1.399 . S
C497 H503 0.930 . S
H498 C478 0.931 . S
H499 C479 0.930 . S
H500 C487 0.931 . S
H501 C488 0.929 . S
H502 C496 0.929 . S
H503 C497 0.930 . S
Mn504 O509 2.095 . S
Mn504 O519 2.162 . S
Mn504 O520 2.297 . S
Mn504 O528 2.385 . S
Mn504 O529 2.209 . S
Mn504 O530 2.094 . S
Mn505 O510 2.121 . S
Mn505 N512 2.257 . S
Mn505 N521 2.282 . S
Mn505 O529 2.215 . S
Mn505 O531 2.117 . S
C506 O528 1.234 . S
C506 O529 1.283 . S
C507 O519 1.281 . S
C507 O520 1.236 . S
C508 O530 1.240 . S
C508 O531 1.264 . S
O509 Mn504 2.095 . S
O509 C518 1.250 . S
O510 Mn505 2.121 . S
O510 C518 1.258 . S
C511 N512 1.326 . S
C511 C515 1.460 . S
C511 H517 0.929 . S
N512 Mn505 2.257 . S
N512 C511 1.326 . S
N512 C516 1.362 . S
C513 C514 1.258 . S
C513 C516 1.431 . S
C513 C533 1.449 . S
C514 C513 1.258 . S
C514 C515 1.477 . S
C514 H534 0.931 . S
C515 C511 1.460 . S
C515 C514 1.477 . S
C515 H535 0.930 . S
C516 N512 1.362 . S
C516 C513 1.431 . S
C516 C526 1.476 . S
H517 C511 0.929 . S
C518 O509 1.250 . S
C518 O510 1.258 . S
O519 Mn504 2.162 . S
O519 C507 1.281 . S
O520 Mn504 2.297 . S
O520 C507 1.236 . S
N521 Mn505 2.282 . S
N521 C522 1.328 . S
N521 C526 1.318 . S
C522 N521 1.328 . S
C522 C523 1.457 . S
C522 H527 0.929 . S
C523 C522 1.457 . S
C523 C524 1.291 . S
C523 H536 0.931 . S
C524 C523 1.291 . S
C524 C525 1.373 . S
C524 H537 0.929 . S
C525 C524 1.373 . S
C525 C526 1.396 . S
C525 C532 1.403 . S
C526 C516 1.476 . S
C526 N521 1.318 . S
C526 C525 1.396 . S
H527 C522 0.929 . S
O528 Mn504 2.385 . S
O528 C506 1.234 . S
O529 Mn504 2.209 . S
O529 Mn505 2.215 . S
O529 C506 1.283 . S
O530 Mn504 2.094 . S
O530 C508 1.240 . S
O531 Mn505 2.117 . S
O531 C508 1.264 . S
C532 C525 1.403 . S
C532 C533 1.399 . S
C532 H538 0.929 . S
C533 C513 1.449 . S
C533 C532 1.399 . S
C533 H539 0.930 . S
H534 C514 0.931 . S
H535 C515 0.930 . S
H536 C523 0.931 . S
H537 C524 0.929 . S
H538 C532 0.929 . S
H539 C533 0.930 . S
Mn540 O545 2.095 . S
Mn540 O555 2.162 . S
Mn540 O556 2.297 . S
Mn540 O564 2.385 . S
Mn540 O565 2.209 . S
Mn540 O566 2.094 . S
Mn541 O546 2.121 . S
Mn541 N548 2.257 . S
Mn541 N557 2.282 . S
Mn541 O565 2.215 . S
Mn541 O567 2.117 . S
C542 O564 1.234 . S
C542 O565 1.283 . S
C543 O555 1.281 . S
C543 O556 1.236 . S
C544 O566 1.240 . S
C544 O567 1.264 . S
O545 Mn540 2.095 . S
O545 C554 1.250 . S
O546 Mn541 2.121 . S
O546 C554 1.258 . S
C547 N548 1.326 . S
C547 C551 1.460 . S
C547 H553 0.929 . S
N548 Mn541 2.257 . S
N548 C547 1.326 . S
N548 C552 1.362 . S
C549 C550 1.258 . S
C549 C552 1.431 . S
C549 C569 1.449 . S
C550 C549 1.258 . S
C550 C551 1.477 . S
C550 H570 0.931 . S
C551 C547 1.460 . S
C551 C550 1.477 . S
C551 H571 0.930 . S
C552 N548 1.362 . S
C552 C549 1.431 . S
C552 C562 1.476 . S
H553 C547 0.929 . S
C554 O545 1.250 . S
C554 O546 1.258 . S
O555 Mn540 2.162 . S
O555 C543 1.281 . S
O556 Mn540 2.297 . S
O556 C543 1.236 . S
N557 Mn541 2.282 . S
N557 C558 1.328 . S
N557 C562 1.318 . S
C558 N557 1.328 . S
C558 C559 1.457 . S
C558 H563 0.929 . S
C559 C558 1.457 . S
C559 C560 1.291 . S
C559 H572 0.931 . S
C560 C559 1.291 . S
C560 C561 1.373 . S
C560 H573 0.929 . S
C561 C560 1.373 . S
C561 C562 1.396 . S
C561 C568 1.403 . S
C562 C552 1.476 . S
C562 N557 1.318 . S
C562 C561 1.396 . S
H563 C558 0.929 . S
O564 Mn540 2.385 . S
O564 C542 1.234 . S
O565 Mn540 2.209 . S
O565 Mn541 2.215 . S
O565 C542 1.283 . S
O566 Mn540 2.094 . S
O566 C544 1.240 . S
O567 Mn541 2.117 . S
O567 C544 1.264 . S
C568 C561 1.403 . S
C568 C569 1.399 . S
C568 H574 0.929 . S
C569 C549 1.449 . S
C569 C568 1.399 . S
C569 H575 0.930 . S
H570 C550 0.931 . S
H571 C551 0.930 . S
H572 C559 0.931 . S
H573 C560 0.929 . S
H574 C568 0.929 . S
H575 C569 0.930 . S
H576 C582 0.930 . S
H577 C586 0.930 . S
H578 C591 0.929 . S
H579 C589 0.929 . S
H580 C584 0.929 . S
H581 C590 0.929 . S
C582 H576 0.930 . S
C582 C583 1.367 . S
C582 C590 1.378 . S
C583 C582 1.367 . S
C583 C591 1.433 . S
C584 H580 0.929 . S
C584 C586 1.378 . S
C584 C588 1.350 . S
C585 C588 1.463 1_455 S
C585 C590 1.350 . S
C585 N593 1.427 . S
C586 H577 0.930 . S
C586 C584 1.378 . S
C586 C587 1.367 . S
C587 C586 1.367 . S
C587 C589 1.433 . S
C588 C584 1.350 . S
C588 C585 1.463 1_655 S
C588 N592 1.427 . S
C589 H579 0.929 . S
C589 C587 1.433 . S
C589 N592 1.384 . S
C590 H581 0.929 . S
C590 C582 1.378 . S
C590 C585 1.350 . S
C591 H578 0.929 . S
C591 C583 1.433 . S
C591 N593 1.384 . S
N592 C588 1.427 . S
N592 C589 1.384 . S
N593 C585 1.427 . S
N593 C591 1.384 . S
H594 C600 0.930 . S
H595 C604 0.930 . S
H596 C609 0.929 . S
H597 C607 0.929 . S
H598 C602 0.929 . S
H599 C608 0.929 . S
C600 H594 0.930 . S
C600 C601 1.367 . S
C600 C608 1.378 . S
C601 C600 1.367 . S
C601 C609 1.433 . S
C602 H598 0.929 . S
C602 C604 1.378 . S
C602 C606 1.350 . S
C603 C606 1.463 1_655 S
C603 C608 1.350 . S
C603 N611 1.427 . S
C604 H595 0.930 . S
C604 C602 1.378 . S
C604 C605 1.367 . S
C605 C604 1.367 . S
C605 C607 1.433 . S
C606 C602 1.350 . S
C606 C603 1.463 1_455 S
C606 N610 1.427 . S
C607 H597 0.929 . S
C607 C605 1.433 . S
C607 N610 1.384 . S
C608 H599 0.929 . S
C608 C600 1.378 . S
C608 C603 1.350 . S
C609 H596 0.929 . S
C609 C601 1.433 . S
C609 N611 1.384 . S
N610 C606 1.427 . S
N610 C607 1.384 . S
N611 C603 1.427 . S
N611 C609 1.384 . S
H612 C618 0.930 . S
H613 C622 0.930 . S
H614 C627 0.929 . S
H615 C625 0.929 . S
H616 C620 0.929 . S
H617 C626 0.929 . S
C618 H612 0.930 . S
C618 C619 1.367 . S
C618 C626 1.378 . S
C619 C618 1.367 . S
C619 C627 1.433 . S
C620 H616 0.929 . S
C620 C622 1.378 . S
C620 C624 1.350 . S
C621 C624 1.463 1_655 S
C621 C626 1.350 . S
C621 N629 1.427 . S
C622 H613 0.930 . S
C622 C620 1.378 . S
C622 C623 1.367 . S
C623 C622 1.367 . S
C623 C625 1.433 . S
C624 C620 1.350 . S
C624 C621 1.463 1_455 S
C624 N628 1.427 . S
C625 H615 0.929 . S
C625 C623 1.433 . S
C625 N628 1.384 . S
C626 H617 0.929 . S
C626 C618 1.378 . S
C626 C621 1.350 . S
C627 H614 0.929 . S
C627 C619 1.433 . S
C627 N629 1.384 . S
N628 C624 1.427 . S
N628 C625 1.384 . S
N629 C621 1.427 . S
N629 C627 1.384 . S
H630 C636 0.930 . S
H631 C640 0.930 . S
H632 C645 0.929 . S
H633 C643 0.929 . S
H634 C638 0.929 . S
H635 C644 0.929 . S
C636 H630 0.930 . S
C636 C637 1.367 . S
C636 C644 1.378 . S
C637 C636 1.367 . S
C637 C645 1.433 . S
C638 H634 0.929 . S
C638 C640 1.378 . S
C638 C642 1.350 . S
C639 C642 1.463 1_455 S
C639 C644 1.350 . S
C639 N647 1.427 . S
C640 H631 0.930 . S
C640 C638 1.378 . S
C640 C641 1.367 . S
C641 C640 1.367 . S
C641 C643 1.433 . S
C642 C638 1.350 . S
C642 C639 1.463 1_655 S
C642 N646 1.427 . S
C643 H633 0.929 . S
C643 C641 1.433 . S
C643 N646 1.384 . S
C644 H635 0.929 . S
C644 C636 1.378 . S
C644 C639 1.350 . S
C645 H632 0.929 . S
C645 C637 1.433 . S
C645 N647 1.384 . S
N646 C642 1.427 . S
N646 C643 1.384 . S
N647 C639 1.427 . S
N647 C645 1.384 . S
H648 C654 0.930 . S
H649 C658 0.930 . S
H650 C663 0.929 . S
H651 C661 0.929 . S
H652 C656 0.929 . S
H653 C662 0.929 . S
C654 H648 0.930 . S
C654 C655 1.367 . S
C654 C662 1.378 . S
C655 C654 1.367 . S
C655 C663 1.433 . S
C656 H652 0.929 . S
C656 C658 1.378 . S
C656 C660 1.350 . S
C657 C660 1.463 . S
C657 C662 1.350 . S
C657 N665 1.427 . S
C658 H649 0.930 . S
C658 C656 1.378 . S
C658 C659 1.367 . S
C659 C658 1.367 . S
C659 C661 1.433 . S
C660 C656 1.350 . S
C660 C657 1.463 . S
C660 N664 1.427 . S
C661 H651 0.929 . S
C661 C659 1.433 . S
C661 N664 1.384 . S
C662 H653 0.929 . S
C662 C654 1.378 . S
C662 C657 1.350 . S
C663 H650 0.929 . S
C663 C655 1.433 . S
C663 N665 1.384 . S
N664 C660 1.427 . S
N664 C661 1.384 . S
N665 C657 1.427 . S
N665 C663 1.384 . S
H666 C672 0.930 . S
H667 C676 0.930 . S
H668 C681 0.929 . S
H669 C679 0.929 . S
H670 C674 0.929 . S
H671 C680 0.929 . S
C672 H666 0.930 . S
C672 C673 1.367 . S
C672 C680 1.378 . S
C673 C672 1.367 . S
C673 C681 1.433 . S
C674 H670 0.929 . S
C674 C676 1.378 . S
C674 C678 1.350 . S
C675 C678 1.463 . S
C675 C680 1.350 . S
C675 N683 1.427 . S
C676 H667 0.930 . S
C676 C674 1.378 . S
C676 C677 1.367 . S
C677 C676 1.367 . S
C677 C679 1.433 . S
C678 C674 1.350 . S
C678 C675 1.463 . S
C678 N682 1.427 . S
C679 H669 0.929 . S
C679 C677 1.433 . S
C679 N682 1.384 . S
C680 H671 0.929 . S
C680 C672 1.378 . S
C680 C675 1.350 . S
C681 H668 0.929 . S
C681 C673 1.433 . S
C681 N683 1.384 . S
N682 C678 1.427 . S
N682 C679 1.384 . S
N683 C675 1.427 . S
N683 C681 1.384 . S
H684 C690 0.930 . S
H685 C694 0.930 . S
H686 C699 0.929 . S
H687 C697 0.929 . S
H688 C692 0.929 . S
H689 C698 0.929 . S
C690 H684 0.930 . S
C690 C691 1.367 . S
C690 C698 1.378 . S
C691 C690 1.367 . S
C691 C699 1.433 . S
C692 H688 0.929 . S
C692 C694 1.378 . S
C692 C696 1.350 . S
C693 C696 1.463 . S
C693 C698 1.350 . S
C693 N701 1.427 . S
C694 H685 0.930 . S
C694 C692 1.378 . S
C694 C695 1.367 . S
C695 C694 1.367 . S
C695 C697 1.433 . S
C696 C692 1.350 . S
C696 C693 1.463 . S
C696 N700 1.427 . S
C697 H687 0.929 . S
C697 C695 1.433 . S
C697 N700 1.384 . S
C698 H689 0.929 . S
C698 C690 1.378 . S
C698 C693 1.350 . S
C699 H686 0.929 . S
C699 C691 1.433 . S
C699 N701 1.384 . S
N700 C696 1.427 . S
N700 C697 1.384 . S
N701 C693 1.427 . S
N701 C699 1.384 . S
H702 C708 0.930 . S
H703 C712 0.930 . S
H704 C717 0.929 . S
H705 C715 0.929 . S
H706 C710 0.929 . S
H707 C716 0.929 . S
C708 H702 0.930 . S
C708 C709 1.367 . S
C708 C716 1.378 . S
C709 C708 1.367 . S
C709 C717 1.433 . S
C710 H706 0.929 . S
C710 C712 1.378 . S
C710 C714 1.350 . S
C711 C714 1.463 . S
C711 C716 1.350 . S
C711 N719 1.427 . S
C712 H703 0.930 . S
C712 C710 1.378 . S
C712 C713 1.367 . S
C713 C712 1.367 . S
C713 C715 1.433 . S
C714 C710 1.350 . S
C714 C711 1.463 . S
C714 N718 1.427 . S
C715 H705 0.929 . S
C715 C713 1.433 . S
C715 N718 1.384 . S
C716 H707 0.929 . S
C716 C708 1.378 . S
C716 C711 1.350 . S
C717 H704 0.929 . S
C717 C709 1.433 . S
C717 N719 1.384 . S
N718 C714 1.427 . S
N718 C715 1.384 . S
N719 C711 1.427 . S
N719 C717 1.384 . S
H720 C726 0.930 . S
H721 C730 0.930 . S
H722 C735 0.929 . S
H723 C733 0.929 . S
H724 C728 0.929 . S
H725 C734 0.929 . S
C726 H720 0.930 . S
C726 C727 1.367 . S
C726 C734 1.378 . S
C727 C726 1.367 . S
C727 C735 1.433 . S
C728 H724 0.929 . S
C728 C730 1.378 . S
C728 C732 1.350 . S
C729 C732 1.463 . S
C729 C734 1.350 . S
C729 N737 1.427 . S
C730 H721 0.930 . S
C730 C728 1.378 . S
C730 C731 1.367 . S
C731 C730 1.367 . S
C731 C733 1.433 . S
C732 C728 1.350 . S
C732 C729 1.463 . S
C732 N736 1.427 . S
C733 H723 0.929 . S
C733 C731 1.433 . S
C733 N736 1.384 . S
C734 H725 0.929 . S
C734 C726 1.378 . S
C734 C729 1.350 . S
C735 H722 0.929 . S
C735 C727 1.433 . S
C735 N737 1.384 . S
N736 C732 1.427 . S
N736 C733 1.384 . S
N737 C729 1.427 . S
N737 C735 1.384 . S
H738 C744 0.930 . S
H739 C748 0.930 . S
H740 C753 0.929 . S
H741 C751 0.929 . S
H742 C746 0.929 . S
H743 C752 0.929 . S
C744 H738 0.930 . S
C744 C745 1.367 . S
C744 C752 1.378 . S
C745 C744 1.367 . S
C745 C753 1.433 . S
C746 H742 0.929 . S
C746 C748 1.378 . S
C746 C750 1.350 . S
C747 C750 1.463 . S
C747 C752 1.350 . S
C747 N755 1.427 . S
C748 H739 0.930 . S
C748 C746 1.378 . S
C748 C749 1.367 . S
C749 C748 1.367 . S
C749 C751 1.433 . S
C750 C746 1.350 . S
C750 C747 1.463 . S
C750 N754 1.427 . S
C751 H741 0.929 . S
C751 C749 1.433 . S
C751 N754 1.384 . S
C752 H743 0.929 . S
C752 C744 1.378 . S
C752 C747 1.350 . S
C753 H740 0.929 . S
C753 C745 1.433 . S
C753 N755 1.384 . S
N754 C750 1.427 . S
N754 C751 1.384 . S
N755 C747 1.427 . S
N755 C753 1.384 . S
H756 C762 0.930 . S
H757 C766 0.930 . S
H758 C771 0.929 . S
H759 C769 0.929 . S
H760 C764 0.929 . S
H761 C770 0.929 . S
C762 H756 0.930 . S
C762 C763 1.367 . S
C762 C770 1.378 . S
C763 C762 1.367 . S
C763 C771 1.433 . S
C764 H760 0.929 . S
C764 C766 1.378 . S
C764 C768 1.350 . S
C765 C768 1.463 . S
C765 C770 1.350 . S
C765 N773 1.427 . S
C766 H757 0.930 . S
C766 C764 1.378 . S
C766 C767 1.367 . S
C767 C766 1.367 . S
C767 C769 1.433 . S
C768 C764 1.350 . S
C768 C765 1.463 . S
C768 N772 1.427 . S
C769 H759 0.929 . S
C769 C767 1.433 . S
C769 N772 1.384 . S
C770 H761 0.929 . S
C770 C762 1.378 . S
C770 C765 1.350 . S
C771 H758 0.929 . S
C771 C763 1.433 . S
C771 N773 1.384 . S
N772 C768 1.427 . S
N772 C769 1.384 . S
N773 C765 1.427 . S
N773 C771 1.384 . S
H774 C780 0.930 . S
H775 C784 0.930 . S
H776 C789 0.929 . S
H777 C787 0.929 . S
H778 C782 0.929 . S
H779 C788 0.929 . S
C780 H774 0.930 . S
C780 C781 1.367 . S
C780 C788 1.378 . S
C781 C780 1.367 . S
C781 C789 1.433 . S
C782 H778 0.929 . S
C782 C784 1.378 . S
C782 C786 1.350 . S
C783 C786 1.463 . S
C783 C788 1.350 . S
C783 N791 1.427 . S
C784 H775 0.930 . S
C784 C782 1.378 . S
C784 C785 1.367 . S
C785 C784 1.367 . S
C785 C787 1.433 . S
C786 C782 1.350 . S
C786 C783 1.463 . S
C786 N790 1.427 . S
C787 H777 0.929 . S
C787 C785 1.433 . S
C787 N790 1.384 . S
C788 H779 0.929 . S
C788 C780 1.378 . S
C788 C783 1.350 . S
C789 H776 0.929 . S
C789 C781 1.433 . S
C789 N791 1.384 . S
N790 C786 1.427 . S
N790 C787 1.384 . S
N791 C783 1.427 . S
N791 C789 1.384 . S
H792 C798 0.930 . S
H793 C802 0.930 . S
H794 C807 0.929 . S
H795 C805 0.929 . S
H796 C800 0.929 . S
H797 C806 0.929 . S
C798 H792 0.930 . S
C798 C799 1.367 . S
C798 C806 1.378 . S
C799 C798 1.367 . S
C799 C807 1.433 . S
C800 H796 0.929 . S
C800 C802 1.378 . S
C800 C804 1.350 . S
C801 C804 1.463 . S
C801 C806 1.350 . S
C801 N809 1.427 . S
C802 H793 0.930 . S
C802 C800 1.378 . S
C802 C803 1.367 . S
C803 C802 1.367 . S
C803 C805 1.433 . S
C804 C800 1.350 . S
C804 C801 1.463 . S
C804 N808 1.427 . S
C805 H795 0.929 . S
C805 C803 1.433 . S
C805 N808 1.384 . S
C806 H797 0.929 . S
C806 C798 1.378 . S
C806 C801 1.350 . S
C807 H794 0.929 . S
C807 C799 1.433 . S
C807 N809 1.384 . S
N808 C804 1.427 . S
N808 C805 1.384 . S
N809 C801 1.427 . S
N809 C807 1.384 . S
H810 C816 0.930 . S
H811 C820 0.930 . S
H812 C825 0.929 . S
H813 C823 0.929 . S
H814 C818 0.929 . S
H815 C824 0.929 . S
C816 H810 0.930 . S
C816 C817 1.367 . S
C816 C824 1.378 . S
C817 C816 1.367 . S
C817 C825 1.433 . S
C818 H814 0.929 . S
C818 C820 1.378 . S
C818 C822 1.350 . S
C819 C822 1.463 . S
C819 C824 1.350 . S
C819 N827 1.427 . S
C820 H811 0.930 . S
C820 C818 1.378 . S
C820 C821 1.367 . S
C821 C820 1.367 . S
C821 C823 1.433 . S
C822 C818 1.350 . S
C822 C819 1.463 . S
C822 N826 1.427 . S
C823 H813 0.929 . S
C823 C821 1.433 . S
C823 N826 1.384 . S
C824 H815 0.929 . S
C824 C816 1.378 . S
C824 C819 1.350 . S
C825 H812 0.929 . S
C825 C817 1.433 . S
C825 N827 1.384 . S
N826 C822 1.427 . S
N826 C823 1.384 . S
N827 C819 1.427 . S
N827 C825 1.384 . S
H828 C834 0.930 . S
H829 C838 0.930 . S
H830 C843 0.929 . S
H831 C841 0.929 . S
H832 C836 0.929 . S
H833 C842 0.929 . S
C834 H828 0.930 . S
C834 C835 1.367 . S
C834 C842 1.378 . S
C835 C834 1.367 . S
C835 C843 1.433 . S
C836 H832 0.929 . S
C836 C838 1.378 . S
C836 C840 1.350 . S
C837 C840 1.463 . S
C837 C842 1.350 . S
C837 N845 1.427 . S
C838 H829 0.930 . S
C838 C836 1.378 . S
C838 C839 1.367 . S
C839 C838 1.367 . S
C839 C841 1.433 . S
C840 C836 1.350 . S
C840 C837 1.463 . S
C840 N844 1.427 . S
C841 H831 0.929 . S
C841 C839 1.433 . S
C841 N844 1.384 . S
C842 H833 0.929 . S
C842 C834 1.378 . S
C842 C837 1.350 . S
C843 H830 0.929 . S
C843 C835 1.433 . S
C843 N845 1.384 . S
N844 C840 1.427 . S
N844 C841 1.384 . S
N845 C837 1.427 . S
N845 C843 1.384 . S
H846 C852 0.930 . S
H847 C856 0.930 . S
H848 C861 0.929 . S
H849 C859 0.929 . S
H850 C854 0.929 . S
H851 C860 0.929 . S
C852 H846 0.930 . S
C852 C853 1.367 . S
C852 C860 1.378 . S
C853 C852 1.367 . S
C853 C861 1.433 . S
C854 H850 0.929 . S
C854 C856 1.378 . S
C854 C858 1.350 . S
C855 C858 1.463 . S
C855 C860 1.350 . S
C855 N863 1.427 . S
C856 H847 0.930 . S
C856 C854 1.378 . S
C856 C857 1.367 . S
C857 C856 1.367 . S
C857 C859 1.433 . S
C858 C854 1.350 . S
C858 C855 1.463 . S
C858 N862 1.427 . S
C859 H849 0.929 . S
C859 C857 1.433 . S
C859 N862 1.384 . S
C860 H851 0.929 . S
C860 C852 1.378 . S
C860 C855 1.350 . S
C861 H848 0.929 . S
C861 C853 1.433 . S
C861 N863 1.384 . S
N862 C858 1.427 . S
N862 C859 1.384 . S
N863 C855 1.427 . S
N863 C861 1.384 . S
H864 C870 0.930 . S
H865 C874 0.930 . S
H866 C879 0.929 . S
H867 C877 0.929 . S
H868 C872 0.929 . S
H869 C878 0.929 . S
C870 H864 0.930 . S
C870 C871 1.367 . S
C870 C878 1.378 . S
C871 C870 1.367 . S
C871 C879 1.433 . S
C872 H868 0.929 . S
C872 C874 1.378 . S
C872 C876 1.350 . S
C873 C876 1.463 1_556 S
C873 C878 1.350 . S
C873 N881 1.427 . S
C874 H865 0.930 . S
C874 C872 1.378 . S
C874 C875 1.367 . S
C875 C874 1.367 . S
C875 C877 1.433 . S
C876 C872 1.350 . S
C876 C873 1.463 1_554 S
C876 N880 1.427 . S
C877 H867 0.929 . S
C877 C875 1.433 . S
C877 N880 1.384 . S
C878 H869 0.929 . S
C878 C870 1.378 . S
C878 C873 1.350 . S
C879 H866 0.929 . S
C879 C871 1.433 . S
C879 N881 1.384 . S
N880 C876 1.427 . S
N880 C877 1.384 . S
N881 C873 1.427 . S
N881 C879 1.384 . S
H882 C888 0.930 . S
H883 C892 0.930 . S
H884 C897 0.929 . S
H885 C895 0.929 . S
H886 C890 0.929 . S
H887 C896 0.929 . S
C888 H882 0.930 . S
C888 C889 1.367 . S
C888 C896 1.378 . S
C889 C888 1.367 . S
C889 C897 1.433 . S
C890 H886 0.929 . S
C890 C892 1.378 . S
C890 C894 1.350 . S
C891 C894 1.463 . S
C891 C896 1.350 . S
C891 N899 1.427 . S
C892 H883 0.930 . S
C892 C890 1.378 . S
C892 C893 1.367 . S
C893 C892 1.367 . S
C893 C895 1.433 . S
C894 C890 1.350 . S
C894 C891 1.463 . S
C894 N898 1.427 . S
C895 H885 0.929 . S
C895 C893 1.433 . S
C895 N898 1.384 . S
C896 H887 0.929 . S
C896 C888 1.378 . S
C896 C891 1.350 . S
C897 H884 0.929 . S
C897 C889 1.433 . S
C897 N899 1.384 . S
N898 C894 1.427 . S
N898 C895 1.384 . S
N899 C891 1.427 . S
N899 C897 1.384 . S
H900 C906 0.930 . S
H901 C910 0.930 . S
H902 C915 0.929 . S
H903 C913 0.929 . S
H904 C908 0.929 . S
H905 C914 0.929 . S
C906 H900 0.930 . S
C906 C907 1.367 . S
C906 C914 1.378 . S
C907 C906 1.367 . S
C907 C915 1.433 . S
C908 H904 0.929 . S
C908 C910 1.378 . S
C908 C912 1.350 . S
C909 C912 1.463 1_554 S
C909 C914 1.350 . S
C909 N917 1.427 1_554 S
C910 H901 0.930 . S
C910 C908 1.378 . S
C910 C911 1.367 . S
C911 C910 1.367 . S
C911 C913 1.433 . S
C912 C908 1.350 . S
C912 C909 1.463 1_556 S
C912 N916 1.427 1_556 S
C913 H903 0.929 . S
C913 C911 1.433 . S
C913 N916 1.384 1_556 S
C914 H905 0.929 . S
C914 C906 1.378 . S
C914 C909 1.350 . S
C915 H902 0.929 . S
C915 C907 1.433 . S
C915 N917 1.384 1_554 S
N916 C912 1.427 1_554 S
N916 C913 1.384 1_554 S
N917 C909 1.427 1_556 S
N917 C915 1.384 1_556 S
H918 C924 0.930 . S
H919 C928 0.930 . S
H920 C933 0.929 . S
H921 C931 0.929 . S
H922 C926 0.929 . S
H923 C932 0.929 . S
C924 H918 0.930 . S
C924 C925 1.367 . S
C924 C932 1.378 . S
C925 C924 1.367 . S
C925 C933 1.433 . S
C926 H922 0.929 . S
C926 C928 1.378 . S
C926 C930 1.350 . S
C927 C930 1.463 . S
C927 C932 1.350 . S
C927 N935 1.427 . S
C928 H919 0.930 . S
C928 C926 1.378 . S
C928 C929 1.367 . S
C929 C928 1.367 . S
C929 C931 1.433 . S
C930 C926 1.350 . S
C930 C927 1.463 . S
C930 N934 1.427 . S
C931 H921 0.929 . S
C931 C929 1.433 . S
C931 N934 1.384 . S
C932 H923 0.929 . S
C932 C924 1.378 . S
C932 C927 1.350 . S
C933 H920 0.929 . S
C933 C925 1.433 . S
C933 N935 1.384 . S
N934 C930 1.427 . S
N934 C931 1.384 . S
N935 C927 1.427 . S
N935 C933 1.384 . S
H936 C942 0.930 1_556 S
H937 C946 0.930 1_554 S
H938 C951 0.929 . S
H939 C949 0.929 . S
H940 C944 0.929 . S
H941 C950 0.929 . S
C942 H936 0.930 1_554 S
C942 C943 1.367 . S
C942 C950 1.378 1_554 S
C943 C942 1.367 . S
C943 C951 1.433 . S
C944 H940 0.929 . S
C944 C946 1.378 1_554 S
C944 C948 1.350 1_554 S
C945 C948 1.463 1_554 S
C945 C950 1.350 1_554 S
C945 N953 1.427 . S
C946 H937 0.930 1_556 S
C946 C944 1.378 1_556 S
C946 C947 1.367 . S
C947 C946 1.367 . S
C947 C949 1.433 . S
C948 C944 1.350 1_556 S
C948 C945 1.463 1_556 S
C948 N952 1.427 . S
C949 H939 0.929 . S
C949 C947 1.433 . S
C949 N952 1.384 . S
C950 H941 0.929 . S
C950 C942 1.378 1_556 S
C950 C945 1.350 1_556 S
C951 H938 0.929 . S
C951 C943 1.433 . S
C951 N953 1.384 . S
N952 C948 1.427 . S
N952 C949 1.384 . S
N953 C945 1.427 . S
N953 C951 1.384 . S
H954 C960 0.930 . S
H955 C964 0.930 . S
H956 C969 0.929 . S
H957 C967 0.929 . S
H958 C962 0.929 . S
H959 C968 0.929 . S
C960 H954 0.930 . S
C960 C961 1.367 . S
C960 C968 1.378 . S
C961 C960 1.367 . S
C961 C969 1.433 . S
C962 H958 0.929 . S
C962 C964 1.378 . S
C962 C966 1.350 . S
C963 C966 1.463 . S
C963 C968 1.350 . S
C963 N971 1.427 . S
C964 H955 0.930 . S
C964 C962 1.378 . S
C964 C965 1.367 . S
C965 C964 1.367 . S
C965 C967 1.433 . S
C966 C962 1.350 . S
C966 C963 1.463 . S
C966 N970 1.427 . S
C967 H957 0.929 . S
C967 C965 1.433 . S
C967 N970 1.384 . S
C968 H959 0.929 . S
C968 C960 1.378 . S
C968 C963 1.350 . S
C969 H956 0.929 . S
C969 C961 1.433 . S
C969 N971 1.384 . S
N970 C966 1.427 . S
N970 C967 1.384 . S
N971 C963 1.427 . S
N971 C969 1.384 . S
H972 C978 0.930 . S
H973 C982 0.930 . S
H974 C987 0.929 . S
H975 C985 0.929 . S
H976 C980 0.929 1_554 S
H977 C986 0.929 1_556 S
C978 H972 0.930 . S
C978 C979 1.367 . S
C978 C986 1.378 . S
C979 C978 1.367 . S
C979 C987 1.433 . S
C980 H976 0.929 1_556 S
C980 C982 1.378 . S
C980 C984 1.350 . S
C981 C984 1.463 1_554 S
C981 C986 1.350 . S
C981 N989 1.427 . S
C982 H973 0.930 . S
C982 C980 1.378 . S
C982 C983 1.367 . S
C983 C982 1.367 . S
C983 C985 1.433 . S
C984 C980 1.350 . S
C984 C981 1.463 1_556 S
C984 N988 1.427 . S
C985 H975 0.929 . S
C985 C983 1.433 . S
C985 N988 1.384 . S
C986 H977 0.929 1_554 S
C986 C978 1.378 . S
C986 C981 1.350 . S
C987 H974 0.929 . S
C987 C979 1.433 . S
C987 N989 1.384 . S
N988 C984 1.427 . S
N988 C985 1.384 . S
N989 C981 1.427 . S
N989 C987 1.384 . S
H990 C996 0.930 . S
H991 C1000 0.930 . S
H992 C1005 0.929 . S
H993 C1003 0.929 . S
H994 C998 0.929 . S
H995 C1004 0.929 . S
C996 H990 0.930 . S
C996 C997 1.367 . S
C996 C1004 1.378 . S
C997 C996 1.367 . S
C997 C1005 1.433 . S
C998 H994 0.929 . S
C998 C1000 1.378 . S
C998 C1002 1.350 . S
C999 C1002 1.463 . S
C999 C1004 1.350 . S
C999 N1007 1.427 . S
C1000 H991 0.930 . S
C1000 C998 1.378 . S
C1000 C1001 1.367 . S
C1001 C1000 1.367 . S
C1001 C1003 1.433 . S
C1002 C998 1.350 . S
C1002 C999 1.463 . S
C1002 N1006 1.427 . S
C1003 H993 0.929 . S
C1003 C1001 1.433 . S
C1003 N1006 1.384 . S
C1004 H995 0.929 . S
C1004 C996 1.378 . S
C1004 C999 1.350 . S
C1005 H992 0.929 . S
C1005 C997 1.433 . S
C1005 N1007 1.384 . S
N1006 C1002 1.427 . S
N1006 C1003 1.384 . S
N1007 C999 1.427 . S
N1007 C1005 1.384 . S
H1008 C1014 0.930 1_554 S
H1009 C1018 0.930 1_556 S
H1010 C1023 0.929 . S
H1011 C1021 0.929 . S
H1012 C1016 0.929 . S
H1013 C1022 0.929 . S
C1014 H1008 0.930 1_556 S
C1014 C1015 1.367 . S
C1014 C1022 1.378 1_556 S
C1015 C1014 1.367 . S
C1015 C1023 1.433 . S
C1016 H1012 0.929 . S
C1016 C1018 1.378 1_556 S
C1016 C1020 1.350 1_556 S
C1017 C1020 1.463 1_556 S
C1017 C1022 1.350 1_556 S
C1017 N1025 1.427 . S
C1018 H1009 0.930 1_554 S
C1018 C1016 1.378 1_554 S
C1018 C1019 1.367 . S
C1019 C1018 1.367 . S
C1019 C1021 1.433 . S
C1020 C1016 1.350 1_554 S
C1020 C1017 1.463 1_554 S
C1020 N1024 1.427 . S
C1021 H1011 0.929 . S
C1021 C1019 1.433 . S
C1021 N1024 1.384 . S
C1022 H1013 0.929 . S
C1022 C1014 1.378 1_554 S
C1022 C1017 1.350 1_554 S
C1023 H1010 0.929 . S
C1023 C1015 1.433 . S
C1023 N1025 1.384 . S
N1024 C1020 1.427 . S
N1024 C1021 1.384 . S
N1025 C1017 1.427 . S
N1025 C1023 1.384 . S
H1026 C1032 0.930 . S
H1027 C1036 0.930 . S
H1028 C1041 0.929 . S
H1029 C1039 0.929 . S
H1030 C1034 0.929 . S
H1031 C1040 0.929 . S
C1032 H1026 0.930 . S
C1032 C1033 1.367 . S
C1032 C1040 1.378 . S
C1033 C1032 1.367 . S
C1033 C1041 1.433 . S
C1034 H1030 0.929 . S
C1034 C1036 1.378 . S
C1034 C1038 1.350 . S
C1035 C1038 1.463 . S
C1035 C1040 1.350 . S
C1035 N1043 1.427 . S
C1036 H1027 0.930 . S
C1036 C1034 1.378 . S
C1036 C1037 1.367 . S
C1037 C1036 1.367 . S
C1037 C1039 1.433 . S
C1038 C1034 1.350 . S
C1038 C1035 1.463 . S
C1038 N1042 1.427 . S
C1039 H1029 0.929 . S
C1039 C1037 1.433 . S
C1039 N1042 1.384 . S
C1040 H1031 0.929 . S
C1040 C1032 1.378 . S
C1040 C1035 1.350 . S
C1041 H1028 0.929 . S
C1041 C1033 1.433 . S
C1041 N1043 1.384 . S
N1042 C1038 1.427 . S
N1042 C1039 1.384 . S
N1043 C1035 1.427 . S
N1043 C1041 1.384 . S
H1044 C1050 0.930 . S
H1045 C1054 0.930 . S
H1046 C1059 0.929 1_556 S
H1047 C1057 0.929 1_554 S
H1048 C1052 0.929 . S
H1049 C1058 0.929 . S
C1050 H1044 0.930 . S
C1050 C1051 1.367 . S
C1050 C1058 1.378 . S
C1051 C1050 1.367 . S
C1051 C1059 1.433 . S
C1052 H1048 0.929 . S
C1052 C1054 1.378 . S
C1052 C1056 1.350 . S
C1053 C1056 1.463 1_554 S
C1053 C1058 1.350 . S
C1053 N1061 1.427 1_554 S
C1054 H1045 0.930 . S
C1054 C1052 1.378 . S
C1054 C1055 1.367 . S
C1055 C1054 1.367 . S
C1055 C1057 1.433 . S
C1056 C1052 1.350 . S
C1056 C1053 1.463 1_556 S
C1056 N1060 1.427 1_556 S
C1057 H1047 0.929 1_556 S
C1057 C1055 1.433 . S
C1057 N1060 1.384 1_556 S
C1058 H1049 0.929 . S
C1058 C1050 1.378 . S
C1058 C1053 1.350 . S
C1059 H1046 0.929 1_554 S
C1059 C1051 1.433 . S
C1059 N1061 1.384 1_554 S
N1060 C1056 1.427 1_554 S
N1060 C1057 1.384 1_554 S
N1061 C1053 1.427 1_556 S
N1061 C1059 1.384 1_556 S
H1062 C1068 0.930 . S
H1063 C1072 0.930 . S
H1064 C1077 0.929 . S
H1065 C1075 0.929 . S
H1066 C1070 0.929 . S
H1067 C1076 0.929 . S
C1068 H1062 0.930 . S
C1068 C1069 1.367 . S
C1068 C1076 1.378 . S
C1069 C1068 1.367 . S
C1069 C1077 1.433 . S
C1070 H1066 0.929 . S
C1070 C1072 1.378 . S
C1070 C1074 1.350 . S
C1071 C1074 1.463 . S
C1071 C1076 1.350 . S
C1071 N1079 1.427 . S
C1072 H1063 0.930 . S
C1072 C1070 1.378 . S
C1072 C1073 1.367 . S
C1073 C1072 1.367 . S
C1073 C1075 1.433 . S
C1074 C1070 1.350 . S
C1074 C1071 1.463 . S
C1074 N1078 1.427 . S
C1075 H1065 0.929 . S
C1075 C1073 1.433 . S
C1075 N1078 1.384 . S
C1076 H1067 0.929 . S
C1076 C1068 1.378 . S
C1076 C1071 1.350 . S
C1077 H1064 0.929 . S
C1077 C1069 1.433 . S
C1077 N1079 1.384 . S
N1078 C1074 1.427 . S
N1078 C1075 1.384 . S
N1079 C1071 1.427 . S
N1079 C1077 1.384 . S
H1080 C1086 0.930 1_554 S
H1081 C1090 0.930 1_556 S
H1082 C1095 0.929 . S
H1083 C1093 0.929 . S
H1084 C1088 0.929 . S
H1085 C1094 0.929 . S
C1086 H1080 0.930 1_556 S
C1086 C1087 1.367 . S
C1086 C1094 1.378 1_556 S
C1087 C1086 1.367 . S
C1087 C1095 1.433 . S
C1088 H1084 0.929 . S
C1088 C1090 1.378 1_556 S
C1088 C1092 1.350 1_556 S
C1089 C1092 1.463 1_546 S
C1089 C1094 1.350 1_556 S
C1089 N1097 1.427 . S
C1090 H1081 0.930 1_554 S
C1090 C1088 1.378 1_554 S
C1090 C1091 1.367 . S
C1091 C1090 1.367 . S
C1091 C1093 1.433 . S
C1092 C1088 1.350 1_554 S
C1092 C1089 1.463 1_564 S
C1092 N1096 1.427 . S
C1093 H1083 0.929 . S
C1093 C1091 1.433 . S
C1093 N1096 1.384 . S
C1094 H1085 0.929 . S
C1094 C1086 1.378 1_554 S
C1094 C1089 1.350 1_554 S
C1095 H1082 0.929 . S
C1095 C1087 1.433 . S
C1095 N1097 1.384 . S
N1096 C1092 1.427 . S
N1096 C1093 1.384 . S
N1097 C1089 1.427 . S
N1097 C1095 1.384 . S
H1098 C1104 0.930 . S
H1099 C1108 0.930 . S
H1100 C1113 0.929 . S
H1101 C1111 0.929 . S
H1102 C1106 0.929 . S
H1103 C1112 0.929 . S
C1104 H1098 0.930 . S
C1104 C1105 1.367 . S
C1104 C1112 1.378 . S
C1105 C1104 1.367 . S
C1105 C1113 1.433 . S
C1106 H1102 0.929 . S
C1106 C1108 1.378 . S
C1106 C1110 1.350 . S
C1107 C1110 1.463 1_565 S
C1107 C1112 1.350 . S
C1107 N1115 1.427 . S
C1108 H1099 0.930 . S
C1108 C1106 1.378 . S
C1108 C1109 1.367 . S
C1109 C1108 1.367 . S
C1109 C1111 1.433 . S
C1110 C1106 1.350 . S
C1110 C1107 1.463 1_545 S
C1110 N1114 1.427 . S
C1111 H1101 0.929 . S
C1111 C1109 1.433 . S
C1111 N1114 1.384 . S
C1112 H1103 0.929 . S
C1112 C1104 1.378 . S
C1112 C1107 1.350 . S
C1113 H1100 0.929 . S
C1113 C1105 1.433 . S
C1113 N1115 1.384 . S
N1114 C1110 1.427 . S
N1114 C1111 1.384 . S
N1115 C1107 1.427 . S
N1115 C1113 1.384 . S
H1116 C1122 0.930 . S
H1117 C1126 0.930 . S
H1118 C1131 0.929 . S
H1119 C1129 0.929 . S
H1120 C1124 0.929 . S
H1121 C1130 0.929 . S
C1122 H1116 0.930 . S
C1122 C1123 1.367 . S
C1122 C1130 1.378 . S
C1123 C1122 1.367 . S
C1123 C1131 1.433 . S
C1124 H1120 0.929 . S
C1124 C1126 1.378 . S
C1124 C1128 1.350 . S
C1125 C1128 1.463 1_564 S
C1125 C1130 1.350 . S
C1125 N1133 1.427 1_554 S
C1126 H1117 0.930 . S
C1126 C1124 1.378 . S
C1126 C1127 1.367 . S
C1127 C1126 1.367 . S
C1127 C1129 1.433 . S
C1128 C1124 1.350 . S
C1128 C1125 1.463 1_546 S
C1128 N1132 1.427 1_556 S
C1129 H1119 0.929 . S
C1129 C1127 1.433 . S
C1129 N1132 1.384 1_556 S
C1130 H1121 0.929 . S
C1130 C1122 1.378 . S
C1130 C1125 1.350 . S
C1131 H1118 0.929 . S
C1131 C1123 1.433 . S
C1131 N1133 1.384 1_554 S
N1132 C1128 1.427 1_554 S
N1132 C1129 1.384 1_554 S
N1133 C1125 1.427 1_556 S
N1133 C1131 1.384 1_556 S
H1134 C1140 0.930 . S
H1135 C1144 0.930 . S
H1136 C1149 0.929 . S
H1137 C1147 0.929 . S
H1138 C1142 0.929 . S
H1139 C1148 0.929 . S
C1140 H1134 0.930 . S
C1140 C1141 1.367 . S
C1140 C1148 1.378 . S
C1141 C1140 1.367 . S
C1141 C1149 1.433 . S
C1142 H1138 0.929 . S
C1142 C1144 1.378 . S
C1142 C1146 1.350 . S
C1143 C1146 1.463 1_545 S
C1143 C1148 1.350 . S
C1143 N1151 1.427 . S
C1144 H1135 0.930 . S
C1144 C1142 1.378 . S
C1144 C1145 1.367 . S
C1145 C1144 1.367 . S
C1145 C1147 1.433 . S
C1146 C1142 1.350 . S
C1146 C1143 1.463 1_565 S
C1146 N1150 1.427 . S
C1147 H1137 0.929 . S
C1147 C1145 1.433 . S
C1147 N1150 1.384 . S
C1148 H1139 0.929 . S
C1148 C1140 1.378 . S
C1148 C1143 1.350 . S
C1149 H1136 0.929 . S
C1149 C1141 1.433 . S
C1149 N1151 1.384 . S
N1150 C1146 1.427 . S
N1150 C1147 1.384 . S
N1151 C1143 1.427 . S
N1151 C1149 1.384 . S
C583 C3 1.435 . S
C587 C220 1.416 . S
C601 C39 1.434 . S
C605 C256 1.422 . S
C619 C148 1.417 . S
C623 C75 1.437 . S
C637 C184 1.420 . S
C641 C111 1.434 . S
C655 C508 1.424 . S
C659 C291 1.434 . S
C673 C544 1.415 . S
C677 C327 1.437 . S
C691 C363 1.436 . S
C695 C436 1.416 . S
C709 C399 1.435 . S
C713 C472 1.425 . S
C727 C2 1.443 . S
C731 C182 1.447 . S
C745 C38 1.446 . S
C749 C146 1.443 . S
C763 C74 1.443 . S
C767 C254 1.446 . S
C781 C218 1.449 . S
C785 C110 1.441 . S
C799 C470 1.449 . S
C803 C290 1.440 . S
C817 C434 1.442 . S
C821 C326 1.447 . S
C835 C362 1.445 . S
C839 C542 1.445 . S
C853 C506 1.445 . S
C857 C398 1.444 . S
C871 C435 1.329 . S
C875 C4 1.326 . S
C889 C40 1.327 . S
C893 C471 1.325 . S
C907 C507 1.331 . S
C911 C76 1.331 . S
C925 C543 1.325 . S
C929 C112 1.330 . S
C943 C292 1.329 . S
C947 C147 1.325 . S
C961 C328 1.331 . S
C965 C183 1.331 . S
C979 C219 1.327 . S
C983 C364 1.332 . S
C997 C255 1.325 . S
C1001 C400 1.328 . S
C1015 C86 1.423 . S
C1019 C14 1.418 . S
C1033 C50 1.423 . S
C1037 C122 1.418 . S
C1051 C230 1.396 . S
C1055 C158 1.405 . S
C1069 C194 1.397 . S
C1073 C266 1.410 . S
C1087 C374 1.423 . S
C1091 C302 1.418 . S
C1105 C410 1.424 . S
C1109 C338 1.415 . S
C1123 C518 1.406 . S
C1127 C446 1.396 . S
C1141 C554 1.414 . S
C1145 C482 1.406 . S
