# Generated by pormake.
# Topology gis, (4)-cn, num edge types: 1
# Building blocks:
#     Node 0, Type 0, BuildingBlock: QUQFOY_clean_sbu_1, # of connection points: 4
#     Node 1, Type 0, BuildingBlock: QUQFOY_clean_sbu_1, # of connection points: 4
#     Node 2, Type 0, BuildingBlock: QUQFOY_clean_sbu_1, # of connection points: 4
#     Node 3, Type 0, BuildingBlock: QUQFOY_clean_sbu_1, # of connection points: 4
#     Node 4, Type 0, BuildingBlock: QUQFOY_clean_sbu_1, # of connection points: 4
#     Node 5, Type 0, BuildingBlock: QUQFOY_clean_sbu_1, # of connection points: 4
#     Node 6, Type 0, BuildingBlock: QUQFOY_clean_sbu_1, # of connection points: 4
#     Node 7, Type 0, BuildingBlock: QUQFOY_clean_sbu_1, # of connection points: 4
#     Node 8, Type 0, BuildingBlock: QUQFOY_clean_sbu_1, # of connection points: 4
#     Node 9, Type 0, BuildingBlock: QUQFOY_clean_sbu_1, # of connection points: 4
#     Node 10, Type 0, BuildingBlock: QUQFOY_clean_sbu_1, # of connection points: 4
#     Node 11, Type 0, BuildingBlock: QUQFOY_clean_sbu_1, # of connection points: 4
#     Node 12, Type 0, BuildingBlock: QUQFOY_clean_sbu_1, # of connection points: 4
#     Node 13, Type 0, BuildingBlock: QUQFOY_clean_sbu_1, # of connection points: 4
#     Node 14, Type 0, BuildingBlock: QUQFOY_clean_sbu_1, # of connection points: 4
#     Node 15, Type 0, BuildingBlock: QUQFOY_clean_sbu_1, # of connection points: 4
#     Edge 16, Type (0, 0), BuildingBlock: ZUJKAS_clean_linker_0, # of connection points: 2
#     Edge 17, Type (0, 0), BuildingBlock: ZUJKAS_clean_linker_0, # of connection points: 2
#     Edge 18, Type (0, 0), BuildingBlock: ZUJKAS_clean_linker_0, # of connection points: 2
#     Edge 19, Type (0, 0), BuildingBlock: ZUJKAS_clean_linker_0, # of connection points: 2
#     Edge 20, Type (0, 0), BuildingBlock: ZUJKAS_clean_linker_0, # of connection points: 2
#     Edge 21, Type (0, 0), BuildingBlock: ZUJKAS_clean_linker_0, # of connection points: 2
#     Edge 22, Type (0, 0), BuildingBlock: ZUJKAS_clean_linker_0, # of connection points: 2
#     Edge 23, Type (0, 0), BuildingBlock: ZUJKAS_clean_linker_0, # of connection points: 2
#     Edge 24, Type (0, 0), BuildingBlock: ZUJKAS_clean_linker_0, # of connection points: 2
#     Edge 25, Type (0, 0), BuildingBlock: ZUJKAS_clean_linker_0, # of connection points: 2
#     Edge 26, Type (0, 0), BuildingBlock: ZUJKAS_clean_linker_0, # of connection points: 2
#     Edge 27, Type (0, 0), BuildingBlock: ZUJKAS_clean_linker_0, # of connection points: 2
#     Edge 28, Type (0, 0), BuildingBlock: ZUJKAS_clean_linker_0, # of connection points: 2
#     Edge 29, Type (0, 0), BuildingBlock: ZUJKAS_clean_linker_0, # of connection points: 2
#     Edge 30, Type (0, 0), BuildingBlock: ZUJKAS_clean_linker_0, # of connection points: 2
#     Edge 31, Type (0, 0), BuildingBlock: ZUJKAS_clean_linker_0, # of connection points: 2
#     Edge 32, Type (0, 0), BuildingBlock: ZUJKAS_clean_linker_0, # of connection points: 2
#     Edge 33, Type (0, 0), BuildingBlock: ZUJKAS_clean_linker_0, # of connection points: 2
#     Edge 34, Type (0, 0), BuildingBlock: ZUJKAS_clean_linker_0, # of connection points: 2
#     Edge 35, Type (0, 0), BuildingBlock: ZUJKAS_clean_linker_0, # of connection points: 2
#     Edge 36, Type (0, 0), BuildingBlock: ZUJKAS_clean_linker_0, # of connection points: 2
#     Edge 37, Type (0, 0), BuildingBlock: ZUJKAS_clean_linker_0, # of connection points: 2
#     Edge 38, Type (0, 0), BuildingBlock: ZUJKAS_clean_linker_0, # of connection points: 2
#     Edge 39, Type (0, 0), BuildingBlock: ZUJKAS_clean_linker_0, # of connection points: 2
#     Edge 40, Type (0, 0), BuildingBlock: ZUJKAS_clean_linker_0, # of connection points: 2
#     Edge 41, Type (0, 0), BuildingBlock: ZUJKAS_clean_linker_0, # of connection points: 2
#     Edge 42, Type (0, 0), BuildingBlock: ZUJKAS_clean_linker_0, # of connection points: 2
#     Edge 43, Type (0, 0), BuildingBlock: ZUJKAS_clean_linker_0, # of connection points: 2
#     Edge 44, Type (0, 0), BuildingBlock: ZUJKAS_clean_linker_0, # of connection points: 2
#     Edge 45, Type (0, 0), BuildingBlock: ZUJKAS_clean_linker_0, # of connection points: 2
#     Edge 46, Type (0, 0), BuildingBlock: ZUJKAS_clean_linker_0, # of connection points: 2
#     Edge 47, Type (0, 0), BuildingBlock: ZUJKAS_clean_linker_0, # of connection points: 2
# Relax obj value: 0.009
# Max RMSD: 0.063
# Mean RMSD: 0.063
data_MOF--net-gis--node1-QUQFOY_clean_sbu_1--edge1-ZUJKAS_clean_linker_0
_symmetry_space_group_name_H-M    P1
_symmetry_Int_Tables_number       1
_symmetry_cell_setting            triclinic
loop_
_symmetry_equiv_pos_as_xyz
'x, y, z'
_cell_length_a     69.830934
_cell_length_b     69.832397
_cell_length_c     53.829245
_cell_angle_alpha  89.968117
_cell_angle_beta   90.030251
_cell_angle_gamma 89.972916
loop_
_atom_site_label
_atom_site_type_symbol
_atom_site_fract_x
_atom_site_fract_y
_atom_site_fract_z
_atom_type_partial_charge
O0 O 0.15143 0.64843 0.13629 0.0
Cd1 Cd 0.14698 0.6211 0.14974 0.0
Cd2 Cd 0.13959 0.61514 0.1004 0.0
O3 O 0.14851 0.64324 0.09608 0.0
O4 O 0.1585 0.62237 0.18358 0.0
O5 O 0.1696 0.60334 0.15413 0.0
C6 C 0.17114 0.61013 0.17637 0.0
C7 C 0.15088 0.59066 0.07461 0.0
C8 C 0.15191 0.65455 0.11405 0.0
C9 C 0.10694 0.60971 0.13681 0.0
O10 O 0.11238 0.61082 0.11431 0.0
O11 O 0.11883 0.6124 0.15438 0.0
O12 O 0.13902 0.60343 0.06664 0.0
O13 O 0.15704 0.59225 0.09717 0.0
O14 O 0.65213 0.86365 0.36706 0.0
Cd15 Cd 0.64714 0.89079 0.35331 0.0
Cd16 Cd 0.64126 0.89732 0.40292 0.0
O17 O 0.65009 0.86919 0.4073 0.0
O18 O 0.65859 0.8898 0.31941 0.0
O19 O 0.66938 0.90896 0.34894 0.0
C20 C 0.67101 0.90225 0.32667 0.0
C21 C 0.65225 0.9215 0.42941 0.0
C22 C 0.65311 0.85773 0.38936 0.0
C23 C 0.60753 0.90206 0.36754 0.0
O24 O 0.61385 0.90159 0.38969 0.0
O25 O 0.61874 0.89897 0.34936 0.0
O26 O 0.64012 0.9088 0.43676 0.0
O27 O 0.65892 0.92 0.4071 0.0
O28 O 0.35919 0.36336 0.6418 0.0
Cd29 Cd 0.36364 0.39086 0.6546 0.0
Cd30 Cd 0.36945 0.39704 0.60508 0.0
O31 O 0.36066 0.36883 0.60148 0.0
O32 O 0.3525 0.39088 0.68867 0.0
O33 O 0.34077 0.40834 0.65795 0.0
C34 C 0.3396 0.4026 0.68073 0.0
C35 C 0.35794 0.42093 0.57843 0.0
C36 C 0.35801 0.35738 0.61955 0.0
C37 C 0.40306 0.40266 0.64015 0.0
O38 O 0.39691 0.40166 0.61796 0.0
O39 O 0.39177 0.39979 0.65829 0.0
O40 O 0.37009 0.40826 0.57102 0.0
O41 O 0.35158 0.41957 0.60091 0.0
O42 O 0.89758 0.10841 0.89068 0.0
Cd43 Cd 0.87058 0.11317 0.90497 0.0
Cd44 Cd 0.8634 0.11949 0.8554 0.0
O45 O 0.89149 0.11065 0.85059 0.0
O46 O 0.87231 0.10175 0.93882 0.0
O47 O 0.8527 0.09077 0.90989 0.0
C48 C 0.85985 0.08921 0.93195 0.0
C49 C 0.83914 0.10855 0.82893 0.0
C50 C 0.90318 0.10753 0.86825 0.0
C51 C 0.85874 0.15278 0.89145 0.0
O52 O 0.85908 0.14674 0.86918 0.0
O53 O 0.86213 0.14139 0.90937 0.0
O54 O 0.85171 0.12084 0.82165 0.0
O55 O 0.84077 0.10177 0.85118 0.0
O56 O 0.14958 0.36333 0.86451 0.0
Cd57 Cd 0.14529 0.3911 0.85259 0.0
Cd58 Cd 0.13947 0.39652 0.90207 0.0
O59 O 0.14863 0.36836 0.90493 0.0
O60 O 0.15649 0.39165 0.81855 0.0
O61 O 0.16835 0.40835 0.84986 0.0
C62 C 0.16953 0.403 0.82693 0.0
C63 C 0.15134 0.4204 0.92837 0.0
C64 C 0.15107 0.35711 0.88663 0.0
C65 C 0.10586 0.40289 0.86752 0.0
O66 O 0.11186 0.40119 0.88972 0.0
O67 O 0.11727 0.40049 0.84937 0.0
O68 O 0.13983 0.40734 0.93633 0.0
O69 O 0.15686 0.41944 0.90548 0.0
O70 O 0.85853 0.86184 0.14119 0.0
Cd71 Cd 0.86369 0.88943 0.15385 0.0
Cd72 Cd 0.87004 0.89402 0.10469 0.0
O73 O 0.85893 0.8669 0.10076 0.0
O74 O 0.85235 0.88918 0.18785 0.0
O75 O 0.84133 0.90757 0.15762 0.0
C76 C 0.83982 0.90138 0.18016 0.0
C77 C 0.85998 0.9194 0.07957 0.0
C78 C 0.85638 0.85572 0.1191 0.0
C79 C 0.90376 0.89815 0.13936 0.0
O80 O 0.89786 0.89555 0.11729 0.0
O81 O 0.89204 0.89814 0.15744 0.0
O82 O 0.87104 0.9061 0.07119 0.0
O83 O 0.85395 0.91794 0.10219 0.0
O84 O 0.39647 0.60914 0.38996 0.0
Cd85 Cd 0.36925 0.61341 0.40386 0.0
Cd86 Cd 0.36283 0.62103 0.35437 0.0
O87 O 0.39115 0.61286 0.34985 0.0
O88 O 0.37064 0.60147 0.43747 0.0
O89 O 0.35143 0.59082 0.40792 0.0
C90 C 0.35826 0.58902 0.43012 0.0
C91 C 0.33895 0.6102 0.32731 0.0
C92 C 0.40253 0.60918 0.36769 0.0
C93 C 0.35716 0.65331 0.39157 0.0
O94 O 0.35786 0.64787 0.36906 0.0
O95 O 0.36049 0.64149 0.40904 0.0
O96 O 0.35134 0.62283 0.32056 0.0
O97 O 0.34059 0.60296 0.34931 0.0
O98 O 0.6517 0.14874 0.63965 0.0
Cd99 Cd 0.64703 0.12175 0.65407 0.0
Cd100 Cd 0.64029 0.11441 0.60466 0.0
O101 O 0.64875 0.14258 0.59965 0.0
O102 O 0.65885 0.12307 0.68774 0.0
O103 O 0.66937 0.10366 0.65832 0.0
C104 C 0.67117 0.1105 0.6805 0.0
C105 C 0.6513 0.09022 0.5782 0.0
C106 C 0.65216 0.15431 0.61716 0.0
C107 C 0.60738 0.10946 0.64112 0.0
O108 O 0.61322 0.1097 0.61876 0.0
O109 O 0.61887 0.11318 0.65881 0.0
O110 O 0.6388 0.10263 0.57101 0.0
O111 O 0.65829 0.092 0.60031 0.0
O112 O 0.85898 0.36317 0.87026 0.0
Cd113 Cd 0.86312 0.39056 0.85685 0.0
Cd114 Cd 0.87024 0.3965 0.90626 0.0
O115 O 0.86203 0.3682 0.9105 0.0
O116 O 0.85143 0.38932 0.82312 0.0
O117 O 0.84036 0.40817 0.8528 0.0
C118 C 0.83876 0.40146 0.83052 0.0
C119 C 0.85895 0.42038 0.93293 0.0
C120 C 0.8587 0.35694 0.89246 0.0
C121 C 0.90284 0.40258 0.86975 0.0
O122 O 0.89725 0.4015 0.89218 0.0
O123 O 0.89113 0.39957 0.85207 0.0
O124 O 0.8715 0.408 0.94006 0.0
O125 O 0.85205 0.41871 0.91075 0.0
O126 O 0.35968 0.14799 0.64208 0.0
Cd127 Cd 0.36443 0.12047 0.65471 0.0
Cd128 Cd 0.37086 0.11464 0.60534 0.0
O129 O 0.36133 0.14261 0.60178 0.0
O130 O 0.35332 0.12033 0.68881 0.0
O131 O 0.34166 0.10286 0.6581 0.0
C132 C 0.34047 0.10857 0.68089 0.0
C133 C 0.35948 0.09023 0.57949 0.0
C134 C 0.35842 0.15399 0.61984 0.0
C135 C 0.40424 0.10927 0.6405 0.0
O136 O 0.39843 0.11059 0.61818 0.0
O137 O 0.39262 0.11167 0.65841 0.0
O138 O 0.37092 0.10329 0.57135 0.0
O139 O 0.35377 0.09147 0.60227 0.0
O140 O 0.65128 0.64777 0.3669 0.0
Cd141 Cd 0.64642 0.62056 0.35335 0.0
Cd142 Cd 0.64 0.61422 0.40276 0.0
O143 O 0.64863 0.64239 0.40713 0.0
O144 O 0.65824 0.62129 0.31968 0.0
O145 O 0.66864 0.60228 0.34966 0.0
C146 C 0.67051 0.60881 0.32732 0.0
C147 C 0.65113 0.59011 0.42929 0.0
C148 C 0.65193 0.65377 0.38918 0.0
C149 C 0.60671 0.60915 0.36686 0.0
O150 O 0.61275 0.60971 0.38913 0.0
O151 O 0.61812 0.6123 0.34891 0.0
O152 O 0.63882 0.60266 0.43657 0.0
O153 O 0.65788 0.59171 0.40703 0.0
O154 O 0.11347 0.9044 0.12121 0.0
Cd155 Cd 0.14016 0.89867 0.10629 0.0
Cd156 Cd 0.14752 0.89037 0.15574 0.0
O157 O 0.11911 0.89787 0.16075 0.0
O158 O 0.13887 0.91008 0.07236 0.0
O159 O 0.15833 0.92088 0.10153 0.0
C160 C 0.15146 0.92245 0.07932 0.0
C161 C 0.17145 0.90156 0.18251 0.0
C162 C 0.10776 0.90317 0.14358 0.0
C163 C 0.15217 0.85836 0.11827 0.0
O164 O 0.15268 0.86379 0.14078 0.0
O165 O 0.14787 0.87015 0.10112 0.0
O166 O 0.15936 0.88866 0.18938 0.0
O167 O 0.1695 0.90881 0.16056 0.0
O168 O 0.85934 0.64688 0.14366 0.0
Cd169 Cd 0.86427 0.61967 0.15716 0.0
Cd170 Cd 0.87015 0.6131 0.1077 0.0
O171 O 0.86113 0.64117 0.10345 0.0
O172 O 0.85261 0.62027 0.19092 0.0
O173 O 0.84197 0.60151 0.16084 0.0
C174 C 0.84022 0.60793 0.18324 0.0
C175 C 0.85888 0.58895 0.08141 0.0
C176 C 0.85817 0.6527 0.12133 0.0
C177 C 0.90378 0.60797 0.14304 0.0
O178 O 0.89758 0.60864 0.12084 0.0
O179 O 0.89252 0.61114 0.16114 0.0
O180 O 0.87103 0.60157 0.07388 0.0
O181 O 0.85238 0.5905 0.10379 0.0
O182 O 0.14949 0.14726 0.86393 0.0
Cd183 Cd 0.14557 0.11948 0.85195 0.0
Cd184 Cd 0.13969 0.11383 0.90141 0.0
O185 O 0.14859 0.14206 0.90432 0.0
O186 O 0.15694 0.11903 0.818 0.0
O187 O 0.1688 0.10242 0.84942 0.0
C188 C 0.17004 0.10777 0.82648 0.0
C189 C 0.15158 0.0902 0.92815 0.0
C190 C 0.1509 0.15342 0.88608 0.0
C191 C 0.10622 0.10731 0.86664 0.0
O192 O 0.11216 0.10896 0.88887 0.0
O193 O 0.11765 0.10988 0.84855 0.0
O194 O 0.13989 0.10322 0.9358 0.0
O195 O 0.15723 0.09103 0.90531 0.0
O196 O 0.61339 0.40113 0.61782 0.0
Cd197 Cd 0.64066 0.39685 0.60418 0.0
Cd198 Cd 0.64685 0.38942 0.65366 0.0
O199 O 0.61852 0.39757 0.65799 0.0
O200 O 0.63928 0.40867 0.57053 0.0
O201 O 0.65839 0.4195 0.6001 0.0
C202 C 0.65154 0.42123 0.5779 0.0
C203 C 0.67063 0.40057 0.68061 0.0
C204 C 0.60723 0.4012 0.64004 0.0
C205 C 0.65281 0.35705 0.61668 0.0
O206 O 0.65203 0.36255 0.63917 0.0
O207 O 0.64947 0.36879 0.59914 0.0
O208 O 0.65831 0.3879 0.6875 0.0
O209 O 0.66897 0.40765 0.65852 0.0
O210 O 0.35783 0.86174 0.37078 0.0
Cd211 Cd 0.36323 0.88882 0.35706 0.0
Cd212 Cd 0.36954 0.89553 0.40655 0.0
O213 O 0.35998 0.86765 0.41091 0.0
O214 O 0.3518 0.88809 0.32313 0.0
O215 O 0.34119 0.90726 0.35276 0.0
C216 C 0.33952 0.90067 0.33042 0.0
C217 C 0.3586 0.92002 0.43267 0.0
C218 C 0.35672 0.85607 0.39318 0.0
C219 C 0.40312 0.89974 0.37115 0.0
O220 O 0.39706 0.89925 0.39342 0.0
O221 O 0.39166 0.89682 0.35316 0.0
O222 O 0.37012 0.90691 0.44052 0.0
O223 O 0.35262 0.91885 0.41 0.0
H224 H 0.14651 0.83934 0.074 0.0
H225 H 0.14803 0.80459 0.06701 0.0
H226 H 0.16632 0.79625 0.14273 0.0
H227 H 0.16485 0.83066 0.14994 0.0
H228 H 0.18014 0.77548 0.07714 0.0
H229 H 0.11415 0.76606 0.13336 0.0
H230 H 0.1208 0.78873 0.11969 0.0
H231 H 0.13232 0.7806 0.14763 0.0
C232 C 0.15113 0.83013 0.08904 0.0
C233 C 0.15534 0.83779 0.11262 0.0
C234 C 0.152 0.8103 0.085 0.0
C235 C 0.15705 0.7979 0.10447 0.0
C236 C 0.16218 0.80559 0.12756 0.0
H237 H 0.16218 0.68162 0.14801 0.0
H238 H 0.16411 0.71615 0.1421 0.0
C239 C 0.16132 0.82529 0.13162 0.0
C240 C 0.1558 0.77685 0.10157 0.0
H241 H 0.13216 0.73798 0.12462 0.0
C242 C 0.16951 0.76722 0.08717 0.0
C243 C 0.14184 0.7662 0.11462 0.0
C244 C 0.12631 0.77588 0.12954 0.0
C245 C 0.17019 0.74707 0.08656 0.0
C246 C 0.15671 0.73645 0.10053 0.0
C247 C 0.14256 0.74616 0.11407 0.0
C248 C 0.15759 0.71531 0.10284 0.0
C249 C 0.18577 0.73725 0.07195 0.0
C250 C 0.15357 0.70331 0.08258 0.0
C251 C 0.15244 0.68342 0.08588 0.0
C252 C 0.1552 0.67526 0.10955 0.0
C253 C 0.15987 0.68736 0.12955 0.0
C254 C 0.161 0.70714 0.12622 0.0
H255 H 0.19678 0.7475 0.06525 0.0
H256 H 0.19286 0.72611 0.08347 0.0
H257 H 0.17935 0.73003 0.05558 0.0
H258 H 0.15063 0.70936 0.06444 0.0
H259 H 0.14876 0.67453 0.07011 0.0
H260 H 0.43072 0.90833 0.40524 0.0
H261 H 0.46518 0.91049 0.39876 0.0
H262 H 0.45738 0.89973 0.32055 0.0
H263 H 0.42264 0.89767 0.3268 0.0
H264 H 0.48737 0.8799 0.3794 0.0
H265 H 0.49466 0.94615 0.32256 0.0
H266 H 0.47351 0.9411 0.34073 0.0
H267 H 0.47761 0.92859 0.31213 0.0
C268 C 0.43623 0.90664 0.38656 0.0
C269 C 0.42386 0.90275 0.36655 0.0
C270 C 0.45597 0.90789 0.38291 0.0
C271 C 0.46384 0.90538 0.35917 0.0
C272 C 0.45158 0.90199 0.33897 0.0
H273 H 0.58704 0.89828 0.32406 0.0
H274 H 0.55205 0.89929 0.31923 0.0
C275 C 0.43173 0.90074 0.3426 0.0
C276 C 0.48496 0.90494 0.35628 0.0
H277 H 0.52312 0.92945 0.33235 0.0
C278 C 0.49517 0.89067 0.36898 0.0
C279 C 0.49508 0.9189 0.34246 0.0
C280 C 0.48475 0.93466 0.32877 0.0
C281 C 0.51523 0.89022 0.36878 0.0
C282 C 0.5254 0.90462 0.35586 0.0
C283 C 0.51524 0.91849 0.34232 0.0
C284 C 0.54652 0.90603 0.35777 0.0
C285 C 0.52543 0.87444 0.38267 0.0
C286 C 0.55493 0.91009 0.38081 0.0
C287 C 0.57477 0.90952 0.38365 0.0
C288 C 0.5867 0.90493 0.36344 0.0
C289 C 0.57828 0.90181 0.34001 0.0
C290 C 0.55831 0.90238 0.3372 0.0
H291 H 0.51589 0.86197 0.38604 0.0
H292 H 0.53825 0.86949 0.37229 0.0
H293 H 0.53024 0.87995 0.40097 0.0
H294 H 0.54606 0.91321 0.39683 0.0
H295 H 0.58072 0.91219 0.40191 0.0
H296 H 0.3499 0.32973 0.65384 0.0
H297 H 0.34655 0.29538 0.64708 0.0
H298 H 0.35451 0.30356 0.56837 0.0
H299 H 0.35812 0.33813 0.57496 0.0
H300 H 0.32061 0.27434 0.61708 0.0
H301 H 0.39638 0.26446 0.58743 0.0
H302 H 0.38819 0.28602 0.60255 0.0
H303 H 0.38254 0.28182 0.57048 0.0
C304 C 0.35086 0.32431 0.63503 0.0
C305 C 0.35445 0.33672 0.61496 0.0
C306 C 0.34889 0.30464 0.63122 0.0
C307 C 0.35054 0.29689 0.60729 0.0
C308 C 0.3535 0.30923 0.58705 0.0
H309 H 0.35956 0.17351 0.57549 0.0
H310 H 0.35537 0.20803 0.56899 0.0
C311 C 0.35545 0.32899 0.59084 0.0
C312 C 0.3497 0.27582 0.604 0.0
H313 H 0.37744 0.23682 0.59084 0.0
C314 C 0.33296 0.26613 0.61108 0.0
C315 C 0.36581 0.26515 0.59605 0.0
C316 C 0.38433 0.2748 0.58883 0.0
C317 C 0.33206 0.24605 0.61107 0.0
C318 C 0.34845 0.23537 0.60423 0.0
C319 C 0.3649 0.24505 0.59609 0.0
C320 C 0.34944 0.2143 0.60758 0.0
C321 C 0.31363 0.23643 0.6187 0.0
C322 C 0.34753 0.20639 0.63141 0.0
C323 C 0.34994 0.18676 0.6352 0.0
C324 C 0.35443 0.17457 0.61523 0.0
C325 C 0.35603 0.18247 0.59125 0.0
C326 C 0.35367 0.20219 0.5875 0.0
H327 H 0.3011 0.24595 0.61559 0.0
H328 H 0.31139 0.22289 0.6083 0.0
H329 H 0.31426 0.23301 0.63882 0.0
H330 H 0.34469 0.21551 0.64726 0.0
H331 H 0.34865 0.18122 0.65392 0.0
H332 H 0.07895 0.09765 0.90073 0.0
H333 H 0.04467 0.09365 0.89399 0.0
H334 H 0.05228 0.10411 0.81567 0.0
H335 H 0.08679 0.10828 0.82224 0.0
H336 H 0.02346 0.12643 0.83778 0.0
H337 H 0.0143 0.04996 0.86199 0.0
H338 H 0.02739 0.06302 0.88514 0.0
H339 H 0.03734 0.06023 0.85452 0.0
C340 C 0.07344 0.09888 0.88199 0.0
C341 C 0.08566 0.10329 0.86202 0.0
C342 C 0.05381 0.09645 0.87815 0.0
C343 C 0.04596 0.0983 0.85428 0.0
C344 C 0.0581 0.10246 0.83421 0.0
H345 H 0.92185 0.1081 0.82321 0.0
H346 H 0.95631 0.10424 0.81581 0.0
C347 C 0.07781 0.1048 0.83801 0.0
C348 C 0.02489 0.09735 0.85089 0.0
H349 H 0.98594 0.0695 0.86358 0.0
C350 C 0.01522 0.11387 0.84292 0.0
C351 C 0.01422 0.08093 0.85758 0.0
C352 C 0.02385 0.06246 0.86505 0.0
C353 C 0.99512 0.11483 0.84298 0.0
C354 C 0.98445 0.09869 0.85082 0.0
C355 C 0.99414 0.08187 0.85765 0.0
C356 C 0.96342 0.09962 0.85449 0.0
C357 C 0.9855 0.13344 0.83605 0.0
C358 C 0.95594 0.09766 0.87852 0.0
C359 C 0.93634 0.09974 0.88279 0.0
C360 C 0.92372 0.10379 0.86307 0.0
C361 C 0.93116 0.10509 0.83882 0.0
C362 C 0.95086 0.103 0.83458 0.0
H363 H 0.99586 0.14546 0.83471 0.0
H364 H 0.97839 0.13182 0.81773 0.0
H365 H 0.97435 0.13724 0.8499 0.0
H366 H 0.96536 0.09499 0.89414 0.0
H367 H 0.93116 0.09854 0.90168 0.0
H368 H 0.15068 0.33726 0.93076 0.0
H369 H 0.15469 0.30265 0.93668 0.0
H370 H 0.16339 0.29563 0.85792 0.0
H371 H 0.15961 0.33 0.85183 0.0
H372 H 0.13194 0.2741 0.91546 0.0
H373 H 0.20759 0.2648 0.88743 0.0
H374 H 0.1976 0.28786 0.89537 0.0
H375 H 0.19391 0.27792 0.8649 0.0
C376 C 0.15372 0.32838 0.91475 0.0
C377 C 0.15484 0.33643 0.89081 0.0
C378 C 0.15598 0.30861 0.91818 0.0
C379 C 0.15963 0.29661 0.8978 0.0
C380 C 0.16102 0.30466 0.87399 0.0
H381 H 0.15795 0.18102 0.85131 0.0
H382 H 0.16132 0.21541 0.85779 0.0
C383 C 0.15871 0.32434 0.87053 0.0
C384 C 0.1606 0.27551 0.90087 0.0
H385 H 0.18798 0.2365 0.88665 0.0
C386 C 0.14431 0.26585 0.90963 0.0
C387 C 0.17677 0.26481 0.89327 0.0
C388 C 0.19503 0.27439 0.88495 0.0
C389 C 0.14335 0.24575 0.90959 0.0
C390 C 0.15922 0.23507 0.90093 0.0
C391 C 0.1758 0.24472 0.89319 0.0
C392 C 0.15828 0.21399 0.89773 0.0
C393 C 0.12499 0.23614 0.91755 0.0
C394 C 0.15584 0.20169 0.91813 0.0
C395 C 0.15388 0.18192 0.9145 0.0
C396 C 0.15436 0.17413 0.89039 0.0
C397 C 0.1574 0.18649 0.87013 0.0
C398 C 0.15938 0.20618 0.87378 0.0
H399 H 0.11299 0.2465 0.9194 0.0
H400 H 0.12079 0.22491 0.90401 0.0
H401 H 0.12719 0.22914 0.93584 0.0
H402 H 0.15526 0.2074 0.93681 0.0
H403 H 0.15164 0.17281 0.93053 0.0
H404 H 0.92202 0.92088 0.1736 0.0
H405 H 0.95675 0.92586 0.17784 0.0
H406 H 0.96673 0.884 0.12031 0.0
H407 H 0.93231 0.88004 0.11496 0.0
H408 H 0.98607 0.90539 0.19017 0.0
H409 H 0.99708 0.92638 0.09261 0.0
H410 H 0.97348 0.92355 0.1056 0.0
H411 H 0.98638 0.90312 0.09364 0.0
C412 C 0.93171 0.91286 0.16184 0.0
C413 C 0.92454 0.90036 0.14364 0.0
C414 C 0.95152 0.91568 0.16426 0.0
C415 C 0.96442 0.90578 0.1488 0.0
C416 C 0.95715 0.89247 0.13168 0.0
H417 H 0.0842 0.88212 0.17312 0.0
H418 H 0.04943 0.88497 0.17669 0.0
C419 C 0.93746 0.89008 0.12878 0.0
C420 C 0.98546 0.90913 0.15043 0.0
H421 H 0.0251 0.91528 0.11436 0.0
C422 C 0.9946 0.90786 0.17364 0.0
C423 C 0.99665 0.91297 0.12906 0.0
C424 C 0.98782 0.91682 0.10392 0.0
C425 C 0.01463 0.9094 0.17586 0.0
C426 C 0.02593 0.91138 0.15412 0.0
C427 C 0.01665 0.91347 0.1311 0.0
C428 C 0.04731 0.91076 0.15437 0.0
C429 C 0.02329 0.90915 0.20153 0.0
C430 C 0.05791 0.92398 0.14022 0.0
C431 C 0.07768 0.92183 0.1373 0.0
C432 C 0.08739 0.90675 0.14908 0.0
C433 C 0.07706 0.89406 0.16421 0.0
C434 C 0.05716 0.89581 0.16643 0.0
H435 H 0.01319 0.91518 0.21543 0.0
H436 H 0.02627 0.89412 0.20703 0.0
H437 H 0.03683 0.91745 0.20232 0.0
H438 H 0.05079 0.93567 0.13072 0.0
H439 H 0.08536 0.93179 0.12551 0.0
H440 H 0.34718 0.68139 0.35876 0.0
H441 H 0.34364 0.71555 0.36674 0.0
H442 H 0.35488 0.70615 0.44456 0.0
H443 H 0.3587 0.67175 0.43672 0.0
H444 H 0.31876 0.73586 0.39893 0.0
H445 H 0.39554 0.74596 0.42384 0.0
H446 H 0.38697 0.72455 0.40873 0.0
H447 H 0.38248 0.72827 0.4412 0.0
C448 C 0.34882 0.68649 0.37764 0.0
C449 C 0.3534 0.6738 0.39708 0.0
C450 C 0.34673 0.70606 0.38216 0.0
C451 C 0.34925 0.71343 0.40616 0.0
C452 C 0.35318 0.70079 0.42582 0.0
H453 H 0.35916 0.83688 0.43769 0.0
H454 H 0.35506 0.80241 0.4448 0.0
C455 C 0.35525 0.68112 0.42132 0.0
C456 C 0.34835 0.73444 0.41004 0.0
H457 H 0.37638 0.7735 0.42169 0.0
C458 C 0.33129 0.74409 0.40422 0.0
C459 C 0.36469 0.74515 0.41705 0.0
C460 C 0.38353 0.73556 0.42293 0.0
C461 C 0.33029 0.76417 0.40444 0.0
C462 C 0.34688 0.77489 0.41022 0.0
C463 C 0.36368 0.76525 0.41724 0.0
C464 C 0.3477 0.79595 0.40668 0.0
C465 C 0.31155 0.77374 0.39807 0.0
C466 C 0.34493 0.80372 0.38291 0.0
C467 C 0.34731 0.82331 0.37877 0.0
C468 C 0.3526 0.8356 0.3983 0.0
C469 C 0.35499 0.82785 0.42226 0.0
C470 C 0.35269 0.80816 0.42636 0.0
H471 H 0.2992 0.76419 0.40202 0.0
H472 H 0.30969 0.78728 0.40861 0.0
H473 H 0.31133 0.77716 0.37794 0.0
H474 H 0.34149 0.79453 0.36734 0.0
H475 H 0.34539 0.82874 0.36008 0.0
H476 H 0.58802 0.11235 0.68548 0.0
H477 H 0.55353 0.10829 0.69242 0.0
H478 H 0.54585 0.09448 0.615 0.0
H479 H 0.58006 0.09826 0.60794 0.0
H480 H 0.52458 0.12923 0.66968 0.0
H481 H 0.51558 0.05221 0.6491 0.0
H482 H 0.53867 0.06276 0.65553 0.0
H483 H 0.52834 0.06447 0.62495 0.0
C484 C 0.57902 0.10815 0.67002 0.0
C485 C 0.58684 0.10562 0.64615 0.0
C486 C 0.55932 0.10587 0.67402 0.0
C487 C 0.54716 0.10078 0.65431 0.0
C488 C 0.555 0.09796 0.63061 0.0
H489 H 0.43219 0.10095 0.60671 0.0
H490 H 0.4665 0.09766 0.61408 0.0
C491 C 0.57459 0.10028 0.62658 0.0
C492 C 0.52609 0.09986 0.65775 0.0
H493 H 0.48717 0.07172 0.64583 0.0
C494 C 0.51638 0.11655 0.665 0.0
C495 C 0.51544 0.08328 0.65165 0.0
C496 C 0.52506 0.06461 0.64512 0.0
C497 C 0.49628 0.11747 0.66478 0.0
C498 C 0.48566 0.10118 0.65744 0.0
C499 C 0.49535 0.08422 0.65133 0.0
C500 C 0.46463 0.102 0.65378 0.0
C501 C 0.48658 0.13617 0.67106 0.0
C502 C 0.45212 0.10515 0.67377 0.0
C503 C 0.4324 0.10703 0.66964 0.0
C504 C 0.42487 0.10581 0.64542 0.0
C505 C 0.43745 0.10208 0.62559 0.0
C506 C 0.45709 0.10014 0.62975 0.0
H507 H 0.49693 0.1482 0.67242 0.0
H508 H 0.47565 0.1398 0.65681 0.0
H509 H 0.47916 0.13477 0.68919 0.0
H510 H 0.45764 0.10636 0.69251 0.0
H511 H 0.42312 0.10984 0.68534 0.0
H512 H 0.86156 0.17244 0.93563 0.0
H513 H 0.85971 0.20723 0.94165 0.0
H514 H 0.84715 0.21465 0.86382 0.0
H515 H 0.84905 0.18015 0.85756 0.0
H516 H 0.87906 0.23627 0.88251 0.0
H517 H 0.8134 0.24537 0.94006 0.0
H518 H 0.83062 0.22771 0.94988 0.0
H519 H 0.81758 0.22419 0.92155 0.0
C520 C 0.8581 0.18146 0.91989 0.0
C521 C 0.85556 0.17348 0.89608 0.0
C522 C 0.85698 0.20132 0.92339 0.0
C523 C 0.85321 0.21348 0.90319 0.0
C524 C 0.85006 0.2055 0.87965 0.0
H525 H 0.84845 0.32994 0.85839 0.0
H526 H 0.84693 0.29535 0.86405 0.0
C527 C 0.85117 0.18575 0.87613 0.0
C528 C 0.85406 0.23458 0.90578 0.0
H529 H 0.8303 0.27342 0.92912 0.0
C530 C 0.86847 0.24438 0.89284 0.0
C531 C 0.84035 0.24509 0.91949 0.0
C532 C 0.8245 0.23516 0.93348 0.0
C533 C 0.86927 0.26442 0.89268 0.0
C534 C 0.85508 0.27498 0.90545 0.0
C535 C 0.84108 0.26524 0.91925 0.0
C536 C 0.85403 0.29609 0.90314 0.0
C537 C 0.8852 0.27417 0.87857 0.0
C538 C 0.8578 0.30802 0.92353 0.0
C539 C 0.85865 0.32794 0.92039 0.0
C540 C 0.85569 0.33618 0.89681 0.0
C541 C 0.85101 0.32413 0.87676 0.0
C542 C 0.85015 0.30433 0.87993 0.0
H543 H 0.89752 0.26439 0.87544 0.0
H544 H 0.87976 0.27881 0.86015 0.0
H545 H 0.89035 0.28705 0.88865 0.0
H546 H 0.86074 0.3019 0.94163 0.0
H547 H 0.86224 0.3368 0.93623 0.0
H548 H 0.64895 0.67358 0.43325 0.0
H549 H 0.65085 0.70842 0.43905 0.0
H550 H 0.66427 0.71545 0.36144 0.0
H551 H 0.66235 0.68092 0.35538 0.0
H552 H 0.68153 0.73684 0.42641 0.0
H553 H 0.61384 0.7466 0.37384 0.0
H554 H 0.62097 0.72382 0.38682 0.0
H555 H 0.63135 0.73211 0.35821 0.0
C556 C 0.65255 0.68253 0.41749 0.0
C557 C 0.65527 0.67446 0.39378 0.0
C558 C 0.65364 0.70241 0.42086 0.0
C559 C 0.65741 0.71447 0.40059 0.0
C560 C 0.66107 0.70638 0.37724 0.0
H561 H 0.66272 0.83039 0.35546 0.0
H562 H 0.6646 0.79589 0.36171 0.0
C563 C 0.65997 0.68661 0.37384 0.0
C564 C 0.6565 0.73557 0.40312 0.0
H565 H 0.63256 0.77455 0.38082 0.0
C566 C 0.6707 0.74515 0.41677 0.0
C567 C 0.64225 0.74628 0.39066 0.0
C568 C 0.62611 0.73671 0.37674 0.0
C569 C 0.67157 0.76529 0.41715 0.0
C570 C 0.65781 0.77595 0.40371 0.0
C571 C 0.64319 0.76632 0.39095 0.0
C572 C 0.65882 0.79706 0.40114 0.0
C573 C 0.68762 0.77505 0.43096 0.0
C574 C 0.65524 0.80921 0.42138 0.0
C575 C 0.65414 0.82909 0.41788 0.0
C576 C 0.65648 0.83706 0.39403 0.0
C577 C 0.66074 0.8248 0.37405 0.0
C578 C 0.66184 0.80504 0.37757 0.0
H579 H 0.69865 0.76472 0.43745 0.0
H580 H 0.69457 0.78594 0.41894 0.0
H581 H 0.68169 0.78257 0.44741 0.0
H582 H 0.65262 0.8033 0.43967 0.0
H583 H 0.65078 0.8381 0.43365 0.0
H584 H 0.85748 0.67157 0.07643 0.0
H585 H 0.85306 0.706 0.0694 0.0
H586 H 0.84577 0.71465 0.14814 0.0
H587 H 0.84988 0.68045 0.15533 0.0
H588 H 0.81924 0.73504 0.11877 0.0
H589 H 0.8943 0.74591 0.08675 0.0
H590 H 0.88046 0.72834 0.07024 0.0
H591 H 0.8867 0.72426 0.10217 0.0
C592 C 0.85479 0.68078 0.09223 0.0
C593 C 0.85419 0.67324 0.11647 0.0
C594 C 0.85237 0.70046 0.08818 0.0
C595 C 0.84937 0.7129 0.1083 0.0
C596 C 0.84813 0.70532 0.13236 0.0
H597 H 0.84728 0.82873 0.15388 0.0
H598 H 0.84322 0.79438 0.14771 0.0
C599 C 0.85054 0.68573 0.13642 0.0
C600 C 0.8481 0.73393 0.10476 0.0
H601 H 0.87497 0.77326 0.09039 0.0
C602 C 0.83135 0.7434 0.11229 0.0
C603 C 0.86389 0.74479 0.09621 0.0
C604 C 0.88243 0.7354 0.08852 0.0
C605 C 0.83014 0.76347 0.11218 0.0
C606 C 0.84623 0.77434 0.10472 0.0
C607 C 0.86267 0.76487 0.09611 0.0
C608 C 0.84697 0.79543 0.10783 0.0
C609 C 0.81175 0.77287 0.12039 0.0
C610 C 0.85059 0.80745 0.08746 0.0
C611 C 0.85298 0.82718 0.09093 0.0
C612 C 0.85204 0.83518 0.1149 0.0
C613 C 0.84806 0.82309 0.13516 0.0
C614 C 0.8456 0.80344 0.13165 0.0
H615 H 0.79931 0.76314 0.11791 0.0
H616 H 0.81279 0.77647 0.14042 0.0
H617 H 0.80905 0.78629 0.10988 0.0
H618 H 0.85187 0.80152 0.06894 0.0
H619 H 0.85611 0.83605 0.07493 0.0
H620 H 0.66442 0.32948 0.64929 0.0
H621 H 0.66812 0.2953 0.64167 0.0
H622 H 0.65358 0.30368 0.56457 0.0
H623 H 0.64967 0.33813 0.57206 0.0
H624 H 0.63255 0.27466 0.5879 0.0
H625 H 0.70995 0.26512 0.60589 0.0
H626 H 0.69815 0.27799 0.63033 0.0
H627 H 0.69939 0.28827 0.5997 0.0
C628 C 0.66223 0.32416 0.6306 0.0
C629 C 0.65673 0.33658 0.61128 0.0
C630 C 0.6645 0.3046 0.62625 0.0
C631 C 0.66142 0.29697 0.60248 0.0
C632 C 0.6562 0.30931 0.58301 0.0
H633 H 0.6502 0.1729 0.57213 0.0
H634 H 0.65388 0.20733 0.56438 0.0
C635 C 0.654 0.32899 0.58732 0.0
C636 C 0.66218 0.27593 0.59877 0.0
H637 H 0.69037 0.23682 0.6094 0.0
C638 C 0.64528 0.26636 0.59205 0.0
C639 C 0.67883 0.26517 0.60418 0.0
C640 C 0.69766 0.27468 0.61018 0.0
C641 C 0.64425 0.24626 0.59221 0.0
C642 C 0.66065 0.23551 0.59889 0.0
C643 C 0.6778 0.24509 0.60438 0.0
C644 C 0.65976 0.21449 0.60273 0.0
C645 C 0.62533 0.23672 0.58668 0.0
C646 C 0.66245 0.20706 0.62668 0.0
C647 C 0.66044 0.18748 0.63116 0.0
C648 C 0.65577 0.17484 0.61173 0.0
C649 C 0.65373 0.18223 0.58753 0.0
C650 C 0.65572 0.20191 0.58308 0.0
H651 H 0.61333 0.24716 0.58593 0.0
H652 H 0.6262 0.2294 0.56842 0.0
H653 H 0.62202 0.22574 0.60097 0.0
H654 H 0.66564 0.21651 0.6421 0.0
H655 H 0.66222 0.18232 0.65 0.0
H656 H 0.08634 0.40214 0.82318 0.0
H657 H 0.05181 0.40632 0.81676 0.0
H658 H 0.04433 0.41624 0.8952 0.0
H659 H 0.07863 0.41223 0.9018 0.0
H660 H 0.02302 0.38388 0.83874 0.0
H661 H 0.01393 0.46019 0.86374 0.0
H662 H 0.03694 0.44995 0.85609 0.0
H663 H 0.02706 0.44696 0.88671 0.0
C664 C 0.07738 0.40549 0.83901 0.0
C665 C 0.08527 0.40685 0.86301 0.0
C666 C 0.05766 0.40785 0.83529 0.0
C667 C 0.04555 0.41187 0.85544 0.0
C668 C 0.05345 0.41356 0.87931 0.0
H669 H 0.93084 0.41134 0.90322 0.0
H670 H 0.96504 0.41495 0.89563 0.0
C671 C 0.07308 0.41112 0.88306 0.0
C672 C 0.02448 0.41287 0.85213 0.0
H673 H 0.98556 0.44068 0.86525 0.0
C674 C 0.0148 0.39641 0.84403 0.0
C675 C 0.01383 0.42925 0.85903 0.0
C676 C 0.02348 0.44766 0.86664 0.0
C677 C 0.9947 0.39548 0.84416 0.0
C678 C 0.98405 0.41157 0.85221 0.0
C679 C 0.99375 0.42834 0.85916 0.0
C680 C 0.96302 0.41064 0.85593 0.0
C681 C 0.98505 0.37692 0.83708 0.0
C682 C 0.95043 0.40743 0.83601 0.0
C683 C 0.93075 0.40531 0.84029 0.0
C684 C 0.92336 0.40641 0.86457 0.0
C685 C 0.936 0.41029 0.8843 0.0
C686 C 0.95558 0.41242 0.88 0.0
H687 H 0.99541 0.3649 0.83558 0.0
H688 H 0.97394 0.37304 0.85094 0.0
H689 H 0.9779 0.37867 0.81881 0.0
H690 H 0.95586 0.40633 0.81722 0.0
H691 H 0.92142 0.40242 0.82466 0.0
H692 H 0.57948 0.59923 0.40077 0.0
H693 H 0.54496 0.59742 0.39471 0.0
H694 H 0.55203 0.61049 0.31698 0.0
H695 H 0.58686 0.61224 0.3228 0.0
H696 H 0.52325 0.62933 0.37683 0.0
H697 H 0.51384 0.5644 0.31799 0.0
H698 H 0.53518 0.56842 0.33626 0.0
H699 H 0.53134 0.58177 0.30823 0.0
C700 C 0.57381 0.60148 0.38226 0.0
C701 C 0.58599 0.60599 0.36228 0.0
C702 C 0.55404 0.60042 0.37885 0.0
C703 C 0.54595 0.60374 0.3554 0.0
C704 C 0.55802 0.60762 0.33517 0.0
H705 H 0.42236 0.61335 0.32379 0.0
H706 H 0.45722 0.61189 0.31798 0.0
C707 C 0.57791 0.60868 0.33856 0.0
C708 C 0.52482 0.60464 0.35298 0.0
H709 H 0.48585 0.5812 0.32947 0.0
C710 C 0.51508 0.61888 0.36633 0.0
C711 C 0.51423 0.59111 0.33906 0.0
C712 C 0.52408 0.57545 0.32463 0.0
C713 C 0.49504 0.61967 0.3667 0.0
C714 C 0.48441 0.60565 0.35372 0.0
C715 C 0.49408 0.59184 0.33951 0.0
C716 C 0.46331 0.60455 0.35621 0.0
C717 C 0.48536 0.63539 0.38127 0.0
C718 C 0.45523 0.60032 0.37941 0.0
C719 C 0.43545 0.60115 0.38281 0.0
C720 C 0.42326 0.60617 0.36302 0.0
C721 C 0.43133 0.60949 0.33943 0.0
C722 C 0.45123 0.60866 0.33606 0.0
H723 H 0.49516 0.64766 0.38462 0.0
H724 H 0.47242 0.64069 0.37142 0.0
H725 H 0.48082 0.62968 0.39959 0.0
H726 H 0.46432 0.59685 0.3951 0.0
H727 H 0.42977 0.59832 0.40116 0.0
H728 H 0.58717 0.39755 0.68384 0.0
H729 H 0.5523 0.39944 0.68938 0.0
H730 H 0.54568 0.41386 0.61199 0.0
H731 H 0.58023 0.41196 0.6062 0.0
H732 H 0.52407 0.43061 0.67681 0.0
H733 H 0.51429 0.36332 0.62345 0.0
H734 H 0.53699 0.37018 0.63684 0.0
H735 H 0.52901 0.38088 0.60827 0.0
C736 C 0.57831 0.40135 0.66808 0.0
C737 C 0.5865 0.40438 0.6445 0.0
C738 C 0.55841 0.40243 0.6713 0.0
C739 C 0.54646 0.40651 0.651 0.0
C740 C 0.55467 0.41043 0.6278 0.0
H741 H 0.43027 0.41166 0.60574 0.0
H742 H 0.46482 0.41347 0.61166 0.0
C743 C 0.57445 0.40935 0.62455 0.0
C744 C 0.52535 0.4057 0.65335 0.0
H745 H 0.48637 0.38203 0.63063 0.0
C746 C 0.51576 0.41987 0.66703 0.0
C747 C 0.51463 0.39158 0.64068 0.0
C748 C 0.52422 0.3755 0.62665 0.0
C749 C 0.49562 0.42084 0.66727 0.0
C750 C 0.48496 0.40717 0.65369 0.0
C751 C 0.4946 0.39259 0.64085 0.0
C752 C 0.46384 0.40816 0.65122 0.0
C753 C 0.48589 0.43688 0.68112 0.0
C754 C 0.45177 0.40485 0.67163 0.0
C755 C 0.43189 0.4038 0.66832 0.0
C756 C 0.42379 0.40592 0.6445 0.0
C757 C 0.43596 0.40987 0.62432 0.0
C758 C 0.45574 0.41092 0.62765 0.0
H759 H 0.4962 0.44804 0.68725 0.0
H760 H 0.47477 0.44369 0.6693 0.0
H761 H 0.47868 0.43098 0.69782 0.0
H762 H 0.45776 0.4024 0.68992 0.0
H763 H 0.42294 0.40067 0.68424 0.0
H764 H 0.07852 0.60112 0.1038 0.0
H765 H 0.04438 0.59756 0.11205 0.0
H766 H 0.05442 0.60647 0.19022 0.0
H767 H 0.08878 0.61026 0.18214 0.0
H768 H 0.02449 0.57157 0.14391 0.0
H769 H 0.01431 0.64776 0.17157 0.0
H770 H 0.03551 0.63963 0.15554 0.0
H771 H 0.03239 0.63443 0.18794 0.0
C772 C 0.07356 0.60225 0.1228 0.0
C773 C 0.08642 0.60613 0.14229 0.0
C774 C 0.05401 0.60016 0.12748 0.0
C775 C 0.04684 0.602 0.15169 0.0
C776 C 0.05964 0.60529 0.17134 0.0
H777 H 0.92386 0.6105 0.18691 0.0
H778 H 0.95853 0.60682 0.19281 0.0
C779 C 0.07928 0.60735 0.1667 0.0
C780 C 0.02588 0.60095 0.15588 0.0
H781 H 0.98684 0.62849 0.1695 0.0
C782 C 0.01626 0.58394 0.14979 0.0
C783 C 0.01519 0.61707 0.1637 0.0
C784 C 0.02477 0.63583 0.16994 0.0
C785 C 0.9962 0.58279 0.15059 0.0
C786 C 0.98547 0.5992 0.1572 0.0
C787 C 0.99511 0.61594 0.16443 0.0
C788 C 0.96433 0.59992 0.15436 0.0
C789 C 0.98667 0.56409 0.14401 0.0
C790 C 0.95613 0.59731 0.13082 0.0
C791 C 0.93643 0.59943 0.12738 0.0
C792 C 0.92445 0.60433 0.14741 0.0
C793 C 0.93265 0.60664 0.17112 0.0
C794 C 0.95245 0.60457 0.17452 0.0
H795 H 0.99637 0.55175 0.14744 0.0
H796 H 0.97329 0.56197 0.15481 0.0
H797 H 0.98299 0.56414 0.12395 0.0
H798 H 0.96505 0.59415 0.11488 0.0
H799 H 0.93066 0.59759 0.10886 0.0
H800 H 0.14121 0.58474 0.02612 0.0
H801 H 0.14568 0.55565 1.00167 0.0
H802 H 0.17597 0.52951 0.0627 0.0
H803 H 0.17168 0.55874 0.0874 0.0
H804 H 0.19196 0.52217 0.01293 0.0
H805 H 0.11404 0.50716 0.02029 0.0
H806 H 0.11988 0.53055 0.00861 0.0
H807 H 0.12604 0.52428 0.03999 0.0
C808 C 0.14906 0.57293 0.0343 0.0
C809 C 0.15592 0.574 0.05883 0.0
C810 C 0.15156 0.55629 0.02028 0.0
C811 C 0.16089 0.54034 0.03052 0.0
C812 C 0.16867 0.54166 0.05451 0.0
H813 H 0.144 0.42448 0.97782 0.0
H814 H 0.14879 0.4529 1.00344 0.0
C815 C 0.16619 0.55837 0.06859 0.0
C816 C 0.16128 0.52195 0.01675 0.0
H817 H 0.13193 0.4873 0.99333 0.0
C818 C 0.17888 0.51447 0.00869 0.0
C819 C 0.1442 0.51183 0.01155 0.0
C820 C 0.12496 0.51872 0.02072 0.0
C821 C 0.17977 0.49729 0.99505 0.0
C822 C 0.16261 0.4875 0.9892 0.0
C823 C 0.14508 0.49485 0.9977 0.0
C824 C 0.16225 0.46955 0.9744 0.0
C825 C 0.19906 0.48963 0.98729 0.0
C826 C 0.16854 0.4693 0.94961 0.0
C827 C 0.16588 0.45297 0.93487 0.0
C828 C 0.1567 0.43669 0.94461 0.0
C829 C 0.15107 0.43677 0.96969 0.0
C830 C 0.15379 0.45303 0.98439 0.0
H831 H 0.21083 0.49591 0.99855 0.0
H832 H 0.19957 0.4738 0.98906 0.0
H833 H 0.20164 0.49337 0.96754 0.0
H834 H 0.17477 0.48199 0.94134 0.0
H835 H 0.17027 0.45341 0.91558 0.0
H836 H 0.69657 0.93188 0.33225 0.0
H837 H 0.72466 0.93883 0.30642 0.0
H838 H 0.71102 0.89046 0.25982 0.0
H839 H 0.68267 0.88408 0.28465 0.0
H840 H 0.75529 0.91921 0.2992 0.0
H841 H 0.7221 0.92821 0.20722 0.0
H842 H 0.70803 0.92751 0.2353 0.0
H843 H 0.71498 0.90562 0.21992 0.0
C844 C 0.6994 0.92298 0.31619 0.0
C845 C 0.68729 0.90754 0.31038 0.0
C846 C 0.71548 0.92693 0.30146 0.0
C847 C 0.71982 0.91544 0.28075 0.0
C848 C 0.7077 0.90001 0.27504 0.0
H849 H 0.82848 0.88417 0.22303 0.0
H850 H 0.80009 0.89086 0.24767 0.0
C851 C 0.69151 0.89627 0.28946 0.0
C852 C 0.73776 0.91844 0.26624 0.0
H853 H 0.75544 0.91809 0.2071 0.0
C854 C 0.75527 0.91933 0.27905 0.0
C855 C 0.73789 0.91915 0.23992 0.0
C856 C 0.71969 0.9203 0.22487 0.0
C857 C 0.77283 0.91968 0.26634 0.0
C858 C 0.77298 0.91834 0.24007 0.0
C859 C 0.75546 0.91871 0.22723 0.0
C860 C 0.79095 0.9152 0.22568 0.0
C861 C 0.79101 0.92143 0.28133 0.0
C862 C 0.79513 0.92623 0.20448 0.0
C863 C 0.81124 0.92208 0.18987 0.0
C864 C 0.82353 0.90692 0.1963 0.0
C865 C 0.81948 0.89614 0.21773 0.0
C866 C 0.80328 0.90007 0.23202 0.0
H867 H 0.7885 0.92973 0.29863 0.0
H868 H 0.79592 0.90693 0.28691 0.0
H869 H 0.80259 0.92851 0.2706 0.0
H870 H 0.78579 0.93789 0.19903 0.0
H871 H 0.81393 0.9306 0.17342 0.0
H872 H 0.32883 0.44702 0.58453 0.0
H873 H 0.32182 0.47499 0.55845 0.0
H874 H 0.36906 0.46012 0.51053 0.0
H875 H 0.37548 0.43189 0.53565 0.0
H876 H 0.34187 0.50518 0.55018 0.0
H877 H 0.33047 0.47148 0.45901 0.0
H878 H 0.33146 0.45761 0.48726 0.0
H879 H 0.35317 0.46403 0.47108 0.0
C880 C 0.33746 0.44955 0.56815 0.0
C881 C 0.3526 0.43714 0.56205 0.0
C882 C 0.33347 0.46556 0.55327 0.0
C883 C 0.34463 0.46952 0.53212 0.0
C884 C 0.35975 0.45709 0.52612 0.0
H885 H 0.37657 0.57721 0.47199 0.0
H886 H 0.37008 0.54893 0.49697 0.0
C887 C 0.36352 0.44098 0.54069 0.0
C888 C 0.34166 0.48739 0.51745 0.0
H889 H 0.34115 0.50463 0.45807 0.0
C890 C 0.34134 0.50501 0.53004 0.0
C891 C 0.34044 0.48734 0.49117 0.0
C892 C 0.33867 0.46906 0.47643 0.0
C893 C 0.34106 0.52248 0.51709 0.0
C894 C 0.34188 0.52241 0.49079 0.0
C895 C 0.34094 0.50481 0.47821 0.0
C896 C 0.34504 0.54021 0.47607 0.0
C897 C 0.33997 0.54081 0.53187 0.0
C898 C 0.33357 0.54454 0.45531 0.0
C899 C 0.33759 0.56057 0.4405 0.0
C900 C 0.35307 0.57264 0.44629 0.0
C901 C 0.36436 0.56839 0.46721 0.0
C902 C 0.36054 0.55226 0.4817 0.0
H903 H 0.33201 0.53858 0.54952 0.0
H904 H 0.35466 0.54549 0.53682 0.0
H905 H 0.33284 0.55242 0.52123 0.0
H906 H 0.32163 0.5354 0.4504 0.0
H907 H 0.32867 0.56343 0.42444 0.0
H908 H 0.69655 0.08072 0.67486 0.0
H909 H 0.72445 0.07338 0.70092 0.0
H910 H 0.71106 0.12171 0.74771 0.0
H911 H 0.6829 0.12852 0.72261 0.0
H912 H 0.75526 0.0928 0.7087 0.0
H913 H 0.72122 0.08332 0.80006 0.0
H914 H 0.70741 0.08432 0.77175 0.0
H915 H 0.71438 0.10605 0.78747 0.0
C916 C 0.6994 0.08955 0.69098 0.0
C917 C 0.68742 0.1051 0.69679 0.0
C918 C 0.71536 0.08536 0.70585 0.0
C919 C 0.7197 0.09671 0.72669 0.0
C920 C 0.70772 0.11227 0.73237 0.0
H921 H 0.82795 0.1266 0.78658 0.0
H922 H 0.79964 0.12044 0.76152 0.0
C923 C 0.69166 0.11626 0.7178 0.0
C924 C 0.73747 0.09341 0.74141 0.0
H925 H 0.75466 0.09302 0.80082 0.0
C926 C 0.75508 0.09248 0.72885 0.0
C927 C 0.73737 0.09246 0.76771 0.0
C928 C 0.71903 0.09136 0.78246 0.0
C929 C 0.77253 0.09187 0.74182 0.0
C930 C 0.77246 0.09295 0.76811 0.0
C931 C 0.75484 0.0926 0.78068 0.0
C932 C 0.79032 0.09581 0.7828 0.0
C933 C 0.79083 0.09016 0.72708 0.0
C934 C 0.79435 0.08445 0.80375 0.0
C935 C 0.81041 0.08827 0.8186 0.0
C936 C 0.8228 0.10346 0.81265 0.0
C937 C 0.81887 0.11462 0.7915 0.0
C938 C 0.80272 0.11099 0.77697 0.0
H939 H 0.78841 0.0821 0.70957 0.0
H940 H 0.79589 0.10468 0.72191 0.0
H941 H 0.80225 0.08284 0.73786 0.0
H942 H 0.78493 0.07275 0.8088 0.0
H943 H 0.81301 0.07947 0.83482 0.0
H944 H 0.82872 0.4454 0.92837 0.0
H945 H 0.82212 0.47365 0.95407 0.0
H946 H 0.87184 0.46098 0.99882 0.0
H947 H 0.87786 0.43241 0.97418 0.0
H948 H 0.84428 0.4726 0.02741 0.0
H949 H 0.84976 0.5232 0.94811 0.0
H950 H 0.83094 0.50591 0.94495 0.0
H951 H 0.85554 0.49817 0.94514 0.0
C952 C 0.83811 0.44859 0.94385 0.0
C953 C 0.85386 0.43672 0.94916 0.0
C954 C 0.83443 0.46483 0.95839 0.0
C955 C 0.84674 0.46976 0.97807 0.0
C956 C 0.86212 0.45757 0.98375 0.0
H957 H 0.87727 0.57721 0.03964 0.0
H958 H 0.87128 0.54856 0.01515 0.0
C959 C 0.86558 0.4412 0.96958 0.0
C960 C 0.84417 0.48775 0.99258 0.0
H961 H 0.84343 0.53651 0.98733 0.0
C962 C 0.84399 0.48658 0.01864 0.0
C963 C 0.84392 0.50603 0.98115 0.0
C964 C 0.84523 0.50849 0.95333 0.0
C965 C 0.84441 0.50307 0.03358 0.0
C966 C 0.84417 0.52136 0.02216 0.0
C967 C 0.84351 0.52252 0.9961 0.0
C968 C 0.8467 0.53938 0.0366 0.0
C969 C 0.84625 0.50064 0.06136 0.0
C970 C 0.83466 0.54412 0.05663 0.0
C971 C 0.83833 0.56041 0.07108 0.0
C972 C 0.85379 0.57252 0.06533 0.0
C973 C 0.86522 0.56822 0.04458 0.0
C974 C 0.86178 0.55181 0.0305 0.0
H975 H 0.85112 0.486 0.06644 0.0
H976 H 0.85654 0.51111 0.06925 0.0
H977 H 0.83208 0.503 0.07014 0.0
H978 H 0.82258 0.53511 0.06129 0.0
H979 H 0.82917 0.56345 0.08682 0.0
H980 H 0.20264 0.08841 0.84014 0.0
H981 H 0.23186 0.0842 0.8154 0.0
H982 H 0.2044 0.11133 0.75287 0.0
H983 H 0.1753 0.11571 0.77735 0.0
H984 H 0.23955 0.06682 0.76623 0.0
H985 H 0.25176 0.14541 0.76974 0.0
H986 H 0.2352 0.13336 0.7902 0.0
H987 H 0.22857 0.13831 0.75859 0.0
C988 C 0.20272 0.0932 0.82099 0.0
C989 C 0.18671 0.10259 0.8108 0.0
C990 C 0.21942 0.09077 0.8069 0.0
C991 C 0.22035 0.09772 0.78245 0.0
C992 C 0.20404 0.1061 0.77182 0.0
H993 H 0.30802 0.08861 0.66824 0.0
H994 H 0.27938 0.0838 0.69381 0.0
C995 C 0.1874 0.10856 0.78585 0.0
C996 C 0.23871 0.09757 0.76862 0.0
H997 H 0.27237 0.12743 0.74391 0.0
C998 C 0.2468 0.08003 0.76137 0.0
C999 C 0.24822 0.11484 0.76261 0.0
C1000 C 0.24063 0.13407 0.77084 0.0
C1001 C 0.26402 0.07936 0.7478 0.0
C1002 C 0.27323 0.09668 0.74122 0.0
C1003 C 0.26525 0.11416 0.74885 0.0
C1004 C 0.29126 0.09725 0.7266 0.0
C1005 C 0.27235 0.06016 0.74092 0.0
C1006 C 0.30747 0.10631 0.73654 0.0
C1007 C 0.32376 0.10918 0.72196 0.0
C1008 C 0.32417 0.10312 0.69705 0.0
C1009 C 0.3082 0.09336 0.68739 0.0
C1010 C 0.29184 0.09052 0.70202 0.0
H1011 H 0.26629 0.04844 0.75244 0.0
H1012 H 0.269 0.05706 0.72118 0.0
H1013 H 0.28817 0.06019 0.74307 0.0
H1014 H 0.30733 0.11165 0.75543 0.0
H1015 H 0.3358 0.11671 0.73003 0.0
H1016 H 0.681 0.56472 0.42441 0.0
H1017 H 0.68748 0.5364 0.45009 0.0
H1018 H 0.63827 0.54966 0.49541 0.0
H1019 H 0.63238 0.57829 0.47076 0.0
H1020 H 0.66593 0.53774 0.52371 0.0
H1021 H 0.65925 0.48715 0.44463 0.0
H1022 H 0.67822 0.50424 0.44114 0.0
H1023 H 0.65371 0.51225 0.44167 0.0
C1024 C 0.6717 0.56164 0.44 0.0
C1025 C 0.65613 0.57369 0.44548 0.0
C1026 C 0.67531 0.54536 0.45454 0.0
C1027 C 0.6631 0.54058 0.47438 0.0
C1028 C 0.6479 0.55295 0.48021 0.0
H1029 H 0.6326 0.4332 0.53662 0.0
H1030 H 0.63834 0.46191 0.51211 0.0
C1031 C 0.64452 0.56935 0.46604 0.0
C1032 C 0.6656 0.52258 0.48891 0.0
H1033 H 0.66593 0.47381 0.48377 0.0
C1034 C 0.66603 0.52375 0.51497 0.0
C1035 C 0.66559 0.50428 0.47753 0.0
C1036 C 0.66399 0.50182 0.44974 0.0
C1037 C 0.66565 0.50727 0.52995 0.0
C1038 C 0.66565 0.48898 0.51857 0.0
C1039 C 0.66604 0.4878 0.49251 0.0
C1040 C 0.66321 0.47097 0.53309 0.0
C1041 C 0.66411 0.50973 0.55775 0.0
C1042 C 0.67547 0.46617 0.55288 0.0
C1043 C 0.67195 0.44983 0.56735 0.0
C1044 C 0.65641 0.43776 0.56185 0.0
C1045 C 0.64472 0.44215 0.54135 0.0
C1046 C 0.64801 0.4586 0.52726 0.0
H1047 H 0.65936 0.52439 0.56287 0.0
H1048 H 0.65386 0.4993 0.56584 0.0
H1049 H 0.67836 0.5073 0.56631 0.0
H1050 H 0.68763 0.47513 0.55733 0.0
H1051 H 0.68131 0.44672 0.58289 0.0
H1052 H 0.32826 0.88339 0.28757 0.0
H1053 H 0.30002 0.89019 0.26263 0.0
H1054 H 0.2858 0.93744 0.31083 0.0
H1055 H 0.3138 0.93009 0.33672 0.0
H1056 H 0.25537 0.9175 0.30269 0.0
H1057 H 0.28884 0.92918 0.21141 0.0
H1058 H 0.29621 0.9064 0.22331 0.0
H1059 H 0.30278 0.92801 0.23959 0.0
C1060 C 0.31932 0.89543 0.29272 0.0
C1061 C 0.32334 0.90626 0.3141 0.0
C1062 C 0.3032 0.89942 0.27825 0.0
C1063 C 0.29095 0.91464 0.28439 0.0
C1064 C 0.2951 0.92572 0.30554 0.0
H1065 H 0.19679 0.93143 0.17734 0.0
H1066 H 0.22479 0.93843 0.20336 0.0
C1067 C 0.31112 0.92153 0.32031 0.0
C1068 C 0.27304 0.91781 0.26986 0.0
H1069 H 0.25561 0.91873 0.21058 0.0
C1070 C 0.25547 0.91814 0.28255 0.0
C1071 C 0.27302 0.91917 0.24359 0.0
C1072 C 0.29127 0.9209 0.22877 0.0
C1073 C 0.23796 0.91855 0.26971 0.0
C1074 C 0.23795 0.91788 0.2434 0.0
C1075 C 0.25551 0.91883 0.23073 0.0
C1076 C 0.22009 0.91481 0.22875 0.0
C1077 C 0.21968 0.91959 0.28459 0.0
C1078 C 0.20811 0.89924 0.23423 0.0
C1079 C 0.19199 0.89544 0.21969 0.0
C1080 C 0.1877 0.90683 0.19888 0.0
C1081 C 0.19967 0.92243 0.1933 0.0
C1082 C 0.21569 0.92642 0.20814 0.0
H1083 H 0.22198 0.92742 0.30231 0.0
H1084 H 0.20805 0.92681 0.27408 0.0
H1085 H 0.21498 0.90487 0.28939 0.0
H1086 H 0.21149 0.88962 0.2494 0.0
H1087 H 0.18325 0.88314 0.22434 0.0
H1088 H 0.63225 0.07811 0.53708 0.0
H1089 H 0.63819 0.0495 0.51248 0.0
H1090 H 0.6879 0.03674 0.5572 0.0
H1091 H 0.68139 0.06505 0.58285 0.0
H1092 H 0.66575 0.03791 0.48385 0.0
H1093 H 0.66023 0.98717 0.56298 0.0
H1094 H 0.65445 0.0122 0.56602 0.0
H1095 H 0.67904 1.00446 0.56626 0.0
C1096 C 0.64451 0.06928 0.54169 0.0
C1097 C 0.65626 0.07377 0.56207 0.0
C1098 C 0.64791 0.05289 0.52754 0.0
C1099 C 0.66328 0.04067 0.53321 0.0
C1100 C 0.6756 0.04558 0.55288 0.0
H1101 H 0.68175 0.94728 0.4243 0.0
H1102 H 0.68796 0.97565 0.44995 0.0
C1103 C 0.67198 0.06186 0.5674 0.0
C1104 C 0.66585 0.0227 0.51865 0.0
H1105 H 0.66678 0.97394 0.52376 0.0
C1106 C 0.66608 0.02391 0.49259 0.0
C1107 C 0.66614 1.0044 0.53002 0.0
C1108 C 0.66477 1.00189 0.55783 0.0
C1109 C 0.66578 0.00745 0.4776 0.0
C1110 C 0.66608 0.98914 0.48897 0.0
C1111 C 0.66666 0.98794 0.51502 0.0
C1112 C 0.66377 0.97112 0.47445 0.0
C1113 C 0.664 0.00992 0.44982 0.0
C1114 C 0.64877 0.95855 0.48039 0.0
C1115 C 0.64555 0.94212 0.46625 0.0
C1116 C 0.65711 0.93796 0.44558 0.0
C1117 C 0.67249 0.95021 0.43998 0.0
C1118 C 0.67594 0.96653 0.4545 0.0
H1119 H 0.65902 0.02453 0.44477 0.0
H1120 H 0.67822 0.0077 0.4411 0.0
H1121 H 0.65383 0.99937 0.44183 0.0
H1122 H 0.63917 0.96169 0.49567 0.0
H1123 H 0.63355 0.93302 0.47106 0.0
H1124 H 0.30698 0.42228 0.668 0.0
H1125 H 0.27837 0.42704 0.69364 0.0
H1126 H 0.30665 0.39969 0.75543 0.0
H1127 H 0.3351 0.39466 0.72996 0.0
H1128 H 0.27182 0.38366 0.74434 0.0
H1129 H 0.26512 0.46266 0.75182 0.0
H1130 H 0.26775 0.45386 0.72064 0.0
H1131 H 0.28706 0.45101 0.74241 0.0
C1132 C 0.30724 0.41763 0.6872 0.0
C1133 C 0.32329 0.40801 0.6969 0.0
C1134 C 0.2909 0.42045 0.70187 0.0
C1135 C 0.29041 0.41385 0.72652 0.0
C1136 C 0.30671 0.40493 0.73648 0.0
H1137 H 0.202 0.42265 0.84031 0.0
H1138 H 0.23113 0.42697 0.81543 0.0
C1139 C 0.32298 0.40207 0.72186 0.0
C1140 C 0.27242 0.41439 0.7412 0.0
H1141 H 0.23854 0.44419 0.7659 0.0
C1142 C 0.26461 0.39691 0.74912 0.0
C1143 C 0.26308 0.4317 0.74757 0.0
C1144 C 0.27123 0.45091 0.74039 0.0
C1145 C 0.24762 0.39621 0.76295 0.0
C1146 C 0.23797 0.41345 0.76873 0.0
C1147 C 0.24589 0.431 0.76121 0.0
C1148 C 0.21964 0.41327 0.78262 0.0
C1149 C 0.2402 0.377 0.77148 0.0
C1150 C 0.20337 0.40475 0.77211 0.0
C1151 C 0.18678 0.40224 0.78622 0.0
C1152 C 0.18611 0.40828 0.81114 0.0
C1153 C 0.20207 0.41781 0.8212 0.0
C1154 C 0.21872 0.4203 0.80702 0.0
H1155 H 0.2514 0.36572 0.77046 0.0
H1156 H 0.23484 0.37781 0.79087 0.0
H1157 H 0.22811 0.37259 0.75937 0.0
H1158 H 0.20373 0.39945 0.7532 0.0
H1159 H 0.17471 0.39497 0.77781 0.0
H1160 H 0.87957 0.07723 0.97261 0.0
H1161 H 0.87415 0.04861 0.99742 0.0
H1162 H 0.8237 0.03577 0.9542 0.0
H1163 H 0.82969 0.06406 0.9283 0.0
H1164 H 0.84733 0.03681 0.02687 0.0
H1165 H 0.85134 0.98633 0.94741 0.0
H1166 H 0.85694 0.01138 0.94424 0.0
H1167 H 0.83238 1.00354 0.94477 0.0
C1168 C 0.86726 0.06838 0.96839 0.0
C1169 C 0.85515 0.07283 0.94833 0.0
C1170 C 0.86415 0.05199 0.98266 0.0
C1171 C 0.84873 0.03973 0.97744 0.0
C1172 C 0.83604 0.04463 0.95815 0.0
H1173 H 0.83143 0.946 0.0862 0.0
H1174 H 0.82543 0.97477 0.0612 0.0
C1175 C 0.83937 0.0609 0.94349 0.0
C1176 C 0.8465 0.02172 0.99202 0.0
H1177 H 0.84532 0.97298 0.98674 0.0
C1178 C 0.8468 0.02284 0.01809 0.0
C1179 C 0.84597 1.00345 0.98059 0.0
C1180 C 0.84682 1.00102 0.95274 0.0
C1181 C 0.84736 0.00632 0.033 0.0
C1182 C 0.84675 0.98806 0.02157 0.0
C1183 C 0.84568 0.98695 0.99553 0.0
C1184 C 0.84909 0.96996 0.03594 0.0
C1185 C 0.8497 0.0087 0.06071 0.0
C1186 C 0.86374 0.95712 0.0294 0.0
C1187 C 0.86681 0.94047 0.04317 0.0
C1188 C 0.85547 0.93633 0.06405 0.0
C1189 C 0.84052 0.94891 0.07034 0.0
C1190 C 0.83719 0.96545 0.05619 0.0
H1191 H 0.85498 0.02322 0.06563 0.0
H1192 H 0.83561 0.00669 0.06987 0.0
H1193 H 0.85985 0.99797 0.06837 0.0
H1194 H 0.87312 0.9602 0.01388 0.0
H1195 H 0.87848 0.93111 0.03786 0.0
H1196 H 0.1825 0.62872 0.21819 0.0
H1197 H 0.21105 0.623 0.24305 0.0
H1198 H 0.22524 0.57434 0.19722 0.0
H1199 H 0.19698 0.58064 0.17135 0.0
H1200 H 0.2231 0.59519 0.27111 0.0
H1201 H 0.27418 0.60329 0.19279 0.0
H1202 H 0.24905 0.60855 0.18961 0.0
H1203 H 0.25735 0.58415 0.18879 0.0
C1204 C 0.19163 0.61674 0.2134 0.0
C1205 C 0.18755 0.60523 0.19264 0.0
C1206 C 0.20799 0.61346 0.22769 0.0
C1207 C 0.22059 0.59846 0.2218 0.0
C1208 C 0.21609 0.58636 0.20174 0.0
H1209 H 0.31378 0.58005 0.33118 0.0
H1210 H 0.28567 0.57375 0.30505 0.0
C1211 C 0.19984 0.58986 0.18709 0.0
C1212 C 0.23852 0.59607 0.23651 0.0
H1213 H 0.28732 0.59638 0.232 0.0
C1214 C 0.23715 0.59535 0.26255 0.0
C1215 C 0.2569 0.59642 0.22537 0.0
C1216 C 0.25954 0.59832 0.19764 0.0
C1217 C 0.25352 0.59576 0.27775 0.0
C1218 C 0.2719 0.59609 0.26661 0.0
C1219 C 0.27327 0.59602 0.24056 0.0
C1220 C 0.28977 0.59854 0.28142 0.0
C1221 C 0.25084 0.59696 0.30554 0.0
C1222 C 0.30203 0.61394 0.27611 0.0
C1223 C 0.31831 0.61723 0.29053 0.0
C1224 C 0.32265 0.60533 0.31084 0.0
C1225 C 0.31071 0.58958 0.3158 0.0
C1226 C 0.29454 0.58607 0.301 0.0
H1227 H 0.23608 0.60149 0.31056 0.0
H1228 H 0.25335 0.58264 0.31386 0.0
H1229 H 0.26109 0.60722 0.31396 0.0
H1230 H 0.29874 0.62377 0.26112 0.0
H1231 H 0.32716 0.62952 0.28621 0.0
H1232 H 0.3396 0.05779 0.59244 0.0
H1233 H 0.33541 0.02872 0.56743 0.0
H1234 H 0.36385 0.056 0.50582 0.0
H1235 H 0.36823 0.08496 0.53058 0.0
H1236 H 0.31853 0.02142 0.51828 0.0
H1237 H 0.39691 0.00807 0.52243 0.0
H1238 H 0.38501 0.0248 0.54278 0.0
H1239 H 0.39026 0.03139 0.51124 0.0
C1240 C 0.3447 0.0577 0.57345 0.0
C1241 C 0.35444 0.07363 0.56361 0.0
C1242 C 0.34228 0.04108 0.55919 0.0
C1243 C 0.34959 0.04013 0.53493 0.0
C1244 C 0.35836 0.05636 0.52464 0.0
H1245 H 0.33926 0.95289 0.42013 0.0
H1246 H 0.33503 0.9816 0.44575 0.0
C1247 C 0.36081 0.07292 0.53883 0.0
C1248 C 0.34929 0.02185 0.5209 0.0
H1249 H 0.37881 0.98792 0.4961 0.0
C1250 C 0.33167 0.01403 0.51346 0.0
C1251 C 0.36646 0.01213 0.51494 0.0
C1252 C 0.38575 0.01939 0.52341 0.0
C1253 C 0.33083 0.99689 0.49974 0.0
C1254 C 0.34806 0.98748 0.49318 0.0
C1255 C 0.36561 0.99519 0.50101 0.0
C1256 C 0.34844 0.96949 0.47845 0.0
C1257 C 0.31155 0.98884 0.49269 0.0
C1258 C 0.35733 0.95313 0.48829 0.0
C1259 C 0.35988 0.93681 0.47368 0.0
C1260 C 0.35365 0.93649 0.44882 0.0
C1261 C 0.34412 0.95264 0.43923 0.0
C1262 C 0.34161 0.96903 0.4539 0.0
H1263 H 0.29988 0.99496 0.50427 0.0
H1264 H 0.30849 0.9924 0.47299 0.0
H1265 H 0.31138 0.97301 0.49462 0.0
H1266 H 0.36274 0.95317 0.50716 0.0
H1267 H 0.36724 0.92463 0.48169 0.0
H1268 H 0.82851 0.62538 0.22575 0.0
H1269 H 0.79994 0.61878 0.25008 0.0
H1270 H 0.78616 0.57144 0.20179 0.0
H1271 H 0.81448 0.57862 0.17648 0.0
H1272 H 0.75572 0.59136 0.20917 0.0
H1273 H 0.78799 0.58012 0.30127 0.0
H1274 H 0.79556 0.60284 0.28943 0.0
H1275 H 0.80231 0.58115 0.27342 0.0
C1276 C 0.81959 0.61336 0.22047 0.0
C1277 C 0.82383 0.60246 0.19923 0.0
C1278 C 0.80329 0.60948 0.23459 0.0
C1279 C 0.79106 0.59429 0.22825 0.0
C1280 C 0.79543 0.58314 0.20723 0.0
H1281 H 0.69574 0.57897 0.33369 0.0
H1282 H 0.72396 0.57153 0.30832 0.0
C1283 C 0.81164 0.58723 0.1928 0.0
C1284 C 0.77298 0.59124 0.2424 0.0
H1285 H 0.75481 0.59083 0.30128 0.0
C1286 C 0.75557 0.59086 0.22931 0.0
C1287 C 0.77261 0.59005 0.26867 0.0
C1288 C 0.79067 0.58833 0.28393 0.0
C1289 C 0.73789 0.5906 0.24176 0.0
C1290 C 0.73756 0.59149 0.26806 0.0
C1291 C 0.75495 0.59057 0.28113 0.0
C1292 C 0.71954 0.59477 0.28226 0.0
C1293 C 0.71981 0.58946 0.22647 0.0
C1294 C 0.70762 0.61029 0.27618 0.0
C1295 C 0.69136 0.61432 0.29033 0.0
C1296 C 0.68687 0.60325 0.31135 0.0
C1297 C 0.69878 0.58772 0.31754 0.0
C1298 C 0.71493 0.58348 0.30307 0.0
H1299 H 0.72231 0.5814 0.20898 0.0
H1300 H 0.70801 0.58243 0.23684 0.0
H1301 H 0.71524 0.60414 0.22124 0.0
H1302 H 0.71116 0.61969 0.26086 0.0
H1303 H 0.68268 0.62656 0.28524 0.0
H1304 H 0.17297 0.95423 0.09051 0.0
H1305 H 0.17727 0.98293 0.06475 0.0
H1306 H 0.14576 0.9561 0.00534 0.0
H1307 H 0.14124 0.92756 0.03088 0.0
H1308 H 0.19256 0.98948 0.0148 0.0
H1309 H 0.11479 1.00503 0.02282 0.0
H1310 H 0.12684 0.98803 0.04268 0.0
H1311 H 0.12034 0.98147 0.01152 0.0
C1312 C 0.16722 0.95434 0.07182 0.0
C1313 C 0.15657 0.93869 0.06286 0.0
C1314 C 0.16969 0.97074 0.05714 0.0
C1315 C 0.16156 0.97174 0.03331 0.0
C1316 C 0.15189 0.95573 0.02383 0.0
H1317 H 0.17046 0.05701 0.91597 0.0
H1318 H 0.17509 0.02877 0.94236 0.0
C1319 C 0.14937 0.9394 0.03846 0.0
C1320 C 0.16191 0.98989 0.01898 0.0
H1321 H 0.13251 0.02428 0.99493 0.0
C1322 C 0.17947 0.99717 0.0105 0.0
C1323 C 0.14482 1.0 0.0137 0.0
C1324 C 0.12563 0.99338 0.02331 0.0
C1325 C 0.18032 0.01413 0.99637 0.0
C1326 C 0.16315 0.0239 0.99046 0.0
C1327 C 0.14566 0.01675 0.99935 0.0
C1328 C 0.16273 0.04166 0.97523 0.0
C1329 C 0.19958 0.02159 0.9882 0.0
C1330 C 0.15433 0.05831 0.9849 0.0
C1331 C 0.15151 0.07436 0.96984 0.0
C1332 C 0.15702 0.07412 0.94471 0.0
C1333 C 0.16617 0.05771 0.93528 0.0
C1334 C 0.16891 0.04157 0.95039 0.0
H1335 H 0.2114 0.01543 0.99949 0.0
H1336 H 0.20202 0.01755 0.96852 0.0
H1337 H 0.20016 0.03745 0.98955 0.0
H1338 H 0.14942 0.0587 0.00399 0.0
H1339 H 0.14448 0.08677 0.97774 0.0
H1340 H 0.69553 0.43091 0.67653 0.0
H1341 H 0.72362 0.43751 0.70255 0.0
H1342 H 0.71099 0.38755 0.7468 0.0
H1343 H 0.68258 0.3815 0.72182 0.0
H1344 H 0.72233 0.41509 0.77572 0.0
H1345 H 0.77334 0.41004 0.69687 0.0
H1346 H 0.75596 0.42879 0.69362 0.0
H1347 H 0.74835 0.40416 0.69365 0.0
C1348 C 0.69869 0.42147 0.69196 0.0
C1349 C 0.68689 0.40563 0.69704 0.0
C1350 C 0.71485 0.42515 0.70669 0.0
C1351 C 0.71975 0.41277 0.72633 0.0
C1352 C 0.70761 0.39731 0.73177 0.0
H1353 H 0.82719 0.38285 0.78882 0.0
H1354 H 0.79853 0.38857 0.76419 0.0
C1355 C 0.69133 0.39384 0.71741 0.0
C1356 C 0.73765 0.41536 0.74102 0.0
H1357 H 0.78642 0.41639 0.73623 0.0
C1358 C 0.73636 0.41548 0.76708 0.0
C1359 C 0.75598 0.41573 0.72977 0.0
C1360 C 0.75858 0.4145 0.70197 0.0
C1361 C 0.75278 0.41514 0.78217 0.0
C1362 C 0.77112 0.41551 0.77092 0.0
C1363 C 0.7724 0.41622 0.74488 0.0
C1364 C 0.7891 0.41311 0.78552 0.0
C1365 C 0.75024 0.41326 0.80992 0.0
C1366 C 0.79368 0.42521 0.80554 0.0
C1367 C 0.80999 0.4217 0.82008 0.0
C1368 C 0.82225 0.40634 0.81441 0.0
C1369 C 0.81809 0.39483 0.79369 0.0
C1370 C 0.80167 0.39811 0.77953 0.0
H1371 H 0.73561 0.4083 0.81487 0.0
H1372 H 0.76076 0.40304 0.81789 0.0
H1373 H 0.75247 0.42744 0.81874 0.0
H1374 H 0.78455 0.43722 0.81013 0.0
H1375 H 0.81292 0.43092 0.83579 0.0
loop_
_geom_bond_atom_site_label_1
_geom_bond_atom_site_label_2
_geom_bond_distance
_geom_bond_site_symmetry_2
_ccdc_geom_bond_type
O0 Cd1 2.223 . S
O0 C8 1.315 . S
Cd1 O0 2.223 . S
Cd1 O4 2.297 . S
Cd1 O5 2.439 . S
Cd1 O11 2.240 . S
Cd2 O3 2.240 . S
Cd2 O10 2.223 . S
Cd2 O12 2.297 . S
Cd2 O13 2.439 . S
O3 Cd2 2.240 . S
O3 C8 1.279 . S
O4 Cd1 2.297 . S
O4 C6 1.247 . S
O5 Cd1 2.439 . S
O5 C6 1.208 . S
C6 O4 1.247 . S
C6 O5 1.208 . S
C7 O12 1.247 . S
C7 O13 1.208 . S
C8 O0 1.315 . S
C8 O3 1.279 . S
C9 O10 1.315 . S
C9 O11 1.279 . S
O10 Cd2 2.223 . S
O10 C9 1.315 . S
O11 Cd1 2.240 . S
O11 C9 1.279 . S
O12 Cd2 2.297 . S
O12 C7 1.247 . S
O13 Cd2 2.439 . S
O13 C7 1.208 . S
O14 Cd15 2.223 . S
O14 C22 1.315 . S
Cd15 O14 2.223 . S
Cd15 O18 2.297 . S
Cd15 O19 2.439 . S
Cd15 O25 2.240 . S
Cd16 O17 2.240 . S
Cd16 O24 2.223 . S
Cd16 O26 2.297 . S
Cd16 O27 2.439 . S
O17 Cd16 2.240 . S
O17 C22 1.279 . S
O18 Cd15 2.297 . S
O18 C20 1.247 . S
O19 Cd15 2.439 . S
O19 C20 1.208 . S
C20 O18 1.247 . S
C20 O19 1.208 . S
C21 O26 1.247 . S
C21 O27 1.208 . S
C22 O14 1.315 . S
C22 O17 1.279 . S
C23 O24 1.315 . S
C23 O25 1.279 . S
O24 Cd16 2.223 . S
O24 C23 1.315 . S
O25 Cd15 2.240 . S
O25 C23 1.279 . S
O26 Cd16 2.297 . S
O26 C21 1.247 . S
O27 Cd16 2.439 . S
O27 C21 1.208 . S
O28 Cd29 2.223 . S
O28 C36 1.315 . S
Cd29 O28 2.223 . S
Cd29 O32 2.297 . S
Cd29 O33 2.439 . S
Cd29 O39 2.240 . S
Cd30 O31 2.240 . S
Cd30 O38 2.223 . S
Cd30 O40 2.297 . S
Cd30 O41 2.439 . S
O31 Cd30 2.240 . S
O31 C36 1.279 . S
O32 Cd29 2.297 . S
O32 C34 1.247 . S
O33 Cd29 2.439 . S
O33 C34 1.208 . S
C34 O32 1.247 . S
C34 O33 1.208 . S
C35 O40 1.247 . S
C35 O41 1.208 . S
C36 O28 1.315 . S
C36 O31 1.279 . S
C37 O38 1.315 . S
C37 O39 1.279 . S
O38 Cd30 2.223 . S
O38 C37 1.315 . S
O39 Cd29 2.240 . S
O39 C37 1.279 . S
O40 Cd30 2.297 . S
O40 C35 1.247 . S
O41 Cd30 2.439 . S
O41 C35 1.208 . S
O42 Cd43 2.223 . S
O42 C50 1.315 . S
Cd43 O42 2.223 . S
Cd43 O46 2.297 . S
Cd43 O47 2.439 . S
Cd43 O53 2.240 . S
Cd44 O45 2.240 . S
Cd44 O52 2.223 . S
Cd44 O54 2.297 . S
Cd44 O55 2.439 . S
O45 Cd44 2.240 . S
O45 C50 1.279 . S
O46 Cd43 2.297 . S
O46 C48 1.247 . S
O47 Cd43 2.439 . S
O47 C48 1.208 . S
C48 O46 1.247 . S
C48 O47 1.208 . S
C49 O54 1.247 . S
C49 O55 1.208 . S
C50 O42 1.315 . S
C50 O45 1.279 . S
C51 O52 1.315 . S
C51 O53 1.279 . S
O52 Cd44 2.223 . S
O52 C51 1.315 . S
O53 Cd43 2.240 . S
O53 C51 1.279 . S
O54 Cd44 2.297 . S
O54 C49 1.247 . S
O55 Cd44 2.439 . S
O55 C49 1.208 . S
O56 Cd57 2.223 . S
O56 C64 1.315 . S
Cd57 O56 2.223 . S
Cd57 O60 2.297 . S
Cd57 O61 2.439 . S
Cd57 O67 2.240 . S
Cd58 O59 2.240 . S
Cd58 O66 2.223 . S
Cd58 O68 2.297 . S
Cd58 O69 2.439 . S
O59 Cd58 2.240 . S
O59 C64 1.279 . S
O60 Cd57 2.297 . S
O60 C62 1.247 . S
O61 Cd57 2.439 . S
O61 C62 1.208 . S
C62 O60 1.247 . S
C62 O61 1.208 . S
C63 O68 1.247 . S
C63 O69 1.208 . S
C64 O56 1.315 . S
C64 O59 1.279 . S
C65 O66 1.315 . S
C65 O67 1.279 . S
O66 Cd58 2.223 . S
O66 C65 1.315 . S
O67 Cd57 2.240 . S
O67 C65 1.279 . S
O68 Cd58 2.297 . S
O68 C63 1.247 . S
O69 Cd58 2.439 . S
O69 C63 1.208 . S
O70 Cd71 2.223 . S
O70 C78 1.315 . S
Cd71 O70 2.223 . S
Cd71 O74 2.297 . S
Cd71 O75 2.439 . S
Cd71 O81 2.240 . S
Cd72 O73 2.240 . S
Cd72 O80 2.223 . S
Cd72 O82 2.297 . S
Cd72 O83 2.439 . S
O73 Cd72 2.240 . S
O73 C78 1.279 . S
O74 Cd71 2.297 . S
O74 C76 1.247 . S
O75 Cd71 2.439 . S
O75 C76 1.208 . S
C76 O74 1.247 . S
C76 O75 1.208 . S
C77 O82 1.247 . S
C77 O83 1.208 . S
C78 O70 1.315 . S
C78 O73 1.279 . S
C79 O80 1.315 . S
C79 O81 1.279 . S
O80 Cd72 2.223 . S
O80 C79 1.315 . S
O81 Cd71 2.240 . S
O81 C79 1.279 . S
O82 Cd72 2.297 . S
O82 C77 1.247 . S
O83 Cd72 2.439 . S
O83 C77 1.208 . S
O84 Cd85 2.223 . S
O84 C92 1.315 . S
Cd85 O84 2.223 . S
Cd85 O88 2.297 . S
Cd85 O89 2.439 . S
Cd85 O95 2.240 . S
Cd86 O87 2.240 . S
Cd86 O94 2.223 . S
Cd86 O96 2.297 . S
Cd86 O97 2.439 . S
O87 Cd86 2.240 . S
O87 C92 1.279 . S
O88 Cd85 2.297 . S
O88 C90 1.247 . S
O89 Cd85 2.439 . S
O89 C90 1.208 . S
C90 O88 1.247 . S
C90 O89 1.208 . S
C91 O96 1.247 . S
C91 O97 1.208 . S
C92 O84 1.315 . S
C92 O87 1.279 . S
C93 O94 1.315 . S
C93 O95 1.279 . S
O94 Cd86 2.223 . S
O94 C93 1.315 . S
O95 Cd85 2.240 . S
O95 C93 1.279 . S
O96 Cd86 2.297 . S
O96 C91 1.247 . S
O97 Cd86 2.439 . S
O97 C91 1.208 . S
O98 Cd99 2.223 . S
O98 C106 1.315 . S
Cd99 O98 2.223 . S
Cd99 O102 2.297 . S
Cd99 O103 2.439 . S
Cd99 O109 2.240 . S
Cd100 O101 2.240 . S
Cd100 O108 2.223 . S
Cd100 O110 2.297 . S
Cd100 O111 2.439 . S
O101 Cd100 2.240 . S
O101 C106 1.279 . S
O102 Cd99 2.297 . S
O102 C104 1.247 . S
O103 Cd99 2.439 . S
O103 C104 1.208 . S
C104 O102 1.247 . S
C104 O103 1.208 . S
C105 O110 1.247 . S
C105 O111 1.208 . S
C106 O98 1.315 . S
C106 O101 1.279 . S
C107 O108 1.315 . S
C107 O109 1.279 . S
O108 Cd100 2.223 . S
O108 C107 1.315 . S
O109 Cd99 2.240 . S
O109 C107 1.279 . S
O110 Cd100 2.297 . S
O110 C105 1.247 . S
O111 Cd100 2.439 . S
O111 C105 1.208 . S
O112 Cd113 2.223 . S
O112 C120 1.315 . S
Cd113 O112 2.223 . S
Cd113 O116 2.297 . S
Cd113 O117 2.439 . S
Cd113 O123 2.240 . S
Cd114 O115 2.240 . S
Cd114 O122 2.223 . S
Cd114 O124 2.297 . S
Cd114 O125 2.439 . S
O115 Cd114 2.240 . S
O115 C120 1.279 . S
O116 Cd113 2.297 . S
O116 C118 1.247 . S
O117 Cd113 2.439 . S
O117 C118 1.208 . S
C118 O116 1.247 . S
C118 O117 1.208 . S
C119 O124 1.247 . S
C119 O125 1.208 . S
C120 O112 1.315 . S
C120 O115 1.279 . S
C121 O122 1.315 . S
C121 O123 1.279 . S
O122 Cd114 2.223 . S
O122 C121 1.315 . S
O123 Cd113 2.240 . S
O123 C121 1.279 . S
O124 Cd114 2.297 . S
O124 C119 1.247 . S
O125 Cd114 2.439 . S
O125 C119 1.208 . S
O126 Cd127 2.223 . S
O126 C134 1.315 . S
Cd127 O126 2.223 . S
Cd127 O130 2.297 . S
Cd127 O131 2.439 . S
Cd127 O137 2.240 . S
Cd128 O129 2.240 . S
Cd128 O136 2.223 . S
Cd128 O138 2.297 . S
Cd128 O139 2.439 . S
O129 Cd128 2.240 . S
O129 C134 1.279 . S
O130 Cd127 2.297 . S
O130 C132 1.247 . S
O131 Cd127 2.439 . S
O131 C132 1.208 . S
C132 O130 1.247 . S
C132 O131 1.208 . S
C133 O138 1.247 . S
C133 O139 1.208 . S
C134 O126 1.315 . S
C134 O129 1.279 . S
C135 O136 1.315 . S
C135 O137 1.279 . S
O136 Cd128 2.223 . S
O136 C135 1.315 . S
O137 Cd127 2.240 . S
O137 C135 1.279 . S
O138 Cd128 2.297 . S
O138 C133 1.247 . S
O139 Cd128 2.439 . S
O139 C133 1.208 . S
O140 Cd141 2.223 . S
O140 C148 1.315 . S
Cd141 O140 2.223 . S
Cd141 O144 2.297 . S
Cd141 O145 2.439 . S
Cd141 O151 2.240 . S
Cd142 O143 2.240 . S
Cd142 O150 2.223 . S
Cd142 O152 2.297 . S
Cd142 O153 2.439 . S
O143 Cd142 2.240 . S
O143 C148 1.279 . S
O144 Cd141 2.297 . S
O144 C146 1.247 . S
O145 Cd141 2.439 . S
O145 C146 1.208 . S
C146 O144 1.247 . S
C146 O145 1.208 . S
C147 O152 1.247 . S
C147 O153 1.208 . S
C148 O140 1.315 . S
C148 O143 1.279 . S
C149 O150 1.315 . S
C149 O151 1.279 . S
O150 Cd142 2.223 . S
O150 C149 1.315 . S
O151 Cd141 2.240 . S
O151 C149 1.279 . S
O152 Cd142 2.297 . S
O152 C147 1.247 . S
O153 Cd142 2.439 . S
O153 C147 1.208 . S
O154 Cd155 2.223 . S
O154 C162 1.315 . S
Cd155 O154 2.223 . S
Cd155 O158 2.297 . S
Cd155 O159 2.439 . S
Cd155 O165 2.240 . S
Cd156 O157 2.240 . S
Cd156 O164 2.223 . S
Cd156 O166 2.297 . S
Cd156 O167 2.439 . S
O157 Cd156 2.240 . S
O157 C162 1.279 . S
O158 Cd155 2.297 . S
O158 C160 1.247 . S
O159 Cd155 2.439 . S
O159 C160 1.208 . S
C160 O158 1.247 . S
C160 O159 1.208 . S
C161 O166 1.247 . S
C161 O167 1.208 . S
C162 O154 1.315 . S
C162 O157 1.279 . S
C163 O164 1.315 . S
C163 O165 1.279 . S
O164 Cd156 2.223 . S
O164 C163 1.315 . S
O165 Cd155 2.240 . S
O165 C163 1.279 . S
O166 Cd156 2.297 . S
O166 C161 1.247 . S
O167 Cd156 2.439 . S
O167 C161 1.208 . S
O168 Cd169 2.223 . S
O168 C176 1.315 . S
Cd169 O168 2.223 . S
Cd169 O172 2.297 . S
Cd169 O173 2.439 . S
Cd169 O179 2.240 . S
Cd170 O171 2.240 . S
Cd170 O178 2.223 . S
Cd170 O180 2.297 . S
Cd170 O181 2.439 . S
O171 Cd170 2.240 . S
O171 C176 1.279 . S
O172 Cd169 2.297 . S
O172 C174 1.247 . S
O173 Cd169 2.439 . S
O173 C174 1.208 . S
C174 O172 1.247 . S
C174 O173 1.208 . S
C175 O180 1.247 . S
C175 O181 1.208 . S
C176 O168 1.315 . S
C176 O171 1.279 . S
C177 O178 1.315 . S
C177 O179 1.279 . S
O178 Cd170 2.223 . S
O178 C177 1.315 . S
O179 Cd169 2.240 . S
O179 C177 1.279 . S
O180 Cd170 2.297 . S
O180 C175 1.247 . S
O181 Cd170 2.439 . S
O181 C175 1.208 . S
O182 Cd183 2.223 . S
O182 C190 1.315 . S
Cd183 O182 2.223 . S
Cd183 O186 2.297 . S
Cd183 O187 2.439 . S
Cd183 O193 2.240 . S
Cd184 O185 2.240 . S
Cd184 O192 2.223 . S
Cd184 O194 2.297 . S
Cd184 O195 2.439 . S
O185 Cd184 2.240 . S
O185 C190 1.279 . S
O186 Cd183 2.297 . S
O186 C188 1.247 . S
O187 Cd183 2.439 . S
O187 C188 1.208 . S
C188 O186 1.247 . S
C188 O187 1.208 . S
C189 O194 1.247 . S
C189 O195 1.208 . S
C190 O182 1.315 . S
C190 O185 1.279 . S
C191 O192 1.315 . S
C191 O193 1.279 . S
O192 Cd184 2.223 . S
O192 C191 1.315 . S
O193 Cd183 2.240 . S
O193 C191 1.279 . S
O194 Cd184 2.297 . S
O194 C189 1.247 . S
O195 Cd184 2.439 . S
O195 C189 1.208 . S
O196 Cd197 2.223 . S
O196 C204 1.315 . S
Cd197 O196 2.223 . S
Cd197 O200 2.297 . S
Cd197 O201 2.439 . S
Cd197 O207 2.240 . S
Cd198 O199 2.240 . S
Cd198 O206 2.223 . S
Cd198 O208 2.297 . S
Cd198 O209 2.439 . S
O199 Cd198 2.240 . S
O199 C204 1.279 . S
O200 Cd197 2.297 . S
O200 C202 1.247 . S
O201 Cd197 2.439 . S
O201 C202 1.208 . S
C202 O200 1.247 . S
C202 O201 1.208 . S
C203 O208 1.247 . S
C203 O209 1.208 . S
C204 O196 1.315 . S
C204 O199 1.279 . S
C205 O206 1.315 . S
C205 O207 1.279 . S
O206 Cd198 2.223 . S
O206 C205 1.315 . S
O207 Cd197 2.240 . S
O207 C205 1.279 . S
O208 Cd198 2.297 . S
O208 C203 1.247 . S
O209 Cd198 2.439 . S
O209 C203 1.208 . S
O210 Cd211 2.223 . S
O210 C218 1.315 . S
Cd211 O210 2.223 . S
Cd211 O214 2.297 . S
Cd211 O215 2.439 . S
Cd211 O221 2.240 . S
Cd212 O213 2.240 . S
Cd212 O220 2.223 . S
Cd212 O222 2.297 . S
Cd212 O223 2.439 . S
O213 Cd212 2.240 . S
O213 C218 1.279 . S
O214 Cd211 2.297 . S
O214 C216 1.247 . S
O215 Cd211 2.439 . S
O215 C216 1.208 . S
C216 O214 1.247 . S
C216 O215 1.208 . S
C217 O222 1.247 . S
C217 O223 1.208 . S
C218 O210 1.315 . S
C218 O213 1.279 . S
C219 O220 1.315 . S
C219 O221 1.279 . S
O220 Cd212 2.223 . S
O220 C219 1.315 . S
O221 Cd211 2.240 . S
O221 C219 1.279 . S
O222 Cd212 2.297 . S
O222 C217 1.247 . S
O223 Cd212 2.439 . S
O223 C217 1.208 . S
H224 C232 0.929 . S
H225 C234 0.930 . S
H226 C236 0.930 . S
H227 C239 0.929 . S
H228 C242 0.930 . S
H229 C244 0.960 . S
H230 C244 0.960 . S
H231 C244 0.960 . S
C232 H224 0.929 . S
C232 C233 1.377 . S
C232 C234 1.384 . S
C233 C232 1.377 . S
C233 C239 1.390 . S
C234 H225 0.930 . S
C234 C232 1.384 . S
C234 C235 1.372 . S
C235 C234 1.372 . S
C235 C236 1.400 . S
C235 C240 1.490 . S
C236 H226 0.930 . S
C236 C235 1.400 . S
C236 C239 1.386 . S
H237 C253 0.930 . S
H238 C254 0.931 . S
C239 H227 0.929 . S
C239 C233 1.390 . S
C239 C236 1.386 . S
C240 C235 1.490 . S
C240 C242 1.395 . S
C240 C243 1.403 . S
H241 C247 0.930 . S
C242 H228 0.930 . S
C242 C240 1.395 . S
C242 C245 1.403 . S
C243 C240 1.403 . S
C243 C244 1.524 . S
C243 C247 1.400 . S
C244 H229 0.960 . S
C244 H230 0.960 . S
C244 H231 0.960 . S
C244 C243 1.524 . S
C245 C242 1.403 . S
C245 C246 1.392 . S
C245 C249 1.495 . S
C246 C245 1.392 . S
C246 C247 1.385 . S
C246 C248 1.478 . S
C247 H241 0.930 . S
C247 C243 1.400 . S
C247 C246 1.385 . S
C248 C246 1.478 . S
C248 C250 1.381 . S
C248 C254 1.383 . S
C249 C245 1.495 . S
C249 H255 0.959 . S
C249 H256 0.961 . S
C249 H257 0.960 . S
C250 C248 1.381 . S
C250 C251 1.394 . S
C250 H258 0.930 . S
C251 C250 1.394 . S
C251 C252 1.383 . S
C251 H259 0.929 . S
C252 C251 1.383 . S
C252 C253 1.377 . S
C253 H237 0.930 . S
C253 C252 1.377 . S
C253 C254 1.379 . S
C254 H238 0.931 . S
C254 C248 1.383 . S
C254 C253 1.379 . S
H255 C249 0.959 . S
H256 C249 0.961 . S
H257 C249 0.960 . S
H258 C250 0.930 . S
H259 C251 0.929 . S
H260 C268 0.929 . S
H261 C270 0.930 . S
H262 C272 0.930 . S
H263 C275 0.929 . S
H264 C278 0.930 . S
H265 C280 0.960 . S
H266 C280 0.960 . S
H267 C280 0.960 . S
C268 H260 0.929 . S
C268 C269 1.377 . S
C268 C270 1.384 . S
C269 C268 1.377 . S
C269 C275 1.390 . S
C270 H261 0.930 . S
C270 C268 1.384 . S
C270 C271 1.372 . S
C271 C270 1.372 . S
C271 C272 1.400 . S
C271 C276 1.490 . S
C272 H262 0.930 . S
C272 C271 1.400 . S
C272 C275 1.386 . S
H273 C289 0.930 . S
H274 C290 0.931 . S
C275 H263 0.929 . S
C275 C269 1.390 . S
C275 C272 1.386 . S
C276 C271 1.490 . S
C276 C278 1.395 . S
C276 C279 1.403 . S
H277 C283 0.930 . S
C278 H264 0.930 . S
C278 C276 1.395 . S
C278 C281 1.403 . S
C279 C276 1.403 . S
C279 C280 1.524 . S
C279 C283 1.400 . S
C280 H265 0.960 . S
C280 H266 0.960 . S
C280 H267 0.960 . S
C280 C279 1.524 . S
C281 C278 1.403 . S
C281 C282 1.392 . S
C281 C285 1.495 . S
C282 C281 1.392 . S
C282 C283 1.385 . S
C282 C284 1.478 . S
C283 H277 0.930 . S
C283 C279 1.400 . S
C283 C282 1.385 . S
C284 C282 1.478 . S
C284 C286 1.381 . S
C284 C290 1.383 . S
C285 C281 1.495 . S
C285 H291 0.959 . S
C285 H292 0.961 . S
C285 H293 0.960 . S
C286 C284 1.381 . S
C286 C287 1.394 . S
C286 H294 0.930 . S
C287 C286 1.394 . S
C287 C288 1.383 . S
C287 H295 0.929 . S
C288 C287 1.383 . S
C288 C289 1.377 . S
C289 H273 0.930 . S
C289 C288 1.377 . S
C289 C290 1.379 . S
C290 H274 0.931 . S
C290 C284 1.383 . S
C290 C289 1.379 . S
H291 C285 0.959 . S
H292 C285 0.961 . S
H293 C285 0.960 . S
H294 C286 0.930 . S
H295 C287 0.929 . S
H296 C304 0.929 . S
H297 C306 0.930 . S
H298 C308 0.930 . S
H299 C311 0.929 . S
H300 C314 0.930 . S
H301 C316 0.960 . S
H302 C316 0.960 . S
H303 C316 0.960 . S
C304 H296 0.929 . S
C304 C305 1.377 . S
C304 C306 1.384 . S
C305 C304 1.377 . S
C305 C311 1.390 . S
C306 H297 0.930 . S
C306 C304 1.384 . S
C306 C307 1.372 . S
C307 C306 1.372 . S
C307 C308 1.400 . S
C307 C312 1.490 . S
C308 H298 0.930 . S
C308 C307 1.400 . S
C308 C311 1.386 . S
H309 C325 0.930 . S
H310 C326 0.931 . S
C311 H299 0.929 . S
C311 C305 1.390 . S
C311 C308 1.386 . S
C312 C307 1.490 . S
C312 C314 1.395 . S
C312 C315 1.403 . S
H313 C319 0.930 . S
C314 H300 0.930 . S
C314 C312 1.395 . S
C314 C317 1.403 . S
C315 C312 1.403 . S
C315 C316 1.524 . S
C315 C319 1.400 . S
C316 H301 0.960 . S
C316 H302 0.960 . S
C316 H303 0.960 . S
C316 C315 1.524 . S
C317 C314 1.403 . S
C317 C318 1.392 . S
C317 C321 1.495 . S
C318 C317 1.392 . S
C318 C319 1.385 . S
C318 C320 1.478 . S
C319 H313 0.930 . S
C319 C315 1.400 . S
C319 C318 1.385 . S
C320 C318 1.478 . S
C320 C322 1.381 . S
C320 C326 1.383 . S
C321 C317 1.495 . S
C321 H327 0.959 . S
C321 H328 0.961 . S
C321 H329 0.960 . S
C322 C320 1.381 . S
C322 C323 1.394 . S
C322 H330 0.930 . S
C323 C322 1.394 . S
C323 C324 1.383 . S
C323 H331 0.929 . S
C324 C323 1.383 . S
C324 C325 1.377 . S
C325 H309 0.930 . S
C325 C324 1.377 . S
C325 C326 1.379 . S
C326 H310 0.931 . S
C326 C320 1.383 . S
C326 C325 1.379 . S
H327 C321 0.959 . S
H328 C321 0.961 . S
H329 C321 0.960 . S
H330 C322 0.930 . S
H331 C323 0.929 . S
H332 C340 0.929 . S
H333 C342 0.930 . S
H334 C344 0.930 . S
H335 C347 0.929 . S
H336 C350 0.930 . S
H337 C352 0.960 . S
H338 C352 0.960 . S
H339 C352 0.960 . S
C340 H332 0.929 . S
C340 C341 1.377 . S
C340 C342 1.384 . S
C341 C340 1.377 . S
C341 C347 1.390 . S
C342 H333 0.930 . S
C342 C340 1.384 . S
C342 C343 1.372 . S
C343 C342 1.372 . S
C343 C344 1.400 . S
C343 C348 1.490 . S
C344 H334 0.930 . S
C344 C343 1.400 . S
C344 C347 1.386 . S
H345 C361 0.930 . S
H346 C362 0.931 . S
C347 H335 0.929 . S
C347 C341 1.390 . S
C347 C344 1.386 . S
C348 C343 1.490 . S
C348 C350 1.395 . S
C348 C351 1.403 . S
H349 C355 0.930 . S
C350 H336 0.930 . S
C350 C348 1.395 . S
C350 C353 1.403 1_455 S
C351 C348 1.403 . S
C351 C352 1.524 . S
C351 C355 1.400 1_455 S
C352 H337 0.960 . S
C352 H338 0.960 . S
C352 H339 0.960 . S
C352 C351 1.524 . S
C353 C350 1.403 1_655 S
C353 C354 1.392 . S
C353 C357 1.495 . S
C354 C353 1.392 . S
C354 C355 1.385 . S
C354 C356 1.478 . S
C355 H349 0.930 . S
C355 C351 1.400 1_655 S
C355 C354 1.385 . S
C356 C354 1.478 . S
C356 C358 1.381 . S
C356 C362 1.383 . S
C357 C353 1.495 . S
C357 H363 0.959 . S
C357 H364 0.961 . S
C357 H365 0.960 . S
C358 C356 1.381 . S
C358 C359 1.394 . S
C358 H366 0.930 . S
C359 C358 1.394 . S
C359 C360 1.383 . S
C359 H367 0.929 . S
C360 C359 1.383 . S
C360 C361 1.377 . S
C361 H345 0.930 . S
C361 C360 1.377 . S
C361 C362 1.379 . S
C362 H346 0.931 . S
C362 C356 1.383 . S
C362 C361 1.379 . S
H363 C357 0.959 . S
H364 C357 0.961 . S
H365 C357 0.960 . S
H366 C358 0.930 . S
H367 C359 0.929 . S
H368 C376 0.929 . S
H369 C378 0.930 . S
H370 C380 0.930 . S
H371 C383 0.929 . S
H372 C386 0.930 . S
H373 C388 0.960 . S
H374 C388 0.960 . S
H375 C388 0.960 . S
C376 H368 0.929 . S
C376 C377 1.377 . S
C376 C378 1.384 . S
C377 C376 1.377 . S
C377 C383 1.390 . S
C378 H369 0.930 . S
C378 C376 1.384 . S
C378 C379 1.372 . S
C379 C378 1.372 . S
C379 C380 1.400 . S
C379 C384 1.490 . S
C380 H370 0.930 . S
C380 C379 1.400 . S
C380 C383 1.386 . S
H381 C397 0.930 . S
H382 C398 0.931 . S
C383 H371 0.929 . S
C383 C377 1.390 . S
C383 C380 1.386 . S
C384 C379 1.490 . S
C384 C386 1.395 . S
C384 C387 1.403 . S
H385 C391 0.930 . S
C386 H372 0.930 . S
C386 C384 1.395 . S
C386 C389 1.403 . S
C387 C384 1.403 . S
C387 C388 1.524 . S
C387 C391 1.400 . S
C388 H373 0.960 . S
C388 H374 0.960 . S
C388 H375 0.960 . S
C388 C387 1.524 . S
C389 C386 1.403 . S
C389 C390 1.392 . S
C389 C393 1.495 . S
C390 C389 1.392 . S
C390 C391 1.385 . S
C390 C392 1.478 . S
C391 H385 0.930 . S
C391 C387 1.400 . S
C391 C390 1.385 . S
C392 C390 1.478 . S
C392 C394 1.381 . S
C392 C398 1.383 . S
C393 C389 1.495 . S
C393 H399 0.959 . S
C393 H400 0.961 . S
C393 H401 0.960 . S
C394 C392 1.381 . S
C394 C395 1.394 . S
C394 H402 0.930 . S
C395 C394 1.394 . S
C395 C396 1.383 . S
C395 H403 0.929 . S
C396 C395 1.383 . S
C396 C397 1.377 . S
C397 H381 0.930 . S
C397 C396 1.377 . S
C397 C398 1.379 . S
C398 H382 0.931 . S
C398 C392 1.383 . S
C398 C397 1.379 . S
H399 C393 0.959 . S
H400 C393 0.961 . S
H401 C393 0.960 . S
H402 C394 0.930 . S
H403 C395 0.929 . S
H404 C412 0.929 . S
H405 C414 0.930 . S
H406 C416 0.930 . S
H407 C419 0.929 . S
H408 C422 0.930 . S
H409 C424 0.960 . S
H410 C424 0.960 . S
H411 C424 0.960 . S
C412 H404 0.929 . S
C412 C413 1.377 . S
C412 C414 1.384 . S
C413 C412 1.377 . S
C413 C419 1.390 . S
C414 H405 0.930 . S
C414 C412 1.384 . S
C414 C415 1.372 . S
C415 C414 1.372 . S
C415 C416 1.400 . S
C415 C420 1.490 . S
C416 H406 0.930 . S
C416 C415 1.400 . S
C416 C419 1.386 . S
H417 C433 0.930 . S
H418 C434 0.931 . S
C419 H407 0.929 . S
C419 C413 1.390 . S
C419 C416 1.386 . S
C420 C415 1.490 . S
C420 C422 1.395 . S
C420 C423 1.403 . S
H421 C427 0.930 . S
C422 H408 0.930 . S
C422 C420 1.395 . S
C422 C425 1.403 1_655 S
C423 C420 1.403 . S
C423 C424 1.524 . S
C423 C427 1.400 1_655 S
C424 H409 0.960 . S
C424 H410 0.960 . S
C424 H411 0.960 . S
C424 C423 1.524 . S
C425 C422 1.403 1_455 S
C425 C426 1.392 . S
C425 C429 1.495 . S
C426 C425 1.392 . S
C426 C427 1.385 . S
C426 C428 1.478 . S
C427 H421 0.930 . S
C427 C423 1.400 1_455 S
C427 C426 1.385 . S
C428 C426 1.478 . S
C428 C430 1.381 . S
C428 C434 1.383 . S
C429 C425 1.495 . S
C429 H435 0.959 . S
C429 H436 0.961 . S
C429 H437 0.960 . S
C430 C428 1.381 . S
C430 C431 1.394 . S
C430 H438 0.930 . S
C431 C430 1.394 . S
C431 C432 1.383 . S
C431 H439 0.929 . S
C432 C431 1.383 . S
C432 C433 1.377 . S
C433 H417 0.930 . S
C433 C432 1.377 . S
C433 C434 1.379 . S
C434 H418 0.931 . S
C434 C428 1.383 . S
C434 C433 1.379 . S
H435 C429 0.959 . S
H436 C429 0.961 . S
H437 C429 0.960 . S
H438 C430 0.930 . S
H439 C431 0.929 . S
H440 C448 0.929 . S
H441 C450 0.930 . S
H442 C452 0.930 . S
H443 C455 0.929 . S
H444 C458 0.930 . S
H445 C460 0.960 . S
H446 C460 0.960 . S
H447 C460 0.960 . S
C448 H440 0.929 . S
C448 C449 1.377 . S
C448 C450 1.384 . S
C449 C448 1.377 . S
C449 C455 1.390 . S
C450 H441 0.930 . S
C450 C448 1.384 . S
C450 C451 1.372 . S
C451 C450 1.372 . S
C451 C452 1.400 . S
C451 C456 1.490 . S
C452 H442 0.930 . S
C452 C451 1.400 . S
C452 C455 1.386 . S
H453 C469 0.930 . S
H454 C470 0.931 . S
C455 H443 0.929 . S
C455 C449 1.390 . S
C455 C452 1.386 . S
C456 C451 1.490 . S
C456 C458 1.395 . S
C456 C459 1.403 . S
H457 C463 0.930 . S
C458 H444 0.930 . S
C458 C456 1.395 . S
C458 C461 1.403 . S
C459 C456 1.403 . S
C459 C460 1.524 . S
C459 C463 1.400 . S
C460 H445 0.960 . S
C460 H446 0.960 . S
C460 H447 0.960 . S
C460 C459 1.524 . S
C461 C458 1.403 . S
C461 C462 1.392 . S
C461 C465 1.495 . S
C462 C461 1.392 . S
C462 C463 1.385 . S
C462 C464 1.478 . S
C463 H457 0.930 . S
C463 C459 1.400 . S
C463 C462 1.385 . S
C464 C462 1.478 . S
C464 C466 1.381 . S
C464 C470 1.383 . S
C465 C461 1.495 . S
C465 H471 0.959 . S
C465 H472 0.961 . S
C465 H473 0.960 . S
C466 C464 1.381 . S
C466 C467 1.394 . S
C466 H474 0.930 . S
C467 C466 1.394 . S
C467 C468 1.383 . S
C467 H475 0.929 . S
C468 C467 1.383 . S
C468 C469 1.377 . S
C469 H453 0.930 . S
C469 C468 1.377 . S
C469 C470 1.379 . S
C470 H454 0.931 . S
C470 C464 1.383 . S
C470 C469 1.379 . S
H471 C465 0.959 . S
H472 C465 0.961 . S
H473 C465 0.960 . S
H474 C466 0.930 . S
H475 C467 0.929 . S
H476 C484 0.929 . S
H477 C486 0.930 . S
H478 C488 0.930 . S
H479 C491 0.929 . S
H480 C494 0.930 . S
H481 C496 0.960 . S
H482 C496 0.960 . S
H483 C496 0.960 . S
C484 H476 0.929 . S
C484 C485 1.377 . S
C484 C486 1.384 . S
C485 C484 1.377 . S
C485 C491 1.390 . S
C486 H477 0.930 . S
C486 C484 1.384 . S
C486 C487 1.372 . S
C487 C486 1.372 . S
C487 C488 1.400 . S
C487 C492 1.490 . S
C488 H478 0.930 . S
C488 C487 1.400 . S
C488 C491 1.386 . S
H489 C505 0.930 . S
H490 C506 0.931 . S
C491 H479 0.929 . S
C491 C485 1.390 . S
C491 C488 1.386 . S
C492 C487 1.490 . S
C492 C494 1.395 . S
C492 C495 1.403 . S
H493 C499 0.930 . S
C494 H480 0.930 . S
C494 C492 1.395 . S
C494 C497 1.403 . S
C495 C492 1.403 . S
C495 C496 1.524 . S
C495 C499 1.400 . S
C496 H481 0.960 . S
C496 H482 0.960 . S
C496 H483 0.960 . S
C496 C495 1.524 . S
C497 C494 1.403 . S
C497 C498 1.392 . S
C497 C501 1.495 . S
C498 C497 1.392 . S
C498 C499 1.385 . S
C498 C500 1.478 . S
C499 H493 0.930 . S
C499 C495 1.400 . S
C499 C498 1.385 . S
C500 C498 1.478 . S
C500 C502 1.381 . S
C500 C506 1.383 . S
C501 C497 1.495 . S
C501 H507 0.959 . S
C501 H508 0.961 . S
C501 H509 0.960 . S
C502 C500 1.381 . S
C502 C503 1.394 . S
C502 H510 0.930 . S
C503 C502 1.394 . S
C503 C504 1.383 . S
C503 H511 0.929 . S
C504 C503 1.383 . S
C504 C505 1.377 . S
C505 H489 0.930 . S
C505 C504 1.377 . S
C505 C506 1.379 . S
C506 H490 0.931 . S
C506 C500 1.383 . S
C506 C505 1.379 . S
H507 C501 0.959 . S
H508 C501 0.961 . S
H509 C501 0.960 . S
H510 C502 0.930 . S
H511 C503 0.929 . S
H512 C520 0.929 . S
H513 C522 0.930 . S
H514 C524 0.930 . S
H515 C527 0.929 . S
H516 C530 0.930 . S
H517 C532 0.960 . S
H518 C532 0.960 . S
H519 C532 0.960 . S
C520 H512 0.929 . S
C520 C521 1.377 . S
C520 C522 1.384 . S
C521 C520 1.377 . S
C521 C527 1.390 . S
C522 H513 0.930 . S
C522 C520 1.384 . S
C522 C523 1.372 . S
C523 C522 1.372 . S
C523 C524 1.400 . S
C523 C528 1.490 . S
C524 H514 0.930 . S
C524 C523 1.400 . S
C524 C527 1.386 . S
H525 C541 0.930 . S
H526 C542 0.931 . S
C527 H515 0.929 . S
C527 C521 1.390 . S
C527 C524 1.386 . S
C528 C523 1.490 . S
C528 C530 1.395 . S
C528 C531 1.403 . S
H529 C535 0.930 . S
C530 H516 0.930 . S
C530 C528 1.395 . S
C530 C533 1.403 . S
C531 C528 1.403 . S
C531 C532 1.524 . S
C531 C535 1.400 . S
C532 H517 0.960 . S
C532 H518 0.960 . S
C532 H519 0.960 . S
C532 C531 1.524 . S
C533 C530 1.403 . S
C533 C534 1.392 . S
C533 C537 1.495 . S
C534 C533 1.392 . S
C534 C535 1.385 . S
C534 C536 1.478 . S
C535 H529 0.930 . S
C535 C531 1.400 . S
C535 C534 1.385 . S
C536 C534 1.478 . S
C536 C538 1.381 . S
C536 C542 1.383 . S
C537 C533 1.495 . S
C537 H543 0.959 . S
C537 H544 0.961 . S
C537 H545 0.960 . S
C538 C536 1.381 . S
C538 C539 1.394 . S
C538 H546 0.930 . S
C539 C538 1.394 . S
C539 C540 1.383 . S
C539 H547 0.929 . S
C540 C539 1.383 . S
C540 C541 1.377 . S
C541 H525 0.930 . S
C541 C540 1.377 . S
C541 C542 1.379 . S
C542 H526 0.931 . S
C542 C536 1.383 . S
C542 C541 1.379 . S
H543 C537 0.959 . S
H544 C537 0.961 . S
H545 C537 0.960 . S
H546 C538 0.930 . S
H547 C539 0.929 . S
H548 C556 0.929 . S
H549 C558 0.930 . S
H550 C560 0.930 . S
H551 C563 0.929 . S
H552 C566 0.930 . S
H553 C568 0.960 . S
H554 C568 0.960 . S
H555 C568 0.960 . S
C556 H548 0.929 . S
C556 C557 1.377 . S
C556 C558 1.384 . S
C557 C556 1.377 . S
C557 C563 1.390 . S
C558 H549 0.930 . S
C558 C556 1.384 . S
C558 C559 1.372 . S
C559 C558 1.372 . S
C559 C560 1.400 . S
C559 C564 1.490 . S
C560 H550 0.930 . S
C560 C559 1.400 . S
C560 C563 1.386 . S
H561 C577 0.930 . S
H562 C578 0.931 . S
C563 H551 0.929 . S
C563 C557 1.390 . S
C563 C560 1.386 . S
C564 C559 1.490 . S
C564 C566 1.395 . S
C564 C567 1.403 . S
H565 C571 0.930 . S
C566 H552 0.930 . S
C566 C564 1.395 . S
C566 C569 1.403 . S
C567 C564 1.403 . S
C567 C568 1.524 . S
C567 C571 1.400 . S
C568 H553 0.960 . S
C568 H554 0.960 . S
C568 H555 0.960 . S
C568 C567 1.524 . S
C569 C566 1.403 . S
C569 C570 1.392 . S
C569 C573 1.495 . S
C570 C569 1.392 . S
C570 C571 1.385 . S
C570 C572 1.478 . S
C571 H565 0.930 . S
C571 C567 1.400 . S
C571 C570 1.385 . S
C572 C570 1.478 . S
C572 C574 1.381 . S
C572 C578 1.383 . S
C573 C569 1.495 . S
C573 H579 0.959 . S
C573 H580 0.961 . S
C573 H581 0.960 . S
C574 C572 1.381 . S
C574 C575 1.394 . S
C574 H582 0.930 . S
C575 C574 1.394 . S
C575 C576 1.383 . S
C575 H583 0.929 . S
C576 C575 1.383 . S
C576 C577 1.377 . S
C577 H561 0.930 . S
C577 C576 1.377 . S
C577 C578 1.379 . S
C578 H562 0.931 . S
C578 C572 1.383 . S
C578 C577 1.379 . S
H579 C573 0.959 . S
H580 C573 0.961 . S
H581 C573 0.960 . S
H582 C574 0.930 . S
H583 C575 0.929 . S
H584 C592 0.929 . S
H585 C594 0.930 . S
H586 C596 0.930 . S
H587 C599 0.929 . S
H588 C602 0.930 . S
H589 C604 0.960 . S
H590 C604 0.960 . S
H591 C604 0.960 . S
C592 H584 0.929 . S
C592 C593 1.377 . S
C592 C594 1.384 . S
C593 C592 1.377 . S
C593 C599 1.390 . S
C594 H585 0.930 . S
C594 C592 1.384 . S
C594 C595 1.372 . S
C595 C594 1.372 . S
C595 C596 1.400 . S
C595 C600 1.490 . S
C596 H586 0.930 . S
C596 C595 1.400 . S
C596 C599 1.386 . S
H597 C613 0.930 . S
H598 C614 0.931 . S
C599 H587 0.929 . S
C599 C593 1.390 . S
C599 C596 1.386 . S
C600 C595 1.490 . S
C600 C602 1.395 . S
C600 C603 1.403 . S
H601 C607 0.930 . S
C602 H588 0.930 . S
C602 C600 1.395 . S
C602 C605 1.403 . S
C603 C600 1.403 . S
C603 C604 1.524 . S
C603 C607 1.400 . S
C604 H589 0.960 . S
C604 H590 0.960 . S
C604 H591 0.960 . S
C604 C603 1.524 . S
C605 C602 1.403 . S
C605 C606 1.392 . S
C605 C609 1.495 . S
C606 C605 1.392 . S
C606 C607 1.385 . S
C606 C608 1.478 . S
C607 H601 0.930 . S
C607 C603 1.400 . S
C607 C606 1.385 . S
C608 C606 1.478 . S
C608 C610 1.381 . S
C608 C614 1.383 . S
C609 C605 1.495 . S
C609 H615 0.959 . S
C609 H616 0.961 . S
C609 H617 0.960 . S
C610 C608 1.381 . S
C610 C611 1.394 . S
C610 H618 0.930 . S
C611 C610 1.394 . S
C611 C612 1.383 . S
C611 H619 0.929 . S
C612 C611 1.383 . S
C612 C613 1.377 . S
C613 H597 0.930 . S
C613 C612 1.377 . S
C613 C614 1.379 . S
C614 H598 0.931 . S
C614 C608 1.383 . S
C614 C613 1.379 . S
H615 C609 0.959 . S
H616 C609 0.961 . S
H617 C609 0.960 . S
H618 C610 0.930 . S
H619 C611 0.929 . S
H620 C628 0.929 . S
H621 C630 0.930 . S
H622 C632 0.930 . S
H623 C635 0.929 . S
H624 C638 0.930 . S
H625 C640 0.960 . S
H626 C640 0.960 . S
H627 C640 0.960 . S
C628 H620 0.929 . S
C628 C629 1.377 . S
C628 C630 1.384 . S
C629 C628 1.377 . S
C629 C635 1.390 . S
C630 H621 0.930 . S
C630 C628 1.384 . S
C630 C631 1.372 . S
C631 C630 1.372 . S
C631 C632 1.400 . S
C631 C636 1.490 . S
C632 H622 0.930 . S
C632 C631 1.400 . S
C632 C635 1.386 . S
H633 C649 0.930 . S
H634 C650 0.931 . S
C635 H623 0.929 . S
C635 C629 1.390 . S
C635 C632 1.386 . S
C636 C631 1.490 . S
C636 C638 1.395 . S
C636 C639 1.403 . S
H637 C643 0.930 . S
C638 H624 0.930 . S
C638 C636 1.395 . S
C638 C641 1.403 . S
C639 C636 1.403 . S
C639 C640 1.524 . S
C639 C643 1.400 . S
C640 H625 0.960 . S
C640 H626 0.960 . S
C640 H627 0.960 . S
C640 C639 1.524 . S
C641 C638 1.403 . S
C641 C642 1.392 . S
C641 C645 1.495 . S
C642 C641 1.392 . S
C642 C643 1.385 . S
C642 C644 1.478 . S
C643 H637 0.930 . S
C643 C639 1.400 . S
C643 C642 1.385 . S
C644 C642 1.478 . S
C644 C646 1.381 . S
C644 C650 1.383 . S
C645 C641 1.495 . S
C645 H651 0.959 . S
C645 H652 0.961 . S
C645 H653 0.960 . S
C646 C644 1.381 . S
C646 C647 1.394 . S
C646 H654 0.930 . S
C647 C646 1.394 . S
C647 C648 1.383 . S
C647 H655 0.929 . S
C648 C647 1.383 . S
C648 C649 1.377 . S
C649 H633 0.930 . S
C649 C648 1.377 . S
C649 C650 1.379 . S
C650 H634 0.931 . S
C650 C644 1.383 . S
C650 C649 1.379 . S
H651 C645 0.959 . S
H652 C645 0.961 . S
H653 C645 0.960 . S
H654 C646 0.930 . S
H655 C647 0.929 . S
H656 C664 0.929 . S
H657 C666 0.930 . S
H658 C668 0.930 . S
H659 C671 0.929 . S
H660 C674 0.930 . S
H661 C676 0.960 . S
H662 C676 0.960 . S
H663 C676 0.960 . S
C664 H656 0.929 . S
C664 C665 1.377 . S
C664 C666 1.384 . S
C665 C664 1.377 . S
C665 C671 1.390 . S
C666 H657 0.930 . S
C666 C664 1.384 . S
C666 C667 1.372 . S
C667 C666 1.372 . S
C667 C668 1.400 . S
C667 C672 1.490 . S
C668 H658 0.930 . S
C668 C667 1.400 . S
C668 C671 1.386 . S
H669 C685 0.930 . S
H670 C686 0.931 . S
C671 H659 0.929 . S
C671 C665 1.390 . S
C671 C668 1.386 . S
C672 C667 1.490 . S
C672 C674 1.395 . S
C672 C675 1.403 . S
H673 C679 0.930 . S
C674 H660 0.930 . S
C674 C672 1.395 . S
C674 C677 1.403 1_455 S
C675 C672 1.403 . S
C675 C676 1.524 . S
C675 C679 1.400 1_455 S
C676 H661 0.960 . S
C676 H662 0.960 . S
C676 H663 0.960 . S
C676 C675 1.524 . S
C677 C674 1.403 1_655 S
C677 C678 1.392 . S
C677 C681 1.495 . S
C678 C677 1.392 . S
C678 C679 1.385 . S
C678 C680 1.478 . S
C679 H673 0.930 . S
C679 C675 1.400 1_655 S
C679 C678 1.385 . S
C680 C678 1.478 . S
C680 C682 1.381 . S
C680 C686 1.383 . S
C681 C677 1.495 . S
C681 H687 0.959 . S
C681 H688 0.961 . S
C681 H689 0.960 . S
C682 C680 1.381 . S
C682 C683 1.394 . S
C682 H690 0.930 . S
C683 C682 1.394 . S
C683 C684 1.383 . S
C683 H691 0.929 . S
C684 C683 1.383 . S
C684 C685 1.377 . S
C685 H669 0.930 . S
C685 C684 1.377 . S
C685 C686 1.379 . S
C686 H670 0.931 . S
C686 C680 1.383 . S
C686 C685 1.379 . S
H687 C681 0.959 . S
H688 C681 0.961 . S
H689 C681 0.960 . S
H690 C682 0.930 . S
H691 C683 0.929 . S
H692 C700 0.929 . S
H693 C702 0.930 . S
H694 C704 0.930 . S
H695 C707 0.929 . S
H696 C710 0.930 . S
H697 C712 0.960 . S
H698 C712 0.960 . S
H699 C712 0.960 . S
C700 H692 0.929 . S
C700 C701 1.377 . S
C700 C702 1.384 . S
C701 C700 1.377 . S
C701 C707 1.390 . S
C702 H693 0.930 . S
C702 C700 1.384 . S
C702 C703 1.372 . S
C703 C702 1.372 . S
C703 C704 1.400 . S
C703 C708 1.490 . S
C704 H694 0.930 . S
C704 C703 1.400 . S
C704 C707 1.386 . S
H705 C721 0.930 . S
H706 C722 0.931 . S
C707 H695 0.929 . S
C707 C701 1.390 . S
C707 C704 1.386 . S
C708 C703 1.490 . S
C708 C710 1.395 . S
C708 C711 1.403 . S
H709 C715 0.930 . S
C710 H696 0.930 . S
C710 C708 1.395 . S
C710 C713 1.403 . S
C711 C708 1.403 . S
C711 C712 1.524 . S
C711 C715 1.400 . S
C712 H697 0.960 . S
C712 H698 0.960 . S
C712 H699 0.960 . S
C712 C711 1.524 . S
C713 C710 1.403 . S
C713 C714 1.392 . S
C713 C717 1.495 . S
C714 C713 1.392 . S
C714 C715 1.385 . S
C714 C716 1.478 . S
C715 H709 0.930 . S
C715 C711 1.400 . S
C715 C714 1.385 . S
C716 C714 1.478 . S
C716 C718 1.381 . S
C716 C722 1.383 . S
C717 C713 1.495 . S
C717 H723 0.959 . S
C717 H724 0.961 . S
C717 H725 0.960 . S
C718 C716 1.381 . S
C718 C719 1.394 . S
C718 H726 0.930 . S
C719 C718 1.394 . S
C719 C720 1.383 . S
C719 H727 0.929 . S
C720 C719 1.383 . S
C720 C721 1.377 . S
C721 H705 0.930 . S
C721 C720 1.377 . S
C721 C722 1.379 . S
C722 H706 0.931 . S
C722 C716 1.383 . S
C722 C721 1.379 . S
H723 C717 0.959 . S
H724 C717 0.961 . S
H725 C717 0.960 . S
H726 C718 0.930 . S
H727 C719 0.929 . S
H728 C736 0.929 . S
H729 C738 0.930 . S
H730 C740 0.930 . S
H731 C743 0.929 . S
H732 C746 0.930 . S
H733 C748 0.960 . S
H734 C748 0.960 . S
H735 C748 0.960 . S
C736 H728 0.929 . S
C736 C737 1.377 . S
C736 C738 1.384 . S
C737 C736 1.377 . S
C737 C743 1.390 . S
C738 H729 0.930 . S
C738 C736 1.384 . S
C738 C739 1.372 . S
C739 C738 1.372 . S
C739 C740 1.400 . S
C739 C744 1.490 . S
C740 H730 0.930 . S
C740 C739 1.400 . S
C740 C743 1.386 . S
H741 C757 0.930 . S
H742 C758 0.931 . S
C743 H731 0.929 . S
C743 C737 1.390 . S
C743 C740 1.386 . S
C744 C739 1.490 . S
C744 C746 1.395 . S
C744 C747 1.403 . S
H745 C751 0.930 . S
C746 H732 0.930 . S
C746 C744 1.395 . S
C746 C749 1.403 . S
C747 C744 1.403 . S
C747 C748 1.524 . S
C747 C751 1.400 . S
C748 H733 0.960 . S
C748 H734 0.960 . S
C748 H735 0.960 . S
C748 C747 1.524 . S
C749 C746 1.403 . S
C749 C750 1.392 . S
C749 C753 1.495 . S
C750 C749 1.392 . S
C750 C751 1.385 . S
C750 C752 1.478 . S
C751 H745 0.930 . S
C751 C747 1.400 . S
C751 C750 1.385 . S
C752 C750 1.478 . S
C752 C754 1.381 . S
C752 C758 1.383 . S
C753 C749 1.495 . S
C753 H759 0.959 . S
C753 H760 0.961 . S
C753 H761 0.960 . S
C754 C752 1.381 . S
C754 C755 1.394 . S
C754 H762 0.930 . S
C755 C754 1.394 . S
C755 C756 1.383 . S
C755 H763 0.929 . S
C756 C755 1.383 . S
C756 C757 1.377 . S
C757 H741 0.930 . S
C757 C756 1.377 . S
C757 C758 1.379 . S
C758 H742 0.931 . S
C758 C752 1.383 . S
C758 C757 1.379 . S
H759 C753 0.959 . S
H760 C753 0.961 . S
H761 C753 0.960 . S
H762 C754 0.930 . S
H763 C755 0.929 . S
H764 C772 0.929 . S
H765 C774 0.930 . S
H766 C776 0.930 . S
H767 C779 0.929 . S
H768 C782 0.930 . S
H769 C784 0.960 . S
H770 C784 0.960 . S
H771 C784 0.960 . S
C772 H764 0.929 . S
C772 C773 1.377 . S
C772 C774 1.384 . S
C773 C772 1.377 . S
C773 C779 1.390 . S
C774 H765 0.930 . S
C774 C772 1.384 . S
C774 C775 1.372 . S
C775 C774 1.372 . S
C775 C776 1.400 . S
C775 C780 1.490 . S
C776 H766 0.930 . S
C776 C775 1.400 . S
C776 C779 1.386 . S
H777 C793 0.930 . S
H778 C794 0.931 . S
C779 H767 0.929 . S
C779 C773 1.390 . S
C779 C776 1.386 . S
C780 C775 1.490 . S
C780 C782 1.395 . S
C780 C783 1.403 . S
H781 C787 0.930 . S
C782 H768 0.930 . S
C782 C780 1.395 . S
C782 C785 1.403 1_455 S
C783 C780 1.403 . S
C783 C784 1.524 . S
C783 C787 1.400 1_455 S
C784 H769 0.960 . S
C784 H770 0.960 . S
C784 H771 0.960 . S
C784 C783 1.524 . S
C785 C782 1.403 1_655 S
C785 C786 1.392 . S
C785 C789 1.495 . S
C786 C785 1.392 . S
C786 C787 1.385 . S
C786 C788 1.478 . S
C787 H781 0.930 . S
C787 C783 1.400 1_655 S
C787 C786 1.385 . S
C788 C786 1.478 . S
C788 C790 1.381 . S
C788 C794 1.383 . S
C789 C785 1.495 . S
C789 H795 0.959 . S
C789 H796 0.961 . S
C789 H797 0.960 . S
C790 C788 1.381 . S
C790 C791 1.394 . S
C790 H798 0.930 . S
C791 C790 1.394 . S
C791 C792 1.383 . S
C791 H799 0.929 . S
C792 C791 1.383 . S
C792 C793 1.377 . S
C793 H777 0.930 . S
C793 C792 1.377 . S
C793 C794 1.379 . S
C794 H778 0.931 . S
C794 C788 1.383 . S
C794 C793 1.379 . S
H795 C789 0.959 . S
H796 C789 0.961 . S
H797 C789 0.960 . S
H798 C790 0.930 . S
H799 C791 0.929 . S
H800 C808 0.929 . S
H801 C810 0.930 . S
H802 C812 0.930 . S
H803 C815 0.929 . S
H804 C818 0.930 . S
H805 C820 0.960 . S
H806 C820 0.960 . S
H807 C820 0.960 . S
C808 H800 0.929 . S
C808 C809 1.377 . S
C808 C810 1.384 . S
C809 C808 1.377 . S
C809 C815 1.390 . S
C810 H801 0.930 . S
C810 C808 1.384 . S
C810 C811 1.372 . S
C811 C810 1.372 . S
C811 C812 1.400 . S
C811 C816 1.490 . S
C812 H802 0.930 . S
C812 C811 1.400 . S
C812 C815 1.386 . S
H813 C829 0.930 . S
H814 C830 0.931 . S
C815 H803 0.929 . S
C815 C809 1.390 . S
C815 C812 1.386 . S
C816 C811 1.490 . S
C816 C818 1.395 . S
C816 C819 1.403 . S
H817 C823 0.930 . S
C818 H804 0.930 . S
C818 C816 1.395 . S
C818 C821 1.403 1_554 S
C819 C816 1.403 . S
C819 C820 1.524 . S
C819 C823 1.400 1_554 S
C820 H805 0.960 . S
C820 H806 0.960 . S
C820 H807 0.960 . S
C820 C819 1.524 . S
C821 C818 1.403 1_556 S
C821 C822 1.392 . S
C821 C825 1.495 . S
C822 C821 1.392 . S
C822 C823 1.385 . S
C822 C824 1.478 . S
C823 H817 0.930 . S
C823 C819 1.400 1_556 S
C823 C822 1.385 . S
C824 C822 1.478 . S
C824 C826 1.381 . S
C824 C830 1.383 . S
C825 C821 1.495 . S
C825 H831 0.959 . S
C825 H832 0.961 . S
C825 H833 0.960 . S
C826 C824 1.381 . S
C826 C827 1.394 . S
C826 H834 0.930 . S
C827 C826 1.394 . S
C827 C828 1.383 . S
C827 H835 0.929 . S
C828 C827 1.383 . S
C828 C829 1.377 . S
C829 H813 0.930 . S
C829 C828 1.377 . S
C829 C830 1.379 . S
C830 H814 0.931 . S
C830 C824 1.383 . S
C830 C829 1.379 . S
H831 C825 0.959 . S
H832 C825 0.961 . S
H833 C825 0.960 . S
H834 C826 0.930 . S
H835 C827 0.929 . S
H836 C844 0.929 . S
H837 C846 0.930 . S
H838 C848 0.930 . S
H839 C851 0.929 . S
H840 C854 0.930 . S
H841 C856 0.960 . S
H842 C856 0.960 . S
H843 C856 0.960 . S
C844 H836 0.929 . S
C844 C845 1.377 . S
C844 C846 1.384 . S
C845 C844 1.377 . S
C845 C851 1.390 . S
C846 H837 0.930 . S
C846 C844 1.384 . S
C846 C847 1.372 . S
C847 C846 1.372 . S
C847 C848 1.400 . S
C847 C852 1.490 . S
C848 H838 0.930 . S
C848 C847 1.400 . S
C848 C851 1.386 . S
H849 C865 0.930 . S
H850 C866 0.931 . S
C851 H839 0.929 . S
C851 C845 1.390 . S
C851 C848 1.386 . S
C852 C847 1.490 . S
C852 C854 1.395 . S
C852 C855 1.403 . S
H853 C859 0.930 . S
C854 H840 0.930 . S
C854 C852 1.395 . S
C854 C857 1.403 . S
C855 C852 1.403 . S
C855 C856 1.524 . S
C855 C859 1.400 . S
C856 H841 0.960 . S
C856 H842 0.960 . S
C856 H843 0.960 . S
C856 C855 1.524 . S
C857 C854 1.403 . S
C857 C858 1.392 . S
C857 C861 1.495 . S
C858 C857 1.392 . S
C858 C859 1.385 . S
C858 C860 1.478 . S
C859 H853 0.930 . S
C859 C855 1.400 . S
C859 C858 1.385 . S
C860 C858 1.478 . S
C860 C862 1.381 . S
C860 C866 1.383 . S
C861 C857 1.495 . S
C861 H867 0.959 . S
C861 H868 0.961 . S
C861 H869 0.960 . S
C862 C860 1.381 . S
C862 C863 1.394 . S
C862 H870 0.930 . S
C863 C862 1.394 . S
C863 C864 1.383 . S
C863 H871 0.929 . S
C864 C863 1.383 . S
C864 C865 1.377 . S
C865 H849 0.930 . S
C865 C864 1.377 . S
C865 C866 1.379 . S
C866 H850 0.931 . S
C866 C860 1.383 . S
C866 C865 1.379 . S
H867 C861 0.959 . S
H868 C861 0.961 . S
H869 C861 0.960 . S
H870 C862 0.930 . S
H871 C863 0.929 . S
H872 C880 0.929 . S
H873 C882 0.930 . S
H874 C884 0.930 . S
H875 C887 0.929 . S
H876 C890 0.930 . S
H877 C892 0.960 . S
H878 C892 0.960 . S
H879 C892 0.960 . S
C880 H872 0.929 . S
C880 C881 1.377 . S
C880 C882 1.384 . S
C881 C880 1.377 . S
C881 C887 1.390 . S
C882 H873 0.930 . S
C882 C880 1.384 . S
C882 C883 1.372 . S
C883 C882 1.372 . S
C883 C884 1.400 . S
C883 C888 1.490 . S
C884 H874 0.930 . S
C884 C883 1.400 . S
C884 C887 1.386 . S
H885 C901 0.930 . S
H886 C902 0.931 . S
C887 H875 0.929 . S
C887 C881 1.390 . S
C887 C884 1.386 . S
C888 C883 1.490 . S
C888 C890 1.395 . S
C888 C891 1.403 . S
H889 C895 0.930 . S
C890 H876 0.930 . S
C890 C888 1.395 . S
C890 C893 1.403 . S
C891 C888 1.403 . S
C891 C892 1.524 . S
C891 C895 1.400 . S
C892 H877 0.960 . S
C892 H878 0.960 . S
C892 H879 0.960 . S
C892 C891 1.524 . S
C893 C890 1.403 . S
C893 C894 1.392 . S
C893 C897 1.495 . S
C894 C893 1.392 . S
C894 C895 1.385 . S
C894 C896 1.478 . S
C895 H889 0.930 . S
C895 C891 1.400 . S
C895 C894 1.385 . S
C896 C894 1.478 . S
C896 C898 1.381 . S
C896 C902 1.383 . S
C897 C893 1.495 . S
C897 H903 0.959 . S
C897 H904 0.961 . S
C897 H905 0.960 . S
C898 C896 1.381 . S
C898 C899 1.394 . S
C898 H906 0.930 . S
C899 C898 1.394 . S
C899 C900 1.383 . S
C899 H907 0.929 . S
C900 C899 1.383 . S
C900 C901 1.377 . S
C901 H885 0.930 . S
C901 C900 1.377 . S
C901 C902 1.379 . S
C902 H886 0.931 . S
C902 C896 1.383 . S
C902 C901 1.379 . S
H903 C897 0.959 . S
H904 C897 0.961 . S
H905 C897 0.960 . S
H906 C898 0.930 . S
H907 C899 0.929 . S
H908 C916 0.929 . S
H909 C918 0.930 . S
H910 C920 0.930 . S
H911 C923 0.929 . S
H912 C926 0.930 . S
H913 C928 0.960 . S
H914 C928 0.960 . S
H915 C928 0.960 . S
C916 H908 0.929 . S
C916 C917 1.377 . S
C916 C918 1.384 . S
C917 C916 1.377 . S
C917 C923 1.390 . S
C918 H909 0.930 . S
C918 C916 1.384 . S
C918 C919 1.372 . S
C919 C918 1.372 . S
C919 C920 1.400 . S
C919 C924 1.490 . S
C920 H910 0.930 . S
C920 C919 1.400 . S
C920 C923 1.386 . S
H921 C937 0.930 . S
H922 C938 0.931 . S
C923 H911 0.929 . S
C923 C917 1.390 . S
C923 C920 1.386 . S
C924 C919 1.490 . S
C924 C926 1.395 . S
C924 C927 1.403 . S
H925 C931 0.930 . S
C926 H912 0.930 . S
C926 C924 1.395 . S
C926 C929 1.403 . S
C927 C924 1.403 . S
C927 C928 1.524 . S
C927 C931 1.400 . S
C928 H913 0.960 . S
C928 H914 0.960 . S
C928 H915 0.960 . S
C928 C927 1.524 . S
C929 C926 1.403 . S
C929 C930 1.392 . S
C929 C933 1.495 . S
C930 C929 1.392 . S
C930 C931 1.385 . S
C930 C932 1.478 . S
C931 H925 0.930 . S
C931 C927 1.400 . S
C931 C930 1.385 . S
C932 C930 1.478 . S
C932 C934 1.381 . S
C932 C938 1.383 . S
C933 C929 1.495 . S
C933 H939 0.959 . S
C933 H940 0.961 . S
C933 H941 0.960 . S
C934 C932 1.381 . S
C934 C935 1.394 . S
C934 H942 0.930 . S
C935 C934 1.394 . S
C935 C936 1.383 . S
C935 H943 0.929 . S
C936 C935 1.383 . S
C936 C937 1.377 . S
C937 H921 0.930 . S
C937 C936 1.377 . S
C937 C938 1.379 . S
C938 H922 0.931 . S
C938 C932 1.383 . S
C938 C937 1.379 . S
H939 C933 0.959 . S
H940 C933 0.961 . S
H941 C933 0.960 . S
H942 C934 0.930 . S
H943 C935 0.929 . S
H944 C952 0.929 . S
H945 C954 0.930 . S
H946 C956 0.930 . S
H947 C959 0.929 . S
H948 C962 0.930 . S
H949 C964 0.960 . S
H950 C964 0.960 . S
H951 C964 0.960 . S
C952 H944 0.929 . S
C952 C953 1.377 . S
C952 C954 1.384 . S
C953 C952 1.377 . S
C953 C959 1.390 . S
C954 H945 0.930 . S
C954 C952 1.384 . S
C954 C955 1.372 . S
C955 C954 1.372 . S
C955 C956 1.400 . S
C955 C960 1.490 . S
C956 H946 0.930 . S
C956 C955 1.400 . S
C956 C959 1.386 . S
H957 C973 0.930 . S
H958 C974 0.931 . S
C959 H947 0.929 . S
C959 C953 1.390 . S
C959 C956 1.386 . S
C960 C955 1.490 . S
C960 C962 1.395 1_556 S
C960 C963 1.403 . S
H961 C967 0.930 . S
C962 H948 0.930 . S
C962 C960 1.395 1_554 S
C962 C965 1.403 . S
C963 C960 1.403 . S
C963 C964 1.524 . S
C963 C967 1.400 . S
C964 H949 0.960 . S
C964 H950 0.960 . S
C964 H951 0.960 . S
C964 C963 1.524 . S
C965 C962 1.403 . S
C965 C966 1.392 . S
C965 C969 1.495 . S
C966 C965 1.392 . S
C966 C967 1.385 1_554 S
C966 C968 1.478 . S
C967 H961 0.930 . S
C967 C963 1.400 . S
C967 C966 1.385 1_556 S
C968 C966 1.478 . S
C968 C970 1.381 . S
C968 C974 1.383 . S
C969 C965 1.495 . S
C969 H975 0.959 . S
C969 H976 0.961 . S
C969 H977 0.960 . S
C970 C968 1.381 . S
C970 C971 1.394 . S
C970 H978 0.930 . S
C971 C970 1.394 . S
C971 C972 1.383 . S
C971 H979 0.929 . S
C972 C971 1.383 . S
C972 C973 1.377 . S
C973 H957 0.930 . S
C973 C972 1.377 . S
C973 C974 1.379 . S
C974 H958 0.931 . S
C974 C968 1.383 . S
C974 C973 1.379 . S
H975 C969 0.959 . S
H976 C969 0.961 . S
H977 C969 0.960 . S
H978 C970 0.930 . S
H979 C971 0.929 . S
H980 C988 0.929 . S
H981 C990 0.930 . S
H982 C992 0.930 . S
H983 C995 0.929 . S
H984 C998 0.930 . S
H985 C1000 0.960 . S
H986 C1000 0.960 . S
H987 C1000 0.960 . S
C988 H980 0.929 . S
C988 C989 1.377 . S
C988 C990 1.384 . S
C989 C988 1.377 . S
C989 C995 1.390 . S
C990 H981 0.930 . S
C990 C988 1.384 . S
C990 C991 1.372 . S
C991 C990 1.372 . S
C991 C992 1.400 . S
C991 C996 1.490 . S
C992 H982 0.930 . S
C992 C991 1.400 . S
C992 C995 1.386 . S
H993 C1009 0.930 . S
H994 C1010 0.931 . S
C995 H983 0.929 . S
C995 C989 1.390 . S
C995 C992 1.386 . S
C996 C991 1.490 . S
C996 C998 1.395 . S
C996 C999 1.403 . S
H997 C1003 0.930 . S
C998 H984 0.930 . S
C998 C996 1.395 . S
C998 C1001 1.403 . S
C999 C996 1.403 . S
C999 C1000 1.524 . S
C999 C1003 1.400 . S
C1000 H985 0.960 . S
C1000 H986 0.960 . S
C1000 H987 0.960 . S
C1000 C999 1.524 . S
C1001 C998 1.403 . S
C1001 C1002 1.392 . S
C1001 C1005 1.495 . S
C1002 C1001 1.392 . S
C1002 C1003 1.385 . S
C1002 C1004 1.478 . S
C1003 H997 0.930 . S
C1003 C999 1.400 . S
C1003 C1002 1.385 . S
C1004 C1002 1.478 . S
C1004 C1006 1.381 . S
C1004 C1010 1.383 . S
C1005 C1001 1.495 . S
C1005 H1011 0.959 . S
C1005 H1012 0.961 . S
C1005 H1013 0.960 . S
C1006 C1004 1.381 . S
C1006 C1007 1.394 . S
C1006 H1014 0.930 . S
C1007 C1006 1.394 . S
C1007 C1008 1.383 . S
C1007 H1015 0.929 . S
C1008 C1007 1.383 . S
C1008 C1009 1.377 . S
C1009 H993 0.930 . S
C1009 C1008 1.377 . S
C1009 C1010 1.379 . S
C1010 H994 0.931 . S
C1010 C1004 1.383 . S
C1010 C1009 1.379 . S
H1011 C1005 0.959 . S
H1012 C1005 0.961 . S
H1013 C1005 0.960 . S
H1014 C1006 0.930 . S
H1015 C1007 0.929 . S
H1016 C1024 0.929 . S
H1017 C1026 0.930 . S
H1018 C1028 0.930 . S
H1019 C1031 0.929 . S
H1020 C1034 0.930 . S
H1021 C1036 0.960 . S
H1022 C1036 0.960 . S
H1023 C1036 0.960 . S
C1024 H1016 0.929 . S
C1024 C1025 1.377 . S
C1024 C1026 1.384 . S
C1025 C1024 1.377 . S
C1025 C1031 1.390 . S
C1026 H1017 0.930 . S
C1026 C1024 1.384 . S
C1026 C1027 1.372 . S
C1027 C1026 1.372 . S
C1027 C1028 1.400 . S
C1027 C1032 1.490 . S
C1028 H1018 0.930 . S
C1028 C1027 1.400 . S
C1028 C1031 1.386 . S
H1029 C1045 0.930 . S
H1030 C1046 0.931 . S
C1031 H1019 0.929 . S
C1031 C1025 1.390 . S
C1031 C1028 1.386 . S
C1032 C1027 1.490 . S
C1032 C1034 1.395 . S
C1032 C1035 1.403 . S
H1033 C1039 0.930 . S
C1034 H1020 0.930 . S
C1034 C1032 1.395 . S
C1034 C1037 1.403 . S
C1035 C1032 1.403 . S
C1035 C1036 1.524 . S
C1035 C1039 1.400 . S
C1036 H1021 0.960 . S
C1036 H1022 0.960 . S
C1036 H1023 0.960 . S
C1036 C1035 1.524 . S
C1037 C1034 1.403 . S
C1037 C1038 1.392 . S
C1037 C1041 1.495 . S
C1038 C1037 1.392 . S
C1038 C1039 1.385 . S
C1038 C1040 1.478 . S
C1039 H1033 0.930 . S
C1039 C1035 1.400 . S
C1039 C1038 1.385 . S
C1040 C1038 1.478 . S
C1040 C1042 1.381 . S
C1040 C1046 1.383 . S
C1041 C1037 1.495 . S
C1041 H1047 0.959 . S
C1041 H1048 0.961 . S
C1041 H1049 0.960 . S
C1042 C1040 1.381 . S
C1042 C1043 1.394 . S
C1042 H1050 0.930 . S
C1043 C1042 1.394 . S
C1043 C1044 1.383 . S
C1043 H1051 0.929 . S
C1044 C1043 1.383 . S
C1044 C1045 1.377 . S
C1045 H1029 0.930 . S
C1045 C1044 1.377 . S
C1045 C1046 1.379 . S
C1046 H1030 0.931 . S
C1046 C1040 1.383 . S
C1046 C1045 1.379 . S
H1047 C1041 0.959 . S
H1048 C1041 0.961 . S
H1049 C1041 0.960 . S
H1050 C1042 0.930 . S
H1051 C1043 0.929 . S
H1052 C1060 0.929 . S
H1053 C1062 0.930 . S
H1054 C1064 0.930 . S
H1055 C1067 0.929 . S
H1056 C1070 0.930 . S
H1057 C1072 0.960 . S
H1058 C1072 0.960 . S
H1059 C1072 0.960 . S
C1060 H1052 0.929 . S
C1060 C1061 1.377 . S
C1060 C1062 1.384 . S
C1061 C1060 1.377 . S
C1061 C1067 1.390 . S
C1062 H1053 0.930 . S
C1062 C1060 1.384 . S
C1062 C1063 1.372 . S
C1063 C1062 1.372 . S
C1063 C1064 1.400 . S
C1063 C1068 1.490 . S
C1064 H1054 0.930 . S
C1064 C1063 1.400 . S
C1064 C1067 1.386 . S
H1065 C1081 0.930 . S
H1066 C1082 0.931 . S
C1067 H1055 0.929 . S
C1067 C1061 1.390 . S
C1067 C1064 1.386 . S
C1068 C1063 1.490 . S
C1068 C1070 1.395 . S
C1068 C1071 1.403 . S
H1069 C1075 0.930 . S
C1070 H1056 0.930 . S
C1070 C1068 1.395 . S
C1070 C1073 1.403 . S
C1071 C1068 1.403 . S
C1071 C1072 1.524 . S
C1071 C1075 1.400 . S
C1072 H1057 0.960 . S
C1072 H1058 0.960 . S
C1072 H1059 0.960 . S
C1072 C1071 1.524 . S
C1073 C1070 1.403 . S
C1073 C1074 1.392 . S
C1073 C1077 1.495 . S
C1074 C1073 1.392 . S
C1074 C1075 1.385 . S
C1074 C1076 1.478 . S
C1075 H1069 0.930 . S
C1075 C1071 1.400 . S
C1075 C1074 1.385 . S
C1076 C1074 1.478 . S
C1076 C1078 1.381 . S
C1076 C1082 1.383 . S
C1077 C1073 1.495 . S
C1077 H1083 0.959 . S
C1077 H1084 0.961 . S
C1077 H1085 0.960 . S
C1078 C1076 1.381 . S
C1078 C1079 1.394 . S
C1078 H1086 0.930 . S
C1079 C1078 1.394 . S
C1079 C1080 1.383 . S
C1079 H1087 0.929 . S
C1080 C1079 1.383 . S
C1080 C1081 1.377 . S
C1081 H1065 0.930 . S
C1081 C1080 1.377 . S
C1081 C1082 1.379 . S
C1082 H1066 0.931 . S
C1082 C1076 1.383 . S
C1082 C1081 1.379 . S
H1083 C1077 0.959 . S
H1084 C1077 0.961 . S
H1085 C1077 0.960 . S
H1086 C1078 0.930 . S
H1087 C1079 0.929 . S
H1088 C1096 0.929 . S
H1089 C1098 0.930 . S
H1090 C1100 0.930 . S
H1091 C1103 0.929 . S
H1092 C1106 0.930 . S
H1093 C1108 0.960 . S
H1094 C1108 0.960 . S
H1095 C1108 0.960 1_545 S
C1096 H1088 0.929 . S
C1096 C1097 1.377 . S
C1096 C1098 1.384 . S
C1097 C1096 1.377 . S
C1097 C1103 1.390 . S
C1098 H1089 0.930 . S
C1098 C1096 1.384 . S
C1098 C1099 1.372 . S
C1099 C1098 1.372 . S
C1099 C1100 1.400 . S
C1099 C1104 1.490 . S
C1100 H1090 0.930 . S
C1100 C1099 1.400 . S
C1100 C1103 1.386 . S
H1101 C1117 0.930 . S
H1102 C1118 0.931 . S
C1103 H1091 0.929 . S
C1103 C1097 1.390 . S
C1103 C1100 1.386 . S
C1104 C1099 1.490 . S
C1104 C1106 1.395 . S
C1104 C1107 1.403 1_545 S
H1105 C1111 0.930 . S
C1106 H1092 0.930 . S
C1106 C1104 1.395 . S
C1106 C1109 1.403 . S
C1107 C1104 1.403 1_565 S
C1107 C1108 1.524 . S
C1107 C1111 1.400 . S
C1108 H1093 0.960 . S
C1108 H1094 0.960 . S
C1108 H1095 0.960 1_565 S
C1108 C1107 1.524 . S
C1109 C1106 1.403 . S
C1109 C1110 1.392 1_545 S
C1109 C1113 1.495 . S
C1110 C1109 1.392 1_565 S
C1110 C1111 1.385 . S
C1110 C1112 1.478 . S
C1111 H1105 0.930 . S
C1111 C1107 1.400 . S
C1111 C1110 1.385 . S
C1112 C1110 1.478 . S
C1112 C1114 1.381 . S
C1112 C1118 1.383 . S
C1113 C1109 1.495 . S
C1113 H1119 0.959 . S
C1113 H1120 0.961 . S
C1113 H1121 0.946 1_545 S
C1114 C1112 1.381 . S
C1114 C1115 1.394 . S
C1114 H1122 0.930 . S
C1115 C1114 1.394 . S
C1115 C1116 1.383 . S
C1115 H1123 0.929 . S
C1116 C1115 1.383 . S
C1116 C1117 1.377 . S
C1117 H1101 0.930 . S
C1117 C1116 1.377 . S
C1117 C1118 1.379 . S
C1118 H1102 0.931 . S
C1118 C1112 1.383 . S
C1118 C1117 1.379 . S
H1119 C1113 0.959 . S
H1120 C1113 0.961 . S
H1121 C1113 0.946 1_565 S
H1122 C1114 0.930 . S
H1123 C1115 0.929 . S
H1124 C1132 0.929 . S
H1125 C1134 0.930 . S
H1126 C1136 0.930 . S
H1127 C1139 0.929 . S
H1128 C1142 0.930 . S
H1129 C1144 0.960 . S
H1130 C1144 0.960 . S
H1131 C1144 0.960 . S
C1132 H1124 0.929 . S
C1132 C1133 1.377 . S
C1132 C1134 1.384 . S
C1133 C1132 1.377 . S
C1133 C1139 1.390 . S
C1134 H1125 0.930 . S
C1134 C1132 1.384 . S
C1134 C1135 1.372 . S
C1135 C1134 1.372 . S
C1135 C1136 1.400 . S
C1135 C1140 1.490 . S
C1136 H1126 0.930 . S
C1136 C1135 1.400 . S
C1136 C1139 1.386 . S
H1137 C1153 0.930 . S
H1138 C1154 0.931 . S
C1139 H1127 0.929 . S
C1139 C1133 1.390 . S
C1139 C1136 1.386 . S
C1140 C1135 1.490 . S
C1140 C1142 1.395 . S
C1140 C1143 1.403 . S
H1141 C1147 0.930 . S
C1142 H1128 0.930 . S
C1142 C1140 1.395 . S
C1142 C1145 1.403 . S
C1143 C1140 1.403 . S
C1143 C1144 1.524 . S
C1143 C1147 1.400 . S
C1144 H1129 0.960 . S
C1144 H1130 0.960 . S
C1144 H1131 0.960 . S
C1144 C1143 1.524 . S
C1145 C1142 1.403 . S
C1145 C1146 1.392 . S
C1145 C1149 1.495 . S
C1146 C1145 1.392 . S
C1146 C1147 1.385 . S
C1146 C1148 1.478 . S
C1147 H1141 0.930 . S
C1147 C1143 1.400 . S
C1147 C1146 1.385 . S
C1148 C1146 1.478 . S
C1148 C1150 1.381 . S
C1148 C1154 1.383 . S
C1149 C1145 1.495 . S
C1149 H1155 0.959 . S
C1149 H1156 0.961 . S
C1149 H1157 0.960 . S
C1150 C1148 1.381 . S
C1150 C1151 1.394 . S
C1150 H1158 0.930 . S
C1151 C1150 1.394 . S
C1151 C1152 1.383 . S
C1151 H1159 0.929 . S
C1152 C1151 1.383 . S
C1152 C1153 1.377 . S
C1153 H1137 0.930 . S
C1153 C1152 1.377 . S
C1153 C1154 1.379 . S
C1154 H1138 0.931 . S
C1154 C1148 1.383 . S
C1154 C1153 1.379 . S
H1155 C1149 0.959 . S
H1156 C1149 0.961 . S
H1157 C1149 0.960 . S
H1158 C1150 0.930 . S
H1159 C1151 0.929 . S
H1160 C1168 0.929 . S
H1161 C1170 0.930 . S
H1162 C1172 0.930 . S
H1163 C1175 0.929 . S
H1164 C1178 0.930 . S
H1165 C1180 0.960 . S
H1166 C1180 0.960 . S
H1167 C1180 0.985 . S
C1168 H1160 0.929 . S
C1168 C1169 1.377 . S
C1168 C1170 1.384 . S
C1169 C1168 1.377 . S
C1169 C1175 1.390 . S
C1170 H1161 0.930 . S
C1170 C1168 1.384 . S
C1170 C1171 1.372 . S
C1171 C1170 1.372 . S
C1171 C1172 1.400 . S
C1171 C1176 1.490 . S
C1172 H1162 0.930 . S
C1172 C1171 1.400 . S
C1172 C1175 1.386 . S
H1173 C1189 0.930 . S
H1174 C1190 0.931 . S
C1175 H1163 0.929 . S
C1175 C1169 1.390 . S
C1175 C1172 1.386 . S
C1176 C1171 1.490 . S
C1176 C1178 1.395 1_556 S
C1176 C1179 1.403 1_545 S
H1177 C1183 0.930 . S
C1178 H1164 0.930 . S
C1178 C1176 1.395 1_554 S
C1178 C1181 1.403 . S
C1179 C1176 1.403 1_565 S
C1179 C1180 1.524 . S
C1179 C1183 1.400 . S
C1180 H1165 0.960 . S
C1180 H1166 0.960 . S
C1180 H1167 0.985 . S
C1180 C1179 1.524 . S
C1181 C1178 1.403 . S
C1181 C1182 1.392 1_545 S
C1181 C1185 1.495 . S
C1182 C1181 1.392 1_565 S
C1182 C1183 1.385 1_554 S
C1182 C1184 1.478 . S
C1183 H1177 0.930 . S
C1183 C1179 1.400 . S
C1183 C1182 1.385 1_556 S
C1184 C1182 1.478 . S
C1184 C1186 1.381 . S
C1184 C1190 1.383 . S
C1185 C1181 1.495 . S
C1185 H1191 0.959 . S
C1185 H1192 0.961 . S
C1185 H1193 0.960 . S
C1186 C1184 1.381 . S
C1186 C1187 1.394 . S
C1186 H1194 0.930 . S
C1187 C1186 1.394 . S
C1187 C1188 1.383 . S
C1187 H1195 0.929 . S
C1188 C1187 1.383 . S
C1188 C1189 1.377 . S
C1189 H1173 0.930 . S
C1189 C1188 1.377 . S
C1189 C1190 1.379 . S
C1190 H1174 0.931 . S
C1190 C1184 1.383 . S
C1190 C1189 1.379 . S
H1191 C1185 0.959 . S
H1192 C1185 0.961 . S
H1193 C1185 0.960 . S
H1194 C1186 0.930 . S
H1195 C1187 0.929 . S
H1196 C1204 0.929 . S
H1197 C1206 0.930 . S
H1198 C1208 0.930 . S
H1199 C1211 0.929 . S
H1200 C1214 0.930 . S
H1201 C1216 0.960 . S
H1202 C1216 0.960 . S
H1203 C1216 0.960 . S
C1204 H1196 0.929 . S
C1204 C1205 1.377 . S
C1204 C1206 1.384 . S
C1205 C1204 1.377 . S
C1205 C1211 1.390 . S
C1206 H1197 0.930 . S
C1206 C1204 1.384 . S
C1206 C1207 1.372 . S
C1207 C1206 1.372 . S
C1207 C1208 1.400 . S
C1207 C1212 1.490 . S
C1208 H1198 0.930 . S
C1208 C1207 1.400 . S
C1208 C1211 1.386 . S
H1209 C1225 0.930 . S
H1210 C1226 0.931 . S
C1211 H1199 0.929 . S
C1211 C1205 1.390 . S
C1211 C1208 1.386 . S
C1212 C1207 1.490 . S
C1212 C1214 1.395 . S
C1212 C1215 1.403 . S
H1213 C1219 0.930 . S
C1214 H1200 0.930 . S
C1214 C1212 1.395 . S
C1214 C1217 1.403 . S
C1215 C1212 1.403 . S
C1215 C1216 1.524 . S
C1215 C1219 1.400 . S
C1216 H1201 0.960 . S
C1216 H1202 0.960 . S
C1216 H1203 0.960 . S
C1216 C1215 1.524 . S
C1217 C1214 1.403 . S
C1217 C1218 1.392 . S
C1217 C1221 1.495 . S
C1218 C1217 1.392 . S
C1218 C1219 1.385 . S
C1218 C1220 1.478 . S
C1219 H1213 0.930 . S
C1219 C1215 1.400 . S
C1219 C1218 1.385 . S
C1220 C1218 1.478 . S
C1220 C1222 1.381 . S
C1220 C1226 1.383 . S
C1221 C1217 1.495 . S
C1221 H1227 0.959 . S
C1221 H1228 0.961 . S
C1221 H1229 0.960 . S
C1222 C1220 1.381 . S
C1222 C1223 1.394 . S
C1222 H1230 0.930 . S
C1223 C1222 1.394 . S
C1223 C1224 1.383 . S
C1223 H1231 0.929 . S
C1224 C1223 1.383 . S
C1224 C1225 1.377 . S
C1225 H1209 0.930 . S
C1225 C1224 1.377 . S
C1225 C1226 1.379 . S
C1226 H1210 0.931 . S
C1226 C1220 1.383 . S
C1226 C1225 1.379 . S
H1227 C1221 0.959 . S
H1228 C1221 0.961 . S
H1229 C1221 0.960 . S
H1230 C1222 0.930 . S
H1231 C1223 0.929 . S
H1232 C1240 0.929 . S
H1233 C1242 0.930 . S
H1234 C1244 0.930 . S
H1235 C1247 0.929 . S
H1236 C1250 0.929 . S
H1237 C1252 0.960 . S
H1238 C1252 0.960 . S
H1239 C1252 0.960 . S
C1240 H1232 0.929 . S
C1240 C1241 1.377 . S
C1240 C1242 1.384 . S
C1241 C1240 1.377 . S
C1241 C1247 1.390 . S
C1242 H1233 0.930 . S
C1242 C1240 1.384 . S
C1242 C1243 1.372 . S
C1243 C1242 1.372 . S
C1243 C1244 1.400 . S
C1243 C1248 1.490 . S
C1244 H1234 0.930 . S
C1244 C1243 1.400 . S
C1244 C1247 1.386 . S
H1245 C1261 0.930 . S
H1246 C1262 0.931 . S
C1247 H1235 0.929 . S
C1247 C1241 1.390 . S
C1247 C1244 1.386 . S
C1248 C1243 1.490 . S
C1248 C1250 1.347 1_545 S
C1248 C1251 1.403 . S
H1249 C1255 0.930 . S
C1250 H1236 0.929 . S
C1250 C1248 1.347 1_565 S
C1250 C1253 1.454 . S
C1251 C1248 1.403 . S
C1251 C1252 1.524 . S
C1251 C1255 1.400 1_545 S
C1252 H1237 0.960 . S
C1252 H1238 0.960 . S
C1252 H1239 0.960 . S
C1252 C1251 1.524 . S
C1253 C1250 1.454 . S
C1253 C1254 1.392 . S
C1253 C1257 1.495 . S
C1254 C1253 1.392 . S
C1254 C1255 1.385 . S
C1254 C1256 1.478 . S
C1255 H1249 0.930 . S
C1255 C1251 1.400 1_565 S
C1255 C1254 1.385 . S
C1256 C1254 1.478 . S
C1256 C1258 1.381 . S
C1256 C1262 1.383 . S
C1257 C1253 1.495 . S
C1257 H1263 0.959 . S
C1257 H1264 0.961 . S
C1257 H1265 0.960 . S
C1258 C1256 1.381 . S
C1258 C1259 1.394 . S
C1258 H1266 0.930 . S
C1259 C1258 1.394 . S
C1259 C1260 1.383 . S
C1259 H1267 0.929 . S
C1260 C1259 1.383 . S
C1260 C1261 1.377 . S
C1261 H1245 0.930 . S
C1261 C1260 1.377 . S
C1261 C1262 1.379 . S
C1262 H1246 0.931 . S
C1262 C1256 1.383 . S
C1262 C1261 1.379 . S
H1263 C1257 0.959 . S
H1264 C1257 0.961 . S
H1265 C1257 0.960 . S
H1266 C1258 0.930 . S
H1267 C1259 0.929 . S
H1268 C1276 0.929 . S
H1269 C1278 0.930 . S
H1270 C1280 0.930 . S
H1271 C1283 0.929 . S
H1272 C1286 0.930 . S
H1273 C1288 0.960 . S
H1274 C1288 0.960 . S
H1275 C1288 0.960 . S
C1276 H1268 0.929 . S
C1276 C1277 1.377 . S
C1276 C1278 1.384 . S
C1277 C1276 1.377 . S
C1277 C1283 1.390 . S
C1278 H1269 0.930 . S
C1278 C1276 1.384 . S
C1278 C1279 1.372 . S
C1279 C1278 1.372 . S
C1279 C1280 1.400 . S
C1279 C1284 1.490 . S
C1280 H1270 0.930 . S
C1280 C1279 1.400 . S
C1280 C1283 1.386 . S
H1281 C1297 0.930 . S
H1282 C1298 0.931 . S
C1283 H1271 0.929 . S
C1283 C1277 1.390 . S
C1283 C1280 1.386 . S
C1284 C1279 1.490 . S
C1284 C1286 1.395 . S
C1284 C1287 1.403 . S
H1285 C1291 0.930 . S
C1286 H1272 0.930 . S
C1286 C1284 1.395 . S
C1286 C1289 1.403 . S
C1287 C1284 1.403 . S
C1287 C1288 1.524 . S
C1287 C1291 1.400 . S
C1288 H1273 0.960 . S
C1288 H1274 0.960 . S
C1288 H1275 0.960 . S
C1288 C1287 1.524 . S
C1289 C1286 1.403 . S
C1289 C1290 1.392 . S
C1289 C1293 1.495 . S
C1290 C1289 1.392 . S
C1290 C1291 1.385 . S
C1290 C1292 1.478 . S
C1291 H1285 0.930 . S
C1291 C1287 1.400 . S
C1291 C1290 1.385 . S
C1292 C1290 1.478 . S
C1292 C1294 1.381 . S
C1292 C1298 1.383 . S
C1293 C1289 1.495 . S
C1293 H1299 0.959 . S
C1293 H1300 0.961 . S
C1293 H1301 0.960 . S
C1294 C1292 1.381 . S
C1294 C1295 1.394 . S
C1294 H1302 0.930 . S
C1295 C1294 1.394 . S
C1295 C1296 1.383 . S
C1295 H1303 0.929 . S
C1296 C1295 1.383 . S
C1296 C1297 1.377 . S
C1297 H1281 0.930 . S
C1297 C1296 1.377 . S
C1297 C1298 1.379 . S
C1298 H1282 0.931 . S
C1298 C1292 1.383 . S
C1298 C1297 1.379 . S
H1299 C1293 0.959 . S
H1300 C1293 0.961 . S
H1301 C1293 0.960 . S
H1302 C1294 0.930 . S
H1303 C1295 0.929 . S
H1304 C1312 0.929 . S
H1305 C1314 0.930 . S
H1306 C1316 0.930 . S
H1307 C1319 0.929 . S
H1308 C1322 0.930 . S
H1309 C1324 0.960 . S
H1310 C1324 0.960 . S
H1311 C1324 0.960 . S
C1312 H1304 0.929 . S
C1312 C1313 1.377 . S
C1312 C1314 1.384 . S
C1313 C1312 1.377 . S
C1313 C1319 1.390 . S
C1314 H1305 0.930 . S
C1314 C1312 1.384 . S
C1314 C1315 1.372 . S
C1315 C1314 1.372 . S
C1315 C1316 1.400 . S
C1315 C1320 1.490 . S
C1316 H1306 0.930 . S
C1316 C1315 1.400 . S
C1316 C1319 1.386 . S
H1317 C1333 0.930 . S
H1318 C1334 0.931 . S
C1319 H1307 0.929 . S
C1319 C1313 1.390 . S
C1319 C1316 1.386 . S
C1320 C1315 1.490 . S
C1320 C1322 1.395 1_565 S
C1320 C1323 1.403 1_554 S
H1321 C1327 0.928 1_565 S
C1322 H1308 0.930 . S
C1322 C1320 1.395 1_545 S
C1322 C1325 1.403 . S
C1323 C1320 1.403 1_556 S
C1323 C1324 1.524 . S
C1323 C1327 1.393 1_565 S
C1324 H1309 0.960 . S
C1324 H1310 0.960 . S
C1324 H1311 0.960 . S
C1324 C1323 1.524 . S
C1325 C1322 1.403 . S
C1325 C1326 1.392 1_554 S
C1325 C1329 1.495 . S
C1326 C1325 1.392 1_556 S
C1326 C1327 1.393 . S
C1326 C1328 1.478 . S
C1327 H1321 0.928 1_545 S
C1327 C1323 1.393 1_545 S
C1327 C1326 1.393 . S
C1328 C1326 1.478 . S
C1328 C1330 1.381 . S
C1328 C1334 1.383 . S
C1329 C1325 1.495 . S
C1329 H1335 0.959 . S
C1329 H1336 0.961 . S
C1329 H1337 0.960 . S
C1330 C1328 1.381 . S
C1330 C1331 1.394 . S
C1330 H1338 0.930 . S
C1331 C1330 1.394 . S
C1331 C1332 1.383 . S
C1331 H1339 0.929 . S
C1332 C1331 1.383 . S
C1332 C1333 1.377 . S
C1333 H1317 0.930 . S
C1333 C1332 1.377 . S
C1333 C1334 1.379 . S
C1334 H1318 0.931 . S
C1334 C1328 1.383 . S
C1334 C1333 1.379 . S
H1335 C1329 0.959 . S
H1336 C1329 0.961 . S
H1337 C1329 0.960 . S
H1338 C1330 0.930 . S
H1339 C1331 0.929 . S
H1340 C1348 0.929 . S
H1341 C1350 0.930 . S
H1342 C1352 0.930 . S
H1343 C1355 0.929 . S
H1344 C1358 0.930 . S
H1345 C1360 0.960 . S
H1346 C1360 0.960 . S
H1347 C1360 0.960 . S
C1348 H1340 0.929 . S
C1348 C1349 1.377 . S
C1348 C1350 1.384 . S
C1349 C1348 1.377 . S
C1349 C1355 1.390 . S
C1350 H1341 0.930 . S
C1350 C1348 1.384 . S
C1350 C1351 1.372 . S
C1351 C1350 1.372 . S
C1351 C1352 1.400 . S
C1351 C1356 1.490 . S
C1352 H1342 0.930 . S
C1352 C1351 1.400 . S
C1352 C1355 1.386 . S
H1353 C1369 0.930 . S
H1354 C1370 0.931 . S
C1355 H1343 0.929 . S
C1355 C1349 1.390 . S
C1355 C1352 1.386 . S
C1356 C1351 1.490 . S
C1356 C1358 1.395 . S
C1356 C1359 1.403 . S
H1357 C1363 0.930 . S
C1358 H1344 0.930 . S
C1358 C1356 1.395 . S
C1358 C1361 1.403 . S
C1359 C1356 1.403 . S
C1359 C1360 1.524 . S
C1359 C1363 1.400 . S
C1360 H1345 0.960 . S
C1360 H1346 0.960 . S
C1360 H1347 0.960 . S
C1360 C1359 1.524 . S
C1361 C1358 1.403 . S
C1361 C1362 1.392 . S
C1361 C1365 1.495 . S
C1362 C1361 1.392 . S
C1362 C1363 1.385 . S
C1362 C1364 1.478 . S
C1363 H1357 0.930 . S
C1363 C1359 1.400 . S
C1363 C1362 1.385 . S
C1364 C1362 1.478 . S
C1364 C1366 1.381 . S
C1364 C1370 1.383 . S
C1365 C1361 1.495 . S
C1365 H1371 0.959 . S
C1365 H1372 0.961 . S
C1365 H1373 0.960 . S
C1366 C1364 1.381 . S
C1366 C1367 1.394 . S
C1366 H1374 0.930 . S
C1367 C1366 1.394 . S
C1367 C1368 1.383 . S
C1367 H1375 0.929 . S
C1368 C1367 1.383 . S
C1368 C1369 1.377 . S
C1369 H1353 0.930 . S
C1369 C1368 1.377 . S
C1369 C1370 1.379 . S
C1370 H1354 0.931 . S
C1370 C1364 1.383 . S
C1370 C1369 1.379 . S
H1371 C1365 0.959 . S
H1372 C1365 0.961 . S
H1373 C1365 0.960 . S
H1374 C1366 0.930 . S
H1375 C1367 0.929 . S
C233 C163 1.417 . S
C252 C8 1.435 . S
C269 C219 1.419 . S
C288 C23 1.394 . S
C305 C36 1.418 . S
C324 C134 1.396 . S
C341 C191 1.414 . S
C360 C50 1.427 . S
C377 C64 1.417 . S
C396 C190 1.435 . S
C413 C79 1.414 . S
C432 C162 1.433 . S
C449 C93 1.417 . S
C468 C218 1.398 . S
C485 C107 1.420 . S
C504 C135 1.426 . S
C521 C51 1.422 . S
C540 C120 1.398 . S
C557 C148 1.419 . S
C576 C22 1.431 . S
C593 C176 1.422 . S
C612 C78 1.407 . S
C629 C205 1.413 . S
C648 C106 1.423 . S
C665 C65 1.420 . S
C684 C121 1.428 . S
C701 C149 1.418 . S
C720 C92 1.396 . S
C737 C204 1.417 . S
C756 C37 1.434 . S
C773 C9 1.421 . S
C792 C177 1.394 . S
C809 C7 1.403 . S
C828 C63 1.410 . S
C845 C20 1.404 . S
C864 C76 1.399 . S
C881 C35 1.406 . S
C900 C90 1.390 . S
C917 C104 1.406 . S
C936 C49 1.390 . S
C953 C119 1.411 . S
C972 C175 1.423 . S
C989 C188 1.406 . S
C1008 C132 1.393 . S
C1025 C147 1.412 . S
C1044 C202 1.423 . S
C1061 C216 1.403 . S
C1080 C161 1.387 . S
C1097 C105 1.409 . S
C1116 C21 1.418 . S
C1133 C34 1.411 . S
C1152 C62 1.402 . S
C1169 C48 1.409 . S
C1188 C77 1.420 . S
C1205 C6 1.408 . S
C1224 C91 1.422 . S
C1241 C133 1.407 . S
C1260 C217 1.399 . S
C1277 C174 1.403 . S
C1296 C146 1.386 . S
C1313 C160 1.405 . S
C1332 C189 1.390 . S
C1349 C203 1.411 . S
C1368 C118 1.422 . S
