# Generated by pormake.
# Topology vby, (6)-cn, num edge types: 1
# Building blocks:
#     Node 0, Type 0, BuildingBlock: UKALOJ_clean_sbu_0, # of connection points: 6
#     Node 1, Type 0, BuildingBlock: UKALOJ_clean_sbu_0, # of connection points: 6
#     Node 2, Type 0, BuildingBlock: UKALOJ_clean_sbu_0, # of connection points: 6
#     Node 3, Type 0, BuildingBlock: UKALOJ_clean_sbu_0, # of connection points: 6
#     Node 4, Type 0, BuildingBlock: UKALOJ_clean_sbu_0, # of connection points: 6
#     Node 5, Type 0, BuildingBlock: UKALOJ_clean_sbu_0, # of connection points: 6
#     Node 6, Type 0, BuildingBlock: UKALOJ_clean_sbu_0, # of connection points: 6
#     Node 7, Type 0, BuildingBlock: UKALOJ_clean_sbu_0, # of connection points: 6
#     Edge 8, Type (0, 0), BuildingBlock: KIFKEQ_clean_linker_1, # of connection points: 2
#     Edge 9, Type (0, 0), BuildingBlock: KIFKEQ_clean_linker_1, # of connection points: 2
#     Edge 10, Type (0, 0), BuildingBlock: KIFKEQ_clean_linker_1, # of connection points: 2
#     Edge 11, Type (0, 0), BuildingBlock: KIFKEQ_clean_linker_1, # of connection points: 2
#     Edge 12, Type (0, 0), BuildingBlock: KIFKEQ_clean_linker_1, # of connection points: 2
#     Edge 13, Type (0, 0), BuildingBlock: KIFKEQ_clean_linker_1, # of connection points: 2
#     Edge 14, Type (0, 0), BuildingBlock: KIFKEQ_clean_linker_1, # of connection points: 2
#     Edge 15, Type (0, 0), BuildingBlock: KIFKEQ_clean_linker_1, # of connection points: 2
#     Edge 16, Type (0, 0), BuildingBlock: KIFKEQ_clean_linker_1, # of connection points: 2
#     Edge 17, Type (0, 0), BuildingBlock: KIFKEQ_clean_linker_1, # of connection points: 2
#     Edge 18, Type (0, 0), BuildingBlock: KIFKEQ_clean_linker_1, # of connection points: 2
#     Edge 19, Type (0, 0), BuildingBlock: KIFKEQ_clean_linker_1, # of connection points: 2
#     Edge 20, Type (0, 0), BuildingBlock: KIFKEQ_clean_linker_1, # of connection points: 2
#     Edge 21, Type (0, 0), BuildingBlock: KIFKEQ_clean_linker_1, # of connection points: 2
#     Edge 22, Type (0, 0), BuildingBlock: KIFKEQ_clean_linker_1, # of connection points: 2
#     Edge 23, Type (0, 0), BuildingBlock: KIFKEQ_clean_linker_1, # of connection points: 2
#     Edge 24, Type (0, 0), BuildingBlock: KIFKEQ_clean_linker_1, # of connection points: 2
#     Edge 25, Type (0, 0), BuildingBlock: KIFKEQ_clean_linker_1, # of connection points: 2
#     Edge 26, Type (0, 0), BuildingBlock: KIFKEQ_clean_linker_1, # of connection points: 2
#     Edge 27, Type (0, 0), BuildingBlock: KIFKEQ_clean_linker_1, # of connection points: 2
#     Edge 28, Type (0, 0), BuildingBlock: KIFKEQ_clean_linker_1, # of connection points: 2
#     Edge 29, Type (0, 0), BuildingBlock: KIFKEQ_clean_linker_1, # of connection points: 2
#     Edge 30, Type (0, 0), BuildingBlock: KIFKEQ_clean_linker_1, # of connection points: 2
#     Edge 31, Type (0, 0), BuildingBlock: KIFKEQ_clean_linker_1, # of connection points: 2
# Relax obj value: 0.068
# Max RMSD: 0.108
# Mean RMSD: 0.108
data_MOF--net-vby--node1-UKALOJ_clean_sbu_0--edge1-KIFKEQ_clean_linker_1
_symmetry_space_group_name_H-M    P1
_symmetry_Int_Tables_number       1
_symmetry_cell_setting            triclinic
loop_
_symmetry_equiv_pos_as_xyz
'x, y, z'
_cell_length_a     15.48329
_cell_length_b     58.960816
_cell_length_c     40.895053
_cell_angle_alpha  90.063627
_cell_angle_beta   90.113344
_cell_angle_gamma 89.908776
loop_
_atom_site_label
_atom_site_type_symbol
_atom_site_fract_x
_atom_site_fract_y
_atom_site_fract_z
_atom_type_partial_charge
Zn0 Zn 0.03669 0.37243 0.9993 0.0
O1 O 0.17103 0.37677 0.99665 0.0
C2 C 0.06359 0.32495 1.01412 0.0
Zn3 Zn 0.03826 0.3683 0.05349 0.0
C4 C 0.21303 0.37561 0.02337 0.0
O5 O 0.17303 0.37266 0.05016 0.0
C6 C 0.86164 0.36518 0.02897 0.0
O7 O 0.02388 0.40346 0.06327 0.0
O8 O 0.02037 0.40711 1.00991 0.0
N9 N 0.05146 0.36076 0.10208 0.0
C10 C 0.0172 0.36931 0.12981 0.0
C11 C 0.09562 0.34105 0.1433 0.0
N12 N 0.10037 0.34328 0.11061 0.0
N13 N 0.04423 0.35725 0.15596 0.0
C14 C 0.0424 0.37094 0.92215 0.0
C15 C 0.95415 0.39778 0.91185 0.0
N16 N 0.01809 0.38 0.95103 0.0
N17 N 0.96346 0.39666 0.94444 0.0
N18 N 0.00245 0.38176 0.89706 0.0
H19 H 0.15354 0.35274 0.93989 0.0
H20 H 0.14455 0.35413 0.89576 0.0
H21 H 0.07449 0.33577 0.91896 0.0
C22 C 0.10798 0.35239 0.91893 0.0
C23 C 0.95421 0.38859 0.13102 0.0
H24 H -0.00946 0.40475 0.13294 0.0
H25 H 0.91137 0.38713 0.15263 0.0
H26 H 0.91459 0.38912 0.10844 0.0
O27 O 0.90253 0.36398 0.0559 0.0
O28 O 0.90314 0.368 1.0026 0.0
C29 C 0.01694 0.416 0.03816 0.0
O30 O 0.0549 0.3378 0.98941 0.0
O31 O 0.05552 0.33325 0.04268 0.0
Zn32 Zn 0.94784 0.63338 0.05312 0.0
O33 O 0.96932 0.59867 0.0613 0.0
C34 C 0.12417 0.63804 0.02677 0.0
Zn35 Zn 0.94895 0.63052 0.99872 0.0
C36 C 0.97461 0.58629 0.03596 0.0
O37 O 0.96797 0.59532 1.00782 0.0
C38 C 0.91445 0.67723 1.01644 0.0
O39 O 0.81455 0.62585 0.99783 0.0
O40 O 0.81313 0.62795 0.05166 0.0
N41 N 0.96205 0.62414 0.94968 0.0
C42 C 0.9351 0.63433 0.92192 0.0
C43 C 0.02681 0.609 0.90834 0.0
N44 N 0.01846 0.60833 0.94104 0.0
N45 N 0.97531 0.62517 0.89573 0.0
C46 C 0.92319 0.62844 0.12907 0.0
C47 C 0.96117 0.66141 0.14491 0.0
N48 N 0.94403 0.64043 0.10214 0.0
N49 N 0.96734 0.6609 0.11212 0.0
N50 N 0.93371 0.64124 0.15624 0.0
H51 H 0.84941 0.60199 0.10598 0.0
H52 H 0.84746 0.60154 0.15026 0.0
H53 H 0.94282 0.59262 0.12854 0.0
C54 C 0.88814 0.6048 0.12846 0.0
C55 C 0.87543 0.65431 0.92082 0.0
H56 H 0.82845 0.65349 0.94123 0.0
H57 H 0.84037 0.65503 0.89718 0.0
H58 H 0.91393 0.67007 0.92337 0.0
O59 O 0.9277 0.66566 0.9907 0.0
O60 O 0.92344 0.66786 0.04418 0.0
C61 C 0.77285 0.62587 0.02464 0.0
O62 O 0.0834 0.6388 0.05368 0.0
O63 O 0.08258 0.63526 1.00034 0.0
Zn64 Zn 0.03011 0.62912 0.49761 0.0
O65 O 0.01589 0.59395 0.49304 0.0
C66 C 0.85383 0.6342 0.52106 0.0
Zn67 Zn 0.02896 0.62784 0.55209 0.0
C68 C 0.00757 0.58236 0.51895 0.0
O69 O 0.00961 0.59229 0.54656 0.0
C70 C 0.0591 0.67434 0.5299 0.0
O71 O 0.1644 0.62271 0.55553 0.0
O72 O 0.16379 0.62512 0.50188 0.0
N73 N 0.01033 0.62414 0.60132 0.0
C74 C 0.0394 0.63451 0.62864 0.0
C75 C 0.93976 0.61167 0.64306 0.0
N76 N 0.94887 0.6099 0.61048 0.0
N77 N -0.00439 0.62702 0.65506 0.0
C78 C -0.00465 0.62578 0.4223 0.0
C79 C 0.10954 0.64094 0.40326 0.0
N80 N 0.04425 0.63219 0.44804 0.0
N81 N 0.11506 0.64161 0.4361 0.0
N82 N 0.03495 0.63114 0.39392 0.0
H83 H 0.90918 0.6031 0.44772 0.0
H84 H 0.90194 0.6019 0.40364 0.0
H85 H 0.85782 0.62571 0.4256 0.0
C86 C 0.91154 0.61325 0.425 0.0
C87 C 0.10491 0.65313 0.62894 0.0
H88 H 0.14993 0.65129 0.60804 0.0
H89 H 0.14165 0.65316 0.65225 0.0
H90 H 0.07103 0.66965 0.6267 0.0
O91 O 0.05044 0.66327 0.55638 0.0
O92 O 0.04829 0.66429 0.50267 0.0
C93 C 0.20528 0.62311 0.52854 0.0
O94 O 0.89537 0.63322 0.49435 0.0
O95 O 0.89449 0.63311 0.54798 0.0
Zn96 Zn 0.93649 0.36793 0.55329 0.0
O97 O 0.80219 0.37272 0.55616 0.0
C98 C 0.90695 0.32084 0.53604 0.0
Zn99 Zn 0.93481 0.36472 0.49899 0.0
C100 C 0.76009 0.37205 0.52942 0.0
O101 O 0.80003 0.36941 0.50253 0.0
C102 C 0.1115 0.36064 0.52326 0.0
O103 O 0.95052 0.4 0.49129 0.0
O104 O 0.95453 0.40276 0.54482 0.0
N105 N 0.92127 0.35844 0.45003 0.0
C106 C 0.95624 0.36738 0.42273 0.0
C107 C 0.87621 0.33981 0.40789 0.0
N108 N 0.87133 0.3414 0.44065 0.0
N109 N 0.92868 0.35599 0.39603 0.0
C110 C 0.92415 0.36507 0.63009 0.0
C111 C 0.02717 0.38742 0.64282 0.0
N112 N 0.95531 0.3738 0.602 0.0
N113 N 0.01891 0.38774 0.6101 0.0
N114 N 0.96874 0.37327 0.65589 0.0
H115 H 0.81358 0.3478 0.60991 0.0
H116 H 0.8149 0.35013 0.65419 0.0
H117 H 0.88571 0.33049 0.63401 0.0
C118 C 0.85498 0.34745 0.63205 0.0
C119 C 0.02022 0.3864 0.42244 0.0
H120 H 0.05947 0.38637 0.44512 0.0
H121 H -0.01529 0.40273 0.42109 0.0
H122 H 0.06329 0.38514 0.40086 0.0
O123 O 0.07059 0.36004 0.4963 0.0
O124 O 0.06995 0.36306 0.54972 0.0
C125 C 0.95806 0.41209 0.51688 0.0
O126 O 0.91648 0.33322 0.5612 0.0
O127 O 0.91597 0.32953 0.50781 0.0
Zn128 Zn 0.54627 0.87068 0.9934 0.0
O129 O 0.68152 0.87577 0.99036 0.0
C130 C 0.58021 0.8243 1.01355 0.0
Zn131 Zn 0.54688 0.86889 0.04808 0.0
C132 C 0.72211 0.87593 1.01749 0.0
O133 O 0.68042 0.87422 0.04412 0.0
C134 C 0.37111 0.86323 0.02407 0.0
O135 O 0.52626 0.90372 0.05457 0.0
O136 O 0.52755 0.90608 1.00098 0.0
N137 N 0.5626 0.8642 0.09756 0.0
C138 C 0.52134 0.87163 0.12465 0.0
C139 C 0.62231 0.84956 0.14029 0.0
N140 N 0.62549 0.85062 0.10748 0.0
N141 N 0.55772 0.86262 0.15192 0.0
C142 C 0.54972 0.8649 0.91631 0.0
C143 C 0.45801 0.8904 0.90335 0.0
N144 N 0.52709 0.87574 0.94415 0.0
N145 N 0.47057 0.89162 0.93584 0.0
N146 N 0.50678 0.87377 0.89048 0.0
H147 H 0.65875 0.84599 0.93415 0.0
H148 H 0.63912 0.8433 0.89051 0.0
H149 H 0.56987 0.82918 0.91926 0.0
C150 C 0.60836 0.84474 0.9149 0.0
C151 C 0.44409 0.88697 0.12405 0.0
H152 H 0.41427 0.88762 0.09951 0.0
H153 H 0.46468 0.90443 0.13045 0.0
H154 H 0.39552 0.88131 0.1422 0.0
O155 O 0.41297 0.86333 0.05081 0.0
O156 O 0.41141 0.86543 0.99725 0.0
C157 C 0.52107 0.91562 0.0288 0.0
O158 O 0.56806 0.8354 0.9873 0.0
O159 O 0.57033 0.83415 0.04096 0.0
Zn160 Zn 0.40556 0.13204 0.05022 0.0
O161 O 0.42394 0.09676 0.05737 0.0
C162 C 0.58097 0.13547 0.02662 0.0
Zn163 Zn 0.40478 0.1289 0.99579 0.0
C164 C 0.42385 0.08449 0.03183 0.0
O165 O 0.41581 0.09379 1.00402 0.0
C166 C 0.37918 0.17618 1.01376 0.0
O167 O 0.27069 0.12559 0.99182 0.0
O168 O 0.27064 0.12689 0.04561 0.0
N169 N 0.42541 0.12258 0.94716 0.0
C170 C 0.40284 0.1319 0.9182 0.0
C171 C 0.49017 0.10481 0.90818 0.0
N172 N 0.47957 0.1058 0.94068 0.0
N173 N 0.44319 0.12102 0.89322 0.0
C174 C 0.43834 0.13181 0.126 0.0
C175 C 0.31942 0.14534 0.14361 0.0
N176 N 0.38915 0.13672 0.09963 0.0
N177 N 0.31542 0.14514 0.11071 0.0
N178 N 0.39595 0.1371 0.15386 0.0
H179 H 0.52961 0.10928 0.1029 0.0
H180 H 0.53821 0.11072 0.14696 0.0
H181 H 0.57555 0.1339 0.12211 0.0
C182 C 0.52522 0.12063 0.12443 0.0
C183 C 0.33887 0.1508 0.91481 0.0
H184 H 0.29353 0.15085 0.93578 0.0
H185 H 0.30207 0.14915 0.89162 0.0
H186 H 0.37382 0.16721 0.91469 0.0
O187 O 0.39041 0.16395 0.98847 0.0
O188 O 0.3849 0.16724 0.04204 0.0
C189 C 0.22962 0.12535 0.01872 0.0
O190 O 0.54051 0.13719 0.05351 0.0
O191 O 0.53895 0.13227 1.00037 0.0
Zn192 Zn 0.53314 0.13332 0.49551 0.0
O193 O 0.51333 0.09807 0.48802 0.0
C194 C 0.35748 0.13725 0.5196 0.0
Zn195 Zn 0.53345 0.1299 0.54989 0.0
C196 C 0.51242 0.0857 0.51348 0.0
O197 O 0.52035 0.09486 0.54146 0.0
C198 C 0.56186 0.17713 0.53246 0.0
O199 O 0.66763 0.1261 0.5533 0.0
O200 O 0.668 0.12777 0.49952 0.0
N201 N 0.51419 0.12417 0.59874 0.0
C202 C 0.54149 0.13383 0.62686 0.0
C203 C 0.44293 0.11013 0.6393 0.0
N204 N 0.45336 0.10939 0.60668 0.0
N205 N 0.49719 0.12538 0.6525 0.0
C206 C 0.50926 0.13118 0.41893 0.0
C207 C 0.6073 0.15425 0.404 0.0
N208 N 0.54877 0.13885 0.44628 0.0
N209 N 0.60974 0.15309 0.43682 0.0
N210 N 0.54505 0.14063 0.39193 0.0
H211 H 0.40134 0.11514 0.4431 0.0
H212 H 0.45733 0.0978 0.41417 0.0
H213 H 0.38672 0.12001 0.39979 0.0
C214 C 0.4339 0.11526 0.41907 0.0
C215 C 0.6067 0.15245 0.62897 0.0
H216 H 0.6448 0.15096 0.65188 0.0
H217 H 0.57236 0.16897 0.62946 0.0
H218 H 0.65048 0.15205 0.60755 0.0
O219 O 0.54962 0.16482 0.55749 0.0
O220 O 0.55541 0.1684 0.50409 0.0
C221 C 0.70886 0.12598 0.52643 0.0
O222 O 0.39805 0.13899 0.49274 0.0
O223 O 0.3994 0.13379 0.5458 0.0
Zn224 Zn 0.4018 0.87114 0.54792 0.0
O225 O 0.26756 0.87496 0.55127 0.0
C226 C 0.37021 0.82471 0.52741 0.0
Zn227 Zn 0.40106 0.86959 0.49331 0.0
C228 C 0.22595 0.87632 0.52448 0.0
O229 O 0.26646 0.87564 0.49744 0.0
C230 C 0.57714 0.86434 0.51753 0.0
O231 O 0.42312 0.90446 0.48723 0.0
O232 O 0.41572 0.90672 0.54075 0.0
N233 N 0.38517 0.86513 0.44379 0.0
C234 C 0.42735 0.87224 0.41677 0.0
C235 C 0.3245 0.8509 0.40096 0.0
N236 N 0.32112 0.852 0.43376 0.0
N237 N 0.3904 0.86347 0.38944 0.0
C238 C 0.39925 0.86505 0.62492 0.0
C239 C 0.48886 0.89095 0.63813 0.0
N240 N 0.42083 0.87611 0.5972 0.0
N241 N 0.47604 0.89224 0.60566 0.0
N242 N 0.44156 0.87402 0.65083 0.0
H243 H 0.29224 0.84555 0.60675 0.0
H244 H 0.31124 0.84302 0.65044 0.0
H245 H 0.38228 0.82923 0.62189 0.0
C246 C 0.34235 0.8446 0.62613 0.0
C247 C 0.50598 0.88702 0.41749 0.0
H248 H 0.48707 0.90461 0.41101 0.0
H249 H 0.55424 0.88096 0.39944 0.0
H250 H 0.53553 0.88754 0.44208 0.0
O251 O 0.53609 0.86334 0.49062 0.0
O252 O 0.53568 0.86722 0.54393 0.0
C253 C 0.42447 0.91635 0.51313 0.0
O254 O 0.38495 0.83565 0.55365 0.0
O255 O 0.37616 0.83483 0.50007 0.0
H256 H 0.32012 0.38529 0.07434 0.0
H257 H 0.31974 0.36525 0.97272 0.0
H258 H 0.47699 0.38234 0.07568 0.0
H259 H 0.47601 0.36114 0.97436 0.0
H260 H 0.76008 0.37817 0.97826 0.0
H261 H 0.60447 0.38167 0.97699 0.0
H262 H 0.59087 0.35561 0.07569 0.0
H263 H 0.74837 0.35323 0.0775 0.0
C264 C 0.35379 0.38027 0.05228 0.0
C265 C 0.30804 0.37566 0.02336 0.0
C266 C 0.44357 0.37831 0.05314 0.0
C267 C 0.48934 0.37134 0.02521 0.0
C268 C 0.44321 0.36692 0.9962 0.0
C269 C 0.35358 0.36925 0.99521 0.0
C270 C 0.72401 0.37302 0.99967 0.0
C271 C 0.76646 0.36537 0.028 0.0
C272 C 0.63446 0.37494 0.99887 0.0
C273 C 0.58479 0.3689 0.02619 0.0
C274 C 0.62719 0.36079 0.05438 0.0
C275 C 0.7173 0.35921 0.05536 0.0
H276 H 0.23654 0.64971 0.07588 0.0
H277 H 0.22679 0.62541 0.97621 0.0
H278 H 0.39389 0.64672 0.07509 0.0
H279 H 0.38231 0.6213 0.97591 0.0
H280 H 0.66764 0.63665 0.9737 0.0
H281 H 0.51185 0.64123 0.97449 0.0
H282 H 0.50678 0.61965 0.07555 0.0
H283 H 0.66375 0.61622 0.0751 0.0
C284 C 0.26803 0.64378 0.05384 0.0
C285 C 0.21941 0.63794 0.02608 0.0
C286 C 0.35806 0.64182 0.05346 0.0
C287 C 0.40101 0.63366 0.02547 0.0
C288 C 0.35194 0.62804 0.99769 0.0
C289 C 0.26244 0.63033 0.9979 0.0
C290 C 0.63314 0.63264 0.99598 0.0
C291 C 0.67772 0.62598 0.0243 0.0
C292 C 0.54364 0.63524 0.99646 0.0
C293 C 0.49642 0.63085 0.02511 0.0
C294 C 0.54109 0.62363 0.05324 0.0
C295 C 0.63091 0.6214 0.05291 0.0
H296 H 0.74755 0.64652 0.57106 0.0
H297 H 0.74583 0.62131 0.47186 0.0
H298 H 0.59073 0.64346 0.57308 0.0
H299 H 0.58986 0.61718 0.47427 0.0
H300 H 0.30584 0.63389 0.47669 0.0
H301 H 0.46108 0.63773 0.475 0.0
H302 H 0.47731 0.61657 0.57607 0.0
H303 H 0.31986 0.61381 0.57819 0.0
C304 C 0.71348 0.64038 0.54966 0.0
C305 C 0.75871 0.63432 0.5212 0.0
C306 C 0.62374 0.63836 0.55093 0.0
C307 C 0.57746 0.62993 0.52393 0.0
C308 C 0.62302 0.6241 0.49536 0.0
C309 C 0.71255 0.62646 0.49392 0.0
C310 C 0.34232 0.62986 0.49857 0.0
C311 C 0.30053 0.62344 0.52759 0.0
C312 C 0.43173 0.63199 0.49753 0.0
C313 C 0.48207 0.62741 0.52534 0.0
C314 C 0.44042 0.62059 0.55432 0.0
C315 C 0.35036 0.61878 0.55549 0.0
H316 H 0.65378 0.36045 0.57955 0.0
H317 H 0.65248 0.38279 0.47901 0.0
H318 H 0.49776 0.35599 0.57769 0.0
H319 H 0.49571 0.37952 0.4775 0.0
H320 H 0.22527 0.35011 0.47407 0.0
H321 H 0.3827 0.35275 0.476 0.0
H322 H 0.3682 0.37596 0.57623 0.0
H323 H 0.21283 0.37217 0.57478 0.0
C324 C 0.61975 0.36491 0.55728 0.0
C325 C 0.66502 0.37205 0.52948 0.0
C326 C 0.53022 0.36236 0.55616 0.0
C327 C 0.48382 0.36732 0.52738 0.0
C328 C 0.5293 0.37505 0.49984 0.0
C329 C 0.61903 0.37721 0.5008 0.0
C330 C 0.25614 0.35549 0.49656 0.0
C331 C 0.20675 0.36078 0.52428 0.0
C332 C 0.34623 0.35724 0.49762 0.0
C333 C 0.38841 0.36465 0.52627 0.0
C334 C 0.3385 0.36977 0.55396 0.0
C335 C 0.24902 0.36769 0.55305 0.0
H336 H 0.83662 0.88612 0.96843 0.0
H337 H 0.82278 0.86396 0.06897 0.0
H338 H -0.00608 0.88283 0.97041 0.0
H339 H 0.97792 0.85947 0.07046 0.0
H340 H 0.26388 0.8742 0.07435 0.0
H341 H 0.10804 0.87878 0.07237 0.0
H342 H 0.10691 0.85608 0.97172 0.0
H343 H 0.26373 0.85275 0.97333 0.0
C344 C 0.86718 0.88058 0.99091 0.0
C345 C 0.81741 0.87551 0.01858 0.0
C346 C 0.95721 0.87844 0.99199 0.0
C347 C -0.001 0.87082 0.02061 0.0
C348 C 0.94866 0.86585 0.04822 0.0
C349 C 0.85927 0.86835 0.04731 0.0
C350 C 0.23019 0.86995 0.05193 0.0
C351 C 0.27589 0.86307 0.02403 0.0
C352 C 0.14063 0.87254 0.05075 0.0
C353 C 0.09445 0.86789 0.02181 0.0
C354 C 0.14027 0.86033 0.99419 0.0
C355 C 0.23007 0.85813 0.99522 0.0
H356 H 0.1241 0.11453 0.06955 0.0
H357 H 0.12106 0.13697 0.96902 0.0
H358 H 0.96729 0.11749 0.07157 0.0
H359 H 0.96484 0.141 0.9714 0.0
H360 H 0.68142 0.12327 0.97528 0.0
H361 H 0.83699 0.11995 0.9735 0.0
H362 H 0.85308 0.14438 0.0731 0.0
H363 H 0.69556 0.14667 0.07536 0.0
C364 C 0.08974 0.12007 0.04787 0.0
C365 C 0.13455 0.12536 0.01905 0.0
C366 C -1e-05 0.12203 0.04914 0.0
C367 C 0.9533 0.12962 0.02174 0.0
C368 C -0.00157 0.13474 0.99282 0.0
C369 C 0.08803 0.13245 0.99142 0.0
C370 C 0.71796 0.1281 0.9968 0.0
C371 C 0.67617 0.13529 0.02549 0.0
C372 C 0.8075 0.12629 0.9957 0.0
C373 C 0.85785 0.13194 0.0231 0.0
C374 C 0.81617 0.13953 0.05169 0.0
C375 C 0.72605 0.14106 0.05294 0.0
H376 H 0.24296 0.14823 0.47069 0.0
H377 H 0.25675 0.12533 0.57095 0.0
H378 H 0.0855 0.14565 0.47269 0.0
H379 H 0.10136 0.12167 0.57245 0.0
H380 H 0.81639 0.13769 0.57635 0.0
H381 H 0.97234 0.14212 0.57426 0.0
H382 H 0.97228 0.11866 0.47399 0.0
H383 H 0.81553 0.11533 0.47572 0.0
C384 C 0.21241 0.14269 0.49311 0.0
C385 C 0.26221 0.13713 0.52067 0.0
C386 C 0.12232 0.14098 0.49419 0.0
C387 C 0.08055 0.13339 0.52274 0.0
C388 C 0.13082 0.12799 0.55027 0.0
C389 C 0.22031 0.13 0.54933 0.0
C390 C 0.84988 0.13325 0.554 0.0
C391 C 0.80398 0.12607 0.52625 0.0
C392 C 0.93938 0.13577 0.55276 0.0
C393 C -0.01485 0.1308 0.5239 0.0
C394 C 0.93911 0.1231 0.49639 0.0
C395 C 0.8494 0.12092 0.49749 0.0
H396 H 0.69098 0.85514 0.46773 0.0
H397 H 0.67881 0.87439 0.56965 0.0
H398 H 0.84843 0.85793 0.4697 0.0
H399 H 0.83408 0.87829 0.5712 0.0
H400 H 0.11946 0.86287 0.57359 0.0
H401 H 0.9637 0.85821 0.57132 0.0
H402 H 0.96127 0.88496 0.47286 0.0
H403 H 0.11801 0.88853 0.47468 0.0
C404 C 0.72187 0.8599 0.49051 0.0
C405 C 0.67249 0.8644 0.51853 0.0
C406 C 0.81197 0.86175 0.4916 0.0
C407 C 0.85419 0.86841 0.52061 0.0
C408 C 0.80434 0.8727 0.5486 0.0
C409 C 0.71488 0.87055 0.54765 0.0
C410 C 0.0855 0.868 0.55161 0.0
C411 C 0.13077 0.87617 0.52438 0.0
C412 C -0.00395 0.86534 0.55027 0.0
C413 C 0.94959 0.87116 0.52185 0.0
C414 C -0.00504 0.87986 0.49489 0.0
C415 C 0.08467 0.88218 0.49606 0.0
H416 H 0.02993 0.55725 0.98886 0.0
H417 H 0.9453 0.5594 0.08941 0.0
H418 H 0.04142 0.51624 0.99188 0.0
H419 H 0.95371 0.51804 0.09216 0.0
H420 H 0.05466 0.44361 0.09047 0.0
H421 H 0.04809 0.48515 0.09184 0.0
H422 H 0.9443 0.48529 0.99362 0.0
H423 H 0.95395 0.44431 0.99187 0.0
C424 C 0.0135 0.54893 1.01162 0.0
C425 C -0.01391 0.56152 0.03882 0.0
C426 C 0.01954 0.52538 1.01332 0.0
C427 C -0.00299 0.51379 0.0421 0.0
C428 C 0.97196 0.52644 0.06968 0.0
C429 C 0.96687 0.55012 0.06808 0.0
C430 C 0.03013 0.45262 0.06932 0.0
C431 C 0.00602 0.44079 0.04091 0.0
C432 C 0.02613 0.47637 0.07011 0.0
C433 C -0.0028 0.48858 0.0426 0.0
C434 C 0.9695 0.47652 1.01486 0.0
C435 C 0.97444 0.45298 1.01394 0.0
H436 H 0.02046 0.43979 0.56421 0.0
H437 H 0.92211 0.44028 0.46528 0.0
H438 H 0.03289 0.48076 0.56317 0.0
H439 H 0.93109 0.48171 0.46463 0.0
H440 H 0.03641 0.55478 0.46632 0.0
H441 H 0.02691 0.51351 0.46432 0.0
H442 H 0.94206 0.51284 0.565 0.0
H443 H 0.95517 0.55388 0.56733 0.0
C444 C 0.00101 0.44872 0.54224 0.0
C445 C 0.96963 0.43687 0.51491 0.0
C446 C 0.00751 0.47225 0.54173 0.0
C447 C -0.01844 0.48461 0.51404 0.0
C448 C 0.95209 0.47272 0.48631 0.0
C449 C 0.94665 0.44902 0.48668 0.0
C450 C 0.01562 0.54577 0.48798 0.0
C451 C -0.00266 0.55752 0.51709 0.0
C452 C 0.00971 0.52213 0.48678 0.0
C453 C -0.01545 0.5098 0.51458 0.0
C454 C 0.9638 0.52171 0.54336 0.0
C455 C 0.97075 0.54527 0.54467 0.0
H456 H 0.54259 0.94661 0.98037 0.0
H457 H 0.47004 0.9405 0.08196 0.0
H458 H 0.5195 0.98729 0.98305 0.0
H459 H 0.44344 0.98133 0.08436 0.0
H460 H 0.48699 0.05908 0.08275 0.0
H461 H 0.51164 0.01806 0.08335 0.0
H462 H 0.4031 0.0131 0.9861 0.0
H463 H 0.38198 0.05383 0.98508 0.0
C464 C 0.52102 0.95396 1.00324 0.0
C465 C 0.50769 0.94036 0.0309 0.0
C466 C 0.50724 0.97729 1.00475 0.0
C467 C 0.47854 0.98757 0.03382 0.0
C468 C 0.46622 0.97399 0.06167 0.0
C469 C 0.48101 0.9506 0.06025 0.0
C470 C 0.46822 0.04912 0.06163 0.0
C471 C 0.43348 0.05965 0.03375 0.0
C472 C 0.48199 0.02565 0.06199 0.0
C473 C 0.46041 0.01232 0.03459 0.0
C474 C 0.42274 0.02288 1.00727 0.0
C475 C 0.41007 0.04625 1.00676 0.0
H476 H 0.45397 0.06041 0.4615 0.0
H477 H 0.54954 0.05483 0.56051 0.0
H478 H 0.43095 0.01934 0.46002 0.0
H479 H 0.53002 0.0141 0.55866 0.0
H480 H 0.39559 0.94704 0.56154 0.0
H481 H 0.41536 0.98782 0.55968 0.0
H482 H 0.50133 0.98277 0.4594 0.0
H483 H 0.47808 0.94179 0.46093 0.0
C484 C 0.47086 0.05039 0.48277 0.0
C485 C 0.50262 0.06084 0.51123 0.0
C486 C 0.45806 0.02688 0.4819 0.0
C487 C 0.47759 0.01343 0.50939 0.0
C488 C 0.51198 0.02395 0.53737 0.0
C489 C 0.52373 0.04734 0.53836 0.0
C490 C 0.41862 0.9546 0.53906 0.0
C491 C 0.43579 0.94119 0.51145 0.0
C492 C 0.43048 0.97801 0.53803 0.0
C493 C 0.46104 0.98859 0.50951 0.0
C494 C 0.47706 0.97521 0.48167 0.0
C495 C 0.46422 0.95172 0.4826 0.0
H496 H 0.06351 0.29105 0.05934 0.0
H497 H 0.14412 0.30665 0.96084 0.0
H498 H 0.14342 0.25552 0.05704 0.0
H499 H 0.22685 0.27149 0.95891 0.0
H500 H 0.30725 0.19589 0.95971 0.0
H501 H 0.22464 0.23105 0.95772 0.0
H502 H 0.29103 0.24439 0.05865 0.0
H503 H 0.3708 0.20884 0.06093 0.0
C504 C 0.09746 0.28674 0.03703 0.0
C505 C 0.09758 0.30167 1.01031 0.0
C506 C 0.14434 0.26652 0.03585 0.0
C507 C 0.1934 0.26087 1.00808 0.0
C508 C 0.18976 0.27525 0.98068 0.0
C509 C 0.14201 0.2954 0.98174 0.0
C510 C 0.3056 0.20655 0.98129 0.0
C511 C 0.3452 0.19952 1.01055 0.0
C512 C 0.25795 0.22671 0.98017 0.0
C513 C 0.24955 0.24035 1.00822 0.0
C514 C 0.29381 0.23396 0.03686 0.0
C515 C 0.34061 0.21372 0.03807 0.0
H516 H 0.66616 0.80433 0.06325 0.0
H517 H 0.59365 0.79397 0.96226 0.0
H518 H 0.75296 0.77055 0.06199 0.0
H519 H 0.67672 0.75851 0.96161 0.0
H520 H 0.89899 0.70627 0.96372 0.0
H521 H 0.816 0.74172 0.9617 0.0
H522 H 0.74405 0.73226 0.06296 0.0
H523 H 0.83076 0.69853 0.0655 0.0
C524 C 0.66652 0.7944 0.04094 0.0
C525 C 0.62173 0.8017 1.01297 0.0
C526 C 0.71654 0.77483 0.04023 0.0
C527 C 0.72139 0.76142 1.01184 0.0
C528 C 0.6754 0.76849 0.98384 0.0
C529 C 0.62671 0.7886 0.98431 0.0
C530 C 0.86689 0.7122 0.98564 0.0
C531 C 0.87298 0.69982 1.0149 0.0
C532 C 0.81824 0.73231 0.9844 0.0
C533 C 0.77347 0.7401 1.01224 0.0
C534 C 0.77949 0.72742 0.04125 0.0
C535 C 0.82945 0.70786 0.0427 0.0
H536 H 0.07327 0.70435 0.58137 0.0
H537 H 0.13448 0.69587 0.47906 0.0
H538 H 0.15024 0.7406 0.58163 0.0
H539 H 0.21542 0.73069 0.47976 0.0
H540 H 0.28435 0.80377 0.47834 0.0
H541 H 0.20309 0.76905 0.48037 0.0
H542 H 0.28685 0.75821 0.58015 0.0
H543 H 0.36429 0.7944 0.5787 0.0
C544 C 0.10257 0.71029 0.55894 0.0
C545 C 0.09646 0.69742 0.53009 0.0
C546 C 0.14784 0.73089 0.55916 0.0
C547 C 0.18924 0.73877 0.53068 0.0
C548 C 0.1827 0.72571 0.50198 0.0
C549 C 0.1361 0.70556 0.50158 0.0
C550 C 0.28667 0.79391 0.50067 0.0
C551 C 0.33178 0.80177 0.52827 0.0
C552 C 0.2399 0.77381 0.50182 0.0
C553 C 0.23859 0.7605 0.53033 0.0
C554 C 0.28522 0.76811 0.55788 0.0
C555 C 0.3307 0.78868 0.55696 0.0
H556 H 0.90025 0.2877 0.48952 0.0
H557 H 0.82429 0.3028 0.58878 0.0
H558 H 0.81271 0.25345 0.49063 0.0
H559 H 0.73388 0.26913 0.58949 0.0
H560 H 0.6364 0.19548 0.58688 0.0
H561 H 0.72653 0.22912 0.58954 0.0
H562 H 0.66372 0.24426 0.48882 0.0
H563 H 0.57645 0.21 0.48584 0.0
C564 C 0.86577 0.28352 0.51174 0.0
C565 C 0.86918 0.29796 0.53904 0.0
C566 C 0.81446 0.26408 0.51223 0.0
C567 C 0.76446 0.25878 0.53988 0.0
C568 C 0.7716 0.2726 0.56781 0.0
C569 C 0.82381 0.29191 0.56745 0.0
C570 C 0.64032 0.20622 0.5655 0.0
C571 C 0.59952 0.20001 0.5361 0.0
C572 C 0.69237 0.22553 0.567 0.0
C573 C 0.70395 0.2392 0.5392 0.0
C574 C 0.6585 0.23374 0.51042 0.0
C575 C 0.60734 0.21429 0.50882 0.0
H576 H 0.06033 0.39404 0.19501 0.0
H577 H 0.97745 0.32441 0.19295 0.0
H578 H 0.03662 0.39532 0.25435 0.0
H579 H 0.94913 0.32568 0.25146 0.0
H580 H -0.00245 0.32365 0.3585 0.0
H581 H 0.02665 0.32552 0.30008 0.0
H582 H 0.93704 0.39507 0.29864 0.0
H583 H 0.91265 0.39318 0.35792 0.0
C584 C 0.03519 0.37921 0.20732 0.0
C585 C 0.02069 0.35911 0.18977 0.0
C586 C 0.02152 0.37987 0.24121 0.0
C587 C -0.00769 0.36047 0.25798 0.0
C588 C 0.97431 0.34074 0.23977 0.0
C589 C -0.01055 0.34001 0.2062 0.0
C590 C -0.01465 0.33937 0.34559 0.0
C591 C 0.95321 0.35826 0.36239 0.0
C592 C 0.00091 0.34044 0.31207 0.0
C593 C -0.01757 0.36031 0.29429 0.0
C594 C 0.9525 0.37952 0.31145 0.0
C595 C 0.93843 0.37851 0.3453 0.0
H596 H 0.86518 0.66686 0.20381 0.0
H597 H -0.00678 0.60314 0.18565 0.0
H598 H 0.87759 0.66065 0.26265 0.0
H599 H 0.00401 0.59648 0.24455 0.0
H600 H 0.13274 0.61621 0.34431 0.0
H601 H 0.09361 0.61483 0.28649 0.0
H602 H 0.83622 0.63786 0.31033 0.0
H603 H 0.8768 0.63974 0.36817 0.0
C604 C 0.89377 0.65122 0.21254 0.0
C605 C 0.92736 0.63538 0.19027 0.0
C606 C 0.90052 0.64757 0.24618 0.0
C607 C 0.94198 0.62808 0.2583 0.0
C608 C 0.97215 0.61172 0.23596 0.0
C609 C 0.96495 0.61535 0.20225 0.0
C610 C 0.06749 0.62061 0.33712 0.0
C611 C 0.00755 0.62782 0.36064 0.0
C612 C 0.04473 0.61966 0.3041 0.0
C613 C 0.96162 0.62615 0.2938 0.0
C614 C 0.90079 0.63279 0.3175 0.0
C615 C 0.92358 0.63362 0.35062 0.0
H616 H 0.84233 0.62287 0.85343 0.0
H617 H 0.10965 0.6417 0.86235 0.0
H618 H 0.84989 0.62807 0.79418 0.0
H619 H 0.11776 0.64795 0.80331 0.0
H620 H 0.12856 0.62122 0.69658 0.0
H621 H 0.12336 0.62527 0.75605 0.0
H622 H 0.86363 0.65198 0.74852 0.0
H623 H 0.86899 0.64683 0.6892 0.0
C624 C 0.90183 0.62887 0.84261 0.0
C625 C 0.97518 0.63207 0.86212 0.0
C626 C 0.90653 0.63191 0.80871 0.0
C627 C -0.01522 0.63834 0.79372 0.0
C628 C 0.05695 0.64259 0.81377 0.0
C629 C 0.05231 0.63926 0.84755 0.0
C630 C 0.07167 0.62854 0.7078 0.0
C631 C -0.00047 0.63393 0.68864 0.0
C632 C 0.06828 0.63089 0.74185 0.0
C633 C -0.00739 0.63881 0.75733 0.0
C634 C 0.92227 0.6454 0.73766 0.0
C635 C 0.92548 0.64275 0.70372 0.0
H636 H 0.84239 0.38657 0.69633 0.0
H637 H 0.08328 0.3502 0.69203 0.0
H638 H 0.84847 0.3859 0.7564 0.0
H639 H 0.08931 0.34904 0.75207 0.0
H640 H 0.01355 0.34112 0.86473 0.0
H641 H -0.00023 0.33517 0.80564 0.0
H642 H 0.96716 0.4072 0.79182 0.0
H643 H -0.01472 0.4133 0.85037 0.0
C644 C 0.89483 0.37773 0.70842 0.0
C645 C 0.96191 0.36824 0.69001 0.0
C646 C 0.89885 0.37749 0.74258 0.0
C647 C 0.96966 0.36751 0.75873 0.0
C648 C 0.03384 0.35668 0.7402 0.0
C649 C 0.03043 0.35729 0.70604 0.0
C650 C 0.00663 0.35574 0.84905 0.0
C651 C 0.00269 0.37778 0.86225 0.0
C652 C -0.00277 0.35228 0.81529 0.0
C653 C -0.0187 0.37071 0.79437 0.0
C654 C 0.97799 0.39266 0.80751 0.0
C655 C -0.01104 0.39615 0.84096 0.0
H656 H 0.49445 0.8992 0.18588 0.0
H657 H 0.56917 0.82902 0.1959 0.0
H658 H 0.45138 0.90003 0.2432 0.0
H659 H 0.53292 0.83024 0.25352 0.0
H660 H 0.37647 0.82985 0.3455 0.0
H661 H 0.41324 0.83069 0.28793 0.0
H662 H 0.50094 0.8999 0.29825 0.0
H663 H 0.45742 0.8995 0.35554 0.0
C664 C 0.50046 0.88385 0.20008 0.0
C665 C 0.53243 0.86379 0.18589 0.0
C666 C 0.47759 0.88445 0.23326 0.0
C667 C 0.48753 0.86511 0.25313 0.0
C668 C 0.52192 0.84531 0.23899 0.0
C669 C 0.54364 0.84466 0.20592 0.0
C670 C 0.40349 0.84528 0.3355 0.0
C671 C 0.4162 0.86437 0.35552 0.0
C672 C 0.4255 0.84571 0.30245 0.0
C673 C 0.46172 0.86523 0.28832 0.0
C674 C 0.47329 0.88454 0.30819 0.0
C675 C 0.45013 0.88417 0.34135 0.0
H676 H 0.54644 0.15111 0.1806 0.0
H677 H 0.30376 0.11906 0.20293 0.0
H678 H 0.58553 0.15045 0.23875 0.0
H679 H 0.34247 0.11825 0.26111 0.0
H680 H 0.4909 0.10292 0.3585 0.0
H681 H 0.45623 0.10051 0.30025 0.0
H682 H 0.52339 0.17103 0.28859 0.0
H683 H 0.5543 0.17372 0.34696 0.0
C684 C 0.50241 0.14352 0.19794 0.0
C685 C 0.42261 0.13491 0.18742 0.0
C686 C 0.52423 0.14332 0.23117 0.0
C687 C 0.46696 0.1343 0.25443 0.0
C688 C 0.38815 0.12512 0.24372 0.0
C689 C 0.36585 0.12566 0.21056 0.0
C690 C 0.49571 0.11807 0.34382 0.0
C691 C 0.52288 0.13872 0.3577 0.0
C692 C 0.47701 0.1166 0.31033 0.0
C693 C 0.48723 0.13558 0.2899 0.0
C694 C 0.51574 0.15606 0.30365 0.0
C695 C 0.53309 0.15762 0.3371 0.0
H696 H 0.46008 0.08904 0.84713 0.0
H697 H 0.43326 0.16141 0.86003 0.0
H698 H 0.482 0.0945 0.78876 0.0
H699 H 0.45083 0.16671 0.80088 0.0
H700 H 0.37647 0.14851 0.68559 0.0
H701 H 0.36383 0.15109 0.74544 0.0
H702 H 0.60759 0.11617 0.75554 0.0
H703 H 0.62033 0.1141 0.69569 0.0
C704 C 0.45745 0.1061 0.83743 0.0
C705 C 0.44355 0.12472 0.85832 0.0
C706 C 0.47053 0.10922 0.80405 0.0
C707 C 0.46907 0.13102 0.79048 0.0
C708 C 0.45218 0.14971 0.81088 0.0
C709 C 0.44069 0.14662 0.84466 0.0
C710 C 0.42849 0.14218 0.70081 0.0
C711 C 0.49977 0.13134 0.68645 0.0
C712 C 0.42133 0.14362 0.73486 0.0
C713 C 0.48453 0.13373 0.75497 0.0
C714 C 0.558 0.1239 0.74049 0.0
C715 C 0.56574 0.12283 0.70645 0.0
H716 H 0.57931 0.85614 0.68098 0.0
H717 H 0.31603 0.87694 0.69598 0.0
H718 H 0.5974 0.8502 0.73979 0.0
H719 H 0.33374 0.87218 0.75502 0.0
H720 H 0.37079 0.8552 0.86014 0.0
H721 H 0.35327 0.84937 0.80126 0.0
H722 H 0.61473 0.87294 0.78628 0.0
H723 H 0.63198 0.87759 0.84537 0.0
C724 C 0.5249 0.85901 0.69707 0.0
C725 C 0.44609 0.86671 0.68425 0.0
C726 C 0.53532 0.85592 0.73076 0.0
C727 C 0.46748 0.86095 0.75249 0.0
C728 C 0.38726 0.86777 0.73925 0.0
C729 C 0.37671 0.87055 0.70545 0.0
C730 C 0.42491 0.85845 0.84408 0.0
C731 C 0.50295 0.86655 0.85698 0.0
C732 C 0.41478 0.85542 0.81036 0.0
C733 C 0.48211 0.86092 0.78868 0.0
C734 C 0.56166 0.86816 0.802 0.0
C735 C 0.57194 0.87087 0.83583 0.0
loop_
_geom_bond_atom_site_label_1
_geom_bond_atom_site_label_2
_geom_bond_distance
_geom_bond_site_symmetry_2
_ccdc_geom_bond_type
Zn0 O1 2.055 . S
Zn0 O8 2.046 . S
Zn0 N16 2.036 . S
Zn0 O28 2.053 1_455 S
Zn0 O30 2.066 . S
O1 Zn0 2.055 . S
O1 C4 1.259 1_556 S
C2 O30 1.281 . S
C2 O31 1.219 1_556 S
Zn3 O5 2.046 . S
Zn3 O7 2.055 . S
Zn3 N9 2.036 . S
Zn3 O27 2.066 1_455 S
Zn3 O31 2.053 . S
C4 O1 1.259 1_554 S
C4 O5 1.254 . S
O5 Zn3 2.046 . S
O5 C4 1.254 . S
C6 O27 1.256 . S
C6 O28 1.244 1_554 S
O7 Zn3 2.055 . S
O7 C29 1.259 . S
O8 Zn0 2.046 . S
O8 C29 1.254 1_556 S
N9 Zn3 2.036 . S
N9 C10 1.298 . S
N9 N12 1.398 . S
C10 N9 1.298 . S
C10 N13 1.367 . S
C10 C23 1.481 1_455 S
C11 N12 1.299 . S
C11 N13 1.379 . S
N12 N9 1.398 . S
N12 C11 1.299 . S
N13 C10 1.367 . S
N13 C11 1.379 . S
C14 N16 1.298 . S
C14 N18 1.367 . S
C14 C22 1.481 . S
C15 N17 1.299 . S
C15 N18 1.379 1_655 S
N16 Zn0 2.036 . S
N16 C14 1.298 . S
N16 N17 1.398 1_455 S
N17 C15 1.299 . S
N17 N16 1.398 1_655 S
N18 C14 1.367 . S
N18 C15 1.379 1_455 S
H19 C22 0.980 . S
H20 C22 0.981 . S
H21 C22 0.981 . S
C22 C14 1.481 . S
C22 H19 0.980 . S
C22 H20 0.981 . S
C22 H21 0.981 . S
C23 C10 1.481 1_655 S
C23 H24 0.980 1_655 S
C23 H25 0.981 . S
C23 H26 0.981 . S
H24 C23 0.980 1_455 S
H25 C23 0.981 . S
H26 C23 0.981 . S
O27 Zn3 2.066 1_655 S
O27 C6 1.256 . S
O28 Zn0 2.053 1_655 S
O28 C6 1.244 1_556 S
C29 O7 1.259 . S
C29 O8 1.254 1_554 S
O30 Zn0 2.066 . S
O30 C2 1.281 . S
O31 C2 1.219 1_554 S
O31 Zn3 2.053 . S
Zn32 O33 2.055 . S
Zn32 O40 2.046 . S
Zn32 N48 2.036 . S
Zn32 O60 2.053 . S
Zn32 O62 2.066 1_655 S
O33 Zn32 2.055 . S
O33 C36 1.259 . S
C34 O62 1.256 . S
C34 O63 1.244 1_554 S
Zn35 O37 2.046 . S
Zn35 O39 2.055 . S
Zn35 N41 2.036 . S
Zn35 O59 2.066 . S
Zn35 O63 2.053 1_655 S
C36 O33 1.259 . S
C36 O37 1.254 1_554 S
O37 Zn35 2.046 . S
O37 C36 1.254 1_556 S
C38 O59 1.281 . S
C38 O60 1.219 1_556 S
O39 Zn35 2.055 . S
O39 C61 1.259 1_556 S
O40 Zn32 2.046 . S
O40 C61 1.254 . S
N41 Zn35 2.036 . S
N41 C42 1.298 . S
N41 N44 1.398 1_655 S
C42 N41 1.298 . S
C42 N45 1.367 . S
C42 C55 1.481 . S
C43 N44 1.299 . S
C43 N45 1.379 1_455 S
N44 N41 1.398 1_455 S
N44 C43 1.299 . S
N45 C42 1.367 . S
N45 C43 1.379 1_655 S
C46 N48 1.298 . S
C46 N50 1.367 . S
C46 C54 1.481 1_655 S
C47 N49 1.299 . S
C47 N50 1.379 . S
N48 Zn32 2.036 . S
N48 C46 1.298 . S
N48 N49 1.398 . S
N49 C47 1.299 . S
N49 N48 1.398 . S
N50 C46 1.367 . S
N50 C47 1.379 . S
H51 C54 0.980 1_655 S
H52 C54 0.981 . S
H53 C54 0.981 . S
C54 C46 1.481 1_455 S
C54 H51 0.980 1_455 S
C54 H52 0.981 . S
C54 H53 0.981 . S
C55 C42 1.481 . S
C55 H56 0.980 . S
C55 H57 0.981 . S
C55 H58 0.981 . S
H56 C55 0.980 . S
H57 C55 0.981 . S
H58 C55 0.981 . S
O59 Zn35 2.066 . S
O59 C38 1.281 . S
O60 Zn32 2.053 . S
O60 C38 1.219 1_554 S
C61 O39 1.259 1_554 S
C61 O40 1.254 . S
O62 Zn32 2.066 1_455 S
O62 C34 1.256 . S
O63 C34 1.244 1_556 S
O63 Zn35 2.053 1_455 S
Zn64 O65 2.055 . S
Zn64 O72 2.046 . S
Zn64 N80 2.036 . S
Zn64 O92 2.053 . S
Zn64 O94 2.066 1_455 S
O65 Zn64 2.055 . S
O65 C68 1.259 . S
C66 O94 1.256 . S
C66 O95 1.244 . S
Zn67 O69 2.046 . S
Zn67 O71 2.055 . S
Zn67 N73 2.036 . S
Zn67 O91 2.066 . S
Zn67 O95 2.053 1_455 S
C68 O65 1.259 . S
C68 O69 1.254 . S
O69 Zn67 2.046 . S
O69 C68 1.254 . S
C70 O91 1.256 . S
C70 O92 1.244 . S
O71 Zn67 2.055 . S
O71 C93 1.259 . S
O72 Zn64 2.046 . S
O72 C93 1.254 . S
N73 Zn67 2.036 . S
N73 C74 1.298 . S
N73 N76 1.398 1_455 S
C74 N73 1.298 . S
C74 N77 1.367 . S
C74 C87 1.481 . S
C75 N76 1.299 . S
C75 N77 1.379 1_655 S
N76 N73 1.398 1_655 S
N76 C75 1.299 . S
N77 C74 1.367 . S
N77 C75 1.379 1_455 S
C78 N80 1.298 . S
C78 N82 1.367 . S
C78 C86 1.481 1_455 S
C79 N81 1.299 . S
C79 N82 1.379 . S
N80 Zn64 2.036 . S
N80 C78 1.298 . S
N80 N81 1.398 . S
N81 C79 1.299 . S
N81 N80 1.398 . S
N82 C78 1.367 . S
N82 C79 1.379 . S
H83 C86 0.980 1_455 S
H84 C86 0.981 . S
H85 C86 0.981 . S
C86 C78 1.481 1_655 S
C86 H83 0.980 1_655 S
C86 H84 0.981 . S
C86 H85 0.981 . S
C87 C74 1.481 . S
C87 H88 0.980 . S
C87 H89 0.981 . S
C87 H90 0.981 . S
H88 C87 0.980 . S
H89 C87 0.981 . S
H90 C87 0.981 . S
O91 Zn67 2.066 . S
O91 C70 1.256 . S
O92 Zn64 2.053 . S
O92 C70 1.244 . S
C93 O71 1.259 . S
C93 O72 1.254 . S
O94 Zn64 2.066 1_655 S
O94 C66 1.256 . S
O95 C66 1.244 . S
O95 Zn67 2.053 1_655 S
Zn96 O97 2.055 . S
Zn96 O104 2.046 . S
Zn96 N112 2.036 . S
Zn96 O124 2.053 1_655 S
Zn96 O126 2.066 . S
O97 Zn96 2.055 . S
O97 C100 1.259 . S
C98 O126 1.256 . S
C98 O127 1.244 . S
Zn99 O101 2.046 . S
Zn99 O103 2.055 . S
Zn99 N105 2.036 . S
Zn99 O123 2.066 1_655 S
Zn99 O127 2.053 . S
C100 O97 1.259 . S
C100 O101 1.254 . S
O101 Zn99 2.046 . S
O101 C100 1.254 . S
C102 O123 1.256 . S
C102 O124 1.244 . S
O103 Zn99 2.055 . S
O103 C125 1.259 . S
O104 Zn96 2.046 . S
O104 C125 1.254 . S
N105 Zn99 2.036 . S
N105 C106 1.298 . S
N105 N108 1.398 . S
C106 N105 1.298 . S
C106 N109 1.367 . S
C106 C119 1.481 1_655 S
C107 N108 1.299 . S
C107 N109 1.379 . S
N108 N105 1.398 . S
N108 C107 1.299 . S
N109 C106 1.367 . S
N109 C107 1.379 . S
C110 N112 1.298 . S
C110 N114 1.367 . S
C110 C118 1.481 . S
C111 N113 1.299 . S
C111 N114 1.379 1_455 S
N112 Zn96 2.036 . S
N112 C110 1.298 . S
N112 N113 1.398 1_655 S
N113 C111 1.299 . S
N113 N112 1.398 1_455 S
N114 C110 1.367 . S
N114 C111 1.379 1_655 S
H115 C118 0.980 . S
H116 C118 0.981 . S
H117 C118 0.981 . S
C118 C110 1.481 . S
C118 H115 0.980 . S
C118 H116 0.981 . S
C118 H117 0.981 . S
C119 C106 1.481 1_455 S
C119 H120 0.980 1_455 S
C119 H121 0.981 . S
C119 H122 0.981 . S
H120 C119 0.980 1_655 S
H121 C119 0.981 . S
H122 C119 0.981 . S
O123 Zn99 2.066 1_455 S
O123 C102 1.256 . S
O124 Zn96 2.053 1_455 S
O124 C102 1.244 . S
C125 O103 1.259 . S
C125 O104 1.254 . S
O126 Zn96 2.066 . S
O126 C98 1.256 . S
O127 C98 1.244 . S
O127 Zn99 2.053 . S
Zn128 O129 2.055 . S
Zn128 O136 2.046 . S
Zn128 N144 2.036 . S
Zn128 O156 2.053 . S
Zn128 O158 2.066 . S
O129 Zn128 2.055 . S
O129 C132 1.259 1_556 S
C130 O158 1.281 . S
C130 O159 1.219 1_556 S
Zn131 O133 2.046 . S
Zn131 O135 2.055 . S
Zn131 N137 2.036 . S
Zn131 O155 2.066 . S
Zn131 O159 2.053 . S
C132 O129 1.259 1_554 S
C132 O133 1.254 . S
O133 Zn131 2.046 . S
O133 C132 1.254 . S
C134 O155 1.256 . S
C134 O156 1.244 1_554 S
O135 Zn131 2.055 . S
O135 C157 1.259 . S
O136 Zn128 2.046 . S
O136 C157 1.254 1_556 S
N137 Zn131 2.036 . S
N137 C138 1.298 . S
N137 N140 1.398 . S
C138 N137 1.298 . S
C138 N141 1.367 . S
C138 C151 1.481 . S
C139 N140 1.299 . S
C139 N141 1.379 . S
N140 N137 1.398 . S
N140 C139 1.299 . S
N141 C138 1.367 . S
N141 C139 1.379 . S
C142 N144 1.298 . S
C142 N146 1.367 . S
C142 C150 1.481 . S
C143 N145 1.299 . S
C143 N146 1.379 . S
N144 Zn128 2.036 . S
N144 C142 1.298 . S
N144 N145 1.398 . S
N145 C143 1.299 . S
N145 N144 1.398 . S
N146 C142 1.367 . S
N146 C143 1.379 . S
H147 C150 0.980 . S
H148 C150 0.981 . S
H149 C150 0.981 . S
C150 C142 1.481 . S
C150 H147 0.980 . S
C150 H148 0.981 . S
C150 H149 0.981 . S
C151 C138 1.481 . S
C151 H152 0.980 . S
C151 H153 0.981 . S
C151 H154 0.981 . S
H152 C151 0.980 . S
H153 C151 0.981 . S
H154 C151 0.981 . S
O155 Zn131 2.066 . S
O155 C134 1.256 . S
O156 Zn128 2.053 . S
O156 C134 1.244 1_556 S
C157 O135 1.259 . S
C157 O136 1.254 1_554 S
O158 Zn128 2.066 . S
O158 C130 1.281 . S
O159 C130 1.219 1_554 S
O159 Zn131 2.053 . S
Zn160 O161 2.055 . S
Zn160 O168 2.046 . S
Zn160 N176 2.036 . S
Zn160 O188 2.053 . S
Zn160 O190 2.066 . S
O161 Zn160 2.055 . S
O161 C164 1.259 . S
C162 O190 1.256 . S
C162 O191 1.244 1_554 S
Zn163 O165 2.046 . S
Zn163 O167 2.055 . S
Zn163 N169 2.036 . S
Zn163 O187 2.066 . S
Zn163 O191 2.053 . S
C164 O161 1.259 . S
C164 O165 1.254 1_554 S
O165 Zn163 2.046 . S
O165 C164 1.254 1_556 S
C166 O187 1.281 . S
C166 O188 1.219 1_556 S
O167 Zn163 2.055 . S
O167 C189 1.259 1_556 S
O168 Zn160 2.046 . S
O168 C189 1.254 . S
N169 Zn163 2.036 . S
N169 C170 1.298 . S
N169 N172 1.398 . S
C170 N169 1.298 . S
C170 N173 1.367 . S
C170 C183 1.481 . S
C171 N172 1.299 . S
C171 N173 1.379 . S
N172 N169 1.398 . S
N172 C171 1.299 . S
N173 C170 1.367 . S
N173 C171 1.379 . S
C174 N176 1.298 . S
C174 N178 1.367 . S
C174 C182 1.481 . S
C175 N177 1.299 . S
C175 N178 1.379 . S
N176 Zn160 2.036 . S
N176 C174 1.298 . S
N176 N177 1.398 . S
N177 C175 1.299 . S
N177 N176 1.398 . S
N178 C174 1.367 . S
N178 C175 1.379 . S
H179 C182 0.980 . S
H180 C182 0.981 . S
H181 C182 0.981 . S
C182 C174 1.481 . S
C182 H179 0.980 . S
C182 H180 0.981 . S
C182 H181 0.981 . S
C183 C170 1.481 . S
C183 H184 0.980 . S
C183 H185 0.981 . S
C183 H186 0.981 . S
H184 C183 0.980 . S
H185 C183 0.981 . S
H186 C183 0.981 . S
O187 Zn163 2.066 . S
O187 C166 1.281 . S
O188 Zn160 2.053 . S
O188 C166 1.219 1_554 S
C189 O167 1.259 1_554 S
C189 O168 1.254 . S
O190 Zn160 2.066 . S
O190 C162 1.256 . S
O191 C162 1.244 1_556 S
O191 Zn163 2.053 . S
Zn192 O193 2.055 . S
Zn192 O200 2.046 . S
Zn192 N208 2.036 . S
Zn192 O220 2.053 . S
Zn192 O222 2.066 . S
O193 Zn192 2.055 . S
O193 C196 1.259 . S
C194 O222 1.256 . S
C194 O223 1.244 . S
Zn195 O197 2.046 . S
Zn195 O199 2.055 . S
Zn195 N201 2.036 . S
Zn195 O219 2.066 . S
Zn195 O223 2.053 . S
C196 O193 1.259 . S
C196 O197 1.254 . S
O197 Zn195 2.046 . S
O197 C196 1.254 . S
C198 O219 1.256 . S
C198 O220 1.244 . S
O199 Zn195 2.055 . S
O199 C221 1.259 . S
O200 Zn192 2.046 . S
O200 C221 1.254 . S
N201 Zn195 2.036 . S
N201 C202 1.298 . S
N201 N204 1.398 . S
C202 N201 1.298 . S
C202 N205 1.367 . S
C202 C215 1.481 . S
C203 N204 1.299 . S
C203 N205 1.379 . S
N204 N201 1.398 . S
N204 C203 1.299 . S
N205 C202 1.367 . S
N205 C203 1.379 . S
C206 N208 1.298 . S
C206 N210 1.367 . S
C206 C214 1.481 . S
C207 N209 1.299 . S
C207 N210 1.379 . S
N208 Zn192 2.036 . S
N208 C206 1.298 . S
N208 N209 1.398 . S
N209 C207 1.299 . S
N209 N208 1.398 . S
N210 C206 1.367 . S
N210 C207 1.379 . S
H211 C214 0.980 . S
H212 C214 0.981 . S
H213 C214 0.981 . S
C214 C206 1.481 . S
C214 H211 0.980 . S
C214 H212 0.981 . S
C214 H213 0.981 . S
C215 C202 1.481 . S
C215 H216 0.980 . S
C215 H217 0.981 . S
C215 H218 0.981 . S
H216 C215 0.980 . S
H217 C215 0.981 . S
H218 C215 0.981 . S
O219 Zn195 2.066 . S
O219 C198 1.256 . S
O220 Zn192 2.053 . S
O220 C198 1.244 . S
C221 O199 1.259 . S
C221 O200 1.254 . S
O222 Zn192 2.066 . S
O222 C194 1.256 . S
O223 C194 1.244 . S
O223 Zn195 2.053 . S
Zn224 O225 2.055 . S
Zn224 O232 2.046 . S
Zn224 N240 2.036 . S
Zn224 O252 2.053 . S
Zn224 O254 2.066 . S
O225 Zn224 2.055 . S
O225 C228 1.259 . S
C226 O254 1.256 . S
C226 O255 1.244 . S
Zn227 O229 2.046 . S
Zn227 O231 2.055 . S
Zn227 N233 2.036 . S
Zn227 O251 2.066 . S
Zn227 O255 2.053 . S
C228 O225 1.259 . S
C228 O229 1.254 . S
O229 Zn227 2.046 . S
O229 C228 1.254 . S
C230 O251 1.256 . S
C230 O252 1.244 . S
O231 Zn227 2.055 . S
O231 C253 1.259 . S
O232 Zn224 2.046 . S
O232 C253 1.254 . S
N233 Zn227 2.036 . S
N233 C234 1.298 . S
N233 N236 1.398 . S
C234 N233 1.298 . S
C234 N237 1.367 . S
C234 C247 1.481 . S
C235 N236 1.299 . S
C235 N237 1.379 . S
N236 N233 1.398 . S
N236 C235 1.299 . S
N237 C234 1.367 . S
N237 C235 1.379 . S
C238 N240 1.298 . S
C238 N242 1.367 . S
C238 C246 1.481 . S
C239 N241 1.299 . S
C239 N242 1.379 . S
N240 Zn224 2.036 . S
N240 C238 1.298 . S
N240 N241 1.398 . S
N241 C239 1.299 . S
N241 N240 1.398 . S
N242 C238 1.367 . S
N242 C239 1.379 . S
H243 C246 0.980 . S
H244 C246 0.981 . S
H245 C246 0.981 . S
C246 C238 1.481 . S
C246 H243 0.980 . S
C246 H244 0.981 . S
C246 H245 0.981 . S
C247 C234 1.481 . S
C247 H248 0.980 . S
C247 H249 0.981 . S
C247 H250 0.981 . S
H248 C247 0.980 . S
H249 C247 0.981 . S
H250 C247 0.981 . S
O251 Zn227 2.066 . S
O251 C230 1.256 . S
O252 Zn224 2.053 . S
O252 C230 1.244 . S
C253 O231 1.259 . S
C253 O232 1.254 . S
O254 Zn224 2.066 . S
O254 C226 1.256 . S
O255 C226 1.244 . S
O255 Zn227 2.053 . S
H256 C264 0.950 . S
H257 C269 0.950 . S
H258 C266 0.950 . S
H259 C268 0.950 . S
H260 C270 0.950 . S
H261 C272 0.950 . S
H262 C274 0.950 . S
H263 C275 0.950 . S
C264 H256 0.950 . S
C264 C265 1.386 . S
C264 C266 1.391 . S
C265 C264 1.386 . S
C265 C269 1.393 1_554 S
C266 H258 0.950 . S
C266 C264 1.391 . S
C266 C267 1.400 . S
C267 C266 1.400 . S
C267 C268 1.398 1_554 S
C267 C273 1.491 . S
C268 H259 0.950 . S
C268 C267 1.398 1_556 S
C268 C269 1.391 . S
C269 H257 0.950 . S
C269 C265 1.393 1_556 S
C269 C268 1.391 . S
C270 H260 0.950 . S
C270 C271 1.386 1_556 S
C270 C272 1.391 . S
C271 C270 1.386 1_554 S
C271 C275 1.393 . S
C272 H261 0.950 . S
C272 C270 1.391 . S
C272 C273 1.400 1_556 S
C273 C267 1.491 . S
C273 C272 1.400 1_554 S
C273 C274 1.398 . S
C274 H262 0.950 . S
C274 C273 1.398 . S
C274 C275 1.391 . S
C275 H263 0.950 . S
C275 C271 1.393 . S
C275 C274 1.391 . S
H276 C284 0.950 . S
H277 C289 0.950 . S
H278 C286 0.950 . S
H279 C288 0.950 . S
H280 C290 0.950 . S
H281 C292 0.950 . S
H282 C294 0.950 . S
H283 C295 0.950 . S
C284 H276 0.950 . S
C284 C285 1.386 . S
C284 C286 1.391 . S
C285 C284 1.386 . S
C285 C289 1.393 1_554 S
C286 H278 0.950 . S
C286 C284 1.391 . S
C286 C287 1.400 . S
C287 C286 1.400 . S
C287 C288 1.398 1_554 S
C287 C293 1.491 . S
C288 H279 0.950 . S
C288 C287 1.398 1_556 S
C288 C289 1.391 . S
C289 H277 0.950 . S
C289 C285 1.393 1_556 S
C289 C288 1.391 . S
C290 H280 0.950 . S
C290 C291 1.386 1_556 S
C290 C292 1.391 . S
C291 C290 1.386 1_554 S
C291 C295 1.393 . S
C292 H281 0.950 . S
C292 C290 1.391 . S
C292 C293 1.400 1_556 S
C293 C287 1.491 . S
C293 C292 1.400 1_554 S
C293 C294 1.398 . S
C294 H282 0.950 . S
C294 C293 1.398 . S
C294 C295 1.391 . S
C295 H283 0.950 . S
C295 C291 1.393 . S
C295 C294 1.391 . S
H296 C304 0.950 . S
H297 C309 0.950 . S
H298 C306 0.950 . S
H299 C308 0.950 . S
H300 C310 0.950 . S
H301 C312 0.950 . S
H302 C314 0.950 . S
H303 C315 0.950 . S
C304 H296 0.950 . S
C304 C305 1.386 . S
C304 C306 1.391 . S
C305 C304 1.386 . S
C305 C309 1.393 . S
C306 H298 0.950 . S
C306 C304 1.391 . S
C306 C307 1.400 . S
C307 C306 1.400 . S
C307 C308 1.398 . S
C307 C313 1.491 . S
C308 H299 0.950 . S
C308 C307 1.398 . S
C308 C309 1.391 . S
C309 H297 0.950 . S
C309 C305 1.393 . S
C309 C308 1.391 . S
C310 H300 0.950 . S
C310 C311 1.386 . S
C310 C312 1.391 . S
C311 C310 1.386 . S
C311 C315 1.393 . S
C312 H301 0.950 . S
C312 C310 1.391 . S
C312 C313 1.400 . S
C313 C307 1.491 . S
C313 C312 1.400 . S
C313 C314 1.398 . S
C314 H302 0.950 . S
C314 C313 1.398 . S
C314 C315 1.391 . S
C315 H303 0.950 . S
C315 C311 1.393 . S
C315 C314 1.391 . S
H316 C324 0.950 . S
H317 C329 0.950 . S
H318 C326 0.950 . S
H319 C328 0.950 . S
H320 C330 0.950 . S
H321 C332 0.950 . S
H322 C334 0.950 . S
H323 C335 0.950 . S
C324 H316 0.950 . S
C324 C325 1.386 . S
C324 C326 1.391 . S
C325 C324 1.386 . S
C325 C329 1.393 . S
C326 H318 0.950 . S
C326 C324 1.391 . S
C326 C327 1.400 . S
C327 C326 1.400 . S
C327 C328 1.398 . S
C327 C333 1.491 . S
C328 H319 0.950 . S
C328 C327 1.398 . S
C328 C329 1.391 . S
C329 H317 0.950 . S
C329 C325 1.393 . S
C329 C328 1.391 . S
C330 H320 0.950 . S
C330 C331 1.386 . S
C330 C332 1.391 . S
C331 C330 1.386 . S
C331 C335 1.393 . S
C332 H321 0.950 . S
C332 C330 1.391 . S
C332 C333 1.400 . S
C333 C327 1.491 . S
C333 C332 1.400 . S
C333 C334 1.398 . S
C334 H322 0.950 . S
C334 C333 1.398 . S
C334 C335 1.391 . S
C335 H323 0.950 . S
C335 C331 1.393 . S
C335 C334 1.391 . S
H336 C344 0.950 . S
H337 C349 0.950 . S
H338 C346 0.950 1_455 S
H339 C348 0.950 1_455 S
H340 C350 0.950 . S
H341 C352 0.950 . S
H342 C354 0.950 . S
H343 C355 0.950 . S
C344 H336 0.950 . S
C344 C345 1.386 1_556 S
C344 C346 1.391 . S
C345 C344 1.386 1_554 S
C345 C349 1.393 . S
C346 H338 0.950 1_655 S
C346 C344 1.391 . S
C346 C347 1.400 1_656 S
C347 C346 1.400 1_454 S
C347 C348 1.398 1_455 S
C347 C353 1.491 . S
C348 H339 0.950 1_655 S
C348 C347 1.398 1_655 S
C348 C349 1.391 . S
C349 H337 0.950 . S
C349 C345 1.393 . S
C349 C348 1.391 . S
C350 H340 0.950 . S
C350 C351 1.386 . S
C350 C352 1.391 . S
C351 C350 1.386 . S
C351 C355 1.393 1_554 S
C352 H341 0.950 . S
C352 C350 1.391 . S
C352 C353 1.400 . S
C353 C347 1.491 . S
C353 C352 1.400 . S
C353 C354 1.398 1_554 S
C354 H342 0.950 . S
C354 C353 1.398 1_556 S
C354 C355 1.391 . S
C355 H343 0.950 . S
C355 C351 1.393 1_556 S
C355 C354 1.391 . S
H356 C364 0.950 . S
H357 C369 0.950 . S
H358 C366 0.950 1_655 S
H359 C368 0.950 1_655 S
H360 C370 0.950 . S
H361 C372 0.950 . S
H362 C374 0.950 . S
H363 C375 0.950 . S
C364 H356 0.950 . S
C364 C365 1.386 . S
C364 C366 1.391 . S
C365 C364 1.386 . S
C365 C369 1.393 1_554 S
C366 H358 0.950 1_455 S
C366 C364 1.391 . S
C366 C367 1.400 1_455 S
C367 C366 1.400 1_655 S
C367 C368 1.398 1_654 S
C367 C373 1.491 . S
C368 H359 0.950 1_455 S
C368 C367 1.398 1_456 S
C368 C369 1.391 . S
C369 H357 0.950 . S
C369 C365 1.393 1_556 S
C369 C368 1.391 . S
C370 H360 0.950 . S
C370 C371 1.386 1_556 S
C370 C372 1.391 . S
C371 C370 1.386 1_554 S
C371 C375 1.393 . S
C372 H361 0.950 . S
C372 C370 1.391 . S
C372 C373 1.400 1_556 S
C373 C367 1.491 . S
C373 C372 1.400 1_554 S
C373 C374 1.398 . S
C374 H362 0.950 . S
C374 C373 1.398 . S
C374 C375 1.391 . S
C375 H363 0.950 . S
C375 C371 1.393 . S
C375 C374 1.391 . S
H376 C384 0.950 . S
H377 C389 0.950 . S
H378 C386 0.950 . S
H379 C388 0.950 . S
H380 C390 0.950 . S
H381 C392 0.950 1_455 S
H382 C394 0.950 1_455 S
H383 C395 0.950 . S
C384 H376 0.950 . S
C384 C385 1.386 . S
C384 C386 1.391 . S
C385 C384 1.386 . S
C385 C389 1.393 . S
C386 H378 0.950 . S
C386 C384 1.391 . S
C386 C387 1.400 . S
C387 C386 1.400 . S
C387 C388 1.398 . S
C387 C393 1.491 . S
C388 H379 0.950 . S
C388 C387 1.398 . S
C388 C389 1.391 . S
C389 H377 0.950 . S
C389 C385 1.393 . S
C389 C388 1.391 . S
C390 H380 0.950 . S
C390 C391 1.386 . S
C390 C392 1.391 . S
C391 C390 1.386 . S
C391 C395 1.393 . S
C392 H381 0.950 1_655 S
C392 C390 1.391 . S
C392 C393 1.400 1_655 S
C393 C387 1.491 . S
C393 C392 1.400 1_455 S
C393 C394 1.398 1_455 S
C394 H382 0.950 1_655 S
C394 C393 1.398 1_655 S
C394 C395 1.391 . S
C395 H383 0.950 . S
C395 C391 1.393 . S
C395 C394 1.391 . S
H396 C404 0.950 . S
H397 C409 0.950 . S
H398 C406 0.950 . S
H399 C408 0.950 . S
H400 C410 0.950 . S
H401 C412 0.950 1_655 S
H402 C414 0.946 1_655 S
H403 C415 0.950 . S
C404 H396 0.950 . S
C404 C405 1.386 . S
C404 C406 1.391 . S
C405 C404 1.386 . S
C405 C409 1.393 . S
C406 H398 0.950 . S
C406 C404 1.391 . S
C406 C407 1.400 . S
C407 C406 1.400 . S
C407 C408 1.398 . S
C407 C413 1.491 . S
C408 H399 0.950 . S
C408 C407 1.398 . S
C408 C409 1.391 . S
C409 H397 0.950 . S
C409 C405 1.393 . S
C409 C408 1.391 . S
C410 H400 0.950 . S
C410 C411 1.386 . S
C410 C412 1.391 . S
C411 C410 1.386 . S
C411 C415 1.393 . S
C412 H401 0.950 1_455 S
C412 C410 1.391 . S
C412 C413 1.400 1_455 S
C413 C407 1.491 . S
C413 C412 1.400 1_655 S
C413 C414 1.398 1_655 S
C414 H402 0.946 1_455 S
C414 C413 1.398 1_455 S
C414 C415 1.391 . S
C415 H403 0.950 . S
C415 C411 1.393 . S
C415 C414 1.391 . S
H416 C424 0.944 1_556 S
H417 C429 0.950 . S
H418 C426 0.950 1_556 S
H419 C428 0.950 . S
H420 C430 0.950 . S
H421 C432 0.950 . S
H422 C434 0.950 . S
H423 C435 0.949 1_556 S
C424 H416 0.944 1_554 S
C424 C425 1.392 . S
C424 C426 1.392 . S
C425 C424 1.392 . S
C425 C429 1.393 1_655 S
C426 H418 0.950 1_554 S
C426 C424 1.392 . S
C426 C427 1.400 . S
C427 C426 1.400 . S
C427 C428 1.398 1_655 S
C427 C433 1.491 1_655 S
C428 H419 0.950 . S
C428 C427 1.398 1_455 S
C428 C429 1.391 . S
C429 H417 0.950 . S
C429 C425 1.393 1_455 S
C429 C428 1.391 . S
C430 H420 0.950 . S
C430 C431 1.386 . S
C430 C432 1.391 . S
C431 C430 1.386 . S
C431 C435 1.393 1_455 S
C432 H421 0.950 . S
C432 C430 1.391 . S
C432 C433 1.400 . S
C433 C427 1.491 1_455 S
C433 C432 1.400 . S
C433 C434 1.398 1_455 S
C434 H422 0.950 . S
C434 C433 1.398 1_655 S
C434 C435 1.391 . S
C435 H423 0.949 1_554 S
C435 C431 1.393 1_655 S
C435 C434 1.391 . S
H436 C444 0.950 . S
H437 C449 0.950 . S
H438 C446 0.950 . S
H439 C448 0.950 . S
H440 C450 0.950 . S
H441 C452 0.950 . S
H442 C454 0.950 . S
H443 C455 0.950 . S
C444 H436 0.950 . S
C444 C445 1.386 1_455 S
C444 C446 1.391 . S
C445 C444 1.386 1_655 S
C445 C449 1.393 . S
C446 H438 0.950 . S
C446 C444 1.391 . S
C446 C447 1.400 1_455 S
C447 C446 1.400 1_655 S
C447 C448 1.398 . S
C447 C453 1.491 1_655 S
C448 H439 0.950 . S
C448 C447 1.398 . S
C448 C449 1.391 . S
C449 H437 0.950 . S
C449 C445 1.393 . S
C449 C448 1.391 . S
C450 H440 0.950 . S
C450 C451 1.386 1_655 S
C450 C452 1.391 . S
C451 C450 1.386 1_455 S
C451 C455 1.393 . S
C452 H441 0.950 . S
C452 C450 1.391 . S
C452 C453 1.400 1_655 S
C453 C447 1.491 1_455 S
C453 C452 1.400 1_455 S
C453 C454 1.398 . S
C454 H442 0.950 . S
C454 C453 1.398 . S
C454 C455 1.391 . S
C455 H443 0.950 . S
C455 C451 1.393 . S
C455 C454 1.391 . S
H456 C464 0.950 . S
H457 C469 0.950 . S
H458 C466 0.950 . S
H459 C468 0.950 . S
H460 C470 0.950 . S
H461 C472 0.950 . S
H462 C474 0.950 . S
H463 C475 0.950 . S
C464 H456 0.950 . S
C464 C465 1.386 1_556 S
C464 C466 1.391 . S
C465 C464 1.386 1_554 S
C465 C469 1.393 . S
C466 H458 0.950 . S
C466 C464 1.391 . S
C466 C467 1.400 1_556 S
C467 C466 1.400 1_554 S
C467 C468 1.398 . S
C467 C473 1.491 1_565 S
C468 H459 0.950 . S
C468 C467 1.398 . S
C468 C469 1.391 . S
C469 H457 0.950 . S
C469 C465 1.393 . S
C469 C468 1.391 . S
C470 H460 0.950 . S
C470 C471 1.386 . S
C470 C472 1.391 . S
C471 C470 1.386 . S
C471 C475 1.393 1_554 S
C472 H461 0.950 . S
C472 C470 1.391 . S
C472 C473 1.400 . S
C473 C467 1.491 1_545 S
C473 C472 1.400 . S
C473 C474 1.398 1_554 S
C474 H462 0.950 . S
C474 C473 1.398 1_556 S
C474 C475 1.391 . S
C475 H463 0.950 . S
C475 C471 1.393 1_556 S
C475 C474 1.391 . S
H476 C484 0.950 . S
H477 C489 0.950 . S
H478 C486 0.950 . S
H479 C488 0.950 . S
H480 C490 0.950 . S
H481 C492 0.950 . S
H482 C494 0.950 . S
H483 C495 0.950 . S
C484 H476 0.950 . S
C484 C485 1.386 . S
C484 C486 1.391 . S
C485 C484 1.386 . S
C485 C489 1.393 . S
C486 H478 0.950 . S
C486 C484 1.391 . S
C486 C487 1.400 . S
C487 C486 1.400 . S
C487 C488 1.398 . S
C487 C493 1.491 1_545 S
C488 H479 0.950 . S
C488 C487 1.398 . S
C488 C489 1.391 . S
C489 H477 0.950 . S
C489 C485 1.393 . S
C489 C488 1.391 . S
C490 H480 0.950 . S
C490 C491 1.386 . S
C490 C492 1.391 . S
C491 C490 1.386 . S
C491 C495 1.393 . S
C492 H481 0.950 . S
C492 C490 1.391 . S
C492 C493 1.400 . S
C493 C487 1.491 1_565 S
C493 C492 1.400 . S
C493 C494 1.398 . S
C494 H482 0.950 . S
C494 C493 1.398 . S
C494 C495 1.391 . S
C495 H483 0.950 . S
C495 C491 1.393 . S
C495 C494 1.391 . S
H496 C504 0.950 . S
H497 C509 0.950 . S
H498 C506 0.950 . S
H499 C508 0.950 . S
H500 C510 0.950 . S
H501 C512 0.950 . S
H502 C514 0.950 . S
H503 C515 0.950 . S
C504 H496 0.950 . S
C504 C505 1.386 1_554 S
C504 C506 1.391 . S
C505 C504 1.386 1_556 S
C505 C509 1.393 . S
C506 H498 0.950 . S
C506 C504 1.391 . S
C506 C507 1.400 1_554 S
C507 C506 1.400 1_556 S
C507 C508 1.398 . S
C507 C513 1.491 . S
C508 H499 0.950 . S
C508 C507 1.398 . S
C508 C509 1.391 . S
C509 H497 0.950 . S
C509 C505 1.393 . S
C509 C508 1.391 . S
C510 H500 0.950 . S
C510 C511 1.385 . S
C510 C512 1.391 . S
C511 C510 1.385 . S
C511 C515 1.393 1_556 S
C512 H501 0.950 . S
C512 C510 1.391 . S
C512 C513 1.408 . S
C513 C507 1.491 . S
C513 C512 1.408 . S
C513 C514 1.390 1_556 S
C514 H502 0.950 . S
C514 C513 1.390 1_554 S
C514 C515 1.391 . S
C515 H503 0.950 . S
C515 C511 1.393 1_554 S
C515 C514 1.391 . S
H516 C524 0.950 . S
H517 C529 0.950 . S
H518 C526 0.950 . S
H519 C528 0.950 . S
H520 C530 0.950 . S
H521 C532 0.950 . S
H522 C534 0.950 . S
H523 C535 0.950 . S
C524 H516 0.950 . S
C524 C525 1.384 1_554 S
C524 C526 1.391 . S
C525 C524 1.384 1_556 S
C525 C529 1.395 . S
C526 H518 0.950 . S
C526 C524 1.391 . S
C526 C527 1.391 1_554 S
C527 C526 1.391 1_556 S
C527 C528 1.407 . S
C527 C533 1.491 . S
C528 H519 0.950 . S
C528 C527 1.407 . S
C528 C529 1.391 . S
C529 H517 0.950 . S
C529 C525 1.395 . S
C529 C528 1.391 . S
C530 H520 0.950 . S
C530 C531 1.386 . S
C530 C532 1.391 . S
C531 C530 1.386 . S
C531 C535 1.393 1_556 S
C532 H521 0.950 . S
C532 C530 1.391 . S
C532 C533 1.400 . S
C533 C527 1.491 . S
C533 C532 1.400 . S
C533 C534 1.398 1_556 S
C534 H522 0.950 . S
C534 C533 1.398 1_554 S
C534 C535 1.391 . S
C535 H523 0.950 . S
C535 C531 1.393 1_554 S
C535 C534 1.391 . S
H536 C544 0.950 . S
H537 C549 0.950 . S
H538 C546 0.950 . S
H539 C548 0.950 . S
H540 C550 0.950 . S
H541 C552 0.950 . S
H542 C554 0.950 . S
H543 C555 0.950 . S
C544 H536 0.950 . S
C544 C545 1.386 . S
C544 C546 1.391 . S
C545 C544 1.386 . S
C545 C549 1.393 . S
C546 H538 0.950 . S
C546 C544 1.391 . S
C546 C547 1.400 . S
C547 C546 1.400 . S
C547 C548 1.398 . S
C547 C553 1.491 . S
C548 H539 0.950 . S
C548 C547 1.398 . S
C548 C549 1.391 . S
C549 H537 0.950 . S
C549 C545 1.393 . S
C549 C548 1.391 . S
C550 H540 0.950 . S
C550 C551 1.386 . S
C550 C552 1.391 . S
C551 C550 1.386 . S
C551 C555 1.393 . S
C552 H541 0.950 . S
C552 C550 1.391 . S
C552 C553 1.400 . S
C553 C547 1.491 . S
C553 C552 1.400 . S
C553 C554 1.398 . S
C554 H542 0.950 . S
C554 C553 1.398 . S
C554 C555 1.391 . S
C555 H543 0.950 . S
C555 C551 1.393 . S
C555 C554 1.391 . S
H556 C564 0.950 . S
H557 C569 0.950 . S
H558 C566 0.950 . S
H559 C568 0.950 . S
H560 C570 0.950 . S
H561 C572 0.950 . S
H562 C574 0.950 . S
H563 C575 0.950 . S
C564 H556 0.950 . S
C564 C565 1.386 . S
C564 C566 1.391 . S
C565 C564 1.386 . S
C565 C569 1.393 . S
C566 H558 0.950 . S
C566 C564 1.391 . S
C566 C567 1.400 . S
C567 C566 1.400 . S
C567 C568 1.398 . S
C567 C573 1.491 . S
C568 H559 0.950 . S
C568 C567 1.398 . S
C568 C569 1.391 . S
C569 H557 0.950 . S
C569 C565 1.393 . S
C569 C568 1.391 . S
C570 H560 0.950 . S
C570 C571 1.386 . S
C570 C572 1.391 . S
C571 C570 1.386 . S
C571 C575 1.393 . S
C572 H561 0.950 . S
C572 C570 1.391 . S
C572 C573 1.400 . S
C573 C567 1.491 . S
C573 C572 1.400 . S
C573 C574 1.398 . S
C574 H562 0.950 . S
C574 C573 1.398 . S
C574 C575 1.391 . S
C575 H563 0.950 . S
C575 C571 1.393 . S
C575 C574 1.391 . S
H576 C584 0.950 . S
H577 C589 0.950 . S
H578 C586 0.950 . S
H579 C588 0.950 . S
H580 C590 0.950 . S
H581 C592 0.950 . S
H582 C594 0.950 . S
H583 C595 0.950 . S
C584 H576 0.950 . S
C584 C585 1.386 . S
C584 C586 1.391 . S
C585 C584 1.386 . S
C585 C589 1.393 1_455 S
C586 H578 0.950 . S
C586 C584 1.391 . S
C586 C587 1.400 . S
C587 C586 1.400 . S
C587 C588 1.398 1_455 S
C587 C593 1.491 1_455 S
C588 H579 0.950 . S
C588 C587 1.398 1_655 S
C588 C589 1.391 . S
C589 H577 0.950 . S
C589 C585 1.393 1_655 S
C589 C588 1.391 . S
C590 H580 0.950 . S
C590 C591 1.386 . S
C590 C592 1.391 . S
C591 C590 1.386 . S
C591 C595 1.393 1_655 S
C592 H581 0.950 . S
C592 C590 1.391 . S
C592 C593 1.400 . S
C593 C587 1.491 1_655 S
C593 C592 1.400 . S
C593 C594 1.398 1_655 S
C594 H582 0.950 . S
C594 C593 1.398 1_455 S
C594 C595 1.391 . S
C595 H583 0.950 . S
C595 C591 1.393 1_455 S
C595 C594 1.391 . S
H596 C604 0.950 . S
H597 C609 0.950 . S
H598 C606 0.950 . S
H599 C608 0.950 . S
H600 C610 0.950 . S
H601 C612 0.950 . S
H602 C614 0.950 . S
H603 C615 0.950 . S
C604 H596 0.950 . S
C604 C605 1.386 . S
C604 C606 1.391 . S
C605 C604 1.386 . S
C605 C609 1.393 1_655 S
C606 H598 0.950 . S
C606 C604 1.391 . S
C606 C607 1.400 . S
C607 C606 1.400 . S
C607 C608 1.398 1_655 S
C607 C613 1.491 1_655 S
C608 H599 0.950 . S
C608 C607 1.398 1_455 S
C608 C609 1.391 . S
C609 H597 0.950 . S
C609 C605 1.393 1_455 S
C609 C608 1.391 . S
C610 H600 0.950 . S
C610 C611 1.386 . S
C610 C612 1.391 . S
C611 C610 1.386 . S
C611 C615 1.393 1_455 S
C612 H601 0.950 . S
C612 C610 1.391 . S
C612 C613 1.400 . S
C613 C607 1.491 1_455 S
C613 C612 1.400 . S
C613 C614 1.398 1_455 S
C614 H602 0.950 . S
C614 C613 1.398 1_655 S
C614 C615 1.391 . S
C615 H603 0.950 . S
C615 C611 1.393 1_655 S
C615 C614 1.391 . S
H616 C624 0.950 . S
H617 C629 0.950 . S
H618 C626 0.950 . S
H619 C628 0.950 . S
H620 C630 0.950 . S
H621 C632 0.950 . S
H622 C634 0.950 . S
H623 C635 0.950 . S
C624 H616 0.950 . S
C624 C625 1.386 . S
C624 C626 1.391 . S
C625 C624 1.386 . S
C625 C629 1.393 1_655 S
C626 H618 0.950 . S
C626 C624 1.391 . S
C626 C627 1.400 . S
C627 C626 1.400 . S
C627 C628 1.398 1_655 S
C627 C633 1.491 1_655 S
C628 H619 0.950 . S
C628 C627 1.398 1_455 S
C628 C629 1.391 . S
C629 H617 0.950 . S
C629 C625 1.393 1_455 S
C629 C628 1.391 . S
C630 H620 0.950 . S
C630 C631 1.386 . S
C630 C632 1.391 . S
C631 C630 1.386 . S
C631 C635 1.393 1_455 S
C632 H621 0.950 . S
C632 C630 1.391 . S
C632 C633 1.400 . S
C633 C627 1.491 1_455 S
C633 C632 1.400 . S
C633 C634 1.398 1_455 S
C634 H622 0.950 . S
C634 C633 1.398 1_655 S
C634 C635 1.391 . S
C635 H623 0.950 . S
C635 C631 1.393 1_655 S
C635 C634 1.391 . S
H636 C644 0.950 . S
H637 C649 0.950 . S
H638 C646 0.950 . S
H639 C648 0.950 . S
H640 C650 0.950 . S
H641 C652 0.950 . S
H642 C654 0.950 . S
H643 C655 0.950 . S
C644 H636 0.950 . S
C644 C645 1.386 . S
C644 C646 1.391 . S
C645 C644 1.386 . S
C645 C649 1.393 1_655 S
C646 H638 0.950 . S
C646 C644 1.391 . S
C646 C647 1.400 . S
C647 C646 1.400 . S
C647 C648 1.398 1_655 S
C647 C653 1.491 1_655 S
C648 H639 0.950 . S
C648 C647 1.398 1_455 S
C648 C649 1.391 . S
C649 H637 0.950 . S
C649 C645 1.393 1_455 S
C649 C648 1.391 . S
C650 H640 0.950 . S
C650 C651 1.386 . S
C650 C652 1.391 . S
C651 C650 1.386 . S
C651 C655 1.393 1_455 S
C652 H641 0.950 . S
C652 C650 1.391 . S
C652 C653 1.400 . S
C653 C647 1.491 1_455 S
C653 C652 1.400 . S
C653 C654 1.398 1_455 S
C654 H642 0.950 . S
C654 C653 1.398 1_655 S
C654 C655 1.391 . S
C655 H643 0.950 . S
C655 C651 1.393 1_655 S
C655 C654 1.391 . S
H656 C664 0.950 . S
H657 C669 0.950 . S
H658 C666 0.950 . S
H659 C668 0.950 . S
H660 C670 0.950 . S
H661 C672 0.950 . S
H662 C674 0.950 . S
H663 C675 0.950 . S
C664 H656 0.950 . S
C664 C665 1.386 . S
C664 C666 1.391 . S
C665 C664 1.386 . S
C665 C669 1.393 . S
C666 H658 0.950 . S
C666 C664 1.391 . S
C666 C667 1.400 . S
C667 C666 1.400 . S
C667 C668 1.398 . S
C667 C673 1.491 . S
C668 H659 0.950 . S
C668 C667 1.398 . S
C668 C669 1.391 . S
C669 H657 0.950 . S
C669 C665 1.393 . S
C669 C668 1.391 . S
C670 H660 0.950 . S
C670 C671 1.386 . S
C670 C672 1.391 . S
C671 C670 1.386 . S
C671 C675 1.393 . S
C672 H661 0.950 . S
C672 C670 1.391 . S
C672 C673 1.400 . S
C673 C667 1.491 . S
C673 C672 1.400 . S
C673 C674 1.398 . S
C674 H662 0.950 . S
C674 C673 1.398 . S
C674 C675 1.391 . S
C675 H663 0.950 . S
C675 C671 1.393 . S
C675 C674 1.391 . S
H676 C684 0.950 . S
H677 C689 0.950 . S
H678 C686 0.950 . S
H679 C688 0.950 . S
H680 C690 0.950 . S
H681 C692 0.950 . S
H682 C694 0.950 . S
H683 C695 0.950 . S
C684 H676 0.950 . S
C684 C685 1.386 . S
C684 C686 1.391 . S
C685 C684 1.386 . S
C685 C689 1.393 . S
C686 H678 0.950 . S
C686 C684 1.391 . S
C686 C687 1.400 . S
C687 C686 1.400 . S
C687 C688 1.398 . S
C687 C693 1.491 . S
C688 H679 0.950 . S
C688 C687 1.398 . S
C688 C689 1.391 . S
C689 H677 0.950 . S
C689 C685 1.393 . S
C689 C688 1.391 . S
C690 H680 0.950 . S
C690 C691 1.386 . S
C690 C692 1.391 . S
C691 C690 1.386 . S
C691 C695 1.393 . S
C692 H681 0.950 . S
C692 C690 1.391 . S
C692 C693 1.400 . S
C693 C687 1.491 . S
C693 C692 1.400 . S
C693 C694 1.398 . S
C694 H682 0.950 . S
C694 C693 1.398 . S
C694 C695 1.391 . S
C695 H683 0.950 . S
C695 C691 1.393 . S
C695 C694 1.391 . S
H696 C704 0.950 . S
H697 C709 0.950 . S
H698 C706 0.950 . S
H699 C708 0.950 . S
H700 C710 0.950 . S
H701 C712 0.950 . S
H702 C714 0.950 . S
H703 C715 0.950 . S
C704 H696 0.950 . S
C704 C705 1.386 . S
C704 C706 1.391 . S
C705 C704 1.386 . S
C705 C709 1.393 . S
C706 H698 0.950 . S
C706 C704 1.391 . S
C706 C707 1.400 . S
C707 C706 1.400 . S
C707 C708 1.398 . S
C707 C713 1.491 . S
C708 H699 0.950 . S
C708 C707 1.398 . S
C708 C709 1.391 . S
C709 H697 0.950 . S
C709 C705 1.393 . S
C709 C708 1.391 . S
C710 H700 0.950 . S
C710 C711 1.386 . S
C710 C712 1.391 . S
C711 C710 1.386 . S
C711 C715 1.393 . S
C712 H701 0.950 . S
C712 C710 1.391 . S
C712 C713 1.400 . S
C713 C707 1.491 . S
C713 C712 1.400 . S
C713 C714 1.398 . S
C714 H702 0.950 . S
C714 C713 1.398 . S
C714 C715 1.391 . S
C715 H703 0.950 . S
C715 C711 1.393 . S
C715 C714 1.391 . S
H716 C724 0.950 . S
H717 C729 0.950 . S
H718 C726 0.950 . S
H719 C728 0.950 . S
H720 C730 0.950 . S
H721 C732 0.950 . S
H722 C734 0.950 . S
H723 C735 0.950 . S
C724 H716 0.950 . S
C724 C725 1.386 . S
C724 C726 1.391 . S
C725 C724 1.386 . S
C725 C729 1.393 . S
C726 H718 0.950 . S
C726 C724 1.391 . S
C726 C727 1.400 . S
C727 C726 1.400 . S
C727 C728 1.398 . S
C727 C733 1.491 . S
C728 H719 0.950 . S
C728 C727 1.398 . S
C728 C729 1.391 . S
C729 H717 0.950 . S
C729 C725 1.393 . S
C729 C728 1.391 . S
C730 H720 0.950 . S
C730 C731 1.386 . S
C730 C732 1.391 . S
C731 C730 1.386 . S
C731 C735 1.393 . S
C732 H721 0.950 . S
C732 C730 1.391 . S
C732 C733 1.400 . S
C733 C727 1.491 . S
C733 C732 1.400 . S
C733 C734 1.398 . S
C734 H722 0.950 . S
C734 C733 1.398 . S
C734 C735 1.391 . S
C735 H723 0.950 . S
C735 C731 1.393 . S
C735 C734 1.391 . S
C265 C4 1.303 . S
C271 C6 1.303 . S
C285 C34 1.301 . S
C291 C61 1.303 . S
C305 C66 1.302 . S
C311 C93 1.298 . S
C325 C100 1.296 . S
C331 C102 1.300 . S
C345 C132 1.299 . S
C351 C134 1.303 . S
C365 C189 1.299 . S
C371 C162 1.299 . S
C385 C194 1.302 . S
C391 C221 1.303 . S
C405 C230 1.302 . S
C411 C228 1.303 . S
C425 C36 1.524 . S
C431 C29 1.527 . S
C445 C125 1.525 . S
C451 C68 1.522 . S
C465 C157 1.530 . S
C471 C164 1.529 . S
C485 C196 1.521 . S
C491 C253 1.519 . S
C505 C2 1.599 . S
C511 C166 1.596 . S
C525 C130 1.598 . S
C531 C38 1.600 . S
C545 C70 1.592 . S
C551 C226 1.591 . S
C565 C98 1.598 . S
C571 C198 1.597 . S
C585 N13 1.481 . S
C591 N109 1.479 . S
C605 N50 1.474 . S
C611 N82 1.462 . S
C625 N45 1.552 . S
C631 N77 1.534 . S
C645 N114 1.562 . S
C651 N18 1.546 . S
C665 N141 1.472 . S
C671 N237 1.481 . S
C685 N178 1.459 . S
C691 N210 1.459 . S
C705 N173 1.552 . S
C711 N205 1.563 . S
C725 N242 1.537 . S
C731 N146 1.556 . S
