# Generated by pormake.
# Topology uof, (4)-cn, num edge types: 1
# Building blocks:
#     Node 0, Type 0, BuildingBlock: QUQFOY_clean_sbu_1, # of connection points: 4
#     Node 1, Type 0, BuildingBlock: QUQFOY_clean_sbu_1, # of connection points: 4
#     Node 2, Type 0, BuildingBlock: QUQFOY_clean_sbu_1, # of connection points: 4
#     Node 3, Type 0, BuildingBlock: QUQFOY_clean_sbu_1, # of connection points: 4
#     Node 4, Type 0, BuildingBlock: QUQFOY_clean_sbu_1, # of connection points: 4
#     Node 5, Type 0, BuildingBlock: QUQFOY_clean_sbu_1, # of connection points: 4
#     Node 6, Type 0, BuildingBlock: QUQFOY_clean_sbu_1, # of connection points: 4
#     Node 7, Type 0, BuildingBlock: QUQFOY_clean_sbu_1, # of connection points: 4
#     Node 8, Type 0, BuildingBlock: QUQFOY_clean_sbu_1, # of connection points: 4
#     Node 9, Type 0, BuildingBlock: QUQFOY_clean_sbu_1, # of connection points: 4
#     Node 10, Type 0, BuildingBlock: QUQFOY_clean_sbu_1, # of connection points: 4
#     Node 11, Type 0, BuildingBlock: QUQFOY_clean_sbu_1, # of connection points: 4
#     Edge 12, Type (0, 0), BuildingBlock: OJICUG_clean_linker_0, # of connection points: 2
#     Edge 13, Type (0, 0), BuildingBlock: OJICUG_clean_linker_0, # of connection points: 2
#     Edge 14, Type (0, 0), BuildingBlock: OJICUG_clean_linker_0, # of connection points: 2
#     Edge 15, Type (0, 0), BuildingBlock: OJICUG_clean_linker_0, # of connection points: 2
#     Edge 16, Type (0, 0), BuildingBlock: OJICUG_clean_linker_0, # of connection points: 2
#     Edge 17, Type (0, 0), BuildingBlock: OJICUG_clean_linker_0, # of connection points: 2
#     Edge 18, Type (0, 0), BuildingBlock: OJICUG_clean_linker_0, # of connection points: 2
#     Edge 19, Type (0, 0), BuildingBlock: OJICUG_clean_linker_0, # of connection points: 2
#     Edge 20, Type (0, 0), BuildingBlock: OJICUG_clean_linker_0, # of connection points: 2
#     Edge 21, Type (0, 0), BuildingBlock: OJICUG_clean_linker_0, # of connection points: 2
#     Edge 22, Type (0, 0), BuildingBlock: OJICUG_clean_linker_0, # of connection points: 2
#     Edge 23, Type (0, 0), BuildingBlock: OJICUG_clean_linker_0, # of connection points: 2
#     Edge 24, Type (0, 0), BuildingBlock: OJICUG_clean_linker_0, # of connection points: 2
#     Edge 25, Type (0, 0), BuildingBlock: OJICUG_clean_linker_0, # of connection points: 2
#     Edge 26, Type (0, 0), BuildingBlock: OJICUG_clean_linker_0, # of connection points: 2
#     Edge 27, Type (0, 0), BuildingBlock: OJICUG_clean_linker_0, # of connection points: 2
#     Edge 28, Type (0, 0), BuildingBlock: OJICUG_clean_linker_0, # of connection points: 2
#     Edge 29, Type (0, 0), BuildingBlock: OJICUG_clean_linker_0, # of connection points: 2
#     Edge 30, Type (0, 0), BuildingBlock: OJICUG_clean_linker_0, # of connection points: 2
#     Edge 31, Type (0, 0), BuildingBlock: OJICUG_clean_linker_0, # of connection points: 2
#     Edge 32, Type (0, 0), BuildingBlock: OJICUG_clean_linker_0, # of connection points: 2
#     Edge 33, Type (0, 0), BuildingBlock: OJICUG_clean_linker_0, # of connection points: 2
#     Edge 34, Type (0, 0), BuildingBlock: OJICUG_clean_linker_0, # of connection points: 2
#     Edge 35, Type (0, 0), BuildingBlock: OJICUG_clean_linker_0, # of connection points: 2
# Relax obj value: 0.141
# Max RMSD: 0.150
# Mean RMSD: 0.150
data_MOF--net-uof--node1-QUQFOY_clean_sbu_1--edge1-OJICUG_clean_linker_0
_symmetry_space_group_name_H-M    P1
_symmetry_Int_Tables_number       1
_symmetry_cell_setting            triclinic
loop_
_symmetry_equiv_pos_as_xyz
'x, y, z'
_cell_length_a     23.6695
_cell_length_b     23.645095
_cell_length_c     54.551254
_cell_angle_alpha  90.005018
_cell_angle_beta   90.002869
_cell_angle_gamma 119.98397
loop_
_atom_site_label
_atom_site_type_symbol
_atom_site_fract_x
_atom_site_fract_y
_atom_site_fract_z
_atom_type_partial_charge
O0 O 0.34663 0.37387 0.23347 0.0
Cd1 Cd 0.25721 0.29493 0.24261 0.0
Cd2 Cd 0.23339 0.34789 0.19701 0.0
O3 O 0.3294 0.42206 0.20176 0.0
O4 O 0.28488 0.25908 0.27044 0.0
O5 O 0.21623 0.2954 0.27526 0.0
C6 C 0.249 0.27075 0.28483 0.0
C7 C 0.13968 0.35253 0.18703 0.0
C8 C 0.36761 0.41926 0.21757 0.0
C9 C 0.21348 0.21258 0.19669 0.0
O10 O 0.22411 0.26257 0.18449 0.0
O11 O 0.21785 0.21455 0.21991 0.0
O12 O 0.18618 0.3689 0.17134 0.0
O13 O 0.15006 0.34119 0.20932 0.0
O14 O 0.97681 0.34372 0.56769 0.0
Cd15 Cd 0.96604 0.25387 0.57644 0.0
Cd16 Cd 0.88859 0.23081 0.53138 0.0
O17 O 0.91007 0.32665 0.53648 0.0
O18 O 0.03007 0.28095 0.60404 0.0
O19 O 0.92517 0.2126 0.60912 0.0
C20 C 0.98276 0.24512 0.61853 0.0
C21 C 0.79039 0.1365 0.52183 0.0
C22 C 0.95176 0.36482 0.55213 0.0
C23 C 1.00362 0.21099 0.53008 0.0
O24 O 0.96443 0.22241 0.51816 0.0
O25 O 1.0061 0.21439 0.55333 0.0
O26 O 0.81934 0.18324 0.50612 0.0
O27 O 0.81314 0.14695 0.54396 0.0
O28 O 0.6389 0.97644 0.90068 0.0
Cd29 Cd 0.71796 0.96614 0.90981 0.0
Cd30 Cd 0.66474 0.88869 0.86432 0.0
O31 O 0.59064 0.91063 0.86907 0.0
O32 O 0.75387 0.02992 0.93755 0.0
O33 O 0.71789 0.92499 0.94248 0.0
C34 C 0.74248 0.9825 0.95198 0.0
C35 C 0.65992 0.7902 0.85427 0.0
C36 C 0.59346 0.95182 0.88483 0.0
C37 C 0.79987 1.00415 0.86381 0.0
O38 O 0.74987 0.96457 0.85169 0.0
O39 O 0.79805 0.00693 0.88703 0.0
O40 O 0.64352 0.82044 0.83862 0.0
O41 O 0.67141 0.81189 0.87656 0.0
O42 O 0.66798 0.63582 0.2336 0.0
Cd43 Cd 0.75729 0.71479 0.24284 0.0
Cd44 Cd 0.78144 0.6619 0.19722 0.0
O45 O 0.68541 0.58773 0.2019 0.0
O46 O 0.72933 0.75054 0.27061 0.0
O47 O 0.79798 0.71427 0.27556 0.0
C48 C 0.76509 0.73886 0.28507 0.0
C49 C 0.87509 0.65718 0.18718 0.0
C50 C 0.6471 0.59048 0.21769 0.0
C51 C 0.80133 0.79724 0.19695 0.0
O52 O 0.79081 0.74728 0.18475 0.0
O53 O 0.79678 0.79521 0.22017 0.0
O54 O 0.82858 0.64092 0.1715 0.0
O55 O 0.86477 0.66846 0.20948 0.0
O56 O 0.03573 0.66557 0.56792 0.0
Cd57 Cd 0.04635 0.75533 0.57674 0.0
Cd58 Cd 0.12393 0.77877 0.53168 0.0
O59 O 0.10247 0.68292 0.53669 0.0
O60 O 0.98245 0.72816 0.60438 0.0
O61 O 0.08733 0.7967 0.60939 0.0
C62 C 0.0298 0.76412 0.61884 0.0
C63 C 0.22213 0.87304 0.52206 0.0
C64 C 0.06082 0.64462 0.55231 0.0
C65 C 0.00868 0.79831 0.53043 0.0
O66 O 0.04807 0.78721 0.5185 0.0
O67 O 1.00605 0.79465 0.55367 0.0
O68 O 0.19305 0.82628 0.50637 0.0
O69 O 0.1995 0.86265 0.54422 0.0
O70 O 0.37633 0.03502 0.90058 0.0
Cd71 Cd 0.29702 0.04487 0.90973 0.0
Cd72 Cd 0.3498 0.12196 0.86401 0.0
O73 O 0.42406 0.10026 0.86879 0.0
O74 O 0.2614 0.9809 0.93741 0.0
O75 O 0.29689 0.08571 0.94246 0.0
C76 C 0.27256 0.02816 0.9519 0.0
C77 C 0.35442 0.22028 0.8538 0.0
C78 C 0.42159 0.05948 0.88466 0.0
C79 C 0.21474 0.00628 0.86378 0.0
O80 O 0.26456 0.04582 0.85157 0.0
O81 O 0.21682 1.00374 0.887 0.0
O82 O 0.37067 0.18983 0.83819 0.0
O83 O 0.34317 0.19889 0.87613 0.0
O84 O 0.6378 0.66502 0.44097 0.0
Cd85 Cd 0.71728 0.75399 0.43173 0.0
Cd86 Cd 0.66457 0.77886 0.47751 0.0
O87 O 0.59035 0.68279 0.47279 0.0
O88 O 0.75257 0.72547 0.40398 0.0
O89 O 0.71741 0.79506 0.39902 0.0
C90 C 0.74152 0.7617 0.38952 0.0
C91 C 0.65957 0.87223 0.48799 0.0
C92 C 0.59265 0.64435 0.45693 0.0
C93 C 0.79968 0.79801 0.47765 0.0
O94 O 0.75 0.78824 0.48983 0.0
O95 O 0.79751 0.79289 0.45444 0.0
O96 O 0.64373 0.82545 0.50352 0.0
O97 O 0.67064 0.86236 0.4656 0.0
O98 O 0.97702 0.63614 0.77421 0.0
Cd99 Cd 0.96659 0.71535 0.76535 0.0
Cd100 Cd 0.88978 0.66179 0.81078 0.0
O101 O 0.91137 0.58747 0.80579 0.0
O102 O 0.03038 0.75176 0.73766 0.0
O103 O 0.92556 0.71573 0.73269 0.0
C104 C 0.98306 0.74052 0.72322 0.0
C105 C 0.79155 0.65748 0.82063 0.0
C106 C 0.95245 0.59045 0.78998 0.0
C107 C 1.00504 0.79682 0.8115 0.0
O108 O 0.96577 0.74661 0.82359 0.0
O109 O 0.00737 0.79528 0.78826 0.0
O110 O 0.82122 0.64047 0.83631 0.0
O111 O 0.81364 0.66929 0.79841 0.0
O112 O 0.34667 0.97499 0.10756 0.0
Cd113 Cd 0.25725 0.96456 0.09846 0.0
Cd114 Cd 0.23337 0.88747 0.14393 0.0
O115 O 0.3293 0.90919 0.13915 0.0
O116 O 0.28501 0.02847 0.07078 0.0
O117 O 0.21637 0.92353 0.06574 0.0
C118 C 0.24917 0.9811 0.05629 0.0
C119 C 0.13944 0.78911 0.15374 0.0
C120 C 0.36758 0.95038 0.12339 0.0
C121 C 0.21356 1.00283 0.14448 0.0
O122 O 0.22433 0.96349 0.15663 0.0
O123 O 0.21778 0.00526 0.12125 0.0
O124 O 0.18595 0.8189 0.16946 0.0
O125 O 0.14991 0.81116 0.1315 0.0
O126 O 0.37469 0.34422 0.44088 0.0
Cd127 Cd 0.29532 0.25524 0.43157 0.0
Cd128 Cd 0.34781 0.23036 0.47743 0.0
O129 O 0.42197 0.32647 0.47276 0.0
O130 O 0.26023 0.28375 0.40375 0.0
O131 O 0.2955 0.21422 0.39888 0.0
C132 C 0.27145 0.24757 0.38933 0.0
C133 C 0.35291 0.13712 0.48805 0.0
C134 C 0.41974 0.3649 0.45689 0.0
C135 C 0.21261 0.21109 0.47739 0.0
O136 O 0.26222 0.22084 0.48962 0.0
O137 O 0.21492 0.21628 0.45419 0.0
O138 O 0.36854 0.18395 0.50355 0.0
O139 O 0.34198 0.14687 0.46563 0.0
O140 O 0.03627 0.37359 0.77396 0.0
Cd141 Cd 0.04673 0.29443 0.765 0.0
Cd142 Cd 0.12418 0.34817 0.81029 0.0
O143 O 0.10239 0.42239 0.80542 0.0
O144 O 0.98277 0.25794 0.73736 0.0
O145 O 0.08758 0.29406 0.73231 0.0
C146 C 0.03002 0.2692 0.72288 0.0
C147 C 0.22254 0.35267 0.82009 0.0
C148 C 0.06104 0.41932 0.78971 0.0
C149 C 0.00895 0.21309 0.81117 0.0
O150 O 0.0484 0.26336 0.8232 0.0
O151 O 1.00625 0.21456 0.78794 0.0
O152 O 0.1929 0.36968 0.83577 0.0
O153 O 0.20034 0.34077 0.79787 0.0
O154 O 0.66806 0.03431 0.10766 0.0
Cd155 Cd 0.75761 0.045 0.09861 0.0
Cd156 Cd 0.78124 0.12206 0.144 0.0
O157 O 0.6853 0.10028 0.13918 0.0
O158 O 0.73012 0.98126 0.07087 0.0
O159 O 0.79857 0.08628 0.06594 0.0
C160 C 0.7659 0.02875 0.05643 0.0
C161 C 0.8752 0.22047 0.15373 0.0
C162 C 0.64708 0.05896 0.12344 0.0
C163 C 0.80123 0.00684 0.14466 0.0
O164 O 0.79029 0.04611 0.15677 0.0
O165 O 0.79715 1.0044 0.12142 0.0
O166 O 0.82873 0.19082 0.16947 0.0
O167 O 0.86467 0.19826 0.13151 0.0
C168 C 0.95633 0.28043 0.1872 0.0
C169 C 0.94193 0.26998 0.16199 0.0
H170 H 0.03026 0.31537 0.215 0.0
C171 C 0.99391 0.29827 0.14521 0.0
H172 H 0.91762 0.25958 0.2007 0.0
C173 C 0.0587 0.33089 0.15345 0.0
C174 C 0.07306 0.33544 0.17868 0.0
H175 H 0.98474 0.2915 0.12567 0.0
H176 H 0.09738 0.34817 0.13997 0.0
C177 C 0.02111 0.3125 0.19545 0.0
C178 C 0.71382 0.01737 0.53024 0.0
C179 C 0.74113 0.06965 0.51354 0.0
H180 H 0.66503 0.91374 0.53526 0.0
C181 C 0.73 0.05555 0.48833 0.0
H182 H 0.72114 0.0263 0.54977 0.0
C183 C 0.69827 0.99082 0.47995 0.0
C184 C 0.67632 0.93863 0.49659 0.0
H185 H 0.75008 0.09449 0.4749 0.0
H186 H 0.69486 0.98194 0.46038 0.0
C187 C 0.68152 0.95263 0.52186 0.0
C188 C 0.68123 0.73077 0.8206 0.0
C189 C 0.67689 0.74058 0.84585 0.0
H190 H 0.72036 0.69615 0.79273 0.0
C191 C 0.69995 0.7115 0.86256 0.0
H192 H 0.66386 0.75224 0.80716 0.0
C193 C 0.73191 0.6787 0.85423 0.0
C194 C 0.74215 0.67477 0.82899 0.0
H195 H 0.69724 0.71776 0.88211 0.0
H196 H 0.75286 0.66079 0.86767 0.0
C197 C 0.71375 0.69853 0.81227 0.0
C198 C 0.95594 0.67871 0.15356 0.0
C199 C 0.94167 0.67424 0.1788 0.0
H200 H 0.02978 0.718 0.12575 0.0
C201 C 0.99369 0.69723 0.19554 0.0
H202 H 0.9172 0.66139 0.14009 0.0
C203 C 0.05845 0.72927 0.18726 0.0
C204 C 0.07274 0.73964 0.16204 0.0
H205 H 0.98462 0.69441 0.21509 0.0
H206 H 0.0972 0.75016 0.20074 0.0
C207 C 0.0207 0.71129 0.14528 0.0
C208 C 0.3143 0.0185 0.48011 0.0
C209 C 0.33618 0.07078 0.49672 0.0
H210 H 0.26255 0.91481 0.47513 0.0
C211 C 0.33094 0.05692 0.522 0.0
H212 H 0.31776 0.02728 0.46054 0.0
C213 C 0.29865 0.99222 0.53042 0.0
C214 C 0.2714 0.93985 0.51375 0.0
H215 H 0.34738 0.09588 0.53536 0.0
H216 H 0.29129 0.9834 0.54995 0.0
C217 C 0.28258 0.95382 0.48854 0.0
C218 C 0.31455 0.29914 0.862 0.0
C219 C 0.33737 0.26979 0.84532 0.0
H220 H 0.26177 0.34998 0.8671 0.0
C221 C 0.33276 0.27927 0.82006 0.0
H222 H 0.31749 0.29314 0.88156 0.0
C223 C 0.30019 0.31145 0.81172 0.0
C224 C 0.27201 0.33546 0.82843 0.0
H225 H 0.34995 0.25759 0.80664 0.0
H226 H 0.29336 0.31357 0.79217 0.0
C227 C 0.28253 0.33187 0.85366 0.0
C228 C 0.54122 0.52438 0.23929 0.0
C229 C 0.57615 0.54366 0.21716 0.0
H230 H 0.44802 0.47005 0.25666 0.0
C231 C 0.54162 0.52385 0.19491 0.0
H232 H 0.56652 0.5395 0.2567 0.0
C233 C 0.47321 0.48596 0.19488 0.0
C234 C 0.43858 0.46606 0.21711 0.0
H235 H 0.56732 0.53908 0.17759 0.0
H236 H 0.44758 0.47081 0.17755 0.0
C237 C 0.4734 0.48524 0.23927 0.0
C238 C 0.02168 0.53905 0.52957 0.0
C239 C 0.03653 0.57359 0.55183 0.0
H240 H 0.98031 0.44495 0.51218 0.0
C241 C 0.02078 0.5386 0.57396 0.0
H242 H 0.03222 0.56482 0.51226 0.0
C243 C 0.99189 0.47067 0.57391 0.0
C244 C 0.97608 0.43586 0.55174 0.0
H245 H 0.03104 0.56393 0.59137 0.0
H246 H 0.98166 0.4452 0.59129 0.0
C247 C 0.9909 0.47058 0.52953 0.0
C248 C 0.48831 0.02056 0.90638 0.0
C249 C 0.46863 0.03559 0.8842 0.0
H250 H 0.54312 0.9823 0.92385 0.0
C251 C 0.48823 0.02044 0.86199 0.0
H252 H 0.47335 0.03108 0.92376 0.0
C253 C 0.5263 0.99007 0.86205 0.0
C254 C 0.54659 0.97594 0.88431 0.0
H255 H 0.47268 0.03043 0.84465 0.0
H256 H 0.54125 0.97922 0.84474 0.0
C257 C 0.52764 0.99204 0.90643 0.0
C258 C 0.52533 0.53884 0.47965 0.0
C259 C 0.54544 0.57343 0.45742 0.0
H260 H 0.47161 0.44473 0.49697 0.0
C261 C 0.52598 0.53856 0.43527 0.0
H262 H 0.54067 0.56449 0.49698 0.0
C263 C 0.4864 0.47073 0.43526 0.0
C264 C 0.46691 0.43583 0.4574 0.0
H265 H 0.54131 0.5639 0.41787 0.0
H266 H 0.47112 0.44541 0.41785 0.0
C267 C 0.48697 0.4704 0.47964 0.0
C268 C 0.99166 0.52386 0.81257 0.0
C269 C 0.97663 0.54361 0.79037 0.0
H270 H 0.03301 0.47093 0.8298 0.0
C271 C 0.99205 0.52432 0.76818 0.0
H272 H 0.98136 0.53911 0.82992 0.0
C273 C 0.0208 0.48517 0.76811 0.0
C274 C 0.03678 0.46608 0.79023 0.0
H275 H 0.98163 0.53942 0.75081 0.0
H276 H 0.0308 0.46993 0.75069 0.0
C277 C 0.02228 0.48602 0.81249 0.0
C278 C 0.47311 0.98948 0.14612 0.0
C279 C 0.43853 0.97456 0.12388 0.0
H280 H 0.56718 0.03073 0.16346 0.0
C281 C 0.4734 0.99008 0.10174 0.0
H282 H 0.44744 0.9791 0.16345 0.0
C283 C 0.54124 0.01884 0.10175 0.0
C284 C 0.5761 0.0347 0.1239 0.0
H285 H 0.44805 0.97976 0.08434 0.0
H286 H 0.56658 0.02893 0.08436 0.0
C287 C 0.54152 0.02009 0.14613 0.0
C288 C 0.20008 0.0499 0.1835 0.0
C289 C 0.20222 0.05052 0.15774 0.0
H290 H 0.20139 0.10057 0.2161 0.0
C291 C 0.19945 0.10061 0.14497 0.0
H292 H 0.20133 0.01149 0.19388 0.0
C293 C 0.19944 0.15166 0.15772 0.0
C294 C 0.20216 0.15349 0.18347 0.0
H295 H 0.20034 0.10211 0.12512 0.0
H296 H 0.20019 0.19107 0.14733 0.0
C297 C 0.20003 0.10093 0.19625 0.0
C298 C 0.05101 0.19954 0.4908 0.0
C299 C 0.05103 0.1998 0.51657 0.0
H300 H 0.10201 0.20237 0.4581 0.0
C301 C 0.10028 0.19522 0.52918 0.0
H302 H 0.01327 0.20225 0.48052 0.0
C303 C 0.15111 0.19523 0.51631 0.0
C304 C 0.15359 0.19979 0.4906 0.0
H305 H 0.10127 0.1946 0.54903 0.0
H306 H 0.18987 0.19449 0.52661 0.0
C307 C 0.10184 0.19951 0.47792 0.0
C308 C 0.96221 0.15321 0.85032 0.0
C309 C 0.96142 0.15429 0.82456 0.0
H310 H 0.91184 0.10441 0.88302 0.0
C311 C 0.91132 0.10122 0.8119 0.0
H312 H 1.00063 0.19304 0.86062 0.0
C313 C 0.86043 0.05038 0.82476 0.0
C314 C 0.85878 0.05171 0.8505 0.0
H315 H 0.9097 0.10027 0.79205 0.0
H316 H 0.82102 0.01154 0.81445 0.0
C317 C 0.91135 0.10235 0.86318 0.0
C318 C 0.81449 0.95978 0.18372 0.0
C319 C 0.8126 0.95922 0.15796 0.0
H320 H 0.81298 0.9091 0.21634 0.0
C321 C 0.81564 0.90924 0.14521 0.0
H322 H 0.81303 0.99811 0.19409 0.0
C323 C 0.81566 0.85823 0.15799 0.0
C324 C 0.81268 0.85633 0.18373 0.0
H325 H 0.81496 0.90779 0.12536 0.0
H326 H 0.81513 0.8189 0.14761 0.0
C327 C 0.81456 0.9088 0.19649 0.0
C328 C 0.91059 0.80995 0.47825 0.0
C329 C 0.85863 0.80929 0.49091 0.0
H330 H 0.99935 0.80758 0.48088 0.0
C331 C 0.86086 0.81351 0.51663 0.0
H332 H 0.91061 0.80737 0.45843 0.0
C333 C 0.91171 0.81358 0.52952 0.0
C334 C 0.9612 0.8094 0.51692 0.0
H335 H 0.82193 0.81394 0.52691 0.0
H336 H 0.91054 0.81393 0.54937 0.0
C337 C 0.96143 0.80999 0.49115 0.0
C338 C 0.15367 0.95968 0.82483 0.0
C339 C 0.1557 0.95852 0.85057 0.0
H340 H 0.10396 0.90958 0.79222 0.0
C341 C 0.10338 0.90789 0.86335 0.0
H342 H 0.19289 0.99851 0.81446 0.0
C343 C 0.05237 0.85691 0.85058 0.0
C344 C 0.05276 0.8557 0.82482 0.0
H345 H 0.10319 0.90595 0.88319 0.0
H346 H 0.01414 0.8171 0.86095 0.0
C347 C 0.10264 0.90874 0.81207 0.0
C348 C 0.22738 0.27902 0.35332 0.0
C349 C 0.25998 0.24752 0.36264 0.0
H350 H 0.1976 0.31043 0.32144 0.0
C351 C 0.28471 0.21973 0.34613 0.0
H352 H 0.20747 0.3007 0.36557 0.0
C353 C 0.27938 0.22573 0.32084 0.0
C354 C 0.24869 0.25912 0.31152 0.0
H355 H 0.31001 0.19516 0.35271 0.0
H356 H 0.30056 0.2053 0.30859 0.0
C357 C 0.22154 0.2845 0.32803 0.0
C358 C 0.94231 0.21768 0.6618 0.0
C359 C 0.99454 0.24484 0.64518 0.0
H360 H 0.91266 0.20407 0.69941 0.0
C361 C 0.05872 0.27581 0.65436 0.0
H362 H 0.89237 0.19351 0.65533 0.0
C363 C 0.07044 0.28157 0.67962 0.0
C364 C 0.01822 0.25698 0.69624 0.0
H365 H 0.10009 0.29699 0.64202 0.0
H366 H 0.12038 0.30719 0.68609 0.0
C367 C 0.95403 0.22393 0.68707 0.0
C368 C 0.73521 0.9531 0.02048 0.0
C369 C 0.76611 0.01725 0.02975 0.0
H370 H 0.70412 0.89169 0.98866 0.0
C371 C 0.79329 0.0697 0.0132 0.0
H372 H 0.71401 0.91155 0.03276 0.0
C373 C 0.78721 0.05822 0.98793 0.0
C374 C 0.75433 0.99406 0.97866 0.0
H375 H 0.81739 0.11963 0.01975 0.0
H376 H 0.80712 0.09976 0.97564 0.0
C377 C 0.72963 0.94162 0.9952 0.0
C378 C 0.73434 0.78378 0.32101 0.0
C379 C 0.76511 0.7504 0.31176 0.0
H380 H 0.70339 0.81426 0.35282 0.0
C381 C 0.79206 0.72494 0.32832 0.0
H382 H 0.71332 0.80427 0.30872 0.0
C383 C 0.78593 0.73033 0.3536 0.0
C384 C 0.75326 0.76182 0.36285 0.0
H385 H 0.81604 0.699 0.32178 0.0
H386 H 0.80569 0.70858 0.36589 0.0
C387 C 0.72874 0.78969 0.34629 0.0
C388 C 0.954 0.73349 0.65471 0.0
C389 C 0.01814 0.7645 0.6455 0.0
H390 H 0.89249 0.70222 0.68648 0.0
C391 C 0.07044 0.79183 0.66209 0.0
H392 H 0.91256 0.71219 0.64239 0.0
C393 C 0.05885 0.78571 0.68735 0.0
C394 C 0.99471 0.75263 0.69657 0.0
H395 H 0.12036 0.81604 0.65559 0.0
H396 H 0.10029 0.80569 0.69967 0.0
C397 C 0.94241 0.72787 0.67998 0.0
C398 C 0.22189 0.94048 0.01302 0.0
C399 C 0.24901 0.9928 0.02963 0.0
H400 H 0.20809 0.91071 0.97542 0.0
C401 C 0.27984 0.05702 0.02044 0.0
H402 H 0.19784 0.89051 0.01951 0.0
C403 C 0.2854 0.0687 0.99517 0.0
C404 C 0.26075 0.01639 0.97857 0.0
H405 H 0.30099 0.09848 0.03277 0.0
H406 H 0.31084 0.11868 0.98869 0.0
C407 C 0.22795 0.95216 0.98776 0.0
loop_
_geom_bond_atom_site_label_1
_geom_bond_atom_site_label_2
_geom_bond_distance
_geom_bond_site_symmetry_2
_ccdc_geom_bond_type
O0 Cd1 2.223 . S
O0 C8 1.315 . S
Cd1 O0 2.223 . S
Cd1 O4 2.297 . S
Cd1 O5 2.439 . S
Cd1 O11 2.240 . S
Cd2 O3 2.240 . S
Cd2 O10 2.223 . S
Cd2 O12 2.297 . S
Cd2 O13 2.439 . S
O3 Cd2 2.240 . S
O3 C8 1.279 . S
O4 Cd1 2.297 . S
O4 C6 1.247 . S
O5 Cd1 2.439 . S
O5 C6 1.208 . S
C6 O4 1.247 . S
C6 O5 1.208 . S
C7 O12 1.247 . S
C7 O13 1.208 . S
C8 O0 1.315 . S
C8 O3 1.279 . S
C9 O10 1.315 . S
C9 O11 1.279 . S
O10 Cd2 2.223 . S
O10 C9 1.315 . S
O11 Cd1 2.240 . S
O11 C9 1.279 . S
O12 Cd2 2.297 . S
O12 C7 1.247 . S
O13 Cd2 2.439 . S
O13 C7 1.208 . S
O14 Cd15 2.223 . S
O14 C22 1.315 1_455 S
Cd15 O14 2.223 . S
Cd15 O18 2.297 . S
Cd15 O19 2.439 1_455 S
Cd15 O25 2.240 . S
Cd16 O17 2.240 . S
Cd16 O24 2.223 1_655 S
Cd16 O26 2.297 . S
Cd16 O27 2.439 . S
O17 Cd16 2.240 . S
O17 C22 1.279 . S
O18 Cd15 2.297 . S
O18 C20 1.247 1_455 S
O19 Cd15 2.439 1_655 S
O19 C20 1.208 . S
C20 O18 1.247 1_655 S
C20 O19 1.208 . S
C21 O26 1.247 . S
C21 O27 1.208 . S
C22 O14 1.315 1_655 S
C22 O17 1.279 . S
C23 O24 1.315 . S
C23 O25 1.279 . S
O24 Cd16 2.223 1_455 S
O24 C23 1.315 . S
O25 Cd15 2.240 . S
O25 C23 1.279 . S
O26 Cd16 2.297 . S
O26 C21 1.247 . S
O27 Cd16 2.439 . S
O27 C21 1.208 . S
O28 Cd29 2.223 . S
O28 C36 1.315 1_545 S
Cd29 O28 2.223 . S
Cd29 O32 2.297 . S
Cd29 O33 2.439 1_545 S
Cd29 O39 2.240 . S
Cd30 O31 2.240 . S
Cd30 O38 2.223 1_565 S
Cd30 O40 2.297 . S
Cd30 O41 2.439 . S
O31 Cd30 2.240 . S
O31 C36 1.279 . S
O32 Cd29 2.297 . S
O32 C34 1.247 1_545 S
O33 Cd29 2.439 1_565 S
O33 C34 1.208 . S
C34 O32 1.247 1_565 S
C34 O33 1.208 . S
C35 O40 1.247 . S
C35 O41 1.208 . S
C36 O28 1.315 1_565 S
C36 O31 1.279 . S
C37 O38 1.315 . S
C37 O39 1.279 . S
O38 Cd30 2.223 1_545 S
O38 C37 1.315 . S
O39 Cd29 2.240 . S
O39 C37 1.279 . S
O40 Cd30 2.297 . S
O40 C35 1.247 . S
O41 Cd30 2.439 . S
O41 C35 1.208 . S
O42 Cd43 2.223 . S
O42 C50 1.315 . S
Cd43 O42 2.223 . S
Cd43 O46 2.297 . S
Cd43 O47 2.439 . S
Cd43 O53 2.240 . S
Cd44 O45 2.240 . S
Cd44 O52 2.223 . S
Cd44 O54 2.297 . S
Cd44 O55 2.439 . S
O45 Cd44 2.240 . S
O45 C50 1.279 . S
O46 Cd43 2.297 . S
O46 C48 1.247 . S
O47 Cd43 2.439 . S
O47 C48 1.208 . S
C48 O46 1.247 . S
C48 O47 1.208 . S
C49 O54 1.247 . S
C49 O55 1.208 . S
C50 O42 1.315 . S
C50 O45 1.279 . S
C51 O52 1.315 . S
C51 O53 1.279 . S
O52 Cd44 2.223 . S
O52 C51 1.315 . S
O53 Cd43 2.240 . S
O53 C51 1.279 . S
O54 Cd44 2.297 . S
O54 C49 1.247 . S
O55 Cd44 2.439 . S
O55 C49 1.208 . S
O56 Cd57 2.223 . S
O56 C64 1.315 1_655 S
Cd57 O56 2.223 . S
Cd57 O60 2.297 . S
Cd57 O61 2.439 1_655 S
Cd57 O67 2.240 . S
Cd58 O59 2.240 . S
Cd58 O66 2.223 1_455 S
Cd58 O68 2.297 . S
Cd58 O69 2.439 . S
O59 Cd58 2.240 . S
O59 C64 1.279 . S
O60 Cd57 2.297 . S
O60 C62 1.247 1_655 S
O61 Cd57 2.439 1_455 S
O61 C62 1.208 . S
C62 O60 1.247 1_455 S
C62 O61 1.208 . S
C63 O68 1.247 . S
C63 O69 1.208 . S
C64 O56 1.315 1_455 S
C64 O59 1.279 . S
C65 O66 1.315 . S
C65 O67 1.279 . S
O66 Cd58 2.223 1_655 S
O66 C65 1.315 . S
O67 Cd57 2.240 . S
O67 C65 1.279 . S
O68 Cd58 2.297 . S
O68 C63 1.247 . S
O69 Cd58 2.439 . S
O69 C63 1.208 . S
O70 Cd71 2.223 . S
O70 C78 1.315 1_565 S
Cd71 O70 2.223 . S
Cd71 O74 2.297 . S
Cd71 O75 2.439 1_565 S
Cd71 O81 2.240 . S
Cd72 O73 2.240 . S
Cd72 O80 2.223 1_545 S
Cd72 O82 2.297 . S
Cd72 O83 2.439 . S
O73 Cd72 2.240 . S
O73 C78 1.279 . S
O74 Cd71 2.297 . S
O74 C76 1.247 1_565 S
O75 Cd71 2.439 1_545 S
O75 C76 1.208 . S
C76 O74 1.247 1_545 S
C76 O75 1.208 . S
C77 O82 1.247 . S
C77 O83 1.208 . S
C78 O70 1.315 1_545 S
C78 O73 1.279 . S
C79 O80 1.315 . S
C79 O81 1.279 . S
O80 Cd72 2.223 1_565 S
O80 C79 1.315 . S
O81 Cd71 2.240 . S
O81 C79 1.279 . S
O82 Cd72 2.297 . S
O82 C77 1.247 . S
O83 Cd72 2.439 . S
O83 C77 1.208 . S
O84 Cd85 2.223 . S
O84 C92 1.315 . S
Cd85 O84 2.223 . S
Cd85 O88 2.297 . S
Cd85 O89 2.439 . S
Cd85 O95 2.240 . S
Cd86 O87 2.240 . S
Cd86 O94 2.223 . S
Cd86 O96 2.297 . S
Cd86 O97 2.439 . S
O87 Cd86 2.240 . S
O87 C92 1.279 . S
O88 Cd85 2.297 . S
O88 C90 1.247 . S
O89 Cd85 2.439 . S
O89 C90 1.208 . S
C90 O88 1.247 . S
C90 O89 1.208 . S
C91 O96 1.247 . S
C91 O97 1.208 . S
C92 O84 1.315 . S
C92 O87 1.279 . S
C93 O94 1.315 . S
C93 O95 1.279 . S
O94 Cd86 2.223 . S
O94 C93 1.315 . S
O95 Cd85 2.240 . S
O95 C93 1.279 . S
O96 Cd86 2.297 . S
O96 C91 1.247 . S
O97 Cd86 2.439 . S
O97 C91 1.208 . S
O98 Cd99 2.223 . S
O98 C106 1.315 1_455 S
Cd99 O98 2.223 . S
Cd99 O102 2.297 . S
Cd99 O103 2.439 1_455 S
Cd99 O109 2.240 . S
Cd100 O101 2.240 . S
Cd100 O108 2.223 1_655 S
Cd100 O110 2.297 . S
Cd100 O111 2.439 . S
O101 Cd100 2.240 . S
O101 C106 1.279 . S
O102 Cd99 2.297 . S
O102 C104 1.247 1_455 S
O103 Cd99 2.439 1_655 S
O103 C104 1.208 . S
C104 O102 1.247 1_655 S
C104 O103 1.208 . S
C105 O110 1.247 . S
C105 O111 1.208 . S
C106 O98 1.315 1_655 S
C106 O101 1.279 . S
C107 O108 1.315 . S
C107 O109 1.279 . S
O108 Cd100 2.223 1_455 S
O108 C107 1.315 . S
O109 Cd99 2.240 . S
O109 C107 1.279 . S
O110 Cd100 2.297 . S
O110 C105 1.247 . S
O111 Cd100 2.439 . S
O111 C105 1.208 . S
O112 Cd113 2.223 . S
O112 C120 1.315 1_545 S
Cd113 O112 2.223 . S
Cd113 O116 2.297 . S
Cd113 O117 2.439 1_545 S
Cd113 O123 2.240 . S
Cd114 O115 2.240 . S
Cd114 O122 2.223 1_565 S
Cd114 O124 2.297 . S
Cd114 O125 2.439 . S
O115 Cd114 2.240 . S
O115 C120 1.279 . S
O116 Cd113 2.297 . S
O116 C118 1.247 1_545 S
O117 Cd113 2.439 1_565 S
O117 C118 1.208 . S
C118 O116 1.247 1_565 S
C118 O117 1.208 . S
C119 O124 1.247 . S
C119 O125 1.208 . S
C120 O112 1.315 1_565 S
C120 O115 1.279 . S
C121 O122 1.315 . S
C121 O123 1.279 . S
O122 Cd114 2.223 1_545 S
O122 C121 1.315 . S
O123 Cd113 2.240 . S
O123 C121 1.279 . S
O124 Cd114 2.297 . S
O124 C119 1.247 . S
O125 Cd114 2.439 . S
O125 C119 1.208 . S
O126 Cd127 2.223 . S
O126 C134 1.315 . S
Cd127 O126 2.223 . S
Cd127 O130 2.297 . S
Cd127 O131 2.439 . S
Cd127 O137 2.240 . S
Cd128 O129 2.240 . S
Cd128 O136 2.223 . S
Cd128 O138 2.297 . S
Cd128 O139 2.439 . S
O129 Cd128 2.240 . S
O129 C134 1.279 . S
O130 Cd127 2.297 . S
O130 C132 1.247 . S
O131 Cd127 2.439 . S
O131 C132 1.208 . S
C132 O130 1.247 . S
C132 O131 1.208 . S
C133 O138 1.247 . S
C133 O139 1.208 . S
C134 O126 1.315 . S
C134 O129 1.279 . S
C135 O136 1.315 . S
C135 O137 1.279 . S
O136 Cd128 2.223 . S
O136 C135 1.315 . S
O137 Cd127 2.240 . S
O137 C135 1.279 . S
O138 Cd128 2.297 . S
O138 C133 1.247 . S
O139 Cd128 2.439 . S
O139 C133 1.208 . S
O140 Cd141 2.223 . S
O140 C148 1.315 1_655 S
Cd141 O140 2.223 . S
Cd141 O144 2.297 . S
Cd141 O145 2.439 1_655 S
Cd141 O151 2.240 . S
Cd142 O143 2.240 . S
Cd142 O150 2.223 1_455 S
Cd142 O152 2.297 . S
Cd142 O153 2.439 . S
O143 Cd142 2.240 . S
O143 C148 1.279 . S
O144 Cd141 2.297 . S
O144 C146 1.247 1_655 S
O145 Cd141 2.439 1_455 S
O145 C146 1.208 . S
C146 O144 1.247 1_455 S
C146 O145 1.208 . S
C147 O152 1.247 . S
C147 O153 1.208 . S
C148 O140 1.315 1_455 S
C148 O143 1.279 . S
C149 O150 1.315 . S
C149 O151 1.279 . S
O150 Cd142 2.223 1_655 S
O150 C149 1.315 . S
O151 Cd141 2.240 . S
O151 C149 1.279 . S
O152 Cd142 2.297 . S
O152 C147 1.247 . S
O153 Cd142 2.439 . S
O153 C147 1.208 . S
O154 Cd155 2.223 . S
O154 C162 1.315 1_565 S
Cd155 O154 2.223 . S
Cd155 O158 2.297 . S
Cd155 O159 2.439 1_565 S
Cd155 O165 2.240 . S
Cd156 O157 2.240 . S
Cd156 O164 2.223 1_545 S
Cd156 O166 2.297 . S
Cd156 O167 2.439 . S
O157 Cd156 2.240 . S
O157 C162 1.279 . S
O158 Cd155 2.297 . S
O158 C160 1.247 1_565 S
O159 Cd155 2.439 1_545 S
O159 C160 1.208 . S
C160 O158 1.247 1_545 S
C160 O159 1.208 . S
C161 O166 1.247 . S
C161 O167 1.208 . S
C162 O154 1.315 1_545 S
C162 O157 1.279 . S
C163 O164 1.315 . S
C163 O165 1.279 . S
O164 Cd156 2.223 1_565 S
O164 C163 1.315 . S
O165 Cd155 2.240 . S
O165 C163 1.279 . S
O166 Cd156 2.297 . S
O166 C161 1.247 . S
O167 Cd156 2.439 . S
O167 C161 1.208 . S
C168 C169 1.387 . S
C168 H172 0.950 . S
C168 C177 1.390 1_655 S
C169 C168 1.387 . S
C169 C171 1.387 . S
H170 C177 0.950 . S
C171 C169 1.387 . S
C171 C173 1.390 1_655 S
C171 H175 0.950 . S
H172 C168 0.950 . S
C173 C171 1.390 1_455 S
C173 C174 1.387 . S
C173 H176 0.950 . S
C174 C173 1.387 . S
C174 C177 1.387 . S
H175 C171 0.950 . S
H176 C173 0.950 . S
C177 C168 1.390 1_455 S
C177 H170 0.950 . S
C177 C174 1.387 . S
C178 C179 1.387 . S
C178 H182 0.950 . S
C178 C187 1.390 1_545 S
C179 C178 1.387 . S
C179 C181 1.387 . S
H180 C187 0.950 . S
C181 C179 1.387 . S
C181 C183 1.390 1_545 S
C181 H185 0.950 . S
H182 C178 0.950 . S
C183 C181 1.390 1_565 S
C183 C184 1.387 . S
C183 H186 0.950 . S
C184 C183 1.387 . S
C184 C187 1.387 . S
H185 C181 0.950 . S
H186 C183 0.950 . S
C187 C178 1.390 1_565 S
C187 H180 0.950 . S
C187 C184 1.387 . S
C188 C189 1.387 . S
C188 H192 0.950 . S
C188 C197 1.390 . S
C189 C188 1.387 . S
C189 C191 1.387 . S
H190 C197 0.950 . S
C191 C189 1.387 . S
C191 C193 1.390 . S
C191 H195 0.950 . S
H192 C188 0.950 . S
C193 C191 1.390 . S
C193 C194 1.387 . S
C193 H196 0.950 . S
C194 C193 1.387 . S
C194 C197 1.387 . S
H195 C191 0.950 . S
H196 C193 0.950 . S
C197 C188 1.390 . S
C197 H190 0.950 . S
C197 C194 1.387 . S
C198 C199 1.387 . S
C198 H202 0.950 . S
C198 C207 1.390 1_655 S
C199 C198 1.387 . S
C199 C201 1.387 . S
H200 C207 0.950 . S
C201 C199 1.387 . S
C201 C203 1.390 1_655 S
C201 H205 0.950 . S
H202 C198 0.950 . S
C203 C201 1.390 1_455 S
C203 C204 1.387 . S
C203 H206 0.950 . S
C204 C203 1.387 . S
C204 C207 1.387 . S
H205 C201 0.950 . S
H206 C203 0.950 . S
C207 C198 1.390 1_455 S
C207 H200 0.950 . S
C207 C204 1.387 . S
C208 C209 1.387 . S
C208 H212 0.950 . S
C208 C217 1.390 1_545 S
C209 C208 1.387 . S
C209 C211 1.387 . S
H210 C217 0.950 . S
C211 C209 1.387 . S
C211 C213 1.390 1_545 S
C211 H215 0.950 . S
H212 C208 0.950 . S
C213 C211 1.390 1_565 S
C213 C214 1.387 . S
C213 H216 0.950 . S
C214 C213 1.387 . S
C214 C217 1.387 . S
H215 C211 0.950 . S
H216 C213 0.950 . S
C217 C208 1.390 1_565 S
C217 H210 0.950 . S
C217 C214 1.387 . S
C218 C219 1.387 . S
C218 H222 0.950 . S
C218 C227 1.390 . S
C219 C218 1.387 . S
C219 C221 1.387 . S
H220 C227 0.950 . S
C221 C219 1.387 . S
C221 C223 1.390 . S
C221 H225 0.950 . S
H222 C218 0.950 . S
C223 C221 1.390 . S
C223 C224 1.387 . S
C223 H226 0.950 . S
C224 C223 1.387 . S
C224 C227 1.387 . S
H225 C221 0.950 . S
H226 C223 0.950 . S
C227 C218 1.390 . S
C227 H220 0.950 . S
C227 C224 1.387 . S
C228 C229 1.387 . S
C228 H232 0.950 . S
C228 C237 1.390 . S
C229 C228 1.387 . S
C229 C231 1.387 . S
H230 C237 0.950 . S
C231 C229 1.387 . S
C231 C233 1.390 . S
C231 H235 0.950 . S
H232 C228 0.950 . S
C233 C231 1.390 . S
C233 C234 1.387 . S
C233 H236 0.950 . S
C234 C233 1.387 . S
C234 C237 1.387 . S
H235 C231 0.950 . S
H236 C233 0.950 . S
C237 C228 1.390 . S
C237 H230 0.950 . S
C237 C234 1.387 . S
C238 C239 1.387 . S
C238 H242 0.950 . S
C238 C247 1.390 1_455 S
C239 C238 1.387 . S
C239 C241 1.387 . S
H240 C247 0.950 . S
C241 C239 1.387 . S
C241 C243 1.390 1_455 S
C241 H245 0.950 . S
H242 C238 0.950 . S
C243 C241 1.390 1_655 S
C243 C244 1.387 . S
C243 H246 0.950 . S
C244 C243 1.387 . S
C244 C247 1.387 . S
H245 C241 0.950 . S
H246 C243 0.950 . S
C247 C238 1.390 1_655 S
C247 H240 0.950 . S
C247 C244 1.387 . S
C248 C249 1.387 . S
C248 H252 0.950 . S
C248 C257 1.390 1_545 S
C249 C248 1.387 . S
C249 C251 1.387 . S
H250 C257 0.950 . S
C251 C249 1.387 . S
C251 C253 1.390 1_545 S
C251 H255 0.950 . S
H252 C248 0.950 . S
C253 C251 1.390 1_565 S
C253 C254 1.387 . S
C253 H256 0.950 . S
C254 C253 1.387 . S
C254 C257 1.387 . S
H255 C251 0.950 . S
H256 C253 0.950 . S
C257 C248 1.390 1_565 S
C257 H250 0.950 . S
C257 C254 1.387 . S
C258 C259 1.387 . S
C258 H262 0.950 . S
C258 C267 1.390 . S
C259 C258 1.387 . S
C259 C261 1.387 . S
H260 C267 0.950 . S
C261 C259 1.387 . S
C261 C263 1.390 . S
C261 H265 0.950 . S
H262 C258 0.950 . S
C263 C261 1.390 . S
C263 C264 1.387 . S
C263 H266 0.950 . S
C264 C263 1.387 . S
C264 C267 1.387 . S
H265 C261 0.950 . S
H266 C263 0.950 . S
C267 C258 1.390 . S
C267 H260 0.950 . S
C267 C264 1.387 . S
C268 C269 1.387 . S
C268 H272 0.950 . S
C268 C277 1.390 1_655 S
C269 C268 1.387 . S
C269 C271 1.387 . S
H270 C277 0.950 . S
C271 C269 1.387 . S
C271 C273 1.390 1_655 S
C271 H275 0.950 . S
H272 C268 0.950 . S
C273 C271 1.390 1_455 S
C273 C274 1.387 . S
C273 H276 0.950 . S
C274 C273 1.387 . S
C274 C277 1.387 . S
H275 C271 0.950 . S
H276 C273 0.950 . S
C277 C268 1.390 1_455 S
C277 H270 0.950 . S
C277 C274 1.387 . S
C278 C279 1.387 . S
C278 H282 0.950 . S
C278 C287 1.390 1_565 S
C279 C278 1.387 . S
C279 C281 1.387 . S
H280 C287 0.950 . S
C281 C279 1.387 . S
C281 C283 1.390 1_565 S
C281 H285 0.950 . S
H282 C278 0.950 . S
C283 C281 1.390 1_545 S
C283 C284 1.387 . S
C283 H286 0.950 . S
C284 C283 1.387 . S
C284 C287 1.387 . S
H285 C281 0.950 . S
H286 C283 0.950 . S
C287 C278 1.390 1_545 S
C287 H280 0.950 . S
C287 C284 1.387 . S
C288 C289 1.387 . S
C288 H292 0.950 . S
C288 C297 1.390 . S
C289 C288 1.387 . S
C289 C291 1.387 . S
H290 C297 0.950 . S
C291 C289 1.387 . S
C291 C293 1.390 . S
C291 H295 0.950 . S
H292 C288 0.950 . S
C293 C291 1.390 . S
C293 C294 1.387 . S
C293 H296 0.950 . S
C294 C293 1.387 . S
C294 C297 1.387 . S
H295 C291 0.950 . S
H296 C293 0.950 . S
C297 C288 1.390 . S
C297 H290 0.950 . S
C297 C294 1.387 . S
C298 C299 1.387 . S
C298 H302 0.950 . S
C298 C307 1.390 . S
C299 C298 1.387 . S
C299 C301 1.387 . S
H300 C307 0.950 . S
C301 C299 1.387 . S
C301 C303 1.390 . S
C301 H305 0.950 . S
H302 C298 0.950 . S
C303 C301 1.390 . S
C303 C304 1.387 . S
C303 H306 0.950 . S
C304 C303 1.387 . S
C304 C307 1.387 . S
H305 C301 0.950 . S
H306 C303 0.950 . S
C307 C298 1.390 . S
C307 H300 0.950 . S
C307 C304 1.387 . S
C308 C309 1.387 . S
C308 H312 0.950 . S
C308 C317 1.390 . S
C309 C308 1.387 . S
C309 C311 1.387 . S
H310 C317 0.950 . S
C311 C309 1.387 . S
C311 C313 1.390 . S
C311 H315 0.950 . S
H312 C308 0.950 . S
C313 C311 1.390 . S
C313 C314 1.387 . S
C313 H316 0.950 . S
C314 C313 1.387 . S
C314 C317 1.387 . S
H315 C311 0.950 . S
H316 C313 0.950 . S
C317 C308 1.390 . S
C317 H310 0.950 . S
C317 C314 1.387 . S
C318 C319 1.387 . S
C318 H322 0.950 . S
C318 C327 1.390 . S
C319 C318 1.387 . S
C319 C321 1.387 . S
H320 C327 0.950 . S
C321 C319 1.387 . S
C321 C323 1.390 . S
C321 H325 0.950 . S
H322 C318 0.950 . S
C323 C321 1.390 . S
C323 C324 1.387 . S
C323 H326 0.950 . S
C324 C323 1.387 . S
C324 C327 1.387 . S
H325 C321 0.950 . S
H326 C323 0.950 . S
C327 C318 1.390 . S
C327 H320 0.950 . S
C327 C324 1.387 . S
C328 C329 1.387 . S
C328 H332 0.950 . S
C328 C337 1.390 . S
C329 C328 1.387 . S
C329 C331 1.387 . S
H330 C337 0.950 . S
C331 C329 1.387 . S
C331 C333 1.390 . S
C331 H335 0.950 . S
H332 C328 0.950 . S
C333 C331 1.390 . S
C333 C334 1.387 . S
C333 H336 0.950 . S
C334 C333 1.387 . S
C334 C337 1.387 . S
H335 C331 0.950 . S
H336 C333 0.950 . S
C337 C328 1.390 . S
C337 H330 0.950 . S
C337 C334 1.387 . S
C338 C339 1.387 . S
C338 H342 0.950 . S
C338 C347 1.390 . S
C339 C338 1.387 . S
C339 C341 1.387 . S
H340 C347 0.950 . S
C341 C339 1.387 . S
C341 C343 1.390 . S
C341 H345 0.950 . S
H342 C338 0.950 . S
C343 C341 1.390 . S
C343 C344 1.387 . S
C343 H346 0.950 . S
C344 C343 1.387 . S
C344 C347 1.387 . S
H345 C341 0.950 . S
H346 C343 0.950 . S
C347 C338 1.390 . S
C347 H340 0.950 . S
C347 C344 1.387 . S
C348 C349 1.387 . S
C348 H352 0.950 . S
C348 C357 1.390 . S
C349 C348 1.387 . S
C349 C351 1.387 . S
H350 C357 0.950 . S
C351 C349 1.387 . S
C351 C353 1.390 . S
C351 H355 0.950 . S
H352 C348 0.950 . S
C353 C351 1.390 . S
C353 C354 1.387 . S
C353 H356 0.950 . S
C354 C353 1.387 . S
C354 C357 1.387 . S
H355 C351 0.950 . S
H356 C353 0.950 . S
C357 C348 1.390 . S
C357 H350 0.950 . S
C357 C354 1.387 . S
C358 C359 1.387 . S
C358 H362 0.950 . S
C358 C367 1.390 . S
C359 C358 1.387 . S
C359 C361 1.387 1_655 S
H360 C367 0.950 . S
C361 C359 1.387 1_455 S
C361 C363 1.390 . S
C361 H365 0.950 . S
H362 C358 0.950 . S
C363 C361 1.390 . S
C363 C364 1.387 . S
C363 H366 0.950 . S
C364 C363 1.387 . S
C364 C367 1.387 1_455 S
H365 C361 0.950 . S
H366 C363 0.950 . S
C367 C358 1.390 . S
C367 H360 0.950 . S
C367 C364 1.387 1_655 S
C368 C369 1.387 . S
C368 H372 0.950 . S
C368 C377 1.390 1_544 S
C369 C368 1.387 . S
C369 C371 1.387 . S
H370 C377 0.950 . S
C371 C369 1.387 . S
C371 C373 1.390 1_544 S
C371 H375 0.950 . S
H372 C368 0.950 . S
C373 C371 1.390 1_566 S
C373 C374 1.387 . S
C373 H376 0.950 . S
C374 C373 1.387 . S
C374 C377 1.387 . S
H375 C371 0.950 . S
H376 C373 0.950 . S
C377 C368 1.390 1_566 S
C377 H370 0.950 . S
C377 C374 1.387 . S
C378 C379 1.387 . S
C378 H382 0.950 . S
C378 C387 1.390 . S
C379 C378 1.387 . S
C379 C381 1.387 . S
H380 C387 0.950 . S
C381 C379 1.387 . S
C381 C383 1.390 . S
C381 H385 0.950 . S
H382 C378 0.950 . S
C383 C381 1.390 . S
C383 C384 1.387 . S
C383 H386 0.950 . S
C384 C383 1.387 . S
C384 C387 1.387 . S
H385 C381 0.950 . S
H386 C383 0.950 . S
C387 C378 1.390 . S
C387 H380 0.950 . S
C387 C384 1.387 . S
C388 C389 1.387 1_655 S
C388 H392 0.950 . S
C388 C397 1.390 . S
C389 C388 1.387 1_455 S
C389 C391 1.387 . S
H390 C397 0.950 . S
C391 C389 1.387 . S
C391 C393 1.390 . S
C391 H395 0.950 . S
H392 C388 0.950 . S
C393 C391 1.390 . S
C393 C394 1.387 1_455 S
C393 H396 0.950 . S
C394 C393 1.387 1_655 S
C394 C397 1.387 . S
H395 C391 0.950 . S
H396 C393 0.950 . S
C397 C388 1.390 . S
C397 H390 0.950 . S
C397 C394 1.387 . S
C398 C399 1.387 . S
C398 H402 0.950 . S
C398 C407 1.390 1_564 S
C399 C398 1.387 . S
C399 C401 1.387 . S
H400 C407 0.950 . S
C401 C399 1.387 . S
C401 C403 1.390 1_564 S
C401 H405 0.950 . S
H402 C398 0.950 . S
C403 C401 1.390 1_546 S
C403 C404 1.387 . S
C403 H406 0.950 . S
C404 C403 1.387 . S
C404 C407 1.387 . S
H405 C401 0.950 . S
H406 C403 0.950 . S
C407 C398 1.390 1_546 S
C407 H400 0.950 . S
C407 C404 1.387 . S
C169 C161 1.520 . S
C174 C7 1.520 . S
C179 C21 1.520 . S
C184 C91 1.520 . S
C189 C35 1.523 . S
C194 C105 1.523 . S
C199 C49 1.520 . S
C204 C119 1.520 . S
C209 C133 1.523 . S
C214 C63 1.523 . S
C219 C77 1.522 . S
C224 C147 1.522 . S
C229 C50 1.231 . S
C234 C8 1.231 . S
C239 C64 1.230 . S
C244 C22 1.230 . S
C249 C78 1.231 . S
C254 C36 1.231 . S
C259 C92 1.229 . S
C264 C134 1.229 . S
C269 C106 1.229 . S
C274 C148 1.229 . S
C279 C120 1.230 . S
C284 C162 1.230 . S
C289 C121 1.238 . S
C294 C9 1.240 . S
C299 C23 1.239 . S
C304 C135 1.239 . S
C309 C149 1.238 . S
C314 C37 1.241 . S
C319 C163 1.239 . S
C324 C51 1.240 . S
C329 C93 1.239 . S
C334 C65 1.239 . S
C339 C79 1.238 . S
C344 C107 1.240 . S
C349 C132 1.584 . S
C354 C6 1.584 . S
C359 C20 1.586 . S
C364 C146 1.586 . S
C369 C160 1.588 . S
C374 C34 1.588 . S
C379 C48 1.588 . S
C384 C90 1.588 . S
C389 C62 1.584 . S
C394 C104 1.584 . S
C399 C118 1.584 . S
C404 C76 1.584 . S
