# Generated by pormake.
# Topology snz, (6)-cn, num edge types: 1
# Building blocks:
#     Node 0, Type 0, BuildingBlock: NUHQIS_clean_sbu_0, # of connection points: 6
#     Node 1, Type 0, BuildingBlock: NUHQIS_clean_sbu_0, # of connection points: 6
#     Node 2, Type 0, BuildingBlock: NUHQIS_clean_sbu_0, # of connection points: 6
#     Node 3, Type 0, BuildingBlock: NUHQIS_clean_sbu_0, # of connection points: 6
#     Node 4, Type 0, BuildingBlock: NUHQIS_clean_sbu_0, # of connection points: 6
#     Node 5, Type 0, BuildingBlock: NUHQIS_clean_sbu_0, # of connection points: 6
#     Node 6, Type 0, BuildingBlock: NUHQIS_clean_sbu_0, # of connection points: 6
#     Node 7, Type 0, BuildingBlock: NUHQIS_clean_sbu_0, # of connection points: 6
#     Node 8, Type 0, BuildingBlock: NUHQIS_clean_sbu_0, # of connection points: 6
#     Edge 9, Type (0, 0), BuildingBlock: XUDNAN_clean_linker_2, # of connection points: 2
#     Edge 10, Type (0, 0), BuildingBlock: XUDNAN_clean_linker_2, # of connection points: 2
#     Edge 11, Type (0, 0), BuildingBlock: XUDNAN_clean_linker_2, # of connection points: 2
#     Edge 12, Type (0, 0), BuildingBlock: XUDNAN_clean_linker_2, # of connection points: 2
#     Edge 13, Type (0, 0), BuildingBlock: XUDNAN_clean_linker_2, # of connection points: 2
#     Edge 14, Type (0, 0), BuildingBlock: XUDNAN_clean_linker_2, # of connection points: 2
#     Edge 15, Type (0, 0), BuildingBlock: XUDNAN_clean_linker_2, # of connection points: 2
#     Edge 16, Type (0, 0), BuildingBlock: XUDNAN_clean_linker_2, # of connection points: 2
#     Edge 17, Type (0, 0), BuildingBlock: XUDNAN_clean_linker_2, # of connection points: 2
#     Edge 18, Type (0, 0), BuildingBlock: XUDNAN_clean_linker_2, # of connection points: 2
#     Edge 19, Type (0, 0), BuildingBlock: XUDNAN_clean_linker_2, # of connection points: 2
#     Edge 20, Type (0, 0), BuildingBlock: XUDNAN_clean_linker_2, # of connection points: 2
#     Edge 21, Type (0, 0), BuildingBlock: XUDNAN_clean_linker_2, # of connection points: 2
#     Edge 22, Type (0, 0), BuildingBlock: XUDNAN_clean_linker_2, # of connection points: 2
#     Edge 23, Type (0, 0), BuildingBlock: XUDNAN_clean_linker_2, # of connection points: 2
#     Edge 24, Type (0, 0), BuildingBlock: XUDNAN_clean_linker_2, # of connection points: 2
#     Edge 25, Type (0, 0), BuildingBlock: XUDNAN_clean_linker_2, # of connection points: 2
#     Edge 26, Type (0, 0), BuildingBlock: XUDNAN_clean_linker_2, # of connection points: 2
#     Edge 27, Type (0, 0), BuildingBlock: XUDNAN_clean_linker_2, # of connection points: 2
#     Edge 28, Type (0, 0), BuildingBlock: XUDNAN_clean_linker_2, # of connection points: 2
#     Edge 29, Type (0, 0), BuildingBlock: XUDNAN_clean_linker_2, # of connection points: 2
#     Edge 30, Type (0, 0), BuildingBlock: XUDNAN_clean_linker_2, # of connection points: 2
#     Edge 31, Type (0, 0), BuildingBlock: XUDNAN_clean_linker_2, # of connection points: 2
#     Edge 32, Type (0, 0), BuildingBlock: XUDNAN_clean_linker_2, # of connection points: 2
#     Edge 33, Type (0, 0), BuildingBlock: XUDNAN_clean_linker_2, # of connection points: 2
#     Edge 34, Type (0, 0), BuildingBlock: XUDNAN_clean_linker_2, # of connection points: 2
#     Edge 35, Type (0, 0), BuildingBlock: XUDNAN_clean_linker_2, # of connection points: 2
# Relax obj value: 0.396
# Max RMSD: 0.228
# Mean RMSD: 0.150
data_MOF--net-snz--node1-NUHQIS_clean_sbu_0--edge1-XUDNAN_clean_linker_2
_symmetry_space_group_name_H-M    P1
_symmetry_Int_Tables_number       1
_symmetry_cell_setting            triclinic
loop_
_symmetry_equiv_pos_as_xyz
'x, y, z'
_cell_length_a     69.015202
_cell_length_b     54.312364
_cell_length_c     15.866586
_cell_angle_alpha  96.116221
_cell_angle_beta   96.607714
_cell_angle_gamma 121.46032
loop_
_atom_site_label
_atom_site_type_symbol
_atom_site_fract_x
_atom_site_fract_y
_atom_site_fract_z
_atom_type_partial_charge
Tb0 Tb 0.12354 0.49812 0.27675 0.0
Eu1 Eu 0.08074 0.509 0.25296 0.0
C2 C 0.10568 0.50891 0.09089 0.0
C3 C 0.13451 0.56478 0.30525 0.0
C4 C 0.16326 0.47149 0.34708 0.0
C5 C 0.19544 0.47236 0.43272 0.0
C6 C 0.18679 0.48638 0.3866 0.0
C7 C 0.1485 0.44198 0.3547 0.0
C8 C 0.15721 0.42783 0.4009 0.0
C9 C 0.18084 0.44287 0.4409 0.0
C10 C 0.15519 0.48696 0.29505 0.0
O11 O 0.11817 0.50289 0.41275 0.0
O12 O 0.08247 0.49715 0.38693 0.0
O13 O 0.06551 0.46119 0.19169 0.0
O14 O 0.09184 0.45492 0.27027 0.0
C15 C 0.09986 0.49988 0.4413 0.0
O16 O 0.06215 0.52847 0.30091 0.0
O17 O 0.04761 0.49784 0.17842 0.0
O18 O 0.09564 0.52014 0.13222 0.0
O19 O 0.11572 0.49719 0.13327 0.0
O20 O 0.1414 0.54644 0.28785 0.0
O21 O 0.11247 0.55515 0.30112 0.0
C22 C 0.07183 0.44375 0.21714 0.0
O23 O 0.13577 0.47115 0.2385 0.0
O24 O 0.15726 0.51062 0.33544 0.0
C25 C 0.03655 0.53296 0.1973 0.0
C26 C 1.01311 0.55948 0.13397 0.0
C27 C 1.01827 0.54314 1.07638 0.0
C28 C 0.02978 0.52992 0.10766 0.0
C29 C 0.03222 0.55027 0.25455 0.0
C30 C 1.02075 0.56343 0.2234 0.0
C31 C 0.0455 0.51568 0.23256 0.0
H32 H 0.21379 0.48463 0.46085 0.0
H33 H 0.19864 0.50896 0.38097 0.0
H34 H 0.13027 0.42978 0.32478 0.0
H35 H 0.14536 0.40523 0.40616 0.0
H36 H 1.01257 0.53951 1.00718 0.0
H37 H 0.03269 0.51657 1.06161 0.0
H38 H 0.03706 0.55288 0.32387 0.0
H39 H 1.01749 0.57633 0.2697 0.0
Tb40 Tb 0.62432 0.52839 1.03724 0.0
Eu41 Eu 0.57454 0.52345 1.01312 0.0
C42 C 0.59938 0.52265 0.20218 0.0
C43 C 0.57566 0.46502 0.99176 0.0
C44 C 0.68352 0.54244 1.01125 0.0
C45 C 0.71181 0.53434 0.9573 0.0
C46 C 0.69144 0.52396 0.98965 0.0
C47 C 0.69661 0.57183 1.00025 0.0
C48 C 0.71716 0.58232 0.96785 0.0
C49 C 0.72497 0.56362 0.94538 0.0
C50 C 0.6623 0.53056 1.04892 0.0
O51 O 0.6155 0.52628 0.8942 0.0
O52 O 0.5846 0.53212 0.88317 0.0
O53 O 0.60111 0.57243 1.04647 0.0
O54 O 0.63556 0.57517 1.04689 0.0
C55 C 0.59993 0.52944 0.84724 0.0
O56 O 0.53812 0.50282 0.95156 0.0
O57 O 0.55341 0.53841 1.06237 0.0
O58 O 0.58025 0.51388 0.14652 0.0
O59 O 0.61904 0.53163 0.17447 0.0
O60 O 0.59734 0.4814 1.03625 0.0
O61 O 0.56513 0.47752 0.96244 0.0
C62 C 0.62379 0.58795 1.05429 0.0
O63 O 0.65949 0.5491 0.09636 0.0
O64 O 0.64281 0.50948 0.99937 0.0
C65 C 0.51436 0.49959 1.0535 0.0
C66 C 0.47698 0.46622 0.1358 0.0
C67 C 0.47842 0.45378 1.05615 0.0
C68 C 0.49686 0.47026 1.01545 0.0
C69 C 0.51284 0.51205 0.13292 0.0
C70 C 0.49445 0.49556 0.17369 0.0
C71 C 0.53421 0.51713 1.01148 0.0
H72 H 0.7174 0.51937 0.94249 0.0
H73 H 0.6819 0.50136 0.99855 0.0
H74 H 0.69101 0.5867 1.01674 0.0
H75 H 0.72671 0.60492 0.9591 0.0
H76 H 0.46538 0.43117 1.02549 0.0
H77 H 0.49742 0.45993 0.95428 0.0
H78 H 0.52589 0.53465 0.16375 0.0
H79 H 0.4937 0.506 0.23423 0.0
Tb80 Tb 0.57186 0.05775 0.85285 0.0
Eu81 Eu 0.6259 0.11517 0.89268 0.0
C82 C 0.59655 0.08257 0.69221 0.0
C83 C 0.61265 0.04796 0.88122 0.0
C84 C 0.51307 1.0068 0.88781 0.0
C85 C 0.47739 0.9706 0.92825 0.0
C86 C 0.49338 0.97816 0.87346 0.0
C87 C 0.51658 0.02783 0.95756 0.0
C88 C 0.50069 1.02031 1.01244 0.0
C89 C 0.48085 0.99158 0.99862 0.0
C90 C 0.5305 1.01439 0.83298 0.0
O91 O 0.58284 0.06629 0.99465 0.0
O92 O 0.61573 0.11311 1.02836 0.0
O93 O 0.60204 0.1332 0.86796 0.0
O94 O 0.56878 0.09476 0.89649 0.0
C95 C 0.59895 0.08979 1.053 0.0
O96 O 0.6609 0.14271 0.97474 0.0
O97 O 0.65566 0.14878 0.84473 0.0
O98 O 0.61706 0.09686 0.74527 0.0
O99 O 0.57736 0.06911 0.72377 0.0
O100 O 0.59267 0.03903 0.83175 0.0
O101 O 0.62681 0.07567 0.91873 0.0
C102 C 0.5802 0.1212 0.87846 0.0
O103 O 0.53642 0.03764 0.7995 0.0
O104 O 0.54861 1.01423 0.86562 0.0
C105 C 0.69354 0.15884 0.9039 0.0
C106 C 0.73791 0.16704 0.89217 0.0
C107 C 0.73555 0.19112 0.91432 0.0
C108 C 0.71387 0.18708 0.92002 0.0
C109 C 0.69553 0.13456 0.87997 0.0
C110 C 0.71737 0.13861 0.87379 0.0
C111 C 0.67094 0.15579 0.91416 0.0
H112 H 0.46221 0.9484 0.91497 0.0
H113 H 0.49044 0.96159 0.82016 0.0
H114 H 0.53178 0.05002 0.97017 0.0
H115 H 0.5042 0.03694 1.06665 0.0
H116 H 0.7506 0.21342 0.92753 0.0
H117 H 0.71307 0.20629 0.93801 0.0
H118 H 0.68025 0.11243 0.86698 0.0
H119 H 0.71823 0.1194 0.85699 0.0
Tb120 Tb 0.77565 0.85972 0.28565 0.0
Eu121 Eu 0.73662 0.87693 0.26677 0.0
C122 C 0.75885 0.86983 0.10034 0.0
C123 C 0.78965 0.92511 0.34492 0.0
C124 C 0.81679 0.83251 0.33157 0.0
C125 C 0.84195 0.81419 0.31702 0.0
C126 C 0.83114 0.82797 0.28535 0.0
C127 C 0.81256 0.82181 0.40875 0.0
C128 C 0.82332 0.80768 0.4404 0.0
C129 C 0.83861 0.80444 0.39575 0.0
C130 C 0.80808 0.85019 0.29919 0.0
O131 O 0.76779 0.86039 0.4197 0.0
O132 O 0.7379 0.86852 0.4043 0.0
O133 O 0.71728 0.82752 0.21088 0.0
O134 O 0.74336 0.81667 0.2702 0.0
C135 C 0.75225 0.86388 0.45281 0.0
O136 O 0.7019 0.87162 0.25577 0.0
O137 O 0.73216 0.91102 0.23066 0.0
O138 O 0.75064 0.88323 0.14302 0.0
O139 O 0.7676 0.85682 0.14202 0.0
O140 O 0.79355 0.90786 0.29462 0.0
O141 O 0.76868 0.91491 0.35881 0.0
C142 C 0.72259 0.80812 0.22788 0.0
O143 O 0.79026 0.83707 0.23541 0.0
O144 O 0.80743 0.86906 0.35485 0.0
C145 C 0.69683 0.91075 0.20698 0.0
C146 C 0.67184 0.93459 0.13471 0.0
C147 C 0.66019 0.90692 0.15953 0.0
C148 C 0.67253 0.89517 0.19526 0.0
C149 C 0.70846 0.93884 0.18532 0.0
C150 C 0.69621 0.95055 0.14996 0.0
C151 C 0.71005 0.89692 0.23081 0.0
H152 H 0.85344 0.81176 0.28078 0.0
H153 H 0.83459 0.83596 0.2256 0.0
H154 H 0.80151 0.82505 0.44549 0.0
H155 H 0.82052 0.80049 0.50144 0.0
H156 H 0.64146 0.89407 0.15019 0.0
H157 H 0.66299 0.87345 0.21069 0.0
H158 H 0.72716 0.95153 0.19279 0.0
H159 H 0.70592 0.97168 0.13108 0.0
Tb160 Tb 0.27887 0.84968 0.53319 0.0
Eu161 Eu 0.22848 0.84405 0.51063 0.0
C162 C 0.25478 0.84341 0.70051 0.0
C163 C 0.23112 0.78491 0.49178 0.0
C164 C 0.33575 0.87452 0.48176 0.0
C165 C 0.37128 0.88862 0.42967 0.0
C166 C 0.35512 0.87247 0.4796 0.0
C167 C 0.33268 0.89278 0.43312 0.0
C168 C 0.34869 0.90877 0.38311 0.0
C169 C 0.36829 0.90705 0.38091 0.0
C170 C 0.3182 0.85698 0.53163 0.0
O171 O 0.27157 0.85315 0.39438 0.0
O172 O 0.23414 0.84208 0.373 0.0
O173 O 0.25559 0.89245 0.50996 0.0
O174 O 0.28845 0.89516 0.57251 0.0
C175 C 0.25258 0.84723 0.34206 0.0
O176 O 0.19227 0.8248 0.4493 0.0
O177 O 0.20773 0.85956 0.56242 0.0
O178 O 0.23832 0.84422 0.65222 0.0
O179 O 0.27168 0.84378 0.66672 0.0
O180 O 0.254 0.80183 0.51214 0.0
O181 O 0.21816 0.79615 0.48848 0.0
C182 C 0.27781 0.9081 0.54738 0.0
O183 O 0.31435 0.87187 0.58965 0.0
O184 O 0.29883 0.83458 0.4855 0.0
C185 C 0.1672 0.82307 0.54472 0.0
C186 C 0.1256 0.79255 0.60977 0.0
C187 C 0.12981 0.77828 0.54146 0.0
C188 C 0.15026 0.79328 0.50948 0.0
C189 C 0.16298 0.83746 0.61255 0.0
C190 C 0.14249 0.82241 0.64472 0.0
C191 C 0.18857 0.83959 0.5085 0.0
H192 H 0.38626 0.88695 0.43016 0.0
H193 H 0.35774 0.85839 0.51641 0.0
H194 H 0.31777 0.89457 0.43341 0.0
H195 H 0.34552 0.92222 0.34528 0.0
H196 H 0.11707 0.75553 0.51128 0.0
H197 H 0.15265 0.78149 0.45642 0.0
H198 H 0.17552 0.86047 0.6406 0.0
H199 H 0.14002 0.83415 0.69759 0.0
Tb200 Tb 0.22601 0.25814 0.6526 0.0
Eu201 Eu 0.27944 0.31456 0.69269 0.0
C202 C 0.25069 0.28033 0.49109 0.0
C203 C 0.26976 0.24986 0.66532 0.0
C204 C 0.1613 0.21918 0.65458 0.0
C205 C 0.12401 0.21483 0.6081 0.0
C206 C 0.14471 0.21789 0.58985 0.0
C207 C 0.15656 0.21787 0.73864 0.0
C208 C 0.13591 0.21474 0.75678 0.0
C209 C 0.11895 0.21261 0.69171 0.0
C210 C 0.18244 0.21993 0.63281 0.0
O211 O 0.23354 0.278 0.79133 0.0
O212 O 0.27298 0.3019 0.8271 0.0
O213 O 0.25774 0.33329 0.71742 0.0
O214 O 0.22494 0.29627 0.62529 0.0
C215 C 0.25261 0.289 0.85095 0.0
O216 O 0.31666 0.33527 0.73966 0.0
O217 O 0.30398 0.36012 0.68406 0.0
O218 O 0.26703 0.30522 0.5442 0.0
O219 O 0.23564 0.25766 0.52321 0.0
O220 O 0.24825 0.23949 0.6786 0.0
O221 O 0.28175 0.27593 0.64609 0.0
C222 C 0.23771 0.32365 0.66754 0.0
O223 O 0.19818 0.22349 0.69559 0.0
O224 O 0.19221 0.23477 0.57464 0.0
C225 C 0.33777 0.36599 0.64654 0.0
C226 C 0.36498 0.38108 0.51792 0.0
C227 C 0.3714 0.40164 0.59437 0.0
C228 C 0.35785 0.39417 0.65799 0.0
C229 C 0.33165 0.34518 0.57156 0.0
C230 C 0.34511 0.35261 0.50803 0.0
C231 C 0.32209 0.35886 0.70836 0.0
H232 H 0.11158 0.21311 0.5557 0.0
H233 H 0.14749 0.21861 0.52413 0.0
H234 H 0.16868 0.21878 0.79068 0.0
H235 H 0.1332 0.21376 0.8225 0.0
H236 H 0.38643 0.42384 0.60372 0.0
H237 H 0.36271 0.4106 0.71503 0.0
H238 H 0.31613 0.32332 0.56124 0.0
H239 H 0.33981 0.33609 0.4507 0.0
Tb240 Tb 0.42796 0.19351 0.68336 0.0
Eu241 Eu 0.42413 0.18111 0.87149 0.0
C242 C 0.45979 0.24696 0.83527 0.0
C243 C 0.4606 0.17428 0.7846 0.0
C244 C 0.44805 0.23944 0.5293 0.0
C245 C 0.48193 0.28043 0.49436 0.0
C246 C 0.4674 0.25027 0.49049 0.0
C247 C 0.44312 0.25934 0.57024 0.0
C248 C 0.45755 0.28961 0.57309 0.0
C249 C 0.47745 0.30049 0.53716 0.0
C250 C 0.43608 0.2087 0.54145 0.0
O251 O 0.40123 0.14538 0.66001 0.0
O252 O 0.39876 0.13461 0.797 0.0
O253 O 0.39229 0.18319 0.82429 0.0
O254 O 0.40272 0.20522 0.70859 0.0
C255 C 0.3923 0.12629 0.71214 0.0
O256 O 0.43403 0.17139 0.99378 0.0
O257 O 0.41301 0.19007 0.98769 0.0
O258 O 0.45652 0.22705 0.88187 0.0
O259 O 0.44656 0.2386 0.75881 0.0
O260 O 0.45825 0.1903 0.7317 0.0
O261 O 0.44599 0.16328 0.83645 0.0
C262 C 0.3887 0.19601 0.76356 0.0
O263 O 0.44905 0.20302 0.59083 0.0
O264 O 0.41568 0.19759 0.56106 0.0
C265 C 0.44584 0.21391 0.09747 0.0
C266 C 0.4773 0.27433 0.16879 0.0
C267 C 0.45503 0.25883 0.18877 0.0
C268 C 0.43947 0.22898 0.15332 0.0
C269 C 0.46875 0.2287 1.08343 0.0
C270 C 0.48437 0.25857 0.11934 0.0
C271 C 0.42749 0.18663 1.03723 0.0
H272 H 0.49664 0.28807 0.46281 0.0
H273 H 0.47172 0.23547 0.45965 0.0
H274 H 0.42849 0.25164 0.6022 0.0
H275 H 0.45333 0.30449 0.60407 0.0
H276 H 0.44937 0.26989 0.23053 0.0
H277 H 0.42194 0.21818 0.16482 0.0
H278 H 0.47419 0.21777 1.04003 0.0
H279 H 0.50162 0.2696 0.10527 0.0
Tb280 Tb 0.92352 0.16693 0.86275 0.0
Eu281 Eu 0.92708 0.20163 0.71003 0.0
C282 C 0.89865 0.13179 0.67131 0.0
C283 C 0.96713 0.18832 0.76621 0.0
C284 C 0.89069 0.1132 0.98816 0.0
C285 C 0.86639 0.09404 0.09332 0.0
C286 C 0.88819 0.10692 1.07095 0.0
C287 C 0.87082 0.10399 0.9257 0.0
C288 C 0.84908 0.09125 0.94803 0.0
C289 C 0.84685 0.08759 1.03334 0.0
C290 C 0.91382 0.13373 0.97138 0.0
O291 O 0.95385 0.21114 0.92254 0.0
O292 O 0.94734 0.23723 0.83139 0.0
O293 O 0.89047 0.18206 0.73854 0.0
O294 O 0.90128 0.18402 0.88009 0.0
C295 C 0.95831 0.23649 0.90363 0.0
O296 O 0.92672 0.20749 0.57564 0.0
O297 O 0.92655 0.2387 0.6717 0.0
O298 O 0.91379 0.15503 0.64399 0.0
O299 O 0.89597 0.13475 0.75159 0.0
O300 O 0.95316 0.17041 0.81267 0.0
O301 O 0.9619 0.20492 0.72624 0.0
C302 C 0.88636 0.18253 0.81723 0.0
O303 O 0.91746 0.12734 0.89566 0.0
O304 O 0.92075 0.1614 0.99081 0.0
C305 C 0.90084 0.2221 0.53752 0.0
C306 C 0.85629 0.19421 0.43284 0.0
C307 C 0.8592 0.19971 0.52331 0.0
C308 C 0.8813 0.21356 0.57523 0.0
C309 C 0.89825 0.21948 0.44767 0.0
C310 C 0.87618 0.20578 0.39569 0.0
C311 C 0.9226 0.22831 0.58943 0.0
H312 H 0.86532 0.09194 0.16004 0.0
H313 H 0.9033 0.11403 0.12015 0.0
H314 H 0.87228 0.10868 0.86142 0.0
H315 H 0.83438 0.08664 0.90073 0.0
H316 H 0.84427 0.19119 0.55377 0.0
H317 H 0.88279 0.21554 0.64463 0.0
H318 H 0.91304 0.22583 0.41728 0.0
H319 H 0.87462 0.20163 0.32618 0.0
Tb320 Tb 0.91682 0.65601 0.68129 0.0
Eu321 Eu 0.9336 0.70746 0.85001 0.0
C322 C 0.93861 0.65279 0.86172 0.0
C323 C 0.88053 0.65319 0.79403 0.0
C324 C 0.92479 0.61211 0.51966 0.0
C325 C 0.94172 0.61016 0.39546 0.0
C326 C 0.92261 0.60559 0.43 0.0
C327 C 0.94552 0.62011 0.57455 0.0
C328 C 0.96468 0.62491 0.54011 0.0
C329 C 0.96334 0.62171 0.45031 0.0
C330 C 0.9081 0.61737 0.55435 0.0
O331 O 0.90069 0.67998 0.64424 0.0
O332 O 0.92802 0.7242 0.73207 0.0
O333 O 0.96602 0.71155 0.81763 0.0
O334 O 0.95179 0.69126 0.67367 0.0
C335 C 0.91091 0.70868 0.6652 0.0
O336 O 0.93561 0.72375 0.98472 0.0
O337 O 0.95452 0.75459 0.90457 0.0
O338 O 0.93249 0.6695 0.90029 0.0
O339 O 0.93835 0.65006 0.77844 0.0
O340 O 0.88783 0.63888 0.74888 0.0
O341 O 0.89434 0.68144 0.82865 0.0
C342 C 0.96937 0.7073 0.73927 0.0
O343 O 0.90492 0.61192 0.63144 0.0
O344 O 0.91114 0.64279 0.54686 0.0
C345 C 0.97467 0.75962 1.04225 0.0
C346 C 1.00743 0.75262 0.14032 0.0
C347 C 1.00947 0.75803 1.05633 0.0
C348 C 0.99326 0.76161 1.00768 0.0
C349 C 0.9746 0.75842 0.12989 0.0
C350 C 0.99088 0.75498 0.17872 0.0
C351 C 0.95285 0.75019 0.98338 0.0
H352 H 0.94021 0.60778 0.32592 0.0
H353 H 0.90685 0.5996 0.3866 0.0
H354 H 0.94762 0.62522 0.64408 0.0
H355 H 0.9811 0.63373 0.58367 0.0
H356 H 1.02223 0.75673 1.02558 0.0
H357 H 0.99398 0.76285 0.94034 0.0
H358 H 0.96046 0.75677 0.15785 0.0
H359 H 0.98872 0.75077 0.24328 0.0
H360 H 0.13045 0.50058 0.96543 0.0
H361 H 0.07454 0.51451 0.98741 0.0
H362 H 0.06773 0.51293 0.83185 0.0
H363 H 0.15181 0.54617 0.79966 0.0
H364 H 0.1587 0.52271 0.73912 0.0
H365 H 0.15962 0.52409 0.85366 0.0
H366 H 0.13104 0.46772 0.82486 0.0
H367 H 0.13002 0.4662 0.71023 0.0
H368 H 0.10359 0.45109 0.75123 0.0
H369 H 0.06529 0.50897 0.67206 0.0
H370 H 0.06897 0.50575 0.5202 0.0
H371 H 0.12745 0.4966 0.58626 0.0
C372 C 0.11677 0.50329 0.93763 0.0
C373 C 0.10314 0.50779 0.99217 0.0
C374 C 0.08555 0.51128 0.95043 0.0
C375 C 0.08137 0.5103 0.86065 0.0
C376 C 0.09492 0.50603 0.80958 0.0
C377 C 0.11245 0.5028 0.84606 0.0
C378 C 0.12458 0.49926 0.77393 0.0
C379 C 0.15021 0.52456 0.79273 0.0
C380 C 0.12217 0.46928 0.76453 0.0
C381 C 0.11105 0.50088 0.69226 0.0
C382 C 0.09392 0.50456 0.71552 0.0
C383 C 0.07875 0.5062 0.65352 0.0
C384 C 0.08099 0.50423 0.56613 0.0
C385 C 0.09848 0.50086 0.53803 0.0
C386 C 0.11383 0.49922 0.60357 0.0
H387 H 0.63072 0.53295 0.73265 0.0
H388 H 0.5641 0.52312 0.73406 0.0
H389 H 0.55801 0.52023 0.57766 0.0
H390 H 0.64589 0.57876 0.56522 0.0
H391 H 0.65938 0.56242 0.51208 0.0
H392 H 0.65927 0.56339 0.62598 0.0
H393 H 0.63985 0.50701 0.60031 0.0
H394 H 0.63988 0.50587 0.48632 0.0
H395 H 0.61311 0.48365 0.52202 0.0
H396 H 0.55746 0.51717 0.42028 0.0
H397 H 0.56322 0.51648 0.27153 0.0
H398 H 0.63092 0.53003 0.35532 0.0
C399 C 0.61486 0.53022 0.70014 0.0
C400 C 0.59794 0.52836 0.74892 0.0
C401 C 0.57758 0.52484 0.70142 0.0
C402 C 0.57382 0.52305 0.61119 0.0
C403 C 0.59055 0.52498 0.56579 0.0
C404 C 0.61081 0.52869 0.60807 0.0
C405 C 0.62586 0.53058 0.54096 0.0
C406 C 0.64898 0.56058 0.56236 0.0
C407 C 0.62993 0.50527 0.53721 0.0
C408 C 0.61081 0.52726 0.45528 0.0
C409 C 0.59047 0.52387 0.47255 0.0
C410 C 0.57339 0.51992 0.40635 0.0
C411 C 0.57692 0.51947 0.32071 0.0
C412 C 0.59756 0.52313 0.29833 0.0
C413 C 0.61488 0.5272 0.36817 0.0
H414 H 0.63073 0.11128 0.58817 0.0
H415 H 0.55671 0.05103 0.56793 0.0
H416 H 0.55052 0.04823 0.41094 0.0
H417 H 0.62584 0.15058 0.4205 0.0
H418 H 0.64991 0.15439 0.37583 0.0
H419 H 0.64942 0.15208 0.48818 0.0
H420 H 0.65424 0.10792 0.46571 0.0
H421 H 0.65482 0.11017 0.35337 0.0
H422 H 0.63402 0.07616 0.3823 0.0
H423 H 0.55122 0.05089 0.25405 0.0
H424 H 0.55871 0.05827 0.10888 0.0
H425 H 0.63234 0.11761 0.21609 0.0
C426 C 0.61321 0.09738 0.55081 0.0
C427 C 0.59422 0.0813 0.59353 0.0
C428 C 0.57172 0.06366 0.53982 0.0
C429 C 0.56794 0.06189 0.44932 0.0
C430 C 0.58673 0.0779 0.40993 0.0
C431 C 0.60901 0.09535 0.45852 0.0
C432 C 0.62591 0.11015 0.39755 0.0
C433 C 0.63853 0.14381 0.422 0.0
C434 C 0.64329 0.10054 0.3999 0.0
C435 C 0.60964 0.09833 0.30781 0.0
C436 C 0.58713 0.07969 0.31771 0.0
C437 C 0.56882 0.06548 0.24612 0.0
C438 C 0.57336 0.06992 0.16275 0.0
C439 C 0.59613 0.08868 0.14796 0.0
C440 C 0.61461 0.10337 0.22318 0.0
H441 H 0.77787 0.85571 0.59269 0.0
H442 H 0.72333 0.87284 0.53613 0.0
H443 H 0.72006 0.8755 0.68806 0.0
H444 H 0.75228 0.80994 0.75498 0.0
H445 H 0.77958 0.82398 0.8267 0.0
H446 H 0.77835 0.82313 0.71219 0.0
H447 H 0.80938 0.87886 0.74331 0.0
H448 H 0.81068 0.87989 0.8579 0.0
H449 H 0.80459 0.90396 0.80731 0.0
H450 H 0.7224 0.87801 0.84614 0.0
H451 H 0.72913 0.87846 1.00078 0.0
H452 H 0.78154 0.85833 0.97175 0.0
C453 C 0.76514 0.85988 0.61207 0.0
C454 C 0.75083 0.86401 0.54917 0.0
C455 C 0.73459 0.86948 0.57993 0.0
C456 C 0.73256 0.8711 0.66741 0.0
C457 C 0.74674 0.86712 0.72682 0.0
C458 C 0.76269 0.86142 0.70106 0.0
C459 C 0.77553 0.85795 0.78083 0.0
C460 C 0.77118 0.8269 0.76789 0.0
C461 C 0.8016 0.88157 0.79836 0.0
C462 C 0.76431 0.8627 0.85458 0.0
C463 C 0.74784 0.86807 0.8205 0.0
C464 C 0.73524 0.87374 0.87318 0.0
C465 C 0.73936 0.87404 0.96236 0.0
C466 C 0.75599 0.86855 1.00179 0.0
C467 C 0.7686 0.86255 0.9456 0.0
H468 H 0.28795 0.85696 0.857 0.0
H469 H 0.21535 0.82414 0.76247 0.0
H470 H 0.20851 0.82236 0.90955 0.0
H471 H 0.27705 0.81212 1.02939 0.0
H472 H 0.30218 0.84052 0.10825 0.0
H473 H 0.30244 0.83919 0.99434 0.0
H474 H 0.31291 0.89282 1.01234 0.0
H475 H 0.31259 0.89422 0.1262 0.0
H476 H 0.29463 0.90253 1.05928 0.0
H477 H 0.20819 0.82511 1.06523 0.0
H478 H 0.21407 0.82997 0.22219 0.0
H479 H 0.28655 0.86007 0.2341 0.0
C480 C 0.27057 0.8491 0.8671 0.0
C481 C 0.25227 0.84085 0.79498 0.0
C482 C 0.22995 0.83095 0.81381 0.0
C483 C 0.22574 0.82976 0.89833 0.0
C484 C 0.24387 0.83839 0.96701 0.0
C485 C 0.26588 0.84769 0.95331 0.0
C486 C 0.2819 0.85562 1.04169 0.0
C487 C 0.29147 0.83568 1.04351 0.0
C488 C 0.30169 0.88824 1.06101 0.0
C489 C 0.26538 0.84946 0.10586 0.0
C490 C 0.24359 0.8396 1.05987 0.0
C491 C 0.2252 0.8327 0.10176 0.0
C492 C 0.22884 0.83568 0.19234 0.0
C493 C 0.25079 0.84546 0.2437 0.0
C494 C 0.26944 0.85247 0.19852 0.0
H495 H 0.28504 0.31883 1.01583 0.0
H496 H 0.21346 0.24982 0.90378 0.0
H497 H 0.20632 0.24042 1.04839 0.0
H498 H 0.2931 0.28323 0.1894 0.0
H499 H 0.30986 0.31629 0.27153 0.0
H500 H 0.31061 0.31836 0.15917 0.0
H501 H 0.29799 0.35544 0.17069 0.0
H502 H 0.29761 0.35398 0.2835 0.0
H503 H 0.27211 0.34623 0.21111 0.0
H504 H 0.2062 0.23631 0.20661 0.0
H505 H 0.21243 0.24081 0.36497 0.0
H506 H 0.28313 0.31435 0.38817 0.0
C507 C 0.26786 0.30171 1.02152 0.0
C508 C 0.24986 0.28513 0.94513 0.0
C509 C 0.22772 0.26316 0.95851 0.0
C510 C 0.22342 0.25746 1.04156 0.0
C511 C 0.24122 0.27396 0.11444 0.0
C512 C 0.26302 0.29594 0.10589 0.0
C513 C 0.27868 0.31082 0.19698 0.0
C514 C 0.2993 0.30695 0.20469 0.0
C515 C 0.2871 0.34357 0.21673 0.0
C516 C 0.26229 0.29379 0.25707 0.0
C517 C 0.24085 0.27238 0.20711 0.0
C518 C 0.22293 0.2532 0.24594 0.0
C519 C 0.22671 0.25589 0.33708 0.0
C520 C 0.24822 0.27793 0.39194 0.0
C521 C 0.26631 0.29723 0.34989 0.0
H522 H 0.46352 0.33397 0.47402 0.0
H523 H 0.52459 0.33717 0.5867 0.0
H524 H 0.54612 0.36815 0.48901 0.0
H525 H 0.45056 0.31524 0.31845 0.0
H526 H 0.44864 0.33742 0.24511 0.0
H527 H 0.44796 0.34576 0.35647 0.0
H528 H 0.48187 0.39875 0.3655 0.0
H529 H 0.4823 0.38954 0.25343 0.0
H530 H 0.50833 0.40591 0.33469 0.0
H531 H 0.54481 0.35081 0.34405 0.0
H532 H 0.52416 0.30546 0.23591 0.0
H533 H 0.46633 0.31553 0.18074 0.0
C534 C 0.482 0.34361 0.48158 0.0
C535 C 0.49214 0.33196 0.5322 0.0
C536 C 0.51629 0.34501 0.54506 0.0
C537 C 0.52867 0.36281 0.48917 0.0
C538 C 0.51635 0.36642 0.42029 0.0
C539 C 0.49415 0.36062 0.42256 0.0
C540 C 0.48262 0.35907 0.33303 0.0
C541 C 0.45587 0.33801 0.31213 0.0
C542 C 0.48921 0.39014 0.32098 0.0
C543 C 0.49514 0.34915 0.28021 0.0
C544 C 0.51654 0.3578 0.32972 0.0
C545 C 0.5283 0.34437 0.30557 0.0
C546 C 0.51633 0.31818 0.2438 0.0
C547 C 0.49315 0.30646 0.20388 0.0
C548 C 0.48385 0.32406 0.21384 0.0
H549 H 0.83642 0.19403 0.27383 0.0
H550 H 0.82603 0.14066 0.46789 0.0
H551 H 0.8022 0.09612 0.35702 0.0
H552 H 0.77722 0.12566 0.09555 0.0
H553 H 0.79325 0.13982 1.01193 0.0
H554 H 0.79509 0.16481 0.10183 0.0
H555 H 0.83942 0.19133 0.13145 0.0
H556 H 0.83805 0.16638 1.04512 0.0
H557 H 0.85277 0.17086 0.15242 0.0
H558 H 0.80227 0.06458 0.24131 0.0
H559 H 0.82173 0.05194 0.14108 0.0
H560 H 0.82885 0.12008 1.00531 0.0
C561 C 0.82762 0.17278 0.29247 0.0
C562 C 0.83352 0.17071 0.3783 0.0
C563 C 0.82188 0.14292 0.40236 0.0
C564 C 0.80819 0.11725 0.33908 0.0
C565 C 0.80596 0.11972 0.2523 0.0
C566 C 0.81417 0.14693 0.22888 0.0
C567 C 0.81467 0.1446 0.1331 0.0
C568 C 0.79382 0.14365 1.08264 0.0
C569 C 0.83762 0.16975 0.1148 0.0
C570 C 0.81172 0.11476 0.11309 0.0
C571 C 0.80484 0.09971 0.18029 0.0
C572 C 0.80666 0.07546 0.18683 0.0
C573 C 0.81785 0.06837 0.12971 0.0
C574 C 0.82679 0.08522 1.06605 0.0
C575 C 0.82165 0.10662 1.0527 0.0
H576 H 0.99837 0.67808 0.50707 0.0
H577 H 0.97478 0.60177 0.30986 0.0
H578 H 1.00046 0.63401 0.22 0.0
H579 H 0.9899 0.714 0.39641 0.0
H580 H 1.01435 0.75113 0.4362 0.0
H581 H 1.00669 0.72485 0.50486 0.0
H582 H 0.04706 0.73234 0.52528 0.0
H583 H 0.05595 0.76071 0.46202 0.0
H584 H 0.05977 0.73063 0.43416 0.0
H585 H 1.01155 0.67065 0.13113 0.0
H586 H 1.00946 0.70728 1.05995 0.0
H587 H 0.0269 0.76249 0.30943 0.0
C588 C 0.99991 0.66809 0.44756 0.0
C589 C 0.98468 0.6376 0.41495 0.0
C590 C 0.98636 0.62513 0.33561 0.0
C591 C 1.00089 0.64328 0.28435 0.0
C592 C 1.01349 0.67373 0.31318 0.0
C593 C 1.01379 0.68611 0.39471 0.0
C594 C 1.02375 0.7188 0.40256 0.0
C595 C 1.00769 0.72764 0.43683 0.0
C596 C 0.04815 0.73676 0.45924 0.0
C597 C 1.02511 0.7217 0.30956 0.0
C598 C 1.02055 0.69598 0.2599 0.0
C599 C 1.01632 0.69137 0.16972 0.0
C600 C 1.01521 0.71248 0.12959 0.0
C601 C 1.01805 0.73776 0.17972 0.0
C602 C 1.02488 0.7434 0.27025 0.0
H603 H 0.20318 0.31589 0.5389 0.0
H604 H 0.25613 0.37941 0.75959 0.0
H605 H 0.246 0.41544 0.72945 0.0
H606 H 0.21328 0.36722 0.40083 0.0
H607 H 0.18322 0.34986 0.35049 0.0
H608 H 0.19341 0.32824 0.3926 0.0
H609 H 0.16237 0.31004 0.48785 0.0
H610 H 0.15205 0.33159 0.44592 0.0
H611 H 0.16093 0.33655 0.56102 0.0
H612 H 0.23108 0.44538 0.67276 0.0
H613 H 0.21319 0.46737 0.59277 0.0
H614 H 0.17046 0.38538 0.40492 0.0
C615 C 0.21243 0.33723 0.58174 0.0
C616 C 0.23041 0.34463 0.65229 0.0
C617 C 0.24228 0.37304 0.70551 0.0
C618 C 0.23661 0.39371 0.68888 0.0
C619 C 0.21904 0.38583 0.61844 0.0
C620 C 0.20711 0.35827 0.56561 0.0
C621 C 0.18965 0.35592 0.49187 0.0
C622 C 0.19523 0.34996 0.40374 0.0
C623 C 0.16477 0.33211 0.497 0.0
C624 C 0.19376 0.38653 0.51107 0.0
C625 C 0.2107 0.40331 0.58474 0.0
C626 C 0.21784 0.43241 0.61492 0.0
C627 C 0.20763 0.44481 0.56844 0.0
C628 C 0.19046 0.42837 0.49167 0.0
C629 C 0.18333 0.39861 0.46354 0.0
H630 H 0.67089 0.63209 0.12222 0.0
H631 H 0.60426 0.61979 1.02714 0.0
H632 H 0.62209 0.67334 1.05993 0.0
H633 H 0.6895 0.6923 0.30011 0.0
H634 H 0.71948 0.71244 0.29036 0.0
H635 H 0.70198 0.67295 0.25664 0.0
H636 H 0.7119 0.67762 0.1045 0.0
H637 H 0.7295 0.71712 0.13792 0.0
H638 H 0.70635 0.70032 1.04394 0.0
H639 H 0.64672 0.72868 0.1037 0.0
H640 H 0.67636 0.78148 0.15649 0.0
H641 H 0.72776 0.76022 0.2285 0.0
C642 C 0.6601 0.64067 0.10751 0.0
C643 C 0.63596 0.62117 1.07148 0.0
C644 C 0.62264 0.63374 1.05465 0.0
C645 C 0.63267 0.66437 1.07306 0.0
C646 C 0.65625 0.68284 0.1092 0.0
C647 C 0.66988 0.67156 0.12648 0.0
C648 C 0.69476 0.69666 0.16755 0.0
C649 C 0.70184 0.69338 0.25911 0.0
C650 C 0.71162 0.698 0.11004 0.0
C651 C 0.69289 0.72359 0.1705 0.0
C652 C 0.67047 0.71497 0.13605 0.0
C653 C 0.66433 0.73562 0.13088 0.0
C654 C 0.68139 0.76576 0.16125 0.0
C655 C 0.70461 0.77553 0.19738 0.0
C656 C 0.71026 0.75382 0.20194 0.0
H657 H 0.45718 0.93986 1.05976 0.0
H658 H 0.46596 0.02544 1.07048 0.0
H659 H 0.43894 1.01342 0.17083 0.0
H660 H 0.39574 0.89953 1.06217 0.0
H661 H 0.39716 0.87523 0.12803 0.0
H662 H 0.41743 0.89065 1.05756 0.0
H663 H 0.4516 0.91188 0.18814 0.0
H664 H 0.43144 0.89669 0.2591 0.0
H665 H 0.4534 0.9355 0.2817 0.0
H666 H 0.41129 0.99252 0.271 0.0
H667 H 0.38405 0.96364 0.36132 0.0
H668 H 0.39173 0.89066 0.28189 0.0
C669 C 0.45327 0.95599 1.08244 0.0
C670 C 0.46392 0.98374 1.05736 0.0
C671 C 0.45844 1.00427 1.08971 0.0
C672 C 0.44298 0.99758 0.14644 0.0
C673 C 0.43297 0.97019 0.17025 0.0
C674 C 0.43778 0.94964 0.13905 0.0
C675 C 0.42453 0.92175 0.17463 0.0
C676 C 0.40772 0.89522 0.10122 0.0
C677 C 0.44125 0.91614 0.22913 0.0
C678 C 0.41155 0.92987 0.23075 0.0
C679 C 0.41673 0.95794 0.2273 0.0
C680 C 0.40698 0.97043 0.27374 0.0
C681 C 0.39139 0.95374 0.32454 0.0
C682 C 0.38551 0.92471 0.3285 0.0
C683 C 0.39594 0.91281 0.28108 0.0
H684 H 0.53762 0.10581 0.92 0.0
H685 H 0.59131 0.16972 0.80249 0.0
H686 H 0.56704 0.18983 0.76565 0.0
H687 H 0.48889 0.09135 0.76757 0.0
H688 H 0.4713 0.0881 0.84654 0.0
H689 H 0.49313 0.07948 0.86607 0.0
H690 H 0.5119 0.11699 1.01096 0.0
H691 H 0.49003 0.1256 0.99235 0.0
H692 H 0.5203 0.15454 1.01218 0.0
H693 H 0.53474 0.20115 0.73309 0.0
H694 H 0.50044 0.20513 0.71981 0.0
H695 H 0.4681 0.13522 0.86381 0.0
C696 C 0.54455 0.12434 0.88748 0.0
C697 C 0.56682 0.13615 0.86495 0.0
C698 C 0.5747 0.16028 0.82178 0.0
C699 C 0.56083 0.17177 0.79997 0.0
C700 C 0.53891 0.15927 0.822 0.0
C701 C 0.531 0.13627 0.86598 0.0
C702 C 0.50686 0.1267 0.88268 0.0
C703 C 0.48899 0.0945 0.83806 0.0
C704 C 0.50731 0.13123 0.98035 0.0
C705 C 0.50221 0.1477 0.84085 0.0
C706 C 0.52086 0.16619 0.80555 0.0
C707 C 0.52026 0.18684 0.76137 0.0
C708 C 0.50049 0.18889 0.75379 0.0
C709 C 0.48121 0.17067 0.7907 0.0
C710 C 0.48236 0.14975 0.83492 0.0
H711 H 0.96844 0.29298 0.89786 0.0
H712 H 0.98989 0.24561 1.04633 0.0
H713 H 1.02052 0.29267 0.14263 0.0
H714 H 1.02537 0.35676 0.91022 0.0
H715 H 1.01637 0.38249 0.92097 0.0
H716 H 0.99607 0.34513 0.86418 0.0
H717 H 0.96771 0.33919 0.96559 0.0
H718 H 0.98793 0.37655 1.02269 0.0
H719 H 0.9776 0.34677 1.08106 0.0
H720 H 0.05027 0.3461 0.22116 0.0
H721 H 0.07493 0.39985 0.27684 0.0
H722 H 0.03348 0.41276 1.08124 0.0
C723 C 0.97951 0.29238 0.9507 0.0
C724 C 0.97654 0.26517 0.96381 0.0
C725 C 0.99155 0.26582 1.03436 0.0
C726 C 1.00912 0.2926 1.08958 0.0
C727 C 1.01159 0.31891 1.07459 0.0
C728 C 0.99706 0.31896 1.00706 0.0
C729 C 1.00326 0.35025 1.00527 0.0
C730 C 1.01071 0.35918 0.9201 0.0
C731 C 0.98291 0.35337 1.01951 0.0
C732 C 1.02362 0.36786 1.08186 0.0
C733 C 0.02822 0.34937 0.12079 0.0
C734 C 0.04662 0.36064 0.19129 0.0
C735 C 0.06061 0.39136 0.22264 0.0
C736 C 0.05622 0.41091 0.18451 0.0
C737 C 0.03729 0.39866 0.11306 0.0
H738 H 0.85872 0.66968 0.90436 0.0
H739 H 0.84601 0.59834 0.70631 0.0
H740 H 0.80527 0.56947 0.72038 0.0
H741 H 0.82224 0.6233 1.03882 0.0
H742 H 0.8116 0.64632 1.06942 0.0
H743 H 0.83985 0.66237 1.04231 0.0
H744 H 0.82809 0.68475 0.92603 0.0
H745 H 0.79977 0.66867 0.95261 0.0
H746 H 0.8025 0.661 0.84278 0.0
H747 H 0.76606 0.54763 0.75498 0.0
H748 H 0.73078 0.53325 0.81248 0.0
H749 H 0.76766 0.61726 0.99219 0.0
C750 C 0.84734 0.64805 0.86368 0.0
C751 C 0.8558 0.63642 0.80409 0.0
C752 C 0.84021 0.60788 0.75267 0.0
C753 C 0.8169 0.59124 0.7599 0.0
C754 C 0.80917 0.6032 0.81912 0.0
C755 C 0.82384 0.63088 0.87049 0.0
C756 C 0.81094 0.6379 0.93069 0.0
C757 C 0.82181 0.64275 1.02596 0.0
C758 C 0.81029 0.66467 0.91189 0.0
C759 C 0.78685 0.60977 0.9053 0.0
C760 C 0.78632 0.59023 0.84035 0.0
C761 C 0.76629 0.56269 0.80615 0.0
C762 C 0.74631 0.55465 0.83977 0.0
C763 C 0.74632 0.57387 0.90774 0.0
C764 C 0.76692 0.60205 0.93999 0.0
H765 H 0.97041 0.63877 0.83088 0.0
H766 H 0.92606 0.63348 1.01031 0.0
H767 H 0.93916 0.60728 0.09511 0.0
H768 H 0.96388 0.56854 0.83485 0.0
H769 H 0.99381 0.58203 0.83257 0.0
H770 H 0.98027 0.59923 0.78362 0.0
H771 H 1.01234 0.64975 0.87804 0.0
H772 H 0.02609 0.63277 0.92675 0.0
H773 H 1.01816 0.65363 0.99393 0.0
H774 H 0.955 0.57884 0.1541 0.0
H775 H 0.97813 0.55856 0.20206 0.0
H776 H 1.01491 0.58574 0.99165 0.0
C777 C 0.96336 0.63191 0.88773 0.0
C778 C 0.94694 0.63774 0.91344 0.0
C779 C 0.93853 0.62907 0.98928 0.0
C780 C 0.94579 0.61406 1.03753 0.0
C781 C 0.96176 0.60833 1.00989 0.0
C782 C 0.97084 0.61752 0.93787 0.0
C783 C 0.98886 0.61013 0.92535 0.0
C784 C 0.98124 0.58871 0.83896 0.0
C785 C 1.01277 0.63824 0.93143 0.0
C786 C 0.98849 0.59534 1.00173 0.0
C787 C 0.97234 0.59399 1.0483 0.0
C788 C 0.96808 0.58035 0.11944 0.0
C789 C 0.98143 0.56904 0.14645 0.0
C790 C 0.99877 0.57108 0.10201 0.0
C791 C 1.00197 0.58401 1.0276 0.0
H792 H 0.53267 0.42489 0.88491 0.0
H793 H 0.58679 0.42883 1.06596 0.0
H794 H 0.56324 0.37441 1.04637 0.0
H795 H 0.48386 0.36495 0.94901 0.0
H796 H 0.46684 0.34849 0.84059 0.0
H797 H 0.48785 0.38759 0.86917 0.0
H798 H 0.50795 0.38401 0.74414 0.0
H799 H 0.48669 0.34506 0.71527 0.0
H800 H 0.51712 0.35839 0.73783 0.0
H801 H 0.53274 0.31852 1.00858 0.0
H802 H 0.49985 0.26734 0.95143 0.0
H803 H 0.4655 0.29884 0.79137 0.0
C804 C 0.53971 0.41442 0.92051 0.0
C805 C 0.56187 0.43167 0.97741 0.0
C806 C 0.57011 0.41657 1.02193 0.0
C807 C 0.55672 0.38549 1.01128 0.0
C808 C 0.535 0.36933 0.95515 0.0
C809 C 0.52664 0.38335 0.90998 0.0
C810 C 0.5029 0.36089 0.85264 0.0
C811 C 0.48426 0.36578 0.87947 0.0
C812 C 0.50373 0.36218 0.75677 0.0
C813 C 0.49909 0.33194 0.87225 0.0
C814 C 0.51777 0.33737 0.93224 0.0
C815 C 0.51812 0.31424 0.96168 0.0
C816 C 0.49915 0.28508 0.92932 0.0
C817 C 0.47971 0.27865 0.86771 0.0
C818 C 0.47995 0.30269 0.83842 0.0
H819 H 0.83964 0.14996 0.73046 0.0
H820 H 0.88709 0.21836 0.9524 0.0
H821 H 0.855 0.22197 0.99249 0.0
H822 H 0.80249 0.17745 0.67829 0.0
H823 H 0.77586 0.14168 0.65267 0.0
H824 H 0.80268 0.14528 0.6381 0.0
H825 H 0.79618 0.10766 0.73642 0.0
H826 H 0.76939 0.10403 0.75186 0.0
H827 H 0.79174 0.11419 0.84423 0.0
H828 H 0.81773 0.21786 1.01169 0.0
H829 H 0.77823 0.20669 1.00899 0.0
H830 H 0.75264 0.13896 0.77898 0.0
C831 C 0.84325 0.16581 0.78716 0.0
C832 C 0.86618 0.18415 0.83786 0.0
C833 C 0.8699 0.20416 0.91234 0.0
C834 C 0.8517 0.20641 0.93556 0.0
C835 C 0.82934 0.18783 0.88553 0.0
C836 C 0.82493 0.1677 0.81318 0.0
C837 C 0.79896 0.1496 0.77322 0.0
C838 C 0.79475 0.15375 0.68003 0.0
C839 C 0.78844 0.11693 0.77662 0.0
C840 C 0.7896 0.16308 0.83331 0.0
C841 C 0.80758 0.18509 0.8976 0.0
C842 C 0.80361 0.20084 0.96105 0.0
C843 C 0.78092 0.19434 0.95865 0.0
C844 C 0.7619 0.17216 0.89322 0.0
C845 C 0.76651 0.15606 0.83018 0.0
H846 H 0.65053 0.05809 0.99533 0.0
H847 H 0.5879 0.98812 0.81762 0.0
H848 H 0.59598 0.95165 0.86313 0.0
H849 H 0.68579 0.02741 0.96676 0.0
H850 H 0.70003 0.03948 1.07912 0.0
H851 H 0.68974 0.05996 1.02948 0.0
H852 H 0.66571 0.05473 0.14806 0.0
H853 H 0.67577 0.03402 0.19763 0.0
H854 H 0.6451 1.01857 0.16567 0.0
H855 H 0.6105 0.92239 0.93251 0.0
H856 H 0.63083 0.90333 1.01394 0.0
H857 H 0.68343 0.99238 0.1494 0.0
C858 C 0.63861 0.03516 0.96489 0.0
C859 C 0.61858 0.02614 0.90213 0.0
C860 C 0.60341 0.99575 0.86521 0.0
C861 C 0.60783 0.97481 0.89097 0.0
C862 C 0.62751 0.98445 0.954 0.0
C863 C 0.64271 1.01396 0.99011 0.0
C864 C 0.66236 1.01858 1.05787 0.0
C865 C 0.68587 0.03747 1.03172 0.0
C866 C 0.66222 0.03228 0.14761 0.0
C867 C 0.65589 0.98707 1.05437 0.0
C868 C 0.63571 0.96769 0.99418 0.0
C869 C 0.6263 0.93743 0.97982 0.0
C870 C 0.63791 0.92675 1.02724 0.0
C871 C 0.65882 0.94617 1.08883 0.0
C872 C 0.66769 0.97679 0.10244 0.0
H873 H 0.18379 0.73934 0.44439 0.0
H874 H 0.25283 0.75463 0.48495 0.0
H875 H 0.23588 0.70147 0.44113 0.0
H876 H 0.15603 0.67029 0.52406 0.0
H877 H 0.1294 0.65315 0.44517 0.0
H878 H 0.14675 0.6926 0.48019 0.0
H879 H 0.14839 0.69864 0.32121 0.0
H880 H 0.13112 0.65921 0.28573 0.0
H881 H 0.15894 0.68063 0.25624 0.0
H882 H 0.21166 0.64609 0.38863 0.0
H883 H 0.18207 0.5931 0.33913 0.0
H884 H 0.12791 0.61156 0.33405 0.0
C885 C 0.19538 0.73155 0.44463 0.0
C886 C 0.21989 0.75182 0.46879 0.0
C887 C 0.23413 0.74015 0.46741 0.0
C888 C 0.22462 0.70973 0.4422 0.0
C889 C 0.20059 0.69055 0.4183 0.0
C890 C 0.18609 0.70092 0.41982 0.0
C891 C 0.16079 0.67525 0.39131 0.0
C892 C 0.14746 0.67267 0.46455 0.0
C893 C 0.14912 0.67864 0.30872 0.0
C894 C 0.16339 0.64898 0.37346 0.0
C895 C 0.18656 0.65844 0.38914 0.0
C896 C 0.19347 0.63851 0.37649 0.0
C897 C 0.17641 0.60824 0.34791 0.0
C898 C 0.1524 0.59758 0.33214 0.0
C899 C 0.14599 0.6186 0.34524 0.0
H900 H 0.47759 0.46452 0.30923 0.0
H901 H 0.43109 0.42925 1.05822 0.0
H902 H 0.39773 0.40216 0.128 0.0
H903 H 0.44603 0.39894 0.40145 0.0
H904 H 0.45167 0.4197 0.50766 0.0
H905 H 0.47207 0.43509 0.43765 0.0
H906 H 0.46922 0.48098 0.45233 0.0
H907 H 0.44879 0.46577 0.52227 0.0
H908 H 0.44121 0.47626 0.4259 0.0
H909 H 0.36919 0.38091 0.22548 0.0
H910 H 0.34757 0.36654 0.34343 0.0
H911 H 0.41248 0.41532 0.53172 0.0
C912 C 0.46039 0.4511 0.26888 0.0
C913 C 0.45701 0.449 0.17802 0.0
C914 C 0.4342 0.43092 0.12766 0.0
C915 C 0.41511 0.41554 0.16679 0.0
C916 C 0.41905 0.41833 0.25642 0.0
C917 C 0.44113 0.43554 0.30687 0.0
C918 C 0.44053 0.43526 0.40206 0.0
C919 C 0.45333 0.42142 0.43937 0.0
C920 C 0.45053 0.46642 0.45366 0.0
C921 C 0.41463 0.41569 0.39737 0.0
C922 C 0.40258 0.406 0.31268 0.0
C923 C 0.37847 0.38812 0.29197 0.0
C924 C 0.36633 0.37991 0.35953 0.0
C925 C 0.37827 0.38954 0.44705 0.0
C926 C 0.40279 0.40768 0.46572 0.0
H927 H 0.86641 0.69467 0.60624 0.0
H928 H 0.93884 0.75939 0.61338 0.0
H929 H 0.92783 0.78973 0.5418 0.0
H930 H 0.84234 0.70271 0.39853 0.0
H931 H 0.81748 0.69936 0.43554 0.0
H932 H 0.83072 0.68114 0.47966 0.0
H933 H 0.83585 0.70744 0.63418 0.0
H934 H 0.82284 0.72596 0.59054 0.0
H935 H 0.8513 0.74706 0.65918 0.0
H936 H 0.90966 0.81385 0.4748 0.0
H937 H 0.88523 0.83129 0.41724 0.0
H938 H 0.82414 0.75306 0.45927 0.0
C939 C 0.87981 0.7149 0.59066 0.0
C940 C 0.90347 0.72455 0.61382 0.0
C941 C 0.92064 0.75156 0.59531 0.0
C942 C 0.91455 0.76892 0.55476 0.0
C943 C 0.89118 0.75921 0.53423 0.0
C944 C 0.87402 0.73292 0.55158 0.0
C945 C 0.85037 0.7288 0.52759 0.0
C946 C 0.83428 0.70137 0.45606 0.0
C947 C 0.83945 0.72723 0.60765 0.0
C948 C 0.85701 0.75689 0.49435 0.0
C949 C 0.88065 0.77389 0.49824 0.0
C950 C 0.89112 0.80072 0.47113 0.0
C951 C 0.87709 0.81042 0.43842 0.0
C952 C 0.8528 0.79352 0.43349 0.0
C953 C 0.84267 0.76649 0.46268 0.0
H954 H 0.3827 0.0752 0.77192 0.0
H955 H 0.35896 0.10485 0.56421 0.0
H956 H 0.32683 0.05341 0.5027 0.0
H957 H 0.37075 1.00828 0.63505 0.0
H958 H 0.36221 0.98666 0.71809 0.0
H959 H 0.38277 0.02586 0.74746 0.0
H960 H 0.35667 0.03054 0.84418 0.0
H961 H 0.33597 0.99138 0.81468 0.0
H962 H 0.32684 1.01641 0.79784 0.0
H963 H 0.29528 0.99769 0.46742 0.0
H964 H 0.27091 0.94344 0.45174 0.0
H965 H 0.31694 0.94872 0.67318 0.0
C966 C 0.37074 0.07088 0.71347 0.0
C967 C 0.37347 0.0945 0.67351 0.0
C968 C 0.35748 0.08749 0.59633 0.0
C969 C 0.339 0.05818 0.56099 0.0
C970 C 0.33673 0.03551 0.60203 0.0
C971 C 0.35248 0.04149 0.67576 0.0
C972 C 0.34682 1.0129 0.70468 0.0
C973 C 0.36683 1.00815 0.7011 0.0
C974 C 0.34125 1.01281 0.79576 0.0
C975 C 0.32531 0.98999 0.63668 0.0
C976 C 0.31956 1.00353 0.5787 0.0
C977 C 0.29987 0.98699 0.51216 0.0
C978 C 0.28597 0.95604 0.5039 0.0
C979 C 0.29183 0.94138 0.56061 0.0
C980 C 0.3119 0.95894 0.62799 0.0
H981 H 1.00242 0.21936 0.67165 0.0
H982 H 0.98311 0.15934 0.85164 0.0
H983 H 1.01861 0.15948 0.8505 0.0
H984 H 0.02795 0.1872 0.54561 0.0
H985 H 0.05143 0.22191 0.52979 0.0
H986 H 1.02437 0.21774 0.5435 0.0
H987 H 0.04617 0.26224 0.6715 0.0
H988 H 0.0733 0.26653 0.65814 0.0
H989 H 0.0647 0.2622 0.76134 0.0
H990 H 0.05628 0.16552 0.83279 0.0
H991 H 0.09344 0.17671 0.79777 0.0
H992 H 0.0908 0.23301 0.62797 0.0
C993 C 1.00563 0.20623 0.71077 0.0
C994 C 0.98943 0.18928 0.7618 0.0
C995 C 0.99473 0.17252 0.81166 0.0
C996 C 1.01507 0.17243 0.81165 0.0
C997 C 0.0305 0.18916 0.76122 0.0
C998 C 0.02614 0.20576 0.71135 0.0
C999 C 0.04596 0.22157 0.66295 0.0
C1000 C 0.03688 0.21151 0.56461 0.0
C1001 C 0.05826 0.25513 0.6901 0.0
C1002 C 0.06198 0.21126 0.69371 0.0
C1003 C 0.05257 0.19262 0.75061 0.0
C1004 C 0.06384 0.18023 0.78858 0.0
C1005 C 0.08524 0.18699 0.76858 0.0
C1006 C 0.09572 0.20615 0.71073 0.0
C1007 C 0.08356 0.21824 0.67232 0.0
H1008 H 0.37969 0.23183 0.67223 0.0
H1009 H 0.35021 0.16819 0.8376 0.0
H1010 H 0.31606 0.17246 0.82485 0.0
H1011 H 0.36094 0.27862 0.76076 0.0
H1012 H 0.3552 0.28757 0.65847 0.0
H1013 H 0.37685 0.27866 0.67821 0.0
H1014 H 0.3559 0.23763 0.54073 0.0
H1015 H 0.33411 0.24632 0.52097 0.0
H1016 H 0.3257 0.20933 0.52939 0.0
H1017 H 0.28365 0.18372 0.79172 0.0
H1018 H 0.2594 0.20376 0.75273 0.0
H1019 H 0.3104 0.26142 0.61395 0.0
C1020 C 0.36605 0.21867 0.70567 0.0
C1021 C 0.36798 0.19945 0.75587 0.0
C1022 C 0.34954 0.18307 0.79882 0.0
C1023 C 0.32986 0.1853 0.79164 0.0
C1024 C 0.32849 0.2043 0.74172 0.0
C1025 C 0.3463 0.22096 0.70019 0.0
C1026 C 0.34104 0.24062 0.65328 0.0
C1027 C 0.35961 0.2733 0.68986 0.0
C1028 C 0.33907 0.23302 0.55527 0.0
C1029 C 0.31757 0.23245 0.67451 0.0
C1030 C 0.31044 0.21123 0.72495 0.0
C1031 C 0.28924 0.20036 0.75223 0.0
C1032 C 0.27535 0.21176 0.72913 0.0
C1033 C 0.28253 0.23418 0.67947 0.0
C1034 C 0.304 0.24422 0.65153 0.0
H1035 H 0.79287 0.96198 0.48923 0.0
H1036 H 0.82968 0.96014 0.28723 0.0
H1037 H 0.86057 1.01232 0.3463 0.0
H1038 H 0.80734 0.03688 0.5011 0.0
H1039 H 0.81121 0.04478 0.61723 0.0
H1040 H 0.79157 1.00759 0.55787 0.0
H1041 H 0.81352 0.99008 0.65162 0.0
H1042 H 0.83319 0.02721 0.71131 0.0
H1043 H 0.84433 1.00743 0.65921 0.0
H1044 H 0.88707 0.06589 0.42472 0.0
H1045 H 0.90869 0.11449 0.52287 0.0
H1046 H 0.85674 0.08156 0.68235 0.0
C1047 C 0.8074 0.97257 0.4572 0.0
C1048 C 0.80861 0.95672 0.38263 0.0
C1049 C 0.82819 0.97152 0.34399 0.0
C1050 C 0.84584 1.00131 0.3771 0.0
C1051 C 0.84409 1.01625 0.45027 0.0
C1052 C 0.8255 1.00226 0.49065 0.0
C1053 C 0.82832 1.02311 0.57051 0.0
C1054 C 0.80842 0.0284 0.56109 0.0
C1055 C 0.82994 1.01125 0.65305 0.0
C1056 C 0.85132 0.05103 0.56859 0.0
C1057 C 0.85993 0.04664 0.4979 0.0
C1058 C 0.88052 0.06937 0.48055 0.0
C1059 C 0.8927 0.09708 0.5368 0.0
C1060 C 0.88466 0.10215 0.6111 0.0
C1061 C 0.86358 0.07855 0.62679 0.0
H1062 H 1.00673 0.76269 0.73815 0.0
H1063 H 0.98494 0.67126 0.71449 0.0
H1064 H 1.02405 0.68422 0.69571 0.0
H1065 H 0.04066 0.77892 0.57647 0.0
H1066 H 0.06298 0.81557 0.63263 0.0
H1067 H 0.03397 0.79917 0.65216 0.0
H1068 H 0.05023 0.80882 0.81606 0.0
H1069 H 0.07921 0.8246 0.79594 0.0
H1070 H 0.06732 0.79432 0.85222 0.0
H1071 H 0.06468 0.70647 0.67279 0.0
H1072 H 0.10264 0.73519 0.63185 0.0
H1073 H 0.09837 0.81252 0.66339 0.0
C1074 C 1.01038 0.74556 0.7296 0.0
C1075 C 0.9929 0.71591 0.72735 0.0
C1076 C 0.99809 0.69398 0.7155 0.0
C1077 C 1.02033 0.70123 0.70581 0.0
C1078 C 0.03728 0.73063 0.70831 0.0
C1079 C 0.03254 0.75245 0.71881 0.0
C1080 C 0.05345 0.78194 0.71242 0.0
C1081 C 0.04739 0.79463 0.63905 0.0
C1082 C 0.06312 0.8037 0.79934 0.0
C1083 C 0.07019 0.77296 0.69223 0.0
C1084 C 0.06079 0.74348 0.69355 0.0
C1085 C 0.07235 0.72965 0.67272 0.0
C1086 C 0.09383 0.74613 0.64825 0.0
C1087 C 0.10362 0.77618 0.64341 0.0
C1088 C 0.09168 0.78977 0.66745 0.0
loop_
_geom_bond_atom_site_label_1
_geom_bond_atom_site_label_2
_geom_bond_distance
_geom_bond_site_symmetry_2
_ccdc_geom_bond_type
Tb0 C10 2.825 . S
Tb0 O11 2.347 . S
Tb0 O14 2.366 . S
Tb0 O19 2.418 1_554 S
Tb0 O20 2.384 . S
Tb0 O23 2.479 . S
Tb0 O24 2.471 . S
Eu1 O12 2.418 . S
Eu1 O13 2.384 . S
Eu1 O16 2.479 1_455 S
Eu1 O17 2.471 1_554 S
Eu1 O18 2.347 1_554 S
Eu1 O21 2.366 . S
Eu1 C31 2.825 1_455 S
C2 O18 1.259 . S
C2 O19 1.265 . S
C3 O20 1.255 . S
C3 O21 1.265 . S
C4 C6 1.380 . S
C4 C7 1.374 . S
C4 C10 1.507 . S
C5 C6 1.384 . S
C5 C9 1.387 . S
C5 H32 0.930 . S
C6 C4 1.380 . S
C6 C5 1.384 . S
C6 H33 0.931 . S
C7 C4 1.374 . S
C7 C8 1.390 . S
C7 H34 0.930 . S
C8 C7 1.390 . S
C8 C9 1.391 . S
C8 H35 0.930 . S
C9 C5 1.387 . S
C9 C8 1.391 . S
C10 Tb0 2.825 . S
C10 C4 1.507 . S
C10 O23 1.238 . S
C10 O24 1.247 . S
O11 Tb0 2.347 . S
O11 C15 1.259 . S
O12 Eu1 2.418 . S
O12 C15 1.265 . S
O13 Eu1 2.384 . S
O13 C22 1.255 . S
O14 Tb0 2.366 . S
O14 C22 1.265 . S
C15 O11 1.259 . S
C15 O12 1.265 . S
O16 Eu1 2.479 1_655 S
O16 C31 1.238 . S
O17 Eu1 2.471 1_556 S
O17 C31 1.247 1_456 S
O18 Eu1 2.347 1_556 S
O18 C2 1.259 . S
O19 Tb0 2.418 1_556 S
O19 C2 1.265 . S
O20 Tb0 2.384 . S
O20 C3 1.255 . S
O21 Eu1 2.366 . S
O21 C3 1.265 . S
C22 O13 1.255 . S
C22 O14 1.265 . S
O23 Tb0 2.479 . S
O23 C10 1.238 . S
O24 Tb0 2.471 . S
O24 C10 1.247 . S
C25 C28 1.380 . S
C25 C29 1.374 1_554 S
C25 C31 1.507 . S
C26 C27 1.387 1_556 S
C26 C30 1.391 . S
C27 C26 1.387 1_554 S
C27 C28 1.384 . S
C27 H36 0.930 . S
C28 C25 1.380 . S
C28 C27 1.384 . S
C28 H37 0.931 . S
C29 C25 1.374 1_556 S
C29 C30 1.390 . S
C29 H38 0.930 1_655 S
C30 C26 1.391 . S
C30 C29 1.390 . S
C30 H39 0.930 . S
C31 Eu1 2.825 1_655 S
C31 O16 1.238 . S
C31 O17 1.247 1_654 S
C31 C25 1.507 . S
H32 C5 0.930 . S
H33 C6 0.931 . S
H34 C7 0.930 . S
H35 C8 0.930 . S
H36 C27 0.930 . S
H37 C28 0.931 . S
H38 C29 0.930 1_455 S
H39 C30 0.930 . S
Tb40 C50 2.825 . S
Tb40 O51 2.347 . S
Tb40 O54 2.366 . S
Tb40 O59 2.418 . S
Tb40 O60 2.384 . S
Tb40 O63 2.479 . S
Tb40 O64 2.471 . S
Eu41 O52 2.418 1_554 S
Eu41 O53 2.384 . S
Eu41 O56 2.479 . S
Eu41 O57 2.471 . S
Eu41 O58 2.347 . S
Eu41 O61 2.366 . S
Eu41 C71 2.825 . S
C42 O58 1.259 . S
C42 O59 1.265 . S
C43 O60 1.255 . S
C43 O61 1.265 . S
C44 C46 1.380 . S
C44 C47 1.374 . S
C44 C50 1.507 . S
C45 C46 1.384 . S
C45 C49 1.387 . S
C45 H72 0.930 . S
C46 C44 1.380 . S
C46 C45 1.384 . S
C46 H73 0.931 . S
C47 C44 1.374 . S
C47 C48 1.390 . S
C47 H74 0.930 . S
C48 C47 1.390 . S
C48 C49 1.391 . S
C48 H75 0.930 . S
C49 C45 1.387 . S
C49 C48 1.391 . S
C50 Tb40 2.825 . S
C50 C44 1.507 . S
C50 O63 1.238 . S
C50 O64 1.247 . S
O51 Tb40 2.347 . S
O51 C55 1.259 1_554 S
O52 Eu41 2.418 1_556 S
O52 C55 1.265 . S
O53 Eu41 2.384 . S
O53 C62 1.255 . S
O54 Tb40 2.366 . S
O54 C62 1.265 . S
C55 O51 1.259 1_556 S
C55 O52 1.265 . S
O56 Eu41 2.479 . S
O56 C71 1.238 . S
O57 Eu41 2.471 . S
O57 C71 1.247 . S
O58 Eu41 2.347 . S
O58 C42 1.259 . S
O59 Tb40 2.418 . S
O59 C42 1.265 . S
O60 Tb40 2.384 . S
O60 C43 1.255 . S
O61 Eu41 2.366 . S
O61 C43 1.265 . S
C62 O53 1.255 . S
C62 O54 1.265 . S
O63 Tb40 2.479 . S
O63 C50 1.238 . S
O64 Tb40 2.471 . S
O64 C50 1.247 . S
C65 C68 1.380 . S
C65 C69 1.374 . S
C65 C71 1.507 . S
C66 C67 1.387 . S
C66 C70 1.391 . S
C67 C66 1.387 . S
C67 C68 1.384 . S
C67 H76 0.930 . S
C68 C65 1.380 . S
C68 C67 1.384 . S
C68 H77 0.931 . S
C69 C65 1.374 . S
C69 C70 1.390 . S
C69 H78 0.930 . S
C70 C66 1.391 . S
C70 C69 1.390 . S
C70 H79 0.930 . S
C71 Eu41 2.825 . S
C71 O56 1.238 . S
C71 O57 1.247 . S
C71 C65 1.507 . S
H72 C45 0.930 . S
H73 C46 0.931 . S
H74 C47 0.930 . S
H75 C48 0.930 . S
H76 C67 0.930 . S
H77 C68 0.931 . S
H78 C69 0.930 . S
H79 C70 0.930 . S
Tb80 C90 2.825 . S
Tb80 O91 2.347 . S
Tb80 O94 2.366 . S
Tb80 O99 2.418 1_554 S
Tb80 O100 2.384 . S
Tb80 O103 2.479 . S
Tb80 O104 2.471 . S
Eu81 O92 2.418 . S
Eu81 O93 2.384 . S
Eu81 O96 2.479 . S
Eu81 O97 2.471 . S
Eu81 O98 2.347 . S
Eu81 O101 2.366 . S
Eu81 C111 2.825 . S
C82 O98 1.259 1_556 S
C82 O99 1.265 . S
C83 O100 1.255 . S
C83 O101 1.265 . S
C84 C86 1.380 . S
C84 C87 1.374 . S
C84 C90 1.507 . S
C85 C86 1.384 . S
C85 C89 1.387 . S
C85 H112 0.930 1_545 S
C86 C84 1.380 . S
C86 C85 1.384 . S
C86 H113 0.931 . S
C87 C84 1.374 . S
C87 C88 1.390 . S
C87 H114 0.930 . S
C88 C87 1.390 . S
C88 C89 1.391 . S
C88 H115 0.930 . S
C89 C85 1.387 . S
C89 C88 1.391 . S
C90 Tb80 2.825 . S
C90 C84 1.507 . S
C90 O103 1.238 . S
C90 O104 1.247 . S
O91 Tb80 2.347 . S
O91 C95 1.259 . S
O92 Eu81 2.418 . S
O92 C95 1.265 . S
O93 Eu81 2.384 . S
O93 C102 1.255 . S
O94 Tb80 2.366 . S
O94 C102 1.265 . S
C95 O91 1.259 . S
C95 O92 1.265 . S
O96 Eu81 2.479 . S
O96 C111 1.238 . S
O97 Eu81 2.471 . S
O97 C111 1.247 . S
O98 Eu81 2.347 . S
O98 C82 1.259 1_554 S
O99 Tb80 2.418 1_556 S
O99 C82 1.265 . S
O100 Tb80 2.384 . S
O100 C83 1.255 . S
O101 Eu81 2.366 . S
O101 C83 1.265 . S
C102 O93 1.255 . S
C102 O94 1.265 . S
O103 Tb80 2.479 . S
O103 C90 1.238 . S
O104 Tb80 2.471 . S
O104 C90 1.247 . S
C105 C108 1.380 . S
C105 C109 1.374 . S
C105 C111 1.507 . S
C106 C107 1.387 . S
C106 C110 1.391 . S
C107 C106 1.387 . S
C107 C108 1.384 . S
C107 H116 0.930 . S
C108 C105 1.380 . S
C108 C107 1.384 . S
C108 H117 0.931 . S
C109 C105 1.374 . S
C109 C110 1.390 . S
C109 H118 0.930 . S
C110 C106 1.391 . S
C110 C109 1.390 . S
C110 H119 0.930 . S
C111 Eu81 2.825 . S
C111 O96 1.238 . S
C111 O97 1.247 . S
C111 C105 1.507 . S
H112 C85 0.930 1_565 S
H113 C86 0.931 . S
H114 C87 0.930 . S
H115 C88 0.930 . S
H116 C107 0.930 . S
H117 C108 0.931 . S
H118 C109 0.930 . S
H119 C110 0.930 . S
Tb120 C130 2.825 . S
Tb120 O131 2.347 . S
Tb120 O134 2.366 . S
Tb120 O139 2.418 . S
Tb120 O140 2.384 . S
Tb120 O143 2.479 . S
Tb120 O144 2.471 . S
Eu121 O132 2.418 . S
Eu121 O133 2.384 . S
Eu121 O136 2.479 . S
Eu121 O137 2.471 . S
Eu121 O138 2.347 . S
Eu121 O141 2.366 . S
Eu121 C151 2.825 . S
C122 O138 1.259 . S
C122 O139 1.265 . S
C123 O140 1.255 . S
C123 O141 1.265 . S
C124 C126 1.380 . S
C124 C127 1.374 . S
C124 C130 1.507 . S
C125 C126 1.384 . S
C125 C129 1.387 . S
C125 H152 0.930 . S
C126 C124 1.380 . S
C126 C125 1.384 . S
C126 H153 0.931 . S
C127 C124 1.374 . S
C127 C128 1.390 . S
C127 H154 0.930 . S
C128 C127 1.390 . S
C128 C129 1.391 . S
C128 H155 0.930 . S
C129 C125 1.387 . S
C129 C128 1.391 . S
C130 Tb120 2.825 . S
C130 C124 1.507 . S
C130 O143 1.238 . S
C130 O144 1.247 . S
O131 Tb120 2.347 . S
O131 C135 1.259 . S
O132 Eu121 2.418 . S
O132 C135 1.265 . S
O133 Eu121 2.384 . S
O133 C142 1.255 . S
O134 Tb120 2.366 . S
O134 C142 1.265 . S
C135 O131 1.259 . S
C135 O132 1.265 . S
O136 Eu121 2.479 . S
O136 C151 1.238 . S
O137 Eu121 2.471 . S
O137 C151 1.247 . S
O138 Eu121 2.347 . S
O138 C122 1.259 . S
O139 Tb120 2.418 . S
O139 C122 1.265 . S
O140 Tb120 2.384 . S
O140 C123 1.255 . S
O141 Eu121 2.366 . S
O141 C123 1.265 . S
C142 O133 1.255 . S
C142 O134 1.265 . S
O143 Tb120 2.479 . S
O143 C130 1.238 . S
O144 Tb120 2.471 . S
O144 C130 1.247 . S
C145 C148 1.380 . S
C145 C149 1.374 . S
C145 C151 1.507 . S
C146 C147 1.387 . S
C146 C150 1.391 . S
C147 C146 1.387 . S
C147 C148 1.384 . S
C147 H156 0.930 . S
C148 C145 1.380 . S
C148 C147 1.384 . S
C148 H157 0.931 . S
C149 C145 1.374 . S
C149 C150 1.390 . S
C149 H158 0.930 . S
C150 C146 1.391 . S
C150 C149 1.390 . S
C150 H159 0.930 . S
C151 Eu121 2.825 . S
C151 O136 1.238 . S
C151 O137 1.247 . S
C151 C145 1.507 . S
H152 C125 0.930 . S
H153 C126 0.931 . S
H154 C127 0.930 . S
H155 C128 0.930 . S
H156 C147 0.930 . S
H157 C148 0.931 . S
H158 C149 0.930 . S
H159 C150 0.930 . S
Tb160 C170 2.825 . S
Tb160 O171 2.347 . S
Tb160 O174 2.366 . S
Tb160 O179 2.418 . S
Tb160 O180 2.384 . S
Tb160 O183 2.479 . S
Tb160 O184 2.471 . S
Eu161 O172 2.418 . S
Eu161 O173 2.384 . S
Eu161 O176 2.479 . S
Eu161 O177 2.471 . S
Eu161 O178 2.347 . S
Eu161 O181 2.366 . S
Eu161 C191 2.825 . S
C162 O178 1.259 . S
C162 O179 1.265 . S
C163 O180 1.255 . S
C163 O181 1.265 . S
C164 C166 1.380 . S
C164 C167 1.374 . S
C164 C170 1.507 . S
C165 C166 1.384 . S
C165 C169 1.387 . S
C165 H192 0.930 . S
C166 C164 1.380 . S
C166 C165 1.384 . S
C166 H193 0.931 . S
C167 C164 1.374 . S
C167 C168 1.390 . S
C167 H194 0.930 . S
C168 C167 1.390 . S
C168 C169 1.391 . S
C168 H195 0.930 . S
C169 C165 1.387 . S
C169 C168 1.391 . S
C170 Tb160 2.825 . S
C170 C164 1.507 . S
C170 O183 1.238 . S
C170 O184 1.247 . S
O171 Tb160 2.347 . S
O171 C175 1.259 . S
O172 Eu161 2.418 . S
O172 C175 1.265 . S
O173 Eu161 2.384 . S
O173 C182 1.255 . S
O174 Tb160 2.366 . S
O174 C182 1.265 . S
C175 O171 1.259 . S
C175 O172 1.265 . S
O176 Eu161 2.479 . S
O176 C191 1.238 . S
O177 Eu161 2.471 . S
O177 C191 1.247 . S
O178 Eu161 2.347 . S
O178 C162 1.259 . S
O179 Tb160 2.418 . S
O179 C162 1.265 . S
O180 Tb160 2.384 . S
O180 C163 1.255 . S
O181 Eu161 2.366 . S
O181 C163 1.265 . S
C182 O173 1.255 . S
C182 O174 1.265 . S
O183 Tb160 2.479 . S
O183 C170 1.238 . S
O184 Tb160 2.471 . S
O184 C170 1.247 . S
C185 C188 1.380 . S
C185 C189 1.374 . S
C185 C191 1.507 . S
C186 C187 1.387 . S
C186 C190 1.391 . S
C187 C186 1.387 . S
C187 C188 1.384 . S
C187 H196 0.930 . S
C188 C185 1.380 . S
C188 C187 1.384 . S
C188 H197 0.931 . S
C189 C185 1.374 . S
C189 C190 1.390 . S
C189 H198 0.930 . S
C190 C186 1.391 . S
C190 C189 1.390 . S
C190 H199 0.930 . S
C191 Eu161 2.825 . S
C191 O176 1.238 . S
C191 O177 1.247 . S
C191 C185 1.507 . S
H192 C165 0.930 . S
H193 C166 0.931 . S
H194 C167 0.930 . S
H195 C168 0.930 . S
H196 C187 0.930 . S
H197 C188 0.931 . S
H198 C189 0.930 . S
H199 C190 0.930 . S
Tb200 C210 2.825 . S
Tb200 O211 2.347 . S
Tb200 O214 2.366 . S
Tb200 O219 2.418 . S
Tb200 O220 2.384 . S
Tb200 O223 2.479 . S
Tb200 O224 2.471 . S
Eu201 O212 2.418 . S
Eu201 O213 2.384 . S
Eu201 O216 2.479 . S
Eu201 O217 2.471 . S
Eu201 O218 2.347 . S
Eu201 O221 2.366 . S
Eu201 C231 2.825 . S
C202 O218 1.259 . S
C202 O219 1.265 . S
C203 O220 1.255 . S
C203 O221 1.265 . S
C204 C206 1.380 . S
C204 C207 1.374 . S
C204 C210 1.507 . S
C205 C206 1.384 . S
C205 C209 1.387 . S
C205 H232 0.930 . S
C206 C204 1.380 . S
C206 C205 1.384 . S
C206 H233 0.931 . S
C207 C204 1.374 . S
C207 C208 1.390 . S
C207 H234 0.930 . S
C208 C207 1.390 . S
C208 C209 1.391 . S
C208 H235 0.930 . S
C209 C205 1.387 . S
C209 C208 1.391 . S
C210 Tb200 2.825 . S
C210 C204 1.507 . S
C210 O223 1.238 . S
C210 O224 1.247 . S
O211 Tb200 2.347 . S
O211 C215 1.259 . S
O212 Eu201 2.418 . S
O212 C215 1.265 . S
O213 Eu201 2.384 . S
O213 C222 1.255 . S
O214 Tb200 2.366 . S
O214 C222 1.265 . S
C215 O211 1.259 . S
C215 O212 1.265 . S
O216 Eu201 2.479 . S
O216 C231 1.238 . S
O217 Eu201 2.471 . S
O217 C231 1.247 . S
O218 Eu201 2.347 . S
O218 C202 1.259 . S
O219 Tb200 2.418 . S
O219 C202 1.265 . S
O220 Tb200 2.384 . S
O220 C203 1.255 . S
O221 Eu201 2.366 . S
O221 C203 1.265 . S
C222 O213 1.255 . S
C222 O214 1.265 . S
O223 Tb200 2.479 . S
O223 C210 1.238 . S
O224 Tb200 2.471 . S
O224 C210 1.247 . S
C225 C228 1.380 . S
C225 C229 1.374 . S
C225 C231 1.507 . S
C226 C227 1.387 . S
C226 C230 1.391 . S
C227 C226 1.387 . S
C227 C228 1.384 . S
C227 H236 0.930 . S
C228 C225 1.380 . S
C228 C227 1.384 . S
C228 H237 0.931 . S
C229 C225 1.374 . S
C229 C230 1.390 . S
C229 H238 0.930 . S
C230 C226 1.391 . S
C230 C229 1.390 . S
C230 H239 0.930 . S
C231 Eu201 2.825 . S
C231 O216 1.238 . S
C231 O217 1.247 . S
C231 C225 1.507 . S
H232 C205 0.930 . S
H233 C206 0.931 . S
H234 C207 0.930 . S
H235 C208 0.930 . S
H236 C227 0.930 . S
H237 C228 0.931 . S
H238 C229 0.930 . S
H239 C230 0.930 . S
Tb240 C250 2.825 . S
Tb240 O251 2.347 . S
Tb240 O254 2.366 . S
Tb240 O259 2.418 . S
Tb240 O260 2.384 . S
Tb240 O263 2.479 . S
Tb240 O264 2.471 . S
Eu241 O252 2.418 . S
Eu241 O253 2.384 . S
Eu241 O256 2.479 . S
Eu241 O257 2.471 . S
Eu241 O258 2.347 . S
Eu241 O261 2.366 . S
Eu241 C271 2.825 . S
C242 O258 1.259 . S
C242 O259 1.265 . S
C243 O260 1.255 . S
C243 O261 1.265 . S
C244 C246 1.380 . S
C244 C247 1.374 . S
C244 C250 1.507 . S
C245 C246 1.384 . S
C245 C249 1.387 . S
C245 H272 0.930 . S
C246 C244 1.380 . S
C246 C245 1.384 . S
C246 H273 0.931 . S
C247 C244 1.374 . S
C247 C248 1.390 . S
C247 H274 0.930 . S
C248 C247 1.390 . S
C248 C249 1.391 . S
C248 H275 0.930 . S
C249 C245 1.387 . S
C249 C248 1.391 . S
C250 Tb240 2.825 . S
C250 C244 1.507 . S
C250 O263 1.238 . S
C250 O264 1.247 . S
O251 Tb240 2.347 . S
O251 C255 1.259 . S
O252 Eu241 2.418 . S
O252 C255 1.265 . S
O253 Eu241 2.384 . S
O253 C262 1.255 . S
O254 Tb240 2.366 . S
O254 C262 1.265 . S
C255 O251 1.259 . S
C255 O252 1.265 . S
O256 Eu241 2.479 . S
O256 C271 1.238 . S
O257 Eu241 2.471 . S
O257 C271 1.247 . S
O258 Eu241 2.347 . S
O258 C242 1.259 . S
O259 Tb240 2.418 . S
O259 C242 1.265 . S
O260 Tb240 2.384 . S
O260 C243 1.255 . S
O261 Eu241 2.366 . S
O261 C243 1.265 . S
C262 O253 1.255 . S
C262 O254 1.265 . S
O263 Tb240 2.479 . S
O263 C250 1.238 . S
O264 Tb240 2.471 . S
O264 C250 1.247 . S
C265 C268 1.380 1_556 S
C265 C269 1.374 1_556 S
C265 C271 1.507 . S
C266 C267 1.387 . S
C266 C270 1.391 . S
C267 C266 1.387 . S
C267 C268 1.384 . S
C267 H276 0.930 . S
C268 C265 1.380 1_554 S
C268 C267 1.384 . S
C268 H277 0.931 1_554 S
C269 C265 1.374 1_554 S
C269 C270 1.390 . S
C269 H278 0.930 . S
C270 C266 1.391 . S
C270 C269 1.390 . S
C270 H279 0.930 . S
C271 Eu241 2.825 . S
C271 O256 1.238 . S
C271 O257 1.247 . S
C271 C265 1.507 . S
H272 C245 0.930 . S
H273 C246 0.931 . S
H274 C247 0.930 . S
H275 C248 0.930 . S
H276 C267 0.930 . S
H277 C268 0.931 1_556 S
H278 C269 0.930 . S
H279 C270 0.930 . S
Tb280 C290 2.825 . S
Tb280 O291 2.347 . S
Tb280 O294 2.366 . S
Tb280 O299 2.418 . S
Tb280 O300 2.384 . S
Tb280 O303 2.479 . S
Tb280 O304 2.471 . S
Eu281 O292 2.418 . S
Eu281 O293 2.384 . S
Eu281 O296 2.479 . S
Eu281 O297 2.471 . S
Eu281 O298 2.347 . S
Eu281 O301 2.366 . S
Eu281 C311 2.825 . S
C282 O298 1.259 . S
C282 O299 1.265 . S
C283 O300 1.255 . S
C283 O301 1.265 . S
C284 C286 1.380 1_556 S
C284 C287 1.374 1_556 S
C284 C290 1.507 . S
C285 C286 1.384 . S
C285 C289 1.387 . S
C285 H312 0.930 . S
C286 C284 1.380 1_554 S
C286 C285 1.384 . S
C286 H313 0.931 1_554 S
C287 C284 1.374 1_554 S
C287 C288 1.390 . S
C287 H314 0.930 . S
C288 C287 1.390 . S
C288 C289 1.391 . S
C288 H315 0.930 . S
C289 C285 1.387 . S
C289 C288 1.391 . S
C290 Tb280 2.825 . S
C290 C284 1.507 . S
C290 O303 1.238 . S
C290 O304 1.247 . S
O291 Tb280 2.347 . S
O291 C295 1.259 . S
O292 Eu281 2.418 . S
O292 C295 1.265 . S
O293 Eu281 2.384 . S
O293 C302 1.255 . S
O294 Tb280 2.366 . S
O294 C302 1.265 . S
C295 O291 1.259 . S
C295 O292 1.265 . S
O296 Eu281 2.479 . S
O296 C311 1.238 . S
O297 Eu281 2.471 . S
O297 C311 1.247 . S
O298 Eu281 2.347 . S
O298 C282 1.259 . S
O299 Tb280 2.418 . S
O299 C282 1.265 . S
O300 Tb280 2.384 . S
O300 C283 1.255 . S
O301 Eu281 2.366 . S
O301 C283 1.265 . S
C302 O293 1.255 . S
C302 O294 1.265 . S
O303 Tb280 2.479 . S
O303 C290 1.238 . S
O304 Tb280 2.471 . S
O304 C290 1.247 . S
C305 C308 1.380 . S
C305 C309 1.374 . S
C305 C311 1.507 . S
C306 C307 1.387 . S
C306 C310 1.391 . S
C307 C306 1.387 . S
C307 C308 1.384 . S
C307 H316 0.930 . S
C308 C305 1.380 . S
C308 C307 1.384 . S
C308 H317 0.931 . S
C309 C305 1.374 . S
C309 C310 1.390 . S
C309 H318 0.930 . S
C310 C306 1.391 . S
C310 C309 1.390 . S
C310 H319 0.930 . S
C311 Eu281 2.825 . S
C311 O296 1.238 . S
C311 O297 1.247 . S
C311 C305 1.507 . S
H312 C285 0.930 . S
H313 C286 0.931 1_556 S
H314 C287 0.930 . S
H315 C288 0.930 . S
H316 C307 0.930 . S
H317 C308 0.931 . S
H318 C309 0.930 . S
H319 C310 0.930 . S
Tb320 C330 2.825 . S
Tb320 O331 2.347 . S
Tb320 O334 2.366 . S
Tb320 O339 2.418 . S
Tb320 O340 2.384 . S
Tb320 O343 2.479 . S
Tb320 O344 2.471 . S
Eu321 O332 2.418 . S
Eu321 O333 2.384 . S
Eu321 O336 2.479 . S
Eu321 O337 2.471 . S
Eu321 O338 2.347 . S
Eu321 O341 2.366 . S
Eu321 C351 2.825 . S
C322 O338 1.259 . S
C322 O339 1.265 . S
C323 O340 1.255 . S
C323 O341 1.265 . S
C324 C326 1.380 . S
C324 C327 1.374 . S
C324 C330 1.507 . S
C325 C326 1.384 . S
C325 C329 1.387 . S
C325 H352 0.930 . S
C326 C324 1.380 . S
C326 C325 1.384 . S
C326 H353 0.931 . S
C327 C324 1.374 . S
C327 C328 1.390 . S
C327 H354 0.930 . S
C328 C327 1.390 . S
C328 C329 1.391 . S
C328 H355 0.930 . S
C329 C325 1.387 . S
C329 C328 1.391 . S
C330 Tb320 2.825 . S
C330 C324 1.507 . S
C330 O343 1.238 . S
C330 O344 1.247 . S
O331 Tb320 2.347 . S
O331 C335 1.259 . S
O332 Eu321 2.418 . S
O332 C335 1.265 . S
O333 Eu321 2.384 . S
O333 C342 1.255 . S
O334 Tb320 2.366 . S
O334 C342 1.265 . S
C335 O331 1.259 . S
C335 O332 1.265 . S
O336 Eu321 2.479 . S
O336 C351 1.238 . S
O337 Eu321 2.471 . S
O337 C351 1.247 . S
O338 Eu321 2.347 . S
O338 C322 1.259 . S
O339 Tb320 2.418 . S
O339 C322 1.265 . S
O340 Tb320 2.384 . S
O340 C323 1.255 . S
O341 Eu321 2.366 . S
O341 C323 1.265 . S
C342 O333 1.255 . S
C342 O334 1.265 . S
O343 Tb320 2.479 . S
O343 C330 1.238 . S
O344 Tb320 2.471 . S
O344 C330 1.247 . S
C345 C348 1.380 . S
C345 C349 1.374 . S
C345 C351 1.507 1_554 S
C346 C347 1.387 . S
C346 C350 1.391 . S
C347 C346 1.387 . S
C347 C348 1.384 . S
C347 H356 0.930 . S
C348 C345 1.380 . S
C348 C347 1.384 . S
C348 H357 0.931 . S
C349 C345 1.374 . S
C349 C350 1.390 . S
C349 H358 0.930 . S
C350 C346 1.391 . S
C350 C349 1.390 . S
C350 H359 0.930 . S
C351 Eu321 2.825 . S
C351 O336 1.238 . S
C351 O337 1.247 . S
C351 C345 1.507 1_556 S
H352 C325 0.930 . S
H353 C326 0.931 . S
H354 C327 0.930 . S
H355 C328 0.930 . S
H356 C347 0.930 . S
H357 C348 0.931 . S
H358 C349 0.930 . S
H359 C350 0.930 . S
H360 C372 0.930 . S
H361 C374 0.930 . S
H362 C375 0.930 . S
H363 C379 0.959 . S
H364 C379 0.959 . S
H365 C379 0.961 . S
H366 C380 0.960 1_655 S
H367 C380 0.964 1_655 S
H368 C380 0.959 1_655 S
H369 C383 0.929 . S
H370 C384 0.931 . S
H371 C386 0.930 . S
C372 H360 0.930 . S
C372 C373 1.399 . S
C372 C377 1.399 . S
C373 C372 1.399 . S
C373 C374 1.376 . S
C374 H361 0.930 . S
C374 C373 1.376 . S
C374 C375 1.388 . S
C375 H362 0.930 . S
C375 C374 1.388 . S
C375 C376 1.390 . S
C376 C375 1.390 . S
C376 C377 1.394 . S
C376 C382 1.465 . S
C377 C372 1.399 . S
C377 C376 1.394 . S
C377 C378 1.516 . S
C378 C377 1.516 . S
C378 C379 1.502 . S
C378 C380 1.561 . S
C378 C381 1.526 . S
C379 H363 0.959 . S
C379 H364 0.959 . S
C379 H365 0.961 . S
C379 C378 1.502 . S
C380 H366 0.960 1_455 S
C380 H367 0.964 1_455 S
C380 H368 0.959 1_455 S
C380 C378 1.561 . S
C381 C378 1.526 . S
C381 C382 1.396 . S
C381 C386 1.390 . S
C382 C376 1.465 . S
C382 C381 1.396 . S
C382 C383 1.399 . S
C383 H369 0.929 . S
C383 C382 1.399 . S
C383 C384 1.385 . S
C384 H370 0.931 . S
C384 C383 1.385 . S
C384 C385 1.389 . S
C385 C384 1.389 . S
C385 C386 1.387 . S
C386 H371 0.930 . S
C386 C381 1.390 . S
C386 C385 1.387 . S
H387 C399 0.930 . S
H388 C401 0.930 . S
H389 C402 0.930 . S
H390 C406 0.959 . S
H391 C406 0.959 . S
H392 C406 0.961 . S
H393 C407 0.960 . S
H394 C407 0.961 . S
H395 C407 0.959 . S
H396 C410 0.929 . S
H397 C411 0.931 . S
H398 C413 0.930 . S
C399 H387 0.930 . S
C399 C400 1.399 . S
C399 C404 1.399 . S
C400 C399 1.399 . S
C400 C401 1.376 . S
C401 H388 0.930 . S
C401 C400 1.376 . S
C401 C402 1.388 . S
C402 H389 0.930 . S
C402 C401 1.388 . S
C402 C403 1.390 . S
C403 C402 1.390 . S
C403 C404 1.394 . S
C403 C409 1.465 . S
C404 C399 1.399 . S
C404 C403 1.394 . S
C404 C405 1.516 . S
C405 C404 1.516 . S
C405 C406 1.502 . S
C405 C407 1.561 . S
C405 C408 1.526 . S
C406 H390 0.959 . S
C406 H391 0.959 . S
C406 H392 0.961 . S
C406 C405 1.502 . S
C407 H393 0.960 . S
C407 H394 0.961 . S
C407 H395 0.959 . S
C407 C405 1.561 . S
C408 C405 1.526 . S
C408 C409 1.396 . S
C408 C413 1.390 . S
C409 C403 1.465 . S
C409 C408 1.396 . S
C409 C410 1.399 . S
C410 H396 0.929 . S
C410 C409 1.399 . S
C410 C411 1.385 . S
C411 H397 0.931 . S
C411 C410 1.385 . S
C411 C412 1.389 . S
C412 C411 1.389 . S
C412 C413 1.387 . S
C413 H398 0.930 . S
C413 C408 1.390 . S
C413 C412 1.387 . S
H414 C426 0.930 . S
H415 C428 0.930 . S
H416 C429 0.930 . S
H417 C433 0.959 . S
H418 C433 0.959 . S
H419 C433 0.961 . S
H420 C434 0.960 . S
H421 C434 0.961 . S
H422 C434 0.959 . S
H423 C437 0.929 . S
H424 C438 0.931 . S
H425 C440 0.930 . S
C426 H414 0.930 . S
C426 C427 1.399 . S
C426 C431 1.399 . S
C427 C426 1.399 . S
C427 C428 1.376 . S
C428 H415 0.930 . S
C428 C427 1.376 . S
C428 C429 1.388 . S
C429 H416 0.930 . S
C429 C428 1.388 . S
C429 C430 1.390 . S
C430 C429 1.390 . S
C430 C431 1.394 . S
C430 C436 1.465 . S
C431 C426 1.399 . S
C431 C430 1.394 . S
C431 C432 1.516 . S
C432 C431 1.516 . S
C432 C433 1.502 . S
C432 C434 1.561 . S
C432 C435 1.526 . S
C433 H417 0.959 . S
C433 H418 0.959 . S
C433 H419 0.961 . S
C433 C432 1.502 . S
C434 H420 0.960 . S
C434 H421 0.961 . S
C434 H422 0.959 . S
C434 C432 1.561 . S
C435 C432 1.526 . S
C435 C436 1.396 . S
C435 C440 1.390 . S
C436 C430 1.465 . S
C436 C435 1.396 . S
C436 C437 1.399 . S
C437 H423 0.929 . S
C437 C436 1.399 . S
C437 C438 1.385 . S
C438 H424 0.931 . S
C438 C437 1.385 . S
C438 C439 1.389 . S
C439 C438 1.389 . S
C439 C440 1.387 . S
C440 H425 0.930 . S
C440 C435 1.390 . S
C440 C439 1.387 . S
H441 C453 0.930 . S
H442 C455 0.930 . S
H443 C456 0.930 . S
H444 C460 0.959 . S
H445 C460 0.959 . S
H446 C460 0.961 . S
H447 C461 0.960 . S
H448 C461 0.961 . S
H449 C461 0.959 . S
H450 C464 0.929 . S
H451 C465 0.931 . S
H452 C467 0.930 . S
C453 H441 0.930 . S
C453 C454 1.399 . S
C453 C458 1.399 . S
C454 C453 1.399 . S
C454 C455 1.376 . S
C455 H442 0.930 . S
C455 C454 1.376 . S
C455 C456 1.388 . S
C456 H443 0.930 . S
C456 C455 1.388 . S
C456 C457 1.390 . S
C457 C456 1.390 . S
C457 C458 1.394 . S
C457 C463 1.465 . S
C458 C453 1.399 . S
C458 C457 1.394 . S
C458 C459 1.516 . S
C459 C458 1.516 . S
C459 C460 1.502 . S
C459 C461 1.561 . S
C459 C462 1.526 . S
C460 H444 0.959 . S
C460 H445 0.959 . S
C460 H446 0.961 . S
C460 C459 1.502 . S
C461 H447 0.960 . S
C461 H448 0.961 . S
C461 H449 0.959 . S
C461 C459 1.561 . S
C462 C459 1.526 . S
C462 C463 1.396 . S
C462 C467 1.390 . S
C463 C457 1.465 . S
C463 C462 1.396 . S
C463 C464 1.399 . S
C464 H450 0.929 . S
C464 C463 1.399 . S
C464 C465 1.385 . S
C465 H451 0.931 . S
C465 C464 1.385 . S
C465 C466 1.389 1_556 S
C466 C465 1.389 1_554 S
C466 C467 1.387 1_554 S
C467 H452 0.930 . S
C467 C462 1.390 . S
C467 C466 1.387 1_556 S
H468 C480 0.930 . S
H469 C482 0.930 . S
H470 C483 0.930 . S
H471 C487 0.959 . S
H472 C487 0.959 . S
H473 C487 0.961 . S
H474 C488 0.960 . S
H475 C488 0.961 . S
H476 C488 0.959 . S
H477 C491 0.929 . S
H478 C492 0.931 . S
H479 C494 0.930 . S
C480 H468 0.930 . S
C480 C481 1.399 . S
C480 C485 1.399 . S
C481 C480 1.399 . S
C481 C482 1.376 . S
C482 H469 0.930 . S
C482 C481 1.376 . S
C482 C483 1.388 . S
C483 H470 0.930 . S
C483 C482 1.388 . S
C483 C484 1.390 . S
C484 C483 1.390 . S
C484 C485 1.394 . S
C484 C490 1.465 . S
C485 C480 1.399 . S
C485 C484 1.394 . S
C485 C486 1.516 . S
C486 C485 1.516 . S
C486 C487 1.502 . S
C486 C488 1.561 . S
C486 C489 1.526 . S
C487 H471 0.959 . S
C487 H472 0.959 . S
C487 H473 0.961 . S
C487 C486 1.502 . S
C488 H474 0.960 . S
C488 H475 0.961 . S
C488 H476 0.959 . S
C488 C486 1.561 . S
C489 C486 1.526 . S
C489 C490 1.396 . S
C489 C494 1.390 . S
C490 C484 1.465 . S
C490 C489 1.396 . S
C490 C491 1.399 . S
C491 H477 0.929 . S
C491 C490 1.399 . S
C491 C492 1.385 . S
C492 H478 0.931 . S
C492 C491 1.385 . S
C492 C493 1.389 . S
C493 C492 1.389 . S
C493 C494 1.387 . S
C494 H479 0.930 . S
C494 C489 1.390 . S
C494 C493 1.387 . S
H495 C507 0.930 . S
H496 C509 0.930 . S
H497 C510 0.930 . S
H498 C514 0.959 . S
H499 C514 0.959 . S
H500 C514 0.961 . S
H501 C515 0.960 . S
H502 C515 0.961 . S
H503 C515 0.959 . S
H504 C518 0.929 . S
H505 C519 0.931 . S
H506 C521 0.930 . S
C507 H495 0.930 . S
C507 C508 1.399 . S
C507 C512 1.399 . S
C508 C507 1.399 . S
C508 C509 1.376 . S
C509 H496 0.930 . S
C509 C508 1.376 . S
C509 C510 1.388 . S
C510 H497 0.930 . S
C510 C509 1.388 . S
C510 C511 1.390 . S
C511 C510 1.390 . S
C511 C512 1.394 . S
C511 C517 1.465 . S
C512 C507 1.399 . S
C512 C511 1.394 . S
C512 C513 1.516 . S
C513 C512 1.516 . S
C513 C514 1.502 . S
C513 C515 1.561 . S
C513 C516 1.526 . S
C514 H498 0.959 . S
C514 H499 0.959 . S
C514 H500 0.961 . S
C514 C513 1.502 . S
C515 H501 0.960 . S
C515 H502 0.961 . S
C515 H503 0.959 . S
C515 C513 1.561 . S
C516 C513 1.526 . S
C516 C517 1.396 . S
C516 C521 1.390 . S
C517 C511 1.465 . S
C517 C516 1.396 . S
C517 C518 1.399 . S
C518 H504 0.929 . S
C518 C517 1.399 . S
C518 C519 1.385 . S
C519 H505 0.931 . S
C519 C518 1.385 . S
C519 C520 1.389 . S
C520 C519 1.389 . S
C520 C521 1.387 . S
C521 H506 0.930 . S
C521 C516 1.390 . S
C521 C520 1.387 . S
H522 C534 0.930 . S
H523 C536 0.930 . S
H524 C537 0.930 . S
H525 C541 0.959 . S
H526 C541 0.959 . S
H527 C541 0.961 . S
H528 C542 0.960 . S
H529 C542 0.961 . S
H530 C542 0.959 . S
H531 C545 0.929 . S
H532 C546 0.931 . S
H533 C548 0.930 . S
C534 H522 0.930 . S
C534 C535 1.399 . S
C534 C539 1.399 . S
C535 C534 1.399 . S
C535 C536 1.376 . S
C536 H523 0.930 . S
C536 C535 1.376 . S
C536 C537 1.388 . S
C537 H524 0.930 . S
C537 C536 1.388 . S
C537 C538 1.390 . S
C538 C537 1.390 . S
C538 C539 1.394 . S
C538 C544 1.465 . S
C539 C534 1.399 . S
C539 C538 1.394 . S
C539 C540 1.516 . S
C540 C539 1.516 . S
C540 C541 1.502 . S
C540 C542 1.561 . S
C540 C543 1.526 . S
C541 H525 0.959 . S
C541 H526 0.959 . S
C541 H527 0.961 . S
C541 C540 1.502 . S
C542 H528 0.960 . S
C542 H529 0.961 . S
C542 H530 0.959 . S
C542 C540 1.561 . S
C543 C540 1.526 . S
C543 C544 1.396 . S
C543 C548 1.390 . S
C544 C538 1.465 . S
C544 C543 1.396 . S
C544 C545 1.399 . S
C545 H531 0.929 . S
C545 C544 1.399 . S
C545 C546 1.385 . S
C546 H532 0.931 . S
C546 C545 1.385 . S
C546 C547 1.389 . S
C547 C546 1.389 . S
C547 C548 1.387 . S
C548 H533 0.930 . S
C548 C543 1.390 . S
C548 C547 1.387 . S
H549 C561 0.930 . S
H550 C563 0.930 . S
H551 C564 0.930 . S
H552 C568 0.959 . S
H553 C568 0.959 . S
H554 C568 0.961 . S
H555 C569 0.960 . S
H556 C569 0.961 . S
H557 C569 0.959 . S
H558 C572 0.929 . S
H559 C573 0.931 . S
H560 C575 0.930 . S
C561 H549 0.930 . S
C561 C562 1.399 . S
C561 C566 1.399 . S
C562 C561 1.399 . S
C562 C563 1.376 . S
C563 H550 0.930 . S
C563 C562 1.376 . S
C563 C564 1.388 . S
C564 H551 0.930 . S
C564 C563 1.388 . S
C564 C565 1.390 . S
C565 C564 1.390 . S
C565 C566 1.394 . S
C565 C571 1.465 . S
C566 C561 1.399 . S
C566 C565 1.394 . S
C566 C567 1.516 . S
C567 C566 1.516 . S
C567 C568 1.502 . S
C567 C569 1.561 . S
C567 C570 1.526 . S
C568 H552 0.959 . S
C568 H553 0.959 . S
C568 H554 0.961 . S
C568 C567 1.502 . S
C569 H555 0.960 . S
C569 H556 0.961 . S
C569 H557 0.959 . S
C569 C567 1.561 . S
C570 C567 1.526 . S
C570 C571 1.396 . S
C570 C575 1.390 . S
C571 C565 1.465 . S
C571 C570 1.396 . S
C571 C572 1.399 . S
C572 H558 0.929 . S
C572 C571 1.399 . S
C572 C573 1.385 . S
C573 H559 0.931 . S
C573 C572 1.385 . S
C573 C574 1.389 . S
C574 C573 1.389 . S
C574 C575 1.387 . S
C575 H560 0.930 . S
C575 C570 1.390 . S
C575 C574 1.387 . S
H576 C588 0.930 . S
H577 C590 0.930 . S
H578 C591 0.930 . S
H579 C595 0.959 . S
H580 C595 0.959 . S
H581 C595 0.961 . S
H582 C596 0.960 . S
H583 C596 0.961 . S
H584 C596 0.959 . S
H585 C599 0.929 . S
H586 C600 0.931 . S
H587 C602 0.930 . S
C588 H576 0.930 . S
C588 C589 1.399 . S
C588 C593 1.399 . S
C589 C588 1.399 . S
C589 C590 1.376 . S
C590 H577 0.930 . S
C590 C589 1.376 . S
C590 C591 1.388 . S
C591 H578 0.930 . S
C591 C590 1.388 . S
C591 C592 1.390 . S
C592 C591 1.390 . S
C592 C593 1.394 . S
C592 C598 1.465 . S
C593 C588 1.399 . S
C593 C592 1.394 . S
C593 C594 1.516 . S
C594 C593 1.516 . S
C594 C595 1.502 . S
C594 C596 1.561 . S
C594 C597 1.526 . S
C595 H579 0.959 . S
C595 H580 0.959 . S
C595 H581 0.961 . S
C595 C594 1.502 . S
C596 H582 0.960 . S
C596 H583 0.961 . S
C596 H584 0.959 . S
C596 C594 1.561 . S
C597 C594 1.526 . S
C597 C598 1.396 . S
C597 C602 1.390 . S
C598 C592 1.465 . S
C598 C597 1.396 . S
C598 C599 1.399 . S
C599 H585 0.929 . S
C599 C598 1.399 . S
C599 C600 1.385 . S
C600 H586 0.931 . S
C600 C599 1.385 . S
C600 C601 1.389 . S
C601 C600 1.389 . S
C601 C602 1.387 . S
C602 H587 0.930 . S
C602 C597 1.390 . S
C602 C601 1.387 . S
H603 C615 0.930 . S
H604 C617 0.930 . S
H605 C618 0.930 . S
H606 C622 0.959 . S
H607 C622 0.959 1_556 S
H608 C622 0.961 . S
H609 C623 0.960 . S
H610 C623 0.961 . S
H611 C623 0.959 . S
H612 C626 0.929 . S
H613 C627 0.931 . S
H614 C629 0.930 . S
C615 H603 0.930 . S
C615 C616 1.399 . S
C615 C620 1.399 . S
C616 C615 1.399 . S
C616 C617 1.376 . S
C617 H604 0.930 . S
C617 C616 1.376 . S
C617 C618 1.388 . S
C618 H605 0.930 . S
C618 C617 1.388 . S
C618 C619 1.390 . S
C619 C618 1.390 . S
C619 C620 1.394 . S
C619 C625 1.465 . S
C620 C615 1.399 . S
C620 C619 1.394 . S
C620 C621 1.516 . S
C621 C620 1.516 . S
C621 C622 1.502 . S
C621 C623 1.561 . S
C621 C624 1.526 . S
C622 H606 0.959 . S
C622 H607 0.959 1_554 S
C622 H608 0.961 . S
C622 C621 1.502 . S
C623 H609 0.960 . S
C623 H610 0.961 . S
C623 H611 0.959 . S
C623 C621 1.561 . S
C624 C621 1.526 . S
C624 C625 1.396 . S
C624 C629 1.390 . S
C625 C619 1.465 . S
C625 C624 1.396 . S
C625 C626 1.399 . S
C626 H612 0.929 . S
C626 C625 1.399 . S
C626 C627 1.385 . S
C627 H613 0.931 . S
C627 C626 1.385 . S
C627 C628 1.389 . S
C628 C627 1.389 . S
C628 C629 1.387 . S
C629 H614 0.930 . S
C629 C624 1.390 . S
C629 C628 1.387 . S
H630 C642 0.930 . S
H631 C644 0.930 . S
H632 C645 0.930 . S
H633 C649 0.959 . S
H634 C649 0.959 . S
H635 C649 0.961 . S
H636 C650 0.960 . S
H637 C650 0.961 . S
H638 C650 0.959 . S
H639 C653 0.929 . S
H640 C654 0.931 . S
H641 C656 0.930 . S
C642 H630 0.930 . S
C642 C643 1.399 . S
C642 C647 1.399 . S
C643 C642 1.399 . S
C643 C644 1.376 . S
C644 H631 0.930 . S
C644 C643 1.376 . S
C644 C645 1.388 . S
C645 H632 0.930 . S
C645 C644 1.388 . S
C645 C646 1.390 . S
C646 C645 1.390 . S
C646 C647 1.394 . S
C646 C652 1.465 . S
C647 C642 1.399 . S
C647 C646 1.394 . S
C647 C648 1.516 . S
C648 C647 1.516 . S
C648 C649 1.502 . S
C648 C650 1.561 . S
C648 C651 1.526 . S
C649 H633 0.959 . S
C649 H634 0.959 . S
C649 H635 0.961 . S
C649 C648 1.502 . S
C650 H636 0.960 . S
C650 H637 0.961 . S
C650 H638 0.959 . S
C650 C648 1.561 . S
C651 C648 1.526 . S
C651 C652 1.396 . S
C651 C656 1.390 . S
C652 C646 1.465 . S
C652 C651 1.396 . S
C652 C653 1.399 . S
C653 H639 0.929 . S
C653 C652 1.399 . S
C653 C654 1.385 . S
C654 H640 0.931 . S
C654 C653 1.385 . S
C654 C655 1.389 . S
C655 C654 1.389 . S
C655 C656 1.387 . S
C656 H641 0.930 . S
C656 C651 1.390 . S
C656 C655 1.387 . S
H657 C669 0.930 . S
H658 C671 0.930 . S
H659 C672 0.930 . S
H660 C676 0.959 . S
H661 C676 0.959 . S
H662 C676 0.961 . S
H663 C677 0.960 . S
H664 C677 0.961 . S
H665 C677 0.959 . S
H666 C680 0.929 1_545 S
H667 C681 0.931 . S
H668 C683 0.930 . S
C669 H657 0.930 . S
C669 C670 1.399 1_565 S
C669 C674 1.399 . S
C670 C669 1.399 1_545 S
C670 C671 1.376 . S
C671 H658 0.930 . S
C671 C670 1.376 . S
C671 C672 1.388 . S
C672 H659 0.930 . S
C672 C671 1.388 . S
C672 C673 1.356 1_545 S
C673 C672 1.356 1_565 S
C673 C674 1.433 . S
C673 C679 1.469 . S
C674 C669 1.399 . S
C674 C673 1.433 . S
C674 C675 1.516 . S
C675 C674 1.516 . S
C675 C676 1.502 . S
C675 C677 1.561 . S
C675 C678 1.526 . S
C676 H660 0.959 . S
C676 H661 0.959 . S
C676 H662 0.961 . S
C676 C675 1.502 . S
C677 H663 0.960 . S
C677 H664 0.961 . S
C677 H665 0.959 . S
C677 C675 1.561 . S
C678 C675 1.526 . S
C678 C679 1.396 . S
C678 C683 1.390 . S
C679 C673 1.469 . S
C679 C678 1.396 . S
C679 C680 1.399 . S
C680 H666 0.929 1_565 S
C680 C679 1.399 . S
C680 C681 1.385 . S
C681 H667 0.931 . S
C681 C680 1.385 . S
C681 C682 1.389 . S
C682 C681 1.389 . S
C682 C683 1.387 . S
C683 H668 0.930 . S
C683 C678 1.390 . S
C683 C682 1.387 . S
H684 C696 0.930 . S
H685 C698 0.930 . S
H686 C699 0.930 . S
H687 C703 0.959 . S
H688 C703 0.959 . S
H689 C703 0.961 . S
H690 C704 0.960 . S
H691 C704 0.961 . S
H692 C704 0.959 . S
H693 C707 0.929 . S
H694 C708 0.931 . S
H695 C710 0.930 . S
C696 H684 0.930 . S
C696 C697 1.399 . S
C696 C701 1.399 . S
C697 C696 1.399 . S
C697 C698 1.376 1_554 S
C698 H685 0.930 . S
C698 C697 1.376 1_556 S
C698 C699 1.388 . S
C699 H686 0.930 . S
C699 C698 1.388 . S
C699 C700 1.390 . S
C700 C699 1.390 . S
C700 C701 1.394 1_556 S
C700 C706 1.465 . S
C701 C696 1.399 . S
C701 C700 1.394 1_554 S
C701 C702 1.516 . S
C702 C701 1.516 . S
C702 C703 1.502 . S
C702 C704 1.561 . S
C702 C705 1.526 1_554 S
C703 H687 0.959 . S
C703 H688 0.959 . S
C703 H689 0.961 . S
C703 C702 1.502 . S
C704 H690 0.960 . S
C704 H691 0.961 . S
C704 H692 0.959 . S
C704 C702 1.561 . S
C705 C702 1.526 1_556 S
C705 C706 1.396 . S
C705 C710 1.390 . S
C706 C700 1.465 . S
C706 C705 1.396 . S
C706 C707 1.399 . S
C707 H693 0.929 . S
C707 C706 1.399 . S
C707 C708 1.385 . S
C708 H694 0.931 . S
C708 C707 1.385 . S
C708 C709 1.389 . S
C709 C708 1.389 . S
C709 C710 1.387 . S
C710 H695 0.930 . S
C710 C705 1.390 . S
C710 C709 1.387 . S
H711 C723 0.930 . S
H712 C725 0.930 . S
H713 C726 0.930 . S
H714 C730 0.959 1_556 S
H715 C730 0.959 . S
H716 C730 0.961 . S
H717 C731 0.960 . S
H718 C731 0.961 1_554 S
H719 C731 0.959 1_455 S
H720 C734 0.929 . S
H721 C735 0.935 1_455 S
H722 C737 0.930 . S
C723 H711 0.930 . S
C723 C724 1.399 . S
C723 C728 1.399 . S
C724 C723 1.399 . S
C724 C725 1.376 . S
C725 H712 0.930 . S
C725 C724 1.376 . S
C725 C726 1.388 . S
C726 H713 0.930 . S
C726 C725 1.388 . S
C726 C727 1.390 . S
C727 C726 1.390 . S
C727 C728 1.394 . S
C727 C733 1.465 . S
C728 C723 1.399 . S
C728 C727 1.394 . S
C728 C729 1.516 . S
C729 C728 1.516 . S
C729 C730 1.502 1_556 S
C729 C731 1.561 . S
C729 C732 1.526 . S
C730 H714 0.959 1_554 S
C730 H715 0.959 . S
C730 H716 0.961 . S
C730 C729 1.502 1_554 S
C731 H717 0.960 . S
C731 H718 0.961 1_556 S
C731 H719 0.959 1_655 S
C731 C729 1.561 . S
C732 C729 1.526 . S
C732 C733 1.396 . S
C732 C737 1.390 1_556 S
C733 C727 1.465 . S
C733 C732 1.396 . S
C733 C734 1.399 . S
C734 H720 0.929 . S
C734 C733 1.399 . S
C734 C735 1.385 . S
C735 H721 0.935 1_655 S
C735 C734 1.385 . S
C735 C736 1.387 1_655 S
C736 C735 1.387 1_455 S
C736 C737 1.387 1_456 S
C737 H722 0.930 . S
C737 C732 1.390 1_554 S
C737 C736 1.387 1_654 S
H738 C750 0.930 . S
H739 C752 0.930 . S
H740 C753 0.930 . S
H741 C757 0.959 . S
H742 C757 0.959 . S
H743 C757 0.961 . S
H744 C758 0.960 . S
H745 C758 0.961 . S
H746 C758 0.959 . S
H747 C761 0.929 . S
H748 C762 0.932 . S
H749 C764 0.930 . S
C750 H738 0.930 . S
C750 C751 1.399 . S
C750 C755 1.399 . S
C751 C750 1.399 . S
C751 C752 1.376 . S
C752 H739 0.930 . S
C752 C751 1.376 . S
C752 C753 1.388 . S
C753 H740 0.930 . S
C753 C752 1.388 . S
C753 C754 1.390 . S
C754 C753 1.390 . S
C754 C755 1.394 . S
C754 C760 1.465 . S
C755 C750 1.399 . S
C755 C754 1.394 . S
C755 C756 1.516 . S
C756 C755 1.516 . S
C756 C757 1.502 1_556 S
C756 C758 1.561 . S
C756 C759 1.526 . S
C757 H741 0.959 . S
C757 H742 0.959 . S
C757 H743 0.961 . S
C757 C756 1.502 1_554 S
C758 H744 0.960 . S
C758 H745 0.961 . S
C758 H746 0.959 . S
C758 C756 1.561 . S
C759 C756 1.526 . S
C759 C760 1.396 . S
C759 C764 1.390 1_556 S
C760 C754 1.465 . S
C760 C759 1.396 . S
C760 C761 1.399 . S
C761 H747 0.929 . S
C761 C760 1.399 . S
C761 C762 1.382 1_556 S
C762 H748 0.932 . S
C762 C761 1.382 1_554 S
C762 C763 1.391 . S
C763 C762 1.391 . S
C763 C764 1.387 . S
C764 H749 0.930 . S
C764 C759 1.390 1_554 S
C764 C763 1.387 . S
H765 C777 0.930 . S
H766 C779 0.930 . S
H767 C780 0.930 . S
H768 C784 0.959 . S
H769 C784 0.959 . S
H770 C784 0.961 . S
H771 C785 0.960 . S
H772 C785 0.961 . S
H773 C785 0.959 . S
H774 C788 0.929 . S
H775 C789 0.943 1_554 S
H776 C791 0.930 . S
C777 H765 0.930 . S
C777 C778 1.399 . S
C777 C782 1.399 . S
C778 C777 1.399 . S
C778 C779 1.376 . S
C779 H766 0.930 . S
C779 C778 1.376 . S
C779 C780 1.388 . S
C780 H767 0.930 . S
C780 C779 1.388 . S
C780 C781 1.390 . S
C781 C780 1.390 . S
C781 C782 1.394 . S
C781 C787 1.465 . S
C782 C777 1.399 . S
C782 C781 1.394 . S
C782 C783 1.516 . S
C783 C782 1.516 . S
C783 C784 1.502 . S
C783 C785 1.561 . S
C783 C786 1.526 . S
C784 H768 0.959 . S
C784 H769 0.959 . S
C784 H770 0.961 . S
C784 C783 1.502 . S
C785 H771 0.960 . S
C785 H772 0.961 . S
C785 H773 0.959 . S
C785 C783 1.561 . S
C786 C783 1.526 . S
C786 C787 1.396 . S
C786 C791 1.390 . S
C787 C781 1.465 . S
C787 C786 1.396 . S
C787 C788 1.399 . S
C788 H774 0.929 . S
C788 C787 1.399 . S
C788 C789 1.385 . S
C789 H775 0.943 1_556 S
C789 C788 1.385 . S
C789 C790 1.389 . S
C790 C789 1.389 . S
C790 C791 1.387 . S
C791 H776 0.930 . S
C791 C786 1.390 . S
C791 C790 1.387 . S
H792 C804 0.930 . S
H793 C806 0.930 . S
H794 C807 0.930 . S
H795 C811 0.959 . S
H796 C811 0.959 . S
H797 C811 0.961 . S
H798 C812 0.960 . S
H799 C812 0.961 . S
H800 C812 0.959 . S
H801 C815 0.929 . S
H802 C816 0.931 . S
H803 C818 0.930 . S
C804 H792 0.930 . S
C804 C805 1.399 1_556 S
C804 C809 1.399 . S
C805 C804 1.399 1_554 S
C805 C806 1.376 . S
C806 H793 0.930 . S
C806 C805 1.376 . S
C806 C807 1.388 . S
C807 H794 0.930 . S
C807 C806 1.388 . S
C807 C808 1.390 1_554 S
C808 C807 1.390 1_556 S
C808 C809 1.394 . S
C808 C814 1.465 . S
C809 C804 1.399 . S
C809 C808 1.394 . S
C809 C810 1.516 . S
C810 C809 1.516 . S
C810 C811 1.502 . S
C810 C812 1.561 . S
C810 C813 1.526 . S
C811 H795 0.959 . S
C811 H796 0.959 . S
C811 H797 0.961 . S
C811 C810 1.502 . S
C812 H798 0.960 . S
C812 H799 0.961 . S
C812 H800 0.959 . S
C812 C810 1.561 . S
C813 C810 1.526 . S
C813 C814 1.396 . S
C813 C818 1.390 . S
C814 C808 1.465 . S
C814 C813 1.396 . S
C814 C815 1.399 . S
C815 H801 0.929 . S
C815 C814 1.399 . S
C815 C816 1.385 . S
C816 H802 0.931 . S
C816 C815 1.385 . S
C816 C817 1.389 . S
C817 C816 1.389 . S
C817 C818 1.387 . S
C818 H803 0.930 . S
C818 C813 1.390 . S
C818 C817 1.387 . S
H819 C831 0.930 . S
H820 C833 0.930 . S
H821 C834 0.941 . S
H822 C838 0.959 . S
H823 C838 0.959 . S
H824 C838 0.961 . S
H825 C839 0.960 . S
H826 C839 0.961 . S
H827 C839 0.959 . S
H828 C842 0.929 . S
H829 C843 0.931 . S
H830 C845 0.930 . S
C831 H819 0.930 . S
C831 C832 1.399 . S
C831 C836 1.399 . S
C832 C831 1.399 . S
C832 C833 1.376 . S
C833 H820 0.930 . S
C833 C832 1.376 . S
C833 C834 1.388 . S
C834 H821 0.941 . S
C834 C833 1.388 . S
C834 C835 1.390 . S
C835 C834 1.390 . S
C835 C836 1.394 . S
C835 C841 1.465 . S
C836 C831 1.399 . S
C836 C835 1.394 . S
C836 C837 1.516 . S
C837 C836 1.516 . S
C837 C838 1.502 . S
C837 C839 1.561 . S
C837 C840 1.526 . S
C838 H822 0.959 . S
C838 H823 0.959 . S
C838 H824 0.961 . S
C838 C837 1.502 . S
C839 H825 0.960 . S
C839 H826 0.961 . S
C839 H827 0.959 . S
C839 C837 1.561 . S
C840 C837 1.526 . S
C840 C841 1.396 . S
C840 C845 1.390 . S
C841 C835 1.465 . S
C841 C840 1.396 . S
C841 C842 1.399 1_556 S
C842 H828 0.929 . S
C842 C841 1.399 1_554 S
C842 C843 1.385 . S
C843 H829 0.931 . S
C843 C842 1.385 . S
C843 C844 1.389 . S
C844 C843 1.389 . S
C844 C845 1.387 1_554 S
C845 H830 0.930 . S
C845 C840 1.390 . S
C845 C844 1.387 1_556 S
H846 C858 0.930 . S
H847 C860 0.930 . S
H848 C861 0.930 . S
H849 C865 0.959 . S
H850 C865 0.959 . S
H851 C865 0.961 . S
H852 C866 0.960 . S
H853 C866 0.961 . S
H854 C866 0.959 . S
H855 C869 0.929 . S
H856 C870 0.931 . S
H857 C872 0.930 . S
C858 H846 0.930 . S
C858 C859 1.399 . S
C858 C863 1.399 . S
C859 C858 1.399 . S
C859 C860 1.376 . S
C860 H847 0.930 . S
C860 C859 1.376 . S
C860 C861 1.388 . S
C861 H848 0.930 . S
C861 C860 1.388 . S
C861 C862 1.390 . S
C862 C861 1.390 . S
C862 C863 1.394 . S
C862 C868 1.465 . S
C863 C858 1.399 . S
C863 C862 1.394 . S
C863 C864 1.516 . S
C864 C863 1.516 . S
C864 C865 1.502 . S
C864 C866 1.561 . S
C864 C867 1.526 . S
C865 H849 0.959 . S
C865 H850 0.959 . S
C865 H851 0.961 . S
C865 C864 1.502 . S
C866 H852 0.960 . S
C866 H853 0.961 . S
C866 H854 0.959 . S
C866 C864 1.561 . S
C867 C864 1.526 . S
C867 C868 1.396 . S
C867 C872 1.390 . S
C868 C862 1.465 . S
C868 C867 1.396 . S
C868 C869 1.399 1_545 S
C869 H855 0.929 . S
C869 C868 1.399 1_565 S
C869 C870 1.385 . S
C870 H856 0.931 . S
C870 C869 1.385 . S
C870 C871 1.389 . S
C871 C870 1.389 . S
C871 C872 1.387 1_565 S
C872 H857 0.930 . S
C872 C867 1.390 . S
C872 C871 1.387 1_545 S
H873 C885 0.930 . S
H874 C887 0.930 . S
H875 C888 0.930 . S
H876 C892 0.959 . S
H877 C892 0.959 1_556 S
H878 C892 0.961 . S
H879 C893 0.964 . S
H880 C893 0.961 1_556 S
H881 C893 0.959 . S
H882 C896 0.929 . S
H883 C897 0.931 . S
H884 C899 0.930 . S
C885 H873 0.930 . S
C885 C886 1.399 . S
C885 C890 1.399 . S
C886 C885 1.399 . S
C886 C887 1.376 . S
C887 H874 0.930 . S
C887 C886 1.376 . S
C887 C888 1.388 . S
C888 H875 0.930 . S
C888 C887 1.388 . S
C888 C889 1.390 . S
C889 C888 1.390 . S
C889 C890 1.394 . S
C889 C895 1.465 . S
C890 C885 1.399 . S
C890 C889 1.394 . S
C890 C891 1.516 . S
C891 C890 1.516 . S
C891 C892 1.502 . S
C891 C893 1.561 . S
C891 C894 1.526 . S
C892 H876 0.959 . S
C892 H877 0.959 1_554 S
C892 H878 0.961 . S
C892 C891 1.502 . S
C893 H879 0.964 . S
C893 H880 0.961 1_554 S
C893 H881 0.959 . S
C893 C891 1.561 . S
C894 C891 1.526 . S
C894 C895 1.396 . S
C894 C899 1.390 . S
C895 C889 1.465 . S
C895 C894 1.396 . S
C895 C896 1.399 . S
C896 H882 0.929 . S
C896 C895 1.399 . S
C896 C897 1.385 . S
C897 H883 0.931 . S
C897 C896 1.385 . S
C897 C898 1.389 . S
C898 C897 1.389 . S
C898 C899 1.387 . S
C899 H884 0.930 . S
C899 C894 1.390 . S
C899 C898 1.387 . S
H900 C912 0.930 . S
H901 C914 0.930 . S
H902 C915 0.930 . S
H903 C919 0.959 . S
H904 C919 0.959 . S
H905 C919 0.961 . S
H906 C920 0.960 . S
H907 C920 0.961 . S
H908 C920 0.959 . S
H909 C923 0.929 . S
H910 C924 0.931 . S
H911 C926 0.930 . S
C912 H900 0.930 . S
C912 C913 1.399 . S
C912 C917 1.399 . S
C913 C912 1.399 . S
C913 C914 1.376 . S
C914 H901 0.930 . S
C914 C913 1.376 . S
C914 C915 1.388 . S
C915 H902 0.930 . S
C915 C914 1.388 . S
C915 C916 1.390 . S
C916 C915 1.390 . S
C916 C917 1.394 . S
C916 C922 1.465 . S
C917 C912 1.399 . S
C917 C916 1.394 . S
C917 C918 1.516 . S
C918 C917 1.516 . S
C918 C919 1.502 . S
C918 C920 1.561 . S
C918 C921 1.526 . S
C919 H903 0.959 . S
C919 H904 0.959 . S
C919 H905 0.961 . S
C919 C918 1.502 . S
C920 H906 0.960 . S
C920 H907 0.961 . S
C920 H908 0.959 . S
C920 C918 1.561 . S
C921 C918 1.526 . S
C921 C922 1.396 . S
C921 C926 1.390 . S
C922 C916 1.465 . S
C922 C921 1.396 . S
C922 C923 1.399 . S
C923 H909 0.929 . S
C923 C922 1.399 . S
C923 C924 1.385 . S
C924 H910 0.931 . S
C924 C923 1.385 . S
C924 C925 1.389 . S
C925 C924 1.389 . S
C925 C926 1.387 . S
C926 H911 0.930 . S
C926 C921 1.390 . S
C926 C925 1.387 . S
H927 C939 0.930 . S
H928 C941 0.930 . S
H929 C942 0.930 . S
H930 C946 0.959 . S
H931 C946 0.959 . S
H932 C946 0.961 . S
H933 C947 0.960 . S
H934 C947 0.961 . S
H935 C947 0.959 . S
H936 C950 0.929 . S
H937 C951 0.931 . S
H938 C953 0.930 . S
C939 H927 0.930 . S
C939 C940 1.399 . S
C939 C944 1.399 . S
C940 C939 1.399 . S
C940 C941 1.376 . S
C941 H928 0.930 . S
C941 C940 1.376 . S
C941 C942 1.388 . S
C942 H929 0.930 . S
C942 C941 1.388 . S
C942 C943 1.390 . S
C943 C942 1.390 . S
C943 C944 1.394 . S
C943 C949 1.465 . S
C944 C939 1.399 . S
C944 C943 1.394 . S
C944 C945 1.516 . S
C945 C944 1.516 . S
C945 C946 1.502 . S
C945 C947 1.561 . S
C945 C948 1.526 . S
C946 H930 0.959 . S
C946 H931 0.959 . S
C946 H932 0.961 . S
C946 C945 1.502 . S
C947 H933 0.960 . S
C947 H934 0.961 . S
C947 H935 0.959 . S
C947 C945 1.561 . S
C948 C945 1.526 . S
C948 C949 1.396 . S
C948 C953 1.390 . S
C949 C943 1.465 . S
C949 C948 1.396 . S
C949 C950 1.399 . S
C950 H936 0.929 . S
C950 C949 1.399 . S
C950 C951 1.385 . S
C951 H937 0.931 . S
C951 C950 1.385 . S
C951 C952 1.389 . S
C952 C951 1.389 . S
C952 C953 1.387 . S
C953 H938 0.930 . S
C953 C948 1.390 . S
C953 C952 1.387 . S
H954 C966 0.930 . S
H955 C968 0.930 . S
H956 C969 0.930 . S
H957 C973 0.959 . S
H958 C973 0.959 . S
H959 C973 0.961 . S
H960 C974 0.960 . S
H961 C974 0.961 1_565 S
H962 C974 0.959 . S
H963 C977 0.929 1_545 S
H964 C978 0.931 . S
H965 C980 0.930 . S
C966 H954 0.930 . S
C966 C967 1.399 . S
C966 C971 1.399 . S
C967 C966 1.399 . S
C967 C968 1.376 . S
C968 H955 0.930 . S
C968 C967 1.376 . S
C968 C969 1.388 . S
C969 H956 0.930 . S
C969 C968 1.388 . S
C969 C970 1.390 . S
C970 C969 1.390 . S
C970 C971 1.394 . S
C970 C976 1.465 . S
C971 C966 1.399 . S
C971 C970 1.394 . S
C971 C972 1.516 1_545 S
C972 C971 1.516 1_565 S
C972 C973 1.502 . S
C972 C974 1.561 1_565 S
C972 C975 1.526 . S
C973 H957 0.959 . S
C973 H958 0.959 . S
C973 H959 0.961 . S
C973 C972 1.502 . S
C974 H960 0.960 . S
C974 H961 0.961 1_545 S
C974 H962 0.959 . S
C974 C972 1.561 1_545 S
C975 C972 1.526 . S
C975 C976 1.396 1_565 S
C975 C980 1.390 . S
C976 C970 1.465 . S
C976 C975 1.396 1_545 S
C976 C977 1.399 1_545 S
C977 H963 0.929 1_565 S
C977 C976 1.399 1_565 S
C977 C978 1.385 . S
C978 H964 0.931 . S
C978 C977 1.385 . S
C978 C979 1.389 . S
C979 C978 1.389 . S
C979 C980 1.387 . S
C980 H965 0.930 . S
C980 C975 1.390 . S
C980 C979 1.387 . S
H981 C993 0.930 . S
H982 C995 0.930 . S
H983 C996 0.930 . S
H984 C1000 0.959 . S
H985 C1000 0.959 . S
H986 C1000 0.961 . S
H987 C1001 0.960 . S
H988 C1001 0.961 . S
H989 C1001 0.959 . S
H990 C1004 0.929 . S
H991 C1005 0.931 . S
H992 C1007 0.930 1_655 S
C993 H981 0.930 . S
C993 C994 1.399 . S
C993 C998 1.399 . S
C994 C993 1.399 . S
C994 C995 1.376 . S
C995 H982 0.930 . S
C995 C994 1.376 . S
C995 C996 1.388 1_655 S
C996 H983 0.930 . S
C996 C995 1.388 1_455 S
C996 C997 1.392 1_455 S
C997 C996 1.392 1_655 S
C997 C998 1.415 . S
C997 C1003 1.444 1_655 S
C998 C993 1.399 . S
C998 C997 1.415 . S
C998 C999 1.516 . S
C999 C998 1.516 . S
C999 C1000 1.502 . S
C999 C1001 1.561 . S
C999 C1002 1.526 . S
C1000 H984 0.959 . S
C1000 H985 0.959 . S
C1000 H986 0.961 . S
C1000 C999 1.502 . S
C1001 H987 0.960 . S
C1001 H988 0.961 . S
C1001 H989 0.959 . S
C1001 C999 1.561 . S
C1002 C999 1.526 . S
C1002 C1003 1.396 1_655 S
C1002 C1007 1.390 1_655 S
C1003 C997 1.444 1_455 S
C1003 C1002 1.396 1_455 S
C1003 C1004 1.399 . S
C1004 H990 0.929 . S
C1004 C1003 1.399 . S
C1004 C1005 1.385 . S
C1005 H991 0.931 . S
C1005 C1004 1.385 . S
C1005 C1006 1.389 . S
C1006 C1005 1.389 . S
C1006 C1007 1.387 . S
C1007 H992 0.930 1_455 S
C1007 C1002 1.390 1_455 S
C1007 C1006 1.387 . S
H1008 C1020 0.930 . S
H1009 C1022 0.930 . S
H1010 C1023 0.930 . S
H1011 C1027 0.959 . S
H1012 C1027 0.959 . S
H1013 C1027 0.961 . S
H1014 C1028 0.960 . S
H1015 C1028 0.961 . S
H1016 C1028 0.959 . S
H1017 C1031 0.929 . S
H1018 C1032 0.931 . S
H1019 C1034 0.930 . S
C1020 H1008 0.930 . S
C1020 C1021 1.399 . S
C1020 C1025 1.399 . S
C1021 C1020 1.399 . S
C1021 C1022 1.376 . S
C1022 H1009 0.930 . S
C1022 C1021 1.376 . S
C1022 C1023 1.388 . S
C1023 H1010 0.930 . S
C1023 C1022 1.388 . S
C1023 C1024 1.390 . S
C1024 C1023 1.390 . S
C1024 C1025 1.394 . S
C1024 C1030 1.465 . S
C1025 C1020 1.399 . S
C1025 C1024 1.394 . S
C1025 C1026 1.516 . S
C1026 C1025 1.516 . S
C1026 C1027 1.502 . S
C1026 C1028 1.561 . S
C1026 C1029 1.526 . S
C1027 H1011 0.959 . S
C1027 H1012 0.959 . S
C1027 H1013 0.961 . S
C1027 C1026 1.502 . S
C1028 H1014 0.960 . S
C1028 H1015 0.961 . S
C1028 H1016 0.959 . S
C1028 C1026 1.561 . S
C1029 C1026 1.526 . S
C1029 C1030 1.396 . S
C1029 C1034 1.390 . S
C1030 C1024 1.465 . S
C1030 C1029 1.396 . S
C1030 C1031 1.399 . S
C1031 H1017 0.929 . S
C1031 C1030 1.399 . S
C1031 C1032 1.385 . S
C1032 H1018 0.931 . S
C1032 C1031 1.385 . S
C1032 C1033 1.389 . S
C1033 C1032 1.389 . S
C1033 C1034 1.387 . S
C1034 H1019 0.930 . S
C1034 C1029 1.390 . S
C1034 C1033 1.387 . S
H1035 C1047 0.930 . S
H1036 C1049 0.930 . S
H1037 C1050 0.930 1_545 S
H1038 C1054 0.959 . S
H1039 C1054 0.959 . S
H1040 C1054 0.961 1_565 S
H1041 C1055 0.960 . S
H1042 C1055 0.961 1_545 S
H1043 C1055 0.955 . S
H1044 C1058 0.929 . S
H1045 C1059 0.931 . S
H1046 C1061 0.930 . S
C1047 H1035 0.930 . S
C1047 C1048 1.399 . S
C1047 C1052 1.399 . S
C1048 C1047 1.399 . S
C1048 C1049 1.376 . S
C1049 H1036 0.930 . S
C1049 C1048 1.376 . S
C1049 C1050 1.388 . S
C1050 H1037 0.930 1_565 S
C1050 C1049 1.388 . S
C1050 C1051 1.390 1_565 S
C1051 C1050 1.390 1_545 S
C1051 C1052 1.394 1_545 S
C1051 C1057 1.465 . S
C1052 C1047 1.399 . S
C1052 C1051 1.394 1_565 S
C1052 C1053 1.516 1_565 S
C1053 C1052 1.516 1_545 S
C1053 C1054 1.502 . S
C1053 C1055 1.561 1_545 S
C1053 C1056 1.526 . S
C1054 H1038 0.959 . S
C1054 H1039 0.959 . S
C1054 H1040 0.961 1_545 S
C1054 C1053 1.502 . S
C1055 H1041 0.960 . S
C1055 H1042 0.961 1_565 S
C1055 H1043 0.955 . S
C1055 C1053 1.561 1_565 S
C1056 C1053 1.526 . S
C1056 C1057 1.396 . S
C1056 C1061 1.390 . S
C1057 C1051 1.465 . S
C1057 C1056 1.396 . S
C1057 C1058 1.399 . S
C1058 H1044 0.929 . S
C1058 C1057 1.399 . S
C1058 C1059 1.385 . S
C1059 H1045 0.931 . S
C1059 C1058 1.385 . S
C1059 C1060 1.389 . S
C1060 C1059 1.389 . S
C1060 C1061 1.387 . S
C1061 H1046 0.930 . S
C1061 C1056 1.390 . S
C1061 C1060 1.387 . S
H1062 C1074 0.930 . S
H1063 C1076 0.930 . S
H1064 C1077 0.930 . S
H1065 C1081 0.959 . S
H1066 C1081 0.959 . S
H1067 C1081 0.961 . S
H1068 C1082 0.960 . S
H1069 C1082 0.961 . S
H1070 C1082 0.959 . S
H1071 C1085 0.929 . S
H1072 C1086 0.931 1_655 S
H1073 C1088 0.930 . S
C1074 H1062 0.930 . S
C1074 C1075 1.399 . S
C1074 C1079 1.399 . S
C1075 C1074 1.399 . S
C1075 C1076 1.376 . S
C1076 H1063 0.930 . S
C1076 C1075 1.376 . S
C1076 C1077 1.388 . S
C1077 H1064 0.930 . S
C1077 C1076 1.388 . S
C1077 C1078 1.390 . S
C1078 C1077 1.390 . S
C1078 C1079 1.394 . S
C1078 C1084 1.465 . S
C1079 C1074 1.399 . S
C1079 C1078 1.394 . S
C1079 C1080 1.516 1_655 S
C1080 C1079 1.516 1_455 S
C1080 C1081 1.502 . S
C1080 C1082 1.561 . S
C1080 C1083 1.526 . S
C1081 H1065 0.959 . S
C1081 H1066 0.959 . S
C1081 H1067 0.961 . S
C1081 C1080 1.502 . S
C1082 H1068 0.960 . S
C1082 H1069 0.961 . S
C1082 H1070 0.959 . S
C1082 C1080 1.561 . S
C1083 C1080 1.526 . S
C1083 C1084 1.396 1_455 S
C1083 C1088 1.390 . S
C1084 C1078 1.465 . S
C1084 C1083 1.396 1_655 S
C1084 C1085 1.399 . S
C1085 H1071 0.929 . S
C1085 C1084 1.399 . S
C1085 C1086 1.385 1_655 S
C1086 H1072 0.931 1_455 S
C1086 C1085 1.385 1_455 S
C1086 C1087 1.389 . S
C1087 C1086 1.389 . S
C1087 C1088 1.387 . S
C1088 H1073 0.930 . S
C1088 C1083 1.390 . S
C1088 C1087 1.387 . S
C373 C2 3.440 . S
C385 C15 3.426 . S
C400 C55 3.490 . S
C412 C42 3.497 . S
C427 C82 3.527 . S
C439 C95 3.522 . S
C454 C135 3.426 . S
C466 C122 3.435 . S
C481 C162 3.499 . S
C493 C175 3.491 1_556 S
C508 C215 3.526 . S
C520 C202 3.519 1_556 S
C535 C249 2.513 . S
C547 C266 2.573 . S
C562 C306 2.858 . S
C574 C289 2.902 . S
C589 C329 2.125 . S
C601 C346 2.028 . S
C616 C222 1.702 . S
C628 C9 1.685 . S
C643 C62 2.645 . S
C655 C142 2.670 . S
C670 C89 1.128 . S
C682 C169 1.148 . S
C697 C102 2.990 . S
C709 C243 3.042 . S
C724 C295 1.247 . S
C736 C22 1.217 1_556 S
C751 C323 1.818 . S
C763 C49 1.684 . S
C778 C322 0.857 . S
C790 C26 0.895 . S
C805 C43 2.266 . S
C817 C242 2.244 . S
C832 C302 2.696 . S
C844 C106 2.621 . S
C859 C83 1.691 . S
C871 C146 1.678 . S
C886 C163 2.644 . S
C898 C3 2.674 . S
C913 C66 1.123 . S
C925 C226 1.084 . S
C940 C335 0.857 . S
C952 C129 0.784 . S
C967 C255 2.246 . S
C979 C182 2.264 . S
C994 C283 2.707 . S
C1006 C209 2.583 . S
C1021 C262 3.053 . S
C1033 C203 2.975 . S
C1048 C123 1.256 . S
C1060 C282 1.266 . S
C1075 C342 1.778 . S
C1087 C186 1.756 . S
