# Generated by pormake.
# Topology zni, (4)-cn, num edge types: 1
# Building blocks:
#     Node 0, Type 0, BuildingBlock: TATPOV_clean_sbu_0, # of connection points: 4
#     Node 1, Type 0, BuildingBlock: TATPOV_clean_sbu_0, # of connection points: 4
#     Node 2, Type 0, BuildingBlock: TATPOV_clean_sbu_0, # of connection points: 4
#     Node 3, Type 0, BuildingBlock: TATPOV_clean_sbu_0, # of connection points: 4
#     Node 4, Type 0, BuildingBlock: TATPOV_clean_sbu_0, # of connection points: 4
#     Node 5, Type 0, BuildingBlock: TATPOV_clean_sbu_0, # of connection points: 4
#     Node 6, Type 0, BuildingBlock: TATPOV_clean_sbu_0, # of connection points: 4
#     Node 7, Type 0, BuildingBlock: TATPOV_clean_sbu_0, # of connection points: 4
#     Node 8, Type 0, BuildingBlock: TATPOV_clean_sbu_0, # of connection points: 4
#     Node 9, Type 0, BuildingBlock: TATPOV_clean_sbu_0, # of connection points: 4
#     Node 10, Type 0, BuildingBlock: TATPOV_clean_sbu_0, # of connection points: 4
#     Node 11, Type 0, BuildingBlock: TATPOV_clean_sbu_0, # of connection points: 4
#     Node 12, Type 0, BuildingBlock: TATPOV_clean_sbu_0, # of connection points: 4
#     Node 13, Type 0, BuildingBlock: TATPOV_clean_sbu_0, # of connection points: 4
#     Node 14, Type 0, BuildingBlock: TATPOV_clean_sbu_0, # of connection points: 4
#     Node 15, Type 0, BuildingBlock: TATPOV_clean_sbu_0, # of connection points: 4
#     Node 16, Type 0, BuildingBlock: TATPOV_clean_sbu_0, # of connection points: 4
#     Node 17, Type 0, BuildingBlock: TATPOV_clean_sbu_0, # of connection points: 4
#     Node 18, Type 0, BuildingBlock: TATPOV_clean_sbu_0, # of connection points: 4
#     Node 19, Type 0, BuildingBlock: TATPOV_clean_sbu_0, # of connection points: 4
#     Node 20, Type 0, BuildingBlock: TATPOV_clean_sbu_0, # of connection points: 4
#     Node 21, Type 0, BuildingBlock: TATPOV_clean_sbu_0, # of connection points: 4
#     Node 22, Type 0, BuildingBlock: TATPOV_clean_sbu_0, # of connection points: 4
#     Node 23, Type 0, BuildingBlock: TATPOV_clean_sbu_0, # of connection points: 4
#     Node 24, Type 0, BuildingBlock: TATPOV_clean_sbu_0, # of connection points: 4
#     Node 25, Type 0, BuildingBlock: TATPOV_clean_sbu_0, # of connection points: 4
#     Node 26, Type 0, BuildingBlock: TATPOV_clean_sbu_0, # of connection points: 4
#     Node 27, Type 0, BuildingBlock: TATPOV_clean_sbu_0, # of connection points: 4
#     Node 28, Type 0, BuildingBlock: TATPOV_clean_sbu_0, # of connection points: 4
#     Node 29, Type 0, BuildingBlock: TATPOV_clean_sbu_0, # of connection points: 4
#     Node 30, Type 0, BuildingBlock: TATPOV_clean_sbu_0, # of connection points: 4
#     Node 31, Type 0, BuildingBlock: TATPOV_clean_sbu_0, # of connection points: 4
#     Edge 32, Type (0, 0), BuildingBlock: CIFDUS_clean_linker_0, # of connection points: 2
#     Edge 33, Type (0, 0), BuildingBlock: CIFDUS_clean_linker_0, # of connection points: 2
#     Edge 34, Type (0, 0), BuildingBlock: CIFDUS_clean_linker_0, # of connection points: 2
#     Edge 35, Type (0, 0), BuildingBlock: CIFDUS_clean_linker_0, # of connection points: 2
#     Edge 36, Type (0, 0), BuildingBlock: CIFDUS_clean_linker_0, # of connection points: 2
#     Edge 37, Type (0, 0), BuildingBlock: CIFDUS_clean_linker_0, # of connection points: 2
#     Edge 38, Type (0, 0), BuildingBlock: CIFDUS_clean_linker_0, # of connection points: 2
#     Edge 39, Type (0, 0), BuildingBlock: CIFDUS_clean_linker_0, # of connection points: 2
#     Edge 40, Type (0, 0), BuildingBlock: CIFDUS_clean_linker_0, # of connection points: 2
#     Edge 41, Type (0, 0), BuildingBlock: CIFDUS_clean_linker_0, # of connection points: 2
#     Edge 42, Type (0, 0), BuildingBlock: CIFDUS_clean_linker_0, # of connection points: 2
#     Edge 43, Type (0, 0), BuildingBlock: CIFDUS_clean_linker_0, # of connection points: 2
#     Edge 44, Type (0, 0), BuildingBlock: CIFDUS_clean_linker_0, # of connection points: 2
#     Edge 45, Type (0, 0), BuildingBlock: CIFDUS_clean_linker_0, # of connection points: 2
#     Edge 46, Type (0, 0), BuildingBlock: CIFDUS_clean_linker_0, # of connection points: 2
#     Edge 47, Type (0, 0), BuildingBlock: CIFDUS_clean_linker_0, # of connection points: 2
#     Edge 48, Type (0, 0), BuildingBlock: CIFDUS_clean_linker_0, # of connection points: 2
#     Edge 49, Type (0, 0), BuildingBlock: CIFDUS_clean_linker_0, # of connection points: 2
#     Edge 50, Type (0, 0), BuildingBlock: CIFDUS_clean_linker_0, # of connection points: 2
#     Edge 51, Type (0, 0), BuildingBlock: CIFDUS_clean_linker_0, # of connection points: 2
#     Edge 52, Type (0, 0), BuildingBlock: CIFDUS_clean_linker_0, # of connection points: 2
#     Edge 53, Type (0, 0), BuildingBlock: CIFDUS_clean_linker_0, # of connection points: 2
#     Edge 54, Type (0, 0), BuildingBlock: CIFDUS_clean_linker_0, # of connection points: 2
#     Edge 55, Type (0, 0), BuildingBlock: CIFDUS_clean_linker_0, # of connection points: 2
#     Edge 56, Type (0, 0), BuildingBlock: CIFDUS_clean_linker_0, # of connection points: 2
#     Edge 57, Type (0, 0), BuildingBlock: CIFDUS_clean_linker_0, # of connection points: 2
#     Edge 58, Type (0, 0), BuildingBlock: CIFDUS_clean_linker_0, # of connection points: 2
#     Edge 59, Type (0, 0), BuildingBlock: CIFDUS_clean_linker_0, # of connection points: 2
#     Edge 60, Type (0, 0), BuildingBlock: CIFDUS_clean_linker_0, # of connection points: 2
#     Edge 61, Type (0, 0), BuildingBlock: CIFDUS_clean_linker_0, # of connection points: 2
#     Edge 62, Type (0, 0), BuildingBlock: CIFDUS_clean_linker_0, # of connection points: 2
#     Edge 63, Type (0, 0), BuildingBlock: CIFDUS_clean_linker_0, # of connection points: 2
#     Edge 64, Type (0, 0), BuildingBlock: CIFDUS_clean_linker_0, # of connection points: 2
#     Edge 65, Type (0, 0), BuildingBlock: CIFDUS_clean_linker_0, # of connection points: 2
#     Edge 66, Type (0, 0), BuildingBlock: CIFDUS_clean_linker_0, # of connection points: 2
#     Edge 67, Type (0, 0), BuildingBlock: CIFDUS_clean_linker_0, # of connection points: 2
#     Edge 68, Type (0, 0), BuildingBlock: CIFDUS_clean_linker_0, # of connection points: 2
#     Edge 69, Type (0, 0), BuildingBlock: CIFDUS_clean_linker_0, # of connection points: 2
#     Edge 70, Type (0, 0), BuildingBlock: CIFDUS_clean_linker_0, # of connection points: 2
#     Edge 71, Type (0, 0), BuildingBlock: CIFDUS_clean_linker_0, # of connection points: 2
#     Edge 72, Type (0, 0), BuildingBlock: CIFDUS_clean_linker_0, # of connection points: 2
#     Edge 73, Type (0, 0), BuildingBlock: CIFDUS_clean_linker_0, # of connection points: 2
#     Edge 74, Type (0, 0), BuildingBlock: CIFDUS_clean_linker_0, # of connection points: 2
#     Edge 75, Type (0, 0), BuildingBlock: CIFDUS_clean_linker_0, # of connection points: 2
#     Edge 76, Type (0, 0), BuildingBlock: CIFDUS_clean_linker_0, # of connection points: 2
#     Edge 77, Type (0, 0), BuildingBlock: CIFDUS_clean_linker_0, # of connection points: 2
#     Edge 78, Type (0, 0), BuildingBlock: CIFDUS_clean_linker_0, # of connection points: 2
#     Edge 79, Type (0, 0), BuildingBlock: CIFDUS_clean_linker_0, # of connection points: 2
#     Edge 80, Type (0, 0), BuildingBlock: CIFDUS_clean_linker_0, # of connection points: 2
#     Edge 81, Type (0, 0), BuildingBlock: CIFDUS_clean_linker_0, # of connection points: 2
#     Edge 82, Type (0, 0), BuildingBlock: CIFDUS_clean_linker_0, # of connection points: 2
#     Edge 83, Type (0, 0), BuildingBlock: CIFDUS_clean_linker_0, # of connection points: 2
#     Edge 84, Type (0, 0), BuildingBlock: CIFDUS_clean_linker_0, # of connection points: 2
#     Edge 85, Type (0, 0), BuildingBlock: CIFDUS_clean_linker_0, # of connection points: 2
#     Edge 86, Type (0, 0), BuildingBlock: CIFDUS_clean_linker_0, # of connection points: 2
#     Edge 87, Type (0, 0), BuildingBlock: CIFDUS_clean_linker_0, # of connection points: 2
#     Edge 88, Type (0, 0), BuildingBlock: CIFDUS_clean_linker_0, # of connection points: 2
#     Edge 89, Type (0, 0), BuildingBlock: CIFDUS_clean_linker_0, # of connection points: 2
#     Edge 90, Type (0, 0), BuildingBlock: CIFDUS_clean_linker_0, # of connection points: 2
#     Edge 91, Type (0, 0), BuildingBlock: CIFDUS_clean_linker_0, # of connection points: 2
#     Edge 92, Type (0, 0), BuildingBlock: CIFDUS_clean_linker_0, # of connection points: 2
#     Edge 93, Type (0, 0), BuildingBlock: CIFDUS_clean_linker_0, # of connection points: 2
#     Edge 94, Type (0, 0), BuildingBlock: CIFDUS_clean_linker_0, # of connection points: 2
#     Edge 95, Type (0, 0), BuildingBlock: CIFDUS_clean_linker_0, # of connection points: 2
# Relax obj value: 0.193
# Max RMSD: 0.112
# Mean RMSD: 0.112
data_MOF--net-zni--node1-TATPOV_clean_sbu_0--edge1-CIFDUS_clean_linker_0
_symmetry_space_group_name_H-M    P1
_symmetry_Int_Tables_number       1
_symmetry_cell_setting            triclinic
loop_
_symmetry_equiv_pos_as_xyz
'x, y, z'
_cell_length_a     49.035738
_cell_length_b     48.94674
_cell_length_c     28.336165
_cell_angle_alpha  90.152019
_cell_angle_beta   89.889735
_cell_angle_gamma 89.923169
loop_
_atom_site_label
_atom_site_type_symbol
_atom_site_fract_x
_atom_site_fract_y
_atom_site_fract_z
_atom_type_partial_charge
Zn0 Zn 0.08558 0.10774 0.5009 0.0
Zn1 Zn 0.10337 0.07488 0.43516 0.0
O2 O 0.12918 0.06742 0.49221 0.0
O3 O 0.10774 0.08878 0.54973 0.0
O4 O 0.11309 0.04588 0.38694 0.0
O5 O 0.04628 0.09807 0.49388 0.0
O6 O 0.06138 0.06908 0.44057 0.0
C7 C 0.12695 0.07351 0.53584 0.0
C8 C 0.11199 0.13551 0.42225 0.0
O9 O 0.11282 0.11162 0.40425 0.0
O10 O 0.10233 0.13904 0.46338 0.0
C11 C 0.1332 0.04682 0.35862 0.0
O12 O 0.14996 0.06771 0.36057 0.0
C13 C 0.04162 0.07955 0.46383 0.0
Zn14 Zn 0.14262 0.85918 0.74001 0.0
Zn15 Zn 0.16836 0.88335 0.67197 0.0
O16 O 0.17938 0.9058 0.73197 0.0
O17 O 0.16494 0.8785 0.78819 0.0
O18 O 0.19189 0.8968 0.61759 0.0
O19 O 0.15237 0.82099 0.72275 0.0
O20 O 0.17617 0.84149 0.66753 0.0
C21 C 0.17737 0.8999 0.77571 0.0
C22 C 0.10706 0.88973 0.67725 0.0
O23 O 0.12896 0.89318 0.6537 0.0
O24 O 0.10766 0.87675 0.71592 0.0
C25 C 0.18461 0.88866 0.5768 0.0
O26 O 0.16204 0.87437 0.57304 0.0
C27 C 0.16857 0.8196 0.68813 0.0
Zn28 Zn 0.39771 0.84154 0.94636 0.0
Zn29 Zn 0.38185 0.87604 0.88419 0.0
O30 O 0.36002 0.88843 0.94375 0.0
O31 O 0.36779 0.85333 -0.00976 0.0
O32 O 0.37416 0.90576 0.83635 0.0
O33 O 0.43577 0.85641 0.95188 0.0
O34 O 0.4241 0.8784 0.88759 0.0
C35 C 0.35535 0.87543 0.98185 0.0
C36 C 0.37598 0.81525 0.8648 0.0
O37 O 0.36826 0.83945 0.85457 0.0
O38 O 0.3908 0.81105 0.90054 0.0
C39 C 0.38186 0.92969 0.84793 0.0
O40 O 0.39251 0.93343 0.88998 0.0
C41 C 0.44236 0.87097 0.9169 0.0
Zn42 Zn 0.36443 0.16712 0.25167 0.0
Zn43 Zn 0.33244 0.14457 0.18627 0.0
O44 O 0.32171 0.12329 0.24661 0.0
O45 O 0.34331 0.14693 0.30122 0.0
O46 O 0.30505 0.13279 0.13716 0.0
O47 O 0.3541 0.20575 0.23505 0.0
O48 O 0.32674 0.18637 0.18366 0.0
C49 C 0.32705 0.12798 0.28985 0.0
C50 C 0.39363 0.13568 0.17972 0.0
O51 O 0.37008 0.13314 0.16125 0.0
O52 O 0.39642 0.14834 0.21854 0.0
C53 C 0.30932 0.11677 0.10253 0.0
O54 O 0.33322 0.10488 0.09809 0.0
C55 C 0.33631 0.20787 0.20301 0.0
Zn56 Zn 0.0788 0.87312 0.01402 0.0
Zn57 Zn 0.09427 0.89199 0.09651 0.0
O58 O 0.11971 0.91017 0.04628 0.0
O59 O 0.10073 0.90055 0.97807 0.0
O60 O 0.10217 0.91251 0.15744 0.0
O61 O 0.03893 0.87944 0.02452 0.0
O62 O 0.05193 0.89511 0.09366 0.0
C63 C 0.11888 0.91282 0.00155 0.0
C64 C 0.10506 0.83279 0.07652 0.0
O65 O 0.10515 0.85202 0.10697 0.0
O66 O 0.09619 0.83709 0.03512 0.0
C67 C 0.12166 0.92934 0.16341 0.0
O68 O 0.13957 0.93281 0.12944 0.0
C69 C 0.03297 0.88931 0.06449 0.0
Zn70 Zn 0.38878 0.87139 0.27008 0.0
Zn71 Zn 0.3536 0.88934 0.33353 0.0
O72 O 0.33842 0.90561 0.27013 0.0
O73 O 0.37001 0.89176 0.21988 0.0
O74 O 0.32667 0.90098 0.38435 0.0
O75 O 0.37908 0.8322 0.28276 0.0
O76 O 0.35183 0.84723 0.33893 0.0
C77 C 0.34835 0.90485 0.22844 0.0
C78 C 0.41504 0.90268 0.34101 0.0
O79 O 0.39081 0.90454 0.35732 0.0
O80 O 0.41964 0.88943 0.30346 0.0
C81 C 0.3016 0.89469 0.38062 0.0
O82 O 0.29336 0.88212 0.34218 0.0
C83 C 0.36261 0.82745 0.31616 0.0
Zn84 Zn 0.42549 0.11301 0.52353 0.0
Zn85 Zn 0.40768 0.08541 0.59559 0.0
O86 O 0.38583 0.07079 0.53753 0.0
O87 O 0.40705 0.08902 0.47692 0.0
O88 O 0.39658 0.05914 0.64717 0.0
O89 O 0.46482 0.10687 0.53718 0.0
O90 O 0.45022 0.08355 0.59849 0.0
C91 C 0.38904 0.07316 0.49307 0.0
C92 C 0.39444 0.14547 0.59175 0.0
O93 O 0.39411 0.12344 0.61568 0.0
O94 O 0.40553 0.1459 0.55127 0.0
C95 C 0.40375 0.06283 0.68978 0.0
O96 O 0.41757 0.08493 0.70074 0.0
C97 C 0.46981 0.09298 0.57367 0.0
Zn98 Zn 0.12436 0.1746 0.77551 0.0
Zn99 Zn 0.14855 0.15916 0.8535 0.0
O100 O 0.16191 0.1327 0.80032 0.0
O101 O 0.14845 0.15176 0.73427 0.0
O102 O 0.17183 0.14999 0.91049 0.0
O103 O 0.13231 0.21434 0.78404 0.0
O104 O 0.15246 0.20151 0.84962 0.0
C105 C 0.16148 0.13317 0.75536 0.0
C106 C 0.08835 0.14985 0.84673 0.0
O107 O 0.10962 0.1496 0.87244 0.0
O108 O 0.08966 0.15827 0.80444 0.0
C109 C 0.19212 0.13372 0.90991 0.0
O110 O 0.19843 0.12093 0.87058 0.0
C111 C 0.14495 0.22039 0.82145 0.0
Zn112 Zn 0.92647 0.89308 0.4911 0.0
Zn113 Zn 0.90661 0.9218 0.56147 0.0
O114 O 0.88389 0.9329 0.50249 0.0
O115 O 0.90636 0.91482 0.4429 0.0
O116 O 0.89332 0.94837 0.61131 0.0
O117 O 0.96533 0.90202 0.50555 0.0
O118 O 0.94887 0.92603 0.56489 0.0
C119 C 0.88711 0.92958 0.4582 0.0
C120 C 0.89726 0.86108 0.56222 0.0
O121 O 0.89568 0.8838 0.58407 0.0
O122 O 0.90834 0.85989 0.52175 0.0
C123 C 0.87398 0.94336 0.63997 0.0
O124 O 0.86166 0.91957 0.63809 0.0
C125 C 0.96921 0.91697 0.54134 0.0
Zn126 Zn 0.87751 0.11879 0.25996 0.0
Zn127 Zn 0.8431 0.10169 0.32674 0.0
O128 O 0.82529 0.08568 0.2657 0.0
O129 O 0.85572 0.09848 0.21272 0.0
O130 O 0.81707 0.09263 0.38007 0.0
O131 O 0.86952 0.15855 0.2739 0.0
O132 O 0.84274 0.1437 0.33059 0.0
C133 C 0.83401 0.08599 0.22325 0.0
C134 C 0.90396 0.08553 0.32863 0.0
O135 O 0.88021 0.08468 0.34716 0.0
O136 O 0.90809 0.09896 0.29123 0.0
C137 C 0.79291 0.10205 0.37785 0.0
O138 O 0.78542 0.11519 0.33961 0.0
C139 C 0.85347 0.16342 0.30794 0.0
Zn140 Zn 0.58133 0.1258 0.01806 0.0
Zn141 Zn 0.60655 0.1073 0.09257 0.0
O142 O 0.62643 0.09018 0.03443 0.0
O143 O 0.59908 0.09859 0.97491 0.0
O144 O 0.62251 0.08602 0.1472 0.0
O145 O 0.54372 0.11877 0.04282 0.0
O146 O 0.565 0.10232 0.10471 0.0
C147 C 0.62017 0.08713 -0.00888 0.0
C148 C 0.6132 0.16672 0.07087 0.0
O149 O 0.61703 0.14756 0.10056 0.0
O150 O 0.60014 0.16212 0.03303 0.0
C151 C 0.62172 0.06019 0.14208 0.0
O152 O 0.61177 0.05014 0.10267 0.0
C153 C 0.54284 0.10805 0.08333 0.0
Zn154 Zn 0.62767 0.82807 0.75023 0.0
Zn155 Zn 0.64899 0.84563 0.82945 0.0
O156 O 0.66977 0.8668 0.77682 0.0
O157 O 0.65634 0.84644 0.71163 0.0
O158 O 0.66989 0.85615 0.88792 0.0
O159 O 0.63172 0.78853 0.76653 0.0
O160 O 0.6497 0.80316 0.83298 0.0
C161 C 0.67132 0.86372 0.73223 0.0
C162 C 0.59023 0.85961 0.80966 0.0
O163 O 0.61001 0.85983 0.83879 0.0
O164 O 0.59309 0.84851 0.76944 0.0
C165 C 0.66135 0.84991 0.92885 0.0
O166 O 0.63768 0.83758 0.93306 0.0
C167 C 0.64202 0.78352 0.80645 0.0
Zn168 Zn 0.88549 0.14385 0.95564 0.0
Zn169 Zn 0.8711 0.11432 0.87897 0.0
O170 O 0.85252 0.09385 0.93493 0.0
O171 O 0.8642 0.11866 -0.00326 0.0
O172 O 0.86482 0.09029 0.82148 0.0
O173 O 0.92573 0.13778 0.94234 0.0
O174 O 0.91295 0.11529 0.87889 0.0
C175 C 0.85155 0.0986 0.97913 0.0
C176 C 0.8548 0.17455 0.88664 0.0
O177 O 0.85512 0.15239 0.86275 0.0
O178 O 0.8659 0.17574 0.92688 0.0
C179 C 0.85602 0.06586 0.82369 0.0
O180 O 0.84805 0.05608 0.86455 0.0
C181 C 0.9318 0.12488 0.90498 0.0
Zn182 Zn 0.64696 0.16261 0.74852 0.0
Zn183 Zn 0.67082 0.13747 0.67848 0.0
O184 O 0.68679 0.11848 0.73817 0.0
O185 O 0.67306 0.14636 0.79438 0.0
O186 O 0.6921 0.12217 0.62288 0.0
O187 O 0.6535 0.20033 0.72499 0.0
O188 O 0.67556 0.17935 0.66785 0.0
C189 C 0.68669 0.12572 0.78146 0.0
C190 C 0.61045 0.12805 0.69417 0.0
O191 O 0.63136 0.12495 0.66788 0.0
O192 O 0.61206 0.14232 0.73149 0.0
C193 C 0.68348 0.12846 0.58199 0.0
O194 O 0.661 0.14295 0.57858 0.0
C195 C 0.66747 0.20143 0.68756 0.0
Zn196 Zn 0.60486 0.89129 0.48523 0.0
Zn197 Zn 0.62886 0.92083 0.41956 0.0
O198 O 0.64798 0.93454 0.48073 0.0
O199 O 0.6228 0.9141 0.53452 0.0
O200 O 0.64143 0.94616 0.36769 0.0
O201 O 0.5667 0.90029 0.46584 0.0
O202 O 0.58697 0.92559 0.41234 0.0
C203 C 0.6418 0.9304 0.52384 0.0
C204 C 0.63938 0.85962 0.42159 0.0
O205 O 0.64249 0.88245 0.40069 0.0
O206 O 0.62485 0.85819 0.45857 0.0
C207 C 0.63674 0.93849 0.32557 0.0
O208 O 0.62661 0.91399 0.31847 0.0
C209 C 0.56519 0.91669 0.43157 0.0
Zn210 Zn 0.85109 0.82297 0.2368 0.0
Zn211 Zn 0.82922 0.84894 0.16627 0.0
O212 O 0.81633 0.86944 0.22657 0.0
O213 O 0.82696 0.84157 0.28428 0.0
O214 O 0.80506 0.86367 0.11467 0.0
O215 O 0.84242 0.78506 0.21448 0.0
O216 O 0.82388 0.80733 0.15556 0.0
C217 C 0.81585 0.86341 0.27029 0.0
C218 C 0.88906 0.85582 0.17824 0.0
O219 O 0.86846 0.86011 0.15186 0.0
O220 O 0.88648 0.84178 0.21563 0.0
C221 C 0.7798 0.85865 0.12016 0.0
O222 O 0.77185 0.84665 0.15927 0.0
C223 C 0.82992 0.7848 0.17553 0.0
Zn224 Zn 0.57801 0.60734 0.00199 0.0
Zn225 Zn 0.5951 0.58444 0.92382 0.0
O226 O 0.62089 0.56965 0.97633 0.0
O227 O 0.60027 0.58218 0.0418 0.0
O228 O 0.60359 0.56221 0.86492 0.0
O229 O 0.53842 0.59976 -0.00725 0.0
O230 O 0.55278 0.58027 0.92728 0.0
C231 C 0.61945 0.56958 0.02127 0.0
C232 C 0.60532 0.64458 0.93585 0.0
O233 O 0.60611 0.62376 0.90875 0.0
O234 O 0.59509 0.64259 0.9769 0.0
C235 C 0.62288 0.54503 0.85974 0.0
O236 O 0.64038 0.54143 0.8942 0.0
C237 C 0.53329 0.58714 0.95487 0.0
Zn238 Zn 0.60478 0.36779 0.20285 0.0
Zn239 Zn 0.63676 0.37861 0.13023 0.0
O240 O 0.65549 0.39894 0.18665 0.0
O241 O 0.62647 0.3917 0.24476 0.0
O242 O 0.66311 0.38546 0.07633 0.0
O243 O 0.61262 0.32738 0.19781 0.0
O244 O 0.63664 0.33631 0.13402 0.0
C245 C 0.64793 0.40276 0.22927 0.0
C246 C 0.5761 0.39484 0.12908 0.0
O247 O 0.59921 0.39414 0.10824 0.0
O248 O 0.57321 0.38466 0.16973 0.0
C249 C 0.66217 0.40564 0.04817 0.0
O250 O 0.64254 0.42375 0.05281 0.0
C251 C 0.62666 0.31911 0.16306 0.0
Zn252 Zn 0.88999 0.35101 0.45001 0.0
Zn253 Zn 0.87949 0.38086 0.37407 0.0
O254 O 0.857 0.39959 0.42784 0.0
O255 O 0.86389 0.37268 0.48886 0.0
O256 O 0.87164 0.40535 0.31824 0.0
O257 O 0.9301 0.36081 0.446 0.0
O258 O 0.92146 0.38288 0.38014 0.0
C259 C 0.85234 0.39318 0.47066 0.0
C260 C 0.86697 0.31937 0.37489 0.0
O261 O 0.86689 0.34218 0.35314 0.0
O262 O 0.87584 0.3179 0.41671 0.0
C263 C 0.87377 0.43098 0.32486 0.0
O264 O 0.8811 0.43988 0.36674 0.0
C265 C 0.93847 0.37425 0.4107 0.0
Zn266 Zn 0.8861 0.66691 0.70402 0.0
Zn267 Zn 0.86527 0.6456 0.62513 0.0
O268 O 0.84455 0.62585 0.6795 0.0
O269 O 0.85743 0.64855 0.74284 0.0
O270 O 0.84521 0.63488 0.56527 0.0
O271 O 0.88073 0.70572 0.68305 0.0
O272 O 0.86292 0.68762 0.61914 0.0
C273 C 0.84278 0.63045 0.72366 0.0
C274 C 0.92454 0.63453 0.64759 0.0
O275 O 0.90503 0.63271 0.61802 0.0
O276 O 0.92105 0.64674 0.68669 0.0
C277 C 0.82228 0.62271 0.56503 0.0
O278 O 0.81209 0.61373 0.60496 0.0
C279 C 0.86984 0.70862 0.64296 0.0
Zn280 Zn 0.61085 0.37028 0.50485 0.0
Zn281 Zn 0.61875 0.40691 0.57245 0.0
O282 O 0.63823 0.42474 0.51457 0.0
O283 O 0.63439 0.39182 0.46176 0.0
O284 O 0.62337 0.43464 0.62524 0.0
O285 O 0.57001 0.37618 0.5074 0.0
O286 O 0.57675 0.40454 0.56657 0.0
C287 C 0.64342 0.415 0.47371 0.0
C288 C 0.63828 0.34688 0.58268 0.0
O289 O 0.63612 0.37117 0.59892 0.0
O290 O 0.62859 0.34099 0.54262 0.0
C291 C 0.64357 0.43487 0.65336 0.0
O292 O 0.66305 0.41667 0.64784 0.0
C293 C 0.56052 0.39194 0.53893 0.0
Zn294 Zn 0.87376 0.37273 0.7484 0.0
Zn295 Zn 0.83552 0.38141 0.81266 0.0
O296 O 0.81874 0.39944 0.7526 0.0
O297 O 0.85322 0.39562 0.70303 0.0
O298 O 0.80677 0.38516 0.86388 0.0
O299 O 0.86809 0.33178 0.75104 0.0
O300 O 0.83824 0.33951 0.8075 0.0
C301 C 0.8295 0.4042 0.71242 0.0
C302 C 0.89506 0.40114 0.82717 0.0
O303 O 0.87043 0.39932 0.84168 0.0
O304 O 0.90187 0.39091 0.78786 0.0
C305 C 0.78648 0.40139 0.86443 0.0
O306 O 0.78329 0.41881 0.82969 0.0
C307 C 0.85139 0.32281 0.78138 0.0
Zn308 Zn 0.88841 0.61412 -0.00553 0.0
Zn309 Zn 0.86712 0.57743 0.05415 0.0
O310 O 0.84895 0.56527 -0.00895 0.0
O311 O 0.86841 0.59506 0.94323 0.0
O312 O 0.8566 0.54955 0.1035 0.0
O313 O 0.92707 0.60348 0.00917 0.0
O314 O 0.90895 0.57383 0.05815 0.0
C315 C 0.85253 0.5751 0.94986 0.0
C316 C 0.85528 0.63881 0.06678 0.0
O317 O 0.85266 0.61418 0.08067 0.0
O318 O 0.86937 0.64419 0.03049 0.0
C319 C 0.86346 0.55589 0.14541 0.0
O320 O 0.87445 0.57997 0.15304 0.0
C321 C 0.92991 0.58477 0.03947 0.0
Zn322 Zn 0.65274 0.68277 0.22593 0.0
Zn323 Zn 0.6814 0.66323 0.29612 0.0
O324 O 0.69322 0.64088 0.23685 0.0
O325 O 0.6753 0.66334 0.17747 0.0
O326 O 0.70801 0.6506 0.34594 0.0
O327 O 0.66043 0.72194 0.24156 0.0
O328 O 0.68435 0.70561 0.30073 0.0
C329 C 0.69017 0.64417 0.19256 0.0
C330 C 0.62108 0.65249 0.29638 0.0
O331 O 0.64368 0.65135 0.31835 0.0
O332 O 0.61984 0.66361 0.25602 0.0
C333 C 0.70376 0.63069 0.37374 0.0
O334 O 0.68075 0.6171 0.3708 0.0
C335 C 0.67489 0.72594 0.27779 0.0
Zn336 Zn 0.37755 0.3705 0.00583 0.0
Zn337 Zn 0.37024 0.41134 0.06571 0.0
O338 O 0.34796 0.42408 0.00693 0.0
O339 O 0.35249 0.38816 0.96048 0.0
O340 O 0.36672 0.44283 0.11181 0.0
O341 O 0.41819 0.37707 0.00311 0.0
O342 O 0.41191 0.40992 0.0551 0.0
C343 C 0.34248 0.41151 0.96863 0.0
C344 C 0.35354 0.35229 0.09128 0.0
O345 O 0.35562 0.37746 0.10265 0.0
O346 O 0.3616 0.34407 0.05129 0.0
C347 C 0.34696 0.44602 0.14047 0.0
O348 O 0.32695 0.42819 0.14046 0.0
C349 C 0.42787 0.39565 0.0293 0.0
Zn350 Zn 0.40792 0.6356 0.74016 0.0
Zn351 Zn 0.3321 0.61043 0.82047 0.0
O352 O 0.33152 0.59239 0.75309 0.0
O353 O 0.36907 0.61595 0.751 0.0
O354 O 0.29885 0.60131 0.85941 0.0
O355 O 0.37036 0.64337 0.7766 0.0
O356 O 0.33345 0.65282 0.81546 0.0
C357 C 0.35302 0.59899 0.73067 0.0
C358 C 0.38875 0.6036 0.8341 0.0
O359 O 0.36712 0.59712 0.85624 0.0
O360 O 0.38553 0.61738 0.79626 0.0
C361 C 0.29719 0.58044 0.88589 0.0
O362 O 0.31718 0.56254 0.88576 0.0
C363 C 0.35448 0.66159 0.79413 0.0
Zn364 Zn 0.12647 0.64464 0.51933 0.0
Zn365 Zn 0.13509 0.60951 0.58771 0.0
O366 O 0.15322 0.59088 0.5288 0.0
O367 O 0.15005 0.62348 0.47567 0.0
O368 O 0.1408 0.58256 0.64108 0.0
O369 O 0.08573 0.63787 0.52262 0.0
O370 O 0.09312 0.61146 0.58399 0.0
C371 C 0.15842 0.60008 0.48764 0.0
C372 C 0.15355 0.6699 0.59566 0.0
O373 O 0.15213 0.64583 0.61285 0.0
O374 O 0.14354 0.6749 0.55552 0.0
C375 C 0.13299 0.55795 0.636 0.0
O376 O 0.12242 0.55044 0.59541 0.0
C377 C 0.07662 0.62302 0.5556 0.0
Zn378 Zn 0.12638 0.32293 0.25719 0.0
Zn379 Zn 0.1482 0.34671 0.32964 0.0
O380 O 0.1631 0.36632 0.26965 0.0
O381 O 0.1525 0.33923 0.21067 0.0
O382 O 0.17386 0.36046 0.38048 0.0
O383 O 0.13148 0.28448 0.27961 0.0
O384 O 0.15064 0.30471 0.34028 0.0
C385 C 0.16455 0.36026 0.22596 0.0
C386 C 0.08916 0.35725 0.31505 0.0
O387 O 0.1092 0.3598 0.34338 0.0
O388 O 0.09204 0.34409 0.27667 0.0
C389 C 0.19877 0.35503 0.37169 0.0
O390 O 0.20475 0.34242 0.33198 0.0
C391 C 0.14308 0.2829 0.31929 0.0
Zn392 Zn 0.42706 0.6443 0.43546 0.0
Zn393 Zn 0.40653 0.61353 0.36779 0.0
O394 O 0.39015 0.59692 0.42964 0.0
O395 O 0.41252 0.61951 0.48464 0.0
O396 O 0.39543 0.58736 0.31579 0.0
O397 O 0.46564 0.63983 0.41382 0.0
O398 O 0.44856 0.61372 0.35798 0.0
C399 C 0.39573 0.60114 0.47301 0.0
C400 C 0.39021 0.67324 0.37304 0.0
O401 O 0.38968 0.65069 0.3504 0.0
O402 O 0.40372 0.67529 0.41096 0.0
C403 C 0.37518 0.57114 0.31589 0.0
O404 O 0.35822 0.57141 0.35182 0.0
C405 C 0.46906 0.62489 0.37785 0.0
Zn406 Zn 0.10209 0.62989 0.20933 0.0
Zn407 Zn 0.13773 0.62342 0.13945 0.0
O408 O 0.15725 0.60528 0.19687 0.0
O409 O 0.12529 0.60719 0.25154 0.0
O410 O 0.1645 0.61957 0.08563 0.0
O411 O 0.10647 0.6712 0.20554 0.0
O412 O 0.13352 0.66517 0.14434 0.0
C413 C 0.14871 0.59955 0.23824 0.0
C414 C 0.0788 0.60213 0.13088 0.0
O415 O 0.10265 0.60517 0.11362 0.0
O416 O 0.07329 0.61103 0.17174 0.0
C417 C 0.17788 0.59797 0.07605 0.0
O418 O 0.17454 0.5762 0.10245 0.0
C419 C 0.12083 0.68108 0.17252 0.0
Zn420 Zn 0.07881 0.40193 -0.00709 0.0
Zn421 Zn 0.10417 0.42466 0.92335 0.0
O422 O 0.12512 0.43722 0.98363 0.0
O423 O 0.09645 0.42644 0.04021 0.0
O424 O 0.11924 0.44739 0.86952 0.0
O425 O 0.04091 0.40995 0.97173 0.0
O426 O 0.06243 0.43142 0.91487 0.0
C427 C 0.11848 0.43749 0.02719 0.0
C428 C 0.11142 0.36421 0.93541 0.0
O429 O 0.11485 0.38495 0.90894 0.0
O430 O 0.09787 0.3665 0.97342 0.0
C431 C 0.11233 0.44039 0.82796 0.0
O432 O 0.09772 0.41813 0.8224 0.0
C433 C 0.04017 0.42432 0.93481 0.0
Zn434 Zn 0.37952 0.34578 0.70498 0.0
Zn435 Zn 0.35176 0.3619 0.62962 0.0
O436 O 0.33146 0.38074 0.68565 0.0
O437 O 0.35358 0.36501 0.74759 0.0
O438 O 0.32674 0.37044 0.57492 0.0
O439 O 0.37473 0.30586 0.68986 0.0
O440 O 0.35251 0.31958 0.62688 0.0
C441 C 0.33477 0.37945 0.73017 0.0
C442 C 0.41135 0.37844 0.63961 0.0
O443 O 0.38982 0.37826 0.61429 0.0
O444 O 0.41163 0.36668 0.67937 0.0
C445 C 0.33154 0.36102 0.5339 0.0
O446 O 0.35439 0.34762 0.52643 0.0
C447 C 0.36209 0.30031 0.65216 0.0
H448 H 0.10217 0.00131 0.34554 0.0
H449 H 0.17173 0.04417 0.28874 0.0
H450 H 0.17536 0.01061 0.2251 0.0
H451 H 0.15726 0.97056 0.18309 0.0
H452 H 0.08726 0.9282 0.23946 0.0
H453 H 0.08554 0.95999 0.30587 0.0
C454 C 0.11825 0.00327 0.31944 0.0
C455 C 0.13653 0.0254 0.32184 0.0
C456 C 0.12013 0.98399 0.28273 0.0
C457 C 0.1573 0.02744 0.28776 0.0
C458 C 0.15939 0.00825 0.25126 0.0
C459 C 0.14177 0.96809 0.2101 0.0
C460 C 0.12233 0.94705 0.20601 0.0
C461 C 0.14069 0.98665 0.24804 0.0
C462 C 0.10244 0.94421 0.2415 0.0
C463 C 0.10139 0.96244 0.27951 0.0
H464 H 0.23719 0.9077 0.57325 0.0
H465 H 0.17188 0.87761 0.4854 0.0
H466 H 0.20175 0.87853 0.41672 0.0
H467 H 0.24711 0.88468 0.38234 0.0
H468 H 0.31302 0.91407 0.46937 0.0
H469 H 0.28223 0.91681 0.53722 0.0
C470 C 0.22941 0.90168 0.53897 0.0
C471 C 0.20233 0.8924 0.53472 0.0
C472 C 0.24687 0.90194 0.49938 0.0
C473 C 0.19264 0.88465 0.48994 0.0
C474 C 0.20974 0.88514 0.45052 0.0
C475 C 0.25476 0.89191 0.41602 0.0
C476 C 0.28244 0.89894 0.4207 0.0
C477 C 0.23701 0.89322 0.45497 0.0
C478 C 0.29185 0.90844 0.46466 0.0
C479 C 0.27425 0.90995 0.50358 0.0
H480 H 0.3808 0.0125 0.677 0.0
H481 H 0.41526 0.06512 0.78386 0.0
H482 H 0.41004 0.02911 0.84246 0.0
H483 H 0.39803 0.98205 0.8626 0.0
H484 H 0.36441 0.92879 0.75597 0.0
H485 H 0.3668 0.96577 0.69822 0.0
C486 C 0.38698 0.01619 0.71319 0.0
C487 C 0.39856 0.04151 0.72585 0.0
C488 C 0.38416 0.99524 0.74676 0.0
C489 C 0.40641 0.04586 0.77297 0.0
C490 C 0.40345 0.02524 0.80657 0.0
C491 C 0.39103 0.97851 0.82683 0.0
C492 C 0.38118 0.95258 0.81366 0.0
C493 C 0.39272 -0.00025 0.79372 0.0
C494 C 0.37213 0.94849 0.76712 0.0
C495 C 0.37355 0.96963 0.73402 0.0
H496 H 0.23786 0.10253 0.91911 0.0
H497 H 0.186 0.15864 -0.00427 0.0
H498 H 0.21679 0.1568 0.06317 0.0
H499 H 0.25969 0.14155 0.09855 0.0
H500 H 0.31216 0.08618 0.02163 0.0
H501 H 0.2797 0.0853 0.95636 0.0
C502 C 0.23316 0.11421 0.95066 0.0
C503 C 0.20971 0.13086 0.95211 0.0
C504 C 0.25109 0.11327 -0.01074 0.0
C505 C 0.20393 0.14574 -0.00654 0.0
C506 C 0.22155 0.14474 0.03209 0.0
C507 C 0.26397 0.12907 0.06772 0.0
C508 C 0.28847 0.1141 0.06495 0.0
C509 C 0.24539 0.12891 0.03009 0.0
C510 C 0.29355 0.09799 0.02471 0.0
C511 C 0.27501 0.09752 0.98728 0.0
H512 H 0.88764 0.99722 0.64297 0.0
H513 H 0.84231 0.93549 0.71807 0.0
H514 H 0.83123 0.96847 0.78003 0.0
H515 H 0.83652 0.0141 0.81502 0.0
H516 H 0.88133 0.07603 0.73943 0.0
H517 H 0.89016 0.0438 0.67531 0.0
C518 C 0.87526 0.991 0.67282 0.0
C519 C 0.86607 0.96384 0.6761 0.0
C520 C 0.86882 0.01011 0.70823 0.0
C521 C 0.84974 0.95622 0.71471 0.0
C522 C 0.84341 0.97507 0.75021 0.0
C523 C 0.848 0.02065 0.78434 0.0
C524 C 0.85842 0.04741 0.78231 0.0
C525 C 0.85313 0.00197 0.74764 0.0
C526 C 0.87307 0.05558 0.74203 0.0
C527 C 0.87826 0.0371 0.70539 0.0
H528 H 0.74032 0.11925 0.38283 0.0
H529 H 0.80424 0.08336 0.46691 0.0
H530 H 0.77545 0.08679 0.53725 0.0
H531 H 0.73319 0.10299 0.57587 0.0
H532 H 0.66982 0.13931 0.49087 0.0
H533 H 0.69729 0.13257 0.42014 0.0
C534 C 0.74793 0.11194 0.41642 0.0
C535 C 0.77452 0.10126 0.41953 0.0
C536 C 0.73138 0.1142 0.45677 0.0
C537 C 0.78389 0.09173 0.46341 0.0
C538 C 0.76745 0.09377 0.50374 0.0
C539 C 0.72528 0.10919 0.54183 0.0
C540 C 0.69952 0.12185 0.53892 0.0
C541 C 0.74133 0.10543 0.50101 0.0
C542 C 0.68961 0.12967 0.49439 0.0
C543 C 0.70533 0.12585 0.45378 0.0
H544 H 0.64352 0.99393 0.3293 0.0
H545 H 0.63392 0.92661 0.23197 0.0
H546 H 0.63059 0.95845 0.1663 0.0
H547 H 0.62636 0.00516 0.13734 0.0
H548 H 0.63466 0.073 0.2338 0.0
H549 H 0.6428 0.0412 0.29886 0.0
C550 C 0.64114 0.98623 0.29363 0.0
C551 C 0.63874 0.9579 0.28567 0.0
C552 C 0.63875 0.00474 0.25591 0.0
C553 C 0.63561 0.94829 0.23921 0.0
C554 C 0.63365 0.96649 0.20158 0.0
C555 C 0.63015 0.01308 0.1725 0.0
C556 C 0.62958 0.04143 0.18075 0.0
C557 C 0.6345 0.99473 0.20968 0.0
C558 C 0.63486 0.05127 0.22648 0.0
C559 C 0.63945 0.03308 0.26373 0.0
H560 H 0.71322 0.86996 0.93094 0.0
H561 H 0.6494 0.83854 0.02085 0.0
H562 H 0.6799 0.84068 0.08865 0.0
H563 H 0.72548 0.84815 0.12121 0.0
H564 H 0.78984 0.8784 0.03135 0.0
H565 H 0.7582 0.8803 0.96487 0.0
C566 C 0.70587 0.86383 0.96544 0.0
C567 C 0.67908 0.85387 0.97063 0.0
C568 C 0.72364 0.86479 0.00428 0.0
C569 C 0.66993 0.84612 0.01569 0.0
C570 C 0.68738 0.84731 0.05453 0.0
C571 C 0.73259 0.85543 0.08723 0.0
C572 C 0.76009 0.8629 0.08125 0.0
C573 C 0.71441 0.85609 0.04905 0.0
C574 C 0.76883 0.87242 0.03697 0.0
C575 C 0.75075 0.87344 -0.00113 0.0
H576 H 0.60838 0.47674 0.67185 0.0
H577 H 0.681 0.43744 0.72466 0.0
H578 H 0.68157 0.46854 0.79214 0.0
H579 H 0.66063 0.50596 0.83767 0.0
H580 H 0.58805 0.54525 0.78454 0.0
H581 H 0.58846 0.51522 0.71574 0.0
C582 C 0.6244 0.47501 0.69799 0.0
C583 C 0.64453 0.45464 0.69317 0.0
C584 C 0.62464 0.49299 0.73679 0.0
C585 C 0.66521 0.45286 0.72738 0.0
C586 C 0.66555 0.47064 0.76609 0.0
C587 C 0.64497 0.50808 0.81094 0.0
C588 C 0.62428 0.52782 0.81653 0.0
C589 C 0.64525 0.49065 0.77137 0.0
C590 C 0.60422 0.53026 0.78135 0.0
C591 C 0.60439 0.51304 0.74193 0.0
H592 H 0.7409 0.43279 0.87732 0.0
H593 H 0.78572 0.36553 0.93805 0.0
H594 H 0.75135 0.36096 -0.00027 0.0
H595 H 0.70831 0.37546 0.03605 0.0
H596 H 0.66349 0.44298 0.97642 0.0
H597 H 0.69806 0.44794 0.91481 0.0
C598 C 0.74321 0.41718 0.90411 0.0
C599 C 0.76592 0.39952 0.90285 0.0
C600 C 0.7233 0.41462 0.93969 0.0
C601 C 0.76852 0.37944 0.93801 0.0
C602 C 0.74883 0.37675 0.97335 0.0
C603 C 0.70605 0.39127 0.00958 0.0
C604 C 0.68323 0.40874 0.01086 0.0
C605 C 0.72608 0.39412 0.97442 0.0
C606 C 0.6808 0.42921 0.97636 0.0
C607 C 0.70058 0.43208 0.94106 0.0
H608 H 0.87358 0.48622 0.33078 0.0
H609 H 0.86236 0.42 0.2319 0.0
H610 H 0.85603 0.45286 0.16788 0.0
H611 H 0.85616 0.50055 0.13936 0.0
H612 H 0.86837 0.56619 0.23916 0.0
H613 H 0.87154 0.53339 0.30339 0.0
C614 C 0.86966 0.4789 0.29528 0.0
C615 C 0.86867 0.45066 0.28616 0.0
C616 C 0.86618 0.49784 0.25872 0.0
C617 C 0.86335 0.44162 0.23993 0.0
C618 C 0.85972 0.46041 0.20328 0.0
C619 C 0.85915 0.50767 0.17525 0.0
C620 C 0.86214 0.53581 0.18435 0.0
C621 C 0.8614 0.48859 0.21216 0.0
C622 C 0.86615 0.54467 0.23106 0.0
C623 C 0.86802 0.52592 0.26787 0.0
H624 H 0.75641 0.64786 0.37948 0.0
H625 H 0.69674 0.59786 0.45058 0.0
H626 H 0.72906 0.58907 0.51424 0.0
H627 H 0.77306 0.59819 0.55233 0.0
H628 H 0.83282 0.64801 0.48098 0.0
H629 H 0.80179 0.65387 0.41453 0.0
C630 C 0.75051 0.63493 0.40879 0.0
C631 C 0.72407 0.62381 0.41051 0.0
C632 C 0.76922 0.62989 0.44523 0.0
C633 C 0.7169 0.60678 0.44842 0.0
C634 C 0.73537 0.60177 0.48491 0.0
C635 C 0.77946 0.61007 0.52202 0.0
C636 C 0.80516 0.62285 0.52195 0.0
C637 C 0.76142 0.61357 0.48405 0.0
C638 C 0.81316 0.63798 0.48214 0.0
C639 C 0.79536 0.64148 0.44416 0.0
H640 H 0.38389 0.48732 0.14676 0.0
H641 H 0.31045 0.45638 0.21154 0.0
H642 H 0.31201 0.49293 0.27034 0.0
H643 H 0.33525 0.53271 0.30529 0.0
H644 H 0.40868 0.56339 0.23996 0.0
H645 H 0.40595 0.52802 0.17951 0.0
C646 C 0.36814 0.48859 0.17361 0.0
C647 C 0.34718 0.46898 0.1748 0.0
C648 C 0.36917 0.50963 0.20737 0.0
C649 C 0.32688 0.47111 0.20976 0.0
C650 C 0.32777 0.49202 0.24349 0.0
C651 C 0.35057 0.53178 0.27768 0.0
C652 C 0.37221 0.55068 0.27746 0.0
C653 C 0.34896 0.51125 0.24292 0.0
C654 C 0.39181 0.54915 0.24121 0.0
C655 C 0.39032 0.52886 0.20658 0.0
H656 H 0.21356 0.55753 0.05108 0.0
H657 H 0.18626 0.63811 0.01104 0.0
H658 H 0.21949 0.63895 0.94702 0.0
H659 H 0.25754 0.61784 0.90445 0.0
H660 H 0.28604 0.53786 0.94533 0.0
H661 H 0.25095 0.53571 0.00659 0.0
C662 C 0.21478 0.57522 0.02821 0.0
C663 C 0.19748 0.59777 0.03611 0.0
C664 C 0.23416 0.57571 -0.00845 0.0
C665 C 0.19938 0.62051 0.00605 0.0
C666 C 0.21838 0.62102 0.96932 0.0
C667 C 0.25597 0.5998 0.92643 0.0
C668 C 0.27448 0.57808 0.92029 0.0
C669 C 0.23604 0.59887 0.96204 0.0
C670 C 0.27212 0.55492 0.94928 0.0
C671 C 0.25208 0.55369 0.98442 0.0
H672 H 0.13422 0.49187 0.82773 0.0
H673 H 0.10296 0.42905 0.73531 0.0
H674 H 0.10796 0.45933 0.66779 0.0
H675 H 0.11855 0.50437 0.63538 0.0
H676 H 0.14917 0.56778 0.72711 0.0
H677 H 0.14722 0.53652 0.7942 0.0
C678 C 0.12878 0.4847 0.79275 0.0
C679 C 0.11807 0.45822 0.78679 0.0
C680 C 0.13143 0.50239 0.75387 0.0
C681 C 0.11111 0.44934 0.74113 0.0
C682 C 0.11393 0.46667 0.70238 0.0
C683 C 0.12498 0.51137 0.66995 0.0
C684 C 0.13382 0.53848 0.67612 0.0
C685 C 0.12362 0.49337 0.70843 0.0
C686 C 0.1422 0.54706 0.72125 0.0
C687 C 0.14105 0.52919 0.75972 0.0
H688 H 0.25302 0.34684 0.35994 0.0
H689 H 0.19402 0.37656 0.46103 0.0
H690 H 0.23032 0.38303 0.5192 0.0
H691 H 0.27845 0.37747 0.54275 0.0
H692 H 0.33676 0.34652 0.44142 0.0
H693 H 0.30106 0.34353 0.38187 0.0
C694 C 0.24803 0.35489 0.39459 0.0
C695 C 0.22075 0.36101 0.40616 0.0
C696 C 0.26891 0.3583 0.42789 0.0
C697 C 0.2148 0.3716 0.45118 0.0
C698 C 0.23556 0.37526 0.4845 0.0
C699 C 0.28343 0.37037 0.50748 0.0
C700 C 0.3103 0.3621 0.49672 0.0
C701 C 0.26265 0.3683 0.47345 0.0
C702 C 0.3163 0.3529 0.45083 0.0
C703 C 0.29586 0.35113 0.41671 0.0
H704 H 0.13102 0.18335 0.45726 0.0
H705 H 0.11431 0.14142 0.32642 0.0
H706 H 0.12513 0.18294 0.2822 0.0
H707 H 0.13518 0.23224 0.28158 0.0
H708 H 0.15294 0.27363 0.4127 0.0
H709 H 0.14637 0.23107 0.45585 0.0
C710 C 0.12995 0.18325 0.41902 0.0
C711 C 0.12144 0.15951 0.39515 0.0
C712 C 0.1364 0.20708 0.39391 0.0
C713 C 0.12067 0.15949 0.3456 0.0
C714 C 0.12679 0.18324 0.32033 0.0
C715 C 0.13803 0.23187 0.31952 0.0
C716 C 0.1442 0.25622 0.34389 0.0
C717 C 0.13409 0.20732 0.34422 0.0
C718 C 0.14813 0.25527 0.39299 0.0
C719 C 0.1442 0.23095 0.41779 0.0
H720 H 0.98494 0.91981 0.63267 0.0
H721 H 0.01638 0.91877 0.49051 0.0
H722 H 0.0628 0.9132 0.52051 0.0
H723 H 0.09359 0.90286 0.58673 0.0
H724 H 0.06106 0.8998 0.72824 0.0
H725 H 0.01611 0.91272 0.69909 0.0
C726 C 0.00205 0.91913 0.60837 0.0
C727 C 0.9973 0.91979 0.55951 0.0
C728 C 0.02849 0.91463 0.62578 0.0
C729 C 0.01959 0.91834 0.52832 0.0
C730 C 0.0461 0.91497 0.54544 0.0
C731 C 0.07674 0.9054 0.61121 0.0
C732 C 0.08062 0.90011 0.6595 0.0
C733 C 0.05068 0.91214 0.59404 0.0
C734 C 0.05855 0.90341 0.69079 0.0
C735 C 0.03283 0.91088 0.67419 0.0
H736 H 0.40782 0.77632 0.82713 0.0
H737 H 0.32382 0.79991 0.84509 0.0
H738 H 0.30907 0.75408 0.82069 0.0
H739 H 0.32083 0.70559 0.80522 0.0
H740 H 0.40516 0.68308 0.7849 0.0
H741 H 0.4191 0.73024 0.7987 0.0
C742 C 0.38627 0.77159 0.82424 0.0
C743 C 0.36687 0.79123 0.83779 0.0
C744 C 0.37809 0.7453 0.8105 0.0
C745 C 0.33902 0.78508 0.83423 0.0
C746 C 0.33065 0.75881 0.82085 0.0
C747 C 0.3422 0.71117 0.80305 0.0
C748 C 0.36199 0.69083 0.79479 0.0
C749 C 0.35008 0.73847 0.81064 0.0
C750 C 0.38956 0.69833 0.79136 0.0
C751 C 0.39757 0.72529 0.79942 0.0
H752 H 0.44211 0.12133 0.21848 0.0
H753 H 0.4001 0.1268 0.0852 0.0
H754 H 0.44236 0.11566 0.04333 0.0
H755 H 0.49214 0.1093 0.04451 0.0
H756 H 0.53387 0.10284 0.17802 0.0
H757 H 0.49071 0.10888 0.21988 0.0
C758 C 0.44216 0.11981 0.18028 0.0
C759 C 0.41815 0.12534 0.15491 0.0
C760 C 0.46647 0.11325 0.1565 0.0
C761 C 0.41836 0.12277 0.10551 0.0
C762 C 0.44254 0.11649 0.08155 0.0
C763 C 0.49174 0.10876 0.08277 0.0
C764 C 0.51628 0.10602 0.10808 0.0
C765 C 0.46685 0.1124 0.10665 0.0
C766 C 0.51533 0.10498 0.15763 0.0
C767 C 0.49066 0.10864 0.18163 0.0
H768 H 0.13398 0.70779 0.09177 0.0
H769 H 0.10738 0.72154 0.23511 0.0
H770 H 0.10296 0.77045 0.21946 0.0
H771 H 0.10296 0.80876 0.16306 0.0
H772 H 0.1261 0.79393 0.01829 0.0
H773 H 0.1358 0.74618 0.03653 0.0
C774 C 0.1276 0.72153 0.1198 0.0
C775 C 0.12099 0.711 0.16451 0.0
C776 C 0.12432 0.74949 0.11018 0.0
C777 C 0.11249 0.72909 0.2003 0.0
C778 C 0.10993 0.75707 0.19137 0.0
C779 C 0.11054 0.79514 0.13576 0.0
C780 C 0.11378 0.80484 0.08941 0.0
C781 C 0.11525 0.76743 0.14616 0.0
C782 C 0.12331 0.7869 0.0542 0.0
C783 C 0.12884 0.75959 0.06459 0.0
H784 H 0.51557 0.91361 0.4743 0.0
H785 H 0.55439 0.93342 0.34191 0.0
H786 H 0.51001 0.93485 0.30315 0.0
H787 H 0.46126 0.9236 0.30458 0.0
H788 H 0.42202 0.90424 0.43655 0.0
H789 H 0.46541 0.91009 0.47813 0.0
C790 C 0.51424 0.91872 0.43715 0.0
C791 C 0.53825 0.92287 0.41079 0.0
C792 C 0.48863 0.91945 0.41504 0.0
C793 C 0.53624 0.92997 0.36292 0.0
C794 C 0.51087 0.93066 0.34067 0.0
C795 C 0.46212 0.92133 0.34264 0.0
C796 C 0.43869 0.91316 0.3675 0.0
C797 C 0.48709 0.92444 0.36602 0.0
C798 C 0.43984 0.91058 0.41677 0.0
C799 C 0.46469 0.91364 0.44041 0.0
H800 H 0.37475 0.18892 0.54364 0.0
H801 H 0.39018 0.1599 0.68469 0.0
H802 H 0.37904 0.20508 0.71668 0.0
H803 H 0.36966 0.25394 0.70341 0.0
H804 H 0.35315 0.28243 0.56226 0.0
H805 H 0.35958 0.23623 0.53153 0.0
C806 C 0.37535 0.19242 0.58145 0.0
C807 C 0.38366 0.17126 0.61174 0.0
C808 C 0.36885 0.21835 0.59951 0.0
C809 C 0.3839 0.17589 0.66067 0.0
C810 C 0.37767 0.20175 0.67893 0.0
C811 C 0.36709 0.24996 0.66601 0.0
C812 C 0.36132 0.27169 0.63509 0.0
C813 C 0.37083 0.22331 0.64853 0.0
C814 C 0.35765 0.26613 0.58683 0.0
C815 C 0.36149 0.23972 0.56916 0.0
H816 H 0.04446 0.13082 0.79902 0.0
H817 H 0.07234 0.15109 0.93906 0.0
H818 H 0.02652 0.14321 0.97046 0.0
H819 H 0.97769 0.13439 0.95671 0.0
H820 H 0.95045 0.11269 0.81674 0.0
H821 H 0.99691 0.11697 0.78692 0.0
C822 C 0.04054 0.13328 0.83648 0.0
C823 C 0.06162 0.14188 0.86658 0.0
C824 C 0.01425 0.12854 0.85429 0.0
C825 C 0.05641 0.14453 0.91516 0.0
C826 C 0.03019 0.14015 0.93309 0.0
C827 C 0.98199 0.13028 0.9198 0.0
C828 C 0.96054 0.12358 0.88893 0.0
C829 C 0.00882 0.13271 0.9028 0.0
C830 C 0.96652 0.11796 0.84132 0.0
C831 C 0.99308 0.12053 0.82412 0.0
H832 H 0.87382 0.75778 0.68747 0.0
H833 H 0.86317 0.7212 0.54994 0.0
H834 H 0.86894 0.76575 0.51284 0.0
H835 H 0.88175 0.81414 0.51899 0.0
H836 H 0.89129 0.85108 0.65636 0.0
H837 H 0.88105 0.80738 0.694 0.0
C838 C 0.87237 0.75962 0.64942 0.0
C839 C 0.86845 0.73613 0.62151 0.0
C840 C 0.87579 0.78531 0.62825 0.0
C841 C 0.86624 0.73892 0.5723 0.0
C842 C 0.86972 0.76438 0.55098 0.0
C843 C 0.88134 0.81266 0.55718 0.0
C844 C 0.8877 0.83566 0.58487 0.0
C845 C 0.87528 0.78754 0.57854 0.0
C846 C 0.88658 0.83362 0.63428 0.0
C847 C 0.88082 0.80862 0.65582 0.0
H848 H 0.91668 0.08697 0.42172 0.0
H849 H 0.94514 0.05787 0.28667 0.0
H850 H 0.99001 0.04823 0.31998 0.0
H851 H 0.02306 0.05609 0.38313 0.0
H852 H 0.99586 0.08954 0.51617 0.0
H853 H 0.94873 0.08904 0.48857 0.0
C854 C 0.93248 0.07765 0.40017 0.0
C855 C 0.92778 0.07318 0.35192 0.0
C856 C 0.95866 0.07342 0.41905 0.0
C857 C 0.94845 0.06153 0.32396 0.0
C858 C 0.97413 0.05617 0.3429 0.0
C859 C 0.00675 0.06258 0.40655 0.0
C860 C 0.01301 0.07321 0.45134 0.0
C861 C 0.97983 0.06326 0.38979 0.0
C862 C 0.99162 0.08158 0.48124 0.0
C863 C 0.96464 0.08138 0.46545 0.0
H864 H 0.63513 0.29326 0.07929 0.0
H865 H 0.62351 0.27822 0.22788 0.0
H866 H 0.62183 0.22905 0.21308 0.0
H867 H 0.61886 0.1907 0.15698 0.0
H868 H 0.62646 0.20632 0.00782 0.0
H869 H 0.6348 0.25467 0.02368 0.0
C870 C 0.63274 0.27918 0.10849 0.0
C871 C 0.62938 0.28937 0.15457 0.0
C872 C 0.63084 0.25097 0.09953 0.0
C873 C 0.62598 0.27088 0.19202 0.0
C874 C 0.62499 0.24276 0.18359 0.0
C875 C 0.62287 0.20462 0.12807 0.0
C876 C 0.62199 0.19499 0.08133 0.0
C877 C 0.62668 0.23261 0.13736 0.0
C878 C 0.62688 0.21331 0.04413 0.0
C879 C 0.63161 0.24096 0.05315 0.0
H880 H 0.56978 0.86455 0.89856 0.0
H881 H 0.54926 0.87664 0.7521 0.0
H882 H 0.50188 0.88566 0.77367 0.0
H883 H 0.46532 0.88391 0.83265 0.0
H884 H 0.48511 0.868 0.97832 0.0
H885 H 0.53364 0.86714 0.95875 0.0
C886 C 0.55504 0.86976 0.87152 0.0
C887 C 0.56296 0.86972 0.82379 0.0
C888 C 0.52759 0.87399 0.88401 0.0
C889 C 0.54361 0.8763 0.78907 0.0
C890 C 0.51649 0.88142 0.80136 0.0
C891 C 0.48028 0.88087 0.86031 0.0
C892 C 0.47159 0.8758 0.90679 0.0
C893 C 0.50808 0.87939 0.84852 0.0
C894 C 0.49125 0.87174 0.94217 0.0
C895 C 0.51902 0.87116 0.93099 0.0
H896 H 0.82554 0.29687 0.85337 0.0
H897 H 0.87138 0.28156 0.72581 0.0
H898 H 0.87203 0.23272 0.7431 0.0
H899 H 0.86489 0.19527 0.79987 0.0
H900 H 0.82271 0.21172 0.93042 0.0
H901 H 0.81469 0.25893 0.90618 0.0
C902 C 0.8353 0.28283 0.82893 0.0
C903 C 0.84868 0.29295 0.78868 0.0
C904 C 0.83622 0.25487 0.83969 0.0
C905 C 0.86119 0.2744 0.75737 0.0
C906 C 0.86156 0.24642 0.7672 0.0
C907 C 0.85319 0.20903 0.82216 0.0
C908 C 0.84421 0.20016 0.86662 0.0
C909 C 0.84985 0.23652 0.80896 0.0
C910 C 0.82964 0.21821 0.89589 0.0
C911 C 0.82526 0.24522 0.88221 0.0
H912 H 0.59479 0.11033 0.60722 0.0
H913 H 0.56619 0.11944 0.75053 0.0
H914 H 0.52069 0.1047 0.72688 0.0
H915 H 0.48777 0.09444 0.66396 0.0
H916 H 0.51554 0.08937 0.51977 0.0
H917 H 0.56258 0.09666 0.54526 0.0
C918 C 0.5787 0.10868 0.63338 0.0
C919 C 0.58382 0.11623 0.68044 0.0
C920 C 0.55236 0.1009 0.61932 0.0
C921 C 0.56272 0.11407 0.71392 0.0
C922 C 0.53668 0.10558 0.70046 0.0
C923 C 0.50425 0.09418 0.63836 0.0
C924 C 0.4983 0.09131 0.59014 0.0
C925 C 0.53107 0.09964 0.65305 0.0
C926 C 0.51972 0.09153 0.55713 0.0
C927 C 0.54657 0.09586 0.57165 0.0
H928 H 0.67693 0.7403 0.36994 0.0
H929 H 0.67453 0.77415 0.22972 0.0
H930 H 0.66654 0.81976 0.2625 0.0
H931 H 0.65419 0.84881 0.33056 0.0
H932 H 0.65228 0.81351 0.46989 0.0
H933 H 0.66801 0.76988 0.43814 0.0
C934 C 0.67543 0.75779 0.34665 0.0
C935 C 0.67639 0.7539 0.29753 0.0
C936 C 0.66951 0.78368 0.36564 0.0
C937 C 0.67389 0.77667 0.2677 0.0
C938 C 0.66913 0.80272 0.28642 0.0
C939 C 0.65765 0.83167 0.35399 0.0
C940 C 0.65184 0.83433 0.40242 0.0
C941 C 0.66593 0.80631 0.33526 0.0
C942 C 0.65628 0.8119 0.43237 0.0
C943 C 0.66534 0.78694 0.41427 0.0
H944 H 0.90677 0.87255 0.09162 0.0
H945 H 0.93275 0.86281 0.23606 0.0
H946 H 0.97895 0.87631 0.21454 0.0
H947 H 0.01299 0.88643 0.15363 0.0
H948 H 0.98801 0.89281 0.00822 0.0
H949 H 0.94048 0.88563 0.03122 0.0
C950 C 0.92247 0.87372 0.11845 0.0
C951 C 0.91634 0.86643 0.16527 0.0
C952 C 0.94926 0.8809 0.10564 0.0
C953 C 0.93696 0.86799 0.19962 0.0
C954 C 0.96341 0.87578 0.1874 0.0
C955 C 0.99707 0.88687 0.12711 0.0
C956 C 0.00402 0.89014 0.07932 0.0
C957 C 0.96995 0.88167 0.14035 0.0
C958 C 0.98318 0.89028 0.04528 0.0
C959 C 0.95601 0.88604 0.05837 0.0
H960 H 0.63937 0.76684 0.89763 0.0
H961 H 0.64232 0.73658 0.7546 0.0
H962 H 0.63326 0.69027 0.78245 0.0
H963 H 0.62007 0.65922 0.84655 0.0
H964 H 0.61436 0.69024 0.98901 0.0
H965 H 0.62887 0.73524 0.9623 0.0
C966 C 0.63863 0.75001 0.87269 0.0
C967 C 0.64152 0.75513 0.82415 0.0
C968 C 0.63245 0.72358 0.88878 0.0
C969 C 0.64012 0.73316 0.79218 0.0
C970 C 0.63481 0.70669 0.80804 0.0
C971 C 0.62224 0.67575 0.87183 0.0
C972 C 0.61586 0.67136 0.91963 0.0
C973 C 0.63017 0.70179 0.85612 0.0
C974 C 0.61882 0.69306 0.95189 0.0
C975 C 0.6272 0.71884 0.93669 0.0
H976 H 0.45586 0.42747 0.09136 0.0
H977 H 0.46742 0.37069 0.9762 0.0
H978 H 0.51638 0.36978 -0.00873 0.0
H979 H 0.55469 0.3794 0.04521 0.0
H980 H 0.54192 0.433 0.16399 0.0
H981 H 0.49502 0.44147 0.13892 0.0
C982 C 0.46912 0.41529 0.06895 0.0
C983 C 0.45786 0.39883 0.03325 0.0
C984 C 0.49718 0.41429 0.07857 0.0
C985 C 0.47544 0.3833 0.00439 0.0
C986 C 0.5035 0.38274 0.01297 0.0
C987 C 0.54185 0.39369 0.06441 0.0
C988 C 0.55159 0.40575 0.10606 0.0
C989 C 0.51447 0.39737 0.05106 0.0
C990 C 0.53474 0.42372 0.13156 0.0
C991 C 0.50788 0.42834 0.1175 0.0
H992 H 0.86319 0.21029 0.25883 0.0
H993 H 0.83339 0.18053 0.39266 0.0
H994 H 0.83177 0.22709 0.42328 0.0
H995 H 0.84392 0.27534 0.4152 0.0
H996 H 0.87305 0.30581 0.28173 0.0
H997 H 0.86929 0.25993 0.24739 0.0
C998 C 0.85604 0.21404 0.29451 0.0
C999 C 0.84892 0.19191 0.32371 0.0
C1000 C 0.85508 0.24094 0.31194 0.0
C1001 C 0.8392 0.19714 0.36955 0.0
C1002 C 0.83832 0.22377 0.38717 0.0
C1003 C 0.84896 0.272 0.37832 0.0
C1004 C 0.85907 0.29373 0.35112 0.0
C1005 C 0.84696 0.24568 0.35913 0.0
C1006 C 0.86518 0.28934 0.30328 0.0
C1007 C 0.86327 0.26309 0.28382 0.0
H1008 H 0.94858 0.63415 0.56119 0.0
H1009 H 0.96284 0.61446 0.7073 0.0
H1010 H 0.01098 0.60585 0.69037 0.0
H1011 H 0.04988 0.60897 0.63605 0.0
H1012 H 0.03635 0.63271 0.49144 0.0
H1013 H 0.98722 0.6345 0.50556 0.0
C1014 C 0.96215 0.62737 0.58901 0.0
C1015 C 0.95224 0.6249 0.63537 0.0
C1016 C 0.99005 0.62354 0.57939 0.0
C1017 C 0.97007 0.61654 0.67133 0.0
C1018 C 0.9976 0.61171 0.66172 0.0
C1019 C 0.03614 0.6141 0.60744 0.0
C1020 C 0.04678 0.62085 0.56286 0.0
C1021 C 0.00798 0.61593 0.61618 0.0
C1022 C 0.02871 0.62764 0.52622 0.0
C1023 C 0.00059 0.62867 0.53425 0.0
H1024 H 0.66028 0.25206 0.72545 0.0
H1025 H 0.68229 0.21069 0.59605 0.0
H1026 H 0.6786 0.25364 0.55295 0.0
H1027 H 0.6626 0.30106 0.55019 0.0
H1028 H 0.64012 0.34263 0.67893 0.0
H1029 H 0.65093 0.30151 0.72437 0.0
C1030 C 0.66475 0.25253 0.68796 0.0
C1031 C 0.67105 0.2281 0.66383 0.0
C1032 C 0.66225 0.27724 0.66327 0.0
C1033 C 0.67724 0.22913 0.61544 0.0
C1034 C 0.67497 0.25366 0.59069 0.0
C1035 C 0.66051 0.30126 0.58832 0.0
C1036 C 0.6501 0.32461 0.61117 0.0
C1037 C 0.66647 0.27755 0.61395 0.0
C1038 C 0.64798 0.32484 0.66058 0.0
C1039 C 0.65399 0.30128 0.68648 0.0
H1040 H 0.98938 0.41761 0.97221 0.0
H1041 H 0.03121 0.44235 0.84507 0.0
H1042 H 0.98826 0.44139 0.80185 0.0
H1043 H 0.94064 0.42653 0.79744 0.0
H1044 H 0.8986 0.40102 0.92359 0.0
H1045 H 0.93973 0.4098 0.97025 0.0
C1046 C 0.98903 0.42329 0.93525 0.0
C1047 C 0.01359 0.4295 0.91169 0.0
C1048 C 0.96427 0.42235 0.9104 0.0
C1049 C 0.01269 0.43728 0.86401 0.0
C1050 C 0.98813 0.4366 0.83918 0.0
C1051 C 0.94032 0.42345 0.83535 0.0
C1052 C 0.91684 0.41273 0.85703 0.0
C1053 C 0.96407 0.4281 0.86158 0.0
C1054 C 0.91647 0.40924 0.90617 0.0
C1055 C 0.94005 0.41402 0.93272 0.0
H1056 H 0.83254 0.73323 0.21146 0.0
H1057 H 0.81939 0.77755 0.08192 0.0
H1058 H 0.82317 0.73522 0.03686 0.0
H1059 H 0.83664 0.68694 0.0334 0.0
H1060 H 0.84885 0.64205 0.16236 0.0
H1061 H 0.83868 0.6832 0.2086 0.0
C1062 C 0.82998 0.73354 0.17346 0.0
C1063 C 0.82621 0.75861 0.15005 0.0
C1064 C 0.8323 0.70908 0.14764 0.0
C1065 C 0.82249 0.75861 0.10086 0.0
C1066 C 0.82481 0.7344 0.07498 0.0
C1067 C 0.83659 0.68609 0.07166 0.0
C1068 C 0.84389 0.66171 0.09453 0.0
C1069 C 0.83073 0.70974 0.09785 0.0
C1070 C 0.84333 0.66065 0.14404 0.0
C1071 C 0.83769 0.6842 0.17044 0.0
H1072 H 0.57469 0.63514 0.25349 0.0
H1073 H 0.61075 0.64807 0.39051 0.0
H1074 H 0.56709 0.63812 0.42841 0.0
H1075 H 0.51772 0.63041 0.42202 0.0
H1076 H 0.48186 0.61583 0.28537 0.0
H1077 H 0.5265 0.6213 0.24791 0.0
C1078 C 0.57303 0.63547 0.29167 0.0
C1079 C 0.59576 0.64275 0.31915 0.0
C1080 C 0.54792 0.6295 0.31323 0.0
C1081 C 0.5935 0.64262 0.36859 0.0
C1082 C 0.56852 0.63704 0.39027 0.0
C1083 C 0.51977 0.62802 0.3841 0.0
C1084 C 0.49651 0.62309 0.35641 0.0
C1085 C 0.54546 0.63115 0.36287 0.0
C1086 C 0.49948 0.61964 0.30743 0.0
C1087 C 0.52496 0.62296 0.28597 0.0
H1088 H 0.32175 0.30912 0.07198 0.0
H1089 H 0.36501 0.34853 0.18542 0.0
H1090 H 0.36007 0.30744 0.23408 0.0
H1091 H 0.35035 0.25797 0.23816 0.0
H1092 H 0.30732 0.21906 0.12335 0.0
H1093 H 0.30486 0.26244 0.08175 0.0
C1094 C 0.32942 0.30892 0.10788 0.0
C1095 C 0.34401 0.33153 0.12505 0.0
C1096 C 0.32689 0.2852 0.13506 0.0
C1097 C 0.35366 0.33131 0.17163 0.0
C1098 C 0.35108 0.30772 0.19918 0.0
C1099 C 0.33994 0.25909 0.20448 0.0
C1100 C 0.32961 0.23511 0.18344 0.0
C1101 C 0.33882 0.28414 0.18038 0.0
C1102 C 0.31576 0.23705 0.14018 0.0
C1103 C 0.31442 0.26187 0.1162 0.0
H1104 H 0.40628 0.59347 0.92374 0.0
H1105 H 0.43308 0.59593 0.77876 0.0
H1106 H 0.47989 0.58707 0.80308 0.0
H1107 H 0.51391 0.58318 0.86572 0.0
H1108 H 0.48818 0.58466 0.01131 0.0
H1109 H 0.44043 0.58693 0.98679 0.0
C1110 C 0.42236 0.59168 0.89759 0.0
C1111 C 0.41632 0.59557 0.84963 0.0
C1112 C 0.4495 0.58734 0.91196 0.0
C1113 C 0.43731 0.59336 0.81598 0.0
C1114 C 0.46409 0.58822 0.82982 0.0
C1115 C 0.49782 0.5834 0.89207 0.0
C1116 C 0.50456 0.58375 0.9402 0.0
C1117 C 0.47053 0.58582 0.87775 0.0
C1118 C 0.4835 0.58443 0.97397 0.0
C1119 C 0.45619 0.58585 0.95999 0.0
H1120 H 0.17781 0.71522 0.56198 0.0
H1121 H 0.15207 0.6769 0.69142 0.0
H1122 H 0.15837 0.72009 0.7339 0.0
H1123 H 0.16375 0.7701 0.73073 0.0
H1124 H 0.18879 0.80822 0.60044 0.0
H1125 H 0.19064 0.76361 0.56189 0.0
C1126 C 0.17419 0.7162 0.59974 0.0
C1127 C 0.16406 0.69313 0.62348 0.0
C1128 C 0.17741 0.74111 0.62355 0.0
C1129 C 0.15984 0.69443 0.67244 0.0
C1130 C 0.1632 0.71918 0.69659 0.0
C1131 C 0.17012 0.76859 0.69413 0.0
C1132 C 0.17556 0.79251 0.6682 0.0
C1133 C 0.17081 0.74289 0.67201 0.0
C1134 C 0.18429 0.79019 0.62111 0.0
C1135 C 0.18521 0.76469 0.59895 0.0
H1136 H 0.06634 0.36236 0.40245 0.0
H1137 H 0.05022 0.37493 0.25454 0.0
H1138 H 0.00254 0.3852 0.27206 0.0
H1139 H 0.96436 0.38508 0.32796 0.0
H1140 H 0.97949 0.36883 0.47517 0.0
H1141 H 0.02843 0.36589 0.4596 0.0
C1142 C 0.05248 0.36794 0.37428 0.0
C1143 C 0.06173 0.36778 0.32728 0.0
C1144 C 0.02478 0.37288 0.38444 0.0
C1145 C 0.04351 0.37473 0.29099 0.0
C1146 C 0.01623 0.38056 0.30096 0.0
C1147 C 0.9784 0.38144 0.35681 0.0
C1148 C 0.96823 0.37701 0.40258 0.0
C1149 C 0.00644 0.37886 0.34735 0.0
C1150 C 0.98674 0.37213 0.43951 0.0
C1151 C 0.01476 0.37038 0.43062 0.0
H1152 H 0.36845 0.71561 0.42157 0.0
H1153 H 0.38472 0.68684 0.28032 0.0
H1154 H 0.37414 0.73216 0.24888 0.0
H1155 H 0.36712 0.78133 0.26336 0.0
H1156 H 0.34991 0.80975 0.40458 0.0
H1157 H 0.35353 0.76306 0.43424 0.0
C1158 C 0.36909 0.71916 0.3838 0.0
C1159 C 0.37776 0.69816 0.35331 0.0
C1160 C 0.36308 0.74521 0.36611 0.0
C1161 C 0.37813 0.70276 0.30443 0.0
C1162 C 0.3723 0.72871 0.28652 0.0
C1163 C 0.36364 0.77719 0.30047 0.0
C1164 C 0.35878 0.79897 0.33191 0.0
C1165 C 0.3658 0.75032 0.31726 0.0
C1166 C 0.35381 0.79334 0.37974 0.0
C1167 C 0.35605 0.76667 0.39676 0.0
H1168 H 0.9787 0.59465 -0.00309 0.0
H1169 H 0.94283 0.56033 0.12273 0.0
H1170 H 0.9876 0.55841 0.15988 0.0
H1171 H 0.0352 0.57367 0.16127 0.0
H1172 H 0.07143 0.60796 0.03602 0.0
H1173 H 0.02839 0.60212 -0.00649 0.0
C1174 C 0.98079 0.58626 0.03211 0.0
C1175 C 0.95742 0.57822 0.05742 0.0
C1176 C 0.0066 0.58537 0.05342 0.0
C1177 C 0.96045 0.56688 0.10262 0.0
C1178 C 0.98604 0.56589 0.12401 0.0
C1179 C 0.03383 0.57919 0.12429 0.0
C1180 C 0.05618 0.59162 0.10193 0.0
C1181 C 0.009 0.57614 0.10046 0.0
C1182 C 0.05442 0.59836 0.05391 0.0
C1183 C 0.02975 0.59528 0.02978 0.0
H1184 H 0.14498 0.24083 0.91032 0.0
H1185 H 0.14698 0.26504 0.76417 0.0
H1186 H 0.13955 0.3127 0.78701 0.0
H1187 H 0.12687 0.34651 0.84788 0.0
H1188 H 0.12114 0.32107 -0.00673 0.0
H1189 H 0.13562 0.27507 0.97147 0.0
C1190 C 0.14451 0.25664 0.88358 0.0
C1191 C 0.14656 0.24944 0.83566 0.0
C1192 C 0.13902 0.28378 0.89681 0.0
C1193 C 0.14545 0.2701 0.80132 0.0
C1194 C 0.14103 0.29733 0.81434 0.0
C1195 C 0.12914 0.33097 0.87482 0.0
C1196 C 0.12264 0.33715 0.92203 0.0
C1197 C 0.13685 0.30427 0.86187 0.0
C1198 C 0.12564 0.31677 0.95655 0.0
C1199 C 0.13401 0.29045 0.94416 0.0
H1200 H 0.4335 0.37381 0.55196 0.0
H1201 H 0.4475 0.40816 0.68997 0.0
H1202 H 0.49454 0.41889 0.66851 0.0
H1203 H 0.53323 0.41264 0.61475 0.0
H1204 H 0.52042 0.37477 0.4789 0.0
H1205 H 0.4716 0.37148 0.49497 0.0
C1206 C 0.44669 0.38437 0.57669 0.0
C1207 C 0.43715 0.39027 0.62236 0.0
C1208 C 0.47412 0.38938 0.56479 0.0
C1209 C 0.4545 0.40346 0.65456 0.0
C1210 C 0.48142 0.40945 0.64242 0.0
C1211 C 0.51971 0.40411 0.58829 0.0
C1212 C 0.53056 0.3937 0.54593 0.0
C1213 C 0.49174 0.40158 0.59827 0.0
C1214 C 0.51269 0.38269 0.51207 0.0
C1215 C 0.48472 0.38078 0.52121 0.0
H1216 H 0.12713 0.04701 0.61954 0.0
H1217 H 0.17691 0.09546 0.52678 0.0
H1218 H 0.2 0.11579 0.59437 0.0
H1219 H 0.1932 0.13064 0.677 0.0
H1220 H 0.14387 0.08176 0.76994 0.0
H1221 H 0.13408 0.05004 0.70565 0.0
C1222 C 0.14432 0.0606 0.6142 0.0
C1223 C 0.14989 0.07033 0.5686 0.0
C1224 C 0.15698 0.07274 0.65342 0.0
C1225 C 0.17222 0.0878 0.56172 0.0
C1226 C 0.18508 0.09987 0.60049 0.0
C1227 C 0.18171 0.11212 0.68373 0.0
C1228 C 0.16869 0.10879 0.72754 0.0
C1229 C 0.17581 0.09422 0.6463 0.0
C1230 C 0.15398 0.08474 0.7363 0.0
C1231 C 0.14803 0.0668 0.6993 0.0
H1232 H 0.20603 0.89583 0.85709 0.0
H1233 H 0.15348 0.94949 0.77865 0.0
H1234 H 0.13236 0.96536 0.85165 0.0
H1235 H 0.11859 0.95053 0.93162 0.0
H1236 H 0.17134 0.89708 0.01028 0.0
H1237 H 0.20313 0.89505 0.944 0.0
C1238 C 0.19131 0.9124 0.85634 0.0
C1239 C 0.1806 0.92079 0.81271 0.0
C1240 C 0.1786 0.92068 0.89852 0.0
C1241 C 0.16183 0.94248 0.81189 0.0
C1242 C 0.14928 0.95114 0.8537 0.0
C1243 C 0.13785 0.9398 0.93514 0.0
C1244 C 0.14242 0.92347 0.97508 0.0
C1245 C 0.15584 0.93842 0.89652 0.0
C1246 C 0.16741 0.90972 0.97968 0.0
C1247 C 0.18544 0.90825 0.94147 0.0
H1248 H 0.35906 0.92489 0.02438 0.0
H1249 H 0.31354 0.84973 0.02475 0.0
H1250 H 0.29725 0.8592 0.10455 0.0
H1251 H 0.30845 0.88077 0.17992 0.0
H1252 H 0.35961 0.95198 0.1826 0.0
H1253 H 0.36012 0.95329 0.09647 0.0
C1254 C 0.34449 0.91138 0.04122 0.0
C1255 C 0.33767 0.88655 0.01929 0.0
C1256 C 0.33654 0.91619 0.08829 0.0
C1257 C 0.3191 0.8689 0.04136 0.0
C1258 C 0.30996 0.87422 0.08711 0.0
C1259 C 0.31816 0.89759 0.16149 0.0
C1260 C 0.33419 0.91605 0.18724 0.0
C1261 C 0.32025 0.89669 0.11207 0.0
C1262 C 0.34703 0.9376 0.16333 0.0
C1263 C 0.34785 0.93793 0.11398 0.0
H1264 H 0.33752 0.09044 0.48946 0.0
H1265 H 0.39539 0.03794 0.41965 0.0
H1266 H 0.37164 0.04412 0.34476 0.0
H1267 H 0.34577 0.07696 0.29744 0.0
H1268 H 0.29511 0.1367 0.3667 0.0
H1269 H 0.30353 0.11507 0.44289 0.0
C1270 C 0.34382 0.07907 0.45833 0.0
C1271 C 0.36815 0.06394 0.45966 0.0
C1272 C 0.33162 0.08494 0.41471 0.0
C1273 C 0.3766 0.04961 0.41923 0.0
C1274 C 0.36328 0.05359 0.37625 0.0
C1275 C 0.33534 0.08414 0.32896 0.0
C1276 C 0.31997 0.10832 0.32687 0.0
C1277 C 0.34235 0.07308 0.37299 0.0
C1278 C 0.30692 0.11798 0.36773 0.0
C1279 C 0.31211 0.10585 0.41137 0.0
H1280 H 0.83491 0.91464 0.26882 0.0
H1281 H 0.7881 0.85866 0.35327 0.0
H1282 H 0.80022 0.88391 0.42466 0.0
H1283 H 0.83606 0.91089 0.46264 0.0
H1284 H 0.89019 0.95938 0.37754 0.0
H1285 H 0.86312 0.94923 0.30736 0.0
C1286 C 0.82617 0.90894 0.3026 0.0
C1287 C 0.81094 0.88472 0.30609 0.0
C1288 C 0.83537 0.92202 0.34376 0.0
C1289 C 0.79994 0.87723 0.34995 0.0
C1290 C 0.80723 0.89146 0.39083 0.0
C1291 C 0.8409 0.92045 0.42914 0.0
C1292 C 0.86502 0.93571 0.42492 0.0
C1293 C 0.82676 0.91235 0.38839 0.0
C1294 C 0.8716 0.94765 0.3814 0.0
C1295 C 0.85634 0.94146 0.34118 0.0
H1296 H 0.8055 0.10886 0.02752 0.0
H1297 H 0.86838 0.04858 0.0068 0.0
H1298 H 0.86048 0.03079 0.08615 0.0
H1299 H 0.84725 0.04389 0.16678 0.0
H1300 H 0.78706 0.10667 0.18858 0.0
H1301 H 0.78102 0.11112 0.10347 0.0
C1302 C 0.81626 0.09078 0.03953 0.0
C1303 C 0.83767 0.08016 0.01204 0.0
C1304 C 0.81231 0.08149 0.08587 0.0
C1305 C 0.85175 0.05693 0.02757 0.0
C1306 C 0.84747 0.04704 0.07321 0.0
C1307 C 0.83149 0.05717 0.15279 0.0
C1308 C 0.81809 0.0754 0.18346 0.0
C1309 C 0.82944 0.0607 0.10378 0.0
C1310 C 0.79767 0.09252 0.16545 0.0
C1311 C 0.79468 0.09549 0.11667 0.0
H1312 H 0.66577 0.07611 0.79449 0.0
H1313 H 0.72161 0.13418 0.85464 0.0
H1314 H 0.7103 0.11834 0.93391 0.0
H1315 H 0.67297 0.10097 0.9832 0.0
H1316 H 0.61072 0.05075 0.92052 0.0
H1317 H 0.63587 0.04972 0.84607 0.0
C1318 C 0.67668 0.08402 0.8249 0.0
C1319 C 0.6941 0.10652 0.81907 0.0
C1320 C 0.66783 0.07682 0.87036 0.0
C1321 C 0.70805 0.11686 0.85847 0.0
C1322 C 0.70109 0.10818 0.90388 0.0
C1323 C 0.66576 0.08862 0.95392 0.0
C1324 C 0.63999 0.07621 0.95686 0.0
C1325 C 0.6792 0.0901 0.91016 0.0
C1326 C 0.6305 0.06054 0.91874 0.0
C1327 C 0.64476 0.06023 0.87603 0.0
H1328 H 0.69094 0.9095 0.54065 0.0
H1329 H 0.63158 0.96603 0.59545 0.0
H1330 H 0.64493 0.95484 0.67604 0.0
H1331 H 0.66003 0.91708 0.72641 0.0
H1332 H 0.71145 0.85411 0.66827 0.0
H1333 H 0.71565 0.87954 0.59461 0.0
C1334 C 0.68228 0.92061 0.57033 0.0
C1335 C 0.66009 0.93818 0.56249 0.0
C1336 C 0.68809 0.91186 0.61638 0.0
C1337 C 0.64871 0.95239 0.60085 0.0
C1338 C 0.65596 0.94549 0.64699 0.0
C1339 C 0.67344 0.90985 0.69853 0.0
C1340 C 0.68524 0.88379 0.70226 0.0
C1341 C 0.67366 0.92342 0.65489 0.0
C1342 C 0.70223 0.87419 0.66592 0.0
C1343 C 0.70428 0.88858 0.62356 0.0
H1344 H 0.66962 0.58934 0.00772 0.0
H1345 H 0.62227 0.53922 0.1016 0.0
H1346 H 0.65085 0.55299 0.16794 0.0
H1347 H 0.67646 0.59146 0.20101 0.0
H1348 H 0.71588 0.64839 0.10774 0.0
H1349 H 0.70441 0.61983 0.03987 0.0
C1350 C 0.66669 0.58018 0.04221 0.0
C1351 C 0.64367 0.56374 0.05014 0.0
C1352 C 0.68143 0.59044 0.08084 0.0
C1353 C 0.63984 0.55205 0.09486 0.0
C1354 C 0.65589 0.56038 0.13297 0.0
C1355 C 0.68387 0.5967 0.16607 0.0
C1356 C 0.69664 0.62206 0.15905 0.0
C1357 C 0.67494 0.58146 0.12695 0.0
C1358 C 0.70593 0.62895 0.11375 0.0
C1359 C 0.69899 0.61279 0.07489 0.0
H1360 H 0.68866 0.40263 0.42443 0.0
H1361 H 0.62453 0.46231 0.43682 0.0
H1362 H 0.62704 0.47123 0.3522 0.0
H1363 H 0.63544 0.4491 0.27541 0.0
H1364 H 0.6968 0.38657 0.26334 0.0
H1365 H 0.7084 0.39228 0.34654 0.0
C1366 C 0.67652 0.41884 0.40892 0.0
C1367 C 0.65602 0.43136 0.43619 0.0
C1368 C 0.67714 0.42269 0.35987 0.0
C1369 C 0.64038 0.45238 0.41629 0.0
C1370 C 0.64148 0.45708 0.36767 0.0
C1371 C 0.65254 0.43805 0.29042 0.0
C1372 C 0.66493 0.4171 0.26396 0.0
C1373 C 0.658 0.4405 0.33885 0.0
C1374 C 0.68702 0.40279 0.28326 0.0
C1375 C 0.69328 0.40572 0.33112 0.0
H1376 H 0.84097 0.44749 0.6575 0.0
H1377 H 0.78408 0.38149 0.67538 0.0
H1378 H 0.77974 0.37692 0.58999 0.0
H1379 H 0.80579 0.38036 0.51571 0.0
H1380 H 0.865 0.44441 0.49875 0.0
H1381 H 0.85446 0.46174 0.57766 0.0
C1382 C 0.82623 0.4334 0.64255 0.0
C1383 C 0.81356 0.41423 0.67222 0.0
C1384 C 0.82513 0.42994 0.59341 0.0
C1385 C 0.79426 0.39625 0.65303 0.0
C1386 C 0.79226 0.39324 0.60407 0.0
C1387 C 0.81511 0.39908 0.52836 0.0
C1388 C 0.83643 0.41088 0.50228 0.0
C1389 C 0.80963 0.40821 0.57441 0.0
C1390 C 0.84854 0.43507 0.5185 0.0
C1391 C 0.84277 0.44472 0.56391 0.0
H1392 H 0.8064 0.59646 0.9169 0.0
H1393 H 0.86704 0.53512 0.88826 0.0
H1394 H 0.86209 0.5426 0.80355 0.0
H1395 H 0.85328 0.57791 0.74371 0.0
H1396 H 0.79893 0.64444 0.7764 0.0
H1397 H 0.78791 0.62372 0.85235 0.0
C1398 C 0.81713 0.58351 0.89181 0.0
C1399 C 0.83733 0.56564 0.90845 0.0
C1400 C 0.81596 0.58984 0.84358 0.0
C1401 C 0.85135 0.54901 0.87608 0.0
C1402 C 0.84897 0.55379 0.82761 0.0
C1403 C 0.83787 0.58693 0.76646 0.0
C1404 C 0.82698 0.61262 0.755 0.0
C1405 C 0.83325 0.57588 0.81152 0.0
C1406 C 0.80743 0.62459 0.78476 0.0
C1407 C 0.80141 0.61288 0.82841 0.0
H1408 H 0.34535 0.42941 0.76441 0.0
H1409 H 0.28845 0.36277 0.77284 0.0
H1410 H 0.27731 0.37522 0.85409 0.0
H1411 H 0.29678 0.39374 0.92699 0.0
H1412 H 0.35779 0.45665 0.92022 0.0
H1413 H 0.35353 0.45822 0.83442 0.0
C1414 C 0.32926 0.41879 0.78324 0.0
C1415 C 0.31786 0.39513 0.76327 0.0
C1416 C 0.32429 0.42512 0.83086 0.0
C1417 C 0.29733 0.38113 0.78771 0.0
C1418 C 0.29131 0.38802 0.83445 0.0
C1419 C 0.30778 0.40901 0.9068 0.0
C1420 C 0.32804 0.42454 0.92932 0.0
C1421 C 0.3065 0.40836 0.85737 0.0
C1422 C 0.34218 0.44439 0.90341 0.0
C1423 C 0.34014 0.44485 0.85418 0.0
H1424 H 0.32309 0.59428 0.64965 0.0
H1425 H 0.40182 0.57751 0.71055 0.0
H1426 H 0.42095 0.569 0.63253 0.0
H1427 H 0.4178 0.57692 0.54798 0.0
H1428 H 0.34064 0.59736 0.48519 0.0
H1429 H 0.31808 0.59301 0.56219 0.0
C1430 C 0.34412 0.58778 0.64563 0.0
C1431 C 0.3612 0.58678 0.68537 0.0
C1432 C 0.3553 0.5839 0.60021 0.0
C1433 C 0.38848 0.57862 0.68016 0.0
C1434 C 0.39944 0.57383 0.6356 0.0
C1435 C 0.39584 0.57921 0.55095 0.0
C1436 C 0.38087 0.58758 0.51147 0.0
C1437 C 0.38344 0.57792 0.5954 0.0
C1438 C 0.35248 0.59067 0.51528 0.0
C1439 C 0.33969 0.58862 0.55945 0.0
H1440 H 0.19975 0.6111 0.42793 0.0
H1441 H 0.13836 0.55113 0.45989 0.0
H1442 H 0.13551 0.53866 0.37658 0.0
H1443 H 0.13875 0.55706 0.29591 0.0
H1444 H 0.19817 0.61904 0.26417 0.0
H1445 H 0.21433 0.61799 0.34564 0.0
C1446 C 0.18703 0.59412 0.41687 0.0
C1447 C 0.16876 0.58251 0.44944 0.0
C1448 C 0.18462 0.58807 0.36861 0.0
C1449 C 0.15249 0.56043 0.43526 0.0
C1450 C 0.15049 0.55367 0.38741 0.0
C1451 C 0.15629 0.56913 0.30633 0.0
C1452 C 0.1669 0.58854 0.27477 0.0
C1453 C 0.16467 0.56913 0.35366 0.0
C1454 C 0.18967 0.60404 0.28808 0.0
C1455 C 0.19861 0.60372 0.33491 0.0
H1456 H 0.15216 0.41377 0.22446 0.0
H1457 H 0.19555 0.35125 0.14778 0.0
H1458 H 0.19347 0.37866 0.07595 0.0
H1459 H 0.16645 0.4119 0.03198 0.0
H1460 H 0.11497 0.46864 0.10682 0.0
H1461 H 0.13385 0.45335 0.18198 0.0
C1462 C 0.16235 0.40687 0.19256 0.0
C1463 C 0.17375 0.38051 0.19104 0.0
C1464 C 0.15906 0.42176 0.15059 0.0
C1465 C 0.18658 0.37148 0.14951 0.0
C1466 C 0.18513 0.38705 0.10835 0.0
C1467 C 0.16064 0.42202 0.06463 0.0
C1468 C 0.1392 0.4411 0.06413 0.0
C1469 C 0.16954 0.41111 0.10774 0.0
C1470 C 0.13148 0.4539 0.10651 0.0
C1471 C 0.1419 0.44473 0.14955 0.0
loop_
_geom_bond_atom_site_label_1
_geom_bond_atom_site_label_2
_geom_bond_distance
_geom_bond_site_symmetry_2
_ccdc_geom_bond_type
Zn0 O3 2.031 . S
Zn0 O5 2.049 . S
Zn0 O10 2.067 . S
Zn1 O2 1.962 . S
Zn1 O4 1.986 . S
Zn1 O6 1.996 . S
Zn1 O9 1.943 . S
O2 Zn1 1.962 . S
O2 C7 1.254 . S
O3 Zn0 2.031 . S
O3 C7 1.269 . S
O4 Zn1 1.986 . S
O4 C11 1.262 . S
O5 Zn0 2.049 . S
O5 C13 1.260 . S
O6 Zn1 1.996 . S
O6 C13 1.257 . S
C7 O2 1.254 . S
C7 O3 1.269 . S
C8 O9 1.249 . S
C8 O10 1.270 . S
O9 Zn1 1.943 . S
O9 C8 1.249 . S
O10 Zn0 2.067 . S
O10 C8 1.270 . S
C11 O4 1.262 . S
C11 O12 1.232 . S
O12 C11 1.232 . S
C13 O5 1.260 . S
C13 O6 1.257 . S
Zn14 O17 2.031 . S
Zn14 O19 2.049 . S
Zn14 O24 2.067 . S
Zn15 O16 1.962 . S
Zn15 O18 1.986 . S
Zn15 O20 1.996 . S
Zn15 O23 1.943 . S
O16 Zn15 1.962 . S
O16 C21 1.254 . S
O17 Zn14 2.031 . S
O17 C21 1.269 . S
O18 Zn15 1.986 . S
O18 C25 1.262 . S
O19 Zn14 2.049 . S
O19 C27 1.260 . S
O20 Zn15 1.996 . S
O20 C27 1.257 . S
C21 O16 1.254 . S
C21 O17 1.269 . S
C22 O23 1.249 . S
C22 O24 1.270 . S
O23 Zn15 1.943 . S
O23 C22 1.249 . S
O24 Zn14 2.067 . S
O24 C22 1.270 . S
C25 O18 1.262 . S
C25 O26 1.232 . S
O26 C25 1.232 . S
C27 O19 1.260 . S
C27 O20 1.257 . S
Zn28 O31 2.031 . S
Zn28 O33 2.049 . S
Zn28 O38 2.067 . S
Zn29 O30 1.962 . S
Zn29 O32 1.986 . S
Zn29 O34 1.996 . S
Zn29 O37 1.943 . S
O30 Zn29 1.962 . S
O30 C35 1.254 . S
O31 Zn28 2.031 . S
O31 C35 1.269 . S
O32 Zn29 1.986 . S
O32 C39 1.262 . S
O33 Zn28 2.049 . S
O33 C41 1.260 . S
O34 Zn29 1.996 . S
O34 C41 1.257 . S
C35 O30 1.254 . S
C35 O31 1.269 . S
C36 O37 1.249 . S
C36 O38 1.270 . S
O37 Zn29 1.943 . S
O37 C36 1.249 . S
O38 Zn28 2.067 . S
O38 C36 1.270 . S
C39 O32 1.262 . S
C39 O40 1.232 . S
O40 C39 1.232 . S
C41 O33 1.260 . S
C41 O34 1.257 . S
Zn42 O45 2.031 . S
Zn42 O47 2.049 . S
Zn42 O52 2.067 . S
Zn43 O44 1.962 . S
Zn43 O46 1.986 . S
Zn43 O48 1.996 . S
Zn43 O51 1.943 . S
O44 Zn43 1.962 . S
O44 C49 1.254 . S
O45 Zn42 2.031 . S
O45 C49 1.269 . S
O46 Zn43 1.986 . S
O46 C53 1.262 . S
O47 Zn42 2.049 . S
O47 C55 1.260 . S
O48 Zn43 1.996 . S
O48 C55 1.257 . S
C49 O44 1.254 . S
C49 O45 1.269 . S
C50 O51 1.249 . S
C50 O52 1.270 . S
O51 Zn43 1.943 . S
O51 C50 1.249 . S
O52 Zn42 2.067 . S
O52 C50 1.270 . S
C53 O46 1.262 . S
C53 O54 1.232 . S
O54 C53 1.232 . S
C55 O47 1.260 . S
C55 O48 1.257 . S
Zn56 O59 2.031 . S
Zn56 O61 2.049 . S
Zn56 O66 2.067 . S
Zn57 O58 1.962 . S
Zn57 O60 1.986 . S
Zn57 O62 1.996 . S
Zn57 O65 1.943 . S
O58 Zn57 1.962 . S
O58 C63 1.254 . S
O59 Zn56 2.031 . S
O59 C63 1.269 . S
O60 Zn57 1.986 . S
O60 C67 1.262 . S
O61 Zn56 2.049 . S
O61 C69 1.260 . S
O62 Zn57 1.996 . S
O62 C69 1.257 . S
C63 O58 1.254 . S
C63 O59 1.269 . S
C64 O65 1.249 . S
C64 O66 1.270 . S
O65 Zn57 1.943 . S
O65 C64 1.249 . S
O66 Zn56 2.067 . S
O66 C64 1.270 . S
C67 O60 1.262 . S
C67 O68 1.232 . S
O68 C67 1.232 . S
C69 O61 1.260 . S
C69 O62 1.257 . S
Zn70 O73 2.031 . S
Zn70 O75 2.049 . S
Zn70 O80 2.067 . S
Zn71 O72 1.962 . S
Zn71 O74 1.986 . S
Zn71 O76 1.996 . S
Zn71 O79 1.943 . S
O72 Zn71 1.962 . S
O72 C77 1.254 . S
O73 Zn70 2.031 . S
O73 C77 1.269 . S
O74 Zn71 1.986 . S
O74 C81 1.262 . S
O75 Zn70 2.049 . S
O75 C83 1.260 . S
O76 Zn71 1.996 . S
O76 C83 1.257 . S
C77 O72 1.254 . S
C77 O73 1.269 . S
C78 O79 1.249 . S
C78 O80 1.270 . S
O79 Zn71 1.943 . S
O79 C78 1.249 . S
O80 Zn70 2.067 . S
O80 C78 1.270 . S
C81 O74 1.262 . S
C81 O82 1.232 . S
O82 C81 1.232 . S
C83 O75 1.260 . S
C83 O76 1.257 . S
Zn84 O87 2.031 . S
Zn84 O89 2.049 . S
Zn84 O94 2.067 . S
Zn85 O86 1.962 . S
Zn85 O88 1.986 . S
Zn85 O90 1.996 . S
Zn85 O93 1.943 . S
O86 Zn85 1.962 . S
O86 C91 1.254 . S
O87 Zn84 2.031 . S
O87 C91 1.269 . S
O88 Zn85 1.986 . S
O88 C95 1.262 . S
O89 Zn84 2.049 . S
O89 C97 1.260 . S
O90 Zn85 1.996 . S
O90 C97 1.257 . S
C91 O86 1.254 . S
C91 O87 1.269 . S
C92 O93 1.249 . S
C92 O94 1.270 . S
O93 Zn85 1.943 . S
O93 C92 1.249 . S
O94 Zn84 2.067 . S
O94 C92 1.270 . S
C95 O88 1.262 . S
C95 O96 1.232 . S
O96 C95 1.232 . S
C97 O89 1.260 . S
C97 O90 1.257 . S
Zn98 O101 2.031 . S
Zn98 O103 2.049 . S
Zn98 O108 2.067 . S
Zn99 O100 1.962 . S
Zn99 O102 1.986 . S
Zn99 O104 1.996 . S
Zn99 O107 1.943 . S
O100 Zn99 1.962 . S
O100 C105 1.254 . S
O101 Zn98 2.031 . S
O101 C105 1.269 . S
O102 Zn99 1.986 . S
O102 C109 1.262 . S
O103 Zn98 2.049 . S
O103 C111 1.260 . S
O104 Zn99 1.996 . S
O104 C111 1.257 . S
C105 O100 1.254 . S
C105 O101 1.269 . S
C106 O107 1.249 . S
C106 O108 1.270 . S
O107 Zn99 1.943 . S
O107 C106 1.249 . S
O108 Zn98 2.067 . S
O108 C106 1.270 . S
C109 O102 1.262 . S
C109 O110 1.232 . S
O110 C109 1.232 . S
C111 O103 1.260 . S
C111 O104 1.257 . S
Zn112 O115 2.031 . S
Zn112 O117 2.049 . S
Zn112 O122 2.067 . S
Zn113 O114 1.962 . S
Zn113 O116 1.986 . S
Zn113 O118 1.996 . S
Zn113 O121 1.943 . S
O114 Zn113 1.962 . S
O114 C119 1.254 . S
O115 Zn112 2.031 . S
O115 C119 1.269 . S
O116 Zn113 1.986 . S
O116 C123 1.262 . S
O117 Zn112 2.049 . S
O117 C125 1.260 . S
O118 Zn113 1.996 . S
O118 C125 1.257 . S
C119 O114 1.254 . S
C119 O115 1.269 . S
C120 O121 1.249 . S
C120 O122 1.270 . S
O121 Zn113 1.943 . S
O121 C120 1.249 . S
O122 Zn112 2.067 . S
O122 C120 1.270 . S
C123 O116 1.262 . S
C123 O124 1.232 . S
O124 C123 1.232 . S
C125 O117 1.260 . S
C125 O118 1.257 . S
Zn126 O129 2.031 . S
Zn126 O131 2.049 . S
Zn126 O136 2.067 . S
Zn127 O128 1.962 . S
Zn127 O130 1.986 . S
Zn127 O132 1.996 . S
Zn127 O135 1.943 . S
O128 Zn127 1.962 . S
O128 C133 1.254 . S
O129 Zn126 2.031 . S
O129 C133 1.269 . S
O130 Zn127 1.986 . S
O130 C137 1.262 . S
O131 Zn126 2.049 . S
O131 C139 1.260 . S
O132 Zn127 1.996 . S
O132 C139 1.257 . S
C133 O128 1.254 . S
C133 O129 1.269 . S
C134 O135 1.249 . S
C134 O136 1.270 . S
O135 Zn127 1.943 . S
O135 C134 1.249 . S
O136 Zn126 2.067 . S
O136 C134 1.270 . S
C137 O130 1.262 . S
C137 O138 1.232 . S
O138 C137 1.232 . S
C139 O131 1.260 . S
C139 O132 1.257 . S
Zn140 O143 2.031 . S
Zn140 O145 2.049 . S
Zn140 O150 2.067 . S
Zn141 O142 1.962 . S
Zn141 O144 1.986 . S
Zn141 O146 1.996 . S
Zn141 O149 1.943 . S
O142 Zn141 1.962 . S
O142 C147 1.254 . S
O143 Zn140 2.031 . S
O143 C147 1.269 . S
O144 Zn141 1.986 . S
O144 C151 1.262 . S
O145 Zn140 2.049 . S
O145 C153 1.260 . S
O146 Zn141 1.996 . S
O146 C153 1.257 . S
C147 O142 1.254 . S
C147 O143 1.269 . S
C148 O149 1.249 . S
C148 O150 1.270 . S
O149 Zn141 1.943 . S
O149 C148 1.249 . S
O150 Zn140 2.067 . S
O150 C148 1.270 . S
C151 O144 1.262 . S
C151 O152 1.232 . S
O152 C151 1.232 . S
C153 O145 1.260 . S
C153 O146 1.257 . S
Zn154 O157 2.031 . S
Zn154 O159 2.049 . S
Zn154 O164 2.067 . S
Zn155 O156 1.962 . S
Zn155 O158 1.986 . S
Zn155 O160 1.996 . S
Zn155 O163 1.943 . S
O156 Zn155 1.962 . S
O156 C161 1.254 . S
O157 Zn154 2.031 . S
O157 C161 1.269 . S
O158 Zn155 1.986 . S
O158 C165 1.262 . S
O159 Zn154 2.049 . S
O159 C167 1.260 . S
O160 Zn155 1.996 . S
O160 C167 1.257 . S
C161 O156 1.254 . S
C161 O157 1.269 . S
C162 O163 1.249 . S
C162 O164 1.270 . S
O163 Zn155 1.943 . S
O163 C162 1.249 . S
O164 Zn154 2.067 . S
O164 C162 1.270 . S
C165 O158 1.262 . S
C165 O166 1.232 . S
O166 C165 1.232 . S
C167 O159 1.260 . S
C167 O160 1.257 . S
Zn168 O171 2.031 . S
Zn168 O173 2.049 . S
Zn168 O178 2.067 . S
Zn169 O170 1.962 . S
Zn169 O172 1.986 . S
Zn169 O174 1.996 . S
Zn169 O177 1.943 . S
O170 Zn169 1.962 . S
O170 C175 1.254 . S
O171 Zn168 2.031 . S
O171 C175 1.269 . S
O172 Zn169 1.986 . S
O172 C179 1.262 . S
O173 Zn168 2.049 . S
O173 C181 1.260 . S
O174 Zn169 1.996 . S
O174 C181 1.257 . S
C175 O170 1.254 . S
C175 O171 1.269 . S
C176 O177 1.249 . S
C176 O178 1.270 . S
O177 Zn169 1.943 . S
O177 C176 1.249 . S
O178 Zn168 2.067 . S
O178 C176 1.270 . S
C179 O172 1.262 . S
C179 O180 1.232 . S
O180 C179 1.232 . S
C181 O173 1.260 . S
C181 O174 1.257 . S
Zn182 O185 2.031 . S
Zn182 O187 2.049 . S
Zn182 O192 2.067 . S
Zn183 O184 1.962 . S
Zn183 O186 1.986 . S
Zn183 O188 1.996 . S
Zn183 O191 1.943 . S
O184 Zn183 1.962 . S
O184 C189 1.254 . S
O185 Zn182 2.031 . S
O185 C189 1.269 . S
O186 Zn183 1.986 . S
O186 C193 1.262 . S
O187 Zn182 2.049 . S
O187 C195 1.260 . S
O188 Zn183 1.996 . S
O188 C195 1.257 . S
C189 O184 1.254 . S
C189 O185 1.269 . S
C190 O191 1.249 . S
C190 O192 1.270 . S
O191 Zn183 1.943 . S
O191 C190 1.249 . S
O192 Zn182 2.067 . S
O192 C190 1.270 . S
C193 O186 1.262 . S
C193 O194 1.232 . S
O194 C193 1.232 . S
C195 O187 1.260 . S
C195 O188 1.257 . S
Zn196 O199 2.031 . S
Zn196 O201 2.049 . S
Zn196 O206 2.067 . S
Zn197 O198 1.962 . S
Zn197 O200 1.986 . S
Zn197 O202 1.996 . S
Zn197 O205 1.943 . S
O198 Zn197 1.962 . S
O198 C203 1.254 . S
O199 Zn196 2.031 . S
O199 C203 1.269 . S
O200 Zn197 1.986 . S
O200 C207 1.262 . S
O201 Zn196 2.049 . S
O201 C209 1.260 . S
O202 Zn197 1.996 . S
O202 C209 1.257 . S
C203 O198 1.254 . S
C203 O199 1.269 . S
C204 O205 1.249 . S
C204 O206 1.270 . S
O205 Zn197 1.943 . S
O205 C204 1.249 . S
O206 Zn196 2.067 . S
O206 C204 1.270 . S
C207 O200 1.262 . S
C207 O208 1.232 . S
O208 C207 1.232 . S
C209 O201 1.260 . S
C209 O202 1.257 . S
Zn210 O213 2.031 . S
Zn210 O215 2.049 . S
Zn210 O220 2.067 . S
Zn211 O212 1.962 . S
Zn211 O214 1.986 . S
Zn211 O216 1.996 . S
Zn211 O219 1.943 . S
O212 Zn211 1.962 . S
O212 C217 1.254 . S
O213 Zn210 2.031 . S
O213 C217 1.269 . S
O214 Zn211 1.986 . S
O214 C221 1.262 . S
O215 Zn210 2.049 . S
O215 C223 1.260 . S
O216 Zn211 1.996 . S
O216 C223 1.257 . S
C217 O212 1.254 . S
C217 O213 1.269 . S
C218 O219 1.249 . S
C218 O220 1.270 . S
O219 Zn211 1.943 . S
O219 C218 1.249 . S
O220 Zn210 2.067 . S
O220 C218 1.270 . S
C221 O214 1.262 . S
C221 O222 1.232 . S
O222 C221 1.232 . S
C223 O215 1.260 . S
C223 O216 1.257 . S
Zn224 O227 2.031 . S
Zn224 O229 2.049 . S
Zn224 O234 2.067 . S
Zn225 O226 1.962 . S
Zn225 O228 1.986 . S
Zn225 O230 1.996 . S
Zn225 O233 1.943 . S
O226 Zn225 1.962 . S
O226 C231 1.254 . S
O227 Zn224 2.031 . S
O227 C231 1.269 . S
O228 Zn225 1.986 . S
O228 C235 1.262 . S
O229 Zn224 2.049 . S
O229 C237 1.260 . S
O230 Zn225 1.996 . S
O230 C237 1.257 . S
C231 O226 1.254 . S
C231 O227 1.269 . S
C232 O233 1.249 . S
C232 O234 1.270 . S
O233 Zn225 1.943 . S
O233 C232 1.249 . S
O234 Zn224 2.067 . S
O234 C232 1.270 . S
C235 O228 1.262 . S
C235 O236 1.232 . S
O236 C235 1.232 . S
C237 O229 1.260 . S
C237 O230 1.257 . S
Zn238 O241 2.031 . S
Zn238 O243 2.049 . S
Zn238 O248 2.067 . S
Zn239 O240 1.962 . S
Zn239 O242 1.986 . S
Zn239 O244 1.996 . S
Zn239 O247 1.943 . S
O240 Zn239 1.962 . S
O240 C245 1.254 . S
O241 Zn238 2.031 . S
O241 C245 1.269 . S
O242 Zn239 1.986 . S
O242 C249 1.262 . S
O243 Zn238 2.049 . S
O243 C251 1.260 . S
O244 Zn239 1.996 . S
O244 C251 1.257 . S
C245 O240 1.254 . S
C245 O241 1.269 . S
C246 O247 1.249 . S
C246 O248 1.270 . S
O247 Zn239 1.943 . S
O247 C246 1.249 . S
O248 Zn238 2.067 . S
O248 C246 1.270 . S
C249 O242 1.262 . S
C249 O250 1.232 . S
O250 C249 1.232 . S
C251 O243 1.260 . S
C251 O244 1.257 . S
Zn252 O255 2.031 . S
Zn252 O257 2.049 . S
Zn252 O262 2.067 . S
Zn253 O254 1.962 . S
Zn253 O256 1.986 . S
Zn253 O258 1.996 . S
Zn253 O261 1.943 . S
O254 Zn253 1.962 . S
O254 C259 1.254 . S
O255 Zn252 2.031 . S
O255 C259 1.269 . S
O256 Zn253 1.986 . S
O256 C263 1.262 . S
O257 Zn252 2.049 . S
O257 C265 1.260 . S
O258 Zn253 1.996 . S
O258 C265 1.257 . S
C259 O254 1.254 . S
C259 O255 1.269 . S
C260 O261 1.249 . S
C260 O262 1.270 . S
O261 Zn253 1.943 . S
O261 C260 1.249 . S
O262 Zn252 2.067 . S
O262 C260 1.270 . S
C263 O256 1.262 . S
C263 O264 1.232 . S
O264 C263 1.232 . S
C265 O257 1.260 . S
C265 O258 1.257 . S
Zn266 O269 2.031 . S
Zn266 O271 2.049 . S
Zn266 O276 2.067 . S
Zn267 O268 1.962 . S
Zn267 O270 1.986 . S
Zn267 O272 1.996 . S
Zn267 O275 1.943 . S
O268 Zn267 1.962 . S
O268 C273 1.254 . S
O269 Zn266 2.031 . S
O269 C273 1.269 . S
O270 Zn267 1.986 . S
O270 C277 1.262 . S
O271 Zn266 2.049 . S
O271 C279 1.260 . S
O272 Zn267 1.996 . S
O272 C279 1.257 . S
C273 O268 1.254 . S
C273 O269 1.269 . S
C274 O275 1.249 . S
C274 O276 1.270 . S
O275 Zn267 1.943 . S
O275 C274 1.249 . S
O276 Zn266 2.067 . S
O276 C274 1.270 . S
C277 O270 1.262 . S
C277 O278 1.232 . S
O278 C277 1.232 . S
C279 O271 1.260 . S
C279 O272 1.257 . S
Zn280 O283 2.031 . S
Zn280 O285 2.049 . S
Zn280 O290 2.067 . S
Zn281 O282 1.962 . S
Zn281 O284 1.986 . S
Zn281 O286 1.996 . S
Zn281 O289 1.943 . S
O282 Zn281 1.962 . S
O282 C287 1.254 . S
O283 Zn280 2.031 . S
O283 C287 1.269 . S
O284 Zn281 1.986 . S
O284 C291 1.262 . S
O285 Zn280 2.049 . S
O285 C293 1.260 . S
O286 Zn281 1.996 . S
O286 C293 1.257 . S
C287 O282 1.254 . S
C287 O283 1.269 . S
C288 O289 1.249 . S
C288 O290 1.270 . S
O289 Zn281 1.943 . S
O289 C288 1.249 . S
O290 Zn280 2.067 . S
O290 C288 1.270 . S
C291 O284 1.262 . S
C291 O292 1.232 . S
O292 C291 1.232 . S
C293 O285 1.260 . S
C293 O286 1.257 . S
Zn294 O297 2.031 . S
Zn294 O299 2.049 . S
Zn294 O304 2.067 . S
Zn295 O296 1.962 . S
Zn295 O298 1.986 . S
Zn295 O300 1.996 . S
Zn295 O303 1.943 . S
O296 Zn295 1.962 . S
O296 C301 1.254 . S
O297 Zn294 2.031 . S
O297 C301 1.269 . S
O298 Zn295 1.986 . S
O298 C305 1.262 . S
O299 Zn294 2.049 . S
O299 C307 1.260 . S
O300 Zn295 1.996 . S
O300 C307 1.257 . S
C301 O296 1.254 . S
C301 O297 1.269 . S
C302 O303 1.249 . S
C302 O304 1.270 . S
O303 Zn295 1.943 . S
O303 C302 1.249 . S
O304 Zn294 2.067 . S
O304 C302 1.270 . S
C305 O298 1.262 . S
C305 O306 1.232 . S
O306 C305 1.232 . S
C307 O299 1.260 . S
C307 O300 1.257 . S
Zn308 O311 2.031 . S
Zn308 O313 2.049 . S
Zn308 O318 2.067 . S
Zn309 O310 1.962 . S
Zn309 O312 1.986 . S
Zn309 O314 1.996 . S
Zn309 O317 1.943 . S
O310 Zn309 1.962 . S
O310 C315 1.254 . S
O311 Zn308 2.031 . S
O311 C315 1.269 . S
O312 Zn309 1.986 . S
O312 C319 1.262 . S
O313 Zn308 2.049 . S
O313 C321 1.260 . S
O314 Zn309 1.996 . S
O314 C321 1.257 . S
C315 O310 1.254 . S
C315 O311 1.269 . S
C316 O317 1.249 . S
C316 O318 1.270 . S
O317 Zn309 1.943 . S
O317 C316 1.249 . S
O318 Zn308 2.067 . S
O318 C316 1.270 . S
C319 O312 1.262 . S
C319 O320 1.232 . S
O320 C319 1.232 . S
C321 O313 1.260 . S
C321 O314 1.257 . S
Zn322 O325 2.031 . S
Zn322 O327 2.049 . S
Zn322 O332 2.067 . S
Zn323 O324 1.962 . S
Zn323 O326 1.986 . S
Zn323 O328 1.996 . S
Zn323 O331 1.943 . S
O324 Zn323 1.962 . S
O324 C329 1.254 . S
O325 Zn322 2.031 . S
O325 C329 1.269 . S
O326 Zn323 1.986 . S
O326 C333 1.262 . S
O327 Zn322 2.049 . S
O327 C335 1.260 . S
O328 Zn323 1.996 . S
O328 C335 1.257 . S
C329 O324 1.254 . S
C329 O325 1.269 . S
C330 O331 1.249 . S
C330 O332 1.270 . S
O331 Zn323 1.943 . S
O331 C330 1.249 . S
O332 Zn322 2.067 . S
O332 C330 1.270 . S
C333 O326 1.262 . S
C333 O334 1.232 . S
O334 C333 1.232 . S
C335 O327 1.260 . S
C335 O328 1.257 . S
Zn336 O339 2.031 . S
Zn336 O341 2.049 . S
Zn336 O346 2.067 . S
Zn337 O338 1.962 . S
Zn337 O340 1.986 . S
Zn337 O342 1.996 . S
Zn337 O345 1.943 . S
O338 Zn337 1.962 . S
O338 C343 1.254 . S
O339 Zn336 2.031 . S
O339 C343 1.269 . S
O340 Zn337 1.986 . S
O340 C347 1.262 . S
O341 Zn336 2.049 . S
O341 C349 1.260 . S
O342 Zn337 1.996 . S
O342 C349 1.257 . S
C343 O338 1.254 . S
C343 O339 1.269 . S
C344 O345 1.249 . S
C344 O346 1.270 . S
O345 Zn337 1.943 . S
O345 C344 1.249 . S
O346 Zn336 2.067 . S
O346 C344 1.270 . S
C347 O340 1.262 . S
C347 O348 1.232 . S
O348 C347 1.232 . S
C349 O341 1.260 . S
C349 O342 1.257 . S
Zn350 O353 2.031 . S
Zn350 O355 2.049 . S
Zn350 O360 2.067 . S
Zn351 O352 1.962 . S
Zn351 O354 1.986 . S
Zn351 O356 1.996 . S
Zn351 O359 1.943 . S
O352 Zn351 1.962 . S
O352 C357 1.254 . S
O353 Zn350 2.031 . S
O353 C357 1.269 . S
O354 Zn351 1.986 . S
O354 C361 1.262 . S
O355 Zn350 2.049 . S
O355 C363 1.260 . S
O356 Zn351 1.996 . S
O356 C363 1.257 . S
C357 O352 1.254 . S
C357 O353 1.269 . S
C358 O359 1.249 . S
C358 O360 1.270 . S
O359 Zn351 1.943 . S
O359 C358 1.249 . S
O360 Zn350 2.067 . S
O360 C358 1.270 . S
C361 O354 1.262 . S
C361 O362 1.232 . S
O362 C361 1.232 . S
C363 O355 1.260 . S
C363 O356 1.257 . S
Zn364 O367 2.031 . S
Zn364 O369 2.049 . S
Zn364 O374 2.067 . S
Zn365 O366 1.962 . S
Zn365 O368 1.986 . S
Zn365 O370 1.996 . S
Zn365 O373 1.943 . S
O366 Zn365 1.962 . S
O366 C371 1.254 . S
O367 Zn364 2.031 . S
O367 C371 1.269 . S
O368 Zn365 1.986 . S
O368 C375 1.262 . S
O369 Zn364 2.049 . S
O369 C377 1.260 . S
O370 Zn365 1.996 . S
O370 C377 1.257 . S
C371 O366 1.254 . S
C371 O367 1.269 . S
C372 O373 1.249 . S
C372 O374 1.270 . S
O373 Zn365 1.943 . S
O373 C372 1.249 . S
O374 Zn364 2.067 . S
O374 C372 1.270 . S
C375 O368 1.262 . S
C375 O376 1.232 . S
O376 C375 1.232 . S
C377 O369 1.260 . S
C377 O370 1.257 . S
Zn378 O381 2.031 . S
Zn378 O383 2.049 . S
Zn378 O388 2.067 . S
Zn379 O380 1.962 . S
Zn379 O382 1.986 . S
Zn379 O384 1.996 . S
Zn379 O387 1.943 . S
O380 Zn379 1.962 . S
O380 C385 1.254 . S
O381 Zn378 2.031 . S
O381 C385 1.269 . S
O382 Zn379 1.986 . S
O382 C389 1.262 . S
O383 Zn378 2.049 . S
O383 C391 1.260 . S
O384 Zn379 1.996 . S
O384 C391 1.257 . S
C385 O380 1.254 . S
C385 O381 1.269 . S
C386 O387 1.249 . S
C386 O388 1.270 . S
O387 Zn379 1.943 . S
O387 C386 1.249 . S
O388 Zn378 2.067 . S
O388 C386 1.270 . S
C389 O382 1.262 . S
C389 O390 1.232 . S
O390 C389 1.232 . S
C391 O383 1.260 . S
C391 O384 1.257 . S
Zn392 O395 2.031 . S
Zn392 O397 2.049 . S
Zn392 O402 2.067 . S
Zn393 O394 1.962 . S
Zn393 O396 1.986 . S
Zn393 O398 1.996 . S
Zn393 O401 1.943 . S
O394 Zn393 1.962 . S
O394 C399 1.254 . S
O395 Zn392 2.031 . S
O395 C399 1.269 . S
O396 Zn393 1.986 . S
O396 C403 1.262 . S
O397 Zn392 2.049 . S
O397 C405 1.260 . S
O398 Zn393 1.996 . S
O398 C405 1.257 . S
C399 O394 1.254 . S
C399 O395 1.269 . S
C400 O401 1.249 . S
C400 O402 1.270 . S
O401 Zn393 1.943 . S
O401 C400 1.249 . S
O402 Zn392 2.067 . S
O402 C400 1.270 . S
C403 O396 1.262 . S
C403 O404 1.232 . S
O404 C403 1.232 . S
C405 O397 1.260 . S
C405 O398 1.257 . S
Zn406 O409 2.031 . S
Zn406 O411 2.049 . S
Zn406 O416 2.067 . S
Zn407 O408 1.962 . S
Zn407 O410 1.986 . S
Zn407 O412 1.996 . S
Zn407 O415 1.943 . S
O408 Zn407 1.962 . S
O408 C413 1.254 . S
O409 Zn406 2.031 . S
O409 C413 1.269 . S
O410 Zn407 1.986 . S
O410 C417 1.262 . S
O411 Zn406 2.049 . S
O411 C419 1.260 . S
O412 Zn407 1.996 . S
O412 C419 1.257 . S
C413 O408 1.254 . S
C413 O409 1.269 . S
C414 O415 1.249 . S
C414 O416 1.270 . S
O415 Zn407 1.943 . S
O415 C414 1.249 . S
O416 Zn406 2.067 . S
O416 C414 1.270 . S
C417 O410 1.262 . S
C417 O418 1.232 . S
O418 C417 1.232 . S
C419 O411 1.260 . S
C419 O412 1.257 . S
Zn420 O423 2.031 . S
Zn420 O425 2.049 . S
Zn420 O430 2.067 . S
Zn421 O422 1.962 . S
Zn421 O424 1.986 . S
Zn421 O426 1.996 . S
Zn421 O429 1.943 . S
O422 Zn421 1.962 . S
O422 C427 1.254 . S
O423 Zn420 2.031 . S
O423 C427 1.269 . S
O424 Zn421 1.986 . S
O424 C431 1.262 . S
O425 Zn420 2.049 . S
O425 C433 1.260 . S
O426 Zn421 1.996 . S
O426 C433 1.257 . S
C427 O422 1.254 . S
C427 O423 1.269 . S
C428 O429 1.249 . S
C428 O430 1.270 . S
O429 Zn421 1.943 . S
O429 C428 1.249 . S
O430 Zn420 2.067 . S
O430 C428 1.270 . S
C431 O424 1.262 . S
C431 O432 1.232 . S
O432 C431 1.232 . S
C433 O425 1.260 . S
C433 O426 1.257 . S
Zn434 O437 2.031 . S
Zn434 O439 2.049 . S
Zn434 O444 2.067 . S
Zn435 O436 1.962 . S
Zn435 O438 1.986 . S
Zn435 O440 1.996 . S
Zn435 O443 1.943 . S
O436 Zn435 1.962 . S
O436 C441 1.254 . S
O437 Zn434 2.031 . S
O437 C441 1.269 . S
O438 Zn435 1.986 . S
O438 C445 1.262 . S
O439 Zn434 2.049 . S
O439 C447 1.260 . S
O440 Zn435 1.996 . S
O440 C447 1.257 . S
C441 O436 1.254 . S
C441 O437 1.269 . S
C442 O443 1.249 . S
C442 O444 1.270 . S
O443 Zn435 1.943 . S
O443 C442 1.249 . S
O444 Zn434 2.067 . S
O444 C442 1.270 . S
C445 O438 1.262 . S
C445 O446 1.232 . S
O446 C445 1.232 . S
C447 O439 1.260 . S
C447 O440 1.257 . S
H448 C454 0.930 . S
H449 C457 0.930 . S
H450 C458 0.930 . S
H451 C459 0.930 . S
H452 C462 0.930 . S
H453 C463 0.930 . S
C454 H448 0.930 . S
C454 C455 1.355 . S
C454 C456 1.415 . S
C455 C454 1.355 . S
C455 C457 1.419 . S
C456 C454 1.415 . S
C456 C461 1.425 1_545 S
C456 C463 1.409 . S
C457 H449 0.930 . S
C457 C455 1.419 . S
C457 C458 1.362 1_545 S
C458 H450 0.930 . S
C458 C457 1.362 1_565 S
C458 C461 1.409 . S
C459 H451 0.930 . S
C459 C460 1.355 . S
C459 C461 1.415 . S
C460 C459 1.355 . S
C460 C462 1.419 . S
C461 C456 1.425 1_565 S
C461 C458 1.409 . S
C461 C459 1.415 . S
C462 H452 0.930 . S
C462 C460 1.419 . S
C462 C463 1.362 1_565 S
C463 H453 0.930 . S
C463 C456 1.409 . S
C463 C462 1.362 1_545 S
H464 C470 0.930 . S
H465 C473 0.930 . S
H466 C474 0.930 . S
H467 C475 0.930 . S
H468 C478 0.930 . S
H469 C479 0.930 . S
C470 H464 0.930 . S
C470 C471 1.355 . S
C470 C472 1.415 . S
C471 C470 1.355 . S
C471 C473 1.419 . S
C472 C470 1.415 . S
C472 C477 1.425 . S
C472 C479 1.409 . S
C473 H465 0.930 . S
C473 C471 1.419 . S
C473 C474 1.362 . S
C474 H466 0.930 . S
C474 C473 1.362 . S
C474 C477 1.409 . S
C475 H467 0.930 . S
C475 C476 1.355 . S
C475 C477 1.415 . S
C476 C475 1.355 . S
C476 C478 1.419 . S
C477 C472 1.425 . S
C477 C474 1.409 . S
C477 C475 1.415 . S
C478 H468 0.930 . S
C478 C476 1.419 . S
C478 C479 1.362 . S
C479 H469 0.930 . S
C479 C472 1.409 . S
C479 C478 1.362 . S
H480 C486 0.930 . S
H481 C489 0.930 . S
H482 C490 0.911 1_565 S
H483 C491 0.930 . S
H484 C494 0.930 . S
H485 C495 0.911 1_545 S
C486 H480 0.930 . S
C486 C487 1.355 . S
C486 C488 1.415 . S
C487 C486 1.355 . S
C487 C489 1.419 . S
C488 C486 1.415 . S
C488 C493 1.425 1_545 S
C488 C495 1.398 1_545 S
C489 H481 0.930 . S
C489 C487 1.419 . S
C489 C490 1.394 . S
C490 H482 0.911 1_545 S
C490 C489 1.394 . S
C490 C493 1.398 1_545 S
C491 H483 0.930 . S
C491 C492 1.355 . S
C491 C493 1.415 . S
C492 C491 1.355 . S
C492 C494 1.419 . S
C493 C488 1.425 1_565 S
C493 C490 1.398 1_565 S
C493 C491 1.415 . S
C494 H484 0.930 . S
C494 C492 1.419 . S
C494 C495 1.394 . S
C495 H485 0.911 1_565 S
C495 C488 1.398 1_565 S
C495 C494 1.394 . S
H496 C502 0.930 . S
H497 C505 0.930 . S
H498 C506 0.930 . S
H499 C507 0.930 . S
H500 C510 0.930 . S
H501 C511 0.930 . S
C502 H496 0.930 . S
C502 C503 1.355 . S
C502 C504 1.415 . S
C503 C502 1.355 . S
C503 C505 1.419 . S
C504 C502 1.415 . S
C504 C509 1.425 1_556 S
C504 C511 1.409 . S
C505 H497 0.930 . S
C505 C503 1.419 . S
C505 C506 1.362 1_556 S
C506 H498 0.930 . S
C506 C505 1.362 1_554 S
C506 C509 1.409 . S
C507 H499 0.930 . S
C507 C508 1.355 . S
C507 C509 1.415 . S
C508 C507 1.355 . S
C508 C510 1.419 . S
C509 C504 1.425 1_554 S
C509 C506 1.409 . S
C509 C507 1.415 . S
C510 H500 0.930 . S
C510 C508 1.419 . S
C510 C511 1.362 1_554 S
C511 H501 0.930 . S
C511 C504 1.409 . S
C511 C510 1.362 1_556 S
H512 C518 0.930 . S
H513 C521 0.930 . S
H514 C522 0.930 . S
H515 C523 0.930 . S
H516 C526 0.930 . S
H517 C527 0.930 . S
C518 H512 0.930 . S
C518 C519 1.355 . S
C518 C520 1.415 1_565 S
C519 C518 1.355 . S
C519 C521 1.419 . S
C520 C518 1.415 1_545 S
C520 C525 1.425 1_545 S
C520 C527 1.409 . S
C521 H513 0.930 . S
C521 C519 1.419 . S
C521 C522 1.362 . S
C522 H514 0.930 . S
C522 C521 1.362 . S
C522 C525 1.409 . S
C523 H515 0.930 . S
C523 C524 1.355 . S
C523 C525 1.415 1_545 S
C524 C523 1.355 . S
C524 C526 1.419 . S
C525 C520 1.425 1_565 S
C525 C522 1.409 . S
C525 C523 1.415 1_565 S
C526 H516 0.930 . S
C526 C524 1.419 . S
C526 C527 1.362 . S
C527 H517 0.930 . S
C527 C520 1.409 . S
C527 C526 1.362 . S
H528 C534 0.930 . S
H529 C537 0.930 . S
H530 C538 0.930 . S
H531 C539 0.930 . S
H532 C542 0.930 . S
H533 C543 0.930 . S
C534 H528 0.930 . S
C534 C535 1.355 . S
C534 C536 1.415 . S
C535 C534 1.355 . S
C535 C537 1.419 . S
C536 C534 1.415 . S
C536 C541 1.425 . S
C536 C543 1.409 . S
C537 H529 0.930 . S
C537 C535 1.419 . S
C537 C538 1.362 . S
C538 H530 0.930 . S
C538 C537 1.362 . S
C538 C541 1.409 . S
C539 H531 0.930 . S
C539 C540 1.355 . S
C539 C541 1.415 . S
C540 C539 1.355 . S
C540 C542 1.419 . S
C541 C536 1.425 . S
C541 C538 1.409 . S
C541 C539 1.415 . S
C542 H532 0.930 . S
C542 C540 1.419 . S
C542 C543 1.362 . S
C543 H533 0.930 . S
C543 C536 1.409 . S
C543 C542 1.362 . S
H544 C550 0.930 . S
H545 C553 0.930 . S
H546 C554 0.930 . S
H547 C555 0.930 . S
H548 C558 0.930 . S
H549 C559 0.930 . S
C550 H544 0.930 . S
C550 C551 1.355 . S
C550 C552 1.415 1_565 S
C551 C550 1.355 . S
C551 C553 1.419 . S
C552 C550 1.415 1_545 S
C552 C557 1.425 1_545 S
C552 C559 1.409 . S
C553 H545 0.930 . S
C553 C551 1.419 . S
C553 C554 1.362 . S
C554 H546 0.930 . S
C554 C553 1.362 . S
C554 C557 1.409 . S
C555 H547 0.930 . S
C555 C556 1.355 . S
C555 C557 1.415 1_545 S
C556 C555 1.355 . S
C556 C558 1.419 . S
C557 C552 1.425 1_565 S
C557 C554 1.409 . S
C557 C555 1.415 1_565 S
C558 H548 0.930 . S
C558 C556 1.419 . S
C558 C559 1.362 . S
C559 H549 0.930 . S
C559 C552 1.409 . S
C559 C558 1.362 . S
H560 C566 0.930 . S
H561 C569 0.930 . S
H562 C570 0.930 . S
H563 C571 0.930 . S
H564 C574 0.930 . S
H565 C575 0.930 . S
C566 H560 0.930 . S
C566 C567 1.355 . S
C566 C568 1.415 . S
C567 C566 1.355 . S
C567 C569 1.419 . S
C568 C566 1.415 . S
C568 C573 1.425 1_556 S
C568 C575 1.409 . S
C569 H561 0.930 . S
C569 C567 1.419 . S
C569 C570 1.362 1_556 S
C570 H562 0.930 . S
C570 C569 1.362 1_554 S
C570 C573 1.409 . S
C571 H563 0.930 . S
C571 C572 1.355 . S
C571 C573 1.415 . S
C572 C571 1.355 . S
C572 C574 1.419 . S
C573 C568 1.425 1_554 S
C573 C570 1.409 . S
C573 C571 1.415 . S
C574 H564 0.930 . S
C574 C572 1.419 . S
C574 C575 1.362 1_554 S
C575 H565 0.930 . S
C575 C568 1.409 . S
C575 C574 1.362 1_556 S
H576 C582 0.930 . S
H577 C585 0.930 . S
H578 C586 0.930 . S
H579 C587 0.930 . S
H580 C590 0.930 . S
H581 C591 0.930 . S
C582 H576 0.930 . S
C582 C583 1.355 . S
C582 C584 1.415 . S
C583 C582 1.355 . S
C583 C585 1.419 . S
C584 C582 1.415 . S
C584 C589 1.425 . S
C584 C591 1.409 . S
C585 H577 0.930 . S
C585 C583 1.419 . S
C585 C586 1.362 . S
C586 H578 0.930 . S
C586 C585 1.362 . S
C586 C589 1.409 . S
C587 H579 0.930 . S
C587 C588 1.355 . S
C587 C589 1.415 . S
C588 C587 1.355 . S
C588 C590 1.419 . S
C589 C584 1.425 . S
C589 C586 1.409 . S
C589 C587 1.415 . S
C590 H580 0.930 . S
C590 C588 1.419 . S
C590 C591 1.362 . S
C591 H581 0.930 . S
C591 C584 1.409 . S
C591 C590 1.362 . S
H592 C598 0.930 . S
H593 C601 0.930 . S
H594 C602 0.930 . S
H595 C603 0.930 . S
H596 C606 0.930 . S
H597 C607 0.930 . S
C598 H592 0.930 . S
C598 C599 1.355 . S
C598 C600 1.415 . S
C599 C598 1.355 . S
C599 C601 1.419 . S
C600 C598 1.415 . S
C600 C605 1.425 1_556 S
C600 C607 1.409 1_556 S
C601 H593 0.930 . S
C601 C599 1.419 . S
C601 C602 1.362 . S
C602 H594 0.930 . S
C602 C601 1.362 . S
C602 C605 1.409 1_556 S
C603 H595 0.930 . S
C603 C604 1.355 . S
C603 C605 1.415 . S
C604 C603 1.355 . S
C604 C606 1.419 . S
C605 C600 1.425 1_554 S
C605 C602 1.409 1_554 S
C605 C603 1.415 . S
C606 H596 0.930 . S
C606 C604 1.419 . S
C606 C607 1.362 . S
C607 H597 0.930 . S
C607 C600 1.409 1_554 S
C607 C606 1.362 . S
H608 C614 0.930 . S
H609 C617 0.930 . S
H610 C618 0.930 . S
H611 C619 0.930 . S
H612 C622 0.930 . S
H613 C623 0.930 . S
C614 H608 0.930 . S
C614 C615 1.355 . S
C614 C616 1.415 . S
C615 C614 1.355 . S
C615 C617 1.419 . S
C616 C614 1.415 . S
C616 C621 1.425 . S
C616 C623 1.409 . S
C617 H609 0.930 . S
C617 C615 1.419 . S
C617 C618 1.362 . S
C618 H610 0.930 . S
C618 C617 1.362 . S
C618 C621 1.409 . S
C619 H611 0.930 . S
C619 C620 1.355 . S
C619 C621 1.415 . S
C620 C619 1.355 . S
C620 C622 1.419 . S
C621 C616 1.425 . S
C621 C618 1.409 . S
C621 C619 1.415 . S
C622 H612 0.930 . S
C622 C620 1.419 . S
C622 C623 1.362 . S
C623 H613 0.930 . S
C623 C616 1.409 . S
C623 C622 1.362 . S
H624 C630 0.930 . S
H625 C633 0.930 . S
H626 C634 0.930 . S
H627 C635 0.930 . S
H628 C638 0.930 . S
H629 C639 0.930 . S
C630 H624 0.930 . S
C630 C631 1.355 . S
C630 C632 1.415 . S
C631 C630 1.355 . S
C631 C633 1.419 . S
C632 C630 1.415 . S
C632 C637 1.425 . S
C632 C639 1.409 . S
C633 H625 0.930 . S
C633 C631 1.419 . S
C633 C634 1.362 . S
C634 H626 0.930 . S
C634 C633 1.362 . S
C634 C637 1.409 . S
C635 H627 0.930 . S
C635 C636 1.355 . S
C635 C637 1.415 . S
C636 C635 1.355 . S
C636 C638 1.419 . S
C637 C632 1.425 . S
C637 C634 1.409 . S
C637 C635 1.415 . S
C638 H628 0.930 . S
C638 C636 1.419 . S
C638 C639 1.362 . S
C639 H629 0.930 . S
C639 C632 1.409 . S
C639 C638 1.362 . S
H640 C646 0.930 . S
H641 C649 0.930 . S
H642 C650 0.930 . S
H643 C651 0.930 . S
H644 C654 0.930 . S
H645 C655 0.930 . S
C646 H640 0.930 . S
C646 C647 1.355 . S
C646 C648 1.415 . S
C647 C646 1.355 . S
C647 C649 1.419 . S
C648 C646 1.415 . S
C648 C653 1.425 . S
C648 C655 1.409 . S
C649 H641 0.930 . S
C649 C647 1.419 . S
C649 C650 1.362 . S
C650 H642 0.930 . S
C650 C649 1.362 . S
C650 C653 1.409 . S
C651 H643 0.930 . S
C651 C652 1.355 . S
C651 C653 1.415 . S
C652 C651 1.355 . S
C652 C654 1.419 . S
C653 C648 1.425 . S
C653 C650 1.409 . S
C653 C651 1.415 . S
C654 H644 0.930 . S
C654 C652 1.419 . S
C654 C655 1.362 . S
C655 H645 0.930 . S
C655 C648 1.409 . S
C655 C654 1.362 . S
H656 C662 0.930 . S
H657 C665 0.930 . S
H658 C666 0.930 . S
H659 C667 0.930 . S
H660 C670 0.930 . S
H661 C671 0.930 . S
C662 H656 0.930 . S
C662 C663 1.355 . S
C662 C664 1.415 . S
C663 C662 1.355 . S
C663 C665 1.419 . S
C664 C662 1.415 . S
C664 C669 1.425 1_554 S
C664 C671 1.409 1_554 S
C665 H657 0.930 . S
C665 C663 1.419 . S
C665 C666 1.362 . S
C666 H658 0.930 . S
C666 C665 1.362 . S
C666 C669 1.409 1_554 S
C667 H659 0.930 . S
C667 C668 1.355 . S
C667 C669 1.415 . S
C668 C667 1.355 . S
C668 C670 1.419 . S
C669 C664 1.425 1_556 S
C669 C666 1.409 1_556 S
C669 C667 1.415 . S
C670 H660 0.930 . S
C670 C668 1.419 . S
C670 C671 1.362 . S
C671 H661 0.930 . S
C671 C664 1.409 1_556 S
C671 C670 1.362 . S
H672 C678 0.930 . S
H673 C681 0.930 . S
H674 C682 0.930 . S
H675 C683 0.930 . S
H676 C686 0.930 . S
H677 C687 0.930 . S
C678 H672 0.930 . S
C678 C679 1.355 . S
C678 C680 1.415 . S
C679 C678 1.355 . S
C679 C681 1.419 . S
C680 C678 1.415 . S
C680 C685 1.425 . S
C680 C687 1.409 . S
C681 H673 0.930 . S
C681 C679 1.419 . S
C681 C682 1.362 . S
C682 H674 0.930 . S
C682 C681 1.362 . S
C682 C685 1.409 . S
C683 H675 0.930 . S
C683 C684 1.355 . S
C683 C685 1.415 . S
C684 C683 1.355 . S
C684 C686 1.419 . S
C685 C680 1.425 . S
C685 C682 1.409 . S
C685 C683 1.415 . S
C686 H676 0.930 . S
C686 C684 1.419 . S
C686 C687 1.362 . S
C687 H677 0.930 . S
C687 C680 1.409 . S
C687 C686 1.362 . S
H688 C694 0.930 . S
H689 C697 0.930 . S
H690 C698 0.930 . S
H691 C699 0.930 . S
H692 C702 0.930 . S
H693 C703 0.930 . S
C694 H688 0.930 . S
C694 C695 1.355 . S
C694 C696 1.415 . S
C695 C694 1.355 . S
C695 C697 1.419 . S
C696 C694 1.415 . S
C696 C701 1.425 . S
C696 C703 1.409 . S
C697 H689 0.930 . S
C697 C695 1.419 . S
C697 C698 1.362 . S
C698 H690 0.930 . S
C698 C697 1.362 . S
C698 C701 1.409 . S
C699 H691 0.930 . S
C699 C700 1.355 . S
C699 C701 1.415 . S
C700 C699 1.355 . S
C700 C702 1.419 . S
C701 C696 1.425 . S
C701 C698 1.409 . S
C701 C699 1.415 . S
C702 H692 0.930 . S
C702 C700 1.419 . S
C702 C703 1.362 . S
C703 H693 0.930 . S
C703 C696 1.409 . S
C703 C702 1.362 . S
H704 C710 0.930 . S
H705 C713 0.930 . S
H706 C714 0.930 . S
H707 C715 0.930 . S
H708 C718 0.930 . S
H709 C719 0.930 . S
C710 H704 0.930 . S
C710 C711 1.355 . S
C710 C712 1.415 . S
C711 C710 1.355 . S
C711 C713 1.419 . S
C712 C710 1.415 . S
C712 C717 1.425 . S
C712 C719 1.409 . S
C713 H705 0.930 . S
C713 C711 1.419 . S
C713 C714 1.362 . S
C714 H706 0.930 . S
C714 C713 1.362 . S
C714 C717 1.409 . S
C715 H707 0.930 . S
C715 C716 1.355 . S
C715 C717 1.415 . S
C716 C715 1.355 . S
C716 C718 1.419 . S
C717 C712 1.425 . S
C717 C714 1.409 . S
C717 C715 1.415 . S
C718 H708 0.930 . S
C718 C716 1.419 . S
C718 C719 1.362 . S
C719 H709 0.930 . S
C719 C712 1.409 . S
C719 C718 1.362 . S
H720 C726 0.930 . S
H721 C729 0.930 . S
H722 C730 0.930 . S
H723 C731 0.930 . S
H724 C734 0.930 . S
H725 C735 0.930 . S
C726 H720 0.930 . S
C726 C727 1.355 . S
C726 C728 1.415 1_655 S
C727 C726 1.355 . S
C727 C729 1.419 . S
C728 C726 1.415 1_455 S
C728 C733 1.425 . S
C728 C735 1.409 . S
C729 H721 0.930 . S
C729 C727 1.419 . S
C729 C730 1.362 1_655 S
C730 H722 0.930 . S
C730 C729 1.362 1_455 S
C730 C733 1.409 . S
C731 H723 0.930 . S
C731 C732 1.355 . S
C731 C733 1.415 . S
C732 C731 1.355 . S
C732 C734 1.419 . S
C733 C728 1.425 . S
C733 C730 1.409 . S
C733 C731 1.415 . S
C734 H724 0.930 . S
C734 C732 1.419 . S
C734 C735 1.362 . S
C735 H725 0.930 . S
C735 C728 1.409 . S
C735 C734 1.362 . S
H736 C742 0.930 . S
H737 C745 0.930 . S
H738 C746 0.930 . S
H739 C747 0.930 . S
H740 C750 0.930 . S
H741 C751 0.930 . S
C742 H736 0.930 . S
C742 C743 1.355 . S
C742 C744 1.415 . S
C743 C742 1.355 . S
C743 C745 1.419 . S
C744 C742 1.415 . S
C744 C749 1.425 . S
C744 C751 1.409 . S
C745 H737 0.930 . S
C745 C743 1.419 . S
C745 C746 1.362 . S
C746 H738 0.930 . S
C746 C745 1.362 . S
C746 C749 1.409 . S
C747 H739 0.930 . S
C747 C748 1.355 . S
C747 C749 1.415 . S
C748 C747 1.355 . S
C748 C750 1.419 . S
C749 C744 1.425 . S
C749 C746 1.409 . S
C749 C747 1.415 . S
C750 H740 0.930 . S
C750 C748 1.419 . S
C750 C751 1.362 . S
C751 H741 0.930 . S
C751 C744 1.409 . S
C751 C750 1.362 . S
H752 C758 0.930 . S
H753 C761 0.930 . S
H754 C762 0.930 . S
H755 C763 0.930 . S
H756 C766 0.930 . S
H757 C767 0.930 . S
C758 H752 0.930 . S
C758 C759 1.355 . S
C758 C760 1.415 . S
C759 C758 1.355 . S
C759 C761 1.419 . S
C760 C758 1.415 . S
C760 C765 1.425 . S
C760 C767 1.409 . S
C761 H753 0.930 . S
C761 C759 1.419 . S
C761 C762 1.362 . S
C762 H754 0.930 . S
C762 C761 1.362 . S
C762 C765 1.409 . S
C763 H755 0.930 . S
C763 C764 1.355 . S
C763 C765 1.415 . S
C764 C763 1.355 . S
C764 C766 1.419 . S
C765 C760 1.425 . S
C765 C762 1.409 . S
C765 C763 1.415 . S
C766 H756 0.930 . S
C766 C764 1.419 . S
C766 C767 1.362 . S
C767 H757 0.930 . S
C767 C760 1.409 . S
C767 C766 1.362 . S
H768 C774 0.930 . S
H769 C777 0.930 . S
H770 C778 0.930 . S
H771 C779 0.930 . S
H772 C782 0.930 . S
H773 C783 0.930 . S
C774 H768 0.930 . S
C774 C775 1.355 . S
C774 C776 1.415 . S
C775 C774 1.355 . S
C775 C777 1.419 . S
C776 C774 1.415 . S
C776 C781 1.425 . S
C776 C783 1.409 . S
C777 H769 0.930 . S
C777 C775 1.419 . S
C777 C778 1.362 . S
C778 H770 0.930 . S
C778 C777 1.362 . S
C778 C781 1.409 . S
C779 H771 0.930 . S
C779 C780 1.355 . S
C779 C781 1.415 . S
C780 C779 1.355 . S
C780 C782 1.419 . S
C781 C776 1.425 . S
C781 C778 1.409 . S
C781 C779 1.415 . S
C782 H772 0.930 . S
C782 C780 1.419 . S
C782 C783 1.362 . S
C783 H773 0.930 . S
C783 C776 1.409 . S
C783 C782 1.362 . S
H784 C790 0.930 . S
H785 C793 0.930 . S
H786 C794 0.930 . S
H787 C795 0.930 . S
H788 C798 0.930 . S
H789 C799 0.930 . S
C790 H784 0.930 . S
C790 C791 1.355 . S
C790 C792 1.415 . S
C791 C790 1.355 . S
C791 C793 1.419 . S
C792 C790 1.415 . S
C792 C797 1.425 . S
C792 C799 1.409 . S
C793 H785 0.930 . S
C793 C791 1.419 . S
C793 C794 1.362 . S
C794 H786 0.930 . S
C794 C793 1.362 . S
C794 C797 1.409 . S
C795 H787 0.930 . S
C795 C796 1.355 . S
C795 C797 1.415 . S
C796 C795 1.355 . S
C796 C798 1.419 . S
C797 C792 1.425 . S
C797 C794 1.409 . S
C797 C795 1.415 . S
C798 H788 0.930 . S
C798 C796 1.419 . S
C798 C799 1.362 . S
C799 H789 0.930 . S
C799 C792 1.409 . S
C799 C798 1.362 . S
H800 C806 0.930 . S
H801 C809 0.930 . S
H802 C810 0.930 . S
H803 C811 0.930 . S
H804 C814 0.930 . S
H805 C815 0.930 . S
C806 H800 0.930 . S
C806 C807 1.355 . S
C806 C808 1.415 . S
C807 C806 1.355 . S
C807 C809 1.419 . S
C808 C806 1.415 . S
C808 C813 1.425 . S
C808 C815 1.409 . S
C809 H801 0.930 . S
C809 C807 1.419 . S
C809 C810 1.362 . S
C810 H802 0.930 . S
C810 C809 1.362 . S
C810 C813 1.409 . S
C811 H803 0.930 . S
C811 C812 1.355 . S
C811 C813 1.415 . S
C812 C811 1.355 . S
C812 C814 1.419 . S
C813 C808 1.425 . S
C813 C810 1.409 . S
C813 C811 1.415 . S
C814 H804 0.930 . S
C814 C812 1.419 . S
C814 C815 1.362 . S
C815 H805 0.930 . S
C815 C808 1.409 . S
C815 C814 1.362 . S
H816 C822 0.930 . S
H817 C825 0.930 . S
H818 C826 0.930 . S
H819 C827 0.930 . S
H820 C830 0.930 . S
H821 C831 0.930 . S
C822 H816 0.930 . S
C822 C823 1.355 . S
C822 C824 1.415 . S
C823 C822 1.355 . S
C823 C825 1.419 . S
C824 C822 1.415 . S
C824 C829 1.425 . S
C824 C831 1.409 . S
C825 H817 0.930 . S
C825 C823 1.419 . S
C825 C826 1.362 . S
C826 H818 0.930 . S
C826 C825 1.362 . S
C826 C829 1.409 . S
C827 H819 0.930 . S
C827 C828 1.355 . S
C827 C829 1.415 1_655 S
C828 C827 1.355 . S
C828 C830 1.419 . S
C829 C824 1.425 . S
C829 C826 1.409 . S
C829 C827 1.415 1_455 S
C830 H820 0.930 . S
C830 C828 1.419 . S
C830 C831 1.362 1_655 S
C831 H821 0.930 . S
C831 C824 1.409 . S
C831 C830 1.362 1_455 S
H832 C838 0.930 . S
H833 C841 0.930 . S
H834 C842 0.930 . S
H835 C843 0.930 . S
H836 C846 0.930 . S
H837 C847 0.930 . S
C838 H832 0.930 . S
C838 C839 1.355 . S
C838 C840 1.415 . S
C839 C838 1.355 . S
C839 C841 1.419 . S
C840 C838 1.415 . S
C840 C845 1.425 . S
C840 C847 1.409 . S
C841 H833 0.930 . S
C841 C839 1.419 . S
C841 C842 1.362 . S
C842 H834 0.930 . S
C842 C841 1.362 . S
C842 C845 1.409 . S
C843 H835 0.930 . S
C843 C844 1.355 . S
C843 C845 1.415 . S
C844 C843 1.355 . S
C844 C846 1.419 . S
C845 C840 1.425 . S
C845 C842 1.409 . S
C845 C843 1.415 . S
C846 H836 0.930 . S
C846 C844 1.419 . S
C846 C847 1.362 . S
C847 H837 0.930 . S
C847 C840 1.409 . S
C847 C846 1.362 . S
H848 C854 0.930 . S
H849 C857 0.930 . S
H850 C858 0.930 . S
H851 C859 0.930 . S
H852 C862 0.930 . S
H853 C863 0.930 . S
C854 H848 0.930 . S
C854 C855 1.355 . S
C854 C856 1.415 . S
C855 C854 1.355 . S
C855 C857 1.419 . S
C856 C854 1.415 . S
C856 C861 1.425 . S
C856 C863 1.409 . S
C857 H849 0.930 . S
C857 C855 1.419 . S
C857 C858 1.362 . S
C858 H850 0.930 . S
C858 C857 1.362 . S
C858 C861 1.409 . S
C859 H851 0.930 . S
C859 C860 1.355 . S
C859 C861 1.415 1_455 S
C860 C859 1.355 . S
C860 C862 1.419 . S
C861 C856 1.425 . S
C861 C858 1.409 . S
C861 C859 1.415 1_655 S
C862 H852 0.930 . S
C862 C860 1.419 . S
C862 C863 1.362 1_455 S
C863 H853 0.930 . S
C863 C856 1.409 . S
C863 C862 1.362 1_655 S
H864 C870 0.930 . S
H865 C873 0.930 . S
H866 C874 0.930 . S
H867 C875 0.930 . S
H868 C878 0.930 . S
H869 C879 0.930 . S
C870 H864 0.930 . S
C870 C871 1.355 . S
C870 C872 1.415 . S
C871 C870 1.355 . S
C871 C873 1.419 . S
C872 C870 1.415 . S
C872 C877 1.425 . S
C872 C879 1.409 . S
C873 H865 0.930 . S
C873 C871 1.419 . S
C873 C874 1.362 . S
C874 H866 0.930 . S
C874 C873 1.362 . S
C874 C877 1.409 . S
C875 H867 0.930 . S
C875 C876 1.355 . S
C875 C877 1.415 . S
C876 C875 1.355 . S
C876 C878 1.419 . S
C877 C872 1.425 . S
C877 C874 1.409 . S
C877 C875 1.415 . S
C878 H868 0.930 . S
C878 C876 1.419 . S
C878 C879 1.362 . S
C879 H869 0.930 . S
C879 C872 1.409 . S
C879 C878 1.362 . S
H880 C886 0.930 . S
H881 C889 0.930 . S
H882 C890 0.930 . S
H883 C891 0.930 . S
H884 C894 0.930 . S
H885 C895 0.930 . S
C886 H880 0.930 . S
C886 C887 1.355 . S
C886 C888 1.415 . S
C887 C886 1.355 . S
C887 C889 1.419 . S
C888 C886 1.415 . S
C888 C893 1.425 . S
C888 C895 1.409 . S
C889 H881 0.930 . S
C889 C887 1.419 . S
C889 C890 1.362 . S
C890 H882 0.930 . S
C890 C889 1.362 . S
C890 C893 1.409 . S
C891 H883 0.930 . S
C891 C892 1.355 . S
C891 C893 1.415 . S
C892 C891 1.355 . S
C892 C894 1.419 . S
C893 C888 1.425 . S
C893 C890 1.409 . S
C893 C891 1.415 . S
C894 H884 0.930 . S
C894 C892 1.419 . S
C894 C895 1.362 . S
C895 H885 0.930 . S
C895 C888 1.409 . S
C895 C894 1.362 . S
H896 C902 0.930 . S
H897 C905 0.930 . S
H898 C906 0.930 . S
H899 C907 0.930 . S
H900 C910 0.930 . S
H901 C911 0.930 . S
C902 H896 0.930 . S
C902 C903 1.355 . S
C902 C904 1.415 . S
C903 C902 1.355 . S
C903 C905 1.419 . S
C904 C902 1.415 . S
C904 C909 1.425 . S
C904 C911 1.409 . S
C905 H897 0.930 . S
C905 C903 1.419 . S
C905 C906 1.362 . S
C906 H898 0.930 . S
C906 C905 1.362 . S
C906 C909 1.409 . S
C907 H899 0.930 . S
C907 C908 1.355 . S
C907 C909 1.415 . S
C908 C907 1.355 . S
C908 C910 1.419 . S
C909 C904 1.425 . S
C909 C906 1.409 . S
C909 C907 1.415 . S
C910 H900 0.930 . S
C910 C908 1.419 . S
C910 C911 1.362 . S
C911 H901 0.930 . S
C911 C904 1.409 . S
C911 C910 1.362 . S
H912 C918 0.930 . S
H913 C921 0.930 . S
H914 C922 0.930 . S
H915 C923 0.930 . S
H916 C926 0.930 . S
H917 C927 0.930 . S
C918 H912 0.930 . S
C918 C919 1.355 . S
C918 C920 1.415 . S
C919 C918 1.355 . S
C919 C921 1.419 . S
C920 C918 1.415 . S
C920 C925 1.425 . S
C920 C927 1.409 . S
C921 H913 0.930 . S
C921 C919 1.419 . S
C921 C922 1.362 . S
C922 H914 0.930 . S
C922 C921 1.362 . S
C922 C925 1.409 . S
C923 H915 0.930 . S
C923 C924 1.355 . S
C923 C925 1.415 . S
C924 C923 1.355 . S
C924 C926 1.419 . S
C925 C920 1.425 . S
C925 C922 1.409 . S
C925 C923 1.415 . S
C926 H916 0.930 . S
C926 C924 1.419 . S
C926 C927 1.362 . S
C927 H917 0.930 . S
C927 C920 1.409 . S
C927 C926 1.362 . S
H928 C934 0.930 . S
H929 C937 0.930 . S
H930 C938 0.930 . S
H931 C939 0.930 . S
H932 C942 0.930 . S
H933 C943 0.930 . S
C934 H928 0.930 . S
C934 C935 1.355 . S
C934 C936 1.415 . S
C935 C934 1.355 . S
C935 C937 1.419 . S
C936 C934 1.415 . S
C936 C941 1.425 . S
C936 C943 1.409 . S
C937 H929 0.930 . S
C937 C935 1.419 . S
C937 C938 1.362 . S
C938 H930 0.930 . S
C938 C937 1.362 . S
C938 C941 1.409 . S
C939 H931 0.930 . S
C939 C940 1.355 . S
C939 C941 1.415 . S
C940 C939 1.355 . S
C940 C942 1.419 . S
C941 C936 1.425 . S
C941 C938 1.409 . S
C941 C939 1.415 . S
C942 H932 0.930 . S
C942 C940 1.419 . S
C942 C943 1.362 . S
C943 H933 0.930 . S
C943 C936 1.409 . S
C943 C942 1.362 . S
H944 C950 0.930 . S
H945 C953 0.930 . S
H946 C954 0.930 . S
H947 C955 0.930 . S
H948 C958 0.930 . S
H949 C959 0.930 . S
C950 H944 0.930 . S
C950 C951 1.355 . S
C950 C952 1.415 . S
C951 C950 1.355 . S
C951 C953 1.419 . S
C952 C950 1.415 . S
C952 C957 1.425 . S
C952 C959 1.409 . S
C953 H945 0.930 . S
C953 C951 1.419 . S
C953 C954 1.362 . S
C954 H946 0.930 . S
C954 C953 1.362 . S
C954 C957 1.409 . S
C955 H947 0.930 . S
C955 C956 1.355 . S
C955 C957 1.415 1_455 S
C956 C955 1.355 . S
C956 C958 1.419 . S
C957 C952 1.425 . S
C957 C954 1.409 . S
C957 C955 1.415 1_655 S
C958 H948 0.930 . S
C958 C956 1.419 . S
C958 C959 1.362 1_455 S
C959 H949 0.930 . S
C959 C952 1.409 . S
C959 C958 1.362 1_655 S
H960 C966 0.930 . S
H961 C969 0.930 . S
H962 C970 0.930 . S
H963 C971 0.930 . S
H964 C974 0.930 . S
H965 C975 0.930 . S
C966 H960 0.930 . S
C966 C967 1.355 . S
C966 C968 1.415 . S
C967 C966 1.355 . S
C967 C969 1.419 . S
C968 C966 1.415 . S
C968 C973 1.425 . S
C968 C975 1.409 . S
C969 H961 0.930 . S
C969 C967 1.419 . S
C969 C970 1.362 . S
C970 H962 0.930 . S
C970 C969 1.362 . S
C970 C973 1.409 . S
C971 H963 0.930 . S
C971 C972 1.355 . S
C971 C973 1.415 . S
C972 C971 1.355 . S
C972 C974 1.419 . S
C973 C968 1.425 . S
C973 C970 1.409 . S
C973 C971 1.415 . S
C974 H964 0.930 . S
C974 C972 1.419 . S
C974 C975 1.362 . S
C975 H965 0.930 . S
C975 C968 1.409 . S
C975 C974 1.362 . S
H976 C982 0.930 . S
H977 C985 0.930 . S
H978 C986 0.930 . S
H979 C987 0.930 . S
H980 C990 0.930 . S
H981 C991 0.930 . S
C982 H976 0.930 . S
C982 C983 1.355 . S
C982 C984 1.415 . S
C983 C982 1.355 . S
C983 C985 1.419 . S
C984 C982 1.415 . S
C984 C989 1.425 . S
C984 C991 1.409 . S
C985 H977 0.930 . S
C985 C983 1.419 . S
C985 C986 1.362 . S
C986 H978 0.930 . S
C986 C985 1.362 . S
C986 C989 1.409 . S
C987 H979 0.930 . S
C987 C988 1.355 . S
C987 C989 1.415 . S
C988 C987 1.355 . S
C988 C990 1.419 . S
C989 C984 1.425 . S
C989 C986 1.409 . S
C989 C987 1.415 . S
C990 H980 0.930 . S
C990 C988 1.419 . S
C990 C991 1.362 . S
C991 H981 0.930 . S
C991 C984 1.409 . S
C991 C990 1.362 . S
H992 C998 0.930 . S
H993 C1001 0.930 . S
H994 C1002 0.930 . S
H995 C1003 0.930 . S
H996 C1006 0.930 . S
H997 C1007 0.930 . S
C998 H992 0.930 . S
C998 C999 1.355 . S
C998 C1000 1.415 . S
C999 C998 1.355 . S
C999 C1001 1.419 . S
C1000 C998 1.415 . S
C1000 C1005 1.425 . S
C1000 C1007 1.409 . S
C1001 H993 0.930 . S
C1001 C999 1.419 . S
C1001 C1002 1.362 . S
C1002 H994 0.930 . S
C1002 C1001 1.362 . S
C1002 C1005 1.409 . S
C1003 H995 0.930 . S
C1003 C1004 1.355 . S
C1003 C1005 1.415 . S
C1004 C1003 1.355 . S
C1004 C1006 1.419 . S
C1005 C1000 1.425 . S
C1005 C1002 1.409 . S
C1005 C1003 1.415 . S
C1006 H996 0.930 . S
C1006 C1004 1.419 . S
C1006 C1007 1.362 . S
C1007 H997 0.930 . S
C1007 C1000 1.409 . S
C1007 C1006 1.362 . S
H1008 C1014 0.930 . S
H1009 C1017 0.930 . S
H1010 C1018 0.930 . S
H1011 C1019 0.930 . S
H1012 C1022 0.930 . S
H1013 C1023 0.930 . S
C1014 H1008 0.930 . S
C1014 C1015 1.355 . S
C1014 C1016 1.415 . S
C1015 C1014 1.355 . S
C1015 C1017 1.419 . S
C1016 C1014 1.415 . S
C1016 C1021 1.425 . S
C1016 C1023 1.409 . S
C1017 H1009 0.930 . S
C1017 C1015 1.419 . S
C1017 C1018 1.362 . S
C1018 H1010 0.930 . S
C1018 C1017 1.362 . S
C1018 C1021 1.409 . S
C1019 H1011 0.930 . S
C1019 C1020 1.355 . S
C1019 C1021 1.415 1_455 S
C1020 C1019 1.355 . S
C1020 C1022 1.419 . S
C1021 C1016 1.425 . S
C1021 C1018 1.409 . S
C1021 C1019 1.415 1_655 S
C1022 H1012 0.930 . S
C1022 C1020 1.419 . S
C1022 C1023 1.362 1_455 S
C1023 H1013 0.930 . S
C1023 C1016 1.409 . S
C1023 C1022 1.362 1_655 S
H1024 C1030 0.930 . S
H1025 C1033 0.930 . S
H1026 C1034 0.930 . S
H1027 C1035 0.930 . S
H1028 C1038 0.930 . S
H1029 C1039 0.930 . S
C1030 H1024 0.930 . S
C1030 C1031 1.355 . S
C1030 C1032 1.415 . S
C1031 C1030 1.355 . S
C1031 C1033 1.419 . S
C1032 C1030 1.415 . S
C1032 C1037 1.425 . S
C1032 C1039 1.409 . S
C1033 H1025 0.930 . S
C1033 C1031 1.419 . S
C1033 C1034 1.362 . S
C1034 H1026 0.930 . S
C1034 C1033 1.362 . S
C1034 C1037 1.409 . S
C1035 H1027 0.930 . S
C1035 C1036 1.355 . S
C1035 C1037 1.415 . S
C1036 C1035 1.355 . S
C1036 C1038 1.419 . S
C1037 C1032 1.425 . S
C1037 C1034 1.409 . S
C1037 C1035 1.415 . S
C1038 H1028 0.930 . S
C1038 C1036 1.419 . S
C1038 C1039 1.362 . S
C1039 H1029 0.930 . S
C1039 C1032 1.409 . S
C1039 C1038 1.362 . S
H1040 C1046 0.930 . S
H1041 C1049 0.930 . S
H1042 C1050 0.930 . S
H1043 C1051 0.930 . S
H1044 C1054 0.930 . S
H1045 C1055 0.930 . S
C1046 H1040 0.930 . S
C1046 C1047 1.355 . S
C1046 C1048 1.415 1_455 S
C1047 C1046 1.355 . S
C1047 C1049 1.419 . S
C1048 C1046 1.415 1_655 S
C1048 C1053 1.425 . S
C1048 C1055 1.409 . S
C1049 H1041 0.930 . S
C1049 C1047 1.419 . S
C1049 C1050 1.362 1_455 S
C1050 H1042 0.930 . S
C1050 C1049 1.362 1_655 S
C1050 C1053 1.409 . S
C1051 H1043 0.930 . S
C1051 C1052 1.355 . S
C1051 C1053 1.415 . S
C1052 C1051 1.355 . S
C1052 C1054 1.419 . S
C1053 C1048 1.425 . S
C1053 C1050 1.409 . S
C1053 C1051 1.415 . S
C1054 H1044 0.930 . S
C1054 C1052 1.419 . S
C1054 C1055 1.362 . S
C1055 H1045 0.930 . S
C1055 C1048 1.409 . S
C1055 C1054 1.362 . S
H1056 C1062 0.930 . S
H1057 C1065 0.930 . S
H1058 C1066 0.930 . S
H1059 C1067 0.930 . S
H1060 C1070 0.930 . S
H1061 C1071 0.930 . S
C1062 H1056 0.930 . S
C1062 C1063 1.355 . S
C1062 C1064 1.415 . S
C1063 C1062 1.355 . S
C1063 C1065 1.419 . S
C1064 C1062 1.415 . S
C1064 C1069 1.425 . S
C1064 C1071 1.409 . S
C1065 H1057 0.930 . S
C1065 C1063 1.419 . S
C1065 C1066 1.362 . S
C1066 H1058 0.930 . S
C1066 C1065 1.362 . S
C1066 C1069 1.409 . S
C1067 H1059 0.930 . S
C1067 C1068 1.355 . S
C1067 C1069 1.415 . S
C1068 C1067 1.355 . S
C1068 C1070 1.419 . S
C1069 C1064 1.425 . S
C1069 C1066 1.409 . S
C1069 C1067 1.415 . S
C1070 H1060 0.930 . S
C1070 C1068 1.419 . S
C1070 C1071 1.362 . S
C1071 H1061 0.930 . S
C1071 C1064 1.409 . S
C1071 C1070 1.362 . S
H1072 C1078 0.930 . S
H1073 C1081 0.930 . S
H1074 C1082 0.930 . S
H1075 C1083 0.930 . S
H1076 C1086 0.930 . S
H1077 C1087 0.930 . S
C1078 H1072 0.930 . S
C1078 C1079 1.355 . S
C1078 C1080 1.415 . S
C1079 C1078 1.355 . S
C1079 C1081 1.419 . S
C1080 C1078 1.415 . S
C1080 C1085 1.425 . S
C1080 C1087 1.409 . S
C1081 H1073 0.930 . S
C1081 C1079 1.419 . S
C1081 C1082 1.362 . S
C1082 H1074 0.930 . S
C1082 C1081 1.362 . S
C1082 C1085 1.409 . S
C1083 H1075 0.930 . S
C1083 C1084 1.355 . S
C1083 C1085 1.415 . S
C1084 C1083 1.355 . S
C1084 C1086 1.419 . S
C1085 C1080 1.425 . S
C1085 C1082 1.409 . S
C1085 C1083 1.415 . S
C1086 H1076 0.930 . S
C1086 C1084 1.419 . S
C1086 C1087 1.362 . S
C1087 H1077 0.930 . S
C1087 C1080 1.409 . S
C1087 C1086 1.362 . S
H1088 C1094 0.930 . S
H1089 C1097 0.930 . S
H1090 C1098 0.930 . S
H1091 C1099 0.930 . S
H1092 C1102 0.930 . S
H1093 C1103 0.930 . S
C1094 H1088 0.930 . S
C1094 C1095 1.355 . S
C1094 C1096 1.415 . S
C1095 C1094 1.355 . S
C1095 C1097 1.419 . S
C1096 C1094 1.415 . S
C1096 C1101 1.425 . S
C1096 C1103 1.409 . S
C1097 H1089 0.930 . S
C1097 C1095 1.419 . S
C1097 C1098 1.362 . S
C1098 H1090 0.930 . S
C1098 C1097 1.362 . S
C1098 C1101 1.409 . S
C1099 H1091 0.930 . S
C1099 C1100 1.355 . S
C1099 C1101 1.415 . S
C1100 C1099 1.355 . S
C1100 C1102 1.419 . S
C1101 C1096 1.425 . S
C1101 C1098 1.409 . S
C1101 C1099 1.415 . S
C1102 H1092 0.930 . S
C1102 C1100 1.419 . S
C1102 C1103 1.362 . S
C1103 H1093 0.930 . S
C1103 C1096 1.409 . S
C1103 C1102 1.362 . S
H1104 C1110 0.930 . S
H1105 C1113 0.930 . S
H1106 C1114 0.930 . S
H1107 C1115 0.930 . S
H1108 C1118 0.930 . S
H1109 C1119 0.930 . S
C1110 H1104 0.930 . S
C1110 C1111 1.355 . S
C1110 C1112 1.415 . S
C1111 C1110 1.355 . S
C1111 C1113 1.419 . S
C1112 C1110 1.415 . S
C1112 C1117 1.425 . S
C1112 C1119 1.409 . S
C1113 H1105 0.930 . S
C1113 C1111 1.419 . S
C1113 C1114 1.362 . S
C1114 H1106 0.930 . S
C1114 C1113 1.362 . S
C1114 C1117 1.409 . S
C1115 H1107 0.930 . S
C1115 C1116 1.355 . S
C1115 C1117 1.415 . S
C1116 C1115 1.355 . S
C1116 C1118 1.419 . S
C1117 C1112 1.425 . S
C1117 C1114 1.409 . S
C1117 C1115 1.415 . S
C1118 H1108 0.930 . S
C1118 C1116 1.419 . S
C1118 C1119 1.362 . S
C1119 H1109 0.930 . S
C1119 C1112 1.409 . S
C1119 C1118 1.362 . S
H1120 C1126 0.930 . S
H1121 C1129 0.930 . S
H1122 C1130 0.930 . S
H1123 C1131 0.930 . S
H1124 C1134 0.930 . S
H1125 C1135 0.930 . S
C1126 H1120 0.930 . S
C1126 C1127 1.355 . S
C1126 C1128 1.415 . S
C1127 C1126 1.355 . S
C1127 C1129 1.419 . S
C1128 C1126 1.415 . S
C1128 C1133 1.425 . S
C1128 C1135 1.409 . S
C1129 H1121 0.930 . S
C1129 C1127 1.419 . S
C1129 C1130 1.362 . S
C1130 H1122 0.930 . S
C1130 C1129 1.362 . S
C1130 C1133 1.409 . S
C1131 H1123 0.930 . S
C1131 C1132 1.355 . S
C1131 C1133 1.415 . S
C1132 C1131 1.355 . S
C1132 C1134 1.419 . S
C1133 C1128 1.425 . S
C1133 C1130 1.409 . S
C1133 C1131 1.415 . S
C1134 H1124 0.930 . S
C1134 C1132 1.419 . S
C1134 C1135 1.362 . S
C1135 H1125 0.930 . S
C1135 C1128 1.409 . S
C1135 C1134 1.362 . S
H1136 C1142 0.930 . S
H1137 C1145 0.930 . S
H1138 C1146 0.930 . S
H1139 C1147 0.930 . S
H1140 C1150 0.930 . S
H1141 C1151 0.930 . S
C1142 H1136 0.930 . S
C1142 C1143 1.355 . S
C1142 C1144 1.415 . S
C1143 C1142 1.355 . S
C1143 C1145 1.419 . S
C1144 C1142 1.415 . S
C1144 C1149 1.425 . S
C1144 C1151 1.409 . S
C1145 H1137 0.930 . S
C1145 C1143 1.419 . S
C1145 C1146 1.362 . S
C1146 H1138 0.930 . S
C1146 C1145 1.362 . S
C1146 C1149 1.409 . S
C1147 H1139 0.930 . S
C1147 C1148 1.355 . S
C1147 C1149 1.415 1_655 S
C1148 C1147 1.355 . S
C1148 C1150 1.419 . S
C1149 C1144 1.425 . S
C1149 C1146 1.409 . S
C1149 C1147 1.415 1_455 S
C1150 H1140 0.930 . S
C1150 C1148 1.419 . S
C1150 C1151 1.362 1_655 S
C1151 H1141 0.930 . S
C1151 C1144 1.409 . S
C1151 C1150 1.362 1_455 S
H1152 C1158 0.930 . S
H1153 C1161 0.930 . S
H1154 C1162 0.930 . S
H1155 C1163 0.930 . S
H1156 C1166 0.930 . S
H1157 C1167 0.930 . S
C1158 H1152 0.930 . S
C1158 C1159 1.355 . S
C1158 C1160 1.415 . S
C1159 C1158 1.355 . S
C1159 C1161 1.419 . S
C1160 C1158 1.415 . S
C1160 C1165 1.425 . S
C1160 C1167 1.409 . S
C1161 H1153 0.930 . S
C1161 C1159 1.419 . S
C1161 C1162 1.362 . S
C1162 H1154 0.930 . S
C1162 C1161 1.362 . S
C1162 C1165 1.409 . S
C1163 H1155 0.930 . S
C1163 C1164 1.355 . S
C1163 C1165 1.415 . S
C1164 C1163 1.355 . S
C1164 C1166 1.419 . S
C1165 C1160 1.425 . S
C1165 C1162 1.409 . S
C1165 C1163 1.415 . S
C1166 H1156 0.930 . S
C1166 C1164 1.419 . S
C1166 C1167 1.362 . S
C1167 H1157 0.930 . S
C1167 C1160 1.409 . S
C1167 C1166 1.362 . S
H1168 C1174 0.930 . S
H1169 C1177 0.930 . S
H1170 C1178 0.930 . S
H1171 C1179 0.930 . S
H1172 C1182 0.930 . S
H1173 C1183 0.930 . S
C1174 H1168 0.930 . S
C1174 C1175 1.355 . S
C1174 C1176 1.415 1_655 S
C1175 C1174 1.355 . S
C1175 C1177 1.419 . S
C1176 C1174 1.415 1_455 S
C1176 C1181 1.425 . S
C1176 C1183 1.409 . S
C1177 H1169 0.930 . S
C1177 C1175 1.419 . S
C1177 C1178 1.362 1_655 S
C1178 H1170 0.930 . S
C1178 C1177 1.362 1_455 S
C1178 C1181 1.409 . S
C1179 H1171 0.930 . S
C1179 C1180 1.355 . S
C1179 C1181 1.415 . S
C1180 C1179 1.355 . S
C1180 C1182 1.419 . S
C1181 C1176 1.425 . S
C1181 C1178 1.409 . S
C1181 C1179 1.415 . S
C1182 H1172 0.930 . S
C1182 C1180 1.419 . S
C1182 C1183 1.362 . S
C1183 H1173 0.930 . S
C1183 C1176 1.409 . S
C1183 C1182 1.362 . S
H1184 C1190 0.930 . S
H1185 C1193 0.930 . S
H1186 C1194 0.930 . S
H1187 C1195 0.930 . S
H1188 C1198 0.930 . S
H1189 C1199 0.930 . S
C1190 H1184 0.930 . S
C1190 C1191 1.355 . S
C1190 C1192 1.415 . S
C1191 C1190 1.355 . S
C1191 C1193 1.419 . S
C1192 C1190 1.415 . S
C1192 C1197 1.425 . S
C1192 C1199 1.409 . S
C1193 H1185 0.930 . S
C1193 C1191 1.419 . S
C1193 C1194 1.362 . S
C1194 H1186 0.930 . S
C1194 C1193 1.362 . S
C1194 C1197 1.409 . S
C1195 H1187 0.930 . S
C1195 C1196 1.355 . S
C1195 C1197 1.415 . S
C1196 C1195 1.355 . S
C1196 C1198 1.419 . S
C1197 C1192 1.425 . S
C1197 C1194 1.409 . S
C1197 C1195 1.415 . S
C1198 H1188 0.930 . S
C1198 C1196 1.419 . S
C1198 C1199 1.362 . S
C1199 H1189 0.930 . S
C1199 C1192 1.409 . S
C1199 C1198 1.362 . S
H1200 C1206 0.930 . S
H1201 C1209 0.930 . S
H1202 C1210 0.930 . S
H1203 C1211 0.930 . S
H1204 C1214 0.930 . S
H1205 C1215 0.930 . S
C1206 H1200 0.930 . S
C1206 C1207 1.355 . S
C1206 C1208 1.415 . S
C1207 C1206 1.355 . S
C1207 C1209 1.419 . S
C1208 C1206 1.415 . S
C1208 C1213 1.425 . S
C1208 C1215 1.409 . S
C1209 H1201 0.930 . S
C1209 C1207 1.419 . S
C1209 C1210 1.362 . S
C1210 H1202 0.930 . S
C1210 C1209 1.362 . S
C1210 C1213 1.409 . S
C1211 H1203 0.930 . S
C1211 C1212 1.355 . S
C1211 C1213 1.415 . S
C1212 C1211 1.355 . S
C1212 C1214 1.419 . S
C1213 C1208 1.425 . S
C1213 C1210 1.409 . S
C1213 C1211 1.415 . S
C1214 H1204 0.930 . S
C1214 C1212 1.419 . S
C1214 C1215 1.362 . S
C1215 H1205 0.930 . S
C1215 C1208 1.409 . S
C1215 C1214 1.362 . S
H1216 C1222 0.930 . S
H1217 C1225 0.930 . S
H1218 C1226 0.930 . S
H1219 C1227 0.930 . S
H1220 C1230 0.930 . S
H1221 C1231 0.930 . S
C1222 H1216 0.930 . S
C1222 C1223 1.355 . S
C1222 C1224 1.415 . S
C1223 C1222 1.355 . S
C1223 C1225 1.419 . S
C1224 C1222 1.415 . S
C1224 C1229 1.425 . S
C1224 C1231 1.409 . S
C1225 H1217 0.930 . S
C1225 C1223 1.419 . S
C1225 C1226 1.362 . S
C1226 H1218 0.930 . S
C1226 C1225 1.362 . S
C1226 C1229 1.409 . S
C1227 H1219 0.930 . S
C1227 C1228 1.355 . S
C1227 C1229 1.415 . S
C1228 C1227 1.355 . S
C1228 C1230 1.419 . S
C1229 C1224 1.425 . S
C1229 C1226 1.409 . S
C1229 C1227 1.415 . S
C1230 H1220 0.930 . S
C1230 C1228 1.419 . S
C1230 C1231 1.362 . S
C1231 H1221 0.930 . S
C1231 C1224 1.409 . S
C1231 C1230 1.362 . S
H1232 C1238 0.930 . S
H1233 C1241 0.930 . S
H1234 C1242 0.930 . S
H1235 C1243 0.930 . S
H1236 C1246 0.930 . S
H1237 C1247 0.930 . S
C1238 H1232 0.930 . S
C1238 C1239 1.355 . S
C1238 C1240 1.415 . S
C1239 C1238 1.355 . S
C1239 C1241 1.419 . S
C1240 C1238 1.415 . S
C1240 C1245 1.425 . S
C1240 C1247 1.409 . S
C1241 H1233 0.930 . S
C1241 C1239 1.419 . S
C1241 C1242 1.362 . S
C1242 H1234 0.930 . S
C1242 C1241 1.362 . S
C1242 C1245 1.409 . S
C1243 H1235 0.930 . S
C1243 C1244 1.355 . S
C1243 C1245 1.415 . S
C1244 C1243 1.355 . S
C1244 C1246 1.419 . S
C1245 C1240 1.425 . S
C1245 C1242 1.409 . S
C1245 C1243 1.415 . S
C1246 H1236 0.930 . S
C1246 C1244 1.419 . S
C1246 C1247 1.362 . S
C1247 H1237 0.930 . S
C1247 C1240 1.409 . S
C1247 C1246 1.362 . S
H1248 C1254 0.930 . S
H1249 C1257 0.930 . S
H1250 C1258 0.930 . S
H1251 C1259 0.930 . S
H1252 C1262 0.930 . S
H1253 C1263 0.930 . S
C1254 H1248 0.930 . S
C1254 C1255 1.355 . S
C1254 C1256 1.415 . S
C1255 C1254 1.355 . S
C1255 C1257 1.419 . S
C1256 C1254 1.415 . S
C1256 C1261 1.425 . S
C1256 C1263 1.409 . S
C1257 H1249 0.930 . S
C1257 C1255 1.419 . S
C1257 C1258 1.362 . S
C1258 H1250 0.930 . S
C1258 C1257 1.362 . S
C1258 C1261 1.409 . S
C1259 H1251 0.930 . S
C1259 C1260 1.355 . S
C1259 C1261 1.415 . S
C1260 C1259 1.355 . S
C1260 C1262 1.419 . S
C1261 C1256 1.425 . S
C1261 C1258 1.409 . S
C1261 C1259 1.415 . S
C1262 H1252 0.930 . S
C1262 C1260 1.419 . S
C1262 C1263 1.362 . S
C1263 H1253 0.930 . S
C1263 C1256 1.409 . S
C1263 C1262 1.362 . S
H1264 C1270 0.930 . S
H1265 C1273 0.930 . S
H1266 C1274 0.930 . S
H1267 C1275 0.930 . S
H1268 C1278 0.930 . S
H1269 C1279 0.930 . S
C1270 H1264 0.930 . S
C1270 C1271 1.355 . S
C1270 C1272 1.415 . S
C1271 C1270 1.355 . S
C1271 C1273 1.419 . S
C1272 C1270 1.415 . S
C1272 C1277 1.425 . S
C1272 C1279 1.409 . S
C1273 H1265 0.930 . S
C1273 C1271 1.419 . S
C1273 C1274 1.362 . S
C1274 H1266 0.930 . S
C1274 C1273 1.362 . S
C1274 C1277 1.409 . S
C1275 H1267 0.930 . S
C1275 C1276 1.355 . S
C1275 C1277 1.415 . S
C1276 C1275 1.355 . S
C1276 C1278 1.419 . S
C1277 C1272 1.425 . S
C1277 C1274 1.409 . S
C1277 C1275 1.415 . S
C1278 H1268 0.930 . S
C1278 C1276 1.419 . S
C1278 C1279 1.362 . S
C1279 H1269 0.930 . S
C1279 C1272 1.409 . S
C1279 C1278 1.362 . S
H1280 C1286 0.930 . S
H1281 C1289 0.930 . S
H1282 C1290 0.930 . S
H1283 C1291 0.930 . S
H1284 C1294 0.930 . S
H1285 C1295 0.930 . S
C1286 H1280 0.930 . S
C1286 C1287 1.355 . S
C1286 C1288 1.415 . S
C1287 C1286 1.355 . S
C1287 C1289 1.419 . S
C1288 C1286 1.415 . S
C1288 C1293 1.425 . S
C1288 C1295 1.409 . S
C1289 H1281 0.930 . S
C1289 C1287 1.419 . S
C1289 C1290 1.362 . S
C1290 H1282 0.930 . S
C1290 C1289 1.362 . S
C1290 C1293 1.409 . S
C1291 H1283 0.930 . S
C1291 C1292 1.355 . S
C1291 C1293 1.415 . S
C1292 C1291 1.355 . S
C1292 C1294 1.419 . S
C1293 C1288 1.425 . S
C1293 C1290 1.409 . S
C1293 C1291 1.415 . S
C1294 H1284 0.930 . S
C1294 C1292 1.419 . S
C1294 C1295 1.362 . S
C1295 H1285 0.930 . S
C1295 C1288 1.409 . S
C1295 C1294 1.362 . S
H1296 C1302 0.930 . S
H1297 C1305 0.930 . S
H1298 C1306 0.930 . S
H1299 C1307 0.930 . S
H1300 C1310 0.930 . S
H1301 C1311 0.930 . S
C1302 H1296 0.930 . S
C1302 C1303 1.355 . S
C1302 C1304 1.415 . S
C1303 C1302 1.355 . S
C1303 C1305 1.419 . S
C1304 C1302 1.415 . S
C1304 C1309 1.425 . S
C1304 C1311 1.409 . S
C1305 H1297 0.930 . S
C1305 C1303 1.419 . S
C1305 C1306 1.362 . S
C1306 H1298 0.930 . S
C1306 C1305 1.362 . S
C1306 C1309 1.409 . S
C1307 H1299 0.930 . S
C1307 C1308 1.355 . S
C1307 C1309 1.415 . S
C1308 C1307 1.355 . S
C1308 C1310 1.419 . S
C1309 C1304 1.425 . S
C1309 C1306 1.409 . S
C1309 C1307 1.415 . S
C1310 H1300 0.930 . S
C1310 C1308 1.419 . S
C1310 C1311 1.362 . S
C1311 H1301 0.930 . S
C1311 C1304 1.409 . S
C1311 C1310 1.362 . S
H1312 C1318 0.930 . S
H1313 C1321 0.930 . S
H1314 C1322 0.930 . S
H1315 C1323 0.930 . S
H1316 C1326 0.930 . S
H1317 C1327 0.930 . S
C1318 H1312 0.930 . S
C1318 C1319 1.355 . S
C1318 C1320 1.415 . S
C1319 C1318 1.355 . S
C1319 C1321 1.419 . S
C1320 C1318 1.415 . S
C1320 C1325 1.425 . S
C1320 C1327 1.409 . S
C1321 H1313 0.930 . S
C1321 C1319 1.419 . S
C1321 C1322 1.362 . S
C1322 H1314 0.930 . S
C1322 C1321 1.362 . S
C1322 C1325 1.409 . S
C1323 H1315 0.930 . S
C1323 C1324 1.355 . S
C1323 C1325 1.415 . S
C1324 C1323 1.355 . S
C1324 C1326 1.419 . S
C1325 C1320 1.425 . S
C1325 C1322 1.409 . S
C1325 C1323 1.415 . S
C1326 H1316 0.930 . S
C1326 C1324 1.419 . S
C1326 C1327 1.362 . S
C1327 H1317 0.930 . S
C1327 C1320 1.409 . S
C1327 C1326 1.362 . S
H1328 C1334 0.930 . S
H1329 C1337 0.930 . S
H1330 C1338 0.930 . S
H1331 C1339 0.930 . S
H1332 C1342 0.930 . S
H1333 C1343 0.930 . S
C1334 H1328 0.930 . S
C1334 C1335 1.355 . S
C1334 C1336 1.415 . S
C1335 C1334 1.355 . S
C1335 C1337 1.419 . S
C1336 C1334 1.415 . S
C1336 C1341 1.425 . S
C1336 C1343 1.409 . S
C1337 H1329 0.930 . S
C1337 C1335 1.419 . S
C1337 C1338 1.362 . S
C1338 H1330 0.930 . S
C1338 C1337 1.362 . S
C1338 C1341 1.409 . S
C1339 H1331 0.930 . S
C1339 C1340 1.355 . S
C1339 C1341 1.415 . S
C1340 C1339 1.355 . S
C1340 C1342 1.419 . S
C1341 C1336 1.425 . S
C1341 C1338 1.409 . S
C1341 C1339 1.415 . S
C1342 H1332 0.930 . S
C1342 C1340 1.419 . S
C1342 C1343 1.362 . S
C1343 H1333 0.930 . S
C1343 C1336 1.409 . S
C1343 C1342 1.362 . S
H1344 C1350 0.930 . S
H1345 C1353 0.930 . S
H1346 C1354 0.930 . S
H1347 C1355 0.930 . S
H1348 C1358 0.930 . S
H1349 C1359 0.930 . S
C1350 H1344 0.930 . S
C1350 C1351 1.355 . S
C1350 C1352 1.415 . S
C1351 C1350 1.355 . S
C1351 C1353 1.419 . S
C1352 C1350 1.415 . S
C1352 C1357 1.425 . S
C1352 C1359 1.409 . S
C1353 H1345 0.930 . S
C1353 C1351 1.419 . S
C1353 C1354 1.362 . S
C1354 H1346 0.930 . S
C1354 C1353 1.362 . S
C1354 C1357 1.409 . S
C1355 H1347 0.930 . S
C1355 C1356 1.355 . S
C1355 C1357 1.415 . S
C1356 C1355 1.355 . S
C1356 C1358 1.419 . S
C1357 C1352 1.425 . S
C1357 C1354 1.409 . S
C1357 C1355 1.415 . S
C1358 H1348 0.930 . S
C1358 C1356 1.419 . S
C1358 C1359 1.362 . S
C1359 H1349 0.930 . S
C1359 C1352 1.409 . S
C1359 C1358 1.362 . S
H1360 C1366 0.930 . S
H1361 C1369 0.930 . S
H1362 C1370 0.930 . S
H1363 C1371 0.930 . S
H1364 C1374 0.930 . S
H1365 C1375 0.930 . S
C1366 H1360 0.930 . S
C1366 C1367 1.355 . S
C1366 C1368 1.415 . S
C1367 C1366 1.355 . S
C1367 C1369 1.419 . S
C1368 C1366 1.415 . S
C1368 C1373 1.425 . S
C1368 C1375 1.409 . S
C1369 H1361 0.930 . S
C1369 C1367 1.419 . S
C1369 C1370 1.362 . S
C1370 H1362 0.930 . S
C1370 C1369 1.362 . S
C1370 C1373 1.409 . S
C1371 H1363 0.930 . S
C1371 C1372 1.355 . S
C1371 C1373 1.415 . S
C1372 C1371 1.355 . S
C1372 C1374 1.419 . S
C1373 C1368 1.425 . S
C1373 C1370 1.409 . S
C1373 C1371 1.415 . S
C1374 H1364 0.930 . S
C1374 C1372 1.419 . S
C1374 C1375 1.362 . S
C1375 H1365 0.930 . S
C1375 C1368 1.409 . S
C1375 C1374 1.362 . S
H1376 C1382 0.930 . S
H1377 C1385 0.930 . S
H1378 C1386 0.930 . S
H1379 C1387 0.930 . S
H1380 C1390 0.930 . S
H1381 C1391 0.930 . S
C1382 H1376 0.930 . S
C1382 C1383 1.355 . S
C1382 C1384 1.415 . S
C1383 C1382 1.355 . S
C1383 C1385 1.419 . S
C1384 C1382 1.415 . S
C1384 C1389 1.425 . S
C1384 C1391 1.409 . S
C1385 H1377 0.930 . S
C1385 C1383 1.419 . S
C1385 C1386 1.362 . S
C1386 H1378 0.930 . S
C1386 C1385 1.362 . S
C1386 C1389 1.409 . S
C1387 H1379 0.930 . S
C1387 C1388 1.355 . S
C1387 C1389 1.415 . S
C1388 C1387 1.355 . S
C1388 C1390 1.419 . S
C1389 C1384 1.425 . S
C1389 C1386 1.409 . S
C1389 C1387 1.415 . S
C1390 H1380 0.930 . S
C1390 C1388 1.419 . S
C1390 C1391 1.362 . S
C1391 H1381 0.930 . S
C1391 C1384 1.409 . S
C1391 C1390 1.362 . S
H1392 C1398 0.930 . S
H1393 C1401 0.930 . S
H1394 C1402 0.930 . S
H1395 C1403 0.930 . S
H1396 C1406 0.930 . S
H1397 C1407 0.930 . S
C1398 H1392 0.930 . S
C1398 C1399 1.355 . S
C1398 C1400 1.415 . S
C1399 C1398 1.355 . S
C1399 C1401 1.419 . S
C1400 C1398 1.415 . S
C1400 C1405 1.425 . S
C1400 C1407 1.409 . S
C1401 H1393 0.930 . S
C1401 C1399 1.419 . S
C1401 C1402 1.362 . S
C1402 H1394 0.930 . S
C1402 C1401 1.362 . S
C1402 C1405 1.409 . S
C1403 H1395 0.930 . S
C1403 C1404 1.355 . S
C1403 C1405 1.415 . S
C1404 C1403 1.355 . S
C1404 C1406 1.419 . S
C1405 C1400 1.425 . S
C1405 C1402 1.409 . S
C1405 C1403 1.415 . S
C1406 H1396 0.930 . S
C1406 C1404 1.419 . S
C1406 C1407 1.362 . S
C1407 H1397 0.930 . S
C1407 C1400 1.409 . S
C1407 C1406 1.362 . S
H1408 C1414 0.930 . S
H1409 C1417 0.930 . S
H1410 C1418 0.930 . S
H1411 C1419 0.930 . S
H1412 C1422 0.930 . S
H1413 C1423 0.930 . S
C1414 H1408 0.930 . S
C1414 C1415 1.355 . S
C1414 C1416 1.415 . S
C1415 C1414 1.355 . S
C1415 C1417 1.419 . S
C1416 C1414 1.415 . S
C1416 C1421 1.425 . S
C1416 C1423 1.409 . S
C1417 H1409 0.930 . S
C1417 C1415 1.419 . S
C1417 C1418 1.362 . S
C1418 H1410 0.930 . S
C1418 C1417 1.362 . S
C1418 C1421 1.409 . S
C1419 H1411 0.930 . S
C1419 C1420 1.355 . S
C1419 C1421 1.415 . S
C1420 C1419 1.355 . S
C1420 C1422 1.419 . S
C1421 C1416 1.425 . S
C1421 C1418 1.409 . S
C1421 C1419 1.415 . S
C1422 H1412 0.930 . S
C1422 C1420 1.419 . S
C1422 C1423 1.362 . S
C1423 H1413 0.930 . S
C1423 C1416 1.409 . S
C1423 C1422 1.362 . S
H1424 C1430 0.930 . S
H1425 C1433 0.930 . S
H1426 C1434 0.930 . S
H1427 C1435 0.930 . S
H1428 C1438 0.930 . S
H1429 C1439 0.930 . S
C1430 H1424 0.930 . S
C1430 C1431 1.355 . S
C1430 C1432 1.415 . S
C1431 C1430 1.355 . S
C1431 C1433 1.419 . S
C1432 C1430 1.415 . S
C1432 C1437 1.425 . S
C1432 C1439 1.409 . S
C1433 H1425 0.930 . S
C1433 C1431 1.419 . S
C1433 C1434 1.362 . S
C1434 H1426 0.930 . S
C1434 C1433 1.362 . S
C1434 C1437 1.409 . S
C1435 H1427 0.930 . S
C1435 C1436 1.355 . S
C1435 C1437 1.415 . S
C1436 C1435 1.355 . S
C1436 C1438 1.419 . S
C1437 C1432 1.425 . S
C1437 C1434 1.409 . S
C1437 C1435 1.415 . S
C1438 H1428 0.930 . S
C1438 C1436 1.419 . S
C1438 C1439 1.362 . S
C1439 H1429 0.930 . S
C1439 C1432 1.409 . S
C1439 C1438 1.362 . S
H1440 C1446 0.930 . S
H1441 C1449 0.930 . S
H1442 C1450 0.930 . S
H1443 C1451 0.930 . S
H1444 C1454 0.930 . S
H1445 C1455 0.930 . S
C1446 H1440 0.930 . S
C1446 C1447 1.355 . S
C1446 C1448 1.415 . S
C1447 C1446 1.355 . S
C1447 C1449 1.419 . S
C1448 C1446 1.415 . S
C1448 C1453 1.425 . S
C1448 C1455 1.409 . S
C1449 H1441 0.930 . S
C1449 C1447 1.419 . S
C1449 C1450 1.362 . S
C1450 H1442 0.930 . S
C1450 C1449 1.362 . S
C1450 C1453 1.409 . S
C1451 H1443 0.930 . S
C1451 C1452 1.355 . S
C1451 C1453 1.415 . S
C1452 C1451 1.355 . S
C1452 C1454 1.419 . S
C1453 C1448 1.425 . S
C1453 C1450 1.409 . S
C1453 C1451 1.415 . S
C1454 H1444 0.930 . S
C1454 C1452 1.419 . S
C1454 C1455 1.362 . S
C1455 H1445 0.930 . S
C1455 C1448 1.409 . S
C1455 C1454 1.362 . S
H1456 C1462 0.930 . S
H1457 C1465 0.930 . S
H1458 C1466 0.930 . S
H1459 C1467 0.930 . S
H1460 C1470 0.930 . S
H1461 C1471 0.930 . S
C1462 H1456 0.930 . S
C1462 C1463 1.355 . S
C1462 C1464 1.415 . S
C1463 C1462 1.355 . S
C1463 C1465 1.419 . S
C1464 C1462 1.415 . S
C1464 C1469 1.425 . S
C1464 C1471 1.409 . S
C1465 H1457 0.930 . S
C1465 C1463 1.419 . S
C1465 C1466 1.362 . S
C1466 H1458 0.930 . S
C1466 C1465 1.362 . S
C1466 C1469 1.409 . S
C1467 H1459 0.930 . S
C1467 C1468 1.355 . S
C1467 C1469 1.415 . S
C1468 C1467 1.355 . S
C1468 C1470 1.419 . S
C1469 C1464 1.425 . S
C1469 C1466 1.409 . S
C1469 C1467 1.415 . S
C1470 H1460 0.930 . S
C1470 C1468 1.419 . S
C1470 C1471 1.362 . S
C1471 H1461 0.930 . S
C1471 C1464 1.409 . S
C1471 C1470 1.362 . S
C455 C11 1.327 . S
C460 C67 1.320 . S
C471 C25 1.337 . S
C476 C81 1.309 . S
C487 C95 1.336 . S
C492 C39 1.311 . S
C503 C109 1.310 . S
C508 C53 1.332 . S
C519 C123 1.329 . S
C524 C179 1.313 . S
C535 C137 1.310 . S
C540 C193 1.332 . S
C551 C207 1.320 . S
C556 C151 1.321 . S
C567 C165 1.317 . S
C572 C221 1.325 . S
C583 C291 1.336 . S
C588 C235 1.310 . S
C599 C305 1.306 . S
C604 C249 1.338 . S
C615 C263 1.320 . S
C620 C319 1.321 . S
C631 C333 1.336 . S
C636 C277 1.310 . S
C647 C347 1.338 . S
C652 C403 1.306 . S
C663 C417 1.308 . S
C668 C361 1.337 . S
C679 C431 1.326 . S
C684 C375 1.316 . S
C695 C389 1.311 . S
C700 C445 1.330 . S
C711 C8 1.280 . S
C716 C391 1.369 . S
C727 C125 1.358 . S
C732 C22 1.283 . S
C743 C36 1.389 . S
C748 C363 1.331 . S
C759 C50 1.384 . S
C764 C153 1.361 . S
C775 C419 1.305 . S
C780 C64 1.359 . S
C791 C209 1.396 . S
C796 C78 1.350 . S
C807 C92 1.360 . S
C812 C447 1.390 . S
C823 C106 1.372 . S
C828 C181 1.379 . S
C839 C279 1.374 . S
C844 C120 1.376 . S
C855 C134 1.303 . S
C860 C13 1.328 . S
C871 C251 1.343 . S
C876 C148 1.389 . S
C887 C162 1.285 . S
C892 C41 1.352 . S
C903 C307 1.307 . S
C908 C176 1.365 . S
C919 C190 1.284 . S
C924 C97 1.355 . S
C935 C335 1.305 . S
C940 C204 1.355 . S
C951 C218 1.283 . S
C956 C69 1.359 . S
C967 C167 1.324 . S
C972 C232 1.308 . S
C983 C349 1.318 . S
C988 C246 1.316 . S
C999 C139 1.401 . S
C1004 C260 1.299 . S
C1015 C274 1.318 . S
C1020 C377 1.317 . S
C1031 C195 1.402 . S
C1036 C288 1.301 . S
C1047 C433 1.365 . S
C1052 C302 1.382 . S
C1063 C223 1.387 . S
C1068 C316 1.284 . S
C1079 C330 1.281 . S
C1084 C405 1.380 . S
C1095 C344 1.386 . S
C1100 C55 1.355 . S
C1111 C358 1.281 . S
C1116 C237 1.380 . S
C1127 C372 1.325 . S
C1132 C27 1.404 . S
C1143 C386 1.283 . S
C1148 C265 1.358 . S
C1159 C400 1.389 . S
C1164 C83 1.334 . S
C1175 C321 1.391 . S
C1180 C414 1.358 . S
C1191 C111 1.314 . S
C1196 C428 1.379 . S
C1207 C442 1.280 . S
C1212 C293 1.370 . S
C1223 C7 1.156 . S
C1228 C105 1.215 . S
C1239 C21 1.223 . S
C1244 C63 1.148 1_556 S
C1255 C35 1.207 1_554 S
C1260 C77 1.166 . S
C1271 C91 1.153 . S
C1276 C49 1.215 . S
C1287 C217 1.178 . S
C1292 C119 1.189 . S
C1303 C175 1.172 1_554 S
C1308 C133 1.195 . S
C1319 C189 1.157 . S
C1324 C147 1.211 1_556 S
C1335 C203 1.148 . S
C1340 C161 1.220 . S
C1351 C231 1.167 1_554 S
C1356 C329 1.200 . S
C1367 C287 1.145 . S
C1372 C245 1.223 . S
C1383 C301 1.144 . S
C1388 C259 1.224 . S
C1399 C315 1.221 1_556 S
C1404 C273 1.146 . S
C1415 C441 1.144 . S
C1420 C343 1.225 1_556 S
C1431 C357 1.162 . S
C1436 C399 1.210 . S
C1447 C371 1.152 . S
C1452 C413 1.216 . S
C1463 C385 1.193 . S
C1468 C427 1.174 1_554 S
