# Generated by pormake.
# Topology lcy-e, (6)-cn, num edge types: 1
# Building blocks:
#     Node 0, Type 0, BuildingBlock: KUMBUR_clean_sbu_1, # of connection points: 6
#     Node 1, Type 0, BuildingBlock: KUMBUR_clean_sbu_1, # of connection points: 6
#     Node 2, Type 0, BuildingBlock: KUMBUR_clean_sbu_1, # of connection points: 6
#     Node 3, Type 0, BuildingBlock: KUMBUR_clean_sbu_1, # of connection points: 6
#     Node 4, Type 0, BuildingBlock: KUMBUR_clean_sbu_1, # of connection points: 6
#     Node 5, Type 0, BuildingBlock: KUMBUR_clean_sbu_1, # of connection points: 6
#     Node 6, Type 0, BuildingBlock: KUMBUR_clean_sbu_1, # of connection points: 6
#     Node 7, Type 0, BuildingBlock: KUMBUR_clean_sbu_1, # of connection points: 6
#     Node 8, Type 0, BuildingBlock: KUMBUR_clean_sbu_1, # of connection points: 6
#     Node 9, Type 0, BuildingBlock: KUMBUR_clean_sbu_1, # of connection points: 6
#     Node 10, Type 0, BuildingBlock: KUMBUR_clean_sbu_1, # of connection points: 6
#     Node 11, Type 0, BuildingBlock: KUMBUR_clean_sbu_1, # of connection points: 6
#     Edge 12, Type (0, 0), BuildingBlock: AJUNOK_clean_linker_0, # of connection points: 2
#     Edge 13, Type (0, 0), BuildingBlock: AJUNOK_clean_linker_0, # of connection points: 2
#     Edge 14, Type (0, 0), BuildingBlock: AJUNOK_clean_linker_0, # of connection points: 2
#     Edge 15, Type (0, 0), BuildingBlock: AJUNOK_clean_linker_0, # of connection points: 2
#     Edge 16, Type (0, 0), BuildingBlock: AJUNOK_clean_linker_0, # of connection points: 2
#     Edge 17, Type (0, 0), BuildingBlock: AJUNOK_clean_linker_0, # of connection points: 2
#     Edge 18, Type (0, 0), BuildingBlock: AJUNOK_clean_linker_0, # of connection points: 2
#     Edge 19, Type (0, 0), BuildingBlock: AJUNOK_clean_linker_0, # of connection points: 2
#     Edge 20, Type (0, 0), BuildingBlock: AJUNOK_clean_linker_0, # of connection points: 2
#     Edge 21, Type (0, 0), BuildingBlock: AJUNOK_clean_linker_0, # of connection points: 2
#     Edge 22, Type (0, 0), BuildingBlock: AJUNOK_clean_linker_0, # of connection points: 2
#     Edge 23, Type (0, 0), BuildingBlock: AJUNOK_clean_linker_0, # of connection points: 2
#     Edge 24, Type (0, 0), BuildingBlock: AJUNOK_clean_linker_0, # of connection points: 2
#     Edge 25, Type (0, 0), BuildingBlock: AJUNOK_clean_linker_0, # of connection points: 2
#     Edge 26, Type (0, 0), BuildingBlock: AJUNOK_clean_linker_0, # of connection points: 2
#     Edge 27, Type (0, 0), BuildingBlock: AJUNOK_clean_linker_0, # of connection points: 2
#     Edge 28, Type (0, 0), BuildingBlock: AJUNOK_clean_linker_0, # of connection points: 2
#     Edge 29, Type (0, 0), BuildingBlock: AJUNOK_clean_linker_0, # of connection points: 2
#     Edge 30, Type (0, 0), BuildingBlock: AJUNOK_clean_linker_0, # of connection points: 2
#     Edge 31, Type (0, 0), BuildingBlock: AJUNOK_clean_linker_0, # of connection points: 2
#     Edge 32, Type (0, 0), BuildingBlock: AJUNOK_clean_linker_0, # of connection points: 2
#     Edge 33, Type (0, 0), BuildingBlock: AJUNOK_clean_linker_0, # of connection points: 2
#     Edge 34, Type (0, 0), BuildingBlock: AJUNOK_clean_linker_0, # of connection points: 2
#     Edge 35, Type (0, 0), BuildingBlock: AJUNOK_clean_linker_0, # of connection points: 2
#     Edge 36, Type (0, 0), BuildingBlock: AJUNOK_clean_linker_0, # of connection points: 2
#     Edge 37, Type (0, 0), BuildingBlock: AJUNOK_clean_linker_0, # of connection points: 2
#     Edge 38, Type (0, 0), BuildingBlock: AJUNOK_clean_linker_0, # of connection points: 2
#     Edge 39, Type (0, 0), BuildingBlock: AJUNOK_clean_linker_0, # of connection points: 2
#     Edge 40, Type (0, 0), BuildingBlock: AJUNOK_clean_linker_0, # of connection points: 2
#     Edge 41, Type (0, 0), BuildingBlock: AJUNOK_clean_linker_0, # of connection points: 2
#     Edge 42, Type (0, 0), BuildingBlock: AJUNOK_clean_linker_0, # of connection points: 2
#     Edge 43, Type (0, 0), BuildingBlock: AJUNOK_clean_linker_0, # of connection points: 2
#     Edge 44, Type (0, 0), BuildingBlock: AJUNOK_clean_linker_0, # of connection points: 2
#     Edge 45, Type (0, 0), BuildingBlock: AJUNOK_clean_linker_0, # of connection points: 2
#     Edge 46, Type (0, 0), BuildingBlock: AJUNOK_clean_linker_0, # of connection points: 2
#     Edge 47, Type (0, 0), BuildingBlock: AJUNOK_clean_linker_0, # of connection points: 2
# Relax obj value: 0.092
# Max RMSD: 0.251
# Mean RMSD: 0.250
data_MOF--net-lcy-e--node1-KUMBUR_clean_sbu_1--edge1-AJUNOK_clean_linker_0
_symmetry_space_group_name_H-M    P1
_symmetry_Int_Tables_number       1
_symmetry_cell_setting            triclinic
loop_
_symmetry_equiv_pos_as_xyz
'x, y, z'
_cell_length_a     34.059842
_cell_length_b     33.803524
_cell_length_c     34.07272
_cell_angle_alpha  89.99941
_cell_angle_beta   89.773912
_cell_angle_gamma 89.426488
loop_
_atom_site_label
_atom_site_type_symbol
_atom_site_fract_x
_atom_site_fract_y
_atom_site_fract_z
_atom_type_partial_charge
Tb0 Tb 0.16515 0.22554 0.55521 0.0
C1 C 0.04196 0.33149 0.46292 0.0
N2 N 0.0655 0.30074 0.45176 0.0
C3 C 1.01352 0.27485 0.41217 0.0
C4 C 1.00278 0.33446 0.44992 0.0
C5 C 0.05248 0.27383 0.42489 0.0
C6 C 0.98838 0.30499 0.42517 0.0
C7 C 0.03557 0.39559 0.49458 0.0
C8 C 0.0579 0.36151 0.48546 0.0
C9 C 0.99623 0.39814 0.48264 0.0
C10 C 0.97976 0.36748 0.46068 0.0
Tb11 Tb 0.12854 0.30422 0.47405 0.0
N12 N 0.0958 0.35797 0.49722 0.0
C13 C 0.05381 0.42648 0.5146 0.0
C14 C 0.11317 0.38717 0.51828 0.0
C15 C 0.09263 0.42195 0.52697 0.0
H16 H 0.07207 0.25171 0.41263 0.0
H17 H 0.10694 0.44514 0.54305 0.0
H18 H 0.23851 0.26629 0.60529 0.0
H19 H 0.15198 0.08098 0.49186 0.0
H20 H 0.14285 0.38381 0.52801 0.0
H21 H 0.03803 0.45372 0.52106 0.0
H22 H 0.12804 0.14605 0.51596 0.0
H23 H 1.00315 0.25286 0.3917 0.0
H24 H 0.97846 0.42394 0.48979 0.0
H25 H 0.94955 0.37015 0.45113 0.0
H26 H 0.30913 0.25533 0.61304 0.0
H27 H 0.95839 0.30611 0.41469 0.0
H28 H 0.22306 0.06485 0.49393 0.0
N29 N 0.23103 0.21814 0.56574 0.0
C30 C 0.24781 0.18499 0.55031 0.0
C31 C 0.29259 0.23582 0.59445 0.0
C32 C 0.28808 0.17654 0.55531 0.0
C33 C 0.25242 0.24247 0.58927 0.0
C34 C 0.31075 0.20313 0.57678 0.0
N35 N 0.18514 0.16711 0.52853 0.0
C36 C 0.15913 0.13951 0.51576 0.0
C37 C 0.2389 0.12133 0.51905 0.0
C38 C 0.22382 0.15801 0.53198 0.0
C39 C 0.21271 0.09354 0.50395 0.0
C40 C 0.17258 0.10257 0.50261 0.0
H41 H 0.3418 0.19774 0.58141 0.0
H42 H 0.33484 0.1341 0.54372 0.0
H43 H 0.29161 0.08547 0.51237 0.0
O44 O 0.11986 0.1947 0.58549 0.0
O45 O 0.17824 0.2155 0.49332 0.0
O46 O 0.18775 0.27823 0.47229 0.0
O47 O 0.17803 0.20198 0.61079 0.0
O48 O 0.10487 0.22231 0.53147 0.0
O49 O 0.11434 0.24203 0.46794 0.0
O50 O 0.14371 0.35538 0.44215 0.0
O51 O 0.09852 0.30483 0.53403 0.0
O52 O 0.14611 0.2819 0.57677 0.0
O53 O 0.13614 0.29953 0.4129 0.0
O54 O 0.18212 0.3231 0.50172 0.0
O55 O 0.19023 0.28795 0.56021 0.0
C56 C 0.19801 0.24087 0.47255 0.0
C57 C 0.13165 0.16571 0.6504 0.0
C58 C 0.10075 0.11049 0.68492 0.0
C59 C 0.10792 0.12991 0.72052 0.0
C60 C 0.14008 0.18326 0.68659 0.0
C61 C 0.12855 0.16518 0.72138 0.0
C62 C 0.11254 0.1287 0.64947 0.0
C63 C 0.09477 0.22201 0.49427 0.0
C64 C 0.1435 0.18637 0.61424 0.0
C65 C 0.3039 0.14103 0.54039 0.0
C66 C 0.27929 0.11331 0.52257 0.0
C67 C 0.11232 0.29907 0.57034 0.0
C68 C 0.13269 0.35744 0.37342 0.0
C69 C 0.14911 0.39338 0.31324 0.0
C70 C 0.10934 0.39219 0.30251 0.0
C71 C 0.0932 0.357 0.36221 0.0
C72 C 0.16065 0.37617 0.34912 0.0
C73 C 0.08165 0.37436 0.32691 0.0
C74 C 0.19719 0.31934 0.53679 0.0
C75 C 0.14586 0.33654 0.40895 0.0
H76 H 0.09815 0.1173 0.74795 0.0
H77 H 0.15536 0.21119 0.68793 0.0
H78 H 0.13595 0.17824 0.74923 0.0
H79 H 0.10692 0.11434 0.62164 0.0
H80 H 0.09968 0.40505 0.27502 0.0
H81 H 0.0714 0.34285 0.38039 0.0
H82 H 0.19136 0.37617 0.35743 0.0
H83 H 0.05116 0.37359 0.31818 0.0
Tb84 Tb 0.06771 0.91627 0.80574 0.0
C85 C 0.94891 0.80414 0.71247 0.0
N86 N 0.98243 0.82374 0.70336 0.0
C87 C 1.00499 0.76812 0.6654 0.0
C88 C 0.94348 0.76461 0.70058 0.0
C89 C 1.00875 0.80742 0.6775 0.0
C90 C 0.97277 0.74622 0.67794 0.0
C91 C 0.88172 0.8068 0.73665 0.0
C92 C 0.9183 0.82495 0.73033 0.0
C93 C 0.87724 0.76662 0.72743 0.0
C94 C 0.90811 0.74552 0.70956 0.0
Tb95 Tb 0.98415 0.88747 0.7254 0.0
N96 N 0.92357 0.86373 0.73909 0.0
C97 C 0.85048 0.82992 0.75108 0.0
C98 C 0.89314 0.88654 0.75236 0.0
C99 C 0.8562 0.87004 0.75884 0.0
H100 H 0.03274 0.82448 0.66584 0.0
H101 H 0.83211 0.88834 0.76937 0.0
H102 H 0.01997 0.98656 0.85905 0.0
H103 H 0.20276 0.91865 0.72403 0.0
H104 H 0.89697 0.91767 0.75601 0.0
H105 H 0.82182 0.81717 0.75604 0.0
H106 H 0.14338 0.88774 0.75228 0.0
H107 H 0.02671 0.75493 0.64601 0.0
H108 H 0.84961 0.75193 0.73283 0.0
H109 H 0.90369 0.71496 0.70124 0.0
H110 H 0.0245 0.05801 0.86797 0.0
H111 H 0.96972 0.71591 0.66817 0.0
H112 H 0.21253 0.99075 0.73099 0.0
N113 N 0.06613 0.98309 0.81634 0.0
C114 C 0.09688 1.00273 0.79993 0.0
C115 C 0.04464 0.04296 0.84821 0.0
C116 C 0.10235 0.04342 0.80691 0.0
C117 C 0.04136 1.00229 0.84191 0.0
C118 C 0.07506 0.06371 0.83038 0.0
N119 N 0.1189 0.94227 0.77213 0.0
C120 C 0.14705 0.91937 0.75423 0.0
C121 C 0.15811 1.00031 0.76288 0.0
C122 C 0.12451 0.98156 0.77794 0.0
C123 C 0.18623 0.97741 0.74282 0.0
C124 C 0.18078 0.93671 0.73871 0.0
H125 H 0.07809 0.09505 0.83615 0.0
H126 H 0.1408 0.09324 0.79756 0.0
H127 H 0.18889 0.05585 0.7581 0.0
O128 O 0.11641 0.88336 0.82622 0.0
O129 O 0.06973 0.93282 0.74314 0.0
O130 O 1.00631 0.94772 0.73089 0.0
O131 O 0.09146 0.92979 0.86141 0.0
O132 O 0.07141 0.85619 0.78127 0.0
O133 O 0.0448 0.8669 0.72051 0.0
O134 O 0.93928 0.90295 0.68446 0.0
O135 O 0.9768 0.856 0.78374 0.0
O136 O 0.02526 0.87545 0.82884 0.0
O137 O 1.00084 0.90561 0.66968 0.0
O138 O 0.97512 0.93902 0.76232 0.0
O139 O 1.00483 0.93151 0.82265 0.0
C140 C 0.04353 0.95581 0.72658 0.0
C141 C 0.1338 0.88258 0.89363 0.0
C142 C 0.18834 0.85119 0.92938 0.0
C143 C 0.163 0.84545 0.96145 0.0
C144 C 0.10916 0.87641 0.92608 0.0
C145 C 0.1238 0.85798 0.95976 0.0
C146 C 0.1736 0.87005 0.8955 0.0
C147 C 0.06383 0.84436 0.74538 0.0
C148 C 0.11964 0.90366 0.85826 0.0
C149 C 0.13567 0.06224 0.79165 0.0
C150 C 0.16324 0.04088 0.7694 0.0
C151 C 0.99442 0.8545 0.81896 0.0
C152 C 0.95764 0.901 0.61596 0.0
C153 C 0.92429 0.9157 0.55395 0.0
C154 C 0.95513 0.89611 0.53401 0.0
C155 C 0.98607 0.87897 0.59511 0.0
C156 C 0.92624 0.919 0.59524 0.0
C157 C 0.98501 0.87706 0.55444 0.0
C158 C 0.97359 0.94051 0.80061 0.0
C159 C 0.96503 0.91126 0.65741 0.0
H160 H 0.1737 0.8314 0.98798 0.0
H161 H 0.07875 0.88609 0.92553 0.0
H162 H 0.10471 0.85341 0.98476 0.0
H163 H 0.19297 0.87491 0.87067 0.0
H164 H 0.95609 0.8952 0.50224 0.0
H165 H 1.01056 0.86499 0.60995 0.0
H166 H 0.90403 0.93591 0.61099 0.0
H167 H 1.00799 0.86146 0.53859 0.0
Tb168 Tb 0.41553 0.73673 0.97229 0.0
C169 C 0.29599 0.81434 0.09122 0.0
N170 N 0.31785 0.83106 0.06234 0.0
C171 C 0.26287 0.87185 0.04389 0.0
C172 C 0.25581 0.8238 0.09575 0.0
C173 C 0.30274 0.8619 0.04115 0.0
C174 C 0.23898 0.85184 0.07052 0.0
C175 C 0.29431 0.77665 0.15172 0.0
C176 C 0.31495 0.79106 0.11891 0.0
C177 C 0.25368 0.78349 0.15477 0.0
C178 C 0.23442 0.80693 0.12674 0.0
Tb179 Tb 0.38189 0.81044 0.0598 0.0
N180 N 0.35429 0.78506 0.11511 0.0
C181 C 0.31549 0.75755 0.18139 0.0
C182 C 0.37527 0.76801 0.14467 0.0
C183 C 0.35625 0.75362 0.17808 0.0
H184 H 0.32149 0.87933 0.02249 0.0
H185 H 0.37307 0.74018 0.20155 0.0
H186 H 0.48439 0.67647 1.01186 0.0
H187 H 0.41675 0.82249 0.83976 0.0
H188 H 0.40674 0.7675 0.14337 0.0
H189 H 0.30084 0.74715 0.20761 0.0
H190 H 0.38678 0.79213 0.89872 0.0
H191 H 0.25079 0.89546 0.02605 0.0
H192 H 0.23718 0.77208 0.17949 0.0
H193 H 0.20339 0.81339 0.13036 0.0
H194 H 0.55543 0.66677 1.00577 0.0
H195 H 0.20823 0.85999 0.07303 0.0
H196 H 0.48849 0.81677 0.82875 0.0
N197 N 0.48152 0.72317 0.96948 0.0
C198 C 0.50125 0.74191 0.94024 0.0
C199 C 0.54068 0.68851 0.98757 0.0
C200 C 0.54176 0.73532 0.93412 0.0
C201 C 0.50027 0.69502 0.99164 0.0
C202 C 0.56166 0.70917 0.95906 0.0
N203 N 0.44129 0.77111 0.92122 0.0
C204 C 0.41817 0.79001 0.89417 0.0
C205 C 0.49864 0.78267 0.88164 0.0
C206 C 0.48024 0.76578 0.91463 0.0
C207 C 0.47549 0.8036 0.85465 0.0
C208 C 0.435 0.80698 0.86078 0.0
H209 H 0.59283 0.70346 0.95546 0.0
H210 H 0.59183 0.74902 0.89727 0.0
H211 H 0.55401 0.79033 0.85121 0.0
O212 O 0.37457 0.7204 0.92961 0.0
O213 O 0.42739 0.80027 0.97166 0.0
O214 O 0.44154 0.8116 0.03486 0.0
O215 O 0.42498 0.68359 0.94067 0.0
O216 O 0.35533 0.76088 0.97505 0.0
O217 O 0.36172 0.82334 0.99981 0.0
O218 O 0.39998 0.84018 0.11087 0.0
O219 O 0.35152 0.75052 0.058 0.0
O220 O 0.3883 0.70577 0.01958 0.0
O221 O 0.39064 0.87183 0.05671 0.0
O222 O 0.43645 0.77741 0.06646 0.0
O223 O 0.43453 0.71808 0.03387 0.0
C224 C 0.44961 0.81692 0.99772 0.0
C225 C 0.36915 0.65411 0.91054 0.0
C226 C 0.33303 0.61641 0.86156 0.0
C227 C 0.32384 0.58842 0.89058 0.0
C228 C 0.35914 0.62631 0.93931 0.0
C229 C 0.33654 0.59356 0.92925 0.0
C230 C 0.35566 0.64932 0.87179 0.0
C231 C 0.34393 0.79812 0.97666 0.0
C232 C 0.3935 0.68853 0.91962 0.0
C233 C 0.56073 0.75374 0.90242 0.0
C234 C 0.53919 0.7772 0.87612 0.0
C235 C 0.35951 0.71415 0.044 0.0
C236 C 0.38965 0.90932 0.11539 0.0
C237 C 0.40795 0.97035 0.14865 0.0
C238 C 0.36786 0.97995 0.15247 0.0
C239 C 0.34988 0.91888 0.12057 0.0
C240 C 0.41869 0.93472 0.13005 0.0
C241 C 0.3391 0.95418 0.13901 0.0
C242 C 0.44134 0.7391 0.06637 0.0
C243 C 0.40183 0.87417 0.09319 0.0
H244 H 0.3075 0.56216 0.88307 0.0
H245 H 0.36907 0.62975 0.96927 0.0
H246 H 0.32938 0.57174 0.95134 0.0
H247 H 0.36382 0.67049 0.84934 0.0
H248 H 0.35874 1.00745 0.16592 0.0
H249 H 0.32728 0.89942 0.10999 0.0
H250 H 0.4495 0.92739 0.12592 0.0
H251 H 0.30836 0.96185 0.14249 0.0
Tb252 Tb 0.47053 0.12652 0.30033 0.0
C253 C 0.58202 0.24925 0.20999 0.0
N254 N 0.55139 0.22651 0.19886 0.0
C255 C 0.52515 0.28051 0.16116 0.0
C256 C 0.58393 0.28949 0.19941 0.0
C257 C 0.5246 0.24076 0.17253 0.0
C258 C 0.55435 0.30527 0.17554 0.0
C259 C 0.64793 0.2525 0.23635 0.0
C260 C 0.61369 0.23097 0.22809 0.0
C261 C 0.64845 0.29344 0.22929 0.0
C262 C 0.61647 0.31192 0.2108 0.0
Tb263 Tb 0.55332 0.16289 0.22131 0.0
N264 N 0.61229 0.19134 0.23406 0.0
C265 C 0.68121 0.23188 0.24945 0.0
C266 C 0.6453 0.17075 0.24456 0.0
C267 C 0.68026 0.19068 0.25222 0.0
H268 H 0.50234 0.22175 0.16054 0.0
H269 H 0.70633 0.17424 0.26058 0.0
H270 H 0.509 0.06124 0.36236 0.0
H271 H 0.34317 0.12147 0.2079 0.0
H272 H 0.64501 0.13887 0.2464 0.0
H273 H 0.70822 0.24724 0.25582 0.0
H274 H 0.39864 0.15365 0.24191 0.0
H275 H 0.50313 0.29196 0.14122 0.0
H276 H 0.67414 0.31068 0.23629 0.0
H277 H 0.61806 0.34311 0.2037 0.0
H278 H 0.49878 0.99173 0.37927 0.0
H279 H 0.55505 0.33592 0.16633 0.0
H280 H 0.33372 0.04939 0.21465 0.0
N281 N 0.46891 0.06084 0.31443 0.0
C282 C 0.44088 0.04019 0.29522 0.0
C283 C 0.48361 1.00432 0.35436 0.0
C284 C 0.43434 1.0 0.30376 0.0
C285 C 0.48954 0.04384 0.34445 0.0
C286 C 0.45671 0.98191 0.33325 0.0
N287 N 0.42213 0.09956 0.26366 0.0
C288 C 0.39531 0.12194 0.24349 0.0
C289 C 0.38502 0.04074 0.25117 0.0
C290 C 0.41647 0.06025 0.26925 0.0
C291 C 0.35883 0.06305 0.22829 0.0
C292 C 0.3639 0.10386 0.22459 0.0
H293 H 0.45213 0.95126 0.34119 0.0
H294 H 0.39915 0.94881 0.29003 0.0
H295 H 0.35593 0.98447 0.24406 0.0
O296 O 0.42665 0.16536 0.3224 0.0
O297 O 0.47269 0.11453 0.23818 0.0
O298 O 0.53553 0.1006 0.22372 0.0
O299 O 0.44145 0.11176 0.35284 0.0
O300 O 0.46708 0.18832 0.2808 0.0
O301 O 0.49174 0.18182 0.21848 0.0
O302 O 0.5982 0.15199 0.17907 0.0
O303 O 0.55186 0.19464 0.28062 0.0
O304 O 0.52012 0.15382 0.32621 0.0
O305 O 0.53723 0.14145 0.16616 0.0
O306 O 0.57688 0.11907 0.26069 0.0
O307 O 0.53302 0.10571 0.31315 0.0
C308 C 0.49878 0.09005 0.22421 0.0
C309 C 0.40734 0.16118 0.38955 0.0
C310 C 0.35616 0.19163 0.43037 0.0
C311 C 0.3827 0.19291 0.46177 0.0
C312 C 0.43273 0.16102 0.42184 0.0
C313 C 0.42072 0.17768 0.45744 0.0
C314 C 0.36892 0.17631 0.39404 0.0
C315 C 0.47376 0.20268 0.24567 0.0
C316 C 0.41851 0.14259 0.35198 0.0
C317 C 0.40437 0.97981 0.28414 0.0
C318 C 0.37973 1.00014 0.25795 0.0
C319 C 0.53979 0.18573 0.3173 0.0
C320 C 0.58009 0.14652 0.11127 0.0
C321 C 0.61184 0.1281 0.049 0.0
C322 C 0.58502 0.15305 0.0294 0.0
C323 C 0.55476 0.17208 0.09082 0.0
C324 C 0.60886 0.12449 0.09022 0.0
C325 C 0.55718 0.17514 0.05017 0.0
C326 C 0.56802 0.10305 0.29464 0.0
C327 C 0.57336 0.13877 0.1534 0.0
H328 H 0.37362 0.20455 0.49005 0.0
H329 H 0.46136 0.14712 0.41998 0.0
H330 H 0.44063 0.17795 0.48204 0.0
H331 H 0.34876 0.1755 0.36949 0.0
H332 H 0.58568 0.1556 0.99771 0.0
H333 H 0.53212 0.18871 0.10604 0.0
H334 H 0.62855 0.1046 0.10574 0.0
H335 H 0.53698 0.19435 0.03458 0.0
Tb336 Tb 0.65852 0.31702 0.47636 0.0
C337 C 0.54581 0.19823 0.55869 0.0
N338 N 0.56662 0.22852 0.57413 0.0
C339 C 0.51019 0.24862 0.6119 0.0
C340 C 0.50536 0.19416 0.56657 0.0
C341 C 0.55031 0.25094 0.60343 0.0
C342 C 0.48726 0.22102 0.59226 0.0
C343 C 0.54668 0.13403 0.52699 0.0
C344 C 0.5662 0.16831 0.53953 0.0
C345 C 0.50574 0.1317 0.53128 0.0
C346 C 0.48511 0.16171 0.55119 0.0
Tb347 Tb 0.63147 0.23029 0.55615 0.0
N348 N 0.6058 0.1715 0.53618 0.0
C349 C 0.56916 0.10222 0.51279 0.0
C350 C 0.62801 0.13976 0.52455 0.0
C351 C 0.61007 0.1046 0.51297 0.0
H352 H 0.56827 0.27036 0.62074 0.0
H353 H 0.6278 0.07953 0.50375 0.0
H354 H 0.73059 0.26863 0.42626 0.0
H355 H 0.65934 0.45189 0.56076 0.0
H356 H 0.65965 0.14137 0.52477 0.0
H357 H 0.55537 0.07513 0.50332 0.0
H358 H 0.62855 0.39527 0.52691 0.0
H359 H 0.4972 0.26748 0.6342 0.0
H360 H 0.49006 0.10593 0.52115 0.0
H361 H 0.45388 0.15848 0.55632 0.0
H362 H 0.80185 0.27235 0.42081 0.0
H363 H 0.45632 0.21876 0.59934 0.0
H364 H 0.73162 0.45882 0.55986 0.0
N365 N 0.72543 0.31486 0.4691 0.0
C366 C 0.74452 0.34554 0.48634 0.0
C367 C 0.7862 0.29256 0.44009 0.0
C368 C 0.78557 0.34948 0.48281 0.0
C369 C 0.7455 0.28986 0.44432 0.0
C370 C 0.80643 0.3221 0.45987 0.0
N371 N 0.68314 0.37014 0.50858 0.0
C372 C 0.66013 0.39829 0.5265 0.0
C373 C 0.74142 0.40611 0.52487 0.0
C374 C 0.72274 0.37415 0.50644 0.0
C375 C 0.71829 0.43403 0.54502 0.0
C376 C 0.67746 0.43022 0.54562 0.0
H377 H 0.83795 0.32426 0.45625 0.0
H378 H 0.83596 0.38432 0.49933 0.0
H379 H 0.79739 0.43359 0.53643 0.0
O380 O 0.6298 0.36716 0.451 0.0
O381 O 0.67273 0.32111 0.5389 0.0
O382 O 0.68962 0.2583 0.55572 0.0
O383 O 0.67073 0.3313 0.41745 0.0
O384 O 0.60114 0.32202 0.50545 0.0
O385 O 0.60908 0.29148 0.56607 0.0
O386 O 0.65692 0.18254 0.58697 0.0
O387 O 0.60642 0.22294 0.49527 0.0
O388 O 0.60332 0.28621 0.46926 0.0
O389 O 0.63829 0.23502 0.61738 0.0
O390 O 0.68418 0.22736 0.51975 0.0
O391 O 0.67327 0.25391 0.45914 0.0
C392 C 0.69533 0.29647 0.55798 0.0
C393 C 0.64038 0.38649 0.3823 0.0
C394 C 0.60752 0.44131 0.34787 0.0
C395 C 0.62257 0.4265 0.31232 0.0
C396 C 0.65672 0.37408 0.3464 0.0
C397 C 0.64739 0.39359 0.31169 0.0
C398 C 0.61632 0.421 0.38313 0.0
C399 C 0.58967 0.31523 0.5419 0.0
C400 C 0.6467 0.36131 0.41743 0.0
C401 C 0.80441 0.38109 0.50145 0.0
C402 C 0.78242 0.40923 0.52253 0.0
C403 C 0.59675 0.24832 0.46676 0.0
C404 C 0.64124 0.17551 0.65394 0.0
C405 C 0.65768 0.13927 0.7138 0.0
C406 C 0.61737 0.13357 0.72046 0.0
C407 C 0.60131 0.16839 0.66055 0.0
C408 C 0.66949 0.16027 0.6802 0.0
C409 C 0.5895 0.1475 0.69377 0.0
C410 C 0.68417 0.22362 0.48163 0.0
C411 C 0.65403 0.19991 0.62073 0.0
H412 H 0.61552 0.44076 0.28487 0.0
H413 H 0.67617 0.34862 0.34491 0.0
H414 H 0.65933 0.38301 0.28408 0.0
H415 H 0.604 0.4315 0.41063 0.0
H416 H 0.60739 0.11829 0.74641 0.0
H417 H 0.57931 0.1794 0.64042 0.0
H418 H 0.70041 0.16577 0.67515 0.0
H419 H 0.5586 0.14252 0.69913 0.0
Tb420 Tb 0.05851 0.37859 0.81377 0.0
C421 C 0.95971 0.49263 0.70791 0.0
N422 N 0.94777 0.46729 0.73651 0.0
C423 C 0.90359 0.51719 0.76157 0.0
C424 C 0.94589 0.53212 0.70673 0.0
C425 C 0.91757 0.47814 0.76101 0.0
C426 C 0.91866 0.54462 0.73504 0.0
C427 C 0.99097 0.5017 0.64442 0.0
C428 C 0.98184 0.47766 0.67694 0.0
C429 C 0.97984 0.54178 0.64465 0.0
C430 C 0.95744 0.55701 0.67584 0.0
Tb431 Tb 0.9735 0.40444 0.73182 0.0
N432 N 0.99195 0.43867 0.67736 0.0
C433 C 1.00953 0.48431 0.61195 0.0
C434 C 1.00854 0.42134 0.64509 0.0
C435 C 0.01827 0.44391 0.6124 0.0
H436 H 0.90469 0.45692 0.78088 0.0
H437 H 0.03236 0.4298 0.5878 0.0
H438 H 0.0952 0.29901 0.76304 0.0
H439 H 1.00781 0.39638 0.96167 0.0
H440 H 1.01472 0.39028 0.64495 0.0
H441 H 1.01627 0.5016 0.58611 0.0
H442 H 0.01824 0.41761 0.89287 0.0
H443 H 0.88092 0.52601 0.78222 0.0
H444 H 0.98713 0.56085 0.62018 0.0
H445 H 0.94757 0.58757 0.6748 0.0
H446 H 0.10566 0.22969 0.77617 0.0
H447 H 0.90732 0.57468 0.73515 0.0
H448 H 0.02162 0.32701 0.98083 0.0
N449 N 0.06697 0.3115 0.81816 0.0
C450 C 0.05901 0.29683 0.85461 0.0
C451 C 0.09202 0.24793 0.79833 0.0
C452 C 0.06722 0.25694 0.86405 0.0
C453 C 0.08471 0.28781 0.7906 0.0
C454 C 0.08316 0.23227 0.83507 0.0
N455 N 0.03655 0.36049 0.87362 0.0
C456 C 0.0234 0.38708 0.90098 0.0
C457 C 0.03881 0.30893 0.92218 0.0
C458 C 0.04443 0.32232 0.88341 0.0
C459 C 0.02588 0.33607 0.95063 0.0
C460 C 1.01791 0.37526 0.93992 0.0
H461 H 0.0899 0.20147 0.84112 0.0
H462 H 0.06701 0.21275 0.91014 0.0
H463 H 0.04252 0.25834 0.96106 0.0
O464 O 0.08731 0.4139 0.85566 0.0
O465 O 0.99752 0.3612 0.8246 0.0
O466 O 0.97546 0.34705 0.76287 0.0
O467 O 0.11832 0.36594 0.82567 0.0
O468 O 0.03016 0.43701 0.81669 0.0
O469 O 0.9683 0.42459 0.79312 0.0
O470 O 0.94586 0.37987 0.68229 0.0
O471 O 0.03322 0.43043 0.71932 0.0
O472 O 0.07316 0.42592 0.77499 0.0
O473 O 0.91243 0.39471 0.73353 0.0
O474 O 1.00889 0.35062 0.72736 0.0
O475 O 0.07066 0.36093 0.75126 0.0
C476 C 0.97531 0.34055 0.80096 0.0
C477 C 0.15537 0.40351 0.87428 0.0
C478 C 0.18803 0.43566 0.92974 0.0
C479 C 0.22414 0.42885 0.91068 0.0
C480 C 0.19211 0.39497 0.85757 0.0
C481 C 0.22622 0.40774 0.87567 0.0
C482 C 0.1533 0.42337 0.91087 0.0
C483 C 0.99344 0.44769 0.811 0.0
C484 C 0.11982 0.39416 0.85167 0.0
C485 C 0.06063 0.24323 0.90241 0.0
C486 C 0.04675 0.26921 0.93144 0.0
C487 C 0.06499 0.4396 0.74009 0.0
C488 C 0.87885 0.39571 0.67277 0.0
C489 C 0.81948 0.38289 0.63458 0.0
C490 C 0.81583 0.42374 0.6275 0.0
C491 C 0.87465 0.43621 0.66484 0.0
C492 C 0.85139 0.36895 0.65719 0.0
C493 C 0.84333 0.45007 0.64231 0.0
C494 C 0.04694 0.34905 0.72268 0.0
C495 C 0.91108 0.38109 0.69787 0.0
H496 H 0.2511 0.4396 0.92301 0.0
H497 H 0.19443 0.37966 0.82971 0.0
H498 H 0.25448 0.4017 0.86236 0.0
H499 H 0.12496 0.42983 0.92409 0.0
H500 H 0.79158 0.43534 0.61039 0.0
H501 H 0.89532 0.45719 0.67626 0.0
H502 H 0.8543 0.33762 0.66345 0.0
H503 H 0.84018 0.48143 0.63654 0.0
Tb504 Tb 0.86968 0.7188 0.98588 0.0
C505 C 0.9936 0.8281 0.06914 0.0
N506 N 0.96867 0.80087 0.08444 0.0
C507 C 0.01966 0.77678 0.1269 0.0
C508 C 0.03322 0.82936 0.08096 0.0
C509 C 0.98052 0.77705 0.11473 0.0
C510 C 0.04631 0.80252 0.10944 0.0
C511 C 1.0035 0.88636 0.02855 0.0
C512 C 0.9789 0.85648 0.0433 0.0
C513 C 0.04328 0.88669 0.03913 0.0
C514 C 0.05812 0.85821 0.06516 0.0
Tb515 Tb 0.90601 0.80541 0.0612 0.0
N516 N 0.94027 0.85543 0.03341 0.0
C517 C 0.98716 0.91552 1.00426 0.0
C518 C 0.92403 0.88417 1.01038 0.0
C519 C 0.94719 0.91459 0.99557 0.0
H520 H 0.95996 0.7579 0.12949 0.0
H521 H 0.93414 0.93724 0.97744 0.0
H522 H 0.80299 0.75644 0.92481 0.0
H523 H 0.86787 0.58706 0.07457 0.0
H524 H 0.89354 0.88313 1.00292 0.0
H525 H 1.00499 0.93916 0.99256 0.0
H526 H 0.8988 0.64323 0.03968 0.0
H527 H 0.02917 0.75695 0.14999 0.0
H528 H 0.06267 0.90927 0.02787 0.0
H529 H 0.08871 0.85938 0.07367 0.0
H530 H 0.73216 0.74955 0.91349 0.0
H531 H 0.07656 0.80244 0.11916 0.0
H532 H 0.79578 0.57894 0.07226 0.0
N533 N 0.80421 0.71613 0.97291 0.0
C534 C 0.78422 0.68793 0.9929 0.0
C535 C 0.74611 0.73293 0.93676 0.0
C536 C 0.74381 0.6822 0.98662 0.0
C537 C 0.78624 0.7372 0.9437 0.0
C538 C 0.72456 0.70595 0.95892 0.0
N539 N 0.8443 0.66796 0.02123 0.0
C540 C 0.86723 0.64011 0.0395 0.0
C541 C 0.78623 0.63075 0.03596 0.0
C542 C 0.80505 0.66261 1.01741 0.0
C543 C 0.8091 0.60393 0.05764 0.0
C544 C 0.84984 0.60836 0.05899 0.0
H545 H 0.69355 0.70234 0.95306 0.0
H546 H 0.69336 0.64686 1.00222 0.0
H547 H 0.73058 0.60144 0.0448 0.0
O548 O 0.91319 0.6812 0.96054 0.0
O549 O 0.85939 0.71701 0.04878 0.0
O550 O 0.84719 0.77996 0.06884 0.0
O551 O 0.85526 0.68453 0.93653 0.0
O552 O 0.93032 0.71838 1.00843 0.0
O553 O 0.92252 0.74408 0.07052 0.0
O554 O 0.8915 0.86014 0.08772 0.0
O555 O 0.9331 0.80352 0.99984 0.0
O556 O 0.8918 0.76995 0.95666 0.0
O557 O 0.89827 0.80716 0.12241 0.0
O558 O 0.84936 0.81372 0.03407 0.0
O559 O 0.84629 0.78118 0.97449 0.0
C560 C 0.83735 0.74269 0.06709 0.0
C561 C 0.90453 0.65589 0.89539 0.0
C562 C 0.93297 0.60497 0.85184 0.0
C563 C 0.92603 0.63038 0.81981 0.0
C564 C 0.89888 0.6808 0.86298 0.0
C565 C 0.90947 0.66797 0.82543 0.0
C566 C 0.92163 0.61794 0.88971 0.0
C567 C 0.94181 0.72236 0.04501 0.0
C568 C 0.88929 0.66704 0.93459 0.0
C569 C 0.72444 0.65166 1.00657 0.0
C570 C 0.74565 0.62582 0.03094 0.0
C571 C 0.92189 0.79278 0.96369 0.0
C572 C 0.89933 0.86816 0.15688 0.0
C573 C 0.87927 0.90365 0.21645 0.0
C574 C 0.91903 0.90903 0.22552 0.0
C575 C 0.9388 0.8739 0.16646 0.0
C576 C 0.8695 0.88325 0.18186 0.0
C577 C 0.94852 0.89436 0.20064 0.0
C578 C 0.83941 0.81296 0.99729 0.0
C579 C 0.88832 0.84449 0.1225 0.0
H580 H 0.93302 0.62102 0.79018 0.0
H581 H 0.88546 0.70977 0.86661 0.0
H582 H 0.90437 0.68707 0.80042 0.0
H583 H 0.92583 0.5985 0.91468 0.0
H584 H 0.92724 0.92439 0.25212 0.0
H585 H 0.96197 0.86222 0.14781 0.0
H586 H 0.83889 0.87839 0.17488 0.0
H587 H 0.97905 0.89852 0.20811 0.0
Tb588 Tb 0.47576 0.66534 0.31815 0.0
C589 C 0.56706 0.55076 0.19667 0.0
N590 N 0.57739 0.57112 0.22944 0.0
C591 C 0.61854 0.51684 0.24961 0.0
C592 C 0.58004 0.51146 0.19062 0.0
C593 C 0.60527 0.55578 0.25406 0.0
C594 C 0.60488 0.49409 0.21845 0.0
C595 C 0.54027 0.55212 0.13068 0.0
C596 C 0.54756 0.57089 0.16686 0.0
C597 C 0.55077 0.51216 0.12571 0.0
C598 C 0.57041 0.4918 0.1557 0.0
Tb599 Tb 0.55539 0.63509 0.2314 0.0
N600 N 0.53749 0.60945 0.1726 0.0
C601 C 0.52264 0.57414 0.10057 0.0
C602 C 0.52188 0.63143 0.14286 0.0
C603 C 0.51356 0.61405 0.10666 0.0
H604 H 0.61805 0.57363 0.27688 0.0
H605 H 0.50095 0.63164 0.08324 0.0
H606 H 0.42832 0.74052 0.26968 0.0
H607 H 0.55218 0.66077 0.45531 0.0
H608 H 0.51772 0.66269 0.14646 0.0
H609 H 0.5164 0.56076 0.07241 0.0
H610 H 0.5266 0.63269 0.39341 0.0
H611 H 0.6401 0.50484 0.2697 0.0
H612 H 0.54462 0.49699 0.09843 0.0
H613 H 0.57961 0.46141 0.15087 0.0
H614 H 0.42375 0.81202 0.27581 0.0
H615 H 0.61577 0.4641 0.21467 0.0
H616 H 0.54675 0.73279 0.46759 0.0
N617 N 0.46842 0.73286 0.31766 0.0
C618 C 0.48433 0.75092 0.3496 0.0
C619 C 0.44148 0.79528 0.29637 0.0
C620 C 0.48002 0.79205 0.35552 0.0
C621 C 0.44534 0.7543 0.29234 0.0
C622 C 0.45923 0.81433 0.32781 0.0
N623 N 0.50848 0.68859 0.37081 0.0
C624 C 0.52483 0.66425 0.39849 0.0
C625 C 0.51816 0.7452 0.41219 0.0
C626 C 0.50383 0.72796 0.37752 0.0
C627 C 0.5357 0.72065 0.4404 0.0
C628 C 0.539 0.67999 0.43353 0.0
H629 H 0.45548 0.84601 0.33122 0.0
H630 H 0.4924 0.84108 0.39438 0.0
H631 H 0.52537 0.80004 0.4441 0.0
O632 O 0.45345 0.63128 0.36498 0.0
O633 O 0.53898 0.67859 0.32152 0.0
O634 O 0.55399 0.69371 0.25873 0.0
O635 O 0.42068 0.68093 0.3428 0.0
O636 O 0.50047 0.605 0.31883 0.0
O637 O 0.56198 0.61432 0.2921 0.0
O638 O 0.58616 0.66125 0.18463 0.0
O639 O 0.4965 0.60575 0.22441 0.0
O640 O 0.45302 0.62477 0.27532 0.0
O641 O 0.61657 0.64167 0.2365 0.0
O642 O 0.51901 0.68819 0.23019 0.0
O643 O 0.45785 0.6813 0.25624 0.0
C644 C 0.55756 0.70084 0.2963 0.0
C645 C 0.38637 0.63545 0.38495 0.0
C646 C 0.35132 0.60441 0.43988 0.0
C647 C 0.31672 0.60597 0.41758 0.0
C648 C 0.35138 0.63656 0.36338 0.0
C649 C 0.31677 0.62199 0.37977 0.0
C650 C 0.38614 0.61951 0.42342 0.0
C651 C 0.53649 0.59262 0.31132 0.0
C652 C 0.42267 0.65362 0.36967 0.0
C653 C 0.4955 0.80955 0.38941 0.0
C654 C 0.51422 0.78617 0.4178 0.0
C655 C 0.46189 0.60455 0.24339 0.0
C656 C 0.65271 0.64342 0.17699 0.0
C657 C 0.71267 0.65778 0.1408 0.0
C658 C 0.71716 0.61735 0.13242 0.0
C659 C 0.65726 0.60324 0.16764 0.0
C660 C 0.68019 0.67083 0.16292 0.0
C661 C 0.68931 0.59033 0.14534 0.0
C662 C 0.48106 0.6894 0.22582 0.0
C663 C 0.62 0.6574 0.20171 0.0
H664 H 0.28948 0.59489 0.42958 0.0
H665 H 0.35067 0.64911 0.33413 0.0
H666 H 0.28978 0.62323 0.36314 0.0
H667 H 0.41295 0.61891 0.44048 0.0
H668 H 0.74236 0.6067 0.116 0.0
H669 H 0.63648 0.58177 0.17782 0.0
H670 H 0.67685 0.70199 0.16991 0.0
H671 H 0.69283 0.55923 0.13848 0.0
Tb672 Tb 0.29648 0.46918 0.11778 0.0
C673 C 0.21186 0.58857 0.23923 0.0
N674 N 0.19689 0.56014 0.21542 0.0
C675 C 0.14717 0.54578 0.26331 0.0
C676 C 0.19564 0.59568 0.27677 0.0
C677 C 0.16412 0.53974 0.22636 0.0
C678 C 0.16314 0.57364 0.28874 0.0
C679 C 0.25769 0.64242 0.24904 0.0
C680 C 0.24191 0.61252 0.2251 0.0
C681 C 0.24252 0.64846 0.28695 0.0
C682 C 0.2114 0.62539 0.30064 0.0
Tb683 Tb 0.22425 0.55823 0.15447 0.0
N684 N 0.25534 0.60689 0.18782 0.0
C685 C 0.28828 0.66542 0.23413 0.0
C686 C 0.28416 0.6302 0.17272 0.0
C687 C 0.3017 0.65903 0.19586 0.0
H688 H 0.15049 0.51917 0.20644 0.0
H689 H 0.32598 0.67574 0.18424 0.0
H690 H 0.36317 0.50753 0.05702 0.0
H691 H 0.21136 0.33699 0.10669 0.0
H692 H 0.29516 0.62507 0.14381 0.0
H693 H 0.30182 0.68799 0.25197 0.0
H694 H 0.24304 0.39309 0.14074 0.0
H695 H 0.12149 0.52927 0.27197 0.0
H696 H 0.25426 0.67133 0.3057 0.0
H697 H 0.19941 0.63109 0.32962 0.0
H698 H 0.38157 0.50094 0.9875 0.0
H699 H 0.14969 0.57847 0.31722 0.0
H700 H 0.22033 0.3289 0.035 0.0
N701 N 0.31553 0.46711 0.05343 0.0
C702 C 0.29824 0.43867 0.03142 0.0
C703 C 0.35773 0.4836 0.99932 0.0
C704 C 0.31028 0.43151 0.99242 0.0
C705 C 0.34637 0.48808 0.03853 0.0
C706 C 0.33938 0.45539 0.97602 0.0
N707 N 0.26388 0.41911 0.0882 0.0
C708 C 0.24489 0.39064 0.10925 0.0
C709 C 0.25633 0.38105 0.02913 0.0
C710 C 0.27167 0.41369 0.0495 0.0
C711 C 0.23282 0.35424 0.04966 0.0
C712 C 0.22767 0.35868 0.09012 0.0
H713 H 0.34914 0.45105 0.94601 0.0
H714 H 0.30402 0.39302 0.94205 0.0
H715 H 0.25581 0.34967 0.97371 0.0
O716 O 0.32373 0.43756 0.16445 0.0
O717 O 0.23296 0.468 0.10895 0.0
O718 O 0.21786 0.53164 0.09599 0.0
O719 O 0.34238 0.42933 0.10493 0.0
O720 O 0.27086 0.46521 0.17746 0.0
O721 O 0.21137 0.49847 0.17392 0.0
O722 O 0.20108 0.61446 0.14068 0.0
O723 O 0.28318 0.55015 0.1846 0.0
O724 O 0.32493 0.521 0.13906 0.0
O725 O 0.16375 0.56307 0.14382 0.0
O726 O 0.25119 0.56486 0.09717 0.0
O727 O 0.31022 0.53148 0.09592 0.0
C728 C 0.21486 0.49412 0.08732 0.0
C729 C 0.38629 0.40591 0.15364 0.0
C730 C 0.42899 0.3568 0.18547 0.0
C731 C 0.46183 0.37775 0.17192 0.0
C732 C 0.41952 0.42469 0.13851 0.0
C733 C 0.45707 0.41135 0.1485 0.0
C734 C 0.39115 0.37179 0.17701 0.0
C735 C 0.23602 0.47468 0.19198 0.0
C736 C 0.34653 0.41764 0.14087 0.0
C737 C 0.29462 0.39937 0.97183 0.0
C738 C 0.26718 0.37464 0.98987 0.0
C739 C 0.31908 0.53944 0.17233 0.0
C740 C 0.13248 0.62549 0.14911 0.0
C741 C 0.07024 0.65788 0.13325 0.0
C742 C 0.06629 0.66915 0.1728 0.0
C743 C 0.12834 0.63745 0.18825 0.0
C744 C 0.10358 0.63608 0.12153 0.0
C745 C 0.09529 0.65915 0.20001 0.0
C746 C 0.2882 0.56358 0.08785 0.0
C747 C 0.16568 0.60081 0.13618 0.0
H748 H 0.49125 0.36716 0.17796 0.0
H749 H 0.41632 0.44879 0.11793 0.0
H750 H 0.48261 0.42628 0.13696 0.0
H751 H 0.36548 0.35614 0.18736 0.0
H752 H 0.04083 0.68596 0.18257 0.0
H753 H 0.15038 0.62997 0.2097 0.0
H754 H 0.1066 0.62664 0.09123 0.0
H755 H 0.09205 0.66812 0.23035 0.0
Tb756 Tb 0.71941 0.98452 0.87078 0.0
C757 C 0.85009 0.04702 0.98514 0.0
N758 N 0.81596 0.06235 0.97127 0.0
C759 C 0.79935 0.08602 0.03571 0.0
C760 C 0.85924 0.0486 0.02543 0.0
C761 C 0.79184 0.08379 0.99548 0.0
C762 C 0.83279 0.06753 0.05095 0.0
C763 C 0.9147 1.02018 0.97091 0.0
C764 C 0.87736 0.033 0.95827 0.0
C765 C 0.92304 1.01903 1.01128 0.0
C766 C 0.89533 0.03323 0.03851 0.0
Tb767 Tb 0.80648 0.05668 0.90528 0.0
N768 N 0.86854 0.03557 0.91951 0.0
C769 C 0.94312 1.01091 0.94252 0.0
C770 C 0.89687 0.02919 0.89184 0.0
C771 C 0.9344 1.01627 0.90286 0.0
H772 H 0.76754 0.10046 0.98395 0.0
H773 H 0.95668 1.01099 0.88077 0.0
H774 H 0.75907 0.92341 0.80397 0.0
H775 H 0.59142 0.07861 0.86608 0.0
H776 H 0.89086 0.03518 0.86139 0.0
H777 H 0.9723 1.00116 0.95094 0.0
H778 H 0.6466 0.04287 0.89786 0.0
H779 H 0.77979 0.1027 0.05475 0.0
H780 H 0.95139 1.0087 0.02162 0.0
H781 H 0.90273 0.03372 0.06941 0.0
H782 H 0.75358 0.91254 0.73295 0.0
H783 H 0.83887 0.06976 0.08205 0.0
H784 H 0.58265 0.07404 0.79425 0.0
N785 N 0.71779 0.97139 0.8051 0.0
C786 C 0.68999 0.99165 0.7846 0.0
C787 C 0.73591 0.9353 0.747 0.0
C788 C 0.68457 0.98505 0.74416 0.0
C789 C 0.73957 0.94226 0.78726 0.0
C790 C 0.70858 0.95707 0.72524 0.0
N791 N 0.67044 0.02166 0.84396 0.0
C792 C 0.64347 0.04185 0.86633 0.0
C793 C 0.63381 0.03637 0.78549 0.0
C794 C 0.66509 1.01719 0.80481 0.0
C795 C 0.60746 0.05928 0.80783 0.0
C796 C 0.61219 0.06182 0.84847 0.0
H797 H 0.70536 0.95115 0.69417 0.0
H798 H 0.65005 1.00095 0.69313 0.0
H799 H 0.60522 0.04533 0.72943 0.0
O800 O 0.68053 0.96217 0.91358 0.0
O801 O 0.72095 0.04755 0.85898 0.0
O802 O 0.78433 0.06023 0.84442 0.0
O803 O 0.68547 0.93462 0.85703 0.0
O804 O 0.71444 1.0106 0.93029 0.0
O805 O 0.74661 0.06966 0.92363 0.0
O806 O 0.85005 0.1008 0.89309 0.0
O807 O 0.79736 0.99934 0.93969 0.0
O808 O 0.76924 0.95629 0.89539 0.0
O809 O 0.78875 0.11539 0.90617 0.0
O810 O 0.81653 0.02565 0.85032 0.0
O811 O 0.7823 0.96681 0.85276 0.0
C812 C 0.7469 0.06328 0.8359 0.0
C813 C 0.65624 0.89676 0.90823 0.0
C814 C 0.60568 0.85591 0.9394 0.0
C815 C 0.63203 0.82359 0.93799 0.0
C816 C 0.68183 0.86414 0.90724 0.0
C817 C 0.66967 0.8278 0.92215 0.0
C818 C 0.61836 0.89268 0.92463 0.0
C819 C 0.72034 0.04755 0.94094 0.0
C820 C 0.66718 0.93487 0.89057 0.0
C821 C 0.65454 1.00548 0.72427 0.0
C822 C 0.62905 0.03087 0.74493 0.0
C823 C 0.78574 0.96305 0.92911 0.0
C824 C 0.82887 0.1714 0.88994 0.0
C825 C 0.86399 0.22781 0.8621 0.0
C826 C 0.83144 0.25213 0.87081 0.0
C827 C 0.79734 0.19702 0.89912 0.0
C828 C 0.86273 0.18708 0.87152 0.0
C829 C 0.79862 0.23692 0.8895 0.0
C830 C 0.81478 0.98755 0.84427 0.0
C831 C 0.82304 0.12833 0.89539 0.0
H832 H 0.62342 0.79481 0.94876 0.0
H833 H 0.71096 0.86668 0.89466 0.0
H834 H 0.68939 0.80263 0.92116 0.0
H835 H 0.59891 0.91822 0.92587 0.0
H836 H 0.83197 0.28348 0.86408 0.0
H837 H 0.77101 0.18612 0.91311 0.0
H838 H 0.8875 0.16799 0.86443 0.0
H839 H 0.774 0.25615 0.89656 0.0
Tb840 Tb 0.7254 0.97072 0.41342 0.0
C841 C 0.82223 0.08766 0.30232 0.0
N842 N 0.83457 0.05707 0.32536 0.0
C843 C 0.88044 0.03696 0.2752 0.0
C844 C 0.83646 0.09209 0.2636 0.0
C845 C 0.86544 0.0337 0.31333 0.0
C846 C 0.86493 0.06538 0.24977 0.0
C847 C 0.79074 0.15236 0.29787 0.0
C848 C 0.79997 0.11782 0.31936 0.0
C849 C 0.80139 0.1548 0.25814 0.0
C850 C 0.82431 0.12475 0.24104 0.0
Tb851 Tb 0.80875 0.05695 0.3876 0.0
N852 N 0.79082 0.11499 0.35813 0.0
C853 C 0.77343 0.18445 0.3176 0.0
C854 C 0.77661 0.14719 0.37792 0.0
C855 C 0.76753 0.18229 0.35808 0.0
H856 H 0.87841 1.01211 0.33291 0.0
H857 H 0.7558 0.2075 0.37401 0.0
H858 H 0.67492 0.02483 0.48276 0.0
H859 H 0.77462 0.82033 0.42212 0.0
H860 H 0.77332 0.14621 0.40902 0.0
H861 H 0.76622 0.21161 0.30223 0.0
H862 H 0.75738 0.88288 0.38892 0.0
H863 H 0.90397 1.01751 0.26546 0.0
H864 H 0.79394 0.1808 0.241 0.0
H865 H 0.83435 0.12818 0.21103 0.0
H866 H 0.67037 0.02643 0.55379 0.0
H867 H 0.87681 0.06797 0.22035 0.0
H868 H 0.77537 0.81731 0.49467 0.0
N869 N 0.71687 0.97689 0.48043 0.0
C870 C 0.73162 0.94589 0.50158 0.0
C871 C 0.68863 1.00421 0.53963 0.0
C872 C 0.72671 0.94394 0.54275 0.0
C873 C 0.69276 1.00399 0.49884 0.0
C874 C 0.70639 0.97451 0.56181 0.0
N875 N 0.74994 0.91528 0.4419 0.0
C876 C 0.75849 0.88208 0.42051 0.0
C877 C 0.75768 0.87863 0.50189 0.0
C878 C 0.74757 0.91365 0.4816 0.0
C879 C 0.76812 0.84494 0.48017 0.0
C880 C 0.76773 0.84648 0.43925 0.0
H881 H 0.702 0.97405 0.59333 0.0
H882 H 0.73614 0.90843 0.59491 0.0
H883 H 0.76273 0.85107 0.55903 0.0
O884 O 0.70014 0.92644 0.37847 0.0
O885 O 0.78775 0.96049 0.42516 0.0
O886 O 0.80595 0.0226 0.44252 0.0
O887 O 0.66829 0.95081 0.42724 0.0
O888 O 0.75526 0.96528 0.35603 0.0
O889 O 0.81512 0.99702 0.36291 0.0
O890 O 0.83679 0.10446 0.41589 0.0
O891 O 0.74977 0.06697 0.35892 0.0
O892 O 0.7094 1.01131 0.3676 0.0
O893 O 0.8697 0.05321 0.39814 0.0
O894 O 0.77137 0.05628 0.43965 0.0
O895 O 0.71007 0.03385 0.42688 0.0
C896 C 0.81072 0.9841 0.44489 0.0
C897 C 0.63232 0.91214 0.38067 0.0
C898 C 0.59375 0.85934 0.35071 0.0
C899 C 0.56165 0.88568 0.34864 0.0
C900 C 0.60001 0.93788 0.37799 0.0
C901 C 0.56496 0.92453 0.36188 0.0
C902 C 0.62922 0.87298 0.36668 0.0
C903 C 0.78996 0.97602 0.34237 0.0
C904 C 0.66892 0.92396 0.39994 0.0
C905 C 0.73965 0.91029 0.56334 0.0
C906 C 0.75478 0.87758 0.54292 0.0
C907 C 0.71796 0.0453 0.35108 0.0
C908 C 0.90399 0.1139 0.40071 0.0
C909 C 0.9654 0.14867 0.41422 0.0
C910 C 0.96655 0.1608 0.37477 0.0
C911 C 0.90602 0.12658 0.36159 0.0
C912 C 0.93365 0.12541 0.42724 0.0
C913 C 0.93707 0.14988 0.34877 0.0
C914 C 0.73349 0.06246 0.43899 0.0
C915 C 0.87148 0.08827 0.41382 0.0
H916 H 0.53377 0.8762 0.33691 0.0
H917 H 0.60177 0.96804 0.38855 0.0
H918 H 0.54009 0.9442 0.35968 0.0
H919 H 0.65448 0.85329 0.36822 0.0
H920 H 0.99039 0.1789 0.36405 0.0
H921 H 0.88371 0.1185 0.34087 0.0
H922 H 0.93245 0.11572 0.45754 0.0
H923 H 0.93836 0.15942 0.31847 0.0
Tb924 Tb 0.3143 0.47934 0.6641 0.0
C925 C 0.19987 0.56599 0.54742 0.0
N926 N 0.23052 0.58064 0.56798 0.0
C927 C 0.25151 0.61687 0.51127 0.0
C928 C 0.19529 0.5742 0.50713 0.0
C929 C 0.2545 0.60801 0.55126 0.0
C930 C 0.22243 0.599 0.48882 0.0
C931 C 0.13643 0.53434 0.54864 0.0
C932 C 0.17091 0.54614 0.56783 0.0
C933 C 0.13309 0.5396 0.50789 0.0
C934 C 0.16256 0.55944 0.48712 0.0
Tb935 Tb 0.23309 0.56287 0.63253 0.0
N936 N 0.17522 0.54149 0.60719 0.0
C937 C 0.1055 0.51982 0.57135 0.0
C938 C 0.14423 0.52989 0.62966 0.0
C939 C 0.1091 0.51846 0.61214 0.0
H940 H 0.27561 0.62353 0.56885 0.0
H941 H 0.08479 0.5091 0.63025 0.0
H942 H 0.27063 0.42977 0.73725 0.0
H943 H 0.45371 0.55171 0.652 0.0
H944 H 0.14598 0.531 0.66118 0.0
H945 H 0.07826 0.5112 0.55773 0.0
H946 H 0.38735 0.53316 0.63003 0.0
H947 H 0.2712 0.63796 0.49796 0.0
H948 H 0.10709 0.53001 0.49248 0.0
H949 H 0.15883 0.5649 0.45601 0.0
H950 H 0.28838 0.40756 0.80315 0.0
H951 H 0.21981 0.60631 0.45798 0.0
H952 H 0.47773 0.52963 0.71698 0.0
N953 N 0.32427 0.46056 0.72747 0.0
C954 C 0.36084 0.4679 0.74129 0.0
C955 C 0.30875 0.42522 0.78645 0.0
C956 C 0.37245 0.45512 0.77888 0.0
C957 C 0.29851 0.43861 0.74904 0.0
C958 C 0.34573 0.43376 0.80163 0.0
N959 N 0.37331 0.50299 0.68295 0.0
C960 C 0.39731 0.52408 0.65869 0.0
C961 C 0.42434 0.4984 0.7314 0.0
C962 C 0.38661 0.48888 0.71774 0.0
C963 C 0.44859 0.52148 0.70748 0.0
C964 C 0.43503 0.53426 0.6709 0.0
H965 H 0.35354 0.42322 0.83062 0.0
H966 H 0.41971 0.45441 0.82129 0.0
H967 H 0.46501 0.4926 0.77985 0.0
O968 O 0.34795 0.45283 0.61863 0.0
O969 O 0.32206 0.53997 0.68561 0.0
O970 O 0.25886 0.56303 0.69196 0.0
O971 O 0.33299 0.42 0.67173 0.0
O972 O 0.31875 0.50732 0.60605 0.0
O973 O 0.2955 0.57011 0.61776 0.0
O974 O 0.18611 0.59699 0.65444 0.0
O975 O 0.23583 0.50554 0.5966 0.0
O976 O 0.25895 0.46294 0.64246 0.0
O977 O 0.23875 0.62514 0.63433 0.0
O978 O 0.21773 0.53171 0.68652 0.0
O979 O 0.25087 0.47097 0.68558 0.0
C980 C 0.29564 0.56208 0.7036 0.0
C981 C 0.37467 0.38591 0.62406 0.0
C982 C 0.43508 0.3555 0.5986 0.0
C983 C 0.41799 0.31819 0.60296 0.0
C984 C 0.3585 0.34819 0.62848 0.0
C985 C 0.38012 0.3146 0.61794 0.0
C986 C 0.41322 0.38965 0.60895 0.0
C987 C 0.31546 0.54475 0.59597 0.0
C988 C 0.3524 0.42044 0.63883 0.0
C989 C 0.41026 0.46396 0.79245 0.0
C990 C 0.43613 0.48557 0.76878 0.0
C991 C 0.24663 0.46901 0.60721 0.0
C992 C 0.17955 0.66376 0.63661 0.0
C993 C 0.13984 0.72212 0.65322 0.0
C994 C 0.13219 0.72765 0.61308 0.0
C995 C 0.17111 0.66948 0.59681 0.0
C996 C 0.16341 0.68982 0.66487 0.0
C997 C 0.14753 0.70136 0.58517 0.0
C998 C 0.2198 0.49406 0.69546 0.0
C999 C 0.204 0.6303 0.64981 0.0
H1000 H 0.43416 0.29168 0.5949 0.0
H1001 H 0.32922 0.34469 0.6405 0.0
H1002 H 0.36785 0.28555 0.62186 0.0
H1003 H 0.42633 0.4186 0.60611 0.0
H1004 H 0.11419 0.75234 0.60335 0.0
H1005 H 0.18264 0.6494 0.57481 0.0
H1006 H 0.16974 0.68538 0.69575 0.0
H1007 H 0.14122 0.70582 0.55437 0.0
C1008 C 0.22566 0.35926 0.59171 0.0
C1009 C 0.21633 0.35615 0.55198 0.0
C1010 C 0.23638 0.39551 0.60806 0.0
C1011 C 0.23632 0.43147 0.58622 0.0
H1012 H 0.22335 0.33392 0.61093 0.0
H1013 H 0.24293 0.39521 0.63914 0.0
S1014 S 0.21839 0.43942 0.47968 0.0
N1015 N 0.21335 0.39188 0.48937 0.0
N1016 N 0.22869 0.46068 0.52197 0.0
C1017 C 0.22842 0.42878 0.54618 0.0
C1018 C 0.21981 0.39114 0.5287 0.0
C1019 C 0.87234 0.98751 0.79959 0.0
C1020 C 0.85264 0.96931 0.83101 0.0
C1021 C 0.91263 0.98121 0.7929 0.0
C1022 C 0.93519 0.9551 0.81637 0.0
H1023 H 0.85675 1.00829 0.78093 0.0
H1024 H 0.92588 0.99567 0.76781 0.0
S1025 S 0.90002 0.90597 0.90642 0.0
N1026 N 0.86084 0.92888 0.88908 0.0
N1027 N 0.93583 0.9149 0.87501 0.0
C1028 C 0.91644 0.9377 0.84852 0.0
C1029 C 0.87536 0.94486 0.85584 0.0
C1030 C 0.36265 0.64201 0.06041 0.0
C1031 C 0.34013 0.67756 0.05851 0.0
C1032 C 0.34587 0.60524 0.0686 0.0
C1033 C 0.30525 0.60152 0.07298 0.0
H1034 H 0.39403 0.6423 0.05518 0.0
H1035 H 0.36504 0.5797 0.07173 0.0
S1036 S 0.23202 0.68428 0.06422 0.0
N1037 N 0.27486 0.70609 0.05903 0.0
N1038 N 0.24202 0.63676 0.0702 0.0
C1039 C 0.28188 0.63651 0.06838 0.0
C1040 C 0.29952 0.67444 0.06236 0.0
C1041 C 0.61459 0.04827 0.30992 0.0
C1042 C 0.60351 0.08795 0.31449 0.0
C1043 C 0.65312 0.03562 0.3181 0.0
C1044 C 0.68242 0.06209 0.33131 0.0
H1045 H 0.59369 0.02706 0.29887 0.0
H1046 H 0.65972 1.00433 0.31511 0.0
S1047 S 0.66874 0.16996 0.34424 0.0
N1048 N 0.6254 0.15426 0.3298 0.0
N1049 N 0.69721 0.13029 0.34585 0.0
C1050 C 0.67191 0.10206 0.33412 0.0
C1051 C 0.63266 0.11492 0.32585 0.0
C1052 C 0.73249 0.16769 0.47989 0.0
C1053 C 0.69719 0.18424 0.46576 0.0
C1054 C 0.74274 0.12782 0.47303 0.0
C1055 C 0.71845 0.1025 0.45108 0.0
H1056 H 0.75221 0.18565 0.49709 0.0
H1057 H 0.77075 0.11718 0.48394 0.0
S1058 S 0.61703 0.12678 0.41979 0.0
N1059 N 0.63446 0.16907 0.43612 0.0
N1060 N 0.65347 0.09449 0.4237 0.0
C1061 C 0.68175 0.11758 0.4395 0.0
C1062 C 0.67147 0.15844 0.44613 0.0
C1063 C 0.12267 0.48326 0.74875 0.0
C1064 C 0.09989 0.45981 0.72322 0.0
C1065 C 0.16224 0.49184 0.74087 0.0
C1066 C 0.18148 0.47665 0.70754 0.0
H1067 H 0.11017 0.49373 0.77618 0.0
H1068 H 0.17792 0.51072 0.76103 0.0
S1069 S 0.13347 0.42101 0.62716 0.0
N1070 N 0.09848 0.42644 0.66043 0.0
N1071 N 0.1727 0.4418 0.64602 0.0
C1072 C 0.15872 0.45441 0.68109 0.0
C1073 C 0.118 0.44654 0.68862 0.0
C1074 C 0.79716 0.88951 0.92736 0.0
C1075 C 0.79769 0.92547 0.94924 0.0
C1076 C 0.8095 0.8533 0.94308 0.0
C1077 C 0.82074 0.85032 0.98227 0.0
H1078 H 0.7891 0.88923 0.89665 0.0
H1079 H 0.81083 0.82774 0.92402 0.0
S1080 S 0.81854 0.93327 0.05511 0.0
N1081 N 0.80649 0.9546 1.01325 0.0
N1082 N 0.82471 0.88585 0.04495 0.0
C1083 C 0.81727 0.8852 1.00582 0.0
C1084 C 0.80715 0.9228 0.98887 0.0
C1085 C 0.38859 0.59293 0.24197 0.0
C1086 C 0.42654 0.58508 0.22593 0.0
C1087 C 0.35421 0.57752 0.22548 0.0
C1088 C 0.35573 0.55409 0.19163 0.0
H1089 H 0.38487 0.61176 0.26745 0.0
H1090 H 0.32628 0.58448 0.23918 0.0
S1091 S 0.44732 0.52253 0.1394 0.0
N1092 N 0.46295 0.5499 0.17596 0.0
N1093 N 0.39918 0.52235 0.14346 0.0
C1094 C 0.39352 0.5453 0.17576 0.0
C1095 C 0.4285 0.56049 0.19312 0.0
C1096 C 0.53503 0.19661 0.39008 0.0
C1097 C 0.55263 0.20709 0.35363 0.0
C1098 C 0.54918 0.20961 0.42638 0.0
C1099 C 0.58135 0.23467 0.42817 0.0
H1100 H 0.51045 0.1769 0.39085 0.0
H1101 H 0.53497 0.19979 0.45313 0.0
S1102 S 0.63794 0.27245 0.34245 0.0
N1103 N 0.60332 0.24549 0.3224 0.0
N1104 N 0.63052 0.27006 0.39028 0.0
C1105 C 0.5985 0.24678 0.39213 0.0
C1106 C 0.58395 0.23326 0.35503 0.0
C1107 C 0.11777 0.32713 0.63797 0.0
C1108 C 0.09328 0.31488 0.60684 0.0
C1109 C 0.10294 0.33673 0.67538 0.0
C1110 C 0.06279 0.33387 0.68407 0.0
H1111 H 0.14913 0.32962 0.63336 0.0
H1112 H 0.12319 0.34731 0.69737 0.0
S1113 S 0.98669 0.29665 0.61512 0.0
N1114 N 0.0273 0.29691 0.58848 0.0
N1115 N 0.99923 0.31244 0.65917 0.0
C1116 C 0.03819 0.31896 0.65395 0.0
C1117 C 0.05331 0.31053 0.61526 0.0
C1118 C 0.99705 0.83301 0.89022 0.0
C1119 C 0.97616 0.83437 0.85404 0.0
C1120 C 0.97949 0.82112 0.92583 0.0
C1121 C 0.94025 0.80921 0.92708 0.0
H1122 H 0.02743 0.842 0.89149 0.0
H1123 H 0.99696 0.82072 0.95233 0.0
S1124 S 0.87177 0.80753 0.84199 0.0
N1125 N 0.91361 0.82269 0.82299 0.0
N1126 N 0.88055 0.8002 0.88885 0.0
C1127 C 0.91913 0.80979 0.89116 0.0
C1128 C 0.93704 0.82211 0.85505 0.0
C1129 C 0.43956 0.68329 0.16445 0.0
C1130 C 0.46676 0.70451 0.18707 0.0
C1131 C 0.43389 0.69182 0.12408 0.0
C1132 C 0.45518 0.72167 0.10451 0.0
H1133 H 0.42336 0.65929 0.17764 0.0
H1134 H 0.4112 0.67634 0.10897 0.0
S1135 S 0.52896 0.78667 0.15098 0.0
N1136 N 0.51428 0.7576 0.18693 0.0
N1137 N 0.5042 0.77273 0.11191 0.0
C1138 C 0.4824 0.74288 0.1271 0.0
C1139 C 0.48775 0.73475 0.16799 0.0
C1140 C 0.17929 0.3963 0.24653 0.0
C1141 C 0.17781 0.41082 0.28521 0.0
C1142 C 0.1998 0.41625 0.21693 0.0
C1143 C 0.22044 0.45101 0.22494 0.0
H1144 H 0.1628 0.37025 0.23866 0.0
H1145 H 0.19767 0.4054 0.18721 0.0
S1146 S 0.22837 0.50015 0.32182 0.0
N1147 N 0.20022 0.46148 0.33032 0.0
N1148 N 0.24005 0.49825 0.2747 0.0
C1149 C 0.22105 0.46487 0.26386 0.0
C1150 C 0.19961 0.44481 0.29406 0.0
C1151 C 0.87818 0.97161 0.5339 0.0
C1152 C 0.89099 0.93198 0.5303 0.0
C1153 C 0.85201 0.9885 0.50637 0.0
C1154 C 0.8383 0.96649 0.47406 0.0
H1155 H 0.88955 0.99007 0.55714 0.0
H1156 H 0.84299 1.01909 0.5101 0.0
S1157 S 0.86364 0.86174 0.45177 0.0
N1158 N 0.88534 0.87062 0.4939 0.0
N1159 N 0.84149 0.90357 0.43967 0.0
C1160 C 0.85087 0.92691 0.47061 0.0
C1161 C 0.87563 0.90935 0.49945 0.0
C1162 C 0.33954 0.56748 0.76246 0.0
C1163 C 0.30625 0.5809 0.74203 0.0
C1164 C 0.34785 0.57931 0.80073 0.0
C1165 C 0.32444 0.60748 0.81987 0.0
H1166 H 0.35955 0.54742 0.7492 0.0
H1167 H 0.37291 0.56618 0.81553 0.0
S1168 S 0.24009 0.66183 0.77647 0.0
N1169 N 0.25304 0.62956 0.74219 0.0
N1170 N 0.27048 0.65455 0.81359 0.0
C1171 C 0.29319 0.6248 0.79888 0.0
C1172 C 0.28372 0.61114 0.76009 0.0
C1173 C 0.64754 0.06584 0.02574 0.0
C1174 C 0.64283 0.10736 0.02527 0.0
C1175 C 0.67241 0.04631 0.99839 0.0
C1176 C 0.69328 0.06764 0.9696 0.0
H1177 H 0.63098 0.04829 0.04648 0.0
H1178 H 0.67515 1.01439 0.99969 0.0
S1179 S 0.69237 0.17722 0.95789 0.0
N1180 N 0.66348 0.16909 0.99588 0.0
N1181 N 0.70719 0.13311 0.9431 0.0
C1182 C 0.68901 0.10927 0.96954 0.0
C1183 C 0.66479 0.12889 0.99781 0.0
C1184 C 0.68135 0.13518 0.78288 0.0
C1185 C 0.6865 0.12462 0.74327 0.0
C1186 C 0.70375 0.11737 0.81249 0.0
C1187 C 0.73243 0.08854 0.80369 0.0
H1188 H 0.65859 0.15619 0.79123 0.0
H1189 H 0.69713 0.12472 0.84279 0.0
S1190 S 0.75835 0.05093 0.70478 0.0
N1191 N 0.72333 0.08413 0.69668 0.0
N1192 N 0.76574 0.05081 0.7527 0.0
C1193 C 0.73944 0.07903 0.76416 0.0
C1194 C 0.71638 0.09707 0.73382 0.0
C1195 C 0.22033 0.50076 1.0146 0.0
C1196 C 0.20278 0.48275 0.04729 0.0
C1197 C 0.21332 0.48692 0.97648 0.0
C1198 C 0.18822 0.45471 0.96942 0.0
H1199 H 0.24122 0.52437 1.01862 0.0
H1200 H 0.22889 0.50069 0.95238 0.0
S1201 S 0.13105 0.40125 0.04543 0.0
N1202 N 0.15649 0.43398 0.07048 0.0
N1203 N 0.1429 0.40787 0.99882 0.0
C1204 C 0.16847 0.43827 1.0019 0.0
C1205 C 0.17601 0.4522 0.04082 0.0
C1206 C 0.81033 0.9736 0.2714 0.0
C1207 C 0.80572 0.95424 0.30769 0.0
C1208 C 0.83216 0.95612 0.24057 0.0
C1209 C 0.84887 0.91811 0.24463 0.0
H1210 H 0.79889 1.00336 0.2676 0.0
H1211 H 0.83765 0.97319 0.21424 0.0
S1212 S 0.83853 0.85201 0.33064 0.0
N1213 N 0.8159 0.89334 0.34399 0.0
N1214 N 0.85448 0.85958 0.28543 0.0
C1215 C 0.84118 0.89709 0.2793 0.0
C1216 C 0.82001 0.91529 0.31094 0.0
C1217 C 0.34682 0.59574 0.5516 0.0
C1218 C 0.33149 0.55748 0.55708 0.0
C1219 C 0.35576 0.61024 0.51375 0.0
C1220 C 0.34999 0.58682 0.4801 0.0
H1221 H 0.34994 0.61533 0.57654 0.0
H1222 H 0.36508 0.64062 0.51064 0.0
S1223 S 0.31799 0.48244 0.47888 0.0
N1224 N 0.3162 0.49492 0.52571 0.0
N1225 N 0.33326 0.52204 0.4552 0.0
C1226 C 0.33788 0.54761 0.48556 0.0
C1227 C 0.32882 0.53288 0.52387 0.0
C1228 C 0.26917 0.25469 0.46289 0.0
C1229 C 0.23722 0.22923 0.45771 0.0
C1230 C 0.3074 0.24272 0.45278 0.0
C1231 C 0.31497 0.20513 0.43657 0.0
H1232 H 0.26485 0.2835 0.47625 0.0
H1233 H 0.33137 0.26277 0.45832 0.0
S1234 S 0.24068 0.12919 0.41333 0.0
N1235 N 0.21499 0.16609 0.43266 0.0
N1236 N 0.28695 0.14342 0.41366 0.0
C1237 C 0.28299 0.1801 0.4296 0.0
C1238 C 0.24409 0.19219 0.44023 0.0
C1239 C 0.04703 0.06613 0.70774 0.0
C1240 C 0.08241 0.07073 0.68675 0.0
C1241 C 0.0336 0.02862 0.71875 0.0
C1242 C 0.05539 0.99429 0.70972 0.0
H1243 H 0.0306 0.09196 0.71744 0.0
H1244 H 1.00715 0.02671 0.73639 0.0
S1245 S 0.14678 0.98944 0.6504 0.0
N1246 N 0.13682 0.03727 0.65393 0.0
N1247 N 0.1114 0.96664 0.6745 0.0
C1248 C 0.08938 0.99813 0.68653 0.0
C1249 C 0.10292 0.03638 0.67502 0.0
C1250 C 0.26053 0.86414 0.9383 0.0
C1251 C 0.22992 0.83718 0.93247 0.0
C1252 C 0.29826 0.85104 0.9497 0.0
C1253 C 0.30646 0.81066 0.95696 0.0
H1254 H 0.25478 0.89563 0.93598 0.0
H1255 H 0.32066 0.87297 0.95458 0.0
S1256 S 0.23832 0.72793 0.93702 0.0
N1257 N 0.21201 0.76817 0.92791 0.0
N1258 N 0.28206 0.74352 0.95042 0.0
C1259 C 0.27696 0.78332 0.94751 0.0
C1260 C 0.23883 0.79664 0.93538 0.0
C1261 C 0.45799 0.06761 0.16893 0.0
C1262 C 0.48475 0.05798 0.19879 0.0
C1263 C 0.43511 0.03853 0.15121 0.0
C1264 C 0.43781 0.99871 0.16291 0.0
H1265 H 0.45306 0.09826 0.16081 0.0
H1266 H 0.41373 0.04758 0.12944 0.0
S1267 S 0.50508 0.95801 0.23859 0.0
N1268 N 0.51444 1.00589 0.23799 0.0
N1269 N 0.47102 0.95086 0.20495 0.0
C1270 C 0.46615 0.9883 0.19121 0.0
C1271 C 0.48974 1.01808 0.20912 0.0
C1272 C 0.74895 0.36526 0.62599 0.0
C1273 C 0.78877 0.35593 0.61918 0.0
C1274 C 0.71893 0.34433 0.60752 0.0
C1275 C 0.72741 0.31281 0.58194 0.0
H1276 H 0.74092 0.38992 0.64478 0.0
H1277 H 0.68877 0.35371 0.61233 0.0
S1278 S 0.82653 0.27615 0.55401 0.0
N1279 N 0.83502 0.31275 0.58494 0.0
N1280 N 0.77826 0.27268 0.55092 0.0
C1281 C 0.76692 0.30192 0.57599 0.0
C1282 C 0.79769 0.32364 0.59447 0.0
C1283 C 0.94807 0.49235 0.85003 0.0
C1284 C 0.98054 0.48751 0.82471 0.0
C1285 C 0.9338 0.53038 0.86021 0.0
C1286 C 0.95116 0.56491 0.84494 0.0
H1287 H 0.93311 0.46658 0.86131 0.0
H1288 H 0.90804 0.5327 0.87883 0.0
S1289 S 0.03787 0.56772 0.77854 0.0
N1290 N 0.03026 0.52011 0.7857 0.0
N1291 N 1.00397 0.59115 0.80467 0.0
C1292 C 0.98441 0.56013 0.82055 0.0
C1293 C 0.999 0.52159 0.81055 0.0
C1294 C 0.7658 0.73312 0.07835 0.0
C1295 C 0.80475 0.72815 0.09105 0.0
C1296 C 0.73523 0.71188 0.09613 0.0
C1297 C 0.743 0.68555 0.12719 0.0
H1298 H 0.75938 0.75141 0.05301 0.0
H1299 H 0.70589 0.71432 0.08414 0.0
S1300 S 0.83928 0.66681 0.17409 0.0
N1301 N 0.84895 0.69818 0.13825 0.0
N1302 N 0.79151 0.65899 0.17231 0.0
C1303 C 0.78142 0.68259 0.14161 0.0
C1304 C 0.81237 0.70378 0.12335 0.0
C1305 C 0.59988 0.51407 0.36092 0.0
C1306 C 0.58388 0.47864 0.34667 0.0
C1307 C 0.58321 0.55108 0.35109 0.0
C1308 C 0.54964 0.55386 0.32719 0.0
H1309 H 0.62693 0.5133 0.37753 0.0
H1310 H 0.59763 0.57776 0.3608 0.0
S1311 S 0.49584 0.47008 0.28362 0.0
N1312 N 0.53191 0.44885 0.30846 0.0
N1313 N 0.50036 0.51816 0.29071 0.0
C1314 C 0.53222 0.51868 0.31457 0.0
C1315 C 0.54943 0.48114 0.32408 0.0
C1316 C 0.46279 0.31372 0.23555 0.0
C1317 C 0.43494 0.31779 0.20524 0.0
C1318 C 0.47338 0.27632 0.25045 0.0
C1319 C 0.45701 0.24167 0.23506 0.0
H1320 H 0.4775 0.33956 0.2469 0.0
H1321 H 0.49617 0.27435 0.27249 0.0
S1322 S 0.38177 0.23566 0.15722 0.0
N1323 N 0.38987 0.28352 0.16198 0.0
N1324 N 0.41069 0.21346 0.18936 0.0
C1325 C 0.42827 0.24524 0.20588 0.0
C1326 C 0.41695 0.28326 0.19117 0.0
C1327 C 0.93395 0.27927 0.79249 0.0
C1328 C 0.95064 0.30802 0.81736 0.0
C1329 C 0.90847 0.25008 0.80731 0.0
C1330 C 0.89975 0.24796 0.84766 0.0
H1331 H 0.93936 0.28018 0.76115 0.0
H1332 H 0.89387 0.23058 0.78693 0.0
S1333 S 0.93373 0.31582 0.92495 0.0
N1334 N 0.95375 0.33288 0.88424 0.0
N1335 N 0.90998 0.27576 0.91198 0.0
C1336 C 0.91779 0.27489 0.87283 0.0
C1337 C 0.94205 0.30553 0.85776 0.0
C1338 C 0.99977 0.65844 0.11399 0.0
C1339 C 0.03876 0.66842 0.10505 0.0
C1340 C 0.96845 0.67356 0.09199 0.0
C1341 C 0.97501 0.69883 0.05998 0.0
H1342 H 0.99333 0.64026 0.13936 0.0
H1343 H 0.93874 0.66718 0.10138 0.0
S1344 S 0.07135 0.73347 0.0238 0.0
N1345 N 0.08228 0.70429 0.06123 0.0
N1346 N 0.02303 0.73262 0.01966 0.0
C1347 C 1.01382 0.70741 0.04927 0.0
C1348 C 0.04586 0.69214 0.07187 0.0
C1349 C 0.57027 0.8119 0.2997 0.0
C1350 C 0.58942 0.81812 0.3357 0.0
C1351 C 0.56155 0.77377 0.28652 0.0
C1352 C 0.57138 0.74022 0.30887 0.0
H1353 H 0.56114 0.83683 0.28184 0.0
H1354 H 0.54546 0.77073 0.25939 0.0
S1355 S 0.62627 0.73941 0.40253 0.0
N1356 N 0.62085 0.78685 0.39197 0.0
N1357 N 0.60497 0.71504 0.36651 0.0
C1358 C 0.59246 0.74564 0.34376 0.0
C1359 C 0.60142 0.78459 0.35732 0.0
C1360 C 0.54555 0.34367 0.59488 0.0
C1361 C 0.55203 0.33397 0.55512 0.0
C1362 C 0.50787 0.35436 0.60869 0.0
C1363 C 0.47574 0.35697 0.58298 0.0
H1364 H 0.56924 0.34081 0.61584 0.0
H1365 H 0.50336 0.35817 0.63996 0.0
S1366 S 0.47815 0.34172 0.47546 0.0
N1367 N 0.52365 0.33259 0.48964 0.0
N1368 N 0.45359 0.35377 0.51566 0.0
C1369 C 0.48259 0.35111 0.54282 0.0
C1370 C 0.52062 0.33964 0.52881 0.0
C1371 C 0.13453 0.79154 0.67748 0.0
C1372 C 0.12449 0.75155 0.68202 0.0
C1373 C 0.11641 0.8212 0.70006 0.0
C1374 C 0.08798 0.81202 0.72852 0.0
H1375 H 0.1555 0.8001 0.65513 0.0
H1376 H 0.12343 0.85177 0.69392 0.0
S1377 S 0.05041 0.71218 0.75149 0.0
N1378 N 0.08392 0.70432 0.71703 0.0
N1379 N 0.05024 0.76034 0.76001 0.0
C1380 C 0.07859 0.7721 0.73451 0.0
C1381 C 0.09681 0.74176 0.71115 0.0
C1382 C 0.52268 0.81873 1.00501 0.0
C1383 C 0.48866 0.83153 0.9854 0.0
C1384 C 0.56021 0.82786 0.99057 0.0
C1385 C 0.5653 0.85042 0.9561 0.0
H1386 H 0.52036 0.80005 0.03073 0.0
H1387 H 0.58551 0.81648 1.00624 0.0
S1388 S 0.48491 0.89478 0.89662 0.0
N1389 N 0.46198 0.87077 0.93202 0.0
N1390 N 0.53229 0.88747 0.9043 0.0
C1391 C 0.53127 0.86504 0.93737 0.0
C1392 C 0.49306 0.85565 0.95213 0.0
C1393 C 0.99165 0.18611 0.47255 0.0
C1394 C 0.9982 0.16041 0.44054 0.0
C1395 C 0.02332 0.20389 0.49229 0.0
C1396 C 0.06239 0.1967 0.48036 0.0
H1397 H 0.96193 0.19438 0.48078 0.0
H1398 H 1.01712 0.22541 0.51511 0.0
S1399 S 0.09522 0.12826 0.40164 0.0
N1400 N 0.04683 0.12564 0.40088 0.0
N1401 N 0.10582 0.1599 0.43686 0.0
C1402 C 0.0692 0.16947 0.44996 0.0
C1403 C 0.03725 0.15109 0.43036 0.0
loop_
_geom_bond_atom_site_label_1
_geom_bond_atom_site_label_2
_geom_bond_distance
_geom_bond_site_symmetry_2
_ccdc_geom_bond_type
Tb0 N29 2.617 . S
Tb0 N35 2.572 . S
Tb0 O44 2.465 . S
Tb0 O45 2.387 . S
Tb0 O47 2.428 . S
Tb0 O48 2.308 . S
Tb0 O52 2.349 . S
Tb0 O55 2.393 . S
Tb0 C64 2.802 . S
C1 N2 1.379 . S
C1 C4 1.416 1_455 S
C1 C8 1.424 . S
N2 C1 1.379 . S
N2 C5 1.334 . S
N2 Tb11 2.617 . S
C3 C5 1.390 1_655 S
C3 C6 1.339 . S
C3 H23 0.930 . S
C4 C1 1.416 1_655 S
C4 C6 1.416 . S
C4 C10 1.448 . S
C5 N2 1.334 . S
C5 C3 1.390 1_455 S
C5 H16 0.930 . S
C6 C3 1.339 . S
C6 C4 1.416 . S
C6 H27 0.930 . S
C7 C8 1.413 . S
C7 C9 1.427 1_455 S
C7 C13 1.416 . S
C8 C1 1.424 . S
C8 C7 1.413 . S
C8 N12 1.361 . S
C9 C7 1.427 1_655 S
C9 C10 1.328 . S
C9 H24 0.929 . S
C10 C4 1.448 . S
C10 C9 1.328 . S
C10 H25 0.930 . S
Tb11 N2 2.617 . S
Tb11 N12 2.572 . S
Tb11 O46 2.349 . S
Tb11 O49 2.393 . S
Tb11 O50 2.465 . S
Tb11 O51 2.387 . S
Tb11 O53 2.428 . S
Tb11 O54 2.308 . S
Tb11 C75 2.802 . S
N12 C8 1.361 . S
N12 Tb11 2.572 . S
N12 C14 1.340 . S
C13 C7 1.416 . S
C13 C15 1.332 . S
C13 H21 0.931 . S
C14 N12 1.340 . S
C14 C15 1.407 . S
C14 H20 0.930 . S
C15 C13 1.332 . S
C15 C14 1.407 . S
C15 H17 0.929 . S
H16 C5 0.930 . S
H17 C15 0.929 . S
H18 C33 0.930 . S
H19 C40 0.929 . S
H20 C14 0.930 . S
H21 C13 0.931 . S
H22 C36 0.930 . S
H23 C3 0.930 . S
H24 C9 0.929 . S
H25 C10 0.930 . S
H26 C31 0.930 . S
H27 C6 0.930 . S
H28 C39 0.931 . S
N29 Tb0 2.617 . S
N29 C30 1.379 . S
N29 C33 1.334 . S
C30 N29 1.379 . S
C30 C32 1.416 . S
C30 C38 1.424 . S
C31 H26 0.930 . S
C31 C33 1.390 . S
C31 C34 1.339 . S
C32 C30 1.416 . S
C32 C34 1.416 . S
C32 C65 1.448 . S
C33 H18 0.930 . S
C33 N29 1.334 . S
C33 C31 1.390 . S
C34 C31 1.339 . S
C34 C32 1.416 . S
C34 H41 0.930 . S
N35 Tb0 2.572 . S
N35 C36 1.340 . S
N35 C38 1.361 . S
C36 H22 0.930 . S
C36 N35 1.340 . S
C36 C40 1.407 . S
C37 C38 1.413 . S
C37 C39 1.416 . S
C37 C66 1.427 . S
C38 C30 1.424 . S
C38 N35 1.361 . S
C38 C37 1.413 . S
C39 H28 0.931 . S
C39 C37 1.416 . S
C39 C40 1.332 . S
C40 H19 0.929 . S
C40 C36 1.407 . S
C40 C39 1.332 . S
H41 C34 0.930 . S
H42 C65 0.930 . S
H43 C66 0.929 . S
O44 Tb0 2.465 . S
O44 C64 1.264 . S
O45 Tb0 2.387 . S
O45 C56 1.264 . S
O46 Tb11 2.349 . S
O46 C56 1.243 . S
O47 Tb0 2.428 . S
O47 C64 1.256 . S
O48 Tb0 2.308 . S
O48 C63 1.266 . S
O49 Tb11 2.393 . S
O49 C63 1.248 . S
O50 Tb11 2.465 . S
O50 C75 1.264 . S
O51 Tb11 2.387 . S
O51 C67 1.264 . S
O52 Tb0 2.349 . S
O52 C67 1.243 . S
O53 Tb11 2.428 . S
O53 C75 1.256 . S
O54 Tb11 2.308 . S
O54 C74 1.266 . S
O55 Tb0 2.393 . S
O55 C74 1.248 . S
C56 O45 1.264 . S
C56 O46 1.243 . S
C57 C60 1.399 . S
C57 C62 1.383 . S
C57 C64 1.496 . S
C58 C59 1.399 . S
C58 C62 1.389 . S
C59 C58 1.399 . S
C59 C61 1.380 . S
C59 H76 0.929 . S
C60 C57 1.399 . S
C60 C61 1.392 . S
C60 H77 0.929 . S
C61 C59 1.380 . S
C61 C60 1.392 . S
C61 H78 0.929 . S
C62 C57 1.383 . S
C62 C58 1.389 . S
C62 H79 0.931 . S
C63 O48 1.266 . S
C63 O49 1.248 . S
C64 Tb0 2.802 . S
C64 O44 1.264 . S
C64 O47 1.256 . S
C64 C57 1.496 . S
C65 C32 1.448 . S
C65 H42 0.930 . S
C65 C66 1.328 . S
C66 C37 1.427 . S
C66 H43 0.929 . S
C66 C65 1.328 . S
C67 O51 1.264 . S
C67 O52 1.243 . S
C68 C71 1.399 . S
C68 C72 1.383 . S
C68 C75 1.496 . S
C69 C70 1.399 . S
C69 C72 1.389 . S
C70 C69 1.399 . S
C70 C73 1.380 . S
C70 H80 0.929 . S
C71 C68 1.399 . S
C71 C73 1.392 . S
C71 H81 0.929 . S
C72 C68 1.383 . S
C72 C69 1.389 . S
C72 H82 0.931 . S
C73 C70 1.380 . S
C73 C71 1.392 . S
C73 H83 0.929 . S
C74 O54 1.266 . S
C74 O55 1.248 . S
C75 Tb11 2.802 . S
C75 O50 1.264 . S
C75 O53 1.256 . S
C75 C68 1.496 . S
H76 C59 0.929 . S
H77 C60 0.929 . S
H78 C61 0.929 . S
H79 C62 0.931 . S
H80 C70 0.929 . S
H81 C71 0.929 . S
H82 C72 0.931 . S
H83 C73 0.929 . S
Tb84 N113 2.617 . S
Tb84 N119 2.572 . S
Tb84 O128 2.465 . S
Tb84 O129 2.387 . S
Tb84 O131 2.428 . S
Tb84 O132 2.308 . S
Tb84 O136 2.349 . S
Tb84 O139 2.393 1_455 S
Tb84 C148 2.802 . S
C85 N86 1.379 . S
C85 C88 1.416 . S
C85 C92 1.424 . S
N86 C85 1.379 . S
N86 C89 1.334 . S
N86 Tb95 2.617 . S
C87 C89 1.390 . S
C87 C90 1.339 . S
C87 H107 0.930 . S
C88 C85 1.416 . S
C88 C90 1.416 . S
C88 C94 1.448 . S
C89 N86 1.334 . S
C89 C87 1.390 . S
C89 H100 0.930 1_655 S
C90 C87 1.339 . S
C90 C88 1.416 . S
C90 H111 0.930 . S
C91 C92 1.413 . S
C91 C93 1.427 . S
C91 C97 1.416 . S
C92 C85 1.424 . S
C92 C91 1.413 . S
C92 N96 1.361 . S
C93 C91 1.427 . S
C93 C94 1.328 . S
C93 H108 0.929 . S
C94 C88 1.448 . S
C94 C93 1.328 . S
C94 H109 0.930 . S
Tb95 N86 2.617 . S
Tb95 N96 2.572 . S
Tb95 O130 2.349 1_655 S
Tb95 O133 2.393 1_655 S
Tb95 O134 2.465 . S
Tb95 O135 2.387 . S
Tb95 O137 2.428 . S
Tb95 O138 2.308 . S
Tb95 C159 2.802 . S
N96 C92 1.361 . S
N96 Tb95 2.572 . S
N96 C98 1.340 . S
C97 C91 1.416 . S
C97 C99 1.332 . S
C97 H105 0.931 . S
C98 N96 1.340 . S
C98 C99 1.407 . S
C98 H104 0.930 . S
C99 C97 1.332 . S
C99 C98 1.407 . S
C99 H101 0.929 . S
H100 C89 0.930 1_455 S
H101 C99 0.929 . S
H102 C117 0.930 . S
H103 C124 0.929 . S
H104 C98 0.930 . S
H105 C97 0.931 . S
H106 C120 0.930 . S
H107 C87 0.930 . S
H108 C93 0.929 . S
H109 C94 0.930 . S
H110 C115 0.930 . S
H111 C90 0.930 . S
H112 C123 0.931 . S
N113 Tb84 2.617 . S
N113 C114 1.379 . S
N113 C117 1.334 . S
C114 N113 1.379 . S
C114 C116 1.416 1_565 S
C114 C122 1.424 . S
C115 H110 0.930 . S
C115 C117 1.390 1_545 S
C115 C118 1.339 . S
C116 C114 1.416 1_545 S
C116 C118 1.416 . S
C116 C149 1.448 . S
C117 H102 0.930 . S
C117 N113 1.334 . S
C117 C115 1.390 1_565 S
C118 C115 1.339 . S
C118 C116 1.416 . S
C118 H125 0.930 . S
N119 Tb84 2.572 . S
N119 C120 1.340 . S
N119 C122 1.361 . S
C120 H106 0.930 . S
C120 N119 1.340 . S
C120 C124 1.407 . S
C121 C122 1.413 . S
C121 C123 1.416 . S
C121 C150 1.427 1_565 S
C122 C114 1.424 . S
C122 N119 1.361 . S
C122 C121 1.413 . S
C123 H112 0.931 . S
C123 C121 1.416 . S
C123 C124 1.332 . S
C124 H103 0.929 . S
C124 C120 1.407 . S
C124 C123 1.332 . S
H125 C118 0.930 . S
H126 C149 0.930 . S
H127 C150 0.929 . S
O128 Tb84 2.465 . S
O128 C148 1.264 . S
O129 Tb84 2.387 . S
O129 C140 1.264 . S
O130 Tb95 2.349 1_455 S
O130 C140 1.243 . S
O131 Tb84 2.428 . S
O131 C148 1.256 . S
O132 Tb84 2.308 . S
O132 C147 1.266 . S
O133 Tb95 2.393 1_455 S
O133 C147 1.248 . S
O134 Tb95 2.465 . S
O134 C159 1.264 . S
O135 Tb95 2.387 . S
O135 C151 1.264 . S
O136 Tb84 2.349 . S
O136 C151 1.243 1_455 S
O137 Tb95 2.428 . S
O137 C159 1.256 . S
O138 Tb95 2.308 . S
O138 C158 1.266 . S
O139 Tb84 2.393 1_655 S
O139 C158 1.248 . S
C140 O129 1.264 . S
C140 O130 1.243 . S
C141 C144 1.399 . S
C141 C146 1.383 . S
C141 C148 1.496 . S
C142 C143 1.399 . S
C142 C146 1.389 . S
C143 C142 1.399 . S
C143 C145 1.380 . S
C143 H160 0.929 . S
C144 C141 1.399 . S
C144 C145 1.392 . S
C144 H161 0.929 . S
C145 C143 1.380 . S
C145 C144 1.392 . S
C145 H162 0.929 . S
C146 C141 1.383 . S
C146 C142 1.389 . S
C146 H163 0.931 . S
C147 O132 1.266 . S
C147 O133 1.248 . S
C148 Tb84 2.802 . S
C148 O128 1.264 . S
C148 O131 1.256 . S
C148 C141 1.496 . S
C149 C116 1.448 . S
C149 H126 0.930 . S
C149 C150 1.328 . S
C150 C121 1.427 1_545 S
C150 H127 0.929 . S
C150 C149 1.328 . S
C151 O135 1.264 . S
C151 O136 1.243 1_655 S
C152 C155 1.399 . S
C152 C156 1.383 . S
C152 C159 1.496 . S
C153 C154 1.399 . S
C153 C156 1.389 . S
C154 C153 1.399 . S
C154 C157 1.380 . S
C154 H164 0.929 . S
C155 C152 1.399 . S
C155 C157 1.392 . S
C155 H165 0.929 . S
C156 C152 1.383 . S
C156 C153 1.389 . S
C156 H166 0.931 . S
C157 C154 1.380 . S
C157 C155 1.392 . S
C157 H167 0.929 . S
C158 O138 1.266 . S
C158 O139 1.248 . S
C159 Tb95 2.802 . S
C159 O134 1.264 . S
C159 O137 1.256 . S
C159 C152 1.496 . S
H160 C143 0.929 . S
H161 C144 0.929 . S
H162 C145 0.929 . S
H163 C146 0.931 . S
H164 C154 0.929 . S
H165 C155 0.929 . S
H166 C156 0.931 . S
H167 C157 0.929 . S
Tb168 N197 2.617 . S
Tb168 N203 2.572 . S
Tb168 O212 2.465 . S
Tb168 O213 2.387 . S
Tb168 O215 2.428 . S
Tb168 O216 2.308 . S
Tb168 O220 2.349 . S
Tb168 O223 2.393 1_556 S
Tb168 C232 2.802 . S
C169 N170 1.379 . S
C169 C172 1.416 . S
C169 C176 1.424 . S
N170 C169 1.379 . S
N170 C173 1.334 . S
N170 Tb179 2.617 . S
C171 C173 1.390 . S
C171 C174 1.339 . S
C171 H191 0.930 . S
C172 C169 1.416 . S
C172 C174 1.416 . S
C172 C178 1.448 . S
C173 N170 1.334 . S
C173 C171 1.390 . S
C173 H184 0.930 1_554 S
C174 C171 1.339 . S
C174 C172 1.416 . S
C174 H195 0.930 . S
C175 C176 1.413 . S
C175 C177 1.427 . S
C175 C181 1.416 . S
C176 C169 1.424 . S
C176 C175 1.413 . S
C176 N180 1.361 . S
C177 C175 1.427 . S
C177 C178 1.328 . S
C177 H192 0.929 . S
C178 C172 1.448 . S
C178 C177 1.328 . S
C178 H193 0.930 . S
Tb179 N170 2.617 . S
Tb179 N180 2.572 . S
Tb179 O214 2.349 1_554 S
Tb179 O217 2.393 1_554 S
Tb179 O218 2.465 . S
Tb179 O219 2.387 . S
Tb179 O221 2.428 . S
Tb179 O222 2.308 . S
Tb179 C243 2.802 . S
N180 C176 1.361 . S
N180 Tb179 2.572 . S
N180 C182 1.340 . S
C181 C175 1.416 . S
C181 C183 1.332 . S
C181 H189 0.931 . S
C182 N180 1.340 . S
C182 C183 1.407 . S
C182 H188 0.930 . S
C183 C181 1.332 . S
C183 C182 1.407 . S
C183 H185 0.929 . S
H184 C173 0.930 1_556 S
H185 C183 0.929 . S
H186 C201 0.930 . S
H187 C208 0.929 . S
H188 C182 0.930 . S
H189 C181 0.931 . S
H190 C204 0.930 . S
H191 C171 0.930 . S
H192 C177 0.929 . S
H193 C178 0.930 . S
H194 C199 0.930 . S
H195 C174 0.930 . S
H196 C207 0.931 . S
N197 Tb168 2.617 . S
N197 C198 1.379 . S
N197 C201 1.334 . S
C198 N197 1.379 . S
C198 C200 1.416 . S
C198 C206 1.424 . S
C199 H194 0.930 . S
C199 C201 1.390 . S
C199 C202 1.339 . S
C200 C198 1.416 . S
C200 C202 1.416 . S
C200 C233 1.448 . S
C201 H186 0.930 . S
C201 N197 1.334 . S
C201 C199 1.390 . S
C202 C199 1.339 . S
C202 C200 1.416 . S
C202 H209 0.930 . S
N203 Tb168 2.572 . S
N203 C204 1.340 . S
N203 C206 1.361 . S
C204 H190 0.930 . S
C204 N203 1.340 . S
C204 C208 1.407 . S
C205 C206 1.413 . S
C205 C207 1.416 . S
C205 C234 1.427 . S
C206 C198 1.424 . S
C206 N203 1.361 . S
C206 C205 1.413 . S
C207 H196 0.931 . S
C207 C205 1.416 . S
C207 C208 1.332 . S
C208 H187 0.929 . S
C208 C204 1.407 . S
C208 C207 1.332 . S
H209 C202 0.930 . S
H210 C233 0.930 . S
H211 C234 0.929 . S
O212 Tb168 2.465 . S
O212 C232 1.264 . S
O213 Tb168 2.387 . S
O213 C224 1.264 . S
O214 Tb179 2.349 1_556 S
O214 C224 1.243 . S
O215 Tb168 2.428 . S
O215 C232 1.256 . S
O216 Tb168 2.308 . S
O216 C231 1.266 . S
O217 Tb179 2.393 1_556 S
O217 C231 1.248 . S
O218 Tb179 2.465 . S
O218 C243 1.264 . S
O219 Tb179 2.387 . S
O219 C235 1.264 . S
O220 Tb168 2.349 . S
O220 C235 1.243 1_556 S
O221 Tb179 2.428 . S
O221 C243 1.256 . S
O222 Tb179 2.308 . S
O222 C242 1.266 . S
O223 Tb168 2.393 1_554 S
O223 C242 1.248 . S
C224 O213 1.264 . S
C224 O214 1.243 . S
C225 C228 1.399 . S
C225 C230 1.383 . S
C225 C232 1.496 . S
C226 C227 1.399 . S
C226 C230 1.389 . S
C227 C226 1.399 . S
C227 C229 1.380 . S
C227 H244 0.929 . S
C228 C225 1.399 . S
C228 C229 1.392 . S
C228 H245 0.929 . S
C229 C227 1.380 . S
C229 C228 1.392 . S
C229 H246 0.929 . S
C230 C225 1.383 . S
C230 C226 1.389 . S
C230 H247 0.931 . S
C231 O216 1.266 . S
C231 O217 1.248 . S
C232 Tb168 2.802 . S
C232 O212 1.264 . S
C232 O215 1.256 . S
C232 C225 1.496 . S
C233 C200 1.448 . S
C233 H210 0.930 . S
C233 C234 1.328 . S
C234 C205 1.427 . S
C234 H211 0.929 . S
C234 C233 1.328 . S
C235 O219 1.264 . S
C235 O220 1.243 1_554 S
C236 C239 1.399 . S
C236 C240 1.383 . S
C236 C243 1.496 . S
C237 C238 1.399 . S
C237 C240 1.389 . S
C238 C237 1.399 . S
C238 C241 1.380 . S
C238 H248 0.929 . S
C239 C236 1.399 . S
C239 C241 1.392 . S
C239 H249 0.929 . S
C240 C236 1.383 . S
C240 C237 1.389 . S
C240 H250 0.931 . S
C241 C238 1.380 . S
C241 C239 1.392 . S
C241 H251 0.929 . S
C242 O222 1.266 . S
C242 O223 1.248 . S
C243 Tb179 2.802 . S
C243 O218 1.264 . S
C243 O221 1.256 . S
C243 C236 1.496 . S
H244 C227 0.929 . S
H245 C228 0.929 . S
H246 C229 0.929 . S
H247 C230 0.931 . S
H248 C238 0.929 . S
H249 C239 0.929 . S
H250 C240 0.931 . S
H251 C241 0.929 . S
Tb252 N281 2.617 . S
Tb252 N287 2.572 . S
Tb252 O296 2.465 . S
Tb252 O297 2.387 . S
Tb252 O299 2.428 . S
Tb252 O300 2.308 . S
Tb252 O304 2.349 . S
Tb252 O307 2.393 . S
Tb252 C316 2.802 . S
C253 N254 1.379 . S
C253 C256 1.416 . S
C253 C260 1.424 . S
N254 C253 1.379 . S
N254 C257 1.334 . S
N254 Tb263 2.617 . S
C255 C257 1.390 . S
C255 C258 1.339 . S
C255 H275 0.930 . S
C256 C253 1.416 . S
C256 C258 1.416 . S
C256 C262 1.448 . S
C257 N254 1.334 . S
C257 C255 1.390 . S
C257 H268 0.930 . S
C258 C255 1.339 . S
C258 C256 1.416 . S
C258 H279 0.930 . S
C259 C260 1.413 . S
C259 C261 1.427 . S
C259 C265 1.416 . S
C260 C253 1.424 . S
C260 C259 1.413 . S
C260 N264 1.361 . S
C261 C259 1.427 . S
C261 C262 1.328 . S
C261 H276 0.929 . S
C262 C256 1.448 . S
C262 C261 1.328 . S
C262 H277 0.930 . S
Tb263 N254 2.617 . S
Tb263 N264 2.572 . S
Tb263 O298 2.349 . S
Tb263 O301 2.393 . S
Tb263 O302 2.465 . S
Tb263 O303 2.387 . S
Tb263 O305 2.428 . S
Tb263 O306 2.308 . S
Tb263 C327 2.802 . S
N264 C260 1.361 . S
N264 Tb263 2.572 . S
N264 C266 1.340 . S
C265 C259 1.416 . S
C265 C267 1.332 . S
C265 H273 0.931 . S
C266 N264 1.340 . S
C266 C267 1.407 . S
C266 H272 0.930 . S
C267 C265 1.332 . S
C267 C266 1.407 . S
C267 H269 0.929 . S
H268 C257 0.930 . S
H269 C267 0.929 . S
H270 C285 0.930 . S
H271 C292 0.929 . S
H272 C266 0.930 . S
H273 C265 0.931 . S
H274 C288 0.930 . S
H275 C255 0.930 . S
H276 C261 0.929 . S
H277 C262 0.930 . S
H278 C283 0.930 . S
H279 C258 0.930 . S
H280 C291 0.931 . S
N281 Tb252 2.617 . S
N281 C282 1.379 . S
N281 C285 1.334 . S
C282 N281 1.379 . S
C282 C284 1.416 1_545 S
C282 C290 1.424 . S
C283 H278 0.930 . S
C283 C285 1.390 1_565 S
C283 C286 1.339 . S
C284 C282 1.416 1_565 S
C284 C286 1.416 . S
C284 C317 1.448 . S
C285 H270 0.930 . S
C285 N281 1.334 . S
C285 C283 1.390 1_545 S
C286 C283 1.339 . S
C286 C284 1.416 . S
C286 H293 0.930 . S
N287 Tb252 2.572 . S
N287 C288 1.340 . S
N287 C290 1.361 . S
C288 H274 0.930 . S
C288 N287 1.340 . S
C288 C292 1.407 . S
C289 C290 1.413 . S
C289 C291 1.416 . S
C289 C318 1.427 1_545 S
C290 C282 1.424 . S
C290 N287 1.361 . S
C290 C289 1.413 . S
C291 H280 0.931 . S
C291 C289 1.416 . S
C291 C292 1.332 . S
C292 H271 0.929 . S
C292 C288 1.407 . S
C292 C291 1.332 . S
H293 C286 0.930 . S
H294 C317 0.930 . S
H295 C318 0.929 . S
O296 Tb252 2.465 . S
O296 C316 1.264 . S
O297 Tb252 2.387 . S
O297 C308 1.264 . S
O298 Tb263 2.349 . S
O298 C308 1.243 . S
O299 Tb252 2.428 . S
O299 C316 1.256 . S
O300 Tb252 2.308 . S
O300 C315 1.266 . S
O301 Tb263 2.393 . S
O301 C315 1.248 . S
O302 Tb263 2.465 . S
O302 C327 1.264 . S
O303 Tb263 2.387 . S
O303 C319 1.264 . S
O304 Tb252 2.349 . S
O304 C319 1.243 . S
O305 Tb263 2.428 . S
O305 C327 1.256 . S
O306 Tb263 2.308 . S
O306 C326 1.266 . S
O307 Tb252 2.393 . S
O307 C326 1.248 . S
C308 O297 1.264 . S
C308 O298 1.243 . S
C309 C312 1.399 . S
C309 C314 1.383 . S
C309 C316 1.496 . S
C310 C311 1.399 . S
C310 C314 1.389 . S
C311 C310 1.399 . S
C311 C313 1.380 . S
C311 H328 0.929 . S
C312 C309 1.399 . S
C312 C313 1.392 . S
C312 H329 0.929 . S
C313 C311 1.380 . S
C313 C312 1.392 . S
C313 H330 0.929 . S
C314 C309 1.383 . S
C314 C310 1.389 . S
C314 H331 0.931 . S
C315 O300 1.266 . S
C315 O301 1.248 . S
C316 Tb252 2.802 . S
C316 O296 1.264 . S
C316 O299 1.256 . S
C316 C309 1.496 . S
C317 C284 1.448 . S
C317 H294 0.930 . S
C317 C318 1.328 . S
C318 C289 1.427 1_565 S
C318 H295 0.929 . S
C318 C317 1.328 . S
C319 O303 1.264 . S
C319 O304 1.243 . S
C320 C323 1.399 . S
C320 C324 1.383 . S
C320 C327 1.496 . S
C321 C322 1.399 . S
C321 C324 1.389 . S
C322 C321 1.399 . S
C322 C325 1.380 . S
C322 H332 0.929 . S
C323 C320 1.399 . S
C323 C325 1.392 . S
C323 H333 0.929 . S
C324 C320 1.383 . S
C324 C321 1.389 . S
C324 H334 0.931 . S
C325 C322 1.380 . S
C325 C323 1.392 . S
C325 H335 0.929 . S
C326 O306 1.266 . S
C326 O307 1.248 . S
C327 Tb263 2.802 . S
C327 O302 1.264 . S
C327 O305 1.256 . S
C327 C320 1.496 . S
H328 C311 0.929 . S
H329 C312 0.929 . S
H330 C313 0.929 . S
H331 C314 0.931 . S
H332 C322 0.929 . S
H333 C323 0.929 . S
H334 C324 0.931 . S
H335 C325 0.929 . S
Tb336 N365 2.617 . S
Tb336 N371 2.572 . S
Tb336 O380 2.465 . S
Tb336 O381 2.387 . S
Tb336 O383 2.428 . S
Tb336 O384 2.308 . S
Tb336 O388 2.349 . S
Tb336 O391 2.393 . S
Tb336 C400 2.802 . S
C337 N338 1.379 . S
C337 C340 1.416 . S
C337 C344 1.424 . S
N338 C337 1.379 . S
N338 C341 1.334 . S
N338 Tb347 2.617 . S
C339 C341 1.390 . S
C339 C342 1.339 . S
C339 H359 0.930 . S
C340 C337 1.416 . S
C340 C342 1.416 . S
C340 C346 1.448 . S
C341 N338 1.334 . S
C341 C339 1.390 . S
C341 H352 0.930 . S
C342 C339 1.339 . S
C342 C340 1.416 . S
C342 H363 0.930 . S
C343 C344 1.413 . S
C343 C345 1.427 . S
C343 C349 1.416 . S
C344 C337 1.424 . S
C344 C343 1.413 . S
C344 N348 1.361 . S
C345 C343 1.427 . S
C345 C346 1.328 . S
C345 H360 0.929 . S
C346 C340 1.448 . S
C346 C345 1.328 . S
C346 H361 0.930 . S
Tb347 N338 2.617 . S
Tb347 N348 2.572 . S
Tb347 O382 2.349 . S
Tb347 O385 2.393 . S
Tb347 O386 2.465 . S
Tb347 O387 2.387 . S
Tb347 O389 2.428 . S
Tb347 O390 2.308 . S
Tb347 C411 2.802 . S
N348 C344 1.361 . S
N348 Tb347 2.572 . S
N348 C350 1.340 . S
C349 C343 1.416 . S
C349 C351 1.332 . S
C349 H357 0.931 . S
C350 N348 1.340 . S
C350 C351 1.407 . S
C350 H356 0.930 . S
C351 C349 1.332 . S
C351 C350 1.407 . S
C351 H353 0.929 . S
H352 C341 0.930 . S
H353 C351 0.929 . S
H354 C369 0.930 . S
H355 C376 0.929 . S
H356 C350 0.930 . S
H357 C349 0.931 . S
H358 C372 0.930 . S
H359 C339 0.930 . S
H360 C345 0.929 . S
H361 C346 0.930 . S
H362 C367 0.930 . S
H363 C342 0.930 . S
H364 C375 0.931 . S
N365 Tb336 2.617 . S
N365 C366 1.379 . S
N365 C369 1.334 . S
C366 N365 1.379 . S
C366 C368 1.416 . S
C366 C374 1.424 . S
C367 H362 0.930 . S
C367 C369 1.390 . S
C367 C370 1.339 . S
C368 C366 1.416 . S
C368 C370 1.416 . S
C368 C401 1.448 . S
C369 H354 0.930 . S
C369 N365 1.334 . S
C369 C367 1.390 . S
C370 C367 1.339 . S
C370 C368 1.416 . S
C370 H377 0.930 . S
N371 Tb336 2.572 . S
N371 C372 1.340 . S
N371 C374 1.361 . S
C372 H358 0.930 . S
C372 N371 1.340 . S
C372 C376 1.407 . S
C373 C374 1.413 . S
C373 C375 1.416 . S
C373 C402 1.427 . S
C374 C366 1.424 . S
C374 N371 1.361 . S
C374 C373 1.413 . S
C375 H364 0.931 . S
C375 C373 1.416 . S
C375 C376 1.332 . S
C376 H355 0.929 . S
C376 C372 1.407 . S
C376 C375 1.332 . S
H377 C370 0.930 . S
H378 C401 0.930 . S
H379 C402 0.929 . S
O380 Tb336 2.465 . S
O380 C400 1.264 . S
O381 Tb336 2.387 . S
O381 C392 1.264 . S
O382 Tb347 2.349 . S
O382 C392 1.243 . S
O383 Tb336 2.428 . S
O383 C400 1.256 . S
O384 Tb336 2.308 . S
O384 C399 1.266 . S
O385 Tb347 2.393 . S
O385 C399 1.248 . S
O386 Tb347 2.465 . S
O386 C411 1.264 . S
O387 Tb347 2.387 . S
O387 C403 1.264 . S
O388 Tb336 2.349 . S
O388 C403 1.243 . S
O389 Tb347 2.428 . S
O389 C411 1.256 . S
O390 Tb347 2.308 . S
O390 C410 1.266 . S
O391 Tb336 2.393 . S
O391 C410 1.248 . S
C392 O381 1.264 . S
C392 O382 1.243 . S
C393 C396 1.399 . S
C393 C398 1.383 . S
C393 C400 1.496 . S
C394 C395 1.399 . S
C394 C398 1.389 . S
C395 C394 1.399 . S
C395 C397 1.380 . S
C395 H412 0.929 . S
C396 C393 1.399 . S
C396 C397 1.392 . S
C396 H413 0.929 . S
C397 C395 1.380 . S
C397 C396 1.392 . S
C397 H414 0.929 . S
C398 C393 1.383 . S
C398 C394 1.389 . S
C398 H415 0.931 . S
C399 O384 1.266 . S
C399 O385 1.248 . S
C400 Tb336 2.802 . S
C400 O380 1.264 . S
C400 O383 1.256 . S
C400 C393 1.496 . S
C401 C368 1.448 . S
C401 H378 0.930 . S
C401 C402 1.328 . S
C402 C373 1.427 . S
C402 H379 0.929 . S
C402 C401 1.328 . S
C403 O387 1.264 . S
C403 O388 1.243 . S
C404 C407 1.399 . S
C404 C408 1.383 . S
C404 C411 1.496 . S
C405 C406 1.399 . S
C405 C408 1.389 . S
C406 C405 1.399 . S
C406 C409 1.380 . S
C406 H416 0.929 . S
C407 C404 1.399 . S
C407 C409 1.392 . S
C407 H417 0.929 . S
C408 C404 1.383 . S
C408 C405 1.389 . S
C408 H418 0.931 . S
C409 C406 1.380 . S
C409 C407 1.392 . S
C409 H419 0.929 . S
C410 O390 1.266 . S
C410 O391 1.248 . S
C411 Tb347 2.802 . S
C411 O386 1.264 . S
C411 O389 1.256 . S
C411 C404 1.496 . S
H412 C395 0.929 . S
H413 C396 0.929 . S
H414 C397 0.929 . S
H415 C398 0.931 . S
H416 C406 0.929 . S
H417 C407 0.929 . S
H418 C408 0.931 . S
H419 C409 0.929 . S
Tb420 N449 2.617 . S
Tb420 N455 2.572 . S
Tb420 O464 2.465 . S
Tb420 O465 2.387 1_455 S
Tb420 O467 2.428 . S
Tb420 O468 2.308 1_455 S
Tb420 O472 2.349 . S
Tb420 O475 2.393 . S
Tb420 C484 2.802 . S
C421 N422 1.379 . S
C421 C424 1.416 . S
C421 C428 1.424 . S
N422 C421 1.379 . S
N422 C425 1.334 . S
N422 Tb431 2.617 . S
C423 C425 1.390 . S
C423 C426 1.339 . S
C423 H443 0.930 . S
C424 C421 1.416 . S
C424 C426 1.416 . S
C424 C430 1.448 . S
C425 N422 1.334 . S
C425 C423 1.390 . S
C425 H436 0.930 . S
C426 C423 1.339 . S
C426 C424 1.416 . S
C426 H447 0.930 . S
C427 C428 1.413 . S
C427 C429 1.427 . S
C427 C433 1.416 1_655 S
C428 C421 1.424 . S
C428 C427 1.413 . S
C428 N432 1.361 . S
C429 C427 1.427 . S
C429 C430 1.328 . S
C429 H444 0.929 . S
C430 C424 1.448 . S
C430 C429 1.328 . S
C430 H445 0.930 . S
Tb431 N422 2.617 . S
Tb431 N432 2.572 . S
Tb431 O466 2.349 . S
Tb431 O469 2.393 . S
Tb431 O470 2.465 . S
Tb431 O471 2.387 1_655 S
Tb431 O473 2.428 . S
Tb431 O474 2.309 1_655 S
Tb431 C495 2.802 . S
N432 C428 1.361 . S
N432 Tb431 2.572 . S
N432 C434 1.340 . S
C433 C427 1.416 1_455 S
C433 C435 1.332 . S
C433 H441 0.931 . S
C434 N432 1.340 . S
C434 C435 1.407 1_655 S
C434 H440 0.930 . S
C435 C433 1.332 . S
C435 C434 1.407 1_455 S
C435 H437 0.929 . S
H436 C425 0.930 . S
H437 C435 0.929 . S
H438 C453 0.930 . S
H439 C460 0.929 . S
H440 C434 0.930 . S
H441 C433 0.931 . S
H442 C456 0.930 . S
H443 C423 0.930 . S
H444 C429 0.929 . S
H445 C430 0.930 . S
H446 C451 0.930 . S
H447 C426 0.930 . S
H448 C459 0.931 . S
N449 Tb420 2.617 . S
N449 C450 1.379 . S
N449 C453 1.334 . S
C450 N449 1.379 . S
C450 C452 1.416 . S
C450 C458 1.424 . S
C451 H446 0.930 . S
C451 C453 1.390 . S
C451 C454 1.339 . S
C452 C450 1.416 . S
C452 C454 1.416 . S
C452 C485 1.448 . S
C453 H438 0.930 . S
C453 N449 1.334 . S
C453 C451 1.390 . S
C454 C451 1.339 . S
C454 C452 1.416 . S
C454 H461 0.930 . S
N455 Tb420 2.572 . S
N455 C456 1.340 1_455 S
N455 C458 1.361 . S
C456 H442 0.930 . S
C456 N455 1.340 1_655 S
C456 C460 1.407 . S
C457 C458 1.413 . S
C457 C459 1.416 1_455 S
C457 C486 1.427 . S
C458 C450 1.424 . S
C458 N455 1.361 . S
C458 C457 1.413 . S
C459 H448 0.931 . S
C459 C457 1.416 1_655 S
C459 C460 1.332 . S
C460 H439 0.929 . S
C460 C456 1.407 . S
C460 C459 1.332 . S
H461 C454 0.930 . S
H462 C485 0.930 . S
H463 C486 0.929 1_655 S
O464 Tb420 2.465 . S
O464 C484 1.264 . S
O465 Tb420 2.387 1_655 S
O465 C476 1.264 . S
O466 Tb431 2.349 . S
O466 C476 1.243 . S
O467 Tb420 2.428 . S
O467 C484 1.256 . S
O468 Tb420 2.308 1_655 S
O468 C483 1.266 . S
O469 Tb431 2.393 . S
O469 C483 1.248 . S
O470 Tb431 2.465 . S
O470 C495 1.264 . S
O471 Tb431 2.387 1_455 S
O471 C487 1.264 . S
O472 Tb420 2.349 . S
O472 C487 1.243 . S
O473 Tb431 2.428 . S
O473 C495 1.256 . S
O474 Tb431 2.309 1_455 S
O474 C494 1.265 . S
O475 Tb420 2.393 . S
O475 C494 1.248 . S
C476 O465 1.264 . S
C476 O466 1.243 . S
C477 C480 1.399 . S
C477 C482 1.383 . S
C477 C484 1.496 . S
C478 C479 1.399 . S
C478 C482 1.389 . S
C479 C478 1.399 . S
C479 C481 1.380 . S
C479 H496 0.929 . S
C480 C477 1.399 . S
C480 C481 1.392 . S
C480 H497 0.929 . S
C481 C479 1.380 . S
C481 C480 1.392 . S
C481 H498 0.929 . S
C482 C477 1.383 . S
C482 C478 1.389 . S
C482 H499 0.931 . S
C483 O468 1.266 . S
C483 O469 1.248 . S
C484 Tb420 2.802 . S
C484 O464 1.264 . S
C484 O467 1.256 . S
C484 C477 1.496 . S
C485 C452 1.448 . S
C485 H462 0.930 . S
C485 C486 1.328 . S
C486 C457 1.427 . S
C486 H463 0.929 1_455 S
C486 C485 1.328 . S
C487 O471 1.264 . S
C487 O472 1.243 . S
C488 C491 1.399 . S
C488 C492 1.383 . S
C488 C495 1.496 . S
C489 C490 1.399 . S
C489 C492 1.389 . S
C490 C489 1.399 . S
C490 C493 1.380 . S
C490 H500 0.929 . S
C491 C488 1.399 . S
C491 C493 1.392 . S
C491 H501 0.929 . S
C492 C488 1.383 . S
C492 C489 1.389 . S
C492 H502 0.931 . S
C493 C490 1.380 . S
C493 C491 1.392 . S
C493 H503 0.929 . S
C494 O474 1.265 . S
C494 O475 1.248 . S
C495 Tb431 2.802 . S
C495 O470 1.264 . S
C495 O473 1.256 . S
C495 C488 1.496 . S
H496 C479 0.929 . S
H497 C480 0.929 . S
H498 C481 0.929 . S
H499 C482 0.931 . S
H500 C490 0.929 . S
H501 C491 0.929 . S
H502 C492 0.931 . S
H503 C493 0.929 . S
Tb504 N533 2.617 . S
Tb504 N539 2.572 . S
Tb504 O548 2.465 . S
Tb504 O549 2.387 1_556 S
Tb504 O551 2.428 . S
Tb504 O552 2.308 1_556 S
Tb504 O556 2.349 . S
Tb504 O559 2.393 . S
Tb504 C568 2.802 . S
C505 N506 1.379 . S
C505 C508 1.416 1_655 S
C505 C512 1.424 . S
N506 C505 1.379 . S
N506 C509 1.334 . S
N506 Tb515 2.617 . S
C507 C509 1.390 1_455 S
C507 C510 1.339 . S
C507 H527 0.930 . S
C508 C505 1.416 1_455 S
C508 C510 1.416 . S
C508 C514 1.448 . S
C509 N506 1.334 . S
C509 C507 1.390 1_655 S
C509 H520 0.930 . S
C510 C507 1.339 . S
C510 C508 1.416 . S
C510 H531 0.930 . S
C511 C512 1.413 . S
C511 C513 1.427 1_655 S
C511 C517 1.416 1_554 S
C512 C505 1.424 . S
C512 C511 1.413 . S
C512 N516 1.361 . S
C513 C511 1.427 1_455 S
C513 C514 1.328 . S
C513 H528 0.929 . S
C514 C508 1.448 . S
C514 C513 1.328 . S
C514 H529 0.930 . S
Tb515 N506 2.617 . S
Tb515 N516 2.572 . S
Tb515 O550 2.349 . S
Tb515 O553 2.393 . S
Tb515 O554 2.465 . S
Tb515 O555 2.387 1_554 S
Tb515 O557 2.428 . S
Tb515 O558 2.308 1_554 S
Tb515 C579 2.802 . S
N516 C512 1.361 . S
N516 Tb515 2.572 . S
N516 C518 1.340 . S
C517 C511 1.416 1_556 S
C517 C519 1.332 . S
C517 H525 0.931 . S
C518 N516 1.340 . S
C518 C519 1.407 1_554 S
C518 H524 0.930 . S
C519 C517 1.332 . S
C519 C518 1.407 1_556 S
C519 H521 0.929 . S
H520 C509 0.930 . S
H521 C519 0.929 . S
H522 C537 0.930 . S
H523 C544 0.929 . S
H524 C518 0.930 . S
H525 C517 0.931 . S
H526 C540 0.930 . S
H527 C507 0.930 . S
H528 C513 0.929 . S
H529 C514 0.930 . S
H530 C535 0.930 . S
H531 C510 0.930 . S
H532 C543 0.931 . S
N533 Tb504 2.617 . S
N533 C534 1.379 . S
N533 C537 1.334 . S
C534 N533 1.379 . S
C534 C536 1.416 . S
C534 C542 1.424 . S
C535 H530 0.930 . S
C535 C537 1.390 . S
C535 C538 1.339 . S
C536 C534 1.416 . S
C536 C538 1.416 . S
C536 C569 1.448 . S
C537 H522 0.930 . S
C537 N533 1.334 . S
C537 C535 1.390 . S
C538 C535 1.339 . S
C538 C536 1.416 . S
C538 H545 0.930 . S
N539 Tb504 2.572 . S
N539 C540 1.340 1_556 S
N539 C542 1.361 . S
C540 H526 0.930 . S
C540 N539 1.340 1_554 S
C540 C544 1.407 . S
C541 C542 1.413 . S
C541 C543 1.416 1_556 S
C541 C570 1.427 . S
C542 C534 1.424 . S
C542 N539 1.361 . S
C542 C541 1.413 . S
C543 H532 0.931 . S
C543 C541 1.416 1_554 S
C543 C544 1.332 . S
C544 H523 0.929 . S
C544 C540 1.407 . S
C544 C543 1.332 . S
H545 C538 0.930 . S
H546 C569 0.930 . S
H547 C570 0.936 . S
O548 Tb504 2.465 . S
O548 C568 1.264 . S
O549 Tb504 2.387 1_554 S
O549 C560 1.264 . S
O550 Tb515 2.349 . S
O550 C560 1.243 . S
O551 Tb504 2.428 . S
O551 C568 1.256 . S
O552 Tb504 2.308 1_554 S
O552 C567 1.266 . S
O553 Tb515 2.393 . S
O553 C567 1.248 . S
O554 Tb515 2.465 . S
O554 C579 1.264 . S
O555 Tb515 2.387 1_556 S
O555 C571 1.264 . S
O556 Tb504 2.349 . S
O556 C571 1.243 . S
O557 Tb515 2.428 . S
O557 C579 1.256 . S
O558 Tb515 2.308 1_556 S
O558 C578 1.266 . S
O559 Tb504 2.393 . S
O559 C578 1.248 . S
C560 O549 1.264 . S
C560 O550 1.243 . S
C561 C564 1.399 . S
C561 C566 1.383 . S
C561 C568 1.496 . S
C562 C563 1.399 . S
C562 C566 1.389 . S
C563 C562 1.399 . S
C563 C565 1.380 . S
C563 H580 0.929 . S
C564 C561 1.399 . S
C564 C565 1.392 . S
C564 H581 0.929 . S
C565 C563 1.380 . S
C565 C564 1.392 . S
C565 H582 0.929 . S
C566 C561 1.383 . S
C566 C562 1.389 . S
C566 H583 0.931 . S
C567 O552 1.266 . S
C567 O553 1.248 . S
C568 Tb504 2.802 . S
C568 O548 1.264 . S
C568 O551 1.256 . S
C568 C561 1.496 . S
C569 C536 1.448 . S
C569 H546 0.930 . S
C569 C570 1.328 . S
C570 C541 1.427 . S
C570 H547 0.936 . S
C570 C569 1.328 . S
C571 O555 1.264 . S
C571 O556 1.243 . S
C572 C575 1.399 . S
C572 C576 1.383 . S
C572 C579 1.496 . S
C573 C574 1.399 . S
C573 C576 1.389 . S
C574 C573 1.399 . S
C574 C577 1.380 . S
C574 H584 0.929 . S
C575 C572 1.399 . S
C575 C577 1.392 . S
C575 H585 0.929 . S
C576 C572 1.383 . S
C576 C573 1.389 . S
C576 H586 0.931 . S
C577 C574 1.380 . S
C577 C575 1.392 . S
C577 H587 0.929 . S
C578 O558 1.266 . S
C578 O559 1.248 . S
C579 Tb515 2.802 . S
C579 O554 1.264 . S
C579 O557 1.256 . S
C579 C572 1.496 . S
H580 C563 0.929 . S
H581 C564 0.929 . S
H582 C565 0.929 . S
H583 C566 0.931 . S
H584 C574 0.929 . S
H585 C575 0.929 . S
H586 C576 0.931 . S
H587 C577 0.929 . S
Tb588 N617 2.617 . S
Tb588 N623 2.572 . S
Tb588 O632 2.465 . S
Tb588 O633 2.387 . S
Tb588 O635 2.428 . S
Tb588 O636 2.308 . S
Tb588 O640 2.349 . S
Tb588 O643 2.393 . S
Tb588 C652 2.802 . S
C589 N590 1.379 . S
C589 C592 1.416 . S
C589 C596 1.424 . S
N590 C589 1.379 . S
N590 C593 1.334 . S
N590 Tb599 2.617 . S
C591 C593 1.390 . S
C591 C594 1.339 . S
C591 H611 0.930 . S
C592 C589 1.416 . S
C592 C594 1.416 . S
C592 C598 1.448 . S
C593 N590 1.334 . S
C593 C591 1.390 . S
C593 H604 0.930 . S
C594 C591 1.339 . S
C594 C592 1.416 . S
C594 H615 0.930 . S
C595 C596 1.413 . S
C595 C597 1.427 . S
C595 C601 1.416 . S
C596 C589 1.424 . S
C596 C595 1.413 . S
C596 N600 1.361 . S
C597 C595 1.427 . S
C597 C598 1.328 . S
C597 H612 0.929 . S
C598 C592 1.448 . S
C598 C597 1.328 . S
C598 H613 0.930 . S
Tb599 N590 2.617 . S
Tb599 N600 2.572 . S
Tb599 O634 2.349 . S
Tb599 O637 2.393 . S
Tb599 O638 2.465 . S
Tb599 O639 2.387 . S
Tb599 O641 2.428 . S
Tb599 O642 2.308 . S
Tb599 C663 2.802 . S
N600 C596 1.361 . S
N600 Tb599 2.572 . S
N600 C602 1.340 . S
C601 C595 1.416 . S
C601 C603 1.332 . S
C601 H609 0.931 . S
C602 N600 1.340 . S
C602 C603 1.407 . S
C602 H608 0.930 . S
C603 C601 1.332 . S
C603 C602 1.407 . S
C603 H605 0.929 . S
H604 C593 0.930 . S
H605 C603 0.929 . S
H606 C621 0.930 . S
H607 C628 0.929 . S
H608 C602 0.930 . S
H609 C601 0.931 . S
H610 C624 0.930 . S
H611 C591 0.930 . S
H612 C597 0.929 . S
H613 C598 0.930 . S
H614 C619 0.930 . S
H615 C594 0.930 . S
H616 C627 0.931 . S
N617 Tb588 2.617 . S
N617 C618 1.379 . S
N617 C621 1.334 . S
C618 N617 1.379 . S
C618 C620 1.416 . S
C618 C626 1.424 . S
C619 H614 0.930 . S
C619 C621 1.390 . S
C619 C622 1.339 . S
C620 C618 1.416 . S
C620 C622 1.416 . S
C620 C653 1.448 . S
C621 H606 0.930 . S
C621 N617 1.334 . S
C621 C619 1.390 . S
C622 C619 1.339 . S
C622 C620 1.416 . S
C622 H629 0.930 . S
N623 Tb588 2.572 . S
N623 C624 1.340 . S
N623 C626 1.361 . S
C624 H610 0.930 . S
C624 N623 1.340 . S
C624 C628 1.407 . S
C625 C626 1.413 . S
C625 C627 1.416 . S
C625 C654 1.427 . S
C626 C618 1.424 . S
C626 N623 1.361 . S
C626 C625 1.413 . S
C627 H616 0.931 . S
C627 C625 1.416 . S
C627 C628 1.332 . S
C628 H607 0.929 . S
C628 C624 1.407 . S
C628 C627 1.332 . S
H629 C622 0.930 . S
H630 C653 0.930 . S
H631 C654 0.929 . S
O632 Tb588 2.465 . S
O632 C652 1.264 . S
O633 Tb588 2.387 . S
O633 C644 1.264 . S
O634 Tb599 2.349 . S
O634 C644 1.243 . S
O635 Tb588 2.428 . S
O635 C652 1.256 . S
O636 Tb588 2.308 . S
O636 C651 1.266 . S
O637 Tb599 2.393 . S
O637 C651 1.248 . S
O638 Tb599 2.465 . S
O638 C663 1.264 . S
O639 Tb599 2.387 . S
O639 C655 1.264 . S
O640 Tb588 2.349 . S
O640 C655 1.243 . S
O641 Tb599 2.428 . S
O641 C663 1.256 . S
O642 Tb599 2.308 . S
O642 C662 1.266 . S
O643 Tb588 2.393 . S
O643 C662 1.248 . S
C644 O633 1.264 . S
C644 O634 1.243 . S
C645 C648 1.399 . S
C645 C650 1.383 . S
C645 C652 1.496 . S
C646 C647 1.399 . S
C646 C650 1.389 . S
C647 C646 1.399 . S
C647 C649 1.380 . S
C647 H664 0.929 . S
C648 C645 1.399 . S
C648 C649 1.392 . S
C648 H665 0.929 . S
C649 C647 1.380 . S
C649 C648 1.392 . S
C649 H666 0.929 . S
C650 C645 1.383 . S
C650 C646 1.389 . S
C650 H667 0.931 . S
C651 O636 1.266 . S
C651 O637 1.248 . S
C652 Tb588 2.802 . S
C652 O632 1.264 . S
C652 O635 1.256 . S
C652 C645 1.496 . S
C653 C620 1.448 . S
C653 H630 0.930 . S
C653 C654 1.328 . S
C654 C625 1.427 . S
C654 H631 0.929 . S
C654 C653 1.328 . S
C655 O639 1.264 . S
C655 O640 1.243 . S
C656 C659 1.399 . S
C656 C660 1.383 . S
C656 C663 1.496 . S
C657 C658 1.399 . S
C657 C660 1.389 . S
C658 C657 1.399 . S
C658 C661 1.380 . S
C658 H668 0.929 . S
C659 C656 1.399 . S
C659 C661 1.392 . S
C659 H669 0.929 . S
C660 C656 1.383 . S
C660 C657 1.389 . S
C660 H670 0.931 . S
C661 C658 1.380 . S
C661 C659 1.392 . S
C661 H671 0.929 . S
C662 O642 1.266 . S
C662 O643 1.248 . S
C663 Tb599 2.802 . S
C663 O638 1.264 . S
C663 O641 1.256 . S
C663 C656 1.496 . S
H664 C647 0.929 . S
H665 C648 0.929 . S
H666 C649 0.929 . S
H667 C650 0.931 . S
H668 C658 0.929 . S
H669 C659 0.929 . S
H670 C660 0.931 . S
H671 C661 0.929 . S
Tb672 N701 2.617 . S
Tb672 N707 2.572 . S
Tb672 O716 2.465 . S
Tb672 O717 2.387 . S
Tb672 O719 2.428 . S
Tb672 O720 2.308 . S
Tb672 O724 2.349 . S
Tb672 O727 2.393 . S
Tb672 C736 2.802 . S
C673 N674 1.379 . S
C673 C676 1.416 . S
C673 C680 1.424 . S
N674 C673 1.379 . S
N674 C677 1.334 . S
N674 Tb683 2.617 . S
C675 C677 1.390 . S
C675 C678 1.339 . S
C675 H695 0.930 . S
C676 C673 1.416 . S
C676 C678 1.416 . S
C676 C682 1.448 . S
C677 N674 1.334 . S
C677 C675 1.390 . S
C677 H688 0.930 . S
C678 C675 1.339 . S
C678 C676 1.416 . S
C678 H699 0.930 . S
C679 C680 1.413 . S
C679 C681 1.427 . S
C679 C685 1.416 . S
C680 C673 1.424 . S
C680 C679 1.413 . S
C680 N684 1.361 . S
C681 C679 1.427 . S
C681 C682 1.328 . S
C681 H696 0.929 . S
C682 C676 1.448 . S
C682 C681 1.328 . S
C682 H697 0.930 . S
Tb683 N674 2.617 . S
Tb683 N684 2.572 . S
Tb683 O718 2.349 . S
Tb683 O721 2.393 . S
Tb683 O722 2.465 . S
Tb683 O723 2.387 . S
Tb683 O725 2.428 . S
Tb683 O726 2.308 . S
Tb683 C747 2.802 . S
N684 C680 1.361 . S
N684 Tb683 2.572 . S
N684 C686 1.340 . S
C685 C679 1.416 . S
C685 C687 1.332 . S
C685 H693 0.931 . S
C686 N684 1.340 . S
C686 C687 1.407 . S
C686 H692 0.930 . S
C687 C685 1.332 . S
C687 C686 1.407 . S
C687 H689 0.929 . S
H688 C677 0.930 . S
H689 C687 0.929 . S
H690 C705 0.930 . S
H691 C712 0.929 . S
H692 C686 0.930 . S
H693 C685 0.931 . S
H694 C708 0.930 . S
H695 C675 0.930 . S
H696 C681 0.929 . S
H697 C682 0.930 . S
H698 C703 0.930 . S
H699 C678 0.930 . S
H700 C711 0.931 . S
N701 Tb672 2.617 . S
N701 C702 1.379 . S
N701 C705 1.334 . S
C702 N701 1.379 . S
C702 C704 1.416 1_554 S
C702 C710 1.424 . S
C703 H698 0.930 . S
C703 C705 1.390 1_556 S
C703 C706 1.339 . S
C704 C702 1.416 1_556 S
C704 C706 1.416 . S
C704 C737 1.448 . S
C705 H690 0.930 . S
C705 N701 1.334 . S
C705 C703 1.390 1_554 S
C706 C703 1.339 . S
C706 C704 1.416 . S
C706 H713 0.930 . S
N707 Tb672 2.572 . S
N707 C708 1.340 . S
N707 C710 1.361 . S
C708 H694 0.930 . S
C708 N707 1.340 . S
C708 C712 1.407 . S
C709 C710 1.413 . S
C709 C711 1.416 . S
C709 C738 1.427 1_554 S
C710 C702 1.424 . S
C710 N707 1.361 . S
C710 C709 1.413 . S
C711 H700 0.931 . S
C711 C709 1.416 . S
C711 C712 1.332 . S
C712 H691 0.929 . S
C712 C708 1.407 . S
C712 C711 1.332 . S
H713 C706 0.930 . S
H714 C737 0.930 . S
H715 C738 0.929 . S
O716 Tb672 2.465 . S
O716 C736 1.264 . S
O717 Tb672 2.387 . S
O717 C728 1.264 . S
O718 Tb683 2.349 . S
O718 C728 1.243 . S
O719 Tb672 2.428 . S
O719 C736 1.256 . S
O720 Tb672 2.308 . S
O720 C735 1.266 . S
O721 Tb683 2.393 . S
O721 C735 1.248 . S
O722 Tb683 2.465 . S
O722 C747 1.264 . S
O723 Tb683 2.387 . S
O723 C739 1.264 . S
O724 Tb672 2.349 . S
O724 C739 1.243 . S
O725 Tb683 2.428 . S
O725 C747 1.256 . S
O726 Tb683 2.308 . S
O726 C746 1.266 . S
O727 Tb672 2.393 . S
O727 C746 1.248 . S
C728 O717 1.264 . S
C728 O718 1.243 . S
C729 C732 1.399 . S
C729 C734 1.383 . S
C729 C736 1.496 . S
C730 C731 1.399 . S
C730 C734 1.389 . S
C731 C730 1.399 . S
C731 C733 1.380 . S
C731 H748 0.929 . S
C732 C729 1.399 . S
C732 C733 1.392 . S
C732 H749 0.929 . S
C733 C731 1.380 . S
C733 C732 1.392 . S
C733 H750 0.929 . S
C734 C729 1.383 . S
C734 C730 1.389 . S
C734 H751 0.931 . S
C735 O720 1.266 . S
C735 O721 1.248 . S
C736 Tb672 2.802 . S
C736 O716 1.264 . S
C736 O719 1.256 . S
C736 C729 1.496 . S
C737 C704 1.448 . S
C737 H714 0.930 . S
C737 C738 1.328 . S
C738 C709 1.427 1_556 S
C738 H715 0.929 . S
C738 C737 1.328 . S
C739 O723 1.264 . S
C739 O724 1.243 . S
C740 C743 1.399 . S
C740 C744 1.383 . S
C740 C747 1.496 . S
C741 C742 1.399 . S
C741 C744 1.389 . S
C742 C741 1.399 . S
C742 C745 1.380 . S
C742 H752 0.929 . S
C743 C740 1.399 . S
C743 C745 1.392 . S
C743 H753 0.929 . S
C744 C740 1.383 . S
C744 C741 1.389 . S
C744 H754 0.931 . S
C745 C742 1.380 . S
C745 C743 1.392 . S
C745 H755 0.929 . S
C746 O726 1.266 . S
C746 O727 1.248 . S
C747 Tb683 2.802 . S
C747 O722 1.264 . S
C747 O725 1.256 . S
C747 C740 1.496 . S
H748 C731 0.929 . S
H749 C732 0.929 . S
H750 C733 0.929 . S
H751 C734 0.931 . S
H752 C742 0.929 . S
H753 C743 0.929 . S
H754 C744 0.931 . S
H755 C745 0.929 . S
Tb756 N785 2.617 . S
Tb756 N791 2.572 . S
Tb756 O800 2.465 . S
Tb756 O801 2.387 1_565 S
Tb756 O803 2.428 . S
Tb756 O804 2.308 1_565 S
Tb756 O808 2.349 . S
Tb756 O811 2.393 . S
Tb756 C820 2.802 . S
C757 N758 1.379 . S
C757 C760 1.416 1_556 S
C757 C764 1.424 . S
N758 C757 1.379 . S
N758 C761 1.334 . S
N758 Tb767 2.617 . S
C759 C761 1.390 1_554 S
C759 C762 1.339 . S
C759 H779 0.930 . S
C760 C757 1.416 1_554 S
C760 C762 1.416 . S
C760 C766 1.448 . S
C761 N758 1.334 . S
C761 C759 1.390 1_556 S
C761 H772 0.930 . S
C762 C759 1.339 . S
C762 C760 1.416 . S
C762 H783 0.930 . S
C763 C764 1.413 . S
C763 C765 1.427 1_556 S
C763 C769 1.416 1_545 S
C764 C757 1.424 . S
C764 C763 1.413 . S
C764 N768 1.361 . S
C765 C763 1.427 1_554 S
C765 C766 1.328 . S
C765 H780 0.929 . S
C766 C760 1.448 . S
C766 C765 1.328 . S
C766 H781 0.930 . S
Tb767 N758 2.617 . S
Tb767 N768 2.572 . S
Tb767 O802 2.349 . S
Tb767 O805 2.393 . S
Tb767 O806 2.465 . S
Tb767 O807 2.387 1_545 S
Tb767 O809 2.428 . S
Tb767 O810 2.308 1_545 S
Tb767 C831 2.802 . S
N768 C764 1.361 . S
N768 Tb767 2.572 . S
N768 C770 1.340 . S
C769 C763 1.416 1_565 S
C769 C771 1.332 . S
C769 H777 0.931 . S
C770 N768 1.340 . S
C770 C771 1.407 1_545 S
C770 H776 0.930 . S
C771 C769 1.332 . S
C771 C770 1.407 1_565 S
C771 H773 0.929 . S
H772 C761 0.930 . S
H773 C771 0.929 . S
H774 C789 0.930 . S
H775 C796 0.929 . S
H776 C770 0.930 . S
H777 C769 0.931 . S
H778 C792 0.930 . S
H779 C759 0.930 . S
H780 C765 0.929 . S
H781 C766 0.930 . S
H782 C787 0.930 . S
H783 C762 0.930 . S
H784 C795 0.931 . S
N785 Tb756 2.617 . S
N785 C786 1.379 . S
N785 C789 1.334 . S
C786 N785 1.379 . S
C786 C788 1.416 . S
C786 C794 1.424 . S
C787 H782 0.930 . S
C787 C789 1.390 . S
C787 C790 1.339 . S
C788 C786 1.416 . S
C788 C790 1.416 . S
C788 C821 1.448 . S
C789 H774 0.930 . S
C789 N785 1.334 . S
C789 C787 1.390 . S
C790 C787 1.339 . S
C790 C788 1.416 . S
C790 H797 0.930 . S
N791 Tb756 2.572 . S
N791 C792 1.340 1_565 S
N791 C794 1.361 . S
C792 H778 0.930 . S
C792 N791 1.340 1_545 S
C792 C796 1.407 . S
C793 C794 1.413 . S
C793 C795 1.416 1_565 S
C793 C822 1.427 . S
C794 C786 1.424 . S
C794 N791 1.361 . S
C794 C793 1.413 . S
C795 H784 0.931 . S
C795 C793 1.416 1_545 S
C795 C796 1.332 . S
C796 H775 0.929 . S
C796 C792 1.407 . S
C796 C795 1.332 . S
H797 C790 0.930 . S
H798 C821 0.930 . S
H799 C822 0.929 . S
O800 Tb756 2.465 . S
O800 C820 1.264 . S
O801 Tb756 2.387 1_545 S
O801 C812 1.264 . S
O802 Tb767 2.349 . S
O802 C812 1.243 . S
O803 Tb756 2.428 . S
O803 C820 1.256 . S
O804 Tb756 2.308 1_545 S
O804 C819 1.266 . S
O805 Tb767 2.393 . S
O805 C819 1.248 . S
O806 Tb767 2.465 . S
O806 C831 1.264 . S
O807 Tb767 2.387 1_565 S
O807 C823 1.264 . S
O808 Tb756 2.349 . S
O808 C823 1.243 . S
O809 Tb767 2.428 . S
O809 C831 1.256 . S
O810 Tb767 2.308 1_565 S
O810 C830 1.266 . S
O811 Tb756 2.393 . S
O811 C830 1.248 . S
C812 O801 1.264 . S
C812 O802 1.243 . S
C813 C816 1.399 . S
C813 C818 1.383 . S
C813 C820 1.496 . S
C814 C815 1.399 . S
C814 C818 1.389 . S
C815 C814 1.399 . S
C815 C817 1.380 . S
C815 H832 0.929 . S
C816 C813 1.399 . S
C816 C817 1.392 . S
C816 H833 0.929 . S
C817 C815 1.380 . S
C817 C816 1.392 . S
C817 H834 0.929 . S
C818 C813 1.383 . S
C818 C814 1.389 . S
C818 H835 0.931 . S
C819 O804 1.266 . S
C819 O805 1.248 . S
C820 Tb756 2.802 . S
C820 O800 1.264 . S
C820 O803 1.256 . S
C820 C813 1.496 . S
C821 C788 1.448 . S
C821 H798 0.930 . S
C821 C822 1.328 . S
C822 C793 1.427 . S
C822 H799 0.929 . S
C822 C821 1.328 . S
C823 O807 1.264 . S
C823 O808 1.243 . S
C824 C827 1.399 . S
C824 C828 1.383 . S
C824 C831 1.496 . S
C825 C826 1.399 . S
C825 C828 1.389 . S
C826 C825 1.399 . S
C826 C829 1.380 . S
C826 H836 0.929 . S
C827 C824 1.399 . S
C827 C829 1.392 . S
C827 H837 0.929 . S
C828 C824 1.383 . S
C828 C825 1.389 . S
C828 H838 0.931 . S
C829 C826 1.380 . S
C829 C827 1.392 . S
C829 H839 0.929 . S
C830 O810 1.266 . S
C830 O811 1.248 . S
C831 Tb767 2.802 . S
C831 O806 1.264 . S
C831 O809 1.256 . S
C831 C824 1.496 . S
H832 C815 0.929 . S
H833 C816 0.929 . S
H834 C817 0.929 . S
H835 C818 0.931 . S
H836 C826 0.929 . S
H837 C827 0.929 . S
H838 C828 0.931 . S
H839 C829 0.929 . S
Tb840 N869 2.617 . S
Tb840 N875 2.572 . S
Tb840 O884 2.465 . S
Tb840 O885 2.387 . S
Tb840 O887 2.428 . S
Tb840 O888 2.308 . S
Tb840 O892 2.349 . S
Tb840 O895 2.393 1_565 S
Tb840 C904 2.802 . S
C841 N842 1.379 . S
C841 C844 1.416 . S
C841 C848 1.424 . S
N842 C841 1.379 . S
N842 C845 1.334 . S
N842 Tb851 2.617 . S
C843 C845 1.390 . S
C843 C846 1.339 . S
C843 H863 0.930 . S
C844 C841 1.416 . S
C844 C846 1.416 . S
C844 C850 1.448 . S
C845 N842 1.334 . S
C845 C843 1.390 . S
C845 H856 0.921 1_545 S
C846 C843 1.339 . S
C846 C844 1.416 . S
C846 H867 0.930 . S
C847 C848 1.413 . S
C847 C849 1.427 . S
C847 C853 1.416 . S
C848 C841 1.424 . S
C848 C847 1.413 . S
C848 N852 1.361 . S
C849 C847 1.427 . S
C849 C850 1.328 . S
C849 H864 0.929 . S
C850 C844 1.448 . S
C850 C849 1.328 . S
C850 H865 0.930 . S
Tb851 N842 2.617 . S
Tb851 N852 2.572 . S
Tb851 O886 2.349 1_545 S
Tb851 O889 2.393 1_545 S
Tb851 O890 2.465 . S
Tb851 O891 2.387 . S
Tb851 O893 2.428 . S
Tb851 O894 2.308 . S
Tb851 C915 2.802 . S
N852 C848 1.361 . S
N852 Tb851 2.572 . S
N852 C854 1.340 . S
C853 C847 1.416 . S
C853 C855 1.332 . S
C853 H861 0.931 . S
C854 N852 1.340 . S
C854 C855 1.407 . S
C854 H860 0.930 . S
C855 C853 1.332 . S
C855 C854 1.407 . S
C855 H857 0.929 . S
H856 C845 0.921 1_565 S
H857 C855 0.929 . S
H858 C873 0.930 . S
H859 C880 0.929 . S
H860 C854 0.930 . S
H861 C853 0.931 . S
H862 C876 0.930 . S
H863 C843 0.930 . S
H864 C849 0.929 . S
H865 C850 0.930 . S
H866 C871 0.930 . S
H867 C846 0.930 . S
H868 C879 0.931 . S
N869 Tb840 2.617 . S
N869 C870 1.379 . S
N869 C873 1.334 . S
C870 N869 1.379 . S
C870 C872 1.416 . S
C870 C878 1.424 . S
C871 H866 0.930 . S
C871 C873 1.390 . S
C871 C874 1.339 . S
C872 C870 1.416 . S
C872 C874 1.416 . S
C872 C905 1.448 . S
C873 H858 0.930 . S
C873 N869 1.334 . S
C873 C871 1.390 . S
C874 C871 1.339 . S
C874 C872 1.416 . S
C874 H881 0.930 . S
N875 Tb840 2.572 . S
N875 C876 1.340 . S
N875 C878 1.361 . S
C876 H862 0.930 . S
C876 N875 1.340 . S
C876 C880 1.407 . S
C877 C878 1.413 . S
C877 C879 1.416 . S
C877 C906 1.427 . S
C878 C870 1.424 . S
C878 N875 1.361 . S
C878 C877 1.413 . S
C879 H868 0.931 . S
C879 C877 1.416 . S
C879 C880 1.332 . S
C880 H859 0.929 . S
C880 C876 1.407 . S
C880 C879 1.332 . S
H881 C874 0.930 . S
H882 C905 0.930 . S
H883 C906 0.929 . S
O884 Tb840 2.465 . S
O884 C904 1.264 . S
O885 Tb840 2.387 . S
O885 C896 1.264 . S
O886 Tb851 2.349 1_565 S
O886 C896 1.243 . S
O887 Tb840 2.428 . S
O887 C904 1.256 . S
O888 Tb840 2.308 . S
O888 C903 1.266 . S
O889 Tb851 2.393 1_565 S
O889 C903 1.248 . S
O890 Tb851 2.465 . S
O890 C915 1.264 . S
O891 Tb851 2.387 . S
O891 C907 1.264 . S
O892 Tb840 2.349 . S
O892 C907 1.243 1_565 S
O893 Tb851 2.428 . S
O893 C915 1.256 . S
O894 Tb851 2.308 . S
O894 C914 1.266 . S
O895 Tb840 2.393 1_545 S
O895 C914 1.248 . S
C896 O885 1.264 . S
C896 O886 1.243 . S
C897 C900 1.399 . S
C897 C902 1.383 . S
C897 C904 1.496 . S
C898 C899 1.399 . S
C898 C902 1.389 . S
C899 C898 1.399 . S
C899 C901 1.380 . S
C899 H916 0.929 . S
C900 C897 1.399 . S
C900 C901 1.392 . S
C900 H917 0.929 . S
C901 C899 1.380 . S
C901 C900 1.392 . S
C901 H918 0.929 . S
C902 C897 1.383 . S
C902 C898 1.389 . S
C902 H919 0.931 . S
C903 O888 1.266 . S
C903 O889 1.248 . S
C904 Tb840 2.802 . S
C904 O884 1.264 . S
C904 O887 1.256 . S
C904 C897 1.496 . S
C905 C872 1.448 . S
C905 H882 0.930 . S
C905 C906 1.328 . S
C906 C877 1.427 . S
C906 H883 0.929 . S
C906 C905 1.328 . S
C907 O891 1.264 . S
C907 O892 1.243 1_545 S
C908 C911 1.399 . S
C908 C912 1.383 . S
C908 C915 1.496 . S
C909 C910 1.399 . S
C909 C912 1.389 . S
C910 C909 1.399 . S
C910 C913 1.380 . S
C910 H920 0.929 . S
C911 C908 1.399 . S
C911 C913 1.392 . S
C911 H921 0.929 . S
C912 C908 1.383 . S
C912 C909 1.389 . S
C912 H922 0.931 . S
C913 C910 1.380 . S
C913 C911 1.392 . S
C913 H923 0.929 . S
C914 O894 1.266 . S
C914 O895 1.248 . S
C915 Tb851 2.802 . S
C915 O890 1.264 . S
C915 O893 1.256 . S
C915 C908 1.496 . S
H916 C899 0.929 . S
H917 C900 0.929 . S
H918 C901 0.929 . S
H919 C902 0.931 . S
H920 C910 0.929 . S
H921 C911 0.929 . S
H922 C912 0.931 . S
H923 C913 0.929 . S
Tb924 N953 2.617 . S
Tb924 N959 2.572 . S
Tb924 O968 2.465 . S
Tb924 O969 2.387 . S
Tb924 O971 2.428 . S
Tb924 O972 2.308 . S
Tb924 O976 2.349 . S
Tb924 O979 2.393 . S
Tb924 C988 2.802 . S
C925 N926 1.379 . S
C925 C928 1.416 . S
C925 C932 1.424 . S
N926 C925 1.379 . S
N926 C929 1.334 . S
N926 Tb935 2.617 . S
C927 C929 1.390 . S
C927 C930 1.339 . S
C927 H947 0.930 . S
C928 C925 1.416 . S
C928 C930 1.416 . S
C928 C934 1.448 . S
C929 N926 1.334 . S
C929 C927 1.390 . S
C929 H940 0.930 . S
C930 C927 1.339 . S
C930 C928 1.416 . S
C930 H951 0.930 . S
C931 C932 1.413 . S
C931 C933 1.427 . S
C931 C937 1.416 . S
C932 C925 1.424 . S
C932 C931 1.413 . S
C932 N936 1.361 . S
C933 C931 1.427 . S
C933 C934 1.328 . S
C933 H948 0.929 . S
C934 C928 1.448 . S
C934 C933 1.328 . S
C934 H949 0.930 . S
Tb935 N926 2.617 . S
Tb935 N936 2.572 . S
Tb935 O970 2.349 . S
Tb935 O973 2.393 . S
Tb935 O974 2.465 . S
Tb935 O975 2.387 . S
Tb935 O977 2.428 . S
Tb935 O978 2.308 . S
Tb935 C999 2.802 . S
N936 C932 1.361 . S
N936 Tb935 2.572 . S
N936 C938 1.340 . S
C937 C931 1.416 . S
C937 C939 1.332 . S
C937 H945 0.931 . S
C938 N936 1.340 . S
C938 C939 1.407 . S
C938 H944 0.930 . S
C939 C937 1.332 . S
C939 C938 1.407 . S
C939 H941 0.929 . S
H940 C929 0.930 . S
H941 C939 0.929 . S
H942 C957 0.930 . S
H943 C964 0.929 . S
H944 C938 0.930 . S
H945 C937 0.931 . S
H946 C960 0.930 . S
H947 C927 0.930 . S
H948 C933 0.929 . S
H949 C934 0.930 . S
H950 C955 0.930 . S
H951 C930 0.930 . S
H952 C963 0.931 . S
N953 Tb924 2.617 . S
N953 C954 1.379 . S
N953 C957 1.334 . S
C954 N953 1.379 . S
C954 C956 1.416 . S
C954 C962 1.424 . S
C955 H950 0.930 . S
C955 C957 1.390 . S
C955 C958 1.339 . S
C956 C954 1.416 . S
C956 C958 1.416 . S
C956 C989 1.448 . S
C957 H942 0.930 . S
C957 N953 1.334 . S
C957 C955 1.390 . S
C958 C955 1.339 . S
C958 C956 1.416 . S
C958 H965 0.930 . S
N959 Tb924 2.572 . S
N959 C960 1.340 . S
N959 C962 1.361 . S
C960 H946 0.930 . S
C960 N959 1.340 . S
C960 C964 1.407 . S
C961 C962 1.413 . S
C961 C963 1.416 . S
C961 C990 1.427 . S
C962 C954 1.424 . S
C962 N959 1.361 . S
C962 C961 1.413 . S
C963 H952 0.931 . S
C963 C961 1.416 . S
C963 C964 1.332 . S
C964 H943 0.929 . S
C964 C960 1.407 . S
C964 C963 1.332 . S
H965 C958 0.930 . S
H966 C989 0.930 . S
H967 C990 0.929 . S
O968 Tb924 2.465 . S
O968 C988 1.264 . S
O969 Tb924 2.387 . S
O969 C980 1.264 . S
O970 Tb935 2.349 . S
O970 C980 1.243 . S
O971 Tb924 2.428 . S
O971 C988 1.256 . S
O972 Tb924 2.308 . S
O972 C987 1.266 . S
O973 Tb935 2.393 . S
O973 C987 1.248 . S
O974 Tb935 2.465 . S
O974 C999 1.264 . S
O975 Tb935 2.387 . S
O975 C991 1.264 . S
O976 Tb924 2.349 . S
O976 C991 1.243 . S
O977 Tb935 2.428 . S
O977 C999 1.256 . S
O978 Tb935 2.308 . S
O978 C998 1.266 . S
O979 Tb924 2.393 . S
O979 C998 1.248 . S
C980 O969 1.264 . S
C980 O970 1.243 . S
C981 C984 1.399 . S
C981 C986 1.383 . S
C981 C988 1.496 . S
C982 C983 1.399 . S
C982 C986 1.389 . S
C983 C982 1.399 . S
C983 C985 1.380 . S
C983 H1000 0.929 . S
C984 C981 1.399 . S
C984 C985 1.392 . S
C984 H1001 0.929 . S
C985 C983 1.380 . S
C985 C984 1.392 . S
C985 H1002 0.929 . S
C986 C981 1.383 . S
C986 C982 1.389 . S
C986 H1003 0.931 . S
C987 O972 1.266 . S
C987 O973 1.248 . S
C988 Tb924 2.802 . S
C988 O968 1.264 . S
C988 O971 1.256 . S
C988 C981 1.496 . S
C989 C956 1.448 . S
C989 H966 0.930 . S
C989 C990 1.328 . S
C990 C961 1.427 . S
C990 H967 0.929 . S
C990 C989 1.328 . S
C991 O975 1.264 . S
C991 O976 1.243 . S
C992 C995 1.399 . S
C992 C996 1.383 . S
C992 C999 1.496 . S
C993 C994 1.399 . S
C993 C996 1.389 . S
C994 C993 1.399 . S
C994 C997 1.380 . S
C994 H1004 0.929 . S
C995 C992 1.399 . S
C995 C997 1.392 . S
C995 H1005 0.929 . S
C996 C992 1.383 . S
C996 C993 1.389 . S
C996 H1006 0.931 . S
C997 C994 1.380 . S
C997 C995 1.392 . S
C997 H1007 0.929 . S
C998 O978 1.266 . S
C998 O979 1.248 . S
C999 Tb935 2.802 . S
C999 O974 1.264 . S
C999 O977 1.256 . S
C999 C992 1.496 . S
H1000 C983 0.929 . S
H1001 C984 0.929 . S
H1002 C985 0.929 . S
H1003 C986 0.931 . S
H1004 C994 0.929 . S
H1005 C995 0.929 . S
H1006 C996 0.931 . S
H1007 C997 0.929 . S
C1008 C1009 1.369 . S
C1008 C1010 1.419 . S
C1008 H1012 0.930 . S
C1009 C1008 1.369 . S
C1009 C1018 1.429 . S
C1010 C1008 1.419 . S
C1010 C1011 1.363 . S
C1010 H1013 0.929 . S
C1011 C1010 1.363 . S
C1011 C1017 1.428 . S
H1012 C1008 0.930 . S
H1013 C1010 0.929 . S
S1014 N1015 1.613 . S
S1014 N1016 1.610 . S
N1015 S1014 1.613 . S
N1015 C1018 1.350 . S
N1016 S1014 1.610 . S
N1016 C1017 1.351 . S
C1017 C1011 1.428 . S
C1017 N1016 1.351 . S
C1017 C1018 1.434 . S
C1018 C1009 1.429 . S
C1018 N1015 1.350 . S
C1018 C1017 1.434 . S
C1019 C1020 1.369 . S
C1019 C1021 1.419 . S
C1019 H1023 0.930 . S
C1020 C1019 1.369 . S
C1020 C1029 1.429 . S
C1021 C1019 1.419 . S
C1021 C1022 1.363 . S
C1021 H1024 0.929 . S
C1022 C1021 1.363 . S
C1022 C1028 1.428 . S
H1023 C1019 0.930 . S
H1024 C1021 0.929 . S
S1025 N1026 1.613 . S
S1025 N1027 1.610 . S
N1026 S1025 1.613 . S
N1026 C1029 1.350 . S
N1027 S1025 1.610 . S
N1027 C1028 1.351 . S
C1028 C1022 1.428 . S
C1028 N1027 1.351 . S
C1028 C1029 1.434 . S
C1029 C1020 1.429 . S
C1029 N1026 1.350 . S
C1029 C1028 1.434 . S
C1030 C1031 1.369 . S
C1030 C1032 1.419 . S
C1030 H1034 0.930 . S
C1031 C1030 1.369 . S
C1031 C1040 1.429 . S
C1032 C1030 1.419 . S
C1032 C1033 1.363 . S
C1032 H1035 0.929 . S
C1033 C1032 1.363 . S
C1033 C1039 1.428 . S
H1034 C1030 0.930 . S
H1035 C1032 0.929 . S
S1036 N1037 1.613 . S
S1036 N1038 1.610 . S
N1037 S1036 1.613 . S
N1037 C1040 1.350 . S
N1038 S1036 1.610 . S
N1038 C1039 1.351 . S
C1039 C1033 1.428 . S
C1039 N1038 1.351 . S
C1039 C1040 1.434 . S
C1040 C1031 1.429 . S
C1040 N1037 1.350 . S
C1040 C1039 1.434 . S
C1041 C1042 1.369 . S
C1041 C1043 1.419 . S
C1041 H1045 0.936 . S
C1042 C1041 1.369 . S
C1042 C1051 1.429 . S
C1043 C1041 1.419 . S
C1043 C1044 1.363 . S
C1043 H1046 0.929 1_545 S
C1044 C1043 1.363 . S
C1044 C1050 1.428 . S
H1045 C1041 0.936 . S
H1046 C1043 0.929 1_565 S
S1047 N1048 1.613 . S
S1047 N1049 1.610 . S
N1048 S1047 1.613 . S
N1048 C1051 1.350 . S
N1049 S1047 1.610 . S
N1049 C1050 1.351 . S
C1050 C1044 1.428 . S
C1050 N1049 1.351 . S
C1050 C1051 1.434 . S
C1051 C1042 1.429 . S
C1051 N1048 1.350 . S
C1051 C1050 1.434 . S
C1052 C1053 1.369 . S
C1052 C1054 1.419 . S
C1052 H1056 0.930 . S
C1053 C1052 1.369 . S
C1053 C1062 1.429 . S
C1054 C1052 1.419 . S
C1054 C1055 1.363 . S
C1054 H1057 0.929 . S
C1055 C1054 1.363 . S
C1055 C1061 1.428 . S
H1056 C1052 0.930 . S
H1057 C1054 0.929 . S
S1058 N1059 1.613 . S
S1058 N1060 1.610 . S
N1059 S1058 1.613 . S
N1059 C1062 1.350 . S
N1060 S1058 1.610 . S
N1060 C1061 1.351 . S
C1061 C1055 1.428 . S
C1061 N1060 1.351 . S
C1061 C1062 1.434 . S
C1062 C1053 1.429 . S
C1062 N1059 1.350 . S
C1062 C1061 1.434 . S
C1063 C1064 1.369 . S
C1063 C1065 1.419 . S
C1063 H1067 0.930 . S
C1064 C1063 1.369 . S
C1064 C1073 1.429 . S
C1065 C1063 1.419 . S
C1065 C1066 1.363 . S
C1065 H1068 0.929 . S
C1066 C1065 1.363 . S
C1066 C1072 1.428 . S
H1067 C1063 0.930 . S
H1068 C1065 0.929 . S
S1069 N1070 1.613 . S
S1069 N1071 1.610 . S
N1070 S1069 1.613 . S
N1070 C1073 1.350 . S
N1071 S1069 1.610 . S
N1071 C1072 1.351 . S
C1072 C1066 1.428 . S
C1072 N1071 1.351 . S
C1072 C1073 1.434 . S
C1073 C1064 1.429 . S
C1073 N1070 1.350 . S
C1073 C1072 1.434 . S
C1074 C1075 1.369 . S
C1074 C1076 1.419 . S
C1074 H1078 0.930 . S
C1075 C1074 1.369 . S
C1075 C1084 1.429 . S
C1076 C1074 1.419 . S
C1076 C1077 1.363 . S
C1076 H1079 0.929 . S
C1077 C1076 1.363 . S
C1077 C1083 1.428 . S
H1078 C1074 0.930 . S
H1079 C1076 0.929 . S
S1080 N1081 1.613 1_554 S
S1080 N1082 1.610 . S
N1081 S1080 1.613 1_556 S
N1081 C1084 1.350 . S
N1082 S1080 1.610 . S
N1082 C1083 1.351 1_554 S
C1083 C1077 1.428 . S
C1083 N1082 1.351 1_556 S
C1083 C1084 1.434 . S
C1084 C1075 1.429 . S
C1084 N1081 1.350 . S
C1084 C1083 1.434 . S
C1085 C1086 1.369 . S
C1085 C1087 1.419 . S
C1085 H1089 0.930 . S
C1086 C1085 1.369 . S
C1086 C1095 1.429 . S
C1087 C1085 1.419 . S
C1087 C1088 1.363 . S
C1087 H1090 0.929 . S
C1088 C1087 1.363 . S
C1088 C1094 1.428 . S
H1089 C1085 0.930 . S
H1090 C1087 0.929 . S
S1091 N1092 1.613 . S
S1091 N1093 1.610 . S
N1092 S1091 1.613 . S
N1092 C1095 1.350 . S
N1093 S1091 1.610 . S
N1093 C1094 1.351 . S
C1094 C1088 1.428 . S
C1094 N1093 1.351 . S
C1094 C1095 1.434 . S
C1095 C1086 1.429 . S
C1095 N1092 1.350 . S
C1095 C1094 1.434 . S
C1096 C1097 1.369 . S
C1096 C1098 1.419 . S
C1096 H1100 0.930 . S
C1097 C1096 1.369 . S
C1097 C1106 1.429 . S
C1098 C1096 1.419 . S
C1098 C1099 1.363 . S
C1098 H1101 0.929 . S
C1099 C1098 1.363 . S
C1099 C1105 1.428 . S
H1100 C1096 0.930 . S
H1101 C1098 0.929 . S
S1102 N1103 1.613 . S
S1102 N1104 1.610 . S
N1103 S1102 1.613 . S
N1103 C1106 1.350 . S
N1104 S1102 1.610 . S
N1104 C1105 1.351 . S
C1105 C1099 1.428 . S
C1105 N1104 1.351 . S
C1105 C1106 1.434 . S
C1106 C1097 1.429 . S
C1106 N1103 1.350 . S
C1106 C1105 1.434 . S
C1107 C1108 1.369 . S
C1107 C1109 1.419 . S
C1107 H1111 0.930 . S
C1108 C1107 1.369 . S
C1108 C1117 1.429 . S
C1109 C1107 1.419 . S
C1109 C1110 1.363 . S
C1109 H1112 0.929 . S
C1110 C1109 1.363 . S
C1110 C1116 1.428 . S
H1111 C1107 0.930 . S
H1112 C1109 0.929 . S
S1113 N1114 1.613 . S
S1113 N1115 1.610 . S
N1114 S1113 1.613 . S
N1114 C1117 1.350 1_655 S
N1115 S1113 1.610 . S
N1115 C1116 1.351 1_655 S
C1116 C1110 1.428 . S
C1116 N1115 1.351 1_455 S
C1116 C1117 1.434 . S
C1117 C1108 1.429 . S
C1117 N1114 1.350 1_455 S
C1117 C1116 1.434 . S
C1118 C1119 1.369 . S
C1118 C1120 1.419 . S
C1118 H1122 0.930 1_655 S
C1119 C1118 1.369 . S
C1119 C1128 1.429 . S
C1120 C1118 1.419 . S
C1120 C1121 1.363 . S
C1120 H1123 0.923 1_655 S
C1121 C1120 1.363 . S
C1121 C1127 1.428 . S
H1122 C1118 0.930 1_455 S
H1123 C1120 0.923 1_455 S
S1124 N1125 1.613 . S
S1124 N1126 1.610 . S
N1125 S1124 1.613 . S
N1125 C1128 1.350 . S
N1126 S1124 1.610 . S
N1126 C1127 1.351 . S
C1127 C1121 1.428 . S
C1127 N1126 1.351 . S
C1127 C1128 1.434 . S
C1128 C1119 1.429 . S
C1128 N1125 1.350 . S
C1128 C1127 1.434 . S
C1129 C1130 1.369 . S
C1129 C1131 1.419 . S
C1129 H1133 0.930 . S
C1130 C1129 1.369 . S
C1130 C1139 1.429 . S
C1131 C1129 1.419 . S
C1131 C1132 1.363 . S
C1131 H1134 0.929 . S
C1132 C1131 1.363 . S
C1132 C1138 1.428 . S
H1133 C1129 0.930 . S
H1134 C1131 0.929 . S
S1135 N1136 1.613 . S
S1135 N1137 1.610 . S
N1136 S1135 1.613 . S
N1136 C1139 1.350 . S
N1137 S1135 1.610 . S
N1137 C1138 1.351 . S
C1138 C1132 1.428 . S
C1138 N1137 1.351 . S
C1138 C1139 1.434 . S
C1139 C1130 1.429 . S
C1139 N1136 1.350 . S
C1139 C1138 1.434 . S
C1140 C1141 1.369 . S
C1140 C1142 1.419 . S
C1140 H1144 0.930 . S
C1141 C1140 1.369 . S
C1141 C1150 1.429 . S
C1142 C1140 1.419 . S
C1142 C1143 1.363 . S
C1142 H1145 0.929 . S
C1143 C1142 1.363 . S
C1143 C1149 1.428 . S
H1144 C1140 0.930 . S
H1145 C1142 0.929 . S
S1146 N1147 1.613 . S
S1146 N1148 1.610 . S
N1147 S1146 1.613 . S
N1147 C1150 1.350 . S
N1148 S1146 1.610 . S
N1148 C1149 1.351 . S
C1149 C1143 1.428 . S
C1149 N1148 1.351 . S
C1149 C1150 1.434 . S
C1150 C1141 1.429 . S
C1150 N1147 1.350 . S
C1150 C1149 1.434 . S
C1151 C1152 1.369 . S
C1151 C1153 1.419 . S
C1151 H1155 0.928 1_565 S
C1152 C1151 1.369 . S
C1152 C1161 1.429 . S
C1153 C1151 1.419 . S
C1153 C1154 1.363 . S
C1153 H1156 0.929 1_565 S
C1154 C1153 1.363 . S
C1154 C1160 1.428 . S
H1155 C1151 0.928 1_545 S
H1156 C1153 0.929 1_545 S
S1157 N1158 1.613 . S
S1157 N1159 1.610 . S
N1158 S1157 1.613 . S
N1158 C1161 1.350 . S
N1159 S1157 1.610 . S
N1159 C1160 1.351 . S
C1160 C1154 1.428 . S
C1160 N1159 1.351 . S
C1160 C1161 1.434 . S
C1161 C1152 1.429 . S
C1161 N1158 1.350 . S
C1161 C1160 1.434 . S
C1162 C1163 1.369 . S
C1162 C1164 1.419 . S
C1162 H1166 0.930 . S
C1163 C1162 1.369 . S
C1163 C1172 1.429 . S
C1164 C1162 1.419 . S
C1164 C1165 1.363 . S
C1164 H1167 0.929 . S
C1165 C1164 1.363 . S
C1165 C1171 1.428 . S
H1166 C1162 0.930 . S
H1167 C1164 0.929 . S
S1168 N1169 1.613 . S
S1168 N1170 1.610 . S
N1169 S1168 1.613 . S
N1169 C1172 1.350 . S
N1170 S1168 1.610 . S
N1170 C1171 1.351 . S
C1171 C1165 1.428 . S
C1171 N1170 1.351 . S
C1171 C1172 1.434 . S
C1172 C1163 1.429 . S
C1172 N1169 1.350 . S
C1172 C1171 1.434 . S
C1173 C1174 1.369 . S
C1173 C1175 1.419 1_554 S
C1173 H1177 0.930 . S
C1174 C1173 1.369 . S
C1174 C1183 1.429 . S
C1175 C1173 1.419 1_556 S
C1175 C1176 1.363 . S
C1175 H1178 0.929 1_545 S
C1176 C1175 1.363 . S
C1176 C1182 1.428 . S
H1177 C1173 0.930 . S
H1178 C1175 0.929 1_565 S
S1179 N1180 1.613 1_556 S
S1179 N1181 1.610 . S
N1180 S1179 1.613 1_554 S
N1180 C1183 1.350 . S
N1181 S1179 1.610 . S
N1181 C1182 1.351 . S
C1182 C1176 1.428 . S
C1182 N1181 1.351 . S
C1182 C1183 1.434 1_556 S
C1183 C1174 1.429 . S
C1183 N1180 1.350 . S
C1183 C1182 1.434 1_554 S
C1184 C1185 1.369 . S
C1184 C1186 1.419 . S
C1184 H1188 0.930 . S
C1185 C1184 1.369 . S
C1185 C1194 1.429 . S
C1186 C1184 1.419 . S
C1186 C1187 1.363 . S
C1186 H1189 0.929 . S
C1187 C1186 1.363 . S
C1187 C1193 1.428 . S
H1188 C1184 0.930 . S
H1189 C1186 0.929 . S
S1190 N1191 1.613 1_565 S
S1190 N1192 1.610 1_565 S
N1191 S1190 1.613 1_545 S
N1191 C1194 1.350 . S
N1192 S1190 1.610 1_545 S
N1192 C1193 1.351 . S
C1193 C1187 1.428 . S
C1193 N1192 1.351 . S
C1193 C1194 1.434 . S
C1194 C1185 1.429 . S
C1194 N1191 1.350 . S
C1194 C1193 1.434 . S
C1195 C1196 1.369 . S
C1195 C1197 1.419 1_554 S
C1195 H1199 0.930 . S
C1196 C1195 1.369 . S
C1196 C1205 1.429 . S
C1197 C1195 1.419 1_556 S
C1197 C1198 1.363 . S
C1197 H1200 0.929 . S
C1198 C1197 1.363 . S
C1198 C1204 1.428 . S
H1199 C1195 0.930 . S
H1200 C1197 0.929 . S
S1201 N1202 1.610 1_556 S
S1201 N1203 1.614 . S
N1202 S1201 1.610 1_554 S
N1202 C1205 1.350 . S
N1203 S1201 1.614 . S
N1203 C1204 1.351 . S
C1204 C1198 1.428 . S
C1204 N1203 1.351 . S
C1204 C1205 1.434 1_556 S
C1205 C1196 1.429 . S
C1205 N1202 1.350 . S
C1205 C1204 1.434 1_554 S
C1206 C1207 1.369 . S
C1206 C1208 1.419 . S
C1206 H1210 0.930 . S
C1207 C1206 1.369 . S
C1207 C1216 1.429 . S
C1208 C1206 1.419 . S
C1208 C1209 1.363 . S
C1208 H1211 0.929 . S
C1209 C1208 1.363 . S
C1209 C1215 1.428 . S
H1210 C1206 0.930 . S
H1211 C1208 0.929 . S
S1212 N1213 1.613 . S
S1212 N1214 1.610 . S
N1213 S1212 1.613 . S
N1213 C1216 1.350 . S
N1214 S1212 1.610 . S
N1214 C1215 1.351 . S
C1215 C1209 1.428 . S
C1215 N1214 1.351 . S
C1215 C1216 1.434 . S
C1216 C1207 1.429 . S
C1216 N1213 1.350 . S
C1216 C1215 1.434 . S
C1217 C1218 1.369 . S
C1217 C1219 1.419 . S
C1217 H1221 0.930 . S
C1218 C1217 1.369 . S
C1218 C1227 1.429 . S
C1219 C1217 1.419 . S
C1219 C1220 1.363 . S
C1219 H1222 0.929 . S
C1220 C1219 1.363 . S
C1220 C1226 1.428 . S
H1221 C1217 0.930 . S
H1222 C1219 0.929 . S
S1223 N1224 1.613 . S
S1223 N1225 1.610 . S
N1224 S1223 1.613 . S
N1224 C1227 1.350 . S
N1225 S1223 1.610 . S
N1225 C1226 1.351 . S
C1226 C1220 1.428 . S
C1226 N1225 1.351 . S
C1226 C1227 1.434 . S
C1227 C1218 1.429 . S
C1227 N1224 1.350 . S
C1227 C1226 1.434 . S
C1228 C1229 1.369 . S
C1228 C1230 1.419 . S
C1228 H1232 0.930 . S
C1229 C1228 1.369 . S
C1229 C1238 1.429 . S
C1230 C1228 1.419 . S
C1230 C1231 1.363 . S
C1230 H1233 0.929 . S
C1231 C1230 1.363 . S
C1231 C1237 1.428 . S
H1232 C1228 0.930 . S
H1233 C1230 0.929 . S
S1234 N1235 1.613 . S
S1234 N1236 1.610 . S
N1235 S1234 1.613 . S
N1235 C1238 1.350 . S
N1236 S1234 1.610 . S
N1236 C1237 1.351 . S
C1237 C1231 1.428 . S
C1237 N1236 1.351 . S
C1237 C1238 1.434 . S
C1238 C1229 1.429 . S
C1238 N1235 1.350 . S
C1238 C1237 1.434 . S
C1239 C1240 1.369 . S
C1239 C1241 1.419 1_545 S
C1239 H1243 0.919 1_455 S
C1240 C1239 1.369 . S
C1240 C1249 1.429 . S
C1241 C1239 1.419 1_565 S
C1241 C1242 1.363 . S
C1241 H1244 0.929 1_455 S
C1242 C1241 1.363 . S
C1242 C1248 1.428 . S
H1243 C1239 0.919 1_655 S
H1244 C1241 0.929 1_655 S
S1245 N1246 1.613 1_565 S
S1245 N1247 1.610 . S
N1246 S1245 1.613 1_545 S
N1246 C1249 1.350 . S
N1247 S1245 1.610 . S
N1247 C1248 1.351 . S
C1248 C1242 1.428 . S
C1248 N1247 1.351 . S
C1248 C1249 1.434 1_565 S
C1249 C1240 1.429 . S
C1249 N1246 1.350 . S
C1249 C1248 1.434 1_545 S
C1250 C1251 1.369 . S
C1250 C1252 1.419 . S
C1250 H1254 0.930 . S
C1251 C1250 1.369 . S
C1251 C1260 1.429 . S
C1252 C1250 1.419 . S
C1252 C1253 1.363 . S
C1252 H1255 0.929 . S
C1253 C1252 1.363 . S
C1253 C1259 1.428 . S
H1254 C1250 0.930 . S
H1255 C1252 0.929 . S
S1256 N1257 1.613 . S
S1256 N1258 1.610 . S
N1257 S1256 1.613 . S
N1257 C1260 1.350 . S
N1258 S1256 1.610 . S
N1258 C1259 1.351 . S
C1259 C1253 1.428 . S
C1259 N1258 1.351 . S
C1259 C1260 1.434 . S
C1260 C1251 1.429 . S
C1260 N1257 1.350 . S
C1260 C1259 1.434 . S
C1261 C1262 1.369 . S
C1261 C1263 1.419 1_545 S
C1261 H1265 0.930 . S
C1262 C1261 1.369 . S
C1262 C1271 1.429 . S
C1263 C1261 1.419 1_565 S
C1263 C1264 1.363 . S
C1263 H1266 0.929 . S
C1264 C1263 1.363 . S
C1264 C1270 1.428 . S
H1265 C1261 0.930 . S
H1266 C1263 0.929 . S
S1267 N1268 1.613 1_565 S
S1267 N1269 1.610 . S
N1268 S1267 1.613 1_545 S
N1268 C1271 1.350 . S
N1269 S1267 1.610 . S
N1269 C1270 1.351 . S
C1270 C1264 1.428 . S
C1270 N1269 1.351 . S
C1270 C1271 1.434 1_565 S
C1271 C1262 1.429 . S
C1271 N1268 1.350 . S
C1271 C1270 1.434 1_545 S
C1272 C1273 1.369 . S
C1272 C1274 1.419 . S
C1272 H1276 0.930 . S
C1273 C1272 1.369 . S
C1273 C1282 1.429 . S
C1274 C1272 1.419 . S
C1274 C1275 1.363 . S
C1274 H1277 0.929 . S
C1275 C1274 1.363 . S
C1275 C1281 1.428 . S
H1276 C1272 0.930 . S
H1277 C1274 0.929 . S
S1278 N1279 1.613 . S
S1278 N1280 1.610 . S
N1279 S1278 1.613 . S
N1279 C1282 1.350 . S
N1280 S1278 1.610 . S
N1280 C1281 1.351 . S
C1281 C1275 1.428 . S
C1281 N1280 1.351 . S
C1281 C1282 1.434 . S
C1282 C1273 1.429 . S
C1282 N1279 1.350 . S
C1282 C1281 1.434 . S
C1283 C1284 1.369 . S
C1283 C1285 1.419 . S
C1283 H1287 0.930 . S
C1284 C1283 1.369 . S
C1284 C1293 1.429 . S
C1285 C1283 1.419 . S
C1285 C1286 1.363 . S
C1285 H1288 0.929 . S
C1286 C1285 1.363 . S
C1286 C1292 1.428 . S
H1287 C1283 0.930 . S
H1288 C1285 0.929 . S
S1289 N1290 1.613 . S
S1289 N1291 1.610 . S
N1290 S1289 1.613 . S
N1290 C1293 1.350 . S
N1291 S1289 1.610 . S
N1291 C1292 1.351 . S
C1292 C1286 1.428 . S
C1292 N1291 1.351 . S
C1292 C1293 1.434 . S
C1293 C1284 1.429 . S
C1293 N1290 1.350 . S
C1293 C1292 1.434 . S
C1294 C1295 1.369 . S
C1294 C1296 1.419 . S
C1294 H1298 0.930 . S
C1295 C1294 1.369 . S
C1295 C1304 1.429 . S
C1296 C1294 1.419 . S
C1296 C1297 1.363 . S
C1296 H1299 0.929 . S
C1297 C1296 1.363 . S
C1297 C1303 1.428 . S
H1298 C1294 0.930 . S
H1299 C1296 0.929 . S
S1300 N1301 1.613 . S
S1300 N1302 1.610 . S
N1301 S1300 1.613 . S
N1301 C1304 1.350 . S
N1302 S1300 1.610 . S
N1302 C1303 1.351 . S
C1303 C1297 1.428 . S
C1303 N1302 1.351 . S
C1303 C1304 1.434 . S
C1304 C1295 1.429 . S
C1304 N1301 1.350 . S
C1304 C1303 1.434 . S
C1305 C1306 1.369 . S
C1305 C1307 1.419 . S
C1305 H1309 0.930 . S
C1306 C1305 1.369 . S
C1306 C1315 1.429 . S
C1307 C1305 1.419 . S
C1307 C1308 1.363 . S
C1307 H1310 0.929 . S
C1308 C1307 1.363 . S
C1308 C1314 1.428 . S
H1309 C1305 0.930 . S
H1310 C1307 0.929 . S
S1311 N1312 1.613 . S
S1311 N1313 1.610 . S
N1312 S1311 1.613 . S
N1312 C1315 1.350 . S
N1313 S1311 1.610 . S
N1313 C1314 1.351 . S
C1314 C1308 1.428 . S
C1314 N1313 1.351 . S
C1314 C1315 1.434 . S
C1315 C1306 1.429 . S
C1315 N1312 1.350 . S
C1315 C1314 1.434 . S
C1316 C1317 1.369 . S
C1316 C1318 1.419 . S
C1316 H1320 0.930 . S
C1317 C1316 1.369 . S
C1317 C1326 1.429 . S
C1318 C1316 1.419 . S
C1318 C1319 1.363 . S
C1318 H1321 0.929 . S
C1319 C1318 1.363 . S
C1319 C1325 1.428 . S
H1320 C1316 0.930 . S
H1321 C1318 0.929 . S
S1322 N1323 1.613 . S
S1322 N1324 1.610 . S
N1323 S1322 1.613 . S
N1323 C1326 1.350 . S
N1324 S1322 1.610 . S
N1324 C1325 1.351 . S
C1325 C1319 1.428 . S
C1325 N1324 1.351 . S
C1325 C1326 1.434 . S
C1326 C1317 1.429 . S
C1326 N1323 1.350 . S
C1326 C1325 1.434 . S
C1327 C1328 1.369 . S
C1327 C1329 1.419 . S
C1327 H1331 0.930 . S
C1328 C1327 1.369 . S
C1328 C1337 1.429 . S
C1329 C1327 1.419 . S
C1329 C1330 1.363 . S
C1329 H1332 0.929 . S
C1330 C1329 1.363 . S
C1330 C1336 1.428 . S
H1331 C1327 0.930 . S
H1332 C1329 0.929 . S
S1333 N1334 1.613 . S
S1333 N1335 1.610 . S
N1334 S1333 1.613 . S
N1334 C1337 1.350 . S
N1335 S1333 1.610 . S
N1335 C1336 1.351 . S
C1336 C1330 1.428 . S
C1336 N1335 1.351 . S
C1336 C1337 1.434 . S
C1337 C1328 1.429 . S
C1337 N1334 1.350 . S
C1337 C1336 1.434 . S
C1338 C1339 1.369 . S
C1338 C1340 1.419 1_455 S
C1338 H1342 0.930 . S
C1339 C1338 1.369 . S
C1339 C1348 1.429 . S
C1340 C1338 1.419 1_655 S
C1340 C1341 1.363 . S
C1340 H1343 0.929 . S
C1341 C1340 1.363 . S
C1341 C1347 1.428 . S
H1342 C1338 0.930 . S
H1343 C1340 0.929 . S
S1344 N1345 1.613 . S
S1344 N1346 1.610 1_455 S
N1345 S1344 1.613 . S
N1345 C1348 1.350 1_556 S
N1346 S1344 1.610 1_655 S
N1346 C1347 1.351 1_556 S
C1347 C1341 1.428 . S
C1347 N1346 1.351 1_554 S
C1347 C1348 1.434 1_655 S
C1348 C1339 1.429 . S
C1348 N1345 1.350 1_554 S
C1348 C1347 1.434 1_455 S
C1349 C1350 1.369 . S
C1349 C1351 1.419 . S
C1349 H1353 0.930 . S
C1350 C1349 1.369 . S
C1350 C1359 1.429 . S
C1351 C1349 1.419 . S
C1351 C1352 1.363 . S
C1351 H1354 0.929 . S
C1352 C1351 1.363 . S
C1352 C1358 1.428 . S
H1353 C1349 0.930 . S
H1354 C1351 0.929 . S
S1355 N1356 1.613 . S
S1355 N1357 1.610 . S
N1356 S1355 1.613 . S
N1356 C1359 1.350 . S
N1357 S1355 1.610 . S
N1357 C1358 1.351 . S
C1358 C1352 1.428 . S
C1358 N1357 1.351 . S
C1358 C1359 1.434 . S
C1359 C1350 1.429 . S
C1359 N1356 1.350 . S
C1359 C1358 1.434 . S
C1360 C1361 1.369 . S
C1360 C1362 1.419 . S
C1360 H1364 0.930 . S
C1361 C1360 1.369 . S
C1361 C1370 1.429 . S
C1362 C1360 1.419 . S
C1362 C1363 1.363 . S
C1362 H1365 0.929 . S
C1363 C1362 1.363 . S
C1363 C1369 1.428 . S
H1364 C1360 0.930 . S
H1365 C1362 0.929 . S
S1366 N1367 1.613 . S
S1366 N1368 1.610 . S
N1367 S1366 1.613 . S
N1367 C1370 1.350 . S
N1368 S1366 1.610 . S
N1368 C1369 1.351 . S
C1369 C1363 1.428 . S
C1369 N1368 1.351 . S
C1369 C1370 1.434 . S
C1370 C1361 1.429 . S
C1370 N1367 1.350 . S
C1370 C1369 1.434 . S
C1371 C1372 1.369 . S
C1371 C1373 1.419 . S
C1371 H1375 0.930 . S
C1372 C1371 1.369 . S
C1372 C1381 1.429 . S
C1373 C1371 1.419 . S
C1373 C1374 1.363 . S
C1373 H1376 0.929 . S
C1374 C1373 1.363 . S
C1374 C1380 1.428 . S
H1375 C1371 0.930 . S
H1376 C1373 0.929 . S
S1377 N1378 1.613 1_655 S
S1377 N1379 1.610 1_655 S
N1378 S1377 1.613 1_455 S
N1378 C1381 1.350 . S
N1379 S1377 1.610 1_455 S
N1379 C1380 1.351 . S
C1380 C1374 1.428 . S
C1380 N1379 1.351 . S
C1380 C1381 1.434 . S
C1381 C1372 1.429 . S
C1381 N1378 1.350 . S
C1381 C1380 1.434 . S
C1382 C1383 1.369 . S
C1382 C1384 1.419 . S
C1382 H1386 0.930 1_556 S
C1383 C1382 1.369 . S
C1383 C1392 1.429 . S
C1384 C1382 1.419 . S
C1384 C1385 1.363 . S
C1384 H1387 0.929 . S
C1385 C1384 1.363 . S
C1385 C1391 1.428 . S
H1386 C1382 0.930 1_554 S
H1387 C1384 0.929 . S
S1388 N1389 1.613 . S
S1388 N1390 1.610 . S
N1389 S1388 1.613 . S
N1389 C1392 1.350 . S
N1390 S1388 1.610 . S
N1390 C1391 1.351 . S
C1391 C1385 1.428 . S
C1391 N1390 1.351 . S
C1391 C1392 1.434 . S
C1392 C1383 1.429 . S
C1392 N1389 1.350 . S
C1392 C1391 1.434 . S
C1393 C1394 1.369 . S
C1393 C1395 1.419 1_655 S
C1393 H1397 0.930 . S
C1394 C1393 1.369 . S
C1394 C1403 1.429 . S
C1395 C1393 1.419 1_455 S
C1395 C1396 1.363 . S
C1395 H1398 0.929 . S
C1396 C1395 1.363 . S
C1396 C1402 1.428 . S
H1397 C1393 0.930 . S
H1398 C1395 0.929 . S
S1399 N1400 1.613 1_455 S
S1399 N1401 1.610 . S
N1400 S1399 1.613 1_655 S
N1400 C1403 1.350 . S
N1401 S1399 1.610 . S
N1401 C1402 1.351 . S
C1402 C1396 1.428 . S
C1402 N1401 1.351 . S
C1402 C1403 1.434 1_455 S
C1403 C1394 1.429 . S
C1403 N1400 1.350 . S
C1403 C1402 1.434 1_655 S
C1009 C74 1.703 . S
C1011 C991 1.735 . S
C1020 C830 1.746 . S
C1022 C158 1.745 . S
C1031 C235 1.740 . S
C1033 C746 1.704 . S
C1042 C326 1.714 . S
C1044 C907 1.751 . S
C1053 C410 1.734 . S
C1055 C914 1.736 . S
C1064 C487 1.741 . S
C1066 C998 1.712 . S
C1075 C823 1.749 . S
C1077 C578 1.711 . S
C1086 C655 1.715 . S
C1088 C739 1.711 . S
C1097 C319 1.722 . S
C1099 C403 1.726 . S
C1108 C67 1.759 . S
C1110 C494 1.725 . S
C1119 C151 1.725 . S
C1121 C571 1.723 . S
C1130 C662 1.748 . S
C1132 C242 1.748 . S
C1141 C69 1.436 . S
C1143 C735 1.729 . S
C1152 C153 1.442 . S
C1154 C896 1.722 . S
C1163 C980 1.741 . S
C1165 C226 1.788 . S
C1174 C321 1.413 . S
C1176 C819 1.701 . S
C1185 C405 1.436 . S
C1187 C812 1.694 . S
C1196 C728 1.724 . S
C1198 C478 1.765 . S
C1207 C903 1.713 . S
C1209 C573 1.409 . S
C1218 C987 1.775 . S
C1220 C646 1.799 . S
C1229 C56 1.714 . S
C1231 C310 1.759 . S
C1240 C58 1.738 . S
C1242 C140 1.704 . S
C1251 C142 1.779 . S
C1253 C231 1.759 . S
C1262 C308 1.699 . S
C1264 C237 1.445 . S
C1273 C489 1.434 . S
C1275 C392 1.682 . S
C1284 C483 1.735 . S
C1286 C562 1.748 . S
C1295 C560 1.697 . S
C1297 C657 1.417 . S
C1306 C394 1.767 . S
C1308 C651 1.746 . S
C1317 C730 1.723 . S
C1319 C315 1.712 . S
C1328 C476 1.679 . S
C1330 C825 1.417 . S
C1339 C741 1.418 . S
C1341 C567 1.701 . S
C1350 C898 1.762 . S
C1352 C644 1.730 . S
C1361 C399 1.756 . S
C1363 C982 1.775 . S
C1372 C993 1.435 . S
C1374 C147 1.723 . S
C1383 C224 1.731 . S
C1385 C814 1.771 . S
C1394 C909 1.426 . S
C1396 C63 1.726 . S
