# Generated by pormake.
# Topology wio, (6)-cn, num edge types: 1
# Building blocks:
#     Node 0, Type 0, BuildingBlock: JUFBIX_clean_sbu_0, # of connection points: 6
#     Node 1, Type 0, BuildingBlock: JUFBIX_clean_sbu_0, # of connection points: 6
#     Node 2, Type 0, BuildingBlock: JUFBIX_clean_sbu_0, # of connection points: 6
#     Node 3, Type 0, BuildingBlock: JUFBIX_clean_sbu_0, # of connection points: 6
#     Node 4, Type 0, BuildingBlock: JUFBIX_clean_sbu_0, # of connection points: 6
#     Node 5, Type 0, BuildingBlock: JUFBIX_clean_sbu_0, # of connection points: 6
#     Node 6, Type 0, BuildingBlock: JUFBIX_clean_sbu_0, # of connection points: 6
#     Node 7, Type 0, BuildingBlock: JUFBIX_clean_sbu_0, # of connection points: 6
#     Node 8, Type 0, BuildingBlock: JUFBIX_clean_sbu_0, # of connection points: 6
#     Node 9, Type 0, BuildingBlock: JUFBIX_clean_sbu_0, # of connection points: 6
#     Node 10, Type 0, BuildingBlock: JUFBIX_clean_sbu_0, # of connection points: 6
#     Node 11, Type 0, BuildingBlock: JUFBIX_clean_sbu_0, # of connection points: 6
#     Node 12, Type 0, BuildingBlock: JUFBIX_clean_sbu_0, # of connection points: 6
#     Node 13, Type 0, BuildingBlock: JUFBIX_clean_sbu_0, # of connection points: 6
#     Node 14, Type 0, BuildingBlock: JUFBIX_clean_sbu_0, # of connection points: 6
#     Node 15, Type 0, BuildingBlock: JUFBIX_clean_sbu_0, # of connection points: 6
#     Node 16, Type 0, BuildingBlock: JUFBIX_clean_sbu_0, # of connection points: 6
#     Node 17, Type 0, BuildingBlock: JUFBIX_clean_sbu_0, # of connection points: 6
#     Node 18, Type 0, BuildingBlock: JUFBIX_clean_sbu_0, # of connection points: 6
#     Node 19, Type 0, BuildingBlock: JUFBIX_clean_sbu_0, # of connection points: 6
#     Node 20, Type 0, BuildingBlock: JUFBIX_clean_sbu_0, # of connection points: 6
#     Node 21, Type 0, BuildingBlock: JUFBIX_clean_sbu_0, # of connection points: 6
#     Node 22, Type 0, BuildingBlock: JUFBIX_clean_sbu_0, # of connection points: 6
#     Node 23, Type 0, BuildingBlock: JUFBIX_clean_sbu_0, # of connection points: 6
#     Node 24, Type 0, BuildingBlock: JUFBIX_clean_sbu_0, # of connection points: 6
#     Node 25, Type 0, BuildingBlock: JUFBIX_clean_sbu_0, # of connection points: 6
#     Node 26, Type 0, BuildingBlock: JUFBIX_clean_sbu_0, # of connection points: 6
#     Node 27, Type 0, BuildingBlock: JUFBIX_clean_sbu_0, # of connection points: 6
#     Node 28, Type 0, BuildingBlock: JUFBIX_clean_sbu_0, # of connection points: 6
#     Node 29, Type 0, BuildingBlock: JUFBIX_clean_sbu_0, # of connection points: 6
#     Node 30, Type 0, BuildingBlock: JUFBIX_clean_sbu_0, # of connection points: 6
#     Node 31, Type 0, BuildingBlock: JUFBIX_clean_sbu_0, # of connection points: 6
#     Edge 32, Type (0, 0), BuildingBlock: OJICUG_clean_linker_0, # of connection points: 2
#     Edge 33, Type (0, 0), BuildingBlock: OJICUG_clean_linker_0, # of connection points: 2
#     Edge 34, Type (0, 0), BuildingBlock: OJICUG_clean_linker_0, # of connection points: 2
#     Edge 35, Type (0, 0), BuildingBlock: OJICUG_clean_linker_0, # of connection points: 2
#     Edge 36, Type (0, 0), BuildingBlock: OJICUG_clean_linker_0, # of connection points: 2
#     Edge 37, Type (0, 0), BuildingBlock: OJICUG_clean_linker_0, # of connection points: 2
#     Edge 38, Type (0, 0), BuildingBlock: OJICUG_clean_linker_0, # of connection points: 2
#     Edge 39, Type (0, 0), BuildingBlock: OJICUG_clean_linker_0, # of connection points: 2
#     Edge 40, Type (0, 0), BuildingBlock: OJICUG_clean_linker_0, # of connection points: 2
#     Edge 41, Type (0, 0), BuildingBlock: OJICUG_clean_linker_0, # of connection points: 2
#     Edge 42, Type (0, 0), BuildingBlock: OJICUG_clean_linker_0, # of connection points: 2
#     Edge 43, Type (0, 0), BuildingBlock: OJICUG_clean_linker_0, # of connection points: 2
#     Edge 44, Type (0, 0), BuildingBlock: OJICUG_clean_linker_0, # of connection points: 2
#     Edge 45, Type (0, 0), BuildingBlock: OJICUG_clean_linker_0, # of connection points: 2
#     Edge 46, Type (0, 0), BuildingBlock: OJICUG_clean_linker_0, # of connection points: 2
#     Edge 47, Type (0, 0), BuildingBlock: OJICUG_clean_linker_0, # of connection points: 2
#     Edge 48, Type (0, 0), BuildingBlock: OJICUG_clean_linker_0, # of connection points: 2
#     Edge 49, Type (0, 0), BuildingBlock: OJICUG_clean_linker_0, # of connection points: 2
#     Edge 50, Type (0, 0), BuildingBlock: OJICUG_clean_linker_0, # of connection points: 2
#     Edge 51, Type (0, 0), BuildingBlock: OJICUG_clean_linker_0, # of connection points: 2
#     Edge 52, Type (0, 0), BuildingBlock: OJICUG_clean_linker_0, # of connection points: 2
#     Edge 53, Type (0, 0), BuildingBlock: OJICUG_clean_linker_0, # of connection points: 2
#     Edge 54, Type (0, 0), BuildingBlock: OJICUG_clean_linker_0, # of connection points: 2
#     Edge 55, Type (0, 0), BuildingBlock: OJICUG_clean_linker_0, # of connection points: 2
#     Edge 56, Type (0, 0), BuildingBlock: OJICUG_clean_linker_0, # of connection points: 2
#     Edge 57, Type (0, 0), BuildingBlock: OJICUG_clean_linker_0, # of connection points: 2
#     Edge 58, Type (0, 0), BuildingBlock: OJICUG_clean_linker_0, # of connection points: 2
#     Edge 59, Type (0, 0), BuildingBlock: OJICUG_clean_linker_0, # of connection points: 2
#     Edge 60, Type (0, 0), BuildingBlock: OJICUG_clean_linker_0, # of connection points: 2
#     Edge 61, Type (0, 0), BuildingBlock: OJICUG_clean_linker_0, # of connection points: 2
#     Edge 62, Type (0, 0), BuildingBlock: OJICUG_clean_linker_0, # of connection points: 2
#     Edge 63, Type (0, 0), BuildingBlock: OJICUG_clean_linker_0, # of connection points: 2
#     Edge 64, Type (0, 0), BuildingBlock: OJICUG_clean_linker_0, # of connection points: 2
#     Edge 65, Type (0, 0), BuildingBlock: OJICUG_clean_linker_0, # of connection points: 2
#     Edge 66, Type (0, 0), BuildingBlock: OJICUG_clean_linker_0, # of connection points: 2
#     Edge 67, Type (0, 0), BuildingBlock: OJICUG_clean_linker_0, # of connection points: 2
#     Edge 68, Type (0, 0), BuildingBlock: OJICUG_clean_linker_0, # of connection points: 2
#     Edge 69, Type (0, 0), BuildingBlock: OJICUG_clean_linker_0, # of connection points: 2
#     Edge 70, Type (0, 0), BuildingBlock: OJICUG_clean_linker_0, # of connection points: 2
#     Edge 71, Type (0, 0), BuildingBlock: OJICUG_clean_linker_0, # of connection points: 2
#     Edge 72, Type (0, 0), BuildingBlock: OJICUG_clean_linker_0, # of connection points: 2
#     Edge 73, Type (0, 0), BuildingBlock: OJICUG_clean_linker_0, # of connection points: 2
#     Edge 74, Type (0, 0), BuildingBlock: OJICUG_clean_linker_0, # of connection points: 2
#     Edge 75, Type (0, 0), BuildingBlock: OJICUG_clean_linker_0, # of connection points: 2
#     Edge 76, Type (0, 0), BuildingBlock: OJICUG_clean_linker_0, # of connection points: 2
#     Edge 77, Type (0, 0), BuildingBlock: OJICUG_clean_linker_0, # of connection points: 2
#     Edge 78, Type (0, 0), BuildingBlock: OJICUG_clean_linker_0, # of connection points: 2
#     Edge 79, Type (0, 0), BuildingBlock: OJICUG_clean_linker_0, # of connection points: 2
#     Edge 80, Type (0, 0), BuildingBlock: OJICUG_clean_linker_0, # of connection points: 2
#     Edge 81, Type (0, 0), BuildingBlock: OJICUG_clean_linker_0, # of connection points: 2
#     Edge 82, Type (0, 0), BuildingBlock: OJICUG_clean_linker_0, # of connection points: 2
#     Edge 83, Type (0, 0), BuildingBlock: OJICUG_clean_linker_0, # of connection points: 2
#     Edge 84, Type (0, 0), BuildingBlock: OJICUG_clean_linker_0, # of connection points: 2
#     Edge 85, Type (0, 0), BuildingBlock: OJICUG_clean_linker_0, # of connection points: 2
#     Edge 86, Type (0, 0), BuildingBlock: OJICUG_clean_linker_0, # of connection points: 2
#     Edge 87, Type (0, 0), BuildingBlock: OJICUG_clean_linker_0, # of connection points: 2
#     Edge 88, Type (0, 0), BuildingBlock: OJICUG_clean_linker_0, # of connection points: 2
#     Edge 89, Type (0, 0), BuildingBlock: OJICUG_clean_linker_0, # of connection points: 2
#     Edge 90, Type (0, 0), BuildingBlock: OJICUG_clean_linker_0, # of connection points: 2
#     Edge 91, Type (0, 0), BuildingBlock: OJICUG_clean_linker_0, # of connection points: 2
#     Edge 92, Type (0, 0), BuildingBlock: OJICUG_clean_linker_0, # of connection points: 2
#     Edge 93, Type (0, 0), BuildingBlock: OJICUG_clean_linker_0, # of connection points: 2
#     Edge 94, Type (0, 0), BuildingBlock: OJICUG_clean_linker_0, # of connection points: 2
#     Edge 95, Type (0, 0), BuildingBlock: OJICUG_clean_linker_0, # of connection points: 2
#     Edge 96, Type (0, 0), BuildingBlock: OJICUG_clean_linker_0, # of connection points: 2
#     Edge 97, Type (0, 0), BuildingBlock: OJICUG_clean_linker_0, # of connection points: 2
#     Edge 98, Type (0, 0), BuildingBlock: OJICUG_clean_linker_0, # of connection points: 2
#     Edge 99, Type (0, 0), BuildingBlock: OJICUG_clean_linker_0, # of connection points: 2
#     Edge 100, Type (0, 0), BuildingBlock: OJICUG_clean_linker_0, # of connection points: 2
#     Edge 101, Type (0, 0), BuildingBlock: OJICUG_clean_linker_0, # of connection points: 2
#     Edge 102, Type (0, 0), BuildingBlock: OJICUG_clean_linker_0, # of connection points: 2
#     Edge 103, Type (0, 0), BuildingBlock: OJICUG_clean_linker_0, # of connection points: 2
#     Edge 104, Type (0, 0), BuildingBlock: OJICUG_clean_linker_0, # of connection points: 2
#     Edge 105, Type (0, 0), BuildingBlock: OJICUG_clean_linker_0, # of connection points: 2
#     Edge 106, Type (0, 0), BuildingBlock: OJICUG_clean_linker_0, # of connection points: 2
#     Edge 107, Type (0, 0), BuildingBlock: OJICUG_clean_linker_0, # of connection points: 2
#     Edge 108, Type (0, 0), BuildingBlock: OJICUG_clean_linker_0, # of connection points: 2
#     Edge 109, Type (0, 0), BuildingBlock: OJICUG_clean_linker_0, # of connection points: 2
#     Edge 110, Type (0, 0), BuildingBlock: OJICUG_clean_linker_0, # of connection points: 2
#     Edge 111, Type (0, 0), BuildingBlock: OJICUG_clean_linker_0, # of connection points: 2
#     Edge 112, Type (0, 0), BuildingBlock: OJICUG_clean_linker_0, # of connection points: 2
#     Edge 113, Type (0, 0), BuildingBlock: OJICUG_clean_linker_0, # of connection points: 2
#     Edge 114, Type (0, 0), BuildingBlock: OJICUG_clean_linker_0, # of connection points: 2
#     Edge 115, Type (0, 0), BuildingBlock: OJICUG_clean_linker_0, # of connection points: 2
#     Edge 116, Type (0, 0), BuildingBlock: OJICUG_clean_linker_0, # of connection points: 2
#     Edge 117, Type (0, 0), BuildingBlock: OJICUG_clean_linker_0, # of connection points: 2
#     Edge 118, Type (0, 0), BuildingBlock: OJICUG_clean_linker_0, # of connection points: 2
#     Edge 119, Type (0, 0), BuildingBlock: OJICUG_clean_linker_0, # of connection points: 2
#     Edge 120, Type (0, 0), BuildingBlock: OJICUG_clean_linker_0, # of connection points: 2
#     Edge 121, Type (0, 0), BuildingBlock: OJICUG_clean_linker_0, # of connection points: 2
#     Edge 122, Type (0, 0), BuildingBlock: OJICUG_clean_linker_0, # of connection points: 2
#     Edge 123, Type (0, 0), BuildingBlock: OJICUG_clean_linker_0, # of connection points: 2
#     Edge 124, Type (0, 0), BuildingBlock: OJICUG_clean_linker_0, # of connection points: 2
#     Edge 125, Type (0, 0), BuildingBlock: OJICUG_clean_linker_0, # of connection points: 2
#     Edge 126, Type (0, 0), BuildingBlock: OJICUG_clean_linker_0, # of connection points: 2
#     Edge 127, Type (0, 0), BuildingBlock: OJICUG_clean_linker_0, # of connection points: 2
# Relax obj value: 0.537
# Max RMSD: 0.267
# Mean RMSD: 0.257
data_MOF--net-wio--node1-JUFBIX_clean_sbu_0--edge1-OJICUG_clean_linker_0
_symmetry_space_group_name_H-M    P1
_symmetry_Int_Tables_number       1
_symmetry_cell_setting            triclinic
loop_
_symmetry_equiv_pos_as_xyz
'x, y, z'
_cell_length_a     41.424556
_cell_length_b     39.128654
_cell_length_c     34.452139
_cell_angle_alpha  86.240912
_cell_angle_beta   88.089912
_cell_angle_gamma 90.112954
loop_
_atom_site_label
_atom_site_type_symbol
_atom_site_fract_x
_atom_site_fract_y
_atom_site_fract_z
_atom_type_partial_charge
Co0 Co 0.18179 0.11102 0.31435 0.0
C1 C 0.16413 0.17235 0.34633 0.0
Co2 Co 0.12965 0.11656 0.32415 0.0
C3 C 0.23908 0.09441 0.27145 0.0
C4 C 0.25088 0.11279 0.32641 0.0
N5 N 0.22568 0.1059 0.30439 0.0
N6 N 0.27161 0.09399 0.27174 0.0
C7 C 0.2792 0.10573 0.30626 0.0
H8 H 0.22519 0.0877 0.24697 0.0
H9 H 0.24879 0.12284 0.35489 0.0
C10 C 0.14657 0.05668 0.29303 0.0
N11 N 0.08629 0.1204 0.33176 0.0
C12 C 0.06703 0.09589 0.34902 0.0
C13 C 0.06628 0.14523 0.31818 0.0
N14 N 0.0358 0.10416 0.34651 0.0
C15 C 0.03495 0.13522 0.3273 0.0
C16 C 0.14933 0.14001 0.24872 0.0
O17 O 0.1749 0.0685 0.29444 0.0
O18 O 0.12284 0.0736 0.3051 0.0
O19 O 0.12552 0.13677 0.27275 0.0
O20 O 0.17732 0.13239 0.26108 0.0
O21 O 0.13596 0.1601 0.34349 0.0
H22 H 0.07397 0.16878 0.30232 0.0
H23 H 0.07569 0.07207 0.36262 0.0
O24 O 0.18846 0.15509 0.33521 0.0
O25 O 0.18527 0.08771 0.36672 0.0
O26 O 0.13324 0.09474 0.37548 0.0
C27 C 0.15959 0.08224 0.38791 0.0
H28 H 0.30346 0.10945 0.31598 0.0
H29 H 0.01334 0.1499 0.32134 0.0
Co30 Co 0.16408 0.93211 0.58376 0.0
C31 C 0.19783 0.89573 0.53151 0.0
Co32 Co 0.13301 0.90893 0.54259 0.0
C33 C 0.18553 0.94527 0.65758 0.0
C34 C 0.21849 0.96717 0.61365 0.0
N35 N 0.18961 0.95146 0.61888 0.0
N36 N 0.21144 0.9545 0.67704 0.0
C37 C 0.23205 0.96901 0.64944 0.0
H38 H 0.16496 0.93139 0.6708 0.0
H39 H 0.23019 0.97374 0.5856 0.0
C40 C 0.10005 0.9446 0.5972 0.0
N41 N 0.10581 0.88789 0.51077 0.0
C42 C 0.11387 0.87487 0.47681 0.0
C43 C 0.07618 0.87483 0.52069 0.0
N44 N 0.09103 0.85344 0.46571 0.0
C45 C 0.06689 0.85375 0.4927 0.0
C46 C 0.14447 0.8642 0.60795 0.0
O47 O 0.12788 0.94963 0.60958 0.0
O48 O 0.09703 0.92788 0.56734 0.0
O49 O 0.12931 0.86848 0.57674 0.0
O50 O 0.16151 0.88914 0.61796 0.0
O51 O 0.17038 0.88991 0.51787 0.0
H52 H 0.06313 0.87835 0.54784 0.0
H53 H 0.13665 0.87994 0.46119 0.0
O54 O 0.20005 0.91469 0.5596 0.0
O55 O 0.16717 0.97383 0.54788 0.0
O56 O 0.13627 0.94891 0.50743 0.0
C57 C 0.15296 0.97479 0.51532 0.0
H58 H 0.25662 0.97687 0.65407 0.0
H59 H 0.04505 0.83847 0.49318 0.0
Co60 Co 0.35811 0.85595 0.82367 0.0
C61 C 0.38253 0.79301 0.85451 0.0
Co62 Co 0.41083 0.85604 0.82733 0.0
C63 C 0.29933 0.87541 0.79164 0.0
C64 C 0.29025 0.84971 0.84762 0.0
N65 N 0.31393 0.85742 0.82053 0.0
N66 N 0.26799 0.88059 0.80001 0.0
C67 C 0.26162 0.86398 0.83485 0.0
H68 H 0.31195 0.88671 0.76588 0.0
H69 H 0.29403 0.83699 0.87592 0.0
C70 C 0.38719 0.91728 0.79625 0.0
N71 N 0.45531 0.85747 0.82927 0.0
C72 C 0.47268 0.86196 0.86093 0.0
C73 C 0.47582 0.8656 0.7987 0.0
N74 N 0.50256 0.87389 0.85131 0.0
C75 C 0.50489 0.87578 0.81221 0.0
C76 C 0.38962 0.83762 0.75479 0.0
O77 O 0.36033 0.90209 0.80224 0.0
O78 O 0.41276 0.90173 0.80567 0.0
O79 O 0.41429 0.84033 0.77544 0.0
O80 O 0.36184 0.841 0.77102 0.0
O81 O 0.40924 0.80936 0.84954 0.0
H82 H 0.46923 0.86744 0.76854 0.0
H83 H 0.46279 0.85981 0.89044 0.0
O84 O 0.35647 0.80853 0.84523 0.0
O85 O 0.35422 0.87343 0.87522 0.0
O86 O 0.4067 0.87357 0.87847 0.0
C87 C 0.37931 0.88113 0.8932 0.0
H88 H 0.23872 0.86425 0.8509 0.0
H89 H 0.52542 0.8857 0.7947 0.0
Co90 Co 0.36875 0.07211 0.05703 0.0
C91 C 0.423 0.1027 0.08684 0.0
Co92 Co 0.36566 0.12839 0.06491 0.0
C93 C 0.36754 0.00873 1.01502 0.0
C94 C 0.38774 1.00071 0.07121 0.0
N95 N 0.37372 0.02494 0.04784 0.0
N96 N 0.37752 0.9756 0.0169 0.0
C97 C 0.39022 0.97067 0.05236 0.0
H98 H 0.35724 0.02147 0.9895 0.0
H99 H 0.39655 1.00491 0.09972 0.0
C100 C 0.3115 0.10006 0.03531 0.0
N101 N 0.35971 0.17516 0.07189 0.0
C102 C 0.3645 0.19362 0.10319 0.0
C103 C 0.3452 0.19716 0.04622 0.0
N104 N 0.35299 0.22596 0.09808 0.0
C105 C 0.34095 0.22817 0.0622 0.0
C106 C 0.39004 0.11425 0.99296 0.0
O107 O 0.32722 0.0722 0.03489 0.0
O108 O 0.324 0.12626 0.04837 0.0
O109 O 0.38093 0.13857 1.01335 0.0
O110 O 0.38762 0.08349 1.00713 0.0
O111 O 0.4071 0.13012 0.08132 0.0
H112 H 0.33728 0.19072 0.01798 0.0
H113 H 0.37507 0.1832 0.12972 0.0
O114 O 0.41075 0.07387 0.07964 0.0
O115 O 0.34915 0.06197 0.10828 0.0
O116 O 0.35076 0.11746 0.11615 0.0
C117 C 0.34435 0.08712 0.12966 0.0
H118 H 0.40096 0.94706 0.06379 0.0
H119 H 0.32986 0.25068 0.04848 0.0
Co120 Co 0.15329 0.89049 0.16188 0.0
C121 C 0.13138 0.93232 0.21952 0.0
Co122 Co 0.13411 0.86464 0.21634 0.0
C123 C 0.15098 0.93974 0.09651 0.0
C124 C 0.19649 0.91417 0.09695 0.0
N125 N 0.16826 0.91609 0.11721 0.0
N126 N 0.167 0.95268 0.0639 0.0
C127 C 0.19583 0.93661 0.06428 0.0
H128 H 0.12671 0.94678 0.10515 0.0
H129 H 0.21611 0.89727 0.10512 0.0
C130 C 0.15663 0.82225 0.15911 0.0
N131 N 0.11713 0.83754 0.25721 0.0
C132 C 0.12251 0.83791 0.29529 0.0
C133 C 0.09558 0.81187 0.25427 0.0
N134 N 0.1049 0.81377 0.31612 0.0
C135 C 0.08759 0.79754 0.2907 0.0
C136 C 0.0857 0.87803 0.16116 0.0
O137 O 0.1638 0.84929 0.13832 0.0
O138 O 0.14406 0.82449 0.19271 0.0
O139 O 0.0917 0.86572 0.19504 0.0
O140 O 0.10957 0.8894 0.13967 0.0
O141 O 0.12444 0.90507 0.24022 0.0
H142 H 0.08574 0.8045 0.22733 0.0
H143 H 0.13775 0.85659 0.30772 0.0
O144 O 0.14283 0.93074 0.18507 0.0
O145 O 0.19688 0.89216 0.18668 0.0
O146 O 0.17644 0.86473 0.23936 0.0
C147 C 0.20062 0.88002 0.22197 0.0
H148 H 0.21531 0.94083 0.0428 0.0
H149 H 0.0698 0.77767 0.29815 0.0
Co150 Co 0.37119 0.89779 0.41407 0.0
C151 C 0.32402 0.87872 0.47014 0.0
Co152 Co 0.39031 0.87793 0.47247 0.0
C153 C 0.32405 0.89502 0.35006 0.0
C154 C 0.35802 0.93556 0.33721 0.0
N155 N 0.35066 0.91033 0.36456 0.0
N156 N 0.31453 0.90958 0.31502 0.0
C157 C 0.33631 0.93518 0.3073 0.0
H158 H 0.31187 0.8733 0.36515 0.0
H159 H 0.37779 0.95345 0.33895 0.0
C160 C 0.43998 0.8962 0.41581 0.0
N161 N 0.40577 0.86187 0.5218 0.0
C162 C 0.39277 0.8642 0.55843 0.0
C163 C 0.43237 0.84261 0.52718 0.0
N164 N 0.41032 0.84722 0.58629 0.0
C165 C 0.43525 0.83374 0.56627 0.0
C166 C 0.37914 0.82707 0.42359 0.0
O167 O 0.41634 0.9041 0.39342 0.0
O168 O 0.43356 0.8845 0.45079 0.0
O169 O 0.38943 0.83277 0.45689 0.0
O170 O 0.37167 0.85203 0.4001 0.0
O171 O 0.34747 0.87198 0.49217 0.0
H172 H 0.44837 0.83477 0.50398 0.0
H173 H 0.37076 0.87802 0.56447 0.0
O174 O 0.32949 0.89072 0.43553 0.0
O175 O 0.37048 0.94462 0.43223 0.0
O176 O 0.39032 0.92304 0.48747 0.0
C177 C 0.38025 0.94872 0.46676 0.0
H178 H 0.33648 0.9531 0.28203 0.0
H179 H 0.454 0.81771 0.57874 0.0
Co180 Co 0.37944 0.10603 0.66756 0.0
C181 C 0.39298 0.05321 0.72211 0.0
Co182 Co 0.3977 0.12341 0.72256 0.0
C183 C 0.3775 0.06468 0.59987 0.0
C184 C 0.341 0.10316 0.59857 0.0
N185 N 0.36519 0.09044 0.62027 0.0
N186 N 0.36206 0.06073 0.56619 0.0
C187 C 0.339 0.08511 0.56559 0.0
H188 H 0.39739 0.04901 0.60997 0.0
H189 H 0.32587 0.1244 0.6061 0.0
C190 C 0.38356 0.17685 0.66883 0.0
N191 N 0.41262 0.13844 0.76804 0.0
C192 C 0.40549 0.12489 0.80416 0.0
C193 C 0.43243 0.16515 0.77289 0.0
N194 N 0.41997 0.142 0.83144 0.0
C195 C 0.43682 0.16756 0.81207 0.0
C196 C 0.44847 0.11327 0.66847 0.0
O197 O 0.37633 0.15287 0.64735 0.0
O198 O 0.39319 0.16926 0.70289 0.0
O199 O 0.44137 0.12266 0.70229 0.0
O200 O 0.42519 0.10481 0.64734 0.0
O201 O 0.40197 0.07746 0.742 0.0
H202 H 0.4428 0.18188 0.74948 0.0
H203 H 0.38929 0.10333 0.81039 0.0
O204 O 0.38241 0.05994 0.68827 0.0
O205 O 0.33405 0.10745 0.69003 0.0
O206 O 0.35397 0.12392 0.74387 0.0
C207 C 0.32932 0.11573 0.72531 0.0
H208 H 0.32192 0.09002 0.54285 0.0
H209 H 0.45127 0.18646 0.82526 0.0
Co210 Co 0.14529 0.12415 0.91036 0.0
C211 C 0.19236 0.13116 0.96354 0.0
Co212 Co 0.12647 0.13973 0.96922 0.0
C213 C 0.1947 0.12329 0.84567 0.0
C214 C 0.15416 0.09231 0.83408 0.0
N215 N 0.16467 0.11344 0.86035 0.0
N216 N 0.20351 0.10901 0.81176 0.0
C217 C 0.17757 0.08963 0.8046 0.0
H218 H 0.21015 0.14038 0.86016 0.0
H219 H 0.13134 0.07874 0.83675 0.0
C220 C 0.07643 0.13094 0.9173 0.0
N221 N 0.1137 0.15106 0.02044 0.0
C222 C 0.12841 0.14185 0.0544 0.0
C223 C 0.09047 0.17298 0.03091 0.0
N224 N 0.11548 0.15729 0.08552 0.0
C225 C 0.09143 0.17677 0.07047 0.0
C226 C 0.14026 0.19524 0.91768 0.0
O227 O 0.09991 0.12386 0.89353 0.0
O228 O 0.08285 0.13841 0.95189 0.0
O229 O 0.12988 0.18667 0.95218 0.0
O230 O 0.14817 0.17204 0.89479 0.0
O231 O 0.16904 0.14024 0.98502 0.0
H232 H 0.07449 0.18624 1.01085 0.0
H233 H 0.1486 0.12437 0.05612 0.0
O234 O 0.18745 0.12429 0.92889 0.0
O235 O 0.14253 0.07622 0.92879 0.0
O236 O 0.12389 0.09313 0.98515 0.0
C237 C 0.13304 0.06913 0.9642 0.0
H238 H 0.17582 0.07349 0.78043 0.0
H239 H 0.07607 0.19358 0.08653 0.0
Co240 Co 0.89648 0.89839 0.70825 0.0
C241 C 0.87955 0.95826 0.73941 0.0
Co242 Co 0.84434 0.90394 0.71807 0.0
C243 C 0.9591 0.91911 0.6834 0.0
C244 C 0.95986 0.86975 0.7142 0.0
N245 N 0.93984 0.89457 0.70063 0.0
N246 N 0.99034 0.91086 0.68592 0.0
C247 C 0.99119 0.87979 0.7051 0.0
H248 H 0.95043 0.94293 0.66982 0.0
H249 H 0.95218 0.84619 0.73004 0.0
C250 C 0.862 0.84262 0.68603 0.0
N251 N 0.80044 0.90902 0.72803 0.0
C252 C 0.78701 0.92042 0.761 0.0
C253 C 0.77526 0.90209 0.706 0.0
N254 N 0.75448 0.92074 0.76072 0.0
C255 C 0.74692 0.90903 0.72618 0.0
C256 C 0.86654 0.93275 0.64451 0.0
O257 O 0.89018 0.85485 0.68887 0.0
O258 O 0.83769 0.85988 0.69718 0.0
O259 O 0.84086 0.92728 0.66571 0.0
O260 O 0.89288 0.92023 0.65693 0.0
O261 O 0.85122 0.94644 0.73801 0.0
H262 H 0.77738 0.89207 0.67751 0.0
H263 H 0.80089 0.92713 0.7855 0.0
O264 O 0.90328 0.94134 0.72732 0.0
O265 O 0.90061 0.87816 0.75963 0.0
O266 O 0.84882 0.88254 0.77132 0.0
C267 C 0.8768 0.87492 0.78367 0.0
H268 H 1.01281 0.86512 0.71106 0.0
H269 H 0.72267 0.90522 0.71647 0.0
Co270 Co 0.89307 0.10611 0.48986 0.0
C271 C 0.92608 0.07047 0.43528 0.0
Co272 Co 0.86204 0.08289 0.44867 0.0
C273 C 0.91215 0.14024 0.55562 0.0
C274 C 0.94985 0.14029 0.51176 0.0
N275 N 0.92024 0.1272 0.52168 0.0
N276 N 0.93497 0.1617 0.56671 0.0
C277 C 0.95912 0.16141 0.53973 0.0
H278 H 0.88938 0.13515 0.57124 0.0
H279 H 0.96292 0.13677 0.48461 0.0
C280 C 0.82824 0.11925 0.5009 0.0
N281 N 0.83654 0.0635 0.41357 0.0
C282 C 0.84061 0.06968 0.37486 0.0
C283 C 0.80771 0.0477 0.41881 0.0
N284 N 0.81473 0.06034 0.35541 0.0
C285 C 0.79415 0.04579 0.38302 0.0
C286 C 0.87317 0.04025 0.51714 0.0
O287 O 0.85567 0.12509 0.51456 0.0
O288 O 0.82605 0.10029 0.47281 0.0
O289 O 0.85897 0.04119 0.48458 0.0
O290 O 0.88984 0.06614 0.52504 0.0
O291 O 0.89826 0.0654 0.42289 0.0
H292 H 0.79603 0.0411 0.44686 0.0
H293 H 0.86115 0.08361 0.36163 0.0
O294 O 0.92908 0.0872 0.46513 0.0
O295 O 0.89674 0.14656 0.4557 0.0
O296 O 0.86459 0.12585 0.41446 0.0
C297 C 0.88159 0.15081 0.42448 0.0
H298 H 0.98095 0.1767 0.53925 0.0
H299 H 0.76962 0.03784 0.3784 0.0
Co300 Co 0.61508 0.15828 0.2051 0.0
C301 C 0.63877 0.09707 0.23617 0.0
Co302 Co 0.6678 0.15839 0.20873 0.0
C303 C 0.55323 0.15231 0.17151 0.0
C304 C 0.55011 0.14864 0.23374 0.0
N305 N 0.5706 0.15681 0.20317 0.0
N306 N 0.52337 0.14036 0.18112 0.0
C307 C 0.52104 0.13844 0.22022 0.0
H308 H 0.56312 0.1545 0.142 0.0
H309 H 0.5567 0.1468 0.2639 0.0
C310 C 0.64334 0.22131 0.17789 0.0
N311 N 0.71199 0.15696 0.21185 0.0
C312 C 0.72662 0.13896 0.2407 0.0
C313 C 0.73567 0.16479 0.18479 0.0
N314 N 0.75798 0.13389 0.23234 0.0
C315 C 0.76432 0.15058 0.19755 0.0
C316 C 0.64661 0.1332 0.13921 0.0
O317 O 0.61664 0.20495 0.18288 0.0
O318 O 0.66941 0.20581 0.18717 0.0
O319 O 0.6717 0.14091 0.15719 0.0
O320 O 0.61922 0.14075 0.15396 0.0
O321 O 0.66562 0.11226 0.23016 0.0
H322 H 0.73186 0.17756 0.15651 0.0
H323 H 0.71403 0.12761 0.26646 0.0
O324 O 0.61319 0.1126 0.22676 0.0
O325 O 0.61163 0.174 0.25698 0.0
O326 O 0.66408 0.17334 0.26138 0.0
C327 C 0.6363 0.17671 0.27762 0.0
H328 H 0.50053 0.12849 0.23774 0.0
H329 H 0.78724 0.15043 0.18151 0.0
Co330 Co 0.66028 0.88592 0.96755 0.0
C331 C 0.71441 0.91429 0.99719 0.0
Co332 Co 0.65715 0.9422 0.97542 0.0
C333 C 0.66139 0.82069 0.9293 0.0
C334 C 0.68078 0.81716 0.98622 0.0
N335 N 0.66624 0.83916 0.96058 0.0
N336 N 0.67288 0.78835 0.93439 0.0
C337 C 0.68498 0.78614 0.97024 0.0
H338 H 0.65077 0.83111 0.90279 0.0
H339 H 0.68874 0.8236 1.01444 0.0
C340 C 0.60293 0.91159 0.94558 0.0
N341 N 0.65215 0.98937 0.98461 0.0
C342 C 0.65835 1.00559 0.01742 0.0
C343 C 0.63813 0.01359 0.96124 0.0
N344 N 0.64836 0.03871 1.01554 0.0
C345 C 0.63564 0.04363 0.98008 0.0
C346 C 0.68161 0.92721 0.90281 0.0
O347 O 0.61884 0.88418 0.95111 0.0
O348 O 0.61516 0.94042 0.95279 0.0
O349 O 0.67677 0.95235 0.92419 0.0
O350 O 0.67521 0.89686 0.91631 0.0
O351 O 0.69866 0.94213 0.99758 0.0
H352 H 0.6293 0.00938 0.93273 0.0
H353 H 0.66866 0.99285 0.04294 0.0
O354 O 0.70194 0.88807 0.98412 0.0
O355 O 0.64499 0.87574 0.0191 0.0
O356 O 0.63826 0.93081 0.02532 0.0
C357 C 0.63586 0.90006 0.03949 0.0
H358 H 0.69609 0.76363 0.98394 0.0
H359 H 0.6249 0.06724 0.96866 0.0
Co360 Co 0.89191 0.15026 0.8161 0.0
C361 C 0.86933 0.19264 0.87331 0.0
Co362 Co 0.87275 0.12441 0.87055 0.0
C363 C 0.9035 0.17705 0.73715 0.0
C364 C 0.93041 0.20308 0.7782 0.0
N365 N 0.90888 0.17739 0.77523 0.0
N366 N 0.92108 0.20122 0.71634 0.0
C367 C 0.93838 0.21745 0.74179 0.0
H368 H 0.88826 0.15837 0.7247 0.0
H369 H 0.94024 0.21043 0.80515 0.0
C370 C 0.89472 0.0826 0.81293 0.0
N371 N 0.85779 0.09881 0.91522 0.0
C372 C 0.87507 0.07518 0.93594 0.0
C373 C 0.82954 0.10071 0.93546 0.0
N374 N 0.85904 0.06223 0.96854 0.0
C375 C 0.83019 0.07827 0.96813 0.0
C376 C 0.82542 0.13481 0.81044 0.0
O377 O 0.90163 0.10985 0.79223 0.0
O378 O 0.88326 0.08417 0.84738 0.0
O379 O 0.82917 0.12268 0.84573 0.0
O380 O 0.84958 0.15013 0.79305 0.0
O381 O 0.86218 0.1656 0.89411 0.0
H382 H 0.80991 0.11759 0.92726 0.0
H383 H 0.89935 0.06816 0.92733 0.0
O384 O 0.88191 0.19041 0.83971 0.0
O385 O 0.93431 0.14923 0.83741 0.0
O386 O 0.91646 0.12555 0.89279 0.0
C387 C 0.94032 0.13693 0.87129 0.0
H388 H 0.95615 0.23735 0.73435 0.0
H389 H 0.8107 0.07404 0.98959 0.0
Co390 Co 0.6357 0.13648 0.55996 0.0
C391 C 0.58606 0.11818 0.61665 0.0
Co392 Co 0.65485 0.11667 0.61836 0.0
C393 C 0.63322 0.15018 0.474 0.0
C394 C 0.59359 0.17172 0.50525 0.0
N395 N 0.62022 0.15251 0.51063 0.0
N396 N 0.61564 0.16711 0.44614 0.0
C397 C 0.59069 0.18057 0.46616 0.0
H398 H 0.65524 0.13639 0.46796 0.0
H399 H 0.57758 0.17954 0.52845 0.0
C400 C 0.70199 0.13579 0.56228 0.0
N401 N 0.67541 0.10419 0.66787 0.0
C402 C 0.702 0.11954 0.68236 0.0
C403 C 0.66809 0.07895 0.69525 0.0
N404 N 0.71155 0.10502 0.71741 0.0
C405 C 0.6898 0.07939 0.72515 0.0
C406 C 0.64583 0.0657 0.56571 0.0
O407 O 0.67853 0.14248 0.54025 0.0
O408 O 0.69654 0.12378 0.59688 0.0
O409 O 0.6556 0.06982 0.60023 0.0
O410 O 0.63574 0.09137 0.54499 0.0
O411 O 0.60971 0.11032 0.63903 0.0
H412 H 0.64834 0.06104 0.69353 0.0
H413 H 0.71415 0.14127 0.66725 0.0
O414 O 0.59246 0.12987 0.58167 0.0
O415 O 0.63654 0.18165 0.57552 0.0
O416 O 0.65433 0.16243 0.6323 0.0
C417 C 0.64683 0.18738 0.6088 0.0
H418 H 0.57192 0.19657 0.45368 0.0
H419 H 0.68966 0.06148 0.75043 0.0
Co420 Co 0.62835 0.89099 0.30992 0.0
C421 C 0.6425 0.83757 0.36365 0.0
Co422 Co 0.64659 0.90838 0.36493 0.0
C423 C 0.62053 0.88949 0.22832 0.0
C424 C 0.59364 0.84921 0.25962 0.0
N425 N 0.61343 0.87594 0.26445 0.0
N426 N 0.60606 0.87235 0.20105 0.0
C427 C 0.58923 0.84678 0.22045 0.0
H428 H 0.63672 0.91105 0.22207 0.0
H429 H 0.58328 0.83248 0.28304 0.0
C430 C 0.63302 0.96117 0.31038 0.0
N431 N 0.66085 0.92397 0.41222 0.0
C432 C 0.64854 0.94973 0.43263 0.0
C433 C 0.68506 0.91127 0.4339 0.0
N434 N 0.664 0.95368 0.4663 0.0
C435 C 0.68706 0.92931 0.46688 0.0
C436 C 0.69672 0.89872 0.30717 0.0
O437 O 0.62405 0.93693 0.29048 0.0
O438 O 0.6436 0.95446 0.34422 0.0
O439 O 0.69198 0.90699 0.34245 0.0
O440 O 0.67208 0.89051 0.2886 0.0
O441 O 0.64973 0.86154 0.38514 0.0
H442 H 0.70018 0.89003 0.42636 0.0
H443 H 0.62865 0.9654 0.42255 0.0
O444 O 0.63288 0.84516 0.3296 0.0
O445 O 0.58468 0.89172 0.3302 0.0
O446 O 0.60085 0.90957 0.38516 0.0
C447 C 0.57758 0.9011 0.36402 0.0
H448 H 0.57479 0.82787 0.20728 0.0
H449 H 0.70416 0.92441 0.48961 0.0
Co450 Co 0.89958 0.8752 0.06319 0.0
C451 C 0.94961 0.88401 0.11513 0.0
Co452 Co 0.88075 0.89076 0.12206 0.0
C453 C 0.89766 0.87309 0.978 0.0
C454 C 0.93565 0.84203 1.0015 0.0
N455 N 0.91238 0.8639 1.01197 0.0
N456 N 0.91063 0.85769 0.94688 0.0
C457 C 0.93471 0.83825 0.96194 0.0
H458 H 0.87745 0.89053 0.97629 0.0
H459 H 0.95165 0.82879 0.02156 0.0
C460 C 0.83369 0.8837 0.06887 0.0
N461 N 0.86135 0.90142 0.17207 0.0
C462 C 0.83134 0.8915 0.18675 0.0
C463 C 0.87182 0.92258 0.19834 0.0
N464 N 0.82251 0.90575 0.22067 0.0
C465 C 0.84841 0.92519 0.22784 0.0
C466 C 0.89298 0.94579 0.06825 0.0
O467 O 0.85702 0.87465 0.04738 0.0
O468 O 0.83859 0.8906 0.10351 0.0
O469 O 0.88349 0.93869 0.10366 0.0
O470 O 0.90214 0.9218 0.04729 0.0
O471 O 0.92612 0.89106 0.1389 0.0
H472 H 0.89461 0.9362 0.19567 0.0
H473 H 0.81593 0.87438 0.17226 0.0
O474 O 0.94319 0.87654 0.08054 0.0
O475 O 0.89619 0.82825 0.08021 0.0
O476 O 0.87787 0.84287 0.13759 0.0
C477 C 0.88579 0.81968 0.11469 0.0
H478 H 0.9501 0.82146 0.94587 0.0
H479 H 0.85013 0.94133 0.25201 0.0
Co480 Co 0.68096 0.60793 0.81345 0.0
C481 C 0.66438 0.67018 0.8448 0.0
Co482 Co 0.62899 0.61573 0.82172 0.0
C483 C 0.73818 0.59037 0.77077 0.0
C484 C 0.74989 0.609 0.82564 0.0
N485 N 0.72474 0.60202 0.80359 0.0
N486 N 0.77071 0.59004 0.77111 0.0
C487 C 0.77824 0.60188 0.8056 0.0
H488 H 0.72432 0.58366 0.74626 0.0
H489 H 0.74776 0.61932 0.85398 0.0
C490 C 0.64441 0.55483 0.79176 0.0
N491 N 0.5857 0.62036 0.82944 0.0
C492 C 0.56617 0.59631 0.84712 0.0
C493 C 0.56603 0.64573 0.81642 0.0
N494 N 0.5351 0.60545 0.84557 0.0
C495 C 0.53463 0.63654 0.82641 0.0
C496 C 0.64922 0.63835 0.7472 0.0
O497 O 0.67328 0.56433 0.79562 0.0
O498 O 0.62129 0.57401 0.80061 0.0
O499 O 0.62548 0.63758 0.77136 0.0
O500 O 0.67655 0.62805 0.75945 0.0
O501 O 0.63606 0.65817 0.84279 0.0
H502 H 0.574 0.66921 0.80064 0.0
H503 H 0.57448 0.57232 0.86065 0.0
O504 O 0.68833 0.65276 0.83282 0.0
O505 O 0.68441 0.58614 0.86609 0.0
O506 O 0.63209 0.59206 0.8726 0.0
C507 C 0.65829 0.58008 0.88614 0.0
H508 H 0.80247 0.60581 0.81529 0.0
H509 H 0.51327 0.65187 0.82129 0.0
Co510 Co 0.66369 0.42938 0.08087 0.0
C511 C 0.69794 0.39353 0.02859 0.0
Co512 Co 0.6329 0.40572 0.03964 0.0
C513 C 0.68542 0.44235 0.15471 0.0
C514 C 0.71771 0.46514 0.11059 0.0
N515 N 0.68905 0.44901 0.11602 0.0
N516 N 0.71145 0.45168 0.17391 0.0
C517 C 0.73162 0.46676 0.1462 0.0
H518 H 0.66514 0.42805 0.16805 0.0
H519 H 0.72909 0.4721 0.08245 0.0
C520 C 0.59955 0.44072 0.09455 0.0
N521 N 0.60602 0.38421 1.00766 0.0
C522 C 0.61454 0.37052 0.97419 0.0
C523 C 0.57635 0.37113 0.01736 0.0
N524 N 0.59196 0.3487 0.96324 0.0
C525 C 0.56751 0.34941 0.98977 0.0
C526 C 0.64494 0.36127 0.10493 0.0
O527 O 0.62735 0.44628 0.1067 0.0
O528 O 0.59663 0.42403 0.06463 0.0
O529 O 0.62979 0.36524 0.07368 0.0
O530 O 0.66164 0.38645 0.11494 0.0
O531 O 0.67061 0.38736 1.01485 0.0
H532 H 0.56297 0.37502 0.04419 0.0
H533 H 0.63746 0.37538 0.95884 0.0
O534 O 0.69986 0.4125 0.05669 0.0
O535 O 0.6662 0.47111 0.04512 0.0
O536 O 0.63558 0.44581 1.00464 0.0
C537 C 0.65189 0.47194 1.01263 0.0
H538 H 0.75615 0.47487 0.15056 0.0
H539 H 0.54577 0.33396 0.9903 0.0
Co540 Co 0.85925 0.35455 0.3224 0.0
C541 C 0.88383 0.29149 0.35288 0.0
Co542 Co 0.91201 0.35498 0.32649 0.0
C543 C 0.80074 0.3737 0.2894 0.0
C544 C 0.79106 0.34748 0.34496 0.0
N545 N 0.8151 0.35576 0.31853 0.0
N546 N 0.76918 0.37827 0.29696 0.0
C547 C 0.76246 0.36132 0.33153 0.0
H548 H 0.81362 0.38526 0.26395 0.0
H549 H 0.79451 0.33454 0.37323 0.0
C550 C 0.88807 0.41626 0.29568 0.0
N551 N 0.95658 0.35688 0.32913 0.0
C552 C 0.97356 0.36247 0.36086 0.0
C553 C 0.97737 0.36456 0.2987 0.0
N554 N 1.00341 0.3746 0.35137 0.0
C555 C 1.00615 0.3755 0.31232 0.0
C556 C 0.89142 0.33695 0.25355 0.0
O557 O 0.86134 0.40077 0.30132 0.0
O558 O 0.91372 0.40093 0.30525 0.0
O559 O 0.91601 0.33975 0.27434 0.0
O560 O 0.86357 0.33992 0.26971 0.0
O561 O 0.91052 0.30798 0.34825 0.0
H562 H 0.97116 0.36555 0.26842 0.0
H563 H 0.9634 0.36088 0.39025 0.0
O564 O 0.85776 0.30701 0.3436 0.0
O565 O 0.85476 0.37172 0.37404 0.0
O566 O 0.9072 0.37201 0.37779 0.0
C567 C 0.8797 0.37938 0.39233 0.0
H568 H 0.73925 0.36098 0.34695 0.0
H569 H 0.02676 0.38522 0.29482 0.0
Co570 Co 0.86867 0.57 0.55651 0.0
C571 C 0.92276 0.60058 0.58692 0.0
Co572 Co 0.86541 0.6262 0.56457 0.0
C573 C 0.86757 0.50669 0.5144 0.0
C574 C 0.88753 0.49857 0.5707 0.0
N575 N 0.87367 0.52285 0.54726 0.0
N576 N 0.87744 0.47353 0.51632 0.0
C577 C 0.89 0.46853 0.55186 0.0
H578 H 0.85739 0.51947 0.48882 0.0
H579 H 0.89623 0.50272 0.59929 0.0
C580 C 0.81135 0.59796 0.53444 0.0
N581 N 0.85951 0.67293 0.57147 0.0
C582 C 0.86478 0.69159 0.60249 0.0
C583 C 0.8449 0.69486 0.54581 0.0
N584 N 0.85347 0.72398 0.5972 0.0
C585 C 0.84105 0.72602 0.56153 0.0
C586 C 0.89024 0.61225 0.49278 0.0
O587 O 0.82716 0.57014 0.53401 0.0
O588 O 0.82377 0.62412 0.54771 0.0
O589 O 0.88093 0.63645 0.5132 0.0
O590 O 0.88781 0.58144 0.50677 0.0
O591 O 0.90679 0.62794 0.58132 0.0
H592 H 0.83672 0.68829 0.51774 0.0
H593 H 0.8756 0.6813 0.62892 0.0
O594 O 0.91064 0.57173 0.57952 0.0
O595 O 0.84881 0.55977 0.60756 0.0
O596 O 0.85024 0.61522 0.61571 0.0
C597 C 0.84382 0.58482 0.62902 0.0
H598 H 0.90061 0.44488 0.56334 0.0
H599 H 0.82996 0.74853 0.54778 0.0
Co600 Co 0.65259 0.39117 0.66386 0.0
C601 C 0.62914 0.42858 0.72447 0.0
Co602 Co 0.63537 0.36138 0.71686 0.0
C603 C 0.649 0.44102 0.59842 0.0
C604 C 0.69581 0.41834 0.60125 0.0
N605 N 0.66685 0.41865 0.6202 0.0
N606 N 0.66543 0.45459 0.56637 0.0
C607 C 0.69506 0.44039 0.56833 0.0
H608 H 0.62404 0.44655 0.60565 0.0
H609 H 0.71598 0.40262 0.61037 0.0
C610 C 0.65886 0.32295 0.65717 0.0
N611 N 0.61966 0.33218 0.75666 0.0
C612 C 0.62504 0.33191 0.79479 0.0
C613 C 0.59884 0.30598 0.75302 0.0
N614 N 0.60811 0.3069 0.81507 0.0
C615 C 0.59125 0.2907 0.78916 0.0
C616 C 0.58589 0.37586 0.66276 0.0
O617 O 0.66478 0.35117 0.63799 0.0
O618 O 0.64629 0.32297 0.69098 0.0
O619 O 0.59248 0.36204 0.69588 0.0
O620 O 0.60922 0.38913 0.6418 0.0
O621 O 0.62485 0.39985 0.74322 0.0
H622 H 0.589 0.2991 0.72588 0.0
H623 H 0.63953 0.35095 0.80772 0.0
O624 O 0.64012 0.43022 0.68949 0.0
O625 O 0.69605 0.39378 0.68856 0.0
O626 O 0.67791 0.36198 0.73934 0.0
C627 C 0.70095 0.37975 0.72273 0.0
H628 H 0.71498 0.44556 0.54767 0.0
H629 H 0.57379 0.27042 0.79614 0.0
Co630 Co 0.87202 0.3992 0.91307 0.0
C631 C 0.82483 0.37886 0.9688 0.0
Co632 Co 0.89099 0.37909 0.97143 0.0
C633 C 0.82511 0.39606 0.8492 0.0
C634 C 0.85773 0.43795 0.83718 0.0
N635 N 0.85134 0.4119 0.86384 0.0
N636 N 0.81485 0.41107 0.81475 0.0
C637 C 0.83579 0.43752 0.80752 0.0
H638 H 0.81365 0.3737 0.86387 0.0
H639 H 0.87689 0.45649 0.8393 0.0
C640 C 0.94057 0.39842 0.91499 0.0
N641 N 0.90666 0.3628 0.0206 0.0
C642 C 0.89375 0.36474 0.05732 0.0
C643 C 0.93352 0.3439 0.02568 0.0
N644 N 0.91162 0.34788 0.08496 0.0
C645 C 0.93665 0.33487 0.0647 0.0
C646 C 0.881 0.32873 0.92158 0.0
O647 O 0.91699 0.40636 0.89257 0.0
O648 O 0.93414 0.38639 0.94984 0.0
O649 O 0.8907 0.33417 0.95522 0.0
O650 O 0.8733 0.35378 0.89838 0.0
O651 O 0.8482 0.37235 0.99104 0.0
H652 H 0.94958 0.33646 1.00233 0.0
H653 H 0.87159 0.37822 0.0636 0.0
O654 O 0.83041 0.39122 0.93437 0.0
O655 O 0.8706 0.44571 0.93175 0.0
O656 O 0.89043 0.424 0.98694 0.0
C657 C 0.88022 0.44968 0.96635 0.0
H658 H 0.83517 0.45603 0.78283 0.0
H659 H 0.95566 0.31907 0.07696 0.0
Co660 Co 0.87887 0.6056 0.16781 0.0
C661 C 0.8923 0.55266 0.22231 0.0
Co662 Co 0.89714 0.62294 0.22276 0.0
C663 C 0.87685 0.56466 0.10001 0.0
C664 C 0.84031 0.6031 0.099 0.0
N665 N 0.86451 0.59026 0.12059 0.0
N666 N 0.86142 0.56094 0.0663 0.0
C667 C 0.83833 0.58528 0.06586 0.0
H668 H 0.89675 0.54894 0.10999 0.0
H669 H 0.82519 0.62431 0.10669 0.0
C670 C 0.88335 0.67645 0.16899 0.0
N671 N 0.91218 0.63787 0.26819 0.0
C672 C 0.9053 0.6241 0.30427 0.0
C673 C 0.93205 0.66452 0.27304 0.0
N674 N 0.92001 0.64102 0.33153 0.0
C675 C 0.93674 0.66669 0.31219 0.0
C676 C 0.94779 0.61248 0.16875 0.0
O677 O 0.876 0.65247 0.14758 0.0
O678 O 0.89282 0.66885 0.20311 0.0
O679 O 0.94073 0.622 0.20251 0.0
O680 O 0.92451 0.60412 0.1476 0.0
O681 O 0.90129 0.57692 0.24218 0.0
H682 H 0.94232 0.68135 0.24965 0.0
H683 H 0.88914 0.60251 0.3105 0.0
O684 O 0.88166 0.55942 0.18849 0.0
O685 O 0.83357 0.60721 0.19019 0.0
O686 O 0.85343 0.62359 0.24409 0.0
C687 C 0.82882 0.61546 0.22545 0.0
H688 H 0.82129 0.59032 0.0431 0.0
H689 H 0.95131 0.68547 0.32539 0.0
Co690 Co 0.6447 0.62318 0.40965 0.0
C691 C 0.69176 0.6291 0.46318 0.0
Co692 Co 0.62587 0.63886 0.46832 0.0
C693 C 0.69397 0.62242 0.34515 0.0
C694 C 0.6537 0.591 0.33364 0.0
N695 N 0.66403 0.61234 0.3598 0.0
N696 N 0.70293 0.60809 0.31134 0.0
C697 C 0.67717 0.58843 0.3042 0.0
H698 H 0.70925 0.63971 0.35959 0.0
H699 H 0.63099 0.57723 0.33635 0.0
C700 C 0.57594 0.63118 0.41595 0.0
N701 N 0.6131 0.65037 0.51933 0.0
C702 C 0.62747 0.64055 0.55329 0.0
C703 C 0.59074 0.67328 0.52966 0.0
N704 N 0.61524 0.65661 0.58431 0.0
C705 C 0.59192 0.6771 0.56919 0.0
C706 C 0.64069 0.69425 0.41712 0.0
O707 O 0.59942 0.62371 0.39239 0.0
O708 O 0.5823 0.63845 0.45063 0.0
O709 O 0.63012 0.6857 0.45151 0.0
O710 O 0.64834 0.67104 0.39414 0.0
O711 O 0.66846 0.63847 0.48454 0.0
H712 H 0.57534 0.68729 0.50951 0.0
H713 H 0.64703 0.62228 0.55504 0.0
O714 O 0.68686 0.62252 0.42844 0.0
O715 O 0.64116 0.57522 0.42806 0.0
O716 O 0.62235 0.59241 0.48419 0.0
C717 C 0.63129 0.56828 0.46338 0.0
H718 H 0.67561 0.57218 0.28011 0.0
H719 H 0.57731 0.69466 0.58514 0.0
Co720 Co 0.39676 0.39862 0.21067 0.0
C721 C 0.38136 0.45954 0.24059 0.0
Co722 Co 0.34478 0.40643 0.21893 0.0
C723 C 0.45958 0.41797 0.18522 0.0
C724 C 0.45969 0.36858 0.21597 0.0
N725 N 0.44003 0.39396 0.20295 0.0
N726 N 0.49063 0.4088 0.18676 0.0
C727 C 0.4911 0.37773 0.20595 0.0
H728 H 0.45128 0.44196 0.17168 0.0
H729 H 0.45171 0.34511 0.23178 0.0
C730 C 0.36134 0.34415 0.18764 0.0
N731 N 0.30102 0.41238 0.2288 0.0
C732 C 0.28762 0.42412 0.2616 0.0
C733 C 0.27585 0.40543 0.20678 0.0
N734 N 0.25508 0.42453 0.26126 0.0
C735 C 0.24752 0.41265 0.2268 0.0
C736 C 0.36746 0.43423 0.14623 0.0
O737 O 0.38966 0.35617 0.18964 0.0
O738 O 0.33738 0.36158 0.1996 0.0
O739 O 0.34134 0.4282 0.16629 0.0
O740 O 0.39366 0.42226 0.15977 0.0
O741 O 0.3525 0.45004 0.23674 0.0
H742 H 0.27795 0.39508 0.17845 0.0
H743 H 0.3015 0.43084 0.28608 0.0
O744 O 0.40448 0.44035 0.23174 0.0
O745 O 0.40027 0.37679 0.26104 0.0
O746 O 0.34919 0.38633 0.27295 0.0
C747 C 0.37652 0.37604 0.2852 0.0
H748 H 0.51244 0.36238 0.21106 0.0
H749 H 0.22327 0.40878 0.21712 0.0
Co750 Co 0.39289 0.60853 0.99266 0.0
C751 C 0.42619 0.5735 0.93774 0.0
Co752 Co 0.36205 0.58491 0.95144 0.0
C753 C 0.41131 0.64367 0.05813 0.0
C754 C 0.44948 0.64305 1.01493 0.0
N755 N 0.4198 0.63 0.02463 0.0
N756 N 0.4339 0.66547 0.06908 0.0
C757 C 0.45834 0.66475 0.04253 0.0
H758 H 0.38838 0.63883 0.07348 0.0
H759 H 0.46285 0.63916 0.98809 0.0
C760 C 0.32786 0.62079 1.00374 0.0
N761 N 0.33666 0.56532 0.9163 0.0
C762 C 0.34031 0.57198 0.87761 0.0
C763 C 0.30796 0.54927 0.92171 0.0
N764 N 0.31425 0.56275 0.8584 0.0
C765 C 0.29405 0.54773 0.88609 0.0
C766 C 0.37384 0.54232 0.01967 0.0
O767 O 0.3552 0.62693 0.01746 0.0
O768 O 0.32591 0.60181 0.97565 0.0
O769 O 0.35952 0.54316 0.98719 0.0
O770 O 0.39018 0.56843 0.02765 0.0
O771 O 0.39838 0.56797 0.92559 0.0
H772 H 0.29655 0.54234 0.94984 0.0
H773 H 0.36062 0.58623 0.86429 0.0
O774 O 0.42913 0.59018 0.96765 0.0
O775 O 0.39603 0.64901 0.95863 0.0
O776 O 0.36413 0.62785 0.9174 0.0
C777 C 0.38087 0.65301 0.92739 0.0
H778 H 0.48009 0.68017 0.042 0.0
H779 H 0.26949 0.5397 0.88172 0.0
Co780 Co 0.11395 0.66001 0.70587 0.0
C781 C 0.13784 0.59871 0.7367 0.0
Co782 Co 0.1667 0.66042 0.70999 0.0
C783 C 0.05239 0.65257 0.67148 0.0
C784 C 0.04858 0.65049 0.73364 0.0
N785 N 0.06937 0.65815 0.70321 0.0
N786 N 0.02253 0.64047 0.68097 0.0
C787 C 0.01979 0.63958 0.72002 0.0
H788 H 0.06256 0.65413 0.64209 0.0
H789 H 0.05478 0.6495 0.76392 0.0
C790 C 0.14217 0.7235 0.67949 0.0
N791 N 0.21086 0.65917 0.71388 0.0
C792 C 0.22518 0.64124 0.74304 0.0
C793 C 0.2349 0.66734 0.68742 0.0
N794 N 0.25672 0.63656 0.73546 0.0
C795 C 0.26347 0.65342 0.70086 0.0
C796 C 0.14626 0.6356 0.64004 0.0
O797 O 0.11547 0.70702 0.68411 0.0
O798 O 0.16823 0.70796 0.68879 0.0
O799 O 0.1712 0.64324 0.65835 0.0
O800 O 0.11875 0.64299 0.65457 0.0
O801 O 0.16458 0.61419 0.73107 0.0
H802 H 0.23146 0.68021 0.65911 0.0
H803 H 0.21228 0.62974 0.7685 0.0
O804 O 0.1122 0.61405 0.7271 0.0
O805 O 0.10995 0.67524 0.75802 0.0
O806 O 0.16239 0.67506 0.76267 0.0
C807 C 0.13452 0.67804 0.77882 0.0
H808 H 0.99917 0.62988 0.73752 0.0
H809 H 0.28666 0.65363 0.6854 0.0
Co810 Co 0.16047 0.38876 0.46781 0.0
C811 C 0.21457 0.41693 0.49794 0.0
Co812 Co 0.15729 0.44497 0.47587 0.0
C813 C 0.16115 0.32338 0.42987 0.0
C814 C 0.18086 0.32008 0.48664 0.0
N815 N 0.16633 0.34202 0.46092 0.0
N816 N 0.17243 0.29099 0.43519 0.0
C817 C 0.18475 0.28892 0.47091 0.0
H818 H 0.15042 0.33369 0.40339 0.0
H819 H 0.18898 0.32663 0.51474 0.0
C820 C 0.10316 0.41445 0.44546 0.0
N821 N 0.15233 0.49212 0.48511 0.0
C822 C 0.15842 0.50828 0.51799 0.0
C823 C 0.13852 0.51642 0.46165 0.0
N824 N 0.14857 0.54145 0.51605 0.0
C825 C 0.13605 0.54646 0.4805 0.0
C826 C 0.1821 0.43011 0.40336 0.0
O827 O 0.11909 0.38707 0.45106 0.0
O828 O 0.11531 0.44329 0.45286 0.0
O829 O 0.17715 0.45517 0.42482 0.0
O830 O 0.17564 0.39972 0.41668 0.0
O831 O 0.19881 0.44477 0.49838 0.0
H832 H 0.12984 0.51228 0.43306 0.0
H833 H 0.16856 0.49549 0.54358 0.0
O834 O 0.20211 0.39079 0.48468 0.0
O835 O 0.14494 0.37853 0.51918 0.0
O836 O 0.13813 0.43355 0.52561 0.0
C837 C 0.13565 0.40275 0.5396 0.0
H838 H 0.1958 0.26641 0.4847 0.0
H839 H 0.12547 0.57013 0.469 0.0
Co840 Co 0.39049 0.65302 0.31549 0.0
C841 C 0.36706 0.69151 0.37516 0.0
Co842 Co 0.37324 0.62326 0.3685 0.0
C843 C 0.40084 0.68241 0.23754 0.0
C844 C 0.42708 0.70836 0.27927 0.0
N845 N 0.40623 0.68218 0.27566 0.0
N846 N 0.4178 0.70738 0.21722 0.0
C847 C 0.43468 0.72358 0.24311 0.0
H848 H 0.38634 0.66337 0.22463 0.0
H849 H 0.43693 0.71524 0.30639 0.0
C850 C 0.39663 0.5858 0.30791 0.0
N851 N 0.35898 0.59582 0.41218 0.0
C852 C 0.37682 0.57341 0.43393 0.0
C853 C 0.33003 0.59616 0.43117 0.0
N854 N 0.3604 0.55986 0.466 0.0
C855 C 0.33078 0.57411 0.46408 0.0
C856 C 0.32489 0.63474 0.30964 0.0
O857 O 0.40096 0.61452 0.28915 0.0
O858 O 0.38566 0.58419 0.34289 0.0
O859 O 0.32978 0.6207 0.34382 0.0
O860 O 0.34796 0.65247 0.29303 0.0
O861 O 0.36111 0.66329 0.39435 0.0
H862 H 0.30987 0.61192 0.42208 0.0
H863 H 0.40176 0.56785 0.42667 0.0
O864 O 0.37963 0.69146 0.34134 0.0
O865 O 0.43338 0.65231 0.33644 0.0
O866 O 0.41663 0.62527 0.39055 0.0
C867 C 0.43996 0.6385 0.36957 0.0
H868 H 0.45217 0.74384 0.2361 0.0
H869 H 0.31087 0.56895 0.48476 0.0
Co870 Co 0.13486 0.63584 0.06092 0.0
C871 C 0.08526 0.61655 0.11734 0.0
Co872 Co 0.15381 0.6157 0.11927 0.0
C873 C 0.13213 0.65022 0.97504 0.0
C874 C 0.09237 0.6711 1.00668 0.0
N875 N 0.11922 0.65216 1.01176 0.0
N876 N 0.11428 0.66711 0.9474 0.0
C877 C 0.08926 0.68015 0.96766 0.0
H878 H 0.15427 0.63671 0.96876 0.0
H879 H 0.07633 0.67855 0.03002 0.0
C880 C 0.20103 0.63597 0.06355 0.0
N881 N 0.17446 0.60295 0.1685 0.0
C882 C 0.20072 0.61873 0.18316 0.0
C883 C 0.16801 0.5769 0.19516 0.0
N884 N 0.21094 0.60368 0.21761 0.0
C885 C 0.18995 0.57727 0.22483 0.0
C886 C 0.14557 0.56524 0.06598 0.0
O887 O 0.17767 0.64251 0.04132 0.0
O888 O 0.19543 0.62362 0.09799 0.0
O889 O 0.15518 0.56919 0.10058 0.0
O890 O 0.13537 0.59093 0.04539 0.0
O891 O 0.10883 0.60858 0.13976 0.0
H892 H 0.14882 0.5584 0.19302 0.0
H893 H 0.21222 0.64106 0.16851 0.0
O894 O 0.0917 0.62859 0.0825 0.0
O895 O 0.1352 0.68075 0.07714 0.0
O896 O 0.15258 0.66111 0.13399 0.0
C897 C 0.1449 0.68617 0.11079 0.0
H898 H 0.07027 0.69597 0.9554 0.0
H899 H 0.19053 0.55876 0.24951 0.0
Co900 Co 0.12869 0.39199 0.80957 0.0
C901 C 0.14247 0.33847 0.86335 0.0
Co902 Co 0.14697 0.40933 0.86451 0.0
C903 C 0.12052 0.39085 0.72807 0.0
C904 C 0.09374 0.35044 0.75929 0.0
N905 N 0.11364 0.37708 0.76415 0.0
N906 N 0.10579 0.37396 0.70081 0.0
C907 C 0.08905 0.3483 0.72014 0.0
H908 H 0.1367 0.41243 0.72185 0.0
H909 H 0.08346 0.33362 0.78268 0.0
C910 C 0.13356 0.46228 0.81002 0.0
N911 N 0.16133 0.42467 0.91173 0.0
C912 C 0.14898 0.45027 0.9323 0.0
C913 C 0.18553 0.41182 0.93334 0.0
N914 N 0.16439 0.45398 0.96603 0.0
C915 C 0.18749 0.42965 0.96648 0.0
C916 C 0.19702 0.39942 0.80689 0.0
O917 O 0.12456 0.43803 0.79015 0.0
O918 O 0.1442 0.45551 0.84383 0.0
O919 O 0.19227 0.40769 0.84214 0.0
O920 O 0.17239 0.39131 0.78824 0.0
O921 O 0.14982 0.36246 0.88475 0.0
H922 H 0.20064 0.39062 0.92566 0.0
H923 H 0.12909 0.46598 0.92231 0.0
O924 O 0.13299 0.34607 0.82923 0.0
O925 O 0.08509 0.39296 0.82982 0.0
O926 O 0.10133 0.41083 0.88472 0.0
C927 C 0.07804 0.40249 0.86358 0.0
H928 H 0.07445 0.32954 0.70694 0.0
H929 H 0.20452 0.4246 0.98924 0.0
Co930 Co 0.39995 0.37555 0.56407 0.0
C931 C 0.4499 0.38322 0.61642 0.0
Co932 Co 0.38115 0.39125 0.62275 0.0
C933 C 0.39831 0.37383 0.4791 0.0
C934 C 0.43502 0.34107 0.50274 0.0
N935 N 0.41269 0.36401 0.51307 0.0
N936 N 0.41052 0.35775 0.44809 0.0
C937 C 0.43382 0.33724 0.46321 0.0
H938 H 0.37878 0.39213 0.47736 0.0
H939 H 0.45041 0.32704 0.52288 0.0
C940 C 0.33406 0.38535 0.56923 0.0
N941 N 0.36183 0.40214 0.67259 0.0
C942 C 0.33187 0.39212 0.68725 0.0
C943 C 0.37219 0.42347 0.69874 0.0
N944 N 0.32293 0.40649 0.72104 0.0
C945 C 0.34872 0.4261 0.72817 0.0
C946 C 0.39454 0.44613 0.56897 0.0
O947 O 0.35734 0.37595 0.54787 0.0
O948 O 0.33897 0.39191 0.60398 0.0
O949 O 0.38468 0.43921 0.6043 0.0
O950 O 0.40348 0.42199 0.54817 0.0
O951 O 0.42643 0.39071 0.63998 0.0
H952 H 0.39493 0.4372 0.69602 0.0
H953 H 0.31656 0.37485 0.67282 0.0
O954 O 0.44352 0.37594 0.58175 0.0
O955 O 0.39568 0.32872 0.58091 0.0
O956 O 0.3775 0.34338 0.63829 0.0
C957 C 0.38514 0.32017 0.61532 0.0
H958 H 0.4484 0.31965 0.44726 0.0
H959 H 0.35031 0.44237 0.75224 0.0
C960 C 0.32128 0.10707 0.23212 0.0
C961 C 0.29313 0.08737 0.23936 0.0
H962 H 0.35967 0.12211 0.19148 0.0
C963 C 0.28476 0.06354 0.21239 0.0
H964 H 0.32826 0.12574 0.25214 0.0
C965 C 0.30312 0.06103 0.17774 0.0
C966 C 0.32976 0.08276 0.16934 0.0
H967 H 0.26335 0.04775 0.21748 0.0
H968 H 0.2952 0.04389 0.15648 0.0
C969 C 0.33921 0.10502 0.19734 0.0
C970 C 0.18645 0.04723 0.44379 0.0
C971 C 0.15859 0.05759 0.42365 0.0
H972 H 0.20657 0.01391 0.48937 0.0
C973 C 0.12901 0.04188 0.43617 0.0
H974 H 0.2097 0.05843 0.43502 0.0
C975 C 0.12742 0.01591 0.46635 0.0
C976 C 0.15512 1.00523 0.48624 0.0
H977 H 0.10697 0.04865 0.42153 0.0
H978 H 0.10432 1.00376 0.47387 0.0
C979 C 0.18464 0.02176 0.47509 0.0
C980 C 0.26024 0.93594 0.76455 0.0
C981 C 0.24801 0.90358 0.77771 0.0
H982 H 0.25729 0.9784 0.72257 0.0
C983 C 0.21954 0.89168 0.76269 0.0
H984 H 0.28213 0.94561 0.77634 0.0
C985 C 0.20557 0.91007 0.73154 0.0
C986 C 0.21994 0.94075 0.71517 0.0
H987 H 0.20997 0.8667 0.77252 0.0
H988 H 0.18532 0.89841 0.71842 0.0
C989 C 0.24619 0.95451 0.73368 0.0
C990 C 0.40314 0.90473 0.95274 0.0
C991 C 0.37725 0.90306 0.92745 0.0
H992 H 0.4234 0.92861 1.00083 0.0
C993 C 0.35108 0.92556 0.93263 0.0
H994 H 0.42389 0.88823 0.94945 0.0
C995 C 0.35122 0.9495 0.96155 0.0
C996 C 0.37716 0.95111 0.98679 0.0
H997 H 0.33093 0.92551 0.91339 0.0
H998 H 0.33095 0.96669 0.96433 0.0
C999 C 0.4029 0.92801 0.98222 0.0
C1000 C 0.28411 0.91426 0.25198 0.0
C1001 C 0.28688 0.90082 0.29108 0.0
H1002 H 0.25616 0.91842 0.19995 0.0
C1003 C 0.26133 0.87922 0.306 0.0
H1004 H 0.30286 0.9307 0.23848 0.0
C1005 C 0.23431 0.87203 0.2834 0.0
C1006 C 0.23136 0.88582 0.24456 0.0
H1007 H 0.26173 0.86826 0.33562 0.0
H1008 H 0.21527 0.85586 0.29686 0.0
C1009 C 0.25709 0.90694 0.22935 0.0
C1010 C 0.40105 0.98876 0.51371 0.0
C1011 C 0.37823 0.98186 0.48583 0.0
H1012 H 0.41449 0.01893 0.56 0.0
C1013 C 0.35111 1.0032 0.48261 0.0
H1014 H 0.42223 0.97277 0.51709 0.0
C1015 C 0.34614 0.02957 0.50819 0.0
C1016 C 0.3683 0.03542 0.53753 0.0
H1017 H 0.33276 0.99821 0.46201 0.0
H1018 H 0.3242 0.04433 0.50577 0.0
C1019 C 0.39633 0.01515 0.53888 0.0
C1020 C 0.26268 0.12453 0.80542 0.0
C1021 C 0.23453 0.1118 0.78928 0.0
H1022 H 0.31342 0.13568 0.79872 0.0
C1023 C 0.23792 0.10107 0.75077 0.0
H1024 H 0.26188 0.13282 0.83477 0.0
C1025 C 0.26805 0.10274 0.72968 0.0
C1026 C 0.29617 0.1151 0.74618 0.0
H1027 H 0.21724 0.09133 0.7366 0.0
H1028 H 0.26933 0.09395 0.70052 0.0
C1029 C 0.29267 0.12605 0.78446 0.0
C1030 C 0.12893 0.99924 0.0446 0.0
C1031 C 0.15585 0.97893 0.03569 0.0
H1032 H 0.10005 0.04266 0.02835 0.0
C1033 C 0.17216 0.98577 0.99933 0.0
H1034 H 0.11553 0.99529 0.07196 0.0
C1035 C 0.16303 0.01342 0.97392 0.0
C1036 C 0.13739 0.03481 0.98432 0.0
H1037 H 0.1926 0.97047 0.99084 0.0
H1038 H 0.1773 0.0193 0.94739 0.0
C1039 C 0.11987 0.02663 0.01933 0.0
C1040 C 0.7412 0.95105 0.82013 0.0
C1041 C 0.73294 0.9272 0.79314 0.0
H1042 H 0.73064 0.97063 0.87605 0.0
C1043 C 0.70489 0.90734 0.80037 0.0
H1044 H 0.76254 0.96695 0.81505 0.0
C1045 C 0.68693 0.90929 0.83515 0.0
C1046 C 0.69625 0.9316 0.86316 0.0
H1047 H 0.69799 0.88865 0.78033 0.0
H1048 H 0.66654 0.8921 0.84099 0.0
C1049 C 0.7228 0.95346 0.85478 0.0
C1050 C 0.8987 0.99915 0.56616 0.0
C1051 C 0.87102 0.00981 0.54623 0.0
H1052 H 0.91914 0.96642 0.61099 0.0
C1053 C 0.8415 0.99325 0.55734 0.0
H1054 H 0.9218 0.01133 0.55867 0.0
C1055 C 0.83969 0.96777 0.58863 0.0
C1056 C 0.86753 0.95742 0.6088 0.0
H1057 H 0.81958 1.00108 0.54302 0.0
H1058 H 0.81644 0.95653 0.59736 0.0
C1059 C 0.89711 0.97317 0.59632 0.0
C1060 C 0.76591 0.0786 0.26786 0.0
C1061 C 0.77803 0.111 0.25466 0.0
H1062 H 0.76899 0.0362 0.30991 0.0
C1063 C 0.80646 0.12302 0.26967 0.0
H1064 H 0.74406 0.06884 0.25608 0.0
C1065 C 0.82048 0.10473 0.30085 0.0
C1066 C 0.8062 0.07401 0.31726 0.0
H1067 H 0.81595 0.14803 0.25981 0.0
H1068 H 0.84069 0.11647 0.31395 0.0
C1069 C 0.78001 0.06012 0.29876 0.0
C1070 C 0.67467 0.06482 0.07086 0.0
C1071 C 0.64873 0.06321 0.04564 0.0
H1072 H 0.69498 0.08882 0.11902 0.0
C1073 C 0.62299 0.0863 0.05022 0.0
H1074 H 0.69495 0.04763 0.06808 0.0
C1075 C 0.62275 0.10959 0.0797 0.0
C1076 C 0.64866 0.11127 0.10497 0.0
H1077 H 0.60248 0.0857 0.03161 0.0
H1078 H 0.602 0.12609 0.08298 0.0
C1079 C 0.67482 0.08877 0.09978 0.0
C1080 C 0.76899 0.1078 0.80307 0.0
C1081 C 0.79469 0.12895 0.78785 0.0
H1082 H 0.72324 0.08398 0.79396 0.0
C1083 C 0.79173 0.1427 0.74899 0.0
H1084 H 0.76993 0.09634 0.83248 0.0
C1085 C 0.76471 0.13546 0.7264 0.0
C1086 C 0.73919 0.11384 0.74134 0.0
H1087 H 0.81075 0.1589 0.73552 0.0
H1088 H 0.7643 0.14641 0.69677 0.0
C1089 C 0.74198 0.10043 0.78045 0.0
C1090 C 0.675 0.01125 0.54983 0.0
C1091 C 0.64785 0.03256 0.54665 0.0
H1092 H 0.70193 0.97015 0.52662 0.0
C1093 C 0.62499 0.02561 0.51884 0.0
H1094 H 0.69338 0.01628 0.57038 0.0
C1095 C 0.62971 0.99922 0.49367 0.0
C1096 C 0.65777 0.97899 0.49497 0.0
H1097 H 0.60379 0.04157 0.5155 0.0
H1098 H 0.61153 0.99541 0.47259 0.0
C1099 C 0.67997 0.98489 0.52425 0.0
C1100 C 0.78808 0.91359 0.28168 0.0
C1101 C 0.79149 0.90288 0.24316 0.0
H1102 H 0.75667 0.92063 0.33194 0.0
C1103 C 0.76337 0.89008 0.22703 0.0
H1104 H 0.80875 0.92338 0.29584 0.0
C1105 C 0.73338 0.88848 0.248 0.0
C1106 C 0.72986 0.89942 0.28629 0.0
H1107 H 0.76419 0.8818 0.19768 0.0
H1108 H 0.71265 0.87881 0.23375 0.0
C1109 C 0.75796 0.91184 0.30278 0.0
C1110 C 0.85385 0.02915 0.03311 0.0
C1111 C 0.87019 0.036 0.99677 0.0
H1112 H 0.84869 0.99561 0.08503 0.0
C1113 C 0.89713 0.01571 0.98789 0.0
H1114 H 0.8334 0.04443 0.04158 0.0
C1115 C 0.90619 0.98832 1.01316 0.0
C1116 C 0.88863 0.98012 0.04815 0.0
H1117 H 0.91055 0.01967 0.96054 0.0
H1118 H 0.92602 0.9723 1.00416 0.0
C1119 C 0.86298 1.0015 0.05853 0.0
C1120 C 0.8202 0.60406 0.73155 0.0
C1121 C 0.79231 0.58391 0.73864 0.0
H1122 H 0.85846 0.61983 0.69105 0.0
C1123 C 0.78425 0.56014 0.71148 0.0
H1124 H 0.82694 0.62271 0.7517 0.0
C1125 C 0.80269 0.55808 0.67681 0.0
C1126 C 0.82907 0.58021 0.66859 0.0
H1127 H 0.76304 0.54404 0.71646 0.0
H1128 H 0.79503 0.54093 0.65542 0.0
C1129 C 0.83819 0.60245 0.69675 0.0
C1130 C 0.62773 0.53825 0.9327 0.0
C1131 C 0.65697 0.5553 0.92168 0.0
H1132 H 0.60347 0.49886 0.96903 0.0
C1133 C 0.68452 0.54605 0.94299 0.0
H1134 H 0.60597 0.54415 0.91706 0.0
C1135 C 0.68277 0.52035 0.974 0.0
C1136 C 0.65368 0.50247 0.98368 0.0
H1137 H 0.70753 0.55832 0.93536 0.0
H1138 H 0.7045 0.51342 0.98924 0.0
C1139 C 0.62624 0.51204 0.96263 0.0
C1140 C 0.70658 0.40676 0.22805 0.0
C1141 C 0.72048 0.43771 0.21176 0.0
H1142 H 0.7115 0.36346 0.269 0.0
C1143 C 0.74669 0.45172 0.23012 0.0
H1144 H 0.68641 0.3949 0.215 0.0
C1145 C 0.76103 0.4333 0.26089 0.0
C1146 C 0.74915 0.40082 0.27415 0.0
H1147 H 0.75745 0.4758 0.21905 0.0
H1148 H 0.78278 0.4433 0.27268 0.0
C1149 C 0.72082 0.38853 0.25913 0.0
C1150 C 0.85136 0.44763 0.46068 0.0
C1151 C 0.87714 0.44906 0.48618 0.0
H1152 H 0.83131 0.42386 0.41221 0.0
C1153 C 0.90279 0.42583 0.48182 0.0
H1154 H 0.83115 0.46493 0.46329 0.0
C1155 C 0.90312 0.4026 0.45228 0.0
C1156 C 0.87741 0.40113 0.42671 0.0
H1157 H 0.92317 0.42627 0.50063 0.0
H1158 H 0.92383 0.38601 0.44916 0.0
C1159 C 0.8513 0.42375 0.43169 0.0
C1160 C 0.7357 0.37116 0.78318 0.0
C1161 C 0.73166 0.38615 0.74505 0.0
H1162 H 0.764 0.36682 0.83464 0.0
C1163 C 0.75627 0.40893 0.73027 0.0
H1164 H 0.71752 0.3537 0.79628 0.0
C1165 C 0.7833 0.41664 0.75264 0.0
C1166 C 0.78718 0.40199 0.79105 0.0
H1167 H 0.75445 0.42136 0.70141 0.0
H1168 H 0.80117 0.43435 0.73949 0.0
C1169 C 0.76274 0.37878 0.80554 0.0
C1170 C 0.84543 0.5298 1.0084 0.0
C1171 C 0.86777 0.5359 0.03744 0.0
H1172 H 0.83206 0.49836 0.96232 0.0
C1173 C 0.8961 0.5161 0.03835 0.0
H1174 H 0.82326 0.54423 1.00638 0.0
C1175 C 0.90096 0.48985 1.01306 0.0
C1176 C 0.87796 0.48268 0.98551 0.0
H1177 H 0.91441 0.52014 0.05922 0.0
H1178 H 0.92238 0.47417 1.01608 0.0
C1179 C 0.85053 0.5036 0.98268 0.0
C1180 C 0.79203 0.6256 0.28447 0.0
C1181 C 0.79565 0.61474 0.24617 0.0
H1182 H 0.76108 0.6321 0.33468 0.0
C1183 C 0.76765 0.60231 0.2295 0.0
H1184 H 0.8127 0.63527 0.29883 0.0
C1185 C 0.73748 0.60046 0.25046 0.0
C1186 C 0.73397 0.61108 0.28899 0.0
H1187 H 0.76905 0.59358 0.20031 0.0
H1188 H 0.71687 0.59066 0.23619 0.0
C1189 C 0.76199 0.6239 0.3053 0.0
C1190 C 0.67088 0.48619 0.50102 0.0
C1191 C 0.65397 0.47966 0.53705 0.0
H1192 H 0.67647 0.51895 0.44856 0.0
C1193 C 0.6263 0.49926 0.54458 0.0
H1194 H 0.69189 0.47131 0.49357 0.0
C1195 C 0.61716 0.52596 0.51838 0.0
C1196 C 0.63537 0.53406 0.48381 0.0
H1197 H 0.61246 0.49539 0.57166 0.0
H1198 H 0.59683 0.54172 0.52641 0.0
C1199 C 0.66167 0.51311 0.47468 0.0
C1200 C 0.18758 0.41247 0.33563 0.0
C1201 C 0.1968 0.43468 0.36377 0.0
H1202 H 0.19872 0.39213 0.2807 0.0
C1203 C 0.22326 0.4567 0.35552 0.0
H1204 H 0.16725 0.39518 0.34135 0.0
C1205 C 0.24167 0.45455 0.32085 0.0
C1206 C 0.23351 0.43079 0.29371 0.0
H1207 H 0.231 0.47382 0.3769 0.0
H1208 H 0.26294 0.47055 0.31585 0.0
C1209 C 0.20554 0.41077 0.30083 0.0
C1210 C 0.39802 0.476 0.09959 0.0
C1211 C 0.36876 0.45899 0.11066 0.0
H1212 H 0.42228 0.51535 0.06319 0.0
C1213 C 0.3412 0.46826 0.08938 0.0
H1214 H 0.41979 0.47008 0.1152 0.0
C1215 C 0.34295 0.49395 0.05835 0.0
C1216 C 0.37205 0.51179 0.04863 0.0
H1217 H 0.31819 0.45603 0.09706 0.0
H1218 H 0.32121 0.5009 0.04315 0.0
C1219 C 0.3995 0.5022 0.06964 0.0
C1220 C 0.26469 0.58145 0.77146 0.0
C1221 C 0.27668 0.6139 0.75825 0.0
H1222 H 0.26813 0.53889 0.81323 0.0
C1223 C 0.30506 0.62605 0.77327 0.0
H1224 H 0.2429 0.57157 0.75967 0.0
C1225 C 0.31926 0.60772 0.80432 0.0
C1226 C 0.30525 0.57681 0.82057 0.0
H1227 H 0.31446 0.6511 0.76343 0.0
H1228 H 0.33948 0.6195 0.81738 0.0
C1229 C 0.27898 0.56293 0.80219 0.0
C1230 C 0.17466 0.59121 0.60072 0.0
C1231 C 0.14856 0.61384 0.60567 0.0
H1232 H 0.19482 0.55002 0.56914 0.0
C1233 C 0.12287 0.61239 0.58007 0.0
H1234 H 0.19465 0.59109 0.62022 0.0
C1235 C 0.12322 0.58917 0.55053 0.0
C1236 C 0.14886 0.56592 0.54619 0.0
H1237 H 0.10217 0.62899 0.58316 0.0
H1238 H 0.10285 0.58873 0.53169 0.0
C1239 C 0.17462 0.56733 0.57172 0.0
C1240 C 0.24247 0.59802 0.27972 0.0
C1241 C 0.23862 0.6127 0.24132 0.0
H1242 H 0.27132 0.59323 0.33095 0.0
C1243 C 0.2631 0.63586 0.22685 0.0
H1244 H 0.22457 0.58034 0.29286 0.0
C1245 C 0.29015 0.64342 0.24921 0.0
C1246 C 0.29417 0.62841 0.28733 0.0
H1247 H 0.26186 0.64784 0.19774 0.0
H1248 H 0.30836 0.66085 0.23612 0.0
C1249 C 0.26952 0.60567 0.3021 0.0
C1250 C 0.18035 0.4851 0.02396 0.0
C1251 C 0.15803 0.47903 0.99488 0.0
H1252 H 0.19368 0.51652 0.07007 0.0
C1253 C 0.12971 0.49885 0.99393 0.0
H1254 H 0.2025 0.47066 0.02602 0.0
C1255 C 0.12485 0.52509 0.01922 0.0
C1256 C 0.14782 0.53224 0.0468 0.0
H1257 H 0.11143 0.49483 0.97303 0.0
H1258 H 0.10345 0.5408 1.01617 0.0
C1259 C 0.17523 0.5113 0.04968 0.0
C1260 C 0.26384 0.39082 0.72706 0.0
C1261 C 0.29188 0.40358 0.74338 0.0
H1262 H 0.2131 0.37956 0.73352 0.0
C1263 C 0.28838 0.41423 0.7819 0.0
H1264 H 0.26474 0.38259 0.69769 0.0
C1265 C 0.25821 0.41246 0.80284 0.0
C1266 C 0.23018 0.40008 0.78617 0.0
H1267 H 0.30901 0.42399 0.79616 0.0
H1268 H 0.25682 0.4212 0.83202 0.0
C1269 C 0.23379 0.38919 0.74788 0.0
C1270 C 0.36417 0.50131 0.55767 0.0
C1271 C 0.39046 0.48034 0.54852 0.0
H1272 H 0.33398 0.54313 0.53883 0.0
C1273 C 0.40864 0.48843 0.51393 0.0
H1274 H 0.3494 0.49548 0.58381 0.0
C1275 C 0.3995 0.51514 0.48774 0.0
C1276 C 0.37185 0.53476 0.4953 0.0
H1277 H 0.42896 0.47266 0.50588 0.0
H1278 H 0.41333 0.519 0.46065 0.0
C1279 C 0.35496 0.52823 0.53135 0.0
C1280 C 0.14426 0.25773 0.3878 0.0
C1281 C 0.17185 0.26373 0.40894 0.0
H1282 H 0.1201 0.22389 0.35166 0.0
C1283 C 0.19807 0.24105 0.40643 0.0
H1284 H 0.12371 0.27469 0.38938 0.0
C1285 C 0.19633 0.21232 0.38432 0.0
C1286 C 0.16804 0.20524 0.36494 0.0
H1287 H 0.21974 0.24526 0.4222 0.0
H1288 H 0.21657 0.19484 0.38389 0.0
C1289 C 0.14222 0.22858 0.36639 0.0
C1290 C 0.0413 0.9519 0.60586 0.0
C1291 C 0.07169 0.94911 0.62238 0.0
H1292 H 0.99082 0.94171 0.6141 0.0
C1293 C 0.07403 0.94058 0.66241 0.0
H1294 H 0.03913 0.9584 0.57499 0.0
C1295 C 0.04662 0.92999 0.68437 0.0
C1296 C 0.01675 0.92899 0.66667 0.0
H1297 H 0.09734 0.93815 0.67569 0.0
H1298 H 0.04899 0.92041 0.71434 0.0
C1299 C 0.01382 0.94217 0.6281 0.0
C1300 C 0.3557 0.73426 0.86711 0.0
C1301 C 0.38212 0.75645 0.87133 0.0
H1302 H 0.3348 0.68402 0.8802 0.0
C1303 C 0.40858 0.74328 0.89205 0.0
H1304 H 0.33494 0.7433 0.85119 0.0
C1305 C 0.40828 0.70961 0.90904 0.0
C1306 C 0.38185 0.68746 0.90523 0.0
H1307 H 0.4294 0.75932 0.896 0.0
H1308 H 0.42882 0.70097 0.92565 0.0
C1309 C 0.35572 0.70011 0.88346 0.0
C1310 C 0.45833 0.08738 0.14159 0.0
C1311 C 0.45372 0.10544 0.10578 0.0
H1312 H 0.48427 0.08498 0.19443 0.0
C1313 C 0.47432 0.1328 0.09347 0.0
H1314 H 0.44219 0.06663 0.15181 0.0
C1315 C 0.49794 0.1435 0.11777 0.0
C1316 C 0.50095 0.12729 0.15495 0.0
H1317 H 0.47071 0.14733 0.06609 0.0
H1318 H 0.51259 0.16566 0.10843 0.0
C1319 C 0.48176 0.0984 0.16621 0.0
C1320 C 0.16292 0.75998 0.17118 0.0
C1321 C 0.15912 0.78814 0.14438 0.0
H1322 H 0.16101 0.70575 0.18167 0.0
C1323 C 0.15205 0.78275 0.10576 0.0
H1324 H 0.1683 0.76363 0.20121 0.0
C1325 C 0.14721 0.74946 0.09465 0.0
C1326 C 0.14972 0.72134 0.12201 0.0
H1327 H 0.14856 0.8042 0.08483 0.0
H1328 H 0.14109 0.7458 0.06488 0.0
C1329 C 0.15839 0.7269 0.16009 0.0
C1330 C 0.53297 0.90156 0.41724 0.0
C1331 C 0.5424 0.90184 0.37758 0.0
H1332 H 0.49396 0.89922 0.46016 0.0
C1333 C 0.51749 0.90168 0.35041 0.0
H1334 H 0.55112 0.9016 0.43914 0.0
C1335 C 0.48449 0.90099 0.3624 0.0
C1336 C 0.47507 0.89969 0.40211 0.0
H1337 H 0.52351 0.90199 0.31956 0.0
H1338 H 0.46636 0.90056 0.3405 0.0
C1339 C 0.49997 0.90013 0.42927 0.0
C1340 C 0.38337 0.25786 0.60188 0.0
C1341 C 0.38274 0.28346 0.62877 0.0
H1342 H 0.3835 0.20398 0.59338 0.0
C1343 C 0.38083 0.27361 0.6687 0.0
H1344 H 0.38468 0.26465 0.57087 0.0
C1345 C 0.38063 0.23897 0.68151 0.0
C1346 C 0.38172 0.21334 0.65469 0.0
H1347 H 0.38034 0.29266 0.69015 0.0
H1348 H 0.37984 0.23225 0.71254 0.0
C1349 C 0.38255 0.22312 0.61472 0.0
C1350 C 0.03329 0.13516 0.86608 0.0
C1351 C 0.04158 0.13119 0.90539 0.0
H1352 H 0.99556 0.1407 0.82485 0.0
C1353 C 0.01593 0.12867 0.93366 0.0
H1354 H 0.05206 0.13736 0.8434 0.0
C1355 C 0.98324 0.12997 0.923 0.0
C1356 C 0.97501 0.13471 0.8837 0.0
H1357 H 0.02113 0.12554 0.96429 0.0
H1358 H 0.96443 0.12781 0.94562 0.0
C1359 C 1.00067 0.13726 0.85549 0.0
C1360 C 0.82972 0.80266 0.64812 0.0
C1361 C 0.85807 0.80975 0.6674 0.0
H1362 H 0.80621 0.76971 0.61035 0.0
C1363 C 0.88388 0.78641 0.66585 0.0
H1364 H 0.80948 0.82013 0.64863 0.0
C1365 C 0.88178 0.75726 0.64445 0.0
C1366 C 0.85414 0.75125 0.62342 0.0
H1367 H 0.90605 0.7911 0.6805 0.0
H1368 H 0.90234 0.7403 0.6428 0.0
C1369 C 0.82793 0.77393 0.62603 0.0
C1370 C 1.01232 0.07293 0.40439 0.0
C1371 C 1.00938 0.08606 0.3658 0.0
H1372 H 0.98702 0.05675 0.45752 0.0
C1373 C 0.97952 0.08503 0.34811 0.0
H1374 H 0.03533 0.07341 0.41837 0.0
C1375 C 0.95211 0.07445 0.37008 0.0
C1376 C 0.95445 0.06596 0.41012 0.0
H1377 H 0.97714 0.09457 0.31812 0.0
H1378 H 0.9288 0.07686 0.3568 0.0
C1379 C 0.98485 0.06321 0.42664 0.0
C1380 C 0.6701 0.31421 0.1489 0.0
C1381 C 0.64397 0.32683 0.1271 0.0
H1382 H 0.6909 0.27106 0.18121 0.0
C1383 C 0.61755 0.30466 0.1233 0.0
H1384 H 0.691 0.33032 0.15216 0.0
C1385 C 0.61727 0.271 0.14032 0.0
C1386 C 0.64373 0.25786 0.16106 0.0
H1387 H 0.59701 0.31327 0.10668 0.0
H1388 H 0.59646 0.25494 0.13636 0.0
C1389 C 0.67014 0.28007 0.16527 0.0
C1390 C 0.54416 0.91585 0.86621 0.0
C1391 C 0.52498 0.88695 0.87748 0.0
H1392 H 0.58372 0.94764 0.88059 0.0
C1393 C 0.52801 0.87074 0.91465 0.0
H1394 H 0.54164 0.92927 0.83799 0.0
C1395 C 0.55163 0.88145 0.93894 0.0
C1396 C 0.57222 0.90883 0.92663 0.0
H1397 H 0.51337 0.84858 0.92399 0.0
H1398 H 0.55526 0.86691 0.96632 0.0
C1399 C 0.5676 0.92689 0.89083 0.0
C1400 C 0.87873 0.26545 0.93774 0.0
C1401 C 0.8762 0.29356 0.91037 0.0
H1402 H 0.87743 0.21071 0.94758 0.0
C1403 C 0.86751 0.28799 0.8723 0.0
H1404 H 0.88487 0.26912 0.96751 0.0
C1405 C 0.86299 0.2549 0.86123 0.0
C1406 C 0.86682 0.22675 0.88804 0.0
H1407 H 0.86487 0.30912 0.85072 0.0
H1408 H 0.8576 0.25124 0.8312 0.0
C1409 C 0.8739 0.23216 0.92665 0.0
C1410 C 0.49307 0.11278 0.61525 0.0
C1411 C 0.48365 0.11252 0.65491 0.0
H1412 H 0.53207 0.11511 0.57233 0.0
C1413 C 0.50855 0.1127 0.68207 0.0
H1414 H 0.47492 0.11274 0.59335 0.0
C1415 C 0.54155 0.1134 0.67008 0.0
C1416 C 0.55097 0.11469 0.63037 0.0
H1417 H 0.50254 0.1124 0.71292 0.0
H1418 H 0.55969 0.11385 0.69196 0.0
C1419 C 0.52607 0.11422 0.60321 0.0
C1420 C 0.64542 0.77546 0.35097 0.0
C1421 C 0.6443 0.80107 0.37779 0.0
H1422 H 0.64565 0.72177 0.34231 0.0
C1423 C 0.64339 0.79129 0.41777 0.0
H1424 H 0.64628 0.78218 0.31994 0.0
C1425 C 0.6425 0.75655 0.4306 0.0
C1426 C 0.64314 0.73095 0.4037 0.0
H1427 H 0.64242 0.81043 0.4391 0.0
H1428 H 0.64111 0.74975 0.4616 0.0
C1429 C 0.64514 0.74082 0.36377 0.0
C1430 C 1.0101 0.8863 0.09879 0.0
C1431 C 0.98446 0.88377 0.12705 0.0
H1432 H 0.06161 0.88717 0.08683 0.0
C1433 C 0.99274 0.8798 0.16636 0.0
H1434 H 1.00491 0.88943 0.06816 0.0
C1435 C 0.02535 0.87771 0.17696 0.0
C1436 C 0.05102 0.88026 0.14876 0.0
H1437 H 0.97397 0.87759 0.18904 0.0
H1438 H 0.03046 0.87427 0.2076 0.0
C1439 C 0.04279 0.885 0.10946 0.0
C1440 C 0.64319 0.72677 0.86434 0.0
C1441 C 0.66871 0.70305 0.86333 0.0
H1442 H 0.62481 0.77295 0.88724 0.0
C1443 C 0.69678 0.70961 0.88339 0.0
H1444 H 0.62123 0.72247 0.8491 0.0
C1445 C 0.69849 0.73821 0.90578 0.0
C1446 C 0.67248 0.76124 0.9079 0.0
H1447 H 0.71677 0.6918 0.88333 0.0
H1448 H 0.71995 0.74202 0.92209 0.0
C1449 C 0.64521 0.75575 0.88602 0.0
C1450 C 0.57421 0.43723 0.16018 0.0
C1451 C 0.57129 0.44481 0.12004 0.0
H1452 H 0.54988 0.4185 0.21322 0.0
C1453 C 0.54066 0.44688 0.10405 0.0
H1454 H 0.5977 0.4353 0.17305 0.0
C1455 C 0.51349 0.43779 0.12718 0.0
C1456 C 0.51696 0.42587 0.16611 0.0
H1457 H 0.53804 0.4526 0.07311 0.0
H1458 H 0.49024 0.43697 0.1138 0.0
C1459 C 0.54711 0.42721 0.18303 0.0
C1460 C 0.90979 0.24122 0.38981 0.0
C1461 C 0.88338 0.25473 0.36926 0.0
H1462 H 0.92986 0.19853 0.423 0.0
C1463 C 0.85686 0.23269 0.36484 0.0
H1464 H 0.93068 0.25711 0.39393 0.0
C1465 C 0.85673 0.19841 0.38085 0.0
C1466 C 0.88281 0.18541 0.4025 0.0
H1467 H 0.83612 0.24195 0.34904 0.0
H1468 H 0.83572 0.1825 0.37746 0.0
C1469 C 0.90935 0.2074 0.40648 0.0
C1470 C 0.95769 0.58644 0.64243 0.0
C1471 C 0.95347 0.60351 0.60596 0.0
H1472 H 0.98313 0.58543 0.6956 0.0
C1473 C 0.97432 0.63048 0.59298 0.0
H1474 H 0.94134 0.56606 0.6532 0.0
C1475 C 0.99779 0.64177 0.61716 0.0
C1476 C 1.00041 0.62661 0.65491 0.0
H1477 H 0.97098 0.64431 0.56511 0.0
H1478 H 1.01259 0.66366 0.60722 0.0
C1479 C 0.98097 0.59807 0.66692 0.0
C1480 C 0.67081 0.26159 0.66574 0.0
C1481 C 0.66277 0.28972 0.64062 0.0
H1482 H 0.67164 0.20732 0.67563 0.0
C1483 C 0.65148 0.28429 0.60363 0.0
H1484 H 0.67938 0.26531 0.69456 0.0
C1485 C 0.64638 0.25087 0.59293 0.0
C1486 C 0.65266 0.22271 0.61914 0.0
H1487 H 0.64456 0.30571 0.58417 0.0
H1488 H 0.63671 0.24716 0.56468 0.0
C1489 C 0.66588 0.22842 0.65511 0.0
C1490 C 0.98507 0.40317 0.86171 0.0
C1491 C 0.97563 0.40195 0.90139 0.0
H1492 H 0.02412 0.40384 0.81896 0.0
C1493 C 1.00048 0.40226 0.92863 0.0
H1494 H 0.96696 0.40281 0.83978 0.0
C1495 C 0.03347 0.40343 0.91667 0.0
C1496 C 0.04291 0.40357 0.87704 0.0
H1497 H 0.99442 0.40139 0.9595 0.0
H1498 H 0.0516 0.40334 0.93861 0.0
C1499 C 0.01807 0.40361 0.8498 0.0
C1500 C 0.8841 0.75726 0.10156 0.0
C1501 C 0.88354 0.78298 0.1283 0.0
H1502 H 0.88383 0.70331 0.09339 0.0
C1503 C 0.8815 0.77329 0.16828 0.0
H1504 H 0.88551 0.76392 0.07053 0.0
C1505 C 0.881 0.73869 0.18128 0.0
C1506 C 0.88192 0.71294 0.15463 0.0
H1507 H 0.88104 0.79243 0.18962 0.0
H1508 H 0.88006 0.73211 0.21234 0.0
C1509 C 0.88298 0.72256 0.1146 0.0
C1510 C 0.51545 0.62846 0.4318 0.0
C1511 C 0.54117 0.63201 0.40374 0.0
H1512 H 0.46396 0.62702 0.44348 0.0
C1513 C 0.53302 0.63755 0.36449 0.0
H1514 H 0.52054 0.62413 0.46236 0.0
C1515 C 0.50042 0.64012 0.35379 0.0
C1516 C 0.47469 0.6364 0.38182 0.0
H1517 H 0.55188 0.64061 0.34199 0.0
H1518 H 0.49536 0.64471 0.32326 0.0
C1519 C 0.48283 0.63015 0.421 0.0
C1520 C 0.32732 0.2761 0.12664 0.0
C1521 C 0.35334 0.25307 0.12458 0.0
H1522 H 0.309 0.32251 0.14902 0.0
C1523 C 0.38057 0.25856 0.14653 0.0
H1524 H 0.3059 0.27228 0.11027 0.0
C1525 C 0.38255 0.28754 0.1682 0.0
C1526 C 0.35702 0.31127 0.16914 0.0
H1527 H 0.40097 0.24136 0.14537 0.0
H1528 H 0.40448 0.29184 0.1835 0.0
C1529 C 0.32899 0.3047 0.14902 0.0
C1530 C 0.51224 0.57639 0.9051 0.0
C1531 C 0.50878 0.58835 0.86619 0.0
H1532 H 0.48769 0.56153 0.95915 0.0
C1533 C 0.47863 0.58703 0.84926 0.0
H1534 H 0.53549 0.57718 0.91848 0.0
C1535 C 0.45153 0.577 0.8721 0.0
C1536 C 0.45444 0.56939 0.91224 0.0
H1537 H 0.47586 0.59578 0.81908 0.0
H1538 H 0.42803 0.57896 0.85922 0.0
C1539 C 0.48507 0.56728 0.92822 0.0
C1540 C 0.16932 0.81657 0.65156 0.0
C1541 C 0.14324 0.82959 0.62991 0.0
H1542 H 0.18991 0.773 0.68334 0.0
C1543 C 0.11669 0.80762 0.62593 0.0
H1544 H 0.19034 0.83247 0.65495 0.0
C1545 C 0.11623 0.7738 0.64258 0.0
C1546 C 0.14264 0.76026 0.66312 0.0
H1547 H 0.09619 0.81651 0.60941 0.0
H1548 H 0.09533 0.75792 0.63846 0.0
C1549 C 0.16917 0.78229 0.66755 0.0
C1550 C 0.04499 0.41699 0.36542 0.0
C1551 C 0.02552 0.38847 0.37743 0.0
H1552 H 0.08463 0.44898 0.37914 0.0
C1553 C 0.02811 0.37333 0.4152 0.0
H1554 H 0.04285 0.42961 0.33673 0.0
C1555 C 0.05158 0.38463 0.43939 0.0
C1556 C 0.07245 0.41157 0.4264 0.0
H1557 H 0.0133 0.35146 0.42515 0.0
H1558 H 0.05489 0.37081 0.46727 0.0
C1559 C 0.06826 0.42862 0.38992 0.0
C1560 C 0.37952 0.76357 0.43944 0.0
C1561 C 0.37331 0.79175 0.41323 0.0
H1562 H 0.38127 0.70873 0.4482 0.0
C1563 C 0.36017 0.78605 0.3772 0.0
H1564 H 0.38913 0.76727 0.46773 0.0
C1565 C 0.35523 0.75289 0.36655 0.0
C1566 C 0.3632 0.72475 0.39169 0.0
H1567 H 0.35447 0.80717 0.35667 0.0
H1568 H 0.34671 0.7492 0.3377 0.0
C1569 C 0.37441 0.73016 0.42872 0.0
C1570 C 0.02536 0.61275 0.1037 0.0
C1571 C 0.0502 0.61304 0.13094 0.0
H1572 H 0.97423 0.61167 0.09372 0.0
C1573 C 0.04076 0.6118 0.17062 0.0
H1574 H 0.03142 0.61363 0.07282 0.0
C1575 C 1.00776 0.61135 0.18253 0.0
C1576 C 0.98292 0.6114 0.15529 0.0
H1577 H 0.05887 0.61214 0.19255 0.0
H1578 H 1.0017 0.6111 0.21337 0.0
C1579 C 0.99236 0.61157 0.11565 0.0
C1580 C 0.14485 0.27623 0.85106 0.0
C1581 C 0.14394 0.30199 0.87771 0.0
H1582 H 0.14487 0.22248 0.84274 0.0
C1583 C 0.14296 0.29236 0.91774 0.0
H1584 H 0.14573 0.2828 0.82 0.0
C1585 C 0.14191 0.25767 0.93079 0.0
C1586 C 0.14247 0.23193 0.90406 0.0
H1587 H 0.14212 0.31162 0.93895 0.0
H1588 H 0.14057 0.25101 0.96182 0.0
C1589 C 0.14443 0.24163 0.86407 0.0
C1590 C 0.52544 0.37424 0.67855 0.0
C1591 C 0.55116 0.37796 0.65052 0.0
H1592 H 0.47398 0.37375 0.69037 0.0
C1593 C 0.54301 0.38422 0.61134 0.0
H1594 H 0.5305 0.36964 0.70909 0.0
C1595 C 0.51039 0.38592 0.60055 0.0
C1596 C 0.48467 0.38238 0.62862 0.0
H1597 H 0.56188 0.38735 0.58886 0.0
H1598 H 0.50529 0.39026 0.57 0.0
C1599 C 0.49284 0.37681 0.66787 0.0
C1600 C 0.15969 0.01931 0.24066 0.0
C1601 C 0.14118 0.02531 0.27412 0.0
H1602 H 0.17009 0.98538 0.19639 0.0
C1603 C 0.11744 1.00174 0.28848 0.0
H1604 H 0.17776 0.03762 0.22896 0.0
C1605 C 0.11332 0.97134 0.27022 0.0
C1606 C 0.13221 0.9652 0.23689 0.0
H1607 H 0.10287 1.00639 0.31429 0.0
H1608 H 0.09581 0.95261 0.28225 0.0
C1609 C 0.15495 0.98968 0.22185 0.0
C1610 C 0.2529 0.87407 0.54013 0.0
C1611 C 0.22764 0.88225 0.51503 0.0
H1612 H 0.30352 0.86609 0.54541 0.0
C1613 C 0.23328 0.88347 0.47472 0.0
H1614 H 0.24878 0.8727 0.57144 0.0
C1615 C 0.26475 0.88015 0.45978 0.0
C1616 C 0.29057 0.87525 0.48513 0.0
H1617 H 0.21401 0.8898 0.45502 0.0
H1618 H 0.26905 0.88337 0.42855 0.0
C1619 C 0.28417 0.87038 0.52528 0.0
C1620 C 0.3659 0.96257 0.74981 0.0
C1621 C 0.38884 0.95196 0.77713 0.0
H1622 H 0.34994 1.00286 0.70992 0.0
C1623 C 0.41381 0.97444 0.78528 0.0
H1624 H 0.34658 0.94553 0.74283 0.0
C1625 C 0.41534 0.00739 0.76709 0.0
C1626 C 0.39255 0.01791 0.73955 0.0
H1627 H 0.43178 0.96676 0.80624 0.0
H1628 H 0.43438 0.02461 0.77444 0.0
C1629 C 0.36802 0.99514 0.73073 0.0
C1630 C 0.22998 0.13621 0.01696 0.0
C1631 C 0.22343 0.12354 0.98094 0.0
H1632 H 0.26302 0.13759 0.06292 0.0
C1633 C 0.24501 0.10052 0.96423 0.0
H1634 H 0.2135 0.15358 0.03071 0.0
C1635 C 0.27305 0.09064 0.98327 0.0
C1636 C 0.27978 0.10412 0.01878 0.0
H1637 H 0.24005 0.08986 0.93679 0.0
H1638 H 0.28998 0.0737 0.96959 0.0
C1639 C 0.258 0.12671 0.0356 0.0
C1640 C 0.87129 0.02516 0.8107 0.0
C1641 C 0.89393 0.0497 0.79558 0.0
H1642 H 0.84853 0.97718 0.80365 0.0
C1643 C 0.91274 0.04363 0.76217 0.0
H1644 H 0.85621 0.0294 0.83624 0.0
C1645 C 0.90862 0.01324 0.7439 0.0
C1646 C 0.88496 0.98961 0.75834 0.0
H1647 H 0.93018 0.06241 0.75006 0.0
H1648 H 0.92312 0.00863 0.71801 0.0
C1649 C 0.86654 0.99553 0.79189 0.0
C1650 C 0.76126 0.13451 0.57266 0.0
C1651 C 0.73544 0.13937 0.5473 0.0
H1652 H 0.81202 0.12502 0.57742 0.0
C1653 C 0.74184 0.14434 0.50716 0.0
H1654 H 0.75696 0.13122 0.60387 0.0
C1655 C 0.77313 0.14079 0.49231 0.0
C1656 C 0.7984 0.13264 0.51741 0.0
H1657 H 0.72248 0.1486 0.48703 0.0
H1658 H 0.77726 0.14223 0.461 0.0
C1659 C 0.79274 0.13133 0.55771 0.0
C1660 C 0.61216 0.03991 0.24719 0.0
C1661 C 0.63713 0.06239 0.2553 0.0
H1662 H 0.59159 0.98975 0.25807 0.0
C1663 C 0.66008 0.05181 0.28262 0.0
H1664 H 0.59418 0.04758 0.22623 0.0
C1665 C 0.65798 0.01925 0.30172 0.0
C1666 C 0.63344 0.99647 0.29293 0.0
H1667 H 0.67941 0.06885 0.28957 0.0
H1668 H 0.67606 0.01154 0.32253 0.0
C1669 C 0.61064 1.00697 0.2654 0.0
C1670 C 0.7529 0.92396 0.04912 0.0
C1671 C 0.74613 0.91029 1.01372 0.0
H1672 H 0.78598 0.92503 0.09548 0.0
C1673 C 0.76792 0.88766 0.99698 0.0
H1674 H 0.73596 0.94094 0.06272 0.0
C1675 C 0.79599 0.87832 1.0156 0.0
C1676 C 0.80259 0.89118 0.0515 0.0
H1677 H 0.76288 0.87664 0.96975 0.0
H1678 H 0.81248 0.86092 1.00191 0.0
C1679 C 0.78099 0.91424 0.06813 0.0
C1680 C 0.64879 0.49209 0.79574 0.0
C1681 C 0.6376 0.52214 0.77661 0.0
H1682 H 0.65322 0.43778 0.79438 0.0
C1683 C 0.62014 0.52096 0.74263 0.0
H1684 H 0.66205 0.49292 0.82225 0.0
C1685 C 0.61568 0.4898 0.72633 0.0
C1686 C 0.62763 0.45976 0.74487 0.0
H1687 H 0.61134 0.54425 0.72786 0.0
H1688 H 0.60387 0.48924 0.69877 0.0
C1689 C 0.64334 0.4608 0.78019 0.0
C1690 C 0.78453 0.3692 0.0233 0.0
C1691 C 0.7913 0.37464 0.98328 0.0
H1692 H 0.74862 0.37049 0.069 0.0
C1693 C 0.76569 0.37939 0.95758 0.0
H1694 H 0.80372 0.36499 0.04367 0.0
C1695 C 0.73403 0.38209 0.9721 0.0
C1696 C 0.72798 0.38038 1.01234 0.0
H1697 H 0.77028 0.38302 0.92643 0.0
H1698 H 0.71491 0.38839 0.95218 0.0
C1699 C 0.75306 0.37224 0.03774 0.0
C1700 C 0.9151 0.50695 0.26717 0.0
C1701 C 0.89224 0.51728 0.23962 0.0
H1702 H 0.93201 0.46638 0.30611 0.0
C1703 C 0.8681 0.49416 0.23052 0.0
H1704 H 0.93387 0.52441 0.27473 0.0
C1705 C 0.86642 0.46145 0.24934 0.0
C1706 C 0.88941 0.45105 0.27671 0.0
H1707 H 0.85 0.50168 0.20966 0.0
H1708 H 0.84738 0.44417 0.24214 0.0
C1709 C 0.91401 0.47388 0.28512 0.0
C1710 C 0.72942 0.63362 0.51677 0.0
C1711 C 0.72282 0.62121 0.48063 0.0
H1712 H 0.76265 0.63495 0.56257 0.0
C1713 C 0.74451 0.59845 0.46362 0.0
H1714 H 0.7129 0.65078 0.53078 0.0
C1715 C 0.77271 0.58865 0.48242 0.0
C1716 C 0.77952 0.60195 0.51801 0.0
H1717 H 0.73955 0.588 0.43607 0.0
H1718 H 0.7897 0.57194 0.46849 0.0
C1719 C 0.75762 0.62422 0.53517 0.0
C1720 C 0.40997 0.52453 0.30614 0.0
C1721 C 0.39814 0.5546 0.28753 0.0
H1722 H 0.41424 0.47008 0.30465 0.0
C1723 C 0.38253 0.55357 0.25213 0.0
H1724 H 0.4217 0.52507 0.33375 0.0
C1725 C 0.3771 0.52229 0.23656 0.0
C1726 C 0.38818 0.49222 0.25575 0.0
H1727 H 0.37274 0.57662 0.23788 0.0
H1728 H 0.36392 0.52148 0.20998 0.0
C1729 C 0.40552 0.49338 0.28982 0.0
C1730 C 0.29181 0.63243 0.06021 0.0
C1731 C 0.29784 0.63403 0.01997 0.0
H1732 H 0.25559 0.63175 0.1059 0.0
C1733 C 0.27278 0.64219 0.99457 0.0
H1734 H 0.31094 0.62613 0.08013 0.0
C1735 C 0.24132 0.64539 1.00902 0.0
C1736 C 0.23456 0.64007 0.04905 0.0
H1737 H 0.27721 0.64385 0.96331 0.0
H1738 H 0.22214 0.64961 0.98864 0.0
C1739 C 0.26017 0.63529 0.07475 0.0
C1740 C 0.1108 0.50801 0.76514 0.0
C1741 C 0.13364 0.49767 0.79271 0.0
H1742 H 0.09391 0.5486 0.72621 0.0
C1743 C 0.15778 0.52078 0.80184 0.0
H1744 H 0.09203 0.49055 0.75756 0.0
C1745 C 0.15946 0.5535 0.78304 0.0
C1746 C 0.13649 0.56391 0.75566 0.0
H1747 H 0.17586 0.51325 0.8227 0.0
H1748 H 0.1785 0.57078 0.79026 0.0
C1749 C 0.1119 0.54109 0.74721 0.0
C1750 C 0.2532 0.42603 0.55003 0.0
C1751 C 0.24639 0.41286 0.51437 0.0
H1752 H 0.28632 0.42647 0.59644 0.0
C1753 C 0.26827 0.39059 0.49716 0.0
H1754 H 0.23623 0.44274 0.564 0.0
C1755 C 0.29642 0.38106 0.51557 0.0
C1756 C 0.30302 0.39335 0.55177 0.0
H1757 H 0.26323 0.37995 0.46971 0.0
H1758 H 0.31293 0.36391 0.50152 0.0
C1759 C 0.28136 0.41611 0.56884 0.0
C1760 C 0.10361 0.16335 0.15627 0.0
C1761 C 0.1252 0.15447 0.1261 0.0
H1762 H 0.09433 0.16645 0.21745 0.0
C1763 C 0.15622 0.14295 0.13677 0.0
H1764 H 0.07946 0.17197 0.14989 0.0
C1765 C 0.16495 0.13988 0.17625 0.0
C1766 C 0.14288 0.14806 0.20629 0.0
H1767 H 0.17381 0.13616 0.11468 0.0
H1768 H 0.18861 0.13003 0.1833 0.0
C1769 C 0.11223 0.16015 0.19542 0.0
C1770 C 0.06566 0.82852 0.41078 0.0
C1771 C 0.09317 0.83389 0.43223 0.0
H1772 H 0.04818 0.81692 0.35538 0.0
C1773 C 0.12362 0.82398 0.41789 0.0
H1774 H 0.04196 0.83574 0.42154 0.0
C1775 C 0.12712 0.81359 0.38031 0.0
C1776 C 0.10016 0.81242 0.35717 0.0
H1777 H 0.14502 0.82669 0.43465 0.0
H1778 H 0.15109 0.80924 0.36813 0.0
C1779 C 0.06917 0.81765 0.37322 0.0
C1780 C 0.42471 0.8321 0.69417 0.0
C1781 C 0.3938 0.83637 0.71135 0.0
H1782 H 0.45427 0.83276 0.6421 0.0
C1783 C 0.36805 0.84374 0.68631 0.0
H1784 H 0.44528 0.82688 0.7122 0.0
C1785 C 0.37327 0.84735 0.6455 0.0
C1786 C 0.40438 0.84351 0.62842 0.0
H1787 H 0.34395 0.84773 0.6983 0.0
H1788 H 0.3529 0.85317 0.62738 0.0
C1789 C 0.42988 0.83553 0.65359 0.0
C1790 C 0.414 0.16202 0.89754 0.0
C1791 C 0.41622 0.13507 0.87268 0.0
H1792 H 0.40373 0.17657 0.95545 0.0
C1793 C 0.41246 0.1012 0.88821 0.0
H1794 H 0.41667 0.18834 0.8861 0.0
C1795 C 0.40523 0.09438 0.92769 0.0
C1796 C 0.40134 0.12139 0.95231 0.0
H1797 H 0.41454 0.08001 0.8696 0.0
H1798 H 0.40161 0.068 0.9386 0.0
C1799 C 0.40643 0.15525 0.93708 0.0
C1800 C 0.86117 0.87503 0.85614 0.0
C1801 C 0.88326 0.86689 0.82611 0.0
H1802 H 0.85229 0.87873 0.9177 0.0
C1803 C 0.91393 0.85484 0.83698 0.0
H1804 H 0.8375 0.88484 0.84908 0.0
C1805 C 0.92254 0.85165 0.87614 0.0
C1806 C 0.90092 0.86049 0.9063 0.0
H1807 H 0.93184 0.84857 0.81496 0.0
H1808 H 0.9467 0.84307 0.88252 0.0
C1809 C 0.86989 0.87197 0.89562 0.0
C1810 C 0.95681 0.19746 0.65922 0.0
C1811 C 0.92581 0.20263 0.6753 0.0
H1812 H 0.98404 0.17946 0.61088 0.0
C1813 C 0.89885 0.20145 0.65215 0.0
H1814 H 0.9778 0.19821 0.67707 0.0
C1815 C 0.90236 0.19111 0.61456 0.0
C1816 C 0.93282 0.18125 0.6002 0.0
H1817 H 0.87487 0.20576 0.66435 0.0
H1818 H 0.88096 0.18838 0.59781 0.0
C1819 C 0.96032 0.18664 0.62164 0.0
C1820 C 0.65268 0.16701 0.38691 0.0
C1821 C 0.62157 0.17082 0.404 0.0
H1822 H 0.68199 0.16665 0.33411 0.0
C1823 C 0.59606 0.17876 0.37883 0.0
H1824 H 0.67306 0.16121 0.40502 0.0
C1825 C 0.60122 0.1822 0.33825 0.0
C1826 C 0.63213 0.17796 0.32107 0.0
H1827 H 0.57166 0.18151 0.39033 0.0
H1828 H 0.58064 0.18739 0.32023 0.0
C1829 C 0.65789 0.17062 0.34609 0.0
C1830 C 0.6207 0.91994 0.10476 0.0
C1831 C 0.62459 0.89292 0.08015 0.0
H1832 H 0.61143 0.93433 0.16286 0.0
C1833 C 0.61953 0.85906 0.09541 0.0
H1834 H 0.62429 0.94632 0.09384 0.0
C1835 C 0.61199 0.8523 0.13496 0.0
C1836 C 0.60978 0.87926 0.1598 0.0
H1837 H 0.62223 0.83774 0.07704 0.0
H1838 H 0.60935 0.82598 0.14641 0.0
C1839 C 0.61351 0.91313 0.14426 0.0
C1840 C 0.66433 0.63676 0.67479 0.0
C1841 C 0.64301 0.6466 0.70479 0.0
H1842 H 0.6725 0.63205 0.61333 0.0
C1843 C 0.61308 0.66069 0.69398 0.0
H1844 H 0.6874 0.6254 0.68183 0.0
C1845 C 0.60434 0.66412 0.65491 0.0
C1846 C 0.62512 0.65358 0.62479 0.0
H1847 H 0.59576 0.66835 0.716 0.0
H1848 H 0.58069 0.67427 0.6486 0.0
C1849 C 0.6555 0.64014 0.63539 0.0
C1850 C 0.57155 0.31071 0.87142 0.0
C1851 C 0.60277 0.3054 0.85606 0.0
H1852 H 0.54361 0.32961 0.9187 0.0
C1853 C 0.62938 0.30711 0.87973 0.0
H1854 H 0.55083 0.30961 0.85319 0.0
C1855 C 0.62531 0.31826 0.91693 0.0
C1856 C 0.59465 0.32835 0.9304 0.0
H1857 H 0.65353 0.30278 0.86809 0.0
H1858 H 0.64647 0.32148 0.93398 0.0
C1859 C 0.56748 0.3223 0.90862 0.0
C1860 C 0.93158 0.33629 0.15211 0.0
C1861 C 0.90587 0.34388 0.12711 0.0
H1862 H 0.94727 0.32765 0.21062 0.0
C1863 C 0.87474 0.34701 0.14437 0.0
H1864 H 0.95599 0.33405 0.14046 0.0
C1865 C 0.86969 0.34307 0.18519 0.0
C1866 C 0.89562 0.33608 0.21006 0.0
H1867 H 0.85423 0.3525 0.12639 0.0
H1868 H 0.84554 0.3465 0.1973 0.0
C1869 C 0.92657 0.33254 0.19271 0.0
C1870 C 0.91432 0.66059 0.39781 0.0
C1871 C 0.91654 0.63381 0.37273 0.0
H1872 H 0.90401 0.67475 0.45584 0.0
C1873 C 0.91292 0.59984 0.38799 0.0
H1874 H 0.91689 0.68698 0.38657 0.0
C1875 C 0.90572 0.59276 0.42744 0.0
C1876 C 0.90172 0.61961 0.45225 0.0
H1877 H 0.91503 0.57879 0.36918 0.0
H1878 H 0.90215 0.56632 0.43814 0.0
C1879 C 0.90677 0.65356 0.4373 0.0
C1880 C 0.36143 0.37765 0.35761 0.0
C1881 C 0.38273 0.36778 0.32761 0.0
H1882 H 0.35328 0.38237 0.41907 0.0
C1883 C 0.41265 0.35367 0.33841 0.0
H1884 H 0.33836 0.38902 0.35058 0.0
C1885 C 0.4214 0.35022 0.37749 0.0
C1886 C 0.40063 0.36079 0.40761 0.0
H1887 H 0.42995 0.34599 0.3164 0.0
H1888 H 0.44504 0.34005 0.38379 0.0
C1889 C 0.37026 0.37426 0.39701 0.0
C1890 C 0.45435 0.70347 0.16087 0.0
C1891 C 0.42314 0.70882 0.17623 0.0
H1892 H 0.48228 0.68451 0.11361 0.0
C1893 C 0.39653 0.70712 0.15257 0.0
H1894 H 0.47508 0.70456 0.1791 0.0
C1895 C 0.40058 0.69595 0.11537 0.0
C1896 C 0.43123 0.68582 0.10191 0.0
H1897 H 0.37238 0.71149 0.16421 0.0
H1898 H 0.37942 0.69274 0.09833 0.0
C1899 C 0.45841 0.69185 0.12369 0.0
C1900 C 0.09937 0.68247 0.83964 0.0
C1901 C 0.13032 0.67891 0.8223 0.0
H1902 H 0.06993 0.68098 0.89188 0.0
C1903 C 0.15624 0.6719 0.84719 0.0
H1904 H 0.07867 0.68739 0.82172 0.0
C1905 C 0.15117 0.66796 0.888 0.0
C1906 C 0.12004 0.67112 0.90525 0.0
H1907 H 0.18039 0.66845 0.83509 0.0
H1908 H 0.17168 0.66245 0.90599 0.0
C1909 C 0.09434 0.67873 0.88024 0.0
C1910 C 0.11293 0.41515 0.64437 0.0
C1911 C 0.10926 0.38118 0.65961 0.0
H1912 H 0.12377 0.44867 0.59424 0.0
C1913 C 0.11147 0.35441 0.63452 0.0
H1914 H 0.11084 0.4362 0.66319 0.0
C1915 C 0.11904 0.36144 0.59504 0.0
C1916 C 0.12414 0.39539 0.58011 0.0
H1917 H 0.10886 0.32802 0.64576 0.0
H1918 H 0.12179 0.34026 0.57649 0.0
C1919 C 0.12016 0.42224 0.60493 0.0
loop_
_geom_bond_atom_site_label_1
_geom_bond_atom_site_label_2
_geom_bond_distance
_geom_bond_site_symmetry_2
_ccdc_geom_bond_type
Co0 N5 2.057 . S
Co0 O17 2.021 . S
Co0 O20 2.062 . S
Co0 O24 2.117 . S
Co0 O25 2.020 . S
C1 O21 1.259 . S
C1 O24 1.258 . S
Co2 N11 2.057 . S
Co2 O18 2.117 . S
Co2 O19 2.020 . S
Co2 O21 2.021 . S
Co2 O26 2.062 . S
C3 N5 1.316 . S
C3 N6 1.347 . S
C3 H8 0.931 . S
C4 N5 1.375 . S
C4 C7 1.350 . S
C4 H9 0.930 . S
N5 Co0 2.057 . S
N5 C3 1.316 . S
N5 C4 1.375 . S
N6 C3 1.347 . S
N6 C7 1.373 . S
C7 C4 1.350 . S
C7 N6 1.373 . S
C7 H28 0.931 . S
H8 C3 0.931 . S
H9 C4 0.930 . S
C10 O17 1.259 . S
C10 O18 1.258 . S
N11 Co2 2.057 . S
N11 C12 1.316 . S
N11 C13 1.375 . S
C12 N11 1.316 . S
C12 N14 1.347 . S
C12 H23 0.931 . S
C13 N11 1.375 . S
C13 C15 1.350 . S
C13 H22 0.930 . S
N14 C12 1.347 . S
N14 C15 1.373 . S
C15 C13 1.350 . S
C15 N14 1.373 . S
C15 H29 0.931 1_455 S
C16 O19 1.256 . S
C16 O20 1.255 . S
O17 Co0 2.021 . S
O17 C10 1.259 . S
O18 Co2 2.117 . S
O18 C10 1.258 . S
O19 Co2 2.020 . S
O19 C16 1.256 . S
O20 Co0 2.062 . S
O20 C16 1.255 . S
O21 C1 1.259 . S
O21 Co2 2.021 . S
H22 C13 0.930 . S
H23 C12 0.931 . S
O24 Co0 2.117 . S
O24 C1 1.258 . S
O25 Co0 2.020 . S
O25 C27 1.256 . S
O26 Co2 2.062 . S
O26 C27 1.255 . S
C27 O25 1.256 . S
C27 O26 1.255 . S
H28 C7 0.931 . S
H29 C15 0.931 1_655 S
Co30 N35 2.057 . S
Co30 O47 2.021 . S
Co30 O50 2.062 . S
Co30 O54 2.117 . S
Co30 O55 2.020 . S
C31 O51 1.259 . S
C31 O54 1.258 . S
Co32 N41 2.057 . S
Co32 O48 2.117 . S
Co32 O49 2.020 . S
Co32 O51 2.021 . S
Co32 O56 2.062 . S
C33 N35 1.316 . S
C33 N36 1.347 . S
C33 H38 0.931 . S
C34 N35 1.375 . S
C34 C37 1.350 . S
C34 H39 0.930 . S
N35 Co30 2.057 . S
N35 C33 1.316 . S
N35 C34 1.375 . S
N36 C33 1.347 . S
N36 C37 1.373 . S
C37 C34 1.350 . S
C37 N36 1.373 . S
C37 H58 0.931 . S
H38 C33 0.931 . S
H39 C34 0.930 . S
C40 O47 1.259 . S
C40 O48 1.258 . S
N41 Co32 2.057 . S
N41 C42 1.316 . S
N41 C43 1.375 . S
C42 N41 1.316 . S
C42 N44 1.347 . S
C42 H53 0.931 . S
C43 N41 1.375 . S
C43 C45 1.350 . S
C43 H52 0.930 . S
N44 C42 1.347 . S
N44 C45 1.373 . S
C45 C43 1.350 . S
C45 N44 1.373 . S
C45 H59 0.931 . S
C46 O49 1.256 . S
C46 O50 1.255 . S
O47 Co30 2.021 . S
O47 C40 1.259 . S
O48 Co32 2.117 . S
O48 C40 1.258 . S
O49 Co32 2.020 . S
O49 C46 1.256 . S
O50 Co30 2.062 . S
O50 C46 1.255 . S
O51 C31 1.259 . S
O51 Co32 2.021 . S
H52 C43 0.930 . S
H53 C42 0.931 . S
O54 Co30 2.117 . S
O54 C31 1.258 . S
O55 Co30 2.020 . S
O55 C57 1.256 . S
O56 Co32 2.062 . S
O56 C57 1.255 . S
C57 O55 1.256 . S
C57 O56 1.255 . S
H58 C37 0.931 . S
H59 C45 0.931 . S
Co60 N65 2.057 . S
Co60 O77 2.021 . S
Co60 O80 2.062 . S
Co60 O84 2.117 . S
Co60 O85 2.020 . S
C61 O81 1.259 . S
C61 O84 1.258 . S
Co62 N71 2.057 . S
Co62 O78 2.117 . S
Co62 O79 2.020 . S
Co62 O81 2.021 . S
Co62 O86 2.062 . S
C63 N65 1.316 . S
C63 N66 1.347 . S
C63 H68 0.931 . S
C64 N65 1.375 . S
C64 C67 1.350 . S
C64 H69 0.930 . S
N65 Co60 2.057 . S
N65 C63 1.316 . S
N65 C64 1.375 . S
N66 C63 1.347 . S
N66 C67 1.373 . S
C67 C64 1.350 . S
C67 N66 1.373 . S
C67 H88 0.931 . S
H68 C63 0.931 . S
H69 C64 0.930 . S
C70 O77 1.259 . S
C70 O78 1.258 . S
N71 Co62 2.057 . S
N71 C72 1.316 . S
N71 C73 1.375 . S
C72 N71 1.316 . S
C72 N74 1.347 . S
C72 H83 0.931 . S
C73 N71 1.375 . S
C73 C75 1.350 . S
C73 H82 0.930 . S
N74 C72 1.347 . S
N74 C75 1.373 . S
C75 C73 1.350 . S
C75 N74 1.373 . S
C75 H89 0.931 . S
C76 O79 1.256 . S
C76 O80 1.255 . S
O77 Co60 2.021 . S
O77 C70 1.259 . S
O78 Co62 2.117 . S
O78 C70 1.258 . S
O79 Co62 2.020 . S
O79 C76 1.256 . S
O80 Co60 2.062 . S
O80 C76 1.255 . S
O81 C61 1.259 . S
O81 Co62 2.021 . S
H82 C73 0.930 . S
H83 C72 0.931 . S
O84 Co60 2.117 . S
O84 C61 1.258 . S
O85 Co60 2.020 . S
O85 C87 1.256 . S
O86 Co62 2.062 . S
O86 C87 1.255 . S
C87 O85 1.256 . S
C87 O86 1.255 . S
H88 C67 0.931 . S
H89 C75 0.931 . S
Co90 N95 2.057 . S
Co90 O107 2.021 . S
Co90 O110 2.062 1_554 S
Co90 O114 2.117 . S
Co90 O115 2.020 . S
C91 O111 1.259 . S
C91 O114 1.258 . S
Co92 N101 2.057 . S
Co92 O108 2.117 . S
Co92 O109 2.020 1_554 S
Co92 O111 2.021 . S
Co92 O116 2.062 . S
C93 N95 1.314 1_556 S
C93 N96 1.347 1_545 S
C93 H98 0.932 . S
C94 N95 1.375 . S
C94 C97 1.350 1_545 S
C94 H99 0.930 . S
N95 Co90 2.057 . S
N95 C93 1.314 1_554 S
N95 C94 1.375 . S
N96 C93 1.347 1_565 S
N96 C97 1.373 1_556 S
C97 C94 1.350 1_565 S
C97 N96 1.373 1_554 S
C97 H118 0.931 . S
H98 C93 0.932 . S
H99 C94 0.930 . S
C100 O107 1.259 . S
C100 O108 1.258 . S
N101 Co92 2.057 . S
N101 C102 1.316 . S
N101 C103 1.375 . S
C102 N101 1.316 . S
C102 N104 1.347 . S
C102 H113 0.931 . S
C103 N101 1.375 . S
C103 C105 1.350 . S
C103 H112 0.930 . S
N104 C102 1.347 . S
N104 C105 1.373 . S
C105 C103 1.350 . S
C105 N104 1.373 . S
C105 H119 0.931 . S
C106 O109 1.256 . S
C106 O110 1.255 . S
O107 Co90 2.021 . S
O107 C100 1.259 . S
O108 Co92 2.117 . S
O108 C100 1.258 . S
O109 Co92 2.020 1_556 S
O109 C106 1.256 . S
O110 Co90 2.062 1_556 S
O110 C106 1.255 . S
O111 C91 1.259 . S
O111 Co92 2.021 . S
H112 C103 0.930 . S
H113 C102 0.931 . S
O114 Co90 2.117 . S
O114 C91 1.258 . S
O115 Co90 2.020 . S
O115 C117 1.256 . S
O116 Co92 2.062 . S
O116 C117 1.255 . S
C117 O115 1.256 . S
C117 O116 1.255 . S
H118 C97 0.931 . S
H119 C105 0.931 . S
Co120 N125 2.057 . S
Co120 O137 2.021 . S
Co120 O140 2.062 . S
Co120 O144 2.117 . S
Co120 O145 2.020 . S
C121 O141 1.259 . S
C121 O144 1.258 . S
Co122 N131 2.057 . S
Co122 O138 2.117 . S
Co122 O139 2.020 . S
Co122 O141 2.021 . S
Co122 O146 2.062 . S
C123 N125 1.316 . S
C123 N126 1.347 . S
C123 H128 0.931 . S
C124 N125 1.375 . S
C124 C127 1.350 . S
C124 H129 0.930 . S
N125 Co120 2.057 . S
N125 C123 1.316 . S
N125 C124 1.375 . S
N126 C123 1.347 . S
N126 C127 1.373 . S
C127 C124 1.350 . S
C127 N126 1.373 . S
C127 H148 0.952 . S
H128 C123 0.931 . S
H129 C124 0.930 . S
C130 O137 1.259 . S
C130 O138 1.258 . S
N131 Co122 2.057 . S
N131 C132 1.316 . S
N131 C133 1.375 . S
C132 N131 1.316 . S
C132 N134 1.347 . S
C132 H143 0.931 . S
C133 N131 1.375 . S
C133 C135 1.350 . S
C133 H142 0.930 . S
N134 C132 1.347 . S
N134 C135 1.373 . S
C135 C133 1.350 . S
C135 N134 1.373 . S
C135 H149 0.931 . S
C136 O139 1.256 . S
C136 O140 1.255 . S
O137 Co120 2.021 . S
O137 C130 1.259 . S
O138 Co122 2.117 . S
O138 C130 1.258 . S
O139 Co122 2.020 . S
O139 C136 1.256 . S
O140 Co120 2.062 . S
O140 C136 1.255 . S
O141 C121 1.259 . S
O141 Co122 2.021 . S
H142 C133 0.930 . S
H143 C132 0.931 . S
O144 Co120 2.117 . S
O144 C121 1.258 . S
O145 Co120 2.020 . S
O145 C147 1.256 . S
O146 Co122 2.062 . S
O146 C147 1.255 . S
C147 O145 1.256 . S
C147 O146 1.255 . S
H148 C127 0.952 . S
H149 C135 0.931 . S
Co150 N155 2.057 . S
Co150 O167 2.021 . S
Co150 O170 2.062 . S
Co150 O174 2.117 . S
Co150 O175 2.020 . S
C151 O171 1.259 . S
C151 O174 1.258 . S
Co152 N161 2.057 . S
Co152 O168 2.117 . S
Co152 O169 2.020 . S
Co152 O171 2.021 . S
Co152 O176 2.062 . S
C153 N155 1.316 . S
C153 N156 1.347 . S
C153 H158 0.931 . S
C154 N155 1.375 . S
C154 C157 1.350 . S
C154 H159 0.930 . S
N155 Co150 2.057 . S
N155 C153 1.316 . S
N155 C154 1.375 . S
N156 C153 1.347 . S
N156 C157 1.373 . S
C157 C154 1.350 . S
C157 N156 1.373 . S
C157 H178 0.931 . S
H158 C153 0.931 . S
H159 C154 0.930 . S
C160 O167 1.259 . S
C160 O168 1.258 . S
N161 Co152 2.057 . S
N161 C162 1.316 . S
N161 C163 1.375 . S
C162 N161 1.316 . S
C162 N164 1.347 . S
C162 H173 0.931 . S
C163 N161 1.375 . S
C163 C165 1.350 . S
C163 H172 0.930 . S
N164 C162 1.347 . S
N164 C165 1.373 . S
C165 C163 1.350 . S
C165 N164 1.373 . S
C165 H179 0.931 . S
C166 O169 1.256 . S
C166 O170 1.255 . S
O167 Co150 2.021 . S
O167 C160 1.259 . S
O168 Co152 2.117 . S
O168 C160 1.258 . S
O169 Co152 2.020 . S
O169 C166 1.256 . S
O170 Co150 2.062 . S
O170 C166 1.255 . S
O171 C151 1.259 . S
O171 Co152 2.021 . S
H172 C163 0.930 . S
H173 C162 0.931 . S
O174 Co150 2.117 . S
O174 C151 1.258 . S
O175 Co150 2.020 . S
O175 C177 1.256 . S
O176 Co152 2.062 . S
O176 C177 1.255 . S
C177 O175 1.256 . S
C177 O176 1.255 . S
H178 C157 0.931 . S
H179 C165 0.931 . S
Co180 N185 2.057 . S
Co180 O197 2.021 . S
Co180 O200 2.062 . S
Co180 O204 2.117 . S
Co180 O205 2.020 . S
C181 O201 1.259 . S
C181 O204 1.258 . S
Co182 N191 2.057 . S
Co182 O198 2.117 . S
Co182 O199 2.020 . S
Co182 O201 2.021 . S
Co182 O206 2.062 . S
C183 N185 1.316 . S
C183 N186 1.347 . S
C183 H188 0.931 . S
C184 N185 1.375 . S
C184 C187 1.350 . S
C184 H189 0.930 . S
N185 Co180 2.057 . S
N185 C183 1.316 . S
N185 C184 1.375 . S
N186 C183 1.347 . S
N186 C187 1.373 . S
C187 C184 1.350 . S
C187 N186 1.373 . S
C187 H208 0.931 . S
H188 C183 0.931 . S
H189 C184 0.930 . S
C190 O197 1.259 . S
C190 O198 1.258 . S
N191 Co182 2.057 . S
N191 C192 1.316 . S
N191 C193 1.375 . S
C192 N191 1.316 . S
C192 N194 1.347 . S
C192 H203 0.931 . S
C193 N191 1.375 . S
C193 C195 1.350 . S
C193 H202 0.930 . S
N194 C192 1.347 . S
N194 C195 1.373 . S
C195 C193 1.350 . S
C195 N194 1.373 . S
C195 H209 0.931 . S
C196 O199 1.256 . S
C196 O200 1.255 . S
O197 Co180 2.021 . S
O197 C190 1.259 . S
O198 Co182 2.117 . S
O198 C190 1.258 . S
O199 Co182 2.020 . S
O199 C196 1.256 . S
O200 Co180 2.062 . S
O200 C196 1.255 . S
O201 C181 1.259 . S
O201 Co182 2.021 . S
H202 C193 0.930 . S
H203 C192 0.931 . S
O204 Co180 2.117 . S
O204 C181 1.258 . S
O205 Co180 2.020 . S
O205 C207 1.256 . S
O206 Co182 2.062 . S
O206 C207 1.255 . S
C207 O205 1.256 . S
C207 O206 1.255 . S
H208 C187 0.931 . S
H209 C195 0.931 . S
Co210 N215 2.057 . S
Co210 O227 2.021 . S
Co210 O230 2.062 . S
Co210 O234 2.117 . S
Co210 O235 2.020 . S
C211 O231 1.259 . S
C211 O234 1.258 . S
Co212 N221 2.057 1_556 S
Co212 O228 2.117 . S
Co212 O229 2.020 . S
Co212 O231 2.021 . S
Co212 O236 2.062 . S
C213 N215 1.316 . S
C213 N216 1.347 . S
C213 H218 0.931 . S
C214 N215 1.375 . S
C214 C217 1.350 . S
C214 H219 0.930 . S
N215 Co210 2.057 . S
N215 C213 1.316 . S
N215 C214 1.375 . S
N216 C213 1.347 . S
N216 C217 1.373 . S
C217 C214 1.350 . S
C217 N216 1.373 . S
C217 H238 0.931 . S
H218 C213 0.931 . S
H219 C214 0.930 . S
C220 O227 1.259 . S
C220 O228 1.258 . S
N221 Co212 2.057 1_554 S
N221 C222 1.316 . S
N221 C223 1.375 . S
C222 N221 1.316 . S
C222 N224 1.347 . S
C222 H233 0.931 . S
C223 N221 1.375 . S
C223 C225 1.350 . S
C223 H232 0.930 1_554 S
N224 C222 1.347 . S
N224 C225 1.373 . S
C225 C223 1.350 . S
C225 N224 1.373 . S
C225 H239 0.931 . S
C226 O229 1.256 . S
C226 O230 1.255 . S
O227 Co210 2.021 . S
O227 C220 1.259 . S
O228 Co212 2.117 . S
O228 C220 1.258 . S
O229 Co212 2.020 . S
O229 C226 1.256 . S
O230 Co210 2.062 . S
O230 C226 1.255 . S
O231 C211 1.259 . S
O231 Co212 2.021 . S
H232 C223 0.930 1_556 S
H233 C222 0.931 . S
O234 Co210 2.117 . S
O234 C211 1.258 . S
O235 Co210 2.020 . S
O235 C237 1.256 . S
O236 Co212 2.062 . S
O236 C237 1.255 . S
C237 O235 1.256 . S
C237 O236 1.255 . S
H238 C217 0.931 . S
H239 C225 0.931 . S
Co240 N245 2.057 . S
Co240 O257 2.021 . S
Co240 O260 2.062 . S
Co240 O264 2.117 . S
Co240 O265 2.020 . S
C241 O261 1.259 . S
C241 O264 1.258 . S
Co242 N251 2.057 . S
Co242 O258 2.117 . S
Co242 O259 2.020 . S
Co242 O261 2.021 . S
Co242 O266 2.062 . S
C243 N245 1.316 . S
C243 N246 1.347 . S
C243 H248 0.931 . S
C244 N245 1.375 . S
C244 C247 1.350 . S
C244 H249 0.930 . S
N245 Co240 2.057 . S
N245 C243 1.316 . S
N245 C244 1.375 . S
N246 C243 1.347 . S
N246 C247 1.373 . S
C247 C244 1.350 . S
C247 N246 1.373 . S
C247 H268 0.931 1_655 S
H248 C243 0.931 . S
H249 C244 0.930 . S
C250 O257 1.259 . S
C250 O258 1.258 . S
N251 Co242 2.057 . S
N251 C252 1.316 . S
N251 C253 1.375 . S
C252 N251 1.316 . S
C252 N254 1.347 . S
C252 H263 0.931 . S
C253 N251 1.375 . S
C253 C255 1.350 . S
C253 H262 0.930 . S
N254 C252 1.347 . S
N254 C255 1.373 . S
C255 C253 1.350 . S
C255 N254 1.373 . S
C255 H269 0.931 . S
C256 O259 1.256 . S
C256 O260 1.255 . S
O257 Co240 2.021 . S
O257 C250 1.259 . S
O258 Co242 2.117 . S
O258 C250 1.258 . S
O259 Co242 2.020 . S
O259 C256 1.256 . S
O260 Co240 2.062 . S
O260 C256 1.255 . S
O261 C241 1.259 . S
O261 Co242 2.021 . S
H262 C253 0.930 . S
H263 C252 0.931 . S
O264 Co240 2.117 . S
O264 C241 1.258 . S
O265 Co240 2.020 . S
O265 C267 1.256 . S
O266 Co242 2.062 . S
O266 C267 1.255 . S
C267 O265 1.256 . S
C267 O266 1.255 . S
H268 C247 0.931 1_455 S
H269 C255 0.931 . S
Co270 N275 2.057 . S
Co270 O287 2.021 . S
Co270 O290 2.062 . S
Co270 O294 2.117 . S
Co270 O295 2.020 . S
C271 O291 1.259 . S
C271 O294 1.258 . S
Co272 N281 2.057 . S
Co272 O288 2.117 . S
Co272 O289 2.020 . S
Co272 O291 2.021 . S
Co272 O296 2.062 . S
C273 N275 1.316 . S
C273 N276 1.347 . S
C273 H278 0.931 . S
C274 N275 1.375 . S
C274 C277 1.350 . S
C274 H279 0.930 . S
N275 Co270 2.057 . S
N275 C273 1.316 . S
N275 C274 1.375 . S
N276 C273 1.347 . S
N276 C277 1.373 . S
C277 C274 1.350 . S
C277 N276 1.373 . S
C277 H298 0.931 . S
H278 C273 0.931 . S
H279 C274 0.930 . S
C280 O287 1.259 . S
C280 O288 1.258 . S
N281 Co272 2.057 . S
N281 C282 1.316 . S
N281 C283 1.375 . S
C282 N281 1.316 . S
C282 N284 1.347 . S
C282 H293 0.931 . S
C283 N281 1.375 . S
C283 C285 1.350 . S
C283 H292 0.930 . S
N284 C282 1.347 . S
N284 C285 1.373 . S
C285 C283 1.350 . S
C285 N284 1.373 . S
C285 H299 0.931 . S
C286 O289 1.256 . S
C286 O290 1.255 . S
O287 Co270 2.021 . S
O287 C280 1.259 . S
O288 Co272 2.117 . S
O288 C280 1.258 . S
O289 Co272 2.020 . S
O289 C286 1.256 . S
O290 Co270 2.062 . S
O290 C286 1.255 . S
O291 C271 1.259 . S
O291 Co272 2.021 . S
H292 C283 0.930 . S
H293 C282 0.931 . S
O294 Co270 2.117 . S
O294 C271 1.258 . S
O295 Co270 2.020 . S
O295 C297 1.256 . S
O296 Co272 2.062 . S
O296 C297 1.255 . S
C297 O295 1.256 . S
C297 O296 1.255 . S
H298 C277 0.931 . S
H299 C285 0.931 . S
Co300 N305 2.057 . S
Co300 O317 2.021 . S
Co300 O320 2.062 . S
Co300 O324 2.117 . S
Co300 O325 2.020 . S
C301 O321 1.259 . S
C301 O324 1.258 . S
Co302 N311 2.057 . S
Co302 O318 2.117 . S
Co302 O319 2.020 . S
Co302 O321 2.021 . S
Co302 O326 2.062 . S
C303 N305 1.316 . S
C303 N306 1.347 . S
C303 H308 0.931 . S
C304 N305 1.375 . S
C304 C307 1.350 . S
C304 H309 0.930 . S
N305 Co300 2.057 . S
N305 C303 1.316 . S
N305 C304 1.375 . S
N306 C303 1.347 . S
N306 C307 1.373 . S
C307 C304 1.350 . S
C307 N306 1.373 . S
C307 H328 0.931 . S
H308 C303 0.931 . S
H309 C304 0.930 . S
C310 O317 1.259 . S
C310 O318 1.258 . S
N311 Co302 2.057 . S
N311 C312 1.316 . S
N311 C313 1.375 . S
C312 N311 1.316 . S
C312 N314 1.347 . S
C312 H323 0.931 . S
C313 N311 1.375 . S
C313 C315 1.350 . S
C313 H322 0.930 . S
N314 C312 1.347 . S
N314 C315 1.373 . S
C315 C313 1.350 . S
C315 N314 1.373 . S
C315 H329 0.931 . S
C316 O319 1.256 . S
C316 O320 1.255 . S
O317 Co300 2.021 . S
O317 C310 1.259 . S
O318 Co302 2.117 . S
O318 C310 1.258 . S
O319 Co302 2.020 . S
O319 C316 1.256 . S
O320 Co300 2.062 . S
O320 C316 1.255 . S
O321 C301 1.259 . S
O321 Co302 2.021 . S
H322 C313 0.930 . S
H323 C312 0.931 . S
O324 Co300 2.117 . S
O324 C301 1.258 . S
O325 Co300 2.020 . S
O325 C327 1.256 . S
O326 Co302 2.062 . S
O326 C327 1.255 . S
C327 O325 1.256 . S
C327 O326 1.255 . S
H328 C307 0.931 . S
H329 C315 0.931 . S
Co330 N335 2.057 . S
Co330 O347 2.021 . S
Co330 O350 2.062 . S
Co330 O354 2.117 . S
Co330 O355 2.020 1_556 S
C331 O351 1.259 . S
C331 O354 1.258 . S
Co332 N341 2.057 . S
Co332 O348 2.117 . S
Co332 O349 2.020 . S
Co332 O351 2.021 . S
Co332 O356 2.062 1_556 S
C333 N335 1.316 . S
C333 N336 1.347 . S
C333 H338 0.931 . S
C334 N335 1.375 . S
C334 C337 1.350 . S
C334 H339 0.930 . S
N335 Co330 2.057 . S
N335 C333 1.316 . S
N335 C334 1.375 . S
N336 C333 1.347 . S
N336 C337 1.373 . S
C337 C334 1.350 . S
C337 N336 1.373 . S
C337 H358 0.931 . S
H338 C333 0.931 . S
H339 C334 0.930 . S
C340 O347 1.259 . S
C340 O348 1.258 . S
N341 Co332 2.057 . S
N341 C342 1.314 1_556 S
N341 C343 1.375 . S
C342 N341 1.314 1_554 S
C342 N344 1.347 1_565 S
C342 H353 0.932 . S
C343 N341 1.375 . S
C343 C345 1.350 1_565 S
C343 H352 0.930 . S
N344 C342 1.347 1_545 S
N344 C345 1.373 1_554 S
C345 C343 1.350 1_545 S
C345 N344 1.373 1_556 S
C345 H359 0.931 . S
C346 O349 1.256 . S
C346 O350 1.255 . S
O347 Co330 2.021 . S
O347 C340 1.259 . S
O348 Co332 2.117 . S
O348 C340 1.258 . S
O349 Co332 2.020 . S
O349 C346 1.256 . S
O350 Co330 2.062 . S
O350 C346 1.255 . S
O351 C331 1.259 . S
O351 Co332 2.021 . S
H352 C343 0.930 . S
H353 C342 0.932 . S
O354 Co330 2.117 . S
O354 C331 1.258 . S
O355 Co330 2.020 1_554 S
O355 C357 1.256 . S
O356 Co332 2.062 1_554 S
O356 C357 1.255 . S
C357 O355 1.256 . S
C357 O356 1.255 . S
H358 C337 0.931 . S
H359 C345 0.931 . S
Co360 N365 2.057 . S
Co360 O377 2.021 . S
Co360 O380 2.062 . S
Co360 O384 2.117 . S
Co360 O385 2.020 . S
C361 O381 1.259 . S
C361 O384 1.258 . S
Co362 N371 2.057 . S
Co362 O378 2.117 . S
Co362 O379 2.020 . S
Co362 O381 2.021 . S
Co362 O386 2.062 . S
C363 N365 1.316 . S
C363 N366 1.347 . S
C363 H368 0.931 . S
C364 N365 1.375 . S
C364 C367 1.350 . S
C364 H369 0.930 . S
N365 Co360 2.057 . S
N365 C363 1.316 . S
N365 C364 1.375 . S
N366 C363 1.347 . S
N366 C367 1.373 . S
C367 C364 1.350 . S
C367 N366 1.373 . S
C367 H388 0.931 . S
H368 C363 0.931 . S
H369 C364 0.930 . S
C370 O377 1.259 . S
C370 O378 1.258 . S
N371 Co362 2.057 . S
N371 C372 1.316 . S
N371 C373 1.375 . S
C372 N371 1.316 . S
C372 N374 1.347 . S
C372 H383 0.931 . S
C373 N371 1.375 . S
C373 C375 1.350 . S
C373 H382 0.930 . S
N374 C372 1.347 . S
N374 C375 1.373 . S
C375 C373 1.350 . S
C375 N374 1.373 . S
C375 H389 0.952 . S
C376 O379 1.256 . S
C376 O380 1.255 . S
O377 Co360 2.021 . S
O377 C370 1.259 . S
O378 Co362 2.117 . S
O378 C370 1.258 . S
O379 Co362 2.020 . S
O379 C376 1.256 . S
O380 Co360 2.062 . S
O380 C376 1.255 . S
O381 C361 1.259 . S
O381 Co362 2.021 . S
H382 C373 0.930 . S
H383 C372 0.931 . S
O384 Co360 2.117 . S
O384 C361 1.258 . S
O385 Co360 2.020 . S
O385 C387 1.256 . S
O386 Co362 2.062 . S
O386 C387 1.255 . S
C387 O385 1.256 . S
C387 O386 1.255 . S
H388 C367 0.931 . S
H389 C375 0.952 . S
Co390 N395 2.057 . S
Co390 O407 2.021 . S
Co390 O410 2.062 . S
Co390 O414 2.117 . S
Co390 O415 2.020 . S
C391 O411 1.259 . S
C391 O414 1.258 . S
Co392 N401 2.057 . S
Co392 O408 2.117 . S
Co392 O409 2.020 . S
Co392 O411 2.021 . S
Co392 O416 2.062 . S
C393 N395 1.316 . S
C393 N396 1.347 . S
C393 H398 0.931 . S
C394 N395 1.375 . S
C394 C397 1.350 . S
C394 H399 0.930 . S
N395 Co390 2.057 . S
N395 C393 1.316 . S
N395 C394 1.375 . S
N396 C393 1.347 . S
N396 C397 1.373 . S
C397 C394 1.350 . S
C397 N396 1.373 . S
C397 H418 0.931 . S
H398 C393 0.931 . S
H399 C394 0.930 . S
C400 O407 1.259 . S
C400 O408 1.258 . S
N401 Co392 2.057 . S
N401 C402 1.316 . S
N401 C403 1.375 . S
C402 N401 1.316 . S
C402 N404 1.347 . S
C402 H413 0.931 . S
C403 N401 1.375 . S
C403 C405 1.350 . S
C403 H412 0.930 . S
N404 C402 1.347 . S
N404 C405 1.373 . S
C405 C403 1.350 . S
C405 N404 1.373 . S
C405 H419 0.931 . S
C406 O409 1.256 . S
C406 O410 1.255 . S
O407 Co390 2.021 . S
O407 C400 1.259 . S
O408 Co392 2.117 . S
O408 C400 1.258 . S
O409 Co392 2.020 . S
O409 C406 1.256 . S
O410 Co390 2.062 . S
O410 C406 1.255 . S
O411 C391 1.259 . S
O411 Co392 2.021 . S
H412 C403 0.930 . S
H413 C402 0.931 . S
O414 Co390 2.117 . S
O414 C391 1.258 . S
O415 Co390 2.020 . S
O415 C417 1.256 . S
O416 Co392 2.062 . S
O416 C417 1.255 . S
C417 O415 1.256 . S
C417 O416 1.255 . S
H418 C397 0.931 . S
H419 C405 0.931 . S
Co420 N425 2.057 . S
Co420 O437 2.021 . S
Co420 O440 2.062 . S
Co420 O444 2.117 . S
Co420 O445 2.020 . S
C421 O441 1.259 . S
C421 O444 1.258 . S
Co422 N431 2.057 . S
Co422 O438 2.117 . S
Co422 O439 2.020 . S
Co422 O441 2.021 . S
Co422 O446 2.062 . S
C423 N425 1.316 . S
C423 N426 1.347 . S
C423 H428 0.931 . S
C424 N425 1.375 . S
C424 C427 1.350 . S
C424 H429 0.930 . S
N425 Co420 2.057 . S
N425 C423 1.316 . S
N425 C424 1.375 . S
N426 C423 1.347 . S
N426 C427 1.373 . S
C427 C424 1.350 . S
C427 N426 1.373 . S
C427 H448 0.931 . S
H428 C423 0.931 . S
H429 C424 0.930 . S
C430 O437 1.259 . S
C430 O438 1.258 . S
N431 Co422 2.057 . S
N431 C432 1.316 . S
N431 C433 1.375 . S
C432 N431 1.316 . S
C432 N434 1.347 . S
C432 H443 0.931 . S
C433 N431 1.375 . S
C433 C435 1.350 . S
C433 H442 0.930 . S
N434 C432 1.347 . S
N434 C435 1.373 . S
C435 C433 1.350 . S
C435 N434 1.373 . S
C435 H449 0.931 . S
C436 O439 1.256 . S
C436 O440 1.255 . S
O437 Co420 2.021 . S
O437 C430 1.259 . S
O438 Co422 2.117 . S
O438 C430 1.258 . S
O439 Co422 2.020 . S
O439 C436 1.256 . S
O440 Co420 2.062 . S
O440 C436 1.255 . S
O441 C421 1.259 . S
O441 Co422 2.021 . S
H442 C433 0.930 . S
H443 C432 0.931 . S
O444 Co420 2.117 . S
O444 C421 1.258 . S
O445 Co420 2.020 . S
O445 C447 1.256 . S
O446 Co422 2.062 . S
O446 C447 1.255 . S
C447 O445 1.256 . S
C447 O446 1.255 . S
H448 C427 0.931 . S
H449 C435 0.931 . S
Co450 N455 2.057 1_554 S
Co450 O467 2.021 . S
Co450 O470 2.062 . S
Co450 O474 2.117 . S
Co450 O475 2.020 . S
C451 O471 1.259 . S
C451 O474 1.258 . S
Co452 N461 2.057 . S
Co452 O468 2.117 . S
Co452 O469 2.020 . S
Co452 O471 2.021 . S
Co452 O476 2.062 . S
C453 N455 1.316 . S
C453 N456 1.347 . S
C453 H458 0.931 . S
C454 N455 1.375 . S
C454 C457 1.350 . S
C454 H459 0.930 1_556 S
N455 Co450 2.057 1_556 S
N455 C453 1.316 . S
N455 C454 1.375 . S
N456 C453 1.347 . S
N456 C457 1.373 . S
C457 C454 1.350 . S
C457 N456 1.373 . S
C457 H478 0.931 . S
H458 C453 0.931 . S
H459 C454 0.930 1_554 S
C460 O467 1.259 . S
C460 O468 1.258 . S
N461 Co452 2.057 . S
N461 C462 1.316 . S
N461 C463 1.375 . S
C462 N461 1.316 . S
C462 N464 1.347 . S
C462 H473 0.931 . S
C463 N461 1.375 . S
C463 C465 1.350 . S
C463 H472 0.930 . S
N464 C462 1.347 . S
N464 C465 1.373 . S
C465 C463 1.350 . S
C465 N464 1.373 . S
C465 H479 0.931 . S
C466 O469 1.256 . S
C466 O470 1.255 . S
O467 Co450 2.021 . S
O467 C460 1.259 . S
O468 Co452 2.117 . S
O468 C460 1.258 . S
O469 Co452 2.020 . S
O469 C466 1.256 . S
O470 Co450 2.062 . S
O470 C466 1.255 . S
O471 C451 1.259 . S
O471 Co452 2.021 . S
H472 C463 0.930 . S
H473 C462 0.931 . S
O474 Co450 2.117 . S
O474 C451 1.258 . S
O475 Co450 2.020 . S
O475 C477 1.256 . S
O476 Co452 2.062 . S
O476 C477 1.255 . S
C477 O475 1.256 . S
C477 O476 1.255 . S
H478 C457 0.931 . S
H479 C465 0.931 . S
Co480 N485 2.057 . S
Co480 O497 2.021 . S
Co480 O500 2.062 . S
Co480 O504 2.117 . S
Co480 O505 2.020 . S
C481 O501 1.259 . S
C481 O504 1.258 . S
Co482 N491 2.057 . S
Co482 O498 2.117 . S
Co482 O499 2.020 . S
Co482 O501 2.021 . S
Co482 O506 2.062 . S
C483 N485 1.316 . S
C483 N486 1.347 . S
C483 H488 0.931 . S
C484 N485 1.375 . S
C484 C487 1.350 . S
C484 H489 0.930 . S
N485 Co480 2.057 . S
N485 C483 1.316 . S
N485 C484 1.375 . S
N486 C483 1.347 . S
N486 C487 1.373 . S
C487 C484 1.350 . S
C487 N486 1.373 . S
C487 H508 0.931 . S
H488 C483 0.931 . S
H489 C484 0.930 . S
C490 O497 1.259 . S
C490 O498 1.258 . S
N491 Co482 2.057 . S
N491 C492 1.316 . S
N491 C493 1.375 . S
C492 N491 1.316 . S
C492 N494 1.347 . S
C492 H503 0.931 . S
C493 N491 1.375 . S
C493 C495 1.350 . S
C493 H502 0.930 . S
N494 C492 1.347 . S
N494 C495 1.373 . S
C495 C493 1.350 . S
C495 N494 1.373 . S
C495 H509 0.931 . S
C496 O499 1.256 . S
C496 O500 1.255 . S
O497 Co480 2.021 . S
O497 C490 1.259 . S
O498 Co482 2.117 . S
O498 C490 1.258 . S
O499 Co482 2.020 . S
O499 C496 1.256 . S
O500 Co480 2.062 . S
O500 C496 1.255 . S
O501 C481 1.259 . S
O501 Co482 2.021 . S
H502 C493 0.930 . S
H503 C492 0.931 . S
O504 Co480 2.117 . S
O504 C481 1.258 . S
O505 Co480 2.020 . S
O505 C507 1.256 . S
O506 Co482 2.062 . S
O506 C507 1.255 . S
C507 O505 1.256 . S
C507 O506 1.255 . S
H508 C487 0.931 . S
H509 C495 0.931 . S
Co510 N515 2.057 . S
Co510 O527 2.021 . S
Co510 O530 2.062 . S
Co510 O534 2.117 . S
Co510 O535 2.020 . S
C511 O531 1.259 1_554 S
C511 O534 1.258 . S
Co512 N521 2.057 1_554 S
Co512 O528 2.117 . S
Co512 O529 2.020 . S
Co512 O531 2.021 1_554 S
Co512 O536 2.062 1_554 S
C513 N515 1.316 . S
C513 N516 1.347 . S
C513 H518 0.931 . S
C514 N515 1.375 . S
C514 C517 1.350 . S
C514 H519 0.930 . S
N515 Co510 2.057 . S
N515 C513 1.316 . S
N515 C514 1.375 . S
N516 C513 1.347 . S
N516 C517 1.373 . S
C517 C514 1.350 . S
C517 N516 1.373 . S
C517 H538 0.931 . S
H518 C513 0.931 . S
H519 C514 0.930 . S
C520 O527 1.259 . S
C520 O528 1.258 . S
N521 Co512 2.057 1_556 S
N521 C522 1.316 . S
N521 C523 1.375 . S
C522 N521 1.316 . S
C522 N524 1.347 . S
C522 H533 0.931 . S
C523 N521 1.375 . S
C523 C525 1.350 . S
C523 H532 0.930 . S
N524 C522 1.347 . S
N524 C525 1.373 . S
C525 C523 1.350 . S
C525 N524 1.373 . S
C525 H539 0.931 . S
C526 O529 1.256 . S
C526 O530 1.255 . S
O527 Co510 2.021 . S
O527 C520 1.259 . S
O528 Co512 2.117 . S
O528 C520 1.258 . S
O529 Co512 2.020 . S
O529 C526 1.256 . S
O530 Co510 2.062 . S
O530 C526 1.255 . S
O531 C511 1.259 1_556 S
O531 Co512 2.021 1_556 S
H532 C523 0.930 . S
H533 C522 0.931 . S
O534 Co510 2.117 . S
O534 C511 1.258 . S
O535 Co510 2.020 . S
O535 C537 1.256 . S
O536 Co512 2.062 1_556 S
O536 C537 1.255 1_556 S
C537 O535 1.256 . S
C537 O536 1.255 1_554 S
H538 C517 0.931 . S
H539 C525 0.931 . S
Co540 N545 2.057 . S
Co540 O557 2.021 . S
Co540 O560 2.062 . S
Co540 O564 2.117 . S
Co540 O565 2.020 . S
C541 O561 1.259 . S
C541 O564 1.258 . S
Co542 N551 2.057 . S
Co542 O558 2.117 . S
Co542 O559 2.020 . S
Co542 O561 2.021 . S
Co542 O566 2.062 . S
C543 N545 1.316 . S
C543 N546 1.347 . S
C543 H548 0.931 . S
C544 N545 1.375 . S
C544 C547 1.350 . S
C544 H549 0.930 . S
N545 Co540 2.057 . S
N545 C543 1.316 . S
N545 C544 1.375 . S
N546 C543 1.347 . S
N546 C547 1.373 . S
C547 C544 1.350 . S
C547 N546 1.373 . S
C547 H568 0.931 . S
H548 C543 0.931 . S
H549 C544 0.930 . S
C550 O557 1.259 . S
C550 O558 1.258 . S
N551 Co542 2.057 . S
N551 C552 1.316 . S
N551 C553 1.375 . S
C552 N551 1.316 . S
C552 N554 1.347 1_655 S
C552 H563 0.931 . S
C553 N551 1.375 . S
C553 C555 1.350 1_655 S
C553 H562 0.930 . S
N554 C552 1.347 1_455 S
N554 C555 1.373 . S
C555 C553 1.350 1_455 S
C555 N554 1.373 . S
C555 H569 0.931 . S
C556 O559 1.256 . S
C556 O560 1.255 . S
O557 Co540 2.021 . S
O557 C550 1.259 . S
O558 Co542 2.117 . S
O558 C550 1.258 . S
O559 Co542 2.020 . S
O559 C556 1.256 . S
O560 Co540 2.062 . S
O560 C556 1.255 . S
O561 C541 1.259 . S
O561 Co542 2.021 . S
H562 C553 0.930 . S
H563 C552 0.931 . S
O564 Co540 2.117 . S
O564 C541 1.258 . S
O565 Co540 2.020 . S
O565 C567 1.256 . S
O566 Co542 2.062 . S
O566 C567 1.255 . S
C567 O565 1.256 . S
C567 O566 1.255 . S
H568 C547 0.931 . S
H569 C555 0.931 . S
Co570 N575 2.057 . S
Co570 O587 2.021 . S
Co570 O590 2.062 . S
Co570 O594 2.117 . S
Co570 O595 2.020 . S
C571 O591 1.259 . S
C571 O594 1.258 . S
Co572 N581 2.057 . S
Co572 O588 2.117 . S
Co572 O589 2.020 . S
Co572 O591 2.021 . S
Co572 O596 2.062 . S
C573 N575 1.316 . S
C573 N576 1.347 . S
C573 H578 0.931 . S
C574 N575 1.375 . S
C574 C577 1.350 . S
C574 H579 0.930 . S
N575 Co570 2.057 . S
N575 C573 1.316 . S
N575 C574 1.375 . S
N576 C573 1.347 . S
N576 C577 1.373 . S
C577 C574 1.350 . S
C577 N576 1.373 . S
C577 H598 0.931 . S
H578 C573 0.931 . S
H579 C574 0.930 . S
C580 O587 1.259 . S
C580 O588 1.258 . S
N581 Co572 2.057 . S
N581 C582 1.316 . S
N581 C583 1.375 . S
C582 N581 1.316 . S
C582 N584 1.347 . S
C582 H593 0.931 . S
C583 N581 1.375 . S
C583 C585 1.350 . S
C583 H592 0.930 . S
N584 C582 1.347 . S
N584 C585 1.373 . S
C585 C583 1.350 . S
C585 N584 1.373 . S
C585 H599 0.931 . S
C586 O589 1.256 . S
C586 O590 1.255 . S
O587 Co570 2.021 . S
O587 C580 1.259 . S
O588 Co572 2.117 . S
O588 C580 1.258 . S
O589 Co572 2.020 . S
O589 C586 1.256 . S
O590 Co570 2.062 . S
O590 C586 1.255 . S
O591 C571 1.259 . S
O591 Co572 2.021 . S
H592 C583 0.930 . S
H593 C582 0.931 . S
O594 Co570 2.117 . S
O594 C571 1.258 . S
O595 Co570 2.020 . S
O595 C597 1.256 . S
O596 Co572 2.062 . S
O596 C597 1.255 . S
C597 O595 1.256 . S
C597 O596 1.255 . S
H598 C577 0.931 . S
H599 C585 0.931 . S
Co600 N605 2.057 . S
Co600 O617 2.021 . S
Co600 O620 2.062 . S
Co600 O624 2.117 . S
Co600 O625 2.020 . S
C601 O621 1.259 . S
C601 O624 1.258 . S
Co602 N611 2.057 . S
Co602 O618 2.117 . S
Co602 O619 2.020 . S
Co602 O621 2.021 . S
Co602 O626 2.062 . S
C603 N605 1.316 . S
C603 N606 1.347 . S
C603 H608 0.931 . S
C604 N605 1.375 . S
C604 C607 1.350 . S
C604 H609 0.930 . S
N605 Co600 2.057 . S
N605 C603 1.316 . S
N605 C604 1.375 . S
N606 C603 1.347 . S
N606 C607 1.373 . S
C607 C604 1.350 . S
C607 N606 1.373 . S
C607 H628 0.931 . S
H608 C603 0.931 . S
H609 C604 0.930 . S
C610 O617 1.259 . S
C610 O618 1.258 . S
N611 Co602 2.057 . S
N611 C612 1.316 . S
N611 C613 1.375 . S
C612 N611 1.316 . S
C612 N614 1.347 . S
C612 H623 0.931 . S
C613 N611 1.375 . S
C613 C615 1.350 . S
C613 H622 0.930 . S
N614 C612 1.347 . S
N614 C615 1.373 . S
C615 C613 1.350 . S
C615 N614 1.373 . S
C615 H629 0.931 . S
C616 O619 1.256 . S
C616 O620 1.255 . S
O617 Co600 2.021 . S
O617 C610 1.259 . S
O618 Co602 2.117 . S
O618 C610 1.258 . S
O619 Co602 2.020 . S
O619 C616 1.256 . S
O620 Co600 2.062 . S
O620 C616 1.255 . S
O621 C601 1.259 . S
O621 Co602 2.021 . S
H622 C613 0.930 . S
H623 C612 0.931 . S
O624 Co600 2.117 . S
O624 C601 1.258 . S
O625 Co600 2.020 . S
O625 C627 1.256 . S
O626 Co602 2.062 . S
O626 C627 1.255 . S
C627 O625 1.256 . S
C627 O626 1.255 . S
H628 C607 0.931 . S
H629 C615 0.931 . S
Co630 N635 2.057 . S
Co630 O647 2.021 . S
Co630 O650 2.062 . S
Co630 O654 2.117 . S
Co630 O655 2.020 . S
C631 O651 1.259 . S
C631 O654 1.258 . S
Co632 N641 2.057 1_556 S
Co632 O648 2.117 . S
Co632 O649 2.020 . S
Co632 O651 2.021 . S
Co632 O656 2.062 . S
C633 N635 1.316 . S
C633 N636 1.347 . S
C633 H638 0.931 . S
C634 N635 1.375 . S
C634 C637 1.350 . S
C634 H639 0.930 . S
N635 Co630 2.057 . S
N635 C633 1.316 . S
N635 C634 1.375 . S
N636 C633 1.347 . S
N636 C637 1.373 . S
C637 C634 1.350 . S
C637 N636 1.373 . S
C637 H658 0.931 . S
H638 C633 0.931 . S
H639 C634 0.930 . S
C640 O647 1.259 . S
C640 O648 1.258 . S
N641 Co632 2.057 1_554 S
N641 C642 1.316 . S
N641 C643 1.375 . S
C642 N641 1.316 . S
C642 N644 1.347 . S
C642 H653 0.931 . S
C643 N641 1.375 . S
C643 C645 1.350 . S
C643 H652 0.930 1_554 S
N644 C642 1.347 . S
N644 C645 1.373 . S
C645 C643 1.350 . S
C645 N644 1.373 . S
C645 H659 0.931 . S
C646 O649 1.256 . S
C646 O650 1.255 . S
O647 Co630 2.021 . S
O647 C640 1.259 . S
O648 Co632 2.117 . S
O648 C640 1.258 . S
O649 Co632 2.020 . S
O649 C646 1.256 . S
O650 Co630 2.062 . S
O650 C646 1.255 . S
O651 C631 1.259 . S
O651 Co632 2.021 . S
H652 C643 0.930 1_556 S
H653 C642 0.931 . S
O654 Co630 2.117 . S
O654 C631 1.258 . S
O655 Co630 2.020 . S
O655 C657 1.256 . S
O656 Co632 2.062 . S
O656 C657 1.255 . S
C657 O655 1.256 . S
C657 O656 1.255 . S
H658 C637 0.931 . S
H659 C645 0.931 . S
Co660 N665 2.057 . S
Co660 O677 2.021 . S
Co660 O680 2.062 . S
Co660 O684 2.117 . S
Co660 O685 2.020 . S
C661 O681 1.259 . S
C661 O684 1.258 . S
Co662 N671 2.057 . S
Co662 O678 2.117 . S
Co662 O679 2.020 . S
Co662 O681 2.021 . S
Co662 O686 2.062 . S
C663 N665 1.316 . S
C663 N666 1.347 . S
C663 H668 0.931 . S
C664 N665 1.375 . S
C664 C667 1.350 . S
C664 H669 0.930 . S
N665 Co660 2.057 . S
N665 C663 1.316 . S
N665 C664 1.375 . S
N666 C663 1.347 . S
N666 C667 1.373 . S
C667 C664 1.350 . S
C667 N666 1.373 . S
C667 H688 0.931 . S
H668 C663 0.931 . S
H669 C664 0.930 . S
C670 O677 1.259 . S
C670 O678 1.258 . S
N671 Co662 2.057 . S
N671 C672 1.316 . S
N671 C673 1.375 . S
C672 N671 1.316 . S
C672 N674 1.347 . S
C672 H683 0.931 . S
C673 N671 1.375 . S
C673 C675 1.350 . S
C673 H682 0.930 . S
N674 C672 1.347 . S
N674 C675 1.373 . S
C675 C673 1.350 . S
C675 N674 1.373 . S
C675 H689 0.931 . S
C676 O679 1.256 . S
C676 O680 1.255 . S
O677 Co660 2.021 . S
O677 C670 1.259 . S
O678 Co662 2.117 . S
O678 C670 1.258 . S
O679 Co662 2.020 . S
O679 C676 1.256 . S
O680 Co660 2.062 . S
O680 C676 1.255 . S
O681 C661 1.259 . S
O681 Co662 2.021 . S
H682 C673 0.930 . S
H683 C672 0.931 . S
O684 Co660 2.117 . S
O684 C661 1.258 . S
O685 Co660 2.020 . S
O685 C687 1.256 . S
O686 Co662 2.062 . S
O686 C687 1.255 . S
C687 O685 1.256 . S
C687 O686 1.255 . S
H688 C667 0.931 . S
H689 C675 0.931 . S
Co690 N695 2.057 . S
Co690 O707 2.021 . S
Co690 O710 2.062 . S
Co690 O714 2.117 . S
Co690 O715 2.020 . S
C691 O711 1.259 . S
C691 O714 1.258 . S
Co692 N701 2.057 . S
Co692 O708 2.117 . S
Co692 O709 2.020 . S
Co692 O711 2.021 . S
Co692 O716 2.062 . S
C693 N695 1.316 . S
C693 N696 1.347 . S
C693 H698 0.931 . S
C694 N695 1.375 . S
C694 C697 1.350 . S
C694 H699 0.930 . S
N695 Co690 2.057 . S
N695 C693 1.316 . S
N695 C694 1.375 . S
N696 C693 1.347 . S
N696 C697 1.373 . S
C697 C694 1.350 . S
C697 N696 1.373 . S
C697 H718 0.931 . S
H698 C693 0.931 . S
H699 C694 0.930 . S
C700 O707 1.259 . S
C700 O708 1.258 . S
N701 Co692 2.057 . S
N701 C702 1.316 . S
N701 C703 1.375 . S
C702 N701 1.316 . S
C702 N704 1.347 . S
C702 H713 0.931 . S
C703 N701 1.375 . S
C703 C705 1.350 . S
C703 H712 0.930 . S
N704 C702 1.347 . S
N704 C705 1.373 . S
C705 C703 1.350 . S
C705 N704 1.373 . S
C705 H719 0.931 . S
C706 O709 1.256 . S
C706 O710 1.255 . S
O707 Co690 2.021 . S
O707 C700 1.259 . S
O708 Co692 2.117 . S
O708 C700 1.258 . S
O709 Co692 2.020 . S
O709 C706 1.256 . S
O710 Co690 2.062 . S
O710 C706 1.255 . S
O711 C691 1.259 . S
O711 Co692 2.021 . S
H712 C703 0.930 . S
H713 C702 0.931 . S
O714 Co690 2.117 . S
O714 C691 1.258 . S
O715 Co690 2.020 . S
O715 C717 1.256 . S
O716 Co692 2.062 . S
O716 C717 1.255 . S
C717 O715 1.256 . S
C717 O716 1.255 . S
H718 C697 0.931 . S
H719 C705 0.931 . S
Co720 N725 2.057 . S
Co720 O737 2.021 . S
Co720 O740 2.062 . S
Co720 O744 2.117 . S
Co720 O745 2.020 . S
C721 O741 1.259 . S
C721 O744 1.258 . S
Co722 N731 2.057 . S
Co722 O738 2.117 . S
Co722 O739 2.020 . S
Co722 O741 2.021 . S
Co722 O746 2.062 . S
C723 N725 1.316 . S
C723 N726 1.347 . S
C723 H728 0.931 . S
C724 N725 1.375 . S
C724 C727 1.350 . S
C724 H729 0.930 . S
N725 Co720 2.057 . S
N725 C723 1.316 . S
N725 C724 1.375 . S
N726 C723 1.347 . S
N726 C727 1.373 . S
C727 C724 1.350 . S
C727 N726 1.373 . S
C727 H748 0.931 . S
H728 C723 0.931 . S
H729 C724 0.930 . S
C730 O737 1.259 . S
C730 O738 1.258 . S
N731 Co722 2.057 . S
N731 C732 1.316 . S
N731 C733 1.375 . S
C732 N731 1.316 . S
C732 N734 1.347 . S
C732 H743 0.931 . S
C733 N731 1.375 . S
C733 C735 1.350 . S
C733 H742 0.930 . S
N734 C732 1.347 . S
N734 C735 1.373 . S
C735 C733 1.350 . S
C735 N734 1.373 . S
C735 H749 0.931 . S
C736 O739 1.256 . S
C736 O740 1.255 . S
O737 Co720 2.021 . S
O737 C730 1.259 . S
O738 Co722 2.117 . S
O738 C730 1.258 . S
O739 Co722 2.020 . S
O739 C736 1.256 . S
O740 Co720 2.062 . S
O740 C736 1.255 . S
O741 C721 1.259 . S
O741 Co722 2.021 . S
H742 C733 0.930 . S
H743 C732 0.931 . S
O744 Co720 2.117 . S
O744 C721 1.258 . S
O745 Co720 2.020 . S
O745 C747 1.256 . S
O746 Co722 2.062 . S
O746 C747 1.255 . S
C747 O745 1.256 . S
C747 O746 1.255 . S
H748 C727 0.931 . S
H749 C735 0.931 . S
Co750 N755 2.057 1_556 S
Co750 O767 2.021 1_556 S
Co750 O770 2.062 1_556 S
Co750 O774 2.117 . S
Co750 O775 2.020 . S
C751 O771 1.259 . S
C751 O774 1.258 . S
Co752 N761 2.057 . S
Co752 O768 2.117 . S
Co752 O769 2.020 . S
Co752 O771 2.021 . S
Co752 O776 2.062 . S
C753 N755 1.316 . S
C753 N756 1.347 . S
C753 H758 0.931 . S
C754 N755 1.375 . S
C754 C757 1.350 . S
C754 H759 0.930 . S
N755 Co750 2.057 1_554 S
N755 C753 1.316 . S
N755 C754 1.375 . S
N756 C753 1.347 . S
N756 C757 1.373 . S
C757 C754 1.350 . S
C757 N756 1.373 . S
C757 H778 0.931 . S
H758 C753 0.931 . S
H759 C754 0.930 . S
C760 O767 1.259 1_556 S
C760 O768 1.258 . S
N761 Co752 2.057 . S
N761 C762 1.316 . S
N761 C763 1.375 . S
C762 N761 1.316 . S
C762 N764 1.347 . S
C762 H773 0.931 . S
C763 N761 1.375 . S
C763 C765 1.350 . S
C763 H772 0.930 . S
N764 C762 1.347 . S
N764 C765 1.373 . S
C765 C763 1.350 . S
C765 N764 1.373 . S
C765 H779 0.931 . S
C766 O769 1.256 . S
C766 O770 1.255 1_556 S
O767 Co750 2.021 1_554 S
O767 C760 1.259 1_554 S
O768 Co752 2.117 . S
O768 C760 1.258 . S
O769 Co752 2.020 . S
O769 C766 1.256 . S
O770 Co750 2.062 1_554 S
O770 C766 1.255 1_554 S
O771 C751 1.259 . S
O771 Co752 2.021 . S
H772 C763 0.930 . S
H773 C762 0.931 . S
O774 Co750 2.117 . S
O774 C751 1.258 . S
O775 Co750 2.020 . S
O775 C777 1.256 . S
O776 Co752 2.062 . S
O776 C777 1.255 . S
C777 O775 1.256 . S
C777 O776 1.255 . S
H778 C757 0.931 . S
H779 C765 0.931 . S
Co780 N785 2.057 . S
Co780 O797 2.021 . S
Co780 O800 2.062 . S
Co780 O804 2.117 . S
Co780 O805 2.020 . S
C781 O801 1.259 . S
C781 O804 1.258 . S
Co782 N791 2.057 . S
Co782 O798 2.117 . S
Co782 O799 2.020 . S
Co782 O801 2.021 . S
Co782 O806 2.062 . S
C783 N785 1.316 . S
C783 N786 1.347 1_455 S
C783 H788 0.931 . S
C784 N785 1.375 . S
C784 C787 1.350 1_455 S
C784 H789 0.930 . S
N785 Co780 2.057 . S
N785 C783 1.316 . S
N785 C784 1.375 . S
N786 C783 1.347 1_655 S
N786 C787 1.373 . S
C787 C784 1.350 1_655 S
C787 N786 1.373 . S
C787 H808 0.931 . S
H788 C783 0.931 . S
H789 C784 0.930 . S
C790 O797 1.259 . S
C790 O798 1.258 . S
N791 Co782 2.057 . S
N791 C792 1.316 . S
N791 C793 1.375 . S
C792 N791 1.316 . S
C792 N794 1.347 . S
C792 H803 0.931 . S
C793 N791 1.375 . S
C793 C795 1.350 . S
C793 H802 0.930 . S
N794 C792 1.347 . S
N794 C795 1.373 . S
C795 C793 1.350 . S
C795 N794 1.373 . S
C795 H809 0.931 . S
C796 O799 1.256 . S
C796 O800 1.255 . S
O797 Co780 2.021 . S
O797 C790 1.259 . S
O798 Co782 2.117 . S
O798 C790 1.258 . S
O799 Co782 2.020 . S
O799 C796 1.256 . S
O800 Co780 2.062 . S
O800 C796 1.255 . S
O801 C781 1.259 . S
O801 Co782 2.021 . S
H802 C793 0.930 . S
H803 C792 0.931 . S
O804 Co780 2.117 . S
O804 C781 1.258 . S
O805 Co780 2.020 . S
O805 C807 1.256 . S
O806 Co782 2.062 . S
O806 C807 1.255 . S
C807 O805 1.256 . S
C807 O806 1.255 . S
H808 C787 0.931 . S
H809 C795 0.931 . S
Co810 N815 2.057 . S
Co810 O827 2.021 . S
Co810 O830 2.062 . S
Co810 O834 2.117 . S
Co810 O835 2.020 . S
C811 O831 1.259 . S
C811 O834 1.258 . S
Co812 N821 2.057 . S
Co812 O828 2.117 . S
Co812 O829 2.020 . S
Co812 O831 2.021 . S
Co812 O836 2.062 . S
C813 N815 1.316 . S
C813 N816 1.347 . S
C813 H818 0.931 . S
C814 N815 1.375 . S
C814 C817 1.350 . S
C814 H819 0.930 . S
N815 Co810 2.057 . S
N815 C813 1.316 . S
N815 C814 1.375 . S
N816 C813 1.347 . S
N816 C817 1.373 . S
C817 C814 1.350 . S
C817 N816 1.373 . S
C817 H838 0.931 . S
H818 C813 0.931 . S
H819 C814 0.930 . S
C820 O827 1.259 . S
C820 O828 1.258 . S
N821 Co812 2.057 . S
N821 C822 1.316 . S
N821 C823 1.375 . S
C822 N821 1.316 . S
C822 N824 1.347 . S
C822 H833 0.931 . S
C823 N821 1.375 . S
C823 C825 1.350 . S
C823 H832 0.930 . S
N824 C822 1.347 . S
N824 C825 1.373 . S
C825 C823 1.350 . S
C825 N824 1.373 . S
C825 H839 0.931 . S
C826 O829 1.256 . S
C826 O830 1.255 . S
O827 Co810 2.021 . S
O827 C820 1.259 . S
O828 Co812 2.117 . S
O828 C820 1.258 . S
O829 Co812 2.020 . S
O829 C826 1.256 . S
O830 Co810 2.062 . S
O830 C826 1.255 . S
O831 C811 1.259 . S
O831 Co812 2.021 . S
H832 C823 0.930 . S
H833 C822 0.931 . S
O834 Co810 2.117 . S
O834 C811 1.258 . S
O835 Co810 2.020 . S
O835 C837 1.256 . S
O836 Co812 2.062 . S
O836 C837 1.255 . S
C837 O835 1.256 . S
C837 O836 1.255 . S
H838 C817 0.931 . S
H839 C825 0.931 . S
Co840 N845 2.057 . S
Co840 O857 2.021 . S
Co840 O860 2.062 . S
Co840 O864 2.117 . S
Co840 O865 2.020 . S
C841 O861 1.259 . S
C841 O864 1.258 . S
Co842 N851 2.057 . S
Co842 O858 2.117 . S
Co842 O859 2.020 . S
Co842 O861 2.021 . S
Co842 O866 2.062 . S
C843 N845 1.316 . S
C843 N846 1.347 . S
C843 H848 0.931 . S
C844 N845 1.375 . S
C844 C847 1.350 . S
C844 H849 0.930 . S
N845 Co840 2.057 . S
N845 C843 1.316 . S
N845 C844 1.375 . S
N846 C843 1.347 . S
N846 C847 1.373 . S
C847 C844 1.350 . S
C847 N846 1.373 . S
C847 H868 0.931 . S
H848 C843 0.931 . S
H849 C844 0.930 . S
C850 O857 1.259 . S
C850 O858 1.258 . S
N851 Co842 2.057 . S
N851 C852 1.316 . S
N851 C853 1.375 . S
C852 N851 1.316 . S
C852 N854 1.347 . S
C852 H863 0.931 . S
C853 N851 1.375 . S
C853 C855 1.350 . S
C853 H862 0.930 . S
N854 C852 1.347 . S
N854 C855 1.373 . S
C855 C853 1.350 . S
C855 N854 1.373 . S
C855 H869 0.931 . S
C856 O859 1.256 . S
C856 O860 1.255 . S
O857 Co840 2.021 . S
O857 C850 1.259 . S
O858 Co842 2.117 . S
O858 C850 1.258 . S
O859 Co842 2.020 . S
O859 C856 1.256 . S
O860 Co840 2.062 . S
O860 C856 1.255 . S
O861 C841 1.259 . S
O861 Co842 2.021 . S
H862 C853 0.930 . S
H863 C852 0.931 . S
O864 Co840 2.117 . S
O864 C841 1.258 . S
O865 Co840 2.020 . S
O865 C867 1.256 . S
O866 Co842 2.062 . S
O866 C867 1.255 . S
C867 O865 1.256 . S
C867 O866 1.255 . S
H868 C847 0.931 . S
H869 C855 0.931 . S
Co870 N875 2.057 1_554 S
Co870 O887 2.021 . S
Co870 O890 2.062 . S
Co870 O894 2.117 . S
Co870 O895 2.020 . S
C871 O891 1.259 . S
C871 O894 1.258 . S
Co872 N881 2.057 . S
Co872 O888 2.117 . S
Co872 O889 2.020 . S
Co872 O891 2.021 . S
Co872 O896 2.062 . S
C873 N875 1.316 . S
C873 N876 1.347 . S
C873 H878 0.931 . S
C874 N875 1.375 . S
C874 C877 1.350 . S
C874 H879 0.930 1_556 S
N875 Co870 2.057 1_556 S
N875 C873 1.316 . S
N875 C874 1.375 . S
N876 C873 1.347 . S
N876 C877 1.373 . S
C877 C874 1.350 . S
C877 N876 1.373 . S
C877 H898 0.931 . S
H878 C873 0.931 . S
H879 C874 0.930 1_554 S
C880 O887 1.259 . S
C880 O888 1.258 . S
N881 Co872 2.057 . S
N881 C882 1.316 . S
N881 C883 1.375 . S
C882 N881 1.316 . S
C882 N884 1.347 . S
C882 H893 0.931 . S
C883 N881 1.375 . S
C883 C885 1.350 . S
C883 H892 0.930 . S
N884 C882 1.347 . S
N884 C885 1.373 . S
C885 C883 1.350 . S
C885 N884 1.373 . S
C885 H899 0.931 . S
C886 O889 1.256 . S
C886 O890 1.255 . S
O887 Co870 2.021 . S
O887 C880 1.259 . S
O888 Co872 2.117 . S
O888 C880 1.258 . S
O889 Co872 2.020 . S
O889 C886 1.256 . S
O890 Co870 2.062 . S
O890 C886 1.255 . S
O891 C871 1.259 . S
O891 Co872 2.021 . S
H892 C883 0.930 . S
H893 C882 0.931 . S
O894 Co870 2.117 . S
O894 C871 1.258 . S
O895 Co870 2.020 . S
O895 C897 1.256 . S
O896 Co872 2.062 . S
O896 C897 1.255 . S
C897 O895 1.256 . S
C897 O896 1.255 . S
H898 C877 0.931 . S
H899 C885 0.931 . S
Co900 N905 2.057 . S
Co900 O917 2.021 . S
Co900 O920 2.062 . S
Co900 O924 2.117 . S
Co900 O925 2.020 . S
C901 O921 1.259 . S
C901 O924 1.258 . S
Co902 N911 2.057 . S
Co902 O918 2.117 . S
Co902 O919 2.020 . S
Co902 O921 2.021 . S
Co902 O926 2.062 . S
C903 N905 1.316 . S
C903 N906 1.347 . S
C903 H908 0.931 . S
C904 N905 1.375 . S
C904 C907 1.350 . S
C904 H909 0.930 . S
N905 Co900 2.057 . S
N905 C903 1.316 . S
N905 C904 1.375 . S
N906 C903 1.347 . S
N906 C907 1.373 . S
C907 C904 1.350 . S
C907 N906 1.373 . S
C907 H928 0.931 . S
H908 C903 0.931 . S
H909 C904 0.930 . S
C910 O917 1.259 . S
C910 O918 1.258 . S
N911 Co902 2.057 . S
N911 C912 1.316 . S
N911 C913 1.375 . S
C912 N911 1.316 . S
C912 N914 1.347 . S
C912 H923 0.931 . S
C913 N911 1.375 . S
C913 C915 1.350 . S
C913 H922 0.930 . S
N914 C912 1.347 . S
N914 C915 1.373 . S
C915 C913 1.350 . S
C915 N914 1.373 . S
C915 H929 0.931 . S
C916 O919 1.256 . S
C916 O920 1.255 . S
O917 Co900 2.021 . S
O917 C910 1.259 . S
O918 Co902 2.117 . S
O918 C910 1.258 . S
O919 Co902 2.020 . S
O919 C916 1.256 . S
O920 Co900 2.062 . S
O920 C916 1.255 . S
O921 C901 1.259 . S
O921 Co902 2.021 . S
H922 C913 0.930 . S
H923 C912 0.931 . S
O924 Co900 2.117 . S
O924 C901 1.258 . S
O925 Co900 2.020 . S
O925 C927 1.256 . S
O926 Co902 2.062 . S
O926 C927 1.255 . S
C927 O925 1.256 . S
C927 O926 1.255 . S
H928 C907 0.931 . S
H929 C915 0.931 . S
Co930 N935 2.057 . S
Co930 O947 2.021 . S
Co930 O950 2.062 . S
Co930 O954 2.117 . S
Co930 O955 2.020 . S
C931 O951 1.259 . S
C931 O954 1.258 . S
Co932 N941 2.057 . S
Co932 O948 2.117 . S
Co932 O949 2.020 . S
Co932 O951 2.021 . S
Co932 O956 2.062 . S
C933 N935 1.316 . S
C933 N936 1.347 . S
C933 H938 0.931 . S
C934 N935 1.375 . S
C934 C937 1.350 . S
C934 H939 0.930 . S
N935 Co930 2.057 . S
N935 C933 1.316 . S
N935 C934 1.375 . S
N936 C933 1.347 . S
N936 C937 1.373 . S
C937 C934 1.350 . S
C937 N936 1.373 . S
C937 H958 0.931 . S
H938 C933 0.931 . S
H939 C934 0.930 . S
C940 O947 1.259 . S
C940 O948 1.258 . S
N941 Co932 2.057 . S
N941 C942 1.316 . S
N941 C943 1.375 . S
C942 N941 1.316 . S
C942 N944 1.347 . S
C942 H953 0.931 . S
C943 N941 1.375 . S
C943 C945 1.350 . S
C943 H952 0.930 . S
N944 C942 1.347 . S
N944 C945 1.373 . S
C945 C943 1.350 . S
C945 N944 1.373 . S
C945 H959 0.931 . S
C946 O949 1.256 . S
C946 O950 1.255 . S
O947 Co930 2.021 . S
O947 C940 1.259 . S
O948 Co932 2.117 . S
O948 C940 1.258 . S
O949 Co932 2.020 . S
O949 C946 1.256 . S
O950 Co930 2.062 . S
O950 C946 1.255 . S
O951 C931 1.259 . S
O951 Co932 2.021 . S
H952 C943 0.930 . S
H953 C942 0.931 . S
O954 Co930 2.117 . S
O954 C931 1.258 . S
O955 Co930 2.020 . S
O955 C957 1.256 . S
O956 Co932 2.062 . S
O956 C957 1.255 . S
C957 O955 1.256 . S
C957 O956 1.255 . S
H958 C937 0.931 . S
H959 C945 0.931 . S
C960 C961 1.387 . S
C960 H964 0.950 . S
C960 C969 1.390 . S
C961 C960 1.387 . S
C961 C963 1.387 . S
H962 C969 0.950 . S
C963 C961 1.387 . S
C963 C965 1.390 . S
C963 H967 0.950 . S
H964 C960 0.950 . S
C965 C963 1.390 . S
C965 C966 1.387 . S
C965 H968 0.950 . S
C966 C965 1.387 . S
C966 C969 1.387 . S
H967 C963 0.950 . S
H968 C965 0.950 . S
C969 C960 1.390 . S
C969 H962 0.950 . S
C969 C966 1.387 . S
C970 C971 1.387 1_565 S
C970 H974 0.950 1_565 S
C970 C979 1.390 . S
C971 C970 1.387 1_545 S
C971 C973 1.389 . S
H972 C979 0.950 . S
C973 C971 1.389 . S
C973 C975 1.387 1_545 S
C973 H977 0.952 . S
H974 C970 0.950 1_545 S
C975 C973 1.387 1_565 S
C975 C976 1.387 . S
C975 H978 0.950 . S
C976 C975 1.387 . S
C976 C979 1.387 . S
H977 C973 0.952 . S
H978 C975 0.950 . S
C979 C970 1.390 . S
C979 H972 0.950 . S
C979 C976 1.387 . S
C980 C981 1.387 . S
C980 H984 0.950 . S
C980 C989 1.390 . S
C981 C980 1.387 . S
C981 C983 1.387 . S
H982 C989 0.950 . S
C983 C981 1.387 . S
C983 C985 1.390 . S
C983 H987 0.950 . S
H984 C980 0.950 . S
C985 C983 1.390 . S
C985 C986 1.387 . S
C985 H988 0.950 . S
C986 C985 1.387 . S
C986 C989 1.387 . S
H987 C983 0.950 . S
H988 C985 0.950 . S
C989 C980 1.390 . S
C989 H982 0.950 . S
C989 C986 1.387 . S
C990 C991 1.387 . S
C990 H994 0.950 . S
C990 C999 1.390 . S
C991 C990 1.387 . S
C991 C993 1.387 . S
H992 C999 0.950 . S
C993 C991 1.387 . S
C993 C995 1.390 . S
C993 H997 0.950 . S
H994 C990 0.950 . S
C995 C993 1.390 . S
C995 C996 1.387 . S
C995 H998 0.950 . S
C996 C995 1.387 . S
C996 C999 1.387 . S
H997 C993 0.950 . S
H998 C995 0.950 . S
C999 C990 1.390 . S
C999 H992 0.950 . S
C999 C996 1.387 . S
C1000 C1001 1.387 . S
C1000 H1004 0.950 . S
C1000 C1009 1.390 . S
C1001 C1000 1.387 . S
C1001 C1003 1.387 . S
H1002 C1009 0.950 . S
C1003 C1001 1.387 . S
C1003 C1005 1.390 . S
C1003 H1007 0.950 . S
H1004 C1000 0.950 . S
C1005 C1003 1.390 . S
C1005 C1006 1.387 . S
C1005 H1008 0.950 . S
C1006 C1005 1.387 . S
C1006 C1009 1.387 . S
H1007 C1003 0.950 . S
H1008 C1005 0.950 . S
C1009 C1000 1.390 . S
C1009 H1002 0.950 . S
C1009 C1006 1.387 . S
C1010 C1011 1.387 . S
C1010 H1014 0.950 . S
C1010 C1019 1.390 1_565 S
C1011 C1010 1.387 . S
C1011 C1013 1.387 . S
H1012 C1019 0.950 . S
C1013 C1011 1.387 . S
C1013 C1015 1.390 1_565 S
C1013 H1017 0.950 . S
H1014 C1010 0.950 . S
C1015 C1013 1.390 1_545 S
C1015 C1016 1.387 . S
C1015 H1018 0.950 . S
C1016 C1015 1.387 . S
C1016 C1019 1.387 . S
H1017 C1013 0.950 . S
H1018 C1015 0.950 . S
C1019 C1010 1.390 1_545 S
C1019 H1012 0.950 . S
C1019 C1016 1.387 . S
C1020 C1021 1.387 . S
C1020 H1024 0.950 . S
C1020 C1029 1.390 . S
C1021 C1020 1.387 . S
C1021 C1023 1.387 . S
H1022 C1029 0.950 . S
C1023 C1021 1.387 . S
C1023 C1025 1.390 . S
C1023 H1027 0.950 . S
H1024 C1020 0.950 . S
C1025 C1023 1.390 . S
C1025 C1026 1.387 . S
C1025 H1028 0.950 . S
C1026 C1025 1.387 . S
C1026 C1029 1.387 . S
H1027 C1023 0.950 . S
H1028 C1025 0.950 . S
C1029 C1020 1.390 . S
C1029 H1022 0.950 . S
C1029 C1026 1.387 . S
C1030 C1031 1.387 . S
C1030 H1034 0.950 . S
C1030 C1039 1.390 1_565 S
C1031 C1030 1.387 . S
C1031 C1033 1.387 . S
H1032 C1039 0.950 . S
C1033 C1031 1.387 . S
C1033 C1035 1.390 1_565 S
C1033 H1037 0.957 . S
H1034 C1030 0.950 . S
C1035 C1033 1.390 1_545 S
C1035 C1036 1.387 . S
C1035 H1038 0.950 . S
C1036 C1035 1.387 . S
C1036 C1039 1.387 . S
H1037 C1033 0.957 . S
H1038 C1035 0.950 . S
C1039 C1030 1.390 1_545 S
C1039 H1032 0.950 . S
C1039 C1036 1.387 . S
C1040 C1041 1.387 . S
C1040 H1044 0.950 . S
C1040 C1049 1.390 . S
C1041 C1040 1.387 . S
C1041 C1043 1.387 . S
H1042 C1049 0.950 . S
C1043 C1041 1.387 . S
C1043 C1045 1.390 . S
C1043 H1047 0.950 . S
H1044 C1040 0.950 . S
C1045 C1043 1.390 . S
C1045 C1046 1.387 . S
C1045 H1048 0.950 . S
C1046 C1045 1.387 . S
C1046 C1049 1.387 . S
H1047 C1043 0.950 . S
H1048 C1045 0.950 . S
C1049 C1040 1.390 . S
C1049 H1042 0.950 . S
C1049 C1046 1.387 . S
C1050 C1051 1.387 . S
C1050 H1054 0.950 . S
C1050 C1059 1.390 . S
C1051 C1050 1.387 . S
C1051 C1053 1.387 . S
H1052 C1059 0.950 1_565 S
C1053 C1051 1.387 . S
C1053 C1055 1.390 . S
C1053 H1057 0.950 . S
H1054 C1050 0.950 . S
C1055 C1053 1.390 . S
C1055 C1056 1.387 1_545 S
C1055 H1058 0.950 1_545 S
C1056 C1055 1.387 1_565 S
C1056 C1059 1.387 1_565 S
H1057 C1053 0.950 . S
H1058 C1055 0.950 1_565 S
C1059 C1050 1.390 . S
C1059 H1052 0.950 1_545 S
C1059 C1056 1.387 1_545 S
C1060 C1061 1.387 . S
C1060 H1064 0.950 . S
C1060 C1069 1.390 . S
C1061 C1060 1.387 . S
C1061 C1063 1.387 . S
H1062 C1069 0.950 . S
C1063 C1061 1.387 . S
C1063 C1065 1.390 . S
C1063 H1067 0.950 . S
H1064 C1060 0.950 . S
C1065 C1063 1.390 . S
C1065 C1066 1.387 . S
C1065 H1068 0.950 . S
C1066 C1065 1.387 . S
C1066 C1069 1.387 . S
H1067 C1063 0.950 . S
H1068 C1065 0.950 . S
C1069 C1060 1.390 . S
C1069 H1062 0.950 . S
C1069 C1066 1.387 . S
C1070 C1071 1.387 . S
C1070 H1074 0.950 . S
C1070 C1079 1.390 . S
C1071 C1070 1.387 . S
C1071 C1073 1.387 . S
H1072 C1079 0.950 . S
C1073 C1071 1.387 . S
C1073 C1075 1.390 . S
C1073 H1077 0.950 . S
H1074 C1070 0.950 . S
C1075 C1073 1.390 . S
C1075 C1076 1.387 . S
C1075 H1078 0.950 . S
C1076 C1075 1.387 . S
C1076 C1079 1.387 . S
H1077 C1073 0.950 . S
H1078 C1075 0.950 . S
C1079 C1070 1.390 . S
C1079 H1072 0.950 . S
C1079 C1076 1.387 . S
C1080 C1081 1.387 . S
C1080 H1084 0.950 . S
C1080 C1089 1.390 . S
C1081 C1080 1.387 . S
C1081 C1083 1.387 . S
H1082 C1089 0.950 . S
C1083 C1081 1.387 . S
C1083 C1085 1.390 . S
C1083 H1087 0.950 . S
H1084 C1080 0.950 . S
C1085 C1083 1.390 . S
C1085 C1086 1.387 . S
C1085 H1088 0.950 . S
C1086 C1085 1.387 . S
C1086 C1089 1.387 . S
H1087 C1083 0.950 . S
H1088 C1085 0.950 . S
C1089 C1080 1.390 . S
C1089 H1082 0.950 . S
C1089 C1086 1.387 . S
C1090 C1091 1.387 . S
C1090 H1094 0.950 . S
C1090 C1099 1.390 1_545 S
C1091 C1090 1.387 . S
C1091 C1093 1.387 . S
H1092 C1099 0.950 . S
C1093 C1091 1.387 . S
C1093 C1095 1.390 1_545 S
C1093 H1097 0.950 . S
H1094 C1090 0.950 . S
C1095 C1093 1.390 1_565 S
C1095 C1096 1.387 . S
C1095 H1098 0.950 . S
C1096 C1095 1.387 . S
C1096 C1099 1.387 . S
H1097 C1093 0.950 . S
H1098 C1095 0.950 . S
C1099 C1090 1.390 1_565 S
C1099 H1092 0.950 . S
C1099 C1096 1.387 . S
C1100 C1101 1.387 . S
C1100 H1104 0.950 . S
C1100 C1109 1.390 . S
C1101 C1100 1.387 . S
C1101 C1103 1.387 . S
H1102 C1109 0.950 . S
C1103 C1101 1.387 . S
C1103 C1105 1.390 . S
C1103 H1107 0.950 . S
H1104 C1100 0.950 . S
C1105 C1103 1.390 . S
C1105 C1106 1.387 . S
C1105 H1108 0.950 . S
C1106 C1105 1.387 . S
C1106 C1109 1.387 . S
H1107 C1103 0.950 . S
H1108 C1105 0.950 . S
C1109 C1100 1.390 . S
C1109 H1102 0.950 . S
C1109 C1106 1.387 . S
C1110 C1111 1.387 . S
C1110 H1114 0.950 . S
C1110 C1119 1.390 1_545 S
C1111 C1110 1.387 . S
C1111 C1113 1.387 1_554 S
H1112 C1119 0.950 . S
C1113 C1111 1.387 1_556 S
C1113 C1115 1.390 1_546 S
C1113 H1117 0.950 . S
H1114 C1110 0.950 . S
C1115 C1113 1.390 1_564 S
C1115 C1116 1.388 . S
C1115 H1118 0.949 1_554 S
C1116 C1115 1.388 . S
C1116 C1119 1.387 . S
H1117 C1113 0.950 . S
H1118 C1115 0.949 1_556 S
C1119 C1110 1.390 1_565 S
C1119 H1112 0.950 . S
C1119 C1116 1.387 . S
C1120 C1121 1.387 . S
C1120 H1124 0.950 . S
C1120 C1129 1.390 . S
C1121 C1120 1.387 . S
C1121 C1123 1.387 . S
H1122 C1129 0.950 . S
C1123 C1121 1.387 . S
C1123 C1125 1.390 . S
C1123 H1127 0.950 . S
H1124 C1120 0.950 . S
C1125 C1123 1.390 . S
C1125 C1126 1.387 . S
C1125 H1128 0.950 . S
C1126 C1125 1.387 . S
C1126 C1129 1.387 . S
H1127 C1123 0.950 . S
H1128 C1125 0.950 . S
C1129 C1120 1.390 . S
C1129 H1122 0.950 . S
C1129 C1126 1.387 . S
C1130 C1131 1.387 . S
C1130 H1134 0.950 . S
C1130 C1139 1.390 . S
C1131 C1130 1.387 . S
C1131 C1133 1.387 . S
H1132 C1139 0.950 . S
C1133 C1131 1.387 . S
C1133 C1135 1.390 . S
C1133 H1137 0.950 . S
H1134 C1130 0.950 . S
C1135 C1133 1.390 . S
C1135 C1136 1.387 . S
C1135 H1138 0.950 1_556 S
C1136 C1135 1.387 . S
C1136 C1139 1.387 . S
H1137 C1133 0.950 . S
H1138 C1135 0.950 1_554 S
C1139 C1130 1.390 . S
C1139 H1132 0.950 . S
C1139 C1136 1.387 . S
C1140 C1141 1.387 . S
C1140 H1144 0.950 . S
C1140 C1149 1.390 . S
C1141 C1140 1.387 . S
C1141 C1143 1.387 . S
H1142 C1149 0.950 . S
C1143 C1141 1.387 . S
C1143 C1145 1.390 . S
C1143 H1147 0.950 . S
H1144 C1140 0.950 . S
C1145 C1143 1.390 . S
C1145 C1146 1.387 . S
C1145 H1148 0.950 . S
C1146 C1145 1.387 . S
C1146 C1149 1.387 . S
H1147 C1143 0.950 . S
H1148 C1145 0.950 . S
C1149 C1140 1.390 . S
C1149 H1142 0.950 . S
C1149 C1146 1.387 . S
C1150 C1151 1.387 . S
C1150 H1154 0.950 . S
C1150 C1159 1.390 . S
C1151 C1150 1.387 . S
C1151 C1153 1.387 . S
H1152 C1159 0.950 . S
C1153 C1151 1.387 . S
C1153 C1155 1.390 . S
C1153 H1157 0.950 . S
H1154 C1150 0.950 . S
C1155 C1153 1.390 . S
C1155 C1156 1.387 . S
C1155 H1158 0.950 . S
C1156 C1155 1.387 . S
C1156 C1159 1.387 . S
H1157 C1153 0.950 . S
H1158 C1155 0.950 . S
C1159 C1150 1.390 . S
C1159 H1152 0.950 . S
C1159 C1156 1.387 . S
C1160 C1161 1.387 . S
C1160 H1164 0.950 . S
C1160 C1169 1.390 . S
C1161 C1160 1.387 . S
C1161 C1163 1.387 . S
H1162 C1169 0.950 . S
C1163 C1161 1.387 . S
C1163 C1165 1.390 . S
C1163 H1167 0.950 . S
H1164 C1160 0.950 . S
C1165 C1163 1.390 . S
C1165 C1166 1.387 . S
C1165 H1168 0.950 . S
C1166 C1165 1.387 . S
C1166 C1169 1.387 . S
H1167 C1163 0.950 . S
H1168 C1165 0.950 . S
C1169 C1160 1.390 . S
C1169 H1162 0.950 . S
C1169 C1166 1.387 . S
C1170 C1171 1.387 1_556 S
C1170 H1174 0.950 . S
C1170 C1179 1.390 . S
C1171 C1170 1.387 1_554 S
C1171 C1173 1.387 . S
H1172 C1179 0.950 . S
C1173 C1171 1.387 . S
C1173 C1175 1.390 1_554 S
C1173 H1177 0.950 . S
H1174 C1170 0.950 . S
C1175 C1173 1.390 1_556 S
C1175 C1176 1.387 . S
C1175 H1178 0.950 . S
C1176 C1175 1.387 . S
C1176 C1179 1.387 . S
H1177 C1173 0.950 . S
H1178 C1175 0.950 . S
C1179 C1170 1.390 . S
C1179 H1172 0.950 . S
C1179 C1176 1.387 . S
C1180 C1181 1.387 . S
C1180 H1184 0.950 . S
C1180 C1189 1.390 . S
C1181 C1180 1.387 . S
C1181 C1183 1.387 . S
H1182 C1189 0.950 . S
C1183 C1181 1.387 . S
C1183 C1185 1.390 . S
C1183 H1187 0.950 . S
H1184 C1180 0.950 . S
C1185 C1183 1.390 . S
C1185 C1186 1.387 . S
C1185 H1188 0.950 . S
C1186 C1185 1.387 . S
C1186 C1189 1.387 . S
H1187 C1183 0.950 . S
H1188 C1185 0.950 . S
C1189 C1180 1.390 . S
C1189 H1182 0.950 . S
C1189 C1186 1.387 . S
C1190 C1191 1.387 . S
C1190 H1194 0.950 . S
C1190 C1199 1.390 . S
C1191 C1190 1.387 . S
C1191 C1193 1.387 . S
H1192 C1199 0.950 . S
C1193 C1191 1.387 . S
C1193 C1195 1.390 . S
C1193 H1197 0.950 . S
H1194 C1190 0.950 . S
C1195 C1193 1.390 . S
C1195 C1196 1.387 . S
C1195 H1198 0.950 . S
C1196 C1195 1.387 . S
C1196 C1199 1.387 . S
H1197 C1193 0.950 . S
H1198 C1195 0.950 . S
C1199 C1190 1.390 . S
C1199 H1192 0.950 . S
C1199 C1196 1.387 . S
C1200 C1201 1.387 . S
C1200 H1204 0.950 . S
C1200 C1209 1.390 . S
C1201 C1200 1.387 . S
C1201 C1203 1.387 . S
H1202 C1209 0.950 . S
C1203 C1201 1.387 . S
C1203 C1205 1.390 . S
C1203 H1207 0.950 . S
H1204 C1200 0.950 . S
C1205 C1203 1.390 . S
C1205 C1206 1.387 . S
C1205 H1208 0.950 . S
C1206 C1205 1.387 . S
C1206 C1209 1.387 . S
H1207 C1203 0.950 . S
H1208 C1205 0.950 . S
C1209 C1200 1.390 . S
C1209 H1202 0.950 . S
C1209 C1206 1.387 . S
C1210 C1211 1.387 . S
C1210 H1214 0.950 . S
C1210 C1219 1.390 . S
C1211 C1210 1.387 . S
C1211 C1213 1.387 . S
H1212 C1219 0.950 . S
C1213 C1211 1.387 . S
C1213 C1215 1.390 . S
C1213 H1217 0.950 . S
H1214 C1210 0.950 . S
C1215 C1213 1.390 . S
C1215 C1216 1.387 . S
C1215 H1218 0.950 . S
C1216 C1215 1.387 . S
C1216 C1219 1.387 . S
H1217 C1213 0.950 . S
H1218 C1215 0.950 . S
C1219 C1210 1.390 . S
C1219 H1212 0.950 . S
C1219 C1216 1.387 . S
C1220 C1221 1.387 . S
C1220 H1224 0.950 . S
C1220 C1229 1.390 . S
C1221 C1220 1.387 . S
C1221 C1223 1.387 . S
H1222 C1229 0.950 . S
C1223 C1221 1.387 . S
C1223 C1225 1.390 . S
C1223 H1227 0.950 . S
H1224 C1220 0.950 . S
C1225 C1223 1.390 . S
C1225 C1226 1.387 . S
C1225 H1228 0.950 . S
C1226 C1225 1.387 . S
C1226 C1229 1.387 . S
H1227 C1223 0.950 . S
H1228 C1225 0.950 . S
C1229 C1220 1.390 . S
C1229 H1222 0.950 . S
C1229 C1226 1.387 . S
C1230 C1231 1.387 . S
C1230 H1234 0.950 . S
C1230 C1239 1.390 . S
C1231 C1230 1.387 . S
C1231 C1233 1.387 . S
H1232 C1239 0.950 . S
C1233 C1231 1.387 . S
C1233 C1235 1.390 . S
C1233 H1237 0.950 . S
H1234 C1230 0.950 . S
C1235 C1233 1.390 . S
C1235 C1236 1.387 . S
C1235 H1238 0.950 . S
C1236 C1235 1.387 . S
C1236 C1239 1.387 . S
H1237 C1233 0.950 . S
H1238 C1235 0.950 . S
C1239 C1230 1.390 . S
C1239 H1232 0.950 . S
C1239 C1236 1.387 . S
C1240 C1241 1.387 . S
C1240 H1244 0.950 . S
C1240 C1249 1.390 . S
C1241 C1240 1.387 . S
C1241 C1243 1.387 . S
H1242 C1249 0.950 . S
C1243 C1241 1.387 . S
C1243 C1245 1.390 . S
C1243 H1247 0.950 . S
H1244 C1240 0.950 . S
C1245 C1243 1.390 . S
C1245 C1246 1.387 . S
C1245 H1248 0.950 . S
C1246 C1245 1.387 . S
C1246 C1249 1.387 . S
H1247 C1243 0.950 . S
H1248 C1245 0.950 . S
C1249 C1240 1.390 . S
C1249 H1242 0.950 . S
C1249 C1246 1.387 . S
C1250 C1251 1.387 . S
C1250 H1254 0.950 . S
C1250 C1259 1.390 1_556 S
C1251 C1250 1.387 . S
C1251 C1253 1.387 1_556 S
H1252 C1259 0.950 . S
C1253 C1251 1.387 1_554 S
C1253 C1255 1.390 . S
C1253 H1257 0.950 . S
H1254 C1250 0.950 . S
C1255 C1253 1.390 . S
C1255 C1256 1.387 . S
C1255 H1258 0.950 . S
C1256 C1255 1.387 . S
C1256 C1259 1.387 . S
H1257 C1253 0.950 . S
H1258 C1255 0.950 . S
C1259 C1250 1.390 1_554 S
C1259 H1252 0.950 . S
C1259 C1256 1.387 . S
C1260 C1261 1.387 . S
C1260 H1264 0.950 . S
C1260 C1269 1.390 . S
C1261 C1260 1.387 . S
C1261 C1263 1.387 . S
H1262 C1269 0.950 . S
C1263 C1261 1.387 . S
C1263 C1265 1.390 . S
C1263 H1267 0.950 . S
H1264 C1260 0.950 . S
C1265 C1263 1.390 . S
C1265 C1266 1.387 . S
C1265 H1268 0.950 . S
C1266 C1265 1.387 . S
C1266 C1269 1.387 . S
H1267 C1263 0.950 . S
H1268 C1265 0.950 . S
C1269 C1260 1.390 . S
C1269 H1262 0.950 . S
C1269 C1266 1.387 . S
C1270 C1271 1.387 . S
C1270 H1274 0.950 . S
C1270 C1279 1.390 . S
C1271 C1270 1.387 . S
C1271 C1273 1.387 . S
H1272 C1279 0.950 . S
C1273 C1271 1.387 . S
C1273 C1275 1.390 . S
C1273 H1277 0.950 . S
H1274 C1270 0.950 . S
C1275 C1273 1.390 . S
C1275 C1276 1.387 . S
C1275 H1278 0.950 . S
C1276 C1275 1.387 . S
C1276 C1279 1.387 . S
H1277 C1273 0.950 . S
H1278 C1275 0.950 . S
C1279 C1270 1.390 . S
C1279 H1272 0.950 . S
C1279 C1276 1.387 . S
C1280 C1281 1.387 . S
C1280 H1284 0.950 . S
C1280 C1289 1.390 . S
C1281 C1280 1.387 . S
C1281 C1283 1.387 . S
H1282 C1289 0.950 . S
C1283 C1281 1.387 . S
C1283 C1285 1.390 . S
C1283 H1287 0.950 . S
H1284 C1280 0.950 . S
C1285 C1283 1.390 . S
C1285 C1286 1.387 . S
C1285 H1288 0.950 . S
C1286 C1285 1.387 . S
C1286 C1289 1.387 . S
H1287 C1283 0.950 . S
H1288 C1285 0.950 . S
C1289 C1280 1.390 . S
C1289 H1282 0.950 . S
C1289 C1286 1.387 . S
C1290 C1291 1.387 . S
C1290 H1294 0.950 . S
C1290 C1299 1.390 . S
C1291 C1290 1.387 . S
C1291 C1293 1.387 . S
H1292 C1299 0.950 . S
C1293 C1291 1.387 . S
C1293 C1295 1.390 . S
C1293 H1297 0.950 . S
H1294 C1290 0.950 . S
C1295 C1293 1.390 . S
C1295 C1296 1.387 . S
C1295 H1298 0.950 . S
C1296 C1295 1.387 . S
C1296 C1299 1.387 . S
H1297 C1293 0.950 . S
H1298 C1295 0.950 . S
C1299 C1290 1.390 . S
C1299 H1292 0.950 . S
C1299 C1296 1.387 . S
C1300 C1301 1.387 . S
C1300 H1304 0.950 . S
C1300 C1309 1.390 . S
C1301 C1300 1.387 . S
C1301 C1303 1.387 . S
H1302 C1309 0.950 . S
C1303 C1301 1.387 . S
C1303 C1305 1.390 . S
C1303 H1307 0.950 . S
H1304 C1300 0.950 . S
C1305 C1303 1.390 . S
C1305 C1306 1.387 . S
C1305 H1308 0.950 . S
C1306 C1305 1.387 . S
C1306 C1309 1.387 . S
H1307 C1303 0.950 . S
H1308 C1305 0.950 . S
C1309 C1300 1.390 . S
C1309 H1302 0.950 . S
C1309 C1306 1.387 . S
C1310 C1311 1.387 . S
C1310 H1314 0.950 . S
C1310 C1319 1.390 . S
C1311 C1310 1.387 . S
C1311 C1313 1.387 . S
H1312 C1319 0.950 . S
C1313 C1311 1.387 . S
C1313 C1315 1.390 . S
C1313 H1317 0.950 . S
H1314 C1310 0.950 . S
C1315 C1313 1.390 . S
C1315 C1316 1.387 . S
C1315 H1318 0.950 . S
C1316 C1315 1.387 . S
C1316 C1319 1.387 . S
H1317 C1313 0.950 . S
H1318 C1315 0.950 . S
C1319 C1310 1.390 . S
C1319 H1312 0.950 . S
C1319 C1316 1.387 . S
C1320 C1321 1.387 . S
C1320 H1324 0.950 . S
C1320 C1329 1.390 . S
C1321 C1320 1.387 . S
C1321 C1323 1.387 . S
H1322 C1329 0.950 . S
C1323 C1321 1.387 . S
C1323 C1325 1.390 . S
C1323 H1327 0.950 . S
H1324 C1320 0.950 . S
C1325 C1323 1.390 . S
C1325 C1326 1.387 . S
C1325 H1328 0.950 . S
C1326 C1325 1.387 . S
C1326 C1329 1.387 . S
H1327 C1323 0.950 . S
H1328 C1325 0.950 . S
C1329 C1320 1.390 . S
C1329 H1322 0.950 . S
C1329 C1326 1.387 . S
C1330 C1331 1.387 . S
C1330 H1334 0.950 . S
C1330 C1339 1.390 . S
C1331 C1330 1.387 . S
C1331 C1333 1.387 . S
H1332 C1339 0.950 . S
C1333 C1331 1.387 . S
C1333 C1335 1.390 . S
C1333 H1337 0.950 . S
H1334 C1330 0.950 . S
C1335 C1333 1.390 . S
C1335 C1336 1.387 . S
C1335 H1338 0.950 . S
C1336 C1335 1.387 . S
C1336 C1339 1.387 . S
H1337 C1333 0.950 . S
H1338 C1335 0.950 . S
C1339 C1330 1.390 . S
C1339 H1332 0.950 . S
C1339 C1336 1.387 . S
C1340 C1341 1.387 . S
C1340 H1344 0.950 . S
C1340 C1349 1.390 . S
C1341 C1340 1.387 . S
C1341 C1343 1.387 . S
H1342 C1349 0.950 . S
C1343 C1341 1.387 . S
C1343 C1345 1.390 . S
C1343 H1347 0.950 . S
H1344 C1340 0.950 . S
C1345 C1343 1.390 . S
C1345 C1346 1.387 . S
C1345 H1348 0.950 . S
C1346 C1345 1.387 . S
C1346 C1349 1.387 . S
H1347 C1343 0.950 . S
H1348 C1345 0.950 . S
C1349 C1340 1.390 . S
C1349 H1342 0.950 . S
C1349 C1346 1.387 . S
C1350 C1351 1.387 . S
C1350 H1354 0.950 . S
C1350 C1359 1.390 1_455 S
C1351 C1350 1.387 . S
C1351 C1353 1.387 . S
H1352 C1359 0.950 . S
C1353 C1351 1.387 . S
C1353 C1355 1.390 1_455 S
C1353 H1357 0.950 . S
H1354 C1350 0.950 . S
C1355 C1353 1.390 1_655 S
C1355 C1356 1.387 . S
C1355 H1358 0.950 . S
C1356 C1355 1.387 . S
C1356 C1359 1.387 . S
H1357 C1353 0.950 . S
H1358 C1355 0.950 . S
C1359 C1350 1.390 1_655 S
C1359 H1352 0.950 . S
C1359 C1356 1.387 . S
C1360 C1361 1.387 . S
C1360 H1364 0.950 . S
C1360 C1369 1.390 . S
C1361 C1360 1.387 . S
C1361 C1363 1.387 . S
H1362 C1369 0.950 . S
C1363 C1361 1.387 . S
C1363 C1365 1.390 . S
C1363 H1367 0.950 . S
H1364 C1360 0.950 . S
C1365 C1363 1.390 . S
C1365 C1366 1.387 . S
C1365 H1368 0.950 . S
C1366 C1365 1.387 . S
C1366 C1369 1.387 . S
H1367 C1363 0.950 . S
H1368 C1365 0.950 . S
C1369 C1360 1.390 . S
C1369 H1362 0.950 . S
C1369 C1366 1.387 . S
C1370 C1371 1.387 . S
C1370 H1374 0.950 . S
C1370 C1379 1.390 . S
C1371 C1370 1.387 . S
C1371 C1373 1.387 . S
H1372 C1379 0.950 . S
C1373 C1371 1.387 . S
C1373 C1375 1.390 . S
C1373 H1377 0.950 . S
H1374 C1370 0.950 . S
C1375 C1373 1.390 . S
C1375 C1376 1.387 . S
C1375 H1378 0.950 . S
C1376 C1375 1.387 . S
C1376 C1379 1.387 . S
H1377 C1373 0.950 . S
H1378 C1375 0.950 . S
C1379 C1370 1.390 . S
C1379 H1372 0.950 . S
C1379 C1376 1.387 . S
C1380 C1381 1.387 . S
C1380 H1384 0.950 . S
C1380 C1389 1.390 . S
C1381 C1380 1.387 . S
C1381 C1383 1.387 . S
H1382 C1389 0.950 . S
C1383 C1381 1.387 . S
C1383 C1385 1.390 . S
C1383 H1387 0.950 . S
H1384 C1380 0.950 . S
C1385 C1383 1.390 . S
C1385 C1386 1.387 . S
C1385 H1388 0.950 . S
C1386 C1385 1.387 . S
C1386 C1389 1.387 . S
H1387 C1383 0.950 . S
H1388 C1385 0.950 . S
C1389 C1380 1.390 . S
C1389 H1382 0.950 . S
C1389 C1386 1.387 . S
C1390 C1391 1.387 . S
C1390 H1394 0.950 . S
C1390 C1399 1.390 . S
C1391 C1390 1.387 . S
C1391 C1393 1.387 . S
H1392 C1399 0.950 . S
C1393 C1391 1.387 . S
C1393 C1395 1.390 . S
C1393 H1397 0.950 . S
H1394 C1390 0.950 . S
C1395 C1393 1.390 . S
C1395 C1396 1.387 . S
C1395 H1398 0.950 . S
C1396 C1395 1.387 . S
C1396 C1399 1.387 . S
H1397 C1393 0.950 . S
H1398 C1395 0.950 . S
C1399 C1390 1.390 . S
C1399 H1392 0.950 . S
C1399 C1396 1.387 . S
C1400 C1401 1.387 . S
C1400 H1404 0.950 . S
C1400 C1409 1.390 . S
C1401 C1400 1.387 . S
C1401 C1403 1.387 . S
H1402 C1409 0.950 . S
C1403 C1401 1.387 . S
C1403 C1405 1.390 . S
C1403 H1407 0.950 . S
H1404 C1400 0.950 . S
C1405 C1403 1.390 . S
C1405 C1406 1.387 . S
C1405 H1408 0.950 . S
C1406 C1405 1.387 . S
C1406 C1409 1.387 . S
H1407 C1403 0.950 . S
H1408 C1405 0.950 . S
C1409 C1400 1.390 . S
C1409 H1402 0.950 . S
C1409 C1406 1.387 . S
C1410 C1411 1.387 . S
C1410 H1414 0.950 . S
C1410 C1419 1.390 . S
C1411 C1410 1.387 . S
C1411 C1413 1.387 . S
H1412 C1419 0.950 . S
C1413 C1411 1.387 . S
C1413 C1415 1.390 . S
C1413 H1417 0.950 . S
H1414 C1410 0.950 . S
C1415 C1413 1.390 . S
C1415 C1416 1.387 . S
C1415 H1418 0.950 . S
C1416 C1415 1.387 . S
C1416 C1419 1.387 . S
H1417 C1413 0.950 . S
H1418 C1415 0.950 . S
C1419 C1410 1.390 . S
C1419 H1412 0.950 . S
C1419 C1416 1.387 . S
C1420 C1421 1.387 . S
C1420 H1424 0.950 . S
C1420 C1429 1.390 . S
C1421 C1420 1.387 . S
C1421 C1423 1.387 . S
H1422 C1429 0.950 . S
C1423 C1421 1.387 . S
C1423 C1425 1.390 . S
C1423 H1427 0.950 . S
H1424 C1420 0.950 . S
C1425 C1423 1.390 . S
C1425 C1426 1.387 . S
C1425 H1428 0.950 . S
C1426 C1425 1.387 . S
C1426 C1429 1.387 . S
H1427 C1423 0.950 . S
H1428 C1425 0.950 . S
C1429 C1420 1.390 . S
C1429 H1422 0.950 . S
C1429 C1426 1.387 . S
C1430 C1431 1.387 . S
C1430 H1434 0.950 . S
C1430 C1439 1.390 1_655 S
C1431 C1430 1.387 . S
C1431 C1433 1.387 . S
H1432 C1439 0.950 . S
C1433 C1431 1.387 . S
C1433 C1435 1.390 1_655 S
C1433 H1437 0.950 . S
H1434 C1430 0.950 . S
C1435 C1433 1.390 1_455 S
C1435 C1436 1.387 . S
C1435 H1438 0.950 . S
C1436 C1435 1.387 . S
C1436 C1439 1.387 . S
H1437 C1433 0.950 . S
H1438 C1435 0.950 . S
C1439 C1430 1.390 1_455 S
C1439 H1432 0.950 . S
C1439 C1436 1.387 . S
C1440 C1441 1.387 . S
C1440 H1444 0.950 . S
C1440 C1449 1.390 . S
C1441 C1440 1.387 . S
C1441 C1443 1.387 . S
H1442 C1449 0.950 . S
C1443 C1441 1.387 . S
C1443 C1445 1.390 . S
C1443 H1447 0.950 . S
H1444 C1440 0.950 . S
C1445 C1443 1.390 . S
C1445 C1446 1.387 . S
C1445 H1448 0.950 . S
C1446 C1445 1.387 . S
C1446 C1449 1.387 . S
H1447 C1443 0.950 . S
H1448 C1445 0.950 . S
C1449 C1440 1.390 . S
C1449 H1442 0.950 . S
C1449 C1446 1.387 . S
C1450 C1451 1.387 . S
C1450 H1454 0.950 . S
C1450 C1459 1.390 . S
C1451 C1450 1.387 . S
C1451 C1453 1.387 . S
H1452 C1459 0.950 . S
C1453 C1451 1.387 . S
C1453 C1455 1.390 . S
C1453 H1457 0.950 . S
H1454 C1450 0.950 . S
C1455 C1453 1.390 . S
C1455 C1456 1.387 . S
C1455 H1458 0.950 . S
C1456 C1455 1.387 . S
C1456 C1459 1.387 . S
H1457 C1453 0.950 . S
H1458 C1455 0.950 . S
C1459 C1450 1.390 . S
C1459 H1452 0.950 . S
C1459 C1456 1.387 . S
C1460 C1461 1.387 . S
C1460 H1464 0.950 . S
C1460 C1469 1.390 . S
C1461 C1460 1.387 . S
C1461 C1463 1.387 . S
H1462 C1469 0.950 . S
C1463 C1461 1.387 . S
C1463 C1465 1.390 . S
C1463 H1467 0.950 . S
H1464 C1460 0.950 . S
C1465 C1463 1.390 . S
C1465 C1466 1.387 . S
C1465 H1468 0.950 . S
C1466 C1465 1.387 . S
C1466 C1469 1.387 . S
H1467 C1463 0.950 . S
H1468 C1465 0.950 . S
C1469 C1460 1.390 . S
C1469 H1462 0.950 . S
C1469 C1466 1.387 . S
C1470 C1471 1.387 . S
C1470 H1474 0.950 . S
C1470 C1479 1.390 . S
C1471 C1470 1.387 . S
C1471 C1473 1.387 . S
H1472 C1479 0.950 . S
C1473 C1471 1.387 . S
C1473 C1475 1.390 . S
C1473 H1477 0.950 . S
H1474 C1470 0.950 . S
C1475 C1473 1.390 . S
C1475 C1476 1.387 . S
C1475 H1478 0.950 . S
C1476 C1475 1.387 . S
C1476 C1479 1.387 . S
H1477 C1473 0.950 . S
H1478 C1475 0.950 . S
C1479 C1470 1.390 . S
C1479 H1472 0.950 . S
C1479 C1476 1.387 . S
C1480 C1481 1.387 . S
C1480 H1484 0.950 . S
C1480 C1489 1.390 . S
C1481 C1480 1.387 . S
C1481 C1483 1.387 . S
H1482 C1489 0.950 . S
C1483 C1481 1.387 . S
C1483 C1485 1.390 . S
C1483 H1487 0.950 . S
H1484 C1480 0.950 . S
C1485 C1483 1.390 . S
C1485 C1486 1.387 . S
C1485 H1488 0.950 . S
C1486 C1485 1.387 . S
C1486 C1489 1.387 . S
H1487 C1483 0.950 . S
H1488 C1485 0.950 . S
C1489 C1480 1.390 . S
C1489 H1482 0.950 . S
C1489 C1486 1.387 . S
C1490 C1491 1.387 . S
C1490 H1494 0.950 . S
C1490 C1499 1.390 1_655 S
C1491 C1490 1.387 . S
C1491 C1493 1.387 . S
H1492 C1499 0.950 . S
C1493 C1491 1.387 . S
C1493 C1495 1.390 1_655 S
C1493 H1497 0.950 . S
H1494 C1490 0.950 . S
C1495 C1493 1.390 1_455 S
C1495 C1496 1.387 . S
C1495 H1498 0.950 . S
C1496 C1495 1.387 . S
C1496 C1499 1.387 . S
H1497 C1493 0.950 . S
H1498 C1495 0.950 . S
C1499 C1490 1.390 1_455 S
C1499 H1492 0.950 . S
C1499 C1496 1.387 . S
C1500 C1501 1.387 . S
C1500 H1504 0.950 . S
C1500 C1509 1.390 . S
C1501 C1500 1.387 . S
C1501 C1503 1.387 . S
H1502 C1509 0.950 . S
C1503 C1501 1.387 . S
C1503 C1505 1.390 . S
C1503 H1507 0.950 . S
H1504 C1500 0.950 . S
C1505 C1503 1.390 . S
C1505 C1506 1.387 . S
C1505 H1508 0.950 . S
C1506 C1505 1.387 . S
C1506 C1509 1.387 . S
H1507 C1503 0.950 . S
H1508 C1505 0.950 . S
C1509 C1500 1.390 . S
C1509 H1502 0.950 . S
C1509 C1506 1.387 . S
C1510 C1511 1.387 . S
C1510 H1514 0.950 . S
C1510 C1519 1.390 . S
C1511 C1510 1.387 . S
C1511 C1513 1.387 . S
H1512 C1519 0.950 . S
C1513 C1511 1.387 . S
C1513 C1515 1.390 . S
C1513 H1517 0.950 . S
H1514 C1510 0.950 . S
C1515 C1513 1.390 . S
C1515 C1516 1.387 . S
C1515 H1518 0.950 . S
C1516 C1515 1.387 . S
C1516 C1519 1.387 . S
H1517 C1513 0.950 . S
H1518 C1515 0.950 . S
C1519 C1510 1.390 . S
C1519 H1512 0.950 . S
C1519 C1516 1.387 . S
C1520 C1521 1.387 . S
C1520 H1524 0.950 . S
C1520 C1529 1.390 . S
C1521 C1520 1.387 . S
C1521 C1523 1.387 . S
H1522 C1529 0.950 . S
C1523 C1521 1.387 . S
C1523 C1525 1.390 . S
C1523 H1527 0.950 . S
H1524 C1520 0.950 . S
C1525 C1523 1.390 . S
C1525 C1526 1.387 . S
C1525 H1528 0.950 . S
C1526 C1525 1.387 . S
C1526 C1529 1.387 . S
H1527 C1523 0.950 . S
H1528 C1525 0.950 . S
C1529 C1520 1.390 . S
C1529 H1522 0.950 . S
C1529 C1526 1.387 . S
C1530 C1531 1.387 . S
C1530 H1534 0.950 . S
C1530 C1539 1.390 . S
C1531 C1530 1.387 . S
C1531 C1533 1.387 . S
H1532 C1539 0.950 . S
C1533 C1531 1.387 . S
C1533 C1535 1.390 . S
C1533 H1537 0.950 . S
H1534 C1530 0.950 . S
C1535 C1533 1.390 . S
C1535 C1536 1.387 . S
C1535 H1538 0.950 . S
C1536 C1535 1.387 . S
C1536 C1539 1.387 . S
H1537 C1533 0.950 . S
H1538 C1535 0.950 . S
C1539 C1530 1.390 . S
C1539 H1532 0.950 . S
C1539 C1536 1.387 . S
C1540 C1541 1.387 . S
C1540 H1544 0.950 . S
C1540 C1549 1.390 . S
C1541 C1540 1.387 . S
C1541 C1543 1.387 . S
H1542 C1549 0.950 . S
C1543 C1541 1.387 . S
C1543 C1545 1.390 . S
C1543 H1547 0.950 . S
H1544 C1540 0.950 . S
C1545 C1543 1.390 . S
C1545 C1546 1.387 . S
C1545 H1548 0.950 . S
C1546 C1545 1.387 . S
C1546 C1549 1.387 . S
H1547 C1543 0.950 . S
H1548 C1545 0.950 . S
C1549 C1540 1.390 . S
C1549 H1542 0.950 . S
C1549 C1546 1.387 . S
C1550 C1551 1.387 . S
C1550 H1554 0.950 . S
C1550 C1559 1.390 . S
C1551 C1550 1.387 . S
C1551 C1553 1.387 . S
H1552 C1559 0.950 . S
C1553 C1551 1.387 . S
C1553 C1555 1.390 . S
C1553 H1557 0.950 . S
H1554 C1550 0.950 . S
C1555 C1553 1.390 . S
C1555 C1556 1.387 . S
C1555 H1558 0.950 . S
C1556 C1555 1.387 . S
C1556 C1559 1.387 . S
H1557 C1553 0.950 . S
H1558 C1555 0.950 . S
C1559 C1550 1.390 . S
C1559 H1552 0.950 . S
C1559 C1556 1.387 . S
C1560 C1561 1.387 . S
C1560 H1564 0.950 . S
C1560 C1569 1.390 . S
C1561 C1560 1.387 . S
C1561 C1563 1.387 . S
H1562 C1569 0.950 . S
C1563 C1561 1.387 . S
C1563 C1565 1.390 . S
C1563 H1567 0.950 . S
H1564 C1560 0.950 . S
C1565 C1563 1.390 . S
C1565 C1566 1.387 . S
C1565 H1568 0.950 . S
C1566 C1565 1.387 . S
C1566 C1569 1.387 . S
H1567 C1563 0.950 . S
H1568 C1565 0.950 . S
C1569 C1560 1.390 . S
C1569 H1562 0.950 . S
C1569 C1566 1.387 . S
C1570 C1571 1.387 . S
C1570 H1574 0.950 . S
C1570 C1579 1.390 1_455 S
C1571 C1570 1.387 . S
C1571 C1573 1.387 . S
H1572 C1579 0.950 . S
C1573 C1571 1.387 . S
C1573 C1575 1.390 1_455 S
C1573 H1577 0.950 . S
H1574 C1570 0.950 . S
C1575 C1573 1.390 1_655 S
C1575 C1576 1.387 . S
C1575 H1578 0.950 . S
C1576 C1575 1.387 . S
C1576 C1579 1.387 . S
H1577 C1573 0.950 . S
H1578 C1575 0.950 . S
C1579 C1570 1.390 1_655 S
C1579 H1572 0.950 . S
C1579 C1576 1.387 . S
C1580 C1581 1.387 . S
C1580 H1584 0.950 . S
C1580 C1589 1.390 . S
C1581 C1580 1.387 . S
C1581 C1583 1.387 . S
H1582 C1589 0.950 . S
C1583 C1581 1.387 . S
C1583 C1585 1.390 . S
C1583 H1587 0.950 . S
H1584 C1580 0.950 . S
C1585 C1583 1.390 . S
C1585 C1586 1.387 . S
C1585 H1588 0.950 . S
C1586 C1585 1.387 . S
C1586 C1589 1.387 . S
H1587 C1583 0.950 . S
H1588 C1585 0.950 . S
C1589 C1580 1.390 . S
C1589 H1582 0.950 . S
C1589 C1586 1.387 . S
C1590 C1591 1.387 . S
C1590 H1594 0.950 . S
C1590 C1599 1.390 . S
C1591 C1590 1.387 . S
C1591 C1593 1.387 . S
H1592 C1599 0.950 . S
C1593 C1591 1.387 . S
C1593 C1595 1.390 . S
C1593 H1597 0.950 . S
H1594 C1590 0.950 . S
C1595 C1593 1.390 . S
C1595 C1596 1.387 . S
C1595 H1598 0.950 . S
C1596 C1595 1.387 . S
C1596 C1599 1.387 . S
H1597 C1593 0.950 . S
H1598 C1595 0.950 . S
C1599 C1590 1.390 . S
C1599 H1592 0.950 . S
C1599 C1596 1.387 . S
C1600 C1601 1.387 1_545 S
C1600 H1604 0.950 . S
C1600 C1609 1.390 1_545 S
C1601 C1600 1.387 1_565 S
C1601 C1603 1.387 . S
H1602 C1609 0.950 . S
C1603 C1601 1.387 . S
C1603 C1605 1.390 . S
C1603 H1607 0.950 . S
H1604 C1600 0.950 . S
C1605 C1603 1.390 . S
C1605 C1606 1.387 . S
C1605 H1608 0.950 . S
C1606 C1605 1.387 . S
C1606 C1609 1.387 . S
H1607 C1603 0.950 . S
H1608 C1605 0.950 . S
C1609 C1600 1.390 1_565 S
C1609 H1602 0.950 . S
C1609 C1606 1.387 . S
C1610 C1611 1.387 . S
C1610 H1614 0.950 . S
C1610 C1619 1.390 . S
C1611 C1610 1.387 . S
C1611 C1613 1.387 . S
H1612 C1619 0.950 . S
C1613 C1611 1.387 . S
C1613 C1615 1.390 . S
C1613 H1617 0.950 . S
H1614 C1610 0.950 . S
C1615 C1613 1.390 . S
C1615 C1616 1.387 . S
C1615 H1618 0.950 . S
C1616 C1615 1.387 . S
C1616 C1619 1.387 . S
H1617 C1613 0.950 . S
H1618 C1615 0.950 . S
C1619 C1610 1.390 . S
C1619 H1612 0.950 . S
C1619 C1616 1.387 . S
C1620 C1621 1.387 . S
C1620 H1624 0.950 . S
C1620 C1629 1.390 1_565 S
C1621 C1620 1.387 . S
C1621 C1623 1.387 . S
H1622 C1629 0.950 . S
C1623 C1621 1.387 . S
C1623 C1625 1.390 1_565 S
C1623 H1627 0.950 . S
H1624 C1620 0.950 . S
C1625 C1623 1.390 1_545 S
C1625 C1626 1.387 . S
C1625 H1628 0.950 . S
C1626 C1625 1.387 . S
C1626 C1629 1.387 . S
H1627 C1623 0.950 . S
H1628 C1625 0.950 . S
C1629 C1620 1.390 1_545 S
C1629 H1622 0.950 . S
C1629 C1626 1.387 . S
C1630 C1631 1.387 . S
C1630 H1634 0.950 . S
C1630 C1639 1.390 . S
C1631 C1630 1.387 . S
C1631 C1633 1.387 . S
H1632 C1639 0.957 . S
C1633 C1631 1.387 . S
C1633 C1635 1.390 . S
C1633 H1637 0.950 . S
H1634 C1630 0.950 . S
C1635 C1633 1.390 . S
C1635 C1636 1.387 1_556 S
C1635 H1638 0.950 1_556 S
C1636 C1635 1.387 1_554 S
C1636 C1639 1.387 1_554 S
H1637 C1633 0.950 . S
H1638 C1635 0.950 1_554 S
C1639 C1630 1.390 . S
C1639 H1632 0.957 . S
C1639 C1636 1.387 1_556 S
C1640 C1641 1.387 . S
C1640 H1644 0.950 1_545 S
C1640 C1649 1.390 1_545 S
C1641 C1640 1.387 . S
C1641 C1643 1.387 . S
H1642 C1649 0.950 . S
C1643 C1641 1.387 . S
C1643 C1645 1.390 . S
C1643 H1647 0.950 . S
H1644 C1640 0.950 1_565 S
C1645 C1643 1.390 . S
C1645 C1646 1.387 . S
C1645 H1648 0.950 . S
C1646 C1645 1.387 . S
C1646 C1649 1.387 1_545 S
H1647 C1643 0.950 . S
H1648 C1645 0.950 . S
C1649 C1640 1.390 1_565 S
C1649 H1642 0.950 . S
C1649 C1646 1.387 1_565 S
C1650 C1651 1.387 . S
C1650 H1654 0.950 . S
C1650 C1659 1.390 . S
C1651 C1650 1.387 . S
C1651 C1653 1.387 . S
H1652 C1659 0.950 . S
C1653 C1651 1.387 . S
C1653 C1655 1.390 . S
C1653 H1657 0.950 . S
H1654 C1650 0.950 . S
C1655 C1653 1.390 . S
C1655 C1656 1.387 . S
C1655 H1658 0.950 . S
C1656 C1655 1.387 . S
C1656 C1659 1.387 . S
H1657 C1653 0.950 . S
H1658 C1655 0.950 . S
C1659 C1650 1.390 . S
C1659 H1652 0.950 . S
C1659 C1656 1.387 . S
C1660 C1661 1.387 . S
C1660 H1664 0.950 . S
C1660 C1669 1.390 1_545 S
C1661 C1660 1.387 . S
C1661 C1663 1.387 . S
H1662 C1669 0.950 . S
C1663 C1661 1.387 . S
C1663 C1665 1.382 1_545 S
C1663 H1667 0.950 . S
H1664 C1660 0.950 . S
C1665 C1663 1.382 1_565 S
C1665 C1666 1.396 . S
C1665 H1668 0.950 . S
C1666 C1665 1.396 . S
C1666 C1669 1.387 . S
H1667 C1663 0.950 . S
H1668 C1665 0.950 . S
C1669 C1660 1.390 1_565 S
C1669 H1662 0.950 . S
C1669 C1666 1.387 . S
C1670 C1671 1.387 1_554 S
C1670 H1674 0.950 . S
C1670 C1679 1.390 . S
C1671 C1670 1.387 1_556 S
C1671 C1673 1.387 1_556 S
H1672 C1679 0.950 . S
C1673 C1671 1.387 1_554 S
C1673 C1675 1.390 . S
C1673 H1677 0.950 1_554 S
H1674 C1670 0.950 . S
C1675 C1673 1.390 . S
C1675 C1676 1.387 . S
C1675 H1678 0.950 . S
C1676 C1675 1.387 . S
C1676 C1679 1.387 . S
H1677 C1673 0.950 1_556 S
H1678 C1675 0.950 . S
C1679 C1670 1.390 . S
C1679 H1672 0.950 . S
C1679 C1676 1.387 . S
C1680 C1681 1.387 . S
C1680 H1684 0.950 . S
C1680 C1689 1.390 . S
C1681 C1680 1.387 . S
C1681 C1683 1.387 . S
H1682 C1689 0.950 . S
C1683 C1681 1.387 . S
C1683 C1685 1.390 . S
C1683 H1687 0.950 . S
H1684 C1680 0.950 . S
C1685 C1683 1.390 . S
C1685 C1686 1.387 . S
C1685 H1688 0.950 . S
C1686 C1685 1.387 . S
C1686 C1689 1.387 . S
H1687 C1683 0.950 . S
H1688 C1685 0.950 . S
C1689 C1680 1.390 . S
C1689 H1682 0.950 . S
C1689 C1686 1.387 . S
C1690 C1691 1.387 . S
C1690 H1694 0.950 . S
C1690 C1699 1.390 . S
C1691 C1690 1.387 . S
C1691 C1693 1.387 . S
H1692 C1699 0.950 . S
C1693 C1691 1.387 . S
C1693 C1695 1.390 . S
C1693 H1697 0.950 . S
H1694 C1690 0.950 . S
C1695 C1693 1.390 . S
C1695 C1696 1.387 1_556 S
C1695 H1698 0.950 1_556 S
C1696 C1695 1.387 1_554 S
C1696 C1699 1.384 1_554 S
H1697 C1693 0.950 . S
H1698 C1695 0.950 1_554 S
C1699 C1690 1.390 . S
C1699 H1692 0.950 . S
C1699 C1696 1.384 1_556 S
C1700 C1701 1.387 . S
C1700 H1704 0.950 . S
C1700 C1709 1.390 . S
C1701 C1700 1.387 . S
C1701 C1703 1.387 . S
H1702 C1709 0.950 . S
C1703 C1701 1.387 . S
C1703 C1705 1.390 . S
C1703 H1707 0.950 . S
H1704 C1700 0.950 . S
C1705 C1703 1.390 . S
C1705 C1706 1.387 . S
C1705 H1708 0.950 . S
C1706 C1705 1.387 . S
C1706 C1709 1.387 . S
H1707 C1703 0.950 . S
H1708 C1705 0.950 . S
C1709 C1700 1.390 . S
C1709 H1702 0.950 . S
C1709 C1706 1.387 . S
C1710 C1711 1.387 . S
C1710 H1714 0.950 . S
C1710 C1719 1.390 . S
C1711 C1710 1.387 . S
C1711 C1713 1.387 . S
H1712 C1719 0.950 . S
C1713 C1711 1.387 . S
C1713 C1715 1.390 . S
C1713 H1717 0.950 . S
H1714 C1710 0.950 . S
C1715 C1713 1.390 . S
C1715 C1716 1.387 . S
C1715 H1718 0.950 . S
C1716 C1715 1.387 . S
C1716 C1719 1.387 . S
H1717 C1713 0.950 . S
H1718 C1715 0.950 . S
C1719 C1710 1.390 . S
C1719 H1712 0.950 . S
C1719 C1716 1.387 . S
C1720 C1721 1.387 . S
C1720 H1724 0.950 . S
C1720 C1729 1.390 . S
C1721 C1720 1.387 . S
C1721 C1723 1.387 . S
H1722 C1729 0.950 . S
C1723 C1721 1.387 . S
C1723 C1725 1.390 . S
C1723 H1727 0.950 . S
H1724 C1720 0.950 . S
C1725 C1723 1.390 . S
C1725 C1726 1.387 . S
C1725 H1728 0.950 . S
C1726 C1725 1.387 . S
C1726 C1729 1.387 . S
H1727 C1723 0.950 . S
H1728 C1725 0.950 . S
C1729 C1720 1.390 . S
C1729 H1722 0.950 . S
C1729 C1726 1.387 . S
C1730 C1731 1.389 . S
C1730 H1734 0.950 . S
C1730 C1739 1.390 1_556 S
C1731 C1730 1.389 . S
C1731 C1733 1.381 1_556 S
H1732 C1739 0.950 . S
C1733 C1731 1.381 1_554 S
C1733 C1735 1.390 . S
C1733 H1737 0.950 . S
H1734 C1730 0.950 . S
C1735 C1733 1.390 . S
C1735 C1736 1.387 . S
C1735 H1738 0.950 . S
C1736 C1735 1.387 . S
C1736 C1739 1.387 . S
H1737 C1733 0.950 . S
H1738 C1735 0.950 . S
C1739 C1730 1.390 1_554 S
C1739 H1732 0.950 . S
C1739 C1736 1.387 . S
C1740 C1741 1.387 . S
C1740 H1744 0.950 . S
C1740 C1749 1.390 . S
C1741 C1740 1.387 . S
C1741 C1743 1.387 . S
H1742 C1749 0.950 . S
C1743 C1741 1.387 . S
C1743 C1745 1.390 . S
C1743 H1747 0.950 . S
H1744 C1740 0.950 . S
C1745 C1743 1.390 . S
C1745 C1746 1.387 . S
C1745 H1748 0.950 . S
C1746 C1745 1.387 . S
C1746 C1749 1.387 . S
H1747 C1743 0.950 . S
H1748 C1745 0.950 . S
C1749 C1740 1.390 . S
C1749 H1742 0.950 . S
C1749 C1746 1.387 . S
C1750 C1751 1.387 . S
C1750 H1754 0.950 . S
C1750 C1759 1.390 . S
C1751 C1750 1.387 . S
C1751 C1753 1.387 . S
H1752 C1759 0.950 . S
C1753 C1751 1.387 . S
C1753 C1755 1.390 . S
C1753 H1757 0.950 . S
H1754 C1750 0.950 . S
C1755 C1753 1.390 . S
C1755 C1756 1.387 . S
C1755 H1758 0.950 . S
C1756 C1755 1.387 . S
C1756 C1759 1.387 . S
H1757 C1753 0.950 . S
H1758 C1755 0.950 . S
C1759 C1750 1.390 . S
C1759 H1752 0.950 . S
C1759 C1756 1.387 . S
C1760 C1761 1.387 . S
C1760 H1764 0.950 . S
C1760 C1769 1.390 . S
C1761 C1760 1.387 . S
C1761 C1763 1.387 . S
H1762 C1769 0.950 . S
C1763 C1761 1.387 . S
C1763 C1765 1.390 . S
C1763 H1767 0.950 . S
H1764 C1760 0.950 . S
C1765 C1763 1.390 . S
C1765 C1766 1.387 . S
C1765 H1768 0.950 . S
C1766 C1765 1.387 . S
C1766 C1769 1.387 . S
H1767 C1763 0.950 . S
H1768 C1765 0.950 . S
C1769 C1760 1.390 . S
C1769 H1762 0.950 . S
C1769 C1766 1.387 . S
C1770 C1771 1.387 . S
C1770 H1774 0.950 . S
C1770 C1779 1.390 . S
C1771 C1770 1.387 . S
C1771 C1773 1.387 . S
H1772 C1779 0.950 . S
C1773 C1771 1.387 . S
C1773 C1775 1.390 . S
C1773 H1777 0.950 . S
H1774 C1770 0.950 . S
C1775 C1773 1.390 . S
C1775 C1776 1.387 . S
C1775 H1778 0.950 . S
C1776 C1775 1.387 . S
C1776 C1779 1.387 . S
H1777 C1773 0.950 . S
H1778 C1775 0.950 . S
C1779 C1770 1.390 . S
C1779 H1772 0.950 . S
C1779 C1776 1.387 . S
C1780 C1781 1.387 . S
C1780 H1784 0.950 . S
C1780 C1789 1.390 . S
C1781 C1780 1.387 . S
C1781 C1783 1.387 . S
H1782 C1789 0.950 . S
C1783 C1781 1.387 . S
C1783 C1785 1.390 . S
C1783 H1787 0.950 . S
H1784 C1780 0.950 . S
C1785 C1783 1.390 . S
C1785 C1786 1.387 . S
C1785 H1788 0.950 . S
C1786 C1785 1.387 . S
C1786 C1789 1.387 . S
H1787 C1783 0.950 . S
H1788 C1785 0.950 . S
C1789 C1780 1.390 . S
C1789 H1782 0.950 . S
C1789 C1786 1.387 . S
C1790 C1791 1.387 . S
C1790 H1794 0.950 . S
C1790 C1799 1.390 . S
C1791 C1790 1.387 . S
C1791 C1793 1.387 . S
H1792 C1799 0.950 . S
C1793 C1791 1.387 . S
C1793 C1795 1.390 . S
C1793 H1797 0.950 . S
H1794 C1790 0.950 . S
C1795 C1793 1.390 . S
C1795 C1796 1.387 . S
C1795 H1798 0.950 . S
C1796 C1795 1.387 . S
C1796 C1799 1.387 . S
H1797 C1793 0.950 . S
H1798 C1795 0.950 . S
C1799 C1790 1.390 . S
C1799 H1792 0.950 . S
C1799 C1796 1.387 . S
C1800 C1801 1.387 . S
C1800 H1804 0.950 . S
C1800 C1809 1.390 . S
C1801 C1800 1.387 . S
C1801 C1803 1.387 . S
H1802 C1809 0.950 . S
C1803 C1801 1.387 . S
C1803 C1805 1.390 . S
C1803 H1807 0.950 . S
H1804 C1800 0.950 . S
C1805 C1803 1.390 . S
C1805 C1806 1.387 . S
C1805 H1808 0.950 . S
C1806 C1805 1.387 . S
C1806 C1809 1.387 . S
H1807 C1803 0.950 . S
H1808 C1805 0.950 . S
C1809 C1800 1.390 . S
C1809 H1802 0.950 . S
C1809 C1806 1.387 . S
C1810 C1811 1.387 . S
C1810 H1814 0.950 . S
C1810 C1819 1.390 . S
C1811 C1810 1.387 . S
C1811 C1813 1.387 . S
H1812 C1819 0.950 . S
C1813 C1811 1.387 . S
C1813 C1815 1.390 . S
C1813 H1817 0.950 . S
H1814 C1810 0.950 . S
C1815 C1813 1.390 . S
C1815 C1816 1.387 . S
C1815 H1818 0.950 . S
C1816 C1815 1.387 . S
C1816 C1819 1.387 . S
H1817 C1813 0.950 . S
H1818 C1815 0.950 . S
C1819 C1810 1.390 . S
C1819 H1812 0.950 . S
C1819 C1816 1.387 . S
C1820 C1821 1.387 . S
C1820 H1824 0.950 . S
C1820 C1829 1.390 . S
C1821 C1820 1.387 . S
C1821 C1823 1.387 . S
H1822 C1829 0.950 . S
C1823 C1821 1.387 . S
C1823 C1825 1.390 . S
C1823 H1827 0.950 . S
H1824 C1820 0.950 . S
C1825 C1823 1.390 . S
C1825 C1826 1.387 . S
C1825 H1828 0.950 . S
C1826 C1825 1.387 . S
C1826 C1829 1.387 . S
H1827 C1823 0.950 . S
H1828 C1825 0.950 . S
C1829 C1820 1.390 . S
C1829 H1822 0.950 . S
C1829 C1826 1.387 . S
C1830 C1831 1.387 . S
C1830 H1834 0.950 . S
C1830 C1839 1.390 . S
C1831 C1830 1.387 . S
C1831 C1833 1.387 . S
H1832 C1839 0.950 . S
C1833 C1831 1.387 . S
C1833 C1835 1.390 . S
C1833 H1837 0.950 . S
H1834 C1830 0.950 . S
C1835 C1833 1.390 . S
C1835 C1836 1.387 . S
C1835 H1838 0.950 . S
C1836 C1835 1.387 . S
C1836 C1839 1.387 . S
H1837 C1833 0.950 . S
H1838 C1835 0.950 . S
C1839 C1830 1.390 . S
C1839 H1832 0.950 . S
C1839 C1836 1.387 . S
C1840 C1841 1.387 . S
C1840 H1844 0.950 . S
C1840 C1849 1.390 . S
C1841 C1840 1.387 . S
C1841 C1843 1.387 . S
H1842 C1849 0.950 . S
C1843 C1841 1.387 . S
C1843 C1845 1.390 . S
C1843 H1847 0.950 . S
H1844 C1840 0.950 . S
C1845 C1843 1.390 . S
C1845 C1846 1.387 . S
C1845 H1848 0.950 . S
C1846 C1845 1.387 . S
C1846 C1849 1.387 . S
H1847 C1843 0.950 . S
H1848 C1845 0.950 . S
C1849 C1840 1.390 . S
C1849 H1842 0.950 . S
C1849 C1846 1.387 . S
C1850 C1851 1.387 . S
C1850 H1854 0.950 . S
C1850 C1859 1.390 . S
C1851 C1850 1.387 . S
C1851 C1853 1.387 . S
H1852 C1859 0.950 . S
C1853 C1851 1.387 . S
C1853 C1855 1.390 . S
C1853 H1857 0.950 . S
H1854 C1850 0.950 . S
C1855 C1853 1.390 . S
C1855 C1856 1.387 . S
C1855 H1858 0.950 . S
C1856 C1855 1.387 . S
C1856 C1859 1.387 . S
H1857 C1853 0.950 . S
H1858 C1855 0.950 . S
C1859 C1850 1.390 . S
C1859 H1852 0.950 . S
C1859 C1856 1.387 . S
C1860 C1861 1.387 . S
C1860 H1864 0.950 . S
C1860 C1869 1.390 . S
C1861 C1860 1.387 . S
C1861 C1863 1.387 . S
H1862 C1869 0.950 . S
C1863 C1861 1.387 . S
C1863 C1865 1.390 . S
C1863 H1867 0.950 . S
H1864 C1860 0.950 . S
C1865 C1863 1.390 . S
C1865 C1866 1.387 . S
C1865 H1868 0.950 . S
C1866 C1865 1.387 . S
C1866 C1869 1.387 . S
H1867 C1863 0.950 . S
H1868 C1865 0.950 . S
C1869 C1860 1.390 . S
C1869 H1862 0.950 . S
C1869 C1866 1.387 . S
C1870 C1871 1.387 . S
C1870 H1874 0.950 . S
C1870 C1879 1.390 . S
C1871 C1870 1.387 . S
C1871 C1873 1.387 . S
H1872 C1879 0.950 . S
C1873 C1871 1.387 . S
C1873 C1875 1.390 . S
C1873 H1877 0.950 . S
H1874 C1870 0.950 . S
C1875 C1873 1.390 . S
C1875 C1876 1.387 . S
C1875 H1878 0.950 . S
C1876 C1875 1.387 . S
C1876 C1879 1.387 . S
H1877 C1873 0.950 . S
H1878 C1875 0.950 . S
C1879 C1870 1.390 . S
C1879 H1872 0.950 . S
C1879 C1876 1.387 . S
C1880 C1881 1.387 . S
C1880 H1884 0.950 . S
C1880 C1889 1.390 . S
C1881 C1880 1.387 . S
C1881 C1883 1.387 . S
H1882 C1889 0.950 . S
C1883 C1881 1.387 . S
C1883 C1885 1.390 . S
C1883 H1887 0.950 . S
H1884 C1880 0.950 . S
C1885 C1883 1.390 . S
C1885 C1886 1.387 . S
C1885 H1888 0.950 . S
C1886 C1885 1.387 . S
C1886 C1889 1.387 . S
H1887 C1883 0.950 . S
H1888 C1885 0.950 . S
C1889 C1880 1.390 . S
C1889 H1882 0.950 . S
C1889 C1886 1.387 . S
C1890 C1891 1.387 . S
C1890 H1894 0.950 . S
C1890 C1899 1.390 . S
C1891 C1890 1.387 . S
C1891 C1893 1.387 . S
H1892 C1899 0.950 . S
C1893 C1891 1.387 . S
C1893 C1895 1.390 . S
C1893 H1897 0.950 . S
H1894 C1890 0.950 . S
C1895 C1893 1.390 . S
C1895 C1896 1.387 . S
C1895 H1898 0.950 . S
C1896 C1895 1.387 . S
C1896 C1899 1.387 . S
H1897 C1893 0.950 . S
H1898 C1895 0.950 . S
C1899 C1890 1.390 . S
C1899 H1892 0.950 . S
C1899 C1896 1.387 . S
C1900 C1901 1.387 . S
C1900 H1904 0.950 . S
C1900 C1909 1.390 . S
C1901 C1900 1.387 . S
C1901 C1903 1.387 . S
H1902 C1909 0.950 . S
C1903 C1901 1.387 . S
C1903 C1905 1.390 . S
C1903 H1907 0.950 . S
H1904 C1900 0.950 . S
C1905 C1903 1.390 . S
C1905 C1906 1.387 . S
C1905 H1908 0.950 . S
C1906 C1905 1.387 . S
C1906 C1909 1.387 . S
H1907 C1903 0.950 . S
H1908 C1905 0.950 . S
C1909 C1900 1.390 . S
C1909 H1902 0.950 . S
C1909 C1906 1.387 . S
C1910 C1911 1.387 . S
C1910 H1914 0.950 . S
C1910 C1919 1.390 . S
C1911 C1910 1.387 . S
C1911 C1913 1.387 . S
H1912 C1919 0.950 . S
C1913 C1911 1.387 . S
C1913 C1915 1.390 . S
C1913 H1917 0.950 . S
H1914 C1910 0.950 . S
C1915 C1913 1.390 . S
C1915 C1916 1.387 . S
C1915 H1918 0.950 . S
C1916 C1915 1.387 . S
C1916 C1919 1.387 . S
H1917 C1913 0.950 . S
H1918 C1915 0.950 . S
C1919 C1910 1.390 . S
C1919 H1912 0.950 . S
C1919 C1916 1.387 . S
C961 N6 1.351 . S
C966 C117 1.428 . S
C971 C27 2.013 . S
C976 C57 2.004 . S
C981 N66 0.808 . S
C986 N36 0.788 . S
C991 C87 1.300 . S
C996 N96 1.269 . S
C1001 N156 2.073 . S
C1006 C147 2.333 . S
C1011 C177 1.831 . S
C1016 N186 1.577 . S
C1021 N216 1.620 . S
C1026 C207 1.962 . S
C1031 N126 1.183 1_556 S
C1036 C237 1.463 . S
C1041 N254 1.352 . S
C1046 C346 1.428 . S
C1051 C286 2.004 . S
C1056 C256 2.013 . S
C1061 N314 0.808 . S
C1066 N284 0.796 . S
C1071 N344 1.269 . S
C1076 C316 1.300 . S
C1081 C376 2.332 . S
C1086 N404 2.077 . S
C1091 C406 1.831 . S
C1096 N434 1.576 . S
C1101 N464 1.620 . S
C1106 C436 1.962 . S
C1111 N374 1.181 1_554 S
C1116 C466 1.462 . S
C1121 N486 1.350 . S
C1126 C597 1.427 . S
C1131 C507 2.013 . S
C1136 C537 2.003 1_556 S
C1141 N516 0.796 . S
C1146 N546 0.808 . S
C1151 N576 1.270 . S
C1156 C567 1.298 . S
C1161 C627 2.332 . S
C1166 N636 2.077 . S
C1171 N666 1.572 . S
C1176 C657 1.832 . S
C1181 C687 1.962 . S
C1186 N696 1.620 . S
C1191 N606 1.179 . S
C1196 C717 1.462 . S
C1201 C826 1.428 . S
C1206 N734 1.353 . S
C1211 C736 2.013 . S
C1216 C766 2.004 1_554 S
C1221 N794 0.808 . S
C1226 N764 0.794 . S
C1231 C796 1.299 . S
C1236 N824 1.267 . S
C1241 N884 2.077 . S
C1246 C856 2.332 . S
C1251 N914 1.577 . S
C1256 C886 1.831 . S
C1261 N944 1.615 . S
C1266 C916 1.962 . S
C1271 C946 1.462 . S
C1276 N854 1.183 . S
C1281 N816 1.362 . S
C1286 C1 1.373 . S
C1291 C40 1.205 . S
C1296 N246 1.212 1_455 S
C1301 C61 1.443 . S
C1306 C777 1.440 . S
C1311 C91 1.060 . S
C1316 N306 1.047 . S
C1321 C130 1.336 . S
C1326 C897 1.334 . S
C1331 C447 1.801 . S
C1336 C160 1.803 . S
C1341 C957 1.349 . S
C1346 C190 1.350 . S
C1351 C220 1.717 . S
C1356 C387 1.712 . S
C1361 C250 1.374 . S
C1366 N584 1.362 . S
C1371 N14 1.213 1_655 S
C1376 C271 1.208 . S
C1381 C526 1.441 . S
C1386 C310 1.442 . S
C1391 N74 1.044 . S
C1396 C340 1.059 . S
C1401 C646 1.335 . S
C1406 C361 1.337 . S
C1411 C196 1.801 . S
C1416 C391 1.803 . S
C1421 C421 1.350 . S
C1426 C706 1.349 . S
C1431 C451 1.716 . S
C1436 C136 1.711 . S
C1441 C481 1.374 . S
C1446 N336 1.362 . S
C1451 C520 1.208 . S
C1456 N726 1.213 . S
C1461 C541 1.442 . S
C1466 C297 1.441 . S
C1471 C571 1.060 . S
C1476 N786 1.047 . S
C1481 C610 1.337 . S
C1486 C417 1.336 . S
C1491 C640 1.803 . S
C1496 C927 1.801 . S
C1501 C477 1.349 . S
C1506 C670 1.350 . S
C1511 C700 1.716 . S
C1516 C867 1.712 . S
C1521 N104 1.362 . S
C1526 C730 1.374 . S
C1531 N494 1.214 . S
C1536 C751 1.208 . S
C1541 C46 1.441 . S
C1546 C790 1.442 . S
C1551 N554 1.044 . S
C1556 C820 1.059 . S
C1561 C166 1.336 . S
C1566 C841 1.337 . S
C1571 C871 1.803 . S
C1576 C676 1.801 . S
C1581 C901 1.350 . S
C1586 C226 1.349 . S
C1591 C616 1.712 . S
C1596 C931 1.716 . S
C1601 C10 0.907 1_565 S
C1606 C121 0.894 . S
C1611 C31 1.013 . S
C1616 C151 1.015 . S
C1621 C70 1.045 . S
C1626 C181 1.049 . S
C1631 C211 0.857 . S
C1636 C100 0.858 . S
C1641 C370 0.897 . S
C1646 C241 0.907 1_545 S
C1651 C400 1.015 . S
C1656 C280 1.013 . S
C1661 C301 1.046 . S
C1666 C430 1.050 . S
C1671 C331 0.858 . S
C1676 C460 0.857 . S
C1681 C490 0.906 . S
C1686 C601 0.895 . S
C1691 C631 1.015 . S
C1696 C511 1.018 . S
C1701 C661 1.051 . S
C1706 C550 1.046 . S
C1711 C691 0.857 . S
C1716 C580 0.857 . S
C1721 C850 0.895 . S
C1726 C721 0.905 . S
C1731 C760 1.018 . S
C1736 C880 1.015 . S
C1741 C910 1.049 . S
C1746 C781 1.045 . S
C1751 C811 0.858 . S
C1756 C940 0.857 . S
C1761 N224 1.919 . S
C1766 C16 1.945 . S
C1771 N44 0.633 . S
C1776 N134 0.635 . S
C1781 C76 1.944 . S
C1786 N164 1.961 . S
C1791 N194 1.619 . S
C1796 C106 1.639 . S
C1801 C267 1.945 . S
C1806 N456 1.919 . S
C1811 N366 0.638 . S
C1816 N276 0.635 . S
C1821 N396 1.961 . S
C1826 C327 1.944 . S
C1831 C357 1.639 . S
C1836 N426 1.619 . S
C1841 C496 1.946 . S
C1846 N704 1.918 . S
C1851 N614 0.637 . S
C1856 N524 0.634 . S
C1861 N644 1.961 . S
C1866 C556 1.945 . S
C1871 N674 1.619 . S
C1876 C586 1.639 . S
C1881 C747 1.945 . S
C1886 N936 1.920 . S
C1891 N846 0.639 . S
C1896 N756 0.635 . S
C1901 C807 1.945 . S
C1906 N876 1.960 . S
C1911 N906 1.619 . S
C1916 C837 1.639 . S
