# Generated by pormake.
# Topology vck, (7)-cn, num edge types: 1
# Building blocks:
#     Node 0, Type 0, BuildingBlock: NUHQUE_clean_sbu_2, # of connection points: 7
#     Node 1, Type 0, BuildingBlock: NUHQUE_clean_sbu_2, # of connection points: 7
#     Node 2, Type 0, BuildingBlock: NUHQUE_clean_sbu_2, # of connection points: 7
#     Node 3, Type 0, BuildingBlock: NUHQUE_clean_sbu_2, # of connection points: 7
#     Node 4, Type 0, BuildingBlock: NUHQUE_clean_sbu_2, # of connection points: 7
#     Node 5, Type 0, BuildingBlock: NUHQUE_clean_sbu_2, # of connection points: 7
#     Node 6, Type 0, BuildingBlock: NUHQUE_clean_sbu_2, # of connection points: 7
#     Node 7, Type 0, BuildingBlock: NUHQUE_clean_sbu_2, # of connection points: 7
#     Node 8, Type 0, BuildingBlock: NUHQUE_clean_sbu_2, # of connection points: 7
#     Node 9, Type 0, BuildingBlock: NUHQUE_clean_sbu_2, # of connection points: 7
#     Node 10, Type 0, BuildingBlock: NUHQUE_clean_sbu_2, # of connection points: 7
#     Node 11, Type 0, BuildingBlock: NUHQUE_clean_sbu_2, # of connection points: 7
#     Node 12, Type 0, BuildingBlock: NUHQUE_clean_sbu_2, # of connection points: 7
#     Node 13, Type 0, BuildingBlock: NUHQUE_clean_sbu_2, # of connection points: 7
#     Node 14, Type 0, BuildingBlock: NUHQUE_clean_sbu_2, # of connection points: 7
#     Node 15, Type 0, BuildingBlock: NUHQUE_clean_sbu_2, # of connection points: 7
#     Edge 16, Type (0, 0), BuildingBlock: XUDNAN_clean_linker_2, # of connection points: 2
#     Edge 17, Type (0, 0), BuildingBlock: XUDNAN_clean_linker_2, # of connection points: 2
#     Edge 18, Type (0, 0), BuildingBlock: XUDNAN_clean_linker_2, # of connection points: 2
#     Edge 19, Type (0, 0), BuildingBlock: XUDNAN_clean_linker_2, # of connection points: 2
#     Edge 20, Type (0, 0), BuildingBlock: XUDNAN_clean_linker_2, # of connection points: 2
#     Edge 21, Type (0, 0), BuildingBlock: XUDNAN_clean_linker_2, # of connection points: 2
#     Edge 22, Type (0, 0), BuildingBlock: XUDNAN_clean_linker_2, # of connection points: 2
#     Edge 23, Type (0, 0), BuildingBlock: XUDNAN_clean_linker_2, # of connection points: 2
#     Edge 24, Type (0, 0), BuildingBlock: XUDNAN_clean_linker_2, # of connection points: 2
#     Edge 25, Type (0, 0), BuildingBlock: XUDNAN_clean_linker_2, # of connection points: 2
#     Edge 26, Type (0, 0), BuildingBlock: XUDNAN_clean_linker_2, # of connection points: 2
#     Edge 27, Type (0, 0), BuildingBlock: XUDNAN_clean_linker_2, # of connection points: 2
#     Edge 28, Type (0, 0), BuildingBlock: XUDNAN_clean_linker_2, # of connection points: 2
#     Edge 29, Type (0, 0), BuildingBlock: XUDNAN_clean_linker_2, # of connection points: 2
#     Edge 30, Type (0, 0), BuildingBlock: XUDNAN_clean_linker_2, # of connection points: 2
#     Edge 31, Type (0, 0), BuildingBlock: XUDNAN_clean_linker_2, # of connection points: 2
#     Edge 32, Type (0, 0), BuildingBlock: XUDNAN_clean_linker_2, # of connection points: 2
#     Edge 33, Type (0, 0), BuildingBlock: XUDNAN_clean_linker_2, # of connection points: 2
#     Edge 34, Type (0, 0), BuildingBlock: XUDNAN_clean_linker_2, # of connection points: 2
#     Edge 35, Type (0, 0), BuildingBlock: XUDNAN_clean_linker_2, # of connection points: 2
#     Edge 36, Type (0, 0), BuildingBlock: XUDNAN_clean_linker_2, # of connection points: 2
#     Edge 37, Type (0, 0), BuildingBlock: XUDNAN_clean_linker_2, # of connection points: 2
#     Edge 38, Type (0, 0), BuildingBlock: XUDNAN_clean_linker_2, # of connection points: 2
#     Edge 39, Type (0, 0), BuildingBlock: XUDNAN_clean_linker_2, # of connection points: 2
#     Edge 40, Type (0, 0), BuildingBlock: XUDNAN_clean_linker_2, # of connection points: 2
#     Edge 41, Type (0, 0), BuildingBlock: XUDNAN_clean_linker_2, # of connection points: 2
#     Edge 42, Type (0, 0), BuildingBlock: XUDNAN_clean_linker_2, # of connection points: 2
#     Edge 43, Type (0, 0), BuildingBlock: XUDNAN_clean_linker_2, # of connection points: 2
#     Edge 44, Type (0, 0), BuildingBlock: XUDNAN_clean_linker_2, # of connection points: 2
#     Edge 45, Type (0, 0), BuildingBlock: XUDNAN_clean_linker_2, # of connection points: 2
#     Edge 46, Type (0, 0), BuildingBlock: XUDNAN_clean_linker_2, # of connection points: 2
#     Edge 47, Type (0, 0), BuildingBlock: XUDNAN_clean_linker_2, # of connection points: 2
#     Edge 48, Type (0, 0), BuildingBlock: XUDNAN_clean_linker_2, # of connection points: 2
#     Edge 49, Type (0, 0), BuildingBlock: XUDNAN_clean_linker_2, # of connection points: 2
#     Edge 50, Type (0, 0), BuildingBlock: XUDNAN_clean_linker_2, # of connection points: 2
#     Edge 51, Type (0, 0), BuildingBlock: XUDNAN_clean_linker_2, # of connection points: 2
#     Edge 52, Type (0, 0), BuildingBlock: XUDNAN_clean_linker_2, # of connection points: 2
#     Edge 53, Type (0, 0), BuildingBlock: XUDNAN_clean_linker_2, # of connection points: 2
#     Edge 54, Type (0, 0), BuildingBlock: XUDNAN_clean_linker_2, # of connection points: 2
#     Edge 55, Type (0, 0), BuildingBlock: XUDNAN_clean_linker_2, # of connection points: 2
#     Edge 56, Type (0, 0), BuildingBlock: XUDNAN_clean_linker_2, # of connection points: 2
#     Edge 57, Type (0, 0), BuildingBlock: XUDNAN_clean_linker_2, # of connection points: 2
#     Edge 58, Type (0, 0), BuildingBlock: XUDNAN_clean_linker_2, # of connection points: 2
#     Edge 59, Type (0, 0), BuildingBlock: XUDNAN_clean_linker_2, # of connection points: 2
#     Edge 60, Type (0, 0), BuildingBlock: XUDNAN_clean_linker_2, # of connection points: 2
#     Edge 61, Type (0, 0), BuildingBlock: XUDNAN_clean_linker_2, # of connection points: 2
#     Edge 62, Type (0, 0), BuildingBlock: XUDNAN_clean_linker_2, # of connection points: 2
#     Edge 63, Type (0, 0), BuildingBlock: XUDNAN_clean_linker_2, # of connection points: 2
#     Edge 64, Type (0, 0), BuildingBlock: XUDNAN_clean_linker_2, # of connection points: 2
#     Edge 65, Type (0, 0), BuildingBlock: XUDNAN_clean_linker_2, # of connection points: 2
#     Edge 66, Type (0, 0), BuildingBlock: XUDNAN_clean_linker_2, # of connection points: 2
#     Edge 67, Type (0, 0), BuildingBlock: XUDNAN_clean_linker_2, # of connection points: 2
#     Edge 68, Type (0, 0), BuildingBlock: XUDNAN_clean_linker_2, # of connection points: 2
#     Edge 69, Type (0, 0), BuildingBlock: XUDNAN_clean_linker_2, # of connection points: 2
#     Edge 70, Type (0, 0), BuildingBlock: XUDNAN_clean_linker_2, # of connection points: 2
#     Edge 71, Type (0, 0), BuildingBlock: XUDNAN_clean_linker_2, # of connection points: 2
# Relax obj value: 0.174
# Max RMSD: 0.198
# Mean RMSD: 0.198
data_MOF--net-vck--node1-NUHQUE_clean_sbu_2--edge1-XUDNAN_clean_linker_2
_symmetry_space_group_name_H-M    P1
_symmetry_Int_Tables_number       1
_symmetry_cell_setting            triclinic
loop_
_symmetry_equiv_pos_as_xyz
'x, y, z'
_cell_length_a     73.065887
_cell_length_b     49.228353
_cell_length_c     21.555936
_cell_angle_alpha  89.945892
_cell_angle_beta   90.034528
_cell_angle_gamma 90.120481
loop_
_atom_site_label
_atom_site_type_symbol
_atom_site_fract_x
_atom_site_fract_y
_atom_site_fract_z
_atom_type_partial_charge
O0 O 0.54354 0.15538 0.16073 0.0
Tb1 Tb 0.56145 0.1198 0.16078 0.0
Eu2 Eu 0.56782 0.12453 0.98652 0.0
C3 C 0.54262 0.17404 0.11736 0.0
O4 O 0.551 0.17013 0.06446 0.0
C5 C 0.59276 0.15402 0.09811 0.0
O6 O 0.58082 0.08488 0.95629 0.0
C7 C 0.55958 0.15151 0.88643 0.0
C8 C 0.59449 0.07212 0.98344 0.0
O9 O 0.60175 0.08218 0.03424 0.0
C10 C 0.54098 0.08538 0.0613 0.0
C11 C 0.54793 0.1527 0.83034 0.0
C12 C 0.53611 0.17512 0.82388 0.0
C13 C 0.52538 0.17799 0.77063 0.0
C14 C 0.52533 0.15727 0.72675 0.0
C15 C 0.53964 0.13825 0.72529 0.0
C16 C 0.5504 0.13502 0.77923 0.0
O17 O 0.58838 0.13689 0.14254 0.0
O18 O 0.58553 0.15356 0.04207 0.0
O19 O 0.54801 0.12244 0.25034 0.0
O20 O 0.57245 0.09958 0.24425 0.0
C21 C 0.55963 0.10798 0.2814 0.0
O22 O 0.54163 0.10527 0.0207 0.0
O23 O 0.55159 0.08464 0.11032 0.0
O24 O 0.57296 0.13376 0.88895 0.0
O25 O 0.55135 0.15507 0.93992 0.0
H26 H 0.53629 0.19129 0.85802 0.0
H27 H 0.51614 0.15929 0.68751 0.0
H28 H 0.56133 0.12021 0.78006 0.0
O29 O 0.45757 0.86203 0.13861 0.0
Tb30 Tb 0.43737 0.89439 0.14173 0.0
Eu31 Eu 0.43367 0.88706 0.97078 0.0
C32 C 0.45345 0.83832 0.16313 0.0
O33 O 0.43677 0.83404 0.18328 0.0
C34 C 0.41101 0.85243 0.07596 0.0
O35 O 0.41275 0.92116 0.9636 0.0
C36 C 0.44022 0.86695 0.8611 0.0
C37 C 0.41739 0.94664 0.95219 0.0
O38 O 0.43479 0.95319 0.94886 0.0
C39 C 0.45879 0.92792 0.0455 0.0
C40 C 0.45021 0.86779 0.80116 0.0
C41 C 0.46154 0.84564 0.7851 0.0
C42 C 0.46904 0.84364 0.72522 0.0
C43 C 0.46608 0.86486 0.68314 0.0
C44 C 0.4539 0.886 0.69616 0.0
C45 C 0.4461 0.88758 0.75571 0.0
O46 O 0.41286 0.87086 0.11985 0.0
O47 O 0.42034 0.85288 0.02373 0.0
O48 O 0.44997 0.90057 0.23291 0.0
O49 O 0.4217 0.90872 0.22213 0.0
C50 C 0.43524 0.90843 0.26132 0.0
O51 O 0.45905 0.90767 0.00595 0.0
O52 O 0.4459 0.92971 0.08788 0.0
O53 O 0.42754 0.88519 0.87199 0.0
O54 O 0.44914 0.85955 0.91118 0.0
H55 H 0.46344 0.82909 0.81766 0.0
H56 H 0.47195 0.86336 0.63711 0.0
H57 H 0.43629 0.90349 0.76553 0.0
O58 O 0.71601 0.39427 0.40503 0.0
Tb59 Tb 0.69364 0.36549 0.39806 0.0
Eu60 Eu 0.68621 0.36929 0.22717 0.0
C61 C 0.71652 0.41777 0.37625 0.0
O62 O 0.70551 0.4225 0.32938 0.0
C63 C 0.66535 0.40745 0.33277 0.0
O64 O 0.6652 0.33556 0.2262 0.0
C65 C 0.69057 0.38864 0.1161 0.0
C66 C 0.66972 0.31045 0.2117 0.0
O67 O 0.68698 0.30458 0.20154 0.0
C68 C 0.71301 0.33221 0.29892 0.0
C69 C 0.70255 0.39598 0.0634 0.0
C70 C 0.71443 0.41858 0.06736 0.0
C71 C 0.72237 0.42943 0.0136 0.0
C72 C 0.719 0.41721 0.95629 0.0
C73 C 0.70674 0.39552 0.95119 0.0
C74 C 0.69886 0.38447 0.00488 0.0
O75 O 0.67239 0.39552 0.38197 0.0
O76 O 0.66903 0.40072 0.27505 0.0
O77 O 0.7041 0.35696 0.49094 0.0
O78 O 0.67568 0.35407 0.4748 0.0
C79 C 0.68839 0.35222 0.51691 0.0
O80 O 0.71302 0.35381 0.26332 0.0
O81 O 0.70089 0.33001 0.34359 0.0
O82 O 0.68666 0.36296 0.12654 0.0
O83 O 0.69169 0.40335 0.16676 0.0
H84 H 0.71626 0.4292 0.11096 0.0
H85 H 0.7243 0.42666 0.91442 0.0
H86 H 0.68852 0.36876 1.00041 0.0
O87 O 0.30186 0.60319 0.39397 0.0
Tb88 Tb 0.31635 0.64187 0.39454 0.0
Eu89 Eu 0.32074 0.63841 0.22716 0.0
C90 C 0.30833 0.58578 0.43493 0.0
O91 O 0.32348 0.5924 0.46412 0.0
C92 C 0.34479 0.60478 0.32966 0.0
O93 O 0.34077 0.67372 0.22341 0.0
C94 C 0.31584 0.61929 0.1156 0.0
C95 C 0.33455 0.69689 0.20127 0.0
O96 O 0.31705 0.69859 0.18797 0.0
C97 C 0.29251 0.67452 0.30031 0.0
C98 C 0.30234 0.61707 0.06447 0.0
C99 C 0.28868 0.59681 0.06589 0.0
C100 C 0.27636 0.59346 0.01606 0.0
C101 C 0.27756 0.61193 0.96649 0.0
C102 C 0.29279 0.62908 0.95952 0.0
C103 C 0.3048 0.63233 0.00991 0.0
O104 O 0.34281 0.62374 0.37229 0.0
O105 O 0.33516 0.60482 0.27818 0.0
O106 O 0.30186 0.64141 0.48252 0.0
O107 O 0.32817 0.6599 0.47899 0.0
C108 C 0.31437 0.65369 0.51466 0.0
O109 O 0.2937 0.65484 0.25948 0.0
O110 O 0.30422 0.67642 0.34637 0.0
O111 O 0.32319 0.64315 0.12653 0.0
O112 O 0.31247 0.60554 0.16648 0.0
H113 H 0.2884 0.58291 0.10464 0.0
H114 H 0.26736 0.61173 0.93017 0.0
H115 H 0.31665 0.64546 0.0056 0.0
O116 O 0.55125 0.67364 0.65558 0.0
Tb117 Tb 0.56212 0.63275 0.66482 0.0
Eu118 Eu 0.57411 0.62154 0.49044 0.0
C119 C 0.53894 0.6799 0.61359 0.0
O120 O 0.53465 0.66207 0.57075 0.0
C121 C 0.59647 0.65017 0.59912 0.0
O122 O 0.59275 0.58999 0.44859 0.0
C123 C 0.55802 0.64679 0.40034 0.0
C124 C 0.59896 0.56895 0.4798 0.0
O125 O 0.59546 0.56691 0.5394 0.0
C126 C 0.54332 0.59024 0.57647 0.0
C127 C 0.54677 0.65088 0.34418 0.0
C128 C 0.53475 0.67311 0.34398 0.0
C129 C 0.52585 0.68104 0.28939 0.0
C130 C 0.52859 0.66608 0.23516 0.0
C131 C 0.54134 0.64481 0.233 0.0
C132 C 0.55015 0.63675 0.28823 0.0
O133 O 0.58993 0.63001 0.63192 0.0
O134 O 0.59109 0.65296 0.54149 0.0
O135 O 0.56179 0.6468 0.7604 0.0
O136 O 0.56025 0.60439 0.74383 0.0
C137 C 0.56051 0.62312 0.78653 0.0
O138 O 0.55648 0.58851 0.53455 0.0
O139 O 0.54109 0.61135 0.61321 0.0
O140 O 0.57411 0.63519 0.39499 0.0
O141 O 0.55037 0.644 0.4553 0.0
H142 H 0.53307 0.68521 0.38563 0.0
H143 H 0.52188 0.67259 0.1928 0.0
H144 H 0.56039 0.62087 0.28682 0.0
O145 O 0.45166 0.34865 0.64285 0.0
Tb146 Tb 0.43862 0.38762 0.65792 0.0
Eu147 Eu 0.43666 0.38946 0.4851 0.0
C148 C 0.46867 0.34662 0.62398 0.0
O149 O 0.47737 0.36836 0.60442 0.0
C150 C 0.40929 0.36251 0.58321 0.0
O151 O 0.41698 0.42093 0.4466 0.0
C152 C 0.45124 0.36322 0.39294 0.0
C153 C 0.41214 0.44307 0.47693 0.0
O154 O 0.41777 0.44653 0.53427 0.0
C155 C 0.4619 0.43016 0.57521 0.0
C156 C 0.46118 0.36194 0.33304 0.0
C157 C 0.47601 0.34372 0.32706 0.0
C158 C 0.48414 0.33921 0.26886 0.0
C159 C 0.47715 0.35272 0.21695 0.0
C160 C 0.46183 0.36961 0.22095 0.0
C161 C 0.45417 0.3749 0.27945 0.0
O162 O 0.41185 0.38414 0.61709 0.0
O163 O 0.42102 0.35722 0.53886 0.0
O164 O 0.44129 0.37095 0.75116 0.0
O165 O 0.43212 0.41152 0.74119 0.0
C166 C 0.4362 0.39255 0.78087 0.0
O167 O 0.45548 0.42322 0.51995 0.0
O168 O 0.45812 0.41761 0.62765 0.0
O169 O 0.43452 0.37297 0.39255 0.0
O170 O 0.4602 0.36798 0.4449 0.0
H171 H 0.48087 0.33255 0.36716 0.0
H172 H 0.48308 0.34878 0.17173 0.0
H173 H 0.44214 0.38766 0.28253 0.0
O174 O 0.71884 0.90352 0.91914 0.0
Tb175 Tb 0.69458 0.87889 0.90315 0.0
Eu176 Eu 0.67748 0.8721 0.73262 0.0
C177 C 0.72229 0.92621 0.88917 0.0
O178 O 0.71312 0.93198 0.83845 0.0
C179 C 0.66241 0.9107 0.84072 0.0
O180 O 0.66409 0.83176 0.7087 0.0
C181 C 0.68041 0.90205 0.63329 0.0
C182 C 0.66162 0.81311 0.75165 0.0
O183 O 0.66687 0.81845 0.80862 0.0
C184 C 0.70868 0.83848 0.80146 0.0
C185 C 0.69035 0.90649 0.57365 0.0
C186 C 0.7043 0.92635 0.56981 0.0
C187 C 0.71161 0.93461 0.51194 0.0
C188 C 0.70524 0.92133 0.45825 0.0
C189 C 0.69194 0.90085 0.46119 0.0
C190 C 0.68428 0.89381 0.51869 0.0
O191 O 0.67895 0.9125 0.86432 0.0
O192 O 0.65794 0.89138 0.80118 0.0
O193 O 0.70147 0.8706 0.99955 0.0
O194 O 0.67341 0.87259 0.9745 0.0
C195 C 0.68485 0.8691 0.02036 0.0
O196 O 0.70545 0.85598 0.7567 0.0
O197 O 0.70099 0.84078 0.8564 0.0
O198 O 0.6694 0.88099 0.63756 0.0
O199 O 0.68886 0.90765 0.68569 0.0
H200 H 0.70896 0.93587 0.61214 0.0
H201 H 0.70974 0.92776 0.41275 0.0
H202 H 0.67336 0.87891 0.52018 0.0
O203 O 0.30583 0.0859 0.88317 0.0
Tb204 Tb 0.3155 0.12747 0.88891 0.0
Eu205 Eu 0.32556 0.14234 0.71466 0.0
C206 C 0.28886 0.08087 0.89998 0.0
O207 O 0.27805 0.10146 0.91231 0.0
C208 C 0.34786 0.10708 0.81603 0.0
O209 O 0.34443 0.17727 0.68898 0.0
C210 C 0.30977 0.11983 0.62017 0.0
C211 C 0.34709 0.19661 0.73023 0.0
O212 O 0.34045 0.19329 0.78636 0.0
C213 C 0.29397 0.16844 0.80462 0.0
C214 C 0.29777 0.1161 0.56547 0.0
C215 C 0.28431 0.09559 0.56807 0.0
C216 C 0.27391 0.08887 0.51545 0.0
C217 C 0.2765 0.1039 0.46115 0.0
C218 C 0.29097 0.12259 0.45532 0.0
C219 C 0.30136 0.12914 0.50841 0.0
O220 O 0.34344 0.12605 0.85576 0.0
O221 O 0.34113 0.10793 0.75966 0.0
O222 O 0.31219 0.11531 0.98498 0.0
O223 O 0.31667 0.15709 0.96562 0.0
C224 C 0.31376 0.13926 0.00932 0.0
O225 O 0.30648 0.17231 0.76146 0.0
O226 O 0.29307 0.14623 0.83845 0.0
O227 O 0.32514 0.13369 0.61558 0.0
O228 O 0.30269 0.11935 0.67634 0.0
H229 H 0.28265 0.08387 0.6103 0.0
H230 H 0.26764 0.09994 0.42187 0.0
H231 H 0.31274 0.14317 0.50469 0.0
O232 O 0.03596 0.17142 0.65727 0.0
Tb233 Tb 0.05354 0.13677 0.64067 0.0
Eu234 Eu 0.07331 0.11038 0.47823 0.0
C235 C 0.02083 0.17522 0.62572 0.0
O236 O 0.01656 0.15823 0.58101 0.0
C237 C 0.08785 0.15589 0.5717 0.0
O238 O 0.08959 0.07252 0.45669 0.0
C239 C 0.06664 0.13644 0.37518 0.0
C240 C 0.09079 0.05301 0.49818 0.0
O241 O 0.08283 0.05645 0.55223 0.0
C242 C 0.03663 0.08728 0.55472 0.0
C243 C 0.0563 0.13706 0.31536 0.0
C244 C 0.03965 0.1515 0.31151 0.0
C245 C 0.03075 0.15502 0.25422 0.0
C246 C 0.03852 0.14387 0.2007 0.0
C247 C 0.05516 0.12986 0.2025 0.0
C248 C 0.06412 0.12662 0.26004 0.0
O249 O 0.07064 0.16165 0.58174 0.0
O250 O 0.09257 0.13415 0.54007 0.0
O251 O 0.04746 0.13075 0.7386 0.0
O252 O 0.07489 0.12521 0.70837 0.0
C253 C 0.06392 0.12469 0.75636 0.0
O254 O 0.04874 0.08579 0.50924 0.0
O255 O 0.03682 0.1048 0.60111 0.0
O256 O 0.07983 0.11852 0.38135 0.0
O257 O 0.05776 0.14102 0.42737 0.0
H258 H 0.03388 0.16075 0.35266 0.0
H259 H 0.03218 0.14782 0.15609 0.0
H260 H 0.07728 0.11657 0.26138 0.0
O261 O 0.95782 0.85825 0.65696 0.0
Tb262 Tb 0.93611 0.8883 0.66869 0.0
Eu263 Eu 0.92917 0.88882 0.497 0.0
C264 C 0.95421 0.83226 0.66604 0.0
O265 O 0.93706 0.82452 0.67076 0.0
C266 C 0.90555 0.85927 0.60233 0.0
O267 O 0.90677 0.9202 0.48255 0.0
C268 C 0.93662 0.86736 0.38999 0.0
C269 C 0.91039 0.94648 0.48078 0.0
O270 O 0.92697 0.95494 0.49382 0.0
C271 C 0.95459 0.92982 0.57628 0.0
C272 C 0.94959 0.86601 0.33759 0.0
C273 C 0.96058 0.84267 0.33225 0.0
C274 C 0.97133 0.83872 0.27963 0.0
C275 C 0.9726 0.85934 0.23555 0.0
C276 C 0.95926 0.87973 0.23363 0.0
C277 C 0.94833 0.88401 0.28651 0.0
O278 O 0.90881 0.88114 0.63466 0.0
O279 O 0.91444 0.85537 0.55026 0.0
O280 O 0.933 0.87352 0.76354 0.0
O281 O 0.93643 0.91578 0.74861 0.0
C282 C 0.93431 0.89705 0.79034 0.0
O283 O 0.9541 0.91302 0.52865 0.0
O284 O 0.94529 0.92571 0.6275 0.0
O285 O 0.92639 0.88908 0.39625 0.0
O286 O 0.94204 0.85703 0.44315 0.0
H287 H 0.95935 0.82632 0.36579 0.0
H288 H 0.98115 0.85589 0.19513 0.0
H289 H 0.93784 0.89952 0.28555 0.0
O290 O 0.21155 0.4076 0.88901 0.0
Tb291 Tb 0.1934 0.37317 0.90319 0.0
Eu292 Eu 0.18451 0.36474 0.72744 0.0
C293 C 0.20532 0.43258 0.89126 0.0
O294 O 0.18763 0.4367 0.88939 0.0
C295 C 0.16018 0.39337 0.8326 0.0
O296 O 0.16668 0.33242 0.68413 0.0
C297 C 0.19978 0.3915 0.63801 0.0
C298 C 0.15794 0.31384 0.71655 0.0
O299 O 0.15822 0.31501 0.77742 0.0
C300 C 0.21175 0.32652 0.8185 0.0
C301 C 0.21067 0.396 0.58124 0.0
C302 C 0.22334 0.41748 0.58146 0.0
C303 C 0.23205 0.42579 0.52655 0.0
C304 C 0.22824 0.41181 0.47151 0.0
C305 C 0.21491 0.3913 0.46938 0.0
C306 C 0.20641 0.38294 0.52477 0.0
O307 O 0.1657 0.37352 0.86819 0.0
O308 O 0.1668 0.39564 0.77643 0.0
O309 O 0.19138 0.39024 0.9964 0.0
O310 O 0.19304 0.34747 0.98632 0.0
C311 C 0.19196 0.36726 0.02599 0.0
O312 O 0.20274 0.3312 0.76618 0.0
O313 O 0.21116 0.34166 0.86888 0.0
O314 O 0.18382 0.37936 0.63303 0.0
O315 O 0.20778 0.38847 0.69245 0.0
H316 H 0.22557 0.42872 0.62403 0.0
H317 H 0.23531 0.41743 0.42921 0.0
H318 H 0.1958 0.36753 0.52326 0.0
O319 O 0.79252 0.6112 0.88939 0.0
Tb320 Tb 0.81069 0.64569 0.90124 0.0
Eu321 Eu 0.81985 0.64066 0.72735 0.0
C322 C 0.79686 0.58813 0.91658 0.0
O323 O 0.8132 0.5856 0.94137 0.0
C324 C 0.84284 0.61732 0.84224 0.0
O325 O 0.83799 0.67715 0.70781 0.0
C326 C 0.81348 0.61409 0.62543 0.0
C327 C 0.84107 0.69529 0.75126 0.0
O328 O 0.83468 0.69071 0.80713 0.0
C329 C 0.79144 0.68112 0.79814 0.0
C330 C 0.80202 0.61169 0.56908 0.0
C331 C 0.79035 0.58905 0.56373 0.0
C332 C 0.78018 0.58421 0.50928 0.0
C333 C 0.78189 0.60284 0.46025 0.0
C334 C 0.79445 0.62427 0.46306 0.0
C335 C 0.8043 0.62909 0.51779 0.0
O336 O 0.83859 0.63997 0.87059 0.0
O337 O 0.83522 0.61142 0.78887 0.0
O338 O 0.81978 0.63639 0.99554 0.0
O339 O 0.8021 0.66981 0.98169 0.0
C340 C 0.81091 0.65573 0.02294 0.0
O341 O 0.79386 0.66275 0.75427 0.0
O342 O 0.80006 0.68072 0.85185 0.0
O343 O 0.82546 0.63396 0.62916 0.0
O344 O 0.80568 0.60828 0.67873 0.0
H345 H 0.79004 0.57451 0.60139 0.0
H346 H 0.7741 0.60026 0.41793 0.0
H347 H 0.81427 0.64541 0.51914 0.0
O348 O 0.02981 0.65698 0.16109 0.0
Tb349 Tb 0.0517 0.62836 0.15016 0.0
Eu350 Eu 0.06943 0.60877 0.99114 0.0
C351 C 0.02347 0.67192 0.1158 0.0
O352 O 0.02871 0.6676 0.0584 0.0
C353 C 0.08633 0.65253 0.08561 0.0
O354 O 0.08834 0.57296 0.97573 0.0
C355 C 0.06317 0.6384 0.89248 0.0
C356 C 0.0875 0.5565 0.92761 0.0
O357 O 0.07549 0.56099 0.88345 0.0
C358 C 0.03349 0.58092 0.06294 0.0
C359 C 0.0523 0.64514 0.83543 0.0
C360 C 0.04018 0.6675 0.83693 0.0
C361 C 0.03136 0.67664 0.78273 0.0
C362 C 0.03461 0.66312 0.72678 0.0
C363 C 0.04758 0.64216 0.72225 0.0
C364 C 0.05609 0.63277 0.77729 0.0
O365 O 0.06982 0.65776 0.10592 0.0
O366 O 0.08974 0.63008 0.05456 0.0
O367 O 0.04864 0.63954 0.24713 0.0
O368 O 0.06563 0.60593 0.22602 0.0
C369 C 0.05892 0.62082 0.27088 0.0
O370 O 0.04513 0.58218 0.016 0.0
O371 O 0.03396 0.59664 0.11269 0.0
O372 O 0.07396 0.61706 0.89251 0.0
O373 O 0.05618 0.6437 0.94755 0.0
H374 H 0.03804 0.67843 0.87993 0.0
H375 H 0.02775 0.67026 0.68529 0.0
H376 H 0.06632 0.61694 0.77437 0.0
O377 O 0.9627 0.33449 0.19132 0.0
Tb378 Tb 0.95203 0.37541 0.18471 0.0
Eu379 Eu 0.92753 0.40012 0.99044 0.0
C380 C 0.96002 0.31548 0.14972 0.0
O381 O 0.95085 0.32099 0.09889 0.0
C382 C 0.91804 0.36018 0.10007 0.0
O383 O 0.90853 0.43619 0.98184 0.0
C384 C 0.94176 0.38553 0.88763 0.0
C385 C 0.91539 0.46089 0.98042 0.0
O386 O 0.93315 0.46422 0.9849 0.0
C387 C 0.96289 0.41407 0.08395 0.0
C388 C 0.94988 0.37719 0.82902 0.0
C389 C 0.95494 0.35 0.81915 0.0
C390 C 0.96197 0.34217 0.76145 0.0
C391 C 0.96402 0.36157 0.71456 0.0
C392 C 0.95867 0.38857 0.72391 0.0
C393 C 0.95187 0.39642 0.78168 0.0
O394 O 0.92699 0.3796 0.12928 0.0
O395 O 0.91375 0.36474 0.04139 0.0
O396 O 0.96466 0.39264 0.26638 0.0
O397 O 0.93568 0.38705 0.26502 0.0
C398 C 0.94957 0.39588 0.29703 0.0
O399 O 0.95 0.3987 0.06067 0.0
O400 O 0.96902 0.40561 0.13743 0.0
O401 O 0.94796 0.40666 0.91869 0.0
O402 O 0.92728 0.37315 0.91068 0.0
H403 H 0.95295 0.33498 0.85534 0.0
H404 H 0.96868 0.35509 0.66913 0.0
H405 H 0.94734 0.41715 0.78885 0.0
O406 O 0.20309 0.91035 0.38966 0.0
Tb407 Tb 0.18966 0.87067 0.39672 0.0
Eu408 Eu 0.17797 0.86743 0.22349 0.0
C409 C 0.19605 0.92951 0.42499 0.0
O410 O 0.18022 0.92456 0.45149 0.0
C411 C 0.15588 0.89308 0.33412 0.0
O412 O 0.16055 0.82949 0.20589 0.0
C413 C 0.18644 0.89362 0.12324 0.0
C414 C 0.16775 0.80969 0.17268 0.0
O415 O 0.18439 0.81324 0.15107 0.0
C416 C 0.20808 0.83054 0.30003 0.0
C417 C 0.19892 0.8942 0.06943 0.0
C418 C 0.21459 0.91096 0.0701 0.0
C419 C 0.22506 0.91448 0.01617 0.0
C420 C 0.21989 0.90127 0.96152 0.0
C421 C 0.20387 0.88569 0.9596 0.0
C422 C 0.19365 0.88173 0.01374 0.0
O423 O 0.16185 0.87138 0.36248 0.0
O424 O 0.16142 0.89769 0.27765 0.0
O425 O 0.1728 0.8701 0.47964 0.0
O426 O 0.20096 0.86046 0.48804 0.0
C427 C 0.18569 0.86364 0.51802 0.0
O428 O 0.20423 0.8465 0.25252 0.0
O429 O 0.20152 0.83422 0.35637 0.0
O430 O 0.17365 0.87476 0.12506 0.0
O431 O 0.19358 0.89907 0.17777 0.0
H432 H 0.21811 0.92241 0.11135 0.0
H433 H 0.22727 0.90551 0.91889 0.0
H434 H 0.18096 0.8703 0.01125 0.0
O435 O 0.792 0.10968 0.38468 0.0
Tb436 Tb 0.81509 0.13789 0.38911 0.0
Eu437 Eu 0.82681 0.14576 0.21557 0.0
C438 C 0.79418 0.08316 0.38169 0.0
O439 O 0.81036 0.07321 0.36891 0.0
C440 C 0.84373 0.10489 0.31779 0.0
O441 O 0.84916 0.17825 0.22237 0.0
C442 C 0.82311 0.13231 0.09977 0.0
C443 C 0.84498 0.20317 0.23986 0.0
O444 O 0.8284 0.20787 0.26052 0.0
C445 C 0.79484 0.17468 0.29205 0.0
C446 C 0.80882 0.12515 0.05422 0.0
C447 C 0.79824 0.10112 0.059 0.0
C448 C 0.78564 0.09414 0.01188 0.0
C449 C 0.78317 0.1125 0.96268 0.0
C450 C 0.79527 0.13413 0.95363 0.0
C451 C 0.80754 0.14111 1.00055 0.0
O452 O 0.84199 0.12416 0.35925 0.0
O453 O 0.83633 0.10736 0.26264 0.0
O454 O 0.81522 0.12401 0.48478 0.0
O455 O 0.81845 0.16617 0.46675 0.0
C456 C 0.81726 0.14777 0.50982 0.0
O457 O 0.79847 0.15756 0.24699 0.0
O458 O 0.80307 0.17359 0.34622 0.0
O459 O 0.82351 0.1576 0.11885 0.0
O460 O 0.82667 0.11477 0.14384 0.0
H461 H 0.80054 0.08739 0.09744 0.0
H462 H 0.77313 0.10853 0.92684 0.0
H463 H 0.81709 0.15771 0.99321 0.0
H464 H 0.5177 0.1874 0.20882 0.0
H465 H 0.55079 0.22248 0.06175 0.0
H466 H 0.54318 0.26832 0.0989 0.0
H467 H 0.4814 0.23711 0.19068 0.0
H468 H 0.47572 0.2376 0.27204 0.0
H469 H 0.48522 0.2074 0.23791 0.0
H470 H 0.51109 0.20808 0.32032 0.0
H471 H 0.50185 0.23871 0.35358 0.0
H472 H 0.52531 0.23787 0.32787 0.0
H473 H 0.53382 0.31003 0.15478 0.0
H474 H 0.51565 0.34607 0.2041 0.0
H475 H 0.48452 0.28528 0.30496 0.0
C476 C 0.52329 0.20476 0.18438 0.0
C477 C 0.53536 0.20128 0.13351 0.0
C478 C 0.54192 0.22451 0.10167 0.0
C479 C 0.53777 0.25069 0.12271 0.0
C480 C 0.52647 0.25341 0.17433 0.0
C481 C 0.51867 0.2312 0.20322 0.0
C482 C 0.50512 0.24014 0.25272 0.0
C483 C 0.48572 0.22997 0.2374 0.0
C484 C 0.51122 0.23062 0.31745 0.0
C485 C 0.50656 0.27084 0.24677 0.0
C486 C 0.51948 0.27787 0.20276 0.0
C487 C 0.52349 0.30481 0.18874 0.0
C488 C 0.51318 0.32514 0.21734 0.0
C489 C 0.49857 0.3185 0.25786 0.0
C490 C 0.49574 0.29101 0.27482 0.0
H491 H 0.45096 0.78324 0.15796 0.0
H492 H 0.48777 0.84901 0.20678 0.0
H493 H 0.50962 0.81576 0.25104 0.0
H494 H 0.45786 0.74148 0.28738 0.0
H495 H 0.45777 0.70989 0.24516 0.0
H496 H 0.44531 0.73865 0.21562 0.0
H497 H 0.46309 0.73599 0.11161 0.0
H498 H 0.47528 0.7068 0.14036 0.0
H499 H 0.48776 0.73599 0.11265 0.0
H500 H 0.52611 0.77544 0.29742 0.0
H501 H 0.53892 0.7305 0.3246 0.0
H502 H 0.49204 0.69112 0.23989 0.0
C503 C 0.46378 0.79053 0.177 0.0
C504 C 0.46779 0.81855 0.17901 0.0
C505 C 0.48463 0.82752 0.20421 0.0
C506 C 0.49699 0.80884 0.22998 0.0
C507 C 0.4924 0.78133 0.2289 0.0
C508 C 0.47645 0.77215 0.20139 0.0
C509 C 0.47506 0.7415 0.20401 0.0
C510 C 0.45799 0.73236 0.24021 0.0
C511 C 0.47532 0.72936 0.13826 0.0
C512 C 0.49244 0.73488 0.23897 0.0
C513 C 0.50218 0.75813 0.25345 0.0
C514 C 0.51865 0.75709 0.28599 0.0
C515 C 0.5257 0.73154 0.30195 0.0
C516 C 0.51635 0.70746 0.28478 0.0
C517 C 0.49936 0.70926 0.25396 0.0
H518 H 0.73272 0.46226 0.32148 0.0
H519 H 0.72182 0.42447 0.49971 0.0
H520 H 0.73565 0.4637 0.55312 0.0
H521 H 0.77716 0.48901 0.36435 0.0
H522 H 0.77447 0.51979 0.31989 0.0
H523 H 0.76299 0.48917 0.29584 0.0
H524 H 0.73196 0.51467 0.29779 0.0
H525 H 0.74338 0.54525 0.32274 0.0
H526 H 0.72481 0.53147 0.36797 0.0
H527 H 0.74832 0.50853 0.58726 0.0
H528 H 0.76374 0.55245 0.60029 0.0
H529 H 0.77111 0.55723 0.39987 0.0
C530 C 0.73337 0.46226 0.37168 0.0
C531 C 0.72626 0.4404 0.40649 0.0
C532 C 0.72738 0.44094 0.47213 0.0
C533 C 0.73505 0.46322 0.50296 0.0
C534 C 0.74183 0.48457 0.46745 0.0
C535 C 0.74147 0.48405 0.40329 0.0
C536 C 0.75061 0.50903 0.37643 0.0
C537 C 0.76731 0.50128 0.33682 0.0
C538 C 0.73687 0.52611 0.33902 0.0
C539 C 0.75624 0.52345 0.43553 0.0
C540 C 0.75059 0.50939 0.4874 0.0
C541 C 0.75324 0.51948 0.54701 0.0
C542 C 0.76226 0.54445 0.55386 0.0
C543 C 0.76916 0.55872 0.50148 0.0
C544 C 0.76594 0.54774 0.44152 0.0
H545 H 0.28037 0.55694 0.37687 0.0
H546 H 0.31194 0.56214 0.54739 0.0
H547 H 0.29502 0.52344 0.59022 0.0
H548 H 0.23701 0.53673 0.44813 0.0
H549 H 0.23118 0.51306 0.38747 0.0
H550 H 0.24509 0.54235 0.37012 0.0
H551 H 0.27017 0.51089 0.32495 0.0
H552 H 0.25632 0.48157 0.34254 0.0
H553 H 0.27933 0.48394 0.37231 0.0
H554 H 0.27621 0.48314 0.61398 0.0
H555 H 0.25605 0.44301 0.61668 0.0
H556 H 0.2355 0.46402 0.43343 0.0
C557 C 0.28359 0.54996 0.42324 0.0
C558 C 0.29758 0.56247 0.45847 0.0
C559 C 0.30148 0.55271 0.519 0.0
C560 C 0.29187 0.53078 0.5441 0.0
C561 C 0.2784 0.51862 0.50817 0.0
C562 C 0.27419 0.52772 0.44909 0.0
C563 C 0.2595 0.51002 0.41996 0.0
C564 C 0.24217 0.52654 0.40561 0.0
C565 C 0.26677 0.49576 0.36148 0.0
C566 C 0.25622 0.48983 0.47204 0.0
C567 C 0.2673 0.49518 0.52235 0.0
C568 C 0.2673 0.47881 0.57511 0.0
C569 C 0.25571 0.45612 0.57636 0.0
C570 C 0.24417 0.45012 0.52534 0.0
C571 C 0.24436 0.46755 0.47289 0.0
H572 H 0.49417 0.80916 0.78312 0.0
H573 H 0.46245 0.81951 0.61406 0.0
H574 H 0.47815 0.78084 0.56713 0.0
H575 H 0.53624 0.7879 0.71498 0.0
H576 H 0.54106 0.76168 0.77108 0.0
H577 H 0.52761 0.79074 0.79307 0.0
H578 H 0.50136 0.75905 0.82908 0.0
H579 H 0.51481 0.72988 0.80772 0.0
H580 H 0.49218 0.73426 0.77594 0.0
H581 H 0.49751 0.74287 0.53537 0.0
H582 H 0.51754 0.70298 0.52483 0.0
H583 H 0.53606 0.71394 0.71478 0.0
C584 C 0.49048 0.80313 0.73646 0.0
C585 C 0.47756 0.81817 0.70158 0.0
C586 C 0.47286 0.8092 0.64099 0.0
C587 C 0.4816 0.78706 0.61384 0.0
C588 C 0.4947 0.77338 0.64825 0.0
C589 C 0.49891 0.78051 0.70863 0.0
C590 C 0.513 0.76113 0.73553 0.0
C591 C 0.53052 0.77628 0.75478 0.0
C592 C 0.50485 0.74513 0.79031 0.0
C593 C 0.51636 0.74275 0.68 0.0
C594 C 0.50558 0.7503 0.63036 0.0
C595 C 0.50598 0.73656 0.57395 0.0
C596 C 0.51743 0.71397 0.56834 0.0
C597 C 0.52839 0.70539 0.61876 0.0
C598 C 0.52799 0.72021 0.67513 0.0
H599 H 0.46117 0.30698 0.70971 0.0
H600 H 0.49936 0.32934 0.56407 0.0
H601 H 0.51815 0.28912 0.58911 0.0
H602 H 0.49535 0.2849 0.81782 0.0
H603 H 0.48188 0.25736 0.8488 0.0
H604 H 0.47073 0.28706 0.81793 0.0
H605 H 0.45199 0.25699 0.74222 0.0
H606 H 0.46289 0.22719 0.77354 0.0
H607 H 0.4638 0.23387 0.69135 0.0
H608 H 0.53332 0.24846 0.63172 0.0
H609 H 0.5432 0.20661 0.68447 0.0
H610 H 0.4955 0.20973 0.8039 0.0
C611 C 0.47331 0.30312 0.68237 0.0
C612 C 0.47879 0.32112 0.63453 0.0
C613 C 0.49496 0.31577 0.60073 0.0
C614 C 0.50571 0.29305 0.61476 0.0
C615 C 0.5002 0.27614 0.66319 0.0
C616 C 0.48436 0.28073 0.69637 0.0
C617 C 0.48189 0.25968 0.74732 0.0
C618 C 0.4825 0.27306 0.81177 0.0
C619 C 0.46409 0.24347 0.73801 0.0
C620 C 0.49866 0.24219 0.73664 0.0
C621 C 0.50908 0.25241 0.68828 0.0
C622 C 0.52528 0.24024 0.66951 0.0
C623 C 0.53081 0.21661 0.69991 0.0
C624 C 0.52009 0.20517 0.7481 0.0
C625 C 0.50394 0.21829 0.76751 0.0
H626 H 0.73811 0.97066 0.83461 0.0
H627 H 0.73199 0.92966 0.01167 0.0
H628 H 0.74784 0.96769 0.0639 0.0
H629 H 0.78366 0.99814 0.86448 0.0
H630 H 0.77885 0.0293 0.82362 0.0
H631 H 0.7675 0.99834 0.80121 0.0
H632 H 0.73608 0.02201 0.81558 0.0
H633 H 0.74739 0.05285 0.83911 0.0
H634 H 0.73062 0.03731 0.8892 0.0
H635 H 0.76182 0.01319 0.09778 0.0
H636 H 0.77569 0.05886 0.10768 0.0
H637 H 0.776 0.0657 0.90632 0.0
C638 C 0.74036 0.96947 0.8842 0.0
C639 C 0.73386 0.94719 0.91894 0.0
C640 C 0.73701 0.94644 0.9839 0.0
C641 C 0.74589 0.96803 0.01412 0.0
C642 C 0.75181 0.99 0.97861 0.0
C643 C 0.74947 0.99055 0.91488 0.0
C644 C 0.75711 0.01635 0.88711 0.0
C645 C 0.77271 0.01015 0.84144 0.0
C646 C 0.7419 0.03311 0.85593 0.0
C647 C 0.7641 0.03021 0.94506 0.0
C648 C 0.76064 0.01512 0.99763 0.0
C649 C 0.76487 0.02499 0.05668 0.0
C650 C 0.77286 0.05098 0.06182 0.0
C651 C 0.77684 0.06662 0.00811 0.0
C652 C 0.77264 0.05541 0.94914 0.0
H653 H 0.21843 0.96823 0.01494 0.0
H654 H 0.26202 0.90916 1.00114 0.0
H655 H 0.28385 0.94589 0.97299 0.0
H656 H 0.23106 1.00446 0.883 0.0
H657 H 0.22469 0.03735 0.91249 0.0
H658 H 0.21328 0.00733 0.94055 0.0
H659 H 0.22194 0.01965 0.05372 0.0
H660 H 0.23307 0.05004 0.02621 0.0
H661 H 0.24556 0.02609 0.07315 0.0
H662 H 0.30005 0.98878 0.93754 0.0
H663 H 0.30968 0.03445 0.90214 0.0
H664 H 0.25468 0.06442 0.9349 0.0
C665 C 0.23274 0.9633 0.00828 0.0
C666 C 0.23883 0.93623 0.01189 0.0
C667 C 0.25737 0.93003 1.00001 0.0
C668 C 0.26976 0.95069 0.98369 0.0
C669 C 0.2632 0.97721 0.97866 0.0
C670 C 0.24513 0.98353 0.99092 0.0
C671 C 0.24107 0.01302 0.97704 0.0
C672 C 0.22668 0.01568 0.9252 0.0
C673 C 0.23507 0.02809 0.03606 0.0
C674 C 0.25969 0.02239 0.95517 0.0
C675 C 0.2723 1.00152 0.9564 0.0
C676 C 0.29031 1.00531 0.93672 0.0
C677 C 0.29561 0.03125 0.91625 0.0
C678 C 0.28292 0.05297 0.91558 0.0
C679 C 0.26472 0.04827 0.93485 0.0
H680 H 0.98869 0.30852 0.80724 0.0
H681 H 0.94358 0.31258 0.67699 0.0
H682 H 0.95271 0.2685 0.63253 0.0
H683 H 0.02082 0.28308 0.7068 0.0
H684 H 0.03184 0.26007 0.76007 0.0
H685 H 0.02034 0.28972 0.78905 0.0
H686 H 1.00014 0.25982 0.86028 0.0
H687 H 0.0118 0.22998 0.83246 0.0
H688 H 0.98722 0.23213 0.82734 0.0
H689 H 0.96872 0.22799 0.59313 0.0
H690 H 0.98944 0.19038 0.56609 0.0
H691 H 0.02441 0.21163 0.72183 0.0
C692 C 0.98041 0.29947 0.77101 0.0
C693 C 0.96533 0.31352 0.74576 0.0
C694 C 0.95504 0.30175 0.69712 0.0
C695 C 0.96015 0.27683 0.67156 0.0
C696 C 0.97549 0.26387 0.6956 0.0
C697 C 0.98533 0.27444 0.7449 0.0
C698 C 0.00192 0.25702 0.75907 0.0
C699 C 0.01978 0.27347 0.75336 0.0
C700 C 1.00016 0.24396 0.82362 0.0
C701 C 1.00028 0.23589 0.70811 0.0
C702 C 0.98481 0.24011 0.67262 0.0
C703 C 0.98071 0.22409 0.62121 0.0
C704 C 0.99261 0.20285 0.60605 0.0
C705 C 0.00849 0.19793 0.64192 0.0
C706 C 0.01233 0.21476 0.69362 0.0
H707 H 0.99761 0.68572 0.72996 0.0
H708 H 0.04177 0.72625 0.82758 0.0
H709 H 0.02733 0.77072 0.80612 0.0
H710 H 0.99273 0.73367 0.60985 0.0
H711 H 0.96813 0.73157 0.60551 0.0
H712 H 0.98115 0.70278 0.632 0.0
H713 H 0.96254 0.70148 0.73427 0.0
H714 H 0.9492 0.72992 0.70758 0.0
H715 H 0.96093 0.73172 0.78106 0.0
H716 H 0.00955 0.81118 0.764 0.0
H717 H 0.98728 0.84384 0.72023 0.0
H718 H 0.95399 0.77676 0.65432 0.0
C719 C 0.00401 0.70393 0.748 0.0
C720 C 0.02077 0.7025 0.7809 0.0
C721 C 0.0288 0.7268 0.80328 0.0
C722 C 0.02079 0.75218 0.79064 0.0
C723 C 0.00463 0.75293 0.75612 0.0
C724 C 0.99611 0.72938 0.73635 0.0
C725 C 0.97885 0.73571 0.69996 0.0
C726 C 0.98031 0.72531 0.63286 0.0
C727 C 0.96188 0.72402 0.73269 0.0
C728 C 0.97901 0.7665 0.702 0.0
C729 C 0.99414 0.77608 0.73376 0.0
C730 C 0.99756 0.80386 0.73964 0.0
C731 C 0.98493 0.82228 0.71404 0.0
C732 C 0.96891 0.81289 0.68371 0.0
C733 C 0.9661 0.78458 0.67725 0.0
H734 H 0.26115 0.57035 0.90962 0.0
H735 H 0.26332 0.55932 0.11036 0.0
H736 H 0.24727 0.51587 0.09843 0.0
H737 H 0.21382 0.54528 0.899 0.0
H738 H 0.21773 0.53128 0.82294 0.0
H739 H 0.2301 0.56109 0.84748 0.0
H740 H 0.26062 0.53669 0.82329 0.0
H741 H 0.24847 0.50651 0.80022 0.0
H742 H 0.2656 0.50468 0.86029 0.0
H743 H 0.23301 0.47158 0.06327 0.0
H744 H 0.21661 0.43418 0.01023 0.0
H745 H 0.21942 0.47829 0.83647 0.0
C746 C 0.25791 0.55981 0.95215 0.0
C747 C 0.2641 0.56892 0.01117 0.0
C748 C 0.25958 0.55298 0.0641 0.0
C749 C 0.25022 0.52818 0.058 0.0
C750 C 0.24479 0.51991 0.99903 0.0
C751 C 0.24792 0.53575 0.94741 0.0
C752 C 0.23972 0.52318 0.88955 0.0
C753 C 0.22443 0.54128 0.8632 0.0
C754 C 0.25449 0.51743 0.84048 0.0
C755 C 0.23203 0.49717 0.91634 0.0
C756 C 0.23529 0.49553 0.97951 0.0
C757 C 0.23014 0.47287 0.01409 0.0
C758 C 0.22098 0.4517 0.98358 0.0
C759 C 0.21688 0.45357 0.91955 0.0
C760 C 0.22249 0.47651 0.88546 0.0
H761 H 0.80151 0.53848 0.97225 0.0
H762 H 0.76025 0.59073 0.88999 0.0
H763 H 0.73634 0.55756 0.91877 0.0
H764 H 0.78281 0.476 0.92168 0.0
H765 H 0.78851 0.45772 0.99156 0.0
H766 H 0.80212 0.48643 0.96808 0.0
H767 H 0.79648 0.50885 0.07519 0.0
H768 H 0.7826 0.4803 0.09855 0.0
H769 H 0.77334 0.51417 0.10142 0.0
H770 H 0.71708 0.51908 0.95468 0.0
H771 H 0.70402 0.47437 0.98202 0.0
H772 H 0.75763 0.44601 0.03798 0.0
C773 C 0.78745 0.54296 0.96017 0.0
C774 C 0.78275 0.56723 0.92883 0.0
C775 C 0.7642 0.57226 0.91376 0.0
C776 C 0.7505 0.55368 0.93048 0.0
C777 C 0.75558 0.53022 0.9623 0.0
C778 C 0.77361 0.5246 0.97636 0.0
C779 C 0.77547 0.49713 0.00767 0.0
C780 C 0.78796 0.4782 0.96997 0.0
C781 C 0.78238 0.50031 0.07468 0.0
C782 C 0.75573 0.48769 0.0066 0.0
C783 C 0.74445 0.50751 0.98191 0.0
C784 C 0.72573 0.50349 0.97447 0.0
C785 C 0.71842 0.47818 0.99044 0.0
C786 C 0.72985 0.45718 0.01276 0.0
C787 C 0.74865 0.46208 0.02227 0.0
H788 H 0.02883 0.7047 0.21458 0.0
H789 H 0.99409 0.69291 0.05353 0.0
H790 H 0.9752 0.73225 0.08597 0.0
H791 H 0.99419 0.72723 0.32292 0.0
H792 H 0.00871 0.75255 0.35805 0.0
H793 H 0.01862 0.72227 0.32537 0.0
H794 H 0.03958 0.75163 0.25508 0.0
H795 H 0.0299 0.78195 0.288 0.0
H796 H 0.02949 0.77692 0.20518 0.0
H797 H 0.9596 0.77066 0.13833 0.0
H798 H 0.95144 0.81244 0.1945 0.0
H799 H 0.99871 0.80299 0.31414 0.0
C800 C 0.01711 0.7103 0.18652 0.0
C801 C 0.01255 0.69571 0.13226 0.0
C802 C 0.99758 0.70388 0.09546 0.0
C803 C 0.98677 0.72595 0.11381 0.0
C804 C 0.99147 0.73966 0.16821 0.0
C805 C 0.00653 0.73259 0.20326 0.0
C806 C 0.00958 0.75218 0.25653 0.0
C807 C 0.00766 0.73768 0.31943 0.0
C808 C 0.02824 0.76652 0.25081 0.0
C809 C 0.99391 0.7716 0.24566 0.0
C810 C 0.98338 0.76343 0.19552 0.0
C811 C 0.96788 0.7775 0.17696 0.0
C812 C 0.96342 0.80116 0.20892 0.0
C813 C 0.97478 0.81103 0.25721 0.0
C814 C 0.98994 0.79578 0.27712 0.0
H815 H 0.98547 0.30048 0.23614 0.0
H816 H 0.95067 0.26823 0.09052 0.0
H817 H 0.96173 0.22189 0.11407 0.0
H818 H 0.02338 0.25929 0.20254 0.0
H819 H 0.03038 0.25539 0.28225 0.0
H820 H 0.01803 0.28521 0.25868 0.0
H821 H 0.99364 0.27536 0.34315 0.0
H822 H 0.0058 0.24517 0.36625 0.0
H823 H 0.98207 0.24298 0.34397 0.0
H824 H 0.97748 0.17963 0.15051 0.0
H825 H 0.99991 0.14551 0.18553 0.0
H826 H 0.02582 0.20591 0.30295 0.0
C827 C 0.97998 0.28363 0.20967 0.0
C828 C 0.96696 0.28783 0.16211 0.0
C829 C 0.96047 0.26537 0.12759 0.0
C830 C 0.9666 0.23901 0.14092 0.0
C831 C 0.97934 0.23555 0.18852 0.0
C832 C 0.98616 0.25731 0.22174 0.0
C833 C 1.00108 0.24852 0.26626 0.0
C834 C 0.01929 0.26295 0.25151 0.0
C835 C 0.99529 0.2533 0.33392 0.0
C836 C 0.00197 0.21848 0.25167 0.0
C837 C 0.98898 0.21132 0.20789 0.0
C838 C 0.98765 0.18498 0.18496 0.0
C839 C 1.00044 0.16575 0.20518 0.0
C840 C 0.01463 0.17307 0.24691 0.0
C841 C 0.01494 0.19955 0.27206 0.0
H842 H 0.22378 0.95883 0.36532 0.0
H843 H 0.19298 0.95326 0.53717 0.0
H844 H 0.21013 0.99188 0.57958 0.0
H845 H 0.26743 0.97909 0.43321 0.0
H846 H 0.27283 1.00319 0.37291 0.0
H847 H 0.25879 0.97404 0.35568 0.0
H848 H 0.2334 1.00581 0.31357 0.0
H849 H 0.24741 0.03498 0.33097 0.0
H850 H 0.22463 0.03246 0.36247 0.0
H851 H 0.22996 0.03133 0.60453 0.0
H852 H 0.25082 0.07086 0.60773 0.0
H853 H 0.269 0.05198 0.42081 0.0
C854 C 0.22077 0.96572 0.41189 0.0
C855 C 0.20696 0.95299 0.44774 0.0
C856 C 0.20332 0.96277 0.50838 0.0
C857 C 0.21306 0.98466 0.53324 0.0
C858 C 0.22639 0.99696 0.49688 0.0
C859 C 0.23024 0.98807 0.43738 0.0
C860 C 0.24476 1.00602 0.40772 0.0
C861 C 0.26197 0.98959 0.39145 0.0
C862 C 0.23709 0.02068 0.35028 0.0
C863 C 0.24846 0.02591 0.46015 0.0
C864 C 0.23773 0.02027 0.51113 0.0
C865 C 0.2385 0.036 0.56491 0.0
C866 C 0.25045 0.05835 0.56646 0.0
C867 C 0.26146 0.06481 0.51451 0.0
C868 C 0.26052 0.04804 0.46101 0.0
H869 H 0.73649 0.94645 0.41684 0.0
H870 H 0.71644 0.97818 0.5928 0.0
H871 H 0.73559 0.01853 0.57881 0.0
H872 H 0.78145 0.97238 0.4164 0.0
H873 H 0.78104 0.98227 0.33584 0.0
H874 H 0.76704 0.95444 0.36211 0.0
H875 H 0.73829 0.97815 0.31758 0.0
H876 H 0.75217 1.00621 0.29141 0.0
H877 H 0.73292 0.01225 0.34167 0.0
H878 H 0.75538 0.05747 0.54277 0.0
H879 H 0.77593 0.09015 0.49001 0.0
H880 H 0.7815 0.03465 0.33523 0.0
C881 C 0.7357 0.96178 0.45256 0.0
C882 C 0.72456 0.95841 0.50617 0.0
C883 C 0.72491 0.97926 0.55182 0.0
C884 C 0.73563 1.00273 0.54394 0.0
C885 C 0.74569 1.00565 0.4895 0.0
C886 C 0.74576 0.98578 0.44447 0.0
C887 C 0.75682 0.99461 0.38836 0.0
C888 C 0.77253 0.97474 0.37496 0.0
C889 C 0.74431 0.998 0.33139 0.0
C890 C 0.76385 0.02195 0.41039 0.0
C891 C 0.7569 0.0282 0.4683 0.0
C892 C 0.76087 0.05279 0.49741 0.0
C893 C 0.77241 0.07131 0.46689 0.0
C894 C 0.78011 0.06497 0.40841 0.0
C895 C 0.77574 0.03997 0.37986 0.0
H896 H 0.53578 0.16269 0.61203 0.0
H897 H 0.55711 0.08905 0.69652 0.0
H898 H 0.56601 0.07275 0.59158 0.0
H899 H 0.51411 0.12819 0.48513 0.0
H900 H 0.51788 0.15652 0.43365 0.0
H901 H 0.51491 0.16228 0.51545 0.0
H902 H 0.54589 0.18807 0.51869 0.0
H903 H 0.54908 0.18212 0.43711 0.0
H904 H 0.56634 0.1714 0.49164 0.0
H905 H 0.57322 0.06625 0.47221 0.0
H906 H 0.57494 0.06838 0.35669 0.0
H907 H 0.54394 0.14326 0.35921 0.0
C908 C 0.54165 0.14258 0.60975 0.0
C909 C 0.54509 0.12686 0.66352 0.0
C910 C 0.55412 0.10154 0.65646 0.0
C911 C 0.55916 0.09208 0.59692 0.0
C912 C 0.55484 0.108 0.5451 0.0
C913 C 0.54597 0.13253 0.55164 0.0
C914 C 0.54174 0.14571 0.49024 0.0
C915 C 0.52093 0.14831 0.48056 0.0
C916 C 0.55134 0.17345 0.4841 0.0
C917 C 0.54989 0.12503 0.44716 0.0
C918 C 0.5577 0.10352 0.47889 0.0
C919 C 0.56687 0.08282 0.44725 0.0
C920 C 0.56783 0.08418 0.38188 0.0
C921 C 0.55931 0.10574 0.34948 0.0
C922 C 0.55028 0.12625 0.38278 0.0
H923 H 0.46323 0.91633 0.34331 0.0
H924 H 0.40416 0.91023 0.33143 0.0
H925 H 0.40207 0.91282 0.44588 0.0
H926 H 0.46933 0.87525 0.46939 0.0
H927 H 0.48745 0.89476 0.50469 0.0
H928 H 0.48391 0.89651 0.42236 0.0
H929 H 0.4808 0.9489 0.4298 0.0
H930 H 0.48417 0.94717 0.51259 0.0
H931 H 0.46407 0.96339 0.48146 0.0
H932 H 0.40689 0.90839 0.56112 0.0
H933 H 0.41825 0.8963 0.66537 0.0
H934 H 0.47397 0.90948 0.60326 0.0
C935 C 0.44984 0.91627 0.36484 0.0
C936 C 0.43384 0.91327 0.32877 0.0
C937 C 0.41656 0.91285 0.35835 0.0
C938 C 0.41525 0.91437 0.42328 0.0
C939 C 0.43133 0.91696 0.45778 0.0
C940 C 0.44829 0.91826 0.42945 0.0
C941 C 0.46356 0.91889 0.47698 0.0
C942 C 0.47682 0.89492 0.46781 0.0
C943 C 0.47375 0.94622 0.47507 0.0
C944 C 0.45262 0.91605 0.5363 0.0
C945 C 0.43403 0.91543 0.52449 0.0
C946 C 0.42138 0.90965 0.57121 0.0
C947 C 0.42795 0.90308 0.63066 0.0
C948 C 0.447 0.90221 0.64274 0.0
C949 C 0.45932 0.91033 0.59564 0.0
H950 H 0.70045 0.32443 0.61994 0.0
H951 H 0.67053 0.3957 0.55987 0.0
H952 H 0.66968 0.41247 0.6676 0.0
H953 H 0.67475 0.31897 0.77356 0.0
H954 H 0.69475 0.30665 0.81357 0.0
H955 H 0.69131 0.29863 0.73274 0.0
H956 H 0.72313 0.31909 0.70689 0.0
H957 H 0.72659 0.32731 0.78731 0.0
H958 H 0.72818 0.35361 0.72927 0.0
H959 H 0.67554 0.42441 0.77645 0.0
H960 H 0.68609 0.42973 0.88444 0.0
H961 H 0.71059 0.34966 0.8788 0.0
C962 C 0.6932 0.34305 0.63024 0.0
C963 C 0.68518 0.35857 0.58241 0.0
C964 C 0.67625 0.38324 0.59654 0.0
C965 C 0.67578 0.39296 0.65741 0.0
C966 C 0.6839 0.37738 0.70373 0.0
C967 C 0.6921 0.35267 0.69141 0.0
C968 C 0.70015 0.34047 0.75009 0.0
C969 C 0.68962 0.31464 0.76857 0.0
C970 C 0.72074 0.33481 0.74291 0.0
C971 C 0.69653 0.3632 0.79589 0.0
C972 C 0.68682 0.38402 0.76813 0.0
C973 C 0.68274 0.408 0.79922 0.0
C974 C 0.6888 0.41086 0.86031 0.0
C975 C 0.69887 0.38994 0.88958 0.0
C976 C 0.70258 0.36563 0.85746 0.0
H977 H 0.29805 0.61865 0.59262 0.0
H978 H 0.32948 0.69334 0.58893 0.0
H979 H 0.32685 0.69666 0.70387 0.0
H980 H 0.26711 0.63492 0.71374 0.0
H981 H 0.26756 0.60137 0.7473 0.0
H982 H 0.27156 0.60576 0.66551 0.0
H983 H 0.30258 0.58067 0.67528 0.0
H984 H 0.29858 0.57596 0.75697 0.0
H985 H 0.31926 0.59241 0.73087 0.0
H986 H 0.3192 0.69186 0.82051 0.0
H987 H 0.31012 0.6774 0.92637 0.0
H988 H 0.28677 0.60359 0.84886 0.0
C989 C 0.30429 0.63581 0.61601 0.0
C990 C 0.31372 0.65601 0.58251 0.0
C991 C 0.32213 0.67779 0.61436 0.0
C992 C 0.32064 0.67984 0.67933 0.0
C993 C 0.31105 0.65958 0.71118 0.0
C994 C 0.30333 0.63774 0.68035 0.0
C995 C 0.29464 0.61778 0.72456 0.0
C996 C 0.27399 0.61481 0.71201 0.0
C997 C 0.30435 0.59008 0.72176 0.0
C998 C 0.29824 0.63205 0.78527 0.0
C999 C 0.30758 0.65619 0.77712 0.0
C1000 C 0.312 0.67287 0.82735 0.0
C1001 C 0.30683 0.66446 0.88734 0.0
C1002 C 0.29745 0.63952 0.89646 0.0
C1003 C 0.29334 0.62322 0.84422 0.0
H1004 H 0.54882 0.67492 0.13073 0.0
H1005 H 0.54639 0.59148 0.19472 0.0
H1006 H 0.55235 0.57568 0.08687 0.0
H1007 H 0.5241 0.66367 0.99252 0.0
H1008 H 0.53688 0.68846 0.9487 0.0
H1009 H 0.53423 0.69247 0.03117 0.0
H1010 H 0.56952 0.69472 0.04432 0.0
H1011 H 0.57228 0.69089 0.96181 0.0
H1012 H 0.58346 0.66762 0.01408 0.0
H1013 H 0.55651 0.56992 0.96724 0.0
H1014 H 0.55945 0.57496 0.85273 0.0
H1015 H 0.55782 0.66249 0.87295 0.0
C1016 C 0.54955 0.65325 0.1224 0.0
C1017 C 0.5469 0.63439 0.17099 0.0
C1018 C 0.54839 0.60628 0.15813 0.0
C1019 C 0.55167 0.59718 0.09701 0.0
C1020 C 0.55346 0.61651 0.04973 0.0
C1021 C 0.55251 0.64399 0.06231 0.0
C1022 C 0.5539 0.66098 0.00422 0.0
C1023 C 0.53623 0.67735 0.99354 0.0
C1024 C 0.5708 0.67964 0.00625 0.0
C1025 C 0.55602 0.6389 0.9564 0.0
C1026 C 0.55569 0.6133 0.9829 0.0
C1027 C 0.55691 0.58991 0.94638 0.0
C1028 C 0.55855 0.59292 0.8815 0.0
C1029 C 0.55898 0.6191 0.85425 0.0
C1030 C 0.5577 0.6422 0.89246 0.0
H1031 H 0.45474 0.33867 0.11996 0.0
H1032 H 0.45 0.42113 0.18839 0.0
H1033 H 0.44027 0.43628 0.08325 0.0
H1034 H 0.47594 0.35662 0.98101 0.0
H1035 H 0.46539 0.32988 0.93641 0.0
H1036 H 0.46912 0.32541 0.01826 0.0
H1037 H 0.43457 0.31527 0.03415 0.0
H1038 H 0.43076 0.31952 0.95215 0.0
H1039 H 0.41781 0.33935 0.00693 0.0
H1040 H 0.43372 0.44229 0.96596 0.0
H1041 H 0.43108 0.43856 0.85131 0.0
H1042 H 0.44239 0.35234 0.86365 0.0
C1043 C 0.45145 0.35992 0.11322 0.0
C1044 C 0.45322 0.37881 0.16214 0.0
C1045 C 0.44859 0.40633 0.15155 0.0
C1046 C 0.44317 0.41507 0.09197 0.0
C1047 C 0.44244 0.39596 0.04401 0.0
C1048 C 0.44643 0.36892 0.05447 0.0
C1049 C 0.44629 0.35257 0.99528 0.0
C1050 C 0.46531 0.34042 0.98198 0.0
C1051 C 0.43146 0.33037 0.99727 0.0
C1052 C 0.44155 0.37453 0.94928 0.0
C1053 C 0.43924 0.39945 0.97782 0.0
C1054 C 0.43534 0.4228 0.94346 0.0
C1055 C 0.43385 0.42052 0.8785 0.0
C1056 C 0.43642 0.39513 0.84899 0.0
C1057 C 0.44021 0.37197 0.88505 0.0
H1058 H 0.71212 0.87442 0.37428 0.0
H1059 H 0.65725 0.90242 0.41387 0.0
H1060 H 0.64793 0.89152 0.30608 0.0
H1061 H 0.71667 0.90176 0.23181 0.0
H1062 H 0.72891 0.87408 0.19628 0.0
H1063 H 0.73024 0.87906 0.27867 0.0
H1064 H 0.71887 0.82987 0.29743 0.0
H1065 H 0.71769 0.82456 0.21476 0.0
H1066 H 0.69779 0.81863 0.26226 0.0
H1067 H 0.64617 0.88429 0.18948 0.0
H1068 H 0.65194 0.88009 0.07648 0.0
H1069 H 0.70793 0.8565 0.11469 0.0
C1070 C 0.69798 0.87727 0.36069 0.0
C1071 C 0.6853 0.88886 0.40225 0.0
C1072 C 0.66701 0.89299 0.38289 0.0
C1073 C 0.66166 0.88696 0.32174 0.0
C1074 C 0.67468 0.87636 0.28107 0.0
C1075 C 0.6924 0.87107 0.30022 0.0
C1076 C 0.7042 0.86167 0.24671 0.0
C1077 C 0.72098 0.88027 0.23786 0.0
C1078 C 0.70998 0.83191 0.25584 0.0
C1079 C 0.69075 0.86432 0.19364 0.0
C1080 C 0.67366 0.87218 0.21435 0.0
C1081 C 0.65938 0.87755 0.17296 0.0
C1082 C 0.66275 0.87509 0.10891 0.0
C1083 C 0.6803 0.86773 0.08709 0.0
C1084 C 0.69431 0.86185 0.13017 0.0
H1085 H 0.29937 0.10461 0.09215 0.0
H1086 H 0.32274 0.18531 0.07695 0.0
H1087 H 0.31944 0.19123 0.19126 0.0
H1088 H 0.26619 0.12132 0.21154 0.0
H1089 H 0.26835 0.08848 0.24777 0.0
H1090 H 0.27189 0.092 0.16547 0.0
H1091 H 0.30406 0.0702 0.17664 0.0
H1092 H 0.30059 0.06668 0.2588 0.0
H1093 H 0.32033 0.08478 0.23009 0.0
H1094 H 0.31361 0.18661 0.3109 0.0
H1095 H 0.30576 0.17242 0.41835 0.0
H1096 H 0.28866 0.09376 0.34767 0.0
C1097 C 0.30379 0.12361 0.11266 0.0
C1098 C 0.31143 0.14445 0.07616 0.0
C1099 C 0.31684 0.16911 0.10452 0.0
C1100 C 0.31502 0.17259 0.16923 0.0
C1101 C 0.30757 0.1513 0.20414 0.0
C1102 C 0.30196 0.1274 0.17624 0.0
C1103 C 0.29453 0.1073 0.22254 0.0
C1104 C 0.27403 0.10197 0.21114 0.0
C1105 C 0.30555 0.08069 0.22199 0.0
C1106 C 0.29748 0.12304 0.28155 0.0
C1107 C 0.30463 0.14859 0.27074 0.0
C1108 C 0.30797 0.16662 0.31957 0.0
C1109 C 0.3036 0.15832 0.38053 0.0
C1110 C 0.29617 0.13213 0.39193 0.0
C1111 C 0.29359 0.11432 0.3413 0.0
H1112 H 0.03849 0.10207 0.10882 0.0
H1113 H 0.08955 0.14139 0.15772 0.0
H1114 H 0.09957 0.13862 0.04801 0.0
H1115 H 0.05715 0.05822 0.97936 0.0
H1116 H 0.03656 0.06285 0.93454 0.0
H1117 H 0.03549 0.06244 0.01811 0.0
H1118 H 0.01953 0.10935 0.01641 0.0
H1119 H 0.02074 0.11014 0.93323 0.0
H1120 H 0.03054 0.13751 0.97788 0.0
H1121 H 0.10189 0.13733 0.92902 0.0
H1122 H 0.09604 0.1382 0.81543 0.0
H1123 H 0.04256 0.10265 0.84615 0.0
C1124 C 0.05209 0.10914 0.09681 0.0
C1125 C 0.06336 0.1216 0.142 0.0
C1126 C 0.08088 0.13116 0.12428 0.0
C1127 C 0.08661 0.12985 0.06187 0.0
C1128 C 0.07471 0.11868 0.01785 0.0
C1129 C 0.05787 0.10819 0.03495 0.0
C1130 C 0.04671 0.09997 0.97875 0.0
C1131 C 0.04381 0.06903 0.97763 0.0
C1132 C 0.02831 0.11517 0.97646 0.0
C1133 C 0.05938 0.10889 0.92703 0.0
C1134 C 0.07572 0.11888 0.95017 0.0
C1135 C 0.08925 0.12914 0.9106 0.0
C1136 C 0.08588 0.12949 0.84616 0.0
C1137 C 0.06894 0.12029 0.8222 0.0
C1138 C 0.0557 0.1096 0.86327 0.0
H1139 H 0.95626 0.84961 0.12928 0.0
H1140 H 0.94883 0.9319 0.19637 0.0
H1141 H 0.94037 0.94622 0.08901 0.0
H1142 H 0.97774 0.86795 0.98731 0.0
H1143 H 0.96772 0.83975 0.94618 0.0
H1144 H 0.97236 0.83693 0.02793 0.0
H1145 H 0.93842 0.82424 0.04798 0.0
H1146 H 0.93359 0.82714 0.96639 0.0
H1147 H 0.92057 0.8467 0.0215 0.0
H1148 H 0.9344 0.95069 0.96967 0.0
H1149 H 0.93043 0.9446 0.85588 0.0
H1150 H 0.94208 0.85878 0.87551 0.0
C1151 C 0.95313 0.87081 0.12217 0.0
C1152 C 0.95368 0.88979 0.17127 0.0
C1153 C 0.94872 0.91708 0.1593 0.0
C1154 C 0.94396 0.92532 0.09856 0.0
C1155 C 0.94416 0.90591 0.05107 0.0
C1156 C 0.94863 0.87921 0.06289 0.0
C1157 C 0.94841 0.8619 0.00531 0.0
C1158 C 0.9677 0.851 0.99085 0.0
C1159 C 0.9344 0.83864 0.01065 0.0
C1160 C 0.94258 0.88279 0.95851 0.0
C1161 C 0.9404 0.90821 0.98497 0.0
C1162 C 0.9359 0.93081 0.94894 0.0
C1163 C 0.93366 0.92719 0.88457 0.0
C1164 C 0.93568 0.90115 0.85763 0.0
C1165 C 0.94008 0.8788 0.89522 0.0
H1166 H 0.19498 0.40808 0.10986 0.0
H1167 H 0.19212 0.32037 0.09476 0.0
H1168 H 0.19584 0.31636 0.20884 0.0
H1169 H 0.22982 0.4094 0.22397 0.0
H1170 H 0.22076 0.43865 0.26355 0.0
H1171 H 0.21665 0.43426 0.18184 0.0
H1172 H 0.18166 0.4375 0.20071 0.0
H1173 H 0.18566 0.44193 0.28253 0.0
H1174 H 0.17095 0.41493 0.25576 0.0
H1175 H 0.20119 0.32254 0.32569 0.0
H1176 H 0.20867 0.33835 0.43226 0.0
H1177 H 0.20764 0.42173 0.3672 0.0
C1178 C 0.19486 0.38803 0.13065 0.0
C1179 C 0.19307 0.36453 0.09394 0.0
C1180 C 0.19333 0.33863 0.12248 0.0
C1181 C 0.19543 0.33617 0.1871 0.0
C1182 C 0.1973 0.35984 0.22214 0.0
C1183 C 0.19706 0.38525 0.19466 0.0
C1184 C 0.20024 0.40753 0.24153 0.0
C1185 C 0.21791 0.42338 0.22684 0.0
C1186 C 0.18363 0.42659 0.24535 0.0
C1187 C 0.20227 0.39077 0.29983 0.0
C1188 C 0.20052 0.36331 0.28817 0.0
C1189 C 0.20249 0.34403 0.33534 0.0
C1190 C 0.20664 0.35313 0.39567 0.0
C1191 C 0.20889 0.38119 0.40779 0.0
C1192 C 0.20626 0.40009 0.35926 0.0
H1193 H 0.81388 0.60297 0.3695 0.0
H1194 H 0.78417 0.67504 0.42409 0.0
H1195 H 0.78735 0.69341 0.31709 0.0
H1196 H 0.8457 0.63548 0.2581 0.0
H1197 H 0.84449 0.60698 0.2058 0.0
H1198 H 0.8419 0.60173 0.28808 0.0
H1199 H 0.81075 0.57787 0.26862 0.0
H1200 H 0.81312 0.58329 0.18651 0.0
H1201 H 0.79312 0.59557 0.2264 0.0
H1202 H 0.79053 0.70063 0.20075 0.0
H1203 H 0.79484 0.69739 0.08688 0.0
H1204 H 0.8229 0.6206 0.11101 0.0
C1205 C 0.80865 0.62306 0.35922 0.0
C1206 C 0.79917 0.63803 0.40461 0.0
C1207 C 0.79186 0.66375 0.38979 0.0
C1208 C 0.79353 0.67416 0.32926 0.0
C1209 C 0.8026 0.65852 0.28483 0.0
C1210 C 0.8102 0.63362 0.29944 0.0
C1211 C 0.81797 0.61971 0.24282 0.0
C1212 C 0.83875 0.61576 0.24909 0.0
C1213 C 0.80815 0.59252 0.23038 0.0
C1214 C 0.81343 0.64051 0.19367 0.0
C1215 C 0.80453 0.66275 0.21855 0.0
C1216 C 0.79782 0.68358 0.18102 0.0
C1217 C 0.80029 0.68158 0.11653 0.0
C1218 C 0.80943 0.65898 0.09062 0.0
C1219 C 0.81619 0.63839 0.12981 0.0
H1220 H 0.0564 0.66028 0.35716 0.0
H1221 H 0.06617 0.57398 0.33819 0.0
H1222 H 0.066 0.56926 0.45332 0.0
H1223 H 0.08511 0.67014 0.4944 0.0
H1224 H 0.06991 0.69533 0.52617 0.0
H1225 H 0.07172 0.69126 0.44336 0.0
H1226 H 0.03661 0.68392 0.43645 0.0
H1227 H 0.03471 0.68776 0.51917 0.0
H1228 H 0.02607 0.65751 0.48221 0.0
H1229 H 0.0617 0.57465 0.57394 0.0
H1230 H 0.05566 0.58969 0.68213 0.0
H1231 H 0.0517 0.67289 0.61707 0.0
C1232 C 0.05882 0.64041 0.37717 0.0
C1233 C 0.06139 0.6175 0.33887 0.0
C1234 C 0.06441 0.59185 0.3668 0.0
C1235 C 0.06422 0.58901 0.43213 0.0
C1236 C 0.06134 0.61212 0.46869 0.0
C1237 C 0.059 0.63738 0.44169 0.0
C1238 C 0.05602 0.65921 0.48988 0.0
C1239 C 0.07162 0.68022 0.48836 0.0
C1240 C 0.03724 0.67289 0.4814 0.0
C1241 C 0.05662 0.64239 0.54854 0.0
C1242 C 0.0596 0.61524 0.53606 0.0
C1243 C 0.0596 0.59596 0.5839 0.0
C1244 C 0.05625 0.60469 0.64541 0.0
C1245 C 0.05294 0.63247 0.65866 0.0
C1246 C 0.05371 0.65139 0.60915 0.0
H1247 H 0.97771 0.39896 0.37698 0.0
H1248 H 0.9197 0.41514 0.35868 0.0
H1249 H 0.9185 0.42885 0.46899 0.0
H1250 H 0.97374 0.36489 0.50988 0.0
H1251 H 0.9951 0.3757 0.54375 0.0
H1252 H 0.99253 0.37535 0.46114 0.0
H1253 H 0.00152 0.4263 0.45678 0.0
H1254 H 0.00395 0.42682 0.54003 0.0
H1255 H 0.98894 0.45068 0.50218 0.0
H1256 H 0.92209 0.43175 0.5816 0.0
H1257 H 0.92867 0.41696 0.68822 0.0
H1258 H 0.98435 0.39787 0.63544 0.0
C1259 C 0.96492 0.40641 0.39582 0.0
C1260 C 0.94884 0.4065 0.36 0.0
C1261 C 0.93216 0.41526 0.38595 0.0
C1262 C 0.93144 0.42336 0.44813 0.0
C1263 C 0.94751 0.42242 0.48311 0.0
C1264 C 0.96394 0.41392 0.45789 0.0
C1265 C 0.97825 0.40907 0.50724 0.0
C1266 C 0.98528 0.37952 0.5054 0.0
C1267 C 0.9941 0.42945 0.50118 0.0
C1268 C 0.967 0.4146 0.56459 0.0
C1269 C 0.94952 0.4233 0.54963 0.0
C1270 C 0.93584 0.42577 0.5942 0.0
C1271 C 0.93973 0.41749 0.65481 0.0
C1272 C 0.95706 0.40651 0.66961 0.0
C1273 C 0.97114 0.4067 0.62504 0.0
H1274 H 0.21998 0.85666 0.86662 0.0
H1275 H 0.17074 0.90066 0.91561 0.0
H1276 H 0.15935 0.89583 0.8084 0.0
H1277 H 0.22708 0.88493 0.72403 0.0
H1278 H 0.23438 0.85449 0.6848 0.0
H1279 H 0.2375 0.85763 0.76721 0.0
H1280 H 0.2193 0.81305 0.78502 0.0
H1281 H 0.21627 0.80955 0.70237 0.0
H1282 H 0.19664 0.80961 0.75293 0.0
H1283 H 0.15502 0.89106 0.69528 0.0
H1284 H 0.15751 0.8855 0.58195 0.0
H1285 H 0.20966 0.84472 0.6053 0.0
C1286 C 0.20657 0.86448 0.85488 0.0
C1287 C 0.19602 0.87854 0.89903 0.0
C1288 C 0.17873 0.88918 0.88244 0.0
C1289 C 0.17221 0.88665 0.82177 0.0
C1290 C 0.18307 0.87308 0.77885 0.0
C1291 C 0.19976 0.86184 0.79467 0.0
C1292 C 0.20917 0.84967 0.73874 0.0
C1293 C 0.22814 0.86247 0.72808 0.0
C1294 C 0.21042 0.81863 0.74515 0.0
C1295 C 0.19575 0.85752 0.68844 0.0
C1296 C 0.18059 0.87042 0.71288 0.0
C1297 C 0.16661 0.8805 0.67559 0.0
C1298 C 0.16815 0.87723 0.61143 0.0
C1299 C 0.18368 0.86442 0.5855 0.0
C1300 C 0.19758 0.85433 0.62437 0.0
H1301 H 0.80187 0.10228 0.85562 0.0
H1302 H 0.79688 0.18682 0.90884 0.0
H1303 H 0.80345 0.20059 0.79978 0.0
H1304 H 0.839 0.11111 0.74955 0.0
H1305 H 0.83064 0.08543 0.69707 0.0
H1306 H 0.82571 0.08296 0.77873 0.0
H1307 H 0.79094 0.08052 0.7549 0.0
H1308 H 0.79572 0.08275 0.6732 0.0
H1309 H 0.7805 0.10688 0.70889 0.0
H1310 H 0.80978 0.20398 0.6825 0.0
H1311 H 0.815 0.19688 0.5698 0.0
H1312 H 0.81609 0.10979 0.59972 0.0
C1313 C 0.80191 0.12373 0.84425 0.0
C1314 C 0.79847 0.14358 0.88974 0.0
C1315 C 0.79926 0.17143 0.87393 0.0
C1316 C 0.80302 0.17933 0.81245 0.0
C1317 C 0.80621 0.15904 0.76846 0.0
C1318 C 0.80575 0.13182 0.78408 0.0
C1319 C 0.80959 0.11369 0.72941 0.0
C1320 C 0.82729 0.09734 0.73931 0.0
C1321 C 0.79321 0.09487 0.7158 0.0
C1322 C 0.81199 0.13487 0.6797 0.0
C1323 C 0.81013 0.16095 0.70272 0.0
C1324 C 0.8114 0.18367 0.66421 0.0
C1325 C 0.81442 0.17948 0.60052 0.0
C1326 C 0.81605 0.15282 0.57668 0.0
C1327 C 0.81502 0.1304 0.61693 0.0
H1328 H 0.5078 0.07105 0.10952 0.0
H1329 H 0.55029 0.04516 0.98269 0.0
H1330 H 0.53359 1.00209 0.96416 0.0
H1331 H 0.49863 0.00736 0.17885 0.0
H1332 H 0.47416 0.01163 0.18288 0.0
H1333 H 0.48894 0.04093 0.18431 0.0
H1334 H 0.4718 0.06117 0.08967 0.0
H1335 H 0.45688 0.03197 0.08828 0.0
H1336 H 0.46958 0.0413 0.01985 0.0
H1337 H 0.51319 0.96167 0.9627 0.0
H1338 H 0.4897 0.92623 0.97495 0.0
H1339 H 0.45977 0.97822 0.10202 0.0
C1340 C 0.51335 0.05636 0.07726 0.0
C1341 C 0.53013 0.06119 0.04683 0.0
C1342 C 0.53729 0.04169 0.00552 0.0
C1343 C 0.52795 0.01725 0.99498 0.0
C1344 C 0.51143 0.01291 0.02581 0.0
C1345 C 0.50405 0.03198 0.0656 0.0
C1346 C 0.48607 0.02209 0.09274 0.0
C1347 C 0.48703 0.0204 0.16392 0.0
C1348 C 0.47014 0.04021 0.07136 0.0
C1349 C 0.48485 0.99413 0.06364 0.0
C1350 C 0.49955 0.98943 0.0248 0.0
C1351 C 0.50155 0.96514 0.99266 0.0
C1352 C 0.4881 0.94513 1.0 0.0
C1353 C 0.47286 0.94942 0.03942 0.0
C1354 C 0.47128 0.97428 0.07175 0.0
H1355 H 0.71863 0.28576 0.36723 0.0
H1356 H 0.73648 0.32791 0.20074 0.0
H1357 H 0.75798 0.29071 0.17825 0.0
H1358 H 0.76198 0.26156 0.41374 0.0
H1359 H 0.75376 0.22907 0.44066 0.0
H1360 H 0.73881 0.25806 0.44146 0.0
H1361 H 0.71511 0.23166 0.37528 0.0
H1362 H 0.73002 0.20254 0.3741 0.0
H1363 H 0.72205 0.21712 0.30232 0.0
H1364 H 0.77727 0.24891 0.17282 0.0
H1365 H 0.79546 0.20733 0.19075 0.0
H1366 H 0.76701 0.19398 0.36462 0.0
C1367 C 0.72699 0.2871 0.32587 0.0
C1368 C 0.72583 0.30974 0.28567 0.0
C1369 C 0.7371 0.31078 0.23223 0.0
C1370 C 0.74931 0.28969 0.21887 0.0
C1371 C 0.75012 0.2677 0.2594 0.0
C1372 C 0.73937 0.2663 0.31203 0.0
C1373 C 0.74344 0.24084 0.3491 0.0
C1374 C 0.74989 0.24782 0.41514 0.0
C1375 C 0.72666 0.22192 0.35027 0.0
C1376 C 0.75873 0.22879 0.31046 0.0
C1377 C 0.76194 0.24418 0.25789 0.0
C1378 C 0.77495 0.23674 0.2139 0.0
C1379 C 0.78516 0.2131 0.22433 0.0
C1380 C 0.78265 0.19774 0.27913 0.0
C1381 C 0.76923 0.2056 0.32258 0.0
H1382 H 0.27621 0.70801 0.38649 0.0
H1383 H 0.2789 0.69121 0.18905 0.0
H1384 H 0.25827 0.72971 0.16849 0.0
H1385 H 0.22751 0.72532 0.38521 0.0
H1386 H 0.22982 0.75126 0.44366 0.0
H1387 H 0.24518 0.72267 0.44329 0.0
H1388 H 0.27288 0.75555 0.43943 0.0
H1389 H 0.2576 0.78421 0.43938 0.0
H1390 H 0.27426 0.78051 0.37833 0.0
H1391 H 0.23894 0.7711 0.16815 0.0
H1392 H 0.21908 0.81029 0.18824 0.0
H1393 H 0.22622 0.79874 0.38668 0.0
C1394 C 0.27241 0.71249 0.339 0.0
C1395 C 0.2793 0.69678 0.28925 0.0
C1396 C 0.27382 0.70295 0.22783 0.0
C1397 C 0.26215 0.72485 0.21565 0.0
C1398 C 0.25571 0.74003 0.2655 0.0
C1399 C 0.26032 0.7339 0.32606 0.0
C1400 C 0.25075 0.75292 0.37103 0.0
C1401 C 0.23753 0.7371 0.41329 0.0
C1402 C 0.26471 0.76927 0.40929 0.0
C1403 C 0.2404 0.77102 0.32602 0.0
C1404 C 0.24362 0.76325 0.26545 0.0
C1405 C 0.23611 0.77719 0.2154 0.0
C1406 C 0.22482 0.7995 0.2274 0.0
C1407 C 0.22082 0.80753 0.28906 0.0
C1408 C 0.22882 0.79303 0.339 0.0
H1409 H 0.48473 0.45622 0.48905 0.0
H1410 H 0.46421 0.46103 0.67816 0.0
H1411 H 0.48242 0.50183 0.69601 0.0
H1412 H 0.53085 0.47816 0.52553 0.0
H1413 H 0.53379 0.49825 0.45629 0.0
H1414 H 0.51869 0.46926 0.4556 0.0
H1415 H 0.4921 0.49979 0.41783 0.0
H1416 H 0.50712 0.52889 0.41842 0.0
H1417 H 0.48606 0.52955 0.4619 0.0
H1418 H 0.50196 0.54144 0.69626 0.0
H1419 H 0.52363 0.57873 0.67941 0.0
H1420 H 0.53351 0.55007 0.49167 0.0
C1421 C 0.48408 0.46599 0.53397 0.0
C1422 C 0.47311 0.45513 0.58227 0.0
C1423 C 0.47266 0.46852 0.64053 0.0
C1424 C 0.48289 0.49192 0.65126 0.0
C1425 C 0.49366 0.50191 0.60347 0.0
C1426 C 0.4945 0.48955 0.54601 0.0
C1427 C 0.50771 0.50481 0.50385 0.0
C1428 C 0.52371 0.48652 0.48417 0.0
C1429 C 0.49764 0.51645 0.44713 0.0
C1430 C 0.51411 0.52735 0.54715 0.0
C1431 C 0.50558 0.5252 0.60403 0.0
C1432 C 0.50878 0.54346 0.65195 0.0
C1433 C 0.5211 0.56466 0.64174 0.0
C1434 C 0.53026 0.56744 0.58419 0.0
C1435 C 0.52677 0.5484 0.53623 0.0
H1436 H 0.77091 0.70944 0.88268 0.0
H1437 H 0.78344 0.70413 0.6863 0.0
H1438 H 0.7634 0.74353 0.66598 0.0
H1439 H 0.72277 0.72776 0.86067 0.0
H1440 H 0.72239 0.75003 0.92696 0.0
H1441 H 0.73754 0.72119 0.92598 0.0
H1442 H 0.76515 0.75301 0.94667 0.0
H1443 H 0.75012 0.78194 0.94741 0.0
H1444 H 0.76937 0.78122 0.89517 0.0
H1445 H 0.74328 0.78454 0.66753 0.0
H1446 H 0.7229 0.82314 0.6895 0.0
H1447 H 0.72228 0.80094 0.88463 0.0
C1448 C 0.76937 0.71655 0.8354 0.0
C1449 C 0.77873 0.70381 0.78596 0.0
C1450 C 0.77627 0.71349 0.72469 0.0
C1451 C 0.76499 0.7359 0.71277 0.0
C1452 C 0.75602 0.74808 0.7625 0.0
C1453 C 0.75787 0.73858 0.8225 0.0
C1454 C 0.74643 0.75512 0.86734 0.0
C1455 C 0.73139 0.73747 0.89698 0.0
C1456 C 0.75849 0.76863 0.91706 0.0
C1457 C 0.73831 0.77594 0.82338 0.0
C1458 C 0.744 0.77142 0.76315 0.0
C1459 C 0.73863 0.78819 0.71444 0.0
C1460 C 0.72708 0.81014 0.72749 0.0
C1461 C 0.72094 0.81515 0.7888 0.0
C1462 C 0.72665 0.79767 0.83723 0.0
H1463 H 0.28184 0.20802 0.72334 0.0
H1464 H 0.27493 0.17736 0.91089 0.0
H1465 H 0.25288 0.21389 0.93263 0.0
H1466 H 0.27912 0.2786 0.75877 0.0
H1467 H 0.26603 0.2876 0.6909 0.0
H1468 H 0.28113 0.25874 0.68889 0.0
H1469 H 0.25416 0.22784 0.65507 0.0
H1470 H 0.23899 0.25665 0.65676 0.0
H1471 H 0.23368 0.22674 0.70159 0.0
H1472 H 0.23335 0.25459 0.93695 0.0
H1473 H 0.21524 0.29604 0.92189 0.0
H1474 H 0.23269 0.30004 0.72952 0.0
C1475 C 0.2756 0.20896 0.76883 0.0
C1476 C 0.28009 0.1898 0.81545 0.0
C1477 C 0.27159 0.19162 0.87431 0.0
C1478 C 0.25909 0.21237 0.88721 0.0
C1479 C 0.25501 0.23093 0.84048 0.0
C1480 C 0.26276 0.22931 0.78221 0.0
C1481 C 0.25569 0.25186 0.74041 0.0
C1482 C 0.27143 0.27029 0.71847 0.0
C1483 C 0.24499 0.24006 0.68518 0.0
C1484 C 0.24305 0.26668 0.78483 0.0
C1485 C 0.24301 0.25418 0.84231 0.0
C1486 C 0.23311 0.26442 0.89204 0.0
C1487 C 0.22294 0.28808 0.88301 0.0
C1488 C 0.22253 0.30125 0.82451 0.0
C1489 C 0.2326 0.29023 0.77451 0.0
H1490 H 0.98537 0.94411 0.50687 0.0
H1491 H 0.94475 0.97575 0.63503 0.0
H1492 H 0.96025 0.01976 0.6356 0.0
H1493 H 0.02351 0.97684 0.57552 0.0
H1494 H 0.0351 0.98499 0.50408 0.0
H1495 H 0.02005 0.95603 0.5077 0.0
H1496 H 0.00131 0.97507 0.41539 0.0
H1497 H 0.01635 1.00412 0.41147 0.0
H1498 H 0.99203 0.00891 0.41996 0.0
H1499 H 0.98017 0.05881 0.62952 0.0
H1500 H 0.00469 0.0923 0.61812 0.0
H1501 H 0.03386 0.03746 0.49489 0.0
C1502 C 0.97966 0.9605 0.53411 0.0
C1503 C 0.96389 0.95641 0.57113 0.0
C1504 C 0.95691 0.97822 0.60682 0.0
C1505 C 0.96553 1.00344 0.60719 0.0
C1506 C 0.98116 0.00675 0.5715 0.0
C1507 C 0.98827 0.9861 0.53548 0.0
C1508 C 0.00595 0.99525 0.50452 0.0
C1509 C 0.0221 0.9772 0.52416 0.0
C1510 C 0.00377 0.99587 0.43362 0.0
C1511 C 0.00779 0.02382 0.53061 0.0
C1512 C 0.99311 0.02993 0.56834 0.0
C1513 C 0.99171 0.05445 0.59972 0.0
C1514 C 0.00582 0.07331 0.59307 0.0
C1515 C 0.0213 0.06757 0.55567 0.0
C1516 C 0.02214 0.04258 0.52325 0.0
H1517 H 0.99126 0.43249 0.01188 0.0
H1518 H 0.94525 0.45872 0.12287 0.0
H1519 H 0.95695 0.50583 0.12074 0.0
H1520 H 0.02404 0.47041 0.08346 0.0
H1521 H 0.03711 0.47967 0.01575 0.0
H1522 H 0.02365 0.44905 0.01553 0.0
H1523 H 0.00636 0.46529 0.91742 0.0
H1524 H 0.02002 0.49585 0.91669 0.0
H1525 H 0.9954 0.49806 0.91748 0.0
H1526 H 0.97617 0.5477 0.12256 0.0
H1527 H 1.00009 0.58305 0.11942 0.0
H1528 H 0.03367 0.53108 0.0037 0.0
C1529 C 0.9832 0.4485 0.03273 0.0
C1530 C 0.96692 0.44229 0.06525 0.0
C1531 C 0.95733 0.46334 0.09562 0.0
C1532 C 0.96397 0.4901 0.09505 0.0
C1533 C 0.9803 0.49553 0.06398 0.0
C1534 C 0.98965 0.47548 0.03222 0.0
C1535 C 0.0076 0.48646 0.00659 0.0
C1536 C 0.02407 0.47044 0.03188 0.0
C1537 C 0.00733 0.48641 0.9353 0.0
C1538 C 0.00731 0.5153 0.03166 0.0
C1539 C 0.99135 0.5201 0.06423 0.0
C1540 C 0.98851 0.5444 0.09591 0.0
C1541 C 0.00226 0.56433 0.09415 0.0
C1542 C 0.01871 0.56006 0.06072 0.0
C1543 C 0.0211 0.53524 0.02851 0.0
H1544 H 0.62344 0.04011 0.02282 0.0
H1545 H 0.58209 0.04662 0.87876 0.0
H1546 H 0.59426 1.00547 0.82881 0.0
H1547 H 0.65995 0.01802 0.92548 0.0
H1548 H 0.66933 0.99453 0.98121 0.0
H1549 H 0.65698 0.02398 0.00739 0.0
H1550 H 0.63504 0.99297 0.07024 0.0
H1551 H 0.64734 0.96344 0.04404 0.0
H1552 H 0.62302 0.9659 0.03127 0.0
H1553 H 0.6111 0.96368 0.79312 0.0
H1554 H 0.63211 0.92535 0.77315 0.0
H1555 H 0.66287 0.94623 0.93876 0.0
C1556 C 0.61688 0.03282 0.98097 0.0
C1557 C 0.60175 0.04674 0.95493 0.0
C1558 C 0.59365 0.03644 0.8999 0.0
C1559 C 0.60045 0.01299 0.87107 0.0
C1560 C 0.61538 0.99985 0.89772 0.0
C1561 C 0.62351 0.00936 0.95145 0.0
C1562 C 0.63959 0.9916 0.96983 0.0
C1563 C 0.65752 0.00802 0.97102 0.0
C1564 C 0.63603 0.97766 0.03257 0.0
C1565 C 0.63948 0.97111 0.91728 0.0
C1566 C 0.62525 0.97599 0.87664 0.0
C1567 C 0.62229 0.95964 0.82471 0.0
C1568 C 0.63426 0.93786 0.81382 0.0
C1569 C 0.64917 0.93279 0.8542 0.0
C1570 C 0.65168 0.94965 0.90674 0.0
H1571 H 0.41995 1.00233 0.96181 0.0
H1572 H 0.38309 0.93768 0.90556 0.0
H1573 H 0.36079 0.97186 0.86908 0.0
H1574 H 0.38339 0.04864 0.01622 0.0
H1575 H 0.39536 0.0786 0.99023 0.0
H1576 H 0.40806 0.04909 0.01455 0.0
H1577 H 0.42487 0.04843 0.90882 0.0
H1578 H 0.41217 0.0778 0.88402 0.0
H1579 H 0.41168 0.04721 0.83813 0.0
H1580 H 0.344 0.01275 0.82887 0.0
H1581 H 0.33252 0.05769 0.7962 0.0
H1582 H 0.37882 0.09659 0.88555 0.0
C1583 C 0.40708 0.99539 0.94255 0.0
C1584 C 0.40327 0.96727 0.93653 0.0
C1585 C 0.38626 0.95904 0.91115 0.0
C1586 C 0.37353 0.97833 0.89007 0.0
C1587 C 0.37782 1.00584 0.89584 0.0
C1588 C 0.39402 0.01442 0.92251 0.0
C1589 C 0.39523 0.04526 0.9231 0.0
C1590 C 0.39553 0.05603 0.99001 0.0
C1591 C 0.41198 0.05525 0.88631 0.0
C1592 C 0.37748 0.05267 0.89063 0.0
C1593 C 0.36768 0.02956 0.87523 0.0
C1594 C 0.35143 0.03096 0.84155 0.0
C1595 C 0.34506 0.05657 0.82298 0.0
C1596 C 0.35473 0.08056 0.83876 0.0
C1597 C 0.37103 0.07858 0.87375 0.0
H1598 H 0.67394 0.2551 0.19831 0.0
H1599 H 0.63299 0.31893 0.19882 0.0
H1600 H 0.60925 0.28534 0.17171 0.0
H1601 H 0.65633 0.21778 0.07052 0.0
H1602 H 0.66104 0.18474 0.10286 0.0
H1603 H 0.67494 0.21346 0.12458 0.0
H1604 H 0.66777 0.20459 0.24056 0.0
H1605 H 0.65395 0.1757 0.21922 0.0
H1606 H 0.64427 0.20251 0.26563 0.0
H1607 H 0.59057 0.24635 0.13627 0.0
H1608 H 0.57714 0.2027 0.10424 0.0
H1609 H 0.62904 0.16249 0.13273 0.0
C1610 C 0.65995 0.26195 0.1933 0.0
C1611 C 0.65534 0.28971 0.20062 0.0
C1612 C 0.63687 0.29783 0.19376 0.0
C1613 C 0.62328 0.2789 0.17814 0.0
C1614 C 0.62833 0.25185 0.17035 0.0
C1615 C 0.64612 0.24321 0.17853 0.0
C1616 C 0.64774 0.21281 0.16735 0.0
C1617 C 0.66079 0.20686 0.1131 0.0
C1618 C 0.65379 0.19803 0.22673 0.0
C1619 C 0.6281 0.20583 0.15063 0.0
C1620 C 0.61725 0.22883 0.15228 0.0
C1621 C 0.59888 0.22817 0.13568 0.0
C1622 C 0.59135 0.20335 0.11733 0.0
C1623 C 0.60196 0.17942 0.11646 0.0
C1624 C 0.6206 0.18054 0.13362 0.0
H1625 H 0.40133 0.82667 0.1858 0.0
H1626 H 0.39228 0.82538 0.98672 0.0
H1627 H 0.37301 0.7846 0.99815 0.0
H1628 H 0.40525 0.75308 0.19991 0.0
H1629 H 0.39431 0.75164 0.27477 0.0
H1630 H 0.40693 0.78155 0.2521 0.0
H1631 H 0.37838 0.8113 0.27227 0.0
H1632 H 0.36569 0.78158 0.2954 0.0
H1633 H 0.35709 0.80307 0.23426 0.0
H1634 H 0.35434 0.74525 0.02971 0.0
H1635 H 0.33692 0.70846 0.08026 0.0
H1636 H 0.35932 0.73171 0.25887 0.0
C1637 C 0.39523 0.81785 0.14473 0.0
C1638 C 0.39831 0.82926 0.08524 0.0
C1639 C 0.39015 0.817 0.03265 0.0
C1640 C 0.37921 0.79379 0.03864 0.0
C1641 C 0.37679 0.78267 0.09747 0.0
C1642 C 0.3846 0.79409 0.14967 0.0
C1643 C 0.38016 0.77731 0.20706 0.0
C1644 C 0.3977 0.76517 0.23512 0.0
C1645 C 0.3697 0.79434 0.25507 0.0
C1646 C 0.36808 0.75526 0.17907 0.0
C1647 C 0.36649 0.75885 0.11564 0.0
C1648 C 0.35561 0.74202 0.07919 0.0
C1649 C 0.34579 0.72118 0.10826 0.0
C1650 C 0.347 0.71709 0.17308 0.0
C1651 C 0.35848 0.73412 0.20902 0.0
H1652 H 0.6556 0.4309 0.44408 0.0
H1653 H 0.64865 0.43921 0.24465 0.0
H1654 H 0.63132 0.48145 0.26097 0.0
H1655 H 0.61083 0.45603 0.48722 0.0
H1656 H 0.61921 0.47356 0.55493 0.0
H1657 H 0.63074 0.44358 0.52759 0.0
H1658 H 0.66115 0.47053 0.52113 0.0
H1659 H 0.64973 0.50071 0.54792 0.0
H1660 H 0.66213 0.50125 0.47566 0.0
H1661 H 0.61586 0.52377 0.29827 0.0
H1662 H 0.60149 0.56175 0.35441 0.0
H1663 H 0.61787 0.5257 0.52977 0.0
C1664 C 0.65028 0.44136 0.40373 0.0
C1665 C 0.65351 0.43153 0.343 0.0
C1666 C 0.64636 0.44613 0.29167 0.0
C1667 C 0.63652 0.47025 0.30041 0.0
C1668 C 0.63387 0.47954 0.36074 0.0
C1669 C 0.64039 0.46545 0.41155 0.0
C1670 C 0.63574 0.47998 0.47149 0.0
C1671 C 0.62339 0.46223 0.51273 0.0
C1672 C 0.65323 0.48863 0.50607 0.0
C1673 C 0.6255 0.50439 0.4464 0.0
C1674 C 0.62473 0.50382 0.38235 0.0
C1675 C 0.61629 0.52438 0.34844 0.0
C1676 C 0.60823 0.54594 0.38082 0.0
C1677 C 0.60851 0.54674 0.44655 0.0
C1678 C 0.61736 0.52566 0.47957 0.0
H1679 H 0.3598 0.58608 0.44071 0.0
H1680 H 0.35605 0.56793 0.24388 0.0
H1681 H 0.3721 0.52483 0.26097 0.0
H1682 H 0.40491 0.55682 0.46548 0.0
H1683 H 0.39928 0.54302 0.5406 0.0
H1684 H 0.38789 0.57314 0.51304 0.0
H1685 H 0.35644 0.54978 0.52936 0.0
H1686 H 0.36771 0.5195 0.5566 0.0
H1687 H 0.35191 0.51763 0.4925 0.0
H1688 H 0.38749 0.48285 0.29848 0.0
H1689 H 0.40316 0.44576 0.35385 0.0
H1690 H 0.39747 0.49006 0.52693 0.0
C1691 C 0.36257 0.57323 0.40113 0.0
C1692 C 0.35658 0.5806 0.3409 0.0
C1693 C 0.36041 0.56293 0.29054 0.0
C1694 C 0.36951 0.53825 0.2997 0.0
C1695 C 0.37479 0.53128 0.35959 0.0
C1696 C 0.37162 0.54825 0.40948 0.0
C1697 C 0.37858 0.53544 0.46915 0.0
C1698 C 0.39356 0.55316 0.49881 0.0
C1699 C 0.36272 0.53029 0.51459 0.0
C1700 C 0.38636 0.50889 0.44469 0.0
C1701 C 0.38384 0.50688 0.38138 0.0
C1702 C 0.38962 0.48422 0.34807 0.0
C1703 C 0.39848 0.46317 0.38006 0.0
C1704 C 0.40163 0.46487 0.44482 0.0
C1705 C 0.39533 0.48807 0.47743 0.0
H1706 H 0.64301 0.79724 0.64508 0.0
H1707 H 0.66118 0.76815 0.82511 0.0
H1708 H 0.6471 0.72368 0.80409 0.0
H1709 H 0.59928 0.76246 0.64758 0.0
H1710 H 0.59935 0.75456 0.56597 0.0
H1711 H 0.61116 0.78431 0.59378 0.0
H1712 H 0.64111 0.76752 0.5424 0.0
H1713 H 0.62935 0.73773 0.51449 0.0
H1714 H 0.64971 0.73418 0.56105 0.0
H1715 H 0.63065 0.6828 0.76624 0.0
H1716 H 0.61288 0.64734 0.71251 0.0
H1717 H 0.60507 0.70163 0.55583 0.0
C1718 C 0.6441 0.78145 0.67988 0.0
C1719 C 0.65324 0.7863 0.7369 0.0
C1720 C 0.65422 0.7651 0.7813 0.0
C1721 C 0.64628 0.73968 0.76976 0.0
C1722 C 0.63729 0.73561 0.7136 0.0
C1723 C 0.63609 0.75582 0.66925 0.0
C1724 C 0.62524 0.74597 0.61329 0.0
C1725 C 0.60772 0.76283 0.60467 0.0
C1726 C 0.63707 0.74637 0.55432 0.0
C1727 C 0.62076 0.71705 0.63312 0.0
C1728 C 0.6278 0.71166 0.6913 0.0
C1729 C 0.62515 0.6867 0.72048 0.0
C1730 C 0.61502 0.66666 0.68953 0.0
C1731 C 0.60769 0.67152 0.62972 0.0
C1732 C 0.61068 0.69712 0.60118 0.0
H1733 H 0.41181 0.30717 0.56364 0.0
H1734 H 0.37987 0.36852 0.65911 0.0
H1735 H 0.36052 0.33259 0.70481 0.0
H1736 H 0.37503 0.26063 0.52868 0.0
H1737 H 0.38827 0.23053 0.54445 0.0
H1738 H 0.3995 0.26099 0.51785 0.0
H1739 H 0.42083 0.26002 0.61375 0.0
H1740 H 0.4097 0.22953 0.64076 0.0
H1741 H 0.41098 0.25893 0.69032 0.0
H1742 H 0.34535 0.29079 0.74282 0.0
H1743 H 0.33448 0.24496 0.77022 0.0
H1744 H 0.37546 0.20948 0.64946 0.0
C1745 C 0.40057 0.31304 0.59345 0.0
C1746 C 0.3972 0.34073 0.60734 0.0
C1747 C 0.38264 0.34751 0.64768 0.0
C1748 C 0.37159 0.32723 0.67387 0.0
C1749 C 0.37534 0.3002 0.6597 0.0
C1750 C 0.38947 0.29297 0.62061 0.0
C1751 C 0.39085 0.26224 0.61505 0.0
C1752 C 0.38825 0.25306 0.54748 0.0
C1753 C 0.40917 0.25209 0.64154 0.0
C1754 C 0.37491 0.25341 0.65569 0.0
C1755 C 0.36639 0.27576 0.68156 0.0
C1756 C 0.35184 0.27313 0.72273 0.0
C1757 C 0.34582 0.24699 0.73818 0.0
C1758 C 0.35411 0.2237 0.71197 0.0
C1759 C 0.36877 0.22697 0.66969 0.0
H1760 H 0.14668 0.94458 0.29493 0.0
H1761 H 0.14044 0.88866 0.44944 0.0
H1762 H 0.12418 0.92401 0.50842 0.0
H1763 H 0.15372 1.0051 0.38494 0.0
H1764 H 0.14067 0.02665 0.33381 0.0
H1765 H 0.1521 0.99712 0.30352 0.0
H1766 H 0.12146 0.97938 0.25878 0.0
H1767 H 0.1099 0.00889 0.28857 0.0
H1768 H 0.10201 0.97539 0.30944 0.0
H1769 H 0.10879 0.96506 0.55102 0.0
H1770 H 0.09398 0.00879 0.57368 0.0
H1771 H 0.10912 0.03837 0.39078 0.0
C1772 C 0.1418 0.93969 0.34104 0.0
C1773 C 0.14504 0.91383 0.36781 0.0
C1774 C 0.13839 0.90834 0.42823 0.0
C1775 C 0.12908 0.9283 0.46208 0.0
C1776 C 0.12631 0.95361 0.43467 0.0
C1777 C 0.13232 0.95934 0.37537 0.0
C1778 C 0.12724 0.9881 0.35654 0.0
C1779 C 0.14446 1.00526 0.34398 0.0
C1780 C 0.11439 0.98792 0.29999 0.0
C1781 C 0.11737 0.99758 0.4146 0.0
C1782 C 0.11711 0.97734 0.45906 0.0
C1783 C 0.10886 0.98106 0.51657 0.0
C1784 C 0.10048 1.00605 0.529 0.0
C1785 C 0.10033 0.0271 0.48411 0.0
C1786 C 0.10898 0.02274 0.42615 0.0
H1787 H 0.90841 1.00129 0.50325 0.0
H1788 H 0.88227 0.93622 0.40023 0.0
H1789 H 0.8624 0.96979 0.34787 0.0
H1790 H 0.86641 0.04153 0.52533 0.0
H1791 H 0.87832 0.07348 0.51816 0.0
H1792 H 0.89003 0.0442 0.54879 0.0
H1793 H 0.9152 0.04983 0.465 0.0
H1794 H 0.90346 0.07892 0.43378 0.0
H1795 H 0.90877 0.05054 0.38425 0.0
H1796 H 0.84788 0.01074 0.29871 0.0
H1797 H 0.83617 0.05554 0.26697 0.0
H1798 H 0.86951 0.09416 0.40851 0.0
C1799 C 0.8983 0.99408 0.47035 0.0
C1800 C 0.89686 0.96611 0.45582 0.0
C1801 C 0.88349 0.95748 0.41252 0.0
C1802 C 0.87223 0.97643 0.38225 0.0
C1803 C 0.87426 1.00388 0.3967 0.0
C1804 C 0.88666 0.01267 0.44076 0.0
C1805 C 0.88592 0.04333 0.44816 0.0
C1806 C 0.8798 0.05109 0.51403 0.0
C1807 C 0.90444 0.05642 0.43182 0.0
C1808 C 0.87142 0.05048 0.40054 0.0
C1809 C 0.86507 0.02741 0.37085 0.0
C1810 C 0.85251 0.02887 0.32237 0.0
C1811 C 0.84605 0.05448 0.30437 0.0
C1812 C 0.85181 0.07836 0.33557 0.0
C1813 C 0.86468 0.07625 0.38434 0.0
H1814 H 0.09176 0.18517 0.67759 0.0
H1815 H 0.114 0.17517 0.4927 0.0
H1816 H 0.13428 0.21493 0.50948 0.0
H1817 H 0.09144 0.25657 0.6836 0.0
H1818 H 0.09879 0.25904 0.76325 0.0
H1819 H 0.0864 0.2295 0.73736 0.0
H1820 H 0.1126 0.19837 0.77574 0.0
H1821 H 0.12503 0.22778 0.80248 0.0
H1822 H 0.13565 0.20444 0.74919 0.0
H1823 H 0.15008 0.25788 0.54367 0.0
H1824 H 0.16344 0.29759 0.59691 0.0
H1825 H 0.13261 0.27759 0.76299 0.0
C1826 C 0.10111 0.19122 0.64107 0.0
C1827 C 0.10146 0.17726 0.58394 0.0
C1828 C 0.11377 0.18553 0.537 0.0
C1829 C 0.1252 0.20815 0.54602 0.0
C1830 C 0.12437 0.22177 0.60269 0.0
C1831 C 0.11293 0.21327 0.64994 0.0
C1832 C 0.11502 0.231 0.70696 0.0
C1833 C 0.09683 0.24485 0.72374 0.0
C1834 C 0.12252 0.21441 0.76184 0.0
C1835 C 0.12902 0.25137 0.6838 0.0
C1836 C 0.13413 0.24575 0.62341 0.0
C1837 C 0.14637 0.26227 0.59121 0.0
C1838 C 0.1538 0.28488 0.6218 0.0
C1839 C 0.14915 0.29065 0.68424 0.0
C1840 C 0.13655 0.27361 0.71544 0.0
H1841 H 0.86097 0.71045 0.64652 0.0
H1842 H 0.84133 0.74012 0.82421 0.0
H1843 H 0.85497 0.78472 0.80282 0.0
H1844 H 0.90451 0.74696 0.65176 0.0
H1845 H 0.90486 0.7544 0.56989 0.0
H1846 H 0.89342 0.72432 0.59778 0.0
H1847 H 0.86356 0.73961 0.54311 0.0
H1848 H 0.87494 0.76977 0.51539 0.0
H1849 H 0.85419 0.77264 0.56005 0.0
H1850 H 0.86986 0.8259 0.76411 0.0
H1851 H 0.88706 0.86195 0.71147 0.0
H1852 H 0.89855 0.80715 0.55838 0.0
C1853 C 0.8596 0.72636 0.68086 0.0
C1854 C 0.85006 0.72168 0.73722 0.0
C1855 C 0.84862 0.74301 0.78098 0.0
C1856 C 0.85627 0.76854 0.76918 0.0
C1857 C 0.8655 0.77253 0.71354 0.0
C1858 C 0.86741 0.75212 0.67011 0.0
C1859 C 0.87849 0.76214 0.61474 0.0
C1860 C 0.89638 0.74599 0.60818 0.0
C1861 C 0.86711 0.76097 0.55478 0.0
C1862 C 0.88225 0.79135 0.63399 0.0
C1863 C 0.87453 0.79672 0.69112 0.0
C1864 C 0.87601 0.822 0.71934 0.0
C1865 C 0.88581 0.84241 0.68882 0.0
C1866 C 0.89415 0.83754 0.63055 0.0
C1867 C 0.89224 0.81161 0.60263 0.0
H1868 H 0.09782 0.52705 0.82491 0.0
H1869 H 0.1042 0.53102 0.02487 0.0
H1870 H 0.12286 0.48926 0.02244 0.0
H1871 H 0.09467 0.45492 0.81089 0.0
H1872 H 0.108 0.45307 0.7407 0.0
H1873 H 0.09507 0.48326 0.75783 0.0
H1874 H 0.1245 0.51244 0.74833 0.0
H1875 H 0.13749 0.48237 0.73072 0.0
H1876 H 0.14427 0.50387 0.79438 0.0
H1877 H 0.13915 0.44542 0.99905 0.0
H1878 H 0.15515 0.40573 0.95518 0.0
H1879 H 0.14036 0.43202 0.76957 0.0
C1880 C 0.10317 0.51913 0.86815 0.0
C1881 C 0.09943 0.53218 0.92519 0.0
C1882 C 0.10687 0.52139 0.98065 0.0
C1883 C 0.11744 0.49761 0.97978 0.0
C1884 C 0.1207 0.48507 0.92293 0.0
C1885 C 0.11407 0.49569 0.86798 0.0
C1886 C 0.12008 0.47869 0.81299 0.0
C1887 C 0.10346 0.46678 0.77859 0.0
C1888 C 0.13231 0.49534 0.76902 0.0
C1889 C 0.13088 0.45664 0.8457 0.0
C1890 C 0.13089 0.46054 0.90917 0.0
C1891 C 0.13937 0.44229 0.94937 0.0
C1892 C 0.1483 0.41967 0.92401 0.0
C1893 C 0.14904 0.41575 0.85892 0.0
C1894 C 0.14011 0.4345 0.81948 0.0
H1895 H 0.85075 0.56555 0.80276 0.0
H1896 H 0.85979 0.62151 0.95543 0.0
H1897 H 0.87766 0.58635 0.01016 0.0
H1898 H 0.84562 0.50492 0.89659 0.0
H1899 H 0.85734 0.4834 0.84194 0.0
H1900 H 0.84501 0.51279 0.81492 0.0
H1901 H 0.87425 0.53076 0.76076 0.0
H1902 H 0.88667 0.50137 0.78711 0.0
H1903 H 0.89496 0.53494 0.80526 0.0
H1904 H 0.89645 0.54648 0.04467 0.0
H1905 H 0.91395 0.50387 0.05833 0.0
H1906 H 0.89111 0.47254 0.88719 0.0
C1907 C 0.8565 0.57048 0.84767 0.0
C1908 C 0.85399 0.59646 0.87451 0.0
C1909 C 0.86164 0.6019 0.93361 0.0
C1910 C 0.87175 0.58201 0.9652 0.0
C1911 C 0.87399 0.55668 0.93736 0.0
C1912 C 0.86652 0.5508 0.88006 0.0
C1913 C 0.87116 0.52209 0.86002 0.0
C1914 C 0.85374 0.50478 0.85298 0.0
C1915 C 0.88243 0.52232 0.79973 0.0
C1916 C 0.8826 0.5128 0.9148 0.0
C1917 C 0.88412 0.53316 0.95872 0.0
C1918 C 0.89511 0.53024 0.01118 0.0
C1919 C 0.90498 0.50604 0.01859 0.0
C1920 C 0.90352 0.48492 0.9745 0.0
C1921 C 0.89201 0.48818 0.92238 0.0
H1922 H 0.13078 0.79593 0.1899 0.0
H1923 H 0.18263 0.76387 0.12437 0.0
H1924 H 0.16762 0.72088 0.09711 0.0
H1925 H 0.11365 0.73194 0.25526 0.0
H1926 H 0.09034 0.73757 0.2311 0.0
H1927 H 0.10504 0.76609 0.24772 0.0
H1928 H 0.0986 0.78562 0.13824 0.0
H1929 H 0.08393 0.75709 0.12154 0.0
H1930 H 0.10287 0.76485 0.07096 0.0
H1931 H 0.14734 0.68153 0.07336 0.0
H1932 H 0.12276 0.64788 0.05687 0.0
H1933 H 0.08354 0.70387 0.13737 0.0
C1934 C 0.13897 0.77979 0.17022 0.0
C1935 C 0.15798 0.78356 0.15926 0.0
C1936 C 0.1681 0.76182 0.13305 0.0
C1937 C 0.15969 0.73715 0.1174 0.0
C1938 C 0.14102 0.73417 0.12798 0.0
C1939 C 0.13071 0.75477 0.15392 0.0
C1940 C 0.11075 0.746 0.15921 0.0
C1941 C 0.10459 0.74536 0.22738 0.0
C1942 C 0.09831 0.7645 0.12015 0.0
C1943 C 0.11159 0.71746 0.13207 0.0
C1944 C 0.12921 0.71113 0.11438 0.0
C1945 C 0.13347 0.68621 0.08725 0.0
C1946 C 0.11938 0.66718 0.07793 0.0
C1947 C 0.10115 0.67302 0.09575 0.0
C1948 C 0.09731 0.6986 0.12332 0.0
H1949 H 0.87132 0.21296 0.149 0.0
H1950 H 0.84699 0.2471 0.31492 0.0
H1951 H 0.86524 0.2888 0.30112 0.0
H1952 H 0.91781 0.24637 0.16695 0.0
H1953 H 0.91961 0.2514 0.08431 0.0
H1954 H 0.90694 0.22288 0.11436 0.0
H1955 H 0.87905 0.23921 0.049 0.0
H1956 H 0.89182 0.26824 0.02226 0.0
H1957 H 0.87021 0.27298 0.06107 0.0
H1958 H 0.88522 0.32732 0.2693 0.0
H1959 H 0.90316 0.36249 0.21485 0.0
H1960 H 0.91275 0.30663 0.06292 0.0
C1961 C 0.87029 0.22893 0.18331 0.0
C1962 C 0.85799 0.22645 0.23401 0.0
C1963 C 0.85649 0.24828 0.27643 0.0
C1964 C 0.86684 0.27209 0.26901 0.0
C1965 C 0.87861 0.27412 0.21843 0.0
C1966 C 0.88036 0.25328 0.17589 0.0
C1967 C 0.89288 0.26196 0.1228 0.0
C1968 C 0.91035 0.24462 0.12213 0.0
C1969 C 0.88288 0.26052 0.06009 0.0
C1970 C 0.8972 0.2912 0.14105 0.0
C1971 C 0.8893 0.29734 0.19753 0.0
C1972 C 0.89151 0.32274 0.22512 0.0
C1973 C 0.90183 0.34258 0.19398 0.0
C1974 C 0.90943 0.33735 0.13486 0.0
C1975 C 0.90711 0.31121 0.10815 0.0
loop_
_geom_bond_atom_site_label_1
_geom_bond_atom_site_label_2
_geom_bond_distance
_geom_bond_site_symmetry_2
_ccdc_geom_bond_type
O0 Tb1 2.292 . S
O0 C3 1.255 . S
Tb1 O0 2.292 . S
Tb1 O17 2.326 . S
Tb1 O19 2.500 . S
Tb1 O20 2.473 . S
Tb1 O23 2.324 . S
Eu2 O6 2.292 . S
Eu2 C7 2.852 . S
Eu2 O18 2.324 1_556 S
Eu2 O22 2.328 . S
Eu2 O24 2.500 . S
Eu2 O25 2.473 . S
C3 O0 1.255 . S
C3 O4 1.247 . S
O4 C3 1.247 . S
C5 O17 1.242 . S
C5 O18 1.258 . S
O6 Eu2 2.292 . S
O6 C8 1.255 . S
C7 Eu2 2.852 . S
C7 C11 1.503 . S
C7 O24 1.273 . S
C7 O25 1.257 . S
C8 O6 1.255 . S
C8 O9 1.247 1_556 S
O9 C8 1.247 1_554 S
C10 O22 1.236 1_554 S
C10 O23 1.258 . S
C11 C7 1.503 . S
C11 C12 1.379 . S
C11 C16 1.392 . S
C12 C11 1.379 . S
C12 C13 1.404 . S
C12 H26 0.929 . S
C13 C12 1.404 . S
C13 C14 1.389 . S
C14 C13 1.389 . S
C14 C15 1.399 . S
C14 H27 0.931 . S
C15 C14 1.399 . S
C15 C16 1.390 . S
C16 C11 1.392 . S
C16 C15 1.390 . S
C16 H28 0.929 . S
O17 Tb1 2.326 . S
O17 C5 1.242 . S
O18 Eu2 2.324 1_554 S
O18 C5 1.258 . S
O19 Tb1 2.500 . S
O19 C21 1.273 . S
O20 Tb1 2.473 . S
O20 C21 1.257 . S
C21 O19 1.273 . S
C21 O20 1.257 . S
O22 Eu2 2.328 . S
O22 C10 1.236 1_556 S
O23 Tb1 2.324 . S
O23 C10 1.258 . S
O24 Eu2 2.500 . S
O24 C7 1.273 . S
O25 Eu2 2.473 . S
O25 C7 1.257 . S
H26 C12 0.929 . S
H27 C14 0.931 . S
H28 C16 0.929 . S
O29 Tb30 2.292 . S
O29 C32 1.255 . S
Tb30 O29 2.292 . S
Tb30 O46 2.326 . S
Tb30 O48 2.500 . S
Tb30 O49 2.473 . S
Tb30 O52 2.324 . S
Eu31 O35 2.292 . S
Eu31 C36 2.852 . S
Eu31 O47 2.324 1_556 S
Eu31 O51 2.328 . S
Eu31 O53 2.500 . S
Eu31 O54 2.473 . S
C32 O29 1.255 . S
C32 O33 1.247 . S
O33 C32 1.247 . S
C34 O46 1.242 . S
C34 O47 1.258 . S
O35 Eu31 2.292 . S
O35 C37 1.255 . S
C36 Eu31 2.852 . S
C36 C40 1.503 . S
C36 O53 1.273 . S
C36 O54 1.257 . S
C37 O35 1.255 . S
C37 O38 1.247 1_556 S
O38 C37 1.247 1_554 S
C39 O51 1.236 1_554 S
C39 O52 1.258 . S
C40 C36 1.503 . S
C40 C41 1.379 . S
C40 C45 1.392 . S
C41 C40 1.379 . S
C41 C42 1.404 . S
C41 H55 0.929 . S
C42 C41 1.404 . S
C42 C43 1.389 . S
C43 C42 1.389 . S
C43 C44 1.399 . S
C43 H56 0.931 . S
C44 C43 1.399 . S
C44 C45 1.390 . S
C45 C40 1.392 . S
C45 C44 1.390 . S
C45 H57 0.929 . S
O46 Tb30 2.326 . S
O46 C34 1.242 . S
O47 Eu31 2.324 1_554 S
O47 C34 1.258 . S
O48 Tb30 2.500 . S
O48 C50 1.273 . S
O49 Tb30 2.473 . S
O49 C50 1.257 . S
C50 O48 1.273 . S
C50 O49 1.257 . S
O51 Eu31 2.328 . S
O51 C39 1.236 1_556 S
O52 Tb30 2.324 . S
O52 C39 1.258 . S
O53 Eu31 2.500 . S
O53 C36 1.273 . S
O54 Eu31 2.473 . S
O54 C36 1.257 . S
H55 C41 0.929 . S
H56 C43 0.931 . S
H57 C45 0.929 . S
O58 Tb59 2.292 . S
O58 C61 1.255 . S
Tb59 O58 2.292 . S
Tb59 O75 2.326 . S
Tb59 O77 2.500 . S
Tb59 O78 2.473 . S
Tb59 O81 2.324 . S
Eu60 O64 2.292 . S
Eu60 C65 2.852 . S
Eu60 O76 2.324 . S
Eu60 O80 2.326 . S
Eu60 O82 2.500 . S
Eu60 O83 2.473 . S
C61 O58 1.255 . S
C61 O62 1.247 . S
O62 C61 1.247 . S
C63 O75 1.242 . S
C63 O76 1.258 . S
O64 Eu60 2.292 . S
O64 C66 1.255 . S
C65 Eu60 2.852 . S
C65 C69 1.503 . S
C65 O82 1.273 . S
C65 O83 1.257 . S
C66 O64 1.255 . S
C66 O67 1.247 . S
O67 C66 1.247 . S
C68 O80 1.242 . S
C68 O81 1.258 . S
C69 C65 1.503 . S
C69 C70 1.379 . S
C69 C74 1.392 . S
C70 C69 1.379 . S
C70 C71 1.404 . S
C70 H84 0.929 . S
C71 C70 1.404 . S
C71 C72 1.389 1_554 S
C72 C71 1.389 1_556 S
C72 C73 1.399 . S
C72 H85 0.931 . S
C73 C72 1.399 . S
C73 C74 1.390 1_556 S
C74 C69 1.392 . S
C74 C73 1.390 1_554 S
C74 H86 0.929 . S
O75 Tb59 2.326 . S
O75 C63 1.242 . S
O76 Eu60 2.324 . S
O76 C63 1.258 . S
O77 Tb59 2.500 . S
O77 C79 1.273 . S
O78 Tb59 2.473 . S
O78 C79 1.257 . S
C79 O77 1.273 . S
C79 O78 1.257 . S
O80 Eu60 2.326 . S
O80 C68 1.242 . S
O81 Tb59 2.324 . S
O81 C68 1.258 . S
O82 Eu60 2.500 . S
O82 C65 1.273 . S
O83 Eu60 2.473 . S
O83 C65 1.257 . S
H84 C70 0.929 . S
H85 C72 0.931 . S
H86 C74 0.929 . S
O87 Tb88 2.292 . S
O87 C90 1.255 . S
Tb88 O87 2.292 . S
Tb88 O104 2.326 . S
Tb88 O106 2.500 . S
Tb88 O107 2.473 . S
Tb88 O110 2.324 . S
Eu89 O93 2.292 . S
Eu89 C94 2.852 . S
Eu89 O105 2.324 . S
Eu89 O109 2.326 . S
Eu89 O111 2.500 . S
Eu89 O112 2.473 . S
C90 O87 1.255 . S
C90 O91 1.247 . S
O91 C90 1.247 . S
C92 O104 1.242 . S
C92 O105 1.258 . S
O93 Eu89 2.292 . S
O93 C95 1.255 . S
C94 Eu89 2.852 . S
C94 C98 1.503 . S
C94 O111 1.273 . S
C94 O112 1.257 . S
C95 O93 1.255 . S
C95 O96 1.247 . S
O96 C95 1.247 . S
C97 O109 1.242 . S
C97 O110 1.258 . S
C98 C94 1.503 . S
C98 C99 1.379 . S
C98 C103 1.392 . S
C99 C98 1.379 . S
C99 C100 1.404 . S
C99 H113 0.929 . S
C100 C99 1.404 . S
C100 C101 1.389 1_554 S
C101 C100 1.389 1_556 S
C101 C102 1.399 . S
C101 H114 0.931 . S
C102 C101 1.399 . S
C102 C103 1.390 1_556 S
C103 C98 1.392 . S
C103 C102 1.390 1_554 S
C103 H115 0.929 . S
O104 Tb88 2.326 . S
O104 C92 1.242 . S
O105 Eu89 2.324 . S
O105 C92 1.258 . S
O106 Tb88 2.500 . S
O106 C108 1.273 . S
O107 Tb88 2.473 . S
O107 C108 1.257 . S
C108 O106 1.273 . S
C108 O107 1.257 . S
O109 Eu89 2.326 . S
O109 C97 1.242 . S
O110 Tb88 2.324 . S
O110 C97 1.258 . S
O111 Eu89 2.500 . S
O111 C94 1.273 . S
O112 Eu89 2.473 . S
O112 C94 1.257 . S
H113 C99 0.929 . S
H114 C101 0.931 . S
H115 C103 0.929 . S
O116 Tb117 2.292 . S
O116 C119 1.255 . S
Tb117 O116 2.292 . S
Tb117 O133 2.326 . S
Tb117 O135 2.500 . S
Tb117 O136 2.473 . S
Tb117 O139 2.324 . S
Eu118 O122 2.292 . S
Eu118 C123 2.852 . S
Eu118 O134 2.324 . S
Eu118 O138 2.326 . S
Eu118 O140 2.500 . S
Eu118 O141 2.473 . S
C119 O116 1.255 . S
C119 O120 1.247 . S
O120 C119 1.247 . S
C121 O133 1.242 . S
C121 O134 1.258 . S
O122 Eu118 2.292 . S
O122 C124 1.255 . S
C123 Eu118 2.852 . S
C123 C127 1.503 . S
C123 O140 1.273 . S
C123 O141 1.257 . S
C124 O122 1.255 . S
C124 O125 1.247 . S
O125 C124 1.247 . S
C126 O138 1.242 . S
C126 O139 1.258 . S
C127 C123 1.503 . S
C127 C128 1.379 . S
C127 C132 1.392 . S
C128 C127 1.379 . S
C128 C129 1.404 . S
C128 H142 0.929 . S
C129 C128 1.404 . S
C129 C130 1.389 . S
C130 C129 1.389 . S
C130 C131 1.399 . S
C130 H143 0.931 . S
C131 C130 1.399 . S
C131 C132 1.390 . S
C132 C127 1.392 . S
C132 C131 1.390 . S
C132 H144 0.929 . S
O133 Tb117 2.326 . S
O133 C121 1.242 . S
O134 Eu118 2.324 . S
O134 C121 1.258 . S
O135 Tb117 2.500 . S
O135 C137 1.273 . S
O136 Tb117 2.473 . S
O136 C137 1.257 . S
C137 O135 1.273 . S
C137 O136 1.257 . S
O138 Eu118 2.326 . S
O138 C126 1.242 . S
O139 Tb117 2.324 . S
O139 C126 1.258 . S
O140 Eu118 2.500 . S
O140 C123 1.273 . S
O141 Eu118 2.473 . S
O141 C123 1.257 . S
H142 C128 0.929 . S
H143 C130 0.931 . S
H144 C132 0.929 . S
O145 Tb146 2.292 . S
O145 C148 1.255 . S
Tb146 O145 2.292 . S
Tb146 O162 2.326 . S
Tb146 O164 2.500 . S
Tb146 O165 2.473 . S
Tb146 O168 2.324 . S
Eu147 O151 2.292 . S
Eu147 C152 2.852 . S
Eu147 O163 2.324 . S
Eu147 O167 2.326 . S
Eu147 O169 2.500 . S
Eu147 O170 2.473 . S
C148 O145 1.255 . S
C148 O149 1.247 . S
O149 C148 1.247 . S
C150 O162 1.242 . S
C150 O163 1.258 . S
O151 Eu147 2.292 . S
O151 C153 1.255 . S
C152 Eu147 2.852 . S
C152 C156 1.503 . S
C152 O169 1.273 . S
C152 O170 1.257 . S
C153 O151 1.255 . S
C153 O154 1.247 . S
O154 C153 1.247 . S
C155 O167 1.242 . S
C155 O168 1.258 . S
C156 C152 1.503 . S
C156 C157 1.379 . S
C156 C161 1.392 . S
C157 C156 1.379 . S
C157 C158 1.404 . S
C157 H171 0.929 . S
C158 C157 1.404 . S
C158 C159 1.389 . S
C159 C158 1.389 . S
C159 C160 1.399 . S
C159 H172 0.931 . S
C160 C159 1.399 . S
C160 C161 1.390 . S
C161 C156 1.392 . S
C161 C160 1.390 . S
C161 H173 0.929 . S
O162 Tb146 2.326 . S
O162 C150 1.242 . S
O163 Eu147 2.324 . S
O163 C150 1.258 . S
O164 Tb146 2.500 . S
O164 C166 1.273 . S
O165 Tb146 2.473 . S
O165 C166 1.257 . S
C166 O164 1.273 . S
C166 O165 1.257 . S
O167 Eu147 2.326 . S
O167 C155 1.242 . S
O168 Tb146 2.324 . S
O168 C155 1.258 . S
O169 Eu147 2.500 . S
O169 C152 1.273 . S
O170 Eu147 2.473 . S
O170 C152 1.257 . S
H171 C157 0.929 . S
H172 C159 0.931 . S
H173 C161 0.929 . S
O174 Tb175 2.292 . S
O174 C177 1.255 . S
Tb175 O174 2.292 . S
Tb175 O191 2.326 . S
Tb175 O193 2.500 . S
Tb175 O194 2.473 . S
Tb175 O197 2.324 . S
Eu176 O180 2.292 . S
Eu176 C181 2.852 . S
Eu176 O192 2.324 . S
Eu176 O196 2.326 . S
Eu176 O198 2.500 . S
Eu176 O199 2.473 . S
C177 O174 1.255 . S
C177 O178 1.247 . S
O178 C177 1.247 . S
C179 O191 1.242 . S
C179 O192 1.258 . S
O180 Eu176 2.292 . S
O180 C182 1.255 . S
C181 Eu176 2.852 . S
C181 C185 1.503 . S
C181 O198 1.273 . S
C181 O199 1.257 . S
C182 O180 1.255 . S
C182 O183 1.247 . S
O183 C182 1.247 . S
C184 O196 1.242 . S
C184 O197 1.258 . S
C185 C181 1.503 . S
C185 C186 1.379 . S
C185 C190 1.392 . S
C186 C185 1.379 . S
C186 C187 1.404 . S
C186 H200 0.929 . S
C187 C186 1.404 . S
C187 C188 1.389 . S
C188 C187 1.389 . S
C188 C189 1.399 . S
C188 H201 0.931 . S
C189 C188 1.399 . S
C189 C190 1.390 . S
C190 C185 1.392 . S
C190 C189 1.390 . S
C190 H202 0.929 . S
O191 Tb175 2.326 . S
O191 C179 1.242 . S
O192 Eu176 2.324 . S
O192 C179 1.258 . S
O193 Tb175 2.500 . S
O193 C195 1.273 . S
O194 Tb175 2.473 . S
O194 C195 1.257 . S
C195 O193 1.273 . S
C195 O194 1.257 . S
O196 Eu176 2.326 . S
O196 C184 1.242 . S
O197 Tb175 2.324 . S
O197 C184 1.258 . S
O198 Eu176 2.500 . S
O198 C181 1.273 . S
O199 Eu176 2.473 . S
O199 C181 1.257 . S
H200 C186 0.929 . S
H201 C188 0.931 . S
H202 C190 0.929 . S
O203 Tb204 2.292 . S
O203 C206 1.255 . S
Tb204 O203 2.292 . S
Tb204 O220 2.326 . S
Tb204 O222 2.500 . S
Tb204 O223 2.473 . S
Tb204 O226 2.324 . S
Eu205 O209 2.292 . S
Eu205 C210 2.852 . S
Eu205 O221 2.324 . S
Eu205 O225 2.326 . S
Eu205 O227 2.500 . S
Eu205 O228 2.473 . S
C206 O203 1.255 . S
C206 O207 1.247 . S
O207 C206 1.247 . S
C208 O220 1.242 . S
C208 O221 1.258 . S
O209 Eu205 2.292 . S
O209 C211 1.255 . S
C210 Eu205 2.852 . S
C210 C214 1.503 . S
C210 O227 1.273 . S
C210 O228 1.257 . S
C211 O209 1.255 . S
C211 O212 1.247 . S
O212 C211 1.247 . S
C213 O225 1.242 . S
C213 O226 1.258 . S
C214 C210 1.503 . S
C214 C215 1.379 . S
C214 C219 1.392 . S
C215 C214 1.379 . S
C215 C216 1.404 . S
C215 H229 0.929 . S
C216 C215 1.404 . S
C216 C217 1.389 . S
C217 C216 1.389 . S
C217 C218 1.399 . S
C217 H230 0.931 . S
C218 C217 1.399 . S
C218 C219 1.390 . S
C219 C214 1.392 . S
C219 C218 1.390 . S
C219 H231 0.929 . S
O220 Tb204 2.326 . S
O220 C208 1.242 . S
O221 Eu205 2.324 . S
O221 C208 1.258 . S
O222 Tb204 2.500 . S
O222 C224 1.273 . S
O223 Tb204 2.473 . S
O223 C224 1.257 . S
C224 O222 1.273 . S
C224 O223 1.257 . S
O225 Eu205 2.326 . S
O225 C213 1.242 . S
O226 Tb204 2.324 . S
O226 C213 1.258 . S
O227 Eu205 2.500 . S
O227 C210 1.273 . S
O228 Eu205 2.473 . S
O228 C210 1.257 . S
H229 C215 0.929 . S
H230 C217 0.931 . S
H231 C219 0.929 . S
O232 Tb233 2.292 . S
O232 C235 1.255 . S
Tb233 O232 2.292 . S
Tb233 O249 2.326 . S
Tb233 O251 2.500 . S
Tb233 O252 2.473 . S
Tb233 O255 2.324 . S
Eu234 O238 2.292 . S
Eu234 C239 2.852 . S
Eu234 O250 2.324 . S
Eu234 O254 2.326 . S
Eu234 O256 2.500 . S
Eu234 O257 2.473 . S
C235 O232 1.255 . S
C235 O236 1.247 . S
O236 C235 1.247 . S
C237 O249 1.242 . S
C237 O250 1.258 . S
O238 Eu234 2.292 . S
O238 C240 1.255 . S
C239 Eu234 2.852 . S
C239 C243 1.503 . S
C239 O256 1.273 . S
C239 O257 1.257 . S
C240 O238 1.255 . S
C240 O241 1.247 . S
O241 C240 1.247 . S
C242 O254 1.242 . S
C242 O255 1.258 . S
C243 C239 1.503 . S
C243 C244 1.379 . S
C243 C248 1.392 . S
C244 C243 1.379 . S
C244 C245 1.404 . S
C244 H258 0.929 . S
C245 C244 1.404 . S
C245 C246 1.389 . S
C246 C245 1.389 . S
C246 C247 1.399 . S
C246 H259 0.931 . S
C247 C246 1.399 . S
C247 C248 1.390 . S
C248 C243 1.392 . S
C248 C247 1.390 . S
C248 H260 0.929 . S
O249 Tb233 2.326 . S
O249 C237 1.242 . S
O250 Eu234 2.324 . S
O250 C237 1.258 . S
O251 Tb233 2.500 . S
O251 C253 1.273 . S
O252 Tb233 2.473 . S
O252 C253 1.257 . S
C253 O251 1.273 . S
C253 O252 1.257 . S
O254 Eu234 2.326 . S
O254 C242 1.242 . S
O255 Tb233 2.324 . S
O255 C242 1.258 . S
O256 Eu234 2.500 . S
O256 C239 1.273 . S
O257 Eu234 2.473 . S
O257 C239 1.257 . S
H258 C244 0.929 . S
H259 C246 0.931 . S
H260 C248 0.929 . S
O261 Tb262 2.292 . S
O261 C264 1.255 . S
Tb262 O261 2.292 . S
Tb262 O278 2.326 . S
Tb262 O280 2.500 . S
Tb262 O281 2.473 . S
Tb262 O284 2.324 . S
Eu263 O267 2.292 . S
Eu263 C268 2.852 . S
Eu263 O279 2.324 . S
Eu263 O283 2.326 . S
Eu263 O285 2.500 . S
Eu263 O286 2.473 . S
C264 O261 1.255 . S
C264 O265 1.247 . S
O265 C264 1.247 . S
C266 O278 1.242 . S
C266 O279 1.258 . S
O267 Eu263 2.292 . S
O267 C269 1.255 . S
C268 Eu263 2.852 . S
C268 C272 1.503 . S
C268 O285 1.273 . S
C268 O286 1.257 . S
C269 O267 1.255 . S
C269 O270 1.247 . S
O270 C269 1.247 . S
C271 O283 1.242 . S
C271 O284 1.258 . S
C272 C268 1.503 . S
C272 C273 1.379 . S
C272 C277 1.392 . S
C273 C272 1.379 . S
C273 C274 1.404 . S
C273 H287 0.929 . S
C274 C273 1.404 . S
C274 C275 1.389 . S
C275 C274 1.389 . S
C275 C276 1.399 . S
C275 H288 0.931 . S
C276 C275 1.399 . S
C276 C277 1.390 . S
C277 C272 1.392 . S
C277 C276 1.390 . S
C277 H289 0.929 . S
O278 Tb262 2.326 . S
O278 C266 1.242 . S
O279 Eu263 2.324 . S
O279 C266 1.258 . S
O280 Tb262 2.500 . S
O280 C282 1.273 . S
O281 Tb262 2.473 . S
O281 C282 1.257 . S
C282 O280 1.273 . S
C282 O281 1.257 . S
O283 Eu263 2.326 . S
O283 C271 1.242 . S
O284 Tb262 2.324 . S
O284 C271 1.258 . S
O285 Eu263 2.500 . S
O285 C268 1.273 . S
O286 Eu263 2.473 . S
O286 C268 1.257 . S
H287 C273 0.929 . S
H288 C275 0.931 . S
H289 C277 0.929 . S
O290 Tb291 2.292 . S
O290 C293 1.255 . S
Tb291 O290 2.292 . S
Tb291 O307 2.326 . S
Tb291 O309 2.500 . S
Tb291 O310 2.473 . S
Tb291 O313 2.324 . S
Eu292 O296 2.292 . S
Eu292 C297 2.852 . S
Eu292 O308 2.324 . S
Eu292 O312 2.326 . S
Eu292 O314 2.500 . S
Eu292 O315 2.473 . S
C293 O290 1.255 . S
C293 O294 1.247 . S
O294 C293 1.247 . S
C295 O307 1.242 . S
C295 O308 1.258 . S
O296 Eu292 2.292 . S
O296 C298 1.255 . S
C297 Eu292 2.852 . S
C297 C301 1.503 . S
C297 O314 1.273 . S
C297 O315 1.257 . S
C298 O296 1.255 . S
C298 O299 1.247 . S
O299 C298 1.247 . S
C300 O312 1.242 . S
C300 O313 1.258 . S
C301 C297 1.503 . S
C301 C302 1.379 . S
C301 C306 1.392 . S
C302 C301 1.379 . S
C302 C303 1.404 . S
C302 H316 0.929 . S
C303 C302 1.404 . S
C303 C304 1.389 . S
C304 C303 1.389 . S
C304 C305 1.399 . S
C304 H317 0.931 . S
C305 C304 1.399 . S
C305 C306 1.390 . S
C306 C301 1.392 . S
C306 C305 1.390 . S
C306 H318 0.929 . S
O307 Tb291 2.326 . S
O307 C295 1.242 . S
O308 Eu292 2.324 . S
O308 C295 1.258 . S
O309 Tb291 2.500 . S
O309 C311 1.273 . S
O310 Tb291 2.473 . S
O310 C311 1.257 . S
C311 O309 1.273 . S
C311 O310 1.257 . S
O312 Eu292 2.326 . S
O312 C300 1.242 . S
O313 Tb291 2.324 . S
O313 C300 1.258 . S
O314 Eu292 2.500 . S
O314 C297 1.273 . S
O315 Eu292 2.473 . S
O315 C297 1.257 . S
H316 C302 0.929 . S
H317 C304 0.931 . S
H318 C306 0.929 . S
O319 Tb320 2.292 . S
O319 C322 1.255 . S
Tb320 O319 2.292 . S
Tb320 O336 2.326 . S
Tb320 O338 2.500 . S
Tb320 O339 2.473 . S
Tb320 O342 2.324 . S
Eu321 O325 2.292 . S
Eu321 C326 2.852 . S
Eu321 O337 2.324 . S
Eu321 O341 2.326 . S
Eu321 O343 2.500 . S
Eu321 O344 2.473 . S
C322 O319 1.255 . S
C322 O323 1.247 . S
O323 C322 1.247 . S
C324 O336 1.242 . S
C324 O337 1.258 . S
O325 Eu321 2.292 . S
O325 C327 1.255 . S
C326 Eu321 2.852 . S
C326 C330 1.503 . S
C326 O343 1.273 . S
C326 O344 1.257 . S
C327 O325 1.255 . S
C327 O328 1.247 . S
O328 C327 1.247 . S
C329 O341 1.242 . S
C329 O342 1.258 . S
C330 C326 1.503 . S
C330 C331 1.379 . S
C330 C335 1.392 . S
C331 C330 1.379 . S
C331 C332 1.404 . S
C331 H345 0.929 . S
C332 C331 1.404 . S
C332 C333 1.389 . S
C333 C332 1.389 . S
C333 C334 1.399 . S
C333 H346 0.931 . S
C334 C333 1.399 . S
C334 C335 1.390 . S
C335 C330 1.392 . S
C335 C334 1.390 . S
C335 H347 0.929 . S
O336 Tb320 2.326 . S
O336 C324 1.242 . S
O337 Eu321 2.324 . S
O337 C324 1.258 . S
O338 Tb320 2.500 . S
O338 C340 1.273 . S
O339 Tb320 2.473 . S
O339 C340 1.257 . S
C340 O338 1.273 . S
C340 O339 1.257 . S
O341 Eu321 2.326 . S
O341 C329 1.242 . S
O342 Tb320 2.324 . S
O342 C329 1.258 . S
O343 Eu321 2.500 . S
O343 C326 1.273 . S
O344 Eu321 2.473 . S
O344 C326 1.257 . S
H345 C331 0.929 . S
H346 C333 0.931 . S
H347 C335 0.929 . S
O348 Tb349 2.292 . S
O348 C351 1.255 . S
Tb349 O348 2.292 . S
Tb349 O365 2.326 . S
Tb349 O367 2.500 . S
Tb349 O368 2.473 . S
Tb349 O371 2.324 . S
Eu350 O354 2.292 . S
Eu350 C355 2.852 . S
Eu350 O366 2.324 1_556 S
Eu350 O370 2.328 . S
Eu350 O372 2.500 . S
Eu350 O373 2.473 . S
C351 O348 1.255 . S
C351 O352 1.247 . S
O352 C351 1.247 . S
C353 O365 1.242 . S
C353 O366 1.258 . S
O354 Eu350 2.292 . S
O354 C356 1.255 . S
C355 Eu350 2.852 . S
C355 C359 1.503 . S
C355 O372 1.273 . S
C355 O373 1.257 . S
C356 O354 1.255 . S
C356 O357 1.247 1_556 S
O357 C356 1.247 1_554 S
C358 O370 1.236 1_554 S
C358 O371 1.258 . S
C359 C355 1.503 . S
C359 C360 1.379 . S
C359 C364 1.392 . S
C360 C359 1.379 . S
C360 C361 1.404 . S
C360 H374 0.929 . S
C361 C360 1.404 . S
C361 C362 1.389 . S
C362 C361 1.389 . S
C362 C363 1.399 . S
C362 H375 0.931 . S
C363 C362 1.399 . S
C363 C364 1.390 . S
C364 C359 1.392 . S
C364 C363 1.390 . S
C364 H376 0.929 . S
O365 Tb349 2.326 . S
O365 C353 1.242 . S
O366 Eu350 2.324 1_554 S
O366 C353 1.258 . S
O367 Tb349 2.500 . S
O367 C369 1.273 . S
O368 Tb349 2.473 . S
O368 C369 1.257 . S
C369 O367 1.273 . S
C369 O368 1.257 . S
O370 Eu350 2.328 . S
O370 C358 1.236 1_556 S
O371 Tb349 2.324 . S
O371 C358 1.258 . S
O372 Eu350 2.500 . S
O372 C355 1.273 . S
O373 Eu350 2.473 . S
O373 C355 1.257 . S
H374 C360 0.929 . S
H375 C362 0.931 . S
H376 C364 0.929 . S
O377 Tb378 2.292 . S
O377 C380 1.255 . S
Tb378 O377 2.292 . S
Tb378 O394 2.326 . S
Tb378 O396 2.500 . S
Tb378 O397 2.473 . S
Tb378 O400 2.324 . S
Eu379 O383 2.292 . S
Eu379 C384 2.852 . S
Eu379 O395 2.324 1_556 S
Eu379 O399 2.328 . S
Eu379 O401 2.500 . S
Eu379 O402 2.473 . S
C380 O377 1.255 . S
C380 O381 1.247 . S
O381 C380 1.247 . S
C382 O394 1.242 . S
C382 O395 1.258 . S
O383 Eu379 2.292 . S
O383 C385 1.255 . S
C384 Eu379 2.852 . S
C384 C388 1.503 . S
C384 O401 1.273 . S
C384 O402 1.257 . S
C385 O383 1.255 . S
C385 O386 1.247 1_556 S
O386 C385 1.247 1_554 S
C387 O399 1.236 1_554 S
C387 O400 1.258 . S
C388 C384 1.503 . S
C388 C389 1.379 . S
C388 C393 1.392 . S
C389 C388 1.379 . S
C389 C390 1.404 . S
C389 H403 0.929 . S
C390 C389 1.404 . S
C390 C391 1.389 . S
C391 C390 1.389 . S
C391 C392 1.399 . S
C391 H404 0.931 . S
C392 C391 1.399 . S
C392 C393 1.390 . S
C393 C388 1.392 . S
C393 C392 1.390 . S
C393 H405 0.929 . S
O394 Tb378 2.326 . S
O394 C382 1.242 . S
O395 Eu379 2.324 1_554 S
O395 C382 1.258 . S
O396 Tb378 2.500 . S
O396 C398 1.273 . S
O397 Tb378 2.473 . S
O397 C398 1.257 . S
C398 O396 1.273 . S
C398 O397 1.257 . S
O399 Eu379 2.328 . S
O399 C387 1.236 1_556 S
O400 Tb378 2.324 . S
O400 C387 1.258 . S
O401 Eu379 2.500 . S
O401 C384 1.273 . S
O402 Eu379 2.473 . S
O402 C384 1.257 . S
H403 C389 0.929 . S
H404 C391 0.931 . S
H405 C393 0.929 . S
O406 Tb407 2.292 . S
O406 C409 1.255 . S
Tb407 O406 2.292 . S
Tb407 O423 2.326 . S
Tb407 O425 2.500 . S
Tb407 O426 2.473 . S
Tb407 O429 2.324 . S
Eu408 O412 2.292 . S
Eu408 C413 2.852 . S
Eu408 O424 2.324 . S
Eu408 O428 2.326 . S
Eu408 O430 2.500 . S
Eu408 O431 2.473 . S
C409 O406 1.255 . S
C409 O410 1.247 . S
O410 C409 1.247 . S
C411 O423 1.242 . S
C411 O424 1.258 . S
O412 Eu408 2.292 . S
O412 C414 1.255 . S
C413 Eu408 2.852 . S
C413 C417 1.503 . S
C413 O430 1.273 . S
C413 O431 1.257 . S
C414 O412 1.255 . S
C414 O415 1.247 . S
O415 C414 1.247 . S
C416 O428 1.242 . S
C416 O429 1.258 . S
C417 C413 1.503 . S
C417 C418 1.379 . S
C417 C422 1.392 . S
C418 C417 1.379 . S
C418 C419 1.404 . S
C418 H432 0.929 . S
C419 C418 1.404 . S
C419 C420 1.389 1_554 S
C420 C419 1.389 1_556 S
C420 C421 1.399 . S
C420 H433 0.931 . S
C421 C420 1.399 . S
C421 C422 1.390 1_556 S
C422 C417 1.392 . S
C422 C421 1.390 1_554 S
C422 H434 0.929 . S
O423 Tb407 2.326 . S
O423 C411 1.242 . S
O424 Eu408 2.324 . S
O424 C411 1.258 . S
O425 Tb407 2.500 . S
O425 C427 1.273 . S
O426 Tb407 2.473 . S
O426 C427 1.257 . S
C427 O425 1.273 . S
C427 O426 1.257 . S
O428 Eu408 2.326 . S
O428 C416 1.242 . S
O429 Tb407 2.324 . S
O429 C416 1.258 . S
O430 Eu408 2.500 . S
O430 C413 1.273 . S
O431 Eu408 2.473 . S
O431 C413 1.257 . S
H432 C418 0.929 . S
H433 C420 0.931 . S
H434 C422 0.929 . S
O435 Tb436 2.292 . S
O435 C438 1.255 . S
Tb436 O435 2.292 . S
Tb436 O452 2.326 . S
Tb436 O454 2.500 . S
Tb436 O455 2.473 . S
Tb436 O458 2.324 . S
Eu437 O441 2.292 . S
Eu437 C442 2.852 . S
Eu437 O453 2.324 . S
Eu437 O457 2.326 . S
Eu437 O459 2.500 . S
Eu437 O460 2.473 . S
C438 O435 1.255 . S
C438 O439 1.247 . S
O439 C438 1.247 . S
C440 O452 1.242 . S
C440 O453 1.258 . S
O441 Eu437 2.292 . S
O441 C443 1.255 . S
C442 Eu437 2.852 . S
C442 C446 1.503 . S
C442 O459 1.273 . S
C442 O460 1.257 . S
C443 O441 1.255 . S
C443 O444 1.247 . S
O444 C443 1.247 . S
C445 O457 1.242 . S
C445 O458 1.258 . S
C446 C442 1.503 . S
C446 C447 1.379 . S
C446 C451 1.392 . S
C447 C446 1.379 . S
C447 C448 1.404 . S
C447 H461 0.929 . S
C448 C447 1.404 . S
C448 C449 1.389 1_554 S
C449 C448 1.389 1_556 S
C449 C450 1.399 . S
C449 H462 0.931 . S
C450 C449 1.399 . S
C450 C451 1.390 1_556 S
C451 C446 1.392 . S
C451 C450 1.390 1_554 S
C451 H463 0.929 . S
O452 Tb436 2.326 . S
O452 C440 1.242 . S
O453 Eu437 2.324 . S
O453 C440 1.258 . S
O454 Tb436 2.500 . S
O454 C456 1.273 . S
O455 Tb436 2.473 . S
O455 C456 1.257 . S
C456 O454 1.273 . S
C456 O455 1.257 . S
O457 Eu437 2.326 . S
O457 C445 1.242 . S
O458 Tb436 2.324 . S
O458 C445 1.258 . S
O459 Eu437 2.500 . S
O459 C442 1.273 . S
O460 Eu437 2.473 . S
O460 C442 1.257 . S
H461 C447 0.929 . S
H462 C449 0.931 . S
H463 C451 0.929 . S
H464 C476 0.930 . S
H465 C478 0.930 . S
H466 C479 0.930 . S
H467 C483 0.959 . S
H468 C483 0.959 . S
H469 C483 0.961 . S
H470 C484 0.960 . S
H471 C484 0.961 . S
H472 C484 0.959 . S
H473 C487 0.929 . S
H474 C488 0.931 . S
H475 C490 0.930 . S
C476 H464 0.930 . S
C476 C477 1.399 . S
C476 C481 1.399 . S
C477 C476 1.399 . S
C477 C478 1.376 . S
C478 H465 0.930 . S
C478 C477 1.376 . S
C478 C479 1.388 . S
C479 H466 0.930 . S
C479 C478 1.388 . S
C479 C480 1.390 . S
C480 C479 1.390 . S
C480 C481 1.394 . S
C480 C486 1.465 . S
C481 C476 1.399 . S
C481 C480 1.394 . S
C481 C482 1.516 . S
C482 C481 1.516 . S
C482 C483 1.502 . S
C482 C484 1.561 . S
C482 C485 1.526 . S
C483 H467 0.959 . S
C483 H468 0.959 . S
C483 H469 0.961 . S
C483 C482 1.502 . S
C484 H470 0.960 . S
C484 H471 0.961 . S
C484 H472 0.959 . S
C484 C482 1.561 . S
C485 C482 1.526 . S
C485 C486 1.396 . S
C485 C490 1.390 . S
C486 C480 1.465 . S
C486 C485 1.396 . S
C486 C487 1.399 . S
C487 H473 0.929 . S
C487 C486 1.399 . S
C487 C488 1.385 . S
C488 H474 0.931 . S
C488 C487 1.385 . S
C488 C489 1.389 . S
C489 C488 1.389 . S
C489 C490 1.387 . S
C490 H475 0.930 . S
C490 C485 1.390 . S
C490 C489 1.387 . S
H491 C503 0.930 . S
H492 C505 0.930 . S
H493 C506 0.930 . S
H494 C510 0.959 . S
H495 C510 0.959 . S
H496 C510 0.961 . S
H497 C511 0.960 . S
H498 C511 0.961 . S
H499 C511 0.959 . S
H500 C514 0.929 . S
H501 C515 0.931 . S
H502 C517 0.930 . S
C503 H491 0.930 . S
C503 C504 1.399 . S
C503 C508 1.399 . S
C504 C503 1.399 . S
C504 C505 1.376 . S
C505 H492 0.930 . S
C505 C504 1.376 . S
C505 C506 1.388 . S
C506 H493 0.930 . S
C506 C505 1.388 . S
C506 C507 1.390 . S
C507 C506 1.390 . S
C507 C508 1.394 . S
C507 C513 1.465 . S
C508 C503 1.399 . S
C508 C507 1.394 . S
C508 C509 1.516 . S
C509 C508 1.516 . S
C509 C510 1.502 . S
C509 C511 1.561 . S
C509 C512 1.526 . S
C510 H494 0.959 . S
C510 H495 0.959 . S
C510 H496 0.961 . S
C510 C509 1.502 . S
C511 H497 0.960 . S
C511 H498 0.961 . S
C511 H499 0.959 . S
C511 C509 1.561 . S
C512 C509 1.526 . S
C512 C513 1.396 . S
C512 C517 1.390 . S
C513 C507 1.465 . S
C513 C512 1.396 . S
C513 C514 1.399 . S
C514 H500 0.929 . S
C514 C513 1.399 . S
C514 C515 1.385 . S
C515 H501 0.931 . S
C515 C514 1.385 . S
C515 C516 1.389 . S
C516 C515 1.389 . S
C516 C517 1.387 . S
C517 H502 0.930 . S
C517 C512 1.390 . S
C517 C516 1.387 . S
H518 C530 0.930 . S
H519 C532 0.930 . S
H520 C533 0.930 . S
H521 C537 0.959 . S
H522 C537 0.959 . S
H523 C537 0.961 . S
H524 C538 0.960 . S
H525 C538 0.961 . S
H526 C538 0.959 . S
H527 C541 0.929 . S
H528 C542 0.931 . S
H529 C544 0.930 . S
C530 H518 0.930 . S
C530 C531 1.399 . S
C530 C535 1.399 . S
C531 C530 1.399 . S
C531 C532 1.376 . S
C532 H519 0.930 . S
C532 C531 1.376 . S
C532 C533 1.388 . S
C533 H520 0.930 . S
C533 C532 1.388 . S
C533 C534 1.390 . S
C534 C533 1.390 . S
C534 C535 1.394 . S
C534 C540 1.465 . S
C535 C530 1.399 . S
C535 C534 1.394 . S
C535 C536 1.516 . S
C536 C535 1.516 . S
C536 C537 1.502 . S
C536 C538 1.561 . S
C536 C539 1.526 . S
C537 H521 0.959 . S
C537 H522 0.959 . S
C537 H523 0.961 . S
C537 C536 1.502 . S
C538 H524 0.960 . S
C538 H525 0.961 . S
C538 H526 0.959 . S
C538 C536 1.561 . S
C539 C536 1.526 . S
C539 C540 1.396 . S
C539 C544 1.390 . S
C540 C534 1.465 . S
C540 C539 1.396 . S
C540 C541 1.399 . S
C541 H527 0.929 . S
C541 C540 1.399 . S
C541 C542 1.385 . S
C542 H528 0.931 . S
C542 C541 1.385 . S
C542 C543 1.389 . S
C543 C542 1.389 . S
C543 C544 1.387 . S
C544 H529 0.930 . S
C544 C539 1.390 . S
C544 C543 1.387 . S
H545 C557 0.930 . S
H546 C559 0.930 . S
H547 C560 0.930 . S
H548 C564 0.959 . S
H549 C564 0.959 . S
H550 C564 0.961 . S
H551 C565 0.960 . S
H552 C565 0.961 . S
H553 C565 0.959 . S
H554 C568 0.929 . S
H555 C569 0.931 . S
H556 C571 0.930 . S
C557 H545 0.930 . S
C557 C558 1.399 . S
C557 C562 1.399 . S
C558 C557 1.399 . S
C558 C559 1.376 . S
C559 H546 0.930 . S
C559 C558 1.376 . S
C559 C560 1.388 . S
C560 H547 0.930 . S
C560 C559 1.388 . S
C560 C561 1.390 . S
C561 C560 1.390 . S
C561 C562 1.394 . S
C561 C567 1.465 . S
C562 C557 1.399 . S
C562 C561 1.394 . S
C562 C563 1.516 . S
C563 C562 1.516 . S
C563 C564 1.502 . S
C563 C565 1.561 . S
C563 C566 1.526 . S
C564 H548 0.959 . S
C564 H549 0.959 . S
C564 H550 0.961 . S
C564 C563 1.502 . S
C565 H551 0.960 . S
C565 H552 0.961 . S
C565 H553 0.959 . S
C565 C563 1.561 . S
C566 C563 1.526 . S
C566 C567 1.396 . S
C566 C571 1.390 . S
C567 C561 1.465 . S
C567 C566 1.396 . S
C567 C568 1.399 . S
C568 H554 0.929 . S
C568 C567 1.399 . S
C568 C569 1.385 . S
C569 H555 0.931 . S
C569 C568 1.385 . S
C569 C570 1.389 . S
C570 C569 1.389 . S
C570 C571 1.387 . S
C571 H556 0.930 . S
C571 C566 1.390 . S
C571 C570 1.387 . S
H572 C584 0.930 . S
H573 C586 0.930 . S
H574 C587 0.930 . S
H575 C591 0.959 . S
H576 C591 0.959 . S
H577 C591 0.961 . S
H578 C592 0.960 . S
H579 C592 0.961 . S
H580 C592 0.959 . S
H581 C595 0.929 . S
H582 C596 0.931 . S
H583 C598 0.930 . S
C584 H572 0.930 . S
C584 C585 1.399 . S
C584 C589 1.399 . S
C585 C584 1.399 . S
C585 C586 1.376 . S
C586 H573 0.930 . S
C586 C585 1.376 . S
C586 C587 1.388 . S
C587 H574 0.930 . S
C587 C586 1.388 . S
C587 C588 1.390 . S
C588 C587 1.390 . S
C588 C589 1.394 . S
C588 C594 1.465 . S
C589 C584 1.399 . S
C589 C588 1.394 . S
C589 C590 1.516 . S
C590 C589 1.516 . S
C590 C591 1.502 . S
C590 C592 1.561 . S
C590 C593 1.526 . S
C591 H575 0.959 . S
C591 H576 0.959 . S
C591 H577 0.961 . S
C591 C590 1.502 . S
C592 H578 0.960 . S
C592 H579 0.961 . S
C592 H580 0.959 . S
C592 C590 1.561 . S
C593 C590 1.526 . S
C593 C594 1.396 . S
C593 C598 1.390 . S
C594 C588 1.465 . S
C594 C593 1.396 . S
C594 C595 1.399 . S
C595 H581 0.929 . S
C595 C594 1.399 . S
C595 C596 1.385 . S
C596 H582 0.931 . S
C596 C595 1.385 . S
C596 C597 1.389 . S
C597 C596 1.389 . S
C597 C598 1.387 . S
C598 H583 0.930 . S
C598 C593 1.390 . S
C598 C597 1.387 . S
H599 C611 0.930 . S
H600 C613 0.930 . S
H601 C614 0.930 . S
H602 C618 0.959 . S
H603 C618 0.959 . S
H604 C618 0.961 . S
H605 C619 0.960 . S
H606 C619 0.961 . S
H607 C619 0.959 . S
H608 C622 0.929 . S
H609 C623 0.931 . S
H610 C625 0.930 . S
C611 H599 0.930 . S
C611 C612 1.399 . S
C611 C616 1.399 . S
C612 C611 1.399 . S
C612 C613 1.376 . S
C613 H600 0.930 . S
C613 C612 1.376 . S
C613 C614 1.388 . S
C614 H601 0.930 . S
C614 C613 1.388 . S
C614 C615 1.390 . S
C615 C614 1.390 . S
C615 C616 1.394 . S
C615 C621 1.465 . S
C616 C611 1.399 . S
C616 C615 1.394 . S
C616 C617 1.516 . S
C617 C616 1.516 . S
C617 C618 1.502 . S
C617 C619 1.561 . S
C617 C620 1.526 . S
C618 H602 0.959 . S
C618 H603 0.959 . S
C618 H604 0.961 . S
C618 C617 1.502 . S
C619 H605 0.960 . S
C619 H606 0.961 . S
C619 H607 0.959 . S
C619 C617 1.561 . S
C620 C617 1.526 . S
C620 C621 1.396 . S
C620 C625 1.390 . S
C621 C615 1.465 . S
C621 C620 1.396 . S
C621 C622 1.399 . S
C622 H608 0.929 . S
C622 C621 1.399 . S
C622 C623 1.385 . S
C623 H609 0.931 . S
C623 C622 1.385 . S
C623 C624 1.389 . S
C624 C623 1.389 . S
C624 C625 1.387 . S
C625 H610 0.930 . S
C625 C620 1.390 . S
C625 C624 1.387 . S
H626 C638 0.930 . S
H627 C640 0.930 . S
H628 C641 0.930 . S
H629 C645 0.959 . S
H630 C645 0.959 . S
H631 C645 0.961 . S
H632 C646 0.960 . S
H633 C646 0.961 . S
H634 C646 0.959 . S
H635 C649 0.929 . S
H636 C650 0.931 . S
H637 C652 0.930 . S
C638 H626 0.930 . S
C638 C639 1.399 . S
C638 C643 1.399 1_565 S
C639 C638 1.399 . S
C639 C640 1.376 . S
C640 H627 0.930 . S
C640 C639 1.376 . S
C640 C641 1.388 1_556 S
C641 H628 0.930 . S
C641 C640 1.388 1_554 S
C641 C642 1.390 1_554 S
C642 C641 1.390 1_556 S
C642 C643 1.394 1_565 S
C642 C648 1.465 1_566 S
C643 C638 1.399 1_545 S
C643 C642 1.394 1_545 S
C643 C644 1.516 . S
C644 C643 1.516 . S
C644 C645 1.502 . S
C644 C646 1.561 . S
C644 C647 1.526 . S
C645 H629 0.959 . S
C645 H630 0.959 . S
C645 H631 0.961 . S
C645 C644 1.502 . S
C646 H632 0.960 . S
C646 H633 0.961 . S
C646 H634 0.959 . S
C646 C644 1.561 . S
C647 C644 1.526 . S
C647 C648 1.396 1_556 S
C647 C652 1.390 . S
C648 C642 1.465 1_544 S
C648 C647 1.396 1_554 S
C648 C649 1.399 . S
C649 H635 0.929 . S
C649 C648 1.399 . S
C649 C650 1.385 . S
C650 H636 0.931 . S
C650 C649 1.385 . S
C650 C651 1.389 . S
C651 C650 1.389 . S
C651 C652 1.387 1_554 S
C652 H637 0.930 . S
C652 C647 1.390 . S
C652 C651 1.387 1_556 S
H653 C665 0.930 . S
H654 C667 0.930 . S
H655 C668 0.930 . S
H656 C672 0.959 . S
H657 C672 0.959 1_545 S
H658 C672 0.961 . S
H659 C673 0.960 . S
H660 C673 0.961 . S
H661 C673 0.959 . S
H662 C676 0.909 1_565 S
H663 C677 0.931 . S
H664 C679 0.930 . S
C665 H653 0.930 . S
C665 C666 1.399 . S
C665 C670 1.399 . S
C666 C665 1.399 . S
C666 C667 1.376 . S
C667 H654 0.930 . S
C667 C666 1.376 . S
C667 C668 1.388 . S
C668 H655 0.930 . S
C668 C667 1.388 . S
C668 C669 1.390 . S
C669 C668 1.390 . S
C669 C670 1.394 . S
C669 C675 1.465 1_554 S
C670 C665 1.399 . S
C670 C669 1.394 . S
C670 C671 1.527 1_554 S
C671 C670 1.527 1_556 S
C671 C672 1.503 . S
C671 C673 1.554 1_566 S
C671 C674 1.521 1_565 S
C672 H656 0.959 . S
C672 H657 0.959 1_565 S
C672 H658 0.961 . S
C672 C671 1.503 . S
C673 H659 0.960 . S
C673 H660 0.961 . S
C673 H661 0.959 . S
C673 C671 1.554 1_544 S
C674 C671 1.521 1_545 S
C674 C675 1.396 1_545 S
C674 C679 1.390 . S
C675 C669 1.465 1_556 S
C675 C674 1.396 1_565 S
C675 C676 1.391 1_565 S
C676 H662 0.909 1_545 S
C676 C675 1.391 1_545 S
C676 C677 1.415 . S
C677 H663 0.931 . S
C677 C676 1.415 . S
C677 C678 1.389 . S
C678 C677 1.389 . S
C678 C679 1.387 . S
C679 H664 0.930 . S
C679 C674 1.390 . S
C679 C678 1.387 . S
H680 C692 0.930 . S
H681 C694 0.930 . S
H682 C695 0.930 . S
H683 C699 0.959 . S
H684 C699 0.959 . S
H685 C699 0.961 . S
H686 C700 0.960 . S
H687 C700 0.961 . S
H688 C700 0.959 . S
H689 C703 0.929 . S
H690 C704 0.931 . S
H691 C706 0.930 . S
C692 H680 0.930 . S
C692 C693 1.399 . S
C692 C697 1.399 . S
C693 C692 1.399 . S
C693 C694 1.376 . S
C694 H681 0.930 . S
C694 C693 1.376 . S
C694 C695 1.388 . S
C695 H682 0.930 . S
C695 C694 1.388 . S
C695 C696 1.390 . S
C696 C695 1.390 . S
C696 C697 1.394 . S
C696 C702 1.465 1_655 S
C697 C692 1.399 . S
C697 C696 1.394 . S
C697 C698 1.516 1_655 S
C698 C697 1.516 1_455 S
C698 C699 1.502 . S
C698 C700 1.561 1_455 S
C698 C701 1.526 . S
C699 H683 0.959 . S
C699 H684 0.959 . S
C699 H685 0.961 . S
C699 C698 1.502 . S
C700 H686 0.960 . S
C700 H687 0.961 . S
C700 H688 0.959 . S
C700 C698 1.561 1_655 S
C701 C698 1.526 . S
C701 C702 1.396 . S
C701 C706 1.390 . S
C702 C696 1.465 1_455 S
C702 C701 1.396 . S
C702 C703 1.399 . S
C703 H689 0.929 . S
C703 C702 1.399 . S
C703 C704 1.385 . S
C704 H690 0.931 . S
C704 C703 1.385 . S
C704 C705 1.389 . S
C705 C704 1.389 . S
C705 C706 1.387 . S
C706 H691 0.930 . S
C706 C701 1.390 . S
C706 C705 1.387 . S
H707 C719 0.930 . S
H708 C721 0.930 . S
H709 C722 0.930 . S
H710 C726 0.968 . S
H711 C726 0.959 . S
H712 C726 0.961 . S
H713 C727 0.960 . S
H714 C727 0.961 . S
H715 C727 0.959 . S
H716 C730 0.909 1_455 S
H717 C731 0.931 . S
H718 C733 0.930 . S
C719 H707 0.930 . S
C719 C720 1.399 . S
C719 C724 1.399 1_455 S
C720 C719 1.399 . S
C720 C721 1.376 . S
C721 H708 0.930 . S
C721 C720 1.376 . S
C721 C722 1.388 . S
C722 H709 0.930 . S
C722 C721 1.388 . S
C722 C723 1.390 . S
C723 C722 1.390 . S
C723 C724 1.394 1_455 S
C723 C729 1.465 1_455 S
C724 C719 1.399 1_655 S
C724 C723 1.394 1_655 S
C724 C725 1.516 . S
C725 C724 1.516 . S
C725 C726 1.502 . S
C725 C727 1.561 . S
C725 C728 1.526 . S
C726 H710 0.968 . S
C726 H711 0.959 . S
C726 H712 0.961 . S
C726 C725 1.502 . S
C727 H713 0.960 . S
C727 H714 0.961 . S
C727 H715 0.959 . S
C727 C725 1.561 . S
C728 C725 1.526 . S
C728 C729 1.396 . S
C728 C733 1.390 . S
C729 C723 1.465 1_655 S
C729 C728 1.396 . S
C729 C730 1.404 . S
C730 H716 0.909 1_655 S
C730 C729 1.404 . S
C730 C731 1.403 . S
C731 H717 0.931 . S
C731 C730 1.403 . S
C731 C732 1.389 . S
C732 C731 1.389 . S
C732 C733 1.387 . S
C733 H718 0.930 . S
C733 C728 1.390 . S
C733 C732 1.387 . S
H734 C746 0.930 . S
H735 C748 0.930 . S
H736 C749 0.930 . S
H737 C753 0.959 . S
H738 C753 0.959 . S
H739 C753 0.961 . S
H740 C754 0.960 . S
H741 C754 0.961 . S
H742 C754 0.959 . S
H743 C757 0.929 . S
H744 C758 0.931 . S
H745 C760 0.930 . S
C746 H734 0.930 . S
C746 C747 1.399 1_556 S
C746 C751 1.399 . S
C747 C746 1.399 1_554 S
C747 C748 1.376 . S
C748 H735 0.930 . S
C748 C747 1.376 . S
C748 C749 1.388 . S
C749 H736 0.930 . S
C749 C748 1.388 . S
C749 C750 1.390 . S
C750 C749 1.390 . S
C750 C751 1.394 1_554 S
C750 C756 1.465 1_554 S
C751 C746 1.399 . S
C751 C750 1.394 1_556 S
C751 C752 1.516 . S
C752 C751 1.516 . S
C752 C753 1.502 . S
C752 C754 1.561 . S
C752 C755 1.526 . S
C753 H737 0.959 . S
C753 H738 0.959 . S
C753 H739 0.961 . S
C753 C752 1.502 . S
C754 H740 0.960 . S
C754 H741 0.961 . S
C754 H742 0.959 . S
C754 C752 1.561 . S
C755 C752 1.526 . S
C755 C756 1.396 . S
C755 C760 1.390 . S
C756 C750 1.465 1_556 S
C756 C755 1.396 . S
C756 C757 1.399 1_556 S
C757 H743 0.929 . S
C757 C756 1.399 1_554 S
C757 C758 1.385 1_554 S
C758 H744 0.931 . S
C758 C757 1.385 1_556 S
C758 C759 1.389 . S
C759 C758 1.389 . S
C759 C760 1.387 . S
C760 H745 0.930 . S
C760 C755 1.390 . S
C760 C759 1.387 . S
H761 C773 0.930 . S
H762 C775 0.930 . S
H763 C776 0.930 . S
H764 C780 0.959 . S
H765 C780 0.959 . S
H766 C780 0.961 . S
H767 C781 0.960 . S
H768 C781 0.961 . S
H769 C781 0.959 . S
H770 C784 0.929 . S
H771 C785 0.931 . S
H772 C787 0.930 . S
C773 H761 0.930 . S
C773 C774 1.399 . S
C773 C778 1.399 . S
C774 C773 1.399 . S
C774 C775 1.376 . S
C775 H762 0.930 . S
C775 C774 1.376 . S
C775 C776 1.388 . S
C776 H763 0.930 . S
C776 C775 1.388 . S
C776 C777 1.390 . S
C777 C776 1.390 . S
C777 C778 1.394 . S
C777 C783 1.465 . S
C778 C773 1.399 . S
C778 C777 1.394 . S
C778 C779 1.516 1_556 S
C779 C778 1.516 1_554 S
C779 C780 1.502 . S
C779 C781 1.561 . S
C779 C782 1.526 . S
C780 H764 0.959 . S
C780 H765 0.959 . S
C780 H766 0.961 . S
C780 C779 1.502 . S
C781 H767 0.960 . S
C781 H768 0.961 . S
C781 H769 0.959 . S
C781 C779 1.561 . S
C782 C779 1.526 . S
C782 C783 1.396 1_554 S
C782 C787 1.390 . S
C783 C777 1.465 . S
C783 C782 1.396 1_556 S
C783 C784 1.399 . S
C784 H770 0.929 . S
C784 C783 1.399 . S
C784 C785 1.385 . S
C785 H771 0.931 . S
C785 C784 1.385 . S
C785 C786 1.389 1_556 S
C786 C785 1.389 1_554 S
C786 C787 1.387 . S
C787 H772 0.930 . S
C787 C782 1.390 . S
C787 C786 1.387 . S
H788 C800 0.930 . S
H789 C802 0.930 . S
H790 C803 0.930 . S
H791 C807 0.959 . S
H792 C807 0.959 . S
H793 C807 0.966 . S
H794 C808 0.960 . S
H795 C808 0.961 . S
H796 C808 0.959 . S
H797 C811 0.929 . S
H798 C812 0.931 . S
H799 C814 0.930 . S
C800 H788 0.930 . S
C800 C801 1.399 . S
C800 C805 1.399 . S
C801 C800 1.399 . S
C801 C802 1.376 . S
C802 H789 0.930 . S
C802 C801 1.376 . S
C802 C803 1.388 . S
C803 H790 0.930 . S
C803 C802 1.388 . S
C803 C804 1.390 . S
C804 C803 1.390 . S
C804 C805 1.394 . S
C804 C810 1.451 1_455 S
C805 C800 1.399 . S
C805 C804 1.394 . S
C805 C806 1.516 . S
C806 C805 1.516 . S
C806 C807 1.502 1_455 S
C806 C808 1.561 . S
C806 C809 1.526 1_455 S
C807 H791 0.959 . S
C807 H792 0.959 . S
C807 H793 0.966 . S
C807 C806 1.502 1_655 S
C808 H794 0.960 . S
C808 H795 0.961 . S
C808 H796 0.959 . S
C808 C806 1.561 . S
C809 C806 1.526 1_655 S
C809 C810 1.398 . S
C809 C814 1.390 . S
C810 C804 1.451 1_655 S
C810 C809 1.398 . S
C810 C811 1.411 . S
C811 H797 0.929 . S
C811 C810 1.411 . S
C811 C812 1.385 . S
C812 H798 0.931 . S
C812 C811 1.385 . S
C812 C813 1.389 . S
C813 C812 1.389 . S
C813 C814 1.387 . S
C814 H799 0.930 . S
C814 C809 1.390 . S
C814 C813 1.387 . S
H815 C827 0.930 . S
H816 C829 0.930 . S
H817 C830 0.930 . S
H818 C834 0.959 . S
H819 C834 0.959 . S
H820 C834 0.961 . S
H821 C835 0.960 . S
H822 C835 0.961 . S
H823 C835 0.959 . S
H824 C838 0.929 1_655 S
H825 C839 0.931 . S
H826 C841 0.930 . S
C827 H815 0.930 . S
C827 C828 1.399 . S
C827 C832 1.399 . S
C828 C827 1.399 . S
C828 C829 1.376 . S
C829 H816 0.930 . S
C829 C828 1.376 . S
C829 C830 1.388 . S
C830 H817 0.930 . S
C830 C829 1.388 . S
C830 C831 1.390 . S
C831 C830 1.390 . S
C831 C832 1.394 . S
C831 C837 1.465 . S
C832 C827 1.399 . S
C832 C831 1.394 . S
C832 C833 1.516 . S
C833 C832 1.516 . S
C833 C834 1.502 1_655 S
C833 C835 1.561 . S
C833 C836 1.526 1_655 S
C834 H818 0.959 . S
C834 H819 0.959 . S
C834 H820 0.961 . S
C834 C833 1.502 1_455 S
C835 H821 0.960 . S
C835 H822 0.961 . S
C835 H823 0.959 . S
C835 C833 1.561 . S
C836 C833 1.526 1_455 S
C836 C837 1.396 1_455 S
C836 C841 1.390 . S
C837 C831 1.465 . S
C837 C836 1.396 1_655 S
C837 C838 1.399 1_655 S
C838 H824 0.929 1_455 S
C838 C837 1.399 1_455 S
C838 C839 1.385 . S
C839 H825 0.931 . S
C839 C838 1.385 . S
C839 C840 1.389 . S
C840 C839 1.389 . S
C840 C841 1.387 . S
C841 H826 0.930 . S
C841 C836 1.390 . S
C841 C840 1.387 . S
H842 C854 0.930 . S
H843 C856 0.930 . S
H844 C857 0.930 . S
H845 C861 0.959 . S
H846 C861 0.959 . S
H847 C861 0.961 . S
H848 C862 0.960 . S
H849 C862 0.961 . S
H850 C862 0.959 . S
H851 C865 0.929 . S
H852 C866 0.931 . S
H853 C868 0.930 . S
C854 H842 0.930 . S
C854 C855 1.399 . S
C854 C859 1.408 . S
C855 C854 1.399 . S
C855 C856 1.376 . S
C856 H843 0.930 . S
C856 C855 1.376 . S
C856 C857 1.388 . S
C857 H844 0.930 . S
C857 C856 1.388 . S
C857 C858 1.385 1_565 S
C858 C857 1.385 1_545 S
C858 C859 1.393 1_545 S
C858 C864 1.470 . S
C859 C854 1.408 . S
C859 C858 1.393 1_565 S
C859 C860 1.506 1_565 S
C860 C859 1.506 1_545 S
C860 C861 1.502 . S
C860 C862 1.561 . S
C860 C863 1.526 . S
C861 H845 0.959 . S
C861 H846 0.959 . S
C861 H847 0.961 . S
C861 C860 1.502 . S
C862 H848 0.960 . S
C862 H849 0.961 . S
C862 H850 0.959 . S
C862 C860 1.561 . S
C863 C860 1.526 . S
C863 C864 1.396 . S
C863 C868 1.390 . S
C864 C858 1.470 . S
C864 C863 1.396 . S
C864 C865 1.399 . S
C865 H851 0.929 . S
C865 C864 1.399 . S
C865 C866 1.385 . S
C866 H852 0.931 . S
C866 C865 1.385 . S
C866 C867 1.389 . S
C867 C866 1.389 . S
C867 C868 1.387 . S
C868 H853 0.930 . S
C868 C863 1.390 . S
C868 C867 1.387 . S
H869 C881 0.930 . S
H870 C883 0.930 . S
H871 C884 0.930 . S
H872 C888 0.959 . S
H873 C888 0.959 . S
H874 C888 0.961 . S
H875 C889 0.960 . S
H876 C889 0.961 . S
H877 C889 0.959 . S
H878 C892 0.929 . S
H879 C893 0.931 . S
H880 C895 0.930 . S
C881 H869 0.930 . S
C881 C882 1.399 . S
C881 C886 1.399 . S
C882 C881 1.399 . S
C882 C883 1.376 . S
C883 H870 0.930 . S
C883 C882 1.376 . S
C883 C884 1.388 . S
C884 H871 0.930 . S
C884 C883 1.388 . S
C884 C885 1.390 . S
C885 C884 1.390 . S
C885 C886 1.394 . S
C885 C891 1.465 1_565 S
C886 C881 1.399 . S
C886 C885 1.394 . S
C886 C887 1.516 . S
C887 C886 1.516 . S
C887 C888 1.502 . S
C887 C889 1.561 . S
C887 C890 1.533 . S
C888 H872 0.959 . S
C888 H873 0.959 . S
C888 H874 0.961 . S
C888 C887 1.502 . S
C889 H875 0.960 . S
C889 H876 0.961 . S
C889 H877 0.959 . S
C889 C887 1.561 . S
C890 C887 1.533 . S
C890 C891 1.395 1_565 S
C890 C895 1.384 1_565 S
C891 C885 1.465 1_545 S
C891 C890 1.395 1_545 S
C891 C892 1.399 . S
C892 H878 0.929 . S
C892 C891 1.399 . S
C892 C893 1.385 . S
C893 H879 0.931 . S
C893 C892 1.385 . S
C893 C894 1.389 . S
C894 C893 1.389 . S
C894 C895 1.387 . S
C895 H880 0.930 . S
C895 C890 1.384 1_545 S
C895 C894 1.387 . S
H896 C908 0.930 . S
H897 C910 0.930 . S
H898 C911 0.930 . S
H899 C915 0.959 . S
H900 C915 0.959 . S
H901 C915 0.961 . S
H902 C916 0.960 . S
H903 C916 0.961 . S
H904 C916 0.959 . S
H905 C919 0.929 . S
H906 C920 0.931 . S
H907 C922 0.930 . S
C908 H896 0.930 . S
C908 C909 1.399 . S
C908 C913 1.399 . S
C909 C908 1.399 . S
C909 C910 1.376 . S
C910 H897 0.930 . S
C910 C909 1.376 . S
C910 C911 1.388 . S
C911 H898 0.930 . S
C911 C910 1.388 . S
C911 C912 1.390 . S
C912 C911 1.390 . S
C912 C913 1.394 . S
C912 C918 1.465 . S
C913 C908 1.399 . S
C913 C912 1.394 . S
C913 C914 1.516 . S
C914 C913 1.516 . S
C914 C915 1.502 . S
C914 C916 1.561 . S
C914 C917 1.526 . S
C915 H899 0.959 . S
C915 H900 0.959 . S
C915 H901 0.961 . S
C915 C914 1.502 . S
C916 H902 0.960 . S
C916 H903 0.961 . S
C916 H904 0.959 . S
C916 C914 1.561 . S
C917 C914 1.526 . S
C917 C918 1.396 . S
C917 C922 1.390 . S
C918 C912 1.465 . S
C918 C917 1.396 . S
C918 C919 1.399 . S
C919 H905 0.929 . S
C919 C918 1.399 . S
C919 C920 1.385 . S
C920 H906 0.931 . S
C920 C919 1.385 . S
C920 C921 1.389 . S
C921 C920 1.389 . S
C921 C922 1.387 . S
C922 H907 0.930 . S
C922 C917 1.390 . S
C922 C921 1.387 . S
H923 C935 0.930 . S
H924 C937 0.930 . S
H925 C938 0.930 . S
H926 C942 0.959 . S
H927 C942 0.959 . S
H928 C942 0.961 . S
H929 C943 0.960 . S
H930 C943 0.961 . S
H931 C943 0.959 . S
H932 C946 0.929 . S
H933 C947 0.931 . S
H934 C949 0.930 . S
C935 H923 0.930 . S
C935 C936 1.399 . S
C935 C940 1.399 . S
C936 C935 1.399 . S
C936 C937 1.376 . S
C937 H924 0.930 . S
C937 C936 1.376 . S
C937 C938 1.388 . S
C938 H925 0.930 . S
C938 C937 1.388 . S
C938 C939 1.390 . S
C939 C938 1.390 . S
C939 C940 1.394 . S
C939 C945 1.465 . S
C940 C935 1.399 . S
C940 C939 1.394 . S
C940 C941 1.516 . S
C941 C940 1.516 . S
C941 C942 1.502 . S
C941 C943 1.561 . S
C941 C944 1.526 . S
C942 H926 0.959 . S
C942 H927 0.959 . S
C942 H928 0.961 . S
C942 C941 1.502 . S
C943 H929 0.960 . S
C943 H930 0.961 . S
C943 H931 0.959 . S
C943 C941 1.561 . S
C944 C941 1.526 . S
C944 C945 1.396 . S
C944 C949 1.390 . S
C945 C939 1.465 . S
C945 C944 1.396 . S
C945 C946 1.399 . S
C946 H932 0.929 . S
C946 C945 1.399 . S
C946 C947 1.385 . S
C947 H933 0.931 . S
C947 C946 1.385 . S
C947 C948 1.389 . S
C948 C947 1.389 . S
C948 C949 1.387 . S
C949 H934 0.930 . S
C949 C944 1.390 . S
C949 C948 1.387 . S
H950 C962 0.930 . S
H951 C964 0.930 . S
H952 C965 0.930 . S
H953 C969 0.959 . S
H954 C969 0.959 . S
H955 C969 0.961 . S
H956 C970 0.960 . S
H957 C970 0.961 . S
H958 C970 0.959 . S
H959 C973 0.929 . S
H960 C974 0.931 . S
H961 C976 0.930 . S
C962 H950 0.930 . S
C962 C963 1.399 . S
C962 C967 1.399 . S
C963 C962 1.399 . S
C963 C964 1.376 . S
C964 H951 0.930 . S
C964 C963 1.376 . S
C964 C965 1.388 . S
C965 H952 0.930 . S
C965 C964 1.388 . S
C965 C966 1.390 . S
C966 C965 1.390 . S
C966 C967 1.394 . S
C966 C972 1.465 . S
C967 C962 1.399 . S
C967 C966 1.394 . S
C967 C968 1.516 . S
C968 C967 1.516 . S
C968 C969 1.502 . S
C968 C970 1.561 . S
C968 C971 1.526 . S
C969 H953 0.959 . S
C969 H954 0.959 . S
C969 H955 0.961 . S
C969 C968 1.502 . S
C970 H956 0.960 . S
C970 H957 0.961 . S
C970 H958 0.959 . S
C970 C968 1.561 . S
C971 C968 1.526 . S
C971 C972 1.396 . S
C971 C976 1.390 . S
C972 C966 1.465 . S
C972 C971 1.396 . S
C972 C973 1.399 . S
C973 H959 0.929 . S
C973 C972 1.399 . S
C973 C974 1.385 . S
C974 H960 0.931 . S
C974 C973 1.385 . S
C974 C975 1.389 . S
C975 C974 1.389 . S
C975 C976 1.387 . S
C976 H961 0.930 . S
C976 C971 1.390 . S
C976 C975 1.387 . S
H977 C989 0.930 . S
H978 C991 0.930 . S
H979 C992 0.930 . S
H980 C996 0.959 . S
H981 C996 0.959 . S
H982 C996 0.961 . S
H983 C997 0.960 . S
H984 C997 0.961 . S
H985 C997 0.959 . S
H986 C1000 0.929 . S
H987 C1001 0.931 . S
H988 C1003 0.930 . S
C989 H977 0.930 . S
C989 C990 1.399 . S
C989 C994 1.399 . S
C990 C989 1.399 . S
C990 C991 1.376 . S
C991 H978 0.930 . S
C991 C990 1.376 . S
C991 C992 1.388 . S
C992 H979 0.930 . S
C992 C991 1.388 . S
C992 C993 1.390 . S
C993 C992 1.390 . S
C993 C994 1.394 . S
C993 C999 1.465 . S
C994 C989 1.399 . S
C994 C993 1.394 . S
C994 C995 1.516 . S
C995 C994 1.516 . S
C995 C996 1.502 . S
C995 C997 1.561 . S
C995 C998 1.526 . S
C996 H980 0.959 . S
C996 H981 0.959 . S
C996 H982 0.961 . S
C996 C995 1.502 . S
C997 H983 0.960 . S
C997 H984 0.961 . S
C997 H985 0.959 . S
C997 C995 1.561 . S
C998 C995 1.526 . S
C998 C999 1.396 . S
C998 C1003 1.390 . S
C999 C993 1.465 . S
C999 C998 1.396 . S
C999 C1000 1.399 . S
C1000 H986 0.929 . S
C1000 C999 1.399 . S
C1000 C1001 1.385 . S
C1001 H987 0.931 . S
C1001 C1000 1.385 . S
C1001 C1002 1.389 . S
C1002 C1001 1.389 . S
C1002 C1003 1.387 . S
C1003 H988 0.930 . S
C1003 C998 1.390 . S
C1003 C1002 1.387 . S
H1004 C1016 0.930 . S
H1005 C1018 0.930 . S
H1006 C1019 0.930 . S
H1007 C1023 0.959 . S
H1008 C1023 0.959 . S
H1009 C1023 0.961 . S
H1010 C1024 0.960 1_554 S
H1011 C1024 0.961 . S
H1012 C1024 0.959 . S
H1013 C1027 0.929 . S
H1014 C1028 0.931 . S
H1015 C1030 0.930 . S
C1016 H1004 0.930 . S
C1016 C1017 1.399 . S
C1016 C1021 1.399 . S
C1017 C1016 1.399 . S
C1017 C1018 1.376 . S
C1018 H1005 0.930 . S
C1018 C1017 1.376 . S
C1018 C1019 1.388 . S
C1019 H1006 0.930 . S
C1019 C1018 1.388 . S
C1019 C1020 1.390 . S
C1020 C1019 1.390 . S
C1020 C1021 1.394 . S
C1020 C1026 1.465 1_554 S
C1021 C1016 1.399 . S
C1021 C1020 1.394 . S
C1021 C1022 1.516 1_554 S
C1022 C1021 1.516 1_556 S
C1022 C1023 1.502 . S
C1022 C1024 1.561 . S
C1022 C1025 1.526 . S
C1023 H1007 0.959 . S
C1023 H1008 0.959 . S
C1023 H1009 0.961 . S
C1023 C1022 1.502 . S
C1024 H1010 0.960 1_556 S
C1024 H1011 0.961 . S
C1024 H1012 0.959 . S
C1024 C1022 1.561 . S
C1025 C1022 1.526 . S
C1025 C1026 1.396 . S
C1025 C1030 1.390 . S
C1026 C1020 1.465 1_556 S
C1026 C1025 1.396 . S
C1026 C1027 1.399 . S
C1027 H1013 0.929 . S
C1027 C1026 1.399 . S
C1027 C1028 1.385 . S
C1028 H1014 0.931 . S
C1028 C1027 1.385 . S
C1028 C1029 1.389 . S
C1029 C1028 1.389 . S
C1029 C1030 1.387 . S
C1030 H1015 0.930 . S
C1030 C1025 1.390 . S
C1030 C1029 1.387 . S
H1031 C1043 0.930 . S
H1032 C1045 0.930 . S
H1033 C1046 0.930 . S
H1034 C1050 0.959 . S
H1035 C1050 0.959 . S
H1036 C1050 0.961 . S
H1037 C1051 0.960 1_554 S
H1038 C1051 0.961 . S
H1039 C1051 0.959 . S
H1040 C1054 0.929 . S
H1041 C1055 0.931 . S
H1042 C1057 0.930 . S
C1043 H1031 0.930 . S
C1043 C1044 1.399 . S
C1043 C1048 1.399 . S
C1044 C1043 1.399 . S
C1044 C1045 1.376 . S
C1045 H1032 0.930 . S
C1045 C1044 1.376 . S
C1045 C1046 1.388 . S
C1046 H1033 0.930 . S
C1046 C1045 1.388 . S
C1046 C1047 1.390 . S
C1047 C1046 1.390 . S
C1047 C1048 1.394 . S
C1047 C1053 1.465 1_554 S
C1048 C1043 1.399 . S
C1048 C1047 1.394 . S
C1048 C1049 1.516 1_554 S
C1049 C1048 1.516 1_556 S
C1049 C1050 1.502 . S
C1049 C1051 1.561 . S
C1049 C1052 1.526 . S
C1050 H1034 0.959 . S
C1050 H1035 0.959 . S
C1050 H1036 0.961 . S
C1050 C1049 1.502 . S
C1051 H1037 0.960 1_556 S
C1051 H1038 0.961 . S
C1051 H1039 0.959 . S
C1051 C1049 1.561 . S
C1052 C1049 1.526 . S
C1052 C1053 1.396 . S
C1052 C1057 1.390 . S
C1053 C1047 1.465 1_556 S
C1053 C1052 1.396 . S
C1053 C1054 1.399 . S
C1054 H1040 0.929 . S
C1054 C1053 1.399 . S
C1054 C1055 1.385 . S
C1055 H1041 0.931 . S
C1055 C1054 1.385 . S
C1055 C1056 1.389 . S
C1056 C1055 1.389 . S
C1056 C1057 1.387 . S
C1057 H1042 0.930 . S
C1057 C1052 1.390 . S
C1057 C1056 1.387 . S
H1058 C1070 0.930 . S
H1059 C1072 0.930 . S
H1060 C1073 0.930 . S
H1061 C1077 0.959 . S
H1062 C1077 0.959 . S
H1063 C1077 0.961 . S
H1064 C1078 0.960 . S
H1065 C1078 0.961 . S
H1066 C1078 0.959 . S
H1067 C1081 0.929 . S
H1068 C1082 0.931 . S
H1069 C1084 0.930 . S
C1070 H1058 0.930 . S
C1070 C1071 1.399 . S
C1070 C1075 1.399 . S
C1071 C1070 1.399 . S
C1071 C1072 1.376 . S
C1072 H1059 0.930 . S
C1072 C1071 1.376 . S
C1072 C1073 1.388 . S
C1073 H1060 0.930 . S
C1073 C1072 1.388 . S
C1073 C1074 1.390 . S
C1074 C1073 1.390 . S
C1074 C1075 1.394 . S
C1074 C1080 1.465 . S
C1075 C1070 1.399 . S
C1075 C1074 1.394 . S
C1075 C1076 1.516 . S
C1076 C1075 1.516 . S
C1076 C1077 1.502 . S
C1076 C1078 1.561 . S
C1076 C1079 1.526 . S
C1077 H1061 0.959 . S
C1077 H1062 0.959 . S
C1077 H1063 0.961 . S
C1077 C1076 1.502 . S
C1078 H1064 0.960 . S
C1078 H1065 0.961 . S
C1078 H1066 0.959 . S
C1078 C1076 1.561 . S
C1079 C1076 1.526 . S
C1079 C1080 1.396 . S
C1079 C1084 1.390 . S
C1080 C1074 1.465 . S
C1080 C1079 1.396 . S
C1080 C1081 1.399 . S
C1081 H1067 0.929 . S
C1081 C1080 1.399 . S
C1081 C1082 1.385 . S
C1082 H1068 0.931 . S
C1082 C1081 1.385 . S
C1082 C1083 1.389 . S
C1083 C1082 1.389 . S
C1083 C1084 1.387 . S
C1084 H1069 0.930 . S
C1084 C1079 1.390 . S
C1084 C1083 1.387 . S
H1085 C1097 0.930 . S
H1086 C1099 0.930 . S
H1087 C1100 0.930 . S
H1088 C1104 0.959 . S
H1089 C1104 0.959 . S
H1090 C1104 0.961 . S
H1091 C1105 0.960 . S
H1092 C1105 0.961 . S
H1093 C1105 0.959 . S
H1094 C1108 0.929 . S
H1095 C1109 0.931 . S
H1096 C1111 0.930 . S
C1097 H1085 0.930 . S
C1097 C1098 1.399 . S
C1097 C1102 1.399 . S
C1098 C1097 1.399 . S
C1098 C1099 1.376 . S
C1099 H1086 0.930 . S
C1099 C1098 1.376 . S
C1099 C1100 1.388 . S
C1100 H1087 0.930 . S
C1100 C1099 1.388 . S
C1100 C1101 1.390 . S
C1101 C1100 1.390 . S
C1101 C1102 1.394 . S
C1101 C1107 1.465 . S
C1102 C1097 1.399 . S
C1102 C1101 1.394 . S
C1102 C1103 1.516 . S
C1103 C1102 1.516 . S
C1103 C1104 1.502 . S
C1103 C1105 1.561 . S
C1103 C1106 1.526 . S
C1104 H1088 0.959 . S
C1104 H1089 0.959 . S
C1104 H1090 0.961 . S
C1104 C1103 1.502 . S
C1105 H1091 0.960 . S
C1105 H1092 0.961 . S
C1105 H1093 0.959 . S
C1105 C1103 1.561 . S
C1106 C1103 1.526 . S
C1106 C1107 1.396 . S
C1106 C1111 1.390 . S
C1107 C1101 1.465 . S
C1107 C1106 1.396 . S
C1107 C1108 1.399 . S
C1108 H1094 0.929 . S
C1108 C1107 1.399 . S
C1108 C1109 1.385 . S
C1109 H1095 0.931 . S
C1109 C1108 1.385 . S
C1109 C1110 1.389 . S
C1110 C1109 1.389 . S
C1110 C1111 1.387 . S
C1111 H1096 0.930 . S
C1111 C1106 1.390 . S
C1111 C1110 1.387 . S
H1112 C1124 0.930 . S
H1113 C1126 0.930 . S
H1114 C1127 0.930 . S
H1115 C1131 0.960 . S
H1116 C1131 0.959 . S
H1117 C1131 0.961 1_554 S
H1118 C1132 0.960 1_554 S
H1119 C1132 0.961 . S
H1120 C1132 0.959 . S
H1121 C1135 0.929 . S
H1122 C1136 0.931 . S
H1123 C1138 0.930 . S
C1124 H1112 0.930 . S
C1124 C1125 1.399 . S
C1124 C1129 1.399 . S
C1125 C1124 1.399 . S
C1125 C1126 1.376 . S
C1126 H1113 0.930 . S
C1126 C1125 1.376 . S
C1126 C1127 1.388 . S
C1127 H1114 0.930 . S
C1127 C1126 1.388 . S
C1127 C1128 1.390 . S
C1128 C1127 1.390 . S
C1128 C1129 1.394 . S
C1128 C1134 1.465 1_554 S
C1129 C1124 1.399 . S
C1129 C1128 1.394 . S
C1129 C1130 1.516 1_554 S
C1130 C1129 1.516 1_556 S
C1130 C1131 1.502 . S
C1130 C1132 1.561 . S
C1130 C1133 1.526 . S
C1131 H1115 0.960 . S
C1131 H1116 0.959 . S
C1131 H1117 0.961 1_556 S
C1131 C1130 1.502 . S
C1132 H1118 0.960 1_556 S
C1132 H1119 0.961 . S
C1132 H1120 0.959 . S
C1132 C1130 1.561 . S
C1133 C1130 1.526 . S
C1133 C1134 1.396 . S
C1133 C1138 1.390 . S
C1134 C1128 1.465 1_556 S
C1134 C1133 1.396 . S
C1134 C1135 1.399 . S
C1135 H1121 0.929 . S
C1135 C1134 1.399 . S
C1135 C1136 1.385 . S
C1136 H1122 0.931 . S
C1136 C1135 1.385 . S
C1136 C1137 1.389 . S
C1137 C1136 1.389 . S
C1137 C1138 1.387 . S
C1138 H1123 0.930 . S
C1138 C1133 1.390 . S
C1138 C1137 1.387 . S
H1139 C1151 0.930 . S
H1140 C1153 0.930 . S
H1141 C1154 0.930 . S
H1142 C1158 0.959 . S
H1143 C1158 0.959 . S
H1144 C1158 0.961 . S
H1145 C1159 0.960 1_554 S
H1146 C1159 0.961 . S
H1147 C1159 0.959 . S
H1148 C1162 0.929 . S
H1149 C1163 0.931 . S
H1150 C1165 0.930 . S
C1151 H1139 0.930 . S
C1151 C1152 1.399 . S
C1151 C1156 1.399 . S
C1152 C1151 1.399 . S
C1152 C1153 1.376 . S
C1153 H1140 0.930 . S
C1153 C1152 1.376 . S
C1153 C1154 1.388 . S
C1154 H1141 0.930 . S
C1154 C1153 1.388 . S
C1154 C1155 1.390 . S
C1155 C1154 1.390 . S
C1155 C1156 1.394 . S
C1155 C1161 1.465 1_554 S
C1156 C1151 1.399 . S
C1156 C1155 1.394 . S
C1156 C1157 1.516 1_554 S
C1157 C1156 1.516 1_556 S
C1157 C1158 1.502 . S
C1157 C1159 1.561 . S
C1157 C1160 1.526 . S
C1158 H1142 0.959 . S
C1158 H1143 0.959 . S
C1158 H1144 0.961 . S
C1158 C1157 1.502 . S
C1159 H1145 0.960 1_556 S
C1159 H1146 0.961 . S
C1159 H1147 0.959 . S
C1159 C1157 1.561 . S
C1160 C1157 1.526 . S
C1160 C1161 1.396 . S
C1160 C1165 1.390 . S
C1161 C1155 1.465 1_556 S
C1161 C1160 1.396 . S
C1161 C1162 1.399 . S
C1162 H1148 0.929 . S
C1162 C1161 1.399 . S
C1162 C1163 1.385 . S
C1163 H1149 0.931 . S
C1163 C1162 1.385 . S
C1163 C1164 1.389 . S
C1164 C1163 1.389 . S
C1164 C1165 1.387 . S
C1165 H1150 0.930 . S
C1165 C1160 1.390 . S
C1165 C1164 1.387 . S
H1166 C1178 0.930 . S
H1167 C1180 0.930 . S
H1168 C1181 0.930 . S
H1169 C1185 0.959 . S
H1170 C1185 0.959 . S
H1171 C1185 0.961 . S
H1172 C1186 0.960 . S
H1173 C1186 0.961 . S
H1174 C1186 0.959 . S
H1175 C1189 0.929 . S
H1176 C1190 0.931 . S
H1177 C1192 0.930 . S
C1178 H1166 0.930 . S
C1178 C1179 1.399 . S
C1178 C1183 1.399 . S
C1179 C1178 1.399 . S
C1179 C1180 1.376 . S
C1180 H1167 0.930 . S
C1180 C1179 1.376 . S
C1180 C1181 1.388 . S
C1181 H1168 0.930 . S
C1181 C1180 1.388 . S
C1181 C1182 1.390 . S
C1182 C1181 1.390 . S
C1182 C1183 1.394 . S
C1182 C1188 1.465 . S
C1183 C1178 1.399 . S
C1183 C1182 1.394 . S
C1183 C1184 1.516 . S
C1184 C1183 1.516 . S
C1184 C1185 1.502 . S
C1184 C1186 1.561 . S
C1184 C1187 1.526 . S
C1185 H1169 0.959 . S
C1185 H1170 0.959 . S
C1185 H1171 0.961 . S
C1185 C1184 1.502 . S
C1186 H1172 0.960 . S
C1186 H1173 0.961 . S
C1186 H1174 0.959 . S
C1186 C1184 1.561 . S
C1187 C1184 1.526 . S
C1187 C1188 1.396 . S
C1187 C1192 1.390 . S
C1188 C1182 1.465 . S
C1188 C1187 1.396 . S
C1188 C1189 1.399 . S
C1189 H1175 0.929 . S
C1189 C1188 1.399 . S
C1189 C1190 1.385 . S
C1190 H1176 0.931 . S
C1190 C1189 1.385 . S
C1190 C1191 1.389 . S
C1191 C1190 1.389 . S
C1191 C1192 1.387 . S
C1192 H1177 0.930 . S
C1192 C1187 1.390 . S
C1192 C1191 1.387 . S
H1193 C1205 0.930 . S
H1194 C1207 0.930 . S
H1195 C1208 0.930 . S
H1196 C1212 0.959 . S
H1197 C1212 0.959 . S
H1198 C1212 0.961 . S
H1199 C1213 0.960 . S
H1200 C1213 0.961 . S
H1201 C1213 0.959 . S
H1202 C1216 0.929 . S
H1203 C1217 0.931 . S
H1204 C1219 0.930 . S
C1205 H1193 0.930 . S
C1205 C1206 1.399 . S
C1205 C1210 1.399 . S
C1206 C1205 1.399 . S
C1206 C1207 1.376 . S
C1207 H1194 0.930 . S
C1207 C1206 1.376 . S
C1207 C1208 1.388 . S
C1208 H1195 0.930 . S
C1208 C1207 1.388 . S
C1208 C1209 1.390 . S
C1209 C1208 1.390 . S
C1209 C1210 1.394 . S
C1209 C1215 1.465 . S
C1210 C1205 1.399 . S
C1210 C1209 1.394 . S
C1210 C1211 1.516 . S
C1211 C1210 1.516 . S
C1211 C1212 1.502 . S
C1211 C1213 1.561 . S
C1211 C1214 1.526 . S
C1212 H1196 0.959 . S
C1212 H1197 0.959 . S
C1212 H1198 0.961 . S
C1212 C1211 1.502 . S
C1213 H1199 0.960 . S
C1213 H1200 0.961 . S
C1213 H1201 0.959 . S
C1213 C1211 1.561 . S
C1214 C1211 1.526 . S
C1214 C1215 1.396 . S
C1214 C1219 1.390 . S
C1215 C1209 1.465 . S
C1215 C1214 1.396 . S
C1215 C1216 1.399 . S
C1216 H1202 0.929 . S
C1216 C1215 1.399 . S
C1216 C1217 1.385 . S
C1217 H1203 0.931 . S
C1217 C1216 1.385 . S
C1217 C1218 1.389 . S
C1218 C1217 1.389 . S
C1218 C1219 1.387 . S
C1219 H1204 0.930 . S
C1219 C1214 1.390 . S
C1219 C1218 1.387 . S
H1220 C1232 0.930 . S
H1221 C1234 0.930 . S
H1222 C1235 0.930 . S
H1223 C1239 0.959 . S
H1224 C1239 0.959 . S
H1225 C1239 0.961 . S
H1226 C1240 0.960 . S
H1227 C1240 0.961 . S
H1228 C1240 0.959 . S
H1229 C1243 0.929 . S
H1230 C1244 0.931 . S
H1231 C1246 0.930 . S
C1232 H1220 0.930 . S
C1232 C1233 1.399 . S
C1232 C1237 1.399 . S
C1233 C1232 1.399 . S
C1233 C1234 1.376 . S
C1234 H1221 0.930 . S
C1234 C1233 1.376 . S
C1234 C1235 1.388 . S
C1235 H1222 0.930 . S
C1235 C1234 1.388 . S
C1235 C1236 1.390 . S
C1236 C1235 1.390 . S
C1236 C1237 1.394 . S
C1236 C1242 1.465 . S
C1237 C1232 1.399 . S
C1237 C1236 1.394 . S
C1237 C1238 1.516 . S
C1238 C1237 1.516 . S
C1238 C1239 1.502 . S
C1238 C1240 1.561 . S
C1238 C1241 1.526 . S
C1239 H1223 0.959 . S
C1239 H1224 0.959 . S
C1239 H1225 0.961 . S
C1239 C1238 1.502 . S
C1240 H1226 0.960 . S
C1240 H1227 0.961 . S
C1240 H1228 0.959 . S
C1240 C1238 1.561 . S
C1241 C1238 1.526 . S
C1241 C1242 1.396 . S
C1241 C1246 1.390 . S
C1242 C1236 1.465 . S
C1242 C1241 1.396 . S
C1242 C1243 1.399 . S
C1243 H1229 0.929 . S
C1243 C1242 1.399 . S
C1243 C1244 1.385 . S
C1244 H1230 0.931 . S
C1244 C1243 1.385 . S
C1244 C1245 1.389 . S
C1245 C1244 1.389 . S
C1245 C1246 1.387 . S
C1246 H1231 0.930 . S
C1246 C1241 1.390 . S
C1246 C1245 1.387 . S
H1247 C1259 0.930 . S
H1248 C1261 0.930 . S
H1249 C1262 0.930 . S
H1250 C1266 0.959 . S
H1251 C1266 0.959 . S
H1252 C1266 0.961 . S
H1253 C1267 0.960 . S
H1254 C1267 0.956 1_455 S
H1255 C1267 0.959 . S
H1256 C1270 0.929 . S
H1257 C1271 0.931 . S
H1258 C1273 0.930 . S
C1259 H1247 0.930 . S
C1259 C1260 1.399 . S
C1259 C1264 1.399 . S
C1260 C1259 1.399 . S
C1260 C1261 1.376 . S
C1261 H1248 0.930 . S
C1261 C1260 1.376 . S
C1261 C1262 1.388 . S
C1262 H1249 0.930 . S
C1262 C1261 1.388 . S
C1262 C1263 1.390 . S
C1263 C1262 1.390 . S
C1263 C1264 1.394 . S
C1263 C1269 1.465 . S
C1264 C1259 1.399 . S
C1264 C1263 1.394 . S
C1264 C1265 1.516 . S
C1265 C1264 1.516 . S
C1265 C1266 1.502 . S
C1265 C1267 1.561 . S
C1265 C1268 1.526 . S
C1266 H1250 0.959 . S
C1266 H1251 0.959 . S
C1266 H1252 0.961 . S
C1266 C1265 1.502 . S
C1267 H1253 0.960 . S
C1267 H1254 0.956 1_655 S
C1267 H1255 0.959 . S
C1267 C1265 1.561 . S
C1268 C1265 1.526 . S
C1268 C1269 1.396 . S
C1268 C1273 1.390 . S
C1269 C1263 1.465 . S
C1269 C1268 1.396 . S
C1269 C1270 1.399 . S
C1270 H1256 0.929 . S
C1270 C1269 1.399 . S
C1270 C1271 1.385 . S
C1271 H1257 0.931 . S
C1271 C1270 1.385 . S
C1271 C1272 1.389 . S
C1272 C1271 1.389 . S
C1272 C1273 1.387 . S
C1273 H1258 0.930 . S
C1273 C1268 1.390 . S
C1273 C1272 1.387 . S
H1274 C1286 0.930 . S
H1275 C1288 0.930 . S
H1276 C1289 0.930 . S
H1277 C1293 0.959 . S
H1278 C1293 0.959 . S
H1279 C1293 0.961 . S
H1280 C1294 0.960 . S
H1281 C1294 0.961 . S
H1282 C1294 0.959 . S
H1283 C1297 0.929 . S
H1284 C1298 0.931 . S
H1285 C1300 0.930 . S
C1286 H1274 0.930 . S
C1286 C1287 1.399 . S
C1286 C1291 1.399 . S
C1287 C1286 1.399 . S
C1287 C1288 1.376 . S
C1288 H1275 0.930 . S
C1288 C1287 1.376 . S
C1288 C1289 1.388 . S
C1289 H1276 0.930 . S
C1289 C1288 1.388 . S
C1289 C1290 1.390 . S
C1290 C1289 1.390 . S
C1290 C1291 1.394 . S
C1290 C1296 1.465 . S
C1291 C1286 1.399 . S
C1291 C1290 1.394 . S
C1291 C1292 1.516 . S
C1292 C1291 1.516 . S
C1292 C1293 1.502 . S
C1292 C1294 1.561 . S
C1292 C1295 1.526 . S
C1293 H1277 0.959 . S
C1293 H1278 0.959 . S
C1293 H1279 0.961 . S
C1293 C1292 1.502 . S
C1294 H1280 0.960 . S
C1294 H1281 0.961 . S
C1294 H1282 0.959 . S
C1294 C1292 1.561 . S
C1295 C1292 1.526 . S
C1295 C1296 1.396 . S
C1295 C1300 1.390 . S
C1296 C1290 1.465 . S
C1296 C1295 1.396 . S
C1296 C1297 1.399 . S
C1297 H1283 0.929 . S
C1297 C1296 1.399 . S
C1297 C1298 1.385 . S
C1298 H1284 0.931 . S
C1298 C1297 1.385 . S
C1298 C1299 1.389 . S
C1299 C1298 1.389 . S
C1299 C1300 1.387 . S
C1300 H1285 0.930 . S
C1300 C1295 1.390 . S
C1300 C1299 1.387 . S
H1301 C1313 0.930 . S
H1302 C1315 0.930 . S
H1303 C1316 0.930 . S
H1304 C1320 0.959 . S
H1305 C1320 0.959 . S
H1306 C1320 0.961 . S
H1307 C1321 0.960 . S
H1308 C1321 0.961 . S
H1309 C1321 0.959 . S
H1310 C1324 0.929 . S
H1311 C1325 0.931 . S
H1312 C1327 0.930 . S
C1313 H1301 0.930 . S
C1313 C1314 1.399 . S
C1313 C1318 1.399 . S
C1314 C1313 1.399 . S
C1314 C1315 1.376 . S
C1315 H1302 0.930 . S
C1315 C1314 1.376 . S
C1315 C1316 1.388 . S
C1316 H1303 0.930 . S
C1316 C1315 1.388 . S
C1316 C1317 1.390 . S
C1317 C1316 1.390 . S
C1317 C1318 1.394 . S
C1317 C1323 1.465 . S
C1318 C1313 1.399 . S
C1318 C1317 1.394 . S
C1318 C1319 1.516 . S
C1319 C1318 1.516 . S
C1319 C1320 1.502 . S
C1319 C1321 1.561 . S
C1319 C1322 1.526 . S
C1320 H1304 0.959 . S
C1320 H1305 0.959 . S
C1320 H1306 0.961 . S
C1320 C1319 1.502 . S
C1321 H1307 0.960 . S
C1321 H1308 0.961 . S
C1321 H1309 0.959 . S
C1321 C1319 1.561 . S
C1322 C1319 1.526 . S
C1322 C1323 1.396 . S
C1322 C1327 1.390 . S
C1323 C1317 1.465 . S
C1323 C1322 1.396 . S
C1323 C1324 1.399 . S
C1324 H1310 0.929 . S
C1324 C1323 1.399 . S
C1324 C1325 1.385 . S
C1325 H1311 0.931 . S
C1325 C1324 1.385 . S
C1325 C1326 1.389 . S
C1326 C1325 1.389 . S
C1326 C1327 1.387 . S
C1327 H1312 0.930 . S
C1327 C1322 1.390 . S
C1327 C1326 1.387 . S
H1328 C1340 0.930 . S
H1329 C1342 0.930 . S
H1330 C1343 0.930 1_565 S
H1331 C1347 0.959 . S
H1332 C1347 0.959 . S
H1333 C1347 0.961 . S
H1334 C1348 0.960 . S
H1335 C1348 0.961 . S
H1336 C1348 0.959 . S
H1337 C1351 0.929 . S
H1338 C1352 0.931 . S
H1339 C1354 0.930 . S
C1340 H1328 0.930 . S
C1340 C1341 1.400 . S
C1340 C1345 1.399 . S
C1341 C1340 1.400 . S
C1341 C1342 1.376 1_554 S
C1342 H1329 0.930 . S
C1342 C1341 1.376 1_556 S
C1342 C1343 1.388 . S
C1343 H1330 0.930 1_545 S
C1343 C1342 1.388 . S
C1343 C1344 1.390 . S
C1344 C1343 1.390 . S
C1344 C1345 1.394 1_556 S
C1344 C1350 1.465 1_545 S
C1345 C1340 1.399 . S
C1345 C1344 1.394 1_554 S
C1345 C1346 1.516 . S
C1346 C1345 1.516 . S
C1346 C1347 1.502 . S
C1346 C1348 1.561 1_554 S
C1346 C1349 1.526 1_545 S
C1347 H1331 0.959 . S
C1347 H1332 0.959 . S
C1347 H1333 0.961 . S
C1347 C1346 1.502 . S
C1348 H1334 0.960 . S
C1348 H1335 0.961 . S
C1348 H1336 0.959 . S
C1348 C1346 1.561 1_556 S
C1349 C1346 1.526 1_565 S
C1349 C1350 1.396 1_554 S
C1349 C1354 1.390 . S
C1350 C1344 1.465 1_565 S
C1350 C1349 1.396 1_556 S
C1350 C1351 1.399 . S
C1351 H1337 0.929 . S
C1351 C1350 1.399 . S
C1351 C1352 1.385 . S
C1352 H1338 0.931 . S
C1352 C1351 1.385 . S
C1352 C1353 1.389 1_556 S
C1353 C1352 1.389 1_554 S
C1353 C1354 1.387 . S
C1354 H1339 0.930 . S
C1354 C1349 1.390 . S
C1354 C1353 1.387 . S
H1355 C1367 0.930 . S
H1356 C1369 0.930 . S
H1357 C1370 0.930 . S
H1358 C1374 0.959 . S
H1359 C1374 0.959 . S
H1360 C1374 0.961 . S
H1361 C1375 0.960 . S
H1362 C1375 0.961 . S
H1363 C1375 0.959 . S
H1364 C1378 0.929 . S
H1365 C1379 0.931 . S
H1366 C1381 0.930 . S
C1367 H1355 0.930 . S
C1367 C1368 1.399 . S
C1367 C1372 1.399 . S
C1368 C1367 1.399 . S
C1368 C1369 1.376 . S
C1369 H1356 0.930 . S
C1369 C1368 1.376 . S
C1369 C1370 1.388 . S
C1370 H1357 0.930 . S
C1370 C1369 1.388 . S
C1370 C1371 1.390 . S
C1371 C1370 1.390 . S
C1371 C1372 1.394 . S
C1371 C1377 1.465 . S
C1372 C1367 1.399 . S
C1372 C1371 1.394 . S
C1372 C1373 1.516 . S
C1373 C1372 1.516 . S
C1373 C1374 1.502 . S
C1373 C1375 1.561 . S
C1373 C1376 1.526 . S
C1374 H1358 0.959 . S
C1374 H1359 0.959 . S
C1374 H1360 0.961 . S
C1374 C1373 1.502 . S
C1375 H1361 0.960 . S
C1375 H1362 0.961 . S
C1375 H1363 0.959 . S
C1375 C1373 1.561 . S
C1376 C1373 1.526 . S
C1376 C1377 1.396 . S
C1376 C1381 1.390 . S
C1377 C1371 1.465 . S
C1377 C1376 1.396 . S
C1377 C1378 1.399 . S
C1378 H1364 0.929 . S
C1378 C1377 1.399 . S
C1378 C1379 1.385 . S
C1379 H1365 0.931 . S
C1379 C1378 1.385 . S
C1379 C1380 1.389 . S
C1380 C1379 1.389 . S
C1380 C1381 1.387 . S
C1381 H1366 0.930 . S
C1381 C1376 1.390 . S
C1381 C1380 1.387 . S
H1382 C1394 0.930 . S
H1383 C1396 0.930 . S
H1384 C1397 0.930 . S
H1385 C1401 0.959 . S
H1386 C1401 0.959 . S
H1387 C1401 0.961 . S
H1388 C1402 0.960 . S
H1389 C1402 0.961 . S
H1390 C1402 0.959 . S
H1391 C1405 0.929 . S
H1392 C1406 0.931 . S
H1393 C1408 0.930 . S
C1394 H1382 0.930 . S
C1394 C1395 1.399 . S
C1394 C1399 1.399 . S
C1395 C1394 1.399 . S
C1395 C1396 1.376 . S
C1396 H1383 0.930 . S
C1396 C1395 1.376 . S
C1396 C1397 1.388 . S
C1397 H1384 0.930 . S
C1397 C1396 1.388 . S
C1397 C1398 1.390 . S
C1398 C1397 1.390 . S
C1398 C1399 1.394 . S
C1398 C1404 1.465 . S
C1399 C1394 1.399 . S
C1399 C1398 1.394 . S
C1399 C1400 1.516 . S
C1400 C1399 1.516 . S
C1400 C1401 1.502 . S
C1400 C1402 1.561 . S
C1400 C1403 1.526 . S
C1401 H1385 0.959 . S
C1401 H1386 0.959 . S
C1401 H1387 0.961 . S
C1401 C1400 1.502 . S
C1402 H1388 0.960 . S
C1402 H1389 0.961 . S
C1402 H1390 0.959 . S
C1402 C1400 1.561 . S
C1403 C1400 1.526 . S
C1403 C1404 1.396 . S
C1403 C1408 1.390 . S
C1404 C1398 1.465 . S
C1404 C1403 1.396 . S
C1404 C1405 1.399 . S
C1405 H1391 0.929 . S
C1405 C1404 1.399 . S
C1405 C1406 1.385 . S
C1406 H1392 0.931 . S
C1406 C1405 1.385 . S
C1406 C1407 1.389 . S
C1407 C1406 1.389 . S
C1407 C1408 1.387 . S
C1408 H1393 0.930 . S
C1408 C1403 1.390 . S
C1408 C1407 1.387 . S
H1409 C1421 0.930 . S
H1410 C1423 0.930 . S
H1411 C1424 0.930 . S
H1412 C1428 0.959 . S
H1413 C1428 0.959 . S
H1414 C1428 0.961 . S
H1415 C1429 0.960 . S
H1416 C1429 0.961 . S
H1417 C1429 0.959 . S
H1418 C1432 0.929 . S
H1419 C1433 0.931 . S
H1420 C1435 0.930 . S
C1421 H1409 0.930 . S
C1421 C1422 1.399 . S
C1421 C1426 1.399 . S
C1422 C1421 1.399 . S
C1422 C1423 1.376 . S
C1423 H1410 0.930 . S
C1423 C1422 1.376 . S
C1423 C1424 1.388 . S
C1424 H1411 0.930 . S
C1424 C1423 1.388 . S
C1424 C1425 1.390 . S
C1425 C1424 1.390 . S
C1425 C1426 1.394 . S
C1425 C1431 1.465 . S
C1426 C1421 1.399 . S
C1426 C1425 1.394 . S
C1426 C1427 1.516 . S
C1427 C1426 1.516 . S
C1427 C1428 1.502 . S
C1427 C1429 1.561 . S
C1427 C1430 1.526 . S
C1428 H1412 0.959 . S
C1428 H1413 0.959 . S
C1428 H1414 0.961 . S
C1428 C1427 1.502 . S
C1429 H1415 0.960 . S
C1429 H1416 0.961 . S
C1429 H1417 0.959 . S
C1429 C1427 1.561 . S
C1430 C1427 1.526 . S
C1430 C1431 1.396 . S
C1430 C1435 1.390 . S
C1431 C1425 1.465 . S
C1431 C1430 1.396 . S
C1431 C1432 1.399 . S
C1432 H1418 0.929 . S
C1432 C1431 1.399 . S
C1432 C1433 1.385 . S
C1433 H1419 0.931 . S
C1433 C1432 1.385 . S
C1433 C1434 1.389 . S
C1434 C1433 1.389 . S
C1434 C1435 1.387 . S
C1435 H1420 0.930 . S
C1435 C1430 1.390 . S
C1435 C1434 1.387 . S
H1436 C1448 0.930 . S
H1437 C1450 0.930 . S
H1438 C1451 0.930 . S
H1439 C1455 0.959 . S
H1440 C1455 0.959 . S
H1441 C1455 0.961 . S
H1442 C1456 0.960 . S
H1443 C1456 0.961 . S
H1444 C1456 0.959 . S
H1445 C1459 0.929 . S
H1446 C1460 0.931 . S
H1447 C1462 0.930 . S
C1448 H1436 0.930 . S
C1448 C1449 1.399 . S
C1448 C1453 1.399 . S
C1449 C1448 1.399 . S
C1449 C1450 1.376 . S
C1450 H1437 0.930 . S
C1450 C1449 1.376 . S
C1450 C1451 1.388 . S
C1451 H1438 0.930 . S
C1451 C1450 1.388 . S
C1451 C1452 1.390 . S
C1452 C1451 1.390 . S
C1452 C1453 1.394 . S
C1452 C1458 1.465 . S
C1453 C1448 1.399 . S
C1453 C1452 1.394 . S
C1453 C1454 1.516 . S
C1454 C1453 1.516 . S
C1454 C1455 1.502 . S
C1454 C1456 1.561 . S
C1454 C1457 1.526 . S
C1455 H1439 0.959 . S
C1455 H1440 0.959 . S
C1455 H1441 0.961 . S
C1455 C1454 1.502 . S
C1456 H1442 0.960 . S
C1456 H1443 0.961 . S
C1456 H1444 0.959 . S
C1456 C1454 1.561 . S
C1457 C1454 1.526 . S
C1457 C1458 1.396 . S
C1457 C1462 1.390 . S
C1458 C1452 1.465 . S
C1458 C1457 1.396 . S
C1458 C1459 1.399 . S
C1459 H1445 0.929 . S
C1459 C1458 1.399 . S
C1459 C1460 1.385 . S
C1460 H1446 0.931 . S
C1460 C1459 1.385 . S
C1460 C1461 1.389 . S
C1461 C1460 1.389 . S
C1461 C1462 1.387 . S
C1462 H1447 0.930 . S
C1462 C1457 1.390 . S
C1462 C1461 1.387 . S
H1463 C1475 0.930 . S
H1464 C1477 0.930 . S
H1465 C1478 0.930 . S
H1466 C1482 0.959 . S
H1467 C1482 0.959 . S
H1468 C1482 0.961 . S
H1469 C1483 0.960 . S
H1470 C1483 0.961 . S
H1471 C1483 0.959 . S
H1472 C1486 0.929 . S
H1473 C1487 0.931 . S
H1474 C1489 0.930 . S
C1475 H1463 0.930 . S
C1475 C1476 1.399 . S
C1475 C1480 1.399 . S
C1476 C1475 1.399 . S
C1476 C1477 1.376 . S
C1477 H1464 0.930 . S
C1477 C1476 1.376 . S
C1477 C1478 1.388 . S
C1478 H1465 0.930 . S
C1478 C1477 1.388 . S
C1478 C1479 1.390 . S
C1479 C1478 1.390 . S
C1479 C1480 1.394 . S
C1479 C1485 1.465 . S
C1480 C1475 1.399 . S
C1480 C1479 1.394 . S
C1480 C1481 1.516 . S
C1481 C1480 1.516 . S
C1481 C1482 1.502 . S
C1481 C1483 1.561 . S
C1481 C1484 1.526 . S
C1482 H1466 0.959 . S
C1482 H1467 0.959 . S
C1482 H1468 0.961 . S
C1482 C1481 1.502 . S
C1483 H1469 0.960 . S
C1483 H1470 0.961 . S
C1483 H1471 0.959 . S
C1483 C1481 1.561 . S
C1484 C1481 1.526 . S
C1484 C1485 1.396 . S
C1484 C1489 1.390 . S
C1485 C1479 1.465 . S
C1485 C1484 1.396 . S
C1485 C1486 1.399 . S
C1486 H1472 0.929 . S
C1486 C1485 1.399 . S
C1486 C1487 1.385 . S
C1487 H1473 0.931 . S
C1487 C1486 1.385 . S
C1487 C1488 1.389 . S
C1488 C1487 1.389 . S
C1488 C1489 1.387 . S
C1489 H1474 0.930 . S
C1489 C1484 1.390 . S
C1489 C1488 1.387 . S
H1490 C1502 0.930 . S
H1491 C1504 0.930 . S
H1492 C1505 0.930 . S
H1493 C1509 0.959 . S
H1494 C1509 0.959 . S
H1495 C1509 0.961 . S
H1496 C1510 0.960 1_565 S
H1497 C1510 0.961 1_455 S
H1498 C1510 0.959 . S
H1499 C1513 0.929 1_655 S
H1500 C1514 0.931 . S
H1501 C1516 0.930 . S
C1502 H1490 0.930 . S
C1502 C1503 1.399 . S
C1502 C1507 1.399 . S
C1503 C1502 1.399 . S
C1503 C1504 1.376 . S
C1504 H1491 0.930 . S
C1504 C1503 1.376 . S
C1504 C1505 1.388 . S
C1505 H1492 0.930 . S
C1505 C1504 1.388 . S
C1505 C1506 1.390 . S
C1506 C1505 1.390 . S
C1506 C1507 1.394 . S
C1506 C1512 1.430 1_665 S
C1507 C1502 1.399 . S
C1507 C1506 1.394 . S
C1507 C1508 1.516 1_655 S
C1508 C1507 1.516 1_455 S
C1508 C1509 1.502 . S
C1508 C1510 1.561 1_465 S
C1508 C1511 1.526 1_565 S
C1509 H1493 0.959 . S
C1509 H1494 0.959 . S
C1509 H1495 0.961 . S
C1509 C1508 1.502 . S
C1510 H1496 0.960 1_545 S
C1510 H1497 0.961 1_655 S
C1510 H1498 0.959 . S
C1510 C1508 1.561 1_645 S
C1511 C1508 1.526 1_545 S
C1511 C1512 1.431 . S
C1511 C1516 1.390 . S
C1512 C1506 1.430 1_445 S
C1512 C1511 1.431 . S
C1512 C1513 1.406 . S
C1513 H1499 0.929 1_455 S
C1513 C1512 1.406 . S
C1513 C1514 1.385 . S
C1514 H1500 0.931 . S
C1514 C1513 1.385 . S
C1514 C1515 1.389 . S
C1515 C1514 1.389 . S
C1515 C1516 1.387 . S
C1516 H1501 0.930 . S
C1516 C1511 1.390 . S
C1516 C1515 1.387 . S
H1517 C1529 0.930 . S
H1518 C1531 0.930 . S
H1519 C1532 0.930 . S
H1520 C1536 0.959 . S
H1521 C1536 0.959 . S
H1522 C1536 0.961 . S
H1523 C1537 0.960 . S
H1524 C1537 0.961 1_455 S
H1525 C1537 0.959 . S
H1526 C1540 0.929 1_655 S
H1527 C1541 0.931 . S
H1528 C1543 0.930 . S
C1529 H1517 0.930 . S
C1529 C1530 1.399 1_556 S
C1529 C1534 1.399 . S
C1530 C1529 1.399 1_554 S
C1530 C1531 1.376 . S
C1531 H1518 0.930 . S
C1531 C1530 1.376 . S
C1531 C1532 1.388 . S
C1532 H1519 0.930 . S
C1532 C1531 1.388 . S
C1532 C1533 1.390 . S
C1533 C1532 1.390 . S
C1533 C1534 1.394 1_554 S
C1533 C1539 1.465 1_655 S
C1534 C1529 1.399 . S
C1534 C1533 1.394 1_556 S
C1534 C1535 1.516 1_655 S
C1535 C1534 1.516 1_455 S
C1535 C1536 1.502 . S
C1535 C1537 1.561 1_455 S
C1535 C1538 1.526 . S
C1536 H1520 0.959 . S
C1536 H1521 0.959 . S
C1536 H1522 0.961 . S
C1536 C1535 1.502 . S
C1537 H1523 0.960 . S
C1537 H1524 0.961 1_655 S
C1537 H1525 0.959 . S
C1537 C1535 1.561 1_655 S
C1538 C1535 1.526 . S
C1538 C1539 1.396 1_556 S
C1538 C1543 1.390 . S
C1539 C1533 1.465 1_455 S
C1539 C1538 1.396 1_554 S
C1539 C1540 1.399 . S
C1540 H1526 0.929 1_455 S
C1540 C1539 1.399 . S
C1540 C1541 1.385 . S
C1541 H1527 0.931 . S
C1541 C1540 1.385 . S
C1541 C1542 1.389 . S
C1542 C1541 1.389 . S
C1542 C1543 1.387 1_554 S
C1543 H1528 0.930 . S
C1543 C1538 1.390 . S
C1543 C1542 1.387 1_556 S
H1544 C1556 0.930 1_554 S
H1545 C1558 0.930 . S
H1546 C1559 0.930 . S
H1547 C1563 0.959 1_546 S
H1548 C1563 0.959 . S
H1549 C1563 0.961 1_545 S
H1550 C1564 0.960 . S
H1551 C1564 0.961 . S
H1552 C1564 0.959 . S
H1553 C1567 0.929 . S
H1554 C1568 0.931 . S
H1555 C1570 0.930 . S
C1556 H1544 0.930 1_556 S
C1556 C1557 1.399 . S
C1556 C1561 1.399 1_545 S
C1557 C1556 1.399 . S
C1557 C1558 1.376 . S
C1558 H1545 0.930 . S
C1558 C1557 1.376 . S
C1558 C1559 1.388 1_545 S
C1559 H1546 0.930 . S
C1559 C1558 1.388 1_565 S
C1559 C1560 1.390 . S
C1560 C1559 1.390 . S
C1560 C1561 1.394 . S
C1560 C1566 1.465 . S
C1561 C1556 1.399 1_565 S
C1561 C1560 1.394 . S
C1561 C1562 1.516 . S
C1562 C1561 1.516 . S
C1562 C1563 1.502 1_556 S
C1562 C1564 1.561 1_556 S
C1562 C1565 1.526 . S
C1563 H1547 0.959 1_564 S
C1563 H1548 0.959 . S
C1563 H1549 0.961 1_565 S
C1563 C1562 1.502 1_554 S
C1564 H1550 0.960 . S
C1564 H1551 0.961 . S
C1564 H1552 0.959 . S
C1564 C1562 1.561 1_554 S
C1565 C1562 1.526 . S
C1565 C1566 1.396 . S
C1565 C1570 1.390 . S
C1566 C1560 1.465 . S
C1566 C1565 1.396 . S
C1566 C1567 1.399 . S
C1567 H1553 0.929 . S
C1567 C1566 1.399 . S
C1567 C1568 1.385 . S
C1568 H1554 0.931 . S
C1568 C1567 1.385 . S
C1568 C1569 1.389 . S
C1569 C1568 1.389 . S
C1569 C1570 1.387 . S
C1570 H1555 0.930 . S
C1570 C1565 1.390 . S
C1570 C1569 1.387 . S
H1571 C1583 0.930 . S
H1572 C1585 0.930 . S
H1573 C1586 0.930 . S
H1574 C1590 0.959 1_554 S
H1575 C1590 0.959 . S
H1576 C1590 0.961 1_554 S
H1577 C1591 0.960 . S
H1578 C1591 0.961 . S
H1579 C1591 0.959 . S
H1580 C1594 0.929 . S
H1581 C1595 0.931 . S
H1582 C1597 0.930 . S
C1583 H1571 0.930 . S
C1583 C1584 1.399 1_545 S
C1583 C1588 1.399 . S
C1584 C1583 1.399 1_565 S
C1584 C1585 1.376 . S
C1585 H1572 0.930 . S
C1585 C1584 1.376 . S
C1585 C1586 1.388 . S
C1586 H1573 0.930 . S
C1586 C1585 1.388 . S
C1586 C1587 1.390 1_565 S
C1587 C1586 1.390 1_545 S
C1587 C1588 1.394 . S
C1587 C1593 1.465 . S
C1588 C1583 1.399 . S
C1588 C1587 1.394 . S
C1588 C1589 1.516 . S
C1589 C1588 1.516 . S
C1589 C1590 1.502 . S
C1589 C1591 1.561 . S
C1589 C1592 1.526 . S
C1590 H1574 0.959 1_556 S
C1590 H1575 0.959 . S
C1590 H1576 0.961 1_556 S
C1590 C1589 1.502 . S
C1591 H1577 0.960 . S
C1591 H1578 0.961 . S
C1591 H1579 0.959 . S
C1591 C1589 1.561 . S
C1592 C1589 1.526 . S
C1592 C1593 1.396 . S
C1592 C1597 1.390 . S
C1593 C1587 1.465 . S
C1593 C1592 1.396 . S
C1593 C1594 1.399 . S
C1594 H1580 0.929 . S
C1594 C1593 1.399 . S
C1594 C1595 1.385 . S
C1595 H1581 0.931 . S
C1595 C1594 1.385 . S
C1595 C1596 1.389 . S
C1596 C1595 1.389 . S
C1596 C1597 1.387 . S
C1597 H1582 0.930 . S
C1597 C1592 1.390 . S
C1597 C1596 1.387 . S
H1598 C1610 0.930 . S
H1599 C1612 0.930 . S
H1600 C1613 0.930 . S
H1601 C1617 0.959 . S
H1602 C1617 0.959 . S
H1603 C1617 0.961 . S
H1604 C1618 0.960 . S
H1605 C1618 0.961 . S
H1606 C1618 0.959 . S
H1607 C1621 0.929 . S
H1608 C1622 0.931 . S
H1609 C1624 0.930 . S
C1610 H1598 0.930 . S
C1610 C1611 1.399 . S
C1610 C1615 1.399 . S
C1611 C1610 1.399 . S
C1611 C1612 1.376 . S
C1612 H1599 0.930 . S
C1612 C1611 1.376 . S
C1612 C1613 1.388 . S
C1613 H1600 0.930 . S
C1613 C1612 1.388 . S
C1613 C1614 1.390 . S
C1614 C1613 1.390 . S
C1614 C1615 1.394 . S
C1614 C1620 1.465 . S
C1615 C1610 1.399 . S
C1615 C1614 1.394 . S
C1615 C1616 1.516 . S
C1616 C1615 1.516 . S
C1616 C1617 1.502 . S
C1616 C1618 1.561 . S
C1616 C1619 1.526 . S
C1617 H1601 0.959 . S
C1617 H1602 0.959 . S
C1617 H1603 0.961 . S
C1617 C1616 1.502 . S
C1618 H1604 0.960 . S
C1618 H1605 0.961 . S
C1618 H1606 0.959 . S
C1618 C1616 1.561 . S
C1619 C1616 1.526 . S
C1619 C1620 1.396 . S
C1619 C1624 1.390 . S
C1620 C1614 1.465 . S
C1620 C1619 1.396 . S
C1620 C1621 1.399 . S
C1621 H1607 0.929 . S
C1621 C1620 1.399 . S
C1621 C1622 1.385 . S
C1622 H1608 0.931 . S
C1622 C1621 1.385 . S
C1622 C1623 1.389 . S
C1623 C1622 1.389 . S
C1623 C1624 1.387 . S
C1624 H1609 0.930 . S
C1624 C1619 1.390 . S
C1624 C1623 1.387 . S
H1625 C1637 0.930 . S
H1626 C1639 0.930 . S
H1627 C1640 0.930 . S
H1628 C1644 0.959 . S
H1629 C1644 0.959 . S
H1630 C1644 0.961 . S
H1631 C1645 0.960 . S
H1632 C1645 0.961 . S
H1633 C1645 0.959 . S
H1634 C1648 0.929 . S
H1635 C1649 0.931 . S
H1636 C1651 0.930 . S
C1637 H1625 0.930 . S
C1637 C1638 1.399 . S
C1637 C1642 1.399 . S
C1638 C1637 1.399 . S
C1638 C1639 1.376 . S
C1639 H1626 0.930 . S
C1639 C1638 1.376 . S
C1639 C1640 1.388 . S
C1640 H1627 0.930 . S
C1640 C1639 1.388 . S
C1640 C1641 1.390 . S
C1641 C1640 1.390 . S
C1641 C1642 1.394 . S
C1641 C1647 1.465 . S
C1642 C1637 1.399 . S
C1642 C1641 1.394 . S
C1642 C1643 1.516 . S
C1643 C1642 1.516 . S
C1643 C1644 1.502 . S
C1643 C1645 1.561 . S
C1643 C1646 1.526 . S
C1644 H1628 0.959 . S
C1644 H1629 0.959 . S
C1644 H1630 0.961 . S
C1644 C1643 1.502 . S
C1645 H1631 0.960 . S
C1645 H1632 0.961 . S
C1645 H1633 0.959 . S
C1645 C1643 1.561 . S
C1646 C1643 1.526 . S
C1646 C1647 1.396 . S
C1646 C1651 1.390 . S
C1647 C1641 1.465 . S
C1647 C1646 1.396 . S
C1647 C1648 1.399 . S
C1648 H1634 0.929 . S
C1648 C1647 1.399 . S
C1648 C1649 1.385 . S
C1649 H1635 0.931 . S
C1649 C1648 1.385 . S
C1649 C1650 1.389 . S
C1650 C1649 1.389 . S
C1650 C1651 1.387 . S
C1651 H1636 0.930 . S
C1651 C1646 1.390 . S
C1651 C1650 1.387 . S
H1652 C1664 0.930 . S
H1653 C1666 0.930 . S
H1654 C1667 0.930 . S
H1655 C1671 0.959 . S
H1656 C1671 0.959 . S
H1657 C1671 0.961 . S
H1658 C1672 0.960 . S
H1659 C1672 0.961 . S
H1660 C1672 0.959 . S
H1661 C1675 0.929 . S
H1662 C1676 0.931 . S
H1663 C1678 0.930 . S
C1664 H1652 0.930 . S
C1664 C1665 1.399 . S
C1664 C1669 1.399 . S
C1665 C1664 1.399 . S
C1665 C1666 1.376 . S
C1666 H1653 0.930 . S
C1666 C1665 1.376 . S
C1666 C1667 1.388 . S
C1667 H1654 0.930 . S
C1667 C1666 1.388 . S
C1667 C1668 1.390 . S
C1668 C1667 1.390 . S
C1668 C1669 1.394 . S
C1668 C1674 1.465 . S
C1669 C1664 1.399 . S
C1669 C1668 1.394 . S
C1669 C1670 1.516 . S
C1670 C1669 1.516 . S
C1670 C1671 1.502 . S
C1670 C1672 1.561 . S
C1670 C1673 1.526 . S
C1671 H1655 0.959 . S
C1671 H1656 0.959 . S
C1671 H1657 0.961 . S
C1671 C1670 1.502 . S
C1672 H1658 0.960 . S
C1672 H1659 0.961 . S
C1672 H1660 0.959 . S
C1672 C1670 1.561 . S
C1673 C1670 1.526 . S
C1673 C1674 1.396 . S
C1673 C1678 1.390 . S
C1674 C1668 1.465 . S
C1674 C1673 1.396 . S
C1674 C1675 1.399 . S
C1675 H1661 0.929 . S
C1675 C1674 1.399 . S
C1675 C1676 1.385 . S
C1676 H1662 0.931 . S
C1676 C1675 1.385 . S
C1676 C1677 1.389 . S
C1677 C1676 1.389 . S
C1677 C1678 1.387 . S
C1678 H1663 0.930 . S
C1678 C1673 1.390 . S
C1678 C1677 1.387 . S
H1679 C1691 0.930 . S
H1680 C1693 0.930 . S
H1681 C1694 0.930 . S
H1682 C1698 0.959 . S
H1683 C1698 0.959 . S
H1684 C1698 0.961 . S
H1685 C1699 0.960 . S
H1686 C1699 0.961 . S
H1687 C1699 0.959 . S
H1688 C1702 0.929 . S
H1689 C1703 0.931 . S
H1690 C1705 0.930 . S
C1691 H1679 0.930 . S
C1691 C1692 1.399 . S
C1691 C1696 1.399 . S
C1692 C1691 1.399 . S
C1692 C1693 1.376 . S
C1693 H1680 0.930 . S
C1693 C1692 1.376 . S
C1693 C1694 1.388 . S
C1694 H1681 0.930 . S
C1694 C1693 1.388 . S
C1694 C1695 1.390 . S
C1695 C1694 1.390 . S
C1695 C1696 1.394 . S
C1695 C1701 1.465 . S
C1696 C1691 1.399 . S
C1696 C1695 1.394 . S
C1696 C1697 1.516 . S
C1697 C1696 1.516 . S
C1697 C1698 1.502 . S
C1697 C1699 1.561 . S
C1697 C1700 1.526 . S
C1698 H1682 0.959 . S
C1698 H1683 0.959 . S
C1698 H1684 0.961 . S
C1698 C1697 1.502 . S
C1699 H1685 0.960 . S
C1699 H1686 0.961 . S
C1699 H1687 0.959 . S
C1699 C1697 1.561 . S
C1700 C1697 1.526 . S
C1700 C1701 1.396 . S
C1700 C1705 1.390 . S
C1701 C1695 1.465 . S
C1701 C1700 1.396 . S
C1701 C1702 1.399 . S
C1702 H1688 0.929 . S
C1702 C1701 1.399 . S
C1702 C1703 1.385 . S
C1703 H1689 0.931 . S
C1703 C1702 1.385 . S
C1703 C1704 1.389 . S
C1704 C1703 1.389 . S
C1704 C1705 1.387 . S
C1705 H1690 0.930 . S
C1705 C1700 1.390 . S
C1705 C1704 1.387 . S
H1706 C1718 0.930 . S
H1707 C1720 0.930 . S
H1708 C1721 0.930 . S
H1709 C1725 0.959 . S
H1710 C1725 0.959 . S
H1711 C1725 0.961 . S
H1712 C1726 0.960 . S
H1713 C1726 0.961 . S
H1714 C1726 0.959 . S
H1715 C1729 0.929 . S
H1716 C1730 0.931 . S
H1717 C1732 0.930 . S
C1718 H1706 0.930 . S
C1718 C1719 1.399 . S
C1718 C1723 1.399 . S
C1719 C1718 1.399 . S
C1719 C1720 1.376 . S
C1720 H1707 0.930 . S
C1720 C1719 1.376 . S
C1720 C1721 1.388 . S
C1721 H1708 0.930 . S
C1721 C1720 1.388 . S
C1721 C1722 1.390 . S
C1722 C1721 1.390 . S
C1722 C1723 1.394 . S
C1722 C1728 1.465 . S
C1723 C1718 1.399 . S
C1723 C1722 1.394 . S
C1723 C1724 1.516 . S
C1724 C1723 1.516 . S
C1724 C1725 1.502 . S
C1724 C1726 1.561 . S
C1724 C1727 1.526 . S
C1725 H1709 0.959 . S
C1725 H1710 0.959 . S
C1725 H1711 0.961 . S
C1725 C1724 1.502 . S
C1726 H1712 0.960 . S
C1726 H1713 0.961 . S
C1726 H1714 0.959 . S
C1726 C1724 1.561 . S
C1727 C1724 1.526 . S
C1727 C1728 1.396 . S
C1727 C1732 1.390 . S
C1728 C1722 1.465 . S
C1728 C1727 1.396 . S
C1728 C1729 1.399 . S
C1729 H1715 0.929 . S
C1729 C1728 1.399 . S
C1729 C1730 1.385 . S
C1730 H1716 0.931 . S
C1730 C1729 1.385 . S
C1730 C1731 1.389 . S
C1731 C1730 1.389 . S
C1731 C1732 1.387 . S
C1732 H1717 0.930 . S
C1732 C1727 1.390 . S
C1732 C1731 1.387 . S
H1733 C1745 0.930 . S
H1734 C1747 0.930 . S
H1735 C1748 0.930 . S
H1736 C1752 0.959 . S
H1737 C1752 0.959 . S
H1738 C1752 0.961 . S
H1739 C1753 0.960 . S
H1740 C1753 0.961 . S
H1741 C1753 0.959 . S
H1742 C1756 0.929 . S
H1743 C1757 0.931 . S
H1744 C1759 0.930 . S
C1745 H1733 0.930 . S
C1745 C1746 1.399 . S
C1745 C1750 1.399 . S
C1746 C1745 1.399 . S
C1746 C1747 1.376 . S
C1747 H1734 0.930 . S
C1747 C1746 1.376 . S
C1747 C1748 1.388 . S
C1748 H1735 0.930 . S
C1748 C1747 1.388 . S
C1748 C1749 1.390 . S
C1749 C1748 1.390 . S
C1749 C1750 1.394 . S
C1749 C1755 1.465 . S
C1750 C1745 1.399 . S
C1750 C1749 1.394 . S
C1750 C1751 1.516 . S
C1751 C1750 1.516 . S
C1751 C1752 1.502 . S
C1751 C1753 1.561 . S
C1751 C1754 1.526 . S
C1752 H1736 0.959 . S
C1752 H1737 0.959 . S
C1752 H1738 0.961 . S
C1752 C1751 1.502 . S
C1753 H1739 0.960 . S
C1753 H1740 0.961 . S
C1753 H1741 0.959 . S
C1753 C1751 1.561 . S
C1754 C1751 1.526 . S
C1754 C1755 1.396 . S
C1754 C1759 1.390 . S
C1755 C1749 1.465 . S
C1755 C1754 1.396 . S
C1755 C1756 1.399 . S
C1756 H1742 0.929 . S
C1756 C1755 1.399 . S
C1756 C1757 1.385 . S
C1757 H1743 0.931 . S
C1757 C1756 1.385 . S
C1757 C1758 1.389 . S
C1758 C1757 1.389 . S
C1758 C1759 1.387 . S
C1759 H1744 0.930 . S
C1759 C1754 1.390 . S
C1759 C1758 1.387 . S
H1760 C1772 0.930 . S
H1761 C1774 0.930 . S
H1762 C1775 0.930 . S
H1763 C1779 0.959 . S
H1764 C1779 0.959 . S
H1765 C1779 0.961 . S
H1766 C1780 0.960 . S
H1767 C1780 0.961 . S
H1768 C1780 0.959 . S
H1769 C1783 0.929 . S
H1770 C1784 0.931 . S
H1771 C1786 0.930 . S
C1772 H1760 0.930 . S
C1772 C1773 1.399 . S
C1772 C1777 1.399 . S
C1773 C1772 1.399 . S
C1773 C1774 1.376 . S
C1774 H1761 0.930 . S
C1774 C1773 1.376 . S
C1774 C1775 1.388 . S
C1775 H1762 0.930 . S
C1775 C1774 1.388 . S
C1775 C1776 1.390 . S
C1776 C1775 1.390 . S
C1776 C1777 1.394 . S
C1776 C1782 1.465 . S
C1777 C1772 1.399 . S
C1777 C1776 1.394 . S
C1777 C1778 1.516 . S
C1778 C1777 1.516 . S
C1778 C1779 1.502 1_565 S
C1778 C1780 1.561 . S
C1778 C1781 1.526 . S
C1779 H1763 0.959 . S
C1779 H1764 0.959 . S
C1779 H1765 0.961 . S
C1779 C1778 1.502 1_545 S
C1780 H1766 0.960 . S
C1780 H1767 0.961 . S
C1780 H1768 0.959 . S
C1780 C1778 1.561 . S
C1781 C1778 1.526 . S
C1781 C1782 1.396 . S
C1781 C1786 1.390 1_565 S
C1782 C1776 1.465 . S
C1782 C1781 1.396 . S
C1782 C1783 1.399 . S
C1783 H1769 0.929 . S
C1783 C1782 1.399 . S
C1783 C1784 1.385 1_565 S
C1784 H1770 0.931 . S
C1784 C1783 1.385 1_545 S
C1784 C1785 1.389 . S
C1785 C1784 1.389 . S
C1785 C1786 1.387 . S
C1786 H1771 0.930 . S
C1786 C1781 1.390 1_545 S
C1786 C1785 1.387 . S
H1787 C1799 0.930 . S
H1788 C1801 0.930 . S
H1789 C1802 0.930 . S
H1790 C1806 0.959 . S
H1791 C1806 0.959 . S
H1792 C1806 0.961 . S
H1793 C1807 0.960 . S
H1794 C1807 0.961 . S
H1795 C1807 0.959 . S
H1796 C1810 0.929 . S
H1797 C1811 0.931 . S
H1798 C1813 0.930 . S
C1799 H1787 0.930 . S
C1799 C1800 1.399 1_545 S
C1799 C1804 1.399 . S
C1800 C1799 1.399 1_565 S
C1800 C1801 1.376 . S
C1801 H1788 0.930 . S
C1801 C1800 1.376 . S
C1801 C1802 1.388 . S
C1802 H1789 0.930 . S
C1802 C1801 1.388 . S
C1802 C1803 1.390 1_565 S
C1803 C1802 1.390 1_545 S
C1803 C1804 1.394 . S
C1803 C1809 1.465 . S
C1804 C1799 1.399 . S
C1804 C1803 1.394 . S
C1804 C1805 1.516 . S
C1805 C1804 1.516 . S
C1805 C1806 1.502 . S
C1805 C1807 1.561 . S
C1805 C1808 1.526 . S
C1806 H1790 0.959 . S
C1806 H1791 0.959 . S
C1806 H1792 0.961 . S
C1806 C1805 1.502 . S
C1807 H1793 0.960 . S
C1807 H1794 0.961 . S
C1807 H1795 0.959 . S
C1807 C1805 1.561 . S
C1808 C1805 1.526 . S
C1808 C1809 1.396 . S
C1808 C1813 1.390 . S
C1809 C1803 1.465 . S
C1809 C1808 1.396 . S
C1809 C1810 1.399 . S
C1810 H1796 0.929 . S
C1810 C1809 1.399 . S
C1810 C1811 1.385 . S
C1811 H1797 0.931 . S
C1811 C1810 1.385 . S
C1811 C1812 1.389 . S
C1812 C1811 1.389 . S
C1812 C1813 1.387 . S
C1813 H1798 0.930 . S
C1813 C1808 1.390 . S
C1813 C1812 1.387 . S
H1814 C1826 0.930 . S
H1815 C1828 0.930 . S
H1816 C1829 0.930 . S
H1817 C1833 0.959 . S
H1818 C1833 0.959 . S
H1819 C1833 0.961 . S
H1820 C1834 0.960 . S
H1821 C1834 0.961 . S
H1822 C1834 0.959 . S
H1823 C1837 0.929 . S
H1824 C1838 0.931 . S
H1825 C1840 0.930 . S
C1826 H1814 0.930 . S
C1826 C1827 1.399 . S
C1826 C1831 1.399 . S
C1827 C1826 1.399 . S
C1827 C1828 1.376 . S
C1828 H1815 0.930 . S
C1828 C1827 1.376 . S
C1828 C1829 1.388 . S
C1829 H1816 0.930 . S
C1829 C1828 1.388 . S
C1829 C1830 1.390 . S
C1830 C1829 1.390 . S
C1830 C1831 1.394 . S
C1830 C1836 1.465 . S
C1831 C1826 1.399 . S
C1831 C1830 1.394 . S
C1831 C1832 1.516 . S
C1832 C1831 1.516 . S
C1832 C1833 1.502 . S
C1832 C1834 1.561 . S
C1832 C1835 1.526 . S
C1833 H1817 0.959 . S
C1833 H1818 0.959 . S
C1833 H1819 0.961 . S
C1833 C1832 1.502 . S
C1834 H1820 0.960 . S
C1834 H1821 0.961 . S
C1834 H1822 0.959 . S
C1834 C1832 1.561 . S
C1835 C1832 1.526 . S
C1835 C1836 1.396 . S
C1835 C1840 1.390 . S
C1836 C1830 1.465 . S
C1836 C1835 1.396 . S
C1836 C1837 1.399 . S
C1837 H1823 0.929 . S
C1837 C1836 1.399 . S
C1837 C1838 1.385 . S
C1838 H1824 0.931 . S
C1838 C1837 1.385 . S
C1838 C1839 1.389 . S
C1839 C1838 1.389 . S
C1839 C1840 1.387 . S
C1840 H1825 0.930 . S
C1840 C1835 1.390 . S
C1840 C1839 1.387 . S
H1841 C1853 0.930 . S
H1842 C1855 0.930 . S
H1843 C1856 0.930 . S
H1844 C1860 0.959 . S
H1845 C1860 0.959 . S
H1846 C1860 0.961 . S
H1847 C1861 0.960 . S
H1848 C1861 0.961 . S
H1849 C1861 0.959 . S
H1850 C1864 0.929 . S
H1851 C1865 0.931 . S
H1852 C1867 0.930 . S
C1853 H1841 0.930 . S
C1853 C1854 1.399 . S
C1853 C1858 1.399 . S
C1854 C1853 1.399 . S
C1854 C1855 1.376 . S
C1855 H1842 0.930 . S
C1855 C1854 1.376 . S
C1855 C1856 1.388 . S
C1856 H1843 0.930 . S
C1856 C1855 1.388 . S
C1856 C1857 1.390 . S
C1857 C1856 1.390 . S
C1857 C1858 1.394 . S
C1857 C1863 1.465 . S
C1858 C1853 1.399 . S
C1858 C1857 1.394 . S
C1858 C1859 1.516 . S
C1859 C1858 1.516 . S
C1859 C1860 1.502 . S
C1859 C1861 1.561 . S
C1859 C1862 1.526 . S
C1860 H1844 0.959 . S
C1860 H1845 0.959 . S
C1860 H1846 0.961 . S
C1860 C1859 1.502 . S
C1861 H1847 0.960 . S
C1861 H1848 0.961 . S
C1861 H1849 0.959 . S
C1861 C1859 1.561 . S
C1862 C1859 1.526 . S
C1862 C1863 1.396 . S
C1862 C1867 1.390 . S
C1863 C1857 1.465 . S
C1863 C1862 1.396 . S
C1863 C1864 1.399 . S
C1864 H1850 0.929 . S
C1864 C1863 1.399 . S
C1864 C1865 1.385 . S
C1865 H1851 0.931 . S
C1865 C1864 1.385 . S
C1865 C1866 1.389 . S
C1866 C1865 1.389 . S
C1866 C1867 1.387 . S
C1867 H1852 0.930 . S
C1867 C1862 1.390 . S
C1867 C1866 1.387 . S
H1868 C1880 0.930 . S
H1869 C1882 0.930 . S
H1870 C1883 0.930 . S
H1871 C1887 0.959 . S
H1872 C1887 0.959 . S
H1873 C1887 0.961 . S
H1874 C1888 0.960 . S
H1875 C1888 0.961 . S
H1876 C1888 0.959 . S
H1877 C1891 0.929 1_554 S
H1878 C1892 0.931 . S
H1879 C1894 0.930 . S
C1880 H1868 0.930 . S
C1880 C1881 1.399 . S
C1880 C1885 1.399 . S
C1881 C1880 1.399 . S
C1881 C1882 1.376 1_556 S
C1882 H1869 0.930 . S
C1882 C1881 1.376 1_554 S
C1882 C1883 1.388 . S
C1883 H1870 0.930 . S
C1883 C1882 1.388 . S
C1883 C1884 1.390 1_554 S
C1884 C1883 1.390 1_556 S
C1884 C1885 1.394 . S
C1884 C1890 1.465 . S
C1885 C1880 1.399 . S
C1885 C1884 1.394 . S
C1885 C1886 1.516 . S
C1886 C1885 1.516 . S
C1886 C1887 1.502 . S
C1886 C1888 1.561 . S
C1886 C1889 1.526 . S
C1887 H1871 0.959 . S
C1887 H1872 0.959 . S
C1887 H1873 0.961 . S
C1887 C1886 1.502 . S
C1888 H1874 0.960 . S
C1888 H1875 0.961 . S
C1888 H1876 0.959 . S
C1888 C1886 1.561 . S
C1889 C1886 1.526 . S
C1889 C1890 1.396 . S
C1889 C1894 1.390 . S
C1890 C1884 1.465 . S
C1890 C1889 1.396 . S
C1890 C1891 1.399 . S
C1891 H1877 0.929 1_556 S
C1891 C1890 1.399 . S
C1891 C1892 1.385 . S
C1892 H1878 0.931 . S
C1892 C1891 1.385 . S
C1892 C1893 1.389 . S
C1893 C1892 1.389 . S
C1893 C1894 1.387 . S
C1894 H1879 0.930 . S
C1894 C1889 1.390 . S
C1894 C1893 1.387 . S
H1895 C1907 0.930 . S
H1896 C1909 0.930 . S
H1897 C1910 0.916 1_554 S
H1898 C1914 0.959 . S
H1899 C1914 0.959 . S
H1900 C1914 0.961 . S
H1901 C1915 0.960 . S
H1902 C1915 0.961 . S
H1903 C1915 0.959 . S
H1904 C1918 0.929 1_554 S
H1905 C1919 0.931 . S
H1906 C1921 0.930 . S
C1907 H1895 0.930 . S
C1907 C1908 1.399 . S
C1907 C1912 1.399 . S
C1908 C1907 1.399 . S
C1908 C1909 1.376 . S
C1909 H1896 0.930 . S
C1909 C1908 1.376 . S
C1909 C1910 1.388 . S
C1910 H1897 0.916 1_556 S
C1910 C1909 1.388 . S
C1910 C1911 1.390 . S
C1911 C1910 1.390 . S
C1911 C1912 1.394 . S
C1911 C1917 1.465 . S
C1912 C1907 1.399 . S
C1912 C1911 1.394 . S
C1912 C1913 1.516 . S
C1913 C1912 1.516 . S
C1913 C1914 1.502 . S
C1913 C1915 1.561 . S
C1913 C1916 1.526 . S
C1914 H1898 0.959 . S
C1914 H1899 0.959 . S
C1914 H1900 0.961 . S
C1914 C1913 1.502 . S
C1915 H1901 0.960 . S
C1915 H1902 0.961 . S
C1915 H1903 0.959 . S
C1915 C1913 1.561 . S
C1916 C1913 1.526 . S
C1916 C1917 1.396 . S
C1916 C1921 1.390 . S
C1917 C1911 1.465 . S
C1917 C1916 1.396 . S
C1917 C1918 1.399 . S
C1918 H1904 0.929 1_556 S
C1918 C1917 1.399 . S
C1918 C1919 1.385 1_556 S
C1919 H1905 0.931 . S
C1919 C1918 1.385 1_554 S
C1919 C1920 1.389 1_554 S
C1920 C1919 1.389 1_556 S
C1920 C1921 1.387 . S
C1921 H1906 0.930 . S
C1921 C1916 1.390 . S
C1921 C1920 1.387 . S
H1922 C1934 0.930 . S
H1923 C1936 0.930 . S
H1924 C1937 0.930 . S
H1925 C1941 0.959 . S
H1926 C1941 0.959 . S
H1927 C1941 0.961 . S
H1928 C1942 0.960 . S
H1929 C1942 0.961 . S
H1930 C1942 0.959 . S
H1931 C1945 0.929 . S
H1932 C1946 0.931 . S
H1933 C1948 0.930 . S
C1934 H1922 0.930 . S
C1934 C1935 1.399 . S
C1934 C1939 1.399 . S
C1935 C1934 1.399 . S
C1935 C1936 1.376 . S
C1936 H1923 0.930 . S
C1936 C1935 1.376 . S
C1936 C1937 1.388 . S
C1937 H1924 0.930 . S
C1937 C1936 1.388 . S
C1937 C1938 1.390 . S
C1938 C1937 1.390 . S
C1938 C1939 1.394 . S
C1938 C1944 1.465 . S
C1939 C1934 1.399 . S
C1939 C1938 1.394 . S
C1939 C1940 1.516 . S
C1940 C1939 1.516 . S
C1940 C1941 1.502 . S
C1940 C1942 1.561 . S
C1940 C1943 1.526 . S
C1941 H1925 0.959 . S
C1941 H1926 0.959 . S
C1941 H1927 0.961 . S
C1941 C1940 1.502 . S
C1942 H1928 0.960 . S
C1942 H1929 0.961 . S
C1942 H1930 0.959 . S
C1942 C1940 1.561 . S
C1943 C1940 1.526 . S
C1943 C1944 1.396 . S
C1943 C1948 1.390 . S
C1944 C1938 1.465 . S
C1944 C1943 1.396 . S
C1944 C1945 1.399 . S
C1945 H1931 0.929 . S
C1945 C1944 1.399 . S
C1945 C1946 1.385 . S
C1946 H1932 0.931 . S
C1946 C1945 1.385 . S
C1946 C1947 1.389 . S
C1947 C1946 1.389 . S
C1947 C1948 1.387 . S
C1948 H1933 0.930 . S
C1948 C1943 1.390 . S
C1948 C1947 1.387 . S
H1949 C1961 0.930 . S
H1950 C1963 0.930 . S
H1951 C1964 0.930 . S
H1952 C1968 0.959 . S
H1953 C1968 0.959 . S
H1954 C1968 0.961 . S
H1955 C1969 0.960 . S
H1956 C1969 0.961 . S
H1957 C1969 0.959 . S
H1958 C1972 0.929 . S
H1959 C1973 0.931 . S
H1960 C1975 0.930 . S
C1961 H1949 0.930 . S
C1961 C1962 1.399 . S
C1961 C1966 1.399 . S
C1962 C1961 1.399 . S
C1962 C1963 1.376 . S
C1963 H1950 0.930 . S
C1963 C1962 1.376 . S
C1963 C1964 1.388 . S
C1964 H1951 0.930 . S
C1964 C1963 1.388 . S
C1964 C1965 1.390 . S
C1965 C1964 1.390 . S
C1965 C1966 1.394 . S
C1965 C1971 1.465 . S
C1966 C1961 1.399 . S
C1966 C1965 1.394 . S
C1966 C1967 1.516 . S
C1967 C1966 1.516 . S
C1967 C1968 1.502 . S
C1967 C1969 1.561 . S
C1967 C1970 1.526 . S
C1968 H1952 0.959 . S
C1968 H1953 0.959 . S
C1968 H1954 0.961 . S
C1968 C1967 1.502 . S
C1969 H1955 0.960 . S
C1969 H1956 0.961 . S
C1969 H1957 0.959 . S
C1969 C1967 1.561 . S
C1970 C1967 1.526 . S
C1970 C1971 1.396 . S
C1970 C1975 1.390 . S
C1971 C1965 1.465 . S
C1971 C1970 1.396 . S
C1971 C1972 1.399 . S
C1972 H1958 0.929 . S
C1972 C1971 1.399 . S
C1972 C1973 1.385 . S
C1973 H1959 0.931 . S
C1973 C1972 1.385 . S
C1973 C1974 1.389 . S
C1974 C1973 1.389 . S
C1974 C1975 1.387 . S
C1975 H1960 0.930 . S
C1975 C1970 1.390 . S
C1975 C1974 1.387 . S
C477 C3 0.837 . S
C489 C158 0.782 . S
C504 C32 0.824 . S
C516 C129 0.811 . S
C531 C61 0.878 . S
C543 C332 0.906 . S
C558 C90 0.877 . S
C570 C303 0.908 . S
C585 C42 0.745 . S
C597 C119 0.817 . S
C612 C148 0.827 . S
C624 C13 0.763 . S
C639 C177 0.877 . S
C651 C448 0.901 . S
C666 C419 0.899 . S
C678 C206 0.869 . S
C693 C390 0.744 . S
C705 C235 0.816 . S
C720 C361 0.887 . S
C732 C264 0.859 . S
C747 C100 0.864 . S
C759 C293 0.865 . S
C774 C322 0.815 . S
C786 C71 0.750 . S
C801 C351 0.827 . S
C813 C274 0.764 . S
C828 C380 0.835 . S
C840 C245 0.779 . S
C855 C409 0.877 . S
C867 C216 0.908 . S
C882 C187 0.871 . S
C894 C438 0.867 . S
C909 C15 2.229 . S
C921 C21 2.104 . S
C936 C50 2.090 . S
C948 C44 2.200 . S
C963 C79 2.023 . S
C975 C73 2.213 . S
C990 C108 2.108 . S
C1002 C102 2.239 . S
C1017 C131 2.232 . S
C1029 C137 2.101 . S
C1044 C160 2.232 . S
C1056 C166 2.101 . S
C1071 C189 2.200 . S
C1083 C195 2.067 1_554 S
C1098 C224 2.110 1_554 S
C1110 C218 2.228 . S
C1125 C247 2.209 . S
C1137 C253 2.044 . S
C1152 C276 2.233 . S
C1164 C282 2.100 . S
C1179 C311 2.108 1_554 S
C1191 C305 2.239 . S
C1206 C334 2.248 . S
C1218 C340 2.056 1_554 S
C1233 C369 2.055 . S
C1245 C363 2.250 . S
C1260 C398 2.107 . S
C1272 C392 2.225 . S
C1287 C421 2.199 . S
C1299 C427 2.066 . S
C1314 C450 2.249 . S
C1326 C456 2.061 . S
C1341 C10 1.658 . S
C1353 C39 1.625 . S
C1368 C68 1.637 . S
C1380 C445 1.652 . S
C1395 C97 1.659 . S
C1407 C416 1.650 . S
C1422 C155 1.611 . S
C1434 C126 1.589 . S
C1449 C329 1.655 . S
C1461 C184 1.642 . S
C1476 C213 1.589 . S
C1488 C300 1.599 . S
C1503 C271 1.616 . S
C1515 C242 1.589 . S
C1530 C387 1.613 . S
C1542 C358 1.589 . S
C1557 C8 1.548 . S
C1569 C179 1.508 . S
C1584 C37 1.510 . S
C1596 C208 1.554 . S
C1611 C66 1.464 . S
C1623 C5 1.568 . S
C1638 C34 1.505 . S
C1650 C95 1.546 . S
C1665 C63 1.528 . S
C1677 C124 1.539 . S
C1692 C92 1.542 . S
C1704 C153 1.525 . S
C1719 C182 1.518 . S
C1731 C121 1.530 . S
C1746 C150 1.524 . S
C1758 C211 1.525 . S
C1773 C411 1.528 . S
C1785 C240 1.495 . S
C1800 C269 1.513 . S
C1812 C440 1.551 . S
C1827 C237 1.506 . S
C1839 C298 1.545 . S
C1854 C327 1.515 . S
C1866 C266 1.532 . S
C1881 C356 1.462 . S
C1893 C295 1.565 . S
C1908 C324 1.531 . S
C1920 C385 1.491 . S
C1935 C414 1.548 . S
C1947 C353 1.505 . S
C1962 C443 1.542 . S
C1974 C382 1.510 . S
