# Generated by pormake.
# Topology sxb, (6)-cn, num edge types: 1
# Building blocks:
#     Node 0, Type 0, BuildingBlock: BETFAJ_clean_sbu_0, # of connection points: 6
#     Node 1, Type 0, BuildingBlock: BETFAJ_clean_sbu_0, # of connection points: 6
#     Node 2, Type 0, BuildingBlock: BETFAJ_clean_sbu_0, # of connection points: 6
#     Node 3, Type 0, BuildingBlock: BETFAJ_clean_sbu_0, # of connection points: 6
#     Edge 4, Type (0, 0), BuildingBlock: MIFKUJ_clean_linker_0, # of connection points: 2
#     Edge 5, Type (0, 0), BuildingBlock: MIFKUJ_clean_linker_0, # of connection points: 2
#     Edge 6, Type (0, 0), BuildingBlock: MIFKUJ_clean_linker_0, # of connection points: 2
#     Edge 7, Type (0, 0), BuildingBlock: MIFKUJ_clean_linker_0, # of connection points: 2
#     Edge 8, Type (0, 0), BuildingBlock: MIFKUJ_clean_linker_0, # of connection points: 2
#     Edge 9, Type (0, 0), BuildingBlock: MIFKUJ_clean_linker_0, # of connection points: 2
#     Edge 10, Type (0, 0), BuildingBlock: MIFKUJ_clean_linker_0, # of connection points: 2
#     Edge 11, Type (0, 0), BuildingBlock: MIFKUJ_clean_linker_0, # of connection points: 2
#     Edge 12, Type (0, 0), BuildingBlock: MIFKUJ_clean_linker_0, # of connection points: 2
#     Edge 13, Type (0, 0), BuildingBlock: MIFKUJ_clean_linker_0, # of connection points: 2
#     Edge 14, Type (0, 0), BuildingBlock: MIFKUJ_clean_linker_0, # of connection points: 2
#     Edge 15, Type (0, 0), BuildingBlock: MIFKUJ_clean_linker_0, # of connection points: 2
# Relax obj value: 0.279
# Max RMSD: 0.111
# Mean RMSD: 0.070
data_MOF--net-sxb--node1-BETFAJ_clean_sbu_0--edge1-MIFKUJ_clean_linker_0
_symmetry_space_group_name_H-M    P1
_symmetry_Int_Tables_number       1
_symmetry_cell_setting            triclinic
loop_
_symmetry_equiv_pos_as_xyz
'x, y, z'
_cell_length_a     23.440608
_cell_length_b     44.018159
_cell_length_c     39.808622
_cell_angle_alpha  92.258578
_cell_angle_beta   95.758953
_cell_angle_gamma 74.540153
loop_
_atom_site_label
_atom_site_type_symbol
_atom_site_fract_x
_atom_site_fract_y
_atom_site_fract_z
_atom_type_partial_charge
Sm0 Sm 1.00853 1.01549 -0.01235 0.0
Sm1 Sm 0.10139 0.03361 -0.00257 0.0
C2 C 0.89991 1.00774 0.98041 0.0
C3 C 0.84861 1.02212 0.95626 0.0
C4 C 0.82137 0.05472 0.95698 0.0
C5 C 0.77718 0.06843 0.93176 0.0
C6 C 0.75977 0.04988 0.90521 0.0
C7 C 0.78669 1.01731 0.90462 0.0
C8 C 0.83043 1.00355 0.92999 0.0
C9 C 1.05099 1.01858 0.92482 0.0
C10 C 0.98424 0.09627 -0.00936 0.0
C11 C 0.20764 0.04238 -0.00822 0.0
C12 C 0.23535 0.04788 0.96209 0.0
C13 C 0.20236 0.05238 0.93035 0.0
C14 C 0.23019 0.05461 0.90143 0.0
C15 C 0.29144 0.05208 0.90397 0.0
C16 C 0.32376 0.04842 0.93602 0.0
C17 C 0.29593 0.04623 0.96484 0.0
C18 C 0.0634 0.03138 0.06154 0.0
C19 C 0.12406 0.95304 -0.00557 0.0
O20 O 0.91681 0.02614 0.00362 0.0
O21 O 0.94465 0.98874 0.967 0.0
O22 O 1.04454 0.03993 0.94734 0.0
O23 O 1.03914 0.99412 0.93612 0.0
O24 O 0.95989 0.07215 -0.00765 0.0
O25 O 1.04283 0.0873 -0.01075 0.0
O26 O 0.16245 0.06482 3e-05 0.0
O27 O 0.19793 1.01469 -0.00743 0.0
O28 O 0.0639 1.01037 0.03872 0.0
O29 O 0.08271 0.05365 0.05068 0.0
O30 O 0.14721 0.97699 -0.01088 0.0
O31 O 0.06672 0.96237 -0.00043 0.0
H32 H 0.83469 0.06978 0.97668 0.0
H33 H 0.75695 0.09359 0.93284 0.0
H34 H 0.77319 1.00236 0.88484 0.0
H35 H 0.85083 0.97841 0.92877 0.0
H36 H 0.15541 0.05346 0.9279 0.0
H37 H 0.2043 0.05741 0.87709 0.0
H38 H 0.37082 0.04707 0.93881 0.0
H39 H 0.32191 0.04268 -0.01086 0.0
Sm40 Sm 0.07043 0.99557 0.49641 0.0
Sm41 Sm 1.03315 0.05384 0.49042 0.0
C42 C 0.09206 0.93543 0.51231 0.0
C43 C 0.0641 0.91096 0.49931 0.0
C44 C 0.07235 0.88325 0.51734 0.0
C45 C 1.04301 0.86068 0.50531 0.0
C46 C 1.00519 0.86576 0.47514 0.0
C47 C 0.99839 0.89331 0.45683 0.0
C48 C 1.02737 0.91582 0.46892 0.0
C49 C 0.06059 1.00845 0.42773 0.0
C50 C 0.91025 1.02387 0.49237 0.0
C51 C 1.00267 0.11355 0.47135 0.0
C52 C 1.02719 0.13965 0.46476 0.0
C53 C 0.08272 0.13436 0.45208 0.0
C54 C 0.10659 0.15965 0.44806 0.0
C55 C 0.07542 0.19036 0.45699 0.0
C56 C 1.01903 0.19561 0.46865 0.0
C57 C 0.995 0.17037 0.4724 0.0
C58 C 1.04133 0.04038 0.5588 0.0
C59 C 0.19316 0.02559 0.49515 0.0
O60 O 0.05872 0.95825 0.52912 0.0
O61 O 0.12047 0.94563 0.49067 0.0
O62 O 1.02086 1.01971 0.44759 0.0
O63 O 0.10728 0.99117 0.44433 0.0
O64 O 0.95917 0.99864 0.49659 0.0
O65 O 0.92793 0.05011 0.48795 0.0
O66 O 1.01244 0.08968 0.45029 0.0
O67 O 1.00763 0.10506 0.5027 0.0
O68 O 0.08178 0.02926 0.53931 0.0
O69 O 0.99454 0.05759 0.54199 0.0
O70 O 0.14418 0.05035 0.48812 0.0
O71 O 0.17542 0.99996 0.50236 0.0
H72 H 0.1005 0.87936 0.54092 0.0
H73 H 1.04841 0.83981 0.5201 0.0
H74 H 0.97013 0.89762 0.43331 0.0
H75 H 1.02061 0.93722 0.45475 0.0
H76 H 0.10819 0.1107 0.44617 0.0
H77 H 0.15061 0.15502 0.43953 0.0
H78 H 0.9943 0.21912 0.47564 0.0
H79 H 0.95191 0.17471 0.48209 0.0
Sm80 Sm 0.50683 0.51607 0.9852 0.0
Sm81 Sm 0.60009 0.53385 -0.00629 0.0
C82 C 0.40015 0.50767 -0.00929 0.0
C83 C 0.37031 0.50553 0.02072 0.0
C84 C 0.40169 0.50407 0.05283 0.0
C85 C 0.37303 0.5034 0.08179 0.0
C86 C 0.31232 0.50463 0.07893 0.0
C87 C 0.28122 0.5059 0.0466 0.0
C88 C 0.31006 0.50636 0.0177 0.0
C89 C 0.54372 0.51769 0.92063 0.0
C90 C 0.48458 0.59639 -0.01175 0.0
C91 C 0.70896 0.54118 -0.00117 0.0
C92 C 0.76018 0.52787 0.02351 0.0
C93 C 0.78931 0.49548 0.0234 0.0
C94 C 0.83319 0.4827 0.04916 0.0
C95 C 0.8484 0.50197 0.07563 0.0
C96 C 0.81978 0.53434 0.07555 0.0
C97 C 0.77639 0.54719 0.04965 0.0
C98 C 0.56075 0.53195 0.05763 0.0
C99 C 0.6237 0.45312 -0.00872 0.0
O100 O 0.4468 0.48465 0.98612 0.0
O101 O 0.40914 0.53505 0.98622 0.0
O102 O 0.54322 0.53892 0.94315 0.0
O103 O 0.52586 0.4952 0.93217 0.0
O104 O 0.46193 0.57254 -0.00534 0.0
O105 O 0.54133 0.58692 0.98187 0.0
O106 O 0.69159 0.52163 0.9772 0.0
O107 O 0.66446 0.56131 0.01126 0.0
O108 O 0.56421 0.51049 0.03522 0.0
O109 O 0.57485 0.55551 0.04579 0.0
O110 O 0.64825 0.47714 -0.01058 0.0
O111 O 0.56514 0.46222 -0.00719 0.0
H112 H 0.44818 0.5038 0.05536 0.0
H113 H 0.39792 0.50254 0.10635 0.0
H114 H 0.23456 0.50633 0.04366 0.0
H115 H 0.28528 0.5076 -0.00692 0.0
H116 H 0.77766 0.47985 0.00378 0.0
H117 H 0.85492 0.45768 0.04856 0.0
H118 H 0.83169 0.54985 0.09524 0.0
H119 H 0.75467 0.57221 0.05038 0.0
Sm120 Sm 0.57244 0.49457 0.49267 0.0
Sm121 Sm 0.53384 0.55324 0.48575 0.0
C122 C 0.59871 0.43487 0.51121 0.0
C123 C 0.56573 0.41204 0.51693 0.0
C124 C 0.51006 0.42173 0.52983 0.0
C125 C 0.47502 0.40072 0.53019 0.0
C126 C 0.49509 0.36998 0.51733 0.0
C127 C 0.5521 0.35988 0.50612 0.0
C128 C 0.58731 0.38083 0.506 0.0
C129 C 0.56724 0.50805 0.4245 0.0
C130 C 0.41151 0.52332 0.4883 0.0
C131 C 0.51206 0.61221 0.46593 0.0
C132 C 0.55077 0.63095 0.45648 0.0
C133 C 0.53471 0.64938 0.42739 0.0
C134 C 0.57364 0.66532 0.41671 0.0
C135 C 0.62915 0.66285 0.43499 0.0
C136 C 0.64494 0.64433 0.46411 0.0
C137 C 0.60621 0.62843 0.47469 0.0
C138 C 0.53837 0.54 0.55389 0.0
C139 C 0.6945 0.52465 0.48983 0.0
O140 O 0.59389 0.45844 0.5326 0.0
O141 O 0.59532 0.44349 0.48 0.0
O142 O 0.52563 0.51829 0.4434 0.0
O143 O 0.61443 0.49208 0.44207 0.0
O144 O 0.46081 0.49839 0.49416 0.0
O145 O 0.42871 0.54943 0.48239 0.0
O146 O 0.50837 0.58894 0.4453 0.0
O147 O 0.51771 0.60433 0.49758 0.0
O148 O 0.58014 0.52943 0.53511 0.0
O149 O 0.49174 0.55658 0.53629 0.0
O150 O 0.64512 0.5493 0.48324 0.0
O151 O 0.67742 0.49876 0.4967 0.0
H152 H 0.49253 0.44585 0.53818 0.0
H153 H 0.43087 0.40906 0.53857 0.0
H154 H 0.56834 0.33618 0.49622 0.0
H155 H 0.6302 0.3731 0.49593 0.0
H156 H 0.49245 0.65109 0.41274 0.0
H157 H 0.56056 0.67936 0.39411 0.0
H158 H 0.68687 0.64253 0.47912 0.0
H159 H 0.61989 0.61404 0.49702 0.0
H160 H 0.51728 0.65301 0.97581 0.0
H161 H 0.46144 0.70873 0.97606 0.0
H162 H 0.3078 0.6828 0.00262 0.0
H163 H 0.36368 0.62677 0.0015 0.0
H164 H 0.25685 0.73271 0.97097 0.0
H165 H 0.41773 0.72905 0.05663 0.0
H166 H 0.52222 0.71838 0.08067 0.0
H167 H 0.55693 0.77816 0.00689 0.0
H168 H 0.45275 0.78892 0.9822 0.0
H169 H 0.09098 0.89636 0.00603 0.0
H170 H 0.14682 0.84067 0.00585 0.0
H171 H 0.30138 0.86671 0.98094 0.0
H172 H 0.24551 0.92273 0.98215 0.0
H173 H 0.35196 0.81668 0.0117 0.0
H174 H 0.19174 0.82027 0.92582 0.0
H175 H 0.08753 0.83081 0.90128 0.0
H176 H 1.05185 0.77114 0.97484 0.0
H177 H 0.15572 0.76051 2e-05 0.0
C178 C 0.47164 0.65861 0.98192 0.0
C179 C 0.44741 0.63311 -0.01124 0.0
C180 C 0.43859 0.69173 0.98246 0.0
C181 C 0.3779 0.70291 -0.00976 0.0
C182 C 0.35346 0.67727 -0.00341 0.0
C183 C 0.38657 0.64409 -0.00397 0.0
C184 C 0.34081 0.73995 -0.00867 0.0
C185 C 0.27871 0.75054 0.98048 0.0
C186 C 0.36521 0.76591 0.00269 0.0
C187 C 0.42768 0.75951 0.01737 0.0
C188 C 0.44777 0.73977 0.04543 0.0
C189 C 0.5069 0.73373 0.05918 0.0
C190 C 0.54623 0.74751 0.04525 0.0
C191 C 0.52645 0.76745 0.01761 0.0
C192 C 0.46736 0.77354 0.00374 0.0
C193 C 0.13683 0.8908 0.00032 0.0
C194 C 0.16132 0.91633 -0.006 0.0
C195 C 0.1699 0.85768 -0.00021 0.0
C196 C 0.23084 0.84652 -0.00754 0.0
C197 C 0.25551 0.8722 -0.01339 0.0
C198 C 0.22242 0.90538 -0.01278 0.0
C199 C 0.26795 0.80947 -0.00866 0.0
C200 C 0.33006 0.79887 0.00219 0.0
C201 C 0.24359 0.7835 0.97993 0.0
C202 C 0.18126 0.78989 0.96501 0.0
C203 C 0.16154 0.80956 0.93687 0.0
C204 C 0.10257 0.81552 0.92284 0.0
C205 C 0.06305 0.80173 0.93656 0.0
C206 C 0.08247 0.78186 0.96429 0.0
C207 C 0.14139 0.77584 0.97844 0.0
H208 H 1.01742 0.80637 0.92566 0.0
H209 H 0.592 0.7428 0.05593 0.0
H210 H 0.58655 0.3962 -0.00765 0.0
H211 H 0.64184 0.34044 -0.00844 0.0
H212 H 0.80509 0.36697 -0.00995 0.0
H213 H 0.74905 0.42302 -0.01011 0.0
H214 H 0.83312 0.31467 0.95959 0.0
H215 H 0.74172 0.32539 0.06335 0.0
H216 H 0.65961 0.33858 0.10013 0.0
H217 H 0.57579 0.27459 0.04347 0.0
H218 H 0.65714 0.26126 0.00614 0.0
H219 H 1.02126 0.15322 -0.01025 0.0
H220 H 0.96594 0.20896 -0.00944 0.0
H221 H 0.80266 0.18237 -0.00834 0.0
H222 H 0.85875 0.12633 -0.0082 0.0
H223 H 0.77465 0.2347 0.02234 0.0
H224 H 0.86668 0.22403 0.91859 0.0
H225 H 0.94917 0.21094 0.88207 0.0
H226 H 1.03232 0.27498 0.93913 0.0
H227 H 0.95058 0.2882 0.9762 0.0
C228 C 0.63433 0.39074 -0.00797 0.0
C229 C 0.66103 0.41642 -0.0086 0.0
C230 C 0.66735 0.35762 -0.00806 0.0
C231 C 0.73078 0.34659 -0.0084 0.0
C232 C 0.75735 0.37237 -0.00949 0.0
C233 C 0.72424 0.40557 -0.00947 0.0
C234 C 0.76811 0.30954 -0.00809 0.0
C235 C 0.8197 0.29778 0.97396 0.0
C236 C 0.75399 0.2847 0.00946 0.0
C237 C 0.70515 0.29259 0.03176 0.0
C238 C 0.70559 0.31427 0.05864 0.0
C239 C 0.65922 0.32175 0.07959 0.0
C240 C 0.61243 0.3075 0.07408 0.0
C241 C 0.61201 0.28565 0.04767 0.0
C242 C 0.65825 0.27811 0.02662 0.0
C243 C 0.97347 0.15865 -0.01001 0.0
C244 C 0.94679 0.13296 -0.0095 0.0
C245 C 0.94043 0.19177 -0.00991 0.0
C246 C 0.87699 0.20278 -0.00969 0.0
C247 C 0.85041 0.17699 -0.00872 0.0
C248 C 0.88355 0.14378 -0.00874 0.0
C249 C 0.83964 0.23983 -0.00999 0.0
C250 C 0.78805 0.2516 0.00796 0.0
C251 C 0.85382 0.26469 0.9725 0.0
C252 C 0.90288 0.25684 0.95035 0.0
C253 C 0.90274 0.23518 0.92344 0.0
C254 C 0.94932 0.22775 0.90264 0.0
C255 C 0.99604 0.24205 0.90834 0.0
C256 C 0.99616 0.26388 0.93479 0.0
C257 C 0.94971 0.27136 0.95569 0.0
H258 H 1.03207 0.23627 0.89222 0.0
H259 H 0.57656 0.31333 0.09031 0.0
H260 H 0.08531 0.23041 0.50921 0.0
H261 H 0.14968 0.26584 0.51557 0.0
H262 H 0.19707 0.24341 0.4137 0.0
H263 H 0.1336 0.20703 0.40763 0.0
H264 H 0.29175 0.23405 0.45469 0.0
H265 H 0.11962 0.32023 0.43799 0.0
H266 H 1.01912 0.35416 0.44494 0.0
H267 H 0.07011 0.36834 0.5498 0.0
H268 H 0.17068 0.33413 0.5436 0.0
H269 H 0.4696 0.34091 0.45897 0.0
H270 H 0.39351 0.31253 0.44694 0.0
H271 H 0.35052 0.32627 0.55039 0.0
H272 H 0.4259 0.35567 0.56228 0.0
H273 H 0.25356 0.34056 0.50749 0.0
H274 H 0.42878 0.25369 0.5203 0.0
H275 H 0.53091 0.22556 0.50853 0.0
H276 H 0.47206 0.217 0.40378 0.0
H277 H 0.36969 0.24551 0.41481 0.0
C278 C 0.10805 0.23379 0.48782 0.0
C279 C 0.10491 0.21602 0.45798 0.0
C280 C 0.14467 0.25413 0.49143 0.0
C281 C 0.1779 0.25739 0.46503 0.0
C282 C 0.17183 0.24113 0.43438 0.0
C283 C 0.13574 0.22043 0.43093 0.0
C284 C 0.22468 0.27421 0.47122 0.0
C285 C 0.28303 0.25771 0.4654 0.0
C286 C 0.21364 0.30464 0.48619 0.0
C287 C 0.15257 0.32437 0.49037 0.0
C288 C 0.10921 0.33028 0.46262 0.0
C289 C 1.05227 0.34965 0.46641 0.0
C290 C 1.0382 0.36335 0.49781 0.0
C291 C 0.08102 0.35767 0.52551 0.0
C292 C 0.138 0.33828 0.52187 0.0
C293 C 0.4447 0.3373 0.47929 0.0
C294 C 0.45378 0.35002 0.51163 0.0
C295 C 0.40129 0.32115 0.4724 0.0
C296 C 0.36721 0.3169 0.49794 0.0
C297 C 0.37671 0.32925 0.53043 0.0
C298 C 0.41967 0.34585 0.53722 0.0
C299 C 0.31977 0.30081 0.49014 0.0
C300 C 0.26165 0.31722 0.49612 0.0
C301 C 0.33079 0.27065 0.47463 0.0
C302 C 0.39168 0.25201 0.46833 0.0
C303 C 0.43764 0.24588 0.49474 0.0
C304 C 0.49558 0.22992 0.48819 0.0
C305 C 0.50801 0.21977 0.45537 0.0
C306 C 0.46238 0.22505 0.42914 0.0
C307 C 0.40437 0.24106 0.43554 0.0
H308 H 0.55301 0.20773 0.4503 0.0
H309 H 0.99415 0.37842 0.50066 0.0
H310 H 1.04187 0.80126 0.47381 0.0
H311 H 0.98047 0.76481 0.45802 0.0
H312 H 0.82835 0.84372 0.43473 0.0
H313 H 0.88856 0.88011 0.45144 0.0
H314 H 0.80639 0.80229 0.47684 0.0
H315 H 0.89696 0.79836 0.37226 0.0
H316 H 0.98154 0.78986 0.33765 0.0
H317 H 1.04481 0.69405 0.37082 0.0
H318 H 0.96102 0.70212 0.40602 0.0
H319 H 0.59917 0.72396 0.41488 0.0
H320 H 0.66686 0.75697 0.41081 0.0
H321 H 0.81704 0.6765 0.4312 0.0
H322 H 0.74974 0.643 0.43409 0.0
H323 H 0.84242 0.7175 0.38941 0.0
H324 H 0.76037 0.7201 0.49523 0.0
H325 H 0.68102 0.72649 0.53322 0.0
H326 H 0.60845 0.82254 0.50227 0.0
H327 H 0.68681 0.81653 0.46359 0.0
C328 C 0.99536 0.81074 0.46526 0.0
C329 C 0.96993 0.84345 0.46378 0.0
C330 C 0.96061 0.78996 0.45594 0.0
C331 C 0.9002 0.80171 0.44494 0.0
C332 C 0.87505 0.8343 0.44297 0.0
C333 C 0.90958 0.85501 0.45231 0.0
C334 C 0.86171 0.78028 0.43787 0.0
C335 C 0.81362 0.78411 0.45731 0.0
C336 C 0.87289 0.75585 0.41333 0.0
C337 C 0.92301 0.75094 0.392 0.0
C338 C 0.92916 0.77556 0.37238 0.0
C339 C 0.97691 0.7708 0.35262 0.0
C340 C 1.0186 0.74146 0.3521 0.0
C341 C 1.01252 0.71678 0.37127 0.0
C342 C 0.96488 0.72142 0.3911 0.0
C343 C 0.6466 0.71306 0.41729 0.0
C344 C 0.66931 0.6811 0.42548 0.0
C345 C 0.68515 0.73197 0.41518 0.0
C346 C 0.74669 0.7192 0.42163 0.0
C347 C 0.76962 0.68674 0.42656 0.0
C348 C 0.73114 0.66776 0.42849 0.0
C349 C 0.78624 0.74018 0.42774 0.0
C350 C 0.83485 0.73598 0.40858 0.0
C351 C 0.77627 0.76406 0.45297 0.0
C352 C 0.72903 0.76774 0.4762 0.0
C353 C 0.72717 0.74249 0.49627 0.0
C354 C 0.68241 0.74605 0.51796 0.0
C355 C 0.63961 0.77487 0.52007 0.0
C356 C 0.64154 0.80021 0.50054 0.0
C357 C 0.68611 0.79673 0.47872 0.0
H358 H 0.60504 0.7776 0.53692 0.0
H359 H 0.05554 0.73782 0.33679 0.0
H360 H 0.25713 0.09301 0.85077 0.0
H361 H 0.31963 0.10035 0.80751 0.0
H362 H 0.4592 1.0213 0.84778 0.0
H363 H 0.39623 1.01302 0.88882 0.0
H364 H 0.40661 0.12053 0.81941 0.0
H365 H 0.56298 0.98977 0.80877 0.0
H366 H 0.55115 0.93854 0.78712 0.0
H367 H 0.38729 0.9845 0.73069 0.0
H368 H 0.39825 0.03631 0.75135 0.0
H369 H 0.65286 0.08919 0.91653 0.0
H370 H 0.565 0.10329 0.87722 0.0
H371 H 0.66677 0.05715 0.79607 0.0
H372 H 0.75462 0.04104 0.83656 0.0
H373 H 0.58279 0.03594 0.79195 0.0
H374 H 0.57197 0.13985 0.78953 0.0
H375 H 0.58287 0.19282 0.80529 0.0
H376 H 0.45462 0.20284 0.8775 0.0
H377 H 0.44362 0.1498 0.86279 0.0
C378 C 0.30034 0.07652 0.84929 0.0
C379 C 0.32265 0.05296 0.87364 0.0
C380 C 0.33606 0.08072 0.82458 0.0
C381 C 0.39447 0.06144 0.824 0.0
C382 C 0.41413 0.03618 0.8466 0.0
C383 C 0.37847 0.03183 0.87083 0.0
C384 C 0.43973 0.07133 0.80655 0.0
C385 C 0.44493 0.10218 0.81279 0.0
C386 C 0.48814 0.04851 0.7942 0.0
C387 C 0.48183 1.0172 0.78139 0.0
C388 C 0.5248 0.98918 0.79128 0.0
C389 C 0.51806 0.95994 0.77931 0.0
C390 C 0.46852 0.95829 0.75744 0.0
C391 C 0.42556 0.98587 0.74757 0.0
C392 C 0.43199 1.0152 0.75945 0.0
C393 C 0.65702 0.08291 0.89012 0.0
C394 C 0.71039 0.06384 0.87964 0.0
C395 C 0.60663 0.09141 0.86729 0.0
C396 C 0.60869 0.08175 0.83317 0.0
C397 C 0.66358 0.06492 0.82213 0.0
C398 C 0.71379 0.05567 0.84527 0.0
C399 C 0.5518 0.08299 0.81221 0.0
C400 C 0.54421 0.05465 0.79741 0.0
C401 C 0.50091 0.10845 0.8155 0.0
C402 C 0.50651 0.14074 0.82466 0.0
C403 C 0.54609 0.15328 0.80881 0.0
C404 C 0.55235 0.18336 0.81762 0.0
C405 C 0.5193 0.20123 0.84229 0.0
C406 C 0.47994 0.18904 0.85824 0.0
C407 C 0.47348 0.15898 0.84955 0.0
H408 H 0.52428 0.22449 0.84911 0.0
H409 H 0.46334 0.93563 0.74821 0.0
H410 H 0.30884 0.97593 0.50215 0.0
H411 H 0.41343 0.97465 0.50073 0.0
H412 H 0.3651 0.07435 0.48684 0.0
H413 H 0.25922 0.07527 0.48685 0.0
H414 H 0.47069 0.06963 0.47297 0.0
H415 H 0.48641 0.99727 0.56501 0.0
H416 H 0.4736 0.95031 0.59214 0.0
H417 H 0.5539 0.8915 0.51172 0.0
H418 H 0.56686 0.93818 0.4841 0.0
H419 H 0.7946 0.0736 0.48799 0.0
H420 H 0.69014 0.07453 0.4893 0.0
H421 H 0.73871 0.97427 0.4982 0.0
H422 H 0.84446 0.97359 0.49795 0.0
H423 H 0.6333 0.9792 0.51481 0.0
H424 H 0.615 0.05331 0.42242 0.0
H425 H 0.62958 0.10093 0.39751 0.0
H426 H 0.55622 0.15669 0.48165 0.0
H427 H 0.54083 0.10952 0.50674 0.0
C428 C 0.31824 0.99835 0.49891 0.0
C429 C 0.26682 0.02575 0.4949 0.0
C430 C 0.38264 0.99771 0.49853 0.0
C431 C 0.40756 1.02449 0.49471 0.0
C432 C 0.35584 0.05195 0.49036 0.0
C433 C 0.29114 0.05255 0.49042 0.0
C434 C 0.48206 1.02403 0.49467 0.0
C435 C 0.5045 0.04919 0.48269 0.0
C436 C 0.53542 0.99902 0.5063 0.0
C437 C 0.52683 0.97116 0.52234 0.0
C438 C 0.50103 0.97432 0.55309 0.0
C439 C 0.4938 0.94777 0.56854 0.0
C440 C 0.51271 0.91796 0.55359 0.0
C441 C 0.53907 0.91462 0.5232 0.0
C442 C 0.54635 0.94109 0.50764 0.0
C443 C 0.78528 0.05099 0.49008 0.0
C444 C 0.83671 1.02351 0.49262 0.0
C445 C 0.72097 0.05144 0.49042 0.0
C446 C 0.6962 1.02441 0.49293 0.0
C447 C 0.74791 0.99686 0.49583 0.0
C448 C 0.81251 0.99641 0.49564 0.0
C449 C 0.62179 1.02473 0.493 0.0
C450 C 0.5994 0.99956 0.50499 0.0
C451 C 0.56847 0.04978 0.48157 0.0
C452 C 0.57729 0.07799 0.46652 0.0
C453 C 0.60198 0.07579 0.4355 0.0
C454 C 0.61028 0.10269 0.42133 0.0
C455 C 0.59382 0.13186 0.43795 0.0
C456 C 0.56879 0.13419 0.46869 0.0
C457 C 0.56017 0.1074 0.48288 0.0
H458 H 0.60048 0.15262 0.42699 0.0
H459 H 0.5071 0.89744 0.56559 0.0
H460 H 0.95761 0.46472 0.06565 0.0
H461 H 1.04443 0.45258 0.1059 0.0
H462 H 0.93767 0.49746 0.18559 0.0
H463 H 0.8502 0.51098 0.14426 0.0
H464 H 1.0208 0.52068 0.18988 0.0
H465 H 1.03513 0.41644 0.19452 0.0
H466 H 1.02649 0.36289 0.1797 0.0
H467 H 0.15633 0.35279 0.10842 0.0
H468 H 0.16511 0.40639 0.12221 0.0
H469 H 0.34794 0.46582 0.13367 0.0
H470 H 0.28572 0.4587 0.17716 0.0
H471 H 0.14308 0.53489 0.13407 0.0
H472 H 0.20548 0.54272 0.09232 0.0
H473 H 0.20002 0.43677 0.16529 0.0
H474 H 1.04021 0.5673 0.1741 0.0
H475 H 1.0514 0.6187 0.19566 0.0
H476 H 0.21555 0.57323 0.25242 0.0
H477 H 0.205 0.52134 0.2318 0.0
C478 C 0.95217 0.47107 0.09194 0.0
C479 C 0.89746 0.48906 0.10178 0.0
C480 C 1.00196 0.46375 0.11528 0.0
C481 C 0.99808 0.47365 0.14926 0.0
C482 C 0.94213 0.48951 0.15965 0.0
C483 C 0.89226 0.49734 0.13604 0.0
C484 C 0.05392 0.47334 0.17082 0.0
C485 C 0.06008 0.50213 0.18514 0.0
C486 C 0.10554 0.44814 0.16844 0.0
C487 C 0.10122 0.41554 0.15979 0.0
C488 C 0.06184 0.40287 0.17564 0.0
C489 C 0.05686 0.37246 0.16737 0.0
C490 C 0.091 0.35441 0.14323 0.0
C491 C 0.13016 0.36674 0.12727 0.0
C492 C 0.13535 0.39713 0.13544 0.0
C493 C 0.30403 0.48176 0.13451 0.0
C494 C 0.28078 0.50433 0.10922 0.0
C495 C 0.26851 0.47769 0.15937 0.0
C496 C 0.20945 0.4962 0.15924 0.0
C497 C 0.18866 0.52062 0.13566 0.0
C498 C 0.22401 0.52474 0.11113 0.0
C499 C 0.16497 0.48606 0.17706 0.0
C500 C 0.16105 0.45495 0.17138 0.0
C501 C 0.11581 0.50871 0.18883 0.0
C502 C 0.12146 0.54016 0.2016 0.0
C503 C 0.07827 0.56805 0.19162 0.0
C504 C 0.08466 0.59737 0.20355 0.0
C505 C 0.13406 0.59923 0.22546 0.0
C506 C 0.17726 0.57176 0.23546 0.0
C507 C 0.17112 0.54237 0.22362 0.0
H508 H 0.13892 0.62197 0.23463 0.0
H509 H 0.08702 0.33089 0.13683 0.0
H510 H 0.34766 0.47424 0.50206 0.0
H511 H 0.24312 0.4743 0.50301 0.0
H512 H 0.18875 0.57133 0.47542 0.0
H513 H 0.29393 0.57135 0.47538 0.0
H514 H 0.08533 0.57325 0.49198 0.0
H515 H 0.15965 0.47578 0.43199 0.0
H516 H 0.22512 0.4227 0.42244 0.0
H517 H 0.18738 0.3925 0.51713 0.0
H518 H 0.12156 0.4453 0.52707 0.0
H519 H 0.75743 0.57324 0.47325 0.0
H520 H 0.86177 0.57334 0.47172 0.0
H521 H 0.91747 0.47773 0.50433 0.0
H522 H 0.81248 0.47743 0.50473 0.0
H523 H 1.02 0.47542 0.48497 0.0
H524 H 0.93877 0.57575 0.54164 0.0
H525 H 0.872 0.62926 0.54677 0.0
H526 H 0.92308 0.65506 0.45354 0.0
H527 H 0.98908 0.60154 0.44754 0.0
C528 C 0.31494 0.49622 0.4958 0.0
C529 C 0.33801 0.52274 0.48843 0.0
C530 C 0.25064 0.49624 0.49595 0.0
C531 C 0.19786 0.52269 0.48843 0.0
C532 C 0.22127 0.54925 0.48142 0.0
C533 C 0.28555 0.54925 0.48135 0.0
C534 C 0.12337 0.52306 0.48828 0.0
C535 C 0.07343 0.55106 0.49016 0.0
C536 C 0.09694 0.49608 0.4861 0.0
C537 C 0.13644 0.4645 0.48045 0.0
C538 C 0.16552 0.45778 0.45077 0.0
C539 C 0.20255 0.42774 0.44525 0.0
C540 C 0.21049 0.40421 0.46914 0.0
C541 C 0.1812 0.41065 0.49857 0.0
C542 C 0.14398 0.44063 0.50417 0.0
C543 C 0.79042 0.55163 0.48054 0.0
C544 C 0.76782 0.52537 0.4894 0.0
C545 C 0.85457 0.55175 0.4801 0.0
C546 C 0.9076 0.52579 0.48887 0.0
C547 C 0.88467 0.49947 0.49731 0.0
C548 C 0.82053 0.49929 0.49761 0.0
C549 C 0.98195 0.5256 0.48892 0.0
C550 C 1.03189 0.49762 0.48698 0.0
C551 C 1.00821 0.55267 0.49058 0.0
C552 C 0.96816 0.58458 0.49393 0.0
C553 C 0.93538 0.5928 0.52215 0.0
C554 C 0.8976 0.62311 0.52517 0.0
C555 C 0.89293 0.64549 0.50037 0.0
C556 C 0.92626 0.63764 0.47257 0.0
C557 C 0.96376 0.60732 0.46932 0.0
H558 H 0.86369 0.66894 0.50274 0.0
H559 H 0.23932 0.38103 0.46478 0.0
H560 H 0.14696 0.98668 0.38522 0.0
H561 H 0.14113 0.99038 0.32398 0.0
H562 H 0.95492 0.03896 0.32202 0.0
H563 H 0.96133 0.03611 0.384 0.0
H564 H 0.09106 0.9683 0.27349 0.0
H565 H 0.91017 0.08599 0.25251 0.0
H566 H 0.87102 0.13603 0.2829 0.0
H567 H 1.03922 0.12405 0.34171 0.0
H568 H 0.07958 0.0742 0.31135 0.0
H569 H 1.02719 0.98556 0.09362 0.0
H570 H 1.01906 0.98131 0.15432 0.0
H571 H 0.08093 0.06478 0.174 0.0
H572 H 0.08665 0.06969 0.11375 0.0
H573 H 1.00258 0.06883 0.2134 0.0
H574 H 0.17031 0.98373 0.18952 0.0
H575 H 0.2239 0.93543 0.16073 0.0
H576 H 0.10631 0.88532 0.19414 0.0
H577 H 1.05156 0.93346 0.2228 0.0
C578 C 0.1046 0.99826 0.37188 0.0
C579 C 0.05465 1.01115 0.38987 0.0
C580 C 0.10124 1.00024 0.33654 0.0
C581 C 1.04772 1.01514 0.31764 0.0
C582 C 0.99729 0.02778 0.33555 0.0
C583 C 1.00081 0.02602 0.37116 0.0
C584 C 1.04572 1.01739 0.27952 0.0
C585 C 0.07129 0.99034 0.26049 0.0
C586 C 1.02116 0.04605 0.26186 0.0
C587 C 0.99759 0.07619 0.27993 0.0
C588 C 0.93882 0.09411 0.27185 0.0
C589 C 0.91643 0.12243 0.28907 0.0
C590 C 0.95254 0.13315 0.31431 0.0
C591 C 1.01122 0.11566 0.32225 0.0
C592 C 1.03386 0.08737 0.30506 0.0
C593 C 1.03895 1.00301 0.11092 0.0
C594 C 0.05789 0.02788 0.09851 0.0
C595 C 1.03464 1.0005 0.14586 0.0
C596 C 1.05011 1.02247 0.16955 0.0
C597 C 0.0684 0.04743 0.15687 0.0
C598 C 0.07202 0.05012 0.12211 0.0
C599 C 1.04802 1.01973 0.20734 0.0
C600 C 1.02174 0.04669 0.22633 0.0
C601 C 0.07366 0.99122 0.22513 0.0
C602 C 0.10645 0.96227 0.20796 0.0
C603 C 0.15564 0.96246 0.19052 0.0
C604 C 0.18625 0.93511 0.17426 0.0
C605 C 0.1684 0.90735 0.17551 0.0
C606 C 0.12 0.90686 0.19313 0.0
C607 C 0.08918 0.93416 0.2094 0.0
H608 H 0.19216 0.8862 0.16291 0.0
H609 H 0.93509 0.15505 0.32764 0.0
H610 H 1.03087 0.0735 0.88861 0.0
H611 H 1.03402 0.07853 0.82739 0.0
H612 H 0.09057 0.97743 0.81706 0.0
H613 H 0.08568 0.97229 0.87777 0.0
H614 H 0.1553 1.01363 0.77903 0.0
H615 H 0.95515 1.00872 0.79742 0.0
H616 H 0.86132 0.02791 0.82397 0.0
H617 H 0.83356 0.11893 0.7802 0.0
H618 H 0.92803 0.10044 0.75401 0.0
H619 H 0.11435 0.99387 0.60005 0.0
H620 H 0.11931 0.9905 0.66168 0.0
H621 H 0.99079 0.08111 0.66507 0.0
H622 H 0.98258 0.08309 0.60354 0.0
H623 H 0.96442 0.05184 0.70844 0.0
H624 H 0.15572 0.06383 0.69226 0.0
H625 H 0.25131 0.05192 0.66707 0.0
H626 H 0.29876 0.95851 0.70735 0.0
H627 H 0.20328 0.96984 0.73268 0.0
C628 C 1.04442 0.05236 0.87333 0.0
C629 C 0.05774 1.02247 0.88823 0.0
C630 C 1.04617 0.05525 0.83825 0.0
C631 C 0.0625 0.02834 0.81728 0.0
C632 C 0.07798 0.99858 0.83243 0.0
C633 C 0.07496 0.99568 0.86725 0.0
C634 C 0.0605 0.03094 0.77946 0.0
C635 C 0.11352 1.02174 0.76354 0.0
C636 C 1.00646 0.04252 0.75903 0.0
C637 C 0.94896 0.05329 0.77406 0.0
C638 C 0.92927 0.03289 0.79367 0.0
C639 C 0.87591 0.04364 0.80863 0.0
C640 C 0.84152 0.07466 0.80383 0.0
C641 C 0.86029 0.09493 0.78394 0.0
C642 C 0.91374 0.08433 0.76904 0.0
C643 C 0.08744 1.01311 0.61402 0.0
C644 C 1.04833 0.03882 0.59668 0.0
C645 C 0.09057 1.01136 0.64956 0.0
C646 C 0.05639 0.03587 0.66903 0.0
C647 C 1.01774 0.06165 0.6514 0.0
C648 C 1.01331 0.06291 0.61593 0.0
C649 C 0.05953 0.03456 0.70737 0.0
C650 C 1.00657 0.0439 0.72358 0.0
C651 C 0.11392 1.02419 0.72818 0.0
C652 C 0.17216 1.01757 0.71404 0.0
C653 C 0.18653 0.04073 0.69568 0.0
C654 C 0.24065 0.03409 0.68138 0.0
C655 C 0.28089 1.00442 0.68543 0.0
C656 C 0.2674 0.98144 0.70413 0.0
C657 C 0.21339 0.98799 0.71856 0.0
H658 H 0.32265 0.99928 0.67418 0.0
H659 H 0.80032 0.08303 0.81548 0.0
H660 H 0.65643 0.49014 0.3828 0.0
H661 H 0.65094 0.49384 0.32142 0.0
H662 H 0.46141 0.53409 0.31824 0.0
H663 H 0.46735 0.53144 0.38009 0.0
H664 H 0.6069 0.46928 0.27047 0.0
H665 H 0.40897 0.58037 0.24958 0.0
H666 H 0.36267 0.62924 0.28006 0.0
H667 H 0.529 0.62495 0.33832 0.0
H668 H 0.57646 0.57635 0.30783 0.0
H669 H 0.53904 0.48253 0.09129 0.0
H670 H 0.53282 0.47823 0.15204 0.0
H671 H 0.57223 0.56819 0.16926 0.0
H672 H 0.57431 0.57339 0.10869 0.0
H673 H 0.49984 0.56738 0.21005 0.0
H674 H 0.67817 0.4898 0.18562 0.0
H675 H 0.73804 0.44363 0.15626 0.0
H676 H 0.63502 0.38574 0.19084 0.0
H677 H 0.57413 0.43168 0.22012 0.0
C678 C 0.61348 0.49993 0.36911 0.0
C679 C 0.56239 0.51062 0.38667 0.0
C680 C 0.61031 0.50189 0.33373 0.0
C681 C 0.55586 0.51452 0.31448 0.0
C682 C 0.50443 0.52482 0.33203 0.0
C683 C 0.50773 0.52317 0.36758 0.0
C684 C 0.55357 0.51695 0.27638 0.0
C685 C 0.5832 0.49079 0.2574 0.0
C686 C 0.5239 0.545 0.25864 0.0
C687 C 0.49602 0.57453 0.27668 0.0
C688 C 0.43569 0.58994 0.26879 0.0
C689 C 0.40925 0.61758 0.28608 0.0
C690 C 0.44283 0.63013 0.31119 0.0
C691 C 0.503 0.61515 0.31894 0.0
C692 C 0.52967 0.58756 0.30167 0.0
C693 C 0.54567 0.50155 0.10799 0.0
C694 C 0.55689 0.52839 0.09476 0.0
C695 C 0.54285 0.49894 0.14303 0.0
C696 C 0.55305 0.52262 0.16611 0.0
C697 C 0.5639 0.54946 0.15264 0.0
C698 C 0.56546 0.55235 0.1177 0.0
C699 C 0.55321 0.5197 0.20406 0.0
C700 C 0.52318 0.54578 0.22305 0.0
C701 C 0.58433 0.49194 0.22197 0.0
C702 C 0.62126 0.46422 0.20476 0.0
C703 C 0.66814 0.46725 0.18682 0.0
C704 C 0.70225 0.44112 0.17021 0.0
C705 C 0.69023 0.41179 0.1716 0.0
C706 C 0.64422 0.40849 0.18974 0.0
C707 C 0.60993 0.43455 0.20637 0.0
H708 H 0.71663 0.3916 0.15869 0.0
H709 H 0.42225 0.65149 0.32459 0.0
H710 H 0.45211 0.56508 0.59595 0.0
H711 H 0.457 0.5623 0.65736 0.0
H712 H 0.63872 0.50612 0.65984 0.0
H713 H 0.63413 0.50939 0.59799 0.0
H714 H 0.46917 0.51803 0.69954 0.0
H715 H 0.71481 0.51615 0.7366 0.0
H716 H 0.79396 0.53543 0.71534 0.0
H717 H 0.66248 0.61015 0.66343 0.0
H718 H 0.58262 0.59155 0.68473 0.0
H719 H 0.54028 0.47376 0.87072 0.0
H720 H 0.54338 0.47813 0.81004 0.0
H721 H 0.56002 0.57305 0.82455 0.0
H722 H 0.55792 0.5685 0.88593 0.0
H723 H 0.62916 0.54442 0.77677 0.0
H724 H 0.42526 0.55676 0.7943 0.0
H725 H 0.34037 0.54271 0.81543 0.0
H726 H 0.37835 0.45633 0.75776 0.0
H727 H 0.46398 0.46967 0.73663 0.0
C728 C 0.49334 0.55219 0.60947 0.0
C729 C 0.54282 0.53761 0.59174 0.0
C730 C 0.49603 0.5505 0.64484 0.0
C731 C 0.54837 0.53424 0.66394 0.0
C732 C 0.59791 0.51935 0.64622 0.0
C733 C 0.59522 0.52107 0.61066 0.0
C734 C 0.55007 0.53273 0.70206 0.0
C735 C 0.50448 0.5237 0.71625 0.0
C736 C 0.59516 0.54062 0.72457 0.0
C737 C 0.64279 0.55223 0.71198 0.0
C738 C 0.70283 0.53675 0.72075 0.0
C739 C 0.7478 0.54755 0.70868 0.0
C740 C 0.73325 0.57393 0.68796 0.0
C741 C 0.67369 0.58964 0.67937 0.0
C742 C 0.62856 0.57896 0.69141 0.0
C743 C 0.54473 0.49564 0.86116 0.0
C744 C 0.54833 0.52086 0.88351 0.0
C745 C 0.54626 0.49816 0.82617 0.0
C746 C 0.55086 0.52614 0.81204 0.0
C747 C 0.55619 0.55116 0.83441 0.0
C748 C 0.55483 0.5486 0.86963 0.0
C749 C 0.5488 0.5292 0.77408 0.0
C750 C 0.59415 0.53856 0.75998 0.0
C751 C 0.50291 0.52213 0.75156 0.0
C752 C 0.45135 0.51409 0.76413 0.0
C753 C 0.41575 0.53466 0.78631 0.0
C754 C 0.36747 0.52684 0.79826 0.0
C755 C 0.35406 0.49861 0.78801 0.0
C756 C 0.38883 0.47817 0.76572 0.0
C757 C 0.43721 0.48586 0.75372 0.0
H758 H 0.31666 0.4926 0.79729 0.0
H759 H 0.76813 0.58223 0.67861 0.0
loop_
_geom_bond_atom_site_label_1
_geom_bond_atom_site_label_2
_geom_bond_distance
_geom_bond_site_symmetry_2
_ccdc_geom_bond_type
Sm0 C2 2.846 . S
Sm0 O20 2.543 1_566 S
Sm0 O21 2.450 . S
Sm0 O22 2.681 1_655 S
Sm0 O23 2.464 . S
Sm0 O24 2.396 1_565 S
Sm0 O28 2.386 1_566 S
Sm0 O31 2.408 1_655 S
Sm1 C11 2.846 . S
Sm1 O22 2.386 1_544 S
Sm1 O25 2.408 1_455 S
Sm1 O26 2.543 1_544 S
Sm1 O27 2.450 . S
Sm1 O28 2.681 1_455 S
Sm1 O29 2.464 . S
Sm1 O30 2.396 1_545 S
C2 Sm0 2.846 . S
C2 C3 1.506 1_565 S
C2 O20 1.261 1_566 S
C2 O21 1.242 . S
C3 C2 1.506 1_545 S
C3 C4 1.358 1_556 S
C3 C8 1.382 . S
C4 C3 1.358 1_554 S
C4 C5 1.385 . S
C4 H32 0.930 . S
C5 C4 1.385 . S
C5 C6 1.395 1_554 S
C5 H33 0.929 . S
C6 C5 1.395 1_556 S
C6 C7 1.335 . S
C7 C6 1.335 . S
C7 C8 1.398 . S
C7 H34 0.930 . S
C8 C3 1.382 . S
C8 C7 1.398 . S
C8 H35 0.929 1_545 S
C9 O22 1.271 1_655 S
C9 O23 1.251 . S
C10 O24 1.252 . S
C10 O25 1.272 1_556 S
C11 Sm1 2.846 . S
C11 C12 1.506 1_545 S
C11 O26 1.261 1_544 S
C11 O27 1.242 . S
C12 C11 1.506 1_565 S
C12 C13 1.358 1_554 S
C12 C17 1.382 . S
C13 C12 1.358 1_556 S
C13 C14 1.385 . S
C13 H36 0.930 . S
C14 C13 1.385 . S
C14 C15 1.395 1_556 S
C14 H37 0.929 . S
C15 C14 1.395 1_554 S
C15 C16 1.335 . S
C16 C15 1.335 . S
C16 C17 1.398 . S
C16 H38 0.930 . S
C17 C12 1.382 . S
C17 C16 1.398 . S
C17 H39 0.929 1_565 S
C18 O28 1.271 1_455 S
C18 O29 1.251 . S
C19 O30 1.252 . S
C19 O31 1.272 1_554 S
O20 Sm0 2.543 1_544 S
O20 C2 1.261 1_544 S
O21 Sm0 2.450 . S
O21 C2 1.242 . S
O22 Sm0 2.681 1_455 S
O22 Sm1 2.386 1_566 S
O22 C9 1.271 1_455 S
O23 Sm0 2.464 . S
O23 C9 1.251 . S
O24 Sm0 2.396 1_545 S
O24 C10 1.252 . S
O25 Sm1 2.408 1_655 S
O25 C10 1.272 1_554 S
O26 Sm1 2.543 1_566 S
O26 C11 1.261 1_566 S
O27 Sm1 2.450 . S
O27 C11 1.242 . S
O28 Sm0 2.386 1_544 S
O28 Sm1 2.681 1_655 S
O28 C18 1.271 1_655 S
O29 Sm1 2.464 . S
O29 C18 1.251 . S
O30 Sm1 2.396 1_565 S
O30 C19 1.252 . S
O31 Sm0 2.408 1_455 S
O31 C19 1.272 1_556 S
H32 C4 0.930 . S
H33 C5 0.929 . S
H34 C7 0.930 . S
H35 C8 0.929 1_565 S
H36 C13 0.930 . S
H37 C14 0.929 . S
H38 C16 0.930 . S
H39 C17 0.929 1_545 S
Sm40 C42 2.846 1_455 S
Sm40 O60 2.543 1_455 S
Sm40 O61 2.450 1_455 S
Sm40 O62 2.681 1_565 S
Sm40 O63 2.464 . S
Sm40 O64 2.396 1_455 S
Sm40 O68 2.386 1_455 S
Sm40 O71 2.408 . S
Sm41 C51 2.846 1_655 S
Sm41 O62 2.386 1_655 S
Sm41 O65 2.408 . S
Sm41 O66 2.543 1_655 S
Sm41 O67 2.450 1_655 S
Sm41 O68 2.681 1_545 S
Sm41 O69 2.464 . S
Sm41 O70 2.396 1_655 S
C42 Sm40 2.846 1_655 S
C42 C43 1.506 . S
C42 O60 1.261 . S
C42 O61 1.242 . S
C43 C42 1.506 . S
C43 C44 1.358 . S
C43 C48 1.382 . S
C44 C43 1.358 . S
C44 C45 1.385 . S
C44 H72 0.930 . S
C45 C44 1.385 . S
C45 C46 1.395 . S
C45 H73 0.929 . S
C46 C45 1.395 . S
C46 C47 1.335 . S
C47 C46 1.335 . S
C47 C48 1.398 . S
C47 H74 0.930 . S
C48 C43 1.382 . S
C48 C47 1.398 . S
C48 H75 0.929 . S
C49 O62 1.271 1_565 S
C49 O63 1.251 . S
C50 O64 1.252 1_545 S
C50 O65 1.272 . S
C51 Sm41 2.846 1_455 S
C51 C52 1.506 . S
C51 O66 1.261 . S
C51 O67 1.242 . S
C52 C51 1.506 . S
C52 C53 1.358 . S
C52 C57 1.382 . S
C53 C52 1.358 . S
C53 C54 1.385 . S
C53 H76 0.930 . S
C54 C53 1.385 . S
C54 C55 1.395 . S
C54 H77 0.929 . S
C55 C54 1.395 . S
C55 C56 1.335 . S
C56 C55 1.335 . S
C56 C57 1.398 . S
C56 H78 0.930 . S
C57 C52 1.382 . S
C57 C56 1.398 . S
C57 H79 0.929 . S
C58 O68 1.274 1_545 S
C58 O69 1.247 . S
C59 O70 1.252 1_565 S
C59 O71 1.272 . S
O60 Sm40 2.543 1_655 S
O60 C42 1.261 . S
O61 Sm40 2.450 1_655 S
O61 C42 1.242 . S
O62 Sm40 2.681 1_545 S
O62 Sm41 2.386 1_455 S
O62 C49 1.271 1_545 S
O63 Sm40 2.464 . S
O63 C49 1.251 . S
O64 Sm40 2.396 1_655 S
O64 C50 1.252 1_565 S
O65 Sm41 2.408 . S
O65 C50 1.272 . S
O66 Sm41 2.543 1_455 S
O66 C51 1.261 . S
O67 Sm41 2.450 1_455 S
O67 C51 1.242 . S
O68 Sm40 2.386 1_655 S
O68 Sm41 2.681 1_565 S
O68 C58 1.274 1_565 S
O69 Sm41 2.464 . S
O69 C58 1.247 . S
O70 Sm41 2.396 1_455 S
O70 C59 1.252 1_545 S
O71 Sm40 2.408 . S
O71 C59 1.272 . S
H72 C44 0.930 . S
H73 C45 0.929 . S
H74 C47 0.930 . S
H75 C48 0.929 . S
H76 C53 0.930 . S
H77 C54 0.929 . S
H78 C56 0.930 . S
H79 C57 0.929 . S
Sm80 C82 2.846 . S
Sm80 O100 2.543 1_556 S
Sm80 O101 2.450 . S
Sm80 O102 2.681 . S
Sm80 O103 2.464 . S
Sm80 O104 2.396 . S
Sm80 O108 2.386 1_556 S
Sm80 O111 2.408 . S
Sm81 C91 2.846 . S
Sm81 O102 2.386 1_554 S
Sm81 O105 2.408 . S
Sm81 O106 2.543 1_554 S
Sm81 O107 2.450 . S
Sm81 O108 2.681 . S
Sm81 O109 2.464 . S
Sm81 O110 2.396 . S
C82 Sm80 2.846 . S
C82 C83 1.506 . S
C82 O100 1.261 1_556 S
C82 O101 1.242 . S
C83 C82 1.506 . S
C83 C84 1.358 1_556 S
C83 C88 1.382 . S
C84 C83 1.358 1_554 S
C84 C85 1.385 . S
C84 H112 0.930 . S
C85 C84 1.385 . S
C85 C86 1.395 1_554 S
C85 H113 0.929 . S
C86 C85 1.395 1_556 S
C86 C87 1.335 . S
C87 C86 1.335 . S
C87 C88 1.398 . S
C87 H114 0.930 . S
C88 C83 1.382 . S
C88 C87 1.398 . S
C88 H115 0.929 . S
C89 O102 1.271 . S
C89 O103 1.251 . S
C90 O104 1.252 . S
C90 O105 1.272 1_556 S
C91 Sm81 2.846 . S
C91 C92 1.506 . S
C91 O106 1.261 1_554 S
C91 O107 1.242 . S
C92 C91 1.506 . S
C92 C93 1.358 1_554 S
C92 C97 1.382 . S
C93 C92 1.358 1_556 S
C93 C94 1.385 . S
C93 H116 0.930 . S
C94 C93 1.385 . S
C94 C95 1.395 1_556 S
C94 H117 0.929 . S
C95 C94 1.395 1_554 S
C95 C96 1.335 . S
C96 C95 1.335 . S
C96 C97 1.398 . S
C96 H118 0.930 . S
C97 C92 1.382 . S
C97 C96 1.398 . S
C97 H119 0.929 . S
C98 O108 1.271 . S
C98 O109 1.251 . S
C99 O110 1.252 . S
C99 O111 1.272 1_554 S
O100 Sm80 2.543 1_554 S
O100 C82 1.261 1_554 S
O101 Sm80 2.450 . S
O101 C82 1.242 . S
O102 Sm80 2.681 . S
O102 Sm81 2.386 1_556 S
O102 C89 1.271 . S
O103 Sm80 2.464 . S
O103 C89 1.251 . S
O104 Sm80 2.396 . S
O104 C90 1.252 . S
O105 Sm81 2.408 . S
O105 C90 1.272 1_554 S
O106 Sm81 2.543 1_556 S
O106 C91 1.261 1_556 S
O107 Sm81 2.450 . S
O107 C91 1.242 . S
O108 Sm80 2.386 1_554 S
O108 Sm81 2.681 . S
O108 C98 1.271 . S
O109 Sm81 2.464 . S
O109 C98 1.251 . S
O110 Sm81 2.396 . S
O110 C99 1.252 . S
O111 Sm80 2.408 . S
O111 C99 1.272 1_556 S
H112 C84 0.930 . S
H113 C85 0.929 . S
H114 C87 0.930 . S
H115 C88 0.929 . S
H116 C93 0.930 . S
H117 C94 0.929 . S
H118 C96 0.930 . S
H119 C97 0.929 . S
Sm120 C122 2.846 . S
Sm120 O140 2.543 . S
Sm120 O141 2.450 . S
Sm120 O142 2.681 . S
Sm120 O143 2.464 . S
Sm120 O144 2.396 . S
Sm120 O148 2.386 . S
Sm120 O151 2.408 . S
Sm121 C131 2.846 . S
Sm121 O142 2.386 . S
Sm121 O145 2.408 . S
Sm121 O146 2.543 . S
Sm121 O147 2.450 . S
Sm121 O148 2.681 . S
Sm121 O149 2.464 . S
Sm121 O150 2.396 . S
C122 Sm120 2.846 . S
C122 C123 1.506 . S
C122 O140 1.261 . S
C122 O141 1.242 . S
C123 C122 1.506 . S
C123 C124 1.358 . S
C123 C128 1.382 . S
C124 C123 1.358 . S
C124 C125 1.385 . S
C124 H152 0.930 . S
C125 C124 1.385 . S
C125 C126 1.395 . S
C125 H153 0.929 . S
C126 C125 1.395 . S
C126 C127 1.335 . S
C127 C126 1.335 . S
C127 C128 1.398 . S
C127 H154 0.930 . S
C128 C123 1.382 . S
C128 C127 1.398 . S
C128 H155 0.929 . S
C129 O142 1.271 . S
C129 O143 1.251 . S
C130 O144 1.252 . S
C130 O145 1.272 . S
C131 Sm121 2.846 . S
C131 C132 1.506 . S
C131 O146 1.261 . S
C131 O147 1.242 . S
C132 C131 1.506 . S
C132 C133 1.358 . S
C132 C137 1.382 . S
C133 C132 1.358 . S
C133 C134 1.385 . S
C133 H156 0.930 . S
C134 C133 1.385 . S
C134 C135 1.395 . S
C134 H157 0.929 . S
C135 C134 1.395 . S
C135 C136 1.335 . S
C136 C135 1.335 . S
C136 C137 1.398 . S
C136 H158 0.930 . S
C137 C132 1.382 . S
C137 C136 1.398 . S
C137 H159 0.929 . S
C138 O148 1.271 . S
C138 O149 1.251 . S
C139 O150 1.252 . S
C139 O151 1.272 . S
O140 Sm120 2.543 . S
O140 C122 1.261 . S
O141 Sm120 2.450 . S
O141 C122 1.242 . S
O142 Sm120 2.681 . S
O142 Sm121 2.386 . S
O142 C129 1.271 . S
O143 Sm120 2.464 . S
O143 C129 1.251 . S
O144 Sm120 2.396 . S
O144 C130 1.252 . S
O145 Sm121 2.408 . S
O145 C130 1.272 . S
O146 Sm121 2.543 . S
O146 C131 1.261 . S
O147 Sm121 2.450 . S
O147 C131 1.242 . S
O148 Sm120 2.386 . S
O148 Sm121 2.681 . S
O148 C138 1.271 . S
O149 Sm121 2.464 . S
O149 C138 1.251 . S
O150 Sm121 2.396 . S
O150 C139 1.252 . S
O151 Sm120 2.408 . S
O151 C139 1.272 . S
H152 C124 0.930 . S
H153 C125 0.929 . S
H154 C127 0.930 . S
H155 C128 0.929 . S
H156 C133 0.930 . S
H157 C134 0.929 . S
H158 C136 0.930 . S
H159 C137 0.929 . S
H160 C178 0.951 . S
H161 C180 0.951 . S
H162 C182 0.950 . S
H163 C183 0.950 . S
H164 C185 0.950 . S
H165 C188 0.950 1_554 S
H166 C189 0.950 . S
H167 C191 0.950 . S
H168 C192 0.950 . S
H169 C193 0.951 . S
H170 C195 0.951 . S
H171 C197 0.950 . S
H172 C198 0.950 . S
H173 C200 0.950 . S
H174 C203 0.950 1_556 S
H175 C204 0.950 . S
H176 C206 0.950 . S
H177 C207 0.950 . S
C178 H160 0.951 . S
C178 C179 1.366 1_556 S
C178 C180 1.388 . S
C179 C178 1.366 1_554 S
C179 C183 1.385 . S
C180 H161 0.951 . S
C180 C178 1.388 . S
C180 C181 1.366 1_556 S
C181 C180 1.366 1_554 S
C181 C182 1.414 . S
C181 C184 1.499 . S
C182 H162 0.950 . S
C182 C181 1.414 . S
C182 C183 1.374 . S
C183 H163 0.950 . S
C183 C179 1.385 . S
C183 C182 1.374 . S
C184 C181 1.499 . S
C184 C185 1.373 . S
C184 C186 1.389 1_554 S
C185 H164 0.950 . S
C185 C184 1.373 . S
C185 C201 1.377 . S
C186 C184 1.389 1_556 S
C186 C187 1.524 . S
C186 C200 1.377 . S
C187 C186 1.524 . S
C187 C188 1.397 . S
C187 C192 1.363 . S
C188 H165 0.950 1_556 S
C188 C187 1.397 . S
C188 C189 1.334 . S
C189 H166 0.950 . S
C189 C188 1.334 . S
C189 C190 1.287 . S
C190 C189 1.287 . S
C190 C191 1.524 . S
C190 H209 0.913 . S
C191 H167 0.950 . S
C191 C190 1.524 . S
C191 C192 1.415 . S
C192 H168 0.950 . S
C192 C187 1.363 . S
C192 C191 1.415 . S
C193 H169 0.951 . S
C193 C194 1.337 1_554 S
C193 C195 1.388 . S
C194 C193 1.337 1_556 S
C194 C198 1.414 . S
C195 H170 0.951 . S
C195 C193 1.388 . S
C195 C196 1.342 1_554 S
C196 C195 1.342 1_556 S
C196 C197 1.438 . S
C196 C199 1.500 . S
C197 H171 0.950 . S
C197 C196 1.438 . S
C197 C198 1.374 . S
C198 H172 0.950 . S
C198 C194 1.414 . S
C198 C197 1.374 . S
C199 C196 1.500 . S
C199 C200 1.373 . S
C199 C201 1.389 1_556 S
C200 H173 0.950 . S
C200 C186 1.377 . S
C200 C199 1.373 . S
C201 C185 1.377 . S
C201 C199 1.389 1_554 S
C201 C202 1.524 . S
C202 C201 1.524 . S
C202 C203 1.397 . S
C202 C207 1.363 . S
C203 H174 0.950 1_554 S
C203 C202 1.397 . S
C203 C204 1.334 . S
C204 H175 0.950 . S
C204 C203 1.334 . S
C204 C205 1.287 . S
C205 C204 1.287 . S
C205 C206 1.524 . S
C205 H208 0.999 . S
C206 H176 0.950 . S
C206 C205 1.524 . S
C206 C207 1.415 . S
C207 H177 0.950 . S
C207 C202 1.363 . S
C207 C206 1.415 . S
H208 C205 0.999 . S
H209 C190 0.913 . S
H210 C228 0.951 . S
H211 C230 0.951 . S
H212 C232 0.950 . S
H213 C233 0.950 . S
H214 C235 0.950 . S
H215 C238 0.950 . S
H216 C239 0.950 . S
H217 C241 0.950 . S
H218 C242 0.950 . S
H219 C243 0.951 . S
H220 C245 0.951 . S
H221 C247 0.950 . S
H222 C248 0.950 . S
H223 C250 0.950 . S
H224 C253 0.950 . S
H225 C254 0.950 . S
H226 C256 0.950 . S
H227 C257 0.950 . S
C228 H210 0.951 . S
C228 C229 1.391 . S
C228 C230 1.388 . S
C229 C228 1.391 . S
C229 C233 1.359 1_556 S
C230 H211 0.951 . S
C230 C228 1.388 . S
C230 C231 1.358 1_556 S
C231 C230 1.358 1_554 S
C231 C232 1.421 . S
C231 C234 1.499 . S
C232 H212 0.950 . S
C232 C231 1.421 . S
C232 C233 1.374 . S
C233 H213 0.950 . S
C233 C229 1.359 1_554 S
C233 C232 1.374 . S
C234 C231 1.499 . S
C234 C235 1.373 . S
C234 C236 1.389 1_554 S
C235 H214 0.950 . S
C235 C234 1.373 . S
C235 C251 1.377 . S
C236 C234 1.389 1_556 S
C236 C237 1.524 . S
C236 C250 1.377 . S
C237 C236 1.524 . S
C237 C238 1.397 1_556 S
C237 C242 1.363 . S
C238 H215 0.950 . S
C238 C237 1.397 1_554 S
C238 C239 1.334 . S
C239 H216 0.950 . S
C239 C238 1.334 . S
C239 C240 1.287 1_554 S
C240 C239 1.287 1_556 S
C240 C241 1.524 . S
C240 H259 0.913 . S
C241 H217 0.950 . S
C241 C240 1.524 . S
C241 C242 1.415 . S
C242 H218 0.950 . S
C242 C237 1.363 . S
C242 C241 1.415 . S
C243 H219 0.951 . S
C243 C244 1.366 . S
C243 C245 1.388 . S
C244 C243 1.366 . S
C244 C248 1.385 1_554 S
C245 H220 0.951 . S
C245 C243 1.388 . S
C245 C246 1.364 1_554 S
C246 C245 1.364 1_556 S
C246 C247 1.415 . S
C246 C249 1.499 . S
C247 H221 0.950 . S
C247 C246 1.415 . S
C247 C248 1.374 . S
C248 H222 0.950 . S
C248 C244 1.385 1_556 S
C248 C247 1.374 . S
C249 C246 1.499 . S
C249 C250 1.373 . S
C249 C251 1.389 1_556 S
C250 H223 0.950 . S
C250 C236 1.377 . S
C250 C249 1.373 . S
C251 C235 1.377 . S
C251 C249 1.389 1_554 S
C251 C252 1.524 . S
C252 C251 1.524 . S
C252 C253 1.397 1_554 S
C252 C257 1.363 . S
C253 H224 0.950 . S
C253 C252 1.397 1_556 S
C253 C254 1.334 . S
C254 H225 0.950 . S
C254 C253 1.334 . S
C254 C255 1.287 1_556 S
C255 C254 1.287 1_554 S
C255 C256 1.524 . S
C255 H258 0.992 1_655 S
C256 H226 0.950 . S
C256 C255 1.524 . S
C256 C257 1.415 . S
C257 H227 0.950 . S
C257 C252 1.363 . S
C257 C256 1.415 . S
H258 C255 0.992 1_455 S
H259 C240 0.913 . S
H260 C278 0.951 . S
H261 C280 0.951 . S
H262 C282 0.950 . S
H263 C283 0.950 . S
H264 C285 0.950 . S
H265 C288 0.950 . S
H266 C289 0.950 . S
H267 C291 0.950 . S
H268 C292 0.950 . S
H269 C293 0.951 . S
H270 C295 0.951 . S
H271 C297 0.950 . S
H272 C298 0.950 . S
H273 C300 0.950 . S
H274 C303 0.950 . S
H275 C304 0.950 . S
H276 C306 0.950 . S
H277 C307 0.950 . S
C278 H260 0.951 . S
C278 C279 1.366 . S
C278 C280 1.388 . S
C279 C278 1.366 . S
C279 C283 1.385 . S
C280 H261 0.951 . S
C280 C278 1.388 . S
C280 C281 1.366 . S
C281 C280 1.366 . S
C281 C282 1.414 . S
C281 C284 1.499 . S
C282 H262 0.950 . S
C282 C281 1.414 . S
C282 C283 1.374 . S
C283 H263 0.950 . S
C283 C279 1.385 . S
C283 C282 1.374 . S
C284 C281 1.499 . S
C284 C285 1.373 . S
C284 C286 1.389 . S
C285 H264 0.950 . S
C285 C284 1.373 . S
C285 C301 1.377 . S
C286 C284 1.389 . S
C286 C287 1.524 . S
C286 C300 1.377 . S
C287 C286 1.524 . S
C287 C288 1.397 . S
C287 C292 1.363 . S
C288 H265 0.950 . S
C288 C287 1.397 . S
C288 C289 1.334 . S
C289 H266 0.950 . S
C289 C288 1.334 . S
C289 C290 1.287 . S
C290 C289 1.287 . S
C290 C291 1.524 . S
C290 H309 0.913 . S
C291 H267 0.950 . S
C291 C290 1.524 . S
C291 C292 1.415 . S
C292 H268 0.950 . S
C292 C287 1.363 . S
C292 C291 1.415 . S
C293 H269 0.951 . S
C293 C294 1.366 . S
C293 C295 1.388 . S
C294 C293 1.366 . S
C294 C298 1.385 . S
C295 H270 0.951 . S
C295 C293 1.388 . S
C295 C296 1.366 . S
C296 C295 1.366 . S
C296 C297 1.414 . S
C296 C299 1.499 . S
C297 H271 0.950 . S
C297 C296 1.414 . S
C297 C298 1.374 . S
C298 H272 0.950 . S
C298 C294 1.385 . S
C298 C297 1.374 . S
C299 C296 1.499 . S
C299 C300 1.373 . S
C299 C301 1.389 . S
C300 H273 0.950 . S
C300 C286 1.377 . S
C300 C299 1.373 . S
C301 C285 1.377 . S
C301 C299 1.389 . S
C301 C302 1.524 . S
C302 C301 1.524 . S
C302 C303 1.397 . S
C302 C307 1.363 . S
C303 H274 0.950 . S
C303 C302 1.397 . S
C303 C304 1.334 . S
C304 H275 0.950 . S
C304 C303 1.334 . S
C304 C305 1.287 . S
C305 C304 1.287 . S
C305 C306 1.524 . S
C305 H308 0.999 . S
C306 H276 0.950 . S
C306 C305 1.524 . S
C306 C307 1.415 . S
C307 H277 0.950 . S
C307 C302 1.363 . S
C307 C306 1.415 . S
H308 C305 0.999 . S
H309 C290 0.913 . S
H310 C328 0.951 . S
H311 C330 0.951 . S
H312 C332 0.950 . S
H313 C333 0.950 . S
H314 C335 0.950 . S
H315 C338 0.950 . S
H316 C339 0.950 . S
H317 C341 0.950 . S
H318 C342 0.950 . S
H319 C343 0.951 . S
H320 C345 0.951 . S
H321 C347 0.950 . S
H322 C348 0.950 . S
H323 C350 0.950 . S
H324 C353 0.950 . S
H325 C354 0.950 . S
H326 C356 0.950 . S
H327 C357 0.950 . S
C328 H310 0.951 . S
C328 C329 1.366 . S
C328 C330 1.388 . S
C329 C328 1.366 . S
C329 C333 1.385 . S
C330 H311 0.951 . S
C330 C328 1.388 . S
C330 C331 1.366 . S
C331 C330 1.366 . S
C331 C332 1.414 . S
C331 C334 1.499 . S
C332 H312 0.950 . S
C332 C331 1.414 . S
C332 C333 1.374 . S
C333 H313 0.950 . S
C333 C329 1.385 . S
C333 C332 1.374 . S
C334 C331 1.499 . S
C334 C335 1.373 . S
C334 C336 1.389 . S
C335 H314 0.950 . S
C335 C334 1.373 . S
C335 C351 1.377 . S
C336 C334 1.389 . S
C336 C337 1.524 . S
C336 C350 1.377 . S
C337 C336 1.524 . S
C337 C338 1.397 . S
C337 C342 1.363 . S
C338 H315 0.950 . S
C338 C337 1.397 . S
C338 C339 1.334 . S
C339 H316 0.950 . S
C339 C338 1.334 . S
C339 C340 1.287 . S
C340 C339 1.287 . S
C340 C341 1.524 . S
C340 H359 0.913 . S
C341 H317 0.950 . S
C341 C340 1.524 . S
C341 C342 1.415 . S
C342 H318 0.950 . S
C342 C337 1.363 . S
C342 C341 1.415 . S
C343 H319 0.951 . S
C343 C344 1.366 . S
C343 C345 1.388 . S
C344 C343 1.366 . S
C344 C348 1.385 . S
C345 H320 0.951 . S
C345 C343 1.388 . S
C345 C346 1.366 . S
C346 C345 1.366 . S
C346 C347 1.414 . S
C346 C349 1.499 . S
C347 H321 0.950 . S
C347 C346 1.414 . S
C347 C348 1.374 . S
C348 H322 0.950 . S
C348 C344 1.385 . S
C348 C347 1.374 . S
C349 C346 1.499 . S
C349 C350 1.373 . S
C349 C351 1.389 . S
C350 H323 0.950 . S
C350 C336 1.377 . S
C350 C349 1.373 . S
C351 C335 1.377 . S
C351 C349 1.389 . S
C351 C352 1.524 . S
C352 C351 1.524 . S
C352 C353 1.397 . S
C352 C357 1.363 . S
C353 H324 0.950 . S
C353 C352 1.397 . S
C353 C354 1.334 . S
C354 H325 0.950 . S
C354 C353 1.334 . S
C354 C355 1.287 . S
C355 C354 1.287 . S
C355 C356 1.524 . S
C355 H358 0.999 . S
C356 H326 0.950 . S
C356 C355 1.524 . S
C356 C357 1.415 . S
C357 H327 0.950 . S
C357 C352 1.363 . S
C357 C356 1.415 . S
H358 C355 0.999 . S
H359 C340 0.913 . S
H360 C378 0.951 . S
H361 C380 0.951 1_545 S
H362 C382 0.950 . S
H363 C383 0.950 . S
H364 C385 0.950 . S
H365 C388 0.950 . S
H366 C389 0.950 . S
H367 C391 0.950 . S
H368 C392 0.950 . S
H369 C393 0.951 . S
H370 C395 0.951 1_565 S
H371 C397 0.950 . S
H372 C398 0.950 . S
H373 C400 0.950 . S
H374 C403 0.950 . S
H375 C404 0.950 . S
H376 C406 0.950 . S
H377 C407 0.950 . S
C378 H360 0.951 . S
C378 C379 1.366 1_556 S
C378 C380 1.388 . S
C379 C378 1.366 1_554 S
C379 C383 1.385 . S
C380 H361 0.951 1_565 S
C380 C378 1.388 . S
C380 C381 1.377 . S
C381 C380 1.377 . S
C381 C382 1.399 1_556 S
C381 C384 1.499 . S
C382 H362 0.950 . S
C382 C381 1.399 1_554 S
C382 C383 1.374 . S
C383 H363 0.950 . S
C383 C379 1.385 . S
C383 C382 1.374 . S
C384 C381 1.499 . S
C384 C385 1.358 1_556 S
C384 C386 1.406 . S
C385 H364 0.950 . S
C385 C384 1.358 1_554 S
C385 C401 1.377 1_565 S
C386 C384 1.406 . S
C386 C387 1.524 . S
C386 C400 1.377 1_565 S
C387 C386 1.524 . S
C387 C388 1.397 . S
C387 C392 1.363 1_565 S
C388 H365 0.950 . S
C388 C387 1.397 . S
C388 C389 1.334 . S
C389 H366 0.950 . S
C389 C388 1.334 . S
C389 C390 1.287 . S
C390 C389 1.287 . S
C390 C391 1.524 1_565 S
C390 H409 0.913 . S
C391 H367 0.950 . S
C391 C390 1.524 1_545 S
C391 C392 1.415 . S
C392 H368 0.950 . S
C392 C387 1.363 1_545 S
C392 C391 1.415 . S
C393 H369 0.951 . S
C393 C394 1.366 1_554 S
C393 C395 1.388 . S
C394 C393 1.366 1_556 S
C394 C398 1.385 . S
C395 H370 0.951 1_545 S
C395 C393 1.388 . S
C395 C396 1.381 . S
C396 C395 1.381 . S
C396 C397 1.394 1_554 S
C396 C399 1.499 . S
C397 H371 0.950 . S
C397 C396 1.394 1_556 S
C397 C398 1.374 . S
C398 H372 0.950 . S
C398 C394 1.385 . S
C398 C397 1.374 . S
C399 C396 1.499 . S
C399 C400 1.352 1_554 S
C399 C401 1.413 . S
C400 H373 0.950 . S
C400 C386 1.377 1_545 S
C400 C399 1.352 1_556 S
C401 C385 1.377 1_545 S
C401 C399 1.413 . S
C401 C402 1.524 . S
C402 C401 1.524 . S
C402 C403 1.397 . S
C402 C407 1.363 1_545 S
C403 H374 0.950 . S
C403 C402 1.397 . S
C403 C404 1.334 . S
C404 H375 0.950 . S
C404 C403 1.334 . S
C404 C405 1.287 . S
C405 C404 1.287 . S
C405 C406 1.524 1_545 S
C405 H408 0.999 . S
C406 H376 0.950 . S
C406 C405 1.524 1_565 S
C406 C407 1.415 . S
C407 H377 0.950 . S
C407 C402 1.363 1_565 S
C407 C406 1.415 . S
H408 C405 0.999 . S
H409 C390 0.913 . S
H410 C428 0.951 . S
H411 C430 0.951 . S
H412 C432 0.950 . S
H413 C433 0.950 . S
H414 C435 0.950 . S
H415 C438 0.950 . S
H416 C439 0.950 . S
H417 C441 0.950 . S
H418 C442 0.950 1_565 S
H419 C443 0.951 . S
H420 C445 0.951 . S
H421 C447 0.950 . S
H422 C448 0.950 . S
H423 C450 0.950 . S
H424 C453 0.950 . S
H425 C454 0.950 . S
H426 C456 0.950 . S
H427 C457 0.950 1_545 S
C428 H410 0.951 . S
C428 C429 1.366 . S
C428 C430 1.388 . S
C429 C428 1.366 . S
C429 C433 1.385 1_565 S
C430 H411 0.951 . S
C430 C428 1.388 . S
C430 C431 1.366 1_565 S
C431 C430 1.366 1_545 S
C431 C432 1.414 . S
C431 C434 1.499 . S
C432 H412 0.950 . S
C432 C431 1.414 . S
C432 C433 1.374 . S
C433 H413 0.950 . S
C433 C429 1.385 1_545 S
C433 C432 1.374 . S
C434 C431 1.499 . S
C434 C435 1.373 1_545 S
C434 C436 1.389 . S
C435 H414 0.950 . S
C435 C434 1.373 1_565 S
C435 C451 1.377 . S
C436 C434 1.389 . S
C436 C437 1.524 . S
C436 C450 1.377 . S
C437 C436 1.524 . S
C437 C438 1.397 . S
C437 C442 1.363 . S
C438 H415 0.950 . S
C438 C437 1.397 . S
C438 C439 1.334 . S
C439 H416 0.950 . S
C439 C438 1.334 . S
C439 C440 1.287 . S
C440 C439 1.287 . S
C440 C441 1.524 . S
C440 H459 0.913 . S
C441 H417 0.950 . S
C441 C440 1.524 . S
C441 C442 1.415 . S
C442 H418 0.950 1_545 S
C442 C437 1.363 . S
C442 C441 1.415 . S
C443 H419 0.951 . S
C443 C444 1.366 . S
C443 C445 1.388 . S
C444 C443 1.366 . S
C444 C448 1.385 1_545 S
C445 H420 0.951 . S
C445 C443 1.388 . S
C445 C446 1.353 1_545 S
C446 C445 1.353 1_565 S
C446 C447 1.421 . S
C446 C449 1.504 . S
C447 H421 0.950 . S
C447 C446 1.421 . S
C447 C448 1.374 . S
C448 H422 0.950 . S
C448 C444 1.385 1_565 S
C448 C447 1.374 . S
C449 C446 1.504 . S
C449 C450 1.373 1_565 S
C449 C451 1.389 . S
C450 H423 0.950 . S
C450 C436 1.377 . S
C450 C449 1.373 1_545 S
C451 C435 1.377 . S
C451 C449 1.389 . S
C451 C452 1.524 . S
C452 C451 1.524 . S
C452 C453 1.397 . S
C452 C457 1.363 . S
C453 H424 0.950 . S
C453 C452 1.397 . S
C453 C454 1.334 . S
C454 H425 0.950 . S
C454 C453 1.334 . S
C454 C455 1.287 . S
C455 C454 1.287 . S
C455 C456 1.524 . S
C455 H458 0.999 . S
C456 H426 0.950 . S
C456 C455 1.524 . S
C456 C457 1.415 . S
C457 H427 0.950 1_565 S
C457 C452 1.363 . S
C457 C456 1.415 . S
H458 C455 0.999 . S
H459 C440 0.913 . S
H460 C478 0.951 . S
H461 C480 0.951 . S
H462 C482 0.950 . S
H463 C483 0.950 . S
H464 C485 0.950 . S
H465 C488 0.950 . S
H466 C489 0.950 . S
H467 C491 0.950 . S
H468 C492 0.950 . S
H469 C493 0.951 . S
H470 C495 0.951 . S
H471 C497 0.950 . S
H472 C498 0.950 . S
H473 C500 0.950 . S
H474 C503 0.950 . S
H475 C504 0.950 . S
H476 C506 0.950 . S
H477 C507 0.950 . S
C478 H460 0.951 . S
C478 C479 1.366 1_556 S
C478 C480 1.388 . S
C479 C478 1.366 1_554 S
C479 C483 1.385 . S
C480 H461 0.951 . S
C480 C478 1.388 . S
C480 C481 1.366 1_556 S
C481 C480 1.366 1_554 S
C481 C482 1.413 . S
C481 C484 1.501 . S
C482 H462 0.950 . S
C482 C481 1.413 . S
C482 C483 1.374 . S
C483 H463 0.950 . S
C483 C479 1.385 . S
C483 C482 1.374 . S
C484 C481 1.501 . S
C484 C485 1.390 . S
C484 C486 1.370 1_554 S
C485 H464 0.950 . S
C485 C484 1.390 . S
C485 C501 1.377 1_655 S
C486 C484 1.370 1_556 S
C486 C487 1.524 . S
C486 C500 1.377 1_655 S
C487 C486 1.524 . S
C487 C488 1.397 . S
C487 C492 1.363 . S
C488 H465 0.950 . S
C488 C487 1.397 . S
C488 C489 1.334 . S
C489 H466 0.950 . S
C489 C488 1.334 . S
C489 C490 1.287 . S
C490 C489 1.287 . S
C490 C491 1.524 . S
C490 H509 0.913 . S
C491 H467 0.950 . S
C491 C490 1.524 . S
C491 C492 1.415 . S
C492 H468 0.950 . S
C492 C487 1.363 . S
C492 C491 1.415 . S
C493 H469 0.951 . S
C493 C494 1.366 1_554 S
C493 C495 1.388 . S
C494 C493 1.366 1_556 S
C494 C498 1.385 . S
C495 H470 0.951 . S
C495 C493 1.388 . S
C495 C496 1.366 . S
C496 C495 1.366 . S
C496 C497 1.413 1_554 S
C496 C499 1.500 1_554 S
C497 H471 0.950 . S
C497 C496 1.413 1_556 S
C497 C498 1.374 . S
C498 H472 0.950 . S
C498 C494 1.385 . S
C498 C497 1.374 . S
C499 C496 1.500 1_556 S
C499 C500 1.385 . S
C499 C501 1.376 1_556 S
C500 H473 0.950 . S
C500 C486 1.377 1_455 S
C500 C499 1.385 . S
C501 C485 1.377 1_455 S
C501 C499 1.376 1_554 S
C501 C502 1.524 . S
C502 C501 1.524 . S
C502 C503 1.397 . S
C502 C507 1.363 . S
C503 H474 0.950 . S
C503 C502 1.397 . S
C503 C504 1.334 . S
C504 H475 0.950 . S
C504 C503 1.334 . S
C504 C505 1.287 . S
C505 C504 1.287 . S
C505 C506 1.524 . S
C505 H508 0.999 . S
C506 H476 0.950 . S
C506 C505 1.524 . S
C506 C507 1.415 . S
C507 H477 0.950 . S
C507 C502 1.363 . S
C507 C506 1.415 . S
H508 C505 0.999 . S
H509 C490 0.913 . S
H510 C528 0.951 . S
H511 C530 0.951 . S
H512 C532 0.950 . S
H513 C533 0.950 . S
H514 C535 0.950 . S
H515 C538 0.950 . S
H516 C539 0.950 . S
H517 C541 0.950 . S
H518 C542 0.950 . S
H519 C543 0.951 . S
H520 C545 0.951 . S
H521 C547 0.950 . S
H522 C548 0.950 . S
H523 C550 0.950 . S
H524 C553 0.950 . S
H525 C554 0.950 . S
H526 C556 0.950 . S
H527 C557 0.950 . S
C528 H510 0.951 . S
C528 C529 1.366 . S
C528 C530 1.388 . S
C529 C528 1.366 . S
C529 C533 1.385 . S
C530 H511 0.951 . S
C530 C528 1.388 . S
C530 C531 1.366 . S
C531 C530 1.366 . S
C531 C532 1.414 . S
C531 C534 1.499 . S
C532 H512 0.950 . S
C532 C531 1.414 . S
C532 C533 1.374 . S
C533 H513 0.950 . S
C533 C529 1.385 . S
C533 C532 1.374 . S
C534 C531 1.499 . S
C534 C535 1.373 . S
C534 C536 1.389 . S
C535 H514 0.950 . S
C535 C534 1.373 . S
C535 C551 1.377 1_455 S
C536 C534 1.389 . S
C536 C537 1.524 . S
C536 C550 1.377 1_455 S
C537 C536 1.524 . S
C537 C538 1.397 . S
C537 C542 1.363 . S
C538 H515 0.950 . S
C538 C537 1.397 . S
C538 C539 1.334 . S
C539 H516 0.950 . S
C539 C538 1.334 . S
C539 C540 1.287 . S
C540 C539 1.287 . S
C540 C541 1.524 . S
C540 H559 0.913 . S
C541 H517 0.950 . S
C541 C540 1.524 . S
C541 C542 1.415 . S
C542 H518 0.950 . S
C542 C537 1.363 . S
C542 C541 1.415 . S
C543 H519 0.951 . S
C543 C544 1.366 . S
C543 C545 1.388 . S
C544 C543 1.366 . S
C544 C548 1.385 . S
C545 H520 0.951 . S
C545 C543 1.388 . S
C545 C546 1.366 . S
C546 C545 1.366 . S
C546 C547 1.414 . S
C546 C549 1.499 . S
C547 H521 0.950 . S
C547 C546 1.414 . S
C547 C548 1.374 . S
C548 H522 0.950 . S
C548 C544 1.385 . S
C548 C547 1.374 . S
C549 C546 1.499 . S
C549 C550 1.373 . S
C549 C551 1.389 . S
C550 H523 0.950 . S
C550 C536 1.377 1_655 S
C550 C549 1.373 . S
C551 C535 1.377 1_655 S
C551 C549 1.389 . S
C551 C552 1.524 . S
C552 C551 1.524 . S
C552 C553 1.397 . S
C552 C557 1.363 . S
C553 H524 0.950 . S
C553 C552 1.397 . S
C553 C554 1.334 . S
C554 H525 0.950 . S
C554 C553 1.334 . S
C554 C555 1.287 . S
C555 C554 1.287 . S
C555 C556 1.524 . S
C555 H558 0.999 . S
C556 H526 0.950 . S
C556 C555 1.524 . S
C556 C557 1.415 . S
C557 H527 0.950 . S
C557 C552 1.363 . S
C557 C556 1.415 . S
H558 C555 0.999 . S
H559 C540 0.913 . S
H560 C578 0.951 . S
H561 C580 0.951 . S
H562 C582 0.950 . S
H563 C583 0.950 . S
H564 C585 0.950 . S
H565 C588 0.950 . S
H566 C589 0.950 . S
H567 C591 0.950 . S
H568 C592 0.950 . S
H569 C593 0.951 . S
H570 C595 0.951 . S
H571 C597 0.950 . S
H572 C598 0.950 . S
H573 C600 0.950 . S
H574 C603 0.950 . S
H575 C604 0.950 . S
H576 C606 0.950 . S
H577 C607 0.950 . S
C578 H560 0.951 . S
C578 C579 1.366 1_455 S
C578 C580 1.388 . S
C579 C578 1.366 1_655 S
C579 C583 1.385 1_545 S
C580 H561 0.951 . S
C580 C578 1.388 . S
C580 C581 1.366 1_455 S
C581 C580 1.366 1_655 S
C581 C582 1.414 1_545 S
C581 C584 1.499 . S
C582 H562 0.950 . S
C582 C581 1.414 1_565 S
C582 C583 1.374 . S
C583 H563 0.950 . S
C583 C579 1.385 1_565 S
C583 C582 1.374 . S
C584 C581 1.499 . S
C584 C585 1.373 1_645 S
C584 C586 1.389 . S
C585 H564 0.950 . S
C585 C584 1.373 1_465 S
C585 C601 1.377 . S
C586 C584 1.389 . S
C586 C587 1.524 . S
C586 C600 1.377 . S
C587 C586 1.524 . S
C587 C588 1.397 . S
C587 C592 1.363 . S
C588 H565 0.950 . S
C588 C587 1.397 . S
C588 C589 1.334 . S
C589 H566 0.950 . S
C589 C588 1.334 . S
C589 C590 1.287 . S
C590 C589 1.287 . S
C590 C591 1.524 . S
C590 H609 0.913 . S
C591 H567 0.950 . S
C591 C590 1.524 . S
C591 C592 1.415 . S
C592 H568 0.950 . S
C592 C587 1.363 . S
C592 C591 1.415 . S
C593 H569 0.951 . S
C593 C594 1.375 1_565 S
C593 C595 1.388 . S
C594 C593 1.375 1_545 S
C594 C598 1.377 1_655 S
C595 H570 0.951 . S
C595 C593 1.388 . S
C595 C596 1.349 1_665 S
C596 C595 1.349 1_445 S
C596 C597 1.431 . S
C596 C599 1.498 . S
C597 H571 0.950 . S
C597 C596 1.431 . S
C597 C598 1.374 . S
C598 H572 0.950 . S
C598 C594 1.377 1_455 S
C598 C597 1.374 . S
C599 C596 1.498 . S
C599 C600 1.373 1_455 S
C599 C601 1.389 1_545 S
C600 H573 0.950 . S
C600 C586 1.377 . S
C600 C599 1.373 1_655 S
C601 C585 1.377 . S
C601 C599 1.389 1_565 S
C601 C602 1.524 . S
C602 C601 1.524 . S
C602 C603 1.397 . S
C602 C607 1.363 . S
C603 H574 0.950 . S
C603 C602 1.397 . S
C603 C604 1.334 . S
C604 H575 0.950 . S
C604 C603 1.334 . S
C604 C605 1.287 . S
C605 C604 1.287 . S
C605 C606 1.524 . S
C605 H608 0.999 . S
C606 H576 0.950 . S
C606 C605 1.524 . S
C606 C607 1.415 . S
C607 H577 0.950 . S
C607 C602 1.363 . S
C607 C606 1.415 . S
H608 C605 0.999 . S
H609 C590 0.913 . S
H610 C628 0.951 . S
H611 C630 0.951 . S
H612 C632 0.950 . S
H613 C633 0.950 . S
H614 C635 0.950 . S
H615 C638 0.950 . S
H616 C639 0.950 . S
H617 C641 0.950 . S
H618 C642 0.950 . S
H619 C643 0.951 . S
H620 C645 0.951 . S
H621 C647 0.950 . S
H622 C648 0.950 . S
H623 C650 0.950 . S
H624 C653 0.950 . S
H625 C654 0.950 . S
H626 C656 0.950 . S
H627 C657 0.950 . S
C628 H610 0.951 . S
C628 C629 1.343 1_645 S
C628 C630 1.388 . S
C629 C628 1.343 1_465 S
C629 C633 1.408 . S
C630 H611 0.951 . S
C630 C628 1.388 . S
C630 C631 1.373 1_545 S
C631 C630 1.373 1_565 S
C631 C632 1.407 1_655 S
C631 C634 1.496 1_655 S
C632 H612 0.950 . S
C632 C631 1.407 1_455 S
C632 C633 1.374 . S
C633 H613 0.950 . S
C633 C629 1.408 . S
C633 C632 1.374 . S
C634 C631 1.496 1_455 S
C634 C635 1.381 . S
C634 C636 1.383 1_465 S
C635 H614 0.950 . S
C635 C634 1.381 . S
C635 C651 1.377 . S
C636 C634 1.383 1_645 S
C636 C637 1.524 . S
C636 C650 1.377 . S
C637 C636 1.524 . S
C637 C638 1.397 1_545 S
C637 C642 1.363 . S
C638 H615 0.950 . S
C638 C637 1.397 1_565 S
C638 C639 1.334 . S
C639 H616 0.950 . S
C639 C638 1.334 . S
C639 C640 1.287 . S
C640 C639 1.287 . S
C640 C641 1.524 1_565 S
C640 H659 0.913 . S
C641 H617 0.950 . S
C641 C640 1.524 1_545 S
C641 C642 1.415 . S
C642 H618 0.950 . S
C642 C637 1.363 . S
C642 C641 1.415 . S
C643 H619 0.951 . S
C643 C644 1.385 . S
C643 C645 1.388 . S
C644 C643 1.385 . S
C644 C648 1.366 1_465 S
C645 H620 0.951 . S
C645 C643 1.388 . S
C645 C646 1.364 1_565 S
C646 C645 1.364 1_545 S
C646 C647 1.415 1_455 S
C646 C649 1.500 . S
C647 H621 0.950 . S
C647 C646 1.415 1_655 S
C647 C648 1.374 . S
C648 H622 0.950 . S
C648 C644 1.366 1_645 S
C648 C647 1.374 . S
C649 C646 1.500 . S
C649 C650 1.368 1_455 S
C649 C651 1.391 1_545 S
C650 H623 0.950 . S
C650 C636 1.377 . S
C650 C649 1.368 1_655 S
C651 C635 1.377 . S
C651 C649 1.391 1_565 S
C651 C652 1.524 . S
C652 C651 1.524 . S
C652 C653 1.397 1_565 S
C652 C657 1.363 . S
C653 H624 0.950 . S
C653 C652 1.397 1_545 S
C653 C654 1.334 . S
C654 H625 0.950 . S
C654 C653 1.334 . S
C654 C655 1.287 . S
C655 C654 1.287 . S
C655 C656 1.524 1_545 S
C655 H658 0.999 . S
C656 H626 0.950 . S
C656 C655 1.524 1_565 S
C656 C657 1.415 . S
C657 H627 0.950 . S
C657 C652 1.363 . S
C657 C656 1.415 . S
H658 C655 0.999 . S
H659 C640 0.913 . S
H660 C678 0.951 . S
H661 C680 0.951 . S
H662 C682 0.950 . S
H663 C683 0.950 . S
H664 C685 0.950 . S
H665 C688 0.950 . S
H666 C689 0.950 . S
H667 C691 0.950 . S
H668 C692 0.950 . S
H669 C693 0.951 . S
H670 C695 0.951 . S
H671 C697 0.950 . S
H672 C698 0.950 . S
H673 C700 0.950 . S
H674 C703 0.950 . S
H675 C704 0.950 . S
H676 C706 0.950 . S
H677 C707 0.950 . S
C678 H660 0.951 . S
C678 C679 1.366 . S
C678 C680 1.388 . S
C679 C678 1.366 . S
C679 C683 1.385 . S
C680 H661 0.951 . S
C680 C678 1.388 . S
C680 C681 1.366 . S
C681 C680 1.366 . S
C681 C682 1.414 . S
C681 C684 1.499 . S
C682 H662 0.950 . S
C682 C681 1.414 . S
C682 C683 1.374 . S
C683 H663 0.950 . S
C683 C679 1.385 . S
C683 C682 1.374 . S
C684 C681 1.499 . S
C684 C685 1.373 . S
C684 C686 1.389 . S
C685 H664 0.950 . S
C685 C684 1.373 . S
C685 C701 1.377 . S
C686 C684 1.389 . S
C686 C687 1.524 . S
C686 C700 1.377 . S
C687 C686 1.524 . S
C687 C688 1.397 . S
C687 C692 1.363 . S
C688 H665 0.950 . S
C688 C687 1.397 . S
C688 C689 1.334 . S
C689 H666 0.950 . S
C689 C688 1.334 . S
C689 C690 1.287 . S
C690 C689 1.287 . S
C690 C691 1.524 . S
C690 H709 0.913 . S
C691 H667 0.950 . S
C691 C690 1.524 . S
C691 C692 1.415 . S
C692 H668 0.950 . S
C692 C687 1.363 . S
C692 C691 1.415 . S
C693 H669 0.951 . S
C693 C694 1.366 . S
C693 C695 1.388 . S
C694 C693 1.366 . S
C694 C698 1.385 . S
C695 H670 0.951 . S
C695 C693 1.388 . S
C695 C696 1.366 . S
C696 C695 1.366 . S
C696 C697 1.414 . S
C696 C699 1.499 . S
C697 H671 0.950 . S
C697 C696 1.414 . S
C697 C698 1.374 . S
C698 H672 0.950 . S
C698 C694 1.385 . S
C698 C697 1.374 . S
C699 C696 1.499 . S
C699 C700 1.373 . S
C699 C701 1.389 . S
C700 H673 0.950 . S
C700 C686 1.377 . S
C700 C699 1.373 . S
C701 C685 1.377 . S
C701 C699 1.389 . S
C701 C702 1.524 . S
C702 C701 1.524 . S
C702 C703 1.397 . S
C702 C707 1.363 . S
C703 H674 0.950 . S
C703 C702 1.397 . S
C703 C704 1.334 . S
C704 H675 0.950 . S
C704 C703 1.334 . S
C704 C705 1.287 . S
C705 C704 1.287 . S
C705 C706 1.524 . S
C705 H708 0.999 . S
C706 H676 0.950 . S
C706 C705 1.524 . S
C706 C707 1.415 . S
C707 H677 0.950 . S
C707 C702 1.363 . S
C707 C706 1.415 . S
H708 C705 0.999 . S
H709 C690 0.913 . S
H710 C728 0.951 . S
H711 C730 0.951 . S
H712 C732 0.950 . S
H713 C733 0.950 . S
H714 C735 0.950 . S
H715 C738 0.950 . S
H716 C739 0.950 . S
H717 C741 0.950 . S
H718 C742 0.950 . S
H719 C743 0.951 . S
H720 C745 0.951 . S
H721 C747 0.950 . S
H722 C748 0.950 . S
H723 C750 0.950 . S
H724 C753 0.950 . S
H725 C754 0.950 . S
H726 C756 0.950 . S
H727 C757 0.950 . S
C728 H710 0.951 . S
C728 C729 1.366 . S
C728 C730 1.388 . S
C729 C728 1.366 . S
C729 C733 1.385 . S
C730 H711 0.951 . S
C730 C728 1.388 . S
C730 C731 1.366 . S
C731 C730 1.366 . S
C731 C732 1.414 . S
C731 C734 1.499 . S
C732 H712 0.950 . S
C732 C731 1.414 . S
C732 C733 1.374 . S
C733 H713 0.950 . S
C733 C729 1.385 . S
C733 C732 1.374 . S
C734 C731 1.499 . S
C734 C735 1.373 . S
C734 C736 1.389 . S
C735 H714 0.950 . S
C735 C734 1.373 . S
C735 C751 1.377 . S
C736 C734 1.389 . S
C736 C737 1.524 . S
C736 C750 1.377 . S
C737 C736 1.524 . S
C737 C738 1.397 . S
C737 C742 1.363 . S
C738 H715 0.950 . S
C738 C737 1.397 . S
C738 C739 1.334 . S
C739 H716 0.950 . S
C739 C738 1.334 . S
C739 C740 1.287 . S
C740 C739 1.287 . S
C740 C741 1.524 . S
C740 H759 0.913 . S
C741 H717 0.950 . S
C741 C740 1.524 . S
C741 C742 1.415 . S
C742 H718 0.950 . S
C742 C737 1.363 . S
C742 C741 1.415 . S
C743 H719 0.951 . S
C743 C744 1.366 . S
C743 C745 1.388 . S
C744 C743 1.366 . S
C744 C748 1.385 . S
C745 H720 0.951 . S
C745 C743 1.388 . S
C745 C746 1.366 . S
C746 C745 1.366 . S
C746 C747 1.414 . S
C746 C749 1.499 . S
C747 H721 0.950 . S
C747 C746 1.414 . S
C747 C748 1.374 . S
C748 H722 0.950 . S
C748 C744 1.385 . S
C748 C747 1.374 . S
C749 C746 1.499 . S
C749 C750 1.373 . S
C749 C751 1.389 . S
C750 H723 0.950 . S
C750 C736 1.377 . S
C750 C749 1.373 . S
C751 C735 1.377 . S
C751 C749 1.389 . S
C751 C752 1.524 . S
C752 C751 1.524 . S
C752 C753 1.397 . S
C752 C757 1.363 . S
C753 H724 0.950 . S
C753 C752 1.397 . S
C753 C754 1.334 . S
C754 H725 0.950 . S
C754 C753 1.334 . S
C754 C755 1.287 . S
C755 C754 1.287 . S
C755 C756 1.524 . S
C755 H758 0.999 . S
C756 H726 0.950 . S
C756 C755 1.524 . S
C756 C757 1.415 . S
C757 H727 0.950 . S
C757 C752 1.363 . S
C757 C756 1.415 . S
H758 C755 0.999 . S
H759 C740 0.913 . S
C179 C90 3.503 1_554 S
C194 C19 3.501 1_556 S
C229 C99 3.501 1_556 S
C244 C10 3.503 1_554 S
C279 C55 0.093 . S
C294 C126 0.093 . S
C329 C46 0.093 . S
C344 C135 0.094 . S
C379 C15 0.914 . S
C394 C6 0.914 . S
C429 C59 4.890 . S
C444 C50 4.890 . S
C479 C95 0.914 . S
C494 C86 0.914 . S
C529 C130 4.890 . S
C544 C139 4.890 . S
C579 C49 1.451 1_645 S
C594 C18 1.446 1_655 S
C629 C9 1.463 1_455 S
C644 C58 1.448 1_465 S
C679 C129 1.451 . S
C694 C98 1.452 . S
C729 C138 1.451 . S
C744 C89 1.458 . S
