# Generated by pormake.
# Topology fns, (5)-cn, num edge types: 1
# Building blocks:
#     Node 0, Type 0, BuildingBlock: BEQFEK_clean_sbu_0, # of connection points: 5
#     Node 1, Type 0, BuildingBlock: BEQFEK_clean_sbu_0, # of connection points: 5
#     Node 2, Type 0, BuildingBlock: BEQFEK_clean_sbu_0, # of connection points: 5
#     Node 3, Type 0, BuildingBlock: BEQFEK_clean_sbu_0, # of connection points: 5
#     Node 4, Type 0, BuildingBlock: BEQFEK_clean_sbu_0, # of connection points: 5
#     Node 5, Type 0, BuildingBlock: BEQFEK_clean_sbu_0, # of connection points: 5
#     Edge 6, Type (0, 0), BuildingBlock: MIFKUJ_clean_linker_0, # of connection points: 2
#     Edge 7, Type (0, 0), BuildingBlock: MIFKUJ_clean_linker_0, # of connection points: 2
#     Edge 8, Type (0, 0), BuildingBlock: MIFKUJ_clean_linker_0, # of connection points: 2
#     Edge 9, Type (0, 0), BuildingBlock: MIFKUJ_clean_linker_0, # of connection points: 2
#     Edge 10, Type (0, 0), BuildingBlock: MIFKUJ_clean_linker_0, # of connection points: 2
#     Edge 11, Type (0, 0), BuildingBlock: MIFKUJ_clean_linker_0, # of connection points: 2
#     Edge 12, Type (0, 0), BuildingBlock: MIFKUJ_clean_linker_0, # of connection points: 2
#     Edge 13, Type (0, 0), BuildingBlock: MIFKUJ_clean_linker_0, # of connection points: 2
#     Edge 14, Type (0, 0), BuildingBlock: MIFKUJ_clean_linker_0, # of connection points: 2
#     Edge 15, Type (0, 0), BuildingBlock: MIFKUJ_clean_linker_0, # of connection points: 2
#     Edge 16, Type (0, 0), BuildingBlock: MIFKUJ_clean_linker_0, # of connection points: 2
#     Edge 17, Type (0, 0), BuildingBlock: MIFKUJ_clean_linker_0, # of connection points: 2
#     Edge 18, Type (0, 0), BuildingBlock: MIFKUJ_clean_linker_0, # of connection points: 2
#     Edge 19, Type (0, 0), BuildingBlock: MIFKUJ_clean_linker_0, # of connection points: 2
#     Edge 20, Type (0, 0), BuildingBlock: MIFKUJ_clean_linker_0, # of connection points: 2
# Relax obj value: 0.256
# Max RMSD: 0.249
# Mean RMSD: 0.249
data_MOF--net-fns--node1-BEQFEK_clean_sbu_0--edge1-MIFKUJ_clean_linker_0
_symmetry_space_group_name_H-M    P1
_symmetry_Int_Tables_number       1
_symmetry_cell_setting            triclinic
loop_
_symmetry_equiv_pos_as_xyz
'x, y, z'
_cell_length_a     69.901962
_cell_length_b     69.909645
_cell_length_c     22.765208
_cell_angle_alpha  89.988005
_cell_angle_beta   90.068516
_cell_angle_gamma 119.9982
loop_
_atom_site_label
_atom_site_type_symbol
_atom_site_fract_x
_atom_site_fract_y
_atom_site_fract_z
_atom_type_partial_charge
Co0 Co 0.17867 0.62454 0.10501 0.0
Co1 Co 0.16857 0.60123 0.22754 0.0
C2 C 0.20152 0.64999 0.21072 0.0
O3 O 0.19803 0.6502 0.15587 0.0
O4 O 0.19152 0.63226 0.24037 0.0
C5 C 0.17724 0.6485 -0.00113 0.0
O6 O 0.17133 0.66018 0.03144 0.0
C7 C 0.15432 0.59893 0.34816 0.0
C8 C 0.15628 0.57057 0.38358 0.0
C9 C 0.15259 0.5876 0.3998 0.0
N10 N 0.15896 0.58916 0.30396 0.0
N11 N 0.15969 0.57195 0.32514 0.0
C12 C 0.1538 0.61997 0.34145 0.0
H13 H 0.15819 0.6265 0.29616 0.0
H14 H 0.13686 0.61678 0.35033 0.0
H15 H 0.1652 0.63245 0.3735 0.0
C16 C 0.12949 0.60141 0.10218 0.0
N17 N 0.14882 0.60874 0.13091 0.0
N18 N 0.1448 0.59909 0.18269 0.0
C19 C 0.1229 0.5856 0.18878 0.0
C20 C 0.11248 0.58674 0.13823 0.0
C21 C 0.12755 0.60551 0.03853 0.0
H22 H 0.13917 0.60251 0.0124 0.0
H23 H 0.13195 0.62298 0.03265 0.0
H24 H 0.1105 0.59479 0.02186 0.0
O25 O 0.19011 0.60381 0.10268 0.0
O26 O 0.18195 0.58555 0.18714 0.0
H27 H 0.12097 0.55966 0.2431 0.0
H28 H 0.09462 0.55808 0.23046 0.0
C29 C 0.11251 0.56942 0.23802 0.0
H30 H 0.1146 0.57857 0.2795 0.0
H31 H 0.16377 0.56194 0.30038 0.0
O32 O 0.18067 0.63403 0.02251 0.0
C33 C 0.19022 0.58917 0.13571 0.0
Co34 Co 0.55194 0.17593 0.42521 0.0
Co35 Co 0.56917 0.17498 0.55028 0.0
C36 C 0.54984 0.20401 0.51798 0.0
O37 O 0.54555 0.19729 0.46512 0.0
O38 O 0.55883 0.19666 0.55301 0.0
C39 C 0.52806 0.17712 0.32156 0.0
O40 O 0.52255 0.18974 0.35131 0.0
C41 C 0.55914 0.16726 0.6721 0.0
C42 C 0.58909 0.17002 0.71288 0.0
C43 C 0.56839 0.16709 0.72551 0.0
N44 N 0.57369 0.17048 0.62969 0.0
N45 N 0.59157 0.17197 0.654 0.0
C46 C 0.5364 0.16355 0.66098 0.0
H47 H 0.53098 0.15746 0.6156 0.0
H48 H 0.52451 0.15154 0.69307 0.0
H49 H 0.53648 0.17932 0.6662 0.0
C50 C 0.52697 0.12775 0.44543 0.0
N51 N 0.53996 0.14857 0.4646 0.0
N52 N 0.54781 0.14803 0.51663 0.0
C53 C 0.54018 0.12685 0.53227 0.0
C54 C 0.5267 0.11329 0.48758 0.0
C55 C 0.5165 0.12187 0.38589 0.0
H56 H 0.50808 0.13144 0.37685 0.0
H57 H 0.50431 0.10396 0.3825 0.0
H58 H 0.52954 0.12631 0.3523 0.0
O59 O 0.58438 0.18888 0.41705 0.0
O60 O 0.59716 0.18767 0.50558 0.0
H61 H 0.54416 0.10251 0.58169 0.0
H62 H 0.54034 0.12198 0.6248 0.0
C63 C 0.5482 0.11997 0.58478 0.0
H64 H 0.56634 0.13075 0.58923 0.0
H65 H 0.60561 0.17485 0.63067 0.0
O66 O 0.54008 0.17041 0.34526 0.0
C67 C 0.60032 0.19244 0.4511 0.0
Co68 Co 0.36996 0.55113 0.76584 0.0
Co69 Co 0.39122 0.56631 0.89044 0.0
C70 C 0.34201 0.5447 0.86966 0.0
O71 O 0.34325 0.54211 0.81474 0.0
O72 O 0.35917 0.55391 0.90177 0.0
C73 C 0.34841 0.5236 0.66101 0.0
O74 O 0.33917 0.50594 0.69448 0.0
C75 C 0.39535 0.55649 0.01232 0.0
C76 C 0.42176 0.58852 0.04593 0.0
C77 C 0.40661 0.56715 0.06306 0.0
N78 N 0.40351 0.57081 0.96736 0.0
N79 N 0.41954 0.58985 0.98752 0.0
C80 C 0.3757 0.53375 0.00745 0.0
H81 H 0.36934 0.53013 0.96183 0.0
H82 H 0.38042 0.52136 0.02013 0.0
H83 H 0.36254 0.53204 0.03792 0.0
C84 C 0.39761 0.52956 0.76805 0.0
N85 N 0.38833 0.54025 0.79437 0.0
N86 N 0.39717 0.54678 0.8469 0.0
C87 C 0.41212 0.54032 0.85587 0.0
C88 C 0.41286 0.52919 0.80636 0.0
C89 C 0.39453 0.52289 0.70471 0.0
H90 H 0.39486 0.53617 0.67733 0.0
H91 H 0.37826 0.50773 0.69908 0.0
H92 H 0.40754 0.51943 0.68919 0.0
O93 O 0.38781 0.5836 0.76252 0.0
O94 O 0.40406 0.59527 0.84927 0.0
H95 H 0.43544 0.56422 0.91587 0.0
H96 H 0.43857 0.54022 0.906 0.0
C97 C 0.42651 0.54607 0.90925 0.0
H98 H 0.41601 0.53822 0.94823 0.0
H99 H 0.42821 0.60405 0.96198 0.0
O100 O 0.36101 0.54244 0.68354 0.0
C101 C 0.40071 0.59916 0.79669 0.0
Co102 Co 0.82379 0.3743 0.08811 0.0
Co103 Co 0.82987 0.39581 0.21202 0.0
C104 C 0.80108 0.34656 0.19051 0.0
O105 O 0.80569 0.34753 0.13616 0.0
O106 O 0.80904 0.36388 0.22199 0.0
C107 C 0.82997 0.35279 0.98394 0.0
O108 O 0.83826 0.34355 0.01794 0.0
C109 C 0.8429 0.39844 0.33397 0.0
C110 C 0.83728 0.42457 0.3697 0.0
C111 C 0.84311 0.40901 0.38568 0.0
N112 N 0.83729 0.40736 0.28962 0.0
N113 N 0.83426 0.4232 0.31105 0.0
C114 C 0.84588 0.37877 0.32733 0.0
H115 H 0.83475 0.36552 0.35802 0.0
H116 H 0.8427 0.37257 0.28156 0.0
H117 H 0.86313 0.38347 0.33843 0.0
C118 C 0.87303 0.40175 0.09096 0.0
N119 N 0.85306 0.39243 0.1172 0.0
N120 N 0.85537 0.40115 0.16983 0.0
C121 C 0.87679 0.41603 0.17904 0.0
C122 C 0.88869 0.41693 0.1294 0.0
C123 C 0.87652 0.39896 0.02737 0.0
H124 H 0.86338 0.39916 0.00053 0.0
H125 H 0.87568 0.38283 0.02115 0.0
H126 H 0.89284 0.41219 0.01165 0.0
O127 O 0.80906 0.3921 0.08489 0.0
O128 O 0.81488 0.40966 0.17007 0.0
H129 H 0.87663 0.4397 0.23845 0.0
H130 H 0.90343 0.44178 0.23063 0.0
C131 C 0.88537 0.43024 0.23274 0.0
H132 H 0.88199 0.41957 0.27175 0.0
H133 H 0.82905 0.4323 0.28617 0.0
O134 O 0.82368 0.36542 0.00595 0.0
C135 C 0.80701 0.4056 0.11811 0.0
Co136 Co 0.45328 0.82352 0.43819 0.0
Co137 Co 0.43834 0.82844 0.56414 0.0
C138 C 0.46259 0.80376 0.54242 0.0
O139 O 0.46443 0.80756 0.48741 0.0
O140 O 0.45276 0.81077 0.5753 0.0
C141 C 0.48207 0.83333 0.3352 0.0
O142 O 0.49914 0.84481 0.3697 0.0
C143 C 0.44687 0.84177 0.68676 0.0
C144 C 0.41421 0.8349 0.71859 0.0
C145 C 0.43563 0.84181 0.73671 0.0
N146 N 0.43286 0.83538 0.64097 0.0
N147 N 0.41342 0.83156 0.6601 0.0
C148 C 0.46989 0.84553 0.68359 0.0
H149 H 0.47482 0.84533 0.63744 0.0
H150 H 0.48166 0.86173 0.70328 0.0
H151 H 0.47091 0.83257 0.70927 0.0
C152 C 0.46982 0.87204 0.43827 0.0
N153 N 0.46175 0.8524 0.46584 0.0
N154 N 0.45623 0.85436 0.51988 0.0
C155 C 0.46134 0.8754 0.52911 0.0
C156 C 0.46987 0.88725 0.47757 0.0
C157 C 0.4738 0.87528 0.37343 0.0
H158 H 0.46173 0.86024 0.34945 0.0
H159 H 0.49071 0.87854 0.36365 0.0
H160 H 0.47238 0.88951 0.35741 0.0
O161 O 0.42081 0.80657 0.43526 0.0
O162 O 0.40942 0.81012 0.52354 0.0
H163 H 0.43944 0.87566 0.59443 0.0
H164 H 0.46468 0.90196 0.5858 0.0
C165 C 0.45745 0.88377 0.58585 0.0
H166 H 0.46523 0.87955 0.6221 0.0
H167 H 0.39935 0.82569 0.63378 0.0
O168 O 0.46267 0.82389 0.35633 0.0
C169 C 0.40533 0.80271 0.4711 0.0
Co170 Co 0.62453 0.45368 0.77094 0.0
Co171 Co 0.60113 0.43029 0.88737 0.0
C172 C 0.65099 0.45186 0.86671 0.0
O173 O 0.65141 0.46006 0.81642 0.0
O174 O 0.63288 0.44034 0.89388 0.0
C175 C 0.64806 0.47303 0.6595 0.0
O176 O 0.66528 0.47208 0.67881 0.0
C177 C 0.59987 0.43557 0.01203 0.0
C178 C 0.56806 0.40713 0.04005 0.0
C179 C 0.58655 0.42599 0.06071 0.0
N180 N 0.58958 0.42319 0.9648 0.0
N181 N 0.57056 0.40619 0.98157 0.0
C182 C 0.62296 0.45488 0.00986 0.0
H183 H 0.63461 0.44856 0.00529 0.0
H184 H 0.62486 0.46517 0.97076 0.0
H185 H 0.62781 0.46524 0.04974 0.0
C186 C 0.59885 0.47617 0.79132 0.0
N187 N 0.60687 0.46321 0.8097 0.0
N188 N 0.5963 0.45267 0.8574 0.0
C189 C 0.58106 0.45838 0.87067 0.0
C190 C 0.58207 0.47336 0.82906 0.0
C191 C 0.60449 0.48796 0.7336 0.0
H192 H 0.59687 0.47563 0.69783 0.0
H193 H 0.62266 0.497 0.72741 0.0
H194 H 0.59829 0.49975 0.73066 0.0
O195 O 0.60636 0.42136 0.75487 0.0
O196 O 0.58771 0.40426 0.83547 0.0
H197 H 0.55498 0.42982 0.91249 0.0
H198 H 0.55274 0.45445 0.92006 0.0
C199 C 0.56436 0.44799 0.91875 0.0
H200 H 0.57302 0.45149 0.96159 0.0
H201 H 0.55933 0.39401 0.9532 0.0
O202 O 0.63141 0.46699 0.69252 0.0
C203 C 0.59248 0.40384 0.78166 0.0
H204 H 0.1991 0.56016 0.1953 0.0
H205 H 0.2183 0.54142 0.15723 0.0
H206 H 0.22354 0.57095 0.98728 0.0
H207 H 0.20434 0.58937 0.02426 0.0
H208 H 0.21359 0.52787 0.97774 0.0
H209 H 0.26668 0.5949 0.08733 0.0
H210 H 0.27959 0.61712 0.17815 0.0
H211 H 0.27888 0.56279 0.26828 0.0
H212 H 0.26587 0.54026 0.178 0.0
H213 H 0.3082 0.54831 0.8224 0.0
H214 H 0.27626 0.54518 0.8743 0.0
H215 H 0.29528 0.52344 0.03017 0.0
H216 H 0.32811 0.52814 0.97921 0.0
H217 H 0.28787 0.55273 0.06156 0.0
H218 H 0.24487 0.48928 0.94558 0.0
H219 H 0.23184 0.46613 0.85655 0.0
H220 H 0.21147 0.50952 0.78184 0.0
H221 H 0.22465 0.53312 0.87001 0.0
C222 C 0.20415 0.56245 0.14968 0.0
C223 C 0.20042 0.57648 0.11305 0.0
C224 C 0.21511 0.55175 0.12803 0.0
C225 C 0.22247 0.55493 0.06952 0.0
C226 C 0.21795 0.56819 0.03249 0.0
C227 C 0.2071 0.57888 0.05396 0.0
C228 C 0.23644 0.54612 0.0471 0.0
C229 C 0.22983 0.53316 0.99597 0.0
C230 C 0.2572 0.55228 0.07234 0.0
C231 C 0.26516 0.56589 0.12625 0.0
C232 C 0.26921 0.58771 0.12663 0.0
C233 C 0.27656 0.60035 0.17795 0.0
C234 C 0.28002 0.59136 0.22898 0.0
C235 C 0.27617 0.56972 0.22876 0.0
C236 C 0.26883 0.55703 0.17755 0.0
C237 C 0.30522 0.54236 0.86727 0.0
C238 C 0.32059 0.53853 0.89692 0.0
C239 C 0.28684 0.54039 0.89696 0.0
C240 C 0.28305 0.53378 0.95625 0.0
C241 C 0.29778 0.52863 0.98463 0.0
C242 C 0.3165 0.53124 0.95547 0.0
C243 C 0.2655 0.53501 0.9903 0.0
C244 C 0.27143 0.54663 0.04379 0.0
C245 C 0.24397 0.52725 0.96757 0.0
C246 C 0.23584 0.51302 0.91446 0.0
C247 C 0.23772 0.49396 0.91005 0.0
C248 C 0.23029 0.48075 0.85973 0.0
C249 C 0.22085 0.48636 0.81356 0.0
C250 C 0.21877 0.50518 0.81766 0.0
C251 C 0.22618 0.51846 0.86788 0.0
H252 H 0.21512 0.47612 0.77462 0.0
H253 H 0.28571 0.60117 0.26867 0.0
H254 H 0.63946 0.20856 0.51115 0.0
H255 H 0.67684 0.22957 0.47087 0.0
H256 H 0.64988 0.2218 0.29631 0.0
H257 H 0.61256 0.20074 0.33585 0.0
H258 H 0.68777 0.21809 0.29895 0.0
H259 H 0.6627 0.26726 0.3715 0.0
H260 H 0.64849 0.2821 0.44743 0.0
H261 H 0.70493 0.29844 0.55592 0.0
H262 H 0.71932 0.28342 0.48088 0.0
H263 H 0.76625 0.3113 0.13735 0.0
H264 H 0.73539 0.2799 0.1861 0.0
H265 H 0.76845 0.30259 0.35323 0.0
H266 H 0.79877 0.33452 0.30493 0.0
H267 H 0.72972 0.29632 0.3631 0.0
H268 H 0.75794 0.25222 0.28495 0.0
H269 H 0.77241 0.23747 0.20961 0.0
H270 H 0.71155 0.21133 0.11347 0.0
H271 H 0.6968 0.22618 0.1878 0.0
C272 C 0.64148 0.21105 0.4641 0.0
C273 C 0.623 0.2032 0.42682 0.0
C274 C 0.66285 0.22306 0.44119 0.0
C275 C 0.66608 0.22739 0.38069 0.0
C276 C 0.64774 0.21861 0.34311 0.0
C277 C 0.6264 0.20671 0.36592 0.0
C278 C 0.68832 0.24269 0.35687 0.0
C279 C 0.69701 0.23523 0.31272 0.0
C280 C 0.70054 0.26486 0.37601 0.0
C281 C 0.69194 0.27399 0.42094 0.0
C282 C 0.67198 0.27386 0.41175 0.0
C283 C 0.66391 0.28233 0.45458 0.0
C284 C 0.67576 0.29114 0.50654 0.0
C285 C 0.69575 0.29157 0.5157 0.0
C286 C 0.70387 0.28309 0.47304 0.0
C287 C 0.76715 0.30926 0.18426 0.0
C288 C 0.78478 0.3254 0.21745 0.0
C289 C 0.74954 0.29123 0.21216 0.0
C290 C 0.74956 0.28877 0.2735 0.0
C291 C 0.76794 0.30416 0.30598 0.0
C292 C 0.78529 0.32238 0.27833 0.0
C293 C 0.72941 0.2719 0.30446 0.0
C294 C 0.72092 0.2791 0.34988 0.0
C295 C 0.71754 0.24949 0.28662 0.0
C296 C 0.72632 0.24046 0.24181 0.0
C297 C 0.74769 0.24347 0.24753 0.0
C298 C 0.75594 0.23506 0.20503 0.0
C299 C 0.74293 0.2235 0.15674 0.0
C300 C 0.72161 0.22029 0.1509 0.0
C301 C 0.71329 0.22867 0.19326 0.0
H302 H 0.74934 0.21701 0.12388 0.0
H303 H 0.66949 0.2977 0.53964 0.0
H304 H 0.46557 0.77077 0.48678 0.0
H305 H 0.46407 0.7387 0.53442 0.0
H306 H 0.47153 0.76919 0.70386 0.0
H307 H 0.47275 0.80119 0.65673 0.0
H308 H 0.49043 0.73736 0.68659 0.0
H309 H 0.42418 0.74409 0.67655 0.0
H310 H 0.39962 0.75356 0.62153 0.0
H311 H 0.3879 0.7038 0.49328 0.0
H312 H 0.41276 0.69437 0.54704 0.0
H313 H 0.42589 0.63813 0.85683 0.0
H314 H 0.44366 0.67571 0.81661 0.0
H315 H 0.41967 0.64916 0.64376 0.0
H316 H 0.40166 0.61192 0.68331 0.0
H317 H 0.41106 0.6808 0.66734 0.0
H318 H 0.47448 0.67117 0.68342 0.0
H319 H 0.50089 0.66331 0.73467 0.0
H320 H 0.51882 0.71832 0.85009 0.0
H321 H 0.49228 0.72633 0.8 0.0
C322 C 0.46785 0.77109 0.53391 0.0
C323 C 0.46883 0.78826 0.56816 0.0
C324 C 0.46703 0.75277 0.56106 0.0
C325 C 0.46747 0.75158 0.62258 0.0
C326 C 0.47124 0.76988 0.65633 0.0
C327 C 0.47175 0.78806 0.62932 0.0
C328 C 0.45888 0.72986 0.65121 0.0
C329 C 0.47308 0.72497 0.68301 0.0
C330 C 0.43627 0.71384 0.64622 0.0
C331 C 0.42046 0.71868 0.61543 0.0
C332 C 0.41643 0.73525 0.63646 0.0
C333 C 0.40247 0.74061 0.60552 0.0
C334 C 0.39225 0.72935 0.55383 0.0
C335 C 0.39584 0.71256 0.53325 0.0
C336 C 0.40986 0.70718 0.56395 0.0
C337 C 0.42449 0.64034 0.81025 0.0
C338 C 0.41219 0.62201 0.77344 0.0
C339 C 0.43476 0.6618 0.78727 0.0
C340 C 0.43307 0.66523 0.72709 0.0
C341 C 0.42113 0.64693 0.69034 0.0
C342 C 0.4108 0.62561 0.71317 0.0
C343 C 0.44264 0.68778 0.70217 0.0
C344 C 0.42847 0.693 0.67124 0.0
C345 C 0.46526 0.70398 0.70824 0.0
C346 C 0.48121 0.69919 0.73838 0.0
C347 C 0.48391 0.68147 0.72006 0.0
C348 C 0.49894 0.67701 0.74883 0.0
C349 C 0.51148 0.69027 0.79572 0.0
C350 C 0.50907 0.70804 0.81383 0.0
C351 C 0.49405 0.71256 0.78524 0.0
H352 H 0.52311 0.68679 0.81792 0.0
H353 H 0.38157 0.73364 0.5298 0.0
H354 H 0.6945 0.48148 0.83901 0.0
H355 H 0.72759 0.48422 0.88531 0.0
H356 H 0.68606 0.43027 0.0009 0.0
H357 H 0.65351 0.42804 0.95708 0.0
H358 H 0.71901 0.4584 0.06054 0.0
H359 H 0.70955 0.42423 0.86712 0.0
H360 H 0.70753 0.42377 0.75884 0.0
H361 H 0.77245 0.48085 0.7508 0.0
H362 H 0.77473 0.48174 0.85913 0.0
H363 H 0.77869 0.39231 0.02575 0.0
H364 H 0.75882 0.40964 0.98608 0.0
H365 H 0.78915 0.46159 0.1154 0.0
H366 H 0.8086 0.44364 0.15718 0.0
H367 H 0.76985 0.44625 0.93492 0.0
H368 H 0.75324 0.4806 0.14533 0.0
H369 H 0.75024 0.47437 0.25253 0.0
H370 H 0.7298 0.40601 0.22521 0.0
H371 H 0.73245 0.41179 0.11793 0.0
C372 C 0.69255 0.47038 0.87464 0.0
C373 C 0.67138 0.45454 0.89425 0.0
C374 C 0.71143 0.47194 0.90104 0.0
C375 C 0.70936 0.45737 0.94651 0.0
C376 C 0.68821 0.44188 0.96647 0.0
C377 C 0.66951 0.44055 0.94096 0.0
C378 C 0.72869 0.45677 0.97162 0.0
C379 C 0.73036 0.45608 0.03304 0.0
C380 C 0.74355 0.45375 0.936 0.0
C381 C 0.74218 0.45323 0.87106 0.0
C382 C 0.72332 0.43675 0.8422 0.0
C383 C 0.72214 0.43641 0.78087 0.0
C384 C 0.73982 0.45232 0.74797 0.0
C385 C 0.75875 0.46857 0.77635 0.0
C386 C 0.75999 0.46901 0.83768 0.0
C387 C 0.78119 0.40743 0.04591 0.0
C388 C 0.79513 0.41654 0.09485 0.0
C389 C 0.7699 0.41743 0.02285 0.0
C390 C 0.77243 0.43694 0.04762 0.0
C391 C 0.7867 0.44639 0.09592 0.0
C392 C 0.79779 0.43613 0.11979 0.0
C393 C 0.75917 0.44642 0.02366 0.0
C394 C 0.75893 0.44917 0.96254 0.0
C395 C 0.74497 0.4504 0.05944 0.0
C396 C 0.74339 0.44673 0.12378 0.0
C397 C 0.74813 0.46425 0.16229 0.0
C398 C 0.74646 0.4608 0.22302 0.0
C399 C 0.73993 0.43983 0.24567 0.0
C400 C 0.73496 0.42226 0.20763 0.0
C401 C 0.73656 0.42562 0.14688 0.0
H402 H 0.73865 0.43719 0.29269 0.0
H403 H 0.73888 0.45203 0.70049 0.0
H404 H 0.36741 0.78065 0.53662 0.0
H405 H 0.32952 0.7579 0.49973 0.0
H406 H 0.35345 0.77293 0.32162 0.0
H407 H 0.39113 0.79541 0.35776 0.0
H408 H 0.3148 0.7751 0.33969 0.0
H409 H 0.34306 0.72522 0.37366 0.0
H410 H 0.35962 0.70764 0.43267 0.0
H411 H 0.30672 0.68555 0.55747 0.0
H412 H 0.28982 0.70303 0.49895 0.0
H413 H 0.23621 0.6869 0.16184 0.0
H414 H 0.26758 0.71672 0.21403 0.0
H415 H 0.23656 0.68821 0.37991 0.0
H416 H 0.20554 0.65818 0.3282 0.0
H417 H 0.27645 0.69454 0.37869 0.0
H418 H 0.24453 0.73899 0.3327 0.0
H419 H 0.22789 0.75565 0.27032 0.0
H420 H 0.28722 0.78817 0.16752 0.0
H421 H 0.30412 0.77145 0.22876 0.0
C422 C 0.36454 0.77921 0.48965 0.0
C423 C 0.38227 0.78968 0.45012 0.0
C424 C 0.34293 0.76623 0.46868 0.0
C425 C 0.33875 0.76376 0.40796 0.0
C426 C 0.35633 0.77471 0.3686 0.0
C427 C 0.37788 0.78741 0.38941 0.0
C428 C 0.3163 0.74881 0.38482 0.0
C429 C 0.30635 0.75746 0.348 0.0
C430 C 0.30515 0.72593 0.39682 0.0
C431 C 0.31535 0.71564 0.4324 0.0
C432 C 0.33507 0.71676 0.41394 0.0
C433 C 0.34446 0.70675 0.44717 0.0
C434 C 0.33429 0.69556 0.49896 0.0
C435 C 0.31461 0.69426 0.51743 0.0
C436 C 0.30509 0.70417 0.48417 0.0
C437 C 0.23586 0.68729 0.20938 0.0
C438 C 0.21853 0.67008 0.24089 0.0
C439 C 0.25377 0.70438 0.23923 0.0
C440 C 0.25444 0.70472 0.301 0.0
C441 C 0.23648 0.68824 0.33231 0.0
C442 C 0.21875 0.67109 0.30262 0.0
C443 C 0.27479 0.72069 0.3328 0.0
C444 C 0.28449 0.71221 0.37116 0.0
C445 C 0.28562 0.74371 0.32212 0.0
C446 C 0.27553 0.75381 0.2851 0.0
C447 C 0.25397 0.74955 0.2965 0.0
C448 C 0.24451 0.75904 0.26139 0.0
C449 C 0.25647 0.77293 0.21491 0.0
C450 C 0.27796 0.77739 0.20352 0.0
C451 C 0.28751 0.76794 0.23848 0.0
H452 H 0.24911 0.78026 0.18779 0.0
H453 H 0.34162 0.68785 0.5247 0.0
H454 H 0.54686 0.21489 0.63113 0.0
H455 H 0.54613 0.24745 0.66604 0.0
H456 H 0.5449 0.26714 0.48722 0.0
H457 H 0.54507 0.23408 0.4516 0.0
H458 H 0.58069 0.29853 0.5593 0.0
H459 H 0.50186 0.25478 0.56452 0.0
H460 H 0.46607 0.22213 0.58922 0.0
H461 H 0.48139 0.23388 0.773 0.0
H462 H 0.51743 0.26642 0.74941 0.0
H463 H 0.58979 0.39758 0.66297 0.0
H464 H 0.57586 0.36278 0.60991 0.0
H465 H 0.55928 0.32738 0.77442 0.0
H466 H 0.57244 0.36211 0.82773 0.0
H467 H 0.52893 0.30406 0.69777 0.0
H468 H 0.60793 0.34243 0.69831 0.0
H469 H 0.64594 0.3727 0.68063 0.0
H470 H 0.63314 0.3686 0.49519 0.0
H471 H 0.59486 0.33869 0.5119 0.0
C472 C 0.54584 0.22578 0.59912 0.0
C473 C 0.54606 0.22191 0.53858 0.0
C474 C 0.54536 0.24437 0.61921 0.0
C475 C 0.54537 0.2596 0.57919 0.0
C476 C 0.54474 0.25543 0.51871 0.0
C477 C 0.54481 0.23656 0.49849 0.0
C478 C 0.5489 0.28104 0.601 0.0
C479 C 0.56914 0.29993 0.58831 0.0
C480 C 0.53416 0.2825 0.64074 0.0
C481 C 0.51243 0.26299 0.65513 0.0
C482 C 0.49768 0.25031 0.61019 0.0
C483 C 0.47733 0.23184 0.62401 0.0
C484 C 0.47148 0.22591 0.68264 0.0
C485 C 0.48595 0.23848 0.72759 0.0
C486 C 0.50633 0.25697 0.71402 0.0
C487 C 0.583 0.38236 0.68787 0.0
C488 C 0.58243 0.3826 0.74961 0.0
C489 C 0.57508 0.36248 0.65744 0.0
C490 C 0.56693 0.34249 0.68816 0.0
C491 C 0.56553 0.34259 0.74972 0.0
C492 C 0.57312 0.36246 0.78018 0.0
C493 C 0.56091 0.32164 0.65653 0.0
C494 C 0.5403 0.30284 0.66769 0.0
C495 C 0.57559 0.32009 0.61644 0.0
C496 C 0.59842 0.33853 0.60646 0.0
C497 C 0.61312 0.34819 0.65383 0.0
C498 C 0.63473 0.36526 0.64398 0.0
C499 C 0.64193 0.37262 0.58685 0.0
C500 C 0.62752 0.36294 0.53945 0.0
C501 C 0.60585 0.34597 0.5491 0.0
H502 H 0.65869 0.38579 0.57931 0.0
H503 H 0.45571 0.2116 0.69323 0.0
H504 H 0.19817 0.63527 0.92307 0.0
H505 H 0.19398 0.63167 0.81692 0.0
H506 H 0.15146 0.65992 0.82119 0.0
H507 H 0.15554 0.66351 0.92857 0.0
H508 H 0.13315 0.62093 0.76048 0.0
H509 H 0.20105 0.68847 0.75649 0.0
H510 H 0.23944 0.71547 0.78351 0.0
H511 H 0.26106 0.67167 0.71924 0.0
H512 H 0.22275 0.64423 0.69265 0.0
H513 H 0.1286 0.60554 0.44613 0.0
H514 H 0.13265 0.62171 0.54384 0.0
H515 H 0.17961 0.60124 0.59005 0.0
H516 H 0.17636 0.58597 0.49177 0.0
H517 H 0.19475 0.64373 0.61917 0.0
H518 H 0.12607 0.57412 0.6404 0.0
H519 H 0.08761 0.54669 0.61494 0.0
H520 H 0.0677 0.59473 0.64737 0.0
H521 H 0.10613 0.62254 0.67233 0.0
C522 C 0.18822 0.64109 0.90144 0.0
C523 C 0.17714 0.64963 0.93412 0.0
C524 C 0.18594 0.63914 0.84064 0.0
C525 C 0.17254 0.64568 0.81107 0.0
C526 C 0.16196 0.65488 0.84324 0.0
C527 C 0.1644 0.65703 0.90441 0.0
C528 C 0.16829 0.64092 0.74747 0.0
C529 C 0.14655 0.62637 0.72912 0.0
C530 C 0.18582 0.64777 0.70688 0.0
C531 C 0.20895 0.66423 0.7228 0.0
C532 C 0.21395 0.68451 0.7485 0.0
C533 C 0.23572 0.69991 0.76368 0.0
C534 C 0.25267 0.69528 0.75316 0.0
C535 C 0.2479 0.67524 0.72735 0.0
C536 C 0.22616 0.65977 0.71212 0.0
C537 C 0.14 0.60476 0.47678 0.0
C538 C 0.15259 0.59499 0.46073 0.0
C539 C 0.14208 0.61375 0.53291 0.0
C540 C 0.15655 0.61281 0.5741 0.0
C541 C 0.1685 0.60234 0.55875 0.0
C542 C 0.16647 0.59343 0.50275 0.0
C543 C 0.15976 0.62305 0.63298 0.0
C544 C 0.18131 0.63868 0.65022 0.0
C545 C 0.14207 0.61718 0.6725 0.0
C546 C 0.119 0.60047 0.65749 0.0
C547 C 0.11352 0.57888 0.64159 0.0
C548 C 0.09172 0.56326 0.62737 0.0
C549 C 0.07523 0.56898 0.62934 0.0
C550 C 0.0805 0.59033 0.64573 0.0
C551 C 0.10228 0.60602 0.65995 0.0
H552 H 0.05837 0.55686 0.61833 0.0
H553 H 0.26951 0.70723 0.76494 0.0
H554 H 0.56684 0.14262 0.82027 0.0
H555 H 0.55142 0.14216 0.91758 0.0
H556 H 0.53483 0.19081 0.85912 0.0
H557 H 0.55048 0.19157 0.76273 0.0
H558 H 0.55662 0.20132 0.9642 0.0
H559 H 0.49439 0.13954 0.87675 0.0
H560 H 0.47464 0.10424 0.82313 0.0
H561 H 0.49057 0.07203 0.95942 0.0
H562 H 0.51074 0.10722 0.01346 0.0
H563 H 0.51317 0.1973 0.2455 0.0
H564 H 0.5103 0.19301 0.13835 0.0
H565 H 0.52748 0.14181 0.15019 0.0
H566 H 0.53001 0.1457 0.25634 0.0
H567 H 0.49878 0.13344 0.06181 0.0
H568 H 0.56738 0.19539 0.13505 0.0
H569 H 0.58926 0.23037 0.18903 0.0
H570 H 0.56298 0.2617 0.07912 0.0
H571 H 0.54071 0.22678 0.02497 0.0
C572 C 0.5598 0.1531 0.82841 0.0
C573 C 0.55935 0.16675 0.78399 0.0
C574 C 0.55087 0.15272 0.88356 0.0
C575 C 0.54164 0.16616 0.89491 0.0
C576 C 0.5416 0.1801 0.85081 0.0
C577 C 0.55036 0.18037 0.79574 0.0
C578 C 0.53321 0.16664 0.95393 0.0
C579 C 0.5436 0.1866 0.9851 0.0
C580 C 0.51645 0.14734 0.98115 0.0
C581 C 0.50421 0.12608 0.94898 0.0
C582 C 0.49383 0.12497 0.89509 0.0
C583 C 0.48253 0.10497 0.86465 0.0
C584 C 0.48138 0.08591 0.8878 0.0
C585 C 0.49148 0.08681 0.94152 0.0
C586 C 0.50283 0.10678 0.97212 0.0
C587 C 0.51577 0.18477 0.22525 0.0
C588 C 0.52229 0.17218 0.25902 0.0
C589 C 0.51415 0.18235 0.16417 0.0
C590 C 0.51907 0.16737 0.13646 0.0
C591 C 0.52368 0.1535 0.17068 0.0
C592 C 0.52532 0.15591 0.23139 0.0
C593 C 0.52256 0.168 0.07238 0.0
C594 C 0.51133 0.14827 0.04025 0.0
C595 C 0.53875 0.18745 0.04428 0.0
C596 C 0.55219 0.20845 0.07654 0.0
C597 C 0.56616 0.20971 0.12271 0.0
C598 C 0.57864 0.22952 0.15328 0.0
C599 C 0.57745 0.24823 0.13765 0.0
C600 C 0.56383 0.24718 0.09128 0.0
C601 C 0.55128 0.22739 0.06064 0.0
H602 H 0.58713 0.26355 0.16135 0.0
H603 H 0.47262 0.07044 0.86416 0.0
H604 H 0.34118 0.48842 0.59211 0.0
H605 H 0.34551 0.48869 0.48493 0.0
H606 H 0.35702 0.55531 0.47814 0.0
H607 H 0.35282 0.55516 0.58444 0.0
H608 H 0.33226 0.53 0.38348 0.0
H609 H 0.39936 0.54718 0.49077 0.0
H610 H 0.42048 0.53852 0.5623 0.0
H611 H 0.40713 0.481 0.46256 0.0
H612 H 0.38556 0.48912 0.39098 0.0
H613 H 0.40227 0.58962 0.15399 0.0
H614 H 0.38818 0.57572 0.25235 0.0
H615 H 0.38298 0.51326 0.20841 0.0
H616 H 0.39766 0.52736 0.11015 0.0
H617 H 0.39949 0.52818 0.3222 0.0
H618 H 0.33757 0.51534 0.20493 0.0
H619 H 0.31792 0.52571 0.13302 0.0
H620 H 0.32214 0.57573 0.25049 0.0
H621 H 0.34203 0.56583 0.32285 0.0
C622 C 0.34406 0.50287 0.56744 0.0
C623 C 0.34688 0.52185 0.59645 0.0
C624 C 0.34661 0.50304 0.50639 0.0
C625 C 0.3518 0.52211 0.47383 0.0
C626 C 0.35301 0.54044 0.50243 0.0
C627 C 0.35073 0.54037 0.5632 0.0
C628 C 0.35841 0.52424 0.41138 0.0
C629 C 0.34688 0.52949 0.36995 0.0
C630 C 0.37729 0.52321 0.39366 0.0
C631 C 0.39062 0.51859 0.43597 0.0
C632 C 0.4008 0.5326 0.48433 0.0
C633 C 0.41286 0.5278 0.52486 0.0
C634 C 0.41508 0.50918 0.51708 0.0
C635 C 0.40534 0.49539 0.4686 0.0
C636 C 0.39319 0.50007 0.42806 0.0
C637 C 0.39841 0.57304 0.16555 0.0
C638 C 0.40051 0.55936 0.12409 0.0
C639 C 0.39022 0.56506 0.22152 0.0
C640 C 0.38407 0.5433 0.23704 0.0
C641 C 0.38734 0.52999 0.19687 0.0
C642 C 0.39547 0.53797 0.14065 0.0
C643 C 0.37365 0.53448 0.29475 0.0
C644 C 0.38451 0.52806 0.33524 0.0
C645 C 0.35416 0.53446 0.31164 0.0
C646 C 0.3414 0.5399 0.26924 0.0
C647 C 0.33434 0.52858 0.2154 0.0
C648 C 0.32315 0.53437 0.17456 0.0
C649 C 0.31879 0.55137 0.18717 0.0
C650 C 0.32548 0.56252 0.24083 0.0
C651 C 0.33668 0.5568 0.28184 0.0
H652 H 0.31028 0.55593 0.15532 0.0
H653 H 0.42438 0.50546 0.54856 0.0
H654 H 0.80354 0.35808 0.90672 0.0
H655 H 0.80703 0.36093 0.80033 0.0
H656 H 0.8606 0.34706 0.80821 0.0
H657 H 0.85714 0.34416 0.91581 0.0
H658 H 0.87123 0.38475 0.74613 0.0
H659 H 0.81364 0.31032 0.74308 0.0
H660 H 0.77817 0.27767 0.7699 0.0
H661 H 0.74316 0.30883 0.70219 0.0
H662 H 0.77842 0.34184 0.67581 0.0
H663 H 0.87277 0.39811 0.43153 0.0
H664 H 0.87184 0.38299 0.52921 0.0
H665 H 0.81593 0.39028 0.5749 0.0
H666 H 0.81636 0.40471 0.47676 0.0
H667 H 0.80934 0.34949 0.60374 0.0
H668 H 0.86719 0.42601 0.62541 0.0
H669 H 0.90261 0.45913 0.6005 0.0
H670 H 0.93692 0.42365 0.63414 0.0
H671 H 0.90164 0.39021 0.65854 0.0
C672 C 0.81581 0.35522 0.88581 0.0
C673 C 0.83013 0.35097 0.91946 0.0
C674 C 0.8177 0.35672 0.82493 0.0
C675 C 0.83397 0.35405 0.79633 0.0
C676 C 0.84785 0.34904 0.82954 0.0
C677 C 0.8458 0.34729 0.8908 0.0
C678 C 0.8376 0.35882 0.73268 0.0
C679 C 0.8579 0.37664 0.71453 0.0
C680 C 0.82007 0.34846 0.69183 0.0
C681 C 0.79874 0.32863 0.70768 0.0
C682 C 0.79839 0.3103 0.7343 0.0
C683 C 0.77831 0.29171 0.74937 0.0
C684 C 0.75842 0.29119 0.73782 0.0
C685 C 0.75858 0.30926 0.71111 0.0
C686 C 0.77862 0.3279 0.69599 0.0
C687 C 0.86014 0.39623 0.46216 0.0
C688 C 0.84433 0.40212 0.44623 0.0
C689 C 0.85978 0.38782 0.51814 0.0
C690 C 0.84372 0.38539 0.55911 0.0
C691 C 0.82834 0.39186 0.54371 0.0
C692 C 0.82872 0.40028 0.4879 0.0
C693 C 0.84263 0.37593 0.61803 0.0
C694 C 0.82282 0.35722 0.63504 0.0
C695 C 0.86058 0.38548 0.65782 0.0
C696 C 0.88176 0.40554 0.64302 0.0
C697 C 0.88226 0.42521 0.62694 0.0
C698 C 0.90232 0.44405 0.61304 0.0
C699 C 0.92199 0.44347 0.61552 0.0
C700 C 0.92166 0.42406 0.63209 0.0
C701 C 0.90165 0.40516 0.64598 0.0
H702 H 0.9375 0.45808 0.60477 0.0
H703 H 0.74289 0.27677 0.74951 0.0
H704 H 0.5146 0.86581 0.26822 0.0
H705 H 0.51407 0.86969 0.16109 0.0
H706 H 0.45434 0.80634 0.15075 0.0
H707 H 0.4547 0.80246 0.25721 0.0
H708 H 0.48286 0.81416 0.05587 0.0
H709 H 0.44994 0.85017 0.16508 0.0
H710 H 0.45101 0.87629 0.23958 0.0
H711 H 0.50404 0.93019 0.14691 0.0
H712 H 0.50357 0.90428 0.07243 0.0
H713 H 0.41598 0.81252 0.825 0.0
H714 H 0.43055 0.81403 0.92387 0.0
H715 H 0.48715 0.87759 0.88497 0.0
H716 H 0.47252 0.87615 0.78582 0.0
H717 H 0.46787 0.87404 -0.00079 0.0
H718 H 0.49533 0.83734 0.87894 0.0
H719 H 0.49259 0.81027 0.80518 0.0
H720 H 0.44894 0.75706 0.91821 0.0
H721 H 0.45101 0.78382 0.99217 0.0
C722 C 0.50174 0.85247 0.24281 0.0
C723 C 0.48457 0.83394 0.27086 0.0
C724 C 0.50142 0.85473 0.18177 0.0
C725 C 0.48404 0.83838 0.14824 0.0
C726 C 0.46789 0.81912 0.17584 0.0
C727 C 0.46806 0.81698 0.23666 0.0
C728 C 0.48083 0.84228 0.08606 0.0
C729 C 0.47967 0.82728 0.04332 0.0
C730 C 0.47699 0.85962 0.06977 0.0
C731 C 0.47692 0.87527 0.11364 0.0
C732 C 0.46194 0.86757 0.16083 0.0
C733 C 0.46243 0.88233 0.20304 0.0
C734 C 0.47764 0.90488 0.1981 0.0
C735 C 0.49232 0.91271 0.15077 0.0
C736 C 0.49195 0.898 0.10856 0.0
C737 C 0.43138 0.82691 0.83789 0.0
C738 C 0.44335 0.84406 0.79785 0.0
C739 C 0.43974 0.82771 0.89406 0.0
C740 C 0.46008 0.84576 0.91117 0.0
C741 C 0.47153 0.86345 0.87223 0.0
C742 C 0.46328 0.86253 0.81569 0.0
C743 C 0.46947 0.84565 0.96929 0.0
C744 C 0.47166 0.86129 0.01129 0.0
C745 C 0.47417 0.82883 0.9849 0.0
C746 C 0.47321 0.81263 0.94101 0.0
C747 C 0.48501 0.81987 0.88794 0.0
C748 C 0.48359 0.80458 0.84607 0.0
C749 C 0.47058 0.78196 0.85697 0.0
C750 C 0.459 0.77459 0.90982 0.0
C751 C 0.4603 0.78982 0.95176 0.0
H752 H 0.4695 0.77014 0.82451 0.0
H753 H 0.47801 0.91628 0.23085 0.0
H754 H 0.58057 0.40065 0.15698 0.0
H755 H 0.59173 0.41323 0.25808 0.0
H756 H 0.61562 0.48058 0.20287 0.0
H757 H 0.60206 0.46763 0.10387 0.0
H758 H 0.62896 0.4357 0.30211 0.0
H759 H 0.61937 0.51365 0.31274 0.0
H760 H 0.59472 0.52654 0.27443 0.0
H761 H 0.54227 0.4594 0.25612 0.0
H762 H 0.56651 0.44612 0.29498 0.0
H763 H 0.6786 0.48432 0.57067 0.0
H764 H 0.6714 0.48351 0.46496 0.0
H765 H 0.60456 0.468 0.50164 0.0
H766 H 0.61191 0.46999 0.60576 0.0
H767 H 0.61585 0.48994 0.40874 0.0
H768 H 0.62048 0.42787 0.48089 0.0
H769 H 0.63867 0.40967 0.52921 0.0
H770 H 0.68859 0.43402 0.3953 0.0
H771 H 0.67101 0.45299 0.34713 0.0
C772 C 0.58779 0.41806 0.16696 0.0
C773 C 0.59134 0.43332 0.12238 0.0
C774 C 0.59438 0.42529 0.22451 0.0
C775 C 0.60477 0.44792 0.2383 0.0
C776 C 0.60751 0.46303 0.1939 0.0
C777 C 0.60025 0.45569 0.13689 0.0
C778 C 0.61344 0.4557 0.29847 0.0
C779 C 0.62602 0.44754 0.32532 0.0
C780 C 0.60961 0.47109 0.32923 0.0
C781 C 0.59485 0.47891 0.30611 0.0
C782 C 0.60256 0.50165 0.30067 0.0
C783 C 0.58866 0.50902 0.27884 0.0
C784 C 0.56697 0.4938 0.26264 0.0
C785 C 0.55911 0.47117 0.26844 0.0
C786 C 0.57293 0.46371 0.29029 0.0
C787 C 0.66258 0.48132 0.55603 0.0
C788 C 0.64571 0.47678 0.59665 0.0
C789 C 0.65844 0.48076 0.49566 0.0
C790 C 0.63723 0.47508 0.47528 0.0
C791 C 0.62103 0.47233 0.51599 0.0
C792 C 0.62526 0.47333 0.57589 0.0
C793 C 0.63081 0.46948 0.41277 0.0
C794 C 0.61888 0.47822 0.38518 0.0
C795 C 0.63415 0.45368 0.38258 0.0
C796 C 0.64461 0.44208 0.41088 0.0
C797 C 0.63542 0.42947 0.46197 0.0
C798 C 0.64563 0.41902 0.48934 0.0
C799 C 0.66479 0.42066 0.46535 0.0
C800 C 0.67378 0.43279 0.41391 0.0
C801 C 0.66374 0.44346 0.38665 0.0
H802 H 0.67265 0.41251 0.48654 0.0
H803 H 0.55625 0.49953 0.24573 0.0
H804 H 0.90649 0.46138 0.13117 0.0
H805 H 0.9451 0.48951 0.11546 0.0
H806 H 0.961 0.43846 0.07877 0.0
H807 H 0.92223 0.41017 0.09614 0.0
H808 H 0.98919 0.46748 0.15603 0.0
H809 H 0.96127 0.47213 0.96933 0.0
H810 H 0.93596 0.47514 0.8994 0.0
H811 H 0.95317 0.53872 0.97003 0.0
H812 H 0.97835 0.53595 0.04103 0.0
H813 H 0.09948 0.5469 0.08983 0.0
H814 H 0.06145 0.51736 0.07083 0.0
H815 H 0.03719 0.56016 0.12842 0.0
H816 H 0.07535 0.58975 0.14727 0.0
H817 H 0.01425 0.53362 0.02955 0.0
H818 H 0.03833 0.52624 0.22346 0.0
H819 H 0.0637 0.52324 0.29328 0.0
H820 H 0.0535 0.46428 0.20675 0.0
H821 H 0.02826 0.4671 0.13589 0.0
C822 C 0.91827 0.45623 0.11964 0.0
C823 C 0.91167 0.43375 0.1157 0.0
C824 C 0.94024 0.47227 0.11004 0.0
C825 C 0.9559 0.46609 0.09542 0.0
C826 C 0.94916 0.44356 0.08993 0.0
C827 C 0.92712 0.42748 0.09971 0.0
C828 C 0.97951 0.48318 0.09019 0.0
C829 C 0.99473 0.48168 0.12734 0.0
C830 C 0.98666 0.50194 0.05367 0.0
C831 C 0.9716 0.50375 0.01081 0.0
C832 C 0.95954 0.48668 0.97026 0.0
C833 C 0.94523 0.48836 0.93037 0.0
C834 C 0.94293 0.50709 0.93033 0.0
C835 C 0.95497 0.52421 0.97012 0.0
C836 C 0.96929 0.52261 0.01015 0.0
C837 C 0.08596 0.55001 0.09725 0.0
C838 C 0.09001 0.57034 0.11988 0.0
C839 C 0.06436 0.53322 0.08654 0.0
C840 C 0.04658 0.53658 0.0987 0.0
C841 C 0.05074 0.55733 0.11864 0.0
C842 C 0.0724 0.57413 0.12951 0.0
C843 C 0.02367 0.5179 0.09572 0.0
C844 C 0.00866 0.51919 0.05734 0.0
C845 C 0.01667 0.49889 0.13097 0.0
C846 C 0.0316 0.49701 0.17401 0.0
C847 C 0.04162 0.51272 0.21907 0.0
C848 C 0.05595 0.51104 0.25887 0.0
C849 C 0.06027 0.49363 0.25433 0.0
C850 C 0.05017 0.47779 0.21013 0.0
C851 C 0.03584 0.47941 0.17018 0.0
H852 H 0.07139 0.49237 0.28515 0.0
H853 H 0.93184 0.50836 0.89942 0.0
H854 H 0.53872 0.09438 0.40246 0.0
H855 H 0.52772 0.05538 0.3925 0.0
H856 H 0.48621 0.04007 0.54579 0.0
H857 H 0.49792 0.07938 0.55673 0.0
H858 H 0.50828 0.01973 0.55308 0.0
H859 H 0.46492 0.02698 0.4028 0.0
H860 H 0.45728 0.04313 0.31585 0.0
H861 H 0.49942 0.02847 0.21119 0.0
H862 H 0.50759 0.01253 0.29778 0.0
H863 H 0.44303 0.90413 0.49947 0.0
H864 H 0.45222 0.9427 0.49072 0.0
H865 H 0.51518 0.95946 0.41483 0.0
H866 H 0.50643 0.92088 0.42593 0.0
H867 H 0.48181 0.97818 0.36574 0.0
H868 H 0.52713 0.97427 0.52757 0.0
H869 H 0.53032 0.95556 0.61584 0.0
H870 H 0.4787 0.96183 0.6995 0.0
H871 H 0.47498 0.98027 0.61122 0.0
C872 C 0.52704 0.08258 0.43347 0.0
C873 C 0.5189 0.08962 0.47995 0.0
C874 C 0.52071 0.06033 0.42773 0.0
C875 C 0.50585 0.04471 0.46782 0.0
C876 C 0.49765 0.05181 0.51423 0.0
C877 C 0.50422 0.07415 0.52039 0.0
C878 C 0.49963 0.02115 0.46273 0.0
C879 C 0.50234 0.0107 0.51212 0.0
C880 C 0.49199 0.00928 0.40924 0.0
C881 C 0.48704 0.01875 0.35696 0.0
C882 C 0.4727 0.02735 0.36136 0.0
C883 C 0.46825 0.03645 0.31212 0.0
C884 C 0.4779 0.03688 0.25806 0.0
C885 C 0.49198 0.02815 0.25311 0.0
C886 C 0.49651 0.01907 0.30225 0.0
C887 C 0.45883 0.91606 0.48094 0.0
C888 C 0.47433 0.90982 0.46491 0.0
C889 C 0.46392 0.93795 0.47539 0.0
C890 C 0.48437 0.95377 0.45249 0.0
C891 C 0.4993 0.94734 0.43255 0.0
C892 C 0.49433 0.92543 0.439 0.0
C893 C 0.49087 0.97728 0.45555 0.0
C894 C 0.48799 0.98751 0.40617 0.0
C895 C 0.49799 0.9889 0.50912 0.0
C896 C 0.50064 0.97842 0.56271 0.0
C897 C 0.51636 0.9715 0.56465 0.0
C898 C 0.51828 0.96097 0.61467 0.0
C899 C 0.50467 0.95745 0.66319 0.0
C900 C 0.4892 0.96454 0.66186 0.0
C901 C 0.48719 0.97504 0.61188 0.0
H902 H 0.50617 0.94927 0.70186 0.0
H903 H 0.47444 0.04392 0.21999 0.0
H904 H 0.45718 0.55581 0.80043 0.0
H905 H 0.48507 0.54466 0.78922 0.0
H906 H 0.43343 0.47664 0.77147 0.0
H907 H 0.40544 0.4879 0.78323 0.0
H908 H 0.46386 0.48205 0.85425 0.0
H909 H 0.46476 0.50339 0.65515 0.0
H910 H 0.46655 0.52762 0.5741 0.0
H911 H 0.53157 0.57701 0.62891 0.0
H912 H 0.53006 0.55323 0.71089 0.0
H913 H 0.53928 0.44477 0.80361 0.0
H914 H 0.50977 0.45329 0.78591 0.0
H915 H 0.55646 0.52277 0.80758 0.0
H916 H 0.58613 0.51417 0.82489 0.0
H917 H 0.52705 0.51434 0.71555 0.0
H918 H 0.52457 0.49451 0.91911 0.0
H919 H 0.52302 0.47053 0.00058 0.0
H920 H 0.46062 0.41854 0.93739 0.0
H921 H 0.462 0.44209 0.85486 0.0
C922 C 0.45188 0.53853 0.79344 0.0
C923 C 0.42936 0.5226 0.79327 0.0
C924 C 0.46774 0.53219 0.78668 0.0
C925 C 0.46129 0.50984 0.77926 0.0
C926 C 0.4387 0.49397 0.77711 0.0
C927 C 0.4228 0.50036 0.78366 0.0
C928 C 0.4782 0.50302 0.77874 0.0
C929 C 0.47742 0.48874 0.82312 0.0
C930 C 0.49617 0.51225 0.73905 0.0
C931 C 0.49723 0.52657 0.6895 0.0
C932 C 0.47938 0.51949 0.65023 0.0
C933 C 0.48035 0.53313 0.60406 0.0
C934 C 0.49914 0.55385 0.59643 0.0
C935 C 0.51702 0.56095 0.63489 0.0
C936 C 0.51613 0.54738 0.68118 0.0
C937 C 0.54316 0.46184 0.80449 0.0
C938 C 0.56472 0.47886 0.81644 0.0
C939 C 0.52639 0.46669 0.79424 0.0
C940 C 0.53092 0.48862 0.79617 0.0
C941 C 0.55267 0.50574 0.80598 0.0
C942 C 0.56951 0.50086 0.81614 0.0
C943 C 0.5127 0.49351 0.79122 0.0
C944 C 0.51331 0.50747 0.74609 0.0
C945 C 0.49454 0.48404 0.83029 0.0
C946 C 0.4935 0.46998 0.88046 0.0
C947 C 0.5106 0.47791 0.92234 0.0
C948 C 0.50974 0.4644 0.96873 0.0
C949 C 0.49176 0.443 0.97408 0.0
C950 C 0.47456 0.4351 0.93314 0.0
C951 C 0.47536 0.44853 0.88655 0.0
H952 H 0.49113 0.43257 0.01002 0.0
H953 H 0.49986 0.5644 0.56066 0.0
loop_
_geom_bond_atom_site_label_1
_geom_bond_atom_site_label_2
_geom_bond_distance
_geom_bond_site_symmetry_2
_ccdc_geom_bond_type
Co0 O3 1.970 . S
Co0 N17 1.989 . S
Co0 O25 1.967 . S
Co0 O32 1.920 . S
Co1 O4 1.966 . S
Co1 N10 2.022 . S
Co1 N18 1.993 . S
Co1 O26 1.941 . S
C2 O3 1.258 . S
C2 O4 1.263 . S
O3 Co0 1.970 . S
O3 C2 1.258 . S
O4 Co1 1.966 . S
O4 C2 1.263 . S
C5 O6 1.235 1_556 S
C5 O32 1.289 1_556 S
O6 C5 1.235 1_554 S
C7 C9 1.400 . S
C7 N10 1.351 . S
C7 C12 1.501 . S
C8 C9 1.387 . S
C8 N11 1.341 . S
C9 C7 1.400 . S
C9 C8 1.387 . S
N10 Co1 2.022 . S
N10 C7 1.351 . S
N10 N11 1.365 . S
N11 C8 1.341 . S
N11 N10 1.365 . S
N11 H31 0.862 . S
C12 C7 1.501 . S
C12 H13 0.961 . S
C12 H14 0.961 . S
C12 H15 0.960 . S
H13 C12 0.961 . S
H14 C12 0.961 . S
H15 C12 0.960 . S
C16 N17 1.342 . S
C16 C20 1.401 . S
C16 C21 1.499 . S
N17 Co0 1.989 . S
N17 C16 1.342 . S
N17 N18 1.388 . S
N18 Co1 1.993 . S
N18 N17 1.388 . S
N18 C19 1.346 . S
C19 N18 1.346 . S
C19 C20 1.396 . S
C19 C29 1.510 . S
C20 C16 1.401 . S
C20 C19 1.396 . S
C21 C16 1.499 . S
C21 H22 0.959 . S
C21 H23 0.960 . S
C21 H24 0.961 . S
H22 C21 0.959 . S
H23 C21 0.960 . S
H24 C21 0.961 . S
O25 Co0 1.967 . S
O25 C33 1.258 . S
O26 Co1 1.941 . S
O26 C33 1.266 . S
H27 C29 0.959 . S
H28 C29 0.961 . S
C29 C19 1.510 . S
C29 H27 0.959 . S
C29 H28 0.961 . S
C29 H30 0.960 . S
H30 C29 0.960 . S
H31 N11 0.862 . S
O32 Co0 1.920 . S
O32 C5 1.289 1_554 S
C33 O25 1.258 . S
C33 O26 1.266 . S
Co34 O37 1.970 . S
Co34 N51 1.989 . S
Co34 O59 1.967 . S
Co34 O66 1.920 . S
Co35 O38 1.966 . S
Co35 N44 2.022 . S
Co35 N52 1.993 . S
Co35 O60 1.941 . S
C36 O37 1.258 . S
C36 O38 1.263 . S
O37 Co34 1.970 . S
O37 C36 1.258 . S
O38 Co35 1.966 . S
O38 C36 1.263 . S
C39 O40 1.235 . S
C39 O66 1.289 . S
O40 C39 1.235 . S
C41 C43 1.400 . S
C41 N44 1.351 . S
C41 C46 1.501 . S
C42 C43 1.387 . S
C42 N45 1.341 . S
C43 C41 1.400 . S
C43 C42 1.387 . S
N44 Co35 2.022 . S
N44 C41 1.351 . S
N44 N45 1.365 . S
N45 C42 1.341 . S
N45 N44 1.365 . S
N45 H65 0.862 . S
C46 C41 1.501 . S
C46 H47 0.961 . S
C46 H48 0.961 . S
C46 H49 0.960 . S
H47 C46 0.961 . S
H48 C46 0.961 . S
H49 C46 0.960 . S
C50 N51 1.342 . S
C50 C54 1.401 . S
C50 C55 1.499 . S
N51 Co34 1.989 . S
N51 C50 1.342 . S
N51 N52 1.388 . S
N52 Co35 1.993 . S
N52 N51 1.388 . S
N52 C53 1.346 . S
C53 N52 1.346 . S
C53 C54 1.396 . S
C53 C63 1.510 . S
C54 C50 1.401 . S
C54 C53 1.396 . S
C55 C50 1.499 . S
C55 H56 0.959 . S
C55 H57 0.960 . S
C55 H58 0.961 . S
H56 C55 0.959 . S
H57 C55 0.960 . S
H58 C55 0.961 . S
O59 Co34 1.967 . S
O59 C67 1.258 . S
O60 Co35 1.941 . S
O60 C67 1.266 . S
H61 C63 0.959 . S
H62 C63 0.961 . S
C63 C53 1.510 . S
C63 H61 0.959 . S
C63 H62 0.961 . S
C63 H64 0.960 . S
H64 C63 0.960 . S
H65 N45 0.862 . S
O66 Co34 1.920 . S
O66 C39 1.289 . S
C67 O59 1.258 . S
C67 O60 1.266 . S
Co68 O71 1.970 . S
Co68 N85 1.989 . S
Co68 O93 1.967 . S
Co68 O100 1.920 . S
Co69 O72 1.966 . S
Co69 N78 2.022 . S
Co69 N86 1.993 . S
Co69 O94 1.941 . S
C70 O71 1.258 . S
C70 O72 1.263 . S
O71 Co68 1.970 . S
O71 C70 1.258 . S
O72 Co69 1.966 . S
O72 C70 1.263 . S
C73 O74 1.235 . S
C73 O100 1.289 . S
O74 C73 1.235 . S
C75 C77 1.400 . S
C75 N78 1.351 1_554 S
C75 C80 1.501 . S
C76 C77 1.387 . S
C76 N79 1.341 1_554 S
C77 C75 1.400 . S
C77 C76 1.387 . S
N78 Co69 2.022 . S
N78 C75 1.351 1_556 S
N78 N79 1.365 . S
N79 C76 1.341 1_556 S
N79 N78 1.365 . S
N79 H99 0.862 . S
C80 C75 1.501 . S
C80 H81 0.961 1_554 S
C80 H82 0.961 . S
C80 H83 0.960 . S
H81 C80 0.961 1_556 S
H82 C80 0.961 . S
H83 C80 0.960 . S
C84 N85 1.342 . S
C84 C88 1.401 . S
C84 C89 1.499 . S
N85 Co68 1.989 . S
N85 C84 1.342 . S
N85 N86 1.388 . S
N86 Co69 1.993 . S
N86 N85 1.388 . S
N86 C87 1.346 . S
C87 N86 1.346 . S
C87 C88 1.396 . S
C87 C97 1.510 . S
C88 C84 1.401 . S
C88 C87 1.396 . S
C89 C84 1.499 . S
C89 H90 0.959 . S
C89 H91 0.960 . S
C89 H92 0.961 . S
H90 C89 0.959 . S
H91 C89 0.960 . S
H92 C89 0.961 . S
O93 Co68 1.967 . S
O93 C101 1.258 . S
O94 Co69 1.941 . S
O94 C101 1.266 . S
H95 C97 0.959 . S
H96 C97 0.961 . S
C97 C87 1.510 . S
C97 H95 0.959 . S
C97 H96 0.961 . S
C97 H98 0.960 . S
H98 C97 0.960 . S
H99 N79 0.862 . S
O100 Co68 1.920 . S
O100 C73 1.289 . S
C101 O93 1.258 . S
C101 O94 1.266 . S
Co102 O105 1.970 . S
Co102 N119 1.989 . S
Co102 O127 1.967 . S
Co102 O134 1.920 . S
Co103 O106 1.966 . S
Co103 N112 2.022 . S
Co103 N120 1.993 . S
Co103 O128 1.941 . S
C104 O105 1.258 . S
C104 O106 1.263 . S
O105 Co102 1.970 . S
O105 C104 1.258 . S
O106 Co103 1.966 . S
O106 C104 1.263 . S
C107 O108 1.235 1_556 S
C107 O134 1.289 1_556 S
O108 C107 1.235 1_554 S
C109 C111 1.400 . S
C109 N112 1.351 . S
C109 C114 1.501 . S
C110 C111 1.387 . S
C110 N113 1.341 . S
C111 C109 1.400 . S
C111 C110 1.387 . S
N112 Co103 2.022 . S
N112 C109 1.351 . S
N112 N113 1.365 . S
N113 C110 1.341 . S
N113 N112 1.365 . S
N113 H133 0.862 . S
C114 C109 1.501 . S
C114 H115 0.961 . S
C114 H116 0.961 . S
C114 H117 0.960 . S
H115 C114 0.961 . S
H116 C114 0.961 . S
H117 C114 0.960 . S
C118 N119 1.342 . S
C118 C122 1.401 . S
C118 C123 1.499 . S
N119 Co102 1.989 . S
N119 C118 1.342 . S
N119 N120 1.388 . S
N120 Co103 1.993 . S
N120 N119 1.388 . S
N120 C121 1.346 . S
C121 N120 1.346 . S
C121 C122 1.396 . S
C121 C131 1.510 . S
C122 C118 1.401 . S
C122 C121 1.396 . S
C123 C118 1.499 . S
C123 H124 0.959 . S
C123 H125 0.960 . S
C123 H126 0.961 . S
H124 C123 0.959 . S
H125 C123 0.960 . S
H126 C123 0.961 . S
O127 Co102 1.967 . S
O127 C135 1.258 . S
O128 Co103 1.941 . S
O128 C135 1.266 . S
H129 C131 0.959 . S
H130 C131 0.961 . S
C131 C121 1.510 . S
C131 H129 0.959 . S
C131 H130 0.961 . S
C131 H132 0.960 . S
H132 C131 0.960 . S
H133 N113 0.862 . S
O134 Co102 1.920 . S
O134 C107 1.289 1_554 S
C135 O127 1.258 . S
C135 O128 1.266 . S
Co136 O139 1.970 . S
Co136 N153 1.989 . S
Co136 O161 1.967 . S
Co136 O168 1.920 . S
Co137 O140 1.966 . S
Co137 N146 2.022 . S
Co137 N154 1.993 . S
Co137 O162 1.941 . S
C138 O139 1.258 . S
C138 O140 1.263 . S
O139 Co136 1.970 . S
O139 C138 1.258 . S
O140 Co137 1.966 . S
O140 C138 1.263 . S
C141 O142 1.235 . S
C141 O168 1.289 . S
O142 C141 1.235 . S
C143 C145 1.400 . S
C143 N146 1.351 . S
C143 C148 1.501 . S
C144 C145 1.387 . S
C144 N147 1.341 . S
C145 C143 1.400 . S
C145 C144 1.387 . S
N146 Co137 2.022 . S
N146 C143 1.351 . S
N146 N147 1.365 . S
N147 C144 1.341 . S
N147 N146 1.365 . S
N147 H167 0.862 . S
C148 C143 1.501 . S
C148 H149 0.961 . S
C148 H150 0.961 . S
C148 H151 0.960 . S
H149 C148 0.961 . S
H150 C148 0.961 . S
H151 C148 0.960 . S
C152 N153 1.342 . S
C152 C156 1.401 . S
C152 C157 1.499 . S
N153 Co136 1.989 . S
N153 C152 1.342 . S
N153 N154 1.388 . S
N154 Co137 1.993 . S
N154 N153 1.388 . S
N154 C155 1.346 . S
C155 N154 1.346 . S
C155 C156 1.396 . S
C155 C165 1.510 . S
C156 C152 1.401 . S
C156 C155 1.396 . S
C157 C152 1.499 . S
C157 H158 0.959 . S
C157 H159 0.960 . S
C157 H160 0.961 . S
H158 C157 0.959 . S
H159 C157 0.960 . S
H160 C157 0.961 . S
O161 Co136 1.967 . S
O161 C169 1.258 . S
O162 Co137 1.941 . S
O162 C169 1.266 . S
H163 C165 0.959 . S
H164 C165 0.961 . S
C165 C155 1.510 . S
C165 H163 0.959 . S
C165 H164 0.961 . S
C165 H166 0.960 . S
H166 C165 0.960 . S
H167 N147 0.862 . S
O168 Co136 1.920 . S
O168 C141 1.289 . S
C169 O161 1.258 . S
C169 O162 1.266 . S
Co170 O173 1.970 . S
Co170 N187 1.989 . S
Co170 O195 1.967 . S
Co170 O202 1.920 . S
Co171 O174 1.966 . S
Co171 N180 2.022 . S
Co171 N188 1.993 . S
Co171 O196 1.941 . S
C172 O173 1.258 . S
C172 O174 1.263 . S
O173 Co170 1.970 . S
O173 C172 1.258 . S
O174 Co171 1.966 . S
O174 C172 1.263 . S
C175 O176 1.235 . S
C175 O202 1.289 . S
O176 C175 1.235 . S
C177 C179 1.400 . S
C177 N180 1.351 1_554 S
C177 C182 1.501 . S
C178 C179 1.387 . S
C178 N181 1.341 1_554 S
C179 C177 1.400 . S
C179 C178 1.387 . S
N180 Co171 2.022 . S
N180 C177 1.351 1_556 S
N180 N181 1.365 . S
N181 C178 1.341 1_556 S
N181 N180 1.365 . S
N181 H201 0.862 . S
C182 C177 1.501 . S
C182 H183 0.961 1_554 S
C182 H184 0.961 . S
C182 H185 0.960 . S
H183 C182 0.961 1_556 S
H184 C182 0.961 . S
H185 C182 0.960 . S
C186 N187 1.342 . S
C186 C190 1.401 . S
C186 C191 1.499 . S
N187 Co170 1.989 . S
N187 C186 1.342 . S
N187 N188 1.388 . S
N188 Co171 1.993 . S
N188 N187 1.388 . S
N188 C189 1.346 . S
C189 N188 1.346 . S
C189 C190 1.396 . S
C189 C199 1.510 . S
C190 C186 1.401 . S
C190 C189 1.396 . S
C191 C186 1.499 . S
C191 H192 0.959 . S
C191 H193 0.960 . S
C191 H194 0.961 . S
H192 C191 0.959 . S
H193 C191 0.960 . S
H194 C191 0.961 . S
O195 Co170 1.967 . S
O195 C203 1.258 . S
O196 Co171 1.941 . S
O196 C203 1.266 . S
H197 C199 0.959 . S
H198 C199 0.961 . S
C199 C189 1.510 . S
C199 H197 0.959 . S
C199 H198 0.961 . S
C199 H200 0.960 . S
H200 C199 0.960 . S
H201 N181 0.862 . S
O202 Co170 1.920 . S
O202 C175 1.289 . S
C203 O195 1.258 . S
C203 O196 1.266 . S
H204 C222 0.951 . S
H205 C224 0.951 . S
H206 C226 0.950 . S
H207 C227 0.950 . S
H208 C229 0.950 . S
H209 C232 0.950 . S
H210 C233 0.950 . S
H211 C235 0.950 . S
H212 C236 0.950 . S
H213 C237 0.951 . S
H214 C239 0.951 . S
H215 C241 0.950 . S
H216 C242 0.950 . S
H217 C244 0.950 . S
H218 C247 0.950 . S
H219 C248 0.950 . S
H220 C250 0.950 . S
H221 C251 0.950 . S
C222 H204 0.951 . S
C222 C223 1.366 . S
C222 C224 1.388 . S
C223 C222 1.366 . S
C223 C227 1.385 . S
C224 H205 0.951 . S
C224 C222 1.388 . S
C224 C225 1.366 . S
C225 C224 1.366 . S
C225 C226 1.414 . S
C225 C228 1.499 . S
C226 H206 0.950 . S
C226 C225 1.414 . S
C226 C227 1.374 . S
C227 H207 0.950 . S
C227 C223 1.385 . S
C227 C226 1.374 . S
C228 C225 1.499 . S
C228 C229 1.373 1_554 S
C228 C230 1.389 . S
C229 H208 0.950 . S
C229 C228 1.373 1_556 S
C229 C245 1.377 . S
C230 C228 1.389 . S
C230 C231 1.524 . S
C230 C244 1.377 . S
C231 C230 1.524 . S
C231 C232 1.397 . S
C231 C236 1.363 . S
C232 H209 0.950 . S
C232 C231 1.397 . S
C232 C233 1.334 . S
C233 H210 0.950 . S
C233 C232 1.334 . S
C233 C234 1.287 . S
C234 C233 1.287 . S
C234 C235 1.524 . S
C234 H253 0.913 . S
C235 H211 0.950 . S
C235 C234 1.524 . S
C235 C236 1.415 . S
C236 H212 0.950 . S
C236 C231 1.363 . S
C236 C235 1.415 . S
C237 H213 0.951 . S
C237 C238 1.366 . S
C237 C239 1.388 . S
C238 C237 1.366 . S
C238 C242 1.385 . S
C239 H214 0.951 . S
C239 C237 1.388 . S
C239 C240 1.366 . S
C240 C239 1.366 . S
C240 C241 1.414 . S
C240 C243 1.499 . S
C241 H215 0.950 . S
C241 C240 1.414 . S
C241 C242 1.374 . S
C242 H216 0.950 . S
C242 C238 1.385 . S
C242 C241 1.374 . S
C243 C240 1.499 . S
C243 C244 1.373 1_556 S
C243 C245 1.389 . S
C244 H217 0.950 . S
C244 C230 1.377 . S
C244 C243 1.373 1_554 S
C245 C229 1.377 . S
C245 C243 1.389 . S
C245 C246 1.524 . S
C246 C245 1.524 . S
C246 C247 1.397 . S
C246 C251 1.363 . S
C247 H218 0.950 . S
C247 C246 1.397 . S
C247 C248 1.334 . S
C248 H219 0.950 . S
C248 C247 1.334 . S
C248 C249 1.287 . S
C249 C248 1.287 . S
C249 C250 1.524 . S
C249 H252 0.999 . S
C250 H220 0.950 . S
C250 C249 1.524 . S
C250 C251 1.415 . S
C251 H221 0.950 . S
C251 C246 1.363 . S
C251 C250 1.415 . S
H252 C249 0.999 . S
H253 C234 0.913 . S
H254 C272 0.951 . S
H255 C274 0.951 . S
H256 C276 0.950 . S
H257 C277 0.950 . S
H258 C279 0.950 . S
H259 C282 0.950 . S
H260 C283 0.950 . S
H261 C285 0.950 . S
H262 C286 0.950 . S
H263 C287 0.951 . S
H264 C289 0.951 . S
H265 C291 0.950 . S
H266 C292 0.950 . S
H267 C294 0.950 . S
H268 C297 0.950 . S
H269 C298 0.950 . S
H270 C300 0.950 . S
H271 C301 0.950 . S
C272 H254 0.951 . S
C272 C273 1.366 . S
C272 C274 1.388 . S
C273 C272 1.366 . S
C273 C277 1.385 . S
C274 H255 0.951 . S
C274 C272 1.388 . S
C274 C275 1.366 . S
C275 C274 1.366 . S
C275 C276 1.414 . S
C275 C278 1.499 . S
C276 H256 0.950 . S
C276 C275 1.414 . S
C276 C277 1.374 . S
C277 H257 0.950 . S
C277 C273 1.385 . S
C277 C276 1.374 . S
C278 C275 1.499 . S
C278 C279 1.373 . S
C278 C280 1.389 . S
C279 H258 0.950 . S
C279 C278 1.373 . S
C279 C295 1.377 . S
C280 C278 1.389 . S
C280 C281 1.524 . S
C280 C294 1.377 . S
C281 C280 1.524 . S
C281 C282 1.397 . S
C281 C286 1.363 . S
C282 H259 0.950 . S
C282 C281 1.397 . S
C282 C283 1.334 . S
C283 H260 0.950 . S
C283 C282 1.334 . S
C283 C284 1.287 . S
C284 C283 1.287 . S
C284 C285 1.524 . S
C284 H303 0.913 . S
C285 H261 0.950 . S
C285 C284 1.524 . S
C285 C286 1.415 . S
C286 H262 0.950 . S
C286 C281 1.363 . S
C286 C285 1.415 . S
C287 H263 0.951 . S
C287 C288 1.366 . S
C287 C289 1.388 . S
C288 C287 1.366 . S
C288 C292 1.385 . S
C289 H264 0.951 . S
C289 C287 1.388 . S
C289 C290 1.366 . S
C290 C289 1.366 . S
C290 C291 1.414 . S
C290 C293 1.499 . S
C291 H265 0.950 . S
C291 C290 1.414 . S
C291 C292 1.374 . S
C292 H266 0.950 . S
C292 C288 1.385 . S
C292 C291 1.374 . S
C293 C290 1.499 . S
C293 C294 1.373 . S
C293 C295 1.389 . S
C294 H267 0.950 . S
C294 C280 1.377 . S
C294 C293 1.373 . S
C295 C279 1.377 . S
C295 C293 1.389 . S
C295 C296 1.524 . S
C296 C295 1.524 . S
C296 C297 1.397 . S
C296 C301 1.363 . S
C297 H268 0.950 . S
C297 C296 1.397 . S
C297 C298 1.334 . S
C298 H269 0.950 . S
C298 C297 1.334 . S
C298 C299 1.287 . S
C299 C298 1.287 . S
C299 C300 1.524 . S
C299 H302 0.999 . S
C300 H270 0.950 . S
C300 C299 1.524 . S
C300 C301 1.415 . S
C301 H271 0.950 . S
C301 C296 1.363 . S
C301 C300 1.415 . S
H302 C299 0.999 . S
H303 C284 0.913 . S
H304 C322 0.951 . S
H305 C324 0.951 . S
H306 C326 0.950 . S
H307 C327 0.950 . S
H308 C329 0.950 . S
H309 C332 0.950 . S
H310 C333 0.950 . S
H311 C335 0.950 . S
H312 C336 0.950 . S
H313 C337 0.951 . S
H314 C339 0.951 . S
H315 C341 0.950 . S
H316 C342 0.950 . S
H317 C344 0.950 . S
H318 C347 0.950 . S
H319 C348 0.950 . S
H320 C350 0.950 . S
H321 C351 0.950 . S
C322 H304 0.951 . S
C322 C323 1.366 . S
C322 C324 1.388 . S
C323 C322 1.366 . S
C323 C327 1.385 . S
C324 H305 0.951 . S
C324 C322 1.388 . S
C324 C325 1.366 . S
C325 C324 1.366 . S
C325 C326 1.414 . S
C325 C328 1.499 . S
C326 H306 0.950 . S
C326 C325 1.414 . S
C326 C327 1.374 . S
C327 H307 0.950 . S
C327 C323 1.385 . S
C327 C326 1.374 . S
C328 C325 1.499 . S
C328 C329 1.373 . S
C328 C330 1.389 . S
C329 H308 0.950 . S
C329 C328 1.373 . S
C329 C345 1.377 . S
C330 C328 1.389 . S
C330 C331 1.524 . S
C330 C344 1.377 . S
C331 C330 1.524 . S
C331 C332 1.397 . S
C331 C336 1.363 . S
C332 H309 0.950 . S
C332 C331 1.397 . S
C332 C333 1.334 . S
C333 H310 0.950 . S
C333 C332 1.334 . S
C333 C334 1.287 . S
C334 C333 1.287 . S
C334 C335 1.524 . S
C334 H353 0.913 . S
C335 H311 0.950 . S
C335 C334 1.524 . S
C335 C336 1.415 . S
C336 H312 0.950 . S
C336 C331 1.363 . S
C336 C335 1.415 . S
C337 H313 0.951 . S
C337 C338 1.366 . S
C337 C339 1.388 . S
C338 C337 1.366 . S
C338 C342 1.385 . S
C339 H314 0.951 . S
C339 C337 1.388 . S
C339 C340 1.366 . S
C340 C339 1.366 . S
C340 C341 1.414 . S
C340 C343 1.499 . S
C341 H315 0.950 . S
C341 C340 1.414 . S
C341 C342 1.374 . S
C342 H316 0.950 . S
C342 C338 1.385 . S
C342 C341 1.374 . S
C343 C340 1.499 . S
C343 C344 1.373 . S
C343 C345 1.389 . S
C344 H317 0.950 . S
C344 C330 1.377 . S
C344 C343 1.373 . S
C345 C329 1.377 . S
C345 C343 1.389 . S
C345 C346 1.524 . S
C346 C345 1.524 . S
C346 C347 1.397 . S
C346 C351 1.363 . S
C347 H318 0.950 . S
C347 C346 1.397 . S
C347 C348 1.334 . S
C348 H319 0.950 . S
C348 C347 1.334 . S
C348 C349 1.287 . S
C349 C348 1.287 . S
C349 C350 1.524 . S
C349 H352 0.999 . S
C350 H320 0.950 . S
C350 C349 1.524 . S
C350 C351 1.415 . S
C351 H321 0.950 . S
C351 C346 1.363 . S
C351 C350 1.415 . S
H352 C349 0.999 . S
H353 C334 0.913 . S
H354 C372 0.951 . S
H355 C374 0.951 . S
H356 C376 0.950 . S
H357 C377 0.950 . S
H358 C379 0.950 . S
H359 C382 0.950 . S
H360 C383 0.950 . S
H361 C385 0.950 . S
H362 C386 0.950 . S
H363 C387 0.951 . S
H364 C389 0.951 . S
H365 C391 0.950 . S
H366 C392 0.950 . S
H367 C394 0.950 . S
H368 C397 0.950 . S
H369 C398 0.950 . S
H370 C400 0.950 . S
H371 C401 0.950 . S
C372 H354 0.951 . S
C372 C373 1.366 . S
C372 C374 1.388 . S
C373 C372 1.366 . S
C373 C377 1.385 . S
C374 H355 0.951 . S
C374 C372 1.388 . S
C374 C375 1.366 . S
C375 C374 1.366 . S
C375 C376 1.414 . S
C375 C378 1.499 . S
C376 H356 0.950 . S
C376 C375 1.414 . S
C376 C377 1.374 . S
C377 H357 0.950 . S
C377 C373 1.385 . S
C377 C376 1.374 . S
C378 C375 1.499 . S
C378 C379 1.373 1_556 S
C378 C380 1.389 . S
C379 H358 0.950 . S
C379 C378 1.373 1_554 S
C379 C395 1.377 . S
C380 C378 1.389 . S
C380 C381 1.524 . S
C380 C394 1.377 . S
C381 C380 1.524 . S
C381 C382 1.397 . S
C381 C386 1.363 . S
C382 H359 0.950 . S
C382 C381 1.397 . S
C382 C383 1.334 . S
C383 H360 0.950 . S
C383 C382 1.334 . S
C383 C384 1.287 . S
C384 C383 1.287 . S
C384 C385 1.524 . S
C384 H403 0.913 . S
C385 H361 0.950 . S
C385 C384 1.524 . S
C385 C386 1.415 . S
C386 H362 0.950 . S
C386 C381 1.363 . S
C386 C385 1.415 . S
C387 H363 0.951 . S
C387 C388 1.366 . S
C387 C389 1.388 . S
C388 C387 1.366 . S
C388 C392 1.385 . S
C389 H364 0.951 . S
C389 C387 1.388 . S
C389 C390 1.366 . S
C390 C389 1.366 . S
C390 C391 1.414 . S
C390 C393 1.499 . S
C391 H365 0.950 . S
C391 C390 1.414 . S
C391 C392 1.374 . S
C392 H366 0.950 . S
C392 C388 1.385 . S
C392 C391 1.374 . S
C393 C390 1.499 . S
C393 C394 1.373 1_554 S
C393 C395 1.389 . S
C394 H367 0.950 . S
C394 C380 1.377 . S
C394 C393 1.373 1_556 S
C395 C379 1.377 . S
C395 C393 1.389 . S
C395 C396 1.524 . S
C396 C395 1.524 . S
C396 C397 1.397 . S
C396 C401 1.363 . S
C397 H368 0.950 . S
C397 C396 1.397 . S
C397 C398 1.334 . S
C398 H369 0.950 . S
C398 C397 1.334 . S
C398 C399 1.287 . S
C399 C398 1.287 . S
C399 C400 1.524 . S
C399 H402 0.999 . S
C400 H370 0.950 . S
C400 C399 1.524 . S
C400 C401 1.415 . S
C401 H371 0.950 . S
C401 C396 1.363 . S
C401 C400 1.415 . S
H402 C399 0.999 . S
H403 C384 0.913 . S
H404 C422 0.951 . S
H405 C424 0.951 . S
H406 C426 0.950 . S
H407 C427 0.950 . S
H408 C429 0.950 . S
H409 C432 0.950 . S
H410 C433 0.950 . S
H411 C435 0.950 . S
H412 C436 0.950 . S
H413 C437 0.951 . S
H414 C439 0.951 . S
H415 C441 0.950 . S
H416 C442 0.950 . S
H417 C444 0.950 . S
H418 C447 0.950 . S
H419 C448 0.950 . S
H420 C450 0.950 . S
H421 C451 0.950 . S
C422 H404 0.951 . S
C422 C423 1.366 . S
C422 C424 1.388 . S
C423 C422 1.366 . S
C423 C427 1.385 . S
C424 H405 0.951 . S
C424 C422 1.388 . S
C424 C425 1.366 . S
C425 C424 1.366 . S
C425 C426 1.414 . S
C425 C428 1.499 . S
C426 H406 0.950 . S
C426 C425 1.414 . S
C426 C427 1.374 . S
C427 H407 0.950 . S
C427 C423 1.385 . S
C427 C426 1.374 . S
C428 C425 1.499 . S
C428 C429 1.373 . S
C428 C430 1.389 . S
C429 H408 0.950 . S
C429 C428 1.373 . S
C429 C445 1.377 . S
C430 C428 1.389 . S
C430 C431 1.524 . S
C430 C444 1.377 . S
C431 C430 1.524 . S
C431 C432 1.397 . S
C431 C436 1.363 . S
C432 H409 0.950 . S
C432 C431 1.397 . S
C432 C433 1.334 . S
C433 H410 0.950 . S
C433 C432 1.334 . S
C433 C434 1.287 . S
C434 C433 1.287 . S
C434 C435 1.524 . S
C434 H453 0.913 . S
C435 H411 0.950 . S
C435 C434 1.524 . S
C435 C436 1.415 . S
C436 H412 0.950 . S
C436 C431 1.363 . S
C436 C435 1.415 . S
C437 H413 0.951 . S
C437 C438 1.366 . S
C437 C439 1.388 . S
C438 C437 1.366 . S
C438 C442 1.385 . S
C439 H414 0.951 . S
C439 C437 1.388 . S
C439 C440 1.366 . S
C440 C439 1.366 . S
C440 C441 1.414 . S
C440 C443 1.499 . S
C441 H415 0.950 . S
C441 C440 1.414 . S
C441 C442 1.374 . S
C442 H416 0.950 . S
C442 C438 1.385 . S
C442 C441 1.374 . S
C443 C440 1.499 . S
C443 C444 1.373 . S
C443 C445 1.389 . S
C444 H417 0.950 . S
C444 C430 1.377 . S
C444 C443 1.373 . S
C445 C429 1.377 . S
C445 C443 1.389 . S
C445 C446 1.524 . S
C446 C445 1.524 . S
C446 C447 1.397 . S
C446 C451 1.363 . S
C447 H418 0.950 . S
C447 C446 1.397 . S
C447 C448 1.334 . S
C448 H419 0.950 . S
C448 C447 1.334 . S
C448 C449 1.287 . S
C449 C448 1.287 . S
C449 C450 1.524 . S
C449 H452 0.999 . S
C450 H420 0.950 . S
C450 C449 1.524 . S
C450 C451 1.415 . S
C451 H421 0.950 . S
C451 C446 1.363 . S
C451 C450 1.415 . S
H452 C449 0.999 . S
H453 C434 0.913 . S
H454 C472 0.951 . S
H455 C474 0.951 . S
H456 C476 0.950 . S
H457 C477 0.950 . S
H458 C479 0.950 . S
H459 C482 0.950 . S
H460 C483 0.950 . S
H461 C485 0.950 . S
H462 C486 0.950 . S
H463 C487 0.951 . S
H464 C489 0.951 . S
H465 C491 0.950 . S
H466 C492 0.950 . S
H467 C494 0.950 . S
H468 C497 0.950 . S
H469 C498 0.950 . S
H470 C500 0.950 . S
H471 C501 0.950 . S
C472 H454 0.951 . S
C472 C473 1.366 . S
C472 C474 1.388 . S
C473 C472 1.366 . S
C473 C477 1.385 . S
C474 H455 0.951 . S
C474 C472 1.388 . S
C474 C475 1.366 . S
C475 C474 1.366 . S
C475 C476 1.414 . S
C475 C478 1.499 . S
C476 H456 0.950 . S
C476 C475 1.414 . S
C476 C477 1.374 . S
C477 H457 0.950 . S
C477 C473 1.385 . S
C477 C476 1.374 . S
C478 C475 1.499 . S
C478 C479 1.373 . S
C478 C480 1.389 . S
C479 H458 0.950 . S
C479 C478 1.373 . S
C479 C495 1.377 . S
C480 C478 1.389 . S
C480 C481 1.524 . S
C480 C494 1.377 . S
C481 C480 1.524 . S
C481 C482 1.397 . S
C481 C486 1.363 . S
C482 H459 0.950 . S
C482 C481 1.397 . S
C482 C483 1.334 . S
C483 H460 0.950 . S
C483 C482 1.334 . S
C483 C484 1.287 . S
C484 C483 1.287 . S
C484 C485 1.524 . S
C484 H503 0.913 . S
C485 H461 0.950 . S
C485 C484 1.524 . S
C485 C486 1.415 . S
C486 H462 0.950 . S
C486 C481 1.363 . S
C486 C485 1.415 . S
C487 H463 0.951 . S
C487 C488 1.366 . S
C487 C489 1.388 . S
C488 C487 1.366 . S
C488 C492 1.385 . S
C489 H464 0.951 . S
C489 C487 1.388 . S
C489 C490 1.366 . S
C490 C489 1.366 . S
C490 C491 1.414 . S
C490 C493 1.499 . S
C491 H465 0.950 . S
C491 C490 1.414 . S
C491 C492 1.374 . S
C492 H466 0.950 . S
C492 C488 1.385 . S
C492 C491 1.374 . S
C493 C490 1.499 . S
C493 C494 1.373 . S
C493 C495 1.389 . S
C494 H467 0.950 . S
C494 C480 1.377 . S
C494 C493 1.373 . S
C495 C479 1.377 . S
C495 C493 1.389 . S
C495 C496 1.524 . S
C496 C495 1.524 . S
C496 C497 1.397 . S
C496 C501 1.363 . S
C497 H468 0.950 . S
C497 C496 1.397 . S
C497 C498 1.334 . S
C498 H469 0.950 . S
C498 C497 1.334 . S
C498 C499 1.287 . S
C499 C498 1.287 . S
C499 C500 1.524 . S
C499 H502 0.999 . S
C500 H470 0.950 . S
C500 C499 1.524 . S
C500 C501 1.415 . S
C501 H471 0.950 . S
C501 C496 1.363 . S
C501 C500 1.415 . S
H502 C499 0.999 . S
H503 C484 0.913 . S
H504 C522 0.951 . S
H505 C524 0.951 . S
H506 C526 0.950 . S
H507 C527 0.950 . S
H508 C529 0.950 . S
H509 C532 0.950 . S
H510 C533 0.950 . S
H511 C535 0.950 . S
H512 C536 0.950 . S
H513 C537 0.951 . S
H514 C539 0.951 . S
H515 C541 0.950 . S
H516 C542 0.950 . S
H517 C544 0.950 . S
H518 C547 0.950 . S
H519 C548 0.950 . S
H520 C550 0.950 . S
H521 C551 0.950 . S
C522 H504 0.951 . S
C522 C523 1.366 . S
C522 C524 1.388 . S
C523 C522 1.366 . S
C523 C527 1.385 . S
C524 H505 0.951 . S
C524 C522 1.388 . S
C524 C525 1.366 . S
C525 C524 1.366 . S
C525 C526 1.414 . S
C525 C528 1.499 . S
C526 H506 0.950 . S
C526 C525 1.414 . S
C526 C527 1.374 . S
C527 H507 0.950 . S
C527 C523 1.385 . S
C527 C526 1.374 . S
C528 C525 1.499 . S
C528 C529 1.373 . S
C528 C530 1.389 . S
C529 H508 0.950 . S
C529 C528 1.373 . S
C529 C545 1.377 . S
C530 C528 1.389 . S
C530 C531 1.524 . S
C530 C544 1.377 . S
C531 C530 1.524 . S
C531 C532 1.397 . S
C531 C536 1.363 . S
C532 H509 0.950 . S
C532 C531 1.397 . S
C532 C533 1.334 . S
C533 H510 0.950 . S
C533 C532 1.334 . S
C533 C534 1.287 . S
C534 C533 1.287 . S
C534 C535 1.524 . S
C534 H553 0.913 . S
C535 H511 0.950 . S
C535 C534 1.524 . S
C535 C536 1.415 . S
C536 H512 0.950 . S
C536 C531 1.363 . S
C536 C535 1.415 . S
C537 H513 0.951 . S
C537 C538 1.366 . S
C537 C539 1.388 . S
C538 C537 1.366 . S
C538 C542 1.385 . S
C539 H514 0.951 . S
C539 C537 1.388 . S
C539 C540 1.366 . S
C540 C539 1.366 . S
C540 C541 1.414 . S
C540 C543 1.499 . S
C541 H515 0.950 . S
C541 C540 1.414 . S
C541 C542 1.374 . S
C542 H516 0.950 . S
C542 C538 1.385 . S
C542 C541 1.374 . S
C543 C540 1.499 . S
C543 C544 1.373 . S
C543 C545 1.389 . S
C544 H517 0.950 . S
C544 C530 1.377 . S
C544 C543 1.373 . S
C545 C529 1.377 . S
C545 C543 1.389 . S
C545 C546 1.524 . S
C546 C545 1.524 . S
C546 C547 1.397 . S
C546 C551 1.363 . S
C547 H518 0.950 . S
C547 C546 1.397 . S
C547 C548 1.334 . S
C548 H519 0.950 . S
C548 C547 1.334 . S
C548 C549 1.287 . S
C549 C548 1.287 . S
C549 C550 1.524 . S
C549 H552 0.999 . S
C550 H520 0.950 . S
C550 C549 1.524 . S
C550 C551 1.415 . S
C551 H521 0.950 . S
C551 C546 1.363 . S
C551 C550 1.415 . S
H552 C549 0.999 . S
H553 C534 0.913 . S
H554 C572 0.951 . S
H555 C574 0.951 . S
H556 C576 0.950 . S
H557 C577 0.950 . S
H558 C579 0.950 . S
H559 C582 0.950 . S
H560 C583 0.950 . S
H561 C585 0.950 . S
H562 C586 0.950 1_554 S
H563 C587 0.951 . S
H564 C589 0.951 . S
H565 C591 0.950 . S
H566 C592 0.950 . S
H567 C594 0.950 . S
H568 C597 0.950 . S
H569 C598 0.950 . S
H570 C600 0.950 . S
H571 C601 0.950 . S
C572 H554 0.951 . S
C572 C573 1.366 . S
C572 C574 1.388 . S
C573 C572 1.366 . S
C573 C577 1.385 . S
C574 H555 0.951 . S
C574 C572 1.388 . S
C574 C575 1.366 . S
C575 C574 1.366 . S
C575 C576 1.414 . S
C575 C578 1.499 . S
C576 H556 0.950 . S
C576 C575 1.414 . S
C576 C577 1.374 . S
C577 H557 0.950 . S
C577 C573 1.385 . S
C577 C576 1.374 . S
C578 C575 1.499 . S
C578 C579 1.373 . S
C578 C580 1.389 . S
C579 H558 0.950 . S
C579 C578 1.373 . S
C579 C595 1.377 1_556 S
C580 C578 1.389 . S
C580 C581 1.524 . S
C580 C594 1.377 1_556 S
C581 C580 1.524 . S
C581 C582 1.397 . S
C581 C586 1.363 . S
C582 H559 0.950 . S
C582 C581 1.397 . S
C582 C583 1.334 . S
C583 H560 0.950 . S
C583 C582 1.334 . S
C583 C584 1.287 . S
C584 C583 1.287 . S
C584 C585 1.524 . S
C584 H603 0.913 . S
C585 H561 0.950 . S
C585 C584 1.524 . S
C585 C586 1.415 . S
C586 H562 0.950 1_556 S
C586 C581 1.363 . S
C586 C585 1.415 . S
C587 H563 0.951 . S
C587 C588 1.366 . S
C587 C589 1.388 . S
C588 C587 1.366 . S
C588 C592 1.385 . S
C589 H564 0.951 . S
C589 C587 1.388 . S
C589 C590 1.366 . S
C590 C589 1.366 . S
C590 C591 1.414 . S
C590 C593 1.499 . S
C591 H565 0.950 . S
C591 C590 1.414 . S
C591 C592 1.374 . S
C592 H566 0.950 . S
C592 C588 1.385 . S
C592 C591 1.374 . S
C593 C590 1.499 . S
C593 C594 1.373 . S
C593 C595 1.389 . S
C594 H567 0.950 . S
C594 C580 1.377 1_554 S
C594 C593 1.373 . S
C595 C579 1.377 1_554 S
C595 C593 1.389 . S
C595 C596 1.524 . S
C596 C595 1.524 . S
C596 C597 1.397 . S
C596 C601 1.363 . S
C597 H568 0.950 . S
C597 C596 1.397 . S
C597 C598 1.334 . S
C598 H569 0.950 . S
C598 C597 1.334 . S
C598 C599 1.287 . S
C599 C598 1.287 . S
C599 C600 1.524 . S
C599 H602 0.999 . S
C600 H570 0.950 . S
C600 C599 1.524 . S
C600 C601 1.415 . S
C601 H571 0.950 . S
C601 C596 1.363 . S
C601 C600 1.415 . S
H602 C599 0.999 . S
H603 C584 0.913 . S
H604 C622 0.951 . S
H605 C624 0.951 . S
H606 C626 0.950 . S
H607 C627 0.950 . S
H608 C629 0.950 . S
H609 C632 0.950 . S
H610 C633 0.950 . S
H611 C635 0.950 . S
H612 C636 0.950 . S
H613 C637 0.951 . S
H614 C639 0.951 . S
H615 C641 0.950 . S
H616 C642 0.950 . S
H617 C644 0.950 . S
H618 C647 0.950 . S
H619 C648 0.950 . S
H620 C650 0.950 . S
H621 C651 0.950 . S
C622 H604 0.951 . S
C622 C623 1.366 . S
C622 C624 1.388 . S
C623 C622 1.366 . S
C623 C627 1.385 . S
C624 H605 0.951 . S
C624 C622 1.388 . S
C624 C625 1.366 . S
C625 C624 1.366 . S
C625 C626 1.414 . S
C625 C628 1.499 . S
C626 H606 0.950 . S
C626 C625 1.414 . S
C626 C627 1.374 . S
C627 H607 0.950 . S
C627 C623 1.385 . S
C627 C626 1.374 . S
C628 C625 1.499 . S
C628 C629 1.373 . S
C628 C630 1.389 . S
C629 H608 0.950 . S
C629 C628 1.373 . S
C629 C645 1.377 . S
C630 C628 1.389 . S
C630 C631 1.524 . S
C630 C644 1.377 . S
C631 C630 1.524 . S
C631 C632 1.397 . S
C631 C636 1.363 . S
C632 H609 0.950 . S
C632 C631 1.397 . S
C632 C633 1.334 . S
C633 H610 0.950 . S
C633 C632 1.334 . S
C633 C634 1.287 . S
C634 C633 1.287 . S
C634 C635 1.524 . S
C634 H653 0.913 . S
C635 H611 0.950 . S
C635 C634 1.524 . S
C635 C636 1.415 . S
C636 H612 0.950 . S
C636 C631 1.363 . S
C636 C635 1.415 . S
C637 H613 0.951 . S
C637 C638 1.366 . S
C637 C639 1.388 . S
C638 C637 1.366 . S
C638 C642 1.385 . S
C639 H614 0.951 . S
C639 C637 1.388 . S
C639 C640 1.366 . S
C640 C639 1.366 . S
C640 C641 1.414 . S
C640 C643 1.499 . S
C641 H615 0.950 . S
C641 C640 1.414 . S
C641 C642 1.374 . S
C642 H616 0.950 . S
C642 C638 1.385 . S
C642 C641 1.374 . S
C643 C640 1.499 . S
C643 C644 1.373 . S
C643 C645 1.389 . S
C644 H617 0.950 . S
C644 C630 1.377 . S
C644 C643 1.373 . S
C645 C629 1.377 . S
C645 C643 1.389 . S
C645 C646 1.524 . S
C646 C645 1.524 . S
C646 C647 1.397 . S
C646 C651 1.363 . S
C647 H618 0.950 . S
C647 C646 1.397 . S
C647 C648 1.334 . S
C648 H619 0.950 . S
C648 C647 1.334 . S
C648 C649 1.287 . S
C649 C648 1.287 . S
C649 C650 1.524 . S
C649 H652 0.999 . S
C650 H620 0.950 . S
C650 C649 1.524 . S
C650 C651 1.415 . S
C651 H621 0.950 . S
C651 C646 1.363 . S
C651 C650 1.415 . S
H652 C649 0.999 . S
H653 C634 0.913 . S
H654 C672 0.951 . S
H655 C674 0.951 . S
H656 C676 0.950 . S
H657 C677 0.950 . S
H658 C679 0.950 . S
H659 C682 0.950 . S
H660 C683 0.950 . S
H661 C685 0.950 . S
H662 C686 0.950 . S
H663 C687 0.951 . S
H664 C689 0.951 . S
H665 C691 0.950 . S
H666 C692 0.950 . S
H667 C694 0.950 . S
H668 C697 0.950 . S
H669 C698 0.950 . S
H670 C700 0.950 . S
H671 C701 0.950 . S
C672 H654 0.951 . S
C672 C673 1.366 . S
C672 C674 1.388 . S
C673 C672 1.366 . S
C673 C677 1.385 . S
C674 H655 0.951 . S
C674 C672 1.388 . S
C674 C675 1.366 . S
C675 C674 1.366 . S
C675 C676 1.414 . S
C675 C678 1.499 . S
C676 H656 0.950 . S
C676 C675 1.414 . S
C676 C677 1.374 . S
C677 H657 0.950 . S
C677 C673 1.385 . S
C677 C676 1.374 . S
C678 C675 1.499 . S
C678 C679 1.373 . S
C678 C680 1.389 . S
C679 H658 0.950 . S
C679 C678 1.373 . S
C679 C695 1.377 . S
C680 C678 1.389 . S
C680 C681 1.524 . S
C680 C694 1.377 . S
C681 C680 1.524 . S
C681 C682 1.397 . S
C681 C686 1.363 . S
C682 H659 0.950 . S
C682 C681 1.397 . S
C682 C683 1.334 . S
C683 H660 0.950 . S
C683 C682 1.334 . S
C683 C684 1.287 . S
C684 C683 1.287 . S
C684 C685 1.524 . S
C684 H703 0.913 . S
C685 H661 0.950 . S
C685 C684 1.524 . S
C685 C686 1.415 . S
C686 H662 0.950 . S
C686 C681 1.363 . S
C686 C685 1.415 . S
C687 H663 0.951 . S
C687 C688 1.366 . S
C687 C689 1.388 . S
C688 C687 1.366 . S
C688 C692 1.385 . S
C689 H664 0.951 . S
C689 C687 1.388 . S
C689 C690 1.366 . S
C690 C689 1.366 . S
C690 C691 1.414 . S
C690 C693 1.499 . S
C691 H665 0.950 . S
C691 C690 1.414 . S
C691 C692 1.374 . S
C692 H666 0.950 . S
C692 C688 1.385 . S
C692 C691 1.374 . S
C693 C690 1.499 . S
C693 C694 1.373 . S
C693 C695 1.389 . S
C694 H667 0.950 . S
C694 C680 1.377 . S
C694 C693 1.373 . S
C695 C679 1.377 . S
C695 C693 1.389 . S
C695 C696 1.524 . S
C696 C695 1.524 . S
C696 C697 1.397 . S
C696 C701 1.363 . S
C697 H668 0.950 . S
C697 C696 1.397 . S
C697 C698 1.334 . S
C698 H669 0.950 . S
C698 C697 1.334 . S
C698 C699 1.287 . S
C699 C698 1.287 . S
C699 C700 1.524 . S
C699 H702 0.999 . S
C700 H670 0.950 . S
C700 C699 1.524 . S
C700 C701 1.415 . S
C701 H671 0.950 . S
C701 C696 1.363 . S
C701 C700 1.415 . S
H702 C699 0.999 . S
H703 C684 0.913 . S
H704 C722 0.951 . S
H705 C724 0.951 . S
H706 C726 0.950 . S
H707 C727 0.950 . S
H708 C729 0.950 . S
H709 C732 0.950 . S
H710 C733 0.950 . S
H711 C735 0.950 . S
H712 C736 0.950 . S
H713 C737 0.951 . S
H714 C739 0.951 . S
H715 C741 0.950 . S
H716 C742 0.950 . S
H717 C744 0.950 . S
H718 C747 0.950 . S
H719 C748 0.950 . S
H720 C750 0.950 . S
H721 C751 0.950 . S
C722 H704 0.951 . S
C722 C723 1.366 . S
C722 C724 1.388 . S
C723 C722 1.366 . S
C723 C727 1.385 . S
C724 H705 0.951 . S
C724 C722 1.388 . S
C724 C725 1.366 . S
C725 C724 1.366 . S
C725 C726 1.414 . S
C725 C728 1.499 . S
C726 H706 0.950 . S
C726 C725 1.414 . S
C726 C727 1.374 . S
C727 H707 0.950 . S
C727 C723 1.385 . S
C727 C726 1.374 . S
C728 C725 1.499 . S
C728 C729 1.373 . S
C728 C730 1.389 . S
C729 H708 0.950 . S
C729 C728 1.373 . S
C729 C745 1.377 1_554 S
C730 C728 1.389 . S
C730 C731 1.524 . S
C730 C744 1.377 1_554 S
C731 C730 1.524 . S
C731 C732 1.397 . S
C731 C736 1.363 . S
C732 H709 0.950 . S
C732 C731 1.397 . S
C732 C733 1.334 . S
C733 H710 0.950 . S
C733 C732 1.334 . S
C733 C734 1.287 . S
C734 C733 1.287 . S
C734 C735 1.524 . S
C734 H753 0.913 . S
C735 H711 0.950 . S
C735 C734 1.524 . S
C735 C736 1.415 . S
C736 H712 0.950 . S
C736 C731 1.363 . S
C736 C735 1.415 . S
C737 H713 0.951 . S
C737 C738 1.366 . S
C737 C739 1.388 . S
C738 C737 1.366 . S
C738 C742 1.385 . S
C739 H714 0.951 . S
C739 C737 1.388 . S
C739 C740 1.366 . S
C740 C739 1.366 . S
C740 C741 1.414 . S
C740 C743 1.499 . S
C741 H715 0.950 . S
C741 C740 1.414 . S
C741 C742 1.374 . S
C742 H716 0.950 . S
C742 C738 1.385 . S
C742 C741 1.374 . S
C743 C740 1.499 . S
C743 C744 1.373 . S
C743 C745 1.389 . S
C744 H717 0.950 . S
C744 C730 1.377 1_556 S
C744 C743 1.373 . S
C745 C729 1.377 1_556 S
C745 C743 1.389 . S
C745 C746 1.524 . S
C746 C745 1.524 . S
C746 C747 1.397 . S
C746 C751 1.363 . S
C747 H718 0.950 . S
C747 C746 1.397 . S
C747 C748 1.334 . S
C748 H719 0.950 . S
C748 C747 1.334 . S
C748 C749 1.287 . S
C749 C748 1.287 . S
C749 C750 1.524 . S
C749 H752 0.999 . S
C750 H720 0.950 . S
C750 C749 1.524 . S
C750 C751 1.415 . S
C751 H721 0.950 . S
C751 C746 1.363 . S
C751 C750 1.415 . S
H752 C749 0.999 . S
H753 C734 0.913 . S
H754 C772 0.951 . S
H755 C774 0.951 . S
H756 C776 0.950 . S
H757 C777 0.950 . S
H758 C779 0.950 . S
H759 C782 0.950 . S
H760 C783 0.950 . S
H761 C785 0.950 . S
H762 C786 0.950 . S
H763 C787 0.951 . S
H764 C789 0.951 . S
H765 C791 0.950 . S
H766 C792 0.950 . S
H767 C794 0.950 . S
H768 C797 0.950 . S
H769 C798 0.950 . S
H770 C800 0.950 . S
H771 C801 0.950 . S
C772 H754 0.951 . S
C772 C773 1.366 . S
C772 C774 1.388 . S
C773 C772 1.366 . S
C773 C777 1.385 . S
C774 H755 0.951 . S
C774 C772 1.388 . S
C774 C775 1.366 . S
C775 C774 1.366 . S
C775 C776 1.414 . S
C775 C778 1.499 . S
C776 H756 0.950 . S
C776 C775 1.414 . S
C776 C777 1.374 . S
C777 H757 0.950 . S
C777 C773 1.385 . S
C777 C776 1.374 . S
C778 C775 1.499 . S
C778 C779 1.373 . S
C778 C780 1.389 . S
C779 H758 0.950 . S
C779 C778 1.373 . S
C779 C795 1.377 . S
C780 C778 1.389 . S
C780 C781 1.524 . S
C780 C794 1.377 . S
C781 C780 1.524 . S
C781 C782 1.397 . S
C781 C786 1.363 . S
C782 H759 0.950 . S
C782 C781 1.397 . S
C782 C783 1.334 . S
C783 H760 0.950 . S
C783 C782 1.334 . S
C783 C784 1.287 . S
C784 C783 1.287 . S
C784 C785 1.524 . S
C784 H803 0.913 . S
C785 H761 0.950 . S
C785 C784 1.524 . S
C785 C786 1.415 . S
C786 H762 0.950 . S
C786 C781 1.363 . S
C786 C785 1.415 . S
C787 H763 0.951 . S
C787 C788 1.366 . S
C787 C789 1.388 . S
C788 C787 1.366 . S
C788 C792 1.385 . S
C789 H764 0.951 . S
C789 C787 1.388 . S
C789 C790 1.366 . S
C790 C789 1.366 . S
C790 C791 1.414 . S
C790 C793 1.499 . S
C791 H765 0.950 . S
C791 C790 1.414 . S
C791 C792 1.374 . S
C792 H766 0.950 . S
C792 C788 1.385 . S
C792 C791 1.374 . S
C793 C790 1.499 . S
C793 C794 1.373 . S
C793 C795 1.389 . S
C794 H767 0.950 . S
C794 C780 1.377 . S
C794 C793 1.373 . S
C795 C779 1.377 . S
C795 C793 1.389 . S
C795 C796 1.524 . S
C796 C795 1.524 . S
C796 C797 1.397 . S
C796 C801 1.363 . S
C797 H768 0.950 . S
C797 C796 1.397 . S
C797 C798 1.334 . S
C798 H769 0.950 . S
C798 C797 1.334 . S
C798 C799 1.287 . S
C799 C798 1.287 . S
C799 C800 1.524 . S
C799 H802 0.999 . S
C800 H770 0.950 . S
C800 C799 1.524 . S
C800 C801 1.415 . S
C801 H771 0.950 . S
C801 C796 1.363 . S
C801 C800 1.415 . S
H802 C799 0.999 . S
H803 C784 0.913 . S
H804 C822 0.951 . S
H805 C824 0.951 . S
H806 C826 0.950 . S
H807 C827 0.950 . S
H808 C829 0.950 . S
H809 C832 0.950 . S
H810 C833 0.950 . S
H811 C835 0.950 . S
H812 C836 0.950 . S
H813 C837 0.951 . S
H814 C839 0.951 . S
H815 C841 0.950 . S
H816 C842 0.950 . S
H817 C844 0.950 . S
H818 C847 0.950 . S
H819 C848 0.950 . S
H820 C850 0.950 . S
H821 C851 0.950 . S
C822 H804 0.951 . S
C822 C823 1.366 . S
C822 C824 1.388 . S
C823 C822 1.366 . S
C823 C827 1.385 . S
C824 H805 0.951 . S
C824 C822 1.388 . S
C824 C825 1.366 . S
C825 C824 1.366 . S
C825 C826 1.414 . S
C825 C828 1.499 . S
C826 H806 0.950 . S
C826 C825 1.414 . S
C826 C827 1.374 . S
C827 H807 0.950 . S
C827 C823 1.385 . S
C827 C826 1.374 . S
C828 C825 1.499 . S
C828 C829 1.373 . S
C828 C830 1.389 . S
C829 H808 0.950 . S
C829 C828 1.373 . S
C829 C845 1.377 1_655 S
C830 C828 1.389 . S
C830 C831 1.524 . S
C830 C844 1.377 1_655 S
C831 C830 1.524 . S
C831 C832 1.397 . S
C831 C836 1.363 . S
C832 H809 0.950 . S
C832 C831 1.397 . S
C832 C833 1.334 1_554 S
C833 H810 0.950 . S
C833 C832 1.334 1_556 S
C833 C834 1.287 . S
C834 C833 1.287 . S
C834 C835 1.518 1_556 S
C834 H853 0.918 . S
C835 H811 0.950 . S
C835 C834 1.518 1_554 S
C835 C836 1.415 . S
C836 H812 0.950 . S
C836 C831 1.363 . S
C836 C835 1.415 . S
C837 H813 0.951 . S
C837 C838 1.366 . S
C837 C839 1.388 . S
C838 C837 1.366 . S
C838 C842 1.385 . S
C839 H814 0.951 . S
C839 C837 1.388 . S
C839 C840 1.366 . S
C840 C839 1.366 . S
C840 C841 1.414 . S
C840 C843 1.499 . S
C841 H815 0.950 . S
C841 C840 1.414 . S
C841 C842 1.374 . S
C842 H816 0.950 . S
C842 C838 1.385 . S
C842 C841 1.374 . S
C843 C840 1.499 . S
C843 C844 1.373 . S
C843 C845 1.389 . S
C844 H817 0.950 . S
C844 C830 1.377 1_455 S
C844 C843 1.373 . S
C845 C829 1.377 1_455 S
C845 C843 1.389 . S
C845 C846 1.524 . S
C846 C845 1.524 . S
C846 C847 1.397 . S
C846 C851 1.363 . S
C847 H818 0.950 . S
C847 C846 1.397 . S
C847 C848 1.334 . S
C848 H819 0.950 . S
C848 C847 1.334 . S
C848 C849 1.287 . S
C849 C848 1.287 . S
C849 C850 1.524 . S
C849 H852 0.999 . S
C850 H820 0.950 . S
C850 C849 1.524 . S
C850 C851 1.415 . S
C851 H821 0.950 . S
C851 C846 1.363 . S
C851 C850 1.415 . S
H852 C849 0.999 . S
H853 C834 0.918 . S
H854 C872 0.951 . S
H855 C874 0.951 . S
H856 C876 0.950 . S
H857 C877 0.950 . S
H858 C879 0.950 . S
H859 C882 0.950 . S
H860 C883 0.950 . S
H861 C885 0.950 . S
H862 C886 0.996 . S
H863 C887 0.951 . S
H864 C889 0.951 . S
H865 C891 0.950 . S
H866 C892 0.950 . S
H867 C894 0.950 . S
H868 C897 0.950 . S
H869 C898 0.950 . S
H870 C900 0.950 . S
H871 C901 0.996 . S
C872 H854 0.951 . S
C872 C873 1.366 . S
C872 C874 1.388 . S
C873 C872 1.366 . S
C873 C877 1.385 . S
C874 H855 0.951 . S
C874 C872 1.388 . S
C874 C875 1.366 . S
C875 C874 1.366 . S
C875 C876 1.414 . S
C875 C878 1.499 . S
C876 H856 0.950 . S
C876 C875 1.414 . S
C876 C877 1.374 . S
C877 H857 0.950 . S
C877 C873 1.385 . S
C877 C876 1.374 . S
C878 C875 1.499 . S
C878 C879 1.373 . S
C878 C880 1.389 . S
C879 H858 0.950 . S
C879 C878 1.373 . S
C879 C895 1.377 1_545 S
C880 C878 1.389 . S
C880 C881 1.524 . S
C880 C894 1.377 1_545 S
C881 C880 1.524 . S
C881 C882 1.397 . S
C881 C886 1.363 . S
C882 H859 0.950 . S
C882 C881 1.397 . S
C882 C883 1.334 . S
C883 H860 0.950 . S
C883 C882 1.334 . S
C883 C884 1.287 . S
C884 C883 1.287 . S
C884 C885 1.524 . S
C884 H903 0.913 . S
C885 H861 0.950 . S
C885 C884 1.524 . S
C885 C886 1.415 . S
C886 H862 0.996 . S
C886 C881 1.363 . S
C886 C885 1.415 . S
C887 H863 0.951 . S
C887 C888 1.366 . S
C887 C889 1.388 . S
C888 C887 1.366 . S
C888 C892 1.385 . S
C889 H864 0.951 . S
C889 C887 1.388 . S
C889 C890 1.366 . S
C890 C889 1.366 . S
C890 C891 1.414 . S
C890 C893 1.499 . S
C891 H865 0.950 . S
C891 C890 1.414 . S
C891 C892 1.374 . S
C892 H866 0.950 . S
C892 C888 1.385 . S
C892 C891 1.374 . S
C893 C890 1.499 . S
C893 C894 1.373 . S
C893 C895 1.389 . S
C894 H867 0.950 . S
C894 C880 1.377 1_565 S
C894 C893 1.373 . S
C895 C879 1.377 1_565 S
C895 C893 1.389 . S
C895 C896 1.524 . S
C896 C895 1.524 . S
C896 C897 1.397 . S
C896 C901 1.363 . S
C897 H868 0.950 . S
C897 C896 1.397 . S
C897 C898 1.334 . S
C898 H869 0.950 . S
C898 C897 1.334 . S
C898 C899 1.287 . S
C899 C898 1.287 . S
C899 C900 1.524 . S
C899 H902 0.999 . S
C900 H870 0.950 . S
C900 C899 1.524 . S
C900 C901 1.415 . S
C901 H871 0.996 . S
C901 C896 1.363 . S
C901 C900 1.415 . S
H902 C899 0.999 . S
H903 C884 0.913 . S
H904 C922 0.951 . S
H905 C924 0.951 . S
H906 C926 0.950 . S
H907 C927 0.950 . S
H908 C929 0.950 . S
H909 C932 0.950 . S
H910 C933 0.950 . S
H911 C935 0.950 . S
H912 C936 0.950 . S
H913 C937 0.951 . S
H914 C939 0.951 . S
H915 C941 0.950 . S
H916 C942 0.950 . S
H917 C944 0.950 . S
H918 C947 0.950 . S
H919 C948 0.950 1_554 S
H920 C950 0.950 . S
H921 C951 0.950 . S
C922 H904 0.951 . S
C922 C923 1.366 . S
C922 C924 1.388 . S
C923 C922 1.366 . S
C923 C927 1.385 . S
C924 H905 0.951 . S
C924 C922 1.388 . S
C924 C925 1.366 . S
C925 C924 1.366 . S
C925 C926 1.414 . S
C925 C928 1.499 . S
C926 H906 0.950 . S
C926 C925 1.414 . S
C926 C927 1.374 . S
C927 H907 0.950 . S
C927 C923 1.385 . S
C927 C926 1.374 . S
C928 C925 1.499 . S
C928 C929 1.373 . S
C928 C930 1.389 . S
C929 H908 0.950 . S
C929 C928 1.373 . S
C929 C945 1.377 . S
C930 C928 1.389 . S
C930 C931 1.524 . S
C930 C944 1.377 . S
C931 C930 1.524 . S
C931 C932 1.397 . S
C931 C936 1.363 . S
C932 H909 0.950 . S
C932 C931 1.397 . S
C932 C933 1.334 . S
C933 H910 0.950 . S
C933 C932 1.334 . S
C933 C934 1.287 . S
C934 C933 1.287 . S
C934 C935 1.524 . S
C934 H953 0.913 . S
C935 H911 0.950 . S
C935 C934 1.524 . S
C935 C936 1.415 . S
C936 H912 0.950 . S
C936 C931 1.363 . S
C936 C935 1.415 . S
C937 H913 0.951 . S
C937 C938 1.366 . S
C937 C939 1.388 . S
C938 C937 1.366 . S
C938 C942 1.385 . S
C939 H914 0.951 . S
C939 C937 1.388 . S
C939 C940 1.366 . S
C940 C939 1.366 . S
C940 C941 1.414 . S
C940 C943 1.499 . S
C941 H915 0.950 . S
C941 C940 1.414 . S
C941 C942 1.374 . S
C942 H916 0.950 . S
C942 C938 1.385 . S
C942 C941 1.374 . S
C943 C940 1.499 . S
C943 C944 1.373 . S
C943 C945 1.389 . S
C944 H917 0.950 . S
C944 C930 1.377 . S
C944 C943 1.373 . S
C945 C929 1.377 . S
C945 C943 1.389 . S
C945 C946 1.524 . S
C946 C945 1.524 . S
C946 C947 1.397 . S
C946 C951 1.363 . S
C947 H918 0.950 . S
C947 C946 1.397 . S
C947 C948 1.334 . S
C948 H919 0.950 1_556 S
C948 C947 1.334 . S
C948 C949 1.287 1_556 S
C949 C948 1.287 1_554 S
C949 C950 1.524 1_554 S
C949 H952 0.999 . S
C950 H920 0.950 . S
C950 C949 1.524 1_556 S
C950 C951 1.415 . S
C951 H921 0.950 . S
C951 C946 1.363 . S
C951 C950 1.415 . S
H952 C949 0.999 . S
H953 C934 0.913 . S
C223 C33 1.346 . S
C238 C70 1.311 . S
C273 C67 1.346 . S
C288 C104 1.311 . S
C323 C138 1.311 . S
C338 C101 1.345 . S
C373 C172 1.311 . S
C388 C135 1.346 . S
C423 C169 1.346 . S
C438 C2 1.311 . S
C473 C36 1.310 . S
C488 C203 1.346 . S
C523 C5 1.032 . S
C538 C9 1.027 . S
C573 C43 1.027 . S
C588 C39 1.032 . S
C623 C73 1.033 . S
C638 C77 1.027 . S
C673 C107 1.032 . S
C688 C111 1.027 . S
C723 C141 1.033 . S
C738 C145 1.027 . S
C773 C179 1.027 . S
C788 C175 1.032 . S
C823 C122 1.503 . S
C838 C20 1.503 . S
C873 C54 1.503 . S
C888 C156 1.503 . S
C923 C88 1.503 . S
C938 C190 1.503 . S
