# Generated by pormake.
# Topology ung, (4)-cn, num edge types: 1
# Building blocks:
#     Node 0, Type 0, BuildingBlock: ESEHIV_clean_sbu_0, # of connection points: 4
#     Node 1, Type 0, BuildingBlock: ESEHIV_clean_sbu_0, # of connection points: 4
#     Node 2, Type 0, BuildingBlock: ESEHIV_clean_sbu_0, # of connection points: 4
#     Node 3, Type 0, BuildingBlock: ESEHIV_clean_sbu_0, # of connection points: 4
#     Node 4, Type 0, BuildingBlock: ESEHIV_clean_sbu_0, # of connection points: 4
#     Node 5, Type 0, BuildingBlock: ESEHIV_clean_sbu_0, # of connection points: 4
#     Node 6, Type 0, BuildingBlock: ESEHIV_clean_sbu_0, # of connection points: 4
#     Node 7, Type 0, BuildingBlock: ESEHIV_clean_sbu_0, # of connection points: 4
#     Node 8, Type 0, BuildingBlock: ESEHIV_clean_sbu_0, # of connection points: 4
#     Node 9, Type 0, BuildingBlock: ESEHIV_clean_sbu_0, # of connection points: 4
#     Node 10, Type 0, BuildingBlock: ESEHIV_clean_sbu_0, # of connection points: 4
#     Node 11, Type 0, BuildingBlock: ESEHIV_clean_sbu_0, # of connection points: 4
#     Node 12, Type 0, BuildingBlock: ESEHIV_clean_sbu_0, # of connection points: 4
#     Node 13, Type 0, BuildingBlock: ESEHIV_clean_sbu_0, # of connection points: 4
#     Node 14, Type 0, BuildingBlock: ESEHIV_clean_sbu_0, # of connection points: 4
#     Node 15, Type 0, BuildingBlock: ESEHIV_clean_sbu_0, # of connection points: 4
#     Node 16, Type 0, BuildingBlock: ESEHIV_clean_sbu_0, # of connection points: 4
#     Node 17, Type 0, BuildingBlock: ESEHIV_clean_sbu_0, # of connection points: 4
#     Edge 18, Type (0, 0), BuildingBlock: CIFDUS_clean_linker_0, # of connection points: 2
#     Edge 19, Type (0, 0), BuildingBlock: CIFDUS_clean_linker_0, # of connection points: 2
#     Edge 20, Type (0, 0), BuildingBlock: CIFDUS_clean_linker_0, # of connection points: 2
#     Edge 21, Type (0, 0), BuildingBlock: CIFDUS_clean_linker_0, # of connection points: 2
#     Edge 22, Type (0, 0), BuildingBlock: CIFDUS_clean_linker_0, # of connection points: 2
#     Edge 23, Type (0, 0), BuildingBlock: CIFDUS_clean_linker_0, # of connection points: 2
#     Edge 24, Type (0, 0), BuildingBlock: CIFDUS_clean_linker_0, # of connection points: 2
#     Edge 25, Type (0, 0), BuildingBlock: CIFDUS_clean_linker_0, # of connection points: 2
#     Edge 26, Type (0, 0), BuildingBlock: CIFDUS_clean_linker_0, # of connection points: 2
#     Edge 27, Type (0, 0), BuildingBlock: CIFDUS_clean_linker_0, # of connection points: 2
#     Edge 28, Type (0, 0), BuildingBlock: CIFDUS_clean_linker_0, # of connection points: 2
#     Edge 29, Type (0, 0), BuildingBlock: CIFDUS_clean_linker_0, # of connection points: 2
#     Edge 30, Type (0, 0), BuildingBlock: CIFDUS_clean_linker_0, # of connection points: 2
#     Edge 31, Type (0, 0), BuildingBlock: CIFDUS_clean_linker_0, # of connection points: 2
#     Edge 32, Type (0, 0), BuildingBlock: CIFDUS_clean_linker_0, # of connection points: 2
#     Edge 33, Type (0, 0), BuildingBlock: CIFDUS_clean_linker_0, # of connection points: 2
#     Edge 34, Type (0, 0), BuildingBlock: CIFDUS_clean_linker_0, # of connection points: 2
#     Edge 35, Type (0, 0), BuildingBlock: CIFDUS_clean_linker_0, # of connection points: 2
#     Edge 36, Type (0, 0), BuildingBlock: CIFDUS_clean_linker_0, # of connection points: 2
#     Edge 37, Type (0, 0), BuildingBlock: CIFDUS_clean_linker_0, # of connection points: 2
#     Edge 38, Type (0, 0), BuildingBlock: CIFDUS_clean_linker_0, # of connection points: 2
#     Edge 39, Type (0, 0), BuildingBlock: CIFDUS_clean_linker_0, # of connection points: 2
#     Edge 40, Type (0, 0), BuildingBlock: CIFDUS_clean_linker_0, # of connection points: 2
#     Edge 41, Type (0, 0), BuildingBlock: CIFDUS_clean_linker_0, # of connection points: 2
#     Edge 42, Type (0, 0), BuildingBlock: CIFDUS_clean_linker_0, # of connection points: 2
#     Edge 43, Type (0, 0), BuildingBlock: CIFDUS_clean_linker_0, # of connection points: 2
#     Edge 44, Type (0, 0), BuildingBlock: CIFDUS_clean_linker_0, # of connection points: 2
#     Edge 45, Type (0, 0), BuildingBlock: CIFDUS_clean_linker_0, # of connection points: 2
#     Edge 46, Type (0, 0), BuildingBlock: CIFDUS_clean_linker_0, # of connection points: 2
#     Edge 47, Type (0, 0), BuildingBlock: CIFDUS_clean_linker_0, # of connection points: 2
#     Edge 48, Type (0, 0), BuildingBlock: CIFDUS_clean_linker_0, # of connection points: 2
#     Edge 49, Type (0, 0), BuildingBlock: CIFDUS_clean_linker_0, # of connection points: 2
#     Edge 50, Type (0, 0), BuildingBlock: CIFDUS_clean_linker_0, # of connection points: 2
#     Edge 51, Type (0, 0), BuildingBlock: CIFDUS_clean_linker_0, # of connection points: 2
#     Edge 52, Type (0, 0), BuildingBlock: CIFDUS_clean_linker_0, # of connection points: 2
#     Edge 53, Type (0, 0), BuildingBlock: CIFDUS_clean_linker_0, # of connection points: 2
# Relax obj value: 0.012
# Max RMSD: 0.193
# Mean RMSD: 0.160
data_MOF--net-ung--node1-ESEHIV_clean_sbu_0--edge1-CIFDUS_clean_linker_0
_symmetry_space_group_name_H-M    P1
_symmetry_Int_Tables_number       1
_symmetry_cell_setting            triclinic
loop_
_symmetry_equiv_pos_as_xyz
'x, y, z'
_cell_length_a     79.904627
_cell_length_b     78.26841
_cell_length_c     18.882026
_cell_angle_alpha  97.069993
_cell_angle_beta   86.755327
_cell_angle_gamma 122.38988
loop_
_atom_site_label
_atom_site_type_symbol
_atom_site_fract_x
_atom_site_fract_y
_atom_site_fract_z
_atom_type_partial_charge
Cu0 Cu 0.0503 0.59291 0.21694 0.0
N1 N 0.04348 0.57826 0.29626 0.0
N2 N 0.04435 0.56139 0.38231 0.0
C3 C 0.0532 0.57071 0.32322 0.0
C4 C 0.02846 0.56319 0.39243 0.0
C5 C 0.02799 0.57358 0.33956 0.0
O6 O 0.05991 0.58076 0.14193 0.0
C7 C 0.06615 0.63136 0.29525 0.0
O8 O 0.04808 0.62251 0.32062 0.0
H9 H 0.06667 0.57238 0.30056 0.0
H10 H 1.01716 0.57757 0.33332 0.0
N11 N 0.02787 0.59132 0.18241 0.0
N12 N 1.00744 0.5988 0.13747 0.0
C13 C 0.02629 0.60588 0.15747 0.0
C14 C 1.00952 0.57454 0.17749 0.0
C15 C 0.99696 0.57905 0.14993 0.0
C16 C 0.04966 0.56164 0.1225 0.0
O17 O 0.03277 0.55033 0.1543 0.0
H18 H 0.03863 0.62136 0.15504 0.0
H19 H 1.00554 0.55998 0.19306 0.0
O20 O 0.07042 0.62124 0.24777 0.0
H21 H 1.01776 0.55726 0.43465 0.0
H22 H 0.9813 0.56843 0.13905 0.0
Cu23 Cu 0.50292 0.47214 0.16929 0.0
N24 N 0.5129 0.48851 0.09431 0.0
N25 N 0.53445 0.5087 1.01595 0.0
C26 C 0.53215 0.50101 0.0787 0.0
C27 C 0.51583 0.50061 0.99138 0.0
C28 C 0.50264 0.48805 0.0393 0.0
O29 O 0.52417 0.484 0.241 0.0
C30 C 0.48342 0.42796 0.14988 0.0
O31 O 0.47818 0.4281 0.21698 0.0
H32 H 0.54419 0.50357 0.11112 0.0
H33 H 0.48671 0.4786 0.03295 0.0
N34 N 0.48068 0.47186 0.20966 0.0
N35 N 0.45412 0.464 0.2779 0.0
C36 C 0.47022 0.46256 0.26661 0.0
C37 C 0.47108 0.47983 0.18531 0.0
C38 C 0.4547 0.47494 0.2269 0.0
C39 C 0.5311 0.50248 0.2667 0.0
O40 O 0.52298 0.51192 0.24629 0.0
H41 H 0.47409 0.45452 0.29823 0.0
H42 H 0.47555 0.48853 0.14019 0.0
O43 O 0.49464 0.4448 0.12394 0.0
H44 H 0.5119 0.50321 0.94167 0.0
H45 H 0.44409 0.47921 0.22027 0.0
Cu46 Cu 0.62292 0.03137 0.32754 0.0
N47 N 0.60833 0.02349 0.24249 0.0
N48 N 0.59063 0.02279 0.153 0.0
C49 C 0.59912 0.0319 0.21797 0.0
C50 C 0.59468 1.0081 0.13642 0.0
C51 C 0.60558 1.0086 0.19146 0.0
O52 O 0.61121 0.04161 0.40117 0.0
C53 C 0.66009 0.04661 0.26328 0.0
O54 O 0.65146 0.02749 0.23588 0.0
H55 H 0.59905 0.04472 0.2466 0.0
H56 H 0.61124 0.99885 0.19388 0.0
N57 N 0.62136 1.00864 0.35807 0.0
N58 N 0.6271 0.98846 0.41311 0.0
C59 C 0.63422 1.00771 0.39861 0.0
C60 C 0.60577 0.98941 0.34641 0.0
C61 C 0.60925 0.97698 0.37997 0.0
C62 C 0.59272 0.03064 0.41409 0.0
O63 O 0.58198 0.01287 0.37635 0.0
H64 H 0.64817 0.02091 0.41869 0.0
H65 H 0.59259 0.98478 0.31637 0.0
O66 O 0.65044 0.05178 0.3073 0.0
H67 H 0.59001 0.9976 0.08814 0.0
H68 H 0.59935 0.96068 0.37998 0.0
Cu69 Cu 0.07218 0.46592 0.71918 0.0
N70 N 0.08228 0.48413 0.64957 0.0
N71 N 0.08381 0.50369 0.56903 0.0
C72 C 0.07363 0.49296 0.62399 0.0
C73 C 0.09948 0.5015 0.56 0.0
C74 C 0.09845 0.4894 0.60942 0.0
O75 O 0.06038 0.47585 0.79362 0.0
C76 C 0.04164 0.42246 0.68995 0.0
O77 O 0.0402 0.42116 0.75898 0.0
H78 H 0.05971 0.49083 0.64352 0.0
H79 H 0.10849 0.48432 0.6144 0.0
N80 N 0.0929 0.46557 0.7605 0.0
N81 N 0.11034 0.45715 0.82126 0.0
C82 C 0.09246 0.45081 0.79274 0.0
C83 C 0.11166 0.48161 0.76874 0.0
C84 C 0.12239 0.4765 0.80578 0.0
C85 C 0.07106 0.4945 0.81929 0.0
O86 O 0.08902 0.5057 0.79442 0.0
H87 H 0.07921 0.436 0.79716 0.0
H88 H 0.11711 0.49623 0.75015 0.0
O89 O 0.05363 0.43956 0.6669 0.0
H90 H 0.11081 0.50799 0.52005 0.0
H91 H 0.13794 0.48634 0.82022 0.0
Cu92 Cu 0.65416 0.61151 0.61598 0.0
N93 N 0.64559 0.59441 0.68839 0.0
N94 N 0.62484 0.57315 0.7654 0.0
C95 C 0.62665 0.58315 0.70929 0.0
C96 C 0.64342 0.57838 0.7806 0.0
C97 C 0.65621 0.59147 0.73274 0.0
O98 O 0.6329 0.59825 0.54364 0.0
C99 C 0.67211 0.64749 0.70947 0.0
O100 O 0.68217 0.63972 0.72679 0.0
H101 H 0.61449 0.58271 0.68474 0.0
H102 H 0.67212 0.59853 0.73096 0.0
N103 N 0.67785 0.61549 0.57541 0.0
N104 N 0.70857 0.63113 0.53073 0.0
C105 C 0.69372 0.63328 0.55859 0.0
C106 C 0.68277 0.60156 0.55753 0.0
C107 C 0.70166 0.61113 0.52985 0.0
C108 C 0.62556 0.5795 0.52092 0.0
O109 O 0.63318 0.56993 0.5443 0.0
H110 H 0.6943 0.64752 0.56653 0.0
H111 H 0.67337 0.58561 0.56491 0.0
O112 O 0.65895 0.63777 0.66014 0.0
H113 H 0.64746 0.57305 0.82291 0.0
H114 H 0.70983 0.60398 0.51225 0.0
Cu115 Cu 0.49629 0.05006 0.79418 0.0
N116 N 0.51062 0.05706 0.87932 0.0
N117 N 0.52782 0.05694 0.96873 0.0
C118 C 0.51913 0.04796 0.90395 0.0
C119 C 0.52464 0.07226 0.98503 0.0
C120 C 0.51407 0.07228 0.93 0.0
O121 O 0.50783 0.03986 0.71934 0.0
C122 C 0.45908 0.03438 0.85988 0.0
O123 O 0.46797 0.05307 0.89178 0.0
H124 H 0.51865 0.03483 0.87544 0.0
H125 H 0.50916 0.08265 0.92718 0.0
N126 N 0.49875 0.07359 0.7669 0.0
N127 N 0.49322 0.09584 0.72553 0.0
C128 C 0.48533 0.07621 0.7375 0.0
C129 C 0.51558 0.09206 0.77326 0.0
C130 C 0.51228 0.10571 0.74787 0.0
C131 C 0.5265 0.05015 0.70883 0.0
O132 O 0.53761 0.06719 0.74996 0.0
H133 H 0.47011 0.06404 0.72597 0.0
H134 H 0.52937 0.09539 0.79502 0.0
O135 O 0.46856 0.02976 0.81291 0.0
H136 H 0.52976 0.08288 0.03302 0.0
H137 H 0.52328 0.12167 0.74517 0.0
Cu138 Cu 0.72895 0.94024 0.65141 0.0
N139 N 0.72024 0.92002 0.7133 0.0
N140 N 0.7188 0.89723 0.77844 0.0
C141 C 0.73021 0.91227 0.73699 0.0
C142 C 0.70117 0.89572 0.7822 0.0
C143 C 0.70217 0.90988 0.74277 0.0
O144 O 0.73661 0.93118 0.56111 0.0
C145 C 0.75759 0.98382 0.68658 0.0
O146 O 0.75547 0.98639 0.62098 0.0
H147 H 0.74538 0.9173 0.72361 0.0
H148 H 0.69044 0.91257 0.73631 0.0
N149 N 0.707 0.94108 0.62596 0.0
N150 N 0.68718 0.95032 0.58785 0.0
C151 C 0.70537 0.95683 0.61389 0.0
C152 C 0.68944 0.92424 0.60551 0.0
C153 C 0.6772 0.92983 0.58286 0.0
C154 C 0.74766 0.92399 0.54936 0.0
O155 O 0.75896 0.92564 0.60089 0.0
H156 H 0.7173 0.97262 0.62231 0.0
H157 H 0.68606 0.90885 0.60435 0.0
O158 O 0.74865 0.96588 0.70512 0.0
H159 H 0.6885 0.88519 0.81183 0.0
H160 H 0.66242 0.91954 0.5608 0.0
Cu161 Cu 0.15539 0.80045 0.58837 0.0
N162 N 0.1719 0.80984 0.66928 0.0
N163 N 0.19466 0.83005 0.75424 0.0
C164 C 0.18341 0.82906 0.70111 0.0
C165 C 0.18993 0.8108 0.75625 0.0
C166 C 0.17588 0.7984 0.70416 0.0
O167 O 0.17051 0.81773 0.51328 0.0
C168 C 0.12118 0.78831 0.66889 0.0
O169 O 0.13019 0.7824 0.70625 0.0
H170 H 0.18411 0.84212 0.68411 0.0
H171 H 0.1693 0.78218 0.69162 0.0
N172 N 0.15017 0.77463 0.55215 0.0
N173 N 0.13509 0.74261 0.49891 0.0
C174 C 0.13281 0.75795 0.528 0.0
C175 C 0.16385 0.76971 0.53782 0.0
C176 C 0.15463 0.75001 0.50537 0.0
C177 C 0.17786 0.83666 0.51052 0.0
O178 O 0.1735 0.84695 0.5601 0.0
H179 H 0.11895 0.75735 0.52947 0.0
H180 H 0.17954 0.77993 0.54899 0.0
O181 O 0.12989 0.79751 0.6142 0.0
H182 H 0.19633 0.80606 0.79248 0.0
H183 H 0.16181 0.74182 0.48782 0.0
Cu184 Cu 0.30495 0.37843 0.60108 0.0
N185 N 0.29522 0.38753 0.67975 0.0
N186 N 0.27555 0.38802 0.76784 0.0
C187 C 0.27753 0.37679 0.71169 0.0
C188 C 0.29251 0.40646 0.77132 0.0
C189 C 0.30452 0.40618 0.71657 0.0
O190 O 0.28998 0.37569 0.51751 0.0
C191 C 0.3124 0.3559 0.68115 0.0
O192 O 0.31876 0.37273 0.72439 0.0
H193 H 0.2665 0.36101 0.69507 0.0
H194 H 0.31899 0.41878 0.70436 0.0
N195 N 0.33172 0.39811 0.58609 0.0
N196 N 0.36078 0.41611 0.5313 0.0
C197 C 0.34104 0.40249 0.52288 0.0
C198 C 0.34607 0.40937 0.63596 0.0
C199 C 0.36393 0.42047 0.60248 0.0
C200 C 0.27125 0.36428 0.50861 0.0
O201 O 0.26071 0.35071 0.55312 0.0
H202 H 0.33359 0.39531 0.47187 0.0
H203 H 0.34385 0.40933 0.69292 0.0
O204 O 0.30425 0.3541 0.62208 0.0
H205 H 0.2958 0.4193 0.8101 0.0
H206 H 0.37813 0.43096 0.62864 0.0
Cu207 Cu 0.73929 0.80664 0.0663 0.0
N208 N 0.73143 0.8159 0.15051 0.0
N209 N 0.73223 0.83685 0.24445 0.0
C210 C 0.74301 0.83285 0.19532 0.0
C211 C 0.71321 0.82178 0.2306 0.0
C212 C 0.71277 0.80887 0.17301 0.0
O213 O 0.74373 0.82477 0.99605 0.0
C214 C 0.75985 0.79311 0.13037 0.0
O215 O 0.74237 0.78245 0.15952 0.0
H216 H 0.75891 0.84257 0.18996 0.0
H217 H 0.69965 0.79565 0.14808 0.0
N218 N 0.71891 0.78077 0.027 0.0
N219 N 0.7037 0.75002 0.96297 0.0
C220 C 0.7206 0.76519 0.99697 0.0
C221 C 0.70038 0.77534 1.01091 0.0
C222 C 0.69094 0.7564 0.97214 0.0
C223 C 0.75625 0.84386 1.00026 0.0
O224 O 0.76952 0.85268 0.05206 0.0
H225 H 0.73431 0.7655 0.99676 0.0
H226 H 0.69443 0.78491 0.02339 0.0
O227 O 0.76226 0.80539 0.08654 0.0
H228 H 0.70051 0.82036 0.25953 0.0
H229 H 0.67596 0.7482 0.95113 0.0
Cu230 Cu 0.29825 0.9458 0.11159 0.0
N231 N 0.28827 0.92961 0.18759 0.0
N232 N 0.26712 0.90974 0.26752 0.0
C233 C 0.27081 0.92322 0.22115 0.0
C234 C 0.28289 0.90771 0.26328 0.0
C235 C 0.2959 0.91999 0.21426 0.0
O236 O 0.27981 0.93038 0.03207 0.0
C237 C 0.3111 0.98199 0.20032 0.0
O238 O 0.31587 0.97274 0.24104 0.0
H239 H 0.26066 0.9277 0.20969 0.0
H240 H 0.30973 0.9214 0.19794 0.0
N241 N 0.32276 0.94983 0.08052 0.0
N242 N 0.35335 0.96459 0.03458 0.0
C243 C 0.33905 0.96743 0.0643 0.0
C244 C 0.32684 0.93536 0.06023 0.0
C245 C 0.34566 0.9444 0.03229 0.0
C246 C 0.26297 0.92805 0.02421 0.0
O247 O 0.25743 0.93816 0.06974 0.0
H248 H 0.34002 0.98187 0.07133 0.0
H249 H 0.31659 0.91927 0.0635 0.0
O250 O 0.30232 0.97258 0.14088 0.0
H251 H 0.2848 0.8979 0.29314 0.0
H252 H 0.35302 0.93661 1.01137 0.0
Cu253 Cu 0.16655 0.37342 0.11413 0.0
N254 N 0.1816 0.3803 0.19754 0.0
N255 N 0.20069 0.37947 0.27769 0.0
C256 C 0.18766 0.36904 0.22285 0.0
C257 C 0.20282 0.39789 0.28762 0.0
C258 C 0.19096 0.39833 0.23842 0.0
O259 O 0.17947 0.36461 0.04202 0.0
C260 C 0.13001 0.35673 0.18172 0.0
O261 O 0.13941 0.3749 0.2179 0.0
H262 H 0.18334 0.35389 0.19934 0.0
H263 H 0.18977 0.41114 0.2315 0.0
N264 N 0.16856 0.39663 0.08569 0.0
N265 N 0.1626 0.41838 0.04291 0.0
C266 C 0.15464 0.39921 0.06023 0.0
C267 C 0.18577 0.41457 0.08305 0.0
C268 C 0.18216 0.42797 0.05728 0.0
C269 C 0.17739 0.36336 0.97494 0.0
O270 O 0.16359 0.36539 0.95004 0.0
H271 H 0.13909 0.38736 0.05468 0.0
H272 H 0.20006 0.41757 0.09794 0.0
O273 O 0.13907 0.35262 0.13149 0.0
H274 H 0.21245 0.41023 0.32711 0.0
H275 H 0.19322 0.44351 0.04824 0.0
Cu276 Cu 0.38311 0.27405 0.91632 0.0
N277 N 0.37356 0.25559 0.98465 0.0
N278 N 0.37228 0.23368 0.05399 0.0
C279 C 0.38173 0.24525 1.00029 0.0
C280 C 0.3576 0.23698 0.07307 0.0
C281 C 0.35842 0.25049 0.03011 0.0
O282 O 0.39302 0.26309 0.838 0.0
C283 C 0.41619 0.31645 0.94004 0.0
O284 O 0.41762 0.31662 0.87045 0.0
H285 H 0.39466 0.24657 0.97364 0.0
H286 H 0.3488 0.25633 0.03227 0.0
N287 N 0.3628 0.27626 0.88162 0.0
N288 N 0.34698 0.28923 0.83723 0.0
C289 C 0.36423 0.2932 0.86406 0.0
C290 C 0.34397 0.2611 0.86572 0.0
C291 C 0.33421 0.26902 0.83818 0.0
C292 C 0.38135 0.24441 0.81441 0.0
O293 O 0.3636 0.23427 0.84199 0.0
H294 H 0.37775 0.30809 0.86985 0.0
H295 H 0.33772 0.24535 0.87363 0.0
O296 O 0.40321 0.30017 0.96612 0.0
H297 H 0.34696 0.23004 0.11473 0.0
H298 H 0.31882 0.26061 0.8214 0.0
Cu299 Cu 0.8177 0.13162 0.98322 0.0
N300 N 0.82738 0.15029 0.91597 0.0
N301 N 0.8483 0.16956 0.8347 0.0
C302 C 0.84487 0.15681 0.88337 0.0
C303 C 0.83227 0.17118 0.83702 0.0
C304 C 0.81931 0.15917 0.88703 0.0
O305 O 0.83892 0.14316 0.05506 0.0
C306 C 0.8063 0.08892 0.94383 0.0
O307 O 0.80486 0.08617 1.01167 0.0
H308 H 0.85488 0.1522 0.89545 0.0
H309 H 0.80493 0.1568 0.90026 0.0
N310 N 0.79446 0.12828 0.02633 0.0
N311 N 0.76483 0.11418 0.07968 0.0
C312 C 0.77876 0.11107 0.04794 0.0
C313 C 0.79033 0.14278 0.04499 0.0
C314 C 0.77213 0.13417 0.07771 0.0
C315 C 0.84618 0.1618 0.07948 0.0
O316 O 0.83841 0.17141 0.05774 0.0
H317 H 0.77775 0.09663 0.0416 0.0
H318 H 0.79991 0.15857 0.03572 0.0
O319 O 0.81183 0.10637 0.92611 0.0
H320 H 0.8298 0.17994 0.80365 0.0
H321 H 0.76477 0.14203 0.09762 0.0
Cu322 Cu 0.97313 0.70623 0.8644 0.0
N323 N 0.96022 0.70017 0.77646 0.0
N324 N 0.94393 0.70071 0.68467 0.0
C325 C 0.95136 0.7089 0.75154 0.0
C326 C 0.94822 0.6862 0.66752 0.0
C327 C 0.95825 0.68595 0.7239 0.0
O328 O 0.95836 0.71208 0.93917 0.0
C329 C 1.00924 0.73707 0.8035 0.0
O330 O 0.99769 0.73493 0.75193 0.0
H331 H 0.95081 0.72131 0.7812 0.0
H332 H 0.96381 0.67612 0.72638 0.0
N333 N 0.97128 0.68262 0.88689 0.0
N334 N 0.97699 0.66128 0.93413 0.0
C335 C 0.98457 0.68071 0.92076 0.0
C336 C 0.95489 0.66382 0.87841 0.0
C337 C 0.95835 0.65066 0.90722 0.0
C338 C 0.9563 0.72724 0.9479 0.0
O339 O 0.96619 0.74203 0.90717 0.0
H340 H 0.99916 0.69341 0.93768 0.0
H341 H 0.94118 0.66006 0.85438 0.0
O342 O 1.00144 0.72726 0.85771 0.0
H343 H 0.9443 0.6763 0.61794 0.0
H344 H 0.94787 0.63451 0.90867 0.0
Cu345 Cu 0.39353 0.1371 0.4351 0.0
N346 N 0.39809 0.15095 0.35508 0.0
N347 N 0.39586 0.16959 0.27941 0.0
C348 C 0.38888 0.1603 0.33964 0.0
C349 C 0.41001 0.16582 0.2562 0.0
C350 C 0.41135 0.15435 0.30296 0.0
O351 O 0.38568 0.15029 0.51244 0.0
C352 C 0.36506 0.09946 0.35369 0.0
O353 O 0.3684 0.11067 0.30202 0.0
H354 H 0.37725 0.1602 0.37218 0.0
H355 H 0.42144 0.14907 0.29972 0.0
N356 N 0.41673 0.13916 0.46318 0.0
N357 N 0.43694 0.13217 0.51244 0.0
C358 C 0.41802 0.12536 0.49493 0.0
C359 C 0.43545 0.15513 0.45995 0.0
C360 C 0.44793 0.1509 0.49043 0.0
C361 C 0.3969 0.16948 0.52891 0.0
O362 O 0.4135 0.17962 0.49404 0.0
H363 H 0.40528 0.11087 0.50681 0.0
H364 H 0.43971 0.169 0.43777 0.0
O365 O 0.37357 0.10805 0.41421 0.0
H366 H 0.41912 0.17132 0.20972 0.0
H367 H 0.46387 0.16083 0.49588 0.0
Cu368 Cu 0.96877 0.27006 0.43036 0.0
N369 N 0.95926 0.25233 0.50067 0.0
N370 N 0.93868 0.23372 0.58387 0.0
C371 C 0.94212 0.24645 0.53509 0.0
C372 C 0.95437 0.23149 0.57973 0.0
C373 C 0.96709 0.24306 0.52843 0.0
O374 O 0.94753 0.25791 0.35821 0.0
C375 C 0.98203 0.31321 0.4588 0.0
O376 O 0.98438 0.3145 0.38982 0.0
H377 H 0.93226 0.2513 0.52364 0.0
H378 H 0.98106 0.24468 0.51279 0.0
N379 N 0.99199 0.27288 0.38906 0.0
N380 N 1.02252 0.28696 0.34303 0.0
C381 C 1.00896 0.29034 0.37647 0.0
C382 C 0.99499 0.25793 0.36314 0.0
C383 C 1.01374 0.26653 0.3347 0.0
C384 C 0.93958 0.23895 0.33729 0.0
O385 O 0.94647 0.22904 0.36315 0.0
H386 H 1.01122 0.30524 0.39052 0.0
H387 H 0.9843 0.24186 0.36471 0.0
O388 O 0.97493 0.29604 0.48212 0.0
H389 H 0.95667 0.22243 0.61218 0.0
H390 H 1.02042 0.25834 0.31055 0.0
Cu391 Cu 0.85274 0.72817 0.31647 0.0
N392 N 0.86779 0.73722 0.40082 0.0
N393 N 0.88525 0.73818 0.49162 0.0
C394 C 0.87601 0.72825 0.42845 0.0
C395 C 0.88271 0.75401 0.50407 0.0
C396 C 0.87198 0.75339 0.448 0.0
O397 O 0.86817 0.72409 0.23971 0.0
C398 C 0.81678 0.7064 0.38434 0.0
O399 O 0.82445 0.72445 0.42085 0.0
H400 H 0.8748 0.71442 0.40358 0.0
H401 H 0.86736 0.76386 0.44239 0.0
N402 N 0.8485 0.74816 0.29285 0.0
N403 N 0.83325 0.76314 0.26035 0.0
C404 C 0.83104 0.7457 0.27684 0.0
C405 C 0.86225 0.76779 0.28591 0.0
C406 C 0.85291 0.77707 0.26591 0.0
C407 C 0.8709 0.70936 0.23149 0.0
O408 O 0.86152 0.69472 0.27309 0.0
H409 H 0.81704 0.73129 0.2762 0.0
H410 H 0.87798 0.77484 0.29477 0.0
O411 O 0.82688 0.70401 0.33368 0.0
H412 H 0.8883 0.76532 0.55017 0.0
H413 H 0.86004 0.79291 0.25724 0.0
H414 H 0.09023 0.53403 0.87688 0.0
H415 H 0.03562 0.47608 0.89029 0.0
H416 H 0.02429 0.49175 0.98516 0.0
H417 H 0.03001 0.52191 0.06464 0.0
H418 H 0.08463 0.5798 0.04981 0.0
H419 H 0.09581 0.56408 0.95508 0.0
C420 C 0.07582 0.52475 0.90039 0.0
C421 C 0.06381 0.50383 0.87633 0.0
C422 C 0.06941 0.53387 0.95477 0.0
C423 C 0.04518 0.49217 0.90758 0.0
C424 C 0.0387 0.50115 0.96192 0.0
C425 C 0.04438 0.53113 0.04079 0.0
C426 C 0.05646 0.55207 0.06466 0.0
C427 C 0.05071 0.52198 0.98603 0.0
C428 C 0.075 0.5637 0.03274 0.0
C429 C 0.08142 0.55471 0.97848 0.0
H430 H 0.62048 0.5681 0.90562 0.0
H431 H 0.58843 0.54845 0.70594 0.0
H432 H 0.55747 0.52666 0.76613 0.0
H433 H 0.53956 0.51312 0.87489 0.0
H434 H 0.57116 0.53351 0.07614 0.0
H435 H 0.60224 0.55473 1.01577 0.0
C436 C 0.60673 0.55891 0.87534 0.0
C437 C 0.60676 0.55992 0.8014 0.0
C438 C 0.58891 0.5465 0.91051 0.0
C439 C 0.58878 0.54813 0.76297 0.0
C440 C 0.57108 0.5356 0.79733 0.0
C441 C 0.55313 0.52234 0.90603 0.0
C442 C 0.55284 0.52158 0.9803 0.0
C443 C 0.57095 0.53474 0.87111 0.0
C444 C 0.57083 0.53348 0.01894 0.0
C445 C 0.58866 0.54575 0.98445 0.0
H446 H 0.57018 0.04055 0.19826 0.0
H447 H 0.5867 0.01633 1.00878 0.0
H448 H 0.5682 0.02422 0.93485 0.0
H449 H 0.54771 0.03858 0.92334 0.0
H450 H 0.53136 0.06294 0.11284 0.0
H451 H 0.54962 0.05477 0.18684 0.0
C452 C 0.5699 0.03716 0.1408 0.0
C453 C 0.57984 0.0278 0.10947 0.0
C454 C 0.55927 0.04184 0.0983 0.0
C455 C 0.579 0.02325 0.03475 0.0
C456 C 0.56849 0.02787 0.99221 0.0
C457 C 0.54798 0.04192 0.98083 0.0
C458 C 0.5382 0.05146 1.0122 0.0
C459 C 0.55854 0.03715 0.02335 0.0
C460 C 0.53896 0.0559 0.08693 0.0
C461 C 0.54934 0.05114 0.12947 0.0
H462 H 0.55378 1.01065 0.45185 0.0
H463 H 0.61033 0.06579 0.50618 0.0
H464 H 0.59483 0.07648 0.60179 0.0
H465 H 0.56533 0.07015 0.67034 0.0
H466 H 0.50872 0.01513 0.61582 0.0
H467 H 0.52419 1.00443 0.52001 0.0
C468 C 0.56277 0.02504 0.48447 0.0
C469 C 0.58327 0.03738 0.47159 0.0
C470 C 0.55374 0.0311 0.53948 0.0
C471 C 0.59457 0.05597 0.51462 0.0
C472 C 0.5857 0.06209 0.56944 0.0
C473 C 0.55632 0.05579 0.63765 0.0
C474 C 0.53582 0.04346 0.65062 0.0
C475 C 0.56531 0.04976 0.58245 0.0
C476 C 0.52448 0.02493 0.6073 0.0
C477 C 0.53334 0.01881 0.55241 0.0
H478 H 0.0667 0.54534 0.34268 0.0
H479 H 0.03596 0.55559 0.52186 0.0
H480 H 0.04532 0.53847 0.59537 0.0
H481 H 0.06229 0.52054 0.60949 0.0
H482 H 0.09324 0.51051 0.43073 0.0
H483 H 0.08415 0.52793 0.35738 0.0
C484 C 0.0622 0.54404 0.39795 0.0
C485 C 0.0505 0.55172 0.42615 0.0
C486 C 0.06776 0.53424 0.44042 0.0
C487 C 0.04466 0.54958 0.49795 0.0
C488 C 0.05011 0.53987 0.54038 0.0
C489 C 0.06694 0.52204 0.55438 0.0
C490 C 0.07847 0.51418 0.526 0.0
C491 C 0.06158 0.53204 0.51215 0.0
C492 C 0.08459 0.51659 0.45458 0.0
C493 C 0.07929 0.52646 0.41229 0.0
H494 H 0.60627 0.53936 0.46831 0.0
H495 H 0.60511 0.59373 0.4635 0.0
H496 H 0.57579 0.57461 0.3857 0.0
H497 H 0.55043 0.54253 0.31938 0.0
H498 H 0.55159 0.48815 0.32353 0.0
H499 H 0.58092 0.50724 0.40154 0.0
C500 C 0.59967 0.5471 0.45019 0.0
C501 C 0.60801 0.56805 0.47188 0.0
C502 C 0.58274 0.53598 0.40551 0.0
C503 C 0.59913 0.5777 0.44774 0.0
C504 C 0.5823 0.56674 0.40327 0.0
C505 C 0.55703 0.53477 0.33739 0.0
C506 C 0.5487 0.51384 0.31552 0.0
C507 C 0.57396 0.54588 0.38195 0.0
C508 C 0.55759 0.50418 0.33942 0.0
C509 C 0.57441 0.51512 0.38402 0.0
H510 H 0.71572 0.85891 0.27776 0.0
H511 H 0.76444 0.85378 0.33053 0.0
H512 H 0.77466 0.8815 0.4278 0.0
H513 H 0.76818 0.90566 0.5028 0.0
H514 H 0.71995 0.91128 0.44479 0.0
H515 H 0.71129 0.88519 0.34452 0.0
C516 C 0.72861 0.86394 0.31055 0.0
C517 C 0.73916 0.85417 0.29785 0.0
C518 C 0.73449 0.88001 0.36544 0.0
C519 C 0.75609 0.86108 0.33954 0.0
C520 C 0.76187 0.87687 0.3952 0.0
C521 C 0.75595 0.90139 0.46767 0.0
C522 C 0.74466 0.9104 0.4822 0.0
C523 C 0.75099 0.88627 0.40938 0.0
C524 C 0.72893 0.90469 0.43549 0.0
C525 C 0.72386 0.88964 0.37808 0.0
H526 H 0.19453 0.87578 0.47643 0.0
H527 H 0.19642 0.82156 0.42348 0.0
H528 H 0.22393 0.83931 0.34346 0.0
H529 H 0.24858 0.87057 0.2918 0.0
H530 H 0.24633 0.92453 0.33871 0.0
H531 H 0.21789 0.90662 0.41704 0.0
C532 C 0.20085 0.86781 0.44695 0.0
C533 C 0.19337 0.84733 0.45666 0.0
C534 C 0.21673 0.87811 0.40001 0.0
C535 C 0.20174 0.83726 0.4174 0.0
C536 C 0.2176 0.84743 0.37162 0.0
C537 C 0.24185 0.87838 0.31926 0.0
C538 C 0.24967 0.8989 0.31021 0.0
C539 C 0.22539 0.86791 0.36322 0.0
C540 C 0.24055 0.90873 0.34485 0.0
C541 C 0.22434 0.89851 0.3898 0.0
H542 H 0.23266 0.34075 0.46121 0.0
H543 H 0.28723 0.39812 0.43857 0.0
H544 H 0.27022 0.40778 0.36471 0.0
H545 H 0.23943 0.40091 0.31178 0.0
H546 H 0.18524 0.34308 0.32762 0.0
H547 H 0.2024 0.33258 0.3985 0.0
C548 C 0.24088 0.35527 0.43948 0.0
C549 C 0.26121 0.36872 0.45611 0.0
C550 C 0.23101 0.36073 0.39621 0.0
C551 C 0.27161 0.38741 0.42685 0.0
C552 C 0.26187 0.39304 0.38478 0.0
C553 C 0.23145 0.38601 0.33075 0.0
C554 C 0.21108 0.37286 0.31545 0.0
C555 C 0.24152 0.37999 0.37014 0.0
C556 C 0.20092 0.35343 0.33894 0.0
C557 C 0.21073 0.34748 0.37955 0.0
H558 H 0.2147 0.37511 1.01088 0.0
H559 H 0.17481 0.35251 0.83039 0.0
H560 H 0.20151 0.35634 0.74992 0.0
H561 H 0.23707 0.3687 0.73033 0.0
H562 H 0.27708 0.39422 0.91072 0.0
H563 H 0.24954 0.38661 0.99201 0.0
C564 C 0.21172 0.3707 0.95405 0.0
C565 C 0.19274 0.36343 0.92672 0.0
C566 C 0.22727 0.37364 0.90809 0.0
C567 C 0.18928 0.35812 0.85279 0.0
C568 C 0.20456 0.36036 0.80676 0.0
C569 C 0.23958 0.37228 0.78754 0.0
C570 C 0.25897 0.38194 0.81491 0.0
C571 C 0.22372 0.36847 0.83367 0.0
C572 C 0.26224 0.38685 0.88888 0.0
C573 C 0.24652 0.3825 0.93516 0.0
H574 H 0.72427 0.83186 0.91795 0.0
H575 H 0.7822 0.88396 0.97927 0.0
H576 H 0.77629 0.90501 0.91136 0.0
H577 H 0.75358 0.90902 0.84049 0.0
H578 H 0.69506 0.85708 0.78721 0.0
H579 H 0.70223 0.83556 0.84596 0.0
C580 C 0.73576 0.84776 0.91585 0.0
C581 C 0.75369 0.85629 0.95361 0.0
C582 C 0.73203 0.85986 0.87855 0.0
C583 C 0.76826 0.87699 0.95074 0.0
C584 C 0.76487 0.88905 0.91204 0.0
C585 C 0.74255 0.89295 0.84125 0.0
C586 C 0.72378 0.88463 0.80991 0.0
C587 C 0.74666 0.88073 0.87664 0.0
C588 C 0.7095 0.86383 0.81176 0.0
C589 C 0.71362 0.85153 0.84509 0.0
H590 H 0.26589 0.89801 0.94819 0.0
H591 H 0.22825 0.92225 0.97659 0.0
H592 H 0.20417 0.89466 0.8913 0.0
H593 H 0.19298 0.86239 0.81289 0.0
H594 H 0.23015 0.83766 0.79184 0.0
H595 H 0.25521 0.86663 0.86968 0.0
C596 C 0.25253 0.89743 0.9353 0.0
C597 C 0.24894 0.91226 0.96875 0.0
C598 C 0.23856 0.88129 0.88768 0.0
C599 C 0.23141 0.91106 0.95174 0.0
C600 C 0.2176 0.89526 0.90299 0.0
C601 C 0.20668 0.86354 0.82496 0.0
C602 C 0.20971 0.84789 0.79695 0.0
C603 C 0.2209 0.88012 0.87124 0.0
C604 C 0.22741 0.8494 0.81345 0.0
C605 C 0.24176 0.86599 0.85776 0.0
H606 H 0.36056 0.20417 0.76668 0.0
H607 H 0.41595 0.26021 0.73816 0.0
H608 H 0.42563 0.24189 0.64777 0.0
H609 H 0.41823 0.20995 0.57677 0.0
H610 H 0.36285 0.15401 0.60699 0.0
H611 H 0.35334 0.17238 0.69716 0.0
C612 C 0.37476 0.21247 0.74072 0.0
C613 C 0.38748 0.23362 0.75916 0.0
C614 C 0.38024 0.20183 0.68922 0.0
C615 C 0.40586 0.24398 0.72505 0.0
C616 C 0.41139 0.23349 0.67336 0.0
C617 C 0.40407 0.20173 0.60307 0.0
C618 C 0.39127 0.18056 0.58488 0.0
C619 C 0.39869 0.21241 0.65501 0.0
C620 C 0.37301 0.17024 0.61979 0.0
C621 C 0.36755 0.18076 0.67135 0.0
H622 H 0.86356 0.20499 0.77775 0.0
H623 H 0.87136 0.15489 0.7874 0.0
H624 H 0.90038 0.17058 0.71171 0.0
H625 H 0.92341 0.19834 0.64119 0.0
H626 H 0.91573 0.24853 0.63157 0.0
H627 H 0.88671 0.23286 0.70739 0.0
C628 C 0.87151 0.19744 0.76283 0.0
C629 C 0.86527 0.17881 0.78869 0.0
C630 C 0.88822 0.20653 0.7189 0.0
C631 C 0.87595 0.16937 0.7694 0.0
C632 C 0.89252 0.17829 0.72566 0.0
C633 C 0.91552 0.20595 0.65618 0.0
C634 C 0.92178 0.22457 0.63027 0.0
C635 C 0.89883 0.19689 0.7002 0.0
C636 C 0.91113 0.23405 0.64964 0.0
C637 C 0.89456 0.22515 0.69344 0.0
H638 H 0.92507 0.72053 0.72696 0.0
H639 H 0.94032 0.69404 0.54014 0.0
H640 H 0.92315 0.70292 0.46431 0.0
H641 H 0.90405 0.71854 0.44996 0.0
H642 H 0.88934 0.74576 0.63565 0.0
H643 H 0.9064 0.73671 0.71238 0.0
C644 C 0.92483 0.71684 0.66969 0.0
C645 C 0.93397 0.70645 0.6399 0.0
C646 C 0.91507 0.72224 0.62581 0.0
C647 C 0.9332 0.70166 0.56527 0.0
C648 C 0.92346 0.70687 0.5215 0.0
C649 C 0.90443 0.72235 0.50724 0.0
C650 C 0.89537 0.73281 0.53682 0.0
C651 C 0.9143 0.71711 0.55112 0.0
C652 C 0.89634 0.73792 0.61121 0.0
C653 C 0.90602 0.73265 0.65524 0.0
H654 H 0.89619 0.73939 0.14867 0.0
H655 H 0.87906 0.67962 0.197 0.0
H656 H 0.90408 0.68009 0.1155 0.0
H657 H 0.93097 0.69741 0.03072 0.0
H658 H 0.94824 0.75718 0.982 0.0
H659 H 0.92319 0.75676 0.06355 0.0
C660 C 0.89784 0.7264 0.14116 0.0
C661 C 0.88562 0.70946 0.17907 0.0
C662 C 0.91242 0.72681 0.09434 0.0
C663 C 0.88815 0.69286 0.1687 0.0
C664 C 0.90252 0.69313 0.12209 0.0
C665 C 0.92936 0.71042 0.03807 0.0
C666 C 0.94161 0.72734 1.00012 0.0
C667 C 0.9148 0.71004 0.08482 0.0
C668 C 0.93912 0.74396 1.01039 0.0
C669 C 0.92473 0.74372 0.057 0.0
H670 H 0.40022 0.17786 0.14204 0.0
H671 H 0.37799 0.18851 0.34552 0.0
H672 H 0.36804 0.20869 0.29297 0.0
H673 H 0.3664 0.22421 0.18985 0.0
H674 H 0.38931 0.21419 0.98732 0.0
H675 H 0.39857 0.19329 0.03922 0.0
C676 C 0.39336 0.1847 0.17522 0.0
C677 C 0.38989 0.18151 0.24786 0.0
C678 C 0.38786 0.19656 0.14483 0.0
C679 C 0.38064 0.19034 0.28935 0.0
C680 C 0.37504 0.20205 0.2594 0.0
C681 C 0.37324 0.2173 0.15692 0.0
C682 C 0.37719 0.22086 0.08476 0.0
C683 C 0.3786 0.20531 0.18723 0.0
C684 C 0.38633 0.21197 0.04317 0.0
C685 C 0.39155 0.19992 0.07276 0.0
H686 H 0.92027 0.19882 0.2861 0.0
H687 H 0.91982 0.25338 0.27576 0.0
H688 H 0.89087 0.23418 0.19597 0.0
H689 H 0.86565 0.20197 0.12998 0.0
H690 H 0.86617 0.14743 0.13981 0.0
H691 H 0.89517 0.16664 0.21945 0.0
C692 C 0.91391 0.2066 0.26641 0.0
C693 C 0.9223 0.22761 0.28712 0.0
C694 C 0.89723 0.19544 0.22068 0.0
C695 C 0.91376 0.2373 0.26081 0.0
C696 C 0.89716 0.2263 0.21523 0.0
C697 C 0.87203 0.19419 0.14954 0.0
C698 C 0.86362 0.17318 0.12888 0.0
C699 C 0.88875 0.20536 0.19501 0.0
C700 C 0.87224 0.16351 0.15477 0.0
C701 C 0.88886 0.17452 0.20028 0.0
H702 H 0.06106 0.65676 0.39338 0.0
H703 H 0.10557 0.65366 0.26203 0.0
H704 H 0.13077 0.68797 0.31284 0.0
H705 H 0.14027 0.71863 0.39583 0.0
H706 H 0.09581 0.72156 0.5278 0.0
H707 H 0.07047 0.68764 0.47477 0.0
C708 C 0.07626 0.66356 0.37561 0.0
C709 C 0.08138 0.65253 0.32398 0.0
C710 C 0.0907 0.68331 0.40514 0.0
C711 C 0.10117 0.66172 0.30162 0.0
C712 C 0.11561 0.68136 0.33076 0.0
C713 C 0.12508 0.71183 0.4135 0.0
C714 C 0.12004 0.7227 0.46622 0.0
C715 C 0.11058 0.69224 0.38291 0.0
C716 C 0.10014 0.7137 0.48708 0.0
C717 C 0.08564 0.69422 0.45699 0.0
H718 H 0.41539 0.45082 0.2666 0.0
H719 H 0.45894 0.4571 0.41004 0.0
H720 H 0.43366 0.44245 0.50133 0.0
H721 H 0.39926 0.4282 0.54088 0.0
H722 H 0.35564 0.4218 0.39754 0.0
H723 H 0.38082 0.43607 0.30561 0.0
C724 C 0.41939 0.44914 0.31803 0.0
C725 C 0.4391 0.45519 0.33151 0.0
C726 C 0.40473 0.44063 0.37021 0.0
C727 C 0.4439 0.45247 0.398 0.0
C728 C 0.42945 0.44417 0.45036 0.0
C729 C 0.39528 0.43006 0.48976 0.0
C730 C 0.37557 0.42404 0.47641 0.0
C731 C 0.40984 0.43826 0.43715 0.0
C732 C 0.37062 0.42616 0.40914 0.0
C733 C 0.38505 0.43443 0.35668 0.0
H734 H 0.64968 0.94109 0.59095 0.0
H735 H 0.70851 0.98588 0.52779 0.0
H736 H 0.69527 1.00296 0.47155 0.0
H737 H 0.66624 1.00316 0.43107 0.0
H738 H 0.60764 0.95748 0.49423 0.0
H739 H 0.62143 0.94265 0.55874 0.0
C740 C 0.65963 0.95462 0.56504 0.0
C741 C 0.68001 0.96203 0.56286 0.0
C742 C 0.65188 0.96408 0.53198 0.0
C743 C 0.69277 0.97988 0.5305 0.0
C744 C 0.68516 0.98955 0.49783 0.0
C745 C 0.65657 0.99015 0.4598 0.0
C746 C 0.63587 0.98125 0.45667 0.0
C747 C 0.66465 0.98153 0.49689 0.0
C748 C 0.62354 0.96435 0.49421 0.0
C749 C 0.63143 0.9559 0.53153 0.0
H750 H 0.6833 0.03989 0.16771 0.0
H751 H 0.68234 0.08776 0.30464 0.0
H752 H 0.71487 0.11288 0.26078 0.0
H753 H 0.74333 0.1213 0.18186 0.0
H754 H 0.74366 0.07329 0.04341 0.0
H755 H 0.71179 0.04822 0.0903 0.0
C756 C 0.69019 0.05581 0.18833 0.0
C757 C 0.68028 0.06188 0.23945 0.0
C758 C 0.70885 0.07018 0.16257 0.0
C759 C 0.68956 0.0826 0.26535 0.0
C760 C 0.70817 0.097 0.24016 0.0
C761 C 0.73641 0.10539 0.16145 0.0
C762 C 0.74604 0.09932 0.10879 0.0
C763 C 0.7179 0.09098 0.18834 0.0
C764 C 0.73686 0.0785 0.08429 0.0
C765 C 0.71851 0.06411 0.11084 0.0
H766 H 0.95882 0.63098 0.01798 0.0
H767 H 1.01594 0.67387 0.93619 0.0
H768 H 0.03098 0.65888 0.99482 0.0
H769 H 0.02732 0.63213 0.06452 0.0
H770 H 0.96979 0.59002 0.14704 0.0
H771 H 0.95552 0.60594 0.09229 0.0
C772 C 0.97455 0.637 1.01264 0.0
C773 C 0.98618 0.65335 0.97196 0.0
C774 C 0.98301 0.62832 0.04634 0.0
C775 C 1.00665 0.66132 0.96725 0.0
C776 C 1.01523 0.65267 1.00052 0.0
C777 C 1.01173 0.62659 0.0712 0.0
C778 C 0.99964 0.60958 0.10903 0.0
C779 C 1.0035 0.63598 0.03966 0.0
C780 C 0.97942 0.60267 0.11686 0.0
C781 C 0.97121 0.61187 0.08588 0.0
H782 H 0.44563 0.35412 0.90511 0.0
H783 H 0.41488 0.32148 0.08557 0.0
H784 H 0.43365 0.35262 0.16618 0.0
H785 H 0.45762 0.3895 0.1857 0.0
H786 H 0.48846 0.42237 1.00589 0.0
H787 H 0.47103 0.39085 0.92554 0.0
C788 C 0.4431 0.35377 0.96209 0.0
C789 C 0.4287 0.33539 0.98882 0.0
C790 C 0.45399 0.37185 1.00862 0.0
C791 C 0.42577 0.33533 0.06306 0.0
C792 C 0.43652 0.35318 0.10944 0.0
C793 C 0.46071 0.38979 0.12904 0.0
C794 C 0.47433 0.40841 0.10218 0.0
C795 C 0.4505 0.37158 0.08283 0.0
C796 C 0.47808 0.40834 0.0284 0.0
C797 C 0.46805 0.39029 0.98219 0.0
H798 H 1.00376 0.35299 0.4309 0.0
H799 H 0.97825 0.31553 0.60398 0.0
H800 H 0.99368 0.34583 0.6904 0.0
H801 H 1.01591 0.38297 0.7177 0.0
H802 H 0.04169 0.42033 0.54438 0.0
H803 H 0.02468 0.3902 0.45802 0.0
C804 C 1.00138 0.35143 0.48745 0.0
C805 C 0.98986 0.3319 0.51054 0.0
C806 C 1.0105 0.36897 0.53726 0.0
C807 C 0.98705 0.3303 0.58431 0.0
C808 C 0.99592 0.34766 0.63401 0.0
C809 C 1.01772 0.38456 0.66107 0.0
C810 C 0.03021 0.40399 0.63798 0.0
C811 C 1.00793 0.36708 0.61122 0.0
C812 C 0.03228 0.40564 0.56412 0.0
C813 C 1.02254 0.38837 0.51443 0.0
H814 H 0.73291 0.62725 0.43282 0.0
H815 H 0.72838 0.67102 0.58191 0.0
H816 H 0.76119 0.69793 0.5487 0.0
H817 H 0.79135 0.70914 0.47922 0.0
H818 H 0.79662 0.66596 0.3296 0.0
H819 H 0.76344 0.63873 0.36158 0.0
C820 C 0.73914 0.64264 0.45834 0.0
C821 C 0.72802 0.64701 0.50983 0.0
C822 C 0.75819 0.65817 0.43903 0.0
C823 C 0.73633 0.66717 0.5415 0.0
C824 C 0.75521 0.6826 0.52285 0.0
C825 C 0.78532 0.69378 0.45344 0.0
C826 C 0.79658 0.68964 0.40217 0.0
C827 C 0.76628 0.67828 0.47187 0.0
C828 C 0.78835 0.66962 0.36924 0.0
C829 C 0.76936 0.65403 0.38758 0.0
H830 H 0.4672 0.14978 0.60639 0.0
H831 H 0.42246 0.09169 0.5016 0.0
H832 H 0.43546 0.07479 0.56036 0.0
H833 H 0.46068 0.07693 0.63822 0.0
H834 H 0.50437 0.13543 0.74559 0.0
H835 H 0.49083 0.15167 0.68871 0.0
C836 C 0.46035 0.13343 0.59617 0.0
C837 C 0.44403 0.12205 0.54912 0.0
C838 C 0.46782 0.12387 0.63042 0.0
C839 C 0.43502 0.10079 0.53773 0.0
C840 C 0.4425 0.09115 0.57113 0.0
C841 C 0.4671 0.09318 0.64982 0.0
C842 C 0.48385 0.10489 0.69537 0.0
C843 C 0.45903 0.10257 0.61729 0.0
C844 C 0.49189 0.12599 0.70946 0.0
C845 C 0.48405 0.13536 0.67725 0.0
H846 H 0.3752 0.95864 0.93074 0.0
H847 H 0.37479 1.005 0.07901 0.0
H848 H 0.40706 0.03068 0.03617 0.0
H849 H 0.43578 0.03996 0.95881 0.0
H850 H 0.4366 0.99369 0.81125 0.0
H851 H 0.40388 0.96803 0.85195 0.0
C852 C 0.3822 0.97431 0.95419 0.0
C853 C 0.37245 0.97977 1.00842 0.0
C854 C 0.40088 0.98906 0.92937 0.0
C855 C 0.38173 1.00031 0.0369 0.0
C856 C 0.40028 0.01502 1.01262 0.0
C857 C 0.42882 0.02428 0.93521 0.0
C858 C 0.43876 0.01883 0.88196 0.0
C859 C 0.41002 1.00958 0.95907 0.0
C860 C 0.42938 0.99839 0.8522 0.0
C861 C 0.41065 0.98368 0.8756 0.0
H862 H 0.13743 0.47316 0.92712 0.0
H863 H 0.09545 0.41643 0.80679 0.0
H864 H 0.10691 0.39865 0.86879 0.0
H865 H 0.13085 0.3999 0.95203 0.0
H866 H 0.17266 0.45731 0.06995 0.0
H867 H 0.15946 0.47411 1.01389 0.0
C868 C 0.1308 0.45691 0.91416 0.0
C869 C 0.11579 0.44622 0.86155 0.0
C870 C 0.13757 0.4469 0.94951 0.0
C871 C 0.10701 0.42504 0.84704 0.0
C872 C 0.11365 0.4149 0.88228 0.0
C873 C 0.13683 0.41601 0.96606 0.0
C874 C 0.15295 0.42737 1.01452 0.0
C875 C 0.12917 0.42573 0.93297 0.0
C876 C 0.16056 0.44827 0.0319 0.0
C877 C 0.15297 0.45791 1.00002 0.0
H878 H 0.69897 0.67086 0.81636 0.0
H879 H 0.65373 0.66798 0.69159 0.0
H880 H 0.6596 0.69954 0.75891 0.0
H881 H 0.6775 0.72787 0.8536 0.0
H882 H 0.72237 0.73026 0.979 0.0
H883 H 0.71684 0.6991 0.91039 0.0
C884 C 0.69037 0.6771 0.80361 0.0
C885 C 0.67588 0.66696 0.74881 0.0
C886 C 0.69379 0.69523 0.84265 0.0
C887 C 0.66496 0.67539 0.73332 0.0
C888 C 0.66831 0.69346 0.77192 0.0
C889 C 0.68596 0.72152 0.86654 0.0
C890 C 0.70034 0.73152 0.92189 0.0
C891 C 0.68263 0.70347 0.82693 0.0
C892 C 0.71138 0.72313 0.9365 0.0
C893 C 0.70814 0.70521 0.89743 0.0
H894 H 0.77647 0.02431 0.66945 0.0
H895 H 0.76267 0.98355 0.82853 0.0
H896 H 0.77721 1.0123 0.92142 0.0
H897 H 0.79217 0.04897 0.95918 0.0
H898 H 0.80594 0.08961 0.79961 0.0
H899 H 0.79324 0.0611 0.70614 0.0
C900 C 0.77681 0.02169 0.72429 0.0
C901 C 0.76833 1.00167 0.74159 0.0
C902 C 0.78512 0.03835 0.7779 0.0
C903 C 0.769 0.99871 0.81324 0.0
C904 C 0.77729 0.01519 0.86669 0.0
C905 C 0.79255 0.05163 0.90394 0.0
C906 C 0.79993 0.0715 0.88699 0.0
C907 C 0.78512 0.03507 0.8499 0.0
C908 C 0.80031 0.07455 0.81477 0.0
C909 C 0.79301 0.05821 0.76097 0.0
H910 H 0.10138 0.77313 0.78992 0.0
H911 H 0.09436 0.79007 0.5898 0.0
H912 H 0.05941 0.77699 0.61626 0.0
H913 H 0.03032 0.75853 0.69248 0.0
H914 H 0.0376 0.74142 0.89198 0.0
H915 H 0.07298 0.75694 0.86961 0.0
C916 C 0.09228 0.77414 0.75216 0.0
C917 C 0.10053 0.78247 0.68757 0.0
C918 C 0.07218 0.76647 0.76756 0.0
C919 C 0.08848 0.78376 0.63982 0.0
C920 C 0.06844 0.7762 0.65487 0.0
C921 C 0.03965 0.75837 0.73155 0.0
C922 C 0.03115 0.74864 0.79377 0.0
C923 C 0.06005 0.76719 0.71802 0.0
C924 C 0.04361 0.74871 0.84367 0.0
C925 C 0.06388 0.75754 0.83078 0.0
H926 H 0.33777 0.36123 0.78263 0.0
H927 H 0.29622 0.31602 0.62242 0.0
H928 H 0.30319 0.29116 0.657 0.0
H929 H 0.32124 0.28242 0.73372 0.0
H930 H 0.36335 0.32857 0.89053 0.0
H931 H 0.35612 0.35298 0.85583 0.0
C932 C 0.33012 0.34592 0.75522 0.0
C933 C 0.31633 0.34047 0.70032 0.0
C934 C 0.3344 0.33191 0.77467 0.0
C935 C 0.30685 0.32062 0.66492 0.0
C936 C 0.31084 0.30641 0.68476 0.0
C937 C 0.32875 0.2978 0.76043 0.0
C938 C 0.34283 0.30363 0.81487 0.0
C939 C 0.32458 0.31188 0.73974 0.0
C940 C 0.35265 0.32372 0.84813 0.0
C941 C 0.34842 0.33766 0.82856 0.0
H942 H 0.04395 0.28186 0.23552 0.0
H943 H 0.04567 0.3262 0.40034 0.0
H944 H 0.07875 0.35171 0.36347 0.0
H945 H 0.10746 0.36141 0.28613 0.0
H946 H 0.10626 0.3172 0.12197 0.0
H947 H 0.07281 0.29167 0.15732 0.0
C948 C 0.05159 0.29704 0.26382 0.0
C949 C 0.04219 0.302 0.32081 0.0
C950 C 0.07076 0.3117 0.24248 0.0
C951 C 0.05231 0.32193 0.35587 0.0
C952 C 0.07133 0.33654 0.33503 0.0
C953 C 0.09992 0.34621 0.25784 0.0
C954 C 0.10945 0.34127 0.20144 0.0
C955 C 0.08071 0.3316 0.27854 0.0
C956 C 0.09934 0.32146 0.16553 0.0
C957 C 0.08019 0.30683 0.1858 0.0
H958 H 0.83655 0.7909 0.17847 0.0
H959 H 0.79495 0.74243 0.30148 0.0
H960 H 0.76871 0.74745 0.27163 0.0
H961 H 0.75751 0.76563 0.21168 0.0
H962 H 0.79872 0.81415 0.08812 0.0
H963 H 0.82519 0.80921 0.1177 0.0
C964 C 0.82179 0.78154 0.19918 0.0
C965 C 0.8178 0.76626 0.24215 0.0
C966 C 0.80669 0.78454 0.18181 0.0
C967 C 0.79845 0.75409 0.26757 0.0
C968 C 0.78343 0.75704 0.25086 0.0
C969 C 0.77228 0.77519 0.19117 0.0
C970 C 0.77608 0.79029 0.14781 0.0
C971 C 0.78737 0.7722 0.20809 0.0
C972 C 0.79533 0.80242 0.12159 0.0
C973 C 0.81049 0.7996 0.13853 0.0
H974 H 0.32615 1.00425 0.32847 0.0
H975 H 0.31145 1.0087 0.11785 0.0
H976 H 0.3258 0.04526 0.1482 0.0
H977 H 0.34453 0.07634 0.23198 0.0
H978 H 0.3592 0.07163 0.44241 0.0
H979 H 0.34274 0.03482 0.4147 0.0
C980 C 0.32592 0.01316 0.28926 0.0
C981 C 0.31784 1.00371 0.22073 0.0
C982 C 0.33429 0.03418 0.30697 0.0
C983 C 0.31755 0.01552 0.17096 0.0
C984 C 0.32584 0.03647 0.18822 0.0
C985 C 0.34398 0.06727 0.27209 0.0
C986 C 0.35325 0.07686 0.33911 0.0
C987 C 0.33455 0.04603 0.25568 0.0
C988 C 0.35226 0.06476 0.3904 0.0
C989 C 0.34288 0.04366 0.37452 0.0
loop_
_geom_bond_atom_site_label_1
_geom_bond_atom_site_label_2
_geom_bond_distance
_geom_bond_site_symmetry_2
_ccdc_geom_bond_type
Cu0 N1 1.999 . S
Cu0 O6 1.974 . S
Cu0 N11 1.985 . S
Cu0 O20 1.959 . S
N1 Cu0 1.999 . S
N1 C3 1.263 . S
N1 C5 1.389 . S
N2 C3 1.358 . S
N2 C4 1.400 . S
C3 N1 1.263 . S
C3 N2 1.358 . S
C3 H9 0.930 . S
C4 N2 1.400 . S
C4 C5 1.351 . S
C4 H21 0.930 . S
C5 N1 1.389 . S
C5 C4 1.351 . S
C5 H10 0.930 . S
O6 Cu0 1.974 . S
O6 C16 1.282 . S
C7 O8 1.261 . S
C7 O20 1.251 . S
O8 C7 1.261 . S
H9 C3 0.930 . S
H10 C5 0.930 . S
N11 Cu0 1.985 . S
N11 C13 1.335 . S
N11 C14 1.390 . S
N12 C13 1.345 . S
N12 C15 1.336 . S
C13 N11 1.335 . S
C13 N12 1.345 . S
C13 H18 0.930 . S
C14 N11 1.390 . S
C14 C15 1.346 . S
C14 H19 0.930 . S
C15 N12 1.336 . S
C15 C14 1.346 . S
C15 H22 0.929 1_554 S
C16 O6 1.282 . S
C16 O17 1.216 . S
O17 C16 1.216 . S
H18 C13 0.930 . S
H19 C14 0.930 . S
O20 Cu0 1.959 . S
O20 C7 1.251 . S
H21 C4 0.930 . S
H22 C15 0.929 1_556 S
Cu23 N24 1.999 . S
Cu23 O29 1.974 . S
Cu23 N34 1.985 . S
Cu23 O43 1.959 . S
N24 Cu23 1.999 . S
N24 C26 1.263 . S
N24 C28 1.389 . S
N25 C26 1.358 . S
N25 C27 1.400 1_554 S
C26 N24 1.263 . S
C26 N25 1.358 . S
C26 H32 0.930 . S
C27 N25 1.400 1_556 S
C27 C28 1.351 1_556 S
C27 H44 0.930 . S
C28 N24 1.389 . S
C28 C27 1.351 1_554 S
C28 H33 0.930 . S
O29 Cu23 1.974 . S
O29 C39 1.282 . S
C30 O31 1.261 . S
C30 O43 1.251 . S
O31 C30 1.261 . S
H32 C26 0.930 . S
H33 C28 0.930 . S
N34 Cu23 1.985 . S
N34 C36 1.335 . S
N34 C37 1.390 . S
N35 C36 1.345 . S
N35 C38 1.336 . S
C36 N34 1.335 . S
C36 N35 1.345 . S
C36 H41 0.930 . S
C37 N34 1.390 . S
C37 C38 1.346 . S
C37 H42 0.930 . S
C38 N35 1.336 . S
C38 C37 1.346 . S
C38 H45 0.929 . S
C39 O29 1.282 . S
C39 O40 1.216 . S
O40 C39 1.216 . S
H41 C36 0.930 . S
H42 C37 0.930 . S
O43 Cu23 1.959 . S
O43 C30 1.251 . S
H44 C27 0.930 . S
H45 C38 0.929 . S
Cu46 N47 1.999 . S
Cu46 O52 1.974 . S
Cu46 N57 1.985 . S
Cu46 O66 1.959 . S
N47 Cu46 1.999 . S
N47 C49 1.263 . S
N47 C51 1.389 . S
N48 C49 1.358 . S
N48 C50 1.400 . S
C49 N47 1.263 . S
C49 N48 1.358 . S
C49 H55 0.930 . S
C50 N48 1.400 . S
C50 C51 1.351 . S
C50 H67 0.930 . S
C51 N47 1.389 . S
C51 C50 1.351 . S
C51 H56 0.930 . S
O52 Cu46 1.974 . S
O52 C62 1.282 . S
C53 O54 1.261 . S
C53 O66 1.251 . S
O54 C53 1.261 . S
H55 C49 0.930 . S
H56 C51 0.930 . S
N57 Cu46 1.985 . S
N57 C59 1.335 . S
N57 C60 1.390 . S
N58 C59 1.345 . S
N58 C61 1.336 . S
C59 N57 1.335 . S
C59 N58 1.345 . S
C59 H64 0.930 . S
C60 N57 1.390 . S
C60 C61 1.346 . S
C60 H65 0.930 . S
C61 N58 1.336 . S
C61 C60 1.346 . S
C61 H68 0.929 . S
C62 O52 1.282 . S
C62 O63 1.216 . S
O63 C62 1.216 . S
H64 C59 0.930 . S
H65 C60 0.930 . S
O66 Cu46 1.959 . S
O66 C53 1.251 . S
H67 C50 0.930 . S
H68 C61 0.929 . S
Cu69 N70 1.999 . S
Cu69 O75 1.974 . S
Cu69 N80 1.985 . S
Cu69 O89 1.959 . S
N70 Cu69 1.999 . S
N70 C72 1.263 . S
N70 C74 1.389 . S
N71 C72 1.358 . S
N71 C73 1.400 . S
C72 N70 1.263 . S
C72 N71 1.358 . S
C72 H78 0.930 . S
C73 N71 1.400 . S
C73 C74 1.351 . S
C73 H90 0.930 . S
C74 N70 1.389 . S
C74 C73 1.351 . S
C74 H79 0.930 . S
O75 Cu69 1.974 . S
O75 C85 1.282 . S
C76 O77 1.261 . S
C76 O89 1.251 . S
O77 C76 1.261 . S
H78 C72 0.930 . S
H79 C74 0.930 . S
N80 Cu69 1.985 . S
N80 C82 1.335 . S
N80 C83 1.390 . S
N81 C82 1.345 . S
N81 C84 1.336 . S
C82 N80 1.335 . S
C82 N81 1.345 . S
C82 H87 0.930 . S
C83 N80 1.390 . S
C83 C84 1.346 . S
C83 H88 0.930 . S
C84 N81 1.336 . S
C84 C83 1.346 . S
C84 H91 0.929 . S
C85 O75 1.282 . S
C85 O86 1.216 . S
O86 C85 1.216 . S
H87 C82 0.930 . S
H88 C83 0.930 . S
O89 Cu69 1.959 . S
O89 C76 1.251 . S
H90 C73 0.930 . S
H91 C84 0.929 . S
Cu92 N93 1.999 . S
Cu92 O98 1.974 . S
Cu92 N103 1.985 . S
Cu92 O112 1.959 . S
N93 Cu92 1.999 . S
N93 C95 1.263 . S
N93 C97 1.389 . S
N94 C95 1.358 . S
N94 C96 1.400 . S
C95 N93 1.263 . S
C95 N94 1.358 . S
C95 H101 0.930 . S
C96 N94 1.400 . S
C96 C97 1.351 . S
C96 H113 0.930 . S
C97 N93 1.389 . S
C97 C96 1.351 . S
C97 H102 0.930 . S
O98 Cu92 1.974 . S
O98 C108 1.282 . S
C99 O100 1.261 . S
C99 O112 1.251 . S
O100 C99 1.261 . S
H101 C95 0.930 . S
H102 C97 0.930 . S
N103 Cu92 1.985 . S
N103 C105 1.335 . S
N103 C106 1.390 . S
N104 C105 1.345 . S
N104 C107 1.336 . S
C105 N103 1.335 . S
C105 N104 1.345 . S
C105 H110 0.930 . S
C106 N103 1.390 . S
C106 C107 1.346 . S
C106 H111 0.930 . S
C107 N104 1.336 . S
C107 C106 1.346 . S
C107 H114 0.929 . S
C108 O98 1.282 . S
C108 O109 1.216 . S
O109 C108 1.216 . S
H110 C105 0.930 . S
H111 C106 0.930 . S
O112 Cu92 1.959 . S
O112 C99 1.251 . S
H113 C96 0.930 . S
H114 C107 0.929 . S
Cu115 N116 1.999 . S
Cu115 O121 1.974 . S
Cu115 N126 1.985 . S
Cu115 O135 1.959 . S
N116 Cu115 1.999 . S
N116 C118 1.263 . S
N116 C120 1.389 . S
N117 C118 1.358 . S
N117 C119 1.400 . S
C118 N116 1.263 . S
C118 N117 1.358 . S
C118 H124 0.930 . S
C119 N117 1.400 . S
C119 C120 1.351 . S
C119 H136 0.930 1_556 S
C120 N116 1.389 . S
C120 C119 1.351 . S
C120 H125 0.930 . S
O121 Cu115 1.974 . S
O121 C131 1.282 . S
C122 O123 1.261 . S
C122 O135 1.251 . S
O123 C122 1.261 . S
H124 C118 0.930 . S
H125 C120 0.930 . S
N126 Cu115 1.985 . S
N126 C128 1.335 . S
N126 C129 1.390 . S
N127 C128 1.345 . S
N127 C130 1.336 . S
C128 N126 1.335 . S
C128 N127 1.345 . S
C128 H133 0.930 . S
C129 N126 1.390 . S
C129 C130 1.346 . S
C129 H134 0.930 . S
C130 N127 1.336 . S
C130 C129 1.346 . S
C130 H137 0.929 . S
C131 O121 1.282 . S
C131 O132 1.216 . S
O132 C131 1.216 . S
H133 C128 0.930 . S
H134 C129 0.930 . S
O135 Cu115 1.959 . S
O135 C122 1.251 . S
H136 C119 0.930 1_554 S
H137 C130 0.929 . S
Cu138 N139 1.999 . S
Cu138 O144 1.974 . S
Cu138 N149 1.985 . S
Cu138 O158 1.959 . S
N139 Cu138 1.999 . S
N139 C141 1.263 . S
N139 C143 1.389 . S
N140 C141 1.358 . S
N140 C142 1.400 . S
C141 N139 1.263 . S
C141 N140 1.358 . S
C141 H147 0.930 . S
C142 N140 1.400 . S
C142 C143 1.351 . S
C142 H159 0.930 . S
C143 N139 1.389 . S
C143 C142 1.351 . S
C143 H148 0.930 . S
O144 Cu138 1.974 . S
O144 C154 1.282 . S
C145 O146 1.261 . S
C145 O158 1.251 . S
O146 C145 1.261 . S
H147 C141 0.930 . S
H148 C143 0.930 . S
N149 Cu138 1.985 . S
N149 C151 1.335 . S
N149 C152 1.390 . S
N150 C151 1.345 . S
N150 C153 1.336 . S
C151 N149 1.335 . S
C151 N150 1.345 . S
C151 H156 0.930 . S
C152 N149 1.390 . S
C152 C153 1.346 . S
C152 H157 0.930 . S
C153 N150 1.336 . S
C153 C152 1.346 . S
C153 H160 0.929 . S
C154 O144 1.282 . S
C154 O155 1.216 . S
O155 C154 1.216 . S
H156 C151 0.930 . S
H157 C152 0.930 . S
O158 Cu138 1.959 . S
O158 C145 1.251 . S
H159 C142 0.930 . S
H160 C153 0.929 . S
Cu161 N162 1.999 . S
Cu161 O167 1.974 . S
Cu161 N172 1.985 . S
Cu161 O181 1.959 . S
N162 Cu161 1.999 . S
N162 C164 1.263 . S
N162 C166 1.389 . S
N163 C164 1.358 . S
N163 C165 1.400 . S
C164 N162 1.263 . S
C164 N163 1.358 . S
C164 H170 0.930 . S
C165 N163 1.400 . S
C165 C166 1.351 . S
C165 H182 0.930 . S
C166 N162 1.389 . S
C166 C165 1.351 . S
C166 H171 0.930 . S
O167 Cu161 1.974 . S
O167 C177 1.282 . S
C168 O169 1.261 . S
C168 O181 1.251 . S
O169 C168 1.261 . S
H170 C164 0.930 . S
H171 C166 0.930 . S
N172 Cu161 1.985 . S
N172 C174 1.335 . S
N172 C175 1.390 . S
N173 C174 1.345 . S
N173 C176 1.336 . S
C174 N172 1.335 . S
C174 N173 1.345 . S
C174 H179 0.930 . S
C175 N172 1.390 . S
C175 C176 1.346 . S
C175 H180 0.930 . S
C176 N173 1.336 . S
C176 C175 1.346 . S
C176 H183 0.929 . S
C177 O167 1.282 . S
C177 O178 1.216 . S
O178 C177 1.216 . S
H179 C174 0.930 . S
H180 C175 0.930 . S
O181 Cu161 1.959 . S
O181 C168 1.251 . S
H182 C165 0.930 . S
H183 C176 0.929 . S
Cu184 N185 1.999 . S
Cu184 O190 1.974 . S
Cu184 N195 1.985 . S
Cu184 O204 1.959 . S
N185 Cu184 1.999 . S
N185 C187 1.263 . S
N185 C189 1.389 . S
N186 C187 1.358 . S
N186 C188 1.400 . S
C187 N185 1.263 . S
C187 N186 1.358 . S
C187 H193 0.930 . S
C188 N186 1.400 . S
C188 C189 1.351 . S
C188 H205 0.930 . S
C189 N185 1.389 . S
C189 C188 1.351 . S
C189 H194 0.930 . S
O190 Cu184 1.974 . S
O190 C200 1.282 . S
C191 O192 1.261 . S
C191 O204 1.251 . S
O192 C191 1.261 . S
H193 C187 0.930 . S
H194 C189 0.930 . S
N195 Cu184 1.985 . S
N195 C197 1.335 . S
N195 C198 1.390 . S
N196 C197 1.345 . S
N196 C199 1.336 . S
C197 N195 1.335 . S
C197 N196 1.345 . S
C197 H202 0.930 . S
C198 N195 1.390 . S
C198 C199 1.346 . S
C198 H203 0.930 . S
C199 N196 1.336 . S
C199 C198 1.346 . S
C199 H206 0.929 . S
C200 O190 1.282 . S
C200 O201 1.216 . S
O201 C200 1.216 . S
H202 C197 0.930 . S
H203 C198 0.930 . S
O204 Cu184 1.959 . S
O204 C191 1.251 . S
H205 C188 0.930 . S
H206 C199 0.929 . S
Cu207 N208 1.999 . S
Cu207 O213 1.974 . S
Cu207 N218 1.985 1_554 S
Cu207 O227 1.959 . S
N208 Cu207 1.999 . S
N208 C210 1.263 . S
N208 C212 1.389 . S
N209 C210 1.358 . S
N209 C211 1.400 . S
C210 N208 1.263 . S
C210 N209 1.358 . S
C210 H216 0.930 . S
C211 N209 1.400 . S
C211 C212 1.351 . S
C211 H228 0.930 . S
C212 N208 1.389 . S
C212 C211 1.351 . S
C212 H217 0.930 . S
O213 Cu207 1.974 . S
O213 C223 1.282 1_554 S
C214 O215 1.261 . S
C214 O227 1.251 . S
O215 C214 1.261 . S
H216 C210 0.930 . S
H217 C212 0.930 . S
N218 Cu207 1.985 1_556 S
N218 C220 1.335 . S
N218 C221 1.390 . S
N219 C220 1.345 . S
N219 C222 1.336 . S
C220 N218 1.335 . S
C220 N219 1.345 . S
C220 H225 0.930 . S
C221 N218 1.390 . S
C221 C222 1.346 . S
C221 H226 0.930 . S
C222 N219 1.336 . S
C222 C221 1.346 . S
C222 H229 0.929 . S
C223 O213 1.282 1_556 S
C223 O224 1.216 . S
O224 C223 1.216 . S
H225 C220 0.930 . S
H226 C221 0.930 . S
O227 Cu207 1.959 . S
O227 C214 1.251 . S
H228 C211 0.930 . S
H229 C222 0.929 . S
Cu230 N231 1.999 . S
Cu230 O236 1.974 . S
Cu230 N241 1.985 . S
Cu230 O250 1.959 . S
N231 Cu230 1.999 . S
N231 C233 1.263 . S
N231 C235 1.389 . S
N232 C233 1.358 . S
N232 C234 1.400 . S
C233 N231 1.263 . S
C233 N232 1.358 . S
C233 H239 0.930 . S
C234 N232 1.400 . S
C234 C235 1.351 . S
C234 H251 0.930 . S
C235 N231 1.389 . S
C235 C234 1.351 . S
C235 H240 0.930 . S
O236 Cu230 1.974 . S
O236 C246 1.282 . S
C237 O238 1.261 . S
C237 O250 1.251 . S
O238 C237 1.261 . S
H239 C233 0.930 . S
H240 C235 0.930 . S
N241 Cu230 1.985 . S
N241 C243 1.335 . S
N241 C244 1.390 1_554 S
N242 C243 1.345 1_556 S
N242 C245 1.336 . S
C243 N241 1.335 . S
C243 N242 1.345 1_554 S
C243 H248 0.930 . S
C244 N241 1.390 1_556 S
C244 C245 1.346 . S
C244 H249 0.930 . S
C245 N242 1.336 . S
C245 C244 1.346 . S
C245 H252 0.929 . S
C246 O236 1.282 . S
C246 O247 1.216 . S
O247 C246 1.216 . S
H248 C243 0.930 . S
H249 C244 0.930 . S
O250 Cu230 1.959 . S
O250 C237 1.251 . S
H251 C234 0.930 . S
H252 C245 0.929 . S
Cu253 N254 1.999 . S
Cu253 O259 1.974 . S
Cu253 N264 1.985 . S
Cu253 O273 1.959 . S
N254 Cu253 1.999 . S
N254 C256 1.263 . S
N254 C258 1.389 . S
N255 C256 1.358 . S
N255 C257 1.400 . S
C256 N254 1.263 . S
C256 N255 1.358 . S
C256 H262 0.930 . S
C257 N255 1.400 . S
C257 C258 1.351 . S
C257 H274 0.930 . S
C258 N254 1.389 . S
C258 C257 1.351 . S
C258 H263 0.930 . S
O259 Cu253 1.974 . S
O259 C269 1.282 . S
C260 O261 1.261 . S
C260 O273 1.251 . S
O261 C260 1.261 . S
H262 C256 0.930 . S
H263 C258 0.930 . S
N264 Cu253 1.985 . S
N264 C266 1.335 . S
N264 C267 1.390 1_554 S
N265 C266 1.345 1_556 S
N265 C268 1.336 . S
C266 N264 1.335 . S
C266 N265 1.345 1_554 S
C266 H271 0.930 . S
C267 N264 1.390 1_556 S
C267 C268 1.346 . S
C267 H272 0.930 . S
C268 N265 1.336 . S
C268 C267 1.346 . S
C268 H275 0.929 . S
C269 O259 1.282 . S
C269 O270 1.216 1_554 S
O270 C269 1.216 1_556 S
H271 C266 0.930 . S
H272 C267 0.930 . S
O273 Cu253 1.959 . S
O273 C260 1.251 . S
H274 C257 0.930 . S
H275 C268 0.929 . S
Cu276 N277 1.999 . S
Cu276 O282 1.974 . S
Cu276 N287 1.985 . S
Cu276 O296 1.959 . S
N277 Cu276 1.999 . S
N277 C279 1.263 . S
N277 C281 1.389 1_556 S
N278 C279 1.358 1_554 S
N278 C280 1.400 . S
C279 N277 1.263 . S
C279 N278 1.358 1_556 S
C279 H285 0.930 . S
C280 N278 1.400 . S
C280 C281 1.351 . S
C280 H297 0.930 . S
C281 N277 1.389 1_554 S
C281 C280 1.351 . S
C281 H286 0.930 . S
O282 Cu276 1.974 . S
O282 C292 1.282 . S
C283 O284 1.261 . S
C283 O296 1.251 . S
O284 C283 1.261 . S
H285 C279 0.930 . S
H286 C281 0.930 . S
N287 Cu276 1.985 . S
N287 C289 1.335 . S
N287 C290 1.390 . S
N288 C289 1.345 . S
N288 C291 1.336 . S
C289 N287 1.335 . S
C289 N288 1.345 . S
C289 H294 0.930 . S
C290 N287 1.390 . S
C290 C291 1.346 . S
C290 H295 0.930 . S
C291 N288 1.336 . S
C291 C290 1.346 . S
C291 H298 0.929 . S
C292 O282 1.282 . S
C292 O293 1.216 . S
O293 C292 1.216 . S
H294 C289 0.930 . S
H295 C290 0.930 . S
O296 Cu276 1.959 . S
O296 C283 1.251 . S
H297 C280 0.930 . S
H298 C291 0.929 . S
Cu299 N300 1.999 . S
Cu299 O305 1.974 1_556 S
Cu299 N310 1.985 1_556 S
Cu299 O319 1.959 . S
N300 Cu299 1.999 . S
N300 C302 1.263 . S
N300 C304 1.389 . S
N301 C302 1.358 . S
N301 C303 1.400 . S
C302 N300 1.263 . S
C302 N301 1.358 . S
C302 H308 0.930 . S
C303 N301 1.400 . S
C303 C304 1.351 . S
C303 H320 0.930 . S
C304 N300 1.389 . S
C304 C303 1.351 . S
C304 H309 0.930 . S
O305 Cu299 1.974 1_554 S
O305 C315 1.282 . S
C306 O307 1.261 . S
C306 O319 1.251 . S
O307 C306 1.261 . S
H308 C302 0.930 . S
H309 C304 0.930 . S
N310 Cu299 1.985 1_554 S
N310 C312 1.335 . S
N310 C313 1.390 . S
N311 C312 1.345 . S
N311 C314 1.336 . S
C312 N310 1.335 . S
C312 N311 1.345 . S
C312 H317 0.930 . S
C313 N310 1.390 . S
C313 C314 1.346 . S
C313 H318 0.930 . S
C314 N311 1.336 . S
C314 C313 1.346 . S
C314 H321 0.929 . S
C315 O305 1.282 . S
C315 O316 1.216 . S
O316 C315 1.216 . S
H317 C312 0.930 . S
H318 C313 0.930 . S
O319 Cu299 1.959 . S
O319 C306 1.251 . S
H320 C303 0.930 . S
H321 C314 0.929 . S
Cu322 N323 1.999 . S
Cu322 O328 1.974 . S
Cu322 N333 1.985 . S
Cu322 O342 1.959 . S
N323 Cu322 1.999 . S
N323 C325 1.263 . S
N323 C327 1.389 . S
N324 C325 1.358 . S
N324 C326 1.400 . S
C325 N323 1.263 . S
C325 N324 1.358 . S
C325 H331 0.930 . S
C326 N324 1.400 . S
C326 C327 1.351 . S
C326 H343 0.930 . S
C327 N323 1.389 . S
C327 C326 1.351 . S
C327 H332 0.930 . S
O328 Cu322 1.974 . S
O328 C338 1.282 . S
C329 O330 1.261 . S
C329 O342 1.251 . S
O330 C329 1.261 . S
H331 C325 0.930 . S
H332 C327 0.930 . S
N333 Cu322 1.985 . S
N333 C335 1.335 . S
N333 C336 1.390 . S
N334 C335 1.345 . S
N334 C337 1.336 1_556 S
C335 N333 1.335 . S
C335 N334 1.345 . S
C335 H340 0.930 . S
C336 N333 1.390 . S
C336 C337 1.346 1_556 S
C336 H341 0.930 1_556 S
C337 N334 1.336 1_554 S
C337 C336 1.346 1_554 S
C337 H344 0.929 . S
C338 O328 1.282 . S
C338 O339 1.216 . S
O339 C338 1.216 . S
H340 C335 0.930 . S
H341 C336 0.930 1_554 S
O342 Cu322 1.959 . S
O342 C329 1.251 . S
H343 C326 0.930 . S
H344 C337 0.929 . S
Cu345 N346 1.999 . S
Cu345 O351 1.974 . S
Cu345 N356 1.985 . S
Cu345 O365 1.959 . S
N346 Cu345 1.999 . S
N346 C348 1.263 . S
N346 C350 1.389 . S
N347 C348 1.358 . S
N347 C349 1.400 . S
C348 N346 1.263 . S
C348 N347 1.358 . S
C348 H354 0.930 . S
C349 N347 1.400 . S
C349 C350 1.351 . S
C349 H366 0.930 . S
C350 N346 1.389 . S
C350 C349 1.351 . S
C350 H355 0.930 . S
O351 Cu345 1.974 . S
O351 C361 1.282 . S
C352 O353 1.261 . S
C352 O365 1.251 . S
O353 C352 1.261 . S
H354 C348 0.930 . S
H355 C350 0.930 . S
N356 Cu345 1.985 . S
N356 C358 1.335 . S
N356 C359 1.390 . S
N357 C358 1.345 . S
N357 C360 1.336 . S
C358 N356 1.335 . S
C358 N357 1.345 . S
C358 H363 0.930 . S
C359 N356 1.390 . S
C359 C360 1.346 . S
C359 H364 0.930 . S
C360 N357 1.336 . S
C360 C359 1.346 . S
C360 H367 0.929 . S
C361 O351 1.282 . S
C361 O362 1.216 . S
O362 C361 1.216 . S
H363 C358 0.930 . S
H364 C359 0.930 . S
O365 Cu345 1.959 . S
O365 C352 1.251 . S
H366 C349 0.930 . S
H367 C360 0.929 . S
Cu368 N369 1.999 . S
Cu368 O374 1.974 . S
Cu368 N379 1.985 . S
Cu368 O388 1.959 . S
N369 Cu368 1.999 . S
N369 C371 1.263 . S
N369 C373 1.389 . S
N370 C371 1.358 . S
N370 C372 1.400 . S
C371 N369 1.263 . S
C371 N370 1.358 . S
C371 H377 0.930 . S
C372 N370 1.400 . S
C372 C373 1.351 . S
C372 H389 0.930 . S
C373 N369 1.389 . S
C373 C372 1.351 . S
C373 H378 0.930 . S
O374 Cu368 1.974 . S
O374 C384 1.282 . S
C375 O376 1.261 . S
C375 O388 1.251 . S
O376 C375 1.261 . S
H377 C371 0.930 . S
H378 C373 0.930 . S
N379 Cu368 1.985 . S
N379 C381 1.335 . S
N379 C382 1.390 . S
N380 C381 1.345 . S
N380 C383 1.336 . S
C381 N379 1.335 . S
C381 N380 1.345 . S
C381 H386 0.930 . S
C382 N379 1.390 . S
C382 C383 1.346 . S
C382 H387 0.930 . S
C383 N380 1.336 . S
C383 C382 1.346 . S
C383 H390 0.929 . S
C384 O374 1.282 . S
C384 O385 1.216 . S
O385 C384 1.216 . S
H386 C381 0.930 . S
H387 C382 0.930 . S
O388 Cu368 1.959 . S
O388 C375 1.251 . S
H389 C372 0.930 . S
H390 C383 0.929 . S
Cu391 N392 1.999 . S
Cu391 O397 1.974 . S
Cu391 N402 1.985 . S
Cu391 O411 1.959 . S
N392 Cu391 1.999 . S
N392 C394 1.263 . S
N392 C396 1.389 . S
N393 C394 1.358 . S
N393 C395 1.400 . S
C394 N392 1.263 . S
C394 N393 1.358 . S
C394 H400 0.930 . S
C395 N393 1.400 . S
C395 C396 1.351 . S
C395 H412 0.930 . S
C396 N392 1.389 . S
C396 C395 1.351 . S
C396 H401 0.930 . S
O397 Cu391 1.974 . S
O397 C407 1.282 . S
C398 O399 1.261 . S
C398 O411 1.251 . S
O399 C398 1.261 . S
H400 C394 0.930 . S
H401 C396 0.930 . S
N402 Cu391 1.985 . S
N402 C404 1.335 . S
N402 C405 1.390 . S
N403 C404 1.345 . S
N403 C406 1.336 . S
C404 N402 1.335 . S
C404 N403 1.345 . S
C404 H409 0.930 . S
C405 N402 1.390 . S
C405 C406 1.346 . S
C405 H410 0.930 . S
C406 N403 1.336 . S
C406 C405 1.346 . S
C406 H413 0.929 . S
C407 O397 1.282 . S
C407 O408 1.216 . S
O408 C407 1.216 . S
H409 C404 0.930 . S
H410 C405 0.930 . S
O411 Cu391 1.959 . S
O411 C398 1.251 . S
H412 C395 0.930 . S
H413 C406 0.929 . S
H414 C420 0.930 . S
H415 C423 0.930 . S
H416 C424 0.930 1_554 S
H417 C425 0.930 . S
H418 C428 0.930 . S
H419 C429 0.930 . S
C420 H414 0.930 . S
C420 C421 1.355 . S
C420 C422 1.415 . S
C421 C420 1.355 . S
C421 C423 1.419 . S
C422 C420 1.415 . S
C422 C427 1.425 1_556 S
C422 C429 1.409 . S
C423 H415 0.930 . S
C423 C421 1.419 . S
C423 C424 1.362 . S
C424 H416 0.930 1_556 S
C424 C423 1.362 . S
C424 C427 1.409 1_556 S
C425 H417 0.930 . S
C425 C426 1.355 . S
C425 C427 1.415 . S
C426 C425 1.355 . S
C426 C428 1.419 . S
C427 C422 1.425 1_554 S
C427 C424 1.409 1_554 S
C427 C425 1.415 . S
C428 H418 0.930 . S
C428 C426 1.419 . S
C428 C429 1.362 1_554 S
C429 H419 0.930 . S
C429 C422 1.409 . S
C429 C428 1.362 1_556 S
H430 C436 0.930 . S
H431 C439 0.930 . S
H432 C440 0.930 . S
H433 C441 0.930 . S
H434 C444 0.930 . S
H435 C445 0.930 . S
C436 H430 0.930 . S
C436 C437 1.355 . S
C436 C438 1.415 . S
C437 C436 1.355 . S
C437 C439 1.419 . S
C438 C436 1.415 . S
C438 C443 1.425 . S
C438 C445 1.409 . S
C439 H431 0.930 . S
C439 C437 1.419 . S
C439 C440 1.362 . S
C440 H432 0.930 . S
C440 C439 1.362 . S
C440 C443 1.409 . S
C441 H433 0.930 . S
C441 C442 1.355 . S
C441 C443 1.415 . S
C442 C441 1.355 . S
C442 C444 1.419 1_556 S
C443 C438 1.425 . S
C443 C440 1.409 . S
C443 C441 1.415 . S
C444 H434 0.930 . S
C444 C442 1.419 1_554 S
C444 C445 1.362 1_554 S
C445 H435 0.930 . S
C445 C438 1.409 . S
C445 C444 1.362 1_556 S
H446 C452 0.930 . S
H447 C455 0.930 . S
H448 C456 0.930 1_556 S
H449 C457 0.930 . S
H450 C460 0.930 . S
H451 C461 0.930 . S
C452 H446 0.930 . S
C452 C453 1.355 . S
C452 C454 1.415 . S
C453 C452 1.355 . S
C453 C455 1.419 . S
C454 C452 1.415 . S
C454 C459 1.425 . S
C454 C461 1.409 . S
C455 H447 0.930 . S
C455 C453 1.419 . S
C455 C456 1.362 . S
C456 H448 0.930 1_554 S
C456 C455 1.362 . S
C456 C459 1.409 . S
C457 H449 0.930 . S
C457 C458 1.355 . S
C457 C459 1.415 1_556 S
C458 C457 1.355 . S
C458 C460 1.419 1_556 S
C459 C454 1.425 . S
C459 C456 1.409 . S
C459 C457 1.415 1_554 S
C460 H450 0.930 . S
C460 C458 1.419 1_554 S
C460 C461 1.362 . S
C461 H451 0.930 . S
C461 C454 1.409 . S
C461 C460 1.362 . S
H462 C468 0.930 . S
H463 C471 0.930 1_565 S
H464 C472 0.930 1_565 S
H465 C473 0.930 . S
H466 C476 0.930 . S
H467 C477 0.930 . S
C468 H462 0.930 . S
C468 C469 1.355 . S
C468 C470 1.415 . S
C469 C468 1.355 . S
C469 C471 1.419 . S
C470 C468 1.415 . S
C470 C475 1.425 . S
C470 C477 1.409 . S
C471 H463 0.930 1_545 S
C471 C469 1.419 . S
C471 C472 1.362 . S
C472 H464 0.930 1_545 S
C472 C471 1.362 . S
C472 C475 1.409 . S
C473 H465 0.930 . S
C473 C474 1.355 . S
C473 C475 1.415 . S
C474 C473 1.355 . S
C474 C476 1.419 . S
C475 C470 1.425 . S
C475 C472 1.409 . S
C475 C473 1.415 . S
C476 H466 0.930 . S
C476 C474 1.419 . S
C476 C477 1.362 . S
C477 H467 0.930 . S
C477 C470 1.409 . S
C477 C476 1.362 . S
H478 C484 0.930 . S
H479 C487 0.930 . S
H480 C488 0.930 . S
H481 C489 0.930 . S
H482 C492 0.930 . S
H483 C493 0.930 . S
C484 H478 0.930 . S
C484 C485 1.355 . S
C484 C486 1.415 . S
C485 C484 1.355 . S
C485 C487 1.419 . S
C486 C484 1.415 . S
C486 C491 1.425 . S
C486 C493 1.409 . S
C487 H479 0.930 . S
C487 C485 1.419 . S
C487 C488 1.362 . S
C488 H480 0.930 . S
C488 C487 1.362 . S
C488 C491 1.409 . S
C489 H481 0.930 . S
C489 C490 1.355 . S
C489 C491 1.415 . S
C490 C489 1.355 . S
C490 C492 1.419 . S
C491 C486 1.425 . S
C491 C488 1.409 . S
C491 C489 1.415 . S
C492 H482 0.930 . S
C492 C490 1.419 . S
C492 C493 1.362 . S
C493 H483 0.930 . S
C493 C486 1.409 . S
C493 C492 1.362 . S
H494 C500 0.930 . S
H495 C503 0.930 . S
H496 C504 0.930 . S
H497 C505 0.930 . S
H498 C508 0.930 . S
H499 C509 0.930 . S
C500 H494 0.930 . S
C500 C501 1.355 . S
C500 C502 1.415 . S
C501 C500 1.355 . S
C501 C503 1.419 . S
C502 C500 1.415 . S
C502 C507 1.425 . S
C502 C509 1.409 . S
C503 H495 0.930 . S
C503 C501 1.419 . S
C503 C504 1.362 . S
C504 H496 0.930 . S
C504 C503 1.362 . S
C504 C507 1.409 . S
C505 H497 0.930 . S
C505 C506 1.355 . S
C505 C507 1.415 . S
C506 C505 1.355 . S
C506 C508 1.419 . S
C507 C502 1.425 . S
C507 C504 1.409 . S
C507 C505 1.415 . S
C508 H498 0.930 . S
C508 C506 1.419 . S
C508 C509 1.362 . S
C509 H499 0.930 . S
C509 C502 1.409 . S
C509 C508 1.362 . S
H510 C516 0.930 . S
H511 C519 0.930 . S
H512 C520 0.930 . S
H513 C521 0.930 . S
H514 C524 0.930 . S
H515 C525 0.930 . S
C516 H510 0.930 . S
C516 C517 1.355 . S
C516 C518 1.415 . S
C517 C516 1.355 . S
C517 C519 1.419 . S
C518 C516 1.415 . S
C518 C523 1.425 . S
C518 C525 1.409 . S
C519 H511 0.930 . S
C519 C517 1.419 . S
C519 C520 1.362 . S
C520 H512 0.930 . S
C520 C519 1.362 . S
C520 C523 1.409 . S
C521 H513 0.930 . S
C521 C522 1.355 . S
C521 C523 1.415 . S
C522 C521 1.355 . S
C522 C524 1.419 . S
C523 C518 1.425 . S
C523 C520 1.409 . S
C523 C521 1.415 . S
C524 H514 0.930 . S
C524 C522 1.419 . S
C524 C525 1.362 . S
C525 H515 0.930 . S
C525 C518 1.409 . S
C525 C524 1.362 . S
H526 C532 0.930 . S
H527 C535 0.930 . S
H528 C536 0.930 . S
H529 C537 0.930 . S
H530 C540 0.930 . S
H531 C541 0.930 . S
C532 H526 0.930 . S
C532 C533 1.355 . S
C532 C534 1.415 . S
C533 C532 1.355 . S
C533 C535 1.419 . S
C534 C532 1.415 . S
C534 C539 1.425 . S
C534 C541 1.409 . S
C535 H527 0.930 . S
C535 C533 1.419 . S
C535 C536 1.362 . S
C536 H528 0.930 . S
C536 C535 1.362 . S
C536 C539 1.409 . S
C537 H529 0.930 . S
C537 C538 1.355 . S
C537 C539 1.415 . S
C538 C537 1.355 . S
C538 C540 1.419 . S
C539 C534 1.425 . S
C539 C536 1.409 . S
C539 C537 1.415 . S
C540 H530 0.930 . S
C540 C538 1.419 . S
C540 C541 1.362 . S
C541 H531 0.930 . S
C541 C534 1.409 . S
C541 C540 1.362 . S
H542 C548 0.930 . S
H543 C551 0.930 . S
H544 C552 0.930 . S
H545 C553 0.930 . S
H546 C556 0.930 . S
H547 C557 0.930 . S
C548 H542 0.930 . S
C548 C549 1.355 . S
C548 C550 1.415 . S
C549 C548 1.355 . S
C549 C551 1.419 . S
C550 C548 1.415 . S
C550 C555 1.425 . S
C550 C557 1.409 . S
C551 H543 0.930 . S
C551 C549 1.419 . S
C551 C552 1.362 . S
C552 H544 0.930 . S
C552 C551 1.362 . S
C552 C555 1.409 . S
C553 H545 0.930 . S
C553 C554 1.355 . S
C553 C555 1.415 . S
C554 C553 1.355 . S
C554 C556 1.419 . S
C555 C550 1.425 . S
C555 C552 1.409 . S
C555 C553 1.415 . S
C556 H546 0.930 . S
C556 C554 1.419 . S
C556 C557 1.362 . S
C557 H547 0.930 . S
C557 C550 1.409 . S
C557 C556 1.362 . S
H558 C564 0.930 . S
H559 C567 0.930 . S
H560 C568 0.930 . S
H561 C569 0.930 . S
H562 C572 0.930 . S
H563 C573 0.930 . S
C564 H558 0.930 . S
C564 C565 1.355 . S
C564 C566 1.415 . S
C565 C564 1.355 . S
C565 C567 1.419 . S
C566 C564 1.415 . S
C566 C571 1.425 . S
C566 C573 1.409 . S
C567 H559 0.930 . S
C567 C565 1.419 . S
C567 C568 1.362 . S
C568 H560 0.930 . S
C568 C567 1.362 . S
C568 C571 1.409 . S
C569 H561 0.930 . S
C569 C570 1.355 . S
C569 C571 1.415 . S
C570 C569 1.355 . S
C570 C572 1.419 . S
C571 C566 1.425 . S
C571 C568 1.409 . S
C571 C569 1.415 . S
C572 H562 0.930 . S
C572 C570 1.419 . S
C572 C573 1.362 . S
C573 H563 0.930 . S
C573 C566 1.409 . S
C573 C572 1.362 . S
H574 C580 0.930 . S
H575 C583 0.930 . S
H576 C584 0.930 . S
H577 C585 0.930 . S
H578 C588 0.930 . S
H579 C589 0.930 . S
C580 H574 0.930 . S
C580 C581 1.355 . S
C580 C582 1.415 . S
C581 C580 1.355 . S
C581 C583 1.419 . S
C582 C580 1.415 . S
C582 C587 1.425 . S
C582 C589 1.409 . S
C583 H575 0.930 . S
C583 C581 1.419 . S
C583 C584 1.362 . S
C584 H576 0.930 . S
C584 C583 1.362 . S
C584 C587 1.409 . S
C585 H577 0.930 . S
C585 C586 1.355 . S
C585 C587 1.415 . S
C586 C585 1.355 . S
C586 C588 1.419 . S
C587 C582 1.425 . S
C587 C584 1.409 . S
C587 C585 1.415 . S
C588 H578 0.930 . S
C588 C586 1.419 . S
C588 C589 1.362 . S
C589 H579 0.930 . S
C589 C582 1.409 . S
C589 C588 1.362 . S
H590 C596 0.930 . S
H591 C599 0.930 1_554 S
H592 C600 0.930 . S
H593 C601 0.930 . S
H594 C604 0.930 . S
H595 C605 0.930 . S
C596 H590 0.930 . S
C596 C597 1.355 . S
C596 C598 1.415 . S
C597 C596 1.355 . S
C597 C599 1.419 . S
C598 C596 1.415 . S
C598 C603 1.425 . S
C598 C605 1.409 . S
C599 H591 0.930 1_556 S
C599 C597 1.419 . S
C599 C600 1.362 . S
C600 H592 0.930 . S
C600 C599 1.362 . S
C600 C603 1.409 . S
C601 H593 0.930 . S
C601 C602 1.355 . S
C601 C603 1.415 . S
C602 C601 1.355 . S
C602 C604 1.419 . S
C603 C598 1.425 . S
C603 C600 1.409 . S
C603 C601 1.415 . S
C604 H594 0.930 . S
C604 C602 1.419 . S
C604 C605 1.362 . S
C605 H595 0.930 . S
C605 C598 1.409 . S
C605 C604 1.362 . S
H606 C612 0.930 . S
H607 C615 0.930 . S
H608 C616 0.930 . S
H609 C617 0.930 . S
H610 C620 0.930 . S
H611 C621 0.930 . S
C612 H606 0.930 . S
C612 C613 1.355 . S
C612 C614 1.415 . S
C613 C612 1.355 . S
C613 C615 1.419 . S
C614 C612 1.415 . S
C614 C619 1.425 . S
C614 C621 1.409 . S
C615 H607 0.930 . S
C615 C613 1.419 . S
C615 C616 1.362 . S
C616 H608 0.930 . S
C616 C615 1.362 . S
C616 C619 1.409 . S
C617 H609 0.930 . S
C617 C618 1.355 . S
C617 C619 1.415 . S
C618 C617 1.355 . S
C618 C620 1.419 . S
C619 C614 1.425 . S
C619 C616 1.409 . S
C619 C617 1.415 . S
C620 H610 0.930 . S
C620 C618 1.419 . S
C620 C621 1.362 . S
C621 H611 0.930 . S
C621 C614 1.409 . S
C621 C620 1.362 . S
H622 C628 0.930 . S
H623 C631 0.930 . S
H624 C632 0.930 . S
H625 C633 0.930 . S
H626 C636 0.930 . S
H627 C637 0.930 . S
C628 H622 0.930 . S
C628 C629 1.355 . S
C628 C630 1.415 . S
C629 C628 1.355 . S
C629 C631 1.419 . S
C630 C628 1.415 . S
C630 C635 1.425 . S
C630 C637 1.409 . S
C631 H623 0.930 . S
C631 C629 1.419 . S
C631 C632 1.362 . S
C632 H624 0.930 . S
C632 C631 1.362 . S
C632 C635 1.409 . S
C633 H625 0.930 . S
C633 C634 1.355 . S
C633 C635 1.415 . S
C634 C633 1.355 . S
C634 C636 1.419 . S
C635 C630 1.425 . S
C635 C632 1.409 . S
C635 C633 1.415 . S
C636 H626 0.930 . S
C636 C634 1.419 . S
C636 C637 1.362 . S
C637 H627 0.930 . S
C637 C630 1.409 . S
C637 C636 1.362 . S
H638 C644 0.930 . S
H639 C647 0.930 . S
H640 C648 0.930 . S
H641 C649 0.930 . S
H642 C652 0.930 . S
H643 C653 0.930 . S
C644 H638 0.930 . S
C644 C645 1.355 . S
C644 C646 1.415 . S
C645 C644 1.355 . S
C645 C647 1.419 . S
C646 C644 1.415 . S
C646 C651 1.425 . S
C646 C653 1.409 . S
C647 H639 0.930 . S
C647 C645 1.419 . S
C647 C648 1.362 . S
C648 H640 0.930 . S
C648 C647 1.362 . S
C648 C651 1.409 . S
C649 H641 0.930 . S
C649 C650 1.355 . S
C649 C651 1.415 . S
C650 C649 1.355 . S
C650 C652 1.419 . S
C651 C646 1.425 . S
C651 C648 1.409 . S
C651 C649 1.415 . S
C652 H642 0.930 . S
C652 C650 1.419 . S
C652 C653 1.362 . S
C653 H643 0.930 . S
C653 C646 1.409 . S
C653 C652 1.362 . S
H654 C660 0.930 . S
H655 C663 0.930 . S
H656 C664 0.930 . S
H657 C665 0.930 . S
H658 C668 0.930 1_556 S
H659 C669 0.930 . S
C660 H654 0.930 . S
C660 C661 1.355 . S
C660 C662 1.415 . S
C661 C660 1.355 . S
C661 C663 1.419 . S
C662 C660 1.415 . S
C662 C667 1.425 . S
C662 C669 1.409 . S
C663 H655 0.930 . S
C663 C661 1.419 . S
C663 C664 1.362 . S
C664 H656 0.930 . S
C664 C663 1.362 . S
C664 C667 1.409 . S
C665 H657 0.930 . S
C665 C666 1.355 1_554 S
C665 C667 1.415 . S
C666 C665 1.355 1_556 S
C666 C668 1.419 1_556 S
C667 C662 1.425 . S
C667 C664 1.409 . S
C667 C665 1.415 . S
C668 H658 0.930 1_554 S
C668 C666 1.419 1_554 S
C668 C669 1.362 . S
C669 H659 0.930 . S
C669 C662 1.409 . S
C669 C668 1.362 . S
H670 C676 0.930 . S
H671 C679 0.930 . S
H672 C680 0.930 . S
H673 C681 0.930 . S
H674 C684 0.930 . S
H675 C685 0.930 . S
C676 H670 0.930 . S
C676 C677 1.355 . S
C676 C678 1.415 . S
C677 C676 1.355 . S
C677 C679 1.419 . S
C678 C676 1.415 . S
C678 C683 1.425 . S
C678 C685 1.409 . S
C679 H671 0.930 . S
C679 C677 1.419 . S
C679 C680 1.362 . S
C680 H672 0.930 . S
C680 C679 1.362 . S
C680 C683 1.409 . S
C681 H673 0.930 . S
C681 C682 1.355 . S
C681 C683 1.415 . S
C682 C681 1.355 . S
C682 C684 1.419 . S
C683 C678 1.425 . S
C683 C680 1.409 . S
C683 C681 1.415 . S
C684 H674 0.930 . S
C684 C682 1.419 . S
C684 C685 1.362 . S
C685 H675 0.930 . S
C685 C678 1.409 . S
C685 C684 1.362 . S
H686 C692 0.930 . S
H687 C695 0.930 . S
H688 C696 0.930 . S
H689 C697 0.930 . S
H690 C700 0.930 . S
H691 C701 0.930 . S
C692 H686 0.930 . S
C692 C693 1.355 . S
C692 C694 1.415 . S
C693 C692 1.355 . S
C693 C695 1.419 . S
C694 C692 1.415 . S
C694 C699 1.425 . S
C694 C701 1.409 . S
C695 H687 0.930 . S
C695 C693 1.419 . S
C695 C696 1.362 . S
C696 H688 0.930 . S
C696 C695 1.362 . S
C696 C699 1.409 . S
C697 H689 0.930 . S
C697 C698 1.355 . S
C697 C699 1.415 . S
C698 C697 1.355 . S
C698 C700 1.419 . S
C699 C694 1.425 . S
C699 C696 1.409 . S
C699 C697 1.415 . S
C700 H690 0.930 . S
C700 C698 1.419 . S
C700 C701 1.362 . S
C701 H691 0.930 . S
C701 C694 1.409 . S
C701 C700 1.362 . S
H702 C708 0.930 . S
H703 C711 0.930 . S
H704 C712 0.930 . S
H705 C713 0.930 . S
H706 C716 0.930 . S
H707 C717 0.930 . S
C708 H702 0.930 . S
C708 C709 1.355 . S
C708 C710 1.415 . S
C709 C708 1.355 . S
C709 C711 1.419 . S
C710 C708 1.415 . S
C710 C715 1.425 . S
C710 C717 1.409 . S
C711 H703 0.930 . S
C711 C709 1.419 . S
C711 C712 1.362 . S
C712 H704 0.930 . S
C712 C711 1.362 . S
C712 C715 1.409 . S
C713 H705 0.930 . S
C713 C714 1.355 . S
C713 C715 1.415 . S
C714 C713 1.355 . S
C714 C716 1.419 . S
C715 C710 1.425 . S
C715 C712 1.409 . S
C715 C713 1.415 . S
C716 H706 0.930 . S
C716 C714 1.419 . S
C716 C717 1.362 . S
C717 H707 0.930 . S
C717 C710 1.409 . S
C717 C716 1.362 . S
H718 C724 0.930 . S
H719 C727 0.930 . S
H720 C728 0.930 . S
H721 C729 0.930 . S
H722 C732 0.930 . S
H723 C733 0.930 . S
C724 H718 0.930 . S
C724 C725 1.355 . S
C724 C726 1.415 . S
C725 C724 1.355 . S
C725 C727 1.419 . S
C726 C724 1.415 . S
C726 C731 1.425 . S
C726 C733 1.409 . S
C727 H719 0.930 . S
C727 C725 1.419 . S
C727 C728 1.362 . S
C728 H720 0.930 . S
C728 C727 1.362 . S
C728 C731 1.409 . S
C729 H721 0.930 . S
C729 C730 1.355 . S
C729 C731 1.415 . S
C730 C729 1.355 . S
C730 C732 1.419 . S
C731 C726 1.425 . S
C731 C728 1.409 . S
C731 C729 1.415 . S
C732 H722 0.930 . S
C732 C730 1.419 . S
C732 C733 1.362 . S
C733 H723 0.930 . S
C733 C726 1.409 . S
C733 C732 1.362 . S
H734 C740 0.930 . S
H735 C743 0.930 . S
H736 C744 0.930 . S
H737 C745 0.930 . S
H738 C748 0.930 . S
H739 C749 0.930 . S
C740 H734 0.930 . S
C740 C741 1.355 . S
C740 C742 1.415 . S
C741 C740 1.355 . S
C741 C743 1.419 . S
C742 C740 1.415 . S
C742 C747 1.425 . S
C742 C749 1.373 1_565 S
C743 H735 0.930 . S
C743 C741 1.419 . S
C743 C744 1.362 . S
C744 H736 0.930 . S
C744 C743 1.362 . S
C744 C747 1.409 . S
C745 H737 0.930 . S
C745 C746 1.355 1_565 S
C745 C747 1.415 . S
C746 C745 1.355 1_545 S
C746 C748 1.419 . S
C747 C742 1.425 . S
C747 C744 1.409 . S
C747 C745 1.415 . S
C748 H738 0.930 . S
C748 C746 1.419 . S
C748 C749 1.400 . S
C749 H739 0.930 . S
C749 C742 1.373 1_545 S
C749 C748 1.400 . S
H750 C756 0.930 . S
H751 C759 0.930 . S
H752 C760 0.930 . S
H753 C761 0.930 . S
H754 C764 0.930 . S
H755 C765 0.930 . S
C756 H750 0.930 . S
C756 C757 1.355 . S
C756 C758 1.415 . S
C757 C756 1.355 . S
C757 C759 1.419 . S
C758 C756 1.415 . S
C758 C763 1.425 . S
C758 C765 1.409 . S
C759 H751 0.930 . S
C759 C757 1.419 . S
C759 C760 1.362 . S
C760 H752 0.930 . S
C760 C759 1.362 . S
C760 C763 1.409 . S
C761 H753 0.930 . S
C761 C762 1.355 . S
C761 C763 1.415 . S
C762 C761 1.355 . S
C762 C764 1.419 . S
C763 C758 1.425 . S
C763 C760 1.409 . S
C763 C761 1.415 . S
C764 H754 0.930 . S
C764 C762 1.419 . S
C764 C765 1.362 . S
C765 H755 0.930 . S
C765 C758 1.409 . S
C765 C764 1.362 . S
H766 C772 0.930 . S
H767 C775 0.930 . S
H768 C776 0.930 . S
H769 C777 0.930 . S
H770 C780 0.930 . S
H771 C781 0.930 . S
C772 H766 0.930 . S
C772 C773 1.356 . S
C772 C774 1.415 1_556 S
C773 C772 1.356 . S
C773 C775 1.411 1_656 S
C774 C772 1.415 1_554 S
C774 C779 1.425 1_655 S
C774 C781 1.409 1_554 S
C775 H767 0.930 . S
C775 C773 1.411 1_454 S
C775 C776 1.362 . S
C776 H768 0.930 . S
C776 C775 1.362 . S
C776 C779 1.409 . S
C777 H769 0.930 . S
C777 C778 1.355 . S
C777 C779 1.415 . S
C778 C777 1.355 . S
C778 C780 1.419 1_455 S
C779 C774 1.425 1_455 S
C779 C776 1.409 . S
C779 C777 1.415 . S
C780 H770 0.930 . S
C780 C778 1.419 1_655 S
C780 C781 1.362 1_554 S
C781 H771 0.930 . S
C781 C774 1.409 1_556 S
C781 C780 1.362 1_556 S
H782 C788 0.930 . S
H783 C791 0.930 . S
H784 C792 0.930 . S
H785 C793 0.930 . S
H786 C796 0.930 . S
H787 C797 0.930 1_556 S
C788 H782 0.930 . S
C788 C789 1.355 . S
C788 C790 1.415 1_556 S
C789 C788 1.355 . S
C789 C791 1.419 1_556 S
C790 C788 1.415 1_554 S
C790 C795 1.425 . S
C790 C797 1.409 . S
C791 H783 0.930 . S
C791 C789 1.419 1_554 S
C791 C792 1.362 . S
C792 H784 0.930 . S
C792 C791 1.362 . S
C792 C795 1.409 . S
C793 H785 0.930 . S
C793 C794 1.355 . S
C793 C795 1.415 . S
C794 C793 1.355 . S
C794 C796 1.419 . S
C795 C790 1.425 . S
C795 C792 1.409 . S
C795 C793 1.415 . S
C796 H786 0.930 . S
C796 C794 1.419 . S
C796 C797 1.362 . S
C797 H787 0.930 1_554 S
C797 C790 1.409 . S
C797 C796 1.362 . S
H798 C804 0.930 . S
H799 C807 0.912 1_455 S
H800 C808 0.930 . S
H801 C809 0.930 . S
H802 C812 0.930 . S
H803 C813 0.930 . S
C804 H798 0.930 . S
C804 C805 1.355 . S
C804 C806 1.415 . S
C805 C804 1.355 . S
C805 C807 1.419 . S
C806 C804 1.415 . S
C806 C811 1.425 1_655 S
C806 C813 1.409 . S
C807 H799 0.912 1_655 S
C807 C805 1.419 . S
C807 C808 1.362 1_655 S
C808 H800 0.930 . S
C808 C807 1.362 1_455 S
C808 C811 1.409 . S
C809 H801 0.930 . S
C809 C810 1.355 . S
C809 C811 1.415 . S
C810 C809 1.355 . S
C810 C812 1.419 1_455 S
C811 C806 1.425 1_455 S
C811 C808 1.409 . S
C811 C809 1.415 . S
C812 H802 0.930 . S
C812 C810 1.419 1_655 S
C812 C813 1.362 . S
C813 H803 0.930 . S
C813 C806 1.409 . S
C813 C812 1.362 . S
H814 C820 0.930 . S
H815 C823 0.930 . S
H816 C824 0.930 . S
H817 C825 0.930 . S
H818 C828 0.930 . S
H819 C829 0.930 . S
C820 H814 0.930 . S
C820 C821 1.355 . S
C820 C822 1.415 . S
C821 C820 1.355 . S
C821 C823 1.419 . S
C822 C820 1.415 . S
C822 C827 1.425 . S
C822 C829 1.409 . S
C823 H815 0.930 . S
C823 C821 1.419 . S
C823 C824 1.362 . S
C824 H816 0.930 . S
C824 C823 1.362 . S
C824 C827 1.409 . S
C825 H817 0.930 . S
C825 C826 1.355 . S
C825 C827 1.415 . S
C826 C825 1.355 . S
C826 C828 1.419 . S
C827 C822 1.425 . S
C827 C824 1.409 . S
C827 C825 1.415 . S
C828 H818 0.930 . S
C828 C826 1.419 . S
C828 C829 1.362 . S
C829 H819 0.930 . S
C829 C822 1.409 . S
C829 C828 1.362 . S
H830 C836 0.930 . S
H831 C839 0.930 . S
H832 C840 0.930 . S
H833 C841 0.930 . S
H834 C844 0.930 . S
H835 C845 0.930 . S
C836 H830 0.930 . S
C836 C837 1.355 . S
C836 C838 1.415 . S
C837 C836 1.355 . S
C837 C839 1.419 . S
C838 C836 1.415 . S
C838 C843 1.425 . S
C838 C845 1.409 . S
C839 H831 0.930 . S
C839 C837 1.419 . S
C839 C840 1.362 . S
C840 H832 0.930 . S
C840 C839 1.362 . S
C840 C843 1.409 . S
C841 H833 0.930 . S
C841 C842 1.355 . S
C841 C843 1.415 . S
C842 C841 1.355 . S
C842 C844 1.419 . S
C843 C838 1.425 . S
C843 C840 1.409 . S
C843 C841 1.415 . S
C844 H834 0.930 . S
C844 C842 1.419 . S
C844 C845 1.362 . S
C845 H835 0.930 . S
C845 C838 1.409 . S
C845 C844 1.362 . S
H846 C852 0.930 . S
H847 C855 0.930 1_554 S
H848 C856 0.930 . S
H849 C857 0.930 . S
H850 C860 0.930 . S
H851 C861 0.930 . S
C852 H846 0.930 . S
C852 C853 1.355 . S
C852 C854 1.411 . S
C853 C852 1.355 . S
C853 C855 1.419 . S
C854 C852 1.411 . S
C854 C859 1.438 . S
C854 C861 1.400 1_565 S
C855 H847 0.930 1_556 S
C855 C853 1.419 . S
C855 C856 1.362 . S
C856 H848 0.930 . S
C856 C855 1.362 . S
C856 C859 1.409 . S
C857 H849 0.930 . S
C857 C858 1.355 1_565 S
C857 C859 1.415 . S
C858 C857 1.355 1_545 S
C858 C860 1.419 . S
C859 C854 1.438 . S
C859 C856 1.409 . S
C859 C857 1.415 . S
C860 H850 0.930 . S
C860 C858 1.419 . S
C860 C861 1.362 . S
C861 H851 0.930 . S
C861 C854 1.400 1_545 S
C861 C860 1.362 . S
H862 C868 0.930 . S
H863 C871 0.930 . S
H864 C872 0.930 . S
H865 C873 0.930 1_554 S
H866 C876 0.930 . S
H867 C877 0.930 . S
C868 H862 0.930 . S
C868 C869 1.355 . S
C868 C870 1.415 . S
C869 C868 1.355 . S
C869 C871 1.419 . S
C870 C868 1.415 . S
C870 C875 1.425 . S
C870 C877 1.409 . S
C871 H863 0.930 . S
C871 C869 1.419 . S
C871 C872 1.362 . S
C872 H864 0.930 . S
C872 C871 1.362 . S
C872 C875 1.409 . S
C873 H865 0.930 1_556 S
C873 C874 1.355 . S
C873 C875 1.415 . S
C874 C873 1.355 . S
C874 C876 1.419 . S
C875 C870 1.425 . S
C875 C872 1.409 . S
C875 C873 1.415 . S
C876 H866 0.930 . S
C876 C874 1.419 . S
C876 C877 1.362 . S
C877 H867 0.930 . S
C877 C870 1.409 . S
C877 C876 1.362 . S
H878 C884 0.930 . S
H879 C887 0.930 . S
H880 C888 0.930 . S
H881 C889 0.930 . S
H882 C892 0.930 . S
H883 C893 0.930 . S
C884 H878 0.930 . S
C884 C885 1.355 . S
C884 C886 1.415 . S
C885 C884 1.355 . S
C885 C887 1.419 . S
C886 C884 1.415 . S
C886 C891 1.425 . S
C886 C893 1.409 . S
C887 H879 0.930 . S
C887 C885 1.419 . S
C887 C888 1.362 . S
C888 H880 0.930 . S
C888 C887 1.362 . S
C888 C891 1.409 . S
C889 H881 0.930 . S
C889 C890 1.355 . S
C889 C891 1.415 . S
C890 C889 1.355 . S
C890 C892 1.419 . S
C891 C886 1.425 . S
C891 C888 1.409 . S
C891 C889 1.415 . S
C892 H882 0.930 . S
C892 C890 1.419 . S
C892 C893 1.362 . S
C893 H883 0.930 . S
C893 C886 1.409 . S
C893 C892 1.362 . S
H894 C900 0.930 . S
H895 C903 0.930 . S
H896 C904 0.930 . S
H897 C905 0.930 . S
H898 C908 0.930 . S
H899 C909 0.930 . S
C900 H894 0.930 . S
C900 C901 1.355 1_545 S
C900 C902 1.415 . S
C901 C900 1.355 1_565 S
C901 C903 1.419 . S
C902 C900 1.415 . S
C902 C907 1.425 . S
C902 C909 1.409 . S
C903 H895 0.930 . S
C903 C901 1.419 . S
C903 C904 1.362 1_565 S
C904 H896 0.930 . S
C904 C903 1.362 1_545 S
C904 C907 1.409 . S
C905 H897 0.930 . S
C905 C906 1.355 . S
C905 C907 1.415 . S
C906 C905 1.355 . S
C906 C908 1.419 . S
C907 C902 1.425 . S
C907 C904 1.409 . S
C907 C905 1.415 . S
C908 H898 0.930 . S
C908 C906 1.419 . S
C908 C909 1.362 . S
C909 H899 0.930 . S
C909 C902 1.409 . S
C909 C908 1.362 . S
H910 C916 0.930 . S
H911 C919 0.930 . S
H912 C920 0.930 . S
H913 C921 0.930 . S
H914 C924 0.930 . S
H915 C925 0.930 . S
C916 H910 0.930 . S
C916 C917 1.355 . S
C916 C918 1.415 . S
C917 C916 1.355 . S
C917 C919 1.419 . S
C918 C916 1.415 . S
C918 C923 1.425 . S
C918 C925 1.409 . S
C919 H911 0.930 . S
C919 C917 1.419 . S
C919 C920 1.362 . S
C920 H912 0.930 . S
C920 C919 1.362 . S
C920 C923 1.409 . S
C921 H913 0.930 . S
C921 C922 1.355 . S
C921 C923 1.415 . S
C922 C921 1.355 . S
C922 C924 1.419 . S
C923 C918 1.425 . S
C923 C920 1.409 . S
C923 C921 1.415 . S
C924 H914 0.930 . S
C924 C922 1.419 . S
C924 C925 1.362 . S
C925 H915 0.930 . S
C925 C918 1.409 . S
C925 C924 1.362 . S
H926 C932 0.930 . S
H927 C935 0.930 . S
H928 C936 0.930 . S
H929 C937 0.930 . S
H930 C940 0.930 . S
H931 C941 0.930 . S
C932 H926 0.930 . S
C932 C933 1.355 . S
C932 C934 1.415 . S
C933 C932 1.355 . S
C933 C935 1.419 . S
C934 C932 1.415 . S
C934 C939 1.425 . S
C934 C941 1.409 . S
C935 H927 0.930 . S
C935 C933 1.419 . S
C935 C936 1.362 . S
C936 H928 0.930 . S
C936 C935 1.362 . S
C936 C939 1.409 . S
C937 H929 0.930 . S
C937 C938 1.355 . S
C937 C939 1.415 . S
C938 C937 1.355 . S
C938 C940 1.419 . S
C939 C934 1.425 . S
C939 C936 1.409 . S
C939 C937 1.415 . S
C940 H930 0.930 . S
C940 C938 1.419 . S
C940 C941 1.362 . S
C941 H931 0.930 . S
C941 C934 1.409 . S
C941 C940 1.362 . S
H942 C948 0.930 . S
H943 C951 0.930 . S
H944 C952 0.930 . S
H945 C953 0.930 . S
H946 C956 0.930 . S
H947 C957 0.930 . S
C948 H942 0.930 . S
C948 C949 1.355 . S
C948 C950 1.415 . S
C949 C948 1.355 . S
C949 C951 1.419 . S
C950 C948 1.415 . S
C950 C955 1.425 . S
C950 C957 1.409 . S
C951 H943 0.930 . S
C951 C949 1.419 . S
C951 C952 1.362 . S
C952 H944 0.930 . S
C952 C951 1.362 . S
C952 C955 1.409 . S
C953 H945 0.930 . S
C953 C954 1.355 . S
C953 C955 1.415 . S
C954 C953 1.355 . S
C954 C956 1.419 . S
C955 C950 1.425 . S
C955 C952 1.409 . S
C955 C953 1.415 . S
C956 H946 0.930 . S
C956 C954 1.419 . S
C956 C957 1.362 . S
C957 H947 0.930 . S
C957 C950 1.409 . S
C957 C956 1.362 . S
H958 C964 0.930 . S
H959 C967 0.930 . S
H960 C968 0.930 . S
H961 C969 0.930 . S
H962 C972 0.930 . S
H963 C973 0.930 . S
C964 H958 0.930 . S
C964 C965 1.355 . S
C964 C966 1.415 . S
C965 C964 1.355 . S
C965 C967 1.419 . S
C966 C964 1.415 . S
C966 C971 1.425 . S
C966 C973 1.409 . S
C967 H959 0.930 . S
C967 C965 1.419 . S
C967 C968 1.362 . S
C968 H960 0.930 . S
C968 C967 1.362 . S
C968 C971 1.409 . S
C969 H961 0.930 . S
C969 C970 1.355 . S
C969 C971 1.415 . S
C970 C969 1.355 . S
C970 C972 1.419 . S
C971 C966 1.425 . S
C971 C968 1.409 . S
C971 C969 1.415 . S
C972 H962 0.930 . S
C972 C970 1.419 . S
C972 C973 1.362 . S
C973 H963 0.930 . S
C973 C966 1.409 . S
C973 C972 1.362 . S
H974 C980 0.930 1_565 S
H975 C983 0.937 . S
H976 C984 0.930 . S
H977 C985 0.930 . S
H978 C988 0.930 . S
H979 C989 0.930 . S
C980 H974 0.930 1_545 S
C980 C981 1.355 1_545 S
C980 C982 1.415 . S
C981 C980 1.355 1_565 S
C981 C983 1.419 1_565 S
C982 C980 1.415 . S
C982 C987 1.425 . S
C982 C989 1.409 . S
C983 H975 0.937 . S
C983 C981 1.419 1_545 S
C983 C984 1.362 . S
C984 H976 0.930 . S
C984 C983 1.362 . S
C984 C987 1.409 . S
C985 H977 0.930 . S
C985 C986 1.355 . S
C985 C987 1.415 . S
C986 C985 1.355 . S
C986 C988 1.419 . S
C987 C982 1.425 . S
C987 C984 1.409 . S
C987 C985 1.415 . S
C988 H978 0.930 . S
C988 C986 1.419 . S
C988 C989 1.362 . S
C989 H979 0.930 . S
C989 C982 1.409 . S
C989 C988 1.362 . S
C421 C85 1.615 . S
C426 C16 1.618 . S
C437 N94 1.555 . S
C442 N25 1.552 1_556 S
C453 N48 1.518 . S
C458 N117 1.526 . S
C469 C62 1.741 . S
C474 C131 1.739 . S
C485 N2 1.634 . S
C490 N71 1.625 . S
C501 C108 1.689 . S
C506 C39 1.691 . S
C517 N209 1.827 . S
C522 C154 1.889 . S
C533 C177 1.832 . S
C538 N232 1.761 . S
C549 C200 1.769 . S
C554 N255 1.705 . S
C565 C269 1.549 1_556 S
C570 N186 1.480 . S
C581 C223 1.524 . S
C586 N140 1.467 . S
C597 C246 1.602 1_556 S
C602 N163 1.538 . S
C613 C292 1.588 . S
C618 C361 1.596 . S
C629 N301 1.655 . S
C634 N370 1.658 . S
C645 N324 1.562 . S
C650 N393 1.558 . S
C661 C407 1.715 . S
C666 C338 1.721 . S
C677 N347 1.675 . S
C682 N278 1.671 . S
C693 C384 1.767 . S
C698 C315 1.771 . S
C709 C7 1.558 . S
C714 N173 1.527 . S
C725 N35 1.530 . S
C730 N196 1.534 . S
C741 N150 1.512 . S
C746 N58 1.536 . S
C757 C53 1.657 . S
C762 N311 1.607 . S
C773 N334 1.628 . S
C778 N12 1.618 . S
C789 C283 1.571 . S
C794 C30 1.617 . S
C805 C375 1.608 . S
C810 C76 1.584 . S
C821 N104 1.603 . S
C826 C398 1.640 . S
C837 N357 1.634 . S
C842 N127 1.610 . S
C853 N242 1.599 . S
C858 C122 1.650 . S
C869 N81 1.621 . S
C874 N265 1.587 . S
C885 C99 1.665 . S
C890 N219 1.634 . S
C901 C145 1.717 . S
C906 C306 1.699 . S
C917 C168 1.675 . S
C922 C329 1.675 1_455 S
C933 C191 1.695 . S
C938 N288 1.705 . S
C949 N380 1.584 1_455 S
C954 C260 1.635 . S
C965 N403 1.584 . S
C970 C214 1.626 . S
C981 C237 1.564 . S
C986 C352 1.584 . S
