# Generated by pormake.
# Topology vbk, (5)-cn, num edge types: 1
# Building blocks:
#     Node 0, Type 0, BuildingBlock: XOMCOT_clean_sbu_1, # of connection points: 5
#     Node 1, Type 0, BuildingBlock: XOMCOT_clean_sbu_1, # of connection points: 5
#     Node 2, Type 0, BuildingBlock: XOMCOT_clean_sbu_1, # of connection points: 5
#     Node 3, Type 0, BuildingBlock: XOMCOT_clean_sbu_1, # of connection points: 5
#     Node 4, Type 0, BuildingBlock: XOMCOT_clean_sbu_1, # of connection points: 5
#     Node 5, Type 0, BuildingBlock: XOMCOT_clean_sbu_1, # of connection points: 5
#     Node 6, Type 0, BuildingBlock: XOMCOT_clean_sbu_1, # of connection points: 5
#     Node 7, Type 0, BuildingBlock: XOMCOT_clean_sbu_1, # of connection points: 5
#     Node 8, Type 0, BuildingBlock: XOMCOT_clean_sbu_1, # of connection points: 5
#     Node 9, Type 0, BuildingBlock: XOMCOT_clean_sbu_1, # of connection points: 5
#     Node 10, Type 0, BuildingBlock: XOMCOT_clean_sbu_1, # of connection points: 5
#     Node 11, Type 0, BuildingBlock: XOMCOT_clean_sbu_1, # of connection points: 5
#     Node 12, Type 0, BuildingBlock: XOMCOT_clean_sbu_1, # of connection points: 5
#     Node 13, Type 0, BuildingBlock: XOMCOT_clean_sbu_1, # of connection points: 5
#     Node 14, Type 0, BuildingBlock: XOMCOT_clean_sbu_1, # of connection points: 5
#     Node 15, Type 0, BuildingBlock: XOMCOT_clean_sbu_1, # of connection points: 5
#     Edge 16, Type (0, 0), None
#     Edge 17, Type (0, 0), None
#     Edge 18, Type (0, 0), None
#     Edge 19, Type (0, 0), None
#     Edge 20, Type (0, 0), None
#     Edge 21, Type (0, 0), None
#     Edge 22, Type (0, 0), None
#     Edge 23, Type (0, 0), None
#     Edge 24, Type (0, 0), None
#     Edge 25, Type (0, 0), None
#     Edge 26, Type (0, 0), None
#     Edge 27, Type (0, 0), None
#     Edge 28, Type (0, 0), None
#     Edge 29, Type (0, 0), None
#     Edge 30, Type (0, 0), None
#     Edge 31, Type (0, 0), None
#     Edge 32, Type (0, 0), None
#     Edge 33, Type (0, 0), None
#     Edge 34, Type (0, 0), None
#     Edge 35, Type (0, 0), None
#     Edge 36, Type (0, 0), None
#     Edge 37, Type (0, 0), None
#     Edge 38, Type (0, 0), None
#     Edge 39, Type (0, 0), None
#     Edge 40, Type (0, 0), None
#     Edge 41, Type (0, 0), None
#     Edge 42, Type (0, 0), None
#     Edge 43, Type (0, 0), None
#     Edge 44, Type (0, 0), None
#     Edge 45, Type (0, 0), None
#     Edge 46, Type (0, 0), None
#     Edge 47, Type (0, 0), None
#     Edge 48, Type (0, 0), None
#     Edge 49, Type (0, 0), None
#     Edge 50, Type (0, 0), None
#     Edge 51, Type (0, 0), None
#     Edge 52, Type (0, 0), None
#     Edge 53, Type (0, 0), None
#     Edge 54, Type (0, 0), None
#     Edge 55, Type (0, 0), None
# Relax obj value: 0.076
# Max RMSD: 0.146
# Mean RMSD: 0.146
data_MOF--net-vbk--node1-XOMCOT_clean_sbu_1--edge1-none
_symmetry_space_group_name_H-M    P1
_symmetry_Int_Tables_number       1
_symmetry_cell_setting            triclinic
loop_
_symmetry_equiv_pos_as_xyz
'x, y, z'
_cell_length_a     35.184875
_cell_length_b     20.977969
_cell_length_c     14.688109
_cell_angle_alpha  90.000247
_cell_angle_beta   90.044834
_cell_angle_gamma 89.998911
loop_
_atom_site_label
_atom_site_type_symbol
_atom_site_fract_x
_atom_site_fract_y
_atom_site_fract_z
_atom_type_partial_charge
C0 C 0.11507 0.25682 0.94511 0.0
C1 C 0.07646 0.25089 0.94606 0.0
N2 N 0.06676 0.2115 0.0142 0.0
N3 N 0.1307 0.21896 0.00945 0.0
C4 C 0.10013 0.19316 0.05207 0.0
H5 H 0.13001 0.29147 0.90508 0.0
Co6 Co 0.18333 0.21128 0.04153 0.0
C7 C 0.1986 0.07923 -0.02357 0.0
O8 O 0.22903 0.10214 0.93649 0.0
N9 N 0.23643 0.20189 0.08026 0.0
C10 C 0.29984 0.20633 0.09594 0.0
C11 C 0.26957 0.21224 0.03595 0.0
C12 C 0.2481 0.18839 0.16727 0.0
N13 N 0.28622 0.19227 0.17914 0.0
O14 O 0.17024 0.21619 0.16696 0.0
H15 H 0.27197 0.22496 0.9649 0.0
H16 H 0.22917 0.17573 0.22184 0.0
O17 O 0.17853 0.11582 0.02799 0.0
C18 C 0.17068 0.2774 0.17438 0.0
O19 O 0.16987 0.31184 0.09973 0.0
N20 N 0.1959 0.22383 0.91838 0.0
C21 C 0.17914 0.29196 0.75981 0.0
C22 C 0.17204 0.22605 0.7654 0.0
C23 C 0.17946 0.19318 0.84618 0.0
C24 C 0.20668 0.28616 0.91013 0.0
C25 C 0.1971 0.32174 0.83297 0.0
H26 H 0.16697 0.14657 0.85366 0.0
H27 H 0.21791 0.31107 0.96866 0.0
H28 H 0.10212 0.16623 0.11473 0.0
H29 H 0.05673 0.28083 0.90893 0.0
H30 H 0.32924 0.21402 0.07958 0.0
H31 H 0.15791 0.20103 0.71045 0.0
H32 H 0.20169 0.37255 0.833 0.0
C33 C 0.48417 0.82409 0.6027 0.0
C34 C 0.52278 0.82611 0.59587 0.0
N35 N 0.53271 0.88371 0.564 0.0
N36 N 0.46919 0.88063 0.57746 0.0
C37 C 0.49971 0.91598 0.55216 0.0
H38 H 0.46798 0.78224 0.62026 0.0
Co39 Co 0.41615 0.89326 0.58614 0.0
C40 C 0.4001 1.00971 0.47412 0.0
O41 O 0.37747 0.97343 0.42567 0.0
N42 N 0.36185 0.90557 0.60177 0.0
C43 C 0.29846 0.89704 0.59915 0.0
C44 C 0.33153 0.88974 0.5495 0.0
C45 C 0.34577 0.92485 0.68155 0.0
N46 N 0.30785 0.91859 0.68234 0.0
O47 O 0.42375 0.9107 0.71173 0.0
H48 H 0.33302 0.87074 0.48125 0.0
H49 H 0.36121 0.94069 0.74083 0.0
O50 O 0.4186 0.98518 0.54202 0.0
C51 C 0.41775 0.8523 0.73485 0.0
O52 O 0.40453 0.8118 0.67454 0.0
N53 N 0.41122 0.85969 0.47028 0.0
C54 C 0.42388 0.77841 0.32458 0.0
C55 C 0.44126 0.83854 0.32817 0.0
C56 C 0.43467 0.87845 0.40159 0.0
C57 C 0.39573 0.79979 0.46979 0.0
C58 C 0.4016 0.7583 0.39712 0.0
H59 H 0.44968 0.92327 0.40499 0.0
H60 H 0.37914 0.78315 0.52672 0.0
H61 H 0.49774 0.9627 0.52128 0.0
H62 H 0.54195 0.78613 0.60403 0.0
H63 H 0.27031 0.88298 0.57801 0.0
H64 H 0.45849 0.85588 0.27238 0.0
H65 H 0.38753 0.71243 0.39577 0.0
C66 C 0.10835 0.8235 0.84046 0.0
C67 C 0.06974 0.82526 0.84734 0.0
N68 N 0.05968 0.88275 0.87937 0.0
N69 N 0.12321 0.88013 0.86579 0.0
C70 C 0.0926 0.91524 0.89121 0.0
H71 H 0.12463 0.78177 0.82283 0.0
Co72 Co 0.17623 0.893 0.85704 0.0
C73 C 0.19201 1.0096 0.96909 0.0
O74 O 0.21455 0.97345 0.01798 0.0
N75 N 0.23051 0.90556 0.84134 0.0
C76 C 0.29392 0.8974 0.84402 0.0
C77 C 0.26086 0.89011 0.89373 0.0
C78 C 0.24655 0.92466 0.76142 0.0
N79 N 0.28447 0.91852 0.76064 0.0
O80 O 0.16858 0.91037 0.73144 0.0
H81 H 0.25941 0.87138 0.96213 0.0
H82 H 0.23109 0.94029 0.70206 0.0
O83 O 0.17366 0.98492 0.90106 0.0
C84 C 0.17466 0.852 0.70832 0.0
O85 O 0.18797 0.81158 0.76863 0.0
N86 N 0.18126 0.85946 -0.02711 0.0
C87 C 0.16883 0.77805 0.11855 0.0
C88 C 0.15128 0.83803 0.115 0.0
C89 C 0.15775 0.87802 0.04159 0.0
C90 C 0.19691 0.79969 -0.02665 0.0
C91 C 0.19116 0.75813 0.04599 0.0
H92 H 0.14262 0.92272 0.03822 0.0
H93 H 0.21355 0.78319 0.9164 0.0
H94 H 0.09446 0.96194 0.92217 0.0
H95 H 0.05067 0.78515 0.83908 0.0
H96 H 0.32211 0.88365 0.86528 0.0
H97 H 0.13401 0.85523 0.1708 0.0
H98 H 0.20534 0.71235 0.0473 0.0
C99 C 0.47796 0.25515 0.4988 0.0
C100 C 0.51655 0.2489 0.4975 0.0
N101 N 0.52607 0.21023 0.42838 0.0
N102 N 0.46214 0.21825 0.43355 0.0
C103 C 0.49261 0.19267 0.39022 0.0
H104 H 0.46318 0.28941 0.53983 0.0
Co105 Co 0.40948 0.21118 0.40127 0.0
C106 C 0.39361 0.07935 0.46623 0.0
O107 O 0.36308 0.10252 0.50542 0.0
N108 N 0.35638 0.20228 0.36238 0.0
C109 C 0.29305 0.2081 0.34609 0.0
C110 C 0.32328 0.21398 0.40616 0.0
C111 C 0.34472 0.18799 0.27561 0.0
N112 N 0.30666 0.19272 0.26335 0.0
O113 O 0.42259 0.21589 0.27583 0.0
H114 H 0.32089 0.22765 0.47684 0.0
H115 H 0.36364 0.1742 0.22153 0.0
O116 O 0.41396 0.11573 0.41503 0.0
C117 C 0.42249 0.27711 0.26843 0.0
O118 O 0.42382 0.31152 0.34306 0.0
N119 N 0.39686 0.22401 0.5243 0.0
C120 C 0.41321 0.29188 0.68332 0.0
C121 C 0.41995 0.22585 0.67793 0.0
C122 C 0.41277 0.19309 0.59693 0.0
C123 C 0.38649 0.28656 0.53216 0.0
C124 C 0.39589 0.32199 0.60956 0.0
H125 H 0.42497 0.14624 0.58983 0.0
H126 H 0.37567 0.31163 0.47334 0.0
H127 H 0.4905 0.16647 0.32696 0.0
H128 H 0.53641 0.27821 0.53525 0.0
H129 H 0.2637 0.21679 0.36197 0.0
H130 H 0.43362 0.20059 0.73333 0.0
H131 H 0.39154 0.37289 0.60935 0.0
C132 C 0.97757 0.84678 -0.00218 0.0
C133 C 1.01619 0.8526 -0.00335 0.0
N134 N 1.02583 0.89187 0.92834 0.0
N135 N 0.9619 0.88462 0.93346 0.0
C136 C 0.99245 0.91034 0.89065 0.0
H137 H 0.96264 0.8122 0.03799 0.0
Co138 Co 0.90927 0.89228 0.90144 0.0
C139 C 0.89399 1.02431 0.96656 0.0
O140 O 0.86357 1.00139 0.00652 0.0
N141 N 0.85616 0.90166 0.86273 0.0
C142 C 0.79276 0.8972 0.84705 0.0
C143 C 0.82303 0.89129 0.90704 0.0
C144 C 0.84449 0.91517 0.77573 0.0
N145 N 0.80638 0.91128 0.76385 0.0
O146 O 0.92235 0.88738 0.776 0.0
H147 H 0.82063 0.87855 -0.02192 0.0
H148 H 0.86342 0.92785 0.72116 0.0
O149 O 0.91406 0.98774 0.91499 0.0
C150 C 0.92191 0.82617 0.7686 0.0
O151 O 0.92273 0.79174 0.84325 0.0
N152 N 0.89672 0.87972 0.0246 0.0
C153 C 0.91347 0.8116 0.18318 0.0
C154 C 0.92057 0.87751 0.17758 0.0
C155 C 0.91316 0.91037 0.09679 0.0
C156 C 0.88594 0.81738 0.03285 0.0
C157 C 0.89552 0.78182 0.11001 0.0
H158 H 0.92564 0.95699 0.08931 0.0
H159 H 0.87471 0.79248 -0.02567 0.0
H160 H 0.99043 0.93724 0.82797 0.0
H161 H 1.03594 0.82267 0.03373 0.0
H162 H 0.76336 0.8895 0.86342 0.0
H163 H 0.9347 0.90253 0.23254 0.0
H164 H 0.89093 0.731 0.10999 0.0
C165 C 0.60835 0.27938 0.3403 0.0
C166 C 0.56974 0.27735 0.34739 0.0
N167 N 0.5599 0.21979 0.37951 0.0
N168 N 0.62338 0.22286 0.36557 0.0
C169 C 0.59289 0.18749 0.39109 0.0
H170 H 0.62451 0.32122 0.32258 0.0
Co171 Co 0.67642 0.21029 0.35684 0.0
C172 C 0.6925 0.09383 0.46886 0.0
O173 O 0.71514 0.13012 0.51731 0.0
N174 N 0.73072 0.19803 0.34118 0.0
C175 C 0.79411 0.20655 0.34386 0.0
C176 C 0.76104 0.21382 0.39349 0.0
C177 C 0.74681 0.1788 0.26138 0.0
N178 N 0.78474 0.18505 0.26064 0.0
O179 O 0.66882 0.19284 0.23125 0.0
H180 H 0.75954 0.23278 0.46176 0.0
H181 H 0.73138 0.16298 0.20208 0.0
O182 O 0.674 0.11836 0.40096 0.0
C183 C 0.67479 0.25125 0.20813 0.0
O184 O 0.68798 0.29176 0.26846 0.0
N185 N 0.68136 0.24387 0.4727 0.0
C186 C 0.66875 0.32513 0.61843 0.0
C187 C 0.65138 0.26499 0.61488 0.0
C188 C 0.65794 0.22509 0.54144 0.0
C189 C 0.69684 0.30377 0.47316 0.0
C190 C 0.69099 0.34525 0.54585 0.0
H191 H 0.64295 0.18026 0.53808 0.0
H192 H 0.71342 0.32041 0.4162 0.0
H193 H 0.5949 0.14079 0.42201 0.0
H194 H 0.55055 0.3173 0.33923 0.0
H195 H 0.82226 0.22058 0.36505 0.0
H196 H 0.63417 0.24763 0.67071 0.0
H197 H 0.70505 0.39114 0.54717 0.0
C198 C 0.98431 0.27996 0.10252 0.0
C199 C 1.02292 0.27821 0.09539 0.0
N200 N 1.0329 0.22076 0.0631 0.0
N201 N 0.96941 0.22337 0.07716 0.0
C202 C 0.99998 0.18824 0.05152 0.0
H203 H 0.96806 0.32169 0.12032 0.0
Co204 Co 0.91638 0.21055 0.08597 0.0
C205 C 0.90057 0.09395 -0.02609 0.0
O206 O 0.87803 0.1301 0.92503 0.0
N207 N 0.8621 0.19804 0.1017 0.0
C208 C 0.79869 0.20619 0.09896 0.0
C209 C 0.83175 0.21346 0.04926 0.0
C210 C 0.84606 0.17899 0.18162 0.0
N211 N 0.80813 0.18512 0.18236 0.0
O212 O 0.92404 0.19317 0.21157 0.0
H213 H 0.83321 0.23214 -0.01916 0.0
H214 H 0.86151 0.16339 0.24101 0.0
O215 O 0.91893 0.11862 0.04194 0.0
C216 C 0.91798 0.25155 0.23467 0.0
O217 O 0.9047 0.29198 0.17436 0.0
N218 N 0.91135 0.2441 0.97012 0.0
C219 C 0.92373 0.32549 0.82442 0.0
C220 C 0.94127 0.26549 0.82794 0.0
C221 C 0.93483 0.22552 0.90137 0.0
C222 C 0.8957 0.30387 0.96968 0.0
C223 C 0.90143 0.34543 0.89702 0.0
H224 H 0.94994 0.1808 0.9047 0.0
H225 H 0.87908 0.32038 0.02665 0.0
H226 H 0.99808 0.14155 0.02051 0.0
H227 H 1.04201 0.31828 0.10364 0.0
H228 H 0.7705 0.21991 0.07765 0.0
H229 H 0.95852 0.24828 0.7721 0.0
H230 H 0.88726 0.39121 0.89574 0.0
C231 C 0.61459 0.84844 0.44427 0.0
C232 C 0.57599 0.85458 0.44577 0.0
N233 N 0.56653 0.89313 0.51506 0.0
N234 N 0.63044 0.88532 0.50952 0.0
C235 C 0.6 0.91082 0.55304 0.0
H236 H 0.62936 0.81425 0.40311 0.0
Co237 Co 0.68311 0.89239 0.54175 0.0
C238 C 0.69898 1.02419 0.47677 0.0
O239 O 0.72951 1.00101 0.43756 0.0
N240 N 0.73621 0.90127 0.58062 0.0
C241 C 0.79954 0.89543 0.59691 0.0
C242 C 0.76931 0.88955 0.53684 0.0
C243 C 0.74787 0.91557 0.66738 0.0
N244 N 0.78594 0.91082 0.67964 0.0
O245 O 0.67002 0.88768 0.6672 0.0
H246 H 0.7717 0.87587 0.46616 0.0
H247 H 0.72895 0.92938 0.72145 0.0
O248 O 0.67863 0.98783 0.52798 0.0
C249 C 0.67011 0.82646 0.67458 0.0
O250 O 0.66877 0.79205 0.59995 0.0
N251 N 0.69571 0.87954 0.41871 0.0
C252 C 0.67936 0.81167 0.25967 0.0
C253 C 0.67262 0.87771 0.26507 0.0
C254 C 0.6798 0.91046 0.34608 0.0
C255 C 0.70607 0.81698 0.41084 0.0
C256 C 0.69668 0.78156 0.33344 0.0
H257 H 0.6676 0.95731 0.35319 0.0
H258 H 0.7169 0.79191 0.46966 0.0
H259 H 0.60213 0.937 0.61632 0.0
H260 H 0.55611 0.82527 0.40808 0.0
H261 H 0.82888 0.88673 0.58102 0.0
H262 H 0.65895 0.90297 0.20967 0.0
H263 H 0.70104 0.73067 0.33364 0.0
C264 C 0.61504 0.75677 0.94499 0.0
C265 C 0.57643 0.75083 0.946 0.0
N266 N 0.56674 0.71145 0.01418 0.0
N267 N 0.63069 0.71893 0.00934 0.0
C268 C 0.60013 0.69314 0.052 0.0
H269 H 0.62996 0.79141 0.90492 0.0
Co270 Co 0.68331 0.71127 0.04139 0.0
C271 C 0.6986 0.57924 -0.02374 0.0
O272 O 0.72902 0.60216 0.9363 0.0
N273 N 0.73642 0.7019 0.08011 0.0
C274 C 0.79983 0.70633 0.09578 0.0
C275 C 0.76956 0.71224 0.0358 0.0
C276 C 0.74809 0.6884 0.16712 0.0
N277 N 0.78621 0.69227 0.17898 0.0
O278 O 0.67023 0.71616 0.16683 0.0
H279 H 0.77195 0.72497 0.96475 0.0
H280 H 0.72916 0.67574 0.2217 0.0
O281 O 0.67853 0.61581 0.02783 0.0
C282 C 0.67067 0.77737 0.17424 0.0
O283 O 0.66984 0.81182 0.09961 0.0
N284 N 0.69588 0.72384 0.91824 0.0
C285 C 0.67912 0.79198 0.75969 0.0
C286 C 0.67203 0.72607 0.76527 0.0
C287 C 0.67944 0.6932 0.84604 0.0
C288 C 0.70666 0.78618 0.91001 0.0
C289 C 0.69707 0.82176 0.83286 0.0
H290 H 0.66696 0.64658 0.85351 0.0
H291 H 0.71788 0.81109 0.96855 0.0
H292 H 0.60213 0.66622 0.11467 0.0
H293 H 0.55669 0.78076 0.90889 0.0
H294 H 0.82923 0.71401 0.07941 0.0
H295 H 0.6579 0.70106 0.71031 0.0
H296 H 0.70166 0.87258 0.8329 0.0
C297 C 0.98415 0.32404 0.60253 0.0
C298 C 1.02276 0.32606 0.59577 0.0
N299 N 1.0327 0.38366 0.56396 0.0
N300 N 0.96918 0.38061 0.5773 0.0
C301 C 0.99972 0.41595 0.55207 0.0
H302 H 0.96794 0.2822 0.62004 0.0
Co303 Co 0.91614 0.39325 0.58595 0.0
C304 C 0.90012 0.50971 0.47391 0.0
O305 O 0.8775 0.47343 0.42543 0.0
N306 N 0.86184 0.40559 0.60156 0.0
C307 C 0.79845 0.39708 0.59892 0.0
C308 C 0.83152 0.38978 0.54928 0.0
C309 C 0.84576 0.42486 0.68135 0.0
N310 N 0.80784 0.41861 0.68213 0.0
O311 O 0.92373 0.4107 0.71154 0.0
H312 H 0.83301 0.37079 0.48102 0.0
H313 H 0.8612 0.44068 0.74064 0.0
O314 O 0.91861 0.48517 0.54182 0.0
C315 C 0.91773 0.3523 0.73466 0.0
O316 O 0.90451 0.31181 0.67434 0.0
N317 N 0.91121 0.35967 0.47009 0.0
C318 C 0.92389 0.27837 0.32447 0.0
C319 C 0.94128 0.33848 0.32802 0.0
C320 C 0.93469 0.37841 0.40142 0.0
C321 C 0.89571 0.29979 0.4696 0.0
C322 C 0.90158 0.25828 0.39696 0.0
H323 H 0.9497 0.42322 0.40483 0.0
H324 H 0.8791 0.28318 0.52652 0.0
H325 H 0.99776 0.46268 0.52123 0.0
H326 H 1.04192 0.28606 0.60395 0.0
H327 H 0.7703 0.38304 0.57778 0.0
H328 H 0.95853 0.3558 0.27225 0.0
H329 H 0.8875 0.21242 0.3956 0.0
C330 C 0.60833 0.32352 0.84033 0.0
C331 C 0.56972 0.3253 0.84726 0.0
N332 N 0.55968 0.38278 0.87935 0.0
N333 N 0.6232 0.38013 0.86567 0.0
C334 C 0.59261 0.41526 0.89115 0.0
H335 H 0.6246 0.28179 0.82265 0.0
Co336 Co 0.67623 0.39299 0.85689 0.0
C337 C 0.69202 0.5096 0.96891 0.0
O338 O 0.71457 0.47346 0.01779 0.0
N339 N 0.73051 0.40555 0.84116 0.0
C340 C 0.79392 0.39741 0.84381 0.0
C341 C 0.76087 0.39011 0.89354 0.0
C342 C 0.74654 0.42465 0.76123 0.0
N343 N 0.78446 0.41852 0.76044 0.0
O344 O 0.66857 0.41035 0.73129 0.0
H345 H 0.75942 0.37138 0.96194 0.0
H346 H 0.73107 0.44028 0.70188 0.0
O347 O 0.67366 0.48493 0.90089 0.0
C348 C 0.67465 0.35197 0.7082 0.0
O349 O 0.68795 0.31156 0.76854 0.0
N350 N 0.68126 0.35947 -0.02725 0.0
C351 C 0.66881 0.27805 0.11835 0.0
C352 C 0.65127 0.33804 0.11484 0.0
C353 C 0.65775 0.37803 0.04145 0.0
C354 C 0.69692 0.2997 -0.02679 0.0
C355 C 0.69116 0.25813 0.04584 0.0
H356 H 0.64264 0.42274 0.03808 0.0
H357 H 0.71357 0.2832 0.91628 0.0
H358 H 0.59449 0.46195 0.92214 0.0
H359 H 0.55065 0.2852 0.83901 0.0
H360 H 0.82211 0.38366 0.86506 0.0
H361 H 0.63399 0.35523 0.17063 0.0
H362 H 0.70534 0.21235 0.04717 0.0
C363 C 0.97792 0.75521 0.49868 0.0
C364 C 1.01652 0.74897 0.49745 0.0
N365 N 1.02606 0.71029 0.42836 0.0
N366 N 0.96213 0.71829 0.43343 0.0
C367 C 0.9926 0.69272 0.39016 0.0
H368 H 0.96314 0.78948 0.53967 0.0
Co369 Co 0.90947 0.71119 0.40113 0.0
C370 C 0.89362 0.57935 0.46604 0.0
O371 O 0.86309 0.60249 0.50523 0.0
N372 N 0.85637 0.70227 0.36222 0.0
C373 C 0.79304 0.70809 0.34593 0.0
C374 C 0.82327 0.71397 0.406 0.0
C375 C 0.84471 0.68798 0.27545 0.0
N376 N 0.80665 0.69272 0.26319 0.0
O377 O 0.92258 0.71592 0.2757 0.0
H378 H 0.82087 0.72764 0.47668 0.0
H379 H 0.86364 0.67419 0.22138 0.0
O380 O 0.91397 0.61574 0.41486 0.0
C381 C 0.92246 0.77714 0.26832 0.0
O382 O 0.92379 0.81156 0.34294 0.0
N383 N 0.89684 0.72399 0.52416 0.0
C384 C 0.91319 0.79186 0.68319 0.0
C385 C 0.91993 0.72582 0.6778 0.0
C386 C 0.91275 0.69307 0.59678 0.0
C387 C 0.88646 0.78654 0.53204 0.0
C388 C 0.89586 0.82197 0.60944 0.0
H389 H 0.92496 0.64623 0.58967 0.0
H390 H 0.87564 0.81162 0.47322 0.0
H391 H 0.99051 0.66649 0.3269 0.0
H392 H 1.03636 0.77829 0.53522 0.0
H393 H 0.76369 0.71679 0.3618 0.0
H394 H 0.93361 0.70057 0.73319 0.0
H395 H 0.89151 0.87286 0.60924 0.0
C396 C 0.4776 0.34682 -0.00207 0.0
C397 C 0.51622 0.35265 -0.00329 0.0
N398 N 0.52584 0.39191 0.92836 0.0
N399 N 0.46192 0.38465 0.93358 0.0
C400 C 0.49245 0.41036 0.89072 0.0
H401 H 0.46268 0.31226 0.03814 0.0
Co402 Co 0.40929 0.39229 0.90157 0.0
C403 C 0.39399 0.52431 0.96673 0.0
O404 O 0.36357 0.50137 0.0067 0.0
N405 N 0.35618 0.40166 0.86288 0.0
C406 C 0.29277 0.39721 0.84722 0.0
C407 C 0.32304 0.39129 0.90719 0.0
C408 C 0.3445 0.41516 0.77588 0.0
N409 N 0.30638 0.41128 0.76401 0.0
O410 O 0.42236 0.38741 0.77613 0.0
H411 H 0.32065 0.37855 -0.02176 0.0
H412 H 0.36343 0.42784 0.7213 0.0
O413 O 0.41406 0.48775 0.91514 0.0
C414 C 0.42192 0.3262 0.76873 0.0
O415 O 0.42276 0.29175 0.84337 0.0
N416 N 0.39674 0.37971 0.02473 0.0
C417 C 0.41349 0.31157 0.18331 0.0
C418 C 0.42059 0.37748 0.17771 0.0
C419 C 0.41318 0.41035 0.09693 0.0
C420 C 0.38597 0.31736 0.03297 0.0
C421 C 0.39555 0.28179 0.11013 0.0
H422 H 0.42565 0.45697 0.08946 0.0
H423 H 0.37474 0.29246 -0.02556 0.0
H424 H 0.49042 0.43725 0.82803 0.0
H425 H 0.53598 0.32273 0.03377 0.0
H426 H 0.26337 0.38951 0.86359 0.0
H427 H 0.43472 0.4025 0.23268 0.0
H428 H 0.39096 0.23097 0.1101 0.0
C429 C 0.10837 0.77942 0.34047 0.0
C430 C 0.06977 0.7774 0.34748 0.0
N431 N 0.0599 0.71984 0.37955 0.0
N432 N 0.12339 0.72288 0.36573 0.0
C433 C 0.09289 0.68753 0.39118 0.0
H434 H 0.12455 0.82126 0.32279 0.0
Co435 Co 0.17643 0.71029 0.35703 0.0
C436 C 0.19249 0.59384 0.46907 0.0
O437 O 0.21511 0.63012 0.51755 0.0
N438 N 0.23073 0.69801 0.34139 0.0
C439 C 0.29412 0.70651 0.34408 0.0
C440 C 0.26105 0.71379 0.39371 0.0
C441 C 0.24682 0.67879 0.26159 0.0
N442 N 0.28475 0.68503 0.26085 0.0
O443 O 0.16884 0.69284 0.23144 0.0
H444 H 0.25955 0.73272 0.46199 0.0
H445 H 0.23139 0.66299 0.20228 0.0
O446 O 0.17399 0.61837 0.40116 0.0
C447 C 0.17481 0.75125 0.20832 0.0
O448 O 0.18801 0.79175 0.26865 0.0
N449 N 0.18137 0.74388 0.47289 0.0
C450 C 0.16874 0.82517 0.61854 0.0
C451 C 0.15135 0.76505 0.61503 0.0
C452 C 0.15792 0.72513 0.5416 0.0
C453 C 0.19686 0.80377 0.47335 0.0
C454 C 0.19101 0.84527 0.54601 0.0
H455 H 0.14292 0.68031 0.53824 0.0
H456 H 0.21346 0.82039 0.4164 0.0
H457 H 0.09488 0.64081 0.42206 0.0
H458 H 0.05058 0.81736 0.33931 0.0
H459 H 0.32228 0.72053 0.36528 0.0
H460 H 0.13413 0.74772 0.67084 0.0
H461 H 0.20509 0.89115 0.54734 0.0
C462 C 0.48434 0.77994 0.10265 0.0
C463 C 0.52294 0.77817 0.09547 0.0
N464 N 0.5329 0.72072 0.06313 0.0
N465 N 0.46942 0.72336 0.07728 0.0
C466 C 0.49998 0.68822 0.05158 0.0
H467 H 0.4681 0.82167 0.12051 0.0
Co468 Co 0.41638 0.71055 0.08612 0.0
C469 C 0.40057 0.59395 -0.02591 0.0
O470 O 0.37802 0.63009 0.92521 0.0
N471 N 0.36211 0.69805 0.10188 0.0
C472 C 0.29869 0.70618 0.09917 0.0
C473 C 0.33175 0.71346 0.04946 0.0
C474 C 0.34606 0.679 0.18182 0.0
N475 N 0.30814 0.68512 0.18257 0.0
O476 O 0.42405 0.69319 0.21172 0.0
H477 H 0.3332 0.73214 -0.01898 0.0
H478 H 0.36152 0.6634 0.24119 0.0
O479 O 0.41892 0.61862 0.04211 0.0
C480 C 0.418 0.75158 0.23479 0.0
O481 O 0.40472 0.792 0.17445 0.0
N482 N 0.41134 0.74409 0.97026 0.0
C483 C 0.42375 0.82549 0.82462 0.0
C484 C 0.44129 0.76549 0.8281 0.0
C485 C 0.43483 0.72551 0.90151 0.0
C486 C 0.39569 0.80387 0.96982 0.0
C487 C 0.40144 0.84543 0.89717 0.0
H488 H 0.44992 0.68078 0.90483 0.0
H489 H 0.37906 0.82036 0.02678 0.0
H490 H 0.49806 0.64154 0.02055 0.0
H491 H 0.54204 0.81823 0.10371 0.0
H492 H 0.2705 0.71989 0.07787 0.0
H493 H 0.45854 0.74828 0.77226 0.0
H494 H 0.38726 0.89121 0.89588 0.0
C495 C 0.11463 0.34838 0.44438 0.0
C496 C 0.07602 0.35451 0.44582 0.0
N497 N 0.06654 0.39308 0.51508 0.0
N498 N 0.13045 0.38529 0.50964 0.0
C499 C 0.1 0.41078 0.5531 0.0
H500 H 0.1294 0.31418 0.40326 0.0
Co501 Co 0.18312 0.39238 0.54189 0.0
C502 C 0.19898 0.5242 0.47695 0.0
O503 O 0.2295 0.50104 0.43775 0.0
N504 N 0.23622 0.40128 0.58077 0.0
C505 C 0.29955 0.39544 0.59707 0.0
C506 C 0.26932 0.38956 0.537 0.0
C507 C 0.24788 0.41558 0.66754 0.0
N508 N 0.28595 0.41083 0.6798 0.0
O509 O 0.17003 0.38765 0.66733 0.0
H510 H 0.27171 0.37587 0.46632 0.0
H511 H 0.22896 0.42939 0.7216 0.0
O512 O 0.17863 0.48782 0.52815 0.0
C513 C 0.17014 0.32643 0.67469 0.0
O514 O 0.1688 0.29202 0.60007 0.0
N515 N 0.19573 0.37956 0.41885 0.0
C516 C 0.17938 0.3117 0.2598 0.0
C517 C 0.17264 0.37773 0.26521 0.0
C518 C 0.17981 0.41048 0.34623 0.0
C519 C 0.2061 0.317 0.41096 0.0
C520 C 0.19671 0.28159 0.33356 0.0
H521 H 0.16761 0.45732 0.35334 0.0
H522 H 0.21693 0.29193 0.46978 0.0
H523 H 0.10212 0.43698 0.61638 0.0
H524 H 0.05615 0.32519 0.40811 0.0
H525 H 0.32889 0.38673 0.58119 0.0
H526 H 0.15896 0.40299 0.20981 0.0
H527 H 0.20106 0.23069 0.33375 0.0
loop_
_geom_bond_atom_site_label_1
_geom_bond_atom_site_label_2
_geom_bond_distance
_geom_bond_site_symmetry_2
_ccdc_geom_bond_type
C0 C1 1.351 . S
C0 N3 1.368 . S
C0 H5 0.931 . S
C1 C0 1.351 . S
C1 N2 1.373 . S
C1 H29 0.930 . S
N2 C1 1.373 . S
N2 C4 1.340 . S
N3 C0 1.368 . S
N3 C4 1.321 . S
N3 Co6 2.135 . S
C4 N2 1.340 . S
C4 N3 1.321 . S
C4 H28 0.930 . S
H5 C0 0.931 . S
Co6 N3 2.135 . S
Co6 N9 2.121 . S
Co6 O14 2.055 . S
Co6 O17 2.039 . S
Co6 N20 2.140 . S
C7 O8 1.227 1_554 S
C7 O17 1.265 . S
O8 C7 1.227 1_556 S
N9 Co6 2.121 . S
N9 C11 1.375 . S
N9 C12 1.313 . S
C10 C11 1.338 . S
C10 N13 1.377 . S
C10 H30 0.930 . S
C11 N9 1.375 . S
C11 C10 1.338 . S
C11 H15 0.931 . S
C12 N9 1.313 . S
C12 N13 1.344 . S
C12 H16 0.930 . S
N13 C10 1.377 . S
N13 C12 1.344 . S
O14 Co6 2.055 . S
O14 C18 1.253 . S
H15 C11 0.931 . S
H16 C12 0.930 . S
O17 Co6 2.039 . S
O17 C7 1.265 . S
C18 O14 1.253 . S
C18 O19 1.227 . S
O19 C18 1.227 . S
N20 Co6 2.140 . S
N20 C23 1.346 1_554 S
N20 C24 1.346 . S
C21 C22 1.387 . S
C21 C25 1.391 . S
C22 C21 1.387 . S
C22 C23 1.369 . S
C22 H31 0.929 . S
C23 N20 1.346 1_556 S
C23 C22 1.369 . S
C23 H26 0.928 . S
C24 N20 1.346 . S
C24 C25 1.363 1_554 S
C24 H27 0.939 . S
C25 C21 1.391 . S
C25 C24 1.363 1_556 S
C25 H32 0.930 . S
H26 C23 0.928 . S
H27 C24 0.939 . S
H28 C4 0.930 . S
H29 C1 0.930 . S
H30 C10 0.930 . S
H31 C22 0.929 . S
H32 C25 0.930 . S
C33 C34 1.351 . S
C33 N36 1.368 . S
C33 H38 0.931 . S
C34 C33 1.351 . S
C34 N35 1.373 . S
C34 H62 0.930 . S
N35 C34 1.373 . S
N35 C37 1.340 . S
N36 C33 1.368 . S
N36 C37 1.321 . S
N36 Co39 2.135 . S
C37 N35 1.340 . S
C37 N36 1.321 . S
C37 H61 0.930 . S
H38 C33 0.931 . S
Co39 N36 2.135 . S
Co39 N42 2.121 . S
Co39 O47 2.055 . S
Co39 O50 2.039 . S
Co39 N53 2.140 . S
C40 O41 1.227 . S
C40 O50 1.265 . S
O41 C40 1.227 . S
N42 Co39 2.121 . S
N42 C44 1.375 . S
N42 C45 1.313 . S
C43 C44 1.338 . S
C43 N46 1.377 . S
C43 H63 0.930 . S
C44 N42 1.375 . S
C44 C43 1.338 . S
C44 H48 0.931 . S
C45 N42 1.313 . S
C45 N46 1.344 . S
C45 H49 0.930 . S
N46 C43 1.377 . S
N46 C45 1.344 . S
O47 Co39 2.055 . S
O47 C51 1.253 . S
H48 C44 0.931 . S
H49 C45 0.930 . S
O50 Co39 2.039 . S
O50 C40 1.265 . S
C51 O47 1.253 . S
C51 O52 1.227 . S
O52 C51 1.227 . S
N53 Co39 2.140 . S
N53 C56 1.346 . S
N53 C57 1.345 . S
C54 C55 1.387 . S
C54 C58 1.391 . S
C55 C54 1.387 . S
C55 C56 1.369 . S
C55 H64 0.929 . S
C56 N53 1.346 . S
C56 C55 1.369 . S
C56 H59 0.928 . S
C57 N53 1.345 . S
C57 C58 1.371 . S
C57 H60 0.931 . S
C58 C54 1.391 . S
C58 C57 1.371 . S
C58 H65 0.930 . S
H59 C56 0.928 . S
H60 C57 0.931 . S
H61 C37 0.930 . S
H62 C34 0.930 . S
H63 C43 0.930 . S
H64 C55 0.929 . S
H65 C58 0.930 . S
C66 C67 1.351 . S
C66 N69 1.368 . S
C66 H71 0.931 . S
C67 C66 1.351 . S
C67 N68 1.373 . S
C67 H95 0.930 . S
N68 C67 1.373 . S
N68 C70 1.340 . S
N69 C66 1.368 . S
N69 C70 1.321 . S
N69 Co72 2.135 . S
C70 N68 1.340 . S
C70 N69 1.321 . S
C70 H94 0.930 . S
H71 C66 0.931 . S
Co72 N69 2.135 . S
Co72 N75 2.121 . S
Co72 O80 2.055 . S
Co72 O83 2.039 . S
Co72 N86 2.140 . S
C73 O74 1.227 1_556 S
C73 O83 1.265 . S
O74 C73 1.227 1_554 S
N75 Co72 2.121 . S
N75 C77 1.375 . S
N75 C78 1.313 . S
C76 C77 1.338 . S
C76 N79 1.377 . S
C76 H96 0.930 . S
C77 N75 1.375 . S
C77 C76 1.338 . S
C77 H81 0.931 . S
C78 N75 1.313 . S
C78 N79 1.344 . S
C78 H82 0.930 . S
N79 C76 1.377 . S
N79 C78 1.344 . S
O80 Co72 2.055 . S
O80 C84 1.253 . S
H81 C77 0.931 . S
H82 C78 0.930 . S
O83 Co72 2.039 . S
O83 C73 1.265 . S
C84 O80 1.253 . S
C84 O85 1.227 . S
O85 C84 1.227 . S
N86 Co72 2.140 . S
N86 C89 1.346 1_556 S
N86 C90 1.346 . S
C87 C88 1.387 . S
C87 C91 1.391 . S
C88 C87 1.387 . S
C88 C89 1.369 . S
C88 H97 0.929 . S
C89 N86 1.346 1_554 S
C89 C88 1.369 . S
C89 H92 0.928 . S
C90 N86 1.346 . S
C90 C91 1.363 1_556 S
C90 H93 0.939 . S
C91 C87 1.391 . S
C91 C90 1.363 1_554 S
C91 H98 0.930 . S
H92 C89 0.928 . S
H93 C90 0.939 . S
H94 C70 0.930 . S
H95 C67 0.930 . S
H96 C76 0.930 . S
H97 C88 0.929 . S
H98 C91 0.930 . S
C99 C100 1.351 . S
C99 N102 1.368 . S
C99 H104 0.931 . S
C100 C99 1.351 . S
C100 N101 1.373 . S
C100 H128 0.930 . S
N101 C100 1.373 . S
N101 C103 1.340 . S
N102 C99 1.368 . S
N102 C103 1.321 . S
N102 Co105 2.135 . S
C103 N101 1.340 . S
C103 N102 1.321 . S
C103 H127 0.930 . S
H104 C99 0.931 . S
Co105 N102 2.135 . S
Co105 N108 2.121 . S
Co105 O113 2.055 . S
Co105 O116 2.039 . S
Co105 N119 2.140 . S
C106 O107 1.227 . S
C106 O116 1.265 . S
O107 C106 1.227 . S
N108 Co105 2.121 . S
N108 C110 1.375 . S
N108 C111 1.313 . S
C109 C110 1.338 . S
C109 N112 1.377 . S
C109 H129 0.930 . S
C110 N108 1.375 . S
C110 C109 1.338 . S
C110 H114 0.931 . S
C111 N108 1.313 . S
C111 N112 1.344 . S
C111 H115 0.930 . S
N112 C109 1.377 . S
N112 C111 1.344 . S
O113 Co105 2.055 . S
O113 C117 1.253 . S
H114 C110 0.931 . S
H115 C111 0.930 . S
O116 Co105 2.039 . S
O116 C106 1.265 . S
C117 O113 1.253 . S
C117 O118 1.227 . S
O118 C117 1.227 . S
N119 Co105 2.140 . S
N119 C122 1.346 . S
N119 C123 1.345 . S
C120 C121 1.387 . S
C120 C124 1.391 . S
C121 C120 1.387 . S
C121 C122 1.369 . S
C121 H130 0.929 . S
C122 N119 1.346 . S
C122 C121 1.369 . S
C122 H125 0.928 . S
C123 N119 1.345 . S
C123 C124 1.371 . S
C123 H126 0.931 . S
C124 C120 1.391 . S
C124 C123 1.371 . S
C124 H131 0.930 . S
H125 C122 0.928 . S
H126 C123 0.931 . S
H127 C103 0.930 . S
H128 C100 0.930 . S
H129 C109 0.930 . S
H130 C121 0.929 . S
H131 C124 0.930 . S
C132 C133 1.351 . S
C132 N135 1.368 . S
C132 H137 0.931 . S
C133 C132 1.351 . S
C133 N134 1.373 . S
C133 H161 0.930 . S
N134 C133 1.373 . S
N134 C136 1.340 . S
N135 C132 1.368 . S
N135 C136 1.321 . S
N135 Co138 2.135 . S
C136 N134 1.340 . S
C136 N135 1.321 . S
C136 H160 0.930 . S
H137 C132 0.931 . S
Co138 N135 2.135 . S
Co138 N141 2.121 . S
Co138 O146 2.055 . S
Co138 O149 2.039 . S
Co138 N152 2.140 . S
C139 O140 1.227 1_556 S
C139 O149 1.265 . S
O140 C139 1.227 1_554 S
N141 Co138 2.121 . S
N141 C143 1.375 . S
N141 C144 1.313 . S
C142 C143 1.338 . S
C142 N145 1.377 . S
C142 H162 0.930 . S
C143 N141 1.375 . S
C143 C142 1.338 . S
C143 H147 0.931 . S
C144 N141 1.313 . S
C144 N145 1.344 . S
C144 H148 0.930 . S
N145 C142 1.377 . S
N145 C144 1.344 . S
O146 Co138 2.055 . S
O146 C150 1.253 . S
H147 C143 0.931 . S
H148 C144 0.930 . S
O149 Co138 2.039 . S
O149 C139 1.265 . S
C150 O146 1.253 . S
C150 O151 1.227 . S
O151 C150 1.227 . S
N152 Co138 2.140 . S
N152 C155 1.346 1_556 S
N152 C156 1.346 . S
C153 C154 1.387 . S
C153 C157 1.391 . S
C154 C153 1.387 . S
C154 C155 1.369 . S
C154 H163 0.929 . S
C155 N152 1.346 1_554 S
C155 C154 1.369 . S
C155 H158 0.928 . S
C156 N152 1.346 . S
C156 C157 1.363 1_556 S
C156 H159 0.939 . S
C157 C153 1.391 . S
C157 C156 1.363 1_554 S
C157 H164 0.930 . S
H158 C155 0.928 . S
H159 C156 0.939 . S
H160 C136 0.930 . S
H161 C133 0.930 . S
H162 C142 0.930 . S
H163 C154 0.929 . S
H164 C157 0.930 . S
C165 C166 1.351 . S
C165 N168 1.368 . S
C165 H170 0.931 . S
C166 C165 1.351 . S
C166 N167 1.373 . S
C166 H194 0.930 . S
N167 C166 1.373 . S
N167 C169 1.340 . S
N168 C165 1.368 . S
N168 C169 1.321 . S
N168 Co171 2.135 . S
C169 N167 1.340 . S
C169 N168 1.321 . S
C169 H193 0.930 . S
H170 C165 0.931 . S
Co171 N168 2.135 . S
Co171 N174 2.121 . S
Co171 O179 2.055 . S
Co171 O182 2.039 . S
Co171 N185 2.140 . S
C172 O173 1.227 . S
C172 O182 1.265 . S
O173 C172 1.227 . S
N174 Co171 2.121 . S
N174 C176 1.375 . S
N174 C177 1.313 . S
C175 C176 1.338 . S
C175 N178 1.377 . S
C175 H195 0.930 . S
C176 N174 1.375 . S
C176 C175 1.338 . S
C176 H180 0.931 . S
C177 N174 1.313 . S
C177 N178 1.344 . S
C177 H181 0.930 . S
N178 C175 1.377 . S
N178 C177 1.344 . S
O179 Co171 2.055 . S
O179 C183 1.253 . S
H180 C176 0.931 . S
H181 C177 0.930 . S
O182 Co171 2.039 . S
O182 C172 1.265 . S
C183 O179 1.253 . S
C183 O184 1.227 . S
O184 C183 1.227 . S
N185 Co171 2.140 . S
N185 C188 1.346 . S
N185 C189 1.345 . S
C186 C187 1.387 . S
C186 C190 1.391 . S
C187 C186 1.387 . S
C187 C188 1.369 . S
C187 H196 0.929 . S
C188 N185 1.346 . S
C188 C187 1.369 . S
C188 H191 0.928 . S
C189 N185 1.345 . S
C189 C190 1.371 . S
C189 H192 0.931 . S
C190 C186 1.391 . S
C190 C189 1.371 . S
C190 H197 0.930 . S
H191 C188 0.928 . S
H192 C189 0.931 . S
H193 C169 0.930 . S
H194 C166 0.930 . S
H195 C175 0.930 . S
H196 C187 0.929 . S
H197 C190 0.930 . S
C198 C199 1.351 . S
C198 N201 1.368 . S
C198 H203 0.931 . S
C199 C198 1.351 . S
C199 N200 1.373 . S
C199 H227 0.930 . S
N200 C199 1.373 . S
N200 C202 1.340 . S
N201 C198 1.368 . S
N201 C202 1.321 . S
N201 Co204 2.135 . S
C202 N200 1.340 . S
C202 N201 1.321 . S
C202 H226 0.930 . S
H203 C198 0.931 . S
Co204 N201 2.135 . S
Co204 N207 2.121 . S
Co204 O212 2.055 . S
Co204 O215 2.039 . S
Co204 N218 2.140 . S
C205 O206 1.227 1_554 S
C205 O215 1.265 . S
O206 C205 1.227 1_556 S
N207 Co204 2.121 . S
N207 C209 1.375 . S
N207 C210 1.313 . S
C208 C209 1.338 . S
C208 N211 1.377 . S
C208 H228 0.930 . S
C209 N207 1.375 . S
C209 C208 1.338 . S
C209 H213 0.931 . S
C210 N207 1.313 . S
C210 N211 1.344 . S
C210 H214 0.930 . S
N211 C208 1.377 . S
N211 C210 1.344 . S
O212 Co204 2.055 . S
O212 C216 1.253 . S
H213 C209 0.931 . S
H214 C210 0.930 . S
O215 Co204 2.039 . S
O215 C205 1.265 . S
C216 O212 1.253 . S
C216 O217 1.227 . S
O217 C216 1.227 . S
N218 Co204 2.140 . S
N218 C221 1.346 1_554 S
N218 C222 1.346 . S
C219 C220 1.387 . S
C219 C223 1.391 . S
C220 C219 1.387 . S
C220 C221 1.369 . S
C220 H229 0.929 . S
C221 N218 1.346 1_556 S
C221 C220 1.369 . S
C221 H224 0.928 . S
C222 N218 1.346 . S
C222 C223 1.363 1_554 S
C222 H225 0.939 . S
C223 C219 1.391 . S
C223 C222 1.363 1_556 S
C223 H230 0.930 . S
H224 C221 0.928 . S
H225 C222 0.939 . S
H226 C202 0.930 . S
H227 C199 0.930 . S
H228 C208 0.930 . S
H229 C220 0.929 . S
H230 C223 0.930 . S
C231 C232 1.351 . S
C231 N234 1.368 . S
C231 H236 0.931 . S
C232 C231 1.351 . S
C232 N233 1.373 . S
C232 H260 0.930 . S
N233 C232 1.373 . S
N233 C235 1.340 . S
N234 C231 1.368 . S
N234 C235 1.321 . S
N234 Co237 2.135 . S
C235 N233 1.340 . S
C235 N234 1.321 . S
C235 H259 0.930 . S
H236 C231 0.931 . S
Co237 N234 2.135 . S
Co237 N240 2.121 . S
Co237 O245 2.055 . S
Co237 O248 2.039 . S
Co237 N251 2.140 . S
C238 O239 1.227 . S
C238 O248 1.265 . S
O239 C238 1.227 . S
N240 Co237 2.121 . S
N240 C242 1.375 . S
N240 C243 1.313 . S
C241 C242 1.338 . S
C241 N244 1.377 . S
C241 H261 0.930 . S
C242 N240 1.375 . S
C242 C241 1.338 . S
C242 H246 0.931 . S
C243 N240 1.313 . S
C243 N244 1.344 . S
C243 H247 0.930 . S
N244 C241 1.377 . S
N244 C243 1.344 . S
O245 Co237 2.055 . S
O245 C249 1.253 . S
H246 C242 0.931 . S
H247 C243 0.930 . S
O248 Co237 2.039 . S
O248 C238 1.265 . S
C249 O245 1.253 . S
C249 O250 1.227 . S
O250 C249 1.227 . S
N251 Co237 2.140 . S
N251 C254 1.346 . S
N251 C255 1.345 . S
C252 C253 1.387 . S
C252 C256 1.391 . S
C253 C252 1.387 . S
C253 C254 1.369 . S
C253 H262 0.929 . S
C254 N251 1.346 . S
C254 C253 1.369 . S
C254 H257 0.928 . S
C255 N251 1.345 . S
C255 C256 1.371 . S
C255 H258 0.931 . S
C256 C252 1.391 . S
C256 C255 1.371 . S
C256 H263 0.930 . S
H257 C254 0.928 . S
H258 C255 0.931 . S
H259 C235 0.930 . S
H260 C232 0.930 . S
H261 C241 0.930 . S
H262 C253 0.929 . S
H263 C256 0.930 . S
C264 C265 1.351 . S
C264 N267 1.368 . S
C264 H269 0.931 . S
C265 C264 1.351 . S
C265 N266 1.373 . S
C265 H293 0.930 . S
N266 C265 1.373 . S
N266 C268 1.340 . S
N267 C264 1.368 . S
N267 C268 1.321 . S
N267 Co270 2.135 . S
C268 N266 1.340 . S
C268 N267 1.321 . S
C268 H292 0.930 . S
H269 C264 0.931 . S
Co270 N267 2.135 . S
Co270 N273 2.121 . S
Co270 O278 2.055 . S
Co270 O281 2.039 . S
Co270 N284 2.140 . S
C271 O272 1.227 1_554 S
C271 O281 1.265 . S
O272 C271 1.227 1_556 S
N273 Co270 2.121 . S
N273 C275 1.375 . S
N273 C276 1.313 . S
C274 C275 1.338 . S
C274 N277 1.377 . S
C274 H294 0.930 . S
C275 N273 1.375 . S
C275 C274 1.338 . S
C275 H279 0.931 . S
C276 N273 1.313 . S
C276 N277 1.344 . S
C276 H280 0.930 . S
N277 C274 1.377 . S
N277 C276 1.344 . S
O278 Co270 2.055 . S
O278 C282 1.253 . S
H279 C275 0.931 . S
H280 C276 0.930 . S
O281 Co270 2.039 . S
O281 C271 1.265 . S
C282 O278 1.253 . S
C282 O283 1.227 . S
O283 C282 1.227 . S
N284 Co270 2.140 . S
N284 C287 1.346 1_554 S
N284 C288 1.346 . S
C285 C286 1.387 . S
C285 C289 1.391 . S
C286 C285 1.387 . S
C286 C287 1.369 . S
C286 H295 0.929 . S
C287 N284 1.346 1_556 S
C287 C286 1.369 . S
C287 H290 0.928 . S
C288 N284 1.346 . S
C288 C289 1.363 1_554 S
C288 H291 0.939 . S
C289 C285 1.391 . S
C289 C288 1.363 1_556 S
C289 H296 0.930 . S
H290 C287 0.928 . S
H291 C288 0.939 . S
H292 C268 0.930 . S
H293 C265 0.930 . S
H294 C274 0.930 . S
H295 C286 0.929 . S
H296 C289 0.930 . S
C297 C298 1.351 . S
C297 N300 1.368 . S
C297 H302 0.931 . S
C298 C297 1.351 . S
C298 N299 1.373 . S
C298 H326 0.930 . S
N299 C298 1.373 . S
N299 C301 1.340 . S
N300 C297 1.368 . S
N300 C301 1.321 . S
N300 Co303 2.135 . S
C301 N299 1.340 . S
C301 N300 1.321 . S
C301 H325 0.930 . S
H302 C297 0.931 . S
Co303 N300 2.135 . S
Co303 N306 2.121 . S
Co303 O311 2.055 . S
Co303 O314 2.039 . S
Co303 N317 2.140 . S
C304 O305 1.227 . S
C304 O314 1.265 . S
O305 C304 1.227 . S
N306 Co303 2.121 . S
N306 C308 1.375 . S
N306 C309 1.313 . S
C307 C308 1.338 . S
C307 N310 1.377 . S
C307 H327 0.930 . S
C308 N306 1.375 . S
C308 C307 1.338 . S
C308 H312 0.931 . S
C309 N306 1.313 . S
C309 N310 1.344 . S
C309 H313 0.930 . S
N310 C307 1.377 . S
N310 C309 1.344 . S
O311 Co303 2.055 . S
O311 C315 1.253 . S
H312 C308 0.931 . S
H313 C309 0.930 . S
O314 Co303 2.039 . S
O314 C304 1.265 . S
C315 O311 1.253 . S
C315 O316 1.227 . S
O316 C315 1.227 . S
N317 Co303 2.140 . S
N317 C320 1.346 . S
N317 C321 1.345 . S
C318 C319 1.387 . S
C318 C322 1.391 . S
C319 C318 1.387 . S
C319 C320 1.369 . S
C319 H328 0.929 . S
C320 N317 1.346 . S
C320 C319 1.369 . S
C320 H323 0.928 . S
C321 N317 1.345 . S
C321 C322 1.371 . S
C321 H324 0.931 . S
C322 C318 1.391 . S
C322 C321 1.371 . S
C322 H329 0.930 . S
H323 C320 0.928 . S
H324 C321 0.931 . S
H325 C301 0.930 . S
H326 C298 0.930 . S
H327 C307 0.930 . S
H328 C319 0.929 . S
H329 C322 0.930 . S
C330 C331 1.351 . S
C330 N333 1.368 . S
C330 H335 0.931 . S
C331 C330 1.351 . S
C331 N332 1.373 . S
C331 H359 0.930 . S
N332 C331 1.373 . S
N332 C334 1.340 . S
N333 C330 1.368 . S
N333 C334 1.321 . S
N333 Co336 2.135 . S
C334 N332 1.340 . S
C334 N333 1.321 . S
C334 H358 0.930 . S
H335 C330 0.931 . S
Co336 N333 2.135 . S
Co336 N339 2.121 . S
Co336 O344 2.055 . S
Co336 O347 2.039 . S
Co336 N350 2.140 . S
C337 O338 1.227 1_556 S
C337 O347 1.265 . S
O338 C337 1.227 1_554 S
N339 Co336 2.121 . S
N339 C341 1.375 . S
N339 C342 1.313 . S
C340 C341 1.338 . S
C340 N343 1.377 . S
C340 H360 0.930 . S
C341 N339 1.375 . S
C341 C340 1.338 . S
C341 H345 0.931 . S
C342 N339 1.313 . S
C342 N343 1.344 . S
C342 H346 0.930 . S
N343 C340 1.377 . S
N343 C342 1.344 . S
O344 Co336 2.055 . S
O344 C348 1.253 . S
H345 C341 0.931 . S
H346 C342 0.930 . S
O347 Co336 2.039 . S
O347 C337 1.265 . S
C348 O344 1.253 . S
C348 O349 1.227 . S
O349 C348 1.227 . S
N350 Co336 2.140 . S
N350 C353 1.346 1_556 S
N350 C354 1.346 . S
C351 C352 1.387 . S
C351 C355 1.391 . S
C352 C351 1.387 . S
C352 C353 1.369 . S
C352 H361 0.929 . S
C353 N350 1.346 1_554 S
C353 C352 1.369 . S
C353 H356 0.928 . S
C354 N350 1.346 . S
C354 C355 1.363 1_556 S
C354 H357 0.939 . S
C355 C351 1.391 . S
C355 C354 1.363 1_554 S
C355 H362 0.930 . S
H356 C353 0.928 . S
H357 C354 0.939 . S
H358 C334 0.930 . S
H359 C331 0.930 . S
H360 C340 0.930 . S
H361 C352 0.929 . S
H362 C355 0.930 . S
C363 C364 1.351 . S
C363 N366 1.368 . S
C363 H368 0.931 . S
C364 C363 1.351 . S
C364 N365 1.373 . S
C364 H392 0.930 . S
N365 C364 1.373 . S
N365 C367 1.340 . S
N366 C363 1.368 . S
N366 C367 1.321 . S
N366 Co369 2.135 . S
C367 N365 1.340 . S
C367 N366 1.321 . S
C367 H391 0.930 . S
H368 C363 0.931 . S
Co369 N366 2.135 . S
Co369 N372 2.121 . S
Co369 O377 2.055 . S
Co369 O380 2.039 . S
Co369 N383 2.140 . S
C370 O371 1.227 . S
C370 O380 1.265 . S
O371 C370 1.227 . S
N372 Co369 2.121 . S
N372 C374 1.375 . S
N372 C375 1.313 . S
C373 C374 1.338 . S
C373 N376 1.377 . S
C373 H393 0.930 . S
C374 N372 1.375 . S
C374 C373 1.338 . S
C374 H378 0.931 . S
C375 N372 1.313 . S
C375 N376 1.344 . S
C375 H379 0.930 . S
N376 C373 1.377 . S
N376 C375 1.344 . S
O377 Co369 2.055 . S
O377 C381 1.253 . S
H378 C374 0.931 . S
H379 C375 0.930 . S
O380 Co369 2.039 . S
O380 C370 1.265 . S
C381 O377 1.253 . S
C381 O382 1.227 . S
O382 C381 1.227 . S
N383 Co369 2.140 . S
N383 C386 1.346 . S
N383 C387 1.345 . S
C384 C385 1.387 . S
C384 C388 1.391 . S
C385 C384 1.387 . S
C385 C386 1.369 . S
C385 H394 0.929 . S
C386 N383 1.346 . S
C386 C385 1.369 . S
C386 H389 0.928 . S
C387 N383 1.345 . S
C387 C388 1.371 . S
C387 H390 0.931 . S
C388 C384 1.391 . S
C388 C387 1.371 . S
C388 H395 0.930 . S
H389 C386 0.928 . S
H390 C387 0.931 . S
H391 C367 0.930 . S
H392 C364 0.930 . S
H393 C373 0.930 . S
H394 C385 0.929 . S
H395 C388 0.930 . S
C396 C397 1.351 . S
C396 N399 1.368 . S
C396 H401 0.931 . S
C397 C396 1.351 . S
C397 N398 1.373 . S
C397 H425 0.930 . S
N398 C397 1.373 . S
N398 C400 1.340 . S
N399 C396 1.368 . S
N399 C400 1.321 . S
N399 Co402 2.135 . S
C400 N398 1.340 . S
C400 N399 1.321 . S
C400 H424 0.930 . S
H401 C396 0.931 . S
Co402 N399 2.135 . S
Co402 N405 2.121 . S
Co402 O410 2.055 . S
Co402 O413 2.039 . S
Co402 N416 2.140 . S
C403 O404 1.227 1_556 S
C403 O413 1.265 . S
O404 C403 1.227 1_554 S
N405 Co402 2.121 . S
N405 C407 1.375 . S
N405 C408 1.313 . S
C406 C407 1.338 . S
C406 N409 1.377 . S
C406 H426 0.930 . S
C407 N405 1.375 . S
C407 C406 1.338 . S
C407 H411 0.931 . S
C408 N405 1.313 . S
C408 N409 1.344 . S
C408 H412 0.930 . S
N409 C406 1.377 . S
N409 C408 1.344 . S
O410 Co402 2.055 . S
O410 C414 1.253 . S
H411 C407 0.931 . S
H412 C408 0.930 . S
O413 Co402 2.039 . S
O413 C403 1.265 . S
C414 O410 1.253 . S
C414 O415 1.227 . S
O415 C414 1.227 . S
N416 Co402 2.140 . S
N416 C419 1.346 1_556 S
N416 C420 1.346 . S
C417 C418 1.387 . S
C417 C421 1.391 . S
C418 C417 1.387 . S
C418 C419 1.369 . S
C418 H427 0.929 . S
C419 N416 1.346 1_554 S
C419 C418 1.369 . S
C419 H422 0.928 . S
C420 N416 1.346 . S
C420 C421 1.363 1_556 S
C420 H423 0.939 . S
C421 C417 1.391 . S
C421 C420 1.363 1_554 S
C421 H428 0.930 . S
H422 C419 0.928 . S
H423 C420 0.939 . S
H424 C400 0.930 . S
H425 C397 0.930 . S
H426 C406 0.930 . S
H427 C418 0.929 . S
H428 C421 0.930 . S
C429 C430 1.351 . S
C429 N432 1.368 . S
C429 H434 0.931 . S
C430 C429 1.351 . S
C430 N431 1.373 . S
C430 H458 0.930 . S
N431 C430 1.373 . S
N431 C433 1.340 . S
N432 C429 1.368 . S
N432 C433 1.321 . S
N432 Co435 2.135 . S
C433 N431 1.340 . S
C433 N432 1.321 . S
C433 H457 0.930 . S
H434 C429 0.931 . S
Co435 N432 2.135 . S
Co435 N438 2.121 . S
Co435 O443 2.055 . S
Co435 O446 2.039 . S
Co435 N449 2.140 . S
C436 O437 1.227 . S
C436 O446 1.265 . S
O437 C436 1.227 . S
N438 Co435 2.121 . S
N438 C440 1.375 . S
N438 C441 1.313 . S
C439 C440 1.338 . S
C439 N442 1.377 . S
C439 H459 0.930 . S
C440 N438 1.375 . S
C440 C439 1.338 . S
C440 H444 0.931 . S
C441 N438 1.313 . S
C441 N442 1.344 . S
C441 H445 0.930 . S
N442 C439 1.377 . S
N442 C441 1.344 . S
O443 Co435 2.055 . S
O443 C447 1.253 . S
H444 C440 0.931 . S
H445 C441 0.930 . S
O446 Co435 2.039 . S
O446 C436 1.265 . S
C447 O443 1.253 . S
C447 O448 1.227 . S
O448 C447 1.227 . S
N449 Co435 2.140 . S
N449 C452 1.346 . S
N449 C453 1.345 . S
C450 C451 1.387 . S
C450 C454 1.391 . S
C451 C450 1.387 . S
C451 C452 1.369 . S
C451 H460 0.929 . S
C452 N449 1.346 . S
C452 C451 1.369 . S
C452 H455 0.928 . S
C453 N449 1.345 . S
C453 C454 1.371 . S
C453 H456 0.931 . S
C454 C450 1.391 . S
C454 C453 1.371 . S
C454 H461 0.930 . S
H455 C452 0.928 . S
H456 C453 0.931 . S
H457 C433 0.930 . S
H458 C430 0.930 . S
H459 C439 0.930 . S
H460 C451 0.929 . S
H461 C454 0.930 . S
C462 C463 1.351 . S
C462 N465 1.368 . S
C462 H467 0.931 . S
C463 C462 1.351 . S
C463 N464 1.373 . S
C463 H491 0.930 . S
N464 C463 1.373 . S
N464 C466 1.340 . S
N465 C462 1.368 . S
N465 C466 1.321 . S
N465 Co468 2.135 . S
C466 N464 1.340 . S
C466 N465 1.321 . S
C466 H490 0.930 . S
H467 C462 0.931 . S
Co468 N465 2.135 . S
Co468 N471 2.121 . S
Co468 O476 2.055 . S
Co468 O479 2.039 . S
Co468 N482 2.140 . S
C469 O470 1.227 1_554 S
C469 O479 1.265 . S
O470 C469 1.227 1_556 S
N471 Co468 2.121 . S
N471 C473 1.375 . S
N471 C474 1.313 . S
C472 C473 1.338 . S
C472 N475 1.377 . S
C472 H492 0.930 . S
C473 N471 1.375 . S
C473 C472 1.338 . S
C473 H477 0.931 . S
C474 N471 1.313 . S
C474 N475 1.344 . S
C474 H478 0.930 . S
N475 C472 1.377 . S
N475 C474 1.344 . S
O476 Co468 2.055 . S
O476 C480 1.253 . S
H477 C473 0.931 . S
H478 C474 0.930 . S
O479 Co468 2.039 . S
O479 C469 1.265 . S
C480 O476 1.253 . S
C480 O481 1.227 . S
O481 C480 1.227 . S
N482 Co468 2.140 . S
N482 C485 1.346 1_554 S
N482 C486 1.346 . S
C483 C484 1.387 . S
C483 C487 1.391 . S
C484 C483 1.387 . S
C484 C485 1.369 . S
C484 H493 0.929 . S
C485 N482 1.346 1_556 S
C485 C484 1.369 . S
C485 H488 0.928 . S
C486 N482 1.346 . S
C486 C487 1.363 1_554 S
C486 H489 0.939 . S
C487 C483 1.391 . S
C487 C486 1.363 1_556 S
C487 H494 0.930 . S
H488 C485 0.928 . S
H489 C486 0.939 . S
H490 C466 0.930 . S
H491 C463 0.930 . S
H492 C472 0.930 . S
H493 C484 0.929 . S
H494 C487 0.930 . S
C495 C496 1.351 . S
C495 N498 1.368 . S
C495 H500 0.931 . S
C496 C495 1.351 . S
C496 N497 1.373 . S
C496 H524 0.930 . S
N497 C496 1.373 . S
N497 C499 1.340 . S
N498 C495 1.368 . S
N498 C499 1.321 . S
N498 Co501 2.135 . S
C499 N497 1.340 . S
C499 N498 1.321 . S
C499 H523 0.930 . S
H500 C495 0.931 . S
Co501 N498 2.135 . S
Co501 N504 2.121 . S
Co501 O509 2.055 . S
Co501 O512 2.039 . S
Co501 N515 2.140 . S
C502 O503 1.227 . S
C502 O512 1.265 . S
O503 C502 1.227 . S
N504 Co501 2.121 . S
N504 C506 1.375 . S
N504 C507 1.313 . S
C505 C506 1.338 . S
C505 N508 1.377 . S
C505 H525 0.930 . S
C506 N504 1.375 . S
C506 C505 1.338 . S
C506 H510 0.931 . S
C507 N504 1.313 . S
C507 N508 1.344 . S
C507 H511 0.930 . S
N508 C505 1.377 . S
N508 C507 1.344 . S
O509 Co501 2.055 . S
O509 C513 1.253 . S
H510 C506 0.931 . S
H511 C507 0.930 . S
O512 Co501 2.039 . S
O512 C502 1.265 . S
C513 O509 1.253 . S
C513 O514 1.227 . S
O514 C513 1.227 . S
N515 Co501 2.140 . S
N515 C518 1.346 . S
N515 C519 1.345 . S
C516 C517 1.387 . S
C516 C520 1.391 . S
C517 C516 1.387 . S
C517 C518 1.369 . S
C517 H526 0.929 . S
C518 N515 1.346 . S
C518 C517 1.369 . S
C518 H521 0.928 . S
C519 N515 1.345 . S
C519 C520 1.371 . S
C519 H522 0.931 . S
C520 C516 1.391 . S
C520 C519 1.371 . S
C520 H527 0.930 . S
H521 C518 0.928 . S
H522 C519 0.931 . S
H523 C499 0.930 . S
H524 C496 0.930 . S
H525 C505 0.930 . S
H526 C517 0.929 . S
H527 C520 0.930 . S
N13 N112 2.264 . S
N79 N46 2.264 . S
N244 N145 2.264 . S
N178 N211 2.264 . S
N277 N376 2.264 . S
N310 N343 2.264 . S
N508 N409 2.264 . S
N442 N475 2.264 . S
N200 N2 1.421 1_655 S
N233 N35 1.421 . S
N134 N68 1.422 1_655 S
N167 N101 1.422 . S
N464 N266 1.422 . S
N497 N299 1.422 1_455 S
N398 N332 1.421 . S
N365 N431 1.421 1_655 S
C7 C73 1.836 1_544 S
C40 C106 1.836 1_565 S
C139 C205 1.836 1_566 S
C172 C238 1.836 1_545 S
C271 C337 1.836 1_554 S
C304 C370 1.836 . S
C403 C469 1.836 1_556 S
C436 C502 1.836 . S
C513 C21 1.299 . S
C54 C480 1.299 . S
C87 C447 1.299 . S
C414 C120 1.299 . S
C381 C153 1.299 . S
C186 C348 1.299 . S
C219 C315 1.299 . S
C252 C282 1.299 . S
C285 C249 1.299 . S
C216 C318 1.299 . S
C183 C351 1.299 . S
C384 C150 1.299 . S
C417 C117 1.299 . S
C84 C450 1.299 . S
C51 C483 1.299 . S
C18 C516 1.299 . S
