# Generated by pormake.
# Topology snl, (6)-cn, num edge types: 1
# Building blocks:
#     Node 0, Type 0, BuildingBlock: BETDAH_clean_sbu_0, # of connection points: 6
#     Node 1, Type 0, BuildingBlock: BETDAH_clean_sbu_0, # of connection points: 6
#     Node 2, Type 0, BuildingBlock: BETDAH_clean_sbu_0, # of connection points: 6
#     Node 3, Type 0, BuildingBlock: BETDAH_clean_sbu_0, # of connection points: 6
#     Node 4, Type 0, BuildingBlock: BETDAH_clean_sbu_0, # of connection points: 6
#     Node 5, Type 0, BuildingBlock: BETDAH_clean_sbu_0, # of connection points: 6
#     Node 6, Type 0, BuildingBlock: BETDAH_clean_sbu_0, # of connection points: 6
#     Node 7, Type 0, BuildingBlock: BETDAH_clean_sbu_0, # of connection points: 6
#     Node 8, Type 0, BuildingBlock: BETDAH_clean_sbu_0, # of connection points: 6
#     Node 9, Type 0, BuildingBlock: BETDAH_clean_sbu_0, # of connection points: 6
#     Node 10, Type 0, BuildingBlock: BETDAH_clean_sbu_0, # of connection points: 6
#     Node 11, Type 0, BuildingBlock: BETDAH_clean_sbu_0, # of connection points: 6
#     Node 12, Type 0, BuildingBlock: BETDAH_clean_sbu_0, # of connection points: 6
#     Node 13, Type 0, BuildingBlock: BETDAH_clean_sbu_0, # of connection points: 6
#     Node 14, Type 0, BuildingBlock: BETDAH_clean_sbu_0, # of connection points: 6
#     Node 15, Type 0, BuildingBlock: BETDAH_clean_sbu_0, # of connection points: 6
#     Edge 16, Type (0, 0), None
#     Edge 17, Type (0, 0), None
#     Edge 18, Type (0, 0), None
#     Edge 19, Type (0, 0), None
#     Edge 20, Type (0, 0), None
#     Edge 21, Type (0, 0), None
#     Edge 22, Type (0, 0), None
#     Edge 23, Type (0, 0), None
#     Edge 24, Type (0, 0), None
#     Edge 25, Type (0, 0), None
#     Edge 26, Type (0, 0), None
#     Edge 27, Type (0, 0), None
#     Edge 28, Type (0, 0), None
#     Edge 29, Type (0, 0), None
#     Edge 30, Type (0, 0), None
#     Edge 31, Type (0, 0), None
#     Edge 32, Type (0, 0), None
#     Edge 33, Type (0, 0), None
#     Edge 34, Type (0, 0), None
#     Edge 35, Type (0, 0), None
#     Edge 36, Type (0, 0), None
#     Edge 37, Type (0, 0), None
#     Edge 38, Type (0, 0), None
#     Edge 39, Type (0, 0), None
#     Edge 40, Type (0, 0), None
#     Edge 41, Type (0, 0), None
#     Edge 42, Type (0, 0), None
#     Edge 43, Type (0, 0), None
#     Edge 44, Type (0, 0), None
#     Edge 45, Type (0, 0), None
#     Edge 46, Type (0, 0), None
#     Edge 47, Type (0, 0), None
#     Edge 48, Type (0, 0), None
#     Edge 49, Type (0, 0), None
#     Edge 50, Type (0, 0), None
#     Edge 51, Type (0, 0), None
#     Edge 52, Type (0, 0), None
#     Edge 53, Type (0, 0), None
#     Edge 54, Type (0, 0), None
#     Edge 55, Type (0, 0), None
#     Edge 56, Type (0, 0), None
#     Edge 57, Type (0, 0), None
#     Edge 58, Type (0, 0), None
#     Edge 59, Type (0, 0), None
#     Edge 60, Type (0, 0), None
#     Edge 61, Type (0, 0), None
#     Edge 62, Type (0, 0), None
#     Edge 63, Type (0, 0), None
# Relax obj value: 0.234
# Max RMSD: 0.329
# Mean RMSD: 0.305
data_MOF--net-snl--node1-BETDAH_clean_sbu_0--edge1-none
_symmetry_space_group_name_H-M    P1
_symmetry_Int_Tables_number       1
_symmetry_cell_setting            triclinic
loop_
_symmetry_equiv_pos_as_xyz
'x, y, z'
_cell_length_a     24.411647
_cell_length_b     24.163952
_cell_length_c     15.969919
_cell_angle_alpha  98.961472
_cell_angle_beta   91.744656
_cell_angle_gamma 90.432928
loop_
_atom_site_label
_atom_site_type_symbol
_atom_site_fract_x
_atom_site_fract_y
_atom_site_fract_z
_atom_type_partial_charge
Ho0 Ho 0.15743 0.64584 0.16263 0.0
Ho1 Ho 0.09969 0.60833 0.2832 0.0
C2 C 0.0219 0.64819 0.15579 0.0
C3 C 0.19686 0.66313 1.02034 0.0
C4 C 0.17581 0.65111 0.93289 0.0
C5 C 0.1297 0.61634 0.91152 0.0
C6 C 0.10986 0.60555 0.82777 0.0
C7 C 0.13685 0.62818 0.76418 0.0
C8 C 0.18218 0.66408 0.78643 0.0
C9 C 0.20078 0.67607 0.87064 0.0
C10 C 0.13548 0.73731 0.27634 0.0
C11 C 0.22421 0.63421 0.33735 0.0
C12 C 0.06346 0.57322 0.41558 0.0
C13 C 0.08286 0.58469 0.5046 0.0
C14 C 0.13898 0.58462 0.52695 0.0
C15 C 0.15655 0.59909 0.61142 0.0
C16 C 0.11829 0.61377 0.67477 0.0
C17 C 0.06227 0.61318 0.65238 0.0
C18 C 0.04494 0.59823 0.56798 0.0
C19 C 0.10633 0.52981 0.13664 0.0
O20 O 0.06578 0.63412 0.10932 0.0
O21 O 0.03142 0.6571 0.23779 0.0
O22 O 0.16966 0.70032 0.06943 0.0
O23 O 0.20844 0.61956 1.05616 0.0
O24 O 0.18419 0.72154 0.25436 0.0
O25 O 0.10345 0.69596 0.25216 0.0
O26 O 0.17443 0.63662 0.3647 0.0
O27 O 0.23025 0.63144 0.2541 0.0
O28 O 0.09607 0.54411 0.36298 0.0
O29 O 0.04293 0.61593 0.38534 0.0
O30 O 0.0627 0.5418 0.17919 0.0
O31 O 0.14529 0.55896 0.17569 0.0
H32 H 0.10906 0.59772 0.95944 0.0
H33 H 0.07408 0.57875 0.81256 0.0
H34 H 0.20264 0.68347 0.73899 0.0
H35 H 0.23393 0.70553 0.88785 0.0
H36 H 0.16935 0.57325 0.47958 0.0
H37 H 0.19997 0.5982 0.62728 0.0
H38 H 0.03183 0.62389 0.70002 0.0
H39 H 0.00187 0.59551 0.55233 0.0
Ho40 Ho 0.66528 0.87341 0.48359 0.0
Ho41 Ho 0.6085 0.91287 0.35817 0.0
C42 C 0.52992 0.87238 0.47781 0.0
C43 C 0.70286 0.85658 0.63068 0.0
C44 C 0.67944 0.86632 0.71532 0.0
C45 C 0.7132 0.88609 0.78626 0.0
C46 C 0.69133 0.89597 0.86687 0.0
C47 C 0.63516 0.88726 0.87724 0.0
C48 C 0.60103 0.86866 0.80623 0.0
C49 C 0.62309 0.85791 0.72574 0.0
C50 C 0.63996 0.78325 0.36493 0.0
C51 C 0.72927 0.88022 0.31038 0.0
C52 C 0.5723 0.94763 0.22147 0.0
C53 C 0.58287 0.92821 0.13163 0.0
C54 C 0.61572 0.88123 0.10799 0.0
C55 C 0.63227 0.86746 1.02477 0.0
C56 C 0.61282 0.89788 0.96263 0.0
C57 C 0.57451 0.94031 0.98393 0.0
C58 C 0.5611 0.95681 0.06868 0.0
C59 C 0.62321 0.99222 0.50517 0.0
O60 O 0.57411 0.88685 0.52819 0.0
O61 O 0.53926 0.86358 0.39671 0.0
O62 O 0.67873 0.81799 0.57565 0.0
O63 O 0.7145 0.90135 0.59813 0.0
O64 O 0.68876 0.79664 0.39575 0.0
O65 O 0.60938 0.82476 0.38806 0.0
O66 O 0.67927 0.88017 0.28098 0.0
O67 O 0.73692 0.88433 0.39422 0.0
O68 O 0.61457 0.96984 0.26659 0.0
O69 O 0.54587 0.91269 0.26031 0.0
O70 O 0.5781 0.98143 0.46071 0.0
O71 O 0.65906 0.96052 0.46797 0.0
H72 H 0.75631 0.89436 0.77924 0.0
H73 H 0.71805 0.91127 0.92107 0.0
H74 H 0.55759 0.86188 0.81324 0.0
H75 H 0.59606 0.84314 0.67176 0.0
H76 H 0.62907 0.85525 0.15339 0.0
H77 H 0.66039 0.83322 1.0089 0.0
H78 H 0.5567 0.96191 0.93559 0.0
H79 H 0.53334 0.99123 0.08502 0.0
Ho80 Ho 0.34068 0.38247 0.63316 0.0
Ho81 Ho 0.38221 0.4253 0.77012 0.0
C82 C 0.47079 0.38347 0.65083 0.0
C83 C 0.29945 0.36117 0.47802 0.0
C84 C 0.32203 0.37107 0.39554 0.0
C85 C 0.37104 0.4017 0.39263 0.0
C86 C 0.38969 0.41505 0.31543 0.0
C87 C 0.36025 0.3971 0.23864 0.0
C88 C 0.3135 0.36279 0.24133 0.0
C89 C 0.29444 0.35038 0.31866 0.0
C90 C 0.37073 0.29538 0.71865 0.0
C91 C 0.26314 0.39984 0.8012 0.0
C92 C 0.41346 0.47493 0.91937 0.0
C93 C 0.40121 0.45674 1.00288 0.0
C94 C 0.34664 0.45196 1.02728 0.0
C95 C 0.33417 0.43248 0.10263 0.0
C96 C 0.37551 0.4167 0.15708 0.0
C97 C 0.43041 0.42185 0.13359 0.0
C98 C 0.44296 0.44126 1.05724 0.0
C99 C 0.39152 0.49248 0.61095 0.0
O100 O 0.43038 0.39094 0.59783 0.0
O101 O 0.45923 0.3842 0.72973 0.0
O102 O 0.32447 0.32448 0.51614 0.0
O103 O 0.28783 0.40544 0.53173 0.0
O104 O 0.38354 0.30088 0.64244 0.0
O105 O 0.34553 0.33917 0.74796 0.0
O106 O 0.31058 0.40409 0.83941 0.0
O107 O 0.26205 0.39355 0.71622 0.0
O108 O 0.37153 0.49114 0.87687 0.0
O109 O 0.44619 0.44326 0.86951 0.0
O110 O 0.35778 0.47603 0.66573 0.0
O111 O 0.36036 0.47494 0.66562 0.0
H112 H 0.39434 0.4165 0.45047 0.0
H113 H 0.42607 0.44109 0.31647 0.0
H114 H 0.29126 0.34592 0.18326 0.0
H115 H 0.25755 0.32531 0.31851 0.0
H116 H 0.31299 0.46445 0.98904 0.0
H117 H 0.29179 0.43132 0.11938 0.0
H118 H 0.46365 0.41026 0.17357 0.0
H119 H 0.48528 0.4438 1.04042 0.0
Ho120 Ho 0.88075 0.09131 0.8765 0.0
Ho121 Ho 0.85241 0.1582 1.01705 0.0
C122 C 0.88391 0.23078 0.88872 0.0
C123 C 0.89667 0.04784 0.72063 0.0
C124 C 0.89142 0.06967 0.63891 0.0
C125 C 0.84346 0.05908 0.58825 0.0
C126 C 0.83779 0.08024 0.5121 0.0
C127 C 0.87965 0.11263 0.48436 0.0
C128 C 0.92853 0.12174 0.53334 0.0
C129 C 0.9343 0.1006 0.61005 0.0
C130 C 0.96917 0.10208 0.98098 0.0
C131 C 0.86345 0.03288 1.04421 0.0
C132 C 0.83085 0.19799 0.17162 0.0
C133 C 0.84617 0.17925 0.25302 0.0
C134 C 0.89729 0.15466 0.26623 0.0
C135 C 0.90926 0.13385 0.34205 0.0
C136 C 0.87057 0.13805 0.40609 0.0
C137 C 0.82105 0.16511 0.39391 0.0
C138 C 0.80815 0.18376 0.31747 0.0
C139 C 0.77052 0.14052 0.8875 0.0
O140 O 0.87245 0.18166 0.83998 0.0
O141 O 0.88999 0.2305 0.97008 0.0
O142 O 0.93561 0.06987 0.77308 0.0
O143 O 0.85148 0.04027 0.75942 0.0
O144 O 0.94675 0.05516 0.9465 0.0
O145 O 0.93806 0.1424 0.96817 0.0
O146 O 0.87375 0.08397 0.08065 0.0
O147 O 0.85691 0.02407 0.95953 0.0
O148 O 0.79696 0.16522 0.12159 0.0
O149 O 0.87016 0.21777 0.13069 0.0
O150 O 0.78311 0.18844 0.93287 0.0
O151 O 0.79868 0.10434 0.9173 0.0
H152 H 0.81025 0.03424 0.60725 0.0
H153 H 0.80071 0.07052 0.4742 0.0
H154 H 0.96162 0.14635 0.51352 0.0
H155 H 0.97213 0.10903 0.64712 0.0
H156 H 0.92741 0.15032 0.21729 0.0
H157 H 0.94799 0.11333 0.34972 0.0
H158 H 0.79204 0.17132 0.44382 0.0
H159 H 0.76817 0.20155 0.30899 0.0
Ho160 Ho 0.147 0.38387 1.02202 0.0
Ho161 Ho 0.09272 0.42276 0.89696 0.0
C162 C 0.01516 0.37509 1.00712 0.0
C163 C 0.18058 0.36336 0.16959 0.0
C164 C 0.15846 0.37106 0.25581 0.0
C165 C 0.17175 0.4195 0.31382 0.0
C166 C 0.15032 0.42717 0.39469 0.0
C167 C 0.11558 0.38649 0.41945 0.0
C168 C 0.10377 0.33711 0.36308 0.0
C169 C 0.12472 0.32964 0.28162 0.0
C170 C 0.13087 0.29508 0.89689 0.0
C171 C 0.21435 0.39987 0.85562 0.0
C172 C 0.055 0.45541 0.76062 0.0
C173 C 0.05996 0.43079 0.67136 0.0
C174 C 0.08598 0.37914 0.64833 0.0
C175 C 0.10161 0.3625 0.56454 0.0
C176 C 0.09091 0.3973 0.50346 0.0
C177 C 0.06075 0.44623 0.52549 0.0
C178 C 0.04625 0.46318 0.60917 0.0
C179 C 0.10452 0.50104 1.04528 0.0
O180 O 0.05557 0.39517 1.06088 0.0
O181 O 0.02994 0.36328 0.92871 0.0
O182 O 0.15515 0.32711 0.11275 0.0
O183 O 0.19439 0.40837 0.13918 0.0
O184 O 0.17787 0.31162 0.93205 0.0
O185 O 0.09697 0.33345 0.91972 0.0
O186 O 0.16569 0.39727 0.82058 0.0
O187 O 0.21912 0.4023 0.9397 0.0
O188 O 0.10133 0.47339 0.79816 0.0
O189 O 0.02593 0.42758 0.80739 0.0
O190 O 0.05966 0.48977 1.0004 0.0
O191 O 0.1412 0.47098 1.00834 0.0
H192 H 0.1985 0.45164 0.29666 0.0
H193 H 0.16082 0.46505 0.43815 0.0
H194 H 0.07732 0.30508 0.38126 0.0
H195 H 0.11393 0.29172 0.23861 0.0
H196 H 0.0968 0.35329 0.69579 0.0
H197 H 0.12455 0.32428 0.54862 0.0
H198 H 0.05034 0.47228 0.47833 0.0
H199 H 0.02633 0.50273 0.62661 0.0
Ho200 Ho 0.88975 0.91915 0.2623 0.0
Ho201 Ho 0.8451 0.85765 0.10969 0.0
C202 C 0.88108 0.78527 0.24464 0.0
C203 C 0.90906 0.96835 0.41596 0.0
C204 C 0.90255 0.94185 0.49328 0.0
C205 C 0.85872 0.90458 0.49694 0.0
C206 C 0.85056 0.87973 0.56897 0.0
C207 C 0.88711 0.89008 0.63964 0.0
C208 C 0.93347 0.9246 0.63355 0.0
C209 C 0.94081 0.95041 0.56143 0.0
C210 C 0.97092 0.8756 0.16026 0.0
C211 C 0.86248 0.98591 0.0973 0.0
C212 C 0.82744 0.81231 0.95293 0.0
C213 C 0.8445 0.83018 0.87279 0.0
C214 C 0.87785 0.87801 0.8747 0.0
C215 C 0.89224 0.89679 0.79962 0.0
C216 C 0.87518 0.86721 0.71987 0.0
C217 C 0.84405 0.81736 0.71841 0.0
C218 C 0.82837 0.79952 0.79396 0.0
C219 C 0.7739 0.8695 0.24609 0.0
O220 O 0.87137 0.8321 0.29667 0.0
O221 O 0.88626 0.78831 0.16402 0.0
O222 O 0.94777 0.94833 0.3662 0.0
O223 O 0.86395 0.97553 0.37294 0.0
O224 O 0.96522 0.86827 0.23799 0.0
O225 O 0.92801 0.89968 0.13761 0.0
O226 O 0.84014 0.93875 1.06098 0.0
O227 O 0.88482 0.98999 0.17647 0.0
O228 O 0.79182 0.84408 0.9967 0.0
O229 O 0.86743 0.79796 1.00113 0.0
O230 O 0.77564 0.82641 0.18632 0.0
O231 O 0.80449 0.90616 0.22313 0.0
H232 H 0.83059 0.8946 0.4435 0.0
H233 H 0.81474 0.85324 0.5691 0.0
H234 H 0.96402 0.93235 0.68465 0.0
H235 H 0.976 0.97751 0.55938 0.0
H236 H 0.89268 0.90134 0.9344 0.0
H237 H 0.91567 0.93542 0.80485 0.0
H238 H 0.83118 0.79204 0.65904 0.0
H239 H 0.8033 0.76202 0.7907 0.0
Ho240 Ho 0.38463 0.59468 0.38514 0.0
Ho241 Ho 0.35103 0.66429 0.53204 0.0
C242 C 0.38087 0.73266 0.39221 0.0
C243 C 0.39751 0.5549 0.22755 0.0
C244 C 0.39219 0.58213 0.15033 0.0
C245 C 0.34259 0.57952 0.10269 0.0
C246 C 0.33842 0.60425 1.02913 0.0
C247 C 0.38303 0.63345 1.00317 0.0
C248 C 0.43224 0.63725 1.05112 0.0
C249 C 0.4367 0.61205 0.1242 0.0
C250 C 0.47319 0.62531 0.4884 0.0
C251 C 0.37439 0.53508 0.55404 0.0
C252 C 0.34059 0.71351 0.68684 0.0
C253 C 0.35654 0.6971 0.76949 0.0
C254 C 0.39378 0.65348 0.77454 0.0
C255 C 0.40423 0.63418 0.85155 0.0
C256 C 0.37803 0.65864 0.92482 0.0
C257 C 0.34438 0.70511 0.92135 0.0
C258 C 0.3343 0.72463 0.84422 0.0
C259 C 0.27106 0.64503 0.4029 0.0
O260 O 0.37335 0.68277 0.34426 0.0
O261 O 0.38338 0.73519 0.47466 0.0
O262 O 0.43786 0.57288 0.2802 0.0
O263 O 0.35265 0.54661 0.26696 0.0
O264 O 0.46006 0.57421 0.45624 0.0
O265 O 0.43331 0.65619 0.47323 0.0
O266 O 0.36629 0.58642 0.59105 0.0
O267 O 0.37895 0.52528 0.46976 0.0
O268 O 0.301 0.68442 0.6431 0.0
O269 O 0.38133 0.72228 0.63957 0.0
O270 O 0.27803 0.69146 0.45549 0.0
O271 O 0.30202 0.60883 0.42888 0.0
H272 H 0.30727 0.55748 0.12128 0.0
H273 H 0.30078 0.59964 0.99111 0.0
H274 H 0.46706 0.65991 1.03224 0.0
H275 H 0.47504 0.61635 0.16051 0.0
H276 H 0.41449 0.63385 0.71904 0.0
H277 H 0.43135 0.59905 0.85334 0.0
H278 H 0.32471 0.72531 0.97781 0.0
H279 H 0.30772 0.76008 0.84255 0.0
Ho280 Ho 0.65881 0.14264 0.64253 0.0
Ho281 Ho 0.60736 0.09096 0.74705 0.0
C282 C 0.52254 0.12415 0.62196 0.0
C283 C 0.69426 0.15852 0.49766 0.0
C284 C 0.67253 0.1404 0.41022 0.0
C285 C 0.69901 0.09847 0.35589 0.0
C286 C 0.68038 0.08285 0.2721 0.0
C287 C 0.63494 0.10931 0.23977 0.0
C288 C 0.60672 0.14911 0.29626 0.0
C289 C 0.62487 0.16382 0.38039 0.0
C290 C 0.62889 0.22721 0.75842 0.0
C291 C 0.72813 0.12912 0.81493 0.0
C292 C 0.56791 0.06655 0.88429 0.0
C293 C 0.58622 0.0762 0.97398 0.0
C294 C 0.63932 0.06329 1.00018 0.0
C295 C 0.65536 0.07441 0.08592 0.0
C296 C 0.61796 0.0967 0.14787 0.0
C297 C 0.56461 0.10878 0.12029 0.0
C298 C 0.5499 0.1005 1.03445 0.0
C299 C 0.62326 0.01859 0.59821 0.0
O300 O 0.56624 0.15263 0.6025 0.0
O301 O 0.53017 0.08824 0.67368 0.0
O302 O 0.66665 0.19584 0.54628 0.0
O303 O 0.71199 0.11884 0.53763 0.0
O304 O 0.6796 0.21657 0.73956 0.0
O305 O 0.59959 0.18326 0.73081 0.0
O306 O 0.68651 0.09684 0.82397 0.0
O307 O 0.72935 0.15256 0.7449 0.0
O308 O 0.59541 0.03069 0.83198 0.0
O309 O 0.55559 0.11198 0.85328 0.0
O310 O 0.57901 0.02207 0.64106 0.0
O311 O 0.65865 0.05179 0.64008 0.0
H312 H 0.73443 0.0777 0.37765 0.0
H313 H 0.70195 0.04982 0.23344 0.0
H314 H 0.57189 0.17145 0.27587 0.0
H315 H 0.60188 0.19447 0.42132 0.0
H316 H 0.66867 0.04508 0.95467 0.0
H317 H 0.69743 0.06612 0.10246 0.0
H318 H 0.53345 0.12456 0.16405 0.0
H319 H 0.50998 0.11349 1.01526 0.0
Ho320 Ho 0.87729 0.42173 0.8757 0.0
Ho321 Ho 0.8255 0.36651 0.98204 0.0
C322 C 0.76012 0.38228 0.80751 0.0
C323 C 0.91415 0.43815 0.73154 0.0
C324 C 0.89158 0.42533 0.64382 0.0
C325 C 0.85494 0.38021 0.62019 0.0
C326 C 0.83551 0.36641 0.53626 0.0
C327 C 0.85255 0.39698 0.47307 0.0
C328 C 0.89137 0.44056 0.49713 0.0
C329 C 0.90889 0.45586 0.58184 0.0
C330 C 0.85696 0.4947 1.02108 0.0
C331 C 0.95895 0.39701 1.01176 0.0
C332 C 0.7824 0.34188 0.11882 0.0
C333 C 0.79471 0.35834 0.21046 0.0
C334 C 0.8134 0.41233 0.24412 0.0
C335 C 0.82971 0.42521 0.32964 0.0
C336 C 0.83038 0.38391 0.38311 0.0
C337 C 0.80904 0.33049 0.34929 0.0
C338 C 0.78994 0.31873 0.2648 0.0
C339 C 0.86367 0.28523 0.86587 0.0
O340 O 0.79603 0.42221 0.80895 0.0
O341 O 0.7613 0.35243 0.87066 0.0
O342 O 0.88998 0.47735 0.78286 0.0
O343 O 0.92543 0.39417 0.76713 0.0
O344 O 0.90039 0.49525 0.97616 0.0
O345 O 0.82367 0.45749 0.9821 0.0
O346 O 0.91681 0.36603 1.03031 0.0
O347 O 0.95121 0.43108 0.9569 0.0
O348 O 0.81919 0.31153 0.07672 0.0
O349 O 0.76459 0.38096 0.07775 0.0
O350 O 0.81206 0.29209 0.8816 0.0
O351 O 0.88904 0.33082 0.89773 0.0
H352 H 0.84151 0.35521 0.6666 0.0
H353 H 0.80742 0.33143 0.52203 0.0
H354 H 0.9085 0.46333 0.45082 0.0
H355 H 0.93601 0.4916 0.5987 0.0
H356 H 0.81528 0.4446 0.20452 0.0
H357 H 0.84156 0.46775 0.3533 0.0
H358 H 0.80718 0.29732 0.38718 0.0
H359 H 0.77113 0.27866 0.24134 0.0
Ho360 Ho 0.38469 0.10742 0.74057 0.0
Ho361 Ho 0.33313 0.14835 0.61683 0.0
C362 C 0.265 0.14094 0.78746 0.0
C363 C 0.42012 0.06717 0.87244 0.0
C364 C 0.40918 0.0848 0.96197 0.0
C365 C 0.38635 0.1375 0.98885 0.0
C366 C 0.37064 0.15226 0.0724 0.0
C367 C 0.37859 0.11493 0.13059 0.0
C368 C 0.40436 0.06365 0.10454 0.0
C369 C 0.41868 0.04814 1.0203 0.0
C370 C 0.3717 0.02839 0.59433 0.0
C371 C 0.46697 0.14884 0.63084 0.0
C372 C 0.30008 0.1683 0.46967 0.0
C373 C 0.3195 0.15421 0.38268 0.0
C374 C 0.31008 0.10082 0.33527 0.0
C375 C 0.32946 0.08818 0.2534 0.0
C376 C 0.35846 0.1286 0.21748 0.0
C377 C 0.36697 0.18227 0.26426 0.0
C378 C 0.34764 0.19496 0.34612 0.0
C379 C 0.35313 0.23896 0.73383 0.0
O380 O 0.31347 0.13433 0.81918 0.0
O381 O 0.25972 0.14324 0.7046 0.0
O382 O 0.37728 0.04725 0.82676 0.0
O383 O 0.44791 0.10252 0.83606 0.0
O384 O 0.41652 0.03974 0.63894 0.0
O385 O 0.33534 0.06039 0.62888 0.0
O386 O 0.42478 0.13311 0.57734 0.0
O387 O 0.45392 0.15963 0.71012 0.0
O388 O 0.33144 0.20239 0.52166 0.0
O389 O 0.27995 0.1277 0.50514 0.0
O390 O 0.3053 0.22447 0.70062 0.0
O391 O 0.38557 0.19795 0.71584 0.0
H392 H 0.37967 0.16683 0.9449 0.0
H393 H 0.35102 0.19218 0.09083 0.0
H394 H 0.41321 0.03569 0.14952 0.0
H395 H 0.43737 1.0079 1.00078 0.0
H396 H 0.28782 0.06877 0.36119 0.0
H397 H 0.32108 0.04701 0.2177 0.0
H398 H 0.38908 0.21425 0.23794 0.0
H399 H 0.35474 0.23673 0.38086 0.0
Ho400 Ho 0.65359 0.65685 0.52077 0.0
Ho401 Ho 0.60891 0.59507 0.3653 0.0
C402 C 0.63307 0.52678 0.52745 0.0
C403 C 0.66977 0.70397 0.6768 0.0
C404 C 0.6516 0.68684 0.75662 0.0
C405 C 0.62037 0.63759 0.7543 0.0
C406 C 0.60565 0.61888 0.82907 0.0
C407 C 0.62012 0.64997 0.90885 0.0
C408 C 0.64835 0.70156 0.91063 0.0
C409 C 0.6644 0.71945 0.83535 0.0
C410 C 0.72517 0.64104 0.38658 0.0
C411 C 0.62154 0.72819 0.38299 0.0
C412 C 0.5915 0.54668 0.21112 0.0
C413 C 0.59672 0.57392 0.13454 0.0
C414 C 0.63897 0.61326 0.13144 0.0
C415 C 0.64532 0.639 1.05989 0.0
C416 C 0.6094 0.62653 0.98875 0.0
C417 C 0.56546 0.58879 0.99353 0.0
C418 C 0.55949 0.5626 0.06539 0.0
C419 C 0.52883 0.64166 0.46751 0.0
O420 O 0.65441 0.57407 0.56647 0.0
O421 O 0.61243 0.52313 0.44763 0.0
O422 O 0.70574 0.67169 0.63457 0.0
O423 O 0.63028 0.71781 0.6273 0.0
O424 O 0.72323 0.68623 0.44231 0.0
O425 O 0.69333 0.60587 0.41018 0.0
O426 O 0.6303 0.68123 0.33097 0.0
O427 O 0.61452 0.72562 0.46328 0.0
O428 O 0.55173 0.56398 0.26087 0.0
O429 O 0.63716 0.54205 0.254 0.0
O430 O 0.53418 0.64748 0.38899 0.0
O431 O 0.5709 0.61645 0.49008 0.0
H432 H 0.60763 0.61297 0.69456 0.0
H433 H 0.5844 0.57897 0.8236 0.0
H434 H 0.65903 0.72789 0.97011 0.0
H435 H 0.68734 0.75835 0.83874 0.0
H436 H 0.66779 0.62376 0.18428 0.0
H437 H 0.6795 0.66766 1.06026 0.0
H438 H 0.53556 0.57907 0.9418 0.0
H439 H 0.5259 0.53343 0.06681 0.0
Ho440 Ho 0.14882 0.85349 0.10023 0.0
Ho441 Ho 0.1142 0.92561 0.24834 0.0
C442 C 0.13338 0.98272 0.0821 0.0
C443 C 0.16484 0.80689 0.94594 0.0
C444 C 0.15108 0.82663 0.86452 0.0
C445 C 0.10506 0.86051 0.85637 0.0
C446 C 0.09441 0.88237 0.78124 0.0
C447 C 0.12951 0.87067 0.71294 0.0
C448 C 0.17414 0.8352 0.71988 0.0
C449 C 0.18517 0.81384 0.79524 0.0
C450 C 0.22717 0.87666 0.22991 0.0
C451 C 0.12053 0.78987 0.24567 0.0
C452 C 0.10073 0.9679 0.40489 0.0
C453 C 0.10691 0.94347 0.48448 0.0
C454 C 0.15125 0.95995 0.54113 0.0
C455 C 0.15797 0.93676 0.61564 0.0
C456 C 0.12071 0.89652 0.63532 0.0
C457 C 0.0757 0.88069 0.57988 0.0
C458 C 0.069 0.90366 0.5049 0.0
C459 C 0.02672 0.89365 0.14172 0.0
O460 O 0.13168 0.93113 1.04246 0.0
O461 O 0.13258 0.99279 0.16659 0.0
O462 O 0.20286 0.83553 0.99389 0.0
O463 O 0.12331 0.79445 0.98953 0.0
O464 O 0.2204 0.82831 0.18213 0.0
O465 O 0.19579 0.91112 0.20139 0.0
O466 O 0.12873 0.83986 0.29217 0.0
O467 O 0.1154 0.78581 0.16297 0.0
O468 O 0.0606 0.94828 0.35278 0.0
O469 O 0.14556 0.97564 0.36522 0.0
O470 O 0.03892 0.9449 0.17486 0.0
O471 O 0.06664 0.86331 0.15851 0.0
H472 H 0.07777 0.87089 0.90855 0.0
H473 H 0.05948 0.90933 0.7771 0.0
H474 H 0.20065 0.8243 0.66702 0.0
H475 H 0.22069 0.7879 0.79958 0.0
H476 H 0.18069 0.99101 0.52796 0.0
H477 H 0.19201 0.95097 0.65829 0.0
H478 H 0.04622 0.84996 0.59396 0.0
H479 H 0.03419 0.89001 0.46294 0.0
Ho480 Ho 0.88332 0.59671 0.2572 0.0
Ho481 Ho 0.8298 0.64613 0.14589 0.0
C482 C 0.76448 0.62925 0.31496 0.0
C483 C 0.92273 0.5912 0.40595 0.0
C484 C 0.89748 0.60531 0.48964 0.0
C485 C 0.91457 0.65372 0.54509 0.0
C486 C 0.89465 0.66493 0.62692 0.0
C487 C 0.85697 0.62805 0.65513 0.0
C488 C 0.83691 0.58194 0.59723 0.0
C489 C 0.85603 0.57157 0.51497 0.0
C490 C 0.85865 0.51978 0.11443 0.0
C491 C 0.96585 0.62383 0.1342 0.0
C492 C 0.78782 0.66405 1.00178 0.0
C493 C 0.80625 0.65533 0.91413 0.0
C494 C 0.77042 0.62994 0.84922 0.0
C495 C 0.78661 0.62121 0.76533 0.0
C496 C 0.8395 0.63712 0.74465 0.0
C497 C 0.87614 0.66061 0.81076 0.0
C498 C 0.85968 0.6696 0.89467 0.0
C499 C 0.86356 0.72983 0.26349 0.0
O500 O 0.80397 0.59447 0.32284 0.0
O501 O 0.7635 0.65573 0.24789 0.0
O502 O 0.90377 0.54707 0.35489 0.0
O503 O 0.93199 0.63381 0.36665 0.0
O504 O 0.90422 0.52232 0.15932 0.0
O505 O 0.82658 0.55644 0.15191 0.0
O506 O 0.92341 0.65497 0.11497 0.0
O507 O 0.95601 0.5854 0.18037 0.0
O508 O 0.81338 0.70235 1.05548 0.0
O509 O 0.77879 0.61856 1.0337 0.0
O510 O 0.81209 0.71942 0.24304 0.0
O511 O 0.89166 0.68697 0.23398 0.0
H512 H 0.94497 0.68188 0.52623 0.0
H513 H 0.90938 0.70224 0.66821 0.0
H514 H 0.80762 0.55259 0.61566 0.0
H515 H 0.83887 0.5364 0.47202 0.0
H516 H 0.72988 0.61644 0.86351 0.0
H517 H 0.7573 0.60224 0.71704 0.0
H518 H 0.91789 0.67138 0.79814 0.0
H519 H 0.88889 0.68728 0.94421 0.0
Ho520 Ho 0.14925 0.15043 1.01209 0.0
Ho521 Ho 0.11772 0.10165 0.877 0.0
C522 C 0.13262 0.03022 1.03164 0.0
C523 C 0.19261 0.18573 0.16152 0.0
C524 C 0.16841 0.18705 0.24607 0.0
C525 C 0.1167 0.16267 0.25337 0.0
C526 C 0.09835 0.15348 0.33252 0.0
C527 C 0.13123 0.16849 0.40715 0.0
C528 C 0.17969 0.19961 0.39992 0.0
C529 C 0.1985 0.20775 0.32038 0.0
C530 C 0.22016 0.15665 0.84877 0.0
C531 C 0.1163 0.23864 0.91221 0.0
C532 C 0.09645 0.07092 0.71513 0.0
C533 C 0.10386 0.09792 0.63855 0.0
C534 C 0.13515 0.1472 0.64151 0.0
C535 C 0.14203 0.17175 0.5682 0.0
C536 C 0.11789 0.14755 0.48914 0.0
C537 C 0.08383 0.09985 0.48858 0.0
C538 C 0.07669 0.07594 0.56216 0.0
C539 C 0.02919 0.10246 0.97399 0.0
O540 O 0.12114 0.07919 0.07105 0.0
O541 O 0.14093 0.02666 0.94848 0.0
O542 O 0.19963 0.13549 0.12017 0.0
O543 O 0.17174 0.21904 0.11229 0.0
O544 O 0.20675 0.12397 0.90411 0.0
O545 O 0.20548 0.12629 0.90392 0.0
O546 O 0.11797 0.19398 0.85346 0.0
O547 O 0.11934 0.23161 0.99084 0.0
O548 O 0.06148 0.09497 0.76827 0.0
O549 O 0.14037 0.056 0.75431 0.0
O550 O 0.05 0.05869 0.92989 0.0
O551 O 0.05999 0.1449 0.97251 0.0
H552 H 0.09114 0.14877 0.19742 0.0
H553 H 0.05878 0.13338 0.33397 0.0
H554 H 0.20492 0.21572 0.45488 0.0
H555 H 0.2376 0.22837 0.31674 0.0
H556 H 0.15437 0.1669 0.70053 0.0
H557 H 0.16651 0.20969 0.57452 0.0
H558 H 0.06359 0.07923 0.43098 0.0
H559 H 0.05035 0.03948 0.55901 0.0
Ho560 Ho 0.64678 0.34939 0.5963 0.0
Ho561 Ho 0.61436 0.42069 0.7443 0.0
C562 C 0.63155 0.47885 0.5783 0.0
C563 C 0.67207 0.30573 0.444 0.0
C564 C 0.66879 0.32869 0.36341 0.0
C565 C 0.67825 0.38593 0.3619 0.0
C566 C 0.66935 0.40843 0.28725 0.0
C567 C 0.65106 0.37426 0.21186 0.0
C568 C 0.64456 0.31635 0.21278 0.0
C569 C 0.65324 0.29403 0.28773 0.0
C570 C 0.72317 0.36941 0.72967 0.0
C571 C 0.61181 0.28155 0.73269 0.0
C572 C 0.60603 0.46524 0.90103 0.0
C573 C 0.61644 0.44258 0.98097 0.0
C574 C 0.6582 0.46598 1.03816 0.0
C575 C 0.66877 0.44472 0.11359 0.0
C576 C 0.63869 0.39855 0.13283 0.0
C577 C 0.59672 0.37537 0.07526 0.0
C578 C 0.58603 0.39678 1.00011 0.0
C579 C 0.52763 0.39646 0.63525 0.0
O580 O 0.62597 0.42721 0.53918 0.0
O581 O 0.63533 0.48804 0.66284 0.0
O582 O 0.7076 0.3297 0.50112 0.0
O583 O 0.62513 0.2968 0.47691 0.0
O584 O 0.7137 0.32074 0.68447 0.0
O585 O 0.69486 0.4047 0.69813 0.0
O586 O 0.62225 0.33085 0.78174 0.0
O587 O 0.60775 0.28027 0.65029 0.0
O588 O 0.56433 0.44412 0.85317 0.0
O589 O 0.64907 0.47229 0.85707 0.0
O590 O 0.54232 0.44636 0.67148 0.0
O591 O 0.5643 0.36258 0.65212 0.0
H592 H 0.69226 0.41358 0.41849 0.0
H593 H 0.67615 0.4528 0.28964 0.0
H594 H 0.63293 0.28799 0.15556 0.0
H595 H 0.64772 0.24968 0.28641 0.0
H596 H 0.68264 0.50097 1.02465 0.0
H597 H 0.7018 0.46359 0.15545 0.0
H598 H 0.57156 0.34083 0.08833 0.0
H599 H 0.55372 0.37738 0.95719 0.0
Ho600 Ho 0.39018 0.92021 0.36524 0.0
Ho601 Ho 0.3377 0.87421 0.47261 0.0
C602 C 0.26813 0.88975 0.30303 0.0
C603 C 0.43234 0.93093 0.22373 0.0
C604 C 0.41202 0.91856 0.13581 0.0
C605 C 0.44616 0.8915 0.07441 0.0
C606 C 0.42949 0.88306 0.9894 0.0
C607 C 0.37608 0.8973 0.96475 0.0
C608 C 0.34007 0.91915 1.02876 0.0
C609 C 0.35837 0.93118 0.11277 0.0
C610 C 0.372 0.99934 0.50373 0.0
C611 C 0.47407 0.89559 0.49437 0.0
C612 C 0.29783 0.86134 0.61607 0.0
C613 C 0.31975 0.8721 0.70348 0.0
C614 C 0.29235 0.90859 0.76425 0.0
C615 C 0.31187 0.91858 0.84777 0.0
C616 C 0.35791 0.88987 0.87372 0.0
C617 C 0.38639 0.85475 0.81116 0.0
C618 C 0.36869 0.84798 0.72664 0.0
C619 C 0.36658 0.78645 0.36258 0.0
O620 O 0.30981 0.92184 0.29417 0.0
O621 O 0.26766 0.86452 0.37097 0.0
O622 O 0.40963 0.97259 0.27228 0.0
O623 O 0.4395 0.88679 0.26067 0.0
O624 O 0.41708 0.99392 0.46273 0.0
O625 O 0.33706 0.96398 0.46567 0.0
O626 O 0.43132 0.86425 0.51046 0.0
O627 O 0.46409 0.93338 0.44691 0.0
O628 O 0.31955 0.82075 0.56506 0.0
O629 O 0.28974 0.90571 0.5808 0.0
O630 O 0.31578 0.79938 0.37746 0.0
O631 O 0.39687 0.82961 0.39002 0.0
H632 H 0.48603 0.87725 0.09209 0.0
H633 H 0.45941 0.86615 0.94433 0.0
H634 H 0.2976 0.92764 1.01534 0.0
H635 H 0.33041 0.95077 0.15902 0.0
H636 H 0.25603 0.92998 0.74745 0.0
H637 H 0.29034 0.94917 0.89088 0.0
H638 H 0.42198 0.83144 0.82592 0.0
H639 H 0.39318 0.82345 0.67969 0.0
loop_
_geom_bond_atom_site_label_1
_geom_bond_atom_site_label_2
_geom_bond_distance
_geom_bond_site_symmetry_2
_ccdc_geom_bond_type
Ho0 C3 2.811 1_554 S
Ho0 O20 2.322 . S
Ho0 O22 2.378 1_554 S
Ho0 O23 2.524 1_554 S
Ho0 O24 2.381 . S
Ho0 O25 2.669 . S
Ho0 O27 2.346 . S
Ho0 O31 2.305 . S
Ho1 C12 2.811 . S
Ho1 O21 2.346 . S
Ho1 O25 2.305 . S
Ho1 O26 2.322 . S
Ho1 O28 2.378 . S
Ho1 O29 2.524 . S
Ho1 O30 2.381 . S
Ho1 O31 2.669 . S
C2 O20 1.259 . S
C2 O21 1.268 . S
C3 Ho0 2.811 1_556 S
C3 C4 1.488 . S
C3 O22 1.215 . S
C3 O23 1.289 . S
C4 C3 1.488 . S
C4 C5 1.348 . S
C4 C9 1.413 . S
C5 C4 1.348 . S
C5 C6 1.442 . S
C5 H32 0.930 . S
C6 C5 1.442 . S
C6 C7 1.381 . S
C6 H33 0.931 . S
C7 C6 1.381 . S
C7 C8 1.321 . S
C8 C7 1.321 . S
C8 C9 1.403 . S
C8 H34 0.934 . S
C9 C4 1.413 . S
C9 C8 1.403 . S
C9 H35 0.930 . S
C10 O24 1.275 . S
C10 O25 1.256 . S
C11 O26 1.259 . S
C11 O27 1.268 . S
C12 Ho1 2.811 . S
C12 C13 1.488 . S
C12 O28 1.215 . S
C12 O29 1.289 . S
C13 C12 1.488 . S
C13 C14 1.348 . S
C13 C18 1.413 . S
C14 C13 1.348 . S
C14 C15 1.442 . S
C14 H36 0.930 . S
C15 C14 1.442 . S
C15 C16 1.381 . S
C15 H37 0.931 . S
C16 C15 1.381 . S
C16 C17 1.321 . S
C17 C16 1.321 . S
C17 C18 1.403 . S
C17 H38 0.934 . S
C18 C13 1.413 . S
C18 C17 1.403 . S
C18 H39 0.930 . S
C19 O30 1.275 . S
C19 O31 1.256 . S
O20 Ho0 2.322 . S
O20 C2 1.259 . S
O21 Ho1 2.346 . S
O21 C2 1.268 . S
O22 Ho0 2.378 1_556 S
O22 C3 1.215 . S
O23 Ho0 2.524 1_556 S
O23 C3 1.289 . S
O24 Ho0 2.381 . S
O24 C10 1.275 . S
O25 Ho0 2.669 . S
O25 Ho1 2.305 . S
O25 C10 1.256 . S
O26 Ho1 2.322 . S
O26 C11 1.259 . S
O27 Ho0 2.346 . S
O27 C11 1.268 . S
O28 Ho1 2.378 . S
O28 C12 1.215 . S
O29 Ho1 2.524 . S
O29 C12 1.289 . S
O30 Ho1 2.381 . S
O30 C19 1.275 . S
O31 Ho0 2.305 . S
O31 Ho1 2.669 . S
O31 C19 1.256 . S
H32 C5 0.930 . S
H33 C6 0.931 . S
H34 C8 0.934 . S
H35 C9 0.930 . S
H36 C14 0.930 . S
H37 C15 0.931 . S
H38 C17 0.934 . S
H39 C18 0.930 . S
Ho40 C43 2.811 . S
Ho40 O60 2.322 . S
Ho40 O62 2.378 . S
Ho40 O63 2.524 . S
Ho40 O64 2.381 . S
Ho40 O65 2.669 . S
Ho40 O67 2.346 . S
Ho40 O71 2.305 . S
Ho41 C52 2.811 . S
Ho41 O61 2.346 . S
Ho41 O65 2.305 . S
Ho41 O66 2.322 . S
Ho41 O68 2.378 . S
Ho41 O69 2.524 . S
Ho41 O70 2.381 . S
Ho41 O71 2.669 . S
C42 O60 1.259 . S
C42 O61 1.268 . S
C43 Ho40 2.811 . S
C43 C44 1.488 . S
C43 O62 1.215 . S
C43 O63 1.289 . S
C44 C43 1.488 . S
C44 C45 1.348 . S
C44 C49 1.413 . S
C45 C44 1.348 . S
C45 C46 1.442 . S
C45 H72 0.930 . S
C46 C45 1.442 . S
C46 C47 1.381 . S
C46 H73 0.931 . S
C47 C46 1.381 . S
C47 C48 1.321 . S
C48 C47 1.321 . S
C48 C49 1.403 . S
C48 H74 0.934 . S
C49 C44 1.413 . S
C49 C48 1.403 . S
C49 H75 0.930 . S
C50 O64 1.275 . S
C50 O65 1.256 . S
C51 O66 1.259 . S
C51 O67 1.268 . S
C52 Ho41 2.811 . S
C52 C53 1.488 . S
C52 O68 1.215 . S
C52 O69 1.289 . S
C53 C52 1.488 . S
C53 C54 1.348 . S
C53 C58 1.413 . S
C54 C53 1.348 . S
C54 C55 1.442 1_554 S
C54 H76 0.930 . S
C55 C54 1.442 1_556 S
C55 C56 1.381 . S
C55 H77 0.931 . S
C56 C55 1.381 . S
C56 C57 1.321 . S
C57 C56 1.321 . S
C57 C58 1.403 1_556 S
C57 H78 0.934 . S
C58 C53 1.413 . S
C58 C57 1.403 1_554 S
C58 H79 0.930 . S
C59 O70 1.275 . S
C59 O71 1.256 . S
O60 Ho40 2.322 . S
O60 C42 1.259 . S
O61 Ho41 2.346 . S
O61 C42 1.268 . S
O62 Ho40 2.378 . S
O62 C43 1.215 . S
O63 Ho40 2.524 . S
O63 C43 1.289 . S
O64 Ho40 2.381 . S
O64 C50 1.275 . S
O65 Ho40 2.669 . S
O65 Ho41 2.305 . S
O65 C50 1.256 . S
O66 Ho41 2.322 . S
O66 C51 1.259 . S
O67 Ho40 2.346 . S
O67 C51 1.268 . S
O68 Ho41 2.378 . S
O68 C52 1.215 . S
O69 Ho41 2.524 . S
O69 C52 1.289 . S
O70 Ho41 2.381 . S
O70 C59 1.275 . S
O71 Ho40 2.305 . S
O71 Ho41 2.669 . S
O71 C59 1.256 . S
H72 C45 0.930 . S
H73 C46 0.931 . S
H74 C48 0.934 . S
H75 C49 0.930 . S
H76 C54 0.930 . S
H77 C55 0.931 . S
H78 C57 0.934 . S
H79 C58 0.930 . S
Ho80 C83 2.811 . S
Ho80 O100 2.322 . S
Ho80 O102 2.378 . S
Ho80 O103 2.524 . S
Ho80 O104 2.381 . S
Ho80 O105 2.669 . S
Ho80 O107 2.346 . S
Ho80 O111 2.305 . S
Ho81 C92 2.811 . S
Ho81 O101 2.346 . S
Ho81 O105 2.305 . S
Ho81 O106 2.322 . S
Ho81 O108 2.378 . S
Ho81 O109 2.524 . S
Ho81 O110 2.381 . S
Ho81 O111 2.669 . S
C82 O100 1.259 . S
C82 O101 1.268 . S
C83 Ho80 2.811 . S
C83 C84 1.488 . S
C83 O102 1.215 . S
C83 O103 1.289 . S
C84 C83 1.488 . S
C84 C85 1.348 . S
C84 C89 1.413 . S
C85 C84 1.348 . S
C85 C86 1.442 . S
C85 H112 0.930 . S
C86 C85 1.442 . S
C86 C87 1.381 . S
C86 H113 0.931 . S
C87 C86 1.381 . S
C87 C88 1.321 . S
C88 C87 1.321 . S
C88 C89 1.403 . S
C88 H114 0.934 . S
C89 C84 1.413 . S
C89 C88 1.403 . S
C89 H115 0.930 . S
C90 O104 1.275 . S
C90 O105 1.256 . S
C91 O106 1.259 . S
C91 O107 1.268 . S
C92 Ho81 2.811 . S
C92 C93 1.488 . S
C92 O108 1.215 . S
C92 O109 1.289 . S
C93 C92 1.488 . S
C93 C94 1.348 . S
C93 C98 1.413 1_556 S
C94 C93 1.348 . S
C94 C95 1.442 1_556 S
C94 H116 0.930 . S
C95 C94 1.442 1_554 S
C95 C96 1.381 . S
C95 H117 0.931 . S
C96 C95 1.381 . S
C96 C97 1.321 . S
C97 C96 1.321 . S
C97 C98 1.403 . S
C97 H118 0.934 . S
C98 C93 1.413 1_554 S
C98 C97 1.403 . S
C98 H119 0.930 1_554 S
C99 O110 1.275 . S
C99 O111 1.256 . S
O100 Ho80 2.322 . S
O100 C82 1.259 . S
O101 Ho81 2.346 . S
O101 C82 1.268 . S
O102 Ho80 2.378 . S
O102 C83 1.215 . S
O103 Ho80 2.524 . S
O103 C83 1.289 . S
O104 Ho80 2.381 . S
O104 C90 1.275 . S
O105 Ho80 2.669 . S
O105 Ho81 2.305 . S
O105 C90 1.256 . S
O106 Ho81 2.322 . S
O106 C91 1.259 . S
O107 Ho80 2.346 . S
O107 C91 1.268 . S
O108 Ho81 2.378 . S
O108 C92 1.215 . S
O109 Ho81 2.524 . S
O109 C92 1.289 . S
O110 Ho81 2.381 . S
O110 C99 1.275 . S
O111 Ho80 2.305 . S
O111 Ho81 2.669 . S
O111 C99 1.256 . S
H112 C85 0.930 . S
H113 C86 0.931 . S
H114 C88 0.934 . S
H115 C89 0.930 . S
H116 C94 0.930 . S
H117 C95 0.931 . S
H118 C97 0.934 . S
H119 C98 0.930 1_556 S
Ho120 C123 2.811 . S
Ho120 O140 2.322 . S
Ho120 O142 2.378 . S
Ho120 O143 2.524 . S
Ho120 O144 2.381 . S
Ho120 O145 2.669 . S
Ho120 O147 2.346 1_545 S
Ho120 O151 2.305 . S
Ho121 C132 2.811 1_556 S
Ho121 O141 2.346 . S
Ho121 O145 2.305 . S
Ho121 O146 2.322 . S
Ho121 O148 2.378 1_556 S
Ho121 O149 2.524 1_556 S
Ho121 O150 2.381 . S
Ho121 O151 2.669 . S
C122 O140 1.259 . S
C122 O141 1.268 . S
C123 Ho120 2.811 . S
C123 C124 1.488 . S
C123 O142 1.215 . S
C123 O143 1.289 . S
C124 C123 1.488 . S
C124 C125 1.348 . S
C124 C129 1.413 . S
C125 C124 1.348 . S
C125 C126 1.442 . S
C125 H152 0.930 . S
C126 C125 1.442 . S
C126 C127 1.381 . S
C126 H153 0.931 . S
C127 C126 1.381 . S
C127 C128 1.321 . S
C128 C127 1.321 . S
C128 C129 1.403 . S
C128 H154 0.934 . S
C129 C124 1.413 . S
C129 C128 1.403 . S
C129 H155 0.930 . S
C130 O144 1.275 . S
C130 O145 1.256 . S
C131 O146 1.259 . S
C131 O147 1.268 1_545 S
C132 Ho121 2.811 1_554 S
C132 C133 1.488 . S
C132 O148 1.215 . S
C132 O149 1.289 . S
C133 C132 1.488 . S
C133 C134 1.348 . S
C133 C138 1.413 . S
C134 C133 1.348 . S
C134 C135 1.442 . S
C134 H156 0.930 . S
C135 C134 1.442 . S
C135 C136 1.381 . S
C135 H157 0.931 . S
C136 C135 1.381 . S
C136 C137 1.321 . S
C137 C136 1.321 . S
C137 C138 1.403 . S
C137 H158 0.934 . S
C138 C133 1.413 . S
C138 C137 1.403 . S
C138 H159 0.930 . S
C139 O150 1.275 . S
C139 O151 1.256 . S
O140 Ho120 2.322 . S
O140 C122 1.259 . S
O141 Ho121 2.346 . S
O141 C122 1.268 . S
O142 Ho120 2.378 . S
O142 C123 1.215 . S
O143 Ho120 2.524 . S
O143 C123 1.289 . S
O144 Ho120 2.381 . S
O144 C130 1.275 . S
O145 Ho120 2.669 . S
O145 Ho121 2.305 . S
O145 C130 1.256 . S
O146 Ho121 2.322 . S
O146 C131 1.259 . S
O147 Ho120 2.346 1_565 S
O147 C131 1.268 1_565 S
O148 Ho121 2.378 1_554 S
O148 C132 1.215 . S
O149 Ho121 2.524 1_554 S
O149 C132 1.289 . S
O150 Ho121 2.381 . S
O150 C139 1.275 . S
O151 Ho120 2.305 . S
O151 Ho121 2.669 . S
O151 C139 1.256 . S
H152 C125 0.930 . S
H153 C126 0.931 . S
H154 C128 0.934 . S
H155 C129 0.930 . S
H156 C134 0.930 . S
H157 C135 0.931 . S
H158 C137 0.934 . S
H159 C138 0.930 . S
Ho160 C163 2.811 1_556 S
Ho160 O180 2.322 . S
Ho160 O182 2.378 1_556 S
Ho160 O183 2.524 1_556 S
Ho160 O184 2.381 . S
Ho160 O185 2.669 . S
Ho160 O187 2.346 . S
Ho160 O191 2.305 . S
Ho161 C172 2.811 . S
Ho161 O181 2.346 . S
Ho161 O185 2.305 . S
Ho161 O186 2.322 . S
Ho161 O188 2.378 . S
Ho161 O189 2.524 . S
Ho161 O190 2.381 . S
Ho161 O191 2.669 . S
C162 O180 1.259 . S
C162 O181 1.268 . S
C163 Ho160 2.811 1_554 S
C163 C164 1.488 . S
C163 O182 1.215 . S
C163 O183 1.289 . S
C164 C163 1.488 . S
C164 C165 1.348 . S
C164 C169 1.413 . S
C165 C164 1.348 . S
C165 C166 1.442 . S
C165 H192 0.930 . S
C166 C165 1.442 . S
C166 C167 1.381 . S
C166 H193 0.931 . S
C167 C166 1.381 . S
C167 C168 1.321 . S
C168 C167 1.321 . S
C168 C169 1.403 . S
C168 H194 0.934 . S
C169 C164 1.413 . S
C169 C168 1.403 . S
C169 H195 0.930 . S
C170 O184 1.275 . S
C170 O185 1.256 . S
C171 O186 1.259 . S
C171 O187 1.268 . S
C172 Ho161 2.811 . S
C172 C173 1.488 . S
C172 O188 1.215 . S
C172 O189 1.289 . S
C173 C172 1.488 . S
C173 C174 1.348 . S
C173 C178 1.413 . S
C174 C173 1.348 . S
C174 C175 1.442 . S
C174 H196 0.930 . S
C175 C174 1.442 . S
C175 C176 1.381 . S
C175 H197 0.931 . S
C176 C175 1.381 . S
C176 C177 1.321 . S
C177 C176 1.321 . S
C177 C178 1.403 . S
C177 H198 0.934 . S
C178 C173 1.413 . S
C178 C177 1.403 . S
C178 H199 0.930 . S
C179 O190 1.275 . S
C179 O191 1.256 . S
O180 Ho160 2.322 . S
O180 C162 1.259 . S
O181 Ho161 2.346 . S
O181 C162 1.268 . S
O182 Ho160 2.378 1_554 S
O182 C163 1.215 . S
O183 Ho160 2.524 1_554 S
O183 C163 1.289 . S
O184 Ho160 2.381 . S
O184 C170 1.275 . S
O185 Ho160 2.669 . S
O185 Ho161 2.305 . S
O185 C170 1.256 . S
O186 Ho161 2.322 . S
O186 C171 1.259 . S
O187 Ho160 2.346 . S
O187 C171 1.268 . S
O188 Ho161 2.378 . S
O188 C172 1.215 . S
O189 Ho161 2.524 . S
O189 C172 1.289 . S
O190 Ho161 2.381 . S
O190 C179 1.275 . S
O191 Ho160 2.305 . S
O191 Ho161 2.669 . S
O191 C179 1.256 . S
H192 C165 0.930 . S
H193 C166 0.931 . S
H194 C168 0.934 . S
H195 C169 0.930 . S
H196 C174 0.930 . S
H197 C175 0.931 . S
H198 C177 0.934 . S
H199 C178 0.930 . S
Ho200 C203 2.811 . S
Ho200 O220 2.322 . S
Ho200 O222 2.378 . S
Ho200 O223 2.524 . S
Ho200 O224 2.381 . S
Ho200 O225 2.669 . S
Ho200 O227 2.339 1_565 S
Ho200 O231 2.305 . S
Ho201 C212 2.811 1_554 S
Ho201 O221 2.346 . S
Ho201 O225 2.305 . S
Ho201 O226 2.322 . S
Ho201 O228 2.378 1_554 S
Ho201 O229 2.524 1_554 S
Ho201 O230 2.381 . S
Ho201 O231 2.669 . S
C202 O220 1.259 . S
C202 O221 1.268 . S
C203 Ho200 2.811 . S
C203 C204 1.488 . S
C203 O222 1.215 . S
C203 O223 1.289 . S
C204 C203 1.488 . S
C204 C205 1.348 . S
C204 C209 1.413 . S
C205 C204 1.348 . S
C205 C206 1.442 . S
C205 H232 0.930 . S
C206 C205 1.442 . S
C206 C207 1.381 . S
C206 H233 0.931 . S
C207 C206 1.381 . S
C207 C208 1.321 . S
C208 C207 1.321 . S
C208 C209 1.403 . S
C208 H234 0.934 . S
C209 C204 1.413 . S
C209 C208 1.403 . S
C209 H235 0.930 . S
C210 O224 1.275 . S
C210 O225 1.256 . S
C211 O226 1.259 . S
C211 O227 1.268 1_565 S
C212 Ho201 2.811 1_556 S
C212 C213 1.488 . S
C212 O228 1.215 . S
C212 O229 1.289 . S
C213 C212 1.488 . S
C213 C214 1.348 . S
C213 C218 1.413 . S
C214 C213 1.348 . S
C214 C215 1.442 . S
C214 H236 0.930 . S
C215 C214 1.442 . S
C215 C216 1.381 . S
C215 H237 0.931 . S
C216 C215 1.381 . S
C216 C217 1.321 . S
C217 C216 1.321 . S
C217 C218 1.403 . S
C217 H238 0.934 . S
C218 C213 1.413 . S
C218 C217 1.403 . S
C218 H239 0.930 . S
C219 O230 1.275 . S
C219 O231 1.256 . S
O220 Ho200 2.322 . S
O220 C202 1.259 . S
O221 Ho201 2.346 . S
O221 C202 1.268 . S
O222 Ho200 2.378 . S
O222 C203 1.215 . S
O223 Ho200 2.524 . S
O223 C203 1.289 . S
O224 Ho200 2.381 . S
O224 C210 1.275 . S
O225 Ho200 2.669 . S
O225 Ho201 2.305 . S
O225 C210 1.256 . S
O226 Ho201 2.322 . S
O226 C211 1.259 . S
O227 Ho200 2.339 1_545 S
O227 C211 1.268 1_545 S
O228 Ho201 2.378 1_556 S
O228 C212 1.215 . S
O229 Ho201 2.524 1_556 S
O229 C212 1.289 . S
O230 Ho201 2.381 . S
O230 C219 1.275 . S
O231 Ho200 2.305 . S
O231 Ho201 2.669 . S
O231 C219 1.256 . S
H232 C205 0.930 . S
H233 C206 0.931 . S
H234 C208 0.934 . S
H235 C209 0.930 . S
H236 C214 0.930 . S
H237 C215 0.931 . S
H238 C217 0.934 . S
H239 C218 0.930 . S
Ho240 C243 2.811 . S
Ho240 O260 2.322 . S
Ho240 O262 2.378 . S
Ho240 O263 2.524 . S
Ho240 O264 2.381 . S
Ho240 O265 2.669 . S
Ho240 O267 2.346 . S
Ho240 O271 2.305 . S
Ho241 C252 2.811 . S
Ho241 O261 2.346 . S
Ho241 O265 2.305 . S
Ho241 O266 2.322 . S
Ho241 O268 2.378 . S
Ho241 O269 2.524 . S
Ho241 O270 2.381 . S
Ho241 O271 2.669 . S
C242 O260 1.259 . S
C242 O261 1.268 . S
C243 Ho240 2.811 . S
C243 C244 1.488 . S
C243 O262 1.215 . S
C243 O263 1.289 . S
C244 C243 1.488 . S
C244 C245 1.348 . S
C244 C249 1.413 . S
C245 C244 1.348 . S
C245 C246 1.442 1_554 S
C245 H272 0.930 . S
C246 C245 1.442 1_556 S
C246 C247 1.381 . S
C246 H273 0.931 . S
C247 C246 1.381 . S
C247 C248 1.321 . S
C248 C247 1.321 . S
C248 C249 1.403 1_556 S
C248 H274 0.934 . S
C249 C244 1.413 . S
C249 C248 1.403 1_554 S
C249 H275 0.930 . S
C250 O264 1.275 . S
C250 O265 1.256 . S
C251 O266 1.259 . S
C251 O267 1.268 . S
C252 Ho241 2.811 . S
C252 C253 1.488 . S
C252 O268 1.215 . S
C252 O269 1.289 . S
C253 C252 1.488 . S
C253 C254 1.348 . S
C253 C258 1.413 . S
C254 C253 1.348 . S
C254 C255 1.442 . S
C254 H276 0.930 . S
C255 C254 1.442 . S
C255 C256 1.381 . S
C255 H277 0.931 . S
C256 C255 1.381 . S
C256 C257 1.321 . S
C257 C256 1.321 . S
C257 C258 1.403 . S
C257 H278 0.934 . S
C258 C253 1.413 . S
C258 C257 1.403 . S
C258 H279 0.930 . S
C259 O270 1.275 . S
C259 O271 1.256 . S
O260 Ho240 2.322 . S
O260 C242 1.259 . S
O261 Ho241 2.346 . S
O261 C242 1.268 . S
O262 Ho240 2.378 . S
O262 C243 1.215 . S
O263 Ho240 2.524 . S
O263 C243 1.289 . S
O264 Ho240 2.381 . S
O264 C250 1.275 . S
O265 Ho240 2.669 . S
O265 Ho241 2.305 . S
O265 C250 1.256 . S
O266 Ho241 2.322 . S
O266 C251 1.259 . S
O267 Ho240 2.346 . S
O267 C251 1.268 . S
O268 Ho241 2.378 . S
O268 C252 1.215 . S
O269 Ho241 2.524 . S
O269 C252 1.289 . S
O270 Ho241 2.381 . S
O270 C259 1.275 . S
O271 Ho240 2.305 . S
O271 Ho241 2.669 . S
O271 C259 1.256 . S
H272 C245 0.930 . S
H273 C246 0.931 . S
H274 C248 0.934 . S
H275 C249 0.930 . S
H276 C254 0.930 . S
H277 C255 0.931 . S
H278 C257 0.934 . S
H279 C258 0.930 . S
Ho280 C283 2.811 . S
Ho280 O300 2.322 . S
Ho280 O302 2.378 . S
Ho280 O303 2.524 . S
Ho280 O304 2.381 . S
Ho280 O305 2.669 . S
Ho280 O307 2.346 . S
Ho280 O311 2.305 . S
Ho281 C292 2.811 . S
Ho281 O301 2.346 . S
Ho281 O305 2.305 . S
Ho281 O306 2.322 . S
Ho281 O308 2.378 . S
Ho281 O309 2.524 . S
Ho281 O310 2.381 . S
Ho281 O311 2.669 . S
C282 O300 1.259 . S
C282 O301 1.268 . S
C283 Ho280 2.811 . S
C283 C284 1.488 . S
C283 O302 1.215 . S
C283 O303 1.289 . S
C284 C283 1.488 . S
C284 C285 1.348 . S
C284 C289 1.413 . S
C285 C284 1.348 . S
C285 C286 1.442 . S
C285 H312 0.930 . S
C286 C285 1.442 . S
C286 C287 1.381 . S
C286 H313 0.931 . S
C287 C286 1.381 . S
C287 C288 1.321 . S
C288 C287 1.321 . S
C288 C289 1.403 . S
C288 H314 0.934 . S
C289 C284 1.413 . S
C289 C288 1.403 . S
C289 H315 0.930 . S
C290 O304 1.275 . S
C290 O305 1.256 . S
C291 O306 1.259 . S
C291 O307 1.268 . S
C292 Ho281 2.811 . S
C292 C293 1.488 . S
C292 O308 1.215 . S
C292 O309 1.289 . S
C293 C292 1.488 . S
C293 C294 1.348 . S
C293 C298 1.413 . S
C294 C293 1.348 . S
C294 C295 1.442 1_556 S
C294 H316 0.930 . S
C295 C294 1.442 1_554 S
C295 C296 1.381 . S
C295 H317 0.931 . S
C296 C295 1.381 . S
C296 C297 1.321 . S
C297 C296 1.321 . S
C297 C298 1.403 1_554 S
C297 H318 0.934 . S
C298 C293 1.413 . S
C298 C297 1.403 1_556 S
C298 H319 0.930 . S
C299 O310 1.275 . S
C299 O311 1.256 . S
O300 Ho280 2.322 . S
O300 C282 1.259 . S
O301 Ho281 2.346 . S
O301 C282 1.268 . S
O302 Ho280 2.378 . S
O302 C283 1.215 . S
O303 Ho280 2.524 . S
O303 C283 1.289 . S
O304 Ho280 2.381 . S
O304 C290 1.275 . S
O305 Ho280 2.669 . S
O305 Ho281 2.305 . S
O305 C290 1.256 . S
O306 Ho281 2.322 . S
O306 C291 1.259 . S
O307 Ho280 2.346 . S
O307 C291 1.268 . S
O308 Ho281 2.378 . S
O308 C292 1.215 . S
O309 Ho281 2.524 . S
O309 C292 1.289 . S
O310 Ho281 2.381 . S
O310 C299 1.275 . S
O311 Ho280 2.305 . S
O311 Ho281 2.669 . S
O311 C299 1.256 . S
H312 C285 0.930 . S
H313 C286 0.931 . S
H314 C288 0.934 . S
H315 C289 0.930 . S
H316 C294 0.930 . S
H317 C295 0.931 . S
H318 C297 0.934 . S
H319 C298 0.930 . S
Ho320 C323 2.811 . S
Ho320 O340 2.322 . S
Ho320 O342 2.378 . S
Ho320 O343 2.524 . S
Ho320 O344 2.381 . S
Ho320 O345 2.669 . S
Ho320 O347 2.346 . S
Ho320 O351 2.305 . S
Ho321 C332 2.811 1_556 S
Ho321 O341 2.346 . S
Ho321 O345 2.305 . S
Ho321 O346 2.322 . S
Ho321 O348 2.378 1_556 S
Ho321 O349 2.524 1_556 S
Ho321 O350 2.381 . S
Ho321 O351 2.669 . S
C322 O340 1.259 . S
C322 O341 1.268 . S
C323 Ho320 2.811 . S
C323 C324 1.488 . S
C323 O342 1.215 . S
C323 O343 1.289 . S
C324 C323 1.488 . S
C324 C325 1.348 . S
C324 C329 1.413 . S
C325 C324 1.348 . S
C325 C326 1.442 . S
C325 H352 0.930 . S
C326 C325 1.442 . S
C326 C327 1.381 . S
C326 H353 0.931 . S
C327 C326 1.381 . S
C327 C328 1.321 . S
C328 C327 1.321 . S
C328 C329 1.403 . S
C328 H354 0.934 . S
C329 C324 1.413 . S
C329 C328 1.403 . S
C329 H355 0.930 . S
C330 O344 1.275 . S
C330 O345 1.256 . S
C331 O346 1.259 . S
C331 O347 1.268 . S
C332 Ho321 2.811 1_554 S
C332 C333 1.488 . S
C332 O348 1.215 . S
C332 O349 1.289 . S
C333 C332 1.488 . S
C333 C334 1.348 . S
C333 C338 1.413 . S
C334 C333 1.348 . S
C334 C335 1.442 . S
C334 H356 0.930 . S
C335 C334 1.442 . S
C335 C336 1.381 . S
C335 H357 0.931 . S
C336 C335 1.381 . S
C336 C337 1.321 . S
C337 C336 1.321 . S
C337 C338 1.403 . S
C337 H358 0.934 . S
C338 C333 1.413 . S
C338 C337 1.403 . S
C338 H359 0.930 . S
C339 O350 1.275 . S
C339 O351 1.256 . S
O340 Ho320 2.322 . S
O340 C322 1.259 . S
O341 Ho321 2.346 . S
O341 C322 1.268 . S
O342 Ho320 2.378 . S
O342 C323 1.215 . S
O343 Ho320 2.524 . S
O343 C323 1.289 . S
O344 Ho320 2.381 . S
O344 C330 1.275 . S
O345 Ho320 2.669 . S
O345 Ho321 2.305 . S
O345 C330 1.256 . S
O346 Ho321 2.322 . S
O346 C331 1.259 . S
O347 Ho320 2.346 . S
O347 C331 1.268 . S
O348 Ho321 2.378 1_554 S
O348 C332 1.215 . S
O349 Ho321 2.524 1_554 S
O349 C332 1.289 . S
O350 Ho321 2.381 . S
O350 C339 1.275 . S
O351 Ho320 2.305 . S
O351 Ho321 2.669 . S
O351 C339 1.256 . S
H352 C325 0.930 . S
H353 C326 0.931 . S
H354 C328 0.934 . S
H355 C329 0.930 . S
H356 C334 0.930 . S
H357 C335 0.931 . S
H358 C337 0.934 . S
H359 C338 0.930 . S
Ho360 C363 2.811 . S
Ho360 O380 2.322 . S
Ho360 O382 2.378 . S
Ho360 O383 2.524 . S
Ho360 O384 2.381 . S
Ho360 O385 2.669 . S
Ho360 O387 2.346 . S
Ho360 O391 2.305 . S
Ho361 C372 2.811 . S
Ho361 O381 2.346 . S
Ho361 O385 2.305 . S
Ho361 O386 2.322 . S
Ho361 O388 2.378 . S
Ho361 O389 2.524 . S
Ho361 O390 2.381 . S
Ho361 O391 2.669 . S
C362 O380 1.259 . S
C362 O381 1.268 . S
C363 Ho360 2.811 . S
C363 C364 1.488 . S
C363 O382 1.215 . S
C363 O383 1.289 . S
C364 C363 1.488 . S
C364 C365 1.348 . S
C364 C369 1.413 . S
C365 C364 1.348 . S
C365 C366 1.442 1_556 S
C365 H392 0.930 . S
C366 C365 1.442 1_554 S
C366 C367 1.381 . S
C366 H393 0.931 . S
C367 C366 1.381 . S
C367 C368 1.321 . S
C368 C367 1.321 . S
C368 C369 1.403 1_554 S
C368 H394 0.934 . S
C369 C364 1.413 . S
C369 C368 1.403 1_556 S
C369 H395 0.930 . S
C370 O384 1.275 . S
C370 O385 1.256 . S
C371 O386 1.259 . S
C371 O387 1.268 . S
C372 Ho361 2.811 . S
C372 C373 1.488 . S
C372 O388 1.215 . S
C372 O389 1.289 . S
C373 C372 1.488 . S
C373 C374 1.348 . S
C373 C378 1.413 . S
C374 C373 1.348 . S
C374 C375 1.442 . S
C374 H396 0.930 . S
C375 C374 1.442 . S
C375 C376 1.381 . S
C375 H397 0.931 . S
C376 C375 1.381 . S
C376 C377 1.321 . S
C377 C376 1.321 . S
C377 C378 1.403 . S
C377 H398 0.934 . S
C378 C373 1.413 . S
C378 C377 1.403 . S
C378 H399 0.930 . S
C379 O390 1.275 . S
C379 O391 1.256 . S
O380 Ho360 2.322 . S
O380 C362 1.259 . S
O381 Ho361 2.346 . S
O381 C362 1.268 . S
O382 Ho360 2.378 . S
O382 C363 1.215 . S
O383 Ho360 2.524 . S
O383 C363 1.289 . S
O384 Ho360 2.381 . S
O384 C370 1.275 . S
O385 Ho360 2.669 . S
O385 Ho361 2.305 . S
O385 C370 1.256 . S
O386 Ho361 2.322 . S
O386 C371 1.259 . S
O387 Ho360 2.346 . S
O387 C371 1.268 . S
O388 Ho361 2.378 . S
O388 C372 1.215 . S
O389 Ho361 2.524 . S
O389 C372 1.289 . S
O390 Ho361 2.381 . S
O390 C379 1.275 . S
O391 Ho360 2.305 . S
O391 Ho361 2.669 . S
O391 C379 1.256 . S
H392 C365 0.930 . S
H393 C366 0.931 . S
H394 C368 0.934 . S
H395 C369 0.930 . S
H396 C374 0.930 . S
H397 C375 0.931 . S
H398 C377 0.934 . S
H399 C378 0.930 . S
Ho400 C403 2.811 . S
Ho400 O420 2.322 . S
Ho400 O422 2.378 . S
Ho400 O423 2.524 . S
Ho400 O424 2.381 . S
Ho400 O425 2.669 . S
Ho400 O427 2.346 . S
Ho400 O431 2.305 . S
Ho401 C412 2.811 . S
Ho401 O421 2.346 . S
Ho401 O425 2.305 . S
Ho401 O426 2.322 . S
Ho401 O428 2.378 . S
Ho401 O429 2.524 . S
Ho401 O430 2.381 . S
Ho401 O431 2.669 . S
C402 O420 1.259 . S
C402 O421 1.268 . S
C403 Ho400 2.811 . S
C403 C404 1.488 . S
C403 O422 1.215 . S
C403 O423 1.289 . S
C404 C403 1.488 . S
C404 C405 1.348 . S
C404 C409 1.413 . S
C405 C404 1.348 . S
C405 C406 1.442 . S
C405 H432 0.930 . S
C406 C405 1.442 . S
C406 C407 1.381 . S
C406 H433 0.931 . S
C407 C406 1.381 . S
C407 C408 1.321 . S
C408 C407 1.321 . S
C408 C409 1.403 . S
C408 H434 0.934 . S
C409 C404 1.413 . S
C409 C408 1.403 . S
C409 H435 0.930 . S
C410 O424 1.275 . S
C410 O425 1.256 . S
C411 O426 1.259 . S
C411 O427 1.268 . S
C412 Ho401 2.811 . S
C412 C413 1.488 . S
C412 O428 1.215 . S
C412 O429 1.289 . S
C413 C412 1.488 . S
C413 C414 1.348 . S
C413 C418 1.413 . S
C414 C413 1.348 . S
C414 C415 1.442 1_554 S
C414 H436 0.930 . S
C415 C414 1.442 1_556 S
C415 C416 1.381 . S
C415 H437 0.931 . S
C416 C415 1.381 . S
C416 C417 1.321 . S
C417 C416 1.321 . S
C417 C418 1.403 1_556 S
C417 H438 0.934 . S
C418 C413 1.413 . S
C418 C417 1.403 1_554 S
C418 H439 0.930 . S
C419 O430 1.275 . S
C419 O431 1.256 . S
O420 Ho400 2.322 . S
O420 C402 1.259 . S
O421 Ho401 2.346 . S
O421 C402 1.268 . S
O422 Ho400 2.378 . S
O422 C403 1.215 . S
O423 Ho400 2.524 . S
O423 C403 1.289 . S
O424 Ho400 2.381 . S
O424 C410 1.275 . S
O425 Ho400 2.669 . S
O425 Ho401 2.305 . S
O425 C410 1.256 . S
O426 Ho401 2.322 . S
O426 C411 1.259 . S
O427 Ho400 2.346 . S
O427 C411 1.268 . S
O428 Ho401 2.378 . S
O428 C412 1.215 . S
O429 Ho401 2.524 . S
O429 C412 1.289 . S
O430 Ho401 2.381 . S
O430 C419 1.275 . S
O431 Ho400 2.305 . S
O431 Ho401 2.669 . S
O431 C419 1.256 . S
H432 C405 0.930 . S
H433 C406 0.931 . S
H434 C408 0.934 . S
H435 C409 0.930 . S
H436 C414 0.930 . S
H437 C415 0.931 . S
H438 C417 0.934 . S
H439 C418 0.930 . S
Ho440 C443 2.811 1_554 S
Ho440 O460 2.322 . S
Ho440 O462 2.378 1_554 S
Ho440 O463 2.524 1_554 S
Ho440 O464 2.381 . S
Ho440 O465 2.669 . S
Ho440 O467 2.346 . S
Ho440 O471 2.305 . S
Ho441 C452 2.811 . S
Ho441 O461 2.360 . S
Ho441 O465 2.305 . S
Ho441 O466 2.322 . S
Ho441 O468 2.378 . S
Ho441 O469 2.524 . S
Ho441 O470 2.381 . S
Ho441 O471 2.669 . S
C442 O460 1.259 . S
C442 O461 1.266 . S
C443 Ho440 2.811 1_556 S
C443 C444 1.488 . S
C443 O462 1.215 . S
C443 O463 1.289 . S
C444 C443 1.488 . S
C444 C445 1.348 . S
C444 C449 1.413 . S
C445 C444 1.348 . S
C445 C446 1.442 . S
C445 H472 0.930 . S
C446 C445 1.442 . S
C446 C447 1.381 . S
C446 H473 0.931 . S
C447 C446 1.381 . S
C447 C448 1.321 . S
C448 C447 1.321 . S
C448 C449 1.403 . S
C448 H474 0.934 . S
C449 C444 1.413 . S
C449 C448 1.403 . S
C449 H475 0.930 . S
C450 O464 1.275 . S
C450 O465 1.256 . S
C451 O466 1.259 . S
C451 O467 1.268 . S
C452 Ho441 2.811 . S
C452 C453 1.488 . S
C452 O468 1.215 . S
C452 O469 1.289 . S
C453 C452 1.488 . S
C453 C454 1.348 . S
C453 C458 1.413 . S
C454 C453 1.348 . S
C454 C455 1.442 . S
C454 H476 0.930 . S
C455 C454 1.442 . S
C455 C456 1.381 . S
C455 H477 0.931 . S
C456 C455 1.381 . S
C456 C457 1.321 . S
C457 C456 1.321 . S
C457 C458 1.403 . S
C457 H478 0.934 . S
C458 C453 1.413 . S
C458 C457 1.403 . S
C458 H479 0.930 . S
C459 O470 1.275 . S
C459 O471 1.256 . S
O460 Ho440 2.322 . S
O460 C442 1.259 . S
O461 Ho441 2.360 . S
O461 C442 1.266 . S
O462 Ho440 2.378 1_556 S
O462 C443 1.215 . S
O463 Ho440 2.524 1_556 S
O463 C443 1.289 . S
O464 Ho440 2.381 . S
O464 C450 1.275 . S
O465 Ho440 2.669 . S
O465 Ho441 2.305 . S
O465 C450 1.256 . S
O466 Ho441 2.322 . S
O466 C451 1.259 . S
O467 Ho440 2.346 . S
O467 C451 1.268 . S
O468 Ho441 2.378 . S
O468 C452 1.215 . S
O469 Ho441 2.524 . S
O469 C452 1.289 . S
O470 Ho441 2.381 . S
O470 C459 1.275 . S
O471 Ho440 2.305 . S
O471 Ho441 2.669 . S
O471 C459 1.256 . S
H472 C445 0.930 . S
H473 C446 0.931 . S
H474 C448 0.934 . S
H475 C449 0.930 . S
H476 C454 0.930 . S
H477 C455 0.931 . S
H478 C457 0.934 . S
H479 C458 0.930 . S
Ho480 C483 2.811 . S
Ho480 O500 2.322 . S
Ho480 O502 2.378 . S
Ho480 O503 2.524 . S
Ho480 O504 2.381 . S
Ho480 O505 2.669 . S
Ho480 O507 2.346 . S
Ho480 O511 2.305 . S
Ho481 C492 2.811 1_554 S
Ho481 O501 2.346 . S
Ho481 O505 2.305 . S
Ho481 O506 2.322 . S
Ho481 O508 2.378 1_554 S
Ho481 O509 2.524 1_554 S
Ho481 O510 2.381 . S
Ho481 O511 2.669 . S
C482 O500 1.259 . S
C482 O501 1.268 . S
C483 Ho480 2.811 . S
C483 C484 1.488 . S
C483 O502 1.215 . S
C483 O503 1.289 . S
C484 C483 1.488 . S
C484 C485 1.348 . S
C484 C489 1.413 . S
C485 C484 1.348 . S
C485 C486 1.442 . S
C485 H512 0.930 . S
C486 C485 1.442 . S
C486 C487 1.381 . S
C486 H513 0.931 . S
C487 C486 1.381 . S
C487 C488 1.321 . S
C488 C487 1.321 . S
C488 C489 1.403 . S
C488 H514 0.934 . S
C489 C484 1.413 . S
C489 C488 1.403 . S
C489 H515 0.930 . S
C490 O504 1.275 . S
C490 O505 1.256 . S
C491 O506 1.259 . S
C491 O507 1.268 . S
C492 Ho481 2.811 1_556 S
C492 C493 1.488 . S
C492 O508 1.215 . S
C492 O509 1.289 . S
C493 C492 1.488 . S
C493 C494 1.348 . S
C493 C498 1.413 . S
C494 C493 1.348 . S
C494 C495 1.442 . S
C494 H516 0.930 . S
C495 C494 1.442 . S
C495 C496 1.381 . S
C495 H517 0.931 . S
C496 C495 1.381 . S
C496 C497 1.321 . S
C497 C496 1.321 . S
C497 C498 1.403 . S
C497 H518 0.934 . S
C498 C493 1.413 . S
C498 C497 1.403 . S
C498 H519 0.930 . S
C499 O510 1.275 . S
C499 O511 1.256 . S
O500 Ho480 2.322 . S
O500 C482 1.259 . S
O501 Ho481 2.346 . S
O501 C482 1.268 . S
O502 Ho480 2.378 . S
O502 C483 1.215 . S
O503 Ho480 2.524 . S
O503 C483 1.289 . S
O504 Ho480 2.381 . S
O504 C490 1.275 . S
O505 Ho480 2.669 . S
O505 Ho481 2.305 . S
O505 C490 1.256 . S
O506 Ho481 2.322 . S
O506 C491 1.259 . S
O507 Ho480 2.346 . S
O507 C491 1.268 . S
O508 Ho481 2.378 1_556 S
O508 C492 1.215 . S
O509 Ho481 2.524 1_556 S
O509 C492 1.289 . S
O510 Ho481 2.381 . S
O510 C499 1.275 . S
O511 Ho480 2.305 . S
O511 Ho481 2.669 . S
O511 C499 1.256 . S
H512 C485 0.930 . S
H513 C486 0.931 . S
H514 C488 0.934 . S
H515 C489 0.930 . S
H516 C494 0.930 . S
H517 C495 0.931 . S
H518 C497 0.934 . S
H519 C498 0.930 . S
Ho520 C523 2.811 1_556 S
Ho520 O540 2.322 . S
Ho520 O542 2.378 1_556 S
Ho520 O543 2.524 1_556 S
Ho520 O544 2.381 . S
Ho520 O545 2.669 . S
Ho520 O547 2.346 . S
Ho520 O551 2.305 . S
Ho521 C532 2.811 . S
Ho521 O541 2.346 1_545 S
Ho521 O545 2.305 . S
Ho521 O546 2.322 . S
Ho521 O548 2.378 . S
Ho521 O549 2.524 . S
Ho521 O550 2.381 . S
Ho521 O551 2.669 . S
C522 O540 1.259 . S
C522 O541 1.268 1_545 S
C523 Ho520 2.811 1_554 S
C523 C524 1.488 . S
C523 O542 1.215 . S
C523 O543 1.289 . S
C524 C523 1.488 . S
C524 C525 1.348 . S
C524 C529 1.413 . S
C525 C524 1.348 . S
C525 C526 1.442 . S
C525 H552 0.930 . S
C526 C525 1.442 . S
C526 C527 1.381 . S
C526 H553 0.931 . S
C527 C526 1.381 . S
C527 C528 1.321 . S
C528 C527 1.321 . S
C528 C529 1.403 . S
C528 H554 0.934 . S
C529 C524 1.413 . S
C529 C528 1.403 . S
C529 H555 0.930 . S
C530 O544 1.275 . S
C530 O545 1.256 . S
C531 O546 1.259 . S
C531 O547 1.268 . S
C532 Ho521 2.811 . S
C532 C533 1.488 . S
C532 O548 1.215 . S
C532 O549 1.289 . S
C533 C532 1.488 . S
C533 C534 1.348 . S
C533 C538 1.413 . S
C534 C533 1.348 . S
C534 C535 1.442 . S
C534 H556 0.930 . S
C535 C534 1.442 . S
C535 C536 1.381 . S
C535 H557 0.931 . S
C536 C535 1.381 . S
C536 C537 1.321 . S
C537 C536 1.321 . S
C537 C538 1.403 . S
C537 H558 0.934 . S
C538 C533 1.413 . S
C538 C537 1.403 . S
C538 H559 0.930 . S
C539 O550 1.275 . S
C539 O551 1.256 . S
O540 Ho520 2.322 . S
O540 C522 1.259 . S
O541 Ho521 2.346 1_565 S
O541 C522 1.268 1_565 S
O542 Ho520 2.378 1_554 S
O542 C523 1.215 . S
O543 Ho520 2.524 1_554 S
O543 C523 1.289 . S
O544 Ho520 2.381 . S
O544 C530 1.275 . S
O545 Ho520 2.669 . S
O545 Ho521 2.305 . S
O545 C530 1.256 . S
O546 Ho521 2.322 . S
O546 C531 1.259 . S
O547 Ho520 2.346 . S
O547 C531 1.268 . S
O548 Ho521 2.378 . S
O548 C532 1.215 . S
O549 Ho521 2.524 . S
O549 C532 1.289 . S
O550 Ho521 2.381 . S
O550 C539 1.275 . S
O551 Ho520 2.305 . S
O551 Ho521 2.669 . S
O551 C539 1.256 . S
H552 C525 0.930 . S
H553 C526 0.931 . S
H554 C528 0.934 . S
H555 C529 0.930 . S
H556 C534 0.930 . S
H557 C535 0.931 . S
H558 C537 0.934 . S
H559 C538 0.930 . S
Ho560 C563 2.811 . S
Ho560 O580 2.322 . S
Ho560 O582 2.378 . S
Ho560 O583 2.524 . S
Ho560 O584 2.381 . S
Ho560 O585 2.669 . S
Ho560 O587 2.346 . S
Ho560 O591 2.305 . S
Ho561 C572 2.811 . S
Ho561 O581 2.346 . S
Ho561 O585 2.305 . S
Ho561 O586 2.322 . S
Ho561 O588 2.378 . S
Ho561 O589 2.524 . S
Ho561 O590 2.381 . S
Ho561 O591 2.669 . S
C562 O580 1.259 . S
C562 O581 1.268 . S
C563 Ho560 2.811 . S
C563 C564 1.488 . S
C563 O582 1.215 . S
C563 O583 1.289 . S
C564 C563 1.488 . S
C564 C565 1.348 . S
C564 C569 1.413 . S
C565 C564 1.348 . S
C565 C566 1.442 . S
C565 H592 0.930 . S
C566 C565 1.442 . S
C566 C567 1.381 . S
C566 H593 0.931 . S
C567 C566 1.381 . S
C567 C568 1.321 . S
C568 C567 1.321 . S
C568 C569 1.403 . S
C568 H594 0.934 . S
C569 C564 1.413 . S
C569 C568 1.403 . S
C569 H595 0.930 . S
C570 O584 1.275 . S
C570 O585 1.256 . S
C571 O586 1.259 . S
C571 O587 1.268 . S
C572 Ho561 2.811 . S
C572 C573 1.488 . S
C572 O588 1.215 . S
C572 O589 1.289 . S
C573 C572 1.488 . S
C573 C574 1.348 . S
C573 C578 1.413 . S
C574 C573 1.348 . S
C574 C575 1.442 1_556 S
C574 H596 0.930 . S
C575 C574 1.442 1_554 S
C575 C576 1.381 . S
C575 H597 0.931 . S
C576 C575 1.381 . S
C576 C577 1.321 . S
C577 C576 1.321 . S
C577 C578 1.403 1_554 S
C577 H598 0.934 . S
C578 C573 1.413 . S
C578 C577 1.403 1_556 S
C578 H599 0.930 . S
C579 O590 1.275 . S
C579 O591 1.256 . S
O580 Ho560 2.322 . S
O580 C562 1.259 . S
O581 Ho561 2.346 . S
O581 C562 1.268 . S
O582 Ho560 2.378 . S
O582 C563 1.215 . S
O583 Ho560 2.524 . S
O583 C563 1.289 . S
O584 Ho560 2.381 . S
O584 C570 1.275 . S
O585 Ho560 2.669 . S
O585 Ho561 2.305 . S
O585 C570 1.256 . S
O586 Ho561 2.322 . S
O586 C571 1.259 . S
O587 Ho560 2.346 . S
O587 C571 1.268 . S
O588 Ho561 2.378 . S
O588 C572 1.215 . S
O589 Ho561 2.524 . S
O589 C572 1.289 . S
O590 Ho561 2.381 . S
O590 C579 1.275 . S
O591 Ho560 2.305 . S
O591 Ho561 2.669 . S
O591 C579 1.256 . S
H592 C565 0.930 . S
H593 C566 0.931 . S
H594 C568 0.934 . S
H595 C569 0.930 . S
H596 C574 0.930 . S
H597 C575 0.931 . S
H598 C577 0.934 . S
H599 C578 0.930 . S
Ho600 C603 2.811 . S
Ho600 O620 2.322 . S
Ho600 O622 2.378 . S
Ho600 O623 2.524 . S
Ho600 O624 2.381 . S
Ho600 O625 2.669 . S
Ho600 O627 2.346 . S
Ho600 O631 2.305 . S
Ho601 C612 2.811 . S
Ho601 O621 2.346 . S
Ho601 O625 2.305 . S
Ho601 O626 2.322 . S
Ho601 O628 2.378 . S
Ho601 O629 2.524 . S
Ho601 O630 2.381 . S
Ho601 O631 2.669 . S
C602 O620 1.259 . S
C602 O621 1.268 . S
C603 Ho600 2.811 . S
C603 C604 1.488 . S
C603 O622 1.215 . S
C603 O623 1.289 . S
C604 C603 1.488 . S
C604 C605 1.348 . S
C604 C609 1.413 . S
C605 C604 1.348 . S
C605 C606 1.442 1_554 S
C605 H632 0.930 . S
C606 C605 1.442 1_556 S
C606 C607 1.381 . S
C606 H633 0.931 . S
C607 C606 1.381 . S
C607 C608 1.321 . S
C608 C607 1.321 . S
C608 C609 1.403 1_556 S
C608 H634 0.934 . S
C609 C604 1.413 . S
C609 C608 1.403 1_554 S
C609 H635 0.930 . S
C610 O624 1.275 . S
C610 O625 1.256 . S
C611 O626 1.259 . S
C611 O627 1.268 . S
C612 Ho601 2.811 . S
C612 C613 1.488 . S
C612 O628 1.215 . S
C612 O629 1.289 . S
C613 C612 1.488 . S
C613 C614 1.348 . S
C613 C618 1.413 . S
C614 C613 1.348 . S
C614 C615 1.442 . S
C614 H636 0.930 . S
C615 C614 1.442 . S
C615 C616 1.381 . S
C615 H637 0.931 . S
C616 C615 1.381 . S
C616 C617 1.321 . S
C617 C616 1.321 . S
C617 C618 1.403 . S
C617 H638 0.934 . S
C618 C613 1.413 . S
C618 C617 1.403 . S
C618 H639 0.930 . S
C619 O630 1.275 . S
C619 O631 1.256 . S
O620 Ho600 2.322 . S
O620 C602 1.259 . S
O621 Ho601 2.346 . S
O621 C602 1.268 . S
O622 Ho600 2.378 . S
O622 C603 1.215 . S
O623 Ho600 2.524 . S
O623 C603 1.289 . S
O624 Ho600 2.381 . S
O624 C610 1.275 . S
O625 Ho600 2.669 . S
O625 Ho601 2.305 . S
O625 C610 1.256 . S
O626 Ho601 2.322 . S
O626 C611 1.259 . S
O627 Ho600 2.346 . S
O627 C611 1.268 . S
O628 Ho601 2.378 . S
O628 C612 1.215 . S
O629 Ho601 2.524 . S
O629 C612 1.289 . S
O630 Ho601 2.381 . S
O630 C619 1.275 . S
O631 Ho600 2.305 . S
O631 Ho601 2.669 . S
O631 C619 1.256 . S
H632 C605 0.930 . S
H633 C606 0.931 . S
H634 C608 0.934 . S
H635 C609 0.930 . S
H636 C614 0.930 . S
H637 C615 0.931 . S
H638 C617 0.934 . S
H639 C618 0.930 . S
C7 C16 2.637 . S
C56 C47 2.456 . S
C87 C96 3.712 . S
C127 C136 2.349 . S
C167 C176 2.546 . S
C216 C207 2.537 . S
C256 C247 2.111 . S
C296 C287 2.672 . S
C336 C327 2.429 . S
C376 C367 2.368 . S
C416 C407 3.006 . S
C456 C447 2.202 . S
C496 C487 2.640 . S
C536 C527 2.862 . S
C567 C576 2.298 . S
C607 C616 2.902 . S
C10 C451 1.855 . S
C42 C611 2.022 . S
C90 C379 1.668 . S
C130 C539 1.793 1_655 S
C170 C531 1.992 . S
C459 C210 1.751 1_455 S
C242 C619 1.780 . S
C282 C371 2.173 . S
C122 C339 1.915 . S
C50 C411 1.865 . S
C499 C202 1.929 . S
C290 C571 1.741 . S
C331 C162 2.155 1_655 S
C250 C419 1.858 . S
C82 C579 2.140 . S
C2 C491 2.059 1_455 S
C19 C179 2.981 1_554 S
C51 C219 3.192 . S
C99 C251 3.650 . S
C139 C291 3.132 . S
C490 C330 3.219 1_554 S
C530 C362 3.659 . S
C402 C562 2.804 . S
C602 C450 2.940 . S
C59 C299 3.035 1_565 S
C171 C91 2.820 . S
C211 C131 3.231 1_564 S
C11 C259 3.186 . S
C610 C370 2.813 1_565 S
C482 C410 3.155 . S
C522 C442 3.258 1_546 S
C570 C322 3.366 . S
