# Generated by pormake.
# Topology wht, (6)-cn, num edge types: 1
# Building blocks:
#     Node 0, Type 0, BuildingBlock: MIDCAF_clean_sbu_0, # of connection points: 6
#     Node 1, Type 0, BuildingBlock: MIDCAF_clean_sbu_0, # of connection points: 6
#     Node 2, Type 0, BuildingBlock: MIDCAF_clean_sbu_0, # of connection points: 6
#     Node 3, Type 0, BuildingBlock: MIDCAF_clean_sbu_0, # of connection points: 6
#     Node 4, Type 0, BuildingBlock: MIDCAF_clean_sbu_0, # of connection points: 6
#     Node 5, Type 0, BuildingBlock: MIDCAF_clean_sbu_0, # of connection points: 6
#     Node 6, Type 0, BuildingBlock: MIDCAF_clean_sbu_0, # of connection points: 6
#     Node 7, Type 0, BuildingBlock: MIDCAF_clean_sbu_0, # of connection points: 6
#     Edge 8, Type (0, 0), BuildingBlock: MIFKUJ_clean_linker_0, # of connection points: 2
#     Edge 9, Type (0, 0), BuildingBlock: MIFKUJ_clean_linker_0, # of connection points: 2
#     Edge 10, Type (0, 0), BuildingBlock: MIFKUJ_clean_linker_0, # of connection points: 2
#     Edge 11, Type (0, 0), BuildingBlock: MIFKUJ_clean_linker_0, # of connection points: 2
#     Edge 12, Type (0, 0), BuildingBlock: MIFKUJ_clean_linker_0, # of connection points: 2
#     Edge 13, Type (0, 0), BuildingBlock: MIFKUJ_clean_linker_0, # of connection points: 2
#     Edge 14, Type (0, 0), BuildingBlock: MIFKUJ_clean_linker_0, # of connection points: 2
#     Edge 15, Type (0, 0), BuildingBlock: MIFKUJ_clean_linker_0, # of connection points: 2
#     Edge 16, Type (0, 0), BuildingBlock: MIFKUJ_clean_linker_0, # of connection points: 2
#     Edge 17, Type (0, 0), BuildingBlock: MIFKUJ_clean_linker_0, # of connection points: 2
#     Edge 18, Type (0, 0), BuildingBlock: MIFKUJ_clean_linker_0, # of connection points: 2
#     Edge 19, Type (0, 0), BuildingBlock: MIFKUJ_clean_linker_0, # of connection points: 2
#     Edge 20, Type (0, 0), BuildingBlock: MIFKUJ_clean_linker_0, # of connection points: 2
#     Edge 21, Type (0, 0), BuildingBlock: MIFKUJ_clean_linker_0, # of connection points: 2
#     Edge 22, Type (0, 0), BuildingBlock: MIFKUJ_clean_linker_0, # of connection points: 2
#     Edge 23, Type (0, 0), BuildingBlock: MIFKUJ_clean_linker_0, # of connection points: 2
#     Edge 24, Type (0, 0), BuildingBlock: MIFKUJ_clean_linker_0, # of connection points: 2
#     Edge 25, Type (0, 0), BuildingBlock: MIFKUJ_clean_linker_0, # of connection points: 2
#     Edge 26, Type (0, 0), BuildingBlock: MIFKUJ_clean_linker_0, # of connection points: 2
#     Edge 27, Type (0, 0), BuildingBlock: MIFKUJ_clean_linker_0, # of connection points: 2
#     Edge 28, Type (0, 0), BuildingBlock: MIFKUJ_clean_linker_0, # of connection points: 2
#     Edge 29, Type (0, 0), BuildingBlock: MIFKUJ_clean_linker_0, # of connection points: 2
#     Edge 30, Type (0, 0), BuildingBlock: MIFKUJ_clean_linker_0, # of connection points: 2
#     Edge 31, Type (0, 0), BuildingBlock: MIFKUJ_clean_linker_0, # of connection points: 2
# Relax obj value: 0.317
# Max RMSD: 0.224
# Mean RMSD: 0.224
data_MOF--net-wht--node1-MIDCAF_clean_sbu_0--edge1-MIFKUJ_clean_linker_0
_symmetry_space_group_name_H-M    P1
_symmetry_Int_Tables_number       1
_symmetry_cell_setting            triclinic
loop_
_symmetry_equiv_pos_as_xyz
'x, y, z'
_cell_length_a     34.477602
_cell_length_b     34.46631
_cell_length_c     52.566307
_cell_angle_alpha  90.031141
_cell_angle_beta   89.998955
_cell_angle_gamma 90.232184
loop_
_atom_site_label
_atom_site_type_symbol
_atom_site_fract_x
_atom_site_fract_y
_atom_site_fract_z
_atom_type_partial_charge
Zn0 Zn 0.11059 0.19211 0.19906 0.0
Zn1 Zn 0.13856 0.2568 0.12954 0.0
Zn2 Zn 0.10935 0.23297 0.16345 0.0
C3 C 0.10288 0.19216 0.11229 0.0
C4 C 0.05888 0.2761 0.12844 0.0
O5 O 0.11084 0.27719 0.19296 0.0
O6 O 0.11013 0.23459 0.22414 0.0
C7 C 0.16931 0.16445 0.17199 0.0
O8 O 0.08026 0.20464 0.13004 0.0
O9 O 0.13677 0.20633 0.11044 0.0
O10 O 0.09117 0.29222 0.12367 0.0
O11 O 0.05895 0.24325 0.14018 0.0
O12 O 0.15754 0.15949 0.19447 0.0
O13 O 0.15393 0.19051 0.15815 0.0
O14 O 0.04899 0.21281 0.1607 0.0
O15 O 0.05876 0.16945 0.19092 0.0
C16 C 0.03648 0.18491 0.17475 0.0
O17 O 0.13263 0.293 0.16869 0.0
O18 O 0.18489 0.28189 0.14588 0.0
C19 C 0.10971 0.26949 0.21682 0.0
C20 C 0.16616 0.30411 0.16058 0.0
Zn21 Zn 0.31202 0.61605 0.44328 0.0
Zn22 Zn 0.18964 0.5734 0.37795 0.0
Zn23 Zn 0.26709 0.60434 0.40981 0.0
C24 C 0.26055 0.5526 0.36172 0.0
C25 C 0.21123 0.53116 0.41464 0.0
O26 O 0.22749 0.62783 0.43749 0.0
O27 O 0.26967 0.62457 0.46887 0.0
C28 C 0.33817 0.66105 0.40405 0.0
O29 O 0.26486 0.55471 0.38588 0.0
O30 O 0.22673 0.5446 0.3538 0.0
O31 O 0.18723 0.55856 0.41602 0.0
O32 O 0.247 0.54142 0.4103 0.0
O33 O 0.34023 0.6613 0.42803 0.0
O34 O 0.31401 0.63837 0.39299 0.0
O35 O 0.28532 0.54532 0.41804 0.0
O36 O 0.33619 0.56266 0.44095 0.0
C37 C 0.31648 0.53642 0.43008 0.0
O38 O 0.21383 0.63889 0.41222 0.0
O39 O 0.19423 0.63149 0.37255 0.0
C40 C 0.23528 0.63005 0.46129 0.0
C41 C 0.19326 0.65021 0.39323 0.0
Zn42 Zn 0.86381 0.78784 0.69948 0.0
Zn43 Zn 0.89314 0.73399 0.62587 0.0
Zn44 Zn 0.88441 0.76124 0.66163 0.0
C45 C 0.87306 0.79832 0.60792 0.0
C46 C 0.96455 0.73156 0.64254 0.0
O47 O 0.9193 0.72836 0.68893 0.0
O48 O 0.86575 0.73232 0.71176 0.0
C49 C 0.83207 0.83306 0.66658 0.0
O50 O 0.88525 0.80534 0.63061 0.0
O51 O 0.86195 0.76447 0.6024 0.0
O52 O 0.9493 0.73973 0.62147 0.0
O53 O 0.94422 0.73536 0.66302 0.0
O54 O 0.817 0.81392 0.6846 0.0
O55 O 0.86409 0.82121 0.65684 0.0
O56 O 0.93886 0.76724 0.6833 0.0
O57 O 0.91473 0.8195 0.70107 0.0
C58 C 0.94418 0.80001 0.69454 0.0
O59 O 0.83837 0.71649 0.66033 0.0
O60 O 0.87424 0.68232 0.63441 0.0
C61 C 0.89703 0.71478 0.70656 0.0
C62 C 0.84448 0.68485 0.64821 0.0
Zn63 Zn 0.66946 0.39565 0.96139 0.0
Zn64 Zn 0.75297 0.35697 0.87676 0.0
Zn65 Zn 0.73264 0.38362 0.91454 0.0
C66 C 0.68441 0.39681 0.86836 0.0
C67 C 0.77498 0.43625 0.87833 0.0
O68 O 0.73556 0.37897 0.95294 0.0
O69 O 0.70661 0.3797 0.9896 0.0
C70 C 0.65708 0.33432 0.91901 0.0
O71 O 0.69909 0.41677 0.88671 0.0
O72 O 0.69892 0.36414 0.86265 0.0
O73 O 0.78853 0.40423 0.87055 0.0
O74 O 0.74503 0.43613 0.89293 0.0
O75 O 0.64661 0.35402 0.93827 0.0
O76 O 0.68987 0.34003 0.90829 0.0
O77 O 0.71668 0.4448 0.9117 0.0
O78 O 0.68035 0.44915 0.9469 0.0
C79 C 0.69779 0.46482 0.92828 0.0
O80 O 0.79141 0.36398 0.91485 0.0
O81 O 0.77714 0.31044 0.89468 0.0
C82 C 0.73745 0.37606 0.97686 0.0
C83 C 0.801 0.32997 0.90787 0.0
Zn84 Zn 0.64185 0.25338 0.62423 0.0
Zn85 Zn 0.61945 0.31509 0.51915 0.0
Zn86 Zn 0.61593 0.26864 0.58756 0.0
C87 C 0.55468 0.29968 0.5619 0.0
C88 C 0.66858 0.34323 0.56175 0.0
O89 O 0.64309 0.21005 0.58863 0.0
O90 O 0.69142 0.22704 0.61358 0.0
C91 C 0.5617 0.22912 0.61935 0.0
O92 O 0.55528 0.28577 0.5844 0.0
O93 O 0.58679 0.29937 0.55018 0.0
O94 O 0.66058 0.34736 0.53805 0.0
O95 O 0.65207 0.31708 0.57549 0.0
O96 O 0.59375 0.21639 0.62769 0.0
O97 O 0.56168 0.2616 0.60716 0.0
O98 O 0.58077 0.29986 0.61607 0.0
O99 O 0.63567 0.30883 0.63634 0.0
C100 C 0.60075 0.31861 0.63264 0.0
O101 O 0.61849 0.2168 0.56544 0.0
O102 O 0.61677 0.26489 0.5395 0.0
C103 C 0.67567 0.20199 0.59923 0.0
C104 C 0.61729 0.22848 0.54249 0.0
Zn105 Zn 0.25404 0.12291 0.87488 0.0
Zn106 Zn 0.1941 0.12891 0.79814 0.0
Zn107 Zn 0.22877 0.11435 0.83718 0.0
C108 C 0.17997 0.04901 0.81268 0.0
C109 C 0.16574 0.17853 0.83534 0.0
O110 O 0.29084 0.13611 0.83773 0.0
O111 O 0.2823 0.17249 0.87158 0.0
C112 C 0.26619 0.0457 0.86004 0.0
O113 O 0.20358 0.05686 0.83091 0.0
O114 O 0.17071 0.0751 0.79687 0.0
O115 O 0.16263 0.17275 0.8117 0.0
O116 O 0.18963 0.15874 0.84842 0.0
O117 O 0.28625 0.07253 0.87 0.0
O118 O 0.23321 0.05479 0.85025 0.0
O119 O 0.19711 0.07381 0.86327 0.0
O120 O 0.20399 0.11769 0.8934 0.0
C121 C 0.18662 0.08802 0.88491 0.0
O122 O 0.27677 0.1241 0.81191 0.0
O123 O 0.24203 0.14043 0.77827 0.0
C124 C 0.30346 0.16255 0.85306 0.0
C125 C 0.2746 0.13493 0.78866 0.0
Zn126 Zn 0.3661 0.70306 0.05411 0.0
Zn127 Zn 0.42367 0.77376 0.11905 0.0
Zn128 Zn 0.39642 0.73591 0.08912 0.0
C129 C 0.4101 0.70392 0.14094 0.0
C130 C 0.48005 0.76868 0.08982 0.0
O131 O 0.37099 0.78348 0.06774 0.0
O132 O 0.36369 0.74972 0.03243 0.0
C133 C 0.32914 0.67175 0.09389 0.0
O134 O 0.38368 0.70532 0.12371 0.0
O135 O 0.43805 0.72772 0.14012 0.0
O136 O 0.46142 0.79901 0.09501 0.0
O137 O 0.46058 0.73694 0.0875 0.0
O138 O 0.32005 0.67965 0.0712 0.0
O139 O 0.35924 0.68794 0.1039 0.0
O140 O 0.44434 0.71239 0.06731 0.0
O141 O 0.41099 0.66956 0.04513 0.0
C142 C 0.44328 0.68404 0.05156 0.0
O143 O 0.3684 0.7951 0.09228 0.0
O144 O 0.38275 0.80716 0.13237 0.0
C145 C 0.36604 0.78205 0.04355 0.0
C146 C 0.36402 0.81579 0.1126 0.0
Zn147 Zn 0.80739 0.88869 0.29176 0.0
Zn148 Zn 0.75716 0.86075 0.36787 0.0
Zn149 Zn 0.77123 0.88685 0.33039 0.0
C150 C 0.82409 0.90292 0.37349 0.0
C151 C 0.73477 0.93887 0.37003 0.0
O152 O 0.72321 0.88365 0.30466 0.0
O153 O 0.76007 0.8805 0.27042 0.0
C154 C 0.84105 0.83079 0.32135 0.0
O155 O 0.80425 0.92255 0.35723 0.0
O156 O 0.81358 0.86842 0.37862 0.0
O157 O 0.72222 0.90629 0.3776 0.0
O158 O 0.76279 0.93935 0.35371 0.0
O159 O 0.84667 0.84801 0.30045 0.0
O160 O 0.81149 0.83933 0.33468 0.0
O161 O 0.79226 0.9481 0.33182 0.0
O162 O 0.82399 0.94349 0.29534 0.0
C163 C 0.81322 0.96357 0.31414 0.0
O164 O 0.71135 0.86408 0.33102 0.0
O165 O 0.72839 0.81397 0.3543 0.0
C166 C 0.72673 0.88166 0.28049 0.0
C167 C 0.70293 0.83096 0.34094 0.0
H168 H 0.97271 0.22993 0.18321 0.0
H169 H 0.91552 0.20643 0.20652 0.0
H170 H 0.95409 0.08855 0.19558 0.0
H171 H 0.00947 0.11191 0.17157 0.0
H172 H 0.88343 0.08419 0.20135 0.0
H173 H 0.98468 0.15272 0.24669 0.0
H174 H 0.02545 0.20902 0.2583 0.0
H175 H 0.92403 0.27225 0.28085 0.0
H176 H 0.88259 0.21652 0.2689 0.0
H177 H 0.88642 0.98988 0.3175 0.0
H178 H 0.90964 0.04644 0.29404 0.0
H179 H 0.79188 0.08473 0.28386 0.0
H180 H 0.76846 0.02744 0.30705 0.0
H181 H 0.88699 0.13953 0.28852 0.0
H182 H 0.78911 0.05361 0.23954 0.0
H183 H 0.76479 0.98658 0.2341 0.0
H184 H 0.88136 0.94603 0.22381 0.0
H185 H 0.9063 0.01267 0.22977 0.0
C186 C 0.96745 0.19897 0.18442 0.0
C187 C 0.99555 0.17267 0.17575 0.0
C188 C 0.93521 0.18552 0.19826 0.0
C189 C 0.93121 0.14571 0.20387 0.0
C190 C 0.95643 0.1194 0.19196 0.0
C191 C 0.9881 0.13276 0.17794 0.0
C192 C 0.90505 0.13122 0.22455 0.0
C193 C 0.8836 0.09707 0.22019 0.0
C194 C 0.90566 0.14709 0.24956 0.0
C195 C 0.9305 0.18072 0.25651 0.0
C196 C 0.97106 0.17876 0.25391 0.0
C197 C 0.99428 0.21055 0.26056 0.0
C198 C 0.97733 0.24424 0.27022 0.0
C199 C 0.93711 0.24619 0.27326 0.0
C200 C 0.91373 0.21455 0.2665 0.0
C201 C 0.86563 0.0117 0.31177 0.0
C202 C 0.82567 0.00441 0.31416 0.0
C203 C 0.87893 0.0439 0.29815 0.0
C204 C 0.85245 0.06938 0.28686 0.0
C205 C 0.81277 0.0653 0.2924 0.0
C206 C 0.79939 0.03281 0.30597 0.0
C207 C 0.86565 0.09319 0.26496 0.0
C208 C 0.88519 0.12831 0.26927 0.0
C209 C 0.86489 0.07747 0.24011 0.0
C210 C 0.8495 0.03796 0.23525 0.0
C211 C 0.80949 0.03034 0.23618 0.0
C212 C 0.79562 0.99243 0.23306 0.0
C213 C 0.82151 0.96205 0.22865 0.0
C214 C 0.86132 0.96955 0.22726 0.0
C215 C 0.87533 0.00735 0.23053 0.0
H216 H 0.81072 0.93273 0.2263 0.0
H217 H 0.99536 0.26879 0.27543 0.0
H218 H 0.38501 0.50034 0.4221 0.0
H219 H 0.40668 0.44093 0.44324 0.0
H220 H 0.29225 0.42447 0.47461 0.0
H221 H 0.26995 0.48295 0.45233 0.0
H222 H 0.36384 0.44315 0.50906 0.0
H223 H 0.31272 0.35385 0.44891 0.0
H224 H 0.29936 0.32634 0.4065 0.0
H225 H 0.42133 0.31055 0.39398 0.0
H226 H 0.43554 0.33863 0.4361 0.0
H227 H 0.4819 0.31 0.58262 0.0
H228 H 0.42418 0.33585 0.56087 0.0
H229 H 0.49112 0.35009 0.49211 0.0
H230 H 0.54791 0.32449 0.51333 0.0
H231 H 0.42205 0.31876 0.48157 0.0
H232 H 0.47388 0.42497 0.5318 0.0
H233 H 0.49247 0.46024 0.57079 0.0
H234 H 0.37558 0.45154 0.59846 0.0
H235 H 0.35644 0.41565 0.55975 0.0
C236 C 0.36409 0.48291 0.43245 0.0
C237 C 0.32592 0.49585 0.4356 0.0
C238 C 0.37641 0.44908 0.44452 0.0
C239 C 0.35101 0.42849 0.46047 0.0
C240 C 0.31208 0.43982 0.46216 0.0
C241 C 0.29941 0.47306 0.44939 0.0
C242 C 0.36767 0.40098 0.47896 0.0
C243 C 0.37551 0.41522 0.50345 0.0
C244 C 0.38351 0.36521 0.47121 0.0
C245 C 0.37519 0.3486 0.44569 0.0
C246 C 0.33674 0.3449 0.43703 0.0
C247 C 0.32901 0.32911 0.41304 0.0
C248 C 0.35947 0.31675 0.39754 0.0
C249 C 0.39775 0.32014 0.406 0.0
C250 C 0.40565 0.33595 0.42996 0.0
C251 C 0.48409 0.31866 0.56286 0.0
C252 C 0.51947 0.31541 0.54972 0.0
C253 C 0.45118 0.33333 0.55048 0.0
C254 C 0.45333 0.34471 0.52482 0.0
C255 C 0.48861 0.34112 0.51181 0.0
C256 C 0.52124 0.32675 0.52408 0.0
C257 C 0.41989 0.36194 0.51119 0.0
C258 C 0.40904 0.34582 0.48764 0.0
C259 C 0.40213 0.39666 0.51947 0.0
C260 C 0.41393 0.41687 0.54316 0.0
C261 C 0.45229 0.43001 0.54639 0.0
C262 C 0.46289 0.45026 0.56838 0.0
C263 C 0.43528 0.45792 0.58716 0.0
C264 C 0.39699 0.44539 0.58397 0.0
C265 C 0.38626 0.42504 0.56202 0.0
H266 H 0.44351 0.47373 0.60414 0.0
H267 H 0.35342 0.3045 0.37899 0.0
H268 H 0.9683 0.87461 0.69637 0.0
H269 H 0.0292 0.89957 0.71352 0.0
H270 H 0.06896 0.78259 0.72597 0.0
H271 H 0.00797 0.75729 0.70787 0.0
H272 H 0.06351 0.82955 0.77026 0.0
H273 H 0.12463 0.83642 0.68943 0.0
H274 H 0.13283 0.85067 0.64377 0.0
H275 H 0.11551 0.97197 0.65821 0.0
H276 H 0.10665 0.9585 0.70385 0.0
H277 H 0.21817 0.9794 0.81497 0.0
H278 H 0.19477 0.91765 0.79659 0.0
H279 H 0.08342 0.96973 0.78232 0.0
H280 H 0.10653 0.0309 0.80015 0.0
H281 H 0.14911 0.93489 0.73865 0.0
H282 H 0.0531 0.91715 0.81058 0.0
H283 H 0.03776 0.90544 0.8558 0.0
H284 H 0.1163 0.80904 0.85685 0.0
H285 H 0.13233 0.82057 0.81164 0.0
C286 C 0.99039 0.85419 0.7022 0.0
C287 C 0.9833 0.8141 0.70126 0.0
C288 C 0.02537 0.86846 0.71173 0.0
C289 C 0.05368 0.84294 0.72094 0.0
C290 C 0.04758 0.80273 0.71875 0.0
C291 C 0.01277 0.78835 0.70855 0.0
C292 C 0.08528 0.85894 0.73694 0.0
C293 C 0.08331 0.85162 0.7632 0.0
C294 C 0.11068 0.88814 0.72781 0.0
C295 C 0.11493 0.89635 0.70017 0.0
C296 C 0.12222 0.8661 0.68286 0.0
C297 C 0.12707 0.87407 0.65696 0.0
C298 C 0.12471 0.9122 0.6481 0.0
C299 C 0.11741 0.94245 0.6651 0.0
C300 C 0.11254 0.93466 0.69101 0.0
C301 C 0.18827 0.97699 0.80881 0.0
C302 C 0.16408 0.00975 0.80881 0.0
C303 C 0.17502 0.94187 0.79829 0.0
C304 C 0.13733 0.93925 0.78828 0.0
C305 C 0.11241 0.9711 0.79024 0.0
C306 C 0.12566 0.00602 0.80036 0.0
C307 C 0.12533 0.90678 0.77168 0.0
C308 C 0.13088 0.91132 0.74541 0.0
C309 C 0.10235 0.87581 0.78068 0.0
C310 C 0.09452 0.87024 0.80804 0.0
C311 C 0.06759 0.89393 0.82062 0.0
C312 C 0.05861 0.88719 0.84618 0.0
C313 C 0.07622 0.85666 0.85924 0.0
C314 C 0.10286 0.83282 0.84676 0.0
C315 C 0.11195 0.83948 0.8212 0.0
H316 H 0.06909 0.85135 0.87899 0.0
H317 H 0.12855 0.9183 0.62806 0.0
H318 H 0.51874 0.6873 0.06886 0.0
H319 H 0.5766 0.66239 0.04688 0.0
H320 H 0.50493 0.62751 0.98344 0.0
H321 H 0.44772 0.65065 0.0054 0.0
H322 H 0.54879 0.56978 -6e-05 0.0
H323 H 0.56808 0.71029 0.98407 0.0
H324 H 0.57966 0.7763 0.00069 0.0
H325 H 0.68393 0.73769 0.0373 0.0
H326 H 0.67272 0.67135 0.02112 0.0
H327 H 0.64726 0.50777 0.90104 0.0
H328 H 0.61644 0.56402 0.9206 0.0
H329 H 0.70871 0.57071 0.97576 0.0
H330 H 0.74011 0.51526 0.95567 0.0
H331 H 0.66454 0.6431 0.9704 0.0
H332 H 0.64228 0.508 0.99753 0.0
H333 H 0.62976 0.43795 0.99171 0.0
H334 H 0.53504 0.4636 0.94148 0.0
H335 H 0.54626 0.53383 0.94778 0.0
C336 C 0.51559 0.67436 0.0502 0.0
C337 C 0.47876 0.67033 0.03895 0.0
C338 C 0.54859 0.66043 0.03762 0.0
C339 C 0.545 0.64322 0.01349 0.0
C340 C 0.50833 0.64045 0.00211 0.0
C341 C 0.4756 0.65352 0.01475 0.0
C342 C 0.57812 0.62508 0.00024 0.0
C343 C 0.57382 0.58611 0.99331 0.0
C344 C 0.61197 0.64561 0.99286 0.0
C345 C 0.61946 0.68586 0.00149 0.0
C346 C 0.59346 0.71589 0.99567 0.0
C347 C 0.59993 0.75335 0.00504 0.0
C348 C 0.63248 0.76118 0.02007 0.0
C349 C 0.65874 0.7316 0.02565 0.0
C350 C 0.65237 0.69409 0.01635 0.0
C351 C 0.66257 0.52324 0.91596 0.0
C352 C 0.69565 0.5071 0.92712 0.0
C353 C 0.64471 0.5551 0.92739 0.0
C354 C 0.65972 0.57054 0.95014 0.0
C355 C 0.69654 0.55903 0.95836 0.0
C356 C 0.71464 0.52749 0.94669 0.0
C357 C 0.63294 0.58905 0.96841 0.0
C358 C 0.63914 0.62726 0.97685 0.0
C359 C 0.60091 0.5678 0.97787 0.0
C360 C 0.59544 0.52592 0.97281 0.0
C361 C 0.61898 0.4986 0.98512 0.0
C362 C 0.61189 0.45892 0.98192 0.0
C363 C 0.58186 0.44631 0.96604 0.0
C364 C 0.55845 0.47339 0.95365 0.0
C365 C 0.56495 0.5131 0.95718 0.0
H366 H 0.57662 0.41557 0.96345 0.0
H367 H 0.63736 0.79016 0.02737 0.0
H368 H 0.09539 0.25927 0.26682 0.0
H369 H 0.10638 0.30443 0.30103 0.0
H370 H 0.13284 0.39479 0.24674 0.0
H371 H 0.12411 0.34815 0.21178 0.0
H372 H 0.18604 0.39293 0.28012 0.0
H373 H 0.04863 0.39656 0.28847 0.0
H374 H 0.98217 0.3701 0.29114 0.0
H375 H 0.01256 0.30738 0.35877 0.0
H376 H 0.07929 0.33318 0.35638 0.0
H377 H 0.13724 0.5144 0.4001 0.0
H378 H 0.11802 0.4707 0.36667 0.0
H379 H 0.23272 0.42079 0.36597 0.0
H380 H 0.25358 0.46799 0.39805 0.0
H381 H 0.10774 0.40333 0.35884 0.0
H382 H 0.25448 0.38344 0.32312 0.0
H383 H 0.31685 0.41039 0.30804 0.0
H384 H 0.25993 0.51587 0.28629 0.0
H385 H 0.19736 0.48965 0.30165 0.0
C386 C 0.10322 0.28883 0.26195 0.0
C387 C 0.10977 0.29992 0.23656 0.0
C388 C 0.10886 0.31493 0.28169 0.0
C389 C 0.12 0.35323 0.2766 0.0
C390 C 0.12423 0.36528 0.25112 0.0
C391 C 0.11914 0.33874 0.23116 0.0
C392 C 0.13171 0.37865 0.29805 0.0
C393 C 0.16851 0.39586 0.29717 0.0
C394 C 0.10928 0.38199 0.32049 0.0
C395 C 0.06904 0.36666 0.32215 0.0
C396 C 0.04119 0.37698 0.30384 0.0
C397 C 0.00346 0.36213 0.30532 0.0
C398 C 0.99318 0.33701 0.32508 0.0
C399 C 0.02056 0.32684 0.34347 0.0
C400 C 0.05832 0.34165 0.3421 0.0
C401 C 0.15855 0.49394 0.39317 0.0
C402 C 0.19739 0.49566 0.40132 0.0
C403 C 0.14741 0.46877 0.37382 0.0
C404 C 0.17422 0.44322 0.36282 0.0
C405 C 0.21194 0.4416 0.373 0.0
C406 C 0.22359 0.46791 0.39191 0.0
C407 C 0.16179 0.41906 0.34073 0.0
C408 C 0.12497 0.40128 0.34164 0.0
C409 C 0.18364 0.41625 0.31799 0.0
C410 C 0.22165 0.43508 0.31416 0.0
C411 C 0.2556 0.41283 0.31584 0.0
C412 C 0.29085 0.42784 0.3071 0.0
C413 C 0.29222 0.46476 0.29619 0.0
C414 C 0.25874 0.48737 0.2949 0.0
C415 C 0.22347 0.4726 0.30385 0.0
H416 H 0.319 0.4755 0.28821 0.0
H417 H 0.96398 0.32547 0.32615 0.0
H418 H 0.96347 0.65727 0.63039 0.0
H419 H 0.00901 0.63159 0.60026 0.0
H420 H 0.09072 0.7222 0.62019 0.0
H421 H 0.04119 0.75192 0.64716 0.0
H422 H 0.08545 0.72625 0.57526 0.0
H423 H 0.09969 0.60668 0.62473 0.0
H424 H 0.07549 0.54911 0.64782 0.0
H425 H 0.0149 0.51095 0.58091 0.0
H426 H 0.03848 0.56837 0.5575 0.0
H427 H 0.24568 0.64878 0.51088 0.0
H428 H 0.19656 0.65651 0.54366 0.0
H429 H 0.10652 0.63387 0.48866 0.0
H430 H 0.15599 0.62617 0.4552 0.0
H431 H 0.11136 0.59185 0.54643 0.0
H432 H 0.09628 0.71182 0.49815 0.0
H433 H 0.12555 0.76584 0.47396 0.0
H434 H 0.19194 0.79929 0.5396 0.0
H435 H 0.16334 0.74514 0.56406 0.0
C436 C 0.99202 0.67053 0.6294 0.0
C437 C 0.99874 0.70671 0.64091 0.0
C438 C 0.01845 0.65563 0.61194 0.0
C439 C 0.05389 0.67471 0.60743 0.0
C440 C 0.06331 0.70722 0.62266 0.0
C441 C 0.0355 0.72375 0.63877 0.0
C442 C 0.07757 0.66536 0.58433 0.0
C443 C 0.09141 0.69664 0.56955 0.0
C444 C 0.08409 0.62687 0.57542 0.0
C445 C 0.07071 0.59194 0.58943 0.0
C446 C 0.08116 0.58604 0.61498 0.0
C447 C 0.06754 0.55343 0.62811 0.0
C448 C 0.04363 0.52643 0.61585 0.0
C449 C 0.03343 0.53187 0.59038 0.0
C450 C 0.047 0.56437 0.57716 0.0
C451 C 0.21548 0.6455 0.50559 0.0
C452 C 0.2047 0.6371 0.48039 0.0
C453 C 0.18751 0.64966 0.52442 0.0
C454 C 0.14818 0.64536 0.51854 0.0
C455 C 0.13693 0.63689 0.49348 0.0
C456 C 0.1651 0.63299 0.47441 0.0
C457 C 0.11952 0.65252 0.5388 0.0
C458 C 0.10488 0.62111 0.55271 0.0
C459 C 0.11227 0.69063 0.54707 0.0
C460 C 0.12775 0.72448 0.53289 0.0
C461 C 0.11712 0.73072 0.5074 0.0
C462 C 0.13361 0.76132 0.49364 0.0
C463 C 0.16061 0.78598 0.50523 0.0
C464 C 0.17098 0.78021 0.53065 0.0
C465 C 0.15457 0.74965 0.54449 0.0
H466 H 0.17348 0.80955 0.49453 0.0
H467 H 0.03303 0.50128 0.62607 0.0
H468 H 0.85114 0.45268 0.87263 0.0
H469 H 0.87937 0.50664 0.8486 0.0
H470 H 0.76512 0.5536 0.83657 0.0
H471 H 0.73693 0.50084 0.86206 0.0
H472 H 0.83033 0.51134 0.7939 0.0
H473 H 0.7917 0.61557 0.8511 0.0
H474 H 0.78964 0.65099 0.8918 0.0
H475 H 0.91392 0.65932 0.89203 0.0
H476 H 0.91673 0.62309 0.85156 0.0
H477 H 0.85656 0.65089 0.699 0.0
H478 H 0.84094 0.60482 0.73174 0.0
H479 H 0.93822 0.6463 0.77622 0.0
H480 H 0.94908 0.69757 0.74446 0.0
H481 H 0.88416 0.64365 0.80552 0.0
H482 H 0.92165 0.54221 0.7453 0.0
H483 H 0.92087 0.50883 0.70371 0.0
H484 H 0.79717 0.49575 0.70854 0.0
H485 H 0.79722 0.52887 0.75006 0.0
C486 C 0.83227 0.47543 0.86571 0.0
C487 C 0.79194 0.47262 0.86883 0.0
C488 C 0.84842 0.50633 0.85221 0.0
C489 C 0.8244 0.53436 0.84118 0.0
C490 C 0.78423 0.53287 0.84558 0.0
C491 C 0.76813 0.50256 0.85986 0.0
C492 C 0.84011 0.55807 0.82021 0.0
C493 C 0.84197 0.54044 0.79626 0.0
C494 C 0.85602 0.59542 0.82373 0.0
C495 C 0.85445 0.61571 0.8486 0.0
C496 C 0.81863 0.62408 0.86011 0.0
C497 C 0.81731 0.64457 0.88306 0.0
C498 C 0.85164 0.65717 0.89459 0.0
C499 C 0.88736 0.64934 0.88316 0.0
C500 C 0.88882 0.62878 0.86023 0.0
C501 C 0.8753 0.64921 0.71535 0.0
C502 C 0.90366 0.67761 0.71925 0.0
C503 C 0.86679 0.62226 0.73417 0.0
C504 C 0.88871 0.62094 0.75668 0.0
C505 C 0.92055 0.64659 0.75919 0.0
C506 C 0.9275 0.67532 0.74079 0.0
C507 C 0.87494 0.59696 0.77861 0.0
C508 C 0.87337 0.61433 0.80291 0.0
C509 C 0.85913 0.55912 0.77544 0.0
C510 C 0.8595 0.53809 0.75078 0.0
C511 C 0.89433 0.53214 0.73748 0.0
C512 C 0.89399 0.51324 0.71392 0.0
C513 C 0.85901 0.50014 0.70349 0.0
C514 C 0.82428 0.50571 0.71665 0.0
C515 C 0.82447 0.52439 0.74025 0.0
H516 H 0.85881 0.48568 0.6852 0.0
H517 H 0.85056 0.67319 0.91229 0.0
H518 H 0.04978 0.34577 0.10483 0.0
H519 H 0.99454 0.36641 0.07928 0.0
H520 H 0.93244 0.26234 0.10035 0.0
H521 H 0.98777 0.2412 0.12581 0.0
H522 H 0.94066 0.27028 0.04918 0.0
H523 H 0.89935 0.35025 0.11935 0.0
H524 H 0.90356 0.40059 0.15261 0.0
H525 H 0.93036 0.48642 0.09603 0.0
H526 H 0.92663 0.43651 0.06245 0.0
H527 H 0.74591 0.32308 0.01427 0.0
H528 H 0.80623 0.30515 0.0358 0.0
H529 H 0.87023 0.38446 0.988 0.0
H530 H 0.80992 0.40141 0.96563 0.0
H531 H 0.86551 0.39266 0.04862 0.0
H532 H 0.9318 0.30472 0.98377 0.0
H533 H 0.93066 0.25288 0.95124 0.0
H534 H 0.8533 0.18563 0.99774 0.0
H535 H 0.85547 0.23641 0.03099 0.0
C536 C 0.02408 0.32759 0.10441 0.0
C537 C 0.0233 0.29149 0.11687 0.0
C538 C 0.99246 0.33962 0.08997 0.0
C539 C 0.95962 0.31579 0.08791 0.0
C540 C 0.95772 0.281 0.10173 0.0
C541 C 0.9893 0.26898 0.11623 0.0
C542 C 0.92984 0.32436 0.06868 0.0
C543 C 0.92394 0.2969 0.04932 0.0
C544 C 0.90936 0.35982 0.06817 0.0
C545 C 0.91329 0.38951 0.08844 0.0
C546 C 0.9067 0.37974 0.11405 0.0
C547 C 0.90881 0.40824 0.13294 0.0
C548 C 0.91738 0.44665 0.12646 0.0
C549 C 0.92383 0.45664 0.10105 0.0
C550 C 0.9217 0.42827 0.08208 0.0
C551 C 0.77296 0.33626 0.00822 0.0
C552 C 0.77361 0.36401 0.98879 0.0
C553 C 0.80727 0.3257 0.02021 0.0
C554 C 0.84233 0.34339 0.01324 0.0
C555 C 0.84331 0.37027 0.99327 0.0
C556 C 0.80904 0.38008 0.98076 0.0
C557 C 0.87599 0.33823 0.02981 0.0
C558 C 0.8827 0.36635 0.04856 0.0
C559 C 0.89724 0.30355 0.02989 0.0
C560 C 0.89328 0.27443 0.00949 0.0
C561 C 0.91424 0.27902 0.98681 0.0
C562 C 0.91356 0.24983 0.96835 0.0
C563 C 0.89139 0.21632 0.97219 0.0
C564 C 0.87021 0.21174 0.99468 0.0
C565 C 0.87134 0.24059 0.01341 0.0
H566 H 0.89089 0.19379 0.95785 0.0
H567 H 0.9189 0.46868 0.14111 0.0
H568 H 0.61883 0.24649 0.49193 0.0
H569 H 0.63378 0.20261 0.45662 0.0
H570 H 0.63864 0.10644 0.50903 0.0
H571 H 0.62413 0.15 0.54436 0.0
H572 H 0.70575 0.11783 0.48205 0.0
H573 H 0.56811 0.10916 0.4658 0.0
H574 H 0.50324 0.13573 0.45678 0.0
H575 H 0.54602 0.18716 0.38784 0.0
H576 H 0.61129 0.16113 0.39657 0.0
H577 H 0.69734 0.94316 0.41525 0.0
H578 H 0.67817 0.00085 0.4385 0.0
H579 H 0.72172 0.07313 0.3779 0.0
H580 H 0.74284 0.01475 0.35457 0.0
H581 H 0.63532 0.08432 0.4027 0.0
H582 H 0.77302 0.08663 0.4186 0.0
H583 H 0.83824 0.06429 0.43091 0.0
H584 H 0.794 0.02518 0.50286 0.0
H585 H 0.72843 0.04689 0.49088 0.0
C586 C 0.62254 0.21588 0.49583 0.0
C587 C 0.62114 0.20167 0.52089 0.0
C588 C 0.63075 0.19087 0.47564 0.0
C589 C 0.63746 0.15145 0.48032 0.0
C590 C 0.63367 0.13689 0.50513 0.0
C591 C 0.62551 0.16179 0.52527 0.0
C592 C 0.65359 0.12624 0.4603 0.0
C593 C 0.69024 0.1103 0.46475 0.0
C594 C 0.63394 0.11802 0.43731 0.0
C595 C 0.5947 0.13356 0.43198 0.0
C596 C 0.56378 0.12641 0.44882 0.0
C597 C 0.52691 0.14128 0.44373 0.0
C598 C 0.52054 0.16322 0.42179 0.0
C599 C 0.55101 0.17019 0.40485 0.0
C600 C 0.58793 0.15533 0.40983 0.0
C601 C 0.70308 0.97118 0.40676 0.0
C602 C 0.72187 0.97442 0.38312 0.0
C603 C 0.69201 0.00413 0.4201 0.0
C604 C 0.69867 0.041 0.40989 0.0
C605 C 0.71651 0.0447 0.38601 0.0
C606 C 0.72855 0.01149 0.3728 0.0
C607 C 0.68696 0.075 0.42497 0.0
C608 C 0.65111 0.09254 0.41974 0.0
C609 C 0.70715 0.08465 0.44748 0.0
C610 C 0.74573 0.06822 0.45375 0.0
C611 C 0.77704 0.0727 0.43687 0.0
C612 C 0.81416 0.06049 0.4439 0.0
C613 C 0.82032 0.04381 0.46779 0.0
C614 C 0.78925 0.03847 0.48447 0.0
C615 C 0.75211 0.0507 0.47756 0.0
H616 H 0.84912 0.03458 0.47324 0.0
H617 H 0.49199 0.17474 0.4179 0.0
H618 H 0.33747 0.08827 0.78279 0.0
H619 H 0.38769 0.09549 0.74991 0.0
H620 H 0.33964 0.20646 0.72884 0.0
H621 H 0.28904 0.1986 0.76089 0.0
H622 H 0.34204 0.15955 0.68931 0.0
H623 H 0.43328 0.20284 0.75354 0.0
H624 H 0.47257 0.20106 0.79275 0.0
H625 H 0.51862 0.09031 0.77099 0.0
H626 H 0.4802 0.09191 0.73134 0.0
H627 H 0.4902 0.26118 0.62517 0.0
H628 H 0.43466 0.23059 0.64604 0.0
H629 H 0.49601 0.12169 0.64829 0.0
H630 H 0.55201 0.15248 0.62813 0.0
H631 H 0.48523 0.15211 0.69424 0.0
H632 H 0.40467 0.12591 0.62226 0.0
H633 H 0.36928 0.13817 0.58231 0.0
H634 H 0.3035 0.22783 0.61883 0.0
H635 H 0.33877 0.21653 0.65889 0.0
C636 C 0.33851 0.11456 0.77151 0.0
C637 C 0.3095 0.1427 0.77385 0.0
C638 C 0.36706 0.11869 0.75284 0.0
C639 C 0.36686 0.15126 0.73678 0.0
C640 C 0.33981 0.18087 0.7408 0.0
C641 C 0.3111 0.17646 0.75908 0.0
C642 C 0.39156 0.15281 0.71398 0.0
C643 C 0.37344 0.15826 0.69029 0.0
C644 C 0.4322 0.14946 0.7153 0.0
C645 C 0.45337 0.14716 0.73976 0.0
C646 C 0.45142 0.1779 0.75729 0.0
C647 C 0.47379 0.17708 0.77947 0.0
C648 C 0.4978 0.14542 0.78449 0.0
C649 C 0.49983 0.1147 0.76717 0.0
C650 C 0.47794 0.11565 0.74478 0.0
C651 C 0.49125 0.23044 0.62941 0.0
C652 C 0.52555 0.20935 0.62605 0.0
C653 C 0.45935 0.21284 0.64099 0.0
C654 C 0.4615 0.17397 0.64888 0.0
C655 C 0.494 0.15176 0.64243 0.0
C656 C 0.52605 0.16946 0.63127 0.0
C657 C 0.43594 0.16055 0.66951 0.0
C658 C 0.45381 0.15253 0.69295 0.0
C659 C 0.39515 0.1628 0.66797 0.0
C660 C 0.3746 0.17044 0.64362 0.0
C661 C 0.38296 0.14853 0.62173 0.0
C662 C 0.36282 0.15524 0.59906 0.0
C663 C 0.33419 0.18378 0.59803 0.0
C664 C 0.32567 0.20571 0.61965 0.0
C665 C 0.34569 0.19911 0.64235 0.0
H666 H 0.31858 0.18886 0.58048 0.0
H667 H 0.51494 0.14479 0.80173 0.0
H668 H 0.32863 0.85175 0.04933 0.0
H669 H 0.3221 0.90135 0.01616 0.0
H670 H 0.40346 0.83909 0.96913 0.0
H671 H 0.41046 0.79034 0.00226 0.0
H672 H 0.40124 0.91796 0.95752 0.0
H673 H 0.31281 0.80703 0.96976 0.0
H674 H 0.27036 0.76967 0.99864 0.0
H675 H 0.20014 0.8706 0.01091 0.0
H676 H 0.2425 0.90865 0.98232 0.0
H677 H 0.32583 0.99738 0.84687 0.0
H678 H 0.34726 0.94178 0.87229 0.0
H679 H 0.24738 0.95692 0.92122 0.0
H680 H 0.22293 0.006 0.89288 0.0
H681 H 0.26572 0.89405 0.92972 0.0
H682 H 0.35817 0.00903 0.92212 0.0
H683 H 0.40475 0.04777 0.89683 0.0
H684 H 0.46806 0.94445 0.87836 0.0
H685 H 0.42175 0.90521 0.9034 0.0
C686 C 0.34621 0.84971 0.0324 0.0
C687 C 0.36886 0.81686 0.02778 0.0
C688 C 0.34265 0.878 0.01351 0.0
C689 C 0.36149 0.87303 0.98998 0.0
C690 C 0.38839 0.84315 0.98702 0.0
C691 C 0.39187 0.81506 0.00578 0.0
C692 C 0.34641 0.8917 0.96685 0.0
C693 C 0.37145 0.91345 0.95149 0.0
C694 C 0.30809 0.88431 0.95866 0.0
C695 C 0.28076 0.8606 0.97396 0.0
C696 C 0.28813 0.82112 0.97848 0.0
C697 C 0.2642 0.79989 0.99487 0.0
C698 C 0.23255 0.81775 0.00658 0.0
C699 C 0.2246 0.8568 0.00178 0.0
C700 C 0.24852 0.87819 0.98546 0.0
C701 C 0.30776 0.98703 0.86232 0.0
C702 C 0.27331 0.00618 0.86858 0.0
C703 C 0.32047 0.95608 0.87733 0.0
C704 C 0.30077 0.94688 0.90004 0.0
C705 C 0.26404 0.96342 0.90428 0.0
C706 C 0.24999 0.99197 0.88819 0.0
C707 C 0.31917 0.92439 0.92101 0.0
C708 C 0.29519 0.90015 0.93578 0.0
C709 C 0.3583 0.93036 0.92885 0.0
C710 C 0.3864 0.95426 0.91438 0.0
C711 C 0.38209 0.9947 0.91268 0.0
C712 C 0.40838 0.01669 0.89836 0.0
C713 C 0.43928 0.99857 0.88595 0.0
C714 C 0.44409 0.95845 0.88793 0.0
C715 C 0.41787 0.93634 0.90218 0.0
H716 H 0.45953 0.01563 0.87483 0.0
H717 H 0.21419 0.80134 0.01939 0.0
H718 H 0.53571 0.8236 0.08324 0.0
H719 H 0.58038 0.84083 0.11759 0.0
H720 H 0.55571 0.73195 0.15461 0.0
H721 H 0.51247 0.71384 0.11987 0.0
H722 H 0.53396 0.83299 0.17241 0.0
H723 H 0.623 0.71812 0.16741 0.0
H724 H 0.66517 0.67451 0.14257 0.0
H725 H 0.72768 0.77288 0.11331 0.0
H726 H 0.68545 0.81701 0.13782 0.0
H727 H 0.65776 0.8439 0.2886 0.0
H728 H 0.61019 0.82694 0.25558 0.0
H729 H 0.67299 0.89728 0.20155 0.0
H730 H 0.72019 0.91428 0.23427 0.0
H731 H 0.67182 0.81122 0.19494 0.0
H732 H 0.59078 0.92431 0.20835 0.0
H733 H 0.54935 0.96753 0.23392 0.0
H734 H 0.47087 0.87314 0.24862 0.0
H735 H 0.51205 0.82922 0.22329 0.0
C736 C 0.54196 0.80222 0.09777 0.0
C737 C 0.52011 0.7678 0.09921 0.0
C738 C 0.56685 0.81239 0.11761 0.0
C739 C 0.5704 0.78797 0.13877 0.0
C740 C 0.5532 0.75111 0.13838 0.0
C741 C 0.52885 0.74062 0.11829 0.0
C742 C 0.58699 0.80353 0.16245 0.0
C743 C 0.56395 0.82792 0.17766 0.0
C744 C 0.62588 0.7969 0.16902 0.0
C745 C 0.6508 0.77072 0.15403 0.0
C746 C 0.64543 0.73038 0.1554 0.0
C747 C 0.66941 0.7056 0.14148 0.0
C748 C 0.69898 0.72092 0.12627 0.0
C749 C 0.70468 0.76106 0.12501 0.0
C750 C 0.68074 0.78595 0.1389 0.0
C751 C 0.66035 0.85695 0.26999 0.0
C752 C 0.69285 0.87962 0.2637 0.0
C753 C 0.63325 0.84731 0.25119 0.0
C754 C 0.63858 0.86063 0.22621 0.0
C755 C 0.66865 0.88672 0.22076 0.0
C756 C 0.69565 0.89614 0.23938 0.0
C757 C 0.61909 0.84119 0.20487 0.0
C758 C 0.64163 0.81601 0.19004 0.0
C759 C 0.57963 0.84694 0.19897 0.0
C760 C 0.55478 0.87334 0.21416 0.0
C761 C 0.5649 0.91265 0.21723 0.0
C762 C 0.54139 0.93732 0.23161 0.0
C763 C 0.50756 0.92306 0.24296 0.0
C764 C 0.4971 0.88413 0.23984 0.0
C765 C 0.52049 0.85936 0.22543 0.0
H766 H 0.48942 0.94219 0.2541 0.0
H767 H 0.71756 0.70169 0.11553 0.0
H768 H 0.20691 0.04922 0.92674 0.0
H769 H 0.1684 0.04649 0.96515 0.0
H770 H 0.06829 0.08574 0.92328 0.0
H771 H 0.1077 0.08888 0.88442 0.0
H772 H 0.08948 0.13559 0.95933 0.0
H773 H 0.07001 0.99603 0.95937 0.0
H774 H 0.09416 0.92915 0.95446 0.0
H775 H 0.17334 0.94669 0.01647 0.0
H776 H 0.15006 0.01372 0.0216 0.0
H777 H 0.03497 0.18908 0.08468 0.0
H778 H 0.02545 0.15254 0.04474 0.0
H779 H 0.13562 0.09613 0.056 0.0
H780 H 0.14593 0.13364 0.09432 0.0
H781 H 0.08641 0.04698 0.03353 0.0
H782 H 0.13355 0.17567 0.02522 0.0
H783 H 0.13514 0.24689 0.0288 0.0
H784 H 0.03311 0.25478 0.98226 0.0
H785 H 0.03039 0.18331 0.97892 0.0
C786 C 0.17602 0.05446 0.92527 0.0
C787 C 0.16004 0.06839 0.9025 0.0
C788 C 0.15389 0.05319 0.94742 0.0
C789 C 0.11518 0.06569 0.94726 0.0
C790 C 0.098 0.07566 0.92387 0.0
C791 C 0.12034 0.077 0.90159 0.0
C792 C 0.09647 0.07648 0.97179 0.0
C793 C 0.08711 0.11578 0.9753 0.0
C794 C 0.09576 0.05117 0.99305 0.0
C795 C 0.10808 0.00998 0.99092 0.0
C796 C 0.09247 0.98561 0.97201 0.0
C797 C 0.10609 0.94767 0.96916 0.0
C798 C 0.13523 0.93368 0.98515 0.0
C799 C 0.15066 0.9575 0.00415 0.0
C800 C 0.13715 0.99543 0.0071 0.0
C801 C 0.05626 0.16771 0.07903 0.0
C802 C 0.09087 0.1636 0.09286 0.0
C803 C 0.05095 0.14701 0.0562 0.0
C804 C 0.07986 0.12151 0.04736 0.0
C805 C 0.11267 0.11513 0.06248 0.0
C806 C 0.11844 0.13647 0.08462 0.0
C807 C 0.07997 0.10603 0.02093 0.0
C808 C 0.08634 0.06615 0.01718 0.0
C809 C 0.08068 0.13118 -0.00036 0.0
C810 C 0.0811 0.17406 0.00243 0.0
C811 C 0.11096 0.1925 0.01619 0.0
C812 C 0.11219 0.23293 0.01808 0.0
C813 C 0.08408 0.25534 0.00592 0.0
C814 C 0.05469 0.23734 0.99183 0.0
C815 C 0.05321 0.19685 0.99001 0.0
H816 H 0.0852 0.28667 0.00729 0.0
H817 H 0.14587 0.90439 0.9828 0.0
H818 H 0.34397 0.6706 0.15905 0.0
H819 H 0.33425 0.6453 0.20188 0.0
H820 H 0.45608 0.66042 0.21796 0.0
H821 H 0.46643 0.68419 0.17467 0.0
H822 H 0.42197 0.59642 0.24368 0.0
H823 H 0.40402 0.73239 0.2335 0.0
H824 H 0.38044 0.7906 0.21115 0.0
H825 H 0.26272 0.75329 0.22237 0.0
H826 H 0.28561 0.69454 0.24449 0.0
H827 H 0.3379 0.56882 0.36732 0.0
H828 H 0.37991 0.60261 0.33647 0.0
H829 H 0.28134 0.61924 0.28713 0.0
H830 H 0.23982 0.587 0.31745 0.0
H831 H 0.32543 0.68112 0.28612 0.0
H832 H 0.34892 0.53806 0.28954 0.0
H833 H 0.37562 0.481 0.31219 0.0
H834 H 0.48785 0.53486 0.31408 0.0
H835 H 0.46168 0.59264 0.29245 0.0
C836 C 0.36897 0.66682 0.17123 0.0
C837 C 0.40581 0.67964 0.16367 0.0
C838 C 0.36335 0.65277 0.19577 0.0
C839 C 0.39436 0.65211 0.21308 0.0
C840 C 0.43186 0.66112 0.20483 0.0
C841 C 0.43759 0.67482 0.18018 0.0
C842 C 0.38626 0.64727 0.24034 0.0
C843 C 0.40139 0.61519 0.25323 0.0
C844 C 0.36065 0.6728 0.25289 0.0
C845 C 0.34657 0.70897 0.24059 0.0
C846 C 0.3731 0.73655 0.23116 0.0
C847 C 0.35986 0.76963 0.21852 0.0
C848 C 0.3201 0.77561 0.21532 0.0
C849 C 0.29351 0.74863 0.22489 0.0
C850 C 0.3066 0.71547 0.23754 0.0
C851 C 0.32534 0.58043 0.35005 0.0
C852 C 0.2858 0.575 0.34464 0.0
C853 C 0.34921 0.59981 0.33262 0.0
C854 C 0.33374 0.61336 0.30959 0.0
C855 C 0.29395 0.60926 0.30484 0.0
C856 C 0.27026 0.5903 0.32212 0.0
C857 C 0.35832 0.62819 0.28877 0.0
C858 C 0.34688 0.66283 0.27699 0.0
C859 C 0.38762 0.60518 0.27744 0.0
C860 C 0.40323 0.56978 0.28968 0.0
C861 C 0.37924 0.53767 0.29488 0.0
C862 C 0.3942 0.50533 0.30757 0.0
C863 C 0.43329 0.50434 0.31448 0.0
C864 C 0.45754 0.5357 0.30877 0.0
C865 C 0.44263 0.56832 0.29643 0.0
H866 H 0.44478 0.47926 0.32425 0.0
H867 H 0.3099 0.80116 0.20544 0.0
H868 H 0.89255 0.87525 0.39013 0.0
H869 H 0.91326 0.88319 0.43413 0.0
H870 H 0.83237 0.97686 0.44332 0.0
H871 H 0.81225 0.96997 0.39912 0.0
H872 H 0.91701 0.96181 0.47973 0.0
H873 H 0.78423 0.92279 0.45415 0.0
H874 H 0.7369 0.88958 0.42651 0.0
H875 H 0.79586 0.78158 0.43758 0.0
H876 H 0.84307 0.81407 0.4657 0.0
H877 H 0.86347 0.87786 0.60563 0.0
H878 H 0.86787 0.91851 0.56737 0.0
H879 H 0.90371 0.81849 0.5241 0.0
H880 H 0.89933 0.7785 0.56194 0.0
H881 H 0.83457 0.85179 0.50823 0.0
H882 H 0.96613 0.88789 0.53102 0.0
H883 H 0.01461 0.91599 0.56029 0.0
H884 H 0.95534 0.0253 0.55826 0.0
H885 H 0.90624 0.99764 0.52914 0.0
C886 C 0.8814 0.89955 0.40097 0.0
C887 C 0.85043 0.92159 0.39157 0.0
C888 C 0.89314 0.90399 0.42615 0.0
C889 C 0.87389 0.9304 0.44196 0.0
C890 C 0.84799 0.95702 0.43126 0.0
C891 C 0.83645 0.95288 0.40592 0.0
C892 C 0.87179 0.92144 0.4693 0.0
C893 C 0.89823 0.93857 0.48629 0.0
C894 C 0.84748 0.89078 0.47764 0.0
C895 C 0.81869 0.87135 0.46079 0.0
C896 C 0.7878 0.89222 0.45011 0.0
C897 C 0.76065 0.87343 0.4346 0.0
C898 C 0.76381 0.83371 0.42979 0.0
C899 C 0.79376 0.8125 0.44091 0.0
C900 C 0.82076 0.8311 0.4566 0.0
C901 C 0.87283 0.86501 0.58813 0.0
C902 C 0.8798 0.82507 0.58662 0.0
C903 C 0.87549 0.88811 0.56629 0.0
C904 C 0.8855 0.87119 0.54293 0.0
C905 C 0.89552 0.83193 0.54195 0.0
C906 C 0.8926 0.8091 0.56353 0.0
C907 C 0.87991 0.89173 0.51869 0.0
C908 C 0.85221 0.87624 0.50211 0.0
C909 C 0.90259 0.92386 0.51109 0.0
C910 C 0.93245 0.94069 0.52808 0.0
C911 C 0.96336 0.91787 0.53692 0.0
C912 C 0.99095 0.93371 0.55346 0.0
C913 C 0.98802 0.9724 0.56116 0.0
C914 C 0.95756 0.99535 0.55227 0.0
C915 C 0.92989 0.97963 0.53572 0.0
H916 H 0.00938 0.9846 0.57399 0.0
H917 H 0.74276 0.8193 0.41773 0.0
H918 H 0.54831 0.29741 0.66821 0.0
H919 H 0.54297 0.32782 0.71008 0.0
H920 H 0.60979 0.42569 0.68311 0.0
H921 H 0.61701 0.39402 0.64179 0.0
H922 H 0.64583 0.38885 0.71964 0.0
H923 H 0.51032 0.4298 0.70879 0.0
H924 H 0.44117 0.41698 0.69985 0.0
H925 H 0.43704 0.33428 0.76088 0.0
H926 H 0.50618 0.34622 0.76997 0.0
H927 H 0.68834 0.45987 0.83763 0.0
H928 H 0.65422 0.46411 0.79685 0.0
H929 H 0.5813 0.36766 0.81873 0.0
H930 H 0.61486 0.36407 0.85946 0.0
H931 H 0.54411 0.40902 0.78489 0.0
H932 H 0.66648 0.35127 0.79321 0.0
H933 H 0.73565 0.34351 0.80368 0.0
H934 H 0.76575 0.43114 0.74901 0.0
H935 H 0.69653 0.44018 0.73868 0.0
C936 C 0.55994 0.32639 0.67088 0.0
C937 C 0.58284 0.34362 0.65187 0.0
C938 C 0.55697 0.3438 0.69488 0.0
C939 C 0.57612 0.37909 0.6999 0.0
C940 C 0.59483 0.39845 0.67976 0.0
C941 C 0.59865 0.38059 0.65605 0.0
C942 C 0.58425 0.39138 0.72654 0.0
C943 C 0.62344 0.3946 0.73364 0.0
C944 C 0.55523 0.39557 0.74543 0.0
C945 C 0.51352 0.38884 0.73997 0.0
C946 C 0.49473 0.40874 0.7202 0.0
C947 C 0.4555 0.40164 0.71512 0.0
C948 C 0.43475 0.3748 0.72975 0.0
C949 C 0.45312 0.35507 0.74955 0.0
C950 C 0.4923 0.36205 0.7547 0.0
C951 C 0.66339 0.44135 0.83433 0.0
C952 C 0.65413 0.41162 0.85149 0.0
C953 C 0.64424 0.44336 0.8109 0.0
C954 C 0.61601 0.41541 0.80444 0.0
C955 C 0.60312 0.38935 0.82314 0.0
C956 C 0.62221 0.3874 0.8465 0.0
C957 C 0.6055 0.40835 0.77742 0.0
C958 C 0.56627 0.40498 0.77049 0.0
C959 C 0.63447 0.40144 0.75887 0.0
C960 C 0.67616 0.39703 0.76556 0.0
C961 C 0.68775 0.36938 0.78372 0.0
C962 C 0.72699 0.36466 0.78958 0.0
C963 C 0.75507 0.38696 0.77711 0.0
C964 C 0.74394 0.41404 0.75876 0.0
C965 C 0.70467 0.41906 0.75295 0.0
H966 H 0.78545 0.38313 0.78159 0.0
H967 H 0.40441 0.36933 0.72577 0.0
H968 H 0.24325 0.14 0.1817 0.0
H969 H 0.27391 0.08122 0.16438 0.0
H970 H 0.17132 0.05785 0.11974 0.0
H971 H 0.14074 0.11586 0.13748 0.0
H972 H 0.19595 0.99413 0.14594 0.0
H973 H 0.2498 0.08885 0.08979 0.0
H974 H 0.28195 0.151 0.07976 0.0
H975 H 0.38364 0.11469 0.1203 0.0
H976 H 0.35187 0.05249 0.1309 0.0
H977 H 0.2951 0.83219 0.08857 0.0
H978 H 0.25883 0.89367 0.09086 0.0
H979 H 0.34746 0.94177 0.13968 0.0
H980 H 0.38351 0.88139 0.13719 0.0
H981 H 0.32442 0.99369 0.10338 0.0
H982 H 0.26706 0.90506 0.16502 0.0
H983 H 0.23422 0.84456 0.17808 0.0
H984 H 0.13873 0.8705 0.12854 0.0
H985 H 0.17131 0.93097 0.11496 0.0
C986 C 0.22788 0.12264 0.16775 0.0
C987 C 0.19053 0.13292 0.15988 0.0
C988 C 0.24518 0.08918 0.15794 0.0
C989 C 0.22498 0.06557 0.1405 0.0
C990 C 0.18751 0.07589 0.1329 0.0
C991 C 0.17042 0.10929 0.1426 0.0
C992 C 0.24244 0.02931 0.13094 0.0
C993 C 0.22365 0.994 0.13614 0.0
C994 C 0.27861 0.02932 0.11834 0.0
C995 C 0.2984 0.06606 0.11121 0.0
C996 C 0.27899 0.09415 0.09662 0.0
C997 C 0.29713 0.1294 0.09084 0.0
C998 C 0.3348 0.1368 0.09941 0.0
C999 C 0.35447 0.10889 0.11367 0.0
C1000 C 0.33644 0.07359 0.11952 0.0
C1001 C 0.30688 0.85623 0.09942 0.0
C1002 C 0.34204 0.85228 0.11259 0.0
C1003 C 0.2862 0.89111 0.10082 0.0
C1004 C 0.3006 0.92222 0.11542 0.0
C1005 C 0.33602 0.91828 0.12816 0.0
C1006 C 0.35639 0.88364 0.12688 0.0
C1007 C 0.27839 0.95843 0.11893 0.0
C1008 C 0.29627 0.99382 0.11261 0.0
C1009 C 0.2414 0.9585 0.13056 0.0
C1010 C 0.22184 0.92221 0.13872 0.0
C1011 C 0.23923 0.89767 0.15675 0.0
C1012 C 0.22063 0.86344 0.16428 0.0
C1013 C 0.18447 0.85362 0.15408 0.0
C1014 C 0.16678 0.87809 0.13638 0.0
C1015 C 0.18529 0.91234 0.12876 0.0
H1016 H 0.17011 0.82711 0.15993 0.0
H1017 H 0.34877 0.16415 0.09497 0.0
H1018 H 0.35069 0.73904 0.40317 0.0
H1019 H 0.40933 0.77252 0.38771 0.0
H1020 H 0.45433 0.66355 0.36062 0.0
H1021 H 0.39586 0.63028 0.37606 0.0
H1022 H 0.50155 0.71227 0.39896 0.0
H1023 H 0.43364 0.71938 0.31628 0.0
H1024 H 0.37704 0.73888 0.29067 0.0
H1025 H 0.39121 0.85682 0.31526 0.0
H1026 H 0.44783 0.83802 0.34117 0.0
H1027 H 0.67994 0.75551 0.345 0.0
H1028 H 0.61415 0.73093 0.35152 0.0
H1029 H 0.56934 0.84723 0.34498 0.0
H1030 H 0.63522 0.87171 0.33737 0.0
H1031 H 0.51863 0.80115 0.32553 0.0
H1032 H 0.58402 0.80367 0.4037 0.0
H1033 H 0.63582 0.79333 0.43527 0.0
H1034 H 0.62112 0.67 0.42855 0.0
H1035 H 0.56962 0.67955 0.39659 0.0
C1036 C 0.37252 0.72263 0.39303 0.0
C1037 C 0.36824 0.68237 0.38981 0.0
C1038 C 0.40602 0.74167 0.38437 0.0
C1039 C 0.43603 0.72051 0.37291 0.0
C1040 C 0.4313 0.68044 0.36915 0.0
C1041 C 0.39764 0.66156 0.3775 0.0
C1042 C 0.47376 0.7393 0.36697 0.0
C1043 C 0.50558 0.7312 0.38268 0.0
C1044 C 0.4782 0.76592 0.34676 0.0
C1045 C 0.44485 0.77729 0.33069 0.0
C1046 C 0.42462 0.74945 0.31627 0.0
C1047 C 0.39258 0.76037 0.30167 0.0
C1048 C 0.38053 0.79902 0.30131 0.0
C1049 C 0.40061 0.8269 0.31551 0.0
C1050 C 0.43274 0.81616 0.33009 0.0
C1051 C 0.65597 0.77573 0.34446 0.0
C1052 C 0.66275 0.81551 0.34067 0.0
C1053 C 0.61835 0.76173 0.34844 0.0
C1054 C 0.58668 0.78729 0.34947 0.0
C1055 C 0.59317 0.82686 0.34442 0.0
C1056 C 0.63085 0.84083 0.34001 0.0
C1057 C 0.54739 0.77268 0.35684 0.0
C1058 C 0.51502 0.782 0.34173 0.0
C1059 C 0.542 0.7484 0.37837 0.0
C1060 C 0.57319 0.74234 0.3975 0.0
C1061 C 0.59205 0.77432 0.40876 0.0
C1062 C 0.62133 0.76861 0.42676 0.0
C1063 C 0.63182 0.73103 0.43385 0.0
C1064 C 0.613 0.69909 0.42299 0.0
C1065 C 0.58374 0.70464 0.40494 0.0
H1066 H 0.65447 0.72667 0.44781 0.0
H1067 H 0.35566 0.80735 0.29002 0.0
H1068 H 0.63244 0.13665 0.60406 0.0
H1069 H 0.65589 0.07127 0.61409 0.0
H1070 H 0.77396 0.11118 0.6064 0.0
H1071 H 0.75067 0.17717 0.59761 0.0
H1072 H 0.74332 0.0316 0.58059 0.0
H1073 H 0.75629 0.10816 0.65867 0.0
H1074 H 0.73183 0.14934 0.69345 0.0
H1075 H 0.64849 0.06159 0.71339 0.0
H1076 H 0.67186 0.02025 0.6783 0.0
H1077 H 0.86697 0.89813 0.648 0.0
H1078 H 0.83551 0.95712 0.63209 0.0
H1079 H 0.72383 0.91038 0.653 0.0
H1080 H 0.75494 0.85023 0.66723 0.0
H1081 H 0.74487 0.9904 0.67103 0.0
H1082 H 0.73104 0.91152 0.59939 0.0
H1083 H 0.74298 0.86894 0.56273 0.0
H1084 H 0.81528 0.95626 0.52868 0.0
H1085 H 0.80524 0.99892 0.56576 0.0
C1086 C 0.66338 0.13124 0.60396 0.0
C1087 C 0.68985 0.16175 0.59988 0.0
C1088 C 0.67667 0.09405 0.60991 0.0
C1089 C 0.71657 0.08668 0.6112 0.0
C1090 C 0.74304 0.11653 0.60561 0.0
C1091 C 0.72978 0.15402 0.60047 0.0
C1092 C 0.7308 0.04813 0.61911 0.0
C1093 C 0.74437 0.02267 0.60037 0.0
C1094 C 0.73003 0.03609 0.64483 0.0
C1095 C 0.71531 0.06144 0.66549 0.0
C1096 C 0.73224 0.09795 0.67012 0.0
C1097 C 0.7187 0.12125 0.68999 0.0
C1098 C 0.68848 0.10818 0.70554 0.0
C1099 C 0.67177 0.07176 0.70126 0.0
C1100 C 0.68512 0.04842 0.68136 0.0
C1101 C 0.83562 0.90004 0.64847 0.0
C1102 C 0.81328 0.86907 0.65779 0.0
C1103 C 0.81775 0.93377 0.63958 0.0
C1104 C 0.77733 0.93766 0.6409 0.0
C1105 C 0.75502 0.90757 0.65143 0.0
C1106 C 0.77283 0.87338 0.65961 0.0
C1107 C 0.7588 0.97415 0.63255 0.0
C1108 C 0.74418 -0.00077 0.65122 0.0
C1109 C 0.75786 0.98545 0.60667 0.0
C1110 C 0.76786 0.95828 0.58571 0.0
C1111 C 0.75053 0.92128 0.58456 0.0
C1112 C 0.75675 0.89719 0.56359 0.0
C1113 C 0.77972 0.90995 0.54339 0.0
C1114 C 0.79738 0.94648 0.54436 0.0
C1115 C 0.79165 0.97053 0.56545 0.0
H1116 H 0.78337 0.89166 0.52689 0.0
H1117 H 0.67815 0.1262 0.72097 0.0
H1118 H 0.33428 0.21953 0.88233 0.0
H1119 H 0.40093 0.24133 0.88432 0.0
H1120 H 0.43136 0.16285 0.82369 0.0
H1121 H 0.36389 0.13966 0.82201 0.0
H1122 H 0.48633 0.16366 0.86162 0.0
H1123 H 0.42405 0.26282 0.81137 0.0
H1124 H 0.37077 0.30812 0.80179 0.0
H1125 H 0.39008 0.36675 0.87279 0.0
H1126 H 0.44326 0.32173 0.88288 0.0
H1127 H 0.66262 0.29095 0.87488 0.0
H1128 H 0.60958 0.2551 0.85387 0.0
H1129 H 0.53339 0.28291 0.91622 0.0
H1130 H 0.58539 0.31766 0.93738 0.0
H1131 H 0.50991 0.30583 0.86271 0.0
H1132 H 0.55434 0.20055 0.91792 0.0
H1133 H 0.60598 0.15679 0.93284 0.0
H1134 H 0.61942 0.11197 0.85712 0.0
H1135 H 0.56811 0.15596 0.8417 0.0
C1136 C 0.35481 0.20717 0.86903 0.0
C1137 C 0.34342 0.17835 0.85159 0.0
C1138 C 0.39308 0.21983 0.87017 0.0
C1139 C 0.42102 0.20486 0.85349 0.0
C1140 C 0.4101 0.17567 0.83621 0.0
C1141 C 0.37149 0.16263 0.83515 0.0
C1142 C 0.46135 0.2201 0.85489 0.0
C1143 C 0.49178 0.19466 0.86106 0.0
C1144 C 0.46855 0.26063 0.85443 0.0
C1145 C 0.43775 0.28893 0.84782 0.0
C1146 C 0.417 0.28545 0.8249 0.0
C1147 C 0.38677 0.31105 0.8194 0.0
C1148 C 0.37706 0.3403 0.83666 0.0
C1149 C 0.3977 0.34417 0.8594 0.0
C1150 C 0.428 0.31872 0.86496 0.0
C1151 C 0.63477 0.28874 0.88429 0.0
C1152 C 0.62819 0.30756 0.90768 0.0
C1153 C 0.60458 0.2684 0.87224 0.0
C1154 C 0.56767 0.2669 0.88346 0.0
C1155 C 0.56167 0.28411 0.90723 0.0
C1156 C 0.59159 0.3039 0.9193 0.0
C1157 C 0.53397 0.24958 0.87035 0.0
C1158 C 0.50484 0.27474 0.86205 0.0
C1159 C 0.52791 0.2091 0.86928 0.0
C1160 C 0.55772 0.18175 0.87862 0.0
C1161 C 0.56847 0.18151 0.90443 0.0
C1162 C 0.59764 0.15667 0.91298 0.0
C1163 C 0.61605 0.13169 0.89592 0.0
C1164 C 0.60516 0.13138 0.8703 0.0
C1165 C 0.57601 0.15624 0.86165 0.0
H1166 H 0.63868 0.11252 0.90256 0.0
H1167 H 0.35353 0.35996 0.83243 0.0
H1168 H 0.82964 0.64519 0.60585 0.0
H1169 H 0.79379 0.58528 0.60106 0.0
H1170 H 0.75932 0.59016 0.67986 0.0
H1171 H 0.79461 0.65245 0.6847 0.0
H1172 H 0.80023 0.5136 0.65499 0.0
H1173 H 0.69036 0.59974 0.64858 0.0
H1174 H 0.65873 0.65981 0.634 0.0
H1175 H 0.67789 0.62689 0.55624 0.0
H1176 H 0.71017 0.56694 0.57033 0.0
H1177 H 0.68852 0.34725 0.61213 0.0
H1178 H 0.71445 0.40358 0.63463 0.0
H1179 H 0.72933 0.4632 0.56312 0.0
H1180 H 0.70219 0.40757 0.54056 0.0
H1181 H 0.68864 0.50583 0.5956 0.0
H1182 H 0.80615 0.43192 0.59755 0.0
H1183 H 0.84671 0.37484 0.60665 0.0
H1184 H 0.82257 0.38641 0.68643 0.0
H1185 H 0.78108 0.44304 0.67772 0.0
C1186 C 0.81422 0.63394 0.62226 0.0
C1187 C 0.81609 0.65287 0.64593 0.0
C1188 C 0.79384 0.59958 0.61944 0.0
C1189 C 0.77466 0.58307 0.64019 0.0
C1190 C 0.77462 0.60244 0.66375 0.0
C1191 C 0.79468 0.63787 0.66648 0.0
C1192 C 0.75509 0.54549 0.63602 0.0
C1193 C 0.77488 0.5115 0.64283 0.0
C1194 C 0.72327 0.54333 0.61915 0.0
C1195 C 0.70267 0.57878 0.61056 0.0
C1196 C 0.68791 0.60535 0.62838 0.0
C1197 C 0.66989 0.6394 0.62019 0.0
C1198 C 0.66629 0.64715 0.59421 0.0
C1199 C 0.68062 0.62081 0.57636 0.0
C1200 C 0.6987 0.58674 0.58444 0.0
C1201 C 0.69768 0.37214 0.60114 0.0
C1202 C 0.69234 0.37323 0.5746 0.0
C1203 C 0.71272 0.40426 0.61406 0.0
C1204 C 0.72331 0.43773 0.60057 0.0
C1205 C 0.72077 0.43779 0.57391 0.0
C1206 C 0.70547 0.40584 0.56102 0.0
C1207 C 0.7342 0.47382 0.61411 0.0
C1208 C 0.71292 0.50743 0.60871 0.0
C1209 C 0.76525 0.47563 0.63169 0.0
C1210 C 0.79017 0.44153 0.63697 0.0
C1211 C 0.80916 0.42208 0.61702 0.0
C1212 C 0.83235 0.38981 0.6221 0.0
C1213 C 0.83713 0.37693 0.64709 0.0
C1214 C 0.81878 0.39636 0.66706 0.0
C1215 C 0.79541 0.42855 0.66207 0.0
H1216 H 0.85511 0.35196 0.65099 0.0
H1217 H 0.65239 0.67356 0.58792 0.0
H1218 H 0.12634 0.16161 0.87839 0.0
H1219 H 0.06623 0.19239 0.8928 0.0
H1220 H 0.07844 0.27964 0.83453 0.0
H1221 H 0.13763 0.24779 0.81922 0.0
H1222 H 0.05515 0.30233 0.89066 0.0
H1223 H 0.02442 0.226 0.81672 0.0
H1224 H 0.02291 0.16761 0.78968 0.0
H1225 H 0.96153 0.1054 0.84795 0.0
H1226 H 0.96361 0.16317 0.87566 0.0
H1227 H 0.86237 0.37628 0.89759 0.0
H1228 H 0.92797 0.356 0.88739 0.0
H1229 H 0.89833 0.23813 0.90802 0.0
H1230 H 0.8315 0.25819 0.916 0.0
H1231 H 0.93319 0.23363 0.86832 0.0
H1232 H 0.96766 0.31101 0.94359 0.0
H1233 H 0.9706 0.37036 0.96987 0.0
H1234 H 0.02549 0.43158 0.9084 0.0
H1235 H 0.02227 0.3727 0.88177 0.0
C1236 C 0.11673 0.18796 0.86914 0.0
C1237 C 0.13646 0.2026 0.84783 0.0
C1238 C 0.08233 0.20522 0.8772 0.0
C1239 C 0.06796 0.23785 0.86446 0.0
C1240 C 0.08919 0.25429 0.84442 0.0
C1241 C 0.12295 0.23632 0.83584 0.0
C1242 C 0.02977 0.25357 0.87134 0.0
C1243 C 0.02828 0.28761 0.88575 0.0
C1244 C 0.99514 0.23395 0.86489 0.0
C1245 C 0.99491 0.19876 0.84851 0.0
C1246 C 0.01133 0.19968 0.82402 0.0
C1247 C 0.01019 0.16672 0.8085 0.0
C1248 C 0.99232 0.13275 0.81714 0.0
C1249 C 0.97554 0.13168 0.84133 0.0
C1250 C 0.97675 0.16451 0.85696 0.0
C1251 C 0.87024 0.34622 0.90061 0.0
C1252 C 0.8421 0.31876 0.90778 0.0
C1253 C 0.908 0.33461 0.89491 0.0
C1254 C 0.91889 0.29553 0.8974 0.0
C1255 C 0.89095 0.26847 0.90584 0.0
C1256 C 0.85283 0.27988 0.91068 0.0
C1257 C 0.95792 0.28197 0.88903 0.0
C1258 C 0.95975 0.24837 0.87384 0.0
C1259 C 0.9929 0.30212 0.89478 0.0
C1260 C 0.99418 0.33761 0.91066 0.0
C1261 C 0.97989 0.33726 0.93566 0.0
C1262 C 0.98173 0.37078 0.95062 0.0
C1263 C 0.9981 0.40477 0.94078 0.0
C1264 C 0.01272 0.40528 0.91599 0.0
C1265 C 0.0109 0.37184 0.90098 0.0
H1266 H -0.00043 0.43068 0.95239 0.0
H1267 H 0.99131 0.10732 0.80506 0.0
H1268 H 0.3596 0.61654 0.12504 0.0
H1269 H 0.32797 0.55655 0.13928 0.0
H1270 H 0.22112 0.59284 0.10406 0.0
H1271 H 0.25266 0.65288 0.08983 0.0
H1272 H 0.20823 0.558 0.15022 0.0
H1273 H 0.27434 0.53203 0.07357 0.0
H1274 H 0.32837 0.53033 0.04292 0.0
H1275 H 0.3928 0.45641 0.09307 0.0
H1276 H 0.3394 0.45825 0.1243 0.0
H1277 H 0.12242 0.36753 0.15098 0.0
H1278 H 0.14611 0.43278 0.14144 0.0
H1279 H 0.2618 0.39846 0.16319 0.0
H1280 H 0.2384 0.33226 0.17063 0.0
H1281 H 0.26671 0.4343 0.12148 0.0
H1282 H 0.19326 0.46477 0.19917 0.0
H1283 H 0.1333 0.46627 0.22481 0.0
H1284 H 0.07619 0.53149 0.16627 0.0
H1285 H 0.13563 0.53 0.14018 0.0
C1286 C 0.32905 0.61227 0.12105 0.0
C1287 C 0.30841 0.6396 0.10667 0.0
C1288 C 0.31115 0.57776 0.12888 0.0
C1289 C 0.27229 0.57002 0.12249 0.0
C1290 C 0.25111 0.59817 0.1092 0.0
C1291 C 0.26911 0.63247 0.10114 0.0
C1292 C 0.25433 0.53188 0.1287 0.0
C1293 C 0.22089 0.53089 0.14388 0.0
C1294 C 0.27051 0.49658 0.12008 0.0
C1295 C 0.30302 0.49574 0.10149 0.0
C1296 C 0.30021 0.51581 0.07825 0.0
C1297 C 0.33069 0.51474 0.06072 0.0
C1298 C 0.36406 0.49339 0.06608 0.0
C1299 C 0.36697 0.47302 0.08897 0.0
C1300 C 0.3366 0.47408 0.10661 0.0
C1301 C 0.15265 0.37435 0.15452 0.0
C1302 C 0.17849 0.34512 0.16206 0.0
C1303 C 0.16629 0.41177 0.14901 0.0
C1304 C 0.20583 0.42117 0.15193 0.0
C1305 C 0.23121 0.39223 0.16072 0.0
C1306 C 0.21779 0.3545 0.16536 0.0
C1307 C 0.22152 0.46002 0.14425 0.0
C1308 C 0.25433 0.46125 0.1283 0.0
C1309 C 0.20415 0.49555 0.15168 0.0
C1310 C 0.1688 0.49704 0.16768 0.0
C1311 C 0.16787 0.47932 0.19175 0.0
C1312 C 0.13397 0.48016 0.20635 0.0
C1313 C 0.10094 0.49889 0.19715 0.0
C1314 C 0.10177 0.51697 0.17337 0.0
C1315 C 0.13556 0.51618 0.1587 0.0
H1316 H 0.07472 0.49945 0.20846 0.0
H1317 H 0.3876 0.49254 0.05247 0.0
H1318 H 0.84284 0.75832 0.34409 0.0
H1319 H 0.90057 0.72607 0.36202 0.0
H1320 H 0.96935 0.82774 0.34487 0.0
H1321 H 0.91291 0.85858 0.32608 0.0
H1322 H 0.00463 0.76773 0.32796 0.0
H1323 H 0.94864 0.80113 0.41027 0.0
H1324 H 0.89836 0.80241 0.44325 0.0
H1325 H 0.88956 0.678 0.44063 0.0
H1326 H 0.94096 0.67615 0.40787 0.0
H1327 H 0.1827 0.72744 0.38504 0.0
H1328 H 0.11979 0.75894 0.37831 0.0
H1329 H 0.06133 0.65278 0.3996 0.0
H1330 H 0.12403 0.62232 0.4076 0.0
H1331 H 0.0187 0.70972 0.41372 0.0
H1332 H 0.08426 0.67854 0.33485 0.0
H1333 H 0.13645 0.68059 0.30274 0.0
H1334 H 0.126 0.80447 0.29787 0.0
H1335 H 0.07404 0.80319 0.33012 0.0
C1336 C 0.87045 0.77343 0.34418 0.0
C1337 C 0.87393 0.81033 0.33309 0.0
C1338 C 0.90328 0.75527 0.35463 0.0
C1339 C 0.93952 0.7744 0.35469 0.0
C1340 C 0.94206 0.81203 0.34468 0.0
C1341 C 0.90981 0.82958 0.33383 0.0
C1342 C 0.97576 0.75507 0.36335 0.0
C1343 C 0.00777 0.75544 0.34686 0.0
C1344 C 0.97973 0.73778 0.38758 0.0
C1345 C 0.94813 0.73857 0.40651 0.0
C1346 C 0.93573 0.7741 0.41661 0.0
C1347 C 0.90709 0.77488 0.43535 0.0
C1348 C 0.89029 0.7403 0.44395 0.0
C1349 C 0.90246 0.70479 0.43392 0.0
C1350 C 0.93152 0.70383 0.41537 0.0
C1351 C 0.1563 0.71164 0.3894 0.0
C1352 C 0.15792 0.67286 0.39729 0.0
C1353 C 0.12038 0.72928 0.38507 0.0
C1354 C 0.08573 0.70784 0.38765 0.0
C1355 C 0.0875 0.66994 0.39734 0.0
C1356 C 0.12331 0.65263 0.40214 0.0
C1357 C 0.048 0.72365 0.37863 0.0
C1358 C 0.0156 0.72202 0.39484 0.0
C1359 C 0.04368 0.74002 0.35406 0.0
C1360 C 0.07555 0.74079 0.33509 0.0
C1361 C 0.09334 0.70623 0.32709 0.0
C1362 C 0.12282 0.70726 0.30883 0.0
C1363 C 0.1346 0.74264 0.29832 0.0
C1364 C 0.11691 0.77709 0.30605 0.0
C1365 C 0.08744 0.77623 0.3243 0.0
H1366 H 0.15737 0.74336 0.28415 0.0
H1367 H 0.86802 0.74099 0.45846 0.0
loop_
_geom_bond_atom_site_label_1
_geom_bond_atom_site_label_2
_geom_bond_distance
_geom_bond_site_symmetry_2
_ccdc_geom_bond_type
Zn0 O6 1.920 . S
Zn0 O12 1.898 . S
Zn0 O15 1.905 . S
Zn1 O9 1.905 . S
Zn1 O10 1.898 . S
Zn1 O18 1.920 . S
Zn2 O5 2.080 . S
Zn2 O8 2.114 . S
Zn2 O11 2.120 . S
Zn2 O13 2.120 . S
Zn2 O14 2.114 . S
Zn2 O17 2.080 . S
C3 O8 1.166 . S
C3 O9 1.182 . S
C4 O10 1.167 . S
C4 O11 1.299 . S
O5 Zn2 2.080 . S
O5 C19 1.305 . S
O6 Zn0 1.920 . S
O6 C19 1.234 . S
C7 O12 1.167 . S
C7 O13 1.299 . S
O8 Zn2 2.114 . S
O8 C3 1.166 . S
O9 Zn1 1.905 . S
O9 C3 1.182 . S
O10 Zn1 1.898 . S
O10 C4 1.167 . S
O11 Zn2 2.120 . S
O11 C4 1.299 . S
O12 Zn0 1.898 . S
O12 C7 1.167 . S
O13 Zn2 2.120 . S
O13 C7 1.299 . S
O14 Zn2 2.114 . S
O14 C16 1.166 . S
O15 Zn0 1.905 . S
O15 C16 1.182 . S
C16 O14 1.166 . S
C16 O15 1.182 . S
O17 Zn2 2.080 . S
O17 C20 1.305 . S
O18 Zn1 1.920 . S
O18 C20 1.234 . S
C19 O5 1.305 . S
C19 O6 1.234 . S
C20 O17 1.305 . S
C20 O18 1.234 . S
Zn21 O27 1.920 . S
Zn21 O33 1.898 . S
Zn21 O36 1.905 . S
Zn22 O30 1.905 . S
Zn22 O31 1.898 . S
Zn22 O39 1.920 . S
Zn23 O26 2.080 . S
Zn23 O29 2.114 . S
Zn23 O32 2.120 . S
Zn23 O34 2.120 . S
Zn23 O35 2.114 . S
Zn23 O38 2.080 . S
C24 O29 1.166 . S
C24 O30 1.182 . S
C25 O31 1.167 . S
C25 O32 1.299 . S
O26 Zn23 2.080 . S
O26 C40 1.305 . S
O27 Zn21 1.920 . S
O27 C40 1.234 . S
C28 O33 1.167 . S
C28 O34 1.299 . S
O29 Zn23 2.114 . S
O29 C24 1.166 . S
O30 Zn22 1.905 . S
O30 C24 1.182 . S
O31 Zn22 1.898 . S
O31 C25 1.167 . S
O32 Zn23 2.120 . S
O32 C25 1.299 . S
O33 Zn21 1.898 . S
O33 C28 1.167 . S
O34 Zn23 2.120 . S
O34 C28 1.299 . S
O35 Zn23 2.114 . S
O35 C37 1.166 . S
O36 Zn21 1.905 . S
O36 C37 1.182 . S
C37 O35 1.166 . S
C37 O36 1.182 . S
O38 Zn23 2.080 . S
O38 C41 1.305 . S
O39 Zn22 1.920 . S
O39 C41 1.234 . S
C40 O26 1.305 . S
C40 O27 1.234 . S
C41 O38 1.305 . S
C41 O39 1.234 . S
Zn42 O48 1.920 . S
Zn42 O54 1.898 . S
Zn42 O57 1.905 . S
Zn43 O51 1.905 . S
Zn43 O52 1.898 . S
Zn43 O60 1.920 . S
Zn44 O47 2.080 . S
Zn44 O50 2.114 . S
Zn44 O53 2.120 . S
Zn44 O55 2.120 . S
Zn44 O56 2.114 . S
Zn44 O59 2.080 . S
C45 O50 1.166 . S
C45 O51 1.182 . S
C46 O52 1.167 . S
C46 O53 1.299 . S
O47 Zn44 2.080 . S
O47 C61 1.305 . S
O48 Zn42 1.920 . S
O48 C61 1.234 . S
C49 O54 1.167 . S
C49 O55 1.299 . S
O50 Zn44 2.114 . S
O50 C45 1.166 . S
O51 Zn43 1.905 . S
O51 C45 1.182 . S
O52 Zn43 1.898 . S
O52 C46 1.167 . S
O53 Zn44 2.120 . S
O53 C46 1.299 . S
O54 Zn42 1.898 . S
O54 C49 1.167 . S
O55 Zn44 2.120 . S
O55 C49 1.299 . S
O56 Zn44 2.114 . S
O56 C58 1.166 . S
O57 Zn42 1.905 . S
O57 C58 1.182 . S
C58 O56 1.166 . S
C58 O57 1.182 . S
O59 Zn44 2.080 . S
O59 C62 1.305 . S
O60 Zn43 1.920 . S
O60 C62 1.234 . S
C61 O47 1.305 . S
C61 O48 1.234 . S
C62 O59 1.305 . S
C62 O60 1.234 . S
Zn63 O69 1.920 . S
Zn63 O75 1.898 . S
Zn63 O78 1.905 . S
Zn64 O72 1.905 . S
Zn64 O73 1.898 . S
Zn64 O81 1.920 . S
Zn65 O68 2.080 . S
Zn65 O71 2.114 . S
Zn65 O74 2.120 . S
Zn65 O76 2.120 . S
Zn65 O77 2.114 . S
Zn65 O80 2.080 . S
C66 O71 1.166 . S
C66 O72 1.182 . S
C67 O73 1.167 . S
C67 O74 1.299 . S
O68 Zn65 2.080 . S
O68 C82 1.305 . S
O69 Zn63 1.920 . S
O69 C82 1.234 . S
C70 O75 1.167 . S
C70 O76 1.299 . S
O71 Zn65 2.114 . S
O71 C66 1.166 . S
O72 Zn64 1.905 . S
O72 C66 1.182 . S
O73 Zn64 1.898 . S
O73 C67 1.167 . S
O74 Zn65 2.120 . S
O74 C67 1.299 . S
O75 Zn63 1.898 . S
O75 C70 1.167 . S
O76 Zn65 2.120 . S
O76 C70 1.299 . S
O77 Zn65 2.114 . S
O77 C79 1.166 . S
O78 Zn63 1.905 . S
O78 C79 1.182 . S
C79 O77 1.166 . S
C79 O78 1.182 . S
O80 Zn65 2.080 . S
O80 C83 1.305 . S
O81 Zn64 1.920 . S
O81 C83 1.234 . S
C82 O68 1.305 . S
C82 O69 1.234 . S
C83 O80 1.305 . S
C83 O81 1.234 . S
Zn84 O90 1.920 . S
Zn84 O96 1.898 . S
Zn84 O99 1.905 . S
Zn85 O93 1.905 . S
Zn85 O94 1.898 . S
Zn85 O102 1.920 . S
Zn86 O89 2.080 . S
Zn86 O92 2.114 . S
Zn86 O95 2.120 . S
Zn86 O97 2.120 . S
Zn86 O98 2.114 . S
Zn86 O101 2.080 . S
C87 O92 1.166 . S
C87 O93 1.182 . S
C88 O94 1.167 . S
C88 O95 1.299 . S
O89 Zn86 2.080 . S
O89 C103 1.305 . S
O90 Zn84 1.920 . S
O90 C103 1.234 . S
C91 O96 1.167 . S
C91 O97 1.299 . S
O92 Zn86 2.114 . S
O92 C87 1.166 . S
O93 Zn85 1.905 . S
O93 C87 1.182 . S
O94 Zn85 1.898 . S
O94 C88 1.167 . S
O95 Zn86 2.120 . S
O95 C88 1.299 . S
O96 Zn84 1.898 . S
O96 C91 1.167 . S
O97 Zn86 2.120 . S
O97 C91 1.299 . S
O98 Zn86 2.114 . S
O98 C100 1.166 . S
O99 Zn84 1.905 . S
O99 C100 1.182 . S
C100 O98 1.166 . S
C100 O99 1.182 . S
O101 Zn86 2.080 . S
O101 C104 1.305 . S
O102 Zn85 1.920 . S
O102 C104 1.234 . S
C103 O89 1.305 . S
C103 O90 1.234 . S
C104 O101 1.305 . S
C104 O102 1.234 . S
Zn105 O111 1.920 . S
Zn105 O117 1.898 . S
Zn105 O120 1.905 . S
Zn106 O114 1.905 . S
Zn106 O115 1.898 . S
Zn106 O123 1.920 . S
Zn107 O110 2.080 . S
Zn107 O113 2.114 . S
Zn107 O116 2.120 . S
Zn107 O118 2.120 . S
Zn107 O119 2.114 . S
Zn107 O122 2.080 . S
C108 O113 1.166 . S
C108 O114 1.182 . S
C109 O115 1.167 . S
C109 O116 1.299 . S
O110 Zn107 2.080 . S
O110 C124 1.305 . S
O111 Zn105 1.920 . S
O111 C124 1.234 . S
C112 O117 1.167 . S
C112 O118 1.299 . S
O113 Zn107 2.114 . S
O113 C108 1.166 . S
O114 Zn106 1.905 . S
O114 C108 1.182 . S
O115 Zn106 1.898 . S
O115 C109 1.167 . S
O116 Zn107 2.120 . S
O116 C109 1.299 . S
O117 Zn105 1.898 . S
O117 C112 1.167 . S
O118 Zn107 2.120 . S
O118 C112 1.299 . S
O119 Zn107 2.114 . S
O119 C121 1.166 . S
O120 Zn105 1.905 . S
O120 C121 1.182 . S
C121 O119 1.166 . S
C121 O120 1.182 . S
O122 Zn107 2.080 . S
O122 C125 1.305 . S
O123 Zn106 1.920 . S
O123 C125 1.234 . S
C124 O110 1.305 . S
C124 O111 1.234 . S
C125 O122 1.305 . S
C125 O123 1.234 . S
Zn126 O132 1.920 . S
Zn126 O138 1.898 . S
Zn126 O141 1.905 . S
Zn127 O135 1.905 . S
Zn127 O136 1.898 . S
Zn127 O144 1.920 . S
Zn128 O131 2.080 . S
Zn128 O134 2.114 . S
Zn128 O137 2.120 . S
Zn128 O139 2.120 . S
Zn128 O140 2.114 . S
Zn128 O143 2.080 . S
C129 O134 1.166 . S
C129 O135 1.182 . S
C130 O136 1.167 . S
C130 O137 1.299 . S
O131 Zn128 2.080 . S
O131 C145 1.305 . S
O132 Zn126 1.920 . S
O132 C145 1.234 . S
C133 O138 1.167 . S
C133 O139 1.299 . S
O134 Zn128 2.114 . S
O134 C129 1.166 . S
O135 Zn127 1.905 . S
O135 C129 1.182 . S
O136 Zn127 1.898 . S
O136 C130 1.167 . S
O137 Zn128 2.120 . S
O137 C130 1.299 . S
O138 Zn126 1.898 . S
O138 C133 1.167 . S
O139 Zn128 2.120 . S
O139 C133 1.299 . S
O140 Zn128 2.114 . S
O140 C142 1.166 . S
O141 Zn126 1.905 . S
O141 C142 1.182 . S
C142 O140 1.166 . S
C142 O141 1.182 . S
O143 Zn128 2.080 . S
O143 C146 1.305 . S
O144 Zn127 1.920 . S
O144 C146 1.234 . S
C145 O131 1.305 . S
C145 O132 1.234 . S
C146 O143 1.305 . S
C146 O144 1.234 . S
Zn147 O153 1.920 . S
Zn147 O159 1.898 . S
Zn147 O162 1.905 . S
Zn148 O156 1.905 . S
Zn148 O157 1.898 . S
Zn148 O165 1.920 . S
Zn149 O152 2.080 . S
Zn149 O155 2.114 . S
Zn149 O158 2.120 . S
Zn149 O160 2.120 . S
Zn149 O161 2.114 . S
Zn149 O164 2.080 . S
C150 O155 1.166 . S
C150 O156 1.182 . S
C151 O157 1.167 . S
C151 O158 1.299 . S
O152 Zn149 2.080 . S
O152 C166 1.305 . S
O153 Zn147 1.920 . S
O153 C166 1.234 . S
C154 O159 1.167 . S
C154 O160 1.299 . S
O155 Zn149 2.114 . S
O155 C150 1.166 . S
O156 Zn148 1.905 . S
O156 C150 1.182 . S
O157 Zn148 1.898 . S
O157 C151 1.167 . S
O158 Zn149 2.120 . S
O158 C151 1.299 . S
O159 Zn147 1.898 . S
O159 C154 1.167 . S
O160 Zn149 2.120 . S
O160 C154 1.299 . S
O161 Zn149 2.114 . S
O161 C163 1.166 . S
O162 Zn147 1.905 . S
O162 C163 1.182 . S
C163 O161 1.166 . S
C163 O162 1.182 . S
O164 Zn149 2.080 . S
O164 C167 1.305 . S
O165 Zn148 1.920 . S
O165 C167 1.234 . S
C166 O152 1.305 . S
C166 O153 1.234 . S
C167 O164 1.305 . S
C167 O165 1.234 . S
H168 C186 0.951 . S
H169 C188 0.951 . S
H170 C190 0.950 . S
H171 C191 0.950 . S
H172 C193 0.950 . S
H173 C196 0.950 . S
H174 C197 0.950 1_455 S
H175 C199 0.950 . S
H176 C200 0.950 . S
H177 C201 0.951 . S
H178 C203 0.946 1_565 S
H179 C205 0.950 . S
H180 C206 0.950 . S
H181 C208 0.950 . S
H182 C211 0.950 . S
H183 C212 0.950 . S
H184 C214 0.950 . S
H185 C215 0.950 . S
C186 H168 0.951 . S
C186 C187 1.366 . S
C186 C188 1.388 . S
C187 C186 1.366 . S
C187 C191 1.385 1_655 S
C188 H169 0.951 . S
C188 C186 1.388 . S
C188 C189 1.366 . S
C189 C188 1.366 . S
C189 C190 1.414 . S
C189 C192 1.499 . S
C190 H170 0.950 . S
C190 C189 1.414 . S
C190 C191 1.374 1_655 S
C191 H171 0.950 . S
C191 C187 1.385 1_455 S
C191 C190 1.374 1_455 S
C192 C189 1.499 . S
C192 C193 1.373 . S
C192 C194 1.389 . S
C193 H172 0.950 . S
C193 C192 1.373 . S
C193 C209 1.377 . S
C194 C192 1.389 . S
C194 C195 1.524 . S
C194 C208 1.377 . S
C195 C194 1.524 . S
C195 C196 1.397 . S
C195 C200 1.363 . S
C196 H173 0.950 . S
C196 C195 1.397 . S
C196 C197 1.334 . S
C197 H174 0.950 1_655 S
C197 C196 1.334 . S
C197 C198 1.287 . S
C198 C197 1.287 . S
C198 C199 1.524 . S
C198 H217 0.913 . S
C199 H175 0.950 . S
C199 C198 1.524 . S
C199 C200 1.415 . S
C200 H176 0.950 . S
C200 C195 1.363 . S
C200 C199 1.415 . S
C201 H177 0.951 . S
C201 C202 1.366 1_565 S
C201 C203 1.388 1_565 S
C202 C201 1.366 1_545 S
C202 C206 1.385 . S
C203 H178 0.946 1_545 S
C203 C201 1.388 1_545 S
C203 C204 1.366 . S
C204 C203 1.366 . S
C204 C205 1.414 . S
C204 C207 1.499 . S
C205 H179 0.950 . S
C205 C204 1.414 . S
C205 C206 1.374 . S
C206 H180 0.950 . S
C206 C202 1.385 . S
C206 C205 1.374 . S
C207 C204 1.499 . S
C207 C208 1.373 . S
C207 C209 1.389 . S
C208 H181 0.950 . S
C208 C194 1.377 . S
C208 C207 1.373 . S
C209 C193 1.377 . S
C209 C207 1.389 . S
C209 C210 1.524 . S
C210 C209 1.524 . S
C210 C211 1.397 . S
C210 C215 1.363 1_545 S
C211 H182 0.950 . S
C211 C210 1.397 . S
C211 C212 1.334 1_545 S
C212 H183 0.950 . S
C212 C211 1.334 1_565 S
C212 C213 1.287 . S
C213 C212 1.287 . S
C213 C214 1.524 . S
C213 H216 0.999 . S
C214 H184 0.950 . S
C214 C213 1.524 . S
C214 C215 1.415 . S
C215 H185 0.950 . S
C215 C210 1.363 1_565 S
C215 C214 1.415 . S
H216 C213 0.999 . S
H217 C198 0.913 . S
H218 C236 0.951 . S
H219 C238 0.951 . S
H220 C240 0.950 . S
H221 C241 0.950 . S
H222 C243 0.950 . S
H223 C246 0.950 . S
H224 C247 0.950 . S
H225 C249 0.950 . S
H226 C250 0.950 . S
H227 C251 0.951 . S
H228 C253 0.951 . S
H229 C255 0.950 . S
H230 C256 0.950 . S
H231 C258 0.950 . S
H232 C261 0.950 . S
H233 C262 0.950 . S
H234 C264 0.950 . S
H235 C265 0.950 . S
C236 H218 0.951 . S
C236 C237 1.366 . S
C236 C238 1.388 . S
C237 C236 1.366 . S
C237 C241 1.385 . S
C238 H219 0.951 . S
C238 C236 1.388 . S
C238 C239 1.366 . S
C239 C238 1.366 . S
C239 C240 1.414 . S
C239 C242 1.499 . S
C240 H220 0.950 . S
C240 C239 1.414 . S
C240 C241 1.374 . S
C241 H221 0.950 . S
C241 C237 1.385 . S
C241 C240 1.374 . S
C242 C239 1.499 . S
C242 C243 1.373 . S
C242 C244 1.389 . S
C243 H222 0.950 . S
C243 C242 1.373 . S
C243 C259 1.377 . S
C244 C242 1.389 . S
C244 C245 1.524 . S
C244 C258 1.377 . S
C245 C244 1.524 . S
C245 C246 1.397 . S
C245 C250 1.363 . S
C246 H223 0.950 . S
C246 C245 1.397 . S
C246 C247 1.334 . S
C247 H224 0.950 . S
C247 C246 1.334 . S
C247 C248 1.287 . S
C248 C247 1.287 . S
C248 C249 1.524 . S
C248 H267 0.913 . S
C249 H225 0.950 . S
C249 C248 1.524 . S
C249 C250 1.415 . S
C250 H226 0.950 . S
C250 C245 1.363 . S
C250 C249 1.415 . S
C251 H227 0.951 . S
C251 C252 1.366 . S
C251 C253 1.388 . S
C252 C251 1.366 . S
C252 C256 1.385 . S
C253 H228 0.951 . S
C253 C251 1.388 . S
C253 C254 1.366 . S
C254 C253 1.366 . S
C254 C255 1.414 . S
C254 C257 1.499 . S
C255 H229 0.950 . S
C255 C254 1.414 . S
C255 C256 1.374 . S
C256 H230 0.950 . S
C256 C252 1.385 . S
C256 C255 1.374 . S
C257 C254 1.499 . S
C257 C258 1.373 . S
C257 C259 1.389 . S
C258 H231 0.950 . S
C258 C244 1.377 . S
C258 C257 1.373 . S
C259 C243 1.377 . S
C259 C257 1.389 . S
C259 C260 1.524 . S
C260 C259 1.524 . S
C260 C261 1.397 . S
C260 C265 1.363 . S
C261 H232 0.950 . S
C261 C260 1.397 . S
C261 C262 1.334 . S
C262 H233 0.950 . S
C262 C261 1.334 . S
C262 C263 1.287 . S
C263 C262 1.287 . S
C263 C264 1.524 . S
C263 H266 0.999 . S
C264 H234 0.950 . S
C264 C263 1.524 . S
C264 C265 1.415 . S
C265 H235 0.950 . S
C265 C260 1.363 . S
C265 C264 1.415 . S
H266 C263 0.999 . S
H267 C248 0.913 . S
H268 C286 0.951 1_655 S
H269 C288 0.951 . S
H270 C290 0.950 . S
H271 C291 0.950 . S
H272 C293 0.950 . S
H273 C296 0.950 . S
H274 C297 0.950 . S
H275 C299 0.950 . S
H276 C300 0.950 . S
H277 C301 0.951 . S
H278 C303 0.951 . S
H279 C305 0.950 1_545 S
H280 C306 0.950 . S
H281 C308 0.950 . S
H282 C311 0.950 . S
H283 C312 0.950 . S
H284 C314 0.950 . S
H285 C315 0.950 . S
C286 H268 0.951 1_455 S
C286 C287 1.366 . S
C286 C288 1.388 . S
C287 C286 1.366 . S
C287 C291 1.385 . S
C288 H269 0.951 . S
C288 C286 1.388 . S
C288 C289 1.366 . S
C289 C288 1.366 . S
C289 C290 1.414 . S
C289 C292 1.499 . S
C290 H270 0.950 . S
C290 C289 1.414 . S
C290 C291 1.374 . S
C291 H271 0.950 . S
C291 C287 1.385 . S
C291 C290 1.374 . S
C292 C289 1.499 . S
C292 C293 1.373 . S
C292 C294 1.389 . S
C293 H272 0.950 . S
C293 C292 1.373 . S
C293 C309 1.377 . S
C294 C292 1.389 . S
C294 C295 1.524 . S
C294 C308 1.377 . S
C295 C294 1.524 . S
C295 C296 1.397 . S
C295 C300 1.363 . S
C296 H273 0.950 . S
C296 C295 1.397 . S
C296 C297 1.334 . S
C297 H274 0.950 . S
C297 C296 1.334 . S
C297 C298 1.287 . S
C298 C297 1.287 . S
C298 C299 1.524 . S
C298 H317 0.913 . S
C299 H275 0.950 . S
C299 C298 1.524 . S
C299 C300 1.415 . S
C300 H276 0.950 . S
C300 C295 1.363 . S
C300 C299 1.415 . S
C301 H277 0.951 . S
C301 C302 1.366 . S
C301 C303 1.388 . S
C302 C301 1.366 . S
C302 C306 1.385 1_565 S
C303 H278 0.951 . S
C303 C301 1.388 . S
C303 C304 1.366 . S
C304 C303 1.366 . S
C304 C305 1.414 . S
C304 C307 1.499 . S
C305 H279 0.950 1_565 S
C305 C304 1.414 . S
C305 C306 1.374 1_565 S
C306 H280 0.950 . S
C306 C302 1.385 1_545 S
C306 C305 1.374 1_545 S
C307 C304 1.499 . S
C307 C308 1.373 . S
C307 C309 1.389 . S
C308 H281 0.950 . S
C308 C294 1.377 . S
C308 C307 1.373 . S
C309 C293 1.377 . S
C309 C307 1.389 . S
C309 C310 1.524 . S
C310 C309 1.524 . S
C310 C311 1.397 . S
C310 C315 1.363 . S
C311 H282 0.950 . S
C311 C310 1.397 . S
C311 C312 1.334 . S
C312 H283 0.950 . S
C312 C311 1.334 . S
C312 C313 1.287 . S
C313 C312 1.287 . S
C313 C314 1.524 . S
C313 H316 0.999 . S
C314 H284 0.950 . S
C314 C313 1.524 . S
C314 C315 1.415 . S
C315 H285 0.950 . S
C315 C310 1.363 . S
C315 C314 1.415 . S
H316 C313 0.999 . S
H317 C298 0.913 . S
H318 C336 0.951 . S
H319 C338 0.951 . S
H320 C340 0.950 . S
H321 C341 0.950 . S
H322 C343 0.950 . S
H323 C346 0.939 1_556 S
H324 C347 0.950 . S
H325 C349 0.950 . S
H326 C350 0.950 . S
H327 C351 0.951 . S
H328 C353 0.951 . S
H329 C355 0.950 . S
H330 C356 0.950 . S
H331 C358 0.950 . S
H332 C361 0.939 1_554 S
H333 C362 0.950 . S
H334 C364 0.950 . S
H335 C365 0.950 . S
C336 H318 0.951 . S
C336 C337 1.366 . S
C336 C338 1.388 . S
C337 C336 1.366 . S
C337 C341 1.385 . S
C338 H319 0.951 . S
C338 C336 1.388 . S
C338 C339 1.366 . S
C339 C338 1.366 . S
C339 C340 1.414 . S
C339 C342 1.499 . S
C340 H320 0.950 . S
C340 C339 1.414 . S
C340 C341 1.374 . S
C341 H321 0.950 . S
C341 C337 1.385 . S
C341 C340 1.374 . S
C342 C339 1.499 . S
C342 C343 1.373 . S
C342 C344 1.389 . S
C343 H322 0.950 . S
C343 C342 1.373 . S
C343 C359 1.377 1_554 S
C344 C342 1.389 . S
C344 C345 1.524 . S
C344 C358 1.377 1_554 S
C345 C344 1.524 . S
C345 C346 1.397 . S
C345 C350 1.363 . S
C346 H323 0.939 1_554 S
C346 C345 1.397 . S
C346 C347 1.334 . S
C347 H324 0.950 . S
C347 C346 1.334 . S
C347 C348 1.287 . S
C348 C347 1.287 . S
C348 C349 1.524 . S
C348 H367 0.913 . S
C349 H325 0.950 . S
C349 C348 1.524 . S
C349 C350 1.415 . S
C350 H326 0.950 . S
C350 C345 1.363 . S
C350 C349 1.415 . S
C351 H327 0.951 . S
C351 C352 1.366 . S
C351 C353 1.388 . S
C352 C351 1.366 . S
C352 C356 1.385 . S
C353 H328 0.951 . S
C353 C351 1.388 . S
C353 C354 1.366 . S
C354 C353 1.366 . S
C354 C355 1.414 . S
C354 C357 1.499 . S
C355 H329 0.950 . S
C355 C354 1.414 . S
C355 C356 1.374 . S
C356 H330 0.950 . S
C356 C352 1.385 . S
C356 C355 1.374 . S
C357 C354 1.499 . S
C357 C358 1.373 . S
C357 C359 1.389 . S
C358 H331 0.950 . S
C358 C344 1.377 1_556 S
C358 C357 1.373 . S
C359 C343 1.377 1_556 S
C359 C357 1.389 . S
C359 C360 1.524 . S
C360 C359 1.524 . S
C360 C361 1.397 . S
C360 C365 1.363 . S
C361 H332 0.939 1_556 S
C361 C360 1.397 . S
C361 C362 1.334 . S
C362 H333 0.950 . S
C362 C361 1.334 . S
C362 C363 1.287 . S
C363 C362 1.287 . S
C363 C364 1.524 . S
C363 H366 0.999 . S
C364 H334 0.950 . S
C364 C363 1.524 . S
C364 C365 1.415 . S
C365 H335 0.950 . S
C365 C360 1.363 . S
C365 C364 1.415 . S
H366 C363 0.999 . S
H367 C348 0.913 . S
H368 C386 0.951 . S
H369 C388 0.951 . S
H370 C390 0.950 . S
H371 C391 0.950 . S
H372 C393 0.950 . S
H373 C396 0.950 . S
H374 C397 0.950 1_655 S
H375 C399 0.950 . S
H376 C400 0.950 . S
H377 C401 0.951 . S
H378 C403 0.951 . S
H379 C405 0.950 . S
H380 C406 0.950 . S
H381 C408 0.950 . S
H382 C411 0.950 . S
H383 C412 0.950 . S
H384 C414 0.950 . S
H385 C415 0.950 . S
C386 H368 0.951 . S
C386 C387 1.366 . S
C386 C388 1.388 . S
C387 C386 1.366 . S
C387 C391 1.385 . S
C388 H369 0.951 . S
C388 C386 1.388 . S
C388 C389 1.366 . S
C389 C388 1.366 . S
C389 C390 1.414 . S
C389 C392 1.499 . S
C390 H370 0.950 . S
C390 C389 1.414 . S
C390 C391 1.374 . S
C391 H371 0.950 . S
C391 C387 1.385 . S
C391 C390 1.374 . S
C392 C389 1.499 . S
C392 C393 1.373 . S
C392 C394 1.389 . S
C393 H372 0.950 . S
C393 C392 1.373 . S
C393 C409 1.377 . S
C394 C392 1.389 . S
C394 C395 1.524 . S
C394 C408 1.377 . S
C395 C394 1.524 . S
C395 C396 1.397 . S
C395 C400 1.363 . S
C396 H373 0.950 . S
C396 C395 1.397 . S
C396 C397 1.334 . S
C397 H374 0.950 1_455 S
C397 C396 1.334 . S
C397 C398 1.287 . S
C398 C397 1.287 . S
C398 C399 1.524 . S
C398 H417 0.913 1_455 S
C399 H375 0.950 . S
C399 C398 1.524 . S
C399 C400 1.415 . S
C400 H376 0.950 . S
C400 C395 1.363 . S
C400 C399 1.415 . S
C401 H377 0.951 . S
C401 C402 1.366 . S
C401 C403 1.388 . S
C402 C401 1.366 . S
C402 C406 1.385 . S
C403 H378 0.951 . S
C403 C401 1.388 . S
C403 C404 1.366 . S
C404 C403 1.366 . S
C404 C405 1.414 . S
C404 C407 1.499 . S
C405 H379 0.950 . S
C405 C404 1.414 . S
C405 C406 1.374 . S
C406 H380 0.950 . S
C406 C402 1.385 . S
C406 C405 1.374 . S
C407 C404 1.499 . S
C407 C408 1.373 . S
C407 C409 1.389 . S
C408 H381 0.950 . S
C408 C394 1.377 . S
C408 C407 1.373 . S
C409 C393 1.377 . S
C409 C407 1.389 . S
C409 C410 1.524 . S
C410 C409 1.524 . S
C410 C411 1.397 . S
C410 C415 1.363 . S
C411 H382 0.950 . S
C411 C410 1.397 . S
C411 C412 1.334 . S
C412 H383 0.950 . S
C412 C411 1.334 . S
C412 C413 1.287 . S
C413 C412 1.287 . S
C413 C414 1.524 . S
C413 H416 0.999 . S
C414 H384 0.950 . S
C414 C413 1.524 . S
C414 C415 1.415 . S
C415 H385 0.950 . S
C415 C410 1.363 . S
C415 C414 1.415 . S
H416 C413 0.999 . S
H417 C398 0.913 1_655 S
H418 C436 0.951 . S
H419 C438 0.951 . S
H420 C440 0.950 . S
H421 C441 0.950 . S
H422 C443 0.950 . S
H423 C446 0.950 . S
H424 C447 0.950 . S
H425 C449 0.950 1_655 S
H426 C450 0.950 . S
H427 C451 0.951 . S
H428 C453 0.951 . S
H429 C455 0.950 . S
H430 C456 0.950 . S
H431 C458 0.950 . S
H432 C461 0.950 . S
H433 C462 0.950 . S
H434 C464 0.950 . S
H435 C465 0.950 . S
C436 H418 0.951 . S
C436 C437 1.366 1_655 S
C436 C438 1.388 1_655 S
C437 C436 1.366 1_455 S
C437 C441 1.385 . S
C438 H419 0.951 . S
C438 C436 1.388 1_455 S
C438 C439 1.366 . S
C439 C438 1.366 . S
C439 C440 1.414 . S
C439 C442 1.499 . S
C440 H420 0.950 . S
C440 C439 1.414 . S
C440 C441 1.374 . S
C441 H421 0.950 . S
C441 C437 1.385 . S
C441 C440 1.374 . S
C442 C439 1.499 . S
C442 C443 1.373 . S
C442 C444 1.389 . S
C443 H422 0.950 . S
C443 C442 1.373 . S
C443 C459 1.377 . S
C444 C442 1.389 . S
C444 C445 1.524 . S
C444 C458 1.377 . S
C445 C444 1.524 . S
C445 C446 1.397 . S
C445 C450 1.363 . S
C446 H423 0.950 . S
C446 C445 1.397 . S
C446 C447 1.334 . S
C447 H424 0.950 . S
C447 C446 1.334 . S
C447 C448 1.287 . S
C448 C447 1.287 . S
C448 C449 1.524 . S
C448 H467 0.913 . S
C449 H425 0.950 1_455 S
C449 C448 1.524 . S
C449 C450 1.415 . S
C450 H426 0.950 . S
C450 C445 1.363 . S
C450 C449 1.415 . S
C451 H427 0.951 . S
C451 C452 1.366 . S
C451 C453 1.388 . S
C452 C451 1.366 . S
C452 C456 1.385 . S
C453 H428 0.951 . S
C453 C451 1.388 . S
C453 C454 1.366 . S
C454 C453 1.366 . S
C454 C455 1.414 . S
C454 C457 1.499 . S
C455 H429 0.950 . S
C455 C454 1.414 . S
C455 C456 1.374 . S
C456 H430 0.950 . S
C456 C452 1.385 . S
C456 C455 1.374 . S
C457 C454 1.499 . S
C457 C458 1.373 . S
C457 C459 1.389 . S
C458 H431 0.950 . S
C458 C444 1.377 . S
C458 C457 1.373 . S
C459 C443 1.377 . S
C459 C457 1.389 . S
C459 C460 1.524 . S
C460 C459 1.524 . S
C460 C461 1.397 . S
C460 C465 1.363 . S
C461 H432 0.950 . S
C461 C460 1.397 . S
C461 C462 1.334 . S
C462 H433 0.950 . S
C462 C461 1.334 . S
C462 C463 1.287 . S
C463 C462 1.287 . S
C463 C464 1.524 . S
C463 H466 0.999 . S
C464 H434 0.950 . S
C464 C463 1.524 . S
C464 C465 1.415 . S
C465 H435 0.950 . S
C465 C460 1.363 . S
C465 C464 1.415 . S
H466 C463 0.999 . S
H467 C448 0.913 . S
H468 C486 0.951 . S
H469 C488 0.951 . S
H470 C490 0.950 . S
H471 C491 0.950 . S
H472 C493 0.950 . S
H473 C496 0.950 . S
H474 C497 0.950 . S
H475 C499 0.950 . S
H476 C500 0.950 . S
H477 C501 0.951 . S
H478 C503 0.951 . S
H479 C505 0.950 . S
H480 C506 0.950 . S
H481 C508 0.950 . S
H482 C511 0.950 . S
H483 C512 0.950 . S
H484 C514 0.950 . S
H485 C515 0.950 . S
C486 H468 0.951 . S
C486 C487 1.366 . S
C486 C488 1.388 . S
C487 C486 1.366 . S
C487 C491 1.385 . S
C488 H469 0.951 . S
C488 C486 1.388 . S
C488 C489 1.366 . S
C489 C488 1.366 . S
C489 C490 1.414 . S
C489 C492 1.499 . S
C490 H470 0.950 . S
C490 C489 1.414 . S
C490 C491 1.374 . S
C491 H471 0.950 . S
C491 C487 1.385 . S
C491 C490 1.374 . S
C492 C489 1.499 . S
C492 C493 1.373 . S
C492 C494 1.389 . S
C493 H472 0.950 . S
C493 C492 1.373 . S
C493 C509 1.377 . S
C494 C492 1.389 . S
C494 C495 1.524 . S
C494 C508 1.377 . S
C495 C494 1.524 . S
C495 C496 1.397 . S
C495 C500 1.363 . S
C496 H473 0.950 . S
C496 C495 1.397 . S
C496 C497 1.334 . S
C497 H474 0.950 . S
C497 C496 1.334 . S
C497 C498 1.287 . S
C498 C497 1.287 . S
C498 C499 1.524 . S
C498 H517 0.913 . S
C499 H475 0.950 . S
C499 C498 1.524 . S
C499 C500 1.415 . S
C500 H476 0.950 . S
C500 C495 1.363 . S
C500 C499 1.415 . S
C501 H477 0.951 . S
C501 C502 1.366 . S
C501 C503 1.388 . S
C502 C501 1.366 . S
C502 C506 1.385 . S
C503 H478 0.951 . S
C503 C501 1.388 . S
C503 C504 1.366 . S
C504 C503 1.366 . S
C504 C505 1.414 . S
C504 C507 1.499 . S
C505 H479 0.950 . S
C505 C504 1.414 . S
C505 C506 1.374 . S
C506 H480 0.950 . S
C506 C502 1.385 . S
C506 C505 1.374 . S
C507 C504 1.499 . S
C507 C508 1.373 . S
C507 C509 1.389 . S
C508 H481 0.950 . S
C508 C494 1.377 . S
C508 C507 1.373 . S
C509 C493 1.377 . S
C509 C507 1.389 . S
C509 C510 1.524 . S
C510 C509 1.524 . S
C510 C511 1.397 . S
C510 C515 1.363 . S
C511 H482 0.950 . S
C511 C510 1.397 . S
C511 C512 1.334 . S
C512 H483 0.950 . S
C512 C511 1.334 . S
C512 C513 1.287 . S
C513 C512 1.287 . S
C513 C514 1.524 . S
C513 H516 0.999 . S
C514 H484 0.950 . S
C514 C513 1.524 . S
C514 C515 1.415 . S
C515 H485 0.950 . S
C515 C510 1.363 . S
C515 C514 1.415 . S
H516 C513 0.999 . S
H517 C498 0.913 . S
H518 C536 0.951 1_455 S
H519 C538 0.951 . S
H520 C540 0.950 . S
H521 C541 0.950 . S
H522 C543 0.950 . S
H523 C546 0.950 . S
H524 C547 0.950 . S
H525 C549 0.950 . S
H526 C550 0.950 . S
H527 C551 0.951 . S
H528 C553 0.951 1_554 S
H529 C555 0.950 . S
H530 C556 0.950 . S
H531 C558 0.950 . S
H532 C561 0.950 . S
H533 C562 0.950 . S
H534 C564 0.950 . S
H535 C565 0.950 . S
C536 H518 0.951 1_655 S
C536 C537 1.366 . S
C536 C538 1.388 . S
C537 C536 1.366 . S
C537 C541 1.385 . S
C538 H519 0.951 . S
C538 C536 1.388 . S
C538 C539 1.366 . S
C539 C538 1.366 . S
C539 C540 1.414 . S
C539 C542 1.499 . S
C540 H520 0.950 . S
C540 C539 1.414 . S
C540 C541 1.374 . S
C541 H521 0.950 . S
C541 C537 1.385 . S
C541 C540 1.374 . S
C542 C539 1.499 . S
C542 C543 1.373 . S
C542 C544 1.389 . S
C543 H522 0.950 . S
C543 C542 1.373 . S
C543 C559 1.377 . S
C544 C542 1.389 . S
C544 C545 1.524 . S
C544 C558 1.377 . S
C545 C544 1.524 . S
C545 C546 1.397 . S
C545 C550 1.363 . S
C546 H523 0.950 . S
C546 C545 1.397 . S
C546 C547 1.334 . S
C547 H524 0.950 . S
C547 C546 1.334 . S
C547 C548 1.287 . S
C548 C547 1.287 . S
C548 C549 1.524 . S
C548 H567 0.913 . S
C549 H525 0.950 . S
C549 C548 1.524 . S
C549 C550 1.415 . S
C550 H526 0.950 . S
C550 C545 1.363 . S
C550 C549 1.415 . S
C551 H527 0.951 . S
C551 C552 1.366 . S
C551 C553 1.388 . S
C552 C551 1.366 . S
C552 C556 1.385 . S
C553 H528 0.951 1_556 S
C553 C551 1.388 . S
C553 C554 1.360 1_556 S
C554 C553 1.360 1_554 S
C554 C555 1.401 1_554 S
C554 C557 1.518 . S
C555 H529 0.950 . S
C555 C554 1.401 1_556 S
C555 C556 1.374 . S
C556 H530 0.950 . S
C556 C552 1.385 . S
C556 C555 1.374 . S
C557 C554 1.518 . S
C557 C558 1.373 . S
C557 C559 1.389 . S
C558 H531 0.950 . S
C558 C544 1.377 . S
C558 C557 1.373 . S
C559 C543 1.377 . S
C559 C557 1.389 . S
C559 C560 1.524 . S
C560 C559 1.524 . S
C560 C561 1.397 1_554 S
C560 C565 1.363 . S
C561 H532 0.950 . S
C561 C560 1.397 1_556 S
C561 C562 1.334 . S
C562 H533 0.950 . S
C562 C561 1.334 . S
C562 C563 1.287 . S
C563 C562 1.287 . S
C563 C564 1.524 . S
C563 H566 0.999 . S
C564 H534 0.950 . S
C564 C563 1.524 . S
C564 C565 1.415 1_556 S
C565 H535 0.950 . S
C565 C560 1.363 . S
C565 C564 1.415 1_554 S
H566 C563 0.999 . S
H567 C548 0.913 . S
H568 C586 0.951 . S
H569 C588 0.951 . S
H570 C590 0.950 . S
H571 C591 0.950 . S
H572 C593 0.950 . S
H573 C596 0.950 . S
H574 C597 0.950 . S
H575 C599 0.950 . S
H576 C600 0.950 . S
H577 C601 0.971 . S
H578 C603 0.951 . S
H579 C605 0.950 . S
H580 C606 0.950 . S
H581 C608 0.950 . S
H582 C611 0.950 . S
H583 C612 0.950 . S
H584 C614 0.950 . S
H585 C615 0.950 . S
C586 H568 0.951 . S
C586 C587 1.366 . S
C586 C588 1.388 . S
C587 C586 1.366 . S
C587 C591 1.385 . S
C588 H569 0.951 . S
C588 C586 1.388 . S
C588 C589 1.366 . S
C589 C588 1.366 . S
C589 C590 1.414 . S
C589 C592 1.499 . S
C590 H570 0.950 . S
C590 C589 1.414 . S
C590 C591 1.374 . S
C591 H571 0.950 . S
C591 C587 1.385 . S
C591 C590 1.374 . S
C592 C589 1.499 . S
C592 C593 1.373 . S
C592 C594 1.389 . S
C593 H572 0.950 . S
C593 C592 1.373 . S
C593 C609 1.377 . S
C594 C592 1.389 . S
C594 C595 1.524 . S
C594 C608 1.377 . S
C595 C594 1.524 . S
C595 C596 1.397 . S
C595 C600 1.363 . S
C596 H573 0.950 . S
C596 C595 1.397 . S
C596 C597 1.334 . S
C597 H574 0.950 . S
C597 C596 1.334 . S
C597 C598 1.287 . S
C598 C597 1.287 . S
C598 C599 1.524 . S
C598 H617 0.913 . S
C599 H575 0.950 . S
C599 C598 1.524 . S
C599 C600 1.415 . S
C600 H576 0.950 . S
C600 C595 1.363 . S
C600 C599 1.415 . S
C601 H577 0.971 . S
C601 C602 1.358 1_565 S
C601 C603 1.375 1_565 S
C602 C601 1.358 1_545 S
C602 C606 1.385 . S
C603 H578 0.951 . S
C603 C601 1.375 1_545 S
C603 C604 1.366 . S
C604 C603 1.366 . S
C604 C605 1.414 . S
C604 C607 1.499 . S
C605 H579 0.950 . S
C605 C604 1.414 . S
C605 C606 1.374 . S
C606 H580 0.950 . S
C606 C602 1.385 . S
C606 C605 1.374 . S
C607 C604 1.499 . S
C607 C608 1.373 . S
C607 C609 1.389 . S
C608 H581 0.950 . S
C608 C594 1.377 . S
C608 C607 1.373 . S
C609 C593 1.377 . S
C609 C607 1.389 . S
C609 C610 1.524 . S
C610 C609 1.524 . S
C610 C611 1.397 . S
C610 C615 1.363 . S
C611 H582 0.950 . S
C611 C610 1.397 . S
C611 C612 1.334 . S
C612 H583 0.950 . S
C612 C611 1.334 . S
C612 C613 1.287 . S
C613 C612 1.287 . S
C613 C614 1.524 . S
C613 H616 0.999 . S
C614 H584 0.950 . S
C614 C613 1.524 . S
C614 C615 1.415 . S
C615 H585 0.950 . S
C615 C610 1.363 . S
C615 C614 1.415 . S
H616 C613 0.999 . S
H617 C598 0.913 . S
H618 C636 0.951 . S
H619 C638 0.951 . S
H620 C640 0.950 . S
H621 C641 0.950 . S
H622 C643 0.950 . S
H623 C646 0.950 . S
H624 C647 0.950 . S
H625 C649 0.950 . S
H626 C650 0.950 . S
H627 C651 0.951 . S
H628 C653 0.951 . S
H629 C655 0.950 . S
H630 C656 0.950 . S
H631 C658 0.950 . S
H632 C661 0.950 . S
H633 C662 0.950 . S
H634 C664 0.950 . S
H635 C665 0.950 . S
C636 H618 0.951 . S
C636 C637 1.366 . S
C636 C638 1.388 . S
C637 C636 1.366 . S
C637 C641 1.385 . S
C638 H619 0.951 . S
C638 C636 1.388 . S
C638 C639 1.366 . S
C639 C638 1.366 . S
C639 C640 1.414 . S
C639 C642 1.499 . S
C640 H620 0.950 . S
C640 C639 1.414 . S
C640 C641 1.374 . S
C641 H621 0.950 . S
C641 C637 1.385 . S
C641 C640 1.374 . S
C642 C639 1.499 . S
C642 C643 1.373 . S
C642 C644 1.389 . S
C643 H622 0.950 . S
C643 C642 1.373 . S
C643 C659 1.377 . S
C644 C642 1.389 . S
C644 C645 1.524 . S
C644 C658 1.377 . S
C645 C644 1.524 . S
C645 C646 1.397 . S
C645 C650 1.363 . S
C646 H623 0.950 . S
C646 C645 1.397 . S
C646 C647 1.334 . S
C647 H624 0.950 . S
C647 C646 1.334 . S
C647 C648 1.287 . S
C648 C647 1.287 . S
C648 C649 1.524 . S
C648 H667 0.913 . S
C649 H625 0.950 . S
C649 C648 1.524 . S
C649 C650 1.415 . S
C650 H626 0.950 . S
C650 C645 1.363 . S
C650 C649 1.415 . S
C651 H627 0.951 . S
C651 C652 1.366 . S
C651 C653 1.388 . S
C652 C651 1.366 . S
C652 C656 1.385 . S
C653 H628 0.951 . S
C653 C651 1.388 . S
C653 C654 1.366 . S
C654 C653 1.366 . S
C654 C655 1.414 . S
C654 C657 1.499 . S
C655 H629 0.950 . S
C655 C654 1.414 . S
C655 C656 1.374 . S
C656 H630 0.950 . S
C656 C652 1.385 . S
C656 C655 1.374 . S
C657 C654 1.499 . S
C657 C658 1.373 . S
C657 C659 1.389 . S
C658 H631 0.950 . S
C658 C644 1.377 . S
C658 C657 1.373 . S
C659 C643 1.377 . S
C659 C657 1.389 . S
C659 C660 1.524 . S
C660 C659 1.524 . S
C660 C661 1.397 . S
C660 C665 1.363 . S
C661 H632 0.950 . S
C661 C660 1.397 . S
C661 C662 1.334 . S
C662 H633 0.950 . S
C662 C661 1.334 . S
C662 C663 1.287 . S
C663 C662 1.287 . S
C663 C664 1.524 . S
C663 H666 0.999 . S
C664 H634 0.950 . S
C664 C663 1.524 . S
C664 C665 1.415 . S
C665 H635 0.950 . S
C665 C660 1.363 . S
C665 C664 1.415 . S
H666 C663 0.999 . S
H667 C648 0.913 . S
H668 C686 0.951 . S
H669 C688 0.951 . S
H670 C690 0.950 . S
H671 C691 0.950 . S
H672 C693 0.950 . S
H673 C696 0.950 . S
H674 C697 0.950 . S
H675 C699 0.950 . S
H676 C700 0.950 . S
H677 C701 0.951 . S
H678 C703 0.951 . S
H679 C705 0.950 . S
H680 C706 0.950 1_545 S
H681 C708 0.950 . S
H682 C711 0.950 . S
H683 C712 0.950 1_545 S
H684 C714 0.950 . S
H685 C715 0.950 . S
C686 H668 0.951 . S
C686 C687 1.366 . S
C686 C688 1.388 . S
C687 C686 1.366 . S
C687 C691 1.385 . S
C688 H669 0.951 . S
C688 C686 1.388 . S
C688 C689 1.366 1_554 S
C689 C688 1.366 1_556 S
C689 C690 1.414 . S
C689 C692 1.499 . S
C690 H670 0.950 . S
C690 C689 1.414 . S
C690 C691 1.374 1_556 S
C691 H671 0.950 . S
C691 C687 1.385 . S
C691 C690 1.374 1_554 S
C692 C689 1.499 . S
C692 C693 1.373 . S
C692 C694 1.389 . S
C693 H672 0.950 . S
C693 C692 1.373 . S
C693 C709 1.377 . S
C694 C692 1.389 . S
C694 C695 1.524 . S
C694 C708 1.377 . S
C695 C694 1.524 . S
C695 C696 1.397 . S
C695 C700 1.363 1_556 S
C696 H673 0.950 . S
C696 C695 1.397 . S
C696 C697 1.334 1_556 S
C697 H674 0.950 . S
C697 C696 1.334 1_554 S
C697 C698 1.287 . S
C698 C697 1.287 . S
C698 C699 1.524 . S
C698 H717 0.913 . S
C699 H675 0.950 . S
C699 C698 1.524 . S
C699 C700 1.415 . S
C700 H676 0.950 . S
C700 C695 1.363 1_554 S
C700 C699 1.415 . S
C701 H677 0.951 . S
C701 C702 1.366 . S
C701 C703 1.388 . S
C702 C701 1.366 . S
C702 C706 1.385 . S
C703 H678 0.951 . S
C703 C701 1.388 . S
C703 C704 1.366 . S
C704 C703 1.366 . S
C704 C705 1.414 . S
C704 C707 1.499 . S
C705 H679 0.950 . S
C705 C704 1.414 . S
C705 C706 1.374 . S
C706 H680 0.950 1_565 S
C706 C702 1.385 . S
C706 C705 1.374 . S
C707 C704 1.499 . S
C707 C708 1.373 . S
C707 C709 1.389 . S
C708 H681 0.950 . S
C708 C694 1.377 . S
C708 C707 1.373 . S
C709 C693 1.377 . S
C709 C707 1.389 . S
C709 C710 1.524 . S
C710 C709 1.524 . S
C710 C711 1.397 . S
C710 C715 1.363 . S
C711 H682 0.950 . S
C711 C710 1.397 . S
C711 C712 1.334 . S
C712 H683 0.950 1_565 S
C712 C711 1.334 . S
C712 C713 1.287 . S
C713 C712 1.287 . S
C713 C714 1.524 . S
C713 H716 0.999 . S
C714 H684 0.950 . S
C714 C713 1.524 . S
C714 C715 1.415 . S
C715 H685 0.950 . S
C715 C710 1.363 . S
C715 C714 1.415 . S
H716 C713 0.999 . S
H717 C698 0.913 . S
H718 C736 0.951 . S
H719 C738 0.951 . S
H720 C740 0.950 . S
H721 C741 0.950 . S
H722 C743 0.950 . S
H723 C746 0.950 . S
H724 C747 0.950 . S
H725 C749 0.950 . S
H726 C750 0.950 . S
H727 C751 0.951 . S
H728 C753 0.951 . S
H729 C755 0.950 . S
H730 C756 0.950 . S
H731 C758 0.950 . S
H732 C761 0.950 . S
H733 C762 0.950 . S
H734 C764 0.950 . S
H735 C765 0.950 . S
C736 H718 0.951 . S
C736 C737 1.366 . S
C736 C738 1.388 . S
C737 C736 1.366 . S
C737 C741 1.385 . S
C738 H719 0.951 . S
C738 C736 1.388 . S
C738 C739 1.366 . S
C739 C738 1.366 . S
C739 C740 1.414 . S
C739 C742 1.499 . S
C740 H720 0.950 . S
C740 C739 1.414 . S
C740 C741 1.374 . S
C741 H721 0.950 . S
C741 C737 1.385 . S
C741 C740 1.374 . S
C742 C739 1.499 . S
C742 C743 1.373 . S
C742 C744 1.389 . S
C743 H722 0.950 . S
C743 C742 1.373 . S
C743 C759 1.377 . S
C744 C742 1.389 . S
C744 C745 1.524 . S
C744 C758 1.377 . S
C745 C744 1.524 . S
C745 C746 1.397 . S
C745 C750 1.363 . S
C746 H723 0.950 . S
C746 C745 1.397 . S
C746 C747 1.334 . S
C747 H724 0.950 . S
C747 C746 1.334 . S
C747 C748 1.287 . S
C748 C747 1.287 . S
C748 C749 1.524 . S
C748 H767 0.913 . S
C749 H725 0.950 . S
C749 C748 1.524 . S
C749 C750 1.415 . S
C750 H726 0.950 . S
C750 C745 1.363 . S
C750 C749 1.415 . S
C751 H727 0.951 . S
C751 C752 1.366 . S
C751 C753 1.388 . S
C752 C751 1.366 . S
C752 C756 1.385 . S
C753 H728 0.951 . S
C753 C751 1.388 . S
C753 C754 1.366 . S
C754 C753 1.366 . S
C754 C755 1.414 . S
C754 C757 1.499 . S
C755 H729 0.950 . S
C755 C754 1.414 . S
C755 C756 1.374 . S
C756 H730 0.950 . S
C756 C752 1.385 . S
C756 C755 1.374 . S
C757 C754 1.499 . S
C757 C758 1.373 . S
C757 C759 1.389 . S
C758 H731 0.950 . S
C758 C744 1.377 . S
C758 C757 1.373 . S
C759 C743 1.377 . S
C759 C757 1.389 . S
C759 C760 1.524 . S
C760 C759 1.524 . S
C760 C761 1.397 . S
C760 C765 1.363 . S
C761 H732 0.950 . S
C761 C760 1.397 . S
C761 C762 1.334 . S
C762 H733 0.950 . S
C762 C761 1.334 . S
C762 C763 1.287 . S
C763 C762 1.287 . S
C763 C764 1.524 . S
C763 H766 0.999 . S
C764 H734 0.950 . S
C764 C763 1.524 . S
C764 C765 1.415 . S
C765 H735 0.950 . S
C765 C760 1.363 . S
C765 C764 1.415 . S
H766 C763 0.999 . S
H767 C748 0.913 . S
H768 C786 0.951 . S
H769 C788 0.951 . S
H770 C790 0.950 . S
H771 C791 0.950 . S
H772 C793 0.950 . S
H773 C796 0.950 . S
H774 C797 0.950 1_565 S
H775 C799 0.950 1_565 S
H776 C800 0.950 . S
H777 C801 0.951 . S
H778 C803 0.951 . S
H779 C805 0.950 . S
H780 C806 0.950 . S
H781 C808 0.950 . S
H782 C811 0.950 . S
H783 C812 0.950 . S
H784 C814 0.950 . S
H785 C815 0.950 . S
C786 H768 0.951 . S
C786 C787 1.366 . S
C786 C788 1.388 . S
C787 C786 1.366 . S
C787 C791 1.385 . S
C788 H769 0.951 . S
C788 C786 1.388 . S
C788 C789 1.366 . S
C789 C788 1.366 . S
C789 C790 1.414 . S
C789 C792 1.499 . S
C790 H770 0.950 . S
C790 C789 1.414 . S
C790 C791 1.374 . S
C791 H771 0.950 . S
C791 C787 1.385 . S
C791 C790 1.374 . S
C792 C789 1.499 . S
C792 C793 1.373 . S
C792 C794 1.389 . S
C793 H772 0.950 . S
C793 C792 1.373 . S
C793 C809 1.377 1_556 S
C794 C792 1.389 . S
C794 C795 1.524 . S
C794 C808 1.377 1_556 S
C795 C794 1.524 . S
C795 C796 1.397 . S
C795 C800 1.363 1_556 S
C796 H773 0.950 . S
C796 C795 1.397 . S
C796 C797 1.334 . S
C797 H774 0.950 1_545 S
C797 C796 1.334 . S
C797 C798 1.287 1_545 S
C798 C797 1.287 1_565 S
C798 C799 1.524 1_566 S
C798 H817 0.913 . S
C799 H775 0.950 1_545 S
C799 C798 1.524 1_544 S
C799 C800 1.415 . S
C800 H776 0.950 . S
C800 C795 1.363 1_554 S
C800 C799 1.415 . S
C801 H777 0.951 . S
C801 C802 1.366 . S
C801 C803 1.388 . S
C802 C801 1.366 . S
C802 C806 1.385 . S
C803 H778 0.951 . S
C803 C801 1.388 . S
C803 C804 1.366 . S
C804 C803 1.366 . S
C804 C805 1.414 . S
C804 C807 1.499 . S
C805 H779 0.950 . S
C805 C804 1.414 . S
C805 C806 1.374 . S
C806 H780 0.950 . S
C806 C802 1.385 . S
C806 C805 1.374 . S
C807 C804 1.499 . S
C807 C808 1.373 . S
C807 C809 1.389 . S
C808 H781 0.950 . S
C808 C794 1.377 1_554 S
C808 C807 1.373 . S
C809 C793 1.377 1_554 S
C809 C807 1.389 . S
C809 C810 1.524 . S
C810 C809 1.524 . S
C810 C811 1.397 . S
C810 C815 1.363 1_554 S
C811 H782 0.950 . S
C811 C810 1.397 . S
C811 C812 1.334 . S
C812 H783 0.950 . S
C812 C811 1.334 . S
C812 C813 1.287 . S
C813 C812 1.287 . S
C813 C814 1.524 1_554 S
C813 H816 0.999 . S
C814 H784 0.950 . S
C814 C813 1.524 1_556 S
C814 C815 1.415 . S
C815 H785 0.950 . S
C815 C810 1.363 1_556 S
C815 C814 1.415 . S
H816 C813 0.999 . S
H817 C798 0.913 . S
H818 C836 0.951 . S
H819 C838 0.951 . S
H820 C840 0.950 . S
H821 C841 0.950 . S
H822 C843 0.950 . S
H823 C846 0.950 . S
H824 C847 0.950 . S
H825 C849 0.950 . S
H826 C850 0.950 . S
H827 C851 0.951 . S
H828 C853 0.951 . S
H829 C855 0.950 . S
H830 C856 0.950 . S
H831 C858 0.950 . S
H832 C861 0.950 . S
H833 C862 0.950 . S
H834 C864 0.950 . S
H835 C865 0.950 . S
C836 H818 0.951 . S
C836 C837 1.366 . S
C836 C838 1.388 . S
C837 C836 1.366 . S
C837 C841 1.385 . S
C838 H819 0.951 . S
C838 C836 1.388 . S
C838 C839 1.366 . S
C839 C838 1.366 . S
C839 C840 1.414 . S
C839 C842 1.499 . S
C840 H820 0.950 . S
C840 C839 1.414 . S
C840 C841 1.374 . S
C841 H821 0.950 . S
C841 C837 1.385 . S
C841 C840 1.374 . S
C842 C839 1.499 . S
C842 C843 1.373 . S
C842 C844 1.389 . S
C843 H822 0.950 . S
C843 C842 1.373 . S
C843 C859 1.377 . S
C844 C842 1.389 . S
C844 C845 1.524 . S
C844 C858 1.377 . S
C845 C844 1.524 . S
C845 C846 1.397 . S
C845 C850 1.363 . S
C846 H823 0.950 . S
C846 C845 1.397 . S
C846 C847 1.334 . S
C847 H824 0.950 . S
C847 C846 1.334 . S
C847 C848 1.287 . S
C848 C847 1.287 . S
C848 C849 1.524 . S
C848 H867 0.913 . S
C849 H825 0.950 . S
C849 C848 1.524 . S
C849 C850 1.415 . S
C850 H826 0.950 . S
C850 C845 1.363 . S
C850 C849 1.415 . S
C851 H827 0.951 . S
C851 C852 1.366 . S
C851 C853 1.388 . S
C852 C851 1.366 . S
C852 C856 1.385 . S
C853 H828 0.951 . S
C853 C851 1.388 . S
C853 C854 1.366 . S
C854 C853 1.366 . S
C854 C855 1.414 . S
C854 C857 1.499 . S
C855 H829 0.950 . S
C855 C854 1.414 . S
C855 C856 1.374 . S
C856 H830 0.950 . S
C856 C852 1.385 . S
C856 C855 1.374 . S
C857 C854 1.499 . S
C857 C858 1.373 . S
C857 C859 1.389 . S
C858 H831 0.950 . S
C858 C844 1.377 . S
C858 C857 1.373 . S
C859 C843 1.377 . S
C859 C857 1.389 . S
C859 C860 1.524 . S
C860 C859 1.524 . S
C860 C861 1.397 . S
C860 C865 1.363 . S
C861 H832 0.950 . S
C861 C860 1.397 . S
C861 C862 1.334 . S
C862 H833 0.950 . S
C862 C861 1.334 . S
C862 C863 1.287 . S
C863 C862 1.287 . S
C863 C864 1.524 . S
C863 H866 0.999 . S
C864 H834 0.950 . S
C864 C863 1.524 . S
C864 C865 1.415 . S
C865 H835 0.950 . S
C865 C860 1.363 . S
C865 C864 1.415 . S
H866 C863 0.999 . S
H867 C848 0.913 . S
H868 C886 0.951 . S
H869 C888 0.951 . S
H870 C890 0.950 . S
H871 C891 0.950 . S
H872 C893 0.950 . S
H873 C896 0.950 . S
H874 C897 0.950 . S
H875 C899 0.950 . S
H876 C900 0.950 . S
H877 C901 0.951 . S
H878 C903 0.951 . S
H879 C905 0.950 . S
H880 C906 0.950 . S
H881 C908 0.950 . S
H882 C911 0.950 . S
H883 C912 0.950 . S
H884 C914 0.950 . S
H885 C915 0.950 . S
C886 H868 0.951 . S
C886 C887 1.366 . S
C886 C888 1.388 . S
C887 C886 1.366 . S
C887 C891 1.385 . S
C888 H869 0.951 . S
C888 C886 1.388 . S
C888 C889 1.366 . S
C889 C888 1.366 . S
C889 C890 1.414 . S
C889 C892 1.499 . S
C890 H870 0.950 . S
C890 C889 1.414 . S
C890 C891 1.374 . S
C891 H871 0.950 . S
C891 C887 1.385 . S
C891 C890 1.374 . S
C892 C889 1.499 . S
C892 C893 1.373 . S
C892 C894 1.389 . S
C893 H872 0.950 . S
C893 C892 1.373 . S
C893 C909 1.377 . S
C894 C892 1.389 . S
C894 C895 1.524 . S
C894 C908 1.377 . S
C895 C894 1.524 . S
C895 C896 1.397 . S
C895 C900 1.363 . S
C896 H873 0.950 . S
C896 C895 1.397 . S
C896 C897 1.334 . S
C897 H874 0.950 . S
C897 C896 1.334 . S
C897 C898 1.287 . S
C898 C897 1.287 . S
C898 C899 1.524 . S
C898 H917 0.913 . S
C899 H875 0.950 . S
C899 C898 1.524 . S
C899 C900 1.415 . S
C900 H876 0.950 . S
C900 C895 1.363 . S
C900 C899 1.415 . S
C901 H877 0.951 . S
C901 C902 1.366 . S
C901 C903 1.388 . S
C902 C901 1.366 . S
C902 C906 1.385 . S
C903 H878 0.951 . S
C903 C901 1.388 . S
C903 C904 1.366 . S
C904 C903 1.366 . S
C904 C905 1.414 . S
C904 C907 1.499 . S
C905 H879 0.950 . S
C905 C904 1.414 . S
C905 C906 1.374 . S
C906 H880 0.950 . S
C906 C902 1.385 . S
C906 C905 1.374 . S
C907 C904 1.499 . S
C907 C908 1.373 . S
C907 C909 1.389 . S
C908 H881 0.950 . S
C908 C894 1.377 . S
C908 C907 1.373 . S
C909 C893 1.377 . S
C909 C907 1.389 . S
C909 C910 1.524 . S
C910 C909 1.524 . S
C910 C911 1.397 . S
C910 C915 1.363 . S
C911 H882 0.950 . S
C911 C910 1.397 . S
C911 C912 1.334 . S
C912 H883 0.950 . S
C912 C911 1.334 . S
C912 C913 1.287 . S
C913 C912 1.287 . S
C913 C914 1.524 . S
C913 H916 0.999 . S
C914 H884 0.950 . S
C914 C913 1.524 . S
C914 C915 1.415 . S
C915 H885 0.950 . S
C915 C910 1.363 . S
C915 C914 1.415 . S
H916 C913 0.999 . S
H917 C898 0.913 . S
H918 C936 0.951 . S
H919 C938 0.951 . S
H920 C940 0.950 . S
H921 C941 0.950 . S
H922 C943 0.950 . S
H923 C946 0.950 . S
H924 C947 0.950 . S
H925 C949 0.950 . S
H926 C950 0.950 . S
H927 C951 0.951 . S
H928 C953 0.951 . S
H929 C955 0.950 . S
H930 C956 0.950 . S
H931 C958 0.950 . S
H932 C961 0.950 . S
H933 C962 0.950 . S
H934 C964 0.950 . S
H935 C965 0.950 . S
C936 H918 0.951 . S
C936 C937 1.366 . S
C936 C938 1.388 . S
C937 C936 1.366 . S
C937 C941 1.385 . S
C938 H919 0.951 . S
C938 C936 1.388 . S
C938 C939 1.366 . S
C939 C938 1.366 . S
C939 C940 1.414 . S
C939 C942 1.499 . S
C940 H920 0.950 . S
C940 C939 1.414 . S
C940 C941 1.374 . S
C941 H921 0.950 . S
C941 C937 1.385 . S
C941 C940 1.374 . S
C942 C939 1.499 . S
C942 C943 1.373 . S
C942 C944 1.389 . S
C943 H922 0.950 . S
C943 C942 1.373 . S
C943 C959 1.377 . S
C944 C942 1.389 . S
C944 C945 1.524 . S
C944 C958 1.377 . S
C945 C944 1.524 . S
C945 C946 1.397 . S
C945 C950 1.363 . S
C946 H923 0.950 . S
C946 C945 1.397 . S
C946 C947 1.334 . S
C947 H924 0.950 . S
C947 C946 1.334 . S
C947 C948 1.287 . S
C948 C947 1.287 . S
C948 C949 1.524 . S
C948 H967 0.913 . S
C949 H925 0.950 . S
C949 C948 1.524 . S
C949 C950 1.415 . S
C950 H926 0.950 . S
C950 C945 1.363 . S
C950 C949 1.415 . S
C951 H927 0.951 . S
C951 C952 1.366 . S
C951 C953 1.388 . S
C952 C951 1.366 . S
C952 C956 1.385 . S
C953 H928 0.951 . S
C953 C951 1.388 . S
C953 C954 1.366 . S
C954 C953 1.366 . S
C954 C955 1.414 . S
C954 C957 1.499 . S
C955 H929 0.950 . S
C955 C954 1.414 . S
C955 C956 1.374 . S
C956 H930 0.950 . S
C956 C952 1.385 . S
C956 C955 1.374 . S
C957 C954 1.499 . S
C957 C958 1.373 . S
C957 C959 1.389 . S
C958 H931 0.950 . S
C958 C944 1.377 . S
C958 C957 1.373 . S
C959 C943 1.377 . S
C959 C957 1.389 . S
C959 C960 1.524 . S
C960 C959 1.524 . S
C960 C961 1.397 . S
C960 C965 1.363 . S
C961 H932 0.950 . S
C961 C960 1.397 . S
C961 C962 1.334 . S
C962 H933 0.950 . S
C962 C961 1.334 . S
C962 C963 1.287 . S
C963 C962 1.287 . S
C963 C964 1.524 . S
C963 H966 0.999 . S
C964 H934 0.950 . S
C964 C963 1.524 . S
C964 C965 1.415 . S
C965 H935 0.950 . S
C965 C960 1.363 . S
C965 C964 1.415 . S
H966 C963 0.999 . S
H967 C948 0.913 . S
H968 C986 0.951 . S
H969 C988 0.951 . S
H970 C990 0.950 . S
H971 C991 0.950 . S
H972 C993 0.950 . S
H973 C996 0.950 . S
H974 C997 0.950 . S
H975 C999 0.950 . S
H976 C1000 0.950 . S
H977 C1001 0.951 . S
H978 C1003 0.951 . S
H979 C1005 0.950 . S
H980 C1006 0.950 . S
H981 C1008 0.952 . S
H982 C1011 0.950 . S
H983 C1012 0.950 . S
H984 C1014 0.950 . S
H985 C1015 0.950 . S
C986 H968 0.951 . S
C986 C987 1.366 . S
C986 C988 1.388 . S
C987 C986 1.366 . S
C987 C991 1.385 . S
C988 H969 0.951 . S
C988 C986 1.388 . S
C988 C989 1.366 . S
C989 C988 1.366 . S
C989 C990 1.414 . S
C989 C992 1.499 . S
C990 H970 0.950 . S
C990 C989 1.414 . S
C990 C991 1.374 . S
C991 H971 0.950 . S
C991 C987 1.385 . S
C991 C990 1.374 . S
C992 C989 1.499 . S
C992 C993 1.373 1_545 S
C992 C994 1.389 . S
C993 H972 0.950 . S
C993 C992 1.373 1_565 S
C993 C1009 1.377 . S
C994 C992 1.389 . S
C994 C995 1.524 . S
C994 C1008 1.377 1_545 S
C995 C994 1.524 . S
C995 C996 1.397 . S
C995 C1000 1.363 . S
C996 H973 0.950 . S
C996 C995 1.397 . S
C996 C997 1.334 . S
C997 H974 0.950 . S
C997 C996 1.334 . S
C997 C998 1.287 . S
C998 C997 1.287 . S
C998 C999 1.524 . S
C998 H1017 0.913 . S
C999 H975 0.950 . S
C999 C998 1.524 . S
C999 C1000 1.415 . S
C1000 H976 0.950 . S
C1000 C995 1.363 . S
C1000 C999 1.415 . S
C1001 H977 0.951 . S
C1001 C1002 1.366 . S
C1001 C1003 1.388 . S
C1002 C1001 1.366 . S
C1002 C1006 1.385 . S
C1003 H978 0.951 . S
C1003 C1001 1.388 . S
C1003 C1004 1.366 . S
C1004 C1003 1.366 . S
C1004 C1005 1.414 . S
C1004 C1007 1.499 . S
C1005 H979 0.950 . S
C1005 C1004 1.414 . S
C1005 C1006 1.374 . S
C1006 H980 0.950 . S
C1006 C1002 1.385 . S
C1006 C1005 1.374 . S
C1007 C1004 1.499 . S
C1007 C1008 1.373 . S
C1007 C1009 1.389 . S
C1008 H981 0.952 . S
C1008 C994 1.377 1_565 S
C1008 C1007 1.373 . S
C1009 C993 1.377 . S
C1009 C1007 1.389 . S
C1009 C1010 1.524 . S
C1010 C1009 1.524 . S
C1010 C1011 1.397 . S
C1010 C1015 1.363 . S
C1011 H982 0.950 . S
C1011 C1010 1.397 . S
C1011 C1012 1.334 . S
C1012 H983 0.950 . S
C1012 C1011 1.334 . S
C1012 C1013 1.287 . S
C1013 C1012 1.287 . S
C1013 C1014 1.524 . S
C1013 H1016 0.999 . S
C1014 H984 0.950 . S
C1014 C1013 1.524 . S
C1014 C1015 1.415 . S
C1015 H985 0.950 . S
C1015 C1010 1.363 . S
C1015 C1014 1.415 . S
H1016 C1013 0.999 . S
H1017 C998 0.913 . S
H1018 C1036 0.951 . S
H1019 C1038 0.951 . S
H1020 C1040 0.950 . S
H1021 C1041 0.950 . S
H1022 C1043 0.950 . S
H1023 C1046 0.950 . S
H1024 C1047 0.950 . S
H1025 C1049 0.950 . S
H1026 C1050 0.950 . S
H1027 C1051 0.951 . S
H1028 C1053 0.951 . S
H1029 C1055 0.950 . S
H1030 C1056 0.950 . S
H1031 C1058 0.950 . S
H1032 C1061 0.950 . S
H1033 C1062 0.950 . S
H1034 C1064 0.950 . S
H1035 C1065 0.950 . S
C1036 H1018 0.951 . S
C1036 C1037 1.366 . S
C1036 C1038 1.388 . S
C1037 C1036 1.366 . S
C1037 C1041 1.385 . S
C1038 H1019 0.951 . S
C1038 C1036 1.388 . S
C1038 C1039 1.366 . S
C1039 C1038 1.366 . S
C1039 C1040 1.414 . S
C1039 C1042 1.499 . S
C1040 H1020 0.950 . S
C1040 C1039 1.414 . S
C1040 C1041 1.374 . S
C1041 H1021 0.950 . S
C1041 C1037 1.385 . S
C1041 C1040 1.374 . S
C1042 C1039 1.499 . S
C1042 C1043 1.373 . S
C1042 C1044 1.389 . S
C1043 H1022 0.950 . S
C1043 C1042 1.373 . S
C1043 C1059 1.377 . S
C1044 C1042 1.389 . S
C1044 C1045 1.524 . S
C1044 C1058 1.377 . S
C1045 C1044 1.524 . S
C1045 C1046 1.397 . S
C1045 C1050 1.363 . S
C1046 H1023 0.950 . S
C1046 C1045 1.397 . S
C1046 C1047 1.334 . S
C1047 H1024 0.950 . S
C1047 C1046 1.334 . S
C1047 C1048 1.287 . S
C1048 C1047 1.287 . S
C1048 C1049 1.524 . S
C1048 H1067 0.913 . S
C1049 H1025 0.950 . S
C1049 C1048 1.524 . S
C1049 C1050 1.415 . S
C1050 H1026 0.950 . S
C1050 C1045 1.363 . S
C1050 C1049 1.415 . S
C1051 H1027 0.951 . S
C1051 C1052 1.366 . S
C1051 C1053 1.388 . S
C1052 C1051 1.366 . S
C1052 C1056 1.385 . S
C1053 H1028 0.951 . S
C1053 C1051 1.388 . S
C1053 C1054 1.366 . S
C1054 C1053 1.366 . S
C1054 C1055 1.414 . S
C1054 C1057 1.499 . S
C1055 H1029 0.950 . S
C1055 C1054 1.414 . S
C1055 C1056 1.374 . S
C1056 H1030 0.950 . S
C1056 C1052 1.385 . S
C1056 C1055 1.374 . S
C1057 C1054 1.499 . S
C1057 C1058 1.373 . S
C1057 C1059 1.389 . S
C1058 H1031 0.950 . S
C1058 C1044 1.377 . S
C1058 C1057 1.373 . S
C1059 C1043 1.377 . S
C1059 C1057 1.389 . S
C1059 C1060 1.524 . S
C1060 C1059 1.524 . S
C1060 C1061 1.397 . S
C1060 C1065 1.363 . S
C1061 H1032 0.950 . S
C1061 C1060 1.397 . S
C1061 C1062 1.334 . S
C1062 H1033 0.950 . S
C1062 C1061 1.334 . S
C1062 C1063 1.287 . S
C1063 C1062 1.287 . S
C1063 C1064 1.524 . S
C1063 H1066 0.999 . S
C1064 H1034 0.950 . S
C1064 C1063 1.524 . S
C1064 C1065 1.415 . S
C1065 H1035 0.950 . S
C1065 C1060 1.363 . S
C1065 C1064 1.415 . S
H1066 C1063 0.999 . S
H1067 C1048 0.913 . S
H1068 C1086 0.951 . S
H1069 C1088 0.951 . S
H1070 C1090 0.950 . S
H1071 C1091 0.950 . S
H1072 C1093 0.950 . S
H1073 C1096 0.950 . S
H1074 C1097 0.950 . S
H1075 C1099 0.950 . S
H1076 C1100 0.950 . S
H1077 C1101 0.951 . S
H1078 C1103 0.951 . S
H1079 C1105 0.950 . S
H1080 C1106 0.950 . S
H1081 C1108 0.950 . S
H1082 C1111 0.950 . S
H1083 C1112 0.950 . S
H1084 C1114 0.950 . S
H1085 C1115 0.950 1_545 S
C1086 H1068 0.951 . S
C1086 C1087 1.366 . S
C1086 C1088 1.388 . S
C1087 C1086 1.366 . S
C1087 C1091 1.385 . S
C1088 H1069 0.951 . S
C1088 C1086 1.388 . S
C1088 C1089 1.366 . S
C1089 C1088 1.366 . S
C1089 C1090 1.414 . S
C1089 C1092 1.499 . S
C1090 H1070 0.950 . S
C1090 C1089 1.414 . S
C1090 C1091 1.374 . S
C1091 H1071 0.950 . S
C1091 C1087 1.385 . S
C1091 C1090 1.374 . S
C1092 C1089 1.499 . S
C1092 C1093 1.373 . S
C1092 C1094 1.389 . S
C1093 H1072 0.950 . S
C1093 C1092 1.373 . S
C1093 C1109 1.377 1_545 S
C1094 C1092 1.389 . S
C1094 C1095 1.524 . S
C1094 C1108 1.377 1_545 S
C1095 C1094 1.524 . S
C1095 C1096 1.397 . S
C1095 C1100 1.363 . S
C1096 H1073 0.950 . S
C1096 C1095 1.397 . S
C1096 C1097 1.334 . S
C1097 H1074 0.950 . S
C1097 C1096 1.334 . S
C1097 C1098 1.287 . S
C1098 C1097 1.287 . S
C1098 C1099 1.524 . S
C1098 H1117 0.913 . S
C1099 H1075 0.950 . S
C1099 C1098 1.524 . S
C1099 C1100 1.415 . S
C1100 H1076 0.950 . S
C1100 C1095 1.363 . S
C1100 C1099 1.415 . S
C1101 H1077 0.951 . S
C1101 C1102 1.366 . S
C1101 C1103 1.388 . S
C1102 C1101 1.366 . S
C1102 C1106 1.385 . S
C1103 H1078 0.951 . S
C1103 C1101 1.388 . S
C1103 C1104 1.366 . S
C1104 C1103 1.366 . S
C1104 C1105 1.414 . S
C1104 C1107 1.499 . S
C1105 H1079 0.950 . S
C1105 C1104 1.414 . S
C1105 C1106 1.374 . S
C1106 H1080 0.950 . S
C1106 C1102 1.385 . S
C1106 C1105 1.374 . S
C1107 C1104 1.499 . S
C1107 C1108 1.373 . S
C1107 C1109 1.389 . S
C1108 H1081 0.950 . S
C1108 C1094 1.377 1_565 S
C1108 C1107 1.373 . S
C1109 C1093 1.377 1_565 S
C1109 C1107 1.389 . S
C1109 C1110 1.524 . S
C1110 C1109 1.524 . S
C1110 C1111 1.397 . S
C1110 C1115 1.363 . S
C1111 H1082 0.950 . S
C1111 C1110 1.397 . S
C1111 C1112 1.334 . S
C1112 H1083 0.950 . S
C1112 C1111 1.334 . S
C1112 C1113 1.287 . S
C1113 C1112 1.287 . S
C1113 C1114 1.524 . S
C1113 H1116 0.999 . S
C1114 H1084 0.950 . S
C1114 C1113 1.524 . S
C1114 C1115 1.415 . S
C1115 H1085 0.950 1_565 S
C1115 C1110 1.363 . S
C1115 C1114 1.415 . S
H1116 C1113 0.999 . S
H1117 C1098 0.913 . S
H1118 C1136 0.951 . S
H1119 C1138 0.951 . S
H1120 C1140 0.950 . S
H1121 C1141 0.950 . S
H1122 C1143 0.950 . S
H1123 C1146 0.950 . S
H1124 C1147 0.950 . S
H1125 C1149 0.950 . S
H1126 C1150 0.950 . S
H1127 C1151 0.951 . S
H1128 C1153 0.951 . S
H1129 C1155 0.950 . S
H1130 C1156 0.950 . S
H1131 C1158 0.950 . S
H1132 C1161 0.950 . S
H1133 C1162 0.950 . S
H1134 C1164 0.950 . S
H1135 C1165 0.950 . S
C1136 H1118 0.951 . S
C1136 C1137 1.366 . S
C1136 C1138 1.388 . S
C1137 C1136 1.366 . S
C1137 C1141 1.385 . S
C1138 H1119 0.951 . S
C1138 C1136 1.388 . S
C1138 C1139 1.366 . S
C1139 C1138 1.366 . S
C1139 C1140 1.414 . S
C1139 C1142 1.499 . S
C1140 H1120 0.950 . S
C1140 C1139 1.414 . S
C1140 C1141 1.374 . S
C1141 H1121 0.950 . S
C1141 C1137 1.385 . S
C1141 C1140 1.374 . S
C1142 C1139 1.499 . S
C1142 C1143 1.373 . S
C1142 C1144 1.389 . S
C1143 H1122 0.950 . S
C1143 C1142 1.373 . S
C1143 C1159 1.377 . S
C1144 C1142 1.389 . S
C1144 C1145 1.524 . S
C1144 C1158 1.377 . S
C1145 C1144 1.524 . S
C1145 C1146 1.397 . S
C1145 C1150 1.363 . S
C1146 H1123 0.950 . S
C1146 C1145 1.397 . S
C1146 C1147 1.334 . S
C1147 H1124 0.950 . S
C1147 C1146 1.334 . S
C1147 C1148 1.287 . S
C1148 C1147 1.287 . S
C1148 C1149 1.524 . S
C1148 H1167 0.913 . S
C1149 H1125 0.950 . S
C1149 C1148 1.524 . S
C1149 C1150 1.415 . S
C1150 H1126 0.950 . S
C1150 C1145 1.363 . S
C1150 C1149 1.415 . S
C1151 H1127 0.951 . S
C1151 C1152 1.366 . S
C1151 C1153 1.388 . S
C1152 C1151 1.366 . S
C1152 C1156 1.385 . S
C1153 H1128 0.951 . S
C1153 C1151 1.388 . S
C1153 C1154 1.366 . S
C1154 C1153 1.366 . S
C1154 C1155 1.414 . S
C1154 C1157 1.499 . S
C1155 H1129 0.950 . S
C1155 C1154 1.414 . S
C1155 C1156 1.374 . S
C1156 H1130 0.950 . S
C1156 C1152 1.385 . S
C1156 C1155 1.374 . S
C1157 C1154 1.499 . S
C1157 C1158 1.373 . S
C1157 C1159 1.389 . S
C1158 H1131 0.950 . S
C1158 C1144 1.377 . S
C1158 C1157 1.373 . S
C1159 C1143 1.377 . S
C1159 C1157 1.389 . S
C1159 C1160 1.524 . S
C1160 C1159 1.524 . S
C1160 C1161 1.397 . S
C1160 C1165 1.363 . S
C1161 H1132 0.950 . S
C1161 C1160 1.397 . S
C1161 C1162 1.334 . S
C1162 H1133 0.950 . S
C1162 C1161 1.334 . S
C1162 C1163 1.287 . S
C1163 C1162 1.287 . S
C1163 C1164 1.524 . S
C1163 H1166 0.999 . S
C1164 H1134 0.950 . S
C1164 C1163 1.524 . S
C1164 C1165 1.415 . S
C1165 H1135 0.950 . S
C1165 C1160 1.363 . S
C1165 C1164 1.415 . S
H1166 C1163 0.999 . S
H1167 C1148 0.913 . S
H1168 C1186 0.951 . S
H1169 C1188 0.951 . S
H1170 C1190 0.950 . S
H1171 C1191 0.950 . S
H1172 C1193 0.950 . S
H1173 C1196 0.950 . S
H1174 C1197 0.950 . S
H1175 C1199 0.950 . S
H1176 C1200 0.950 . S
H1177 C1201 0.951 . S
H1178 C1203 0.951 . S
H1179 C1205 0.950 . S
H1180 C1206 0.950 . S
H1181 C1208 0.950 . S
H1182 C1211 0.950 . S
H1183 C1212 0.950 . S
H1184 C1214 0.950 . S
H1185 C1215 0.950 . S
C1186 H1168 0.951 . S
C1186 C1187 1.366 . S
C1186 C1188 1.388 . S
C1187 C1186 1.366 . S
C1187 C1191 1.385 . S
C1188 H1169 0.951 . S
C1188 C1186 1.388 . S
C1188 C1189 1.366 . S
C1189 C1188 1.366 . S
C1189 C1190 1.414 . S
C1189 C1192 1.499 . S
C1190 H1170 0.950 . S
C1190 C1189 1.414 . S
C1190 C1191 1.374 . S
C1191 H1171 0.950 . S
C1191 C1187 1.385 . S
C1191 C1190 1.374 . S
C1192 C1189 1.499 . S
C1192 C1193 1.373 . S
C1192 C1194 1.389 . S
C1193 H1172 0.950 . S
C1193 C1192 1.373 . S
C1193 C1209 1.377 . S
C1194 C1192 1.389 . S
C1194 C1195 1.524 . S
C1194 C1208 1.377 . S
C1195 C1194 1.524 . S
C1195 C1196 1.397 . S
C1195 C1200 1.363 . S
C1196 H1173 0.950 . S
C1196 C1195 1.397 . S
C1196 C1197 1.334 . S
C1197 H1174 0.950 . S
C1197 C1196 1.334 . S
C1197 C1198 1.287 . S
C1198 C1197 1.287 . S
C1198 C1199 1.524 . S
C1198 H1217 0.913 . S
C1199 H1175 0.950 . S
C1199 C1198 1.524 . S
C1199 C1200 1.415 . S
C1200 H1176 0.950 . S
C1200 C1195 1.363 . S
C1200 C1199 1.415 . S
C1201 H1177 0.951 . S
C1201 C1202 1.366 . S
C1201 C1203 1.388 . S
C1202 C1201 1.366 . S
C1202 C1206 1.385 . S
C1203 H1178 0.951 . S
C1203 C1201 1.388 . S
C1203 C1204 1.366 . S
C1204 C1203 1.366 . S
C1204 C1205 1.414 . S
C1204 C1207 1.499 . S
C1205 H1179 0.950 . S
C1205 C1204 1.414 . S
C1205 C1206 1.374 . S
C1206 H1180 0.950 . S
C1206 C1202 1.385 . S
C1206 C1205 1.374 . S
C1207 C1204 1.499 . S
C1207 C1208 1.373 . S
C1207 C1209 1.389 . S
C1208 H1181 0.950 . S
C1208 C1194 1.377 . S
C1208 C1207 1.373 . S
C1209 C1193 1.377 . S
C1209 C1207 1.389 . S
C1209 C1210 1.524 . S
C1210 C1209 1.524 . S
C1210 C1211 1.397 . S
C1210 C1215 1.363 . S
C1211 H1182 0.950 . S
C1211 C1210 1.397 . S
C1211 C1212 1.334 . S
C1212 H1183 0.950 . S
C1212 C1211 1.334 . S
C1212 C1213 1.287 . S
C1213 C1212 1.287 . S
C1213 C1214 1.524 . S
C1213 H1216 0.999 . S
C1214 H1184 0.950 . S
C1214 C1213 1.524 . S
C1214 C1215 1.415 . S
C1215 H1185 0.950 . S
C1215 C1210 1.363 . S
C1215 C1214 1.415 . S
H1216 C1213 0.999 . S
H1217 C1198 0.913 . S
H1218 C1236 0.951 . S
H1219 C1238 0.951 . S
H1220 C1240 0.950 . S
H1221 C1241 0.950 . S
H1222 C1243 0.950 . S
H1223 C1246 0.950 . S
H1224 C1247 0.950 1_455 S
H1225 C1249 0.950 . S
H1226 C1250 0.950 . S
H1227 C1251 0.951 . S
H1228 C1253 0.951 . S
H1229 C1255 0.950 . S
H1230 C1256 0.950 . S
H1231 C1258 0.950 . S
H1232 C1261 0.950 . S
H1233 C1262 0.950 . S
H1234 C1264 0.950 . S
H1235 C1265 0.950 . S
C1236 H1218 0.951 . S
C1236 C1237 1.366 . S
C1236 C1238 1.388 . S
C1237 C1236 1.366 . S
C1237 C1241 1.385 . S
C1238 H1219 0.951 . S
C1238 C1236 1.388 . S
C1238 C1239 1.366 . S
C1239 C1238 1.366 . S
C1239 C1240 1.414 . S
C1239 C1242 1.499 . S
C1240 H1220 0.950 . S
C1240 C1239 1.414 . S
C1240 C1241 1.374 . S
C1241 H1221 0.950 . S
C1241 C1237 1.385 . S
C1241 C1240 1.374 . S
C1242 C1239 1.499 . S
C1242 C1243 1.373 . S
C1242 C1244 1.389 1_455 S
C1243 H1222 0.950 . S
C1243 C1242 1.373 . S
C1243 C1259 1.381 . S
C1244 C1242 1.389 1_655 S
C1244 C1245 1.524 . S
C1244 C1258 1.377 . S
C1245 C1244 1.524 . S
C1245 C1246 1.397 1_655 S
C1245 C1250 1.363 . S
C1246 H1223 0.950 . S
C1246 C1245 1.397 1_455 S
C1246 C1247 1.334 1_455 S
C1247 H1224 0.950 1_655 S
C1247 C1246 1.334 1_655 S
C1247 C1248 1.287 . S
C1248 C1247 1.287 . S
C1248 C1249 1.524 . S
C1248 H1267 0.913 . S
C1249 H1225 0.950 . S
C1249 C1248 1.524 . S
C1249 C1250 1.415 . S
C1250 H1226 0.950 . S
C1250 C1245 1.363 . S
C1250 C1249 1.415 . S
C1251 H1227 0.951 . S
C1251 C1252 1.366 . S
C1251 C1253 1.388 . S
C1252 C1251 1.366 . S
C1252 C1256 1.385 . S
C1253 H1228 0.951 . S
C1253 C1251 1.388 . S
C1253 C1254 1.366 . S
C1254 C1253 1.366 . S
C1254 C1255 1.414 . S
C1254 C1257 1.499 . S
C1255 H1229 0.950 . S
C1255 C1254 1.414 . S
C1255 C1256 1.374 . S
C1256 H1230 0.950 . S
C1256 C1252 1.385 . S
C1256 C1255 1.374 . S
C1257 C1254 1.499 . S
C1257 C1258 1.373 . S
C1257 C1259 1.384 1_655 S
C1258 H1231 0.950 . S
C1258 C1244 1.377 . S
C1258 C1257 1.373 . S
C1259 C1243 1.381 . S
C1259 C1257 1.384 1_455 S
C1259 C1260 1.525 . S
C1260 C1259 1.525 . S
C1260 C1261 1.397 1_455 S
C1260 C1265 1.363 . S
C1261 H1232 0.950 . S
C1261 C1260 1.397 1_655 S
C1261 C1262 1.334 . S
C1262 H1233 0.950 . S
C1262 C1261 1.334 . S
C1262 C1263 1.287 1_655 S
C1263 C1262 1.287 1_455 S
C1263 C1264 1.524 . S
C1263 H1266 0.999 . S
C1264 H1234 0.950 . S
C1264 C1263 1.524 . S
C1264 C1265 1.415 . S
C1265 H1235 0.950 . S
C1265 C1260 1.363 . S
C1265 C1264 1.415 . S
H1266 C1263 0.999 . S
H1267 C1248 0.913 . S
H1268 C1286 0.951 . S
H1269 C1288 0.951 . S
H1270 C1290 0.950 . S
H1271 C1291 0.950 . S
H1272 C1293 0.950 . S
H1273 C1296 0.950 . S
H1274 C1297 0.950 . S
H1275 C1299 0.950 . S
H1276 C1300 0.950 . S
H1277 C1301 0.951 . S
H1278 C1303 0.951 . S
H1279 C1305 0.950 . S
H1280 C1306 0.950 . S
H1281 C1308 0.950 . S
H1282 C1311 0.950 . S
H1283 C1312 0.950 . S
H1284 C1314 0.950 . S
H1285 C1315 0.950 . S
C1286 H1268 0.951 . S
C1286 C1287 1.366 . S
C1286 C1288 1.388 . S
C1287 C1286 1.366 . S
C1287 C1291 1.385 . S
C1288 H1269 0.951 . S
C1288 C1286 1.388 . S
C1288 C1289 1.366 . S
C1289 C1288 1.366 . S
C1289 C1290 1.414 . S
C1289 C1292 1.499 . S
C1290 H1270 0.950 . S
C1290 C1289 1.414 . S
C1290 C1291 1.374 . S
C1291 H1271 0.950 . S
C1291 C1287 1.385 . S
C1291 C1290 1.374 . S
C1292 C1289 1.499 . S
C1292 C1293 1.373 . S
C1292 C1294 1.389 . S
C1293 H1272 0.950 . S
C1293 C1292 1.373 . S
C1293 C1309 1.377 . S
C1294 C1292 1.389 . S
C1294 C1295 1.524 . S
C1294 C1308 1.377 . S
C1295 C1294 1.524 . S
C1295 C1296 1.397 . S
C1295 C1300 1.363 . S
C1296 H1273 0.950 . S
C1296 C1295 1.397 . S
C1296 C1297 1.334 . S
C1297 H1274 0.950 . S
C1297 C1296 1.334 . S
C1297 C1298 1.287 . S
C1298 C1297 1.287 . S
C1298 C1299 1.524 . S
C1298 H1317 0.913 . S
C1299 H1275 0.950 . S
C1299 C1298 1.524 . S
C1299 C1300 1.415 . S
C1300 H1276 0.950 . S
C1300 C1295 1.363 . S
C1300 C1299 1.415 . S
C1301 H1277 0.951 . S
C1301 C1302 1.366 . S
C1301 C1303 1.388 . S
C1302 C1301 1.366 . S
C1302 C1306 1.385 . S
C1303 H1278 0.951 . S
C1303 C1301 1.388 . S
C1303 C1304 1.366 . S
C1304 C1303 1.366 . S
C1304 C1305 1.414 . S
C1304 C1307 1.499 . S
C1305 H1279 0.950 . S
C1305 C1304 1.414 . S
C1305 C1306 1.374 . S
C1306 H1280 0.950 . S
C1306 C1302 1.385 . S
C1306 C1305 1.374 . S
C1307 C1304 1.499 . S
C1307 C1308 1.373 . S
C1307 C1309 1.389 . S
C1308 H1281 0.950 . S
C1308 C1294 1.377 . S
C1308 C1307 1.373 . S
C1309 C1293 1.377 . S
C1309 C1307 1.389 . S
C1309 C1310 1.524 . S
C1310 C1309 1.524 . S
C1310 C1311 1.397 . S
C1310 C1315 1.363 . S
C1311 H1282 0.950 . S
C1311 C1310 1.397 . S
C1311 C1312 1.334 . S
C1312 H1283 0.950 . S
C1312 C1311 1.334 . S
C1312 C1313 1.287 . S
C1313 C1312 1.287 . S
C1313 C1314 1.524 . S
C1313 H1316 0.999 . S
C1314 H1284 0.950 . S
C1314 C1313 1.524 . S
C1314 C1315 1.415 . S
C1315 H1285 0.950 . S
C1315 C1310 1.363 . S
C1315 C1314 1.415 . S
H1316 C1313 0.999 . S
H1317 C1298 0.913 . S
H1318 C1336 0.951 . S
H1319 C1338 0.951 . S
H1320 C1340 0.950 . S
H1321 C1341 0.950 . S
H1322 C1343 0.950 . S
H1323 C1346 0.950 . S
H1324 C1347 0.950 . S
H1325 C1349 0.950 . S
H1326 C1350 0.950 . S
H1327 C1351 0.951 . S
H1328 C1353 0.951 . S
H1329 C1355 0.950 . S
H1330 C1356 0.950 . S
H1331 C1358 0.950 . S
H1332 C1361 0.950 . S
H1333 C1362 0.950 . S
H1334 C1364 0.950 . S
H1335 C1365 0.950 . S
C1336 H1318 0.951 . S
C1336 C1337 1.366 . S
C1336 C1338 1.388 . S
C1337 C1336 1.366 . S
C1337 C1341 1.385 . S
C1338 H1319 0.951 . S
C1338 C1336 1.388 . S
C1338 C1339 1.366 . S
C1339 C1338 1.366 . S
C1339 C1340 1.414 . S
C1339 C1342 1.499 . S
C1340 H1320 0.950 . S
C1340 C1339 1.414 . S
C1340 C1341 1.374 . S
C1341 H1321 0.950 . S
C1341 C1337 1.385 . S
C1341 C1340 1.374 . S
C1342 C1339 1.499 . S
C1342 C1343 1.373 1_655 S
C1342 C1344 1.389 . S
C1343 H1322 0.950 . S
C1343 C1342 1.373 1_455 S
C1343 C1359 1.377 . S
C1344 C1342 1.389 . S
C1344 C1345 1.524 . S
C1344 C1358 1.377 1_655 S
C1345 C1344 1.524 . S
C1345 C1346 1.397 . S
C1345 C1350 1.363 . S
C1346 H1323 0.950 . S
C1346 C1345 1.397 . S
C1346 C1347 1.334 . S
C1347 H1324 0.950 . S
C1347 C1346 1.334 . S
C1347 C1348 1.287 . S
C1348 C1347 1.287 . S
C1348 C1349 1.524 . S
C1348 H1367 0.913 . S
C1349 H1325 0.950 . S
C1349 C1348 1.524 . S
C1349 C1350 1.415 . S
C1350 H1326 0.950 . S
C1350 C1345 1.363 . S
C1350 C1349 1.415 . S
C1351 H1327 0.951 . S
C1351 C1352 1.366 . S
C1351 C1353 1.388 . S
C1352 C1351 1.366 . S
C1352 C1356 1.385 . S
C1353 H1328 0.951 . S
C1353 C1351 1.388 . S
C1353 C1354 1.366 . S
C1354 C1353 1.366 . S
C1354 C1355 1.414 . S
C1354 C1357 1.499 . S
C1355 H1329 0.950 . S
C1355 C1354 1.414 . S
C1355 C1356 1.374 . S
C1356 H1330 0.950 . S
C1356 C1352 1.385 . S
C1356 C1355 1.374 . S
C1357 C1354 1.499 . S
C1357 C1358 1.373 . S
C1357 C1359 1.389 . S
C1358 H1331 0.950 . S
C1358 C1344 1.377 1_455 S
C1358 C1357 1.373 . S
C1359 C1343 1.377 . S
C1359 C1357 1.389 . S
C1359 C1360 1.524 . S
C1360 C1359 1.524 . S
C1360 C1361 1.397 . S
C1360 C1365 1.363 . S
C1361 H1332 0.950 . S
C1361 C1360 1.397 . S
C1361 C1362 1.334 . S
C1362 H1333 0.950 . S
C1362 C1361 1.334 . S
C1362 C1363 1.287 . S
C1363 C1362 1.287 . S
C1363 C1364 1.524 . S
C1363 H1366 0.999 . S
C1364 H1334 0.950 . S
C1364 C1363 1.524 . S
C1364 C1365 1.415 . S
C1365 H1335 0.950 . S
C1365 C1360 1.363 . S
C1365 C1364 1.415 . S
H1366 C1363 0.999 . S
H1367 C1348 0.913 . S
C187 C16 0.942 1_655 S
C202 C163 0.943 1_545 S
C237 C37 0.940 . S
C252 C87 0.941 . S
C287 C58 0.940 1_455 S
C302 C108 0.940 1_565 S
C337 C142 0.941 . S
C352 C79 0.943 . S
C387 C19 0.910 . S
C402 C25 0.825 . S
C437 C46 0.824 1_455 S
C452 C40 0.909 . S
C487 C67 0.823 . S
C502 C61 0.908 . S
C537 C4 0.824 1_655 S
C552 C82 0.909 . S
C587 C104 0.910 . S
C602 C151 0.825 1_545 S
C637 C125 0.908 . S
C652 C91 0.823 . S
C687 C145 0.910 . S
C702 C112 0.825 1_565 S
C737 C130 0.823 . S
C752 C166 0.909 . S
C787 C121 0.590 . S
C802 C3 0.592 . S
C837 C129 0.592 . S
C852 C24 0.590 . S
C887 C150 0.591 . S
C902 C45 0.589 . S
C937 C100 0.590 . S
C952 C66 0.592 . S
C987 C7 1.987 . S
C1002 C146 1.918 . S
C1037 C28 1.987 . S
C1052 C167 1.918 . S
C1087 C103 1.919 . S
C1102 C49 1.987 . S
C1137 C124 1.917 . S
C1152 C70 1.988 . S
C1187 C62 1.918 . S
C1202 C88 1.987 . S
C1237 C109 1.988 . S
C1252 C83 1.918 . S
C1287 C133 1.988 . S
C1302 C20 1.918 . S
C1337 C154 1.987 . S
C1352 C41 1.919 . S
