# Generated by pormake.
# Topology rhr, (4)-cn, num edge types: 1
# Building blocks:
#     Node 0, Type 0, BuildingBlock: KOZSID_clean_sbu_0, # of connection points: 4
#     Node 1, Type 0, BuildingBlock: KOZSID_clean_sbu_0, # of connection points: 4
#     Node 2, Type 0, BuildingBlock: KOZSID_clean_sbu_0, # of connection points: 4
#     Node 3, Type 0, BuildingBlock: KOZSID_clean_sbu_0, # of connection points: 4
#     Node 4, Type 0, BuildingBlock: KOZSID_clean_sbu_0, # of connection points: 4
#     Node 5, Type 0, BuildingBlock: KOZSID_clean_sbu_0, # of connection points: 4
#     Node 6, Type 0, BuildingBlock: KOZSID_clean_sbu_0, # of connection points: 4
#     Node 7, Type 0, BuildingBlock: KOZSID_clean_sbu_0, # of connection points: 4
#     Node 8, Type 0, BuildingBlock: KOZSID_clean_sbu_0, # of connection points: 4
#     Node 9, Type 0, BuildingBlock: KOZSID_clean_sbu_0, # of connection points: 4
#     Node 10, Type 0, BuildingBlock: KOZSID_clean_sbu_0, # of connection points: 4
#     Node 11, Type 0, BuildingBlock: KOZSID_clean_sbu_0, # of connection points: 4
#     Node 12, Type 0, BuildingBlock: KOZSID_clean_sbu_0, # of connection points: 4
#     Node 13, Type 0, BuildingBlock: KOZSID_clean_sbu_0, # of connection points: 4
#     Node 14, Type 0, BuildingBlock: KOZSID_clean_sbu_0, # of connection points: 4
#     Node 15, Type 0, BuildingBlock: KOZSID_clean_sbu_0, # of connection points: 4
#     Node 16, Type 0, BuildingBlock: KOZSID_clean_sbu_0, # of connection points: 4
#     Node 17, Type 0, BuildingBlock: KOZSID_clean_sbu_0, # of connection points: 4
#     Node 18, Type 0, BuildingBlock: KOZSID_clean_sbu_0, # of connection points: 4
#     Node 19, Type 0, BuildingBlock: KOZSID_clean_sbu_0, # of connection points: 4
#     Node 20, Type 0, BuildingBlock: KOZSID_clean_sbu_0, # of connection points: 4
#     Node 21, Type 0, BuildingBlock: KOZSID_clean_sbu_0, # of connection points: 4
#     Node 22, Type 0, BuildingBlock: KOZSID_clean_sbu_0, # of connection points: 4
#     Node 23, Type 0, BuildingBlock: KOZSID_clean_sbu_0, # of connection points: 4
#     Edge 24, Type (0, 0), BuildingBlock: CIFDUS_clean_linker_0, # of connection points: 2
#     Edge 25, Type (0, 0), BuildingBlock: CIFDUS_clean_linker_0, # of connection points: 2
#     Edge 26, Type (0, 0), BuildingBlock: CIFDUS_clean_linker_0, # of connection points: 2
#     Edge 27, Type (0, 0), BuildingBlock: CIFDUS_clean_linker_0, # of connection points: 2
#     Edge 28, Type (0, 0), BuildingBlock: CIFDUS_clean_linker_0, # of connection points: 2
#     Edge 29, Type (0, 0), BuildingBlock: CIFDUS_clean_linker_0, # of connection points: 2
#     Edge 30, Type (0, 0), BuildingBlock: CIFDUS_clean_linker_0, # of connection points: 2
#     Edge 31, Type (0, 0), BuildingBlock: CIFDUS_clean_linker_0, # of connection points: 2
#     Edge 32, Type (0, 0), BuildingBlock: CIFDUS_clean_linker_0, # of connection points: 2
#     Edge 33, Type (0, 0), BuildingBlock: CIFDUS_clean_linker_0, # of connection points: 2
#     Edge 34, Type (0, 0), BuildingBlock: CIFDUS_clean_linker_0, # of connection points: 2
#     Edge 35, Type (0, 0), BuildingBlock: CIFDUS_clean_linker_0, # of connection points: 2
#     Edge 36, Type (0, 0), BuildingBlock: CIFDUS_clean_linker_0, # of connection points: 2
#     Edge 37, Type (0, 0), BuildingBlock: CIFDUS_clean_linker_0, # of connection points: 2
#     Edge 38, Type (0, 0), BuildingBlock: CIFDUS_clean_linker_0, # of connection points: 2
#     Edge 39, Type (0, 0), BuildingBlock: CIFDUS_clean_linker_0, # of connection points: 2
#     Edge 40, Type (0, 0), BuildingBlock: CIFDUS_clean_linker_0, # of connection points: 2
#     Edge 41, Type (0, 0), BuildingBlock: CIFDUS_clean_linker_0, # of connection points: 2
#     Edge 42, Type (0, 0), BuildingBlock: CIFDUS_clean_linker_0, # of connection points: 2
#     Edge 43, Type (0, 0), BuildingBlock: CIFDUS_clean_linker_0, # of connection points: 2
#     Edge 44, Type (0, 0), BuildingBlock: CIFDUS_clean_linker_0, # of connection points: 2
#     Edge 45, Type (0, 0), BuildingBlock: CIFDUS_clean_linker_0, # of connection points: 2
#     Edge 46, Type (0, 0), BuildingBlock: CIFDUS_clean_linker_0, # of connection points: 2
#     Edge 47, Type (0, 0), BuildingBlock: CIFDUS_clean_linker_0, # of connection points: 2
#     Edge 48, Type (0, 0), BuildingBlock: CIFDUS_clean_linker_0, # of connection points: 2
#     Edge 49, Type (0, 0), BuildingBlock: CIFDUS_clean_linker_0, # of connection points: 2
#     Edge 50, Type (0, 0), BuildingBlock: CIFDUS_clean_linker_0, # of connection points: 2
#     Edge 51, Type (0, 0), BuildingBlock: CIFDUS_clean_linker_0, # of connection points: 2
#     Edge 52, Type (0, 0), BuildingBlock: CIFDUS_clean_linker_0, # of connection points: 2
#     Edge 53, Type (0, 0), BuildingBlock: CIFDUS_clean_linker_0, # of connection points: 2
#     Edge 54, Type (0, 0), BuildingBlock: CIFDUS_clean_linker_0, # of connection points: 2
#     Edge 55, Type (0, 0), BuildingBlock: CIFDUS_clean_linker_0, # of connection points: 2
#     Edge 56, Type (0, 0), BuildingBlock: CIFDUS_clean_linker_0, # of connection points: 2
#     Edge 57, Type (0, 0), BuildingBlock: CIFDUS_clean_linker_0, # of connection points: 2
#     Edge 58, Type (0, 0), BuildingBlock: CIFDUS_clean_linker_0, # of connection points: 2
#     Edge 59, Type (0, 0), BuildingBlock: CIFDUS_clean_linker_0, # of connection points: 2
#     Edge 60, Type (0, 0), BuildingBlock: CIFDUS_clean_linker_0, # of connection points: 2
#     Edge 61, Type (0, 0), BuildingBlock: CIFDUS_clean_linker_0, # of connection points: 2
#     Edge 62, Type (0, 0), BuildingBlock: CIFDUS_clean_linker_0, # of connection points: 2
#     Edge 63, Type (0, 0), BuildingBlock: CIFDUS_clean_linker_0, # of connection points: 2
#     Edge 64, Type (0, 0), BuildingBlock: CIFDUS_clean_linker_0, # of connection points: 2
#     Edge 65, Type (0, 0), BuildingBlock: CIFDUS_clean_linker_0, # of connection points: 2
#     Edge 66, Type (0, 0), BuildingBlock: CIFDUS_clean_linker_0, # of connection points: 2
#     Edge 67, Type (0, 0), BuildingBlock: CIFDUS_clean_linker_0, # of connection points: 2
#     Edge 68, Type (0, 0), BuildingBlock: CIFDUS_clean_linker_0, # of connection points: 2
#     Edge 69, Type (0, 0), BuildingBlock: CIFDUS_clean_linker_0, # of connection points: 2
#     Edge 70, Type (0, 0), BuildingBlock: CIFDUS_clean_linker_0, # of connection points: 2
#     Edge 71, Type (0, 0), BuildingBlock: CIFDUS_clean_linker_0, # of connection points: 2
# Relax obj value: 0.006
# Max RMSD: 0.038
# Mean RMSD: 0.023
data_MOF--net-rhr--node1-KOZSID_clean_sbu_0--edge1-CIFDUS_clean_linker_0
_symmetry_space_group_name_H-M    P1
_symmetry_Int_Tables_number       1
_symmetry_cell_setting            triclinic
loop_
_symmetry_equiv_pos_as_xyz
'x, y, z'
_cell_length_a     56.259892
_cell_length_b     56.396862
_cell_length_c     56.211416
_cell_angle_alpha  86.66951
_cell_angle_beta   85.134798
_cell_angle_gamma 90.884254
loop_
_atom_site_label
_atom_site_type_symbol
_atom_site_fract_x
_atom_site_fract_y
_atom_site_fract_z
_atom_type_partial_charge
C0 C 0.40322 0.99514 0.35327 0.0
C1 C 0.42334 0.98609 0.36295 0.0
C2 C 0.42286 0.9933 0.3858 0.0
C3 C 0.40246 0.00615 0.38895 0.0
N4 N 0.38996 0.00765 0.36955 0.0
Co5 Co 0.35875 0.02402 0.36769 0.0
N6 N 0.3621 0.04101 0.39766 0.0
C7 C 0.37873 0.03643 0.41311 0.0
C8 C 0.37715 0.05045 0.43228 0.0
C9 C 0.35798 0.06453 0.42914 0.0
C10 C 0.34868 0.05814 0.40827 0.0
N11 N 0.32728 0.0402 0.36603 0.0
C12 C 0.31642 0.057 0.37963 0.0
C13 C 0.29372 0.06154 0.3728 0.0
C14 C 0.29001 0.04701 0.35475 0.0
C15 C 0.31052 0.03433 0.35152 0.0
N16 N 0.35562 0.00703 0.33767 0.0
C17 C 0.33546 1.00531 0.32653 0.0
C18 C 0.33833 0.99329 0.30598 0.0
C19 C 0.36173 0.98678 0.30405 0.0
C20 C 0.37192 0.99499 0.32372 0.0
N21 N 0.34227 0.9972 0.38665 0.0
C22 C 0.31504 0.95932 0.41056 0.0
C23 C 0.33345 0.95516 0.39291 0.0
C24 C 0.34683 0.97426 0.38127 0.0
C25 C 0.31125 0.98282 0.4165 0.0
C26 C 0.32504 1.00131 0.40453 0.0
N27 N 0.37502 0.05067 0.34847 0.0
C28 C 0.37701 0.07786 0.31359 0.0
C29 C 0.39921 0.08682 0.3188 0.0
C30 C 0.40894 0.07742 0.33941 0.0
C31 C 0.3965 0.05953 0.35407 0.0
C32 C 0.36533 0.05987 0.3285 0.0
H33 H 0.40444 0.05274 0.36977 0.0
H34 H 0.34858 0.05319 0.32354 0.0
H35 H 0.36055 0.97041 0.36757 0.0
H36 H 0.32111 0.01898 0.40948 0.0
C37 C 0.39624 0.01967 0.40845 0.0
C38 C 0.39668 0.98991 0.3292 0.0
C39 C 0.32544 0.06669 0.40113 0.0
C40 C 0.31525 0.01786 0.33415 0.0
H41 H 0.43688 0.97519 0.3545 0.0
H42 H 0.43615 0.99007 0.39839 0.0
H43 H 0.38853 0.05039 0.44687 0.0
H44 H 0.3511 0.07746 0.44131 0.0
H45 H 0.28082 0.07351 0.38061 0.0
H46 H 0.27416 0.04574 0.34522 0.0
H47 H 0.32517 0.9903 0.29344 0.0
H48 H 0.37023 0.97711 0.28972 0.0
H49 H 0.33743 0.93729 0.38796 0.0
H50 H 0.29715 0.98713 0.42977 0.0
H51 H 0.36887 0.08431 0.29773 0.0
H52 H 0.42595 0.08396 0.34431 0.0
C53 C 0.06066 0.39559 0.33389 0.0
C54 C 0.06222 0.41856 0.3415 0.0
C55 C 0.04896 0.41883 0.3629 0.0
C56 C 0.03944 0.39637 0.36696 0.0
N57 N 0.04579 0.38165 0.3494 0.0
Co58 Co 0.03189 0.34908 0.34597 0.0
N59 N 0.01074 0.35035 0.37654 0.0
C60 C 0.01003 0.36802 0.39185 0.0
C61 C 0.9943 0.36371 0.41167 0.0
C62 C 0.98441 0.3419 0.40897 0.0
C63 C 0.99472 0.33414 0.38756 0.0
N64 N 0.0174 0.31688 0.34202 0.0
C65 C 1.00005 0.30426 0.35577 0.0
C66 C 0.99494 0.28283 0.34614 0.0
C67 C 0.00949 0.28188 0.32557 0.0
C68 C 0.0226 0.30267 0.32379 0.0
N69 N 0.05357 0.34745 0.31586 0.0
C70 C 0.05595 0.3287 0.30195 0.0
C71 C 0.07417 0.33137 0.28422 0.0
C72 C 0.08388 0.35326 0.28672 0.0
C73 C 0.07054 0.3631 0.30553 0.0
N74 N 0.0568 0.33436 0.36453 0.0
C75 C 0.08736 0.31049 0.39431 0.0
C76 C 0.08218 0.30126 0.37283 0.0
C77 C 0.06689 0.31338 0.35833 0.0
C78 C 0.07818 0.33244 0.40004 0.0
C79 C 0.06332 0.34416 0.38481 0.0
N80 N 0.00685 0.3637 0.32764 0.0
C81 C 0.98443 0.36632 0.29281 0.0
C82 C 0.97117 0.385 0.30203 0.0
C83 C 0.97612 0.39273 0.32425 0.0
C84 C 0.99369 0.38183 0.33667 0.0
C85 C 1.00215 0.35605 0.30579 0.0
H86 H 0.99635 0.38858 0.35349 0.0
H87 H 0.01184 0.34201 0.29783 0.0
H88 H 0.06305 0.30506 0.34259 0.0
H89 H 0.05694 0.36084 0.39014 0.0
C90 C 0.02334 0.38902 0.3864 0.0
C91 C 0.07385 0.38773 0.31206 0.0
C92 C 0.98835 0.31146 0.3783 0.0
C93 C 0.04079 0.30878 0.30596 0.0
H94 H 0.07154 0.43387 0.33249 0.0
H95 H 0.04598 0.43386 0.37383 0.0
H96 H 0.99025 0.3752 0.42617 0.0
H97 H 0.97096 0.33281 0.42127 0.0
H98 H 0.9822 0.26916 0.3534 0.0
H99 H 0.01064 0.26756 0.31352 0.0
H100 H 0.07979 0.31883 0.2711 0.0
H101 H 0.099 0.36106 0.2757 0.0
H102 H 0.08905 0.28427 0.36773 0.0
H103 H 0.08221 0.34038 0.41637 0.0
H104 H 0.98116 0.35957 0.27571 0.0
H105 H 0.96683 0.4075 0.33197 0.0
C106 C 0.69123 0.99552 0.32947 0.0
C107 C 0.70093 0.99043 0.30687 0.0
C108 C 0.72233 1.0024 0.30313 0.0
C109 C 0.7245 0.01417 0.32354 0.0
N110 N 0.70607 0.01004 0.34037 0.0
Co111 Co 0.70116 0.02602 0.37147 0.0
N112 N 0.73169 0.04539 0.36513 0.0
C113 C 0.74739 0.04456 0.34563 0.0
C114 C 0.76783 0.05779 0.34687 0.0
C115 C 0.76532 0.06734 0.36868 0.0
C116 C 0.74328 0.05957 0.37956 0.0
N117 N 0.69581 0.04251 0.40217 0.0
C118 C 0.71011 0.05775 0.41279 0.0
C119 C 0.69905 0.06481 0.43417 0.0
C120 C 0.67753 0.05305 0.43761 0.0
C121 C 0.67645 0.0397 0.4181 0.0
N122 N 0.67109 0.00613 0.37826 0.0
C123 C 0.65618 1.00572 0.39845 0.0
C124 C 0.63656 0.99109 0.39792 0.0
C125 C 0.63884 0.98186 0.37593 0.0
C126 C 0.65974 0.99153 0.36417 0.0
N127 N 0.71951 1.00073 0.38832 0.0
C128 C 0.74736 0.96694 0.41307 0.0
C129 C 0.7264 0.97605 0.42405 0.0
C130 C 0.71287 0.99261 0.41149 0.0
C131 C 0.75384 0.97507 0.38929 0.0
C132 C 0.73987 0.99167 0.37743 0.0
N133 N 0.68272 0.05114 0.35446 0.0
C134 C 0.64458 0.06899 0.34778 0.0
C135 C 0.65371 0.08018 0.32595 0.0
C136 C 0.6781 0.07773 0.31944 0.0
C137 C 0.69212 0.06322 0.33375 0.0
C138 C 0.65927 0.05509 0.36176 0.0
H139 H 0.71038 0.06152 0.32733 0.0
H140 H 0.65103 0.04718 0.37815 0.0
H141 H 0.69712 0.99869 0.421 0.0
H142 H 0.74607 0.99709 0.35946 0.0
C143 C 0.74298 0.0301 0.32704 0.0
C144 C 0.66732 0.98719 0.33921 0.0
C145 C 0.73465 0.06519 0.40404 0.0
C146 C 0.65919 0.02206 0.4158 0.0
H147 H 0.69303 0.97972 0.29413 0.0
H148 H 0.7345 1.00308 0.28711 0.0
H149 H 0.78313 0.05959 0.33381 0.0
H150 H 0.77863 0.0782 0.37594 0.0
H151 H 0.70614 0.07667 0.4464 0.0
H152 H 0.66468 0.05337 0.45305 0.0
H153 H 0.62169 0.98845 0.41141 0.0
H154 H 0.62615 0.97002 0.36897 0.0
H155 H 0.72018 0.97022 0.44223 0.0
H156 H 0.76996 0.969 0.37982 0.0
H157 H 0.62597 0.07077 0.35402 0.0
H158 H 0.68617 0.08615 0.30284 0.0
C159 C 0.96543 0.73088 0.34836 0.0
C160 C 0.9579 0.75199 0.33784 0.0
C161 C 0.97068 0.75518 0.31611 0.0
C162 C 0.98526 0.73596 0.31473 0.0
N163 N 0.98211 0.72036 0.334 0.0
Co164 Co 1.00118 0.69146 0.34111 0.0
N165 N 0.02292 0.69828 0.31128 0.0
C166 C 0.02114 0.71603 0.29428 0.0
C167 C 0.03836 0.71571 0.27555 0.0
C168 C 0.05184 0.69651 0.28077 0.0
C169 C 0.04203 0.68625 0.30253 0.0
N170 N 0.02062 0.66301 0.34879 0.0
C171 C 0.04037 0.65484 0.33681 0.0
C172 C 0.04903 0.6349 0.34868 0.0
C173 C 0.03396 0.63012 0.36874 0.0
C174 C 0.01715 0.6474 0.36807 0.0
N175 N 0.97914 0.6844 0.37063 0.0
C176 C 0.979 0.66522 0.38626 0.0
C177 C 0.9621 0.66607 0.40526 0.0
C178 C 0.95118 0.68729 0.4018 0.0
C179 C 0.96218 0.69812 0.38086 0.0
N180 N 0.98046 0.67179 0.32273 0.0
C181 C 0.95555 0.64207 0.29435 0.0
C182 C 0.96217 0.63378 0.31665 0.0
C183 C 0.97439 0.64882 0.33044 0.0
C184 C 0.96062 0.66578 0.28694 0.0
C185 C 0.97292 0.68022 0.30133 0.0
N186 N 0.022 0.71086 0.35927 0.0
C187 C 0.04225 0.71646 0.39474 0.0
C188 C 0.05325 0.73738 0.38434 0.0
C189 C 0.04792 0.74504 0.36135 0.0
C190 C 0.03226 0.73168 0.34928 0.0
C191 C 0.02684 0.70357 0.38198 0.0
H192 H 0.02884 0.73844 0.33183 0.0
H193 H 0.01907 0.68773 0.39082 0.0
H194 H 0.97903 0.64122 0.34708 0.0
H195 H 0.97648 0.69796 0.29445 0.0
C196 C 1.00353 0.73314 0.29675 0.0
C197 C 0.95782 0.72241 0.37272 0.0
C198 C 0.05094 0.66465 0.31373 0.0
C199 C 0.99736 0.64884 0.3847 0.0
H200 H 0.94515 0.76421 0.34548 0.0
H201 H 0.97024 0.77028 0.30337 0.0
H202 H 0.04082 0.72798 0.25996 0.0
H203 H 0.06705 0.69061 0.26973 0.0
H204 H 0.06445 0.62467 0.34319 0.0
H205 H 0.03494 0.61558 0.38205 0.0
H206 H 0.95915 0.65351 0.42058 0.0
H207 H 0.93755 0.69457 0.41389 0.0
H208 H 0.95806 0.61568 0.32345 0.0
H209 H 0.95579 0.67305 0.26979 0.0
H210 H 0.04536 0.71007 0.41273 0.0
H211 H 0.05607 0.76108 0.35249 0.0
C212 C 0.35397 0.97293 0.7442 0.0
C213 C 0.34168 0.96171 0.76434 0.0
C214 C 0.3183 0.96797 0.76386 0.0
C215 C 0.31764 0.98272 0.74365 0.0
N216 N 0.33918 0.9863 0.73148 0.0
Co217 Co 0.34622 0.00636 0.70144 0.0
N218 N 0.31552 0.02311 0.70636 0.0
C219 C 0.29649 0.01558 0.7212 0.0
C220 C 0.2776 0.03061 0.7206 0.0
C221 C 0.28507 0.04861 0.70415 0.0
C222 C 0.30822 0.0435 0.69559 0.0
N223 N 0.35318 0.02631 0.67128 0.0
C224 C 0.34271 0.0464 0.66342 0.0
C225 C 0.35309 0.05454 0.64107 0.0
C226 C 0.37031 0.0387 0.63458 0.0
C227 C 0.36959 0.02189 0.65328 0.0
N228 N 0.37685 0.98954 0.69648 0.0
C229 C 0.39055 0.98884 0.67571 0.0
C230 C 0.41058 0.97553 0.6777 0.0
C231 C 0.4093 0.96716 0.70116 0.0
C232 C 0.38847 0.97592 0.71218 0.0
N233 N 0.33067 0.9826 0.6839 0.0
C234 C 0.30838 0.94865 0.6589 0.0
C235 C 0.32485 0.94181 0.67509 0.0
C236 C 0.33561 0.95905 0.68762 0.0
C237 C 0.3033 0.97271 0.65533 0.0
C238 C 0.31481 0.98942 0.66782 0.0
N239 N 0.36181 0.03001 0.71899 0.0
C240 C 0.39576 0.05519 0.72339 0.0
C241 C 0.38498 0.06287 0.74494 0.0
C242 C 0.36217 0.05385 0.75303 0.0
C243 C 0.35101 0.03735 0.73991 0.0
C244 C 0.38381 0.03899 0.71063 0.0
H245 H 0.33367 0.03044 0.74678 0.0
H246 H 0.39254 0.03351 0.69411 0.0
H247 H 0.34789 0.95327 0.70035 0.0
H248 H 0.31082 0.00785 0.66445 0.0
C249 C 0.29823 0.9963 0.73768 0.0
C250 C 0.37915 0.96906 0.73677 0.0
C251 C 0.32138 0.05676 0.67526 0.0
C252 C 0.38601 1.00378 0.65597 0.0
H253 H 0.34879 0.95007 0.77786 0.0
H254 H 0.30371 0.96303 0.77713 0.0
H255 H 0.26062 0.02899 0.73123 0.0
H256 H 0.27447 0.0635 0.69868 0.0
H257 H 0.34841 0.07007 0.63036 0.0
H258 H 0.3823 0.03966 0.61842 0.0
H259 H 0.42479 0.97283 0.66396 0.0
H260 H 0.42205 0.95568 0.70916 0.0
H261 H 0.32902 0.92328 0.67834 0.0
H262 H 0.29071 0.97856 0.64276 0.0
H263 H 0.41352 0.06124 0.71654 0.0
H264 H 0.3529 0.0595 0.76933 0.0
C265 C 0.99594 0.37131 0.6908 0.0
C266 C 0.98974 0.39312 0.68067 0.0
C267 C 1.00237 0.39598 0.65882 0.0
C268 C 0.0155 0.37582 0.65673 0.0
N269 N 0.01179 0.35998 0.67574 0.0
Co270 Co 0.029 0.3291 0.68028 0.0
N271 N 0.04955 0.33453 0.64926 0.0
C272 C 0.04881 0.35363 0.63367 0.0
C273 C 0.06438 0.35262 0.61366 0.0
C274 C 0.07549 0.3314 0.61634 0.0
C275 C 0.06592 0.32042 0.63784 0.0
N276 N 0.04656 0.29847 0.685 0.0
C277 C 0.06314 0.28749 0.67037 0.0
C278 C 0.06917 0.26566 0.68064 0.0
C279 C 0.05614 0.26271 0.70225 0.0
C280 C 0.04277 0.28272 0.70405 0.0
N281 N 0.00826 0.32362 0.71116 0.0
C282 C 0.00847 0.30422 0.72637 0.0
C283 C 0.9933 0.30548 0.74666 0.0
C284 C 0.98294 0.32715 0.74447 0.0
C285 C 0.99235 0.33799 0.72285 0.0
N286 N 1.00484 0.31183 0.66254 0.0
C287 C 0.97487 0.28588 0.6338 0.0
C288 C 0.98253 0.27579 0.65524 0.0
C289 C 0.99714 0.28895 0.66923 0.0
C290 C 0.98175 0.30969 0.62793 0.0
C291 C 0.99652 0.32204 0.64219 0.0
N292 N 0.05307 0.3464 0.69791 0.0
C293 C 0.07503 0.35111 0.73306 0.0
C294 C 0.08361 0.37391 0.72464 0.0
C295 C 0.07662 0.38218 0.70226 0.0
C296 C 0.06204 0.36826 0.68929 0.0
C297 C 0.05991 0.33788 0.71965 0.0
H298 H 0.05792 0.37585 0.6724 0.0
H299 H 0.0538 0.32085 0.72731 0.0
H300 H 1.00234 0.28004 0.6852 0.0
H301 H 1.00123 0.33984 0.63606 0.0
C302 C 0.03274 0.3719 0.63799 0.0
C303 C 0.98639 0.36237 0.71488 0.0
C304 C 0.07274 0.29637 0.6462 0.0
C305 C 0.02485 0.28625 0.72223 0.0
H306 H 0.97766 0.40585 0.68847 0.0
H307 H 1.0025 0.41127 0.64625 0.0
H308 H 0.06707 0.36561 0.59869 0.0
H309 H 0.08893 0.32464 0.6037 0.0
H310 H 0.08117 0.25276 0.67306 0.0
H311 H 0.05576 0.24734 0.71476 0.0
H312 H 0.9908 0.29258 0.76172 0.0
H313 H 0.97043 0.33445 0.75767 0.0
H314 H 0.97788 0.25754 0.66102 0.0
H315 H 0.97586 0.31904 0.6122 0.0
H316 H 0.07994 0.34325 0.74992 0.0
H317 H 0.08188 0.3997 0.69462 0.0
C318 C 0.69687 0.03968 0.66886 0.0
C319 C 0.69013 0.04647 0.64627 0.0
C320 C 0.66707 0.03866 0.64559 0.0
C321 C 0.66109 0.02726 0.66754 0.0
N322 N 0.67898 0.02729 0.682 0.0
Co323 Co 0.67836 0.01136 0.71463 0.0
N324 N 0.64995 0.99143 0.70938 0.0
C325 C 0.63563 0.99489 0.69151 0.0
C326 C 0.61764 0.97814 0.69205 0.0
C327 C 0.62048 0.96343 0.71176 0.0
C328 C 0.63998 0.97222 0.72235 0.0
N329 N 0.6776 0.99575 0.74744 0.0
C330 C 0.66476 0.97662 0.75758 0.0
C331 C 0.66891 0.97275 0.78151 0.0
C332 C 0.68451 0.99024 0.78657 0.0
C333 C 0.68903 1.00381 0.76559 0.0
N334 N 0.70685 0.03119 0.71965 0.0
C335 C 0.71483 0.03556 0.74089 0.0
C336 C 0.73475 0.05014 0.73883 0.0
C337 C 0.73956 0.05535 0.71477 0.0
C338 C 0.72229 0.04352 0.70346 0.0
N339 N 0.65762 0.03593 0.727 0.0
C340 C 0.63 0.07108 0.74764 0.0
C341 C 0.64957 0.07724 0.73133 0.0
C342 C 0.66303 0.05937 0.72102 0.0
C343 C 0.62414 0.04709 0.75296 0.0
C344 C 0.63818 0.02983 0.74251 0.0
N345 N 0.69927 0.98699 0.70232 0.0
C346 C 0.7352 0.96483 0.70449 0.0
C347 C 0.73261 0.95672 0.68185 0.0
C348 C 0.71252 0.96305 0.6701 0.0
C349 C 0.69588 0.97798 0.6808 0.0
C350 C 0.71837 0.98012 0.71437 0.0
H351 H 0.68072 0.98283 0.67128 0.0
H352 H 0.72128 0.98701 0.73136 0.0
H353 H 0.67806 0.06454 0.70853 0.0
H354 H 0.63351 0.01157 0.74744 0.0
C355 C 0.64119 0.01229 0.67312 0.0
C356 C 0.71989 0.04607 0.67763 0.0
C357 C 0.64602 0.96395 0.74636 0.0
C358 C 0.7055 0.02276 0.76171 0.0
H359 H 0.70074 0.05577 0.6316 0.0
H360 H 0.65648 0.03989 0.63038 0.0
H361 H 0.60426 0.97661 0.67945 0.0
H362 H 0.60899 0.9484 0.7181 0.0
H363 H 0.66089 0.95921 0.79424 0.0
H364 H 0.69176 0.99269 0.80351 0.0
H365 H 0.74502 0.0557 0.75304 0.0
H366 H 0.75397 0.06675 0.70653 0.0
H367 H 0.65444 0.09568 0.72662 0.0
H368 H 0.60921 0.04165 0.76566 0.0
H369 H 0.75062 0.96024 0.71398 0.0
H370 H 0.70993 0.9568 0.65262 0.0
C371 C 0.98785 0.66572 0.74111 0.0
C372 C 0.979 0.67413 0.76282 0.0
C373 C 0.99082 0.69498 0.76527 0.0
C374 C 0.00639 0.698 0.74523 0.0
N375 N 1.00512 0.6805 0.7299 0.0
Co376 Co 0.02683 0.67667 0.70018 0.0
N377 N 0.04495 0.70683 0.70451 0.0
C378 C 0.04034 0.72201 0.72198 0.0
C379 C 0.05419 0.74231 0.71932 0.0
C380 C 0.06833 0.74021 0.69868 0.0
C381 C 0.06243 0.7185 0.69001 0.0
N382 N 0.04916 0.67225 0.67104 0.0
C383 C 0.06707 0.68654 0.66032 0.0
C384 C 0.07838 0.67644 0.64056 0.0
C385 C 0.06683 0.65534 0.63834 0.0
C386 C 0.04935 0.65363 0.65691 0.0
N387 N 0.00812 0.64702 0.69528 0.0
C388 C 0.01133 0.63304 0.67658 0.0
C389 C 0.9954 0.6143 0.67762 0.0
C390 C 0.98125 0.61631 0.69831 0.0
C391 C 0.98955 0.63611 0.70891 0.0
N392 N 1.00488 0.69553 0.68018 0.0
C393 C 0.9747 0.72249 0.65065 0.0
C394 C 0.98834 0.70369 0.64202 0.0
C395 C 1.00272 0.6905 0.65687 0.0
C396 C 0.97683 0.72756 0.6746 0.0
C397 C 0.99194 0.71414 0.68882 0.0
N398 N 0.04878 0.65772 0.72008 0.0
C399 C 0.06926 0.62089 0.72842 0.0
C400 C 0.07753 0.62902 0.74938 0.0
C401 C 0.07168 0.6523 0.75491 0.0
C402 C 0.0574 0.66618 0.7402 0.0
C403 C 0.05519 0.63527 0.71428 0.0
H404 H 0.05329 0.68362 0.74563 0.0
H405 H 0.0495 0.62763 0.69879 0.0
H406 H 0.01206 0.67631 0.64886 0.0
H407 H 0.99286 0.71913 0.70679 0.0
C408 C 0.02261 0.71688 0.74043 0.0
C409 C 0.97964 0.6434 0.7322 0.0
C410 C 0.07329 0.71016 0.66753 0.0
C411 C 0.03099 0.63648 0.65976 0.0
H412 H 0.96567 0.66593 0.77585 0.0
H413 H 0.98866 0.70635 0.78014 0.0
H414 H 0.0537 0.75712 0.73076 0.0
H415 H 0.08115 0.75347 0.69073 0.0
H416 H 0.09304 0.68388 0.62859 0.0
H417 H 0.07015 0.64317 0.62428 0.0
H418 H 0.99465 0.6004 0.66519 0.0
H419 H 0.96675 0.60427 0.70506 0.0
H420 H 0.98833 0.69906 0.62362 0.0
H421 H 0.9667 0.74164 0.68262 0.0
H422 H 0.07361 0.60332 0.72279 0.0
H423 H 0.07751 0.65961 0.77088 0.0
C424 C 0.39714 0.35007 0.04056 0.0
C425 C 0.41878 0.36094 0.044 0.0
C426 C 0.42007 0.38183 0.03038 0.0
C427 C 0.39918 0.38271 0.01952 0.0
N428 N 0.38447 0.36369 0.02546 0.0
Co429 Co 0.35208 0.35834 0.01373 0.0
N430 N 0.35463 0.38852 0.99252 0.0
C431 C 0.37355 0.40383 0.98951 0.0
C432 C 0.37053 0.42283 0.9738 0.0
C433 C 0.34832 0.41958 0.96632 0.0
C434 C 0.33889 0.39876 0.97804 0.0
N435 N 0.31951 0.35321 1.00233 0.0
C436 C 0.30681 0.36688 0.9873 0.0
C437 C 0.28435 0.35696 0.98543 0.0
C438 C 0.28283 0.33635 0.99948 0.0
C439 C 0.30426 0.33486 0.00932 0.0
N440 N 0.34973 0.32794 0.03461 0.0
C441 C 0.3312 0.31216 0.0369 0.0
C442 C 0.33475 0.29249 0.05154 0.0
C443 C 0.35698 0.29572 0.05897 0.0
C444 C 0.36575 0.31737 0.04855 0.0
N445 N 0.3374 0.37599 0.04037 0.0
C446 C 0.31497 0.40236 0.07638 0.0
C447 C 0.307 0.37937 0.0729 0.0
C448 C 0.31839 0.3666 0.05491 0.0
C449 C 0.33465 0.41172 0.06192 0.0
C450 C 0.3456 0.39827 0.04432 0.0
N451 N 0.36677 0.34068 0.98712 0.0
C452 C 0.36838 0.30572 0.96428 0.0
C453 C 0.39048 0.31314 0.95295 0.0
C454 C 0.39992 0.33509 0.95804 0.0
C455 C 0.38782 0.3485 0.97499 0.0
C456 C 0.35686 0.31974 0.98114 0.0
H457 H 0.39611 0.36489 0.97828 0.0
H458 H 0.34024 0.313 0.98945 0.0
H459 H 0.31134 0.34929 0.05304 0.0
H460 H 0.36045 0.40649 0.03398 0.0
C461 C 0.39342 0.40047 1.00264 0.0
C462 C 0.38967 0.32672 0.05194 0.0
C463 C 0.31494 0.38949 0.97469 0.0
C464 C 0.31067 0.31637 0.02504 0.0
H465 H 0.43235 0.35436 0.05508 0.0
H466 H 0.4347 0.39469 0.02834 0.0
H467 H 0.3829 0.43748 0.96863 0.0
H468 H 0.33999 0.43131 0.95372 0.0
H469 H 0.27038 0.36398 0.97511 0.0
H470 H 0.26781 0.32399 1.00232 0.0
H471 H 0.3227 0.27746 0.05608 0.0
H472 H 0.36579 0.28334 0.07055 0.0
H473 H 0.29205 0.37121 0.08398 0.0
H474 H 0.34134 0.42958 0.06375 0.0
H475 H 0.36038 0.2888 0.96082 0.0
H476 H 0.41677 0.34178 0.94922 0.0
C477 C 0.68621 0.31017 0.05888 0.0
C478 C 0.69346 0.28759 0.06591 0.0
C479 C 0.71523 0.28449 0.05399 0.0
C480 C 0.71995 0.30515 0.04023 0.0
N481 N 0.70273 0.32149 0.04293 0.0
Co482 Co 0.70132 0.3528 0.02415 0.0
N483 N 0.73282 0.34767 1.00564 0.0
C484 C 0.74727 0.32897 0.00864 0.0
C485 C 0.76866 0.33118 0.99509 0.0
C486 C 0.76807 0.35275 0.9829 0.0
C487 C 0.74609 0.36242 0.98952 0.0
N488 N 0.69928 0.38355 1.0047 0.0
C489 C 0.71497 0.39421 0.98754 0.0
C490 C 0.70594 0.41504 0.9778 0.0
C491 C 0.68413 0.41801 0.9897 0.0
C492 C 0.68093 0.39878 1.00577 0.0
N493 N 0.67044 0.3585 0.0434 0.0
C494 C 0.65713 0.37823 0.04207 0.0
C495 C 0.63709 0.37727 0.05778 0.0
C496 C 0.63745 0.35551 0.06968 0.0
C497 C 0.65764 0.3443 0.06031 0.0
N498 N 0.71875 0.36907 0.04793 0.0
C499 C 0.74668 0.39412 0.07771 0.0
C500 C 0.72702 0.40458 0.06807 0.0
C501 C 0.71339 0.39184 0.05341 0.0
C502 C 0.75153 0.37056 0.07299 0.0
C503 C 0.73737 0.35843 0.05827 0.0
N504 N 0.68398 0.33657 1.00026 0.0
C505 C 0.64861 0.33164 0.97933 0.0
C506 C 0.65848 0.31237 0.9679 0.0
C507 C 0.68143 0.30557 0.97257 0.0
C508 C 0.69372 0.31773 0.98883 0.0
C509 C 0.66164 0.34355 0.99514 0.0
H510 H 0.71094 0.31135 0.99202 0.0
H511 H 0.65317 0.35823 1.00309 0.0
H512 H 0.69884 0.40095 0.04642 0.0
H513 H 0.74215 0.34062 0.05516 0.0
C514 C 0.74024 0.30965 0.02446 0.0
C515 C 0.66307 0.31968 0.06702 0.0
C516 C 0.73895 0.38594 0.98066 0.0
C517 C 0.66228 0.39591 0.02382 0.0
H518 H 0.68388 0.27446 0.07801 0.0
H519 H 0.72609 0.26885 0.05486 0.0
H520 H 0.78316 0.31877 0.99449 0.0
H521 H 0.78245 0.36056 0.97085 0.0
H522 H 0.71449 0.42717 0.96394 0.0
H523 H 0.67238 0.43285 0.98748 0.0
H524 H 0.62333 0.3904 0.05965 0.0
H525 H 0.62395 0.34838 0.08318 0.0
H526 H 0.72216 0.42261 0.07173 0.0
H527 H 0.76658 0.36167 0.08004 0.0
H528 H 0.63092 0.33762 0.97598 0.0
H529 H 0.68966 0.29058 0.96416 0.0
C530 C 0.72768 0.69773 0.06534 0.0
C531 C 0.74906 0.70914 0.06871 0.0
C532 C 0.7519 0.72753 0.05179 0.0
C533 C 0.73219 0.72627 0.03914 0.0
N534 N 0.7168 0.70832 0.04707 0.0
Co535 Co 0.68617 0.69964 0.03363 0.0
N536 N 0.69102 0.72586 0.00792 0.0
C537 C 0.71002 0.74095 1.00366 0.0
C538 C 0.70783 0.75763 0.98532 0.0
C539 C 0.68598 0.75316 0.97756 0.0
C540 C 0.67612 0.73386 0.99167 0.0
N541 N 0.65537 0.69121 0.02043 0.0
C542 C 0.64391 0.70258 1.00302 0.0
C543 C 0.62246 0.69127 0.99967 0.0
C544 C 0.61998 0.67237 0.01599 0.0
C545 C 0.64001 0.67319 0.02822 0.0
N546 N 0.68138 0.67328 0.05912 0.0
C547 C 0.66286 0.65753 0.06274 0.0
C548 C 0.66481 0.64116 0.08142 0.0
C549 C 0.686 0.64658 0.09012 0.0
C550 C 0.69573 0.666 0.07612 0.0
N551 N 0.66849 0.72203 0.05549 0.0
C552 C 0.64438 0.75393 0.08726 0.0
C553 C 0.63596 0.73055 0.08534 0.0
C554 C 0.64805 0.71516 0.06954 0.0
C555 C 0.66493 0.76088 0.07229 0.0
C556 C 0.67653 0.74496 0.05694 0.0
N557 N 0.704 0.67719 0.01178 0.0
C558 C 0.70716 0.63897 0.99343 0.0
C559 C 0.72944 0.64508 0.98113 0.0
C560 C 0.73866 0.66774 0.98485 0.0
C561 C 0.72586 0.68325 0.99993 0.0
C562 C 0.695 0.65496 0.00841 0.0
H563 H 0.73408 0.70016 1.00166 0.0
H564 H 0.67829 0.64883 0.01719 0.0
H565 H 0.64058 0.69766 0.0691 0.0
H566 H 0.69209 0.75166 0.04635 0.0
C567 C 0.72841 0.74063 0.01882 0.0
C568 C 0.71916 0.67614 0.07898 0.0
C569 C 0.65198 0.72474 0.99014 0.0
C570 C 0.64422 0.6582 0.04793 0.0
H571 H 0.76155 0.70432 0.0817 0.0
H572 H 0.76687 0.73993 0.04866 0.0
H573 H 0.72019 0.772 0.97903 0.0
H574 H 0.67794 0.76345 0.96363 0.0
H575 H 0.60967 0.69655 0.98713 0.0
H576 H 0.60504 0.65993 0.01905 0.0
H577 H 0.65249 0.62676 0.08769 0.0
H578 H 0.69366 0.63707 0.10482 0.0
H579 H 0.62031 0.72381 0.09632 0.0
H580 H 0.6722 0.77877 0.07214 0.0
H581 H 0.69906 0.62166 0.99186 0.0
H582 H 0.7556 0.67383 0.97581 0.0
C583 C 0.39322 0.69988 0.9997 0.0
C584 C 0.41546 0.69122 0.99232 0.0
C585 C 0.42126 0.67508 0.0099 0.0
C586 C 0.40218 0.67446 0.02681 0.0
N587 N 0.38447 0.68888 0.02086 0.0
Co588 Co 0.35353 0.69255 0.04023 0.0
N589 N 0.35863 0.66365 0.06118 0.0
C590 C 0.37952 0.65269 0.06314 0.0
C591 C 0.3778 0.63332 0.07917 0.0
C592 C 0.35435 0.63202 0.08801 0.0
C593 C 0.34303 0.65071 0.07676 0.0
N594 N 0.32268 0.69618 0.05971 0.0
C595 C 0.30998 0.68039 0.07515 0.0
C596 C 0.2888 0.69016 0.08418 0.0
C597 C 0.28856 0.71297 0.07453 0.0
C598 C 0.30936 0.71581 0.06001 0.0
N599 N 0.34836 0.72156 0.01941 0.0
C600 C 0.3323 0.73842 0.02446 0.0
C601 C 0.33346 0.75722 0.00783 0.0
C602 C 0.35161 0.75214 0.99132 0.0
C603 C 0.36051 0.73032 0.99876 0.0
N604 N 0.33715 0.67265 0.01832 0.0
C605 C 0.31373 0.64329 0.98761 0.0
C606 C 0.30415 0.66506 0.99443 0.0
C607 C 0.31605 0.67936 0.00968 0.0
C608 C 0.33531 0.63672 0.99687 0.0
C609 C 0.34665 0.65151 0.01191 0.0
N610 N 0.37005 0.71237 0.0622 0.0
C611 C 0.39851 0.74369 0.06852 0.0
C612 C 0.39508 0.73951 0.09344 0.0
C613 C 0.37849 0.72156 0.10229 0.0
C614 C 0.36609 0.70844 0.08652 0.0
C615 C 0.38609 0.72993 0.05335 0.0
H616 H 0.35342 0.69495 0.09409 0.0
H617 H 0.38981 0.73344 0.03438 0.0
H618 H 0.30811 0.69589 0.01444 0.0
H619 H 0.36313 0.64565 0.01845 0.0
C620 C 0.3992 0.65873 0.047 0.0
C621 C 0.38229 0.72018 0.9874 0.0
C622 C 0.31805 0.65673 0.08285 0.0
C623 C 0.31508 0.73504 0.04375 0.0
H624 H 0.42661 0.69636 0.97616 0.0
H625 H 0.43727 0.6647 0.01007 0.0
H626 H 0.39172 0.62112 0.08335 0.0
H627 H 0.34653 0.61893 0.10136 0.0
H628 H 0.27494 0.68174 0.09648 0.0
H629 H 0.27444 0.72564 0.07708 0.0
H630 H 0.32238 0.77274 0.00766 0.0
H631 H 0.35799 0.76371 0.97603 0.0
H632 H 0.28774 0.67131 0.98776 0.0
H633 H 0.34345 0.62 0.99282 0.0
H634 H 0.41125 0.75712 0.06067 0.0
H635 H 0.37493 0.71771 0.12137 0.0
C636 C 0.82052 0.46994 0.8614 0.0
C637 C 0.79899 0.4636 0.85285 0.0
C638 C 0.79732 0.47691 0.83207 0.0
C639 C 0.81767 0.49075 0.82921 0.0
N640 N 0.83246 0.48696 0.84672 0.0
Co641 Co 0.86273 0.50515 0.85053 0.0
N642 N 0.85941 0.52577 0.82069 0.0
C643 C 0.84168 0.52454 0.80601 0.0
C644 C 0.84506 0.53933 0.78579 0.0
C645 C 0.86645 0.55051 0.78739 0.0
C646 C 0.87483 0.54205 0.80877 0.0
N647 N 0.89273 0.52361 0.85464 0.0
C648 C 0.90441 0.54095 0.84022 0.0
C649 C 0.92446 0.54933 0.85014 0.0
C650 C 0.92598 0.53628 0.87114 0.0
C651 C 0.90672 0.52093 0.87299 0.0
N652 N 0.86637 0.48426 0.8801 0.0
C653 C 0.88464 0.4848 0.89424 0.0
C654 C 0.88241 0.46827 0.91318 0.0
C655 C 0.86132 0.4566 0.91122 0.0
C656 C 0.85174 0.46688 0.89122 0.0
N657 N 0.88196 0.48211 0.83061 0.0
C658 C 0.91128 0.45211 0.80102 0.0
C659 C 0.91884 0.46072 0.82215 0.0
C660 C 0.90416 0.47526 0.83646 0.0
C661 C 0.88819 0.45839 0.79551 0.0
C662 C 0.87406 0.47331 0.81027 0.0
N663 N 0.8436 0.52824 0.87053 0.0
C664 C 0.83758 0.5498 0.90694 0.0
C665 C 0.81674 0.56048 0.89982 0.0
C666 C 0.80952 0.55426 0.8776 0.0
C667 C 0.82308 0.53844 0.86338 0.0
C668 C 0.85044 0.53405 0.89238 0.0
H669 H 0.81665 0.53474 0.84659 0.0
H670 H 0.86591 0.52671 0.89935 0.0
H671 H 0.91137 0.48098 0.85215 0.0
H672 H 0.8569 0.47779 0.80468 0.0
C673 C 0.8229 0.50816 0.81087 0.0
C674 C 0.82839 0.45996 0.88396 0.0
C675 C 0.89798 0.54915 0.81649 0.0
C676 C 0.90253 0.50237 0.89046 0.0
H677 H 0.78552 0.45108 0.86099 0.0
H678 H 0.78268 0.47697 0.82074 0.0
H679 H 0.83373 0.54112 0.77117 0.0
H680 H 0.87508 0.56294 0.77389 0.0
H681 H 0.93707 0.56302 0.84266 0.0
H682 H 0.93992 0.53731 0.8832 0.0
H683 H 0.89437 0.46549 0.92715 0.0
H684 H 0.85364 0.44243 0.92342 0.0
H685 H 0.93622 0.45622 0.82781 0.0
H686 H 0.88123 0.45242 0.77946 0.0
H687 H 0.84402 0.55333 0.92403 0.0
H688 H 0.7937 0.56192 0.87087 0.0
C689 C 0.4762 0.83047 0.90663 0.0
C690 C 0.46701 0.83986 0.92771 0.0
C691 C 0.47905 0.86077 0.92952 0.0
C692 C 0.49465 0.86311 0.90941 0.0
N693 N 0.49299 0.84521 0.89458 0.0
Co694 Co 0.51224 0.84173 0.86327 0.0
N695 N 0.53192 0.87106 0.86725 0.0
C696 C 0.52971 0.88539 0.88579 0.0
C697 C 0.54596 0.90388 0.88389 0.0
C698 C 0.55933 0.90133 0.86284 0.0
C699 C 0.55031 0.88144 0.85293 0.0
N700 N 0.53153 0.83819 0.83196 0.0
C701 C 0.54967 0.85188 0.82072 0.0
C702 C 0.55737 0.84344 0.7987 0.0
C703 C 0.54387 0.82366 0.79603 0.0
C704 C 0.52862 0.8212 0.81637 0.0
N705 N 0.49261 0.81226 0.85949 0.0
C706 C 0.49433 0.79834 0.84062 0.0
C707 C 0.48019 0.77826 0.84383 0.0
C708 C 0.46896 0.77914 0.8662 0.0
C709 C 0.47669 0.79999 0.87537 0.0
N710 N 0.48922 0.86155 0.84638 0.0
C711 C 0.46166 0.89278 0.81957 0.0
C712 C 0.46792 0.87059 0.81143 0.0
C713 C 0.48143 0.85531 0.8251 0.0
C714 C 0.46836 0.8985 0.84189 0.0
C715 C 0.48193 0.88278 0.85487 0.0
N716 N 0.53533 0.82222 0.87995 0.0
C717 C 0.55998 0.78763 0.88249 0.0
C718 C 0.5685 0.79483 0.90362 0.0
C719 C 0.56007 0.81596 0.91269 0.0
C720 C 0.54356 0.82918 0.90074 0.0
C721 C 0.54356 0.80151 0.87101 0.0
H722 H 0.53775 0.84501 0.90865 0.0
H723 H 0.53772 0.79513 0.85497 0.0
H724 H 0.48572 0.8388 0.8178 0.0
H725 H 0.48658 0.8885 0.87151 0.0
C726 C 0.51213 0.88106 0.90472 0.0
C727 C 0.46935 0.80689 0.8996 0.0
C728 C 0.55977 0.87326 0.82984 0.0
C729 C 0.51124 0.80325 0.82125 0.0
H730 H 0.45345 0.83207 0.94077 0.0
H731 H 0.47714 0.87251 0.9441 0.0
H732 H 0.54787 0.91758 0.89635 0.0
H733 H 0.57406 0.91287 0.85561 0.0
H734 H 0.57115 0.85092 0.78571 0.0
H735 H 0.54489 0.81251 0.78095 0.0
H736 H 0.47906 0.76406 0.83178 0.0
H737 H 0.45708 0.76544 0.8749 0.0
H738 H 0.46306 0.86523 0.79427 0.0
H739 H 0.4633 0.91516 0.84936 0.0
H740 H 0.56572 0.77122 0.87493 0.0
H741 H 0.56637 0.8225 0.92882 0.0
C742 C 0.15357 0.54218 0.85461 0.0
C743 C 0.13037 0.54593 0.86393 0.0
C744 C 0.1247 0.52806 0.88108 0.0
C745 C 0.14471 0.51452 0.88148 0.0
N746 N 0.16292 0.52295 0.86601 0.0
Co747 Co 0.19445 0.50741 0.86053 0.0
N748 N 0.18855 0.48574 0.88985 0.0
C749 C 0.16727 0.48119 0.90217 0.0
C750 C 0.16861 0.46579 0.92183 0.0
C751 C 0.19225 0.46028 0.92193 0.0
C752 C 0.20406 0.47275 0.90231 0.0
N753 N 0.22574 0.49152 0.85508 0.0
C754 C 0.23814 0.47788 0.87035 0.0
C755 C 0.25979 0.47132 0.85918 0.0
C756 C 0.26083 0.48091 0.83615 0.0
C757 C 0.23993 0.49291 0.83452 0.0
N758 N 0.20062 0.5292 0.8312 0.0
C759 C 0.21801 0.52658 0.8136 0.0
C760 C 0.21771 0.54336 0.79498 0.0
C761 C 0.19865 0.55726 0.80091 0.0
C762 C 0.18831 0.54819 0.82295 0.0
N763 N 0.20958 0.53094 0.87979 0.0
C764 C 0.23224 0.56259 0.9089 0.0
C765 C 0.2427 0.55724 0.88624 0.0
C766 C 0.23118 0.54152 0.87209 0.0
C767 C 0.21 0.5516 0.91637 0.0
C768 C 0.19904 0.53613 0.90168 0.0
N769 N 0.17916 0.48375 0.8413 0.0
C770 C 0.15307 0.47491 0.81055 0.0
C771 C 0.15543 0.4504 0.815 0.0
C772 C 0.17024 0.44296 0.83284 0.0
C773 C 0.18216 0.45982 0.84546 0.0
C774 C 0.1647 0.49109 0.82394 0.0
H775 H 0.19364 0.45341 0.85876 0.0
H776 H 0.16156 0.5096 0.82025 0.0
H777 H 0.23992 0.53782 0.85494 0.0
H778 H 0.1821 0.52808 0.90829 0.0
C779 C 0.14757 0.4948 0.89718 0.0
C780 C 0.16496 0.55587 0.83342 0.0
C781 C 0.22968 0.47055 0.89525 0.0
C782 C 0.23516 0.50911 0.81588 0.0
H783 H 0.11851 0.55975 0.85844 0.0
H784 H 0.10797 0.52531 0.89198 0.0
H785 H 0.1543 0.46003 0.93509 0.0
H786 H 0.19993 0.44843 0.93491 0.0
H787 H 0.2736 0.46104 0.86687 0.0
H788 H 0.27565 0.48028 0.82262 0.0
H789 H 0.22982 0.5452 0.77893 0.0
H790 H 0.19251 0.5718 0.78976 0.0
H791 H 0.25962 0.56532 0.87921 0.0
H792 H 0.2011 0.55453 0.93376 0.0
H793 H 0.14169 0.48163 0.7972 0.0
H794 H 0.17278 0.42421 0.8369 0.0
C795 C 0.48893 0.24047 0.85457 0.0
C796 C 0.48151 0.26082 0.84249 0.0
C797 C 0.49188 0.26066 0.8195 0.0
C798 C 0.50498 0.24031 0.81892 0.0
N799 N 0.50345 0.22775 0.84009 0.0
Co800 Co 0.51959 0.19769 0.84772 0.0
N801 N 0.54326 0.20341 0.81963 0.0
C802 C 0.54111 0.21892 0.80079 0.0
C803 C 0.5601 0.21875 0.78381 0.0
C804 C 0.57491 0.2018 0.79228 0.0
C805 C 0.56408 0.1925 0.81405 0.0
N806 N 0.53553 0.16746 0.85542 0.0
C807 C 0.55704 0.15965 0.84697 0.0
C808 C 0.56136 0.1373 0.8573 0.0
C809 C 0.54155 0.1307 0.87219 0.0
C810 C 0.52634 0.14935 0.87028 0.0
N811 N 0.4959 0.19211 0.87569 0.0
C812 C 0.49028 0.17125 0.88783 0.0
C813 C 0.47333 0.17338 0.90664 0.0
C814 C 0.46802 0.19707 0.90621 0.0
C815 C 0.48214 0.20799 0.88711 0.0
N816 N 0.49856 0.18105 0.82808 0.0
C817 C 0.46861 0.15607 0.80097 0.0
C818 C 0.45911 0.17172 0.81748 0.0
C819 C 0.47445 0.18433 0.83064 0.0
C820 C 0.49327 0.15327 0.79807 0.0
C821 C 0.50788 0.16574 0.81196 0.0
N822 N 0.54044 0.21434 0.86745 0.0
C823 C 0.55713 0.21765 0.90509 0.0
C824 C 0.56809 0.23935 0.89686 0.0
C825 C 0.56537 0.24809 0.87346 0.0
C826 C 0.55131 0.2354 0.85911 0.0
C827 C 0.54359 0.20533 0.89004 0.0
H828 H 0.54893 0.24282 0.8414 0.0
H829 H 0.53537 0.18865 0.89685 0.0
H830 H 0.46677 0.19659 0.84301 0.0
H831 H 0.5267 0.16286 0.80974 0.0
C832 C 0.52249 0.23511 0.80093 0.0
C833 C 0.48147 0.23312 0.87945 0.0
C834 C 0.57193 0.17078 0.82648 0.0
C835 C 0.50476 0.15163 0.88425 0.0
H836 H 0.47005 0.27444 0.84958 0.0
H837 H 0.49101 0.2744 0.80535 0.0
H838 H 0.56295 0.22975 0.76736 0.0
H839 H 0.59137 0.19628 0.78302 0.0
H840 H 0.57687 0.12652 0.85372 0.0
H841 H 0.53874 0.1144 0.88329 0.0
H842 H 0.4666 0.15965 0.91986 0.0
H843 H 0.4554 0.20537 0.91858 0.0
H844 H 0.44004 0.17429 0.82004 0.0
H845 H 0.50114 0.14111 0.78554 0.0
H846 H 0.55908 0.21023 0.92302 0.0
H847 H 0.57352 0.2649 0.86655 0.0
C848 C 0.84779 0.49526 0.13459 0.0
C849 C 0.85995 0.48881 0.11349 0.0
C850 C 0.88083 0.50168 0.11082 0.0
C851 C 0.88034 0.51505 0.13044 0.0
N852 N 0.86041 0.51144 0.14554 0.0
Co853 Co 0.85277 0.52651 0.17663 0.0
N854 N 0.88194 0.54773 0.17111 0.0
C855 C 0.89798 0.54904 0.15169 0.0
C856 C 0.91574 0.56577 0.15269 0.0
C857 C 0.91072 0.57584 0.17398 0.0
C858 C 0.89018 0.5645 0.18482 0.0
N859 N 0.84566 0.54081 0.20822 0.0
C860 C 0.85789 0.55754 0.21884 0.0
C861 C 0.84739 0.56159 0.24146 0.0
C862 C 0.82778 0.54694 0.24526 0.0
C863 C 0.8275 0.53476 0.22489 0.0
N864 N 0.8229 0.50623 0.18154 0.0
C865 C 0.80624 0.50583 0.20041 0.0
C866 C 0.78687 0.49143 0.19808 0.0
C867 C 0.79122 0.48226 0.17627 0.0
C868 C 0.81326 0.49145 0.16664 0.0
N869 N 0.87114 0.50143 0.1927 0.0
C870 C 0.89733 0.46546 0.21484 0.0
C871 C 0.87307 0.46815 0.22153 0.0
C872 C 0.8605 0.48625 0.21053 0.0
C873 C 0.90819 0.48112 0.19687 0.0
C874 C 0.89487 0.4986 0.18602 0.0
N875 N 0.83451 0.55133 0.16046 0.0
C876 C 0.7996 0.57554 0.15907 0.0
C877 C 0.80689 0.58376 0.13562 0.0
C878 C 0.82862 0.57621 0.12518 0.0
C879 C 0.84208 0.56019 0.13785 0.0
C880 C 0.81362 0.55943 0.17111 0.0
H881 H 0.85838 0.55496 0.12883 0.0
H882 H 0.80703 0.55343 0.18882 0.0
H883 H 0.84222 0.48753 0.21684 0.0
H884 H 0.90437 0.50962 0.17236 0.0
C885 C 0.89688 0.53302 0.13376 0.0
C886 C 0.82406 0.48603 0.14312 0.0
C887 C 0.87952 0.56992 0.20834 0.0
C888 C 0.80953 0.51884 0.22024 0.0
H889 H 0.8541 0.47641 0.10109 0.0
H890 H 0.8944 0.50184 0.09595 0.0
H891 H 0.93079 0.56983 0.13971 0.0
H892 H 0.92116 0.58974 0.18091 0.0
H893 H 0.85326 0.57391 0.25392 0.0
H894 H 0.81505 0.54556 0.26086 0.0
H895 H 0.77133 0.48816 0.21064 0.0
H896 H 0.77933 0.47034 0.16835 0.0
H897 H 0.86365 0.45635 0.23517 0.0
H898 H 0.92705 0.48028 0.19136 0.0
H899 H 0.78283 0.58094 0.16784 0.0
H900 H 0.83519 0.58254 0.10722 0.0
C901 C 0.56166 0.86092 0.17166 0.0
C902 C 0.57236 0.87203 0.15073 0.0
C903 C 0.56409 0.8947 0.14955 0.0
C904 C 0.54884 0.89625 0.16975 0.0
N905 N 0.5471 0.87605 0.18396 0.0
Co906 Co 0.52566 0.87073 0.21442 0.0
N907 N 0.50957 0.90218 0.21001 0.0
C908 C 0.51405 0.91797 0.19109 0.0
C909 C 0.50034 0.93781 0.19227 0.0
C910 C 0.4863 0.93463 0.2133 0.0
C911 C 0.49243 0.91306 0.22404 0.0
N912 N 0.50483 0.8657 0.24529 0.0
C913 C 0.48896 0.88025 0.25679 0.0
C914 C 0.4806 0.87022 0.27914 0.0
C915 C 0.49118 0.84873 0.28178 0.0
C916 C 0.50564 0.84684 0.26115 0.0
N917 N 0.54089 0.8388 0.21819 0.0
C918 C 0.53618 0.82263 0.23674 0.0
C919 C 0.54753 0.80152 0.23383 0.0
C920 C 0.5598 0.80408 0.21178 0.0
C921 C 0.55522 0.82668 0.20242 0.0
N922 N 0.55059 0.88627 0.2327 0.0
C923 C 0.58393 0.90903 0.26041 0.0
C924 C 0.57667 0.88519 0.26528 0.0
C925 C 0.56026 0.87436 0.25148 0.0
C926 C 0.57418 0.92112 0.24114 0.0
C927 C 0.55797 0.90954 0.2276 0.0
N928 N 0.50104 0.85517 0.19624 0.0
C929 C 0.47334 0.82237 0.19182 0.0
C930 C 0.47065 0.82963 0.16785 0.0
C931 C 0.48317 0.85046 0.15886 0.0
C932 C 0.49774 0.86291 0.1732 0.0
C933 C 0.48843 0.8352 0.20549 0.0
H934 H 0.50663 0.87857 0.16505 0.0
H935 H 0.4899 0.82848 0.22349 0.0
H936 H 0.55558 0.85629 0.25655 0.0
H937 H 0.55166 0.91992 0.21307 0.0
C938 C 0.53276 0.91457 0.17364 0.0
C939 C 0.56462 0.83557 0.17828 0.0
C940 C 0.48167 0.90393 0.24772 0.0
C941 C 0.52011 0.82753 0.25607 0.0
H942 H 0.58413 0.86429 0.13719 0.0
H943 H 0.56761 0.90797 0.13492 0.0
H944 H 0.50089 0.95307 0.17962 0.0
H945 H 0.47328 0.94702 0.22008 0.0
H946 H 0.46842 0.87776 0.29245 0.0
H947 H 0.48886 0.83611 0.2971 0.0
H948 H 0.54645 0.78588 0.24601 0.0
H949 H 0.57057 0.79067 0.20332 0.0
H950 H 0.58333 0.87483 0.28003 0.0
H951 H 0.57933 0.93943 0.23615 0.0
H952 H 0.46382 0.80683 0.2002 0.0
H953 H 0.48232 0.85709 0.14051 0.0
C954 C 0.2102 0.56676 0.17019 0.0
C955 C 0.1992 0.57984 0.15268 0.0
C956 C 0.17511 0.5761 0.15761 0.0
C957 C 0.17276 0.56107 0.17781 0.0
N958 N 0.19381 0.55503 0.18583 0.0
Co959 Co 0.1983 0.53407 0.21473 0.0
N960 N 0.1655 0.52013 0.21527 0.0
C961 C 0.14747 0.53034 0.20434 0.0
C962 C 0.12592 0.51897 0.21009 0.0
C963 C 0.13047 0.50059 0.22586 0.0
C964 C 0.15483 0.50143 0.22866 0.0
N965 N 0.20292 0.51295 0.24351 0.0
C966 C 0.19066 0.49295 0.25234 0.0
C967 C 0.2024 0.48166 0.27049 0.0
C968 C 0.22142 0.49597 0.27427 0.0
C969 C 0.22084 0.51479 0.2578 0.0
N970 N 0.23088 0.54843 0.21421 0.0
C971 C 0.24495 0.54736 0.23242 0.0
C972 C 0.26683 0.55824 0.22661 0.0
C973 C 0.26647 0.56679 0.20333 0.0
C974 C 0.24421 0.56081 0.19624 0.0
N975 N 0.18583 0.55857 0.23507 0.0
C976 C 0.16025 0.5933 0.25853 0.0
C977 C 0.15697 0.56937 0.26614 0.0
C978 C 0.16998 0.55231 0.25425 0.0
C979 C 0.17822 0.59979 0.2405 0.0
C980 C 0.19098 0.58205 0.22904 0.0
N981 N 0.21065 0.50963 0.19442 0.0
C982 C 0.24086 0.48143 0.18488 0.0
C983 C 0.23049 0.47668 0.16385 0.0
C984 C 0.20936 0.48812 0.15893 0.0
C985 C 0.19961 0.5044 0.17459 0.0
C986 C 0.23087 0.49812 0.19969 0.0
H987 H 0.18349 0.51319 0.17036 0.0
H988 H 0.23983 0.50195 0.21521 0.0
H989 H 0.16613 0.534 0.25981 0.0
H990 H 0.20404 0.58729 0.21445 0.0
C991 C 0.15173 0.54958 0.18761 0.0
C992 C 0.23594 0.56774 0.17273 0.0
C993 C 0.16652 0.48598 0.24619 0.0
C994 C 0.23918 0.53176 0.25236 0.0
H995 H 0.20766 0.59118 0.13809 0.0
H996 H 0.16106 0.58297 0.1473 0.0
H997 H 0.10886 0.52361 0.20374 0.0
H998 H 0.11694 0.4887 0.2349 0.0
H999 H 0.19765 0.46497 0.2803 0.0
H1000 H 0.23471 0.49246 0.28679 0.0
H1001 H 0.28179 0.55867 0.23749 0.0
H1002 H 0.28111 0.57601 0.19276 0.0
H1003 H 0.14357 0.56377 0.28045 0.0
H1004 H 0.18137 0.61822 0.23436 0.0
H1005 H 0.25685 0.47259 0.18978 0.0
H1006 H 0.20079 0.48511 0.1428 0.0
C1007 C 0.48903 0.1973 0.23464 0.0
C1008 C 0.48038 0.20645 0.25601 0.0
C1009 C 0.49082 0.22839 0.25659 0.0
C1010 C 0.50529 0.2313 0.23572 0.0
N1011 N 0.50433 0.21284 0.22152 0.0
Co1012 Co 0.5247 0.20855 0.19101 0.0
N1013 N 0.54241 0.23936 0.19345 0.0
C1014 C 0.53758 0.25552 0.20996 0.0
C1015 C 0.55158 0.27571 0.20638 0.0
C1016 C 0.56616 0.27236 0.18627 0.0
C1017 C 0.56037 0.25008 0.17882 0.0
N1018 N 0.54584 0.2036 0.16121 0.0
C1019 C 0.56432 0.21701 0.15024 0.0
C1020 C 0.57487 0.20628 0.13049 0.0
C1021 C 0.56237 0.18563 0.12865 0.0
C1022 C 0.54514 0.18476 0.14745 0.0
N1023 N 0.50635 0.17827 0.18811 0.0
C1024 C 0.5084 0.16397 0.16961 0.0
C1025 C 0.49376 0.14417 0.17286 0.0
C1026 C 0.48192 0.14574 0.19493 0.0
C1027 C 0.49018 0.16642 0.20394 0.0
N1028 N 0.50129 0.22628 0.17155 0.0
C1029 C 0.46918 0.25263 0.14369 0.0
C1030 C 0.48192 0.23349 0.13458 0.0
C1031 C 0.49757 0.22067 0.14864 0.0
C1032 C 0.47301 0.25821 0.16707 0.0
C1033 C 0.48882 0.24503 0.18045 0.0
N1034 N 0.54793 0.19097 0.21037 0.0
C1035 C 0.5688 0.15481 0.22081 0.0
C1036 C 0.57916 0.16543 0.23946 0.0
C1037 C 0.57363 0.18917 0.24308 0.0
C1038 C 0.558 0.20138 0.22868 0.0
C1039 C 0.55366 0.16784 0.20643 0.0
H1040 H 0.55416 0.21925 0.23282 0.0
H1041 H 0.54673 0.15882 0.1922 0.0
H1042 H 0.50644 0.20626 0.14048 0.0
H1043 H 0.49067 0.25056 0.19798 0.0
C1044 C 0.52066 0.25069 0.22932 0.0
C1045 C 0.48321 0.17334 0.22811 0.0
C1046 C 0.57227 0.24009 0.1576 0.0
C1047 C 0.52707 0.16741 0.15171 0.0
H1048 H 0.46828 0.19793 0.27002 0.0
H1049 H 0.48868 0.24046 0.27087 0.0
H1050 H 0.55128 0.291 0.21717 0.0
H1051 H 0.57948 0.28498 0.178 0.0
H1052 H 0.58989 0.21279 0.11847 0.0
H1053 H 0.56527 0.17295 0.11502 0.0
H1054 H 0.49285 0.12961 0.16122 0.0
H1055 H 0.46933 0.13271 0.20381 0.0
H1056 H 0.47957 0.22804 0.11676 0.0
H1057 H 0.46406 0.273 0.17512 0.0
H1058 H 0.5727 0.1366 0.21701 0.0
H1059 H 0.58102 0.19824 0.25733 0.0
C1060 C 0.84987 0.88912 0.49959 0.0
C1061 C 0.86064 0.90943 0.48807 0.0
C1062 C 0.8835 0.91021 0.49444 0.0
C1063 C 0.88544 0.89037 0.50938 0.0
N1064 N 0.86525 0.87685 0.5129 0.0
Co1065 Co 0.86063 0.84644 0.53357 0.0
N1066 N 0.89367 0.84865 0.54457 0.0
C1067 C 0.91007 0.86614 0.53802 0.0
C1068 C 0.93134 0.86291 0.5478 0.0
C1069 C 0.9284 0.84221 0.5616 0.0
C1070 C 0.90527 0.83399 0.5597 0.0
N1071 N 0.8562 0.81573 0.55379 0.0
C1072 C 0.87111 0.80412 0.56824 0.0
C1073 C 0.86027 0.78361 0.57935 0.0
C1074 C 0.8381 0.78192 0.57138 0.0
C1075 C 0.83645 0.80149 0.55606 0.0
N1076 N 0.82732 0.84462 0.52307 0.0
C1077 C 0.81075 0.82737 0.52982 0.0
C1078 C 0.78923 0.83114 0.5206 0.0
C1079 C 0.79209 0.85221 0.50733 0.0
C1080 C 0.81529 0.86012 0.50918 0.0
N1081 N 0.87278 0.82836 0.50605 0.0
C1082 C 0.88989 0.80259 0.46705 0.0
C1083 C 0.86834 0.7962 0.48011 0.0
C1084 C 0.8602 0.80922 0.49937 0.0
C1085 C 0.90271 0.82214 0.47372 0.0
C1086 C 0.8939 0.83467 0.49311 0.0
N1087 N 0.84834 0.86454 0.56087 0.0
C1088 C 0.81764 0.8702 0.5925 0.0
C1089 C 0.82598 0.89331 0.59468 0.0
C1090 C 0.84666 0.90125 0.58091 0.0
C1091 C 0.85771 0.8865 0.56443 0.0
C1092 C 0.82903 0.85621 0.57562 0.0
H1093 H 0.87337 0.89349 0.5543 0.0
H1094 H 0.82133 0.83907 0.5743 0.0
H1095 H 0.84374 0.80331 0.50859 0.0
H1096 H 0.90454 0.84934 0.49723 0.0
C1097 C 0.90539 0.88478 0.52167 0.0
C1098 C 0.82482 0.88267 0.49769 0.0
C1099 C 0.89539 0.812 0.57244 0.0
C1100 C 0.81598 0.80786 0.54486 0.0
H1101 H 0.85266 0.92252 0.47653 0.0
H1102 H 0.89694 0.92389 0.48922 0.0
H1103 H 0.94726 0.87409 0.54491 0.0
H1104 H 0.94194 0.83402 0.57169 0.0
H1105 H 0.86739 0.77124 0.59221 0.0
H1106 H 0.82457 0.76832 0.57659 0.0
H1107 H 0.7733 0.81998 0.52336 0.0
H1108 H 0.77858 0.86088 0.49754 0.0
H1109 H 0.85796 0.78093 0.47581 0.0
H1110 H 0.91942 0.82789 0.46394 0.0
H1111 H 0.80165 0.86333 0.60288 0.0
H1112 H 0.85395 0.91893 0.58246 0.0
C1113 C 0.17198 0.78767 0.5602 0.0
C1114 C 0.18025 0.76524 0.56637 0.0
C1115 C 0.20203 0.76335 0.5541 0.0
C1116 C 0.20575 0.78449 0.54098 0.0
N1117 N 0.18777 0.79994 0.54425 0.0
Co1118 Co 0.18513 0.83182 0.52689 0.0
N1119 N 0.2173 0.82896 0.50891 0.0
C1120 C 0.23233 0.81058 0.51073 0.0
C1121 C 0.25383 0.8143 0.49757 0.0
C1122 C 0.25271 0.83661 0.48704 0.0
C1123 C 0.23042 0.84517 0.49431 0.0
N1124 N 0.18217 0.86335 0.50899 0.0
C1125 C 0.19836 0.87599 0.49384 0.0
C1126 C 0.18911 0.89722 0.48541 0.0
C1127 C 0.16645 0.89831 0.49603 0.0
C1128 C 0.16311 0.8777 0.51018 0.0
N1129 N 0.1534 0.83517 0.5455 0.0
C1130 C 0.13885 0.85404 0.54431 0.0
C1131 C 0.11869 0.85168 0.55979 0.0
C1132 C 0.12033 0.82997 0.57149 0.0
C1133 C 0.14139 0.82014 0.56225 0.0
N1134 N 0.20071 0.84751 0.55216 0.0
C1135 C 0.22354 0.87116 0.58683 0.0
C1136 C 0.20429 0.88125 0.57615 0.0
C1137 C 0.19317 0.86918 0.55918 0.0
C1138 C 0.2311 0.84886 0.57998 0.0
C1139 C 0.21951 0.83743 0.56268 0.0
N1140 N 0.16937 0.81608 0.50156 0.0
C1141 C 0.13488 0.81125 0.47937 0.0
C1142 C 0.14486 0.79171 0.46843 0.0
C1143 C 0.16766 0.78496 0.47387 0.0
C1144 C 0.17951 0.79731 0.49035 0.0
C1145 C 0.14739 0.82315 0.49551 0.0
H1146 H 0.1967 0.79112 0.49389 0.0
H1147 H 0.13858 0.83774 0.50316 0.0
H1148 H 0.17869 0.87795 0.55177 0.0
H1149 H 0.22614 0.82056 0.55797 0.0
C1150 C 0.226 0.7904 0.52558 0.0
C1151 C 0.14876 0.7962 0.56945 0.0
C1152 C 0.22299 0.86922 0.48792 0.0
C1153 C 0.14381 0.87292 0.52725 0.0
H1154 H 0.17141 0.75145 0.57824 0.0
H1155 H 0.21365 0.74824 0.55449 0.0
H1156 H 0.26878 0.80245 0.49631 0.0
H1157 H 0.26694 0.84571 0.47576 0.0
H1158 H 0.19813 0.91085 0.47341 0.0
H1159 H 0.15431 0.91292 0.49452 0.0
H1160 H 0.10427 0.86407 0.56196 0.0
H1161 H 0.10729 0.82212 0.58505 0.0
H1162 H 0.19805 0.8987 0.58041 0.0
H1163 H 0.24584 0.84023 0.5879 0.0
H1164 H 0.11713 0.81707 0.47607 0.0
H1165 H 0.17635 0.77017 0.46554 0.0
C1166 C 0.15924 0.19172 0.56236 0.0
C1167 C 0.13708 0.18178 0.57039 0.0
C1168 C 0.13528 0.16067 0.55988 0.0
C1169 C 0.15642 0.15868 0.5462 0.0
N1170 N 0.17179 0.17717 0.54741 0.0
Co1171 Co 0.20471 0.18066 0.53004 0.0
N1172 N 0.20114 0.15055 0.51283 0.0
C1173 C 0.18149 0.13624 0.51468 0.0
C1174 C 0.18358 0.11721 0.50059 0.0
C1175 C 0.2059 0.11944 0.48898 0.0
C1176 C 0.21639 0.13969 0.49676 0.0
N1177 N 0.23779 0.18389 0.51312 0.0
C1178 C 0.25001 0.16975 0.49755 0.0
C1179 C 0.27309 0.17842 0.49148 0.0
C1180 C 0.27548 0.19875 0.50317 0.0
C1181 C 0.25393 0.20131 0.51594 0.0
N1182 N 0.20799 0.21111 0.5467 0.0
C1183 C 0.22727 0.22594 0.54407 0.0
C1184 C 0.22419 0.24637 0.5559 0.0
C1185 C 0.20151 0.24468 0.56664 0.0
C1186 C 0.19195 0.22306 0.56102 0.0
N1187 N 0.21816 0.16228 0.55681 0.0
C1188 C 0.24174 0.13264 0.58895 0.0
C1189 C 0.2502 0.15573 0.58243 0.0
C1190 C 0.23808 0.17022 0.56665 0.0
C1191 C 0.22029 0.12538 0.58055 0.0
C1192 C 0.20889 0.14035 0.56471 0.0
N1193 N 0.19146 0.19892 0.50327 0.0
C1194 C 0.19366 0.23237 0.47422 0.0
C1195 C 0.17073 0.22712 0.46821 0.0
C1196 C 0.15869 0.2071 0.47919 0.0
C1197 C 0.16945 0.19314 0.49629 0.0
C1198 C 0.20358 0.21818 0.49182 0.0
H1199 H 0.15945 0.17799 0.50387 0.0
H1200 H 0.22087 0.22343 0.49615 0.0
H1201 H 0.24555 0.18751 0.56217 0.0
H1202 H 0.19294 0.13348 0.55866 0.0
C1203 C 0.16168 0.14069 0.5305 0.0
C1204 C 0.16738 0.21507 0.56946 0.0
C1205 C 0.24078 0.14789 0.48809 0.0
C1206 C 0.2479 0.22033 0.53001 0.0
H1207 H 0.12345 0.18911 0.58242 0.0
H1208 H 0.12011 0.14846 0.56159 0.0
H1209 H 0.17045 0.10327 0.49904 0.0
H1210 H 0.21355 0.10745 0.47621 0.0
H1211 H 0.28688 0.17083 0.47983 0.0
H1212 H 0.29107 0.21034 0.50239 0.0
H1213 H 0.23682 0.26099 0.55632 0.0
H1214 H 0.1929 0.2581 0.57713 0.0
H1215 H 0.26661 0.16234 0.58865 0.0
H1216 H 0.2125 0.10798 0.58578 0.0
H1217 H 0.20352 0.2478 0.46599 0.0
H1218 H 0.14095 0.20233 0.47467 0.0
C1219 C 0.81149 0.16768 0.49063 0.0
C1220 C 0.79028 0.1784 0.48557 0.0
C1221 C 0.78918 0.19899 0.49719 0.0
C1222 C 0.80951 0.19966 0.50893 0.0
N1223 N 0.82375 0.18088 0.50537 0.0
Co1224 Co 0.8534 0.17395 0.52197 0.0
N1225 N 0.85196 0.20464 0.53869 0.0
C1226 C 0.83547 0.22159 0.53628 0.0
C1227 C 0.83946 0.24134 0.5486 0.0
C1228 C 0.85998 0.23695 0.55929 0.0
C1229 C 0.86735 0.21464 0.55293 0.0
N1230 N 0.88236 0.16646 0.53949 0.0
C1231 C 0.89428 0.17935 0.55473 0.0
C1232 C 0.91341 0.16696 0.56285 0.0
C1233 C 0.91368 0.14568 0.55239 0.0
C1234 C 0.89476 0.14618 0.53852 0.0
N1235 N 0.85566 0.14394 0.50415 0.0
C1236 C 0.87309 0.1278 0.50541 0.0
C1237 C 0.87063 0.10925 0.49105 0.0
C1238 C 0.85035 0.1137 0.47997 0.0
C1239 C 0.8413 0.13467 0.48844 0.0
N1240 N 0.87382 0.19089 0.49552 0.0
C1241 C 0.90618 0.21917 0.4643 0.0
C1242 C 0.91255 0.19684 0.47361 0.0
C1243 C 0.89622 0.18306 0.48891 0.0
C1244 C 0.88269 0.22628 0.46957 0.0
C1245 C 0.86688 0.2119 0.48498 0.0
N1246 N 0.83298 0.15708 0.54873 0.0
C1247 C 0.81914 0.12058 0.57093 0.0
C1248 C 0.80176 0.13259 0.58461 0.0
C1249 C 0.801 0.15729 0.58044 0.0
C1250 C 0.81637 0.16898 0.5625 0.0
C1251 C 0.83461 0.13305 0.55359 0.0
H1252 H 0.81425 0.18767 0.5601 0.0
H1253 H 0.84751 0.12267 0.54417 0.0
H1254 H 0.90235 0.16643 0.49574 0.0
H1255 H 0.84936 0.2185 0.48874 0.0
C1256 C 0.81602 0.21793 0.52297 0.0
C1257 C 0.81878 0.14473 0.48135 0.0
C1258 C 0.88884 0.20365 0.56129 0.0
C1259 C 0.89 0.12934 0.52216 0.0
H1260 H 0.77675 0.17191 0.47487 0.0
H1261 H 0.7751 0.21185 0.49723 0.0
H1262 H 0.82872 0.25705 0.54969 0.0
H1263 H 0.86853 0.2488 0.57057 0.0
H1264 H 0.92621 0.17295 0.57464 0.0
H1265 H 0.9267 0.13187 0.55398 0.0
H1266 H 0.88189 0.09394 0.48933 0.0
H1267 H 0.84288 0.10251 0.46738 0.0
H1268 H 0.93026 0.19011 0.46945 0.0
H1269 H 0.87675 0.24331 0.46268 0.0
H1270 H 0.82063 0.10148 0.57307 0.0
H1271 H 0.78854 0.1678 0.5909 0.0
H1272 H 0.25853 0.10218 0.48982 0.0
H1273 H 0.25675 0.16509 0.44288 0.0
H1274 H 0.28208 0.14619 0.41205 0.0
H1275 H 0.30583 0.11169 0.39828 0.0
H1276 H 0.30672 0.04849 0.44498 0.0
H1277 H 0.28094 0.06721 0.47552 0.0
C1278 C 0.26354 0.11168 0.47277 0.0
C1279 C 0.25562 0.13521 0.46887 0.0
C1280 C 0.27818 0.10054 0.4549 0.0
C1281 C 0.26252 0.14711 0.44656 0.0
C1282 C 0.27707 0.13625 0.42885 0.0
C1283 C 0.30029 0.102 0.41511 0.0
C1284 C 0.30855 0.07865 0.41925 0.0
C1285 C 0.28519 0.11297 0.43277 0.0
C1286 C 0.30096 0.06647 0.44125 0.0
C1287 C 0.28612 0.07721 0.45879 0.0
H1288 H 0.994 0.28256 0.41752 0.0
H1289 H 0.94207 0.30476 0.36929 0.0
H1290 H 0.91186 0.27816 0.39142 0.0
H1291 H 0.90045 0.24832 0.42446 0.0
H1292 H 0.9527 0.22651 0.47285 0.0
H1293 H 0.98254 0.25288 0.45065 0.0
C1294 C 0.97602 0.28151 0.412 0.0
C1295 C 0.97007 0.29549 0.39197 0.0
C1296 C 0.95887 0.26614 0.42475 0.0
C1297 C 0.94686 0.29408 0.38475 0.0
C1298 C 0.92966 0.2789 0.39737 0.0
C1299 C 0.91831 0.24943 0.43023 0.0
C1300 C 0.92426 0.23524 0.45026 0.0
C1301 C 0.93546 0.26481 0.41742 0.0
C1302 C 0.94765 0.23681 0.45728 0.0
C1303 C 0.96474 0.25206 0.44469 0.0
H1304 H 0.81428 0.88477 0.45088 0.0
H1305 H 0.79982 0.91894 0.51689 0.0
H1306 H 0.77447 0.94771 0.49712 0.0
H1307 H 0.75695 0.96374 0.46067 0.0
H1308 H 0.77129 0.92905 0.39465 0.0
H1309 H 0.7961 0.90037 0.41456 0.0
C1310 C 0.80546 0.89849 0.46088 0.0
C1311 C 0.80884 0.8997 0.48535 0.0
C1312 C 0.79095 0.91507 0.4493 0.0
C1313 C 0.79742 0.91762 0.49809 0.0
C1314 C 0.78295 0.93409 0.48675 0.0
C1315 C 0.76527 0.9498 0.45062 0.0
C1316 C 0.76215 0.94894 0.42594 0.0
C1317 C 0.77959 0.93307 0.4623 0.0
C1318 C 0.77352 0.9307 0.41342 0.0
C1319 C 0.78767 0.91407 0.42489 0.0
H1320 H 0.11567 0.80923 0.43572 0.0
H1321 H 0.1428 0.74352 0.46492 0.0
H1322 H 0.11781 0.72104 0.44047 0.0
H1323 H 0.08689 0.71998 0.4123 0.0
H1324 H 0.05744 0.78564 0.38577 0.0
H1325 H 0.08465 0.80819 0.40785 0.0
C1326 C 0.11603 0.78998 0.43689 0.0
C1327 C 0.13104 0.77812 0.45224 0.0
C1328 C 0.10112 0.77715 0.42334 0.0
C1329 C 0.13167 0.75317 0.45305 0.0
C1330 C 0.1172 0.74027 0.43924 0.0
C1331 C 0.08626 0.73922 0.41151 0.0
C1332 C 0.07008 0.75108 0.39745 0.0
C1333 C 0.10162 0.75207 0.4246 0.0
C1334 C 0.06989 0.77605 0.39621 0.0
C1335 C 0.08534 0.78897 0.40894 0.0
H1336 H 0.27136 0.87402 0.59122 0.0
H1337 H 0.20358 0.89828 0.62164 0.0
H1338 H 0.22399 0.9242 0.64685 0.0
H1339 H 0.26107 0.94157 0.65871 0.0
H1340 H 0.3288 0.9161 0.63017 0.0
H1341 H 0.30843 0.88856 0.60607 0.0
C1342 C 0.26102 0.88457 0.60373 0.0
C1343 C 0.23598 0.88447 0.60425 0.0
C1344 C 0.27286 0.89924 0.61842 0.0
C1345 C 0.2229 0.89844 0.62044 0.0
C1346 C 0.23453 0.91319 0.63496 0.0
C1347 C 0.27126 0.92985 0.64727 0.0
C1348 C 0.29624 0.93085 0.64587 0.0
C1349 C 0.25947 0.91405 0.63376 0.0
C1350 C 0.30948 0.91549 0.63137 0.0
C1351 C 0.29786 0.89986 0.6176 0.0
H1352 H 0.11692 0.2761 0.652 0.0
H1353 H 0.06255 0.28152 0.60257 0.0
H1354 H 0.0863 0.25755 0.57473 0.0
H1355 H 0.12307 0.23492 0.56385 0.0
H1356 H 0.17643 0.22781 0.61423 0.0
H1357 H 0.15282 0.25203 0.64192 0.0
C1358 C 0.11015 0.27186 0.63523 0.0
C1359 C 0.08774 0.28079 0.62958 0.0
C1360 C 0.12391 0.25763 0.61927 0.0
C1361 C 0.07961 0.27512 0.60753 0.0
C1362 C 0.09324 0.26131 0.59154 0.0
C1363 C 0.12948 0.23857 0.58095 0.0
C1364 C 0.15182 0.22955 0.58668 0.0
C1365 C 0.11549 0.25243 0.59711 0.0
C1366 C 0.15958 0.23458 0.60907 0.0
C1367 C 0.14599 0.24847 0.625 0.0
H1368 H 0.80789 0.09115 0.61188 0.0
H1369 H 0.75534 0.14416 0.59768 0.0
H1370 H 0.72659 0.12335 0.62643 0.0
H1371 H 0.71553 0.08949 0.65488 0.0
H1372 H 0.76583 0.03392 0.66561 0.0
H1373 H 0.79621 0.05625 0.63894 0.0
C1374 C 0.7901 0.0981 0.61471 0.0
C1375 C 0.78418 0.11953 0.6025 0.0
C1376 C 0.77311 0.08548 0.63069 0.0
C1377 C 0.76096 0.1282 0.60707 0.0
C1378 C 0.74426 0.11613 0.62341 0.0
C1379 C 0.73308 0.08217 0.65109 0.0
C1380 C 0.73836 0.05989 0.66169 0.0
C1381 C 0.75008 0.09471 0.6352 0.0
C1382 C 0.76134 0.05091 0.65733 0.0
C1383 C 0.77864 0.06365 0.6421 0.0
H1384 H 0.95983 0.76942 0.65217 0.0
H1385 H 0.95177 0.70654 0.61284 0.0
H1386 H 0.92819 0.72844 0.58525 0.0
H1387 H 0.90979 0.76565 0.5713 0.0
H1388 H 0.91349 0.82718 0.61283 0.0
H1389 H 0.93835 0.80568 0.6403 0.0
C1390 C 0.95274 0.76025 0.63783 0.0
C1391 C 0.95851 0.73617 0.63468 0.0
C1392 C 0.93822 0.77284 0.62214 0.0
C1393 C 0.94883 0.72512 0.61562 0.0
C1394 C 0.93493 0.73762 0.59978 0.0
C1395 C 0.91584 0.77427 0.58651 0.0
C1396 C 0.90984 0.79813 0.58982 0.0
C1397 C 0.92963 0.76153 0.60269 0.0
C1398 C 0.91796 0.80895 0.60966 0.0
C1399 C 0.93217 0.7966 0.62544 0.0
H1400 H 0.38643 0.31354 0.10003 0.0
H1401 H 0.43145 0.30722 0.03498 0.0
H1402 H 0.45978 0.2838 0.05697 0.0
H1403 H 0.47211 0.26529 0.09504 0.0
H1404 H 0.42632 0.27114 0.15995 0.0
H1405 H 0.39835 0.29437 0.1379 0.0
C1406 C 0.40242 0.30694 0.0907 0.0
C1407 C 0.40677 0.31214 0.06583 0.0
C1408 C 0.41866 0.29337 0.10354 0.0
C1409 C 0.42766 0.30352 0.05406 0.0
C1410 C 0.44386 0.29009 0.06667 0.0
C1411 C 0.45594 0.27143 0.1044 0.0
C1412 C 0.45173 0.26641 0.12941 0.0
C1413 C 0.43961 0.28486 0.09147 0.0
C1414 C 0.43058 0.27493 0.14096 0.0
C1415 C 0.41435 0.28817 0.12827 0.0
H1416 H 0.81247 0.43926 0.14967 0.0
H1417 H 0.80554 0.50085 0.10199 0.0
H1418 H 0.78141 0.47765 0.07699 0.0
H1419 H 0.76163 0.44012 0.06946 0.0
H1420 H 0.76684 0.37889 0.11839 0.0
H1421 H 0.79246 0.40157 0.14214 0.0
C1422 C 0.80565 0.44743 0.13374 0.0
C1423 C 0.81051 0.47157 0.12753 0.0
C1424 C 0.79151 0.43411 0.11982 0.0
C1425 C 0.80186 0.48222 0.10692 0.0
C1426 C 0.78806 0.469 0.09275 0.0
C1427 C 0.76815 0.43179 0.08546 0.0
C1428 C 0.76223 0.40787 0.09219 0.0
C1429 C 0.78258 0.445 0.09919 0.0
C1430 C 0.7713 0.39721 0.11268 0.0
C1431 C 0.78585 0.41019 0.12634 0.0
H1432 H 0.59636 0.7569 0.10464 0.0
H1433 H 0.66547 0.78938 0.11066 0.0
H1434 H 0.64742 0.8173 0.13777 0.0
H1435 H 0.61199 0.83298 0.16079 0.0
H1436 H 0.5432 0.79985 0.15648 0.0
H1437 H 0.56102 0.77194 0.12849 0.0
C1438 C 0.60764 0.76989 0.11194 0.0
C1439 C 0.63253 0.77079 0.10483 0.0
C1440 C 0.59709 0.78605 0.12817 0.0
C1441 C 0.64634 0.78821 0.11482 0.0
C1442 C 0.636 0.80426 0.1307 0.0
C1443 C 0.6009 0.81972 0.15362 0.0
C1444 C 0.57614 0.81877 0.16067 0.0
C1445 C 0.61139 0.80348 0.13753 0.0
C1446 C 0.5622 0.80117 0.15134 0.0
C1447 C 0.57245 0.78514 0.13529 0.0
H1448 H 0.25809 0.61074 0.17492 0.0
H1449 H 0.24868 0.55456 0.12769 0.0
H1450 H 0.27323 0.57691 0.09548 0.0
H1451 H 0.29712 0.61301 0.08064 0.0
H1452 H 0.30771 0.66813 0.12881 0.0
H1453 H 0.2834 0.64563 0.16088 0.0
C1454 C 0.26183 0.60325 0.15769 0.0
C1455 C 0.25207 0.58085 0.15375 0.0
C1456 C 0.2761 0.6161 0.13943 0.0
C1457 C 0.25635 0.57163 0.13116 0.0
C1458 C 0.27032 0.58442 0.11277 0.0
C1459 C 0.29405 0.61996 0.0982 0.0
C1460 C 0.30371 0.64236 0.10231 0.0
C1461 C 0.28025 0.60673 0.11666 0.0
C1462 C 0.30003 0.65112 0.1252 0.0
C1463 C 0.28619 0.63824 0.14351 0.0
H1464 H 0.42602 0.74133 0.98858 0.0
H1465 H 0.36981 0.73182 0.94233 0.0
H1466 H 0.39118 0.75835 0.91123 0.0
H1467 H 0.42546 0.78539 0.89784 0.0
H1468 H 0.48383 0.79059 0.94232 0.0
H1469 H 0.46211 0.76468 0.97354 0.0
C1470 C 0.41872 0.74466 0.97148 0.0
C1471 C 0.39644 0.73451 0.96765 0.0
C1472 C 0.43145 0.7593 0.95348 0.0
C1473 C 0.38698 0.73935 0.94559 0.0
C1474 C 0.39916 0.75455 0.92787 0.0
C1475 C 0.4336 0.78041 0.91416 0.0
C1476 C 0.45629 0.78978 0.91772 0.0
C1477 C 0.42137 0.76475 0.93167 0.0
C1478 C 0.46639 0.7836 0.93919 0.0
C1479 C 0.454 0.76877 0.95701 0.0
H1480 H 0.29335 0.43284 0.97783 0.0
H1481 H 0.30203 0.37417 0.93237 0.0
H1482 H 0.27671 0.39357 0.90394 0.0
H1483 H 0.25151 0.42725 0.89198 0.0
H1484 H 0.24313 0.4862 0.9371 0.0
H1485 H 0.2685 0.46684 0.96557 0.0
C1486 C 0.28973 0.42439 0.96164 0.0
C1487 C 0.29959 0.40201 0.95727 0.0
C1488 C 0.2751 0.43577 0.94526 0.0
C1489 C 0.29465 0.3913 0.93621 0.0
C1490 C 0.28015 0.40242 0.91993 0.0
C1491 C 0.2555 0.43596 0.90792 0.0
C1492 C 0.24573 0.4584 0.91218 0.0
C1493 C 0.27023 0.42467 0.92422 0.0
C1494 C 0.25059 0.4691 0.93325 0.0
C1495 C 0.26512 0.458 0.94955 0.0
H1496 H 0.61299 0.25759 0.88754 0.0
H1497 H 0.55399 0.25139 0.94187 0.0
H1498 H 0.57666 0.27387 0.96859 0.0
H1499 H 0.61335 0.29501 0.97652 0.0
H1500 H 0.673 0.30002 0.92289 0.0
H1501 H 0.65007 0.27821 0.89579 0.0
C1502 C 0.60514 0.26131 0.9052 0.0
C1503 C 0.58193 0.25297 0.91281 0.0
C1504 C 0.61839 0.27393 0.92053 0.0
C1505 C 0.57193 0.25756 0.93579 0.0
C1506 C 0.58483 0.27044 0.95099 0.0
C1507 C 0.62122 0.29143 0.95883 0.0
C1508 C 0.64469 0.29915 0.95157 0.0
C1509 C 0.60807 0.27867 0.94356 0.0
C1510 C 0.65494 0.29411 0.92881 0.0
C1511 C 0.64183 0.28173 0.91333 0.0
H1512 H 0.77832 0.63858 0.97159 0.0
H1513 H 0.71032 0.61302 0.95221 0.0
H1514 H 0.7305 0.58542 0.92585 0.0
H1515 H 0.76771 0.56774 0.90795 0.0
H1516 H 0.83558 0.59399 0.92696 0.0
H1517 H 0.81535 0.62164 0.95314 0.0
C1518 C 0.76777 0.62718 0.96151 0.0
C1519 C 0.74249 0.62818 0.96442 0.0
C1520 C 0.77961 0.61112 0.94604 0.0
C1521 C 0.72961 0.61272 0.95108 0.0
C1522 C 0.74123 0.59688 0.93569 0.0
C1523 C 0.77817 0.57959 0.91764 0.0
C1524 C 0.80344 0.57822 0.9153 0.0
C1525 C 0.76627 0.59579 0.93298 0.0
C1526 C 0.81627 0.59392 0.92843 0.0
C1527 C 0.80464 0.61002 0.94345 0.0
H1528 H 0.10969 0.41666 0.32517 0.0
H1529 H 0.07502 0.39694 0.26346 0.0
H1530 H 0.10343 0.42195 0.23743 0.0
H1531 H 0.13768 0.45048 0.2324 0.0
H1532 H 0.15992 0.48168 0.29541 0.0
H1533 H 0.13707 0.4515 0.32078 0.0
C1534 C 0.10784 0.41826 0.30611 0.0
C1535 C 0.09035 0.40452 0.29638 0.0
C1536 C 0.12241 0.43469 0.29147 0.0
C1537 C 0.08864 0.40676 0.27149 0.0
C1538 C 0.10478 0.42122 0.25657 0.0
C1539 C 0.13742 0.45079 0.25169 0.0
C1540 C 0.15173 0.46765 0.26179 0.0
C1541 C 0.12174 0.43536 0.26639 0.0
C1542 C 0.15048 0.46808 0.28691 0.0
C1543 C 0.13697 0.45108 0.30154 0.0
H1544 H 0.12583 0.54623 0.80959 0.0
H1545 H 0.17201 0.60393 0.82485 0.0
H1546 H 0.1492 0.63181 0.80089 0.0
H1547 H 0.11617 0.63972 0.77485 0.0
H1548 H 0.06992 0.58145 0.76041 0.0
H1549 H 0.09247 0.5542 0.78456 0.0
C1550 C 0.13076 0.56496 0.8078 0.0
C1551 C 0.15051 0.57302 0.81918 0.0
C1552 C 0.11751 0.58088 0.79397 0.0
C1553 C 0.15684 0.59729 0.81641 0.0
C1554 C 0.14377 0.61323 0.80268 0.0
C1555 C 0.11087 0.62112 0.77713 0.0
C1556 C 0.09133 0.61284 0.76537 0.0
C1557 C 0.12403 0.60527 0.79129 0.0
C1558 C 0.08504 0.58849 0.76863 0.0
C1559 C 0.0979 0.57279 0.78264 0.0
H1560 H 0.41446 0.10002 0.72801 0.0
H1561 H 0.38421 0.06378 0.79375 0.0
H1562 H 0.40574 0.09092 0.81682 0.0
H1563 H 0.43494 0.12364 0.8184 0.0
H1564 H 0.46818 0.157 0.75278 0.0
H1565 H 0.44405 0.13198 0.7295 0.0
C1566 C 0.41273 0.09781 0.74737 0.0
C1567 C 0.39766 0.07981 0.75903 0.0
C1568 C 0.42579 0.11294 0.76056 0.0
C1569 C 0.3953 0.07769 0.7842 0.0
C1570 C 0.40779 0.09308 0.79747 0.0
C1571 C 0.4366 0.12551 0.799 0.0
C1572 C 0.45299 0.14211 0.78716 0.0
C1573 C 0.42322 0.11063 0.78583 0.0
C1574 C 0.45549 0.14429 0.7621 0.0
C1575 C 0.44177 0.13001 0.74886 0.0
H1576 H 0.90123 0.41263 0.77536 0.0
H1577 H 0.95939 0.45898 0.78964 0.0
H1578 H 0.98715 0.43608 0.76491 0.0
H1579 H 0.9957 0.4024 0.73899 0.0
H1580 H 0.93813 0.35552 0.72501 0.0
H1581 H 0.90984 0.3788 0.74934 0.0
C1582 C 0.91994 0.41786 0.77299 0.0
C1583 C 0.92791 0.43771 0.78482 0.0
C1584 C 0.93619 0.40431 0.75862 0.0
C1585 C 0.95246 0.44376 0.78136 0.0
C1586 C 0.96849 0.43065 0.76699 0.0
C1587 C 0.97695 0.39729 0.74128 0.0
C1588 C 0.96917 0.37705 0.73012 0.0
C1589 C 0.96069 0.41079 0.75557 0.0
C1590 C 0.94473 0.37084 0.73338 0.0
C1591 C 0.92849 0.38424 0.74733 0.0
H1592 H 0.64981 0.91928 0.76716 0.0
H1593 H 0.60141 0.97735 0.7612 0.0
H1594 H 0.57042 0.95452 0.78622 0.0
H1595 H 0.55679 0.91772 0.8094 0.0
H1596 H 0.60545 0.8602 0.81735 0.0
H1597 H 0.63661 0.88288 0.79205 0.0
C1598 C 0.63245 0.9268 0.77142 0.0
C1599 C 0.62768 0.94973 0.76211 0.0
C1600 C 0.6148 0.91365 0.78615 0.0
C1601 C 0.60528 0.95956 0.76794 0.0
C1602 C 0.58761 0.94655 0.78227 0.0
C1603 C 0.57429 0.91029 0.80564 0.0
C1604 C 0.5789 0.88737 0.81504 0.0
C1605 C 0.59211 0.92355 0.79139 0.0
C1606 C 0.60158 0.87781 0.81014 0.0
C1607 C 0.61934 0.89077 0.79572 0.0
H1608 H 0.91823 0.65139 0.26765 0.0
H1609 H 0.96713 0.59638 0.286 0.0
H1610 H 0.94811 0.56932 0.26072 0.0
H1611 H 0.91731 0.56114 0.23354 0.0
H1612 H 0.86855 0.61588 0.21497 0.0
H1613 H 0.88793 0.64345 0.23989 0.0
C1614 C 0.92484 0.63355 0.26593 0.0
C1615 C 0.94397 0.62587 0.27877 0.0
C1616 C 0.91389 0.61812 0.25128 0.0
C1617 C 0.95217 0.6026 0.2766 0.0
C1618 C 0.94142 0.58716 0.26204 0.0
C1619 C 0.91115 0.57918 0.23495 0.0
C1620 C 0.89178 0.58676 0.2226 0.0
C1621 C 0.92225 0.5947 0.24936 0.0
C1622 C 0.88358 0.60997 0.22442 0.0
C1623 C 0.8946 0.6256 0.23865 0.0
H1624 H 0.39268 0.94549 0.31032 0.0
H1625 H 0.44106 1.00536 0.3107 0.0
H1626 H 0.47134 0.98476 0.28612 0.0
H1627 H 0.48484 0.94901 0.26498 0.0
H1628 H 0.43552 0.89023 0.26252 0.0
H1629 H 0.4052 0.9109 0.28693 0.0
C1630 C 0.40965 0.95427 0.30462 0.0
C1631 C 0.41427 0.97729 0.31227 0.0
C1632 C 0.42707 0.9423 0.29009 0.0
C1633 C 0.43678 0.98786 0.30507 0.0
C1634 C 0.4542 0.976 0.29099 0.0
C1635 C 0.46738 0.94081 0.26959 0.0
C1636 C 0.46274 0.9178 0.26192 0.0
C1637 C 0.44968 0.95312 0.28344 0.0
C1638 C 0.43987 0.90766 0.26825 0.0
C1639 C 0.42242 0.91957 0.28224 0.0
H1640 H 0.66033 0.12442 0.30231 0.0
H1641 H 0.61054 0.06513 0.3131 0.0
H1642 H 0.58366 0.08548 0.28709 0.0
H1643 H 0.57375 0.12049 0.26135 0.0
H1644 H 0.62249 0.18067 0.25217 0.0
H1645 H 0.65 0.15984 0.27719 0.0
C1646 C 0.64364 0.11593 0.2989 0.0
C1647 C 0.63756 0.09318 0.30981 0.0
C1648 C 0.62791 0.128 0.28412 0.0
C1649 C 0.61567 0.08265 0.30525 0.0
C1650 C 0.60027 0.09428 0.29024 0.0
C1651 C 0.59046 0.12899 0.26472 0.0
C1652 C 0.59595 0.1522 0.25472 0.0
C1653 C 0.60611 0.117 0.27959 0.0
C1654 C 0.61761 0.16296 0.25966 0.0
C1655 C 0.63344 0.15098 0.27396 0.0
H1656 H 0.75676 0.96811 0.63941 0.0
H1657 H 0.75053 0.91475 0.69776 0.0
H1658 H 0.78058 0.89085 0.6765 0.0
H1659 H 0.80682 0.8844 0.64027 0.0
H1660 H 0.81304 0.93816 0.58214 0.0
H1661 H 0.7851 0.96303 0.60455 0.0
C1662 C 0.76209 0.95124 0.64739 0.0
C1663 C 0.75142 0.94286 0.6698 0.0
C1664 C 0.7794 0.93787 0.63522 0.0
C1665 C 0.75859 0.92131 0.68039 0.0
C1666 C 0.77568 0.90773 0.66827 0.0
C1667 C 0.80218 0.90167 0.63268 0.0
C1668 C 0.81184 0.90948 0.60966 0.0
C1669 C 0.78596 0.91571 0.64555 0.0
C1670 C 0.80598 0.93194 0.59998 0.0
C1671 C 0.78985 0.94604 0.61266 0.0
H1672 H 0.15471 0.77737 0.61421 0.0
H1673 H 0.10545 0.77909 0.55955 0.0
H1674 H 0.07755 0.75284 0.58506 0.0
H1675 H 0.06721 0.72934 0.62312 0.0
H1676 H 0.11756 0.7256 0.67673 0.0
H1677 H 0.14516 0.75244 0.65151 0.0
C1678 C 0.13789 0.77185 0.60794 0.0
C1679 C 0.13203 0.78009 0.58513 0.0
C1680 C 0.12222 0.75638 0.62251 0.0
C1681 C 0.1102 0.77297 0.57712 0.0
C1682 C 0.09433 0.75795 0.59166 0.0
C1683 C 0.08429 0.7344 0.62914 0.0
C1684 C 0.09034 0.72584 0.65177 0.0
C1685 C 0.10014 0.74953 0.61439 0.0
C1686 C 0.11253 0.73227 0.65943 0.0
C1687 C 0.12826 0.74755 0.64503 0.0
H1688 H 0.26678 0.14155 0.62735 0.0
H1689 H 0.24844 0.08568 0.58235 0.0
H1690 H 0.27129 0.05755 0.60515 0.0
H1691 H 0.29668 0.04863 0.63772 0.0
H1692 H 0.31616 0.10397 0.68239 0.0
H1693 H 0.29295 0.13267 0.65974 0.0
C1694 C 0.26792 0.12327 0.62244 0.0
C1695 C 0.25568 0.11575 0.60327 0.0
C1696 C 0.2814 0.10715 0.63548 0.0
C1697 C 0.25721 0.0919 0.59731 0.0
C1698 C 0.27045 0.0758 0.61021 0.0
C1699 C 0.2959 0.06706 0.64228 0.0
C1700 C 0.30815 0.07447 0.66133 0.0
C1701 C 0.2826 0.08322 0.62928 0.0
C1702 C 0.30693 0.09815 0.66754 0.0
C1703 C 0.29367 0.11443 0.65466 0.0
H1704 H 0.92196 0.23981 0.55035 0.0
H1705 H 0.88914 0.19607 0.60976 0.0
H1706 H 0.91236 0.21707 0.63741 0.0
H1707 H 0.94168 0.24862 0.6449 0.0
H1708 H 0.97582 0.29091 0.58464 0.0
H1709 H 0.95244 0.27019 0.55765 0.0
C1710 C 0.91999 0.23486 0.56935 0.0
C1711 C 0.90381 0.21633 0.57795 0.0
C1712 C 0.93359 0.247 0.58519 0.0
C1713 C 0.90147 0.21018 0.60266 0.0
C1714 C 0.91477 0.22225 0.61848 0.0
C1715 C 0.94428 0.25326 0.62588 0.0
C1716 C 0.96054 0.27194 0.61729 0.0
C1717 C 0.9309 0.24079 0.61002 0.0
C1718 C 0.96316 0.27736 0.59233 0.0
C1719 C 0.94986 0.26526 0.57663 0.0
H1720 H 0.75704 0.10965 0.39881 0.0
H1721 H 0.74828 0.04723 0.44686 0.0
H1722 H 0.77287 0.06578 0.47488 0.0
H1723 H 0.79685 0.1002 0.48625 0.0
H1724 H 0.80752 0.16165 0.43712 0.0
H1725 H 0.78267 0.14322 0.40924 0.0
C1726 C 0.76076 0.09999 0.41528 0.0
C1727 C 0.75078 0.0769 0.42054 0.0
C1728 C 0.77534 0.11073 0.43128 0.0
C1729 C 0.75562 0.06494 0.44224 0.0
C1730 C 0.76975 0.07558 0.45831 0.0
C1731 C 0.79386 0.10948 0.46936 0.0
C1732 C 0.80402 0.13249 0.46398 0.0
C1733 C 0.77972 0.09852 0.45312 0.0
C1734 C 0.79984 0.14412 0.44193 0.0
C1735 C 0.78562 0.13352 0.42591 0.0
H1736 H 0.91314 0.73861 0.37993 0.0
H1737 H 0.98325 0.74282 0.40488 0.0
H1738 H 0.96858 0.76883 0.43616 0.0
H1739 H 0.9354 0.78882 0.45717 0.0
H1740 H 0.86508 0.78472 0.43217 0.0
H1741 H 0.8801 0.75997 0.40017 0.0
C1742 C 0.92508 0.74552 0.39216 0.0
C1743 C 0.94909 0.73922 0.39034 0.0
C1744 C 0.91648 0.76021 0.41006 0.0
C1745 C 0.96467 0.74779 0.40617 0.0
C1746 C 0.9563 0.76252 0.42397 0.0
C1747 C 0.92345 0.78282 0.44449 0.0
C1748 C 0.89919 0.78854 0.44701 0.0
C1749 C 0.93219 0.76868 0.42618 0.0
C1750 C 0.88379 0.78028 0.43074 0.0
C1751 C 0.89237 0.76625 0.41239 0.0
H1752 H 0.29612 0.95381 0.45711 0.0
H1753 H 0.29789 0.92043 0.38978 0.0
H1754 H 0.27019 0.88942 0.40778 0.0
H1755 H 0.24401 0.87246 0.44238 0.0
H1756 H 0.24134 0.9065 0.50912 0.0
H1757 H 0.27031 0.9369 0.49153 0.0
C1758 C 0.29037 0.93987 0.44627 0.0
C1759 C 0.29918 0.93961 0.42204 0.0
C1760 C 0.27404 0.92229 0.45661 0.0
C1761 C 0.29178 0.92102 0.40852 0.0
C1762 C 0.27571 0.90334 0.41875 0.0
C1763 C 0.24993 0.88653 0.45297 0.0
C1764 C 0.24077 0.88735 0.47695 0.0
C1765 C 0.26657 0.9039 0.44271 0.0
C1766 C 0.2483 0.90564 0.49062 0.0
C1767 C 0.26484 0.92294 0.48058 0.0
H1768 H 0.12918 0.24897 0.47723 0.0
H1769 H 0.18605 0.2409 0.42215 0.0
H1770 H 0.16532 0.26647 0.39411 0.0
H1771 H 0.13037 0.29031 0.38528 0.0
H1772 H 0.07449 0.2995 0.4412 0.0
H1773 H 0.09551 0.2744 0.46912 0.0
C1774 C 0.13694 0.25286 0.45905 0.0
C1775 C 0.15883 0.24303 0.4515 0.0
C1776 C 0.12515 0.26776 0.44334 0.0
C1777 C 0.16911 0.24836 0.42815 0.0
C1778 C 0.15727 0.26289 0.4122 0.0
C1779 C 0.12294 0.28681 0.40361 0.0
C1780 C 0.10101 0.2966 0.41128 0.0
C1781 C 0.13521 0.27256 0.41957 0.0
C1782 C 0.0915 0.29224 0.43507 0.0
C1783 C 0.10341 0.27783 0.45095 0.0
H1784 H 0.65087 0.73215 0.94225 0.0
H1785 H 0.61452 0.74843 0.00969 0.0
H1786 H 0.58495 0.7712 0.98887 0.0
H1787 H 0.56953 0.7861 0.95156 0.0
H1788 H 0.60683 0.7713 0.88388 0.0
H1789 H 0.63581 0.74799 0.90466 0.0
C1790 C 0.63651 0.74089 0.95222 0.0
C1791 C 0.63474 0.73898 0.97728 0.0
C1792 C 0.61976 0.75398 0.94014 0.0
C1793 C 0.61607 0.74996 0.99031 0.0
C1794 C 0.59925 0.76288 0.97844 0.0
C1795 C 0.58415 0.77803 0.94133 0.0
C1796 C 0.586 0.78048 0.9162 0.0
C1797 C 0.60095 0.76502 0.95337 0.0
C1798 C 0.60479 0.76944 0.90323 0.0
C1799 C 0.62147 0.75625 0.91509 0.0
H1800 H 0.26541 0.63611 0.98275 0.0
H1801 H 0.33492 0.61493 0.95388 0.0
H1802 H 0.3164 0.58845 0.92786 0.0
H1803 H 0.28049 0.5705 0.91322 0.0
H1804 H 0.21099 0.59344 0.94025 0.0
H1805 H 0.22948 0.61962 0.96661 0.0
C1806 C 0.27663 0.62596 0.97063 0.0
C1807 C 0.30177 0.62763 0.97085 0.0
C1808 C 0.26579 0.61076 0.95521 0.0
C1809 C 0.31563 0.61388 0.9549 0.0
C1810 C 0.305 0.59874 0.93971 0.0
C1811 C 0.26926 0.58138 0.92461 0.0
C1812 C 0.24412 0.57946 0.92458 0.0
C1813 C 0.28008 0.59689 0.93973 0.0
C1814 C 0.23025 0.59378 0.93996 0.0
C1815 C 0.24087 0.60906 0.95505 0.0
H1816 H 0.43748 0.30396 0.95225 0.0
H1817 H 0.37405 0.28734 0.91787 0.0
H1818 H 0.39682 0.26091 0.89194 0.0
H1819 H 0.43486 0.24253 0.87921 0.0
H1820 H 0.49815 0.25933 0.91338 0.0
H1821 H 0.47543 0.2861 0.93926 0.0
C1822 C 0.42873 0.2948 0.93885 0.0
C1823 C 0.4042 0.29764 0.93682 0.0
C1824 C 0.44189 0.27977 0.92408 0.0
C1825 C 0.39291 0.28527 0.9198 0.0
C1826 C 0.40591 0.27027 0.90495 0.0
C1827 C 0.44351 0.25222 0.89232 0.0
C1828 C 0.4679 0.24939 0.8946 0.0
C1829 C 0.43037 0.26738 0.90698 0.0
C1830 C 0.47929 0.2616 0.91153 0.0
C1831 C 0.46635 0.27678 0.92622 0.0
H1832 H 0.75983 0.3792 0.93603 0.0
H1833 H 0.75647 0.42879 0.99161 0.0
H1834 H 0.78369 0.45622 0.9667 0.0
H1835 H 0.80811 0.46629 0.9287 0.0
H1836 H 0.81365 0.41551 0.87427 0.0
H1837 H 0.78621 0.38819 0.89906 0.0
C1838 C 0.76531 0.39592 0.94269 0.0
C1839 C 0.75626 0.40202 0.96558 0.0
C1840 C 0.78132 0.41134 0.92845 0.0
C1841 C 0.76325 0.4238 0.97401 0.0
C1842 C 0.7788 0.43943 0.9598 0.0
C1843 C 0.80335 0.44916 0.92242 0.0
C1844 C 0.81256 0.44296 0.89963 0.0
C1845 C 0.7879 0.43343 0.93696 0.0
C1846 C 0.8065 0.42069 0.89166 0.0
C1847 C 0.79085 0.40511 0.90583 0.0
H1848 H 0.6635 0.29919 0.1122 0.0
H1849 H 0.62052 0.30582 0.0524 0.0
H1850 H 0.58859 0.28176 0.07491 0.0
H1851 H 0.57259 0.25934 0.11206 0.0
H1852 H 0.61613 0.25135 0.17131 0.0
H1853 H 0.6482 0.27521 0.14871 0.0
C1854 C 0.6472 0.2951 0.10411 0.0
C1855 C 0.64431 0.3041 0.08069 0.0
C1856 C 0.62906 0.28105 0.1171 0.0
C1857 C 0.62307 0.29898 0.0704 0.0
C1858 C 0.60486 0.28525 0.08325 0.0
C1859 C 0.58921 0.26273 0.11986 0.0
C1860 C 0.59208 0.25373 0.14327 0.0
C1861 C 0.6076 0.27626 0.10665 0.0
C1862 C 0.6136 0.25821 0.15331 0.0
C1863 C 0.63189 0.27183 0.14041 0.0
H1864 H 0.78308 0.62253 0.15053 0.0
H1865 H 0.7965 0.57994 0.08963 0.0
H1866 H 0.77117 0.60543 0.06647 0.0
H1867 H 0.74444 0.6393 0.06381 0.0
H1868 H 0.73034 0.68169 0.12447 0.0
H1869 H 0.75663 0.65678 0.14768 0.0
C1870 C 0.78033 0.61881 0.13223 0.0
C1871 C 0.79164 0.59946 0.12176 0.0
C1872 C 0.76568 0.63348 0.11906 0.0
C1873 C 0.7882 0.59494 0.09795 0.0
C1874 C 0.77364 0.60941 0.08475 0.0
C1875 C 0.74736 0.64302 0.08208 0.0
C1876 C 0.73583 0.66207 0.09263 0.0
C1877 C 0.76227 0.62865 0.09513 0.0
C1878 C 0.73934 0.66701 0.11622 0.0
C1879 C 0.75423 0.6528 0.12939 0.0
H1880 H 0.40562 0.78754 0.09154 0.0
H1881 H 0.41666 0.72237 0.13275 0.0
H1882 H 0.44054 0.74393 0.15914 0.0
H1883 H 0.45941 0.78122 0.17007 0.0
H1884 H 0.44583 0.84681 0.13028 0.0
H1885 H 0.42263 0.82514 0.10386 0.0
C1886 C 0.41328 0.778 0.10625 0.0
C1887 C 0.40922 0.7532 0.10996 0.0
C1888 C 0.4269 0.79063 0.12166 0.0
C1889 C 0.41916 0.74139 0.12943 0.0
C1890 C 0.433 0.75375 0.14453 0.0
C1891 C 0.45118 0.791 0.1559 0.0
C1892 C 0.45508 0.81592 0.15235 0.0
C1893 C 0.43707 0.77841 0.14084 0.0
C1894 C 0.44413 0.82773 0.13342 0.0
C1895 C 0.43049 0.81531 0.11826 0.0
H1896 H 0.26716 0.40513 0.08744 0.0
H1897 H 0.33505 0.43213 0.10594 0.0
H1898 H 0.31469 0.45797 0.13398 0.0
H1899 H 0.27794 0.47345 0.15234 0.0
H1900 H 0.2099 0.44444 0.13666 0.0
H1901 H 0.23014 0.41885 0.10806 0.0
C1902 C 0.27751 0.41636 0.09791 0.0
C1903 C 0.30257 0.41681 0.09451 0.0
C1904 C 0.26573 0.4309 0.11427 0.0
C1905 C 0.31573 0.43176 0.10791 0.0
C1906 C 0.30413 0.44645 0.12403 0.0
C1907 C 0.26747 0.46121 0.14308 0.0
C1908 C 0.24244 0.46078 0.14675 0.0
C1909 C 0.27917 0.44623 0.12721 0.0
C1910 C 0.22919 0.44532 0.13398 0.0
C1911 C 0.24074 0.43057 0.11777 0.0
H1912 H 0.89309 0.59427 0.79732 0.0
H1913 H 0.94234 0.5366 0.79923 0.0
H1914 H 0.97212 0.56055 0.77357 0.0
H1915 H 0.98432 0.5983 0.75093 0.0
H1916 H 0.93365 0.65445 0.74588 0.0
H1917 H 0.90409 0.63072 0.77202 0.0
C1918 C 0.91024 0.5869 0.7918 0.0
C1919 C 0.91553 0.56371 0.80003 0.0
C1920 C 0.92697 0.60052 0.77648 0.0
C1921 C 0.93792 0.55443 0.79308 0.0
C1922 C 0.9549 0.56809 0.77839 0.0
C1923 C 0.96671 0.60517 0.75545 0.0
C1924 C 0.96122 0.62818 0.74685 0.0
C1925 C 0.94966 0.59119 0.77002 0.0
C1926 C 0.93832 0.63689 0.7526 0.0
C1927 C 0.92145 0.62334 0.76751 0.0
H1928 H 0.8922 0.44966 0.26178 0.0
H1929 H 0.9346 0.43998 0.1954 0.0
H1930 H 0.96067 0.41348 0.21637 0.0
H1931 H 0.97299 0.39535 0.25394 0.0
H1932 H 0.9284 0.40225 0.31952 0.0
H1933 H 0.90134 0.42727 0.29819 0.0
C1934 C 0.90673 0.44135 0.25168 0.0
C1935 C 0.91155 0.4472 0.22706 0.0
C1936 C 0.92137 0.4257 0.2637 0.0
C1937 C 0.93079 0.43639 0.21449 0.0
C1938 C 0.94564 0.42105 0.22641 0.0
C1939 C 0.95706 0.40182 0.26351 0.0
C1940 C 0.95302 0.39726 0.28839 0.0
C1941 C 0.94134 0.41593 0.2511 0.0
C1942 C 0.93234 0.40601 0.30047 0.0
C1943 C 0.91676 0.42022 0.28828 0.0
H1944 H 0.66713 0.94192 0.32316 0.0
H1945 H 0.62868 0.00725 0.32054 0.0
H1946 H 0.59992 0.98957 0.29586 0.0
H1947 H 0.58516 0.9551 0.2753 0.0
H1948 H 0.62361 0.88954 0.2785 0.0
H1949 H 0.65242 0.90748 0.3025 0.0
C1950 C 0.65249 0.95226 0.31707 0.0
C1951 C 0.65017 0.97598 0.3236 0.0
C1952 C 0.63581 0.94182 0.30298 0.0
C1953 C 0.63095 0.98905 0.31573 0.0
C1954 C 0.61447 0.97889 0.3016 0.0
C1955 C 0.59992 0.94473 0.28105 0.0
C1956 C 0.60185 0.92075 0.27495 0.0
C1957 C 0.61664 0.95524 0.2951 0.0
C1958 C 0.62115 0.90779 0.28303 0.0
C1959 C 0.63786 0.91813 0.29673 0.0
H1960 H 0.11267 0.58926 0.26085 0.0
H1961 H 0.16971 0.63638 0.27622 0.0
H1962 H 0.14048 0.66381 0.29362 0.0
H1963 H 0.09856 0.6728 0.30661 0.0
H1964 H 0.04214 0.62503 0.29122 0.0
H1965 H 0.07129 0.59909 0.27164 0.0
C1966 C 0.11867 0.60552 0.2681 0.0
C1967 C 0.14315 0.61074 0.26776 0.0
C1968 C 0.10192 0.62091 0.27802 0.0
C1969 C 0.15085 0.63208 0.27651 0.0
C1970 C 0.1342 0.64764 0.28648 0.0
C1971 C 0.09285 0.65682 0.29866 0.0
C1972 C 0.06856 0.65053 0.30016 0.0
C1973 C 0.1097 0.64204 0.28763 0.0
C1974 C 0.06093 0.62993 0.29005 0.0
C1975 C 0.07751 0.61519 0.27899 0.0
H1976 H 0.43665 0.17204 0.24585 0.0
H1977 H 0.50269 0.13513 0.25008 0.0
H1978 H 0.48298 0.10543 0.27918 0.0
H1979 H 0.44657 0.08955 0.30281 0.0
H1980 H 0.38042 0.12654 0.29816 0.0
H1981 H 0.40041 0.15653 0.26999 0.0
C1982 C 0.44664 0.15752 0.25332 0.0
C1983 C 0.47103 0.15573 0.24609 0.0
C1984 C 0.43514 0.14052 0.26993 0.0
C1985 C 0.48388 0.13679 0.25557 0.0
C1986 C 0.47262 0.11987 0.27217 0.0
C1987 C 0.4366 0.10433 0.29585 0.0
C1988 C 0.41198 0.10571 0.30261 0.0
C1989 C 0.44822 0.12151 0.27947 0.0
C1990 C 0.3993 0.12485 0.2931 0.0
C1991 C 0.41074 0.14208 0.27702 0.0
H1992 H 0.08783 0.37349 0.77396 0.0
H1993 H 0.11685 0.40875 0.70715 0.0
H1994 H 0.14015 0.4353 0.72872 0.0
H1995 H 0.15266 0.44947 0.76655 0.0
H1996 H 0.12747 0.41214 0.83315 0.0
H1997 H 0.10322 0.38539 0.81171 0.0
C1998 C 0.09943 0.38666 0.7639 0.0
C1999 C 0.09959 0.38905 0.73858 0.0
C2000 C 0.11385 0.4017 0.77649 0.0
C2001 C 0.11508 0.40662 0.72646 0.0
C2002 C 0.12887 0.42186 0.73885 0.0
C2003 C 0.14192 0.43543 0.77639 0.0
C2004 C 0.1419 0.43301 0.80155 0.0
C2005 C 0.12829 0.41976 0.76386 0.0
C2006 C 0.12802 0.41445 0.81385 0.0
C2007 C 0.11402 0.39916 0.80155 0.0
H2008 H 0.5563 0.13587 0.8013 0.0
H2009 H 0.62066 0.17029 0.81928 0.0
H2010 H 0.64474 0.143 0.79499 0.0
H2011 H 0.64691 0.10844 0.76984 0.0
H2012 H 0.58183 0.07432 0.75276 0.0
H2013 H 0.55828 0.10262 0.77554 0.0
C2014 C 0.57559 0.13742 0.79978 0.0
C2015 C 0.5869 0.15476 0.81198 0.0
C2016 C 0.589 0.12182 0.78602 0.0
C2017 C 0.61183 0.15681 0.81004 0.0
C2018 C 0.62546 0.14131 0.79618 0.0
C2019 C 0.62758 0.1075 0.77087 0.0
C2020 C 0.61602 0.08943 0.75973 0.0
C2021 C 0.61419 0.12365 0.78421 0.0
C2022 C 0.591 0.08804 0.76138 0.0
C2023 C 0.57758 0.10418 0.77435 0.0
H2024 H 0.4251 0.88365 0.79237 0.0
H2025 H 0.4691 0.94082 0.81353 0.0
H2026 H 0.44735 0.9695 0.79001 0.0
H2027 H 0.41564 0.97846 0.7633 0.0
H2028 H 0.37266 0.92128 0.74116 0.0
H2029 H 0.39441 0.89237 0.76481 0.0
C2030 C 0.43011 0.90234 0.79164 0.0
C2031 C 0.4486 0.91005 0.80484 0.0
C2032 C 0.4177 0.91873 0.77788 0.0
C2033 C 0.45464 0.93442 0.80391 0.0
C2034 C 0.44233 0.95084 0.79033 0.0
C2035 C 0.41115 0.95964 0.7638 0.0
C2036 C 0.39255 0.95182 0.75099 0.0
C2037 C 0.42378 0.94322 0.77731 0.0
C2038 C 0.38684 0.92749 0.75128 0.0
C2039 C 0.39925 0.91105 0.76471 0.0
loop_
_geom_bond_atom_site_label_1
_geom_bond_atom_site_label_2
_geom_bond_distance
_geom_bond_site_symmetry_2
_ccdc_geom_bond_type
C0 C1 1.443 . S
C0 N4 1.376 1_565 S
C0 C38 1.389 . S
C1 C0 1.443 . S
C1 C2 1.342 . S
C1 H41 0.951 . S
C2 C1 1.342 . S
C2 C3 1.437 1_565 S
C2 H42 0.950 . S
C3 C2 1.437 1_545 S
C3 N4 1.374 . S
C3 C37 1.395 . S
N4 C0 1.376 1_545 S
N4 C3 1.374 . S
N4 Co5 2.008 . S
Co5 N4 2.008 . S
Co5 N6 1.995 . S
Co5 N11 2.008 . S
Co5 N16 1.995 . S
Co5 N21 2.282 1_545 S
Co5 N27 2.282 . S
N6 Co5 1.995 . S
N6 C7 1.376 . S
N6 C10 1.383 . S
C7 N6 1.376 . S
C7 C8 1.446 . S
C7 C37 1.391 . S
C8 C7 1.446 . S
C8 C9 1.339 . S
C8 H43 0.949 . S
C9 C8 1.339 . S
C9 C10 1.439 . S
C9 H44 0.950 . S
C10 N6 1.383 . S
C10 C9 1.439 . S
C10 C39 1.392 . S
N11 Co5 2.008 . S
N11 C12 1.376 . S
N11 C15 1.374 . S
C12 N11 1.376 . S
C12 C13 1.443 . S
C12 C39 1.389 . S
C13 C12 1.443 . S
C13 C14 1.340 . S
C13 H45 0.951 . S
C14 C13 1.340 . S
C14 C15 1.439 . S
C14 H46 0.950 . S
C15 N11 1.374 . S
C15 C14 1.439 . S
C15 C40 1.395 . S
N16 Co5 1.995 . S
N16 C17 1.376 . S
N16 C20 1.383 1_545 S
C17 N16 1.376 . S
C17 C18 1.446 1_545 S
C17 C40 1.391 . S
C18 C17 1.446 1_565 S
C18 C19 1.339 . S
C18 H47 0.949 . S
C19 C18 1.339 . S
C19 C20 1.439 . S
C19 H48 0.950 . S
C20 N16 1.383 1_565 S
C20 C19 1.439 . S
C20 C38 1.392 . S
N21 Co5 2.282 1_565 S
N21 C24 1.332 . S
N21 C26 1.332 . S
C22 C23 1.386 . S
C22 C25 1.388 . S
C23 C22 1.386 . S
C23 C24 1.382 . S
C23 H49 0.950 . S
C24 N21 1.332 . S
C24 C23 1.382 . S
C24 H35 0.952 . S
C25 C22 1.388 . S
C25 C26 1.382 . S
C25 H50 0.950 . S
C26 N21 1.332 . S
C26 C25 1.382 . S
C26 H36 0.948 . S
N27 Co5 2.282 . S
N27 C31 1.332 . S
N27 C32 1.332 . S
C28 C29 1.388 . S
C28 C32 1.382 . S
C28 H51 0.950 . S
C29 C28 1.388 . S
C29 C30 1.386 . S
C30 C29 1.386 . S
C30 C31 1.382 . S
C30 H52 0.950 . S
C31 N27 1.332 . S
C31 C30 1.382 . S
C31 H33 0.952 . S
C32 N27 1.332 . S
C32 C28 1.382 . S
C32 H34 0.948 . S
H33 C31 0.952 . S
H34 C32 0.948 . S
H35 C24 0.952 . S
H36 C26 0.948 . S
C37 C3 1.395 . S
C37 C7 1.391 . S
C38 C0 1.389 . S
C38 C20 1.392 . S
C39 C10 1.392 . S
C39 C12 1.389 . S
C40 C15 1.395 . S
C40 C17 1.391 . S
H41 C1 0.951 . S
H42 C2 0.950 . S
H43 C8 0.949 . S
H44 C9 0.950 . S
H45 C13 0.951 . S
H46 C14 0.950 . S
H47 C18 0.949 . S
H48 C19 0.950 . S
H49 C23 0.950 . S
H50 C25 0.950 . S
H51 C28 0.950 . S
H52 C30 0.950 . S
C53 C54 1.443 . S
C53 N57 1.376 . S
C53 C91 1.389 . S
C54 C53 1.443 . S
C54 C55 1.340 . S
C54 H94 0.951 . S
C55 C54 1.340 . S
C55 C56 1.439 . S
C55 H95 0.950 . S
C56 C55 1.439 . S
C56 N57 1.374 . S
C56 C90 1.395 . S
N57 C53 1.376 . S
N57 C56 1.374 . S
N57 Co58 2.008 . S
Co58 N57 2.008 . S
Co58 N59 1.995 . S
Co58 N64 2.008 . S
Co58 N69 1.995 . S
Co58 N74 2.282 . S
Co58 N80 2.282 1_455 S
N59 Co58 1.995 . S
N59 C60 1.376 . S
N59 C63 1.383 1_455 S
C60 N59 1.376 . S
C60 C61 1.446 1_455 S
C60 C90 1.391 . S
C61 C60 1.446 1_655 S
C61 C62 1.339 . S
C61 H96 0.949 . S
C62 C61 1.339 . S
C62 C63 1.439 . S
C62 H97 0.950 . S
C63 N59 1.383 1_655 S
C63 C62 1.439 . S
C63 C92 1.392 . S
N64 Co58 2.008 . S
N64 C65 1.376 1_455 S
N64 C68 1.374 . S
C65 N64 1.376 1_655 S
C65 C66 1.443 . S
C65 C92 1.389 . S
C66 C65 1.443 . S
C66 C67 1.340 1_655 S
C66 H98 0.951 . S
C67 C66 1.340 1_455 S
C67 C68 1.439 . S
C67 H99 0.950 . S
C68 N64 1.374 . S
C68 C67 1.439 . S
C68 C93 1.395 . S
N69 Co58 1.995 . S
N69 C70 1.376 . S
N69 C73 1.383 . S
C70 N69 1.376 . S
C70 C71 1.446 . S
C70 C93 1.391 . S
C71 C70 1.446 . S
C71 C72 1.339 . S
C71 H100 0.949 . S
C72 C71 1.339 . S
C72 C73 1.439 . S
C72 H101 0.950 . S
C73 N69 1.383 . S
C73 C72 1.439 . S
C73 C91 1.392 . S
N74 Co58 2.282 . S
N74 C77 1.332 . S
N74 C79 1.332 . S
C75 C76 1.386 . S
C75 C78 1.388 . S
C76 C75 1.386 . S
C76 C77 1.382 . S
C76 H102 0.950 . S
C77 N74 1.332 . S
C77 C76 1.382 . S
C77 H88 0.952 . S
C78 C75 1.388 . S
C78 C79 1.382 . S
C78 H103 0.950 . S
C79 N74 1.332 . S
C79 C78 1.382 . S
C79 H89 0.948 . S
N80 Co58 2.282 1_655 S
N80 C84 1.332 . S
N80 C85 1.332 . S
C81 C82 1.388 . S
C81 C85 1.382 . S
C81 H104 0.950 . S
C82 C81 1.388 . S
C82 C83 1.386 . S
C83 C82 1.386 . S
C83 C84 1.382 . S
C83 H105 0.950 . S
C84 N80 1.332 . S
C84 C83 1.382 . S
C84 H86 0.952 . S
C85 N80 1.332 . S
C85 C81 1.382 . S
C85 H87 0.948 1_655 S
H86 C84 0.952 . S
H87 C85 0.948 1_455 S
H88 C77 0.952 . S
H89 C79 0.948 . S
C90 C56 1.395 . S
C90 C60 1.391 . S
C91 C53 1.389 . S
C91 C73 1.392 . S
C92 C63 1.392 . S
C92 C65 1.389 . S
C93 C68 1.395 . S
C93 C70 1.391 . S
H94 C54 0.951 . S
H95 C55 0.950 . S
H96 C61 0.949 . S
H97 C62 0.950 . S
H98 C66 0.951 . S
H99 C67 0.950 . S
H100 C71 0.949 . S
H101 C72 0.950 . S
H102 C76 0.950 . S
H103 C78 0.950 . S
H104 C81 0.950 . S
H105 C83 0.950 . S
C106 C107 1.443 . S
C106 N110 1.376 1_565 S
C106 C144 1.389 . S
C107 C106 1.443 . S
C107 C108 1.332 1_565 S
C107 H147 0.951 . S
C108 C107 1.332 1_545 S
C108 C109 1.448 . S
C108 H148 0.950 . S
C109 C108 1.448 . S
C109 N110 1.374 . S
C109 C143 1.395 . S
N110 C106 1.376 1_545 S
N110 C109 1.374 . S
N110 Co111 2.008 . S
Co111 N110 2.008 . S
Co111 N112 1.995 . S
Co111 N117 2.008 . S
Co111 N122 2.010 . S
Co111 N127 2.282 1_545 S
Co111 N133 2.282 . S
N112 Co111 1.995 . S
N112 C113 1.376 . S
N112 C116 1.383 . S
C113 N112 1.376 . S
C113 C114 1.446 . S
C113 C143 1.391 . S
C114 C113 1.446 . S
C114 C115 1.339 . S
C114 H149 0.949 . S
C115 C114 1.339 . S
C115 C116 1.439 . S
C115 H150 0.950 . S
C116 N112 1.383 . S
C116 C115 1.439 . S
C116 C145 1.392 . S
N117 Co111 2.008 . S
N117 C118 1.376 . S
N117 C121 1.374 . S
C118 N117 1.376 . S
C118 C119 1.443 . S
C118 C145 1.389 . S
C119 C118 1.443 . S
C119 C120 1.340 . S
C119 H151 0.951 . S
C120 C119 1.340 . S
C120 C121 1.439 . S
C120 H152 0.950 . S
C121 N117 1.374 . S
C121 C120 1.439 . S
C121 C146 1.395 . S
N122 Co111 2.010 . S
N122 C123 1.377 . S
N122 C126 1.365 1_545 S
C123 N122 1.377 . S
C123 C124 1.439 1_545 S
C123 C146 1.399 . S
C124 C123 1.439 1_565 S
C124 C125 1.339 . S
C124 H153 0.949 . S
C125 C124 1.339 . S
C125 C126 1.439 . S
C125 H154 0.950 . S
C126 N122 1.365 1_565 S
C126 C125 1.439 . S
C126 C144 1.392 . S
N127 Co111 2.282 1_565 S
N127 C130 1.332 . S
N127 C132 1.332 . S
C128 C129 1.386 . S
C128 C131 1.388 . S
C129 C128 1.386 . S
C129 C130 1.382 . S
C129 H155 0.950 . S
C130 N127 1.332 . S
C130 C129 1.382 . S
C130 H141 0.952 . S
C131 C128 1.388 . S
C131 C132 1.382 . S
C131 H156 0.950 . S
C132 N127 1.332 . S
C132 C131 1.382 . S
C132 H142 0.948 . S
N133 Co111 2.282 . S
N133 C137 1.332 . S
N133 C138 1.332 . S
C134 C135 1.388 . S
C134 C138 1.382 . S
C134 H157 0.950 . S
C135 C134 1.388 . S
C135 C136 1.386 . S
C136 C135 1.386 . S
C136 C137 1.382 . S
C136 H158 0.950 . S
C137 N133 1.332 . S
C137 C136 1.382 . S
C137 H139 0.952 . S
C138 N133 1.332 . S
C138 C134 1.382 . S
C138 H140 0.948 . S
H139 C137 0.952 . S
H140 C138 0.948 . S
H141 C130 0.952 . S
H142 C132 0.948 . S
C143 C109 1.395 . S
C143 C113 1.391 . S
C144 C106 1.389 . S
C144 C126 1.392 . S
C145 C116 1.392 . S
C145 C118 1.389 . S
C146 C121 1.395 . S
C146 C123 1.399 . S
H147 C107 0.951 . S
H148 C108 0.950 . S
H149 C114 0.949 . S
H150 C115 0.950 . S
H151 C119 0.951 . S
H152 C120 0.950 . S
H153 C124 0.949 . S
H154 C125 0.950 . S
H155 C129 0.950 . S
H156 C131 0.950 . S
H157 C134 0.950 . S
H158 C136 0.950 . S
C159 C160 1.443 . S
C159 N163 1.376 . S
C159 C197 1.389 . S
C160 C159 1.443 . S
C160 C161 1.340 . S
C160 H200 0.951 . S
C161 C160 1.340 . S
C161 C162 1.439 . S
C161 H201 0.950 . S
C162 C161 1.439 . S
C162 N163 1.374 . S
C162 C196 1.395 1_655 S
N163 C159 1.376 . S
N163 C162 1.374 . S
N163 Co164 2.002 1_655 S
Co164 N163 2.002 1_455 S
Co164 N165 2.002 . S
Co164 N170 2.014 . S
Co164 N175 1.987 1_455 S
Co164 N180 2.271 1_455 S
Co164 N186 2.294 . S
N165 Co164 2.002 . S
N165 C166 1.376 . S
N165 C169 1.383 . S
C166 N165 1.376 . S
C166 C167 1.446 . S
C166 C196 1.391 . S
C167 C166 1.446 . S
C167 C168 1.339 . S
C167 H202 0.949 . S
C168 C167 1.339 . S
C168 C169 1.439 . S
C168 H203 0.950 . S
C169 N165 1.383 . S
C169 C168 1.439 . S
C169 C198 1.392 . S
N170 Co164 2.014 . S
N170 C171 1.376 . S
N170 C174 1.374 . S
C171 N170 1.376 . S
C171 C172 1.443 . S
C171 C198 1.389 . S
C172 C171 1.443 . S
C172 C173 1.340 . S
C172 H204 0.951 . S
C173 C172 1.340 . S
C173 C174 1.439 . S
C173 H205 0.950 . S
C174 N170 1.374 . S
C174 C173 1.439 . S
C174 C199 1.395 1_455 S
N175 Co164 1.987 1_655 S
N175 C176 1.376 . S
N175 C179 1.383 . S
C176 N175 1.376 . S
C176 C177 1.446 . S
C176 C199 1.391 . S
C177 C176 1.446 . S
C177 C178 1.339 . S
C177 H206 0.949 . S
C178 C177 1.339 . S
C178 C179 1.439 . S
C178 H207 0.950 . S
C179 N175 1.383 . S
C179 C178 1.439 . S
C179 C197 1.392 . S
N180 Co164 2.271 1_655 S
N180 C183 1.332 . S
N180 C185 1.332 . S
C181 C182 1.386 . S
C181 C184 1.388 . S
C182 C181 1.386 . S
C182 C183 1.382 . S
C182 H208 0.950 . S
C183 N180 1.332 . S
C183 C182 1.382 . S
C183 H194 0.952 . S
C184 C181 1.388 . S
C184 C185 1.382 . S
C184 H209 0.950 . S
C185 N180 1.332 . S
C185 C184 1.382 . S
C185 H195 0.948 . S
N186 Co164 2.294 . S
N186 C190 1.332 . S
N186 C191 1.332 . S
C187 C188 1.388 . S
C187 C191 1.382 . S
C187 H210 0.950 . S
C188 C187 1.388 . S
C188 C189 1.386 . S
C189 C188 1.386 . S
C189 C190 1.382 . S
C189 H211 0.950 . S
C190 N186 1.332 . S
C190 C189 1.382 . S
C190 H192 0.952 . S
C191 N186 1.332 . S
C191 C187 1.382 . S
C191 H193 0.948 . S
H192 C190 0.952 . S
H193 C191 0.948 . S
H194 C183 0.952 . S
H195 C185 0.948 . S
C196 C162 1.395 1_455 S
C196 C166 1.391 . S
C197 C159 1.389 . S
C197 C179 1.392 . S
C198 C169 1.392 . S
C198 C171 1.389 . S
C199 C174 1.395 1_655 S
C199 C176 1.391 . S
H200 C160 0.951 . S
H201 C161 0.950 . S
H202 C167 0.949 . S
H203 C168 0.950 . S
H204 C172 0.951 . S
H205 C173 0.950 . S
H206 C177 0.949 . S
H207 C178 0.950 . S
H208 C182 0.950 . S
H209 C184 0.950 . S
H210 C187 0.950 . S
H211 C189 0.950 . S
C212 C213 1.443 . S
C212 N216 1.376 . S
C212 C250 1.389 . S
C213 C212 1.443 . S
C213 C214 1.340 . S
C213 H253 0.951 . S
C214 C213 1.340 . S
C214 C215 1.439 . S
C214 H254 0.950 . S
C215 C214 1.439 . S
C215 N216 1.374 . S
C215 C249 1.395 1_565 S
N216 C212 1.376 . S
N216 C215 1.374 . S
N216 Co217 2.008 1_565 S
Co217 N216 2.008 1_545 S
Co217 N218 1.995 . S
Co217 N223 2.008 . S
Co217 N228 1.995 1_545 S
Co217 N233 2.282 1_545 S
Co217 N239 2.282 . S
N218 Co217 1.995 . S
N218 C219 1.376 . S
N218 C222 1.383 . S
C219 N218 1.376 . S
C219 C220 1.446 . S
C219 C249 1.391 . S
C220 C219 1.446 . S
C220 C221 1.339 . S
C220 H255 0.949 . S
C221 C220 1.339 . S
C221 C222 1.439 . S
C221 H256 0.950 . S
C222 N218 1.383 . S
C222 C221 1.439 . S
C222 C251 1.392 . S
N223 Co217 2.008 . S
N223 C224 1.376 . S
N223 C227 1.374 . S
C224 N223 1.376 . S
C224 C225 1.443 . S
C224 C251 1.389 . S
C225 C224 1.443 . S
C225 C226 1.340 . S
C225 H257 0.951 . S
C226 C225 1.340 . S
C226 C227 1.439 . S
C226 H258 0.950 . S
C227 N223 1.374 . S
C227 C226 1.439 . S
C227 C252 1.395 . S
N228 Co217 1.995 1_565 S
N228 C229 1.376 . S
N228 C232 1.383 . S
C229 N228 1.376 . S
C229 C230 1.446 . S
C229 C252 1.391 1_565 S
C230 C229 1.446 . S
C230 C231 1.339 . S
C230 H259 0.949 . S
C231 C230 1.339 . S
C231 C232 1.439 . S
C231 H260 0.950 . S
C232 N228 1.383 . S
C232 C231 1.439 . S
C232 C250 1.392 . S
N233 Co217 2.282 1_565 S
N233 C236 1.332 . S
N233 C238 1.332 . S
C234 C235 1.386 . S
C234 C237 1.388 . S
C235 C234 1.386 . S
C235 C236 1.382 . S
C235 H261 0.950 . S
C236 N233 1.332 . S
C236 C235 1.382 . S
C236 H247 0.952 . S
C237 C234 1.388 . S
C237 C238 1.382 . S
C237 H262 0.950 . S
C238 N233 1.332 . S
C238 C237 1.382 . S
C238 H248 0.948 . S
N239 Co217 2.282 . S
N239 C243 1.332 . S
N239 C244 1.332 . S
C240 C241 1.388 . S
C240 C244 1.382 . S
C240 H263 0.950 . S
C241 C240 1.388 . S
C241 C242 1.386 . S
C242 C241 1.386 . S
C242 C243 1.382 . S
C242 H264 0.950 . S
C243 N239 1.332 . S
C243 C242 1.382 . S
C243 H245 0.952 . S
C244 N239 1.332 . S
C244 C240 1.382 . S
C244 H246 0.948 . S
H245 C243 0.952 . S
H246 C244 0.948 . S
H247 C236 0.952 . S
H248 C238 0.948 . S
C249 C215 1.395 1_545 S
C249 C219 1.391 . S
C250 C212 1.389 . S
C250 C232 1.392 . S
C251 C222 1.392 . S
C251 C224 1.389 . S
C252 C227 1.395 . S
C252 C229 1.391 1_545 S
H253 C213 0.951 . S
H254 C214 0.950 . S
H255 C220 0.949 . S
H256 C221 0.950 . S
H257 C225 0.951 . S
H258 C226 0.950 . S
H259 C230 0.949 . S
H260 C231 0.950 . S
H261 C235 0.950 . S
H262 C237 0.950 . S
H263 C240 0.950 . S
H264 C242 0.950 . S
C265 C266 1.443 . S
C265 N269 1.376 1_655 S
C265 C303 1.389 . S
C266 C265 1.443 . S
C266 C267 1.340 1_655 S
C266 H306 0.951 . S
C267 C266 1.340 1_455 S
C267 C268 1.439 . S
C267 H307 0.950 . S
C268 C267 1.439 . S
C268 N269 1.374 . S
C268 C302 1.395 . S
N269 C265 1.376 1_455 S
N269 C268 1.374 . S
N269 Co270 2.008 . S
Co270 N269 2.008 . S
Co270 N271 1.995 . S
Co270 N276 2.008 . S
Co270 N281 1.995 . S
Co270 N286 2.282 1_455 S
Co270 N292 2.282 . S
N271 Co270 1.995 . S
N271 C272 1.376 . S
N271 C275 1.383 . S
C272 N271 1.376 . S
C272 C273 1.446 . S
C272 C302 1.391 . S
C273 C272 1.446 . S
C273 C274 1.339 . S
C273 H308 0.949 . S
C274 C273 1.339 . S
C274 C275 1.439 . S
C274 H309 0.950 . S
C275 N271 1.383 . S
C275 C274 1.439 . S
C275 C304 1.392 . S
N276 Co270 2.008 . S
N276 C277 1.376 . S
N276 C280 1.374 . S
C277 N276 1.376 . S
C277 C278 1.443 . S
C277 C304 1.389 . S
C278 C277 1.443 . S
C278 C279 1.340 . S
C278 H310 0.951 . S
C279 C278 1.340 . S
C279 C280 1.439 . S
C279 H311 0.950 . S
C280 N276 1.374 . S
C280 C279 1.439 . S
C280 C305 1.395 . S
N281 Co270 1.995 . S
N281 C282 1.376 . S
N281 C285 1.383 1_455 S
C282 N281 1.376 . S
C282 C283 1.446 1_455 S
C282 C305 1.391 . S
C283 C282 1.446 1_655 S
C283 C284 1.339 . S
C283 H312 0.949 . S
C284 C283 1.339 . S
C284 C285 1.439 . S
C284 H313 0.950 . S
C285 N281 1.383 1_655 S
C285 C284 1.439 . S
C285 C303 1.392 . S
N286 Co270 2.282 1_655 S
N286 C289 1.332 . S
N286 C291 1.332 . S
C287 C288 1.386 . S
C287 C290 1.388 . S
C288 C287 1.386 . S
C288 C289 1.382 . S
C288 H314 0.950 . S
C289 N286 1.332 . S
C289 C288 1.382 . S
C289 H300 0.952 . S
C290 C287 1.388 . S
C290 C291 1.382 . S
C290 H315 0.950 . S
C291 N286 1.332 . S
C291 C290 1.382 . S
C291 H301 0.948 1_655 S
N292 Co270 2.282 . S
N292 C296 1.332 . S
N292 C297 1.332 . S
C293 C294 1.388 . S
C293 C297 1.382 . S
C293 H316 0.950 . S
C294 C293 1.388 . S
C294 C295 1.386 . S
C295 C294 1.386 . S
C295 C296 1.382 . S
C295 H317 0.950 . S
C296 N292 1.332 . S
C296 C295 1.382 . S
C296 H298 0.952 . S
C297 N292 1.332 . S
C297 C293 1.382 . S
C297 H299 0.948 . S
H298 C296 0.952 . S
H299 C297 0.948 . S
H300 C289 0.952 . S
H301 C291 0.948 1_455 S
C302 C268 1.395 . S
C302 C272 1.391 . S
C303 C265 1.389 . S
C303 C285 1.392 . S
C304 C275 1.392 . S
C304 C277 1.389 . S
C305 C280 1.395 . S
C305 C282 1.391 . S
H306 C266 0.951 . S
H307 C267 0.950 . S
H308 C273 0.949 . S
H309 C274 0.950 . S
H310 C278 0.951 . S
H311 C279 0.950 . S
H312 C283 0.949 . S
H313 C284 0.950 . S
H314 C288 0.950 . S
H315 C290 0.950 . S
H316 C293 0.950 . S
H317 C295 0.950 . S
C318 C319 1.443 . S
C318 N322 1.376 . S
C318 C356 1.389 . S
C319 C318 1.443 . S
C319 C320 1.340 . S
C319 H359 0.951 . S
C320 C319 1.340 . S
C320 C321 1.439 . S
C320 H360 0.950 . S
C321 C320 1.439 . S
C321 N322 1.374 . S
C321 C355 1.415 . S
N322 C318 1.376 . S
N322 C321 1.374 . S
N322 Co323 2.008 . S
Co323 N322 2.008 . S
Co323 N324 1.995 1_545 S
Co323 N329 2.008 1_545 S
Co323 N334 1.995 . S
Co323 N339 2.282 . S
Co323 N345 2.282 1_545 S
N324 Co323 1.995 1_565 S
N324 C325 1.376 . S
N324 C328 1.383 . S
C325 N324 1.376 . S
C325 C326 1.446 . S
C325 C355 1.375 1_565 S
C326 C325 1.446 . S
C326 C327 1.339 . S
C326 H361 0.949 . S
C327 C326 1.339 . S
C327 C328 1.439 . S
C327 H362 0.950 . S
C328 N324 1.383 . S
C328 C327 1.439 . S
C328 C357 1.392 . S
N329 Co323 2.008 1_565 S
N329 C330 1.376 . S
N329 C333 1.374 . S
C330 N329 1.376 . S
C330 C331 1.443 . S
C330 C357 1.389 . S
C331 C330 1.443 . S
C331 C332 1.340 . S
C331 H363 0.951 . S
C332 C331 1.340 . S
C332 C333 1.439 . S
C332 H364 0.950 . S
C333 N329 1.374 . S
C333 C332 1.439 . S
C333 C358 1.395 1_565 S
N334 Co323 1.995 . S
N334 C335 1.376 . S
N334 C338 1.383 . S
C335 N334 1.376 . S
C335 C336 1.446 . S
C335 C358 1.391 . S
C336 C335 1.446 . S
C336 C337 1.339 . S
C336 H365 0.949 . S
C337 C336 1.339 . S
C337 C338 1.439 . S
C337 H366 0.950 . S
C338 N334 1.383 . S
C338 C337 1.439 . S
C338 C356 1.392 . S
N339 Co323 2.282 . S
N339 C342 1.332 . S
N339 C344 1.332 . S
C340 C341 1.386 . S
C340 C343 1.388 . S
C341 C340 1.386 . S
C341 C342 1.382 . S
C341 H367 0.950 . S
C342 N339 1.332 . S
C342 C341 1.382 . S
C342 H353 0.952 . S
C343 C340 1.388 . S
C343 C344 1.382 . S
C343 H368 0.950 . S
C344 N339 1.332 . S
C344 C343 1.382 . S
C344 H354 0.948 . S
N345 Co323 2.282 1_565 S
N345 C349 1.332 . S
N345 C350 1.332 . S
C346 C347 1.388 . S
C346 C350 1.382 . S
C346 H369 0.950 . S
C347 C346 1.388 . S
C347 C348 1.386 . S
C348 C347 1.386 . S
C348 C349 1.382 . S
C348 H370 0.950 . S
C349 N345 1.332 . S
C349 C348 1.382 . S
C349 H351 0.952 . S
C350 N345 1.332 . S
C350 C346 1.382 . S
C350 H352 0.948 . S
H351 C349 0.952 . S
H352 C350 0.948 . S
H353 C342 0.952 . S
H354 C344 0.948 . S
C355 C321 1.415 . S
C355 C325 1.375 1_545 S
C356 C318 1.389 . S
C356 C338 1.392 . S
C357 C328 1.392 . S
C357 C330 1.389 . S
C358 C333 1.395 1_545 S
C358 C335 1.391 . S
H359 C319 0.951 . S
H360 C320 0.950 . S
H361 C326 0.949 . S
H362 C327 0.950 . S
H363 C331 0.951 . S
H364 C332 0.950 . S
H365 C336 0.949 . S
H366 C337 0.950 . S
H367 C341 0.950 . S
H368 C343 0.950 . S
H369 C346 0.950 . S
H370 C348 0.950 . S
C371 C372 1.443 . S
C371 N375 1.376 1_655 S
C371 C409 1.389 . S
C372 C371 1.443 . S
C372 C373 1.340 . S
C372 H412 0.951 . S
C373 C372 1.340 . S
C373 C374 1.439 1_655 S
C373 H413 0.950 . S
C374 C373 1.439 1_455 S
C374 N375 1.374 . S
C374 C408 1.395 . S
N375 C371 1.376 1_455 S
N375 C374 1.374 . S
N375 Co376 2.008 . S
Co376 N375 2.008 . S
Co376 N377 1.995 . S
Co376 N382 2.008 . S
Co376 N387 1.995 . S
Co376 N392 2.282 1_455 S
Co376 N398 2.282 . S
N377 Co376 1.995 . S
N377 C378 1.376 . S
N377 C381 1.383 . S
C378 N377 1.376 . S
C378 C379 1.446 . S
C378 C408 1.391 . S
C379 C378 1.446 . S
C379 C380 1.339 . S
C379 H414 0.949 . S
C380 C379 1.339 . S
C380 C381 1.439 . S
C380 H415 0.950 . S
C381 N377 1.383 . S
C381 C380 1.439 . S
C381 C410 1.392 . S
N382 Co376 2.008 . S
N382 C383 1.376 . S
N382 C386 1.374 . S
C383 N382 1.376 . S
C383 C384 1.443 . S
C383 C410 1.389 . S
C384 C383 1.443 . S
C384 C385 1.340 . S
C384 H416 0.951 . S
C385 C384 1.340 . S
C385 C386 1.439 . S
C385 H417 0.950 . S
C386 N382 1.374 . S
C386 C385 1.439 . S
C386 C411 1.395 . S
N387 Co376 1.995 . S
N387 C388 1.376 . S
N387 C391 1.383 1_455 S
C388 N387 1.376 . S
C388 C389 1.446 1_455 S
C388 C411 1.391 . S
C389 C388 1.446 1_655 S
C389 C390 1.339 . S
C389 H418 0.949 . S
C390 C389 1.339 . S
C390 C391 1.439 . S
C390 H419 0.950 . S
C391 N387 1.383 1_655 S
C391 C390 1.439 . S
C391 C409 1.392 . S
N392 Co376 2.282 1_655 S
N392 C395 1.332 . S
N392 C397 1.332 . S
C393 C394 1.386 . S
C393 C396 1.388 . S
C394 C393 1.386 . S
C394 C395 1.382 . S
C394 H420 0.950 . S
C395 N392 1.332 . S
C395 C394 1.382 . S
C395 H406 0.952 . S
C396 C393 1.388 . S
C396 C397 1.382 . S
C396 H421 0.950 . S
C397 N392 1.332 . S
C397 C396 1.382 . S
C397 H407 0.962 . S
N398 Co376 2.282 . S
N398 C402 1.332 . S
N398 C403 1.332 . S
C399 C400 1.388 . S
C399 C403 1.382 . S
C399 H422 0.950 . S
C400 C399 1.388 . S
C400 C401 1.386 . S
C401 C400 1.386 . S
C401 C402 1.382 . S
C401 H423 0.950 . S
C402 N398 1.332 . S
C402 C401 1.382 . S
C402 H404 0.952 . S
C403 N398 1.332 . S
C403 C399 1.382 . S
C403 H405 0.948 . S
H404 C402 0.952 . S
H405 C403 0.948 . S
H406 C395 0.952 . S
H407 C397 0.962 . S
C408 C374 1.395 . S
C408 C378 1.391 . S
C409 C371 1.389 . S
C409 C391 1.392 . S
C410 C381 1.392 . S
C410 C383 1.389 . S
C411 C386 1.395 . S
C411 C388 1.391 . S
H412 C372 0.951 . S
H413 C373 0.950 . S
H414 C379 0.949 . S
H415 C380 0.950 . S
H416 C384 0.951 . S
H417 C385 0.950 . S
H418 C389 0.949 . S
H419 C390 0.950 . S
H420 C394 0.950 . S
H421 C396 0.950 . S
H422 C399 0.950 . S
H423 C401 0.950 . S
C424 C425 1.443 . S
C424 N428 1.376 . S
C424 C462 1.389 . S
C425 C424 1.443 . S
C425 C426 1.340 . S
C425 H465 0.951 . S
C426 C425 1.340 . S
C426 C427 1.439 . S
C426 H466 0.950 . S
C427 C426 1.439 . S
C427 N428 1.374 . S
C427 C461 1.395 1_554 S
N428 C424 1.376 . S
N428 C427 1.374 . S
N428 Co429 2.022 . S
Co429 N428 2.022 . S
Co429 N430 1.976 1_554 S
Co429 N435 1.995 1_554 S
Co429 N440 2.014 . S
Co429 N445 2.304 . S
Co429 N451 2.261 1_554 S
N430 Co429 1.976 1_556 S
N430 C431 1.376 . S
N430 C434 1.383 . S
C431 N430 1.376 . S
C431 C432 1.446 . S
C431 C461 1.391 . S
C432 C431 1.446 . S
C432 C433 1.339 . S
C432 H467 0.949 . S
C433 C432 1.339 . S
C433 C434 1.439 . S
C433 H468 0.950 . S
C434 N430 1.383 . S
C434 C433 1.439 . S
C434 C463 1.392 . S
N435 Co429 1.995 1_556 S
N435 C436 1.376 . S
N435 C439 1.374 . S
C436 N435 1.376 . S
C436 C437 1.443 . S
C436 C463 1.389 . S
C437 C436 1.443 . S
C437 C438 1.340 . S
C437 H469 0.951 . S
C438 C437 1.340 . S
C438 C439 1.439 . S
C438 H470 0.950 . S
C439 N435 1.374 . S
C439 C438 1.439 . S
C439 C464 1.395 1_556 S
N440 Co429 2.014 . S
N440 C441 1.376 . S
N440 C444 1.383 . S
C441 N440 1.376 . S
C441 C442 1.446 . S
C441 C464 1.391 . S
C442 C441 1.446 . S
C442 C443 1.339 . S
C442 H471 0.949 . S
C443 C442 1.339 . S
C443 C444 1.439 . S
C443 H472 0.950 . S
C444 N440 1.383 . S
C444 C443 1.439 . S
C444 C462 1.392 . S
N445 Co429 2.304 . S
N445 C448 1.332 . S
N445 C450 1.332 . S
C446 C447 1.386 . S
C446 C449 1.388 . S
C447 C446 1.386 . S
C447 C448 1.382 . S
C447 H473 0.950 . S
C448 N445 1.332 . S
C448 C447 1.382 . S
C448 H459 0.952 . S
C449 C446 1.388 . S
C449 C450 1.382 . S
C449 H474 0.950 . S
C450 N445 1.332 . S
C450 C449 1.382 . S
C450 H460 0.948 . S
N451 Co429 2.261 1_556 S
N451 C455 1.332 . S
N451 C456 1.332 . S
C452 C453 1.388 . S
C452 C456 1.382 . S
C452 H475 0.950 . S
C453 C452 1.388 . S
C453 C454 1.386 . S
C454 C453 1.386 . S
C454 C455 1.382 . S
C454 H476 0.950 . S
C455 N451 1.332 . S
C455 C454 1.382 . S
C455 H457 0.952 . S
C456 N451 1.332 . S
C456 C452 1.382 . S
C456 H458 0.948 . S
H457 C455 0.952 . S
H458 C456 0.948 . S
H459 C448 0.952 . S
H460 C450 0.948 . S
C461 C427 1.395 1_556 S
C461 C431 1.391 . S
C462 C424 1.389 . S
C462 C444 1.392 . S
C463 C434 1.392 . S
C463 C436 1.389 . S
C464 C439 1.395 1_554 S
C464 C441 1.391 . S
H465 C425 0.951 . S
H466 C426 0.950 . S
H467 C432 0.949 . S
H468 C433 0.950 . S
H469 C437 0.951 . S
H470 C438 0.950 . S
H471 C442 0.949 . S
H472 C443 0.950 . S
H473 C447 0.950 . S
H474 C449 0.950 . S
H475 C452 0.950 . S
H476 C454 0.950 . S
C477 C478 1.443 . S
C477 N481 1.376 . S
C477 C515 1.389 . S
C478 C477 1.443 . S
C478 C479 1.340 . S
C478 H518 0.951 . S
C479 C478 1.340 . S
C479 C480 1.439 . S
C479 H519 0.950 . S
C480 C479 1.439 . S
C480 N481 1.374 . S
C480 C514 1.395 . S
N481 C477 1.376 . S
N481 C480 1.374 . S
N481 Co482 2.008 . S
Co482 N481 2.008 . S
Co482 N483 1.995 . S
Co482 N488 2.008 . S
Co482 N493 1.995 . S
Co482 N498 2.282 . S
Co482 N504 2.282 1_554 S
N483 Co482 1.995 . S
N483 C484 1.376 . S
N483 C487 1.383 1_554 S
C484 N483 1.376 . S
C484 C485 1.446 1_554 S
C484 C514 1.391 . S
C485 C484 1.446 1_556 S
C485 C486 1.339 . S
C485 H520 0.949 . S
C486 C485 1.339 . S
C486 C487 1.439 . S
C486 H521 0.950 . S
C487 N483 1.383 1_556 S
C487 C486 1.439 . S
C487 C516 1.392 . S
N488 Co482 2.008 . S
N488 C489 1.376 1_554 S
N488 C492 1.374 . S
C489 N488 1.376 1_556 S
C489 C490 1.443 . S
C489 C516 1.389 . S
C490 C489 1.443 . S
C490 C491 1.340 . S
C490 H522 0.951 . S
C491 C490 1.340 . S
C491 C492 1.439 1_556 S
C491 H523 0.950 . S
C492 N488 1.374 . S
C492 C491 1.439 1_554 S
C492 C517 1.395 . S
N493 Co482 1.995 . S
N493 C494 1.376 . S
N493 C497 1.383 . S
C494 N493 1.376 . S
C494 C495 1.446 . S
C494 C517 1.391 . S
C495 C494 1.446 . S
C495 C496 1.339 . S
C495 H524 0.949 . S
C496 C495 1.339 . S
C496 C497 1.439 . S
C496 H525 0.950 . S
C497 N493 1.383 . S
C497 C496 1.439 . S
C497 C515 1.392 . S
N498 Co482 2.282 . S
N498 C501 1.332 . S
N498 C503 1.332 . S
C499 C500 1.386 . S
C499 C502 1.388 . S
C500 C499 1.386 . S
C500 C501 1.382 . S
C500 H526 0.950 . S
C501 N498 1.332 . S
C501 C500 1.382 . S
C501 H512 0.952 . S
C502 C499 1.388 . S
C502 C503 1.382 . S
C502 H527 0.950 . S
C503 N498 1.332 . S
C503 C502 1.382 . S
C503 H513 0.948 . S
N504 Co482 2.282 1_556 S
N504 C508 1.332 . S
N504 C509 1.332 . S
C505 C506 1.388 . S
C505 C509 1.382 . S
C505 H528 0.950 . S
C506 C505 1.388 . S
C506 C507 1.386 . S
C507 C506 1.386 . S
C507 C508 1.382 . S
C507 H529 0.950 . S
C508 N504 1.332 . S
C508 C507 1.382 . S
C508 H510 0.952 . S
C509 N504 1.332 . S
C509 C505 1.382 . S
C509 H511 0.948 . S
H510 C508 0.952 . S
H511 C509 0.948 . S
H512 C501 0.952 . S
H513 C503 0.948 . S
C514 C480 1.395 . S
C514 C484 1.391 . S
C515 C477 1.389 . S
C515 C497 1.392 . S
C516 C487 1.392 . S
C516 C489 1.389 . S
C517 C492 1.395 . S
C517 C494 1.391 . S
H518 C478 0.951 . S
H519 C479 0.950 . S
H520 C485 0.949 . S
H521 C486 0.950 . S
H522 C490 0.951 . S
H523 C491 0.950 . S
H524 C495 0.949 . S
H525 C496 0.950 . S
H526 C500 0.950 . S
H527 C502 0.950 . S
H528 C505 0.950 . S
H529 C507 0.950 . S
C530 C531 1.443 . S
C530 N534 1.376 . S
C530 C568 1.389 . S
C531 C530 1.443 . S
C531 C532 1.340 . S
C531 H571 0.951 . S
C532 C531 1.340 . S
C532 C533 1.439 . S
C532 H572 0.950 . S
C533 C532 1.439 . S
C533 N534 1.374 . S
C533 C567 1.395 . S
N534 C530 1.376 . S
N534 C533 1.374 . S
N534 Co535 2.008 . S
Co535 N534 2.008 . S
Co535 N536 1.995 . S
Co535 N541 2.008 . S
Co535 N546 1.995 . S
Co535 N551 2.282 . S
Co535 N557 2.282 . S
N536 Co535 1.995 . S
N536 C537 1.376 . S
N536 C540 1.383 1_554 S
C537 N536 1.376 . S
C537 C538 1.446 1_554 S
C537 C567 1.391 . S
C538 C537 1.446 1_556 S
C538 C539 1.339 . S
C538 H573 0.949 . S
C539 C538 1.339 . S
C539 C540 1.439 . S
C539 H574 0.950 . S
C540 N536 1.383 1_556 S
C540 C539 1.439 . S
C540 C569 1.392 . S
N541 Co535 2.008 . S
N541 C542 1.376 . S
N541 C545 1.374 . S
C542 N541 1.376 . S
C542 C543 1.443 . S
C542 C569 1.389 1_554 S
C543 C542 1.443 . S
C543 C544 1.340 . S
C543 H575 0.951 1_554 S
C544 C543 1.340 . S
C544 C545 1.439 . S
C544 H576 0.950 . S
C545 N541 1.374 . S
C545 C544 1.439 . S
C545 C570 1.395 . S
N546 Co535 1.995 . S
N546 C547 1.376 . S
N546 C550 1.383 . S
C547 N546 1.376 . S
C547 C548 1.446 . S
C547 C570 1.391 . S
C548 C547 1.446 . S
C548 C549 1.339 . S
C548 H577 0.949 . S
C549 C548 1.339 . S
C549 C550 1.439 . S
C549 H578 0.950 . S
C550 N546 1.383 . S
C550 C549 1.439 . S
C550 C568 1.392 . S
N551 Co535 2.282 . S
N551 C554 1.332 . S
N551 C556 1.332 . S
C552 C553 1.386 . S
C552 C555 1.388 . S
C553 C552 1.386 . S
C553 C554 1.382 . S
C553 H579 0.950 . S
C554 N551 1.332 . S
C554 C553 1.382 . S
C554 H565 0.952 . S
C555 C552 1.388 . S
C555 C556 1.382 . S
C555 H580 0.950 . S
C556 N551 1.332 . S
C556 C555 1.382 . S
C556 H566 0.948 . S
N557 Co535 2.282 . S
N557 C561 1.332 1_554 S
N557 C562 1.332 . S
C558 C559 1.388 . S
C558 C562 1.382 1_556 S
C558 H581 0.950 . S
C559 C558 1.388 . S
C559 C560 1.386 . S
C560 C559 1.386 . S
C560 C561 1.382 . S
C560 H582 0.950 . S
C561 N557 1.332 1_556 S
C561 C560 1.382 . S
C561 H563 0.952 . S
C562 N557 1.332 . S
C562 C558 1.382 1_554 S
C562 H564 0.948 . S
H563 C561 0.952 . S
H564 C562 0.948 . S
H565 C554 0.952 . S
H566 C556 0.948 . S
C567 C533 1.395 . S
C567 C537 1.391 . S
C568 C530 1.389 . S
C568 C550 1.392 . S
C569 C540 1.392 . S
C569 C542 1.389 1_556 S
C570 C545 1.395 . S
C570 C547 1.391 . S
H571 C531 0.951 . S
H572 C532 0.950 . S
H573 C538 0.949 . S
H574 C539 0.950 . S
H575 C543 0.951 1_556 S
H576 C544 0.950 . S
H577 C548 0.949 . S
H578 C549 0.950 . S
H579 C553 0.950 . S
H580 C555 0.950 . S
H581 C558 0.950 . S
H582 C560 0.950 . S
C583 C584 1.443 . S
C583 N587 1.376 . S
C583 C621 1.389 1_554 S
C584 C583 1.443 . S
C584 C585 1.340 . S
C584 H624 0.951 1_554 S
C585 C584 1.340 . S
C585 C586 1.439 . S
C585 H625 0.950 . S
C586 C585 1.439 . S
C586 N587 1.374 . S
C586 C620 1.395 . S
N587 C583 1.376 . S
N587 C586 1.374 . S
N587 Co588 2.008 . S
Co588 N587 2.008 . S
Co588 N589 1.995 . S
Co588 N594 2.008 . S
Co588 N599 1.995 . S
Co588 N604 2.282 . S
Co588 N610 2.282 . S
N589 Co588 1.995 . S
N589 C590 1.376 . S
N589 C593 1.383 . S
C590 N589 1.376 . S
C590 C591 1.446 . S
C590 C620 1.391 . S
C591 C590 1.446 . S
C591 C592 1.339 . S
C591 H626 0.949 . S
C592 C591 1.339 . S
C592 C593 1.439 . S
C592 H627 0.950 . S
C593 N589 1.383 . S
C593 C592 1.439 . S
C593 C622 1.392 . S
N594 Co588 2.008 . S
N594 C595 1.376 . S
N594 C598 1.374 . S
C595 N594 1.376 . S
C595 C596 1.443 . S
C595 C622 1.389 . S
C596 C595 1.443 . S
C596 C597 1.340 . S
C596 H628 0.951 . S
C597 C596 1.340 . S
C597 C598 1.439 . S
C597 H629 0.950 . S
C598 N594 1.374 . S
C598 C597 1.439 . S
C598 C623 1.395 . S
N599 Co588 1.995 . S
N599 C600 1.376 . S
N599 C603 1.380 1_554 S
C600 N599 1.376 . S
C600 C601 1.446 1_554 S
C600 C623 1.391 . S
C601 C600 1.446 1_556 S
C601 C602 1.339 . S
C601 H630 0.949 . S
C602 C601 1.339 . S
C602 C603 1.441 . S
C602 H631 0.950 . S
C603 N599 1.380 1_556 S
C603 C602 1.441 . S
C603 C621 1.393 . S
N604 Co588 2.282 . S
N604 C607 1.332 1_554 S
N604 C609 1.332 . S
C605 C606 1.386 . S
C605 C608 1.388 . S
C606 C605 1.386 . S
C606 C607 1.382 . S
C606 H632 0.950 . S
C607 N604 1.332 1_556 S
C607 C606 1.382 . S
C607 H618 0.952 . S
C608 C605 1.388 . S
C608 C609 1.382 1_556 S
C608 H633 0.950 . S
C609 N604 1.332 . S
C609 C608 1.382 1_554 S
C609 H619 0.948 . S
N610 Co588 2.282 . S
N610 C614 1.332 . S
N610 C615 1.332 . S
C611 C612 1.388 . S
C611 C615 1.382 . S
C611 H634 0.950 . S
C612 C611 1.388 . S
C612 C613 1.386 . S
C613 C612 1.386 . S
C613 C614 1.382 . S
C613 H635 0.950 . S
C614 N610 1.332 . S
C614 C613 1.382 . S
C614 H616 0.952 . S
C615 N610 1.332 . S
C615 C611 1.382 . S
C615 H617 0.948 . S
H616 C614 0.952 . S
H617 C615 0.948 . S
H618 C607 0.952 . S
H619 C609 0.948 . S
C620 C586 1.395 . S
C620 C590 1.391 . S
C621 C583 1.389 1_556 S
C621 C603 1.393 . S
C622 C593 1.392 . S
C622 C595 1.389 . S
C623 C598 1.395 . S
C623 C600 1.391 . S
H624 C584 0.951 1_556 S
H625 C585 0.950 . S
H626 C591 0.949 . S
H627 C592 0.950 . S
H628 C596 0.951 . S
H629 C597 0.950 . S
H630 C601 0.949 . S
H631 C602 0.950 . S
H632 C606 0.950 . S
H633 C608 0.950 . S
H634 C611 0.950 . S
H635 C613 0.950 . S
C636 C637 1.443 . S
C636 N640 1.376 . S
C636 C674 1.389 . S
C637 C636 1.443 . S
C637 C638 1.340 . S
C637 H677 0.951 . S
C638 C637 1.340 . S
C638 C639 1.439 . S
C638 H678 0.950 . S
C639 C638 1.439 . S
C639 N640 1.374 . S
C639 C673 1.395 . S
N640 C636 1.376 . S
N640 C639 1.374 . S
N640 Co641 2.008 . S
Co641 N640 2.008 . S
Co641 N642 1.995 . S
Co641 N647 2.008 . S
Co641 N652 1.995 . S
Co641 N657 2.282 . S
Co641 N663 2.282 . S
N642 Co641 1.995 . S
N642 C643 1.376 . S
N642 C646 1.383 . S
C643 N642 1.376 . S
C643 C644 1.446 . S
C643 C673 1.391 . S
C644 C643 1.446 . S
C644 C645 1.339 . S
C644 H679 0.949 . S
C645 C644 1.339 . S
C645 C646 1.439 . S
C645 H680 0.950 . S
C646 N642 1.383 . S
C646 C645 1.439 . S
C646 C675 1.392 . S
N647 Co641 2.008 . S
N647 C648 1.376 . S
N647 C651 1.374 . S
C648 N647 1.376 . S
C648 C649 1.443 . S
C648 C675 1.389 . S
C649 C648 1.443 . S
C649 C650 1.340 . S
C649 H681 0.951 . S
C650 C649 1.340 . S
C650 C651 1.439 . S
C650 H682 0.950 . S
C651 N647 1.374 . S
C651 C650 1.439 . S
C651 C676 1.395 . S
N652 Co641 1.995 . S
N652 C653 1.376 . S
N652 C656 1.383 . S
C653 N652 1.376 . S
C653 C654 1.446 . S
C653 C676 1.391 . S
C654 C653 1.446 . S
C654 C655 1.339 . S
C654 H683 0.949 . S
C655 C654 1.339 . S
C655 C656 1.439 . S
C655 H684 0.950 . S
C656 N652 1.383 . S
C656 C655 1.439 . S
C656 C674 1.392 . S
N657 Co641 2.282 . S
N657 C660 1.332 . S
N657 C662 1.332 . S
C658 C659 1.386 . S
C658 C661 1.388 . S
C659 C658 1.386 . S
C659 C660 1.382 . S
C659 H685 0.950 . S
C660 N657 1.332 . S
C660 C659 1.382 . S
C660 H671 0.952 . S
C661 C658 1.388 . S
C661 C662 1.382 . S
C661 H686 0.950 . S
C662 N657 1.332 . S
C662 C661 1.382 . S
C662 H672 0.948 . S
N663 Co641 2.282 . S
N663 C667 1.332 . S
N663 C668 1.332 . S
C664 C665 1.388 . S
C664 C668 1.382 . S
C664 H687 0.950 . S
C665 C664 1.388 . S
C665 C666 1.386 . S
C666 C665 1.386 . S
C666 C667 1.382 . S
C666 H688 0.950 . S
C667 N663 1.332 . S
C667 C666 1.382 . S
C667 H669 0.952 . S
C668 N663 1.332 . S
C668 C664 1.382 . S
C668 H670 0.948 . S
H669 C667 0.952 . S
H670 C668 0.948 . S
H671 C660 0.952 . S
H672 C662 0.948 . S
C673 C639 1.395 . S
C673 C643 1.391 . S
C674 C636 1.389 . S
C674 C656 1.392 . S
C675 C646 1.392 . S
C675 C648 1.389 . S
C676 C651 1.395 . S
C676 C653 1.391 . S
H677 C637 0.951 . S
H678 C638 0.950 . S
H679 C644 0.949 . S
H680 C645 0.950 . S
H681 C649 0.951 . S
H682 C650 0.950 . S
H683 C654 0.949 . S
H684 C655 0.950 . S
H685 C659 0.950 . S
H686 C661 0.950 . S
H687 C664 0.950 . S
H688 C666 0.950 . S
C689 C690 1.443 . S
C689 N693 1.376 . S
C689 C727 1.389 . S
C690 C689 1.443 . S
C690 C691 1.340 . S
C690 H730 0.951 . S
C691 C690 1.340 . S
C691 C692 1.439 . S
C691 H731 0.950 . S
C692 C691 1.439 . S
C692 N693 1.374 . S
C692 C726 1.395 . S
N693 C689 1.376 . S
N693 C692 1.374 . S
N693 Co694 2.008 . S
Co694 N693 2.008 . S
Co694 N695 1.995 . S
Co694 N700 2.008 . S
Co694 N705 1.995 . S
Co694 N710 2.282 . S
Co694 N716 2.282 . S
N695 Co694 1.995 . S
N695 C696 1.376 . S
N695 C699 1.383 . S
C696 N695 1.376 . S
C696 C697 1.446 . S
C696 C726 1.391 . S
C697 C696 1.446 . S
C697 C698 1.339 . S
C697 H732 0.949 . S
C698 C697 1.339 . S
C698 C699 1.439 . S
C698 H733 0.950 . S
C699 N695 1.383 . S
C699 C698 1.439 . S
C699 C728 1.392 . S
N700 Co694 2.008 . S
N700 C701 1.376 . S
N700 C704 1.374 . S
C701 N700 1.376 . S
C701 C702 1.443 . S
C701 C728 1.389 . S
C702 C701 1.443 . S
C702 C703 1.340 . S
C702 H734 0.951 . S
C703 C702 1.340 . S
C703 C704 1.439 . S
C703 H735 0.950 . S
C704 N700 1.374 . S
C704 C703 1.439 . S
C704 C729 1.395 . S
N705 Co694 1.995 . S
N705 C706 1.376 . S
N705 C709 1.383 . S
C706 N705 1.376 . S
C706 C707 1.446 . S
C706 C729 1.391 . S
C707 C706 1.446 . S
C707 C708 1.339 . S
C707 H736 0.949 . S
C708 C707 1.339 . S
C708 C709 1.439 . S
C708 H737 0.950 . S
C709 N705 1.383 . S
C709 C708 1.439 . S
C709 C727 1.392 . S
N710 Co694 2.282 . S
N710 C713 1.332 . S
N710 C715 1.332 . S
C711 C712 1.386 . S
C711 C714 1.388 . S
C712 C711 1.386 . S
C712 C713 1.382 . S
C712 H738 0.950 . S
C713 N710 1.332 . S
C713 C712 1.382 . S
C713 H724 0.952 . S
C714 C711 1.388 . S
C714 C715 1.382 . S
C714 H739 0.950 . S
C715 N710 1.332 . S
C715 C714 1.382 . S
C715 H725 0.948 . S
N716 Co694 2.282 . S
N716 C720 1.332 . S
N716 C721 1.332 . S
C717 C718 1.388 . S
C717 C721 1.382 . S
C717 H740 0.950 . S
C718 C717 1.388 . S
C718 C719 1.386 . S
C719 C718 1.386 . S
C719 C720 1.382 . S
C719 H741 0.950 . S
C720 N716 1.332 . S
C720 C719 1.382 . S
C720 H722 0.952 . S
C721 N716 1.332 . S
C721 C717 1.382 . S
C721 H723 0.948 . S
H722 C720 0.952 . S
H723 C721 0.948 . S
H724 C713 0.952 . S
H725 C715 0.948 . S
C726 C692 1.395 . S
C726 C696 1.391 . S
C727 C689 1.389 . S
C727 C709 1.392 . S
C728 C699 1.392 . S
C728 C701 1.389 . S
C729 C704 1.395 . S
C729 C706 1.391 . S
H730 C690 0.951 . S
H731 C691 0.950 . S
H732 C697 0.949 . S
H733 C698 0.950 . S
H734 C702 0.951 . S
H735 C703 0.950 . S
H736 C707 0.949 . S
H737 C708 0.950 . S
H738 C712 0.950 . S
H739 C714 0.950 . S
H740 C717 0.950 . S
H741 C719 0.950 . S
C742 C743 1.443 . S
C742 N746 1.376 . S
C742 C780 1.389 . S
C743 C742 1.443 . S
C743 C744 1.340 . S
C743 H783 0.951 . S
C744 C743 1.340 . S
C744 C745 1.439 . S
C744 H784 0.950 . S
C745 C744 1.439 . S
C745 N746 1.374 . S
C745 C779 1.395 . S
N746 C742 1.376 . S
N746 C745 1.374 . S
N746 Co747 2.008 . S
Co747 N746 2.008 . S
Co747 N748 1.995 . S
Co747 N753 2.008 . S
Co747 N758 1.995 . S
Co747 N763 2.282 . S
Co747 N769 2.282 . S
N748 Co747 1.995 . S
N748 C749 1.376 . S
N748 C752 1.383 . S
C749 N748 1.376 . S
C749 C750 1.446 . S
C749 C779 1.391 . S
C750 C749 1.446 . S
C750 C751 1.339 . S
C750 H785 0.949 . S
C751 C750 1.339 . S
C751 C752 1.439 . S
C751 H786 0.950 . S
C752 N748 1.383 . S
C752 C751 1.439 . S
C752 C781 1.392 . S
N753 Co747 2.008 . S
N753 C754 1.376 . S
N753 C757 1.374 . S
C754 N753 1.376 . S
C754 C755 1.443 . S
C754 C781 1.389 . S
C755 C754 1.443 . S
C755 C756 1.340 . S
C755 H787 0.951 . S
C756 C755 1.340 . S
C756 C757 1.439 . S
C756 H788 0.950 . S
C757 N753 1.374 . S
C757 C756 1.439 . S
C757 C782 1.395 . S
N758 Co747 1.995 . S
N758 C759 1.376 . S
N758 C762 1.383 . S
C759 N758 1.376 . S
C759 C760 1.446 . S
C759 C782 1.391 . S
C760 C759 1.446 . S
C760 C761 1.339 . S
C760 H789 0.949 . S
C761 C760 1.339 . S
C761 C762 1.439 . S
C761 H790 0.950 . S
C762 N758 1.383 . S
C762 C761 1.439 . S
C762 C780 1.392 . S
N763 Co747 2.282 . S
N763 C766 1.332 . S
N763 C768 1.332 . S
C764 C765 1.386 . S
C764 C767 1.388 . S
C765 C764 1.386 . S
C765 C766 1.382 . S
C765 H791 0.950 . S
C766 N763 1.332 . S
C766 C765 1.382 . S
C766 H777 0.952 . S
C767 C764 1.388 . S
C767 C768 1.382 . S
C767 H792 0.950 . S
C768 N763 1.332 . S
C768 C767 1.382 . S
C768 H778 0.948 . S
N769 Co747 2.282 . S
N769 C773 1.332 . S
N769 C774 1.332 . S
C770 C771 1.388 . S
C770 C774 1.382 . S
C770 H793 0.950 . S
C771 C770 1.388 . S
C771 C772 1.386 . S
C772 C771 1.386 . S
C772 C773 1.382 . S
C772 H794 0.950 . S
C773 N769 1.332 . S
C773 C772 1.382 . S
C773 H775 0.952 . S
C774 N769 1.332 . S
C774 C770 1.382 . S
C774 H776 0.948 . S
H775 C773 0.952 . S
H776 C774 0.948 . S
H777 C766 0.952 . S
H778 C768 0.948 . S
C779 C745 1.395 . S
C779 C749 1.391 . S
C780 C742 1.389 . S
C780 C762 1.392 . S
C781 C752 1.392 . S
C781 C754 1.389 . S
C782 C757 1.395 . S
C782 C759 1.391 . S
H783 C743 0.951 . S
H784 C744 0.950 . S
H785 C750 0.949 . S
H786 C751 0.950 . S
H787 C755 0.951 . S
H788 C756 0.950 . S
H789 C760 0.949 . S
H790 C761 0.950 . S
H791 C765 0.950 . S
H792 C767 0.950 . S
H793 C770 0.950 . S
H794 C772 0.950 . S
C795 C796 1.443 . S
C795 N799 1.376 . S
C795 C833 1.389 . S
C796 C795 1.443 . S
C796 C797 1.340 . S
C796 H836 0.951 . S
C797 C796 1.340 . S
C797 C798 1.439 . S
C797 H837 0.950 . S
C798 C797 1.439 . S
C798 N799 1.374 . S
C798 C832 1.395 . S
N799 C795 1.376 . S
N799 C798 1.374 . S
N799 Co800 2.008 . S
Co800 N799 2.008 . S
Co800 N801 1.995 . S
Co800 N806 2.008 . S
Co800 N811 1.995 . S
Co800 N816 2.282 . S
Co800 N822 2.282 . S
N801 Co800 1.995 . S
N801 C802 1.376 . S
N801 C805 1.383 . S
C802 N801 1.376 . S
C802 C803 1.446 . S
C802 C832 1.391 . S
C803 C802 1.446 . S
C803 C804 1.339 . S
C803 H838 0.949 . S
C804 C803 1.339 . S
C804 C805 1.439 . S
C804 H839 0.950 . S
C805 N801 1.383 . S
C805 C804 1.439 . S
C805 C834 1.392 . S
N806 Co800 2.008 . S
N806 C807 1.376 . S
N806 C810 1.374 . S
C807 N806 1.376 . S
C807 C808 1.443 . S
C807 C834 1.389 . S
C808 C807 1.443 . S
C808 C809 1.340 . S
C808 H840 0.951 . S
C809 C808 1.340 . S
C809 C810 1.439 . S
C809 H841 0.950 . S
C810 N806 1.374 . S
C810 C809 1.439 . S
C810 C835 1.395 . S
N811 Co800 1.995 . S
N811 C812 1.376 . S
N811 C815 1.383 . S
C812 N811 1.376 . S
C812 C813 1.446 . S
C812 C835 1.391 . S
C813 C812 1.446 . S
C813 C814 1.339 . S
C813 H842 0.949 . S
C814 C813 1.339 . S
C814 C815 1.439 . S
C814 H843 0.950 . S
C815 N811 1.383 . S
C815 C814 1.439 . S
C815 C833 1.392 . S
N816 Co800 2.282 . S
N816 C819 1.332 . S
N816 C821 1.332 . S
C817 C818 1.386 . S
C817 C820 1.388 . S
C818 C817 1.386 . S
C818 C819 1.382 . S
C818 H844 0.950 . S
C819 N816 1.332 . S
C819 C818 1.382 . S
C819 H830 0.952 . S
C820 C817 1.388 . S
C820 C821 1.382 . S
C820 H845 0.950 . S
C821 N816 1.332 . S
C821 C820 1.382 . S
C821 H831 0.948 . S
N822 Co800 2.282 . S
N822 C826 1.332 . S
N822 C827 1.332 . S
C823 C824 1.388 . S
C823 C827 1.382 . S
C823 H846 0.950 . S
C824 C823 1.388 . S
C824 C825 1.386 . S
C825 C824 1.386 . S
C825 C826 1.382 . S
C825 H847 0.950 . S
C826 N822 1.332 . S
C826 C825 1.382 . S
C826 H828 0.952 . S
C827 N822 1.332 . S
C827 C823 1.382 . S
C827 H829 0.948 . S
H828 C826 0.952 . S
H829 C827 0.948 . S
H830 C819 0.952 . S
H831 C821 0.948 . S
C832 C798 1.395 . S
C832 C802 1.391 . S
C833 C795 1.389 . S
C833 C815 1.392 . S
C834 C805 1.392 . S
C834 C807 1.389 . S
C835 C810 1.395 . S
C835 C812 1.391 . S
H836 C796 0.951 . S
H837 C797 0.950 . S
H838 C803 0.949 . S
H839 C804 0.950 . S
H840 C808 0.951 . S
H841 C809 0.950 . S
H842 C813 0.949 . S
H843 C814 0.950 . S
H844 C818 0.950 . S
H845 C820 0.950 . S
H846 C823 0.950 . S
H847 C825 0.950 . S
C848 C849 1.443 . S
C848 N852 1.376 . S
C848 C886 1.389 . S
C849 C848 1.443 . S
C849 C850 1.340 . S
C849 H889 0.951 . S
C850 C849 1.340 . S
C850 C851 1.439 . S
C850 H890 0.950 . S
C851 C850 1.439 . S
C851 N852 1.374 . S
C851 C885 1.395 . S
N852 C848 1.376 . S
N852 C851 1.374 . S
N852 Co853 2.008 . S
Co853 N852 2.008 . S
Co853 N854 1.995 . S
Co853 N859 2.008 . S
Co853 N864 1.995 . S
Co853 N869 2.282 . S
Co853 N875 2.282 . S
N854 Co853 1.995 . S
N854 C855 1.376 . S
N854 C858 1.383 . S
C855 N854 1.376 . S
C855 C856 1.446 . S
C855 C885 1.391 . S
C856 C855 1.446 . S
C856 C857 1.339 . S
C856 H891 0.949 . S
C857 C856 1.339 . S
C857 C858 1.439 . S
C857 H892 0.950 . S
C858 N854 1.383 . S
C858 C857 1.439 . S
C858 C887 1.392 . S
N859 Co853 2.008 . S
N859 C860 1.376 . S
N859 C863 1.374 . S
C860 N859 1.376 . S
C860 C861 1.443 . S
C860 C887 1.389 . S
C861 C860 1.443 . S
C861 C862 1.340 . S
C861 H893 0.951 . S
C862 C861 1.340 . S
C862 C863 1.439 . S
C862 H894 0.950 . S
C863 N859 1.374 . S
C863 C862 1.439 . S
C863 C888 1.395 . S
N864 Co853 1.995 . S
N864 C865 1.376 . S
N864 C868 1.383 . S
C865 N864 1.376 . S
C865 C866 1.446 . S
C865 C888 1.391 . S
C866 C865 1.446 . S
C866 C867 1.339 . S
C866 H895 0.949 . S
C867 C866 1.339 . S
C867 C868 1.439 . S
C867 H896 0.950 . S
C868 N864 1.383 . S
C868 C867 1.439 . S
C868 C886 1.392 . S
N869 Co853 2.282 . S
N869 C872 1.332 . S
N869 C874 1.332 . S
C870 C871 1.386 . S
C870 C873 1.388 . S
C871 C870 1.386 . S
C871 C872 1.382 . S
C871 H897 0.950 . S
C872 N869 1.332 . S
C872 C871 1.382 . S
C872 H883 0.952 . S
C873 C870 1.388 . S
C873 C874 1.382 . S
C873 H898 0.950 . S
C874 N869 1.332 . S
C874 C873 1.382 . S
C874 H884 0.948 . S
N875 Co853 2.282 . S
N875 C879 1.332 . S
N875 C880 1.332 . S
C876 C877 1.388 . S
C876 C880 1.382 . S
C876 H899 0.950 . S
C877 C876 1.388 . S
C877 C878 1.386 . S
C878 C877 1.386 . S
C878 C879 1.382 . S
C878 H900 0.950 . S
C879 N875 1.332 . S
C879 C878 1.382 . S
C879 H881 0.952 . S
C880 N875 1.332 . S
C880 C876 1.382 . S
C880 H882 0.948 . S
H881 C879 0.952 . S
H882 C880 0.948 . S
H883 C872 0.952 . S
H884 C874 0.948 . S
C885 C851 1.395 . S
C885 C855 1.391 . S
C886 C848 1.389 . S
C886 C868 1.392 . S
C887 C858 1.392 . S
C887 C860 1.389 . S
C888 C863 1.395 . S
C888 C865 1.391 . S
H889 C849 0.951 . S
H890 C850 0.950 . S
H891 C856 0.949 . S
H892 C857 0.950 . S
H893 C861 0.951 . S
H894 C862 0.950 . S
H895 C866 0.949 . S
H896 C867 0.950 . S
H897 C871 0.950 . S
H898 C873 0.950 . S
H899 C876 0.950 . S
H900 C878 0.950 . S
C901 C902 1.443 . S
C901 N905 1.376 . S
C901 C939 1.389 . S
C902 C901 1.443 . S
C902 C903 1.340 . S
C902 H942 0.951 . S
C903 C902 1.340 . S
C903 C904 1.439 . S
C903 H943 0.950 . S
C904 C903 1.439 . S
C904 N905 1.374 . S
C904 C938 1.395 . S
N905 C901 1.376 . S
N905 C904 1.374 . S
N905 Co906 2.008 . S
Co906 N905 2.008 . S
Co906 N907 1.995 . S
Co906 N912 2.008 . S
Co906 N917 1.995 . S
Co906 N922 2.282 . S
Co906 N928 2.282 . S
N907 Co906 1.995 . S
N907 C908 1.376 . S
N907 C911 1.383 . S
C908 N907 1.376 . S
C908 C909 1.446 . S
C908 C938 1.391 . S
C909 C908 1.446 . S
C909 C910 1.339 . S
C909 H944 0.949 . S
C910 C909 1.339 . S
C910 C911 1.439 . S
C910 H945 0.950 . S
C911 N907 1.383 . S
C911 C910 1.439 . S
C911 C940 1.392 . S
N912 Co906 2.008 . S
N912 C913 1.376 . S
N912 C916 1.374 . S
C913 N912 1.376 . S
C913 C914 1.443 . S
C913 C940 1.389 . S
C914 C913 1.443 . S
C914 C915 1.340 . S
C914 H946 0.951 . S
C915 C914 1.340 . S
C915 C916 1.439 . S
C915 H947 0.950 . S
C916 N912 1.374 . S
C916 C915 1.439 . S
C916 C941 1.395 . S
N917 Co906 1.995 . S
N917 C918 1.376 . S
N917 C921 1.383 . S
C918 N917 1.376 . S
C918 C919 1.446 . S
C918 C941 1.391 . S
C919 C918 1.446 . S
C919 C920 1.339 . S
C919 H948 0.949 . S
C920 C919 1.339 . S
C920 C921 1.439 . S
C920 H949 0.950 . S
C921 N917 1.383 . S
C921 C920 1.439 . S
C921 C939 1.392 . S
N922 Co906 2.282 . S
N922 C925 1.332 . S
N922 C927 1.332 . S
C923 C924 1.386 . S
C923 C926 1.388 . S
C924 C923 1.386 . S
C924 C925 1.382 . S
C924 H950 0.950 . S
C925 N922 1.332 . S
C925 C924 1.382 . S
C925 H936 0.952 . S
C926 C923 1.388 . S
C926 C927 1.382 . S
C926 H951 0.950 . S
C927 N922 1.332 . S
C927 C926 1.382 . S
C927 H937 0.948 . S
N928 Co906 2.282 . S
N928 C932 1.332 . S
N928 C933 1.332 . S
C929 C930 1.388 . S
C929 C933 1.382 . S
C929 H952 0.950 . S
C930 C929 1.388 . S
C930 C931 1.386 . S
C931 C930 1.386 . S
C931 C932 1.382 . S
C931 H953 0.950 . S
C932 N928 1.332 . S
C932 C931 1.382 . S
C932 H934 0.952 . S
C933 N928 1.332 . S
C933 C929 1.382 . S
C933 H935 0.948 . S
H934 C932 0.952 . S
H935 C933 0.948 . S
H936 C925 0.952 . S
H937 C927 0.948 . S
C938 C904 1.395 . S
C938 C908 1.391 . S
C939 C901 1.389 . S
C939 C921 1.392 . S
C940 C911 1.392 . S
C940 C913 1.389 . S
C941 C916 1.395 . S
C941 C918 1.391 . S
H942 C902 0.951 . S
H943 C903 0.950 . S
H944 C909 0.949 . S
H945 C910 0.950 . S
H946 C914 0.951 . S
H947 C915 0.950 . S
H948 C919 0.949 . S
H949 C920 0.950 . S
H950 C924 0.950 . S
H951 C926 0.950 . S
H952 C929 0.950 . S
H953 C931 0.950 . S
C954 C955 1.443 . S
C954 N958 1.376 . S
C954 C992 1.389 . S
C955 C954 1.443 . S
C955 C956 1.340 . S
C955 H995 0.951 . S
C956 C955 1.340 . S
C956 C957 1.439 . S
C956 H996 0.950 . S
C957 C956 1.439 . S
C957 N958 1.374 . S
C957 C991 1.395 . S
N958 C954 1.376 . S
N958 C957 1.374 . S
N958 Co959 2.008 . S
Co959 N958 2.008 . S
Co959 N960 1.995 . S
Co959 N965 2.008 . S
Co959 N970 1.995 . S
Co959 N975 2.282 . S
Co959 N981 2.282 . S
N960 Co959 1.995 . S
N960 C961 1.376 . S
N960 C964 1.383 . S
C961 N960 1.376 . S
C961 C962 1.446 . S
C961 C991 1.391 . S
C962 C961 1.446 . S
C962 C963 1.339 . S
C962 H997 0.949 . S
C963 C962 1.339 . S
C963 C964 1.439 . S
C963 H998 0.950 . S
C964 N960 1.383 . S
C964 C963 1.439 . S
C964 C993 1.392 . S
N965 Co959 2.008 . S
N965 C966 1.376 . S
N965 C969 1.374 . S
C966 N965 1.376 . S
C966 C967 1.443 . S
C966 C993 1.389 . S
C967 C966 1.443 . S
C967 C968 1.340 . S
C967 H999 0.951 . S
C968 C967 1.340 . S
C968 C969 1.439 . S
C968 H1000 0.950 . S
C969 N965 1.374 . S
C969 C968 1.439 . S
C969 C994 1.395 . S
N970 Co959 1.995 . S
N970 C971 1.376 . S
N970 C974 1.383 . S
C971 N970 1.376 . S
C971 C972 1.446 . S
C971 C994 1.391 . S
C972 C971 1.446 . S
C972 C973 1.339 . S
C972 H1001 0.949 . S
C973 C972 1.339 . S
C973 C974 1.439 . S
C973 H1002 0.950 . S
C974 N970 1.383 . S
C974 C973 1.439 . S
C974 C992 1.392 . S
N975 Co959 2.282 . S
N975 C978 1.332 . S
N975 C980 1.332 . S
C976 C977 1.386 . S
C976 C979 1.388 . S
C977 C976 1.386 . S
C977 C978 1.382 . S
C977 H1003 0.950 . S
C978 N975 1.332 . S
C978 C977 1.382 . S
C978 H989 0.952 . S
C979 C976 1.388 . S
C979 C980 1.382 . S
C979 H1004 0.950 . S
C980 N975 1.332 . S
C980 C979 1.382 . S
C980 H990 0.948 . S
N981 Co959 2.282 . S
N981 C985 1.332 . S
N981 C986 1.332 . S
C982 C983 1.388 . S
C982 C986 1.382 . S
C982 H1005 0.950 . S
C983 C982 1.388 . S
C983 C984 1.386 . S
C984 C983 1.386 . S
C984 C985 1.382 . S
C984 H1006 0.950 . S
C985 N981 1.332 . S
C985 C984 1.382 . S
C985 H987 0.952 . S
C986 N981 1.332 . S
C986 C982 1.382 . S
C986 H988 0.948 . S
H987 C985 0.952 . S
H988 C986 0.948 . S
H989 C978 0.952 . S
H990 C980 0.948 . S
C991 C957 1.395 . S
C991 C961 1.391 . S
C992 C954 1.389 . S
C992 C974 1.392 . S
C993 C964 1.392 . S
C993 C966 1.389 . S
C994 C969 1.395 . S
C994 C971 1.391 . S
H995 C955 0.951 . S
H996 C956 0.950 . S
H997 C962 0.949 . S
H998 C963 0.950 . S
H999 C967 0.951 . S
H1000 C968 0.950 . S
H1001 C972 0.949 . S
H1002 C973 0.950 . S
H1003 C977 0.950 . S
H1004 C979 0.950 . S
H1005 C982 0.950 . S
H1006 C984 0.950 . S
C1007 C1008 1.443 . S
C1007 N1011 1.376 . S
C1007 C1045 1.389 . S
C1008 C1007 1.443 . S
C1008 C1009 1.340 . S
C1008 H1048 0.951 . S
C1009 C1008 1.340 . S
C1009 C1010 1.439 . S
C1009 H1049 0.950 . S
C1010 C1009 1.439 . S
C1010 N1011 1.374 . S
C1010 C1044 1.395 . S
N1011 C1007 1.376 . S
N1011 C1010 1.374 . S
N1011 Co1012 2.008 . S
Co1012 N1011 2.008 . S
Co1012 N1013 1.995 . S
Co1012 N1018 2.008 . S
Co1012 N1023 1.995 . S
Co1012 N1028 2.282 . S
Co1012 N1034 2.282 . S
N1013 Co1012 1.995 . S
N1013 C1014 1.376 . S
N1013 C1017 1.383 . S
C1014 N1013 1.376 . S
C1014 C1015 1.446 . S
C1014 C1044 1.391 . S
C1015 C1014 1.446 . S
C1015 C1016 1.339 . S
C1015 H1050 0.949 . S
C1016 C1015 1.339 . S
C1016 C1017 1.439 . S
C1016 H1051 0.950 . S
C1017 N1013 1.383 . S
C1017 C1016 1.439 . S
C1017 C1046 1.392 . S
N1018 Co1012 2.008 . S
N1018 C1019 1.376 . S
N1018 C1022 1.374 . S
C1019 N1018 1.376 . S
C1019 C1020 1.443 . S
C1019 C1046 1.389 . S
C1020 C1019 1.443 . S
C1020 C1021 1.340 . S
C1020 H1052 0.951 . S
C1021 C1020 1.340 . S
C1021 C1022 1.439 . S
C1021 H1053 0.950 . S
C1022 N1018 1.374 . S
C1022 C1021 1.439 . S
C1022 C1047 1.395 . S
N1023 Co1012 1.995 . S
N1023 C1024 1.376 . S
N1023 C1027 1.383 . S
C1024 N1023 1.376 . S
C1024 C1025 1.446 . S
C1024 C1047 1.391 . S
C1025 C1024 1.446 . S
C1025 C1026 1.339 . S
C1025 H1054 0.949 . S
C1026 C1025 1.339 . S
C1026 C1027 1.439 . S
C1026 H1055 0.950 . S
C1027 N1023 1.383 . S
C1027 C1026 1.439 . S
C1027 C1045 1.392 . S
N1028 Co1012 2.282 . S
N1028 C1031 1.332 . S
N1028 C1033 1.332 . S
C1029 C1030 1.386 . S
C1029 C1032 1.388 . S
C1030 C1029 1.386 . S
C1030 C1031 1.382 . S
C1030 H1056 0.950 . S
C1031 N1028 1.332 . S
C1031 C1030 1.382 . S
C1031 H1042 0.952 . S
C1032 C1029 1.388 . S
C1032 C1033 1.382 . S
C1032 H1057 0.950 . S
C1033 N1028 1.332 . S
C1033 C1032 1.382 . S
C1033 H1043 0.948 . S
N1034 Co1012 2.282 . S
N1034 C1038 1.332 . S
N1034 C1039 1.332 . S
C1035 C1036 1.388 . S
C1035 C1039 1.382 . S
C1035 H1058 0.950 . S
C1036 C1035 1.388 . S
C1036 C1037 1.386 . S
C1037 C1036 1.386 . S
C1037 C1038 1.382 . S
C1037 H1059 0.950 . S
C1038 N1034 1.332 . S
C1038 C1037 1.382 . S
C1038 H1040 0.952 . S
C1039 N1034 1.332 . S
C1039 C1035 1.382 . S
C1039 H1041 0.948 . S
H1040 C1038 0.952 . S
H1041 C1039 0.948 . S
H1042 C1031 0.952 . S
H1043 C1033 0.948 . S
C1044 C1010 1.395 . S
C1044 C1014 1.391 . S
C1045 C1007 1.389 . S
C1045 C1027 1.392 . S
C1046 C1017 1.392 . S
C1046 C1019 1.389 . S
C1047 C1022 1.395 . S
C1047 C1024 1.391 . S
H1048 C1008 0.951 . S
H1049 C1009 0.950 . S
H1050 C1015 0.949 . S
H1051 C1016 0.950 . S
H1052 C1020 0.951 . S
H1053 C1021 0.950 . S
H1054 C1025 0.949 . S
H1055 C1026 0.950 . S
H1056 C1030 0.950 . S
H1057 C1032 0.950 . S
H1058 C1035 0.950 . S
H1059 C1037 0.950 . S
C1060 C1061 1.443 . S
C1060 N1064 1.376 . S
C1060 C1098 1.389 . S
C1061 C1060 1.443 . S
C1061 C1062 1.340 . S
C1061 H1101 0.951 . S
C1062 C1061 1.340 . S
C1062 C1063 1.439 . S
C1062 H1102 0.950 . S
C1063 C1062 1.439 . S
C1063 N1064 1.374 . S
C1063 C1097 1.395 . S
N1064 C1060 1.376 . S
N1064 C1063 1.374 . S
N1064 Co1065 2.008 . S
Co1065 N1064 2.008 . S
Co1065 N1066 1.995 . S
Co1065 N1071 2.008 . S
Co1065 N1076 1.995 . S
Co1065 N1081 2.282 . S
Co1065 N1087 2.282 . S
N1066 Co1065 1.995 . S
N1066 C1067 1.376 . S
N1066 C1070 1.383 . S
C1067 N1066 1.376 . S
C1067 C1068 1.446 . S
C1067 C1097 1.391 . S
C1068 C1067 1.446 . S
C1068 C1069 1.339 . S
C1068 H1103 0.949 . S
C1069 C1068 1.339 . S
C1069 C1070 1.439 . S
C1069 H1104 0.950 . S
C1070 N1066 1.383 . S
C1070 C1069 1.439 . S
C1070 C1099 1.392 . S
N1071 Co1065 2.008 . S
N1071 C1072 1.376 . S
N1071 C1075 1.374 . S
C1072 N1071 1.376 . S
C1072 C1073 1.443 . S
C1072 C1099 1.389 . S
C1073 C1072 1.443 . S
C1073 C1074 1.340 . S
C1073 H1105 0.951 . S
C1074 C1073 1.340 . S
C1074 C1075 1.439 . S
C1074 H1106 0.950 . S
C1075 N1071 1.374 . S
C1075 C1074 1.439 . S
C1075 C1100 1.395 . S
N1076 Co1065 1.995 . S
N1076 C1077 1.376 . S
N1076 C1080 1.383 . S
C1077 N1076 1.376 . S
C1077 C1078 1.446 . S
C1077 C1100 1.391 . S
C1078 C1077 1.446 . S
C1078 C1079 1.339 . S
C1078 H1107 0.949 . S
C1079 C1078 1.339 . S
C1079 C1080 1.439 . S
C1079 H1108 0.950 . S
C1080 N1076 1.383 . S
C1080 C1079 1.439 . S
C1080 C1098 1.392 . S
N1081 Co1065 2.282 . S
N1081 C1084 1.332 . S
N1081 C1086 1.332 . S
C1082 C1083 1.386 . S
C1082 C1085 1.388 . S
C1083 C1082 1.386 . S
C1083 C1084 1.382 . S
C1083 H1109 0.950 . S
C1084 N1081 1.332 . S
C1084 C1083 1.382 . S
C1084 H1095 0.952 . S
C1085 C1082 1.388 . S
C1085 C1086 1.382 . S
C1085 H1110 0.950 . S
C1086 N1081 1.332 . S
C1086 C1085 1.382 . S
C1086 H1096 0.948 . S
N1087 Co1065 2.282 . S
N1087 C1091 1.332 . S
N1087 C1092 1.332 . S
C1088 C1089 1.388 . S
C1088 C1092 1.382 . S
C1088 H1111 0.950 . S
C1089 C1088 1.388 . S
C1089 C1090 1.386 . S
C1090 C1089 1.386 . S
C1090 C1091 1.382 . S
C1090 H1112 0.950 . S
C1091 N1087 1.332 . S
C1091 C1090 1.382 . S
C1091 H1093 0.952 . S
C1092 N1087 1.332 . S
C1092 C1088 1.382 . S
C1092 H1094 0.948 . S
H1093 C1091 0.952 . S
H1094 C1092 0.948 . S
H1095 C1084 0.952 . S
H1096 C1086 0.948 . S
C1097 C1063 1.395 . S
C1097 C1067 1.391 . S
C1098 C1060 1.389 . S
C1098 C1080 1.392 . S
C1099 C1070 1.392 . S
C1099 C1072 1.389 . S
C1100 C1075 1.395 . S
C1100 C1077 1.391 . S
H1101 C1061 0.951 . S
H1102 C1062 0.950 . S
H1103 C1068 0.949 . S
H1104 C1069 0.950 . S
H1105 C1073 0.951 . S
H1106 C1074 0.950 . S
H1107 C1078 0.949 . S
H1108 C1079 0.950 . S
H1109 C1083 0.950 . S
H1110 C1085 0.950 . S
H1111 C1088 0.950 . S
H1112 C1090 0.950 . S
C1113 C1114 1.443 . S
C1113 N1117 1.376 . S
C1113 C1151 1.389 . S
C1114 C1113 1.443 . S
C1114 C1115 1.340 . S
C1114 H1154 0.951 . S
C1115 C1114 1.340 . S
C1115 C1116 1.439 . S
C1115 H1155 0.950 . S
C1116 C1115 1.439 . S
C1116 N1117 1.374 . S
C1116 C1150 1.395 . S
N1117 C1113 1.376 . S
N1117 C1116 1.374 . S
N1117 Co1118 2.008 . S
Co1118 N1117 2.008 . S
Co1118 N1119 1.995 . S
Co1118 N1124 2.008 . S
Co1118 N1129 1.995 . S
Co1118 N1134 2.282 . S
Co1118 N1140 2.282 . S
N1119 Co1118 1.995 . S
N1119 C1120 1.376 . S
N1119 C1123 1.383 . S
C1120 N1119 1.376 . S
C1120 C1121 1.446 . S
C1120 C1150 1.391 . S
C1121 C1120 1.446 . S
C1121 C1122 1.339 . S
C1121 H1156 0.949 . S
C1122 C1121 1.339 . S
C1122 C1123 1.439 . S
C1122 H1157 0.950 . S
C1123 N1119 1.383 . S
C1123 C1122 1.439 . S
C1123 C1152 1.392 . S
N1124 Co1118 2.008 . S
N1124 C1125 1.376 . S
N1124 C1128 1.374 . S
C1125 N1124 1.376 . S
C1125 C1126 1.443 . S
C1125 C1152 1.389 . S
C1126 C1125 1.443 . S
C1126 C1127 1.340 . S
C1126 H1158 0.951 . S
C1127 C1126 1.340 . S
C1127 C1128 1.439 . S
C1127 H1159 0.950 . S
C1128 N1124 1.374 . S
C1128 C1127 1.439 . S
C1128 C1153 1.395 . S
N1129 Co1118 1.995 . S
N1129 C1130 1.376 . S
N1129 C1133 1.383 . S
C1130 N1129 1.376 . S
C1130 C1131 1.446 . S
C1130 C1153 1.391 . S
C1131 C1130 1.446 . S
C1131 C1132 1.339 . S
C1131 H1160 0.949 . S
C1132 C1131 1.339 . S
C1132 C1133 1.439 . S
C1132 H1161 0.950 . S
C1133 N1129 1.383 . S
C1133 C1132 1.439 . S
C1133 C1151 1.392 . S
N1134 Co1118 2.282 . S
N1134 C1137 1.332 . S
N1134 C1139 1.332 . S
C1135 C1136 1.386 . S
C1135 C1138 1.388 . S
C1136 C1135 1.386 . S
C1136 C1137 1.382 . S
C1136 H1162 0.950 . S
C1137 N1134 1.332 . S
C1137 C1136 1.382 . S
C1137 H1148 0.952 . S
C1138 C1135 1.388 . S
C1138 C1139 1.382 . S
C1138 H1163 0.950 . S
C1139 N1134 1.332 . S
C1139 C1138 1.382 . S
C1139 H1149 0.948 . S
N1140 Co1118 2.282 . S
N1140 C1144 1.332 . S
N1140 C1145 1.332 . S
C1141 C1142 1.388 . S
C1141 C1145 1.382 . S
C1141 H1164 0.950 . S
C1142 C1141 1.388 . S
C1142 C1143 1.386 . S
C1143 C1142 1.386 . S
C1143 C1144 1.382 . S
C1143 H1165 0.950 . S
C1144 N1140 1.332 . S
C1144 C1143 1.382 . S
C1144 H1146 0.952 . S
C1145 N1140 1.332 . S
C1145 C1141 1.382 . S
C1145 H1147 0.948 . S
H1146 C1144 0.952 . S
H1147 C1145 0.948 . S
H1148 C1137 0.952 . S
H1149 C1139 0.948 . S
C1150 C1116 1.395 . S
C1150 C1120 1.391 . S
C1151 C1113 1.389 . S
C1151 C1133 1.392 . S
C1152 C1123 1.392 . S
C1152 C1125 1.389 . S
C1153 C1128 1.395 . S
C1153 C1130 1.391 . S
H1154 C1114 0.951 . S
H1155 C1115 0.950 . S
H1156 C1121 0.949 . S
H1157 C1122 0.950 . S
H1158 C1126 0.951 . S
H1159 C1127 0.950 . S
H1160 C1131 0.949 . S
H1161 C1132 0.950 . S
H1162 C1136 0.950 . S
H1163 C1138 0.950 . S
H1164 C1141 0.950 . S
H1165 C1143 0.950 . S
C1166 C1167 1.443 . S
C1166 N1170 1.376 . S
C1166 C1204 1.389 . S
C1167 C1166 1.443 . S
C1167 C1168 1.340 . S
C1167 H1207 0.951 . S
C1168 C1167 1.340 . S
C1168 C1169 1.439 . S
C1168 H1208 0.950 . S
C1169 C1168 1.439 . S
C1169 N1170 1.374 . S
C1169 C1203 1.395 . S
N1170 C1166 1.376 . S
N1170 C1169 1.374 . S
N1170 Co1171 2.008 . S
Co1171 N1170 2.008 . S
Co1171 N1172 1.995 . S
Co1171 N1177 2.008 . S
Co1171 N1182 1.995 . S
Co1171 N1187 2.282 . S
Co1171 N1193 2.282 . S
N1172 Co1171 1.995 . S
N1172 C1173 1.376 . S
N1172 C1176 1.383 . S
C1173 N1172 1.376 . S
C1173 C1174 1.446 . S
C1173 C1203 1.391 . S
C1174 C1173 1.446 . S
C1174 C1175 1.339 . S
C1174 H1209 0.949 . S
C1175 C1174 1.339 . S
C1175 C1176 1.439 . S
C1175 H1210 0.950 . S
C1176 N1172 1.383 . S
C1176 C1175 1.439 . S
C1176 C1205 1.392 . S
N1177 Co1171 2.008 . S
N1177 C1178 1.376 . S
N1177 C1181 1.374 . S
C1178 N1177 1.376 . S
C1178 C1179 1.443 . S
C1178 C1205 1.389 . S
C1179 C1178 1.443 . S
C1179 C1180 1.340 . S
C1179 H1211 0.951 . S
C1180 C1179 1.340 . S
C1180 C1181 1.439 . S
C1180 H1212 0.950 . S
C1181 N1177 1.374 . S
C1181 C1180 1.439 . S
C1181 C1206 1.395 . S
N1182 Co1171 1.995 . S
N1182 C1183 1.376 . S
N1182 C1186 1.383 . S
C1183 N1182 1.376 . S
C1183 C1184 1.446 . S
C1183 C1206 1.391 . S
C1184 C1183 1.446 . S
C1184 C1185 1.339 . S
C1184 H1213 0.949 . S
C1185 C1184 1.339 . S
C1185 C1186 1.439 . S
C1185 H1214 0.950 . S
C1186 N1182 1.383 . S
C1186 C1185 1.439 . S
C1186 C1204 1.392 . S
N1187 Co1171 2.282 . S
N1187 C1190 1.332 . S
N1187 C1192 1.332 . S
C1188 C1189 1.386 . S
C1188 C1191 1.388 . S
C1189 C1188 1.386 . S
C1189 C1190 1.382 . S
C1189 H1215 0.950 . S
C1190 N1187 1.332 . S
C1190 C1189 1.382 . S
C1190 H1201 0.952 . S
C1191 C1188 1.388 . S
C1191 C1192 1.382 . S
C1191 H1216 0.950 . S
C1192 N1187 1.332 . S
C1192 C1191 1.382 . S
C1192 H1202 0.948 . S
N1193 Co1171 2.282 . S
N1193 C1197 1.332 . S
N1193 C1198 1.332 . S
C1194 C1195 1.388 . S
C1194 C1198 1.382 . S
C1194 H1217 0.950 . S
C1195 C1194 1.388 . S
C1195 C1196 1.386 . S
C1196 C1195 1.386 . S
C1196 C1197 1.382 . S
C1196 H1218 0.950 . S
C1197 N1193 1.332 . S
C1197 C1196 1.382 . S
C1197 H1199 0.952 . S
C1198 N1193 1.332 . S
C1198 C1194 1.382 . S
C1198 H1200 0.948 . S
H1199 C1197 0.952 . S
H1200 C1198 0.948 . S
H1201 C1190 0.952 . S
H1202 C1192 0.948 . S
C1203 C1169 1.395 . S
C1203 C1173 1.391 . S
C1204 C1166 1.389 . S
C1204 C1186 1.392 . S
C1205 C1176 1.392 . S
C1205 C1178 1.389 . S
C1206 C1181 1.395 . S
C1206 C1183 1.391 . S
H1207 C1167 0.951 . S
H1208 C1168 0.950 . S
H1209 C1174 0.949 . S
H1210 C1175 0.950 . S
H1211 C1179 0.951 . S
H1212 C1180 0.950 . S
H1213 C1184 0.949 . S
H1214 C1185 0.950 . S
H1215 C1189 0.950 . S
H1216 C1191 0.950 . S
H1217 C1194 0.950 . S
H1218 C1196 0.950 . S
C1219 C1220 1.443 . S
C1219 N1223 1.376 . S
C1219 C1257 1.389 . S
C1220 C1219 1.443 . S
C1220 C1221 1.340 . S
C1220 H1260 0.951 . S
C1221 C1220 1.340 . S
C1221 C1222 1.439 . S
C1221 H1261 0.950 . S
C1222 C1221 1.439 . S
C1222 N1223 1.374 . S
C1222 C1256 1.395 . S
N1223 C1219 1.376 . S
N1223 C1222 1.374 . S
N1223 Co1224 2.008 . S
Co1224 N1223 2.008 . S
Co1224 N1225 1.995 . S
Co1224 N1230 2.008 . S
Co1224 N1235 1.995 . S
Co1224 N1240 2.282 . S
Co1224 N1246 2.282 . S
N1225 Co1224 1.995 . S
N1225 C1226 1.376 . S
N1225 C1229 1.383 . S
C1226 N1225 1.376 . S
C1226 C1227 1.446 . S
C1226 C1256 1.391 . S
C1227 C1226 1.446 . S
C1227 C1228 1.339 . S
C1227 H1262 0.949 . S
C1228 C1227 1.339 . S
C1228 C1229 1.439 . S
C1228 H1263 0.950 . S
C1229 N1225 1.383 . S
C1229 C1228 1.439 . S
C1229 C1258 1.392 . S
N1230 Co1224 2.008 . S
N1230 C1231 1.376 . S
N1230 C1234 1.374 . S
C1231 N1230 1.376 . S
C1231 C1232 1.443 . S
C1231 C1258 1.389 . S
C1232 C1231 1.443 . S
C1232 C1233 1.340 . S
C1232 H1264 0.951 . S
C1233 C1232 1.340 . S
C1233 C1234 1.439 . S
C1233 H1265 0.950 . S
C1234 N1230 1.374 . S
C1234 C1233 1.439 . S
C1234 C1259 1.395 . S
N1235 Co1224 1.995 . S
N1235 C1236 1.376 . S
N1235 C1239 1.383 . S
C1236 N1235 1.376 . S
C1236 C1237 1.446 . S
C1236 C1259 1.391 . S
C1237 C1236 1.446 . S
C1237 C1238 1.339 . S
C1237 H1266 0.949 . S
C1238 C1237 1.339 . S
C1238 C1239 1.439 . S
C1238 H1267 0.950 . S
C1239 N1235 1.383 . S
C1239 C1238 1.439 . S
C1239 C1257 1.392 . S
N1240 Co1224 2.282 . S
N1240 C1243 1.332 . S
N1240 C1245 1.332 . S
C1241 C1242 1.386 . S
C1241 C1244 1.388 . S
C1242 C1241 1.386 . S
C1242 C1243 1.382 . S
C1242 H1268 0.950 . S
C1243 N1240 1.332 . S
C1243 C1242 1.382 . S
C1243 H1254 0.952 . S
C1244 C1241 1.388 . S
C1244 C1245 1.382 . S
C1244 H1269 0.950 . S
C1245 N1240 1.332 . S
C1245 C1244 1.382 . S
C1245 H1255 0.948 . S
N1246 Co1224 2.282 . S
N1246 C1250 1.332 . S
N1246 C1251 1.332 . S
C1247 C1248 1.388 . S
C1247 C1251 1.382 . S
C1247 H1270 0.950 . S
C1248 C1247 1.388 . S
C1248 C1249 1.386 . S
C1249 C1248 1.386 . S
C1249 C1250 1.382 . S
C1249 H1271 0.950 . S
C1250 N1246 1.332 . S
C1250 C1249 1.382 . S
C1250 H1252 0.952 . S
C1251 N1246 1.332 . S
C1251 C1247 1.382 . S
C1251 H1253 0.948 . S
H1252 C1250 0.952 . S
H1253 C1251 0.948 . S
H1254 C1243 0.952 . S
H1255 C1245 0.948 . S
C1256 C1222 1.395 . S
C1256 C1226 1.391 . S
C1257 C1219 1.389 . S
C1257 C1239 1.392 . S
C1258 C1229 1.392 . S
C1258 C1231 1.389 . S
C1259 C1234 1.395 . S
C1259 C1236 1.391 . S
H1260 C1220 0.951 . S
H1261 C1221 0.950 . S
H1262 C1227 0.949 . S
H1263 C1228 0.950 . S
H1264 C1232 0.951 . S
H1265 C1233 0.950 . S
H1266 C1237 0.949 . S
H1267 C1238 0.950 . S
H1268 C1242 0.950 . S
H1269 C1244 0.950 . S
H1270 C1247 0.950 . S
H1271 C1249 0.950 . S
H1272 C1278 0.930 . S
H1273 C1281 0.930 . S
H1274 C1282 0.930 . S
H1275 C1283 0.930 . S
H1276 C1286 0.930 . S
H1277 C1287 0.930 . S
C1278 H1272 0.930 . S
C1278 C1279 1.355 . S
C1278 C1280 1.415 . S
C1279 C1278 1.355 . S
C1279 C1281 1.419 . S
C1280 C1278 1.415 . S
C1280 C1285 1.425 . S
C1280 C1287 1.409 . S
C1281 H1273 0.930 . S
C1281 C1279 1.419 . S
C1281 C1282 1.362 . S
C1282 H1274 0.930 . S
C1282 C1281 1.362 . S
C1282 C1285 1.409 . S
C1283 H1275 0.930 . S
C1283 C1284 1.355 . S
C1283 C1285 1.415 . S
C1284 C1283 1.355 . S
C1284 C1286 1.419 . S
C1285 C1280 1.425 . S
C1285 C1282 1.409 . S
C1285 C1283 1.415 . S
C1286 H1276 0.930 . S
C1286 C1284 1.419 . S
C1286 C1287 1.362 . S
C1287 H1277 0.930 . S
C1287 C1280 1.409 . S
C1287 C1286 1.362 . S
H1288 C1294 0.930 . S
H1289 C1297 0.930 . S
H1290 C1298 0.930 . S
H1291 C1299 0.930 . S
H1292 C1302 0.930 . S
H1293 C1303 0.930 . S
C1294 H1288 0.930 . S
C1294 C1295 1.355 . S
C1294 C1296 1.415 . S
C1295 C1294 1.355 . S
C1295 C1297 1.419 . S
C1296 C1294 1.415 . S
C1296 C1301 1.425 . S
C1296 C1303 1.409 . S
C1297 H1289 0.930 . S
C1297 C1295 1.419 . S
C1297 C1298 1.362 . S
C1298 H1290 0.930 . S
C1298 C1297 1.362 . S
C1298 C1301 1.409 . S
C1299 H1291 0.930 . S
C1299 C1300 1.355 . S
C1299 C1301 1.415 . S
C1300 C1299 1.355 . S
C1300 C1302 1.419 . S
C1301 C1296 1.425 . S
C1301 C1298 1.409 . S
C1301 C1299 1.415 . S
C1302 H1292 0.930 . S
C1302 C1300 1.419 . S
C1302 C1303 1.362 . S
C1303 H1293 0.930 . S
C1303 C1296 1.409 . S
C1303 C1302 1.362 . S
H1304 C1310 0.930 . S
H1305 C1313 0.930 . S
H1306 C1314 0.930 . S
H1307 C1315 0.930 . S
H1308 C1318 0.930 . S
H1309 C1319 0.930 . S
C1310 H1304 0.930 . S
C1310 C1311 1.355 . S
C1310 C1312 1.415 . S
C1311 C1310 1.355 . S
C1311 C1313 1.419 . S
C1312 C1310 1.415 . S
C1312 C1317 1.425 . S
C1312 C1319 1.409 . S
C1313 H1305 0.930 . S
C1313 C1311 1.419 . S
C1313 C1314 1.362 . S
C1314 H1306 0.930 . S
C1314 C1313 1.362 . S
C1314 C1317 1.409 . S
C1315 H1307 0.930 . S
C1315 C1316 1.355 . S
C1315 C1317 1.415 . S
C1316 C1315 1.355 . S
C1316 C1318 1.419 . S
C1317 C1312 1.425 . S
C1317 C1314 1.409 . S
C1317 C1315 1.415 . S
C1318 H1308 0.930 . S
C1318 C1316 1.419 . S
C1318 C1319 1.362 . S
C1319 H1309 0.930 . S
C1319 C1312 1.409 . S
C1319 C1318 1.362 . S
H1320 C1326 0.930 . S
H1321 C1329 0.930 . S
H1322 C1330 0.930 . S
H1323 C1331 0.930 . S
H1324 C1334 0.930 . S
H1325 C1335 0.930 . S
C1326 H1320 0.930 . S
C1326 C1327 1.355 . S
C1326 C1328 1.415 . S
C1327 C1326 1.355 . S
C1327 C1329 1.419 . S
C1328 C1326 1.415 . S
C1328 C1333 1.425 . S
C1328 C1335 1.409 . S
C1329 H1321 0.930 . S
C1329 C1327 1.419 . S
C1329 C1330 1.362 . S
C1330 H1322 0.930 . S
C1330 C1329 1.362 . S
C1330 C1333 1.409 . S
C1331 H1323 0.930 . S
C1331 C1332 1.355 . S
C1331 C1333 1.415 . S
C1332 C1331 1.355 . S
C1332 C1334 1.419 . S
C1333 C1328 1.425 . S
C1333 C1330 1.409 . S
C1333 C1331 1.415 . S
C1334 H1324 0.930 . S
C1334 C1332 1.419 . S
C1334 C1335 1.362 . S
C1335 H1325 0.930 . S
C1335 C1328 1.409 . S
C1335 C1334 1.362 . S
H1336 C1342 0.930 . S
H1337 C1345 0.930 . S
H1338 C1346 0.930 . S
H1339 C1347 0.930 . S
H1340 C1350 0.930 . S
H1341 C1351 0.930 . S
C1342 H1336 0.930 . S
C1342 C1343 1.355 . S
C1342 C1344 1.415 . S
C1343 C1342 1.355 . S
C1343 C1345 1.419 . S
C1344 C1342 1.415 . S
C1344 C1349 1.425 . S
C1344 C1351 1.409 . S
C1345 H1337 0.930 . S
C1345 C1343 1.419 . S
C1345 C1346 1.362 . S
C1346 H1338 0.930 . S
C1346 C1345 1.362 . S
C1346 C1349 1.409 . S
C1347 H1339 0.930 . S
C1347 C1348 1.355 . S
C1347 C1349 1.415 . S
C1348 C1347 1.355 . S
C1348 C1350 1.419 . S
C1349 C1344 1.425 . S
C1349 C1346 1.409 . S
C1349 C1347 1.415 . S
C1350 H1340 0.930 . S
C1350 C1348 1.419 . S
C1350 C1351 1.362 . S
C1351 H1341 0.930 . S
C1351 C1344 1.409 . S
C1351 C1350 1.362 . S
H1352 C1358 0.930 . S
H1353 C1361 0.930 . S
H1354 C1362 0.930 . S
H1355 C1363 0.930 . S
H1356 C1366 0.930 . S
H1357 C1367 0.930 . S
C1358 H1352 0.930 . S
C1358 C1359 1.355 . S
C1358 C1360 1.415 . S
C1359 C1358 1.355 . S
C1359 C1361 1.419 . S
C1360 C1358 1.415 . S
C1360 C1365 1.425 . S
C1360 C1367 1.409 . S
C1361 H1353 0.930 . S
C1361 C1359 1.419 . S
C1361 C1362 1.362 . S
C1362 H1354 0.930 . S
C1362 C1361 1.362 . S
C1362 C1365 1.409 . S
C1363 H1355 0.930 . S
C1363 C1364 1.355 . S
C1363 C1365 1.415 . S
C1364 C1363 1.355 . S
C1364 C1366 1.419 . S
C1365 C1360 1.425 . S
C1365 C1362 1.409 . S
C1365 C1363 1.415 . S
C1366 H1356 0.930 . S
C1366 C1364 1.419 . S
C1366 C1367 1.362 . S
C1367 H1357 0.930 . S
C1367 C1360 1.409 . S
C1367 C1366 1.362 . S
H1368 C1374 0.930 . S
H1369 C1377 0.930 . S
H1370 C1378 0.930 . S
H1371 C1379 0.930 . S
H1372 C1382 0.930 . S
H1373 C1383 0.930 . S
C1374 H1368 0.930 . S
C1374 C1375 1.355 . S
C1374 C1376 1.415 . S
C1375 C1374 1.355 . S
C1375 C1377 1.419 . S
C1376 C1374 1.415 . S
C1376 C1381 1.425 . S
C1376 C1383 1.409 . S
C1377 H1369 0.930 . S
C1377 C1375 1.419 . S
C1377 C1378 1.362 . S
C1378 H1370 0.930 . S
C1378 C1377 1.362 . S
C1378 C1381 1.409 . S
C1379 H1371 0.930 . S
C1379 C1380 1.355 . S
C1379 C1381 1.415 . S
C1380 C1379 1.355 . S
C1380 C1382 1.419 . S
C1381 C1376 1.425 . S
C1381 C1378 1.409 . S
C1381 C1379 1.415 . S
C1382 H1372 0.930 . S
C1382 C1380 1.419 . S
C1382 C1383 1.362 . S
C1383 H1373 0.930 . S
C1383 C1376 1.409 . S
C1383 C1382 1.362 . S
H1384 C1390 0.930 . S
H1385 C1393 0.930 . S
H1386 C1394 0.930 . S
H1387 C1395 0.930 . S
H1388 C1398 0.930 . S
H1389 C1399 0.930 . S
C1390 H1384 0.930 . S
C1390 C1391 1.355 . S
C1390 C1392 1.415 . S
C1391 C1390 1.355 . S
C1391 C1393 1.419 . S
C1392 C1390 1.415 . S
C1392 C1397 1.425 . S
C1392 C1399 1.409 . S
C1393 H1385 0.930 . S
C1393 C1391 1.419 . S
C1393 C1394 1.362 . S
C1394 H1386 0.930 . S
C1394 C1393 1.362 . S
C1394 C1397 1.409 . S
C1395 H1387 0.930 . S
C1395 C1396 1.355 . S
C1395 C1397 1.415 . S
C1396 C1395 1.355 . S
C1396 C1398 1.419 . S
C1397 C1392 1.425 . S
C1397 C1394 1.409 . S
C1397 C1395 1.415 . S
C1398 H1388 0.930 . S
C1398 C1396 1.419 . S
C1398 C1399 1.362 . S
C1399 H1389 0.930 . S
C1399 C1392 1.409 . S
C1399 C1398 1.362 . S
H1400 C1406 0.930 . S
H1401 C1409 0.930 . S
H1402 C1410 0.930 . S
H1403 C1411 0.930 . S
H1404 C1414 0.930 . S
H1405 C1415 0.930 . S
C1406 H1400 0.930 . S
C1406 C1407 1.355 . S
C1406 C1408 1.415 . S
C1407 C1406 1.355 . S
C1407 C1409 1.419 . S
C1408 C1406 1.415 . S
C1408 C1413 1.425 . S
C1408 C1415 1.409 . S
C1409 H1401 0.930 . S
C1409 C1407 1.419 . S
C1409 C1410 1.362 . S
C1410 H1402 0.930 . S
C1410 C1409 1.362 . S
C1410 C1413 1.409 . S
C1411 H1403 0.930 . S
C1411 C1412 1.355 . S
C1411 C1413 1.415 . S
C1412 C1411 1.355 . S
C1412 C1414 1.419 . S
C1413 C1408 1.425 . S
C1413 C1410 1.409 . S
C1413 C1411 1.415 . S
C1414 H1404 0.930 . S
C1414 C1412 1.419 . S
C1414 C1415 1.362 . S
C1415 H1405 0.930 . S
C1415 C1408 1.409 . S
C1415 C1414 1.362 . S
H1416 C1422 0.930 . S
H1417 C1425 0.930 . S
H1418 C1426 0.930 . S
H1419 C1427 0.930 . S
H1420 C1430 0.930 . S
H1421 C1431 0.930 . S
C1422 H1416 0.930 . S
C1422 C1423 1.355 . S
C1422 C1424 1.415 . S
C1423 C1422 1.355 . S
C1423 C1425 1.419 . S
C1424 C1422 1.415 . S
C1424 C1429 1.425 . S
C1424 C1431 1.409 . S
C1425 H1417 0.930 . S
C1425 C1423 1.419 . S
C1425 C1426 1.362 . S
C1426 H1418 0.930 . S
C1426 C1425 1.362 . S
C1426 C1429 1.409 . S
C1427 H1419 0.930 . S
C1427 C1428 1.355 . S
C1427 C1429 1.415 . S
C1428 C1427 1.355 . S
C1428 C1430 1.419 . S
C1429 C1424 1.425 . S
C1429 C1426 1.409 . S
C1429 C1427 1.415 . S
C1430 H1420 0.930 . S
C1430 C1428 1.419 . S
C1430 C1431 1.362 . S
C1431 H1421 0.930 . S
C1431 C1424 1.409 . S
C1431 C1430 1.362 . S
H1432 C1438 0.930 . S
H1433 C1441 0.930 . S
H1434 C1442 0.930 . S
H1435 C1443 0.930 . S
H1436 C1446 0.930 . S
H1437 C1447 0.930 . S
C1438 H1432 0.930 . S
C1438 C1439 1.355 . S
C1438 C1440 1.415 . S
C1439 C1438 1.355 . S
C1439 C1441 1.419 . S
C1440 C1438 1.415 . S
C1440 C1445 1.425 . S
C1440 C1447 1.409 . S
C1441 H1433 0.930 . S
C1441 C1439 1.419 . S
C1441 C1442 1.362 . S
C1442 H1434 0.930 . S
C1442 C1441 1.362 . S
C1442 C1445 1.409 . S
C1443 H1435 0.930 . S
C1443 C1444 1.355 . S
C1443 C1445 1.415 . S
C1444 C1443 1.355 . S
C1444 C1446 1.419 . S
C1445 C1440 1.425 . S
C1445 C1442 1.409 . S
C1445 C1443 1.415 . S
C1446 H1436 0.930 . S
C1446 C1444 1.419 . S
C1446 C1447 1.362 . S
C1447 H1437 0.930 . S
C1447 C1440 1.409 . S
C1447 C1446 1.362 . S
H1448 C1454 0.930 . S
H1449 C1457 0.930 . S
H1450 C1458 0.930 . S
H1451 C1459 0.930 . S
H1452 C1462 0.930 . S
H1453 C1463 0.930 . S
C1454 H1448 0.930 . S
C1454 C1455 1.355 . S
C1454 C1456 1.415 . S
C1455 C1454 1.355 . S
C1455 C1457 1.419 . S
C1456 C1454 1.415 . S
C1456 C1461 1.425 . S
C1456 C1463 1.409 . S
C1457 H1449 0.930 . S
C1457 C1455 1.419 . S
C1457 C1458 1.362 . S
C1458 H1450 0.930 . S
C1458 C1457 1.362 . S
C1458 C1461 1.409 . S
C1459 H1451 0.930 . S
C1459 C1460 1.355 . S
C1459 C1461 1.415 . S
C1460 C1459 1.355 . S
C1460 C1462 1.419 . S
C1461 C1456 1.425 . S
C1461 C1458 1.409 . S
C1461 C1459 1.415 . S
C1462 H1452 0.930 . S
C1462 C1460 1.419 . S
C1462 C1463 1.362 . S
C1463 H1453 0.930 . S
C1463 C1456 1.409 . S
C1463 C1462 1.362 . S
H1464 C1470 0.930 . S
H1465 C1473 0.930 . S
H1466 C1474 0.930 . S
H1467 C1475 0.930 . S
H1468 C1478 0.930 . S
H1469 C1479 0.930 . S
C1470 H1464 0.930 . S
C1470 C1471 1.355 . S
C1470 C1472 1.415 . S
C1471 C1470 1.355 . S
C1471 C1473 1.419 . S
C1472 C1470 1.415 . S
C1472 C1477 1.425 . S
C1472 C1479 1.409 . S
C1473 H1465 0.930 . S
C1473 C1471 1.419 . S
C1473 C1474 1.362 . S
C1474 H1466 0.930 . S
C1474 C1473 1.362 . S
C1474 C1477 1.409 . S
C1475 H1467 0.930 . S
C1475 C1476 1.355 . S
C1475 C1477 1.415 . S
C1476 C1475 1.355 . S
C1476 C1478 1.419 . S
C1477 C1472 1.425 . S
C1477 C1474 1.409 . S
C1477 C1475 1.415 . S
C1478 H1468 0.930 . S
C1478 C1476 1.419 . S
C1478 C1479 1.362 . S
C1479 H1469 0.930 . S
C1479 C1472 1.409 . S
C1479 C1478 1.362 . S
H1480 C1486 0.930 . S
H1481 C1489 0.930 . S
H1482 C1490 0.930 . S
H1483 C1491 0.930 . S
H1484 C1494 0.930 . S
H1485 C1495 0.930 . S
C1486 H1480 0.930 . S
C1486 C1487 1.355 . S
C1486 C1488 1.415 . S
C1487 C1486 1.355 . S
C1487 C1489 1.419 . S
C1488 C1486 1.415 . S
C1488 C1493 1.425 . S
C1488 C1495 1.409 . S
C1489 H1481 0.930 . S
C1489 C1487 1.419 . S
C1489 C1490 1.362 . S
C1490 H1482 0.930 . S
C1490 C1489 1.362 . S
C1490 C1493 1.409 . S
C1491 H1483 0.930 . S
C1491 C1492 1.355 . S
C1491 C1493 1.415 . S
C1492 C1491 1.355 . S
C1492 C1494 1.419 . S
C1493 C1488 1.425 . S
C1493 C1490 1.409 . S
C1493 C1491 1.415 . S
C1494 H1484 0.930 . S
C1494 C1492 1.419 . S
C1494 C1495 1.362 . S
C1495 H1485 0.930 . S
C1495 C1488 1.409 . S
C1495 C1494 1.362 . S
H1496 C1502 0.930 . S
H1497 C1505 0.930 . S
H1498 C1506 0.930 . S
H1499 C1507 0.930 . S
H1500 C1510 0.930 . S
H1501 C1511 0.930 . S
C1502 H1496 0.930 . S
C1502 C1503 1.355 . S
C1502 C1504 1.415 . S
C1503 C1502 1.355 . S
C1503 C1505 1.419 . S
C1504 C1502 1.415 . S
C1504 C1509 1.425 . S
C1504 C1511 1.409 . S
C1505 H1497 0.930 . S
C1505 C1503 1.419 . S
C1505 C1506 1.362 . S
C1506 H1498 0.930 . S
C1506 C1505 1.362 . S
C1506 C1509 1.409 . S
C1507 H1499 0.930 . S
C1507 C1508 1.355 . S
C1507 C1509 1.415 . S
C1508 C1507 1.355 . S
C1508 C1510 1.419 . S
C1509 C1504 1.425 . S
C1509 C1506 1.409 . S
C1509 C1507 1.415 . S
C1510 H1500 0.930 . S
C1510 C1508 1.419 . S
C1510 C1511 1.362 . S
C1511 H1501 0.930 . S
C1511 C1504 1.409 . S
C1511 C1510 1.362 . S
H1512 C1518 0.930 . S
H1513 C1521 0.930 . S
H1514 C1522 0.930 . S
H1515 C1523 0.930 . S
H1516 C1526 0.930 . S
H1517 C1527 0.930 . S
C1518 H1512 0.930 . S
C1518 C1519 1.355 . S
C1518 C1520 1.415 . S
C1519 C1518 1.355 . S
C1519 C1521 1.419 . S
C1520 C1518 1.415 . S
C1520 C1525 1.425 . S
C1520 C1527 1.409 . S
C1521 H1513 0.930 . S
C1521 C1519 1.419 . S
C1521 C1522 1.362 . S
C1522 H1514 0.930 . S
C1522 C1521 1.362 . S
C1522 C1525 1.409 . S
C1523 H1515 0.930 . S
C1523 C1524 1.355 . S
C1523 C1525 1.415 . S
C1524 C1523 1.355 . S
C1524 C1526 1.419 . S
C1525 C1520 1.425 . S
C1525 C1522 1.409 . S
C1525 C1523 1.415 . S
C1526 H1516 0.930 . S
C1526 C1524 1.419 . S
C1526 C1527 1.362 . S
C1527 H1517 0.930 . S
C1527 C1520 1.409 . S
C1527 C1526 1.362 . S
H1528 C1534 0.930 . S
H1529 C1537 0.930 . S
H1530 C1538 0.930 . S
H1531 C1539 0.930 . S
H1532 C1542 0.930 . S
H1533 C1543 0.930 . S
C1534 H1528 0.930 . S
C1534 C1535 1.355 . S
C1534 C1536 1.415 . S
C1535 C1534 1.355 . S
C1535 C1537 1.419 . S
C1536 C1534 1.415 . S
C1536 C1541 1.425 . S
C1536 C1543 1.409 . S
C1537 H1529 0.930 . S
C1537 C1535 1.419 . S
C1537 C1538 1.362 . S
C1538 H1530 0.930 . S
C1538 C1537 1.362 . S
C1538 C1541 1.409 . S
C1539 H1531 0.930 . S
C1539 C1540 1.355 . S
C1539 C1541 1.415 . S
C1540 C1539 1.355 . S
C1540 C1542 1.419 . S
C1541 C1536 1.425 . S
C1541 C1538 1.409 . S
C1541 C1539 1.415 . S
C1542 H1532 0.930 . S
C1542 C1540 1.419 . S
C1542 C1543 1.362 . S
C1543 H1533 0.930 . S
C1543 C1536 1.409 . S
C1543 C1542 1.362 . S
H1544 C1550 0.930 . S
H1545 C1553 0.930 . S
H1546 C1554 0.930 . S
H1547 C1555 0.930 . S
H1548 C1558 0.930 . S
H1549 C1559 0.930 . S
C1550 H1544 0.930 . S
C1550 C1551 1.355 . S
C1550 C1552 1.415 . S
C1551 C1550 1.355 . S
C1551 C1553 1.419 . S
C1552 C1550 1.415 . S
C1552 C1557 1.425 . S
C1552 C1559 1.409 . S
C1553 H1545 0.930 . S
C1553 C1551 1.419 . S
C1553 C1554 1.362 . S
C1554 H1546 0.930 . S
C1554 C1553 1.362 . S
C1554 C1557 1.409 . S
C1555 H1547 0.930 . S
C1555 C1556 1.355 . S
C1555 C1557 1.415 . S
C1556 C1555 1.355 . S
C1556 C1558 1.419 . S
C1557 C1552 1.425 . S
C1557 C1554 1.409 . S
C1557 C1555 1.415 . S
C1558 H1548 0.930 . S
C1558 C1556 1.419 . S
C1558 C1559 1.362 . S
C1559 H1549 0.930 . S
C1559 C1552 1.409 . S
C1559 C1558 1.362 . S
H1560 C1566 0.930 . S
H1561 C1569 0.930 . S
H1562 C1570 0.930 . S
H1563 C1571 0.930 . S
H1564 C1574 0.930 . S
H1565 C1575 0.930 . S
C1566 H1560 0.930 . S
C1566 C1567 1.355 . S
C1566 C1568 1.415 . S
C1567 C1566 1.355 . S
C1567 C1569 1.419 . S
C1568 C1566 1.415 . S
C1568 C1573 1.425 . S
C1568 C1575 1.409 . S
C1569 H1561 0.930 . S
C1569 C1567 1.419 . S
C1569 C1570 1.362 . S
C1570 H1562 0.930 . S
C1570 C1569 1.362 . S
C1570 C1573 1.409 . S
C1571 H1563 0.930 . S
C1571 C1572 1.355 . S
C1571 C1573 1.415 . S
C1572 C1571 1.355 . S
C1572 C1574 1.419 . S
C1573 C1568 1.425 . S
C1573 C1570 1.409 . S
C1573 C1571 1.415 . S
C1574 H1564 0.930 . S
C1574 C1572 1.419 . S
C1574 C1575 1.362 . S
C1575 H1565 0.930 . S
C1575 C1568 1.409 . S
C1575 C1574 1.362 . S
H1576 C1582 0.930 . S
H1577 C1585 0.930 . S
H1578 C1586 0.930 . S
H1579 C1587 0.930 . S
H1580 C1590 0.930 . S
H1581 C1591 0.930 . S
C1582 H1576 0.930 . S
C1582 C1583 1.355 . S
C1582 C1584 1.415 . S
C1583 C1582 1.355 . S
C1583 C1585 1.419 . S
C1584 C1582 1.415 . S
C1584 C1589 1.425 . S
C1584 C1591 1.409 . S
C1585 H1577 0.930 . S
C1585 C1583 1.419 . S
C1585 C1586 1.362 . S
C1586 H1578 0.930 . S
C1586 C1585 1.362 . S
C1586 C1589 1.409 . S
C1587 H1579 0.930 . S
C1587 C1588 1.355 . S
C1587 C1589 1.415 . S
C1588 C1587 1.355 . S
C1588 C1590 1.419 . S
C1589 C1584 1.425 . S
C1589 C1586 1.409 . S
C1589 C1587 1.415 . S
C1590 H1580 0.930 . S
C1590 C1588 1.419 . S
C1590 C1591 1.362 . S
C1591 H1581 0.930 . S
C1591 C1584 1.409 . S
C1591 C1590 1.362 . S
H1592 C1598 0.930 . S
H1593 C1601 0.930 . S
H1594 C1602 0.930 . S
H1595 C1603 0.930 . S
H1596 C1606 0.930 . S
H1597 C1607 0.930 . S
C1598 H1592 0.930 . S
C1598 C1599 1.355 . S
C1598 C1600 1.415 . S
C1599 C1598 1.355 . S
C1599 C1601 1.419 . S
C1600 C1598 1.415 . S
C1600 C1605 1.425 . S
C1600 C1607 1.409 . S
C1601 H1593 0.930 . S
C1601 C1599 1.419 . S
C1601 C1602 1.362 . S
C1602 H1594 0.930 . S
C1602 C1601 1.362 . S
C1602 C1605 1.409 . S
C1603 H1595 0.930 . S
C1603 C1604 1.355 . S
C1603 C1605 1.415 . S
C1604 C1603 1.355 . S
C1604 C1606 1.419 . S
C1605 C1600 1.425 . S
C1605 C1602 1.409 . S
C1605 C1603 1.415 . S
C1606 H1596 0.930 . S
C1606 C1604 1.419 . S
C1606 C1607 1.362 . S
C1607 H1597 0.930 . S
C1607 C1600 1.409 . S
C1607 C1606 1.362 . S
H1608 C1614 0.930 . S
H1609 C1617 0.930 . S
H1610 C1618 0.930 . S
H1611 C1619 0.930 . S
H1612 C1622 0.930 . S
H1613 C1623 0.930 . S
C1614 H1608 0.930 . S
C1614 C1615 1.355 . S
C1614 C1616 1.415 . S
C1615 C1614 1.355 . S
C1615 C1617 1.419 . S
C1616 C1614 1.415 . S
C1616 C1621 1.425 . S
C1616 C1623 1.409 . S
C1617 H1609 0.930 . S
C1617 C1615 1.419 . S
C1617 C1618 1.362 . S
C1618 H1610 0.930 . S
C1618 C1617 1.362 . S
C1618 C1621 1.409 . S
C1619 H1611 0.930 . S
C1619 C1620 1.355 . S
C1619 C1621 1.415 . S
C1620 C1619 1.355 . S
C1620 C1622 1.419 . S
C1621 C1616 1.425 . S
C1621 C1618 1.409 . S
C1621 C1619 1.415 . S
C1622 H1612 0.930 . S
C1622 C1620 1.419 . S
C1622 C1623 1.362 . S
C1623 H1613 0.930 . S
C1623 C1616 1.409 . S
C1623 C1622 1.362 . S
H1624 C1630 0.930 . S
H1625 C1633 0.930 . S
H1626 C1634 0.930 . S
H1627 C1635 0.930 . S
H1628 C1638 0.930 . S
H1629 C1639 0.930 . S
C1630 H1624 0.930 . S
C1630 C1631 1.355 . S
C1630 C1632 1.415 . S
C1631 C1630 1.355 . S
C1631 C1633 1.419 . S
C1632 C1630 1.415 . S
C1632 C1637 1.425 . S
C1632 C1639 1.409 . S
C1633 H1625 0.930 . S
C1633 C1631 1.419 . S
C1633 C1634 1.362 . S
C1634 H1626 0.930 . S
C1634 C1633 1.362 . S
C1634 C1637 1.409 . S
C1635 H1627 0.930 . S
C1635 C1636 1.355 . S
C1635 C1637 1.415 . S
C1636 C1635 1.355 . S
C1636 C1638 1.419 . S
C1637 C1632 1.425 . S
C1637 C1634 1.409 . S
C1637 C1635 1.415 . S
C1638 H1628 0.930 . S
C1638 C1636 1.419 . S
C1638 C1639 1.362 . S
C1639 H1629 0.930 . S
C1639 C1632 1.409 . S
C1639 C1638 1.362 . S
H1640 C1646 0.930 . S
H1641 C1649 0.930 . S
H1642 C1650 0.930 . S
H1643 C1651 0.930 . S
H1644 C1654 0.930 . S
H1645 C1655 0.930 . S
C1646 H1640 0.930 . S
C1646 C1647 1.355 . S
C1646 C1648 1.415 . S
C1647 C1646 1.355 . S
C1647 C1649 1.419 . S
C1648 C1646 1.415 . S
C1648 C1653 1.425 . S
C1648 C1655 1.409 . S
C1649 H1641 0.930 . S
C1649 C1647 1.419 . S
C1649 C1650 1.362 . S
C1650 H1642 0.930 . S
C1650 C1649 1.362 . S
C1650 C1653 1.409 . S
C1651 H1643 0.930 . S
C1651 C1652 1.355 . S
C1651 C1653 1.415 . S
C1652 C1651 1.355 . S
C1652 C1654 1.419 . S
C1653 C1648 1.425 . S
C1653 C1650 1.409 . S
C1653 C1651 1.415 . S
C1654 H1644 0.930 . S
C1654 C1652 1.419 . S
C1654 C1655 1.362 . S
C1655 H1645 0.930 . S
C1655 C1648 1.409 . S
C1655 C1654 1.362 . S
H1656 C1662 0.930 . S
H1657 C1665 0.930 . S
H1658 C1666 0.930 . S
H1659 C1667 0.930 . S
H1660 C1670 0.930 . S
H1661 C1671 0.930 . S
C1662 H1656 0.930 . S
C1662 C1663 1.355 . S
C1662 C1664 1.415 . S
C1663 C1662 1.355 . S
C1663 C1665 1.419 . S
C1664 C1662 1.415 . S
C1664 C1669 1.425 . S
C1664 C1671 1.409 . S
C1665 H1657 0.930 . S
C1665 C1663 1.419 . S
C1665 C1666 1.362 . S
C1666 H1658 0.930 . S
C1666 C1665 1.362 . S
C1666 C1669 1.409 . S
C1667 H1659 0.930 . S
C1667 C1668 1.355 . S
C1667 C1669 1.415 . S
C1668 C1667 1.355 . S
C1668 C1670 1.419 . S
C1669 C1664 1.425 . S
C1669 C1666 1.409 . S
C1669 C1667 1.415 . S
C1670 H1660 0.930 . S
C1670 C1668 1.419 . S
C1670 C1671 1.362 . S
C1671 H1661 0.930 . S
C1671 C1664 1.409 . S
C1671 C1670 1.362 . S
H1672 C1678 0.930 . S
H1673 C1681 0.930 . S
H1674 C1682 0.930 . S
H1675 C1683 0.930 . S
H1676 C1686 0.930 . S
H1677 C1687 0.930 . S
C1678 H1672 0.930 . S
C1678 C1679 1.355 . S
C1678 C1680 1.415 . S
C1679 C1678 1.355 . S
C1679 C1681 1.419 . S
C1680 C1678 1.415 . S
C1680 C1685 1.425 . S
C1680 C1687 1.409 . S
C1681 H1673 0.930 . S
C1681 C1679 1.419 . S
C1681 C1682 1.362 . S
C1682 H1674 0.930 . S
C1682 C1681 1.362 . S
C1682 C1685 1.409 . S
C1683 H1675 0.930 . S
C1683 C1684 1.355 . S
C1683 C1685 1.415 . S
C1684 C1683 1.355 . S
C1684 C1686 1.419 . S
C1685 C1680 1.425 . S
C1685 C1682 1.409 . S
C1685 C1683 1.415 . S
C1686 H1676 0.930 . S
C1686 C1684 1.419 . S
C1686 C1687 1.362 . S
C1687 H1677 0.930 . S
C1687 C1680 1.409 . S
C1687 C1686 1.362 . S
H1688 C1694 0.930 . S
H1689 C1697 0.930 . S
H1690 C1698 0.930 . S
H1691 C1699 0.930 . S
H1692 C1702 0.930 . S
H1693 C1703 0.930 . S
C1694 H1688 0.930 . S
C1694 C1695 1.355 . S
C1694 C1696 1.415 . S
C1695 C1694 1.355 . S
C1695 C1697 1.419 . S
C1696 C1694 1.415 . S
C1696 C1701 1.425 . S
C1696 C1703 1.409 . S
C1697 H1689 0.930 . S
C1697 C1695 1.419 . S
C1697 C1698 1.362 . S
C1698 H1690 0.930 . S
C1698 C1697 1.362 . S
C1698 C1701 1.409 . S
C1699 H1691 0.930 . S
C1699 C1700 1.355 . S
C1699 C1701 1.415 . S
C1700 C1699 1.355 . S
C1700 C1702 1.419 . S
C1701 C1696 1.425 . S
C1701 C1698 1.409 . S
C1701 C1699 1.415 . S
C1702 H1692 0.930 . S
C1702 C1700 1.419 . S
C1702 C1703 1.362 . S
C1703 H1693 0.930 . S
C1703 C1696 1.409 . S
C1703 C1702 1.362 . S
H1704 C1710 0.930 . S
H1705 C1713 0.930 . S
H1706 C1714 0.930 . S
H1707 C1715 0.930 . S
H1708 C1718 0.930 . S
H1709 C1719 0.930 . S
C1710 H1704 0.930 . S
C1710 C1711 1.355 . S
C1710 C1712 1.415 . S
C1711 C1710 1.355 . S
C1711 C1713 1.419 . S
C1712 C1710 1.415 . S
C1712 C1717 1.425 . S
C1712 C1719 1.409 . S
C1713 H1705 0.930 . S
C1713 C1711 1.419 . S
C1713 C1714 1.362 . S
C1714 H1706 0.930 . S
C1714 C1713 1.362 . S
C1714 C1717 1.409 . S
C1715 H1707 0.930 . S
C1715 C1716 1.355 . S
C1715 C1717 1.415 . S
C1716 C1715 1.355 . S
C1716 C1718 1.419 . S
C1717 C1712 1.425 . S
C1717 C1714 1.409 . S
C1717 C1715 1.415 . S
C1718 H1708 0.930 . S
C1718 C1716 1.419 . S
C1718 C1719 1.362 . S
C1719 H1709 0.930 . S
C1719 C1712 1.409 . S
C1719 C1718 1.362 . S
H1720 C1726 0.930 . S
H1721 C1729 0.930 . S
H1722 C1730 0.930 . S
H1723 C1731 0.930 . S
H1724 C1734 0.930 . S
H1725 C1735 0.930 . S
C1726 H1720 0.930 . S
C1726 C1727 1.355 . S
C1726 C1728 1.415 . S
C1727 C1726 1.355 . S
C1727 C1729 1.419 . S
C1728 C1726 1.415 . S
C1728 C1733 1.425 . S
C1728 C1735 1.409 . S
C1729 H1721 0.930 . S
C1729 C1727 1.419 . S
C1729 C1730 1.362 . S
C1730 H1722 0.930 . S
C1730 C1729 1.362 . S
C1730 C1733 1.409 . S
C1731 H1723 0.930 . S
C1731 C1732 1.355 . S
C1731 C1733 1.415 . S
C1732 C1731 1.355 . S
C1732 C1734 1.419 . S
C1733 C1728 1.425 . S
C1733 C1730 1.409 . S
C1733 C1731 1.415 . S
C1734 H1724 0.930 . S
C1734 C1732 1.419 . S
C1734 C1735 1.362 . S
C1735 H1725 0.930 . S
C1735 C1728 1.409 . S
C1735 C1734 1.362 . S
H1736 C1742 0.930 . S
H1737 C1745 0.930 . S
H1738 C1746 0.930 . S
H1739 C1747 0.930 . S
H1740 C1750 0.930 . S
H1741 C1751 0.930 . S
C1742 H1736 0.930 . S
C1742 C1743 1.355 . S
C1742 C1744 1.415 . S
C1743 C1742 1.355 . S
C1743 C1745 1.419 . S
C1744 C1742 1.415 . S
C1744 C1749 1.425 . S
C1744 C1751 1.409 . S
C1745 H1737 0.930 . S
C1745 C1743 1.419 . S
C1745 C1746 1.362 . S
C1746 H1738 0.930 . S
C1746 C1745 1.362 . S
C1746 C1749 1.409 . S
C1747 H1739 0.930 . S
C1747 C1748 1.355 . S
C1747 C1749 1.415 . S
C1748 C1747 1.355 . S
C1748 C1750 1.419 . S
C1749 C1744 1.425 . S
C1749 C1746 1.409 . S
C1749 C1747 1.415 . S
C1750 H1740 0.930 . S
C1750 C1748 1.419 . S
C1750 C1751 1.362 . S
C1751 H1741 0.930 . S
C1751 C1744 1.409 . S
C1751 C1750 1.362 . S
H1752 C1758 0.930 . S
H1753 C1761 0.930 . S
H1754 C1762 0.930 . S
H1755 C1763 0.930 . S
H1756 C1766 0.930 . S
H1757 C1767 0.930 . S
C1758 H1752 0.930 . S
C1758 C1759 1.355 . S
C1758 C1760 1.415 . S
C1759 C1758 1.355 . S
C1759 C1761 1.419 . S
C1760 C1758 1.415 . S
C1760 C1765 1.425 . S
C1760 C1767 1.409 . S
C1761 H1753 0.930 . S
C1761 C1759 1.419 . S
C1761 C1762 1.362 . S
C1762 H1754 0.930 . S
C1762 C1761 1.362 . S
C1762 C1765 1.409 . S
C1763 H1755 0.930 . S
C1763 C1764 1.355 . S
C1763 C1765 1.415 . S
C1764 C1763 1.355 . S
C1764 C1766 1.419 . S
C1765 C1760 1.425 . S
C1765 C1762 1.409 . S
C1765 C1763 1.415 . S
C1766 H1756 0.930 . S
C1766 C1764 1.419 . S
C1766 C1767 1.362 . S
C1767 H1757 0.930 . S
C1767 C1760 1.409 . S
C1767 C1766 1.362 . S
H1768 C1774 0.930 . S
H1769 C1777 0.930 . S
H1770 C1778 0.930 . S
H1771 C1779 0.930 . S
H1772 C1782 0.930 . S
H1773 C1783 0.930 . S
C1774 H1768 0.930 . S
C1774 C1775 1.355 . S
C1774 C1776 1.415 . S
C1775 C1774 1.355 . S
C1775 C1777 1.419 . S
C1776 C1774 1.415 . S
C1776 C1781 1.425 . S
C1776 C1783 1.409 . S
C1777 H1769 0.930 . S
C1777 C1775 1.419 . S
C1777 C1778 1.362 . S
C1778 H1770 0.930 . S
C1778 C1777 1.362 . S
C1778 C1781 1.409 . S
C1779 H1771 0.930 . S
C1779 C1780 1.355 . S
C1779 C1781 1.415 . S
C1780 C1779 1.355 . S
C1780 C1782 1.419 . S
C1781 C1776 1.425 . S
C1781 C1778 1.409 . S
C1781 C1779 1.415 . S
C1782 H1772 0.930 . S
C1782 C1780 1.419 . S
C1782 C1783 1.362 . S
C1783 H1773 0.930 . S
C1783 C1776 1.409 . S
C1783 C1782 1.362 . S
H1784 C1790 0.930 . S
H1785 C1793 0.930 1_554 S
H1786 C1794 0.930 . S
H1787 C1795 0.930 . S
H1788 C1798 0.930 . S
H1789 C1799 0.930 . S
C1790 H1784 0.930 . S
C1790 C1791 1.355 . S
C1790 C1792 1.415 . S
C1791 C1790 1.355 . S
C1791 C1793 1.419 . S
C1792 C1790 1.415 . S
C1792 C1797 1.425 . S
C1792 C1799 1.409 . S
C1793 H1785 0.930 1_556 S
C1793 C1791 1.419 . S
C1793 C1794 1.362 . S
C1794 H1786 0.930 . S
C1794 C1793 1.362 . S
C1794 C1797 1.409 . S
C1795 H1787 0.930 . S
C1795 C1796 1.355 . S
C1795 C1797 1.415 . S
C1796 C1795 1.355 . S
C1796 C1798 1.419 . S
C1797 C1792 1.425 . S
C1797 C1794 1.409 . S
C1797 C1795 1.415 . S
C1798 H1788 0.930 . S
C1798 C1796 1.419 . S
C1798 C1799 1.362 . S
C1799 H1789 0.930 . S
C1799 C1792 1.409 . S
C1799 C1798 1.362 . S
H1800 C1806 0.930 . S
H1801 C1809 0.930 . S
H1802 C1810 0.930 . S
H1803 C1811 0.930 . S
H1804 C1814 0.930 . S
H1805 C1815 0.930 . S
C1806 H1800 0.930 . S
C1806 C1807 1.355 . S
C1806 C1808 1.415 . S
C1807 C1806 1.355 . S
C1807 C1809 1.419 . S
C1808 C1806 1.415 . S
C1808 C1813 1.425 . S
C1808 C1815 1.409 . S
C1809 H1801 0.930 . S
C1809 C1807 1.419 . S
C1809 C1810 1.362 . S
C1810 H1802 0.930 . S
C1810 C1809 1.362 . S
C1810 C1813 1.409 . S
C1811 H1803 0.930 . S
C1811 C1812 1.355 . S
C1811 C1813 1.415 . S
C1812 C1811 1.355 . S
C1812 C1814 1.419 . S
C1813 C1808 1.425 . S
C1813 C1810 1.409 . S
C1813 C1811 1.415 . S
C1814 H1804 0.930 . S
C1814 C1812 1.419 . S
C1814 C1815 1.362 . S
C1815 H1805 0.930 . S
C1815 C1808 1.409 . S
C1815 C1814 1.362 . S
H1816 C1822 0.930 . S
H1817 C1825 0.930 . S
H1818 C1826 0.930 . S
H1819 C1827 0.930 . S
H1820 C1830 0.930 . S
H1821 C1831 0.930 . S
C1822 H1816 0.930 . S
C1822 C1823 1.355 . S
C1822 C1824 1.415 . S
C1823 C1822 1.355 . S
C1823 C1825 1.419 . S
C1824 C1822 1.415 . S
C1824 C1829 1.425 . S
C1824 C1831 1.409 . S
C1825 H1817 0.930 . S
C1825 C1823 1.419 . S
C1825 C1826 1.362 . S
C1826 H1818 0.930 . S
C1826 C1825 1.362 . S
C1826 C1829 1.409 . S
C1827 H1819 0.930 . S
C1827 C1828 1.355 . S
C1827 C1829 1.415 . S
C1828 C1827 1.355 . S
C1828 C1830 1.419 . S
C1829 C1824 1.425 . S
C1829 C1826 1.409 . S
C1829 C1827 1.415 . S
C1830 H1820 0.930 . S
C1830 C1828 1.419 . S
C1830 C1831 1.362 . S
C1831 H1821 0.930 . S
C1831 C1824 1.409 . S
C1831 C1830 1.362 . S
H1832 C1838 0.930 . S
H1833 C1841 0.930 . S
H1834 C1842 0.930 . S
H1835 C1843 0.930 . S
H1836 C1846 0.930 . S
H1837 C1847 0.930 . S
C1838 H1832 0.930 . S
C1838 C1839 1.355 . S
C1838 C1840 1.415 . S
C1839 C1838 1.355 . S
C1839 C1841 1.419 . S
C1840 C1838 1.415 . S
C1840 C1845 1.425 . S
C1840 C1847 1.409 . S
C1841 H1833 0.930 . S
C1841 C1839 1.419 . S
C1841 C1842 1.362 . S
C1842 H1834 0.930 . S
C1842 C1841 1.362 . S
C1842 C1845 1.409 . S
C1843 H1835 0.930 . S
C1843 C1844 1.355 . S
C1843 C1845 1.415 . S
C1844 C1843 1.355 . S
C1844 C1846 1.419 . S
C1845 C1840 1.425 . S
C1845 C1842 1.409 . S
C1845 C1843 1.415 . S
C1846 H1836 0.930 . S
C1846 C1844 1.419 . S
C1846 C1847 1.362 . S
C1847 H1837 0.930 . S
C1847 C1840 1.409 . S
C1847 C1846 1.362 . S
H1848 C1854 0.930 . S
H1849 C1857 0.930 . S
H1850 C1858 0.930 . S
H1851 C1859 0.930 . S
H1852 C1862 0.930 . S
H1853 C1863 0.930 . S
C1854 H1848 0.930 . S
C1854 C1855 1.355 . S
C1854 C1856 1.415 . S
C1855 C1854 1.355 . S
C1855 C1857 1.419 . S
C1856 C1854 1.415 . S
C1856 C1861 1.425 . S
C1856 C1863 1.409 . S
C1857 H1849 0.930 . S
C1857 C1855 1.419 . S
C1857 C1858 1.362 . S
C1858 H1850 0.930 . S
C1858 C1857 1.362 . S
C1858 C1861 1.409 . S
C1859 H1851 0.930 . S
C1859 C1860 1.355 . S
C1859 C1861 1.415 . S
C1860 C1859 1.355 . S
C1860 C1862 1.419 . S
C1861 C1856 1.425 . S
C1861 C1858 1.409 . S
C1861 C1859 1.415 . S
C1862 H1852 0.930 . S
C1862 C1860 1.419 . S
C1862 C1863 1.362 . S
C1863 H1853 0.930 . S
C1863 C1856 1.409 . S
C1863 C1862 1.362 . S
H1864 C1870 0.930 . S
H1865 C1873 0.930 . S
H1866 C1874 0.930 . S
H1867 C1875 0.930 . S
H1868 C1878 0.930 . S
H1869 C1879 0.930 . S
C1870 H1864 0.930 . S
C1870 C1871 1.355 . S
C1870 C1872 1.415 . S
C1871 C1870 1.355 . S
C1871 C1873 1.419 . S
C1872 C1870 1.415 . S
C1872 C1877 1.425 . S
C1872 C1879 1.409 . S
C1873 H1865 0.930 . S
C1873 C1871 1.419 . S
C1873 C1874 1.362 . S
C1874 H1866 0.930 . S
C1874 C1873 1.362 . S
C1874 C1877 1.409 . S
C1875 H1867 0.930 . S
C1875 C1876 1.355 . S
C1875 C1877 1.415 . S
C1876 C1875 1.355 . S
C1876 C1878 1.419 . S
C1877 C1872 1.425 . S
C1877 C1874 1.409 . S
C1877 C1875 1.415 . S
C1878 H1868 0.930 . S
C1878 C1876 1.419 . S
C1878 C1879 1.362 . S
C1879 H1869 0.930 . S
C1879 C1872 1.409 . S
C1879 C1878 1.362 . S
H1880 C1886 0.930 . S
H1881 C1889 0.930 . S
H1882 C1890 0.930 . S
H1883 C1891 0.930 . S
H1884 C1894 0.930 . S
H1885 C1895 0.930 . S
C1886 H1880 0.930 . S
C1886 C1887 1.355 . S
C1886 C1888 1.415 . S
C1887 C1886 1.355 . S
C1887 C1889 1.419 . S
C1888 C1886 1.415 . S
C1888 C1893 1.425 . S
C1888 C1895 1.409 . S
C1889 H1881 0.930 . S
C1889 C1887 1.419 . S
C1889 C1890 1.362 . S
C1890 H1882 0.930 . S
C1890 C1889 1.362 . S
C1890 C1893 1.409 . S
C1891 H1883 0.930 . S
C1891 C1892 1.355 . S
C1891 C1893 1.415 . S
C1892 C1891 1.355 . S
C1892 C1894 1.419 . S
C1893 C1888 1.425 . S
C1893 C1890 1.409 . S
C1893 C1891 1.415 . S
C1894 H1884 0.930 . S
C1894 C1892 1.419 . S
C1894 C1895 1.362 . S
C1895 H1885 0.930 . S
C1895 C1888 1.409 . S
C1895 C1894 1.362 . S
H1896 C1902 0.930 . S
H1897 C1905 0.930 . S
H1898 C1906 0.930 . S
H1899 C1907 0.930 . S
H1900 C1910 0.930 . S
H1901 C1911 0.930 . S
C1902 H1896 0.930 . S
C1902 C1903 1.355 . S
C1902 C1904 1.415 . S
C1903 C1902 1.355 . S
C1903 C1905 1.419 . S
C1904 C1902 1.415 . S
C1904 C1909 1.425 . S
C1904 C1911 1.409 . S
C1905 H1897 0.930 . S
C1905 C1903 1.419 . S
C1905 C1906 1.362 . S
C1906 H1898 0.930 . S
C1906 C1905 1.362 . S
C1906 C1909 1.409 . S
C1907 H1899 0.930 . S
C1907 C1908 1.355 . S
C1907 C1909 1.415 . S
C1908 C1907 1.355 . S
C1908 C1910 1.419 . S
C1909 C1904 1.425 . S
C1909 C1906 1.409 . S
C1909 C1907 1.415 . S
C1910 H1900 0.930 . S
C1910 C1908 1.419 . S
C1910 C1911 1.362 . S
C1911 H1901 0.930 . S
C1911 C1904 1.409 . S
C1911 C1910 1.362 . S
H1912 C1918 0.930 . S
H1913 C1921 0.930 . S
H1914 C1922 0.930 . S
H1915 C1923 0.930 . S
H1916 C1926 0.930 . S
H1917 C1927 0.930 . S
C1918 H1912 0.930 . S
C1918 C1919 1.355 . S
C1918 C1920 1.415 . S
C1919 C1918 1.355 . S
C1919 C1921 1.419 . S
C1920 C1918 1.415 . S
C1920 C1925 1.425 . S
C1920 C1927 1.409 . S
C1921 H1913 0.930 . S
C1921 C1919 1.419 . S
C1921 C1922 1.362 . S
C1922 H1914 0.930 . S
C1922 C1921 1.362 . S
C1922 C1925 1.409 . S
C1923 H1915 0.930 . S
C1923 C1924 1.355 . S
C1923 C1925 1.415 . S
C1924 C1923 1.355 . S
C1924 C1926 1.419 . S
C1925 C1920 1.425 . S
C1925 C1922 1.409 . S
C1925 C1923 1.415 . S
C1926 H1916 0.930 . S
C1926 C1924 1.419 . S
C1926 C1927 1.362 . S
C1927 H1917 0.930 . S
C1927 C1920 1.409 . S
C1927 C1926 1.362 . S
H1928 C1934 0.930 . S
H1929 C1937 0.930 . S
H1930 C1938 0.930 . S
H1931 C1939 0.930 . S
H1932 C1942 0.930 . S
H1933 C1943 0.930 . S
C1934 H1928 0.930 . S
C1934 C1935 1.355 . S
C1934 C1936 1.415 . S
C1935 C1934 1.355 . S
C1935 C1937 1.419 . S
C1936 C1934 1.415 . S
C1936 C1941 1.425 . S
C1936 C1943 1.409 . S
C1937 H1929 0.930 . S
C1937 C1935 1.419 . S
C1937 C1938 1.362 . S
C1938 H1930 0.930 . S
C1938 C1937 1.362 . S
C1938 C1941 1.409 . S
C1939 H1931 0.930 . S
C1939 C1940 1.355 . S
C1939 C1941 1.415 . S
C1940 C1939 1.355 . S
C1940 C1942 1.419 . S
C1941 C1936 1.425 . S
C1941 C1938 1.409 . S
C1941 C1939 1.415 . S
C1942 H1932 0.930 . S
C1942 C1940 1.419 . S
C1942 C1943 1.362 . S
C1943 H1933 0.930 . S
C1943 C1936 1.409 . S
C1943 C1942 1.362 . S
H1944 C1950 0.930 . S
H1945 C1953 0.930 . S
H1946 C1954 0.930 . S
H1947 C1955 0.930 . S
H1948 C1958 0.930 . S
H1949 C1959 0.930 . S
C1950 H1944 0.930 . S
C1950 C1951 1.355 . S
C1950 C1952 1.415 . S
C1951 C1950 1.355 . S
C1951 C1953 1.419 . S
C1952 C1950 1.415 . S
C1952 C1957 1.425 . S
C1952 C1959 1.409 . S
C1953 H1945 0.930 . S
C1953 C1951 1.419 . S
C1953 C1954 1.362 . S
C1954 H1946 0.930 . S
C1954 C1953 1.362 . S
C1954 C1957 1.409 . S
C1955 H1947 0.930 . S
C1955 C1956 1.355 . S
C1955 C1957 1.415 . S
C1956 C1955 1.355 . S
C1956 C1958 1.419 . S
C1957 C1952 1.425 . S
C1957 C1954 1.409 . S
C1957 C1955 1.415 . S
C1958 H1948 0.930 . S
C1958 C1956 1.419 . S
C1958 C1959 1.362 . S
C1959 H1949 0.930 . S
C1959 C1952 1.409 . S
C1959 C1958 1.362 . S
H1960 C1966 0.930 . S
H1961 C1969 0.930 . S
H1962 C1970 0.930 . S
H1963 C1971 0.930 . S
H1964 C1974 0.930 . S
H1965 C1975 0.930 . S
C1966 H1960 0.930 . S
C1966 C1967 1.355 . S
C1966 C1968 1.415 . S
C1967 C1966 1.355 . S
C1967 C1969 1.419 . S
C1968 C1966 1.415 . S
C1968 C1973 1.425 . S
C1968 C1975 1.409 . S
C1969 H1961 0.930 . S
C1969 C1967 1.419 . S
C1969 C1970 1.362 . S
C1970 H1962 0.930 . S
C1970 C1969 1.362 . S
C1970 C1973 1.409 . S
C1971 H1963 0.930 . S
C1971 C1972 1.355 . S
C1971 C1973 1.415 . S
C1972 C1971 1.355 . S
C1972 C1974 1.419 . S
C1973 C1968 1.425 . S
C1973 C1970 1.409 . S
C1973 C1971 1.415 . S
C1974 H1964 0.930 . S
C1974 C1972 1.419 . S
C1974 C1975 1.362 . S
C1975 H1965 0.930 . S
C1975 C1968 1.409 . S
C1975 C1974 1.362 . S
H1976 C1982 0.930 . S
H1977 C1985 0.930 . S
H1978 C1986 0.930 . S
H1979 C1987 0.930 . S
H1980 C1990 0.930 . S
H1981 C1991 0.930 . S
C1982 H1976 0.930 . S
C1982 C1983 1.355 . S
C1982 C1984 1.415 . S
C1983 C1982 1.355 . S
C1983 C1985 1.419 . S
C1984 C1982 1.415 . S
C1984 C1989 1.425 . S
C1984 C1991 1.409 . S
C1985 H1977 0.930 . S
C1985 C1983 1.419 . S
C1985 C1986 1.362 . S
C1986 H1978 0.930 . S
C1986 C1985 1.362 . S
C1986 C1989 1.409 . S
C1987 H1979 0.930 . S
C1987 C1988 1.355 . S
C1987 C1989 1.415 . S
C1988 C1987 1.355 . S
C1988 C1990 1.419 . S
C1989 C1984 1.425 . S
C1989 C1986 1.409 . S
C1989 C1987 1.415 . S
C1990 H1980 0.930 . S
C1990 C1988 1.419 . S
C1990 C1991 1.362 . S
C1991 H1981 0.930 . S
C1991 C1984 1.409 . S
C1991 C1990 1.362 . S
H1992 C1998 0.930 . S
H1993 C2001 0.930 . S
H1994 C2002 0.930 . S
H1995 C2003 0.930 . S
H1996 C2006 0.930 . S
H1997 C2007 0.930 . S
C1998 H1992 0.930 . S
C1998 C1999 1.355 . S
C1998 C2000 1.415 . S
C1999 C1998 1.355 . S
C1999 C2001 1.419 . S
C2000 C1998 1.415 . S
C2000 C2005 1.425 . S
C2000 C2007 1.409 . S
C2001 H1993 0.930 . S
C2001 C1999 1.419 . S
C2001 C2002 1.362 . S
C2002 H1994 0.930 . S
C2002 C2001 1.362 . S
C2002 C2005 1.409 . S
C2003 H1995 0.930 . S
C2003 C2004 1.355 . S
C2003 C2005 1.415 . S
C2004 C2003 1.355 . S
C2004 C2006 1.419 . S
C2005 C2000 1.425 . S
C2005 C2002 1.409 . S
C2005 C2003 1.415 . S
C2006 H1996 0.930 . S
C2006 C2004 1.419 . S
C2006 C2007 1.362 . S
C2007 H1997 0.930 . S
C2007 C2000 1.409 . S
C2007 C2006 1.362 . S
H2008 C2014 0.930 . S
H2009 C2017 0.930 . S
H2010 C2018 0.930 . S
H2011 C2019 0.930 . S
H2012 C2022 0.930 . S
H2013 C2023 0.930 . S
C2014 H2008 0.930 . S
C2014 C2015 1.355 . S
C2014 C2016 1.415 . S
C2015 C2014 1.355 . S
C2015 C2017 1.419 . S
C2016 C2014 1.415 . S
C2016 C2021 1.425 . S
C2016 C2023 1.409 . S
C2017 H2009 0.930 . S
C2017 C2015 1.419 . S
C2017 C2018 1.362 . S
C2018 H2010 0.930 . S
C2018 C2017 1.362 . S
C2018 C2021 1.409 . S
C2019 H2011 0.930 . S
C2019 C2020 1.355 . S
C2019 C2021 1.415 . S
C2020 C2019 1.355 . S
C2020 C2022 1.419 . S
C2021 C2016 1.425 . S
C2021 C2018 1.409 . S
C2021 C2019 1.415 . S
C2022 H2012 0.930 . S
C2022 C2020 1.419 . S
C2022 C2023 1.362 . S
C2023 H2013 0.930 . S
C2023 C2016 1.409 . S
C2023 C2022 1.362 . S
H2024 C2030 0.930 . S
H2025 C2033 0.930 . S
H2026 C2034 0.930 . S
H2027 C2035 0.930 . S
H2028 C2038 0.930 . S
H2029 C2039 0.930 . S
C2030 H2024 0.930 . S
C2030 C2031 1.355 . S
C2030 C2032 1.415 . S
C2031 C2030 1.355 . S
C2031 C2033 1.419 . S
C2032 C2030 1.415 . S
C2032 C2037 1.425 . S
C2032 C2039 1.409 . S
C2033 H2025 0.930 . S
C2033 C2031 1.419 . S
C2033 C2034 1.362 . S
C2034 H2026 0.930 . S
C2034 C2033 1.362 . S
C2034 C2037 1.409 . S
C2035 H2027 0.930 . S
C2035 C2036 1.355 . S
C2035 C2037 1.415 . S
C2036 C2035 1.355 . S
C2036 C2038 1.419 . S
C2037 C2032 1.425 . S
C2037 C2034 1.409 . S
C2037 C2035 1.415 . S
C2038 H2028 0.930 . S
C2038 C2036 1.419 . S
C2038 C2039 1.362 . S
C2039 H2029 0.930 . S
C2039 C2032 1.409 . S
C2039 C2038 1.362 . S
C1279 C1205 1.878 . S
C1284 C39 1.884 . S
C1295 C92 1.460 . S
C1300 C1241 1.466 . S
C1311 C1098 1.564 . S
C1316 C128 1.568 . S
C1327 C1142 1.358 . S
C1332 C188 1.357 . S
C1343 C1135 1.279 . S
C1348 C234 1.278 . S
C1359 C304 1.846 . S
C1364 C1204 1.845 . S
C1375 C1248 1.468 . S
C1380 C356 1.472 . S
C1391 C393 1.694 . S
C1396 C1099 1.692 . S
C1407 C462 1.699 . S
C1412 C1029 1.697 . S
C1423 C886 1.493 . S
C1428 C499 1.493 . S
C1439 C552 1.668 . S
C1444 C939 1.668 . S
C1455 C992 1.597 . S
C1460 C622 1.595 . S
C1471 C621 1.568 . S
C1476 C727 1.574 . S
C1487 C463 1.704 . S
C1492 C781 1.706 . S
C1503 C824 1.327 . S
C1508 C506 1.328 . S
C1519 C559 1.681 . S
C1524 C665 1.679 . S
C1535 C91 1.615 . S
C1540 C993 1.606 . S
C1551 C780 1.689 . S
C1556 C400 1.690 . S
C1567 C241 1.209 . S
C1572 C817 1.211 . S
C1583 C658 1.823 . S
C1588 C303 1.820 . S
C1599 C357 1.573 . S
C1604 C728 1.565 . S
C1615 C181 1.373 . S
C1620 C887 1.374 . S
C1631 C38 1.860 . S
C1636 C940 1.857 . S
C1647 C135 1.511 . S
C1652 C1036 1.511 . S
C1663 C347 1.276 . S
C1668 C1089 1.276 . S
C1679 C1151 1.518 . S
C1684 C410 1.515 . S
C1695 C1188 1.410 . S
C1700 C251 1.407 . S
C1711 C1258 1.698 . S
C1716 C287 1.698 . S
C1727 C145 1.839 . S
C1732 C1257 1.837 . S
C1743 C197 1.207 . S
C1748 C1082 1.203 . S
C1759 C22 1.528 . S
C1764 C1152 1.530 . S
C1775 C1195 1.355 . S
C1780 C75 1.354 . S
C1791 C569 1.469 . S
C1796 C718 1.462 . S
C1807 C605 1.549 . S
C1812 C764 1.551 . S
C1823 C453 1.165 . S
C1828 C833 1.172 . S
C1839 C516 1.526 . S
C1844 C674 1.526 . S
C1855 C515 1.565 . S
C1860 C1046 1.559 . S
C1871 C877 1.257 . S
C1876 C568 1.254 . S
C1887 C612 1.562 . S
C1892 C930 1.567 . S
C1903 C446 1.236 . S
C1908 C983 1.233 . S
C1919 C675 1.589 . S
C1924 C409 1.580 . S
C1935 C870 1.240 . S
C1940 C82 1.238 . S
C1951 C144 1.660 . S
C1956 C923 1.654 . S
C1967 C976 1.256 . S
C1972 C198 1.258 . S
C1983 C1045 1.590 . S
C1988 C29 1.583 . S
C1999 C294 1.476 . S
C2004 C771 1.474 . S
C2015 C834 1.290 . S
C2020 C340 1.283 . S
C2031 C711 1.429 . S
C2036 C250 1.428 . S
