# Generated by pormake.
# Topology umx, (4)-cn, num edge types: 1
# Building blocks:
#     Node 0, Type 0, BuildingBlock: KUFVIS_clean_sbu_0, # of connection points: 4
#     Node 1, Type 0, BuildingBlock: KUFVIS_clean_sbu_0, # of connection points: 4
#     Node 2, Type 0, BuildingBlock: KUFVIS_clean_sbu_0, # of connection points: 4
#     Node 3, Type 0, BuildingBlock: KUFVIS_clean_sbu_0, # of connection points: 4
#     Node 4, Type 0, BuildingBlock: KUFVIS_clean_sbu_0, # of connection points: 4
#     Node 5, Type 0, BuildingBlock: KUFVIS_clean_sbu_0, # of connection points: 4
#     Node 6, Type 0, BuildingBlock: KUFVIS_clean_sbu_0, # of connection points: 4
#     Node 7, Type 0, BuildingBlock: KUFVIS_clean_sbu_0, # of connection points: 4
#     Edge 8, Type (0, 0), None
#     Edge 9, Type (0, 0), None
#     Edge 10, Type (0, 0), None
#     Edge 11, Type (0, 0), None
#     Edge 12, Type (0, 0), None
#     Edge 13, Type (0, 0), None
#     Edge 14, Type (0, 0), None
#     Edge 15, Type (0, 0), None
#     Edge 16, Type (0, 0), None
#     Edge 17, Type (0, 0), None
#     Edge 18, Type (0, 0), None
#     Edge 19, Type (0, 0), None
#     Edge 20, Type (0, 0), None
#     Edge 21, Type (0, 0), None
#     Edge 22, Type (0, 0), None
#     Edge 23, Type (0, 0), None
# Relax obj value: 0.135
# Max RMSD: 0.255
# Mean RMSD: 0.235
data_MOF--net-umx--node1-KUFVIS_clean_sbu_0--edge1-none
_symmetry_space_group_name_H-M    P1
_symmetry_Int_Tables_number       1
_symmetry_cell_setting            triclinic
loop_
_symmetry_equiv_pos_as_xyz
'x, y, z'
_cell_length_a     15.928969
_cell_length_b     20.408626
_cell_length_c     12.265196
_cell_angle_alpha  88.172251
_cell_angle_beta   88.187186
_cell_angle_gamma 89.260605
loop_
_atom_site_label
_atom_site_type_symbol
_atom_site_fract_x
_atom_site_fract_y
_atom_site_fract_z
_atom_type_partial_charge
Mn0 Mn 0.19393 0.43108 0.07344 0.0
Mn1 Mn 0.05013 0.33176 0.99579 0.0
C2 C 0.05171 0.46766 0.09618 0.0
C3 C 0.27197 0.4549 0.22587 0.0
C4 C 0.13617 0.42812 0.83109 0.0
O5 O 0.26012 0.34415 0.05118 0.0
O6 O 0.16616 0.27969 0.97926 0.0
C7 C 0.07837 0.28934 0.2194 0.0
N8 N 0.04103 0.27767 0.12432 0.0
C9 C 0.03731 0.16161 0.16755 0.0
C10 C 0.07907 0.17244 0.2636 0.0
C11 C 0.09935 0.2369 0.28913 0.0
C12 C 0.02382 0.21564 0.09735 0.0
H13 H 0.09455 0.33819 0.24039 0.0
C14 C 0.24133 0.28808 1.01541 0.0
O15 O 0.29551 0.47706 0.12912 0.0
O16 O 0.20889 0.41672 0.22984 0.0
N17 N -0.0084 0.26177 0.93031 0.0
C18 C 0.92857 0.26812 0.85825 0.0
C19 C 0.88168 0.21295 0.83185 0.0
C20 C 0.89628 0.15255 0.88627 0.0
C21 C 0.95143 0.15002 0.97295 0.0
C22 C -0.00719 0.2078 0.99651 0.0
H23 H 0.91771 0.31455 0.81751 0.0
O24 O 0.11199 0.50826 0.10359 0.0
O25 O 0.0801 0.40746 0.07824 0.0
O26 O 0.18591 0.44784 0.90467 0.0
O27 O 0.07526 0.38702 0.85538 0.0
C28 C 0.96125 0.09469 0.04329 0.0
C29 C 0.00772 0.09984 0.13871 0.0
H30 H 0.0934 0.13183 0.31894 0.0
H31 H 0.12964 0.24771 0.36257 0.0
H32 H 0.83464 0.21717 0.77023 0.0
H33 H 0.86081 0.10994 0.86592 0.0
H34 H 0.93169 0.04881 0.02634 0.0
H35 H 0.01589 0.05718 0.19234 0.0
Mn36 Mn 0.61054 0.10373 0.53102 0.0
Mn37 Mn 0.49677 0.22636 0.50073 0.0
C38 C 0.54741 0.1508 0.70151 0.0
C39 C 0.52679 -0.00274 0.56585 0.0
C40 C 0.68921 0.24277 0.52022 0.0
O41 O 0.58347 0.10287 0.35826 0.0
O42 O 0.52224 0.19982 0.355 0.0
C43 C 0.36025 0.13957 0.43419 0.0
N44 N 0.38634 0.1919 0.49019 0.0
C45 C 0.24615 0.22536 0.53181 0.0
C46 C 0.2169 0.17004 0.48045 0.0
C47 C 0.27428 0.12644 0.43174 0.0
C48 C 0.33123 0.22934 0.54563 0.0
H49 H 0.40431 0.1073 0.39385 0.0
C50 C 0.54379 0.14936 0.30643 0.0
O51 O 0.60506 0.00051 0.56301 0.0
O52 O 0.49627 0.05207 0.54559 0.0
N53 N 0.45996 0.26195 0.62389 0.0
C54 C 0.52096 0.30123 0.6879 0.0
C55 C 0.43829 0.39703 0.78438 0.0
C56 C 0.3344 0.39001 0.75315 0.0
C57 C 0.30257 0.32896 0.67141 0.0
C58 C 0.36451 0.27126 0.61505 0.0
H59 H 0.58618 0.28437 0.69116 0.0
O60 O 0.61352 0.11461 0.70241 0.0
O61 O 0.52071 0.15334 0.60204 0.0
O62 O 0.70245 0.18001 0.52049 0.0
O63 O 0.61386 0.26564 0.50901 0.0
C64 C 0.22017 0.325 0.63627 0.0
C65 C 0.19417 0.27683 0.56558 0.0
H66 H 0.15051 0.16043 0.47902 0.0
H67 H 0.25232 0.08406 0.39064 0.0
H68 H 0.4562 0.42993 0.84522 0.0
H69 H 0.29245 0.4242 0.78715 0.0
H70 H 0.17284 0.35778 0.66218 0.0
H71 H 0.13128 0.28026 0.53595 0.0
Mn72 Mn 0.81876 0.51341 0.02834 0.0
Mn73 Mn 0.95676 0.63598 0.95868 0.0
C74 C 0.95895 0.49089 0.10346 0.0
C75 C 0.73445 0.48879 0.18981 0.0
C76 C 0.88821 0.48201 0.76218 0.0
O77 O 0.73828 0.59967 1.01875 0.0
O78 O 0.83319 0.68154 1.00256 0.0
C79 C 0.95947 0.66562 0.19396 0.0
N80 N 0.96989 0.68734 0.08796 0.0
C81 C 0.94357 0.79905 0.14257 0.0
C82 C 0.92433 0.7762 0.24826 0.0
C83 C 0.934 0.70931 0.27416 0.0
C84 C 0.96369 0.75259 0.06396 0.0
H85 H 0.96829 0.61509 0.21887 0.0
C86 C 0.75618 0.66137 0.02393 0.0
O87 O 0.72861 0.45654 0.10228 0.0
O88 O 0.78229 0.5378 0.17905 0.0
N89 N 0.00538 0.72194 0.89412 0.0
C90 C 0.07533 0.73542 0.82782 0.0
C91 C 0.09186 0.79998 0.79099 0.0
C92 C 0.04787 0.8518 0.83916 0.0
C93 C -0.00285 0.83768 0.93165 0.0
C94 C 0.98145 0.77133 0.95886 0.0
H95 H 0.11937 0.69804 0.80261 0.0
O96 O 0.90502 0.44708 0.08535 0.0
O97 O 0.92816 0.55179 0.08239 0.0
O98 O 0.8498 0.46603 0.85848 0.0
O99 O 0.92062 0.54151 0.74366 0.0
C100 C 0.97327 0.8857 1.0067 0.0
C101 C 0.94452 0.86619 0.11226 0.0
H102 H 0.90415 0.80993 0.31041 0.0
H103 H 0.92146 0.69086 0.35576 0.0
H104 H 0.14162 0.80976 0.73075 0.0
H105 H 0.06293 0.9019 0.81486 0.0
H106 H 0.98259 0.93722 0.98689 0.0
H107 H 0.92875 0.9031 0.17135 0.0
Mn108 Mn 0.39325 0.83005 0.58871 0.0
Mn109 Mn 0.50281 0.70367 0.56952 0.0
C110 C 0.45783 0.78766 0.76158 0.0
C111 C 0.47691 0.93691 0.58352 0.0
C112 C 0.3086 0.69439 0.58244 0.0
O113 O 0.41835 0.82982 0.41693 0.0
O114 O 0.50423 0.74508 0.42502 0.0
C115 C 0.66701 0.74915 0.49185 0.0
N116 N 0.62036 0.71399 0.56757 0.0
C117 C 0.72735 0.63233 0.58445 0.0
C118 C 0.77393 0.6644 0.50048 0.0
C119 C 0.74488 0.72429 0.45612 0.0
C120 C 0.65028 0.65863 0.61518 0.0
H121 H 0.64217 0.79335 0.45347 0.0
C122 C 0.47685 0.79448 0.3731 0.0
O123 O 0.39852 0.93408 0.59392 0.0
O124 O 0.50764 0.88096 0.58099 0.0
N125 N 0.51045 0.66026 0.6982 0.0
C126 C 0.43606 0.64393 0.77906 0.0
C127 C 0.48024 0.53991 0.90209 0.0
C128 C 0.58113 0.51835 0.86229 0.0
C129 C 0.63257 0.56147 0.75882 0.0
C130 C 0.59715 0.62701 0.68811 0.0
H131 H 0.37783 0.67261 0.77489 0.0
O132 O 0.39144 0.82362 0.76062 0.0
O133 O 0.48557 0.78095 0.66096 0.0
O134 O 0.2951 0.75643 0.59498 0.0
O135 O 0.38369 0.67488 0.56382 0.0
C136 C 0.7122 0.54377 0.7245 0.0
C137 C 0.75659 0.57558 0.63683 0.0
H138 H 0.83331 0.64391 0.47262 0.0
H139 H 0.7809 0.7503 0.39297 0.0
H140 H 0.44806 0.51284 0.96917 0.0
H141 H 0.61298 0.47903 0.90594 0.0
H142 H 0.73781 0.50365 0.76689 0.0
H143 H 0.8174 0.55858 0.61005 0.0
Mn144 Mn 0.19798 0.50912 0.48689 0.0
Mn145 Mn 0.05705 0.5847 0.62734 0.0
C146 C 0.05567 0.47859 0.46665 0.0
C147 C 0.27521 0.49359 0.3224 0.0
C148 C 0.13839 0.46602 0.7197 0.0
O149 O 0.26307 0.59215 0.51637 0.0
O150 O 0.17173 0.63533 0.63466 0.0
C151 C 0.04525 0.711 0.49345 0.0
N152 N 0.01634 0.66738 0.57124 0.0
C153 C 0.90537 0.74026 0.63022 0.0
C154 C 0.93057 0.7857 0.54757 0.0
C155 C 0.00437 0.77276 0.48371 0.0
C156 C 0.9568 0.6861 0.6452 0.0
H157 H 0.09926 0.69915 0.44178 0.0
C158 C 0.24128 0.63963 0.57609 0.0
O159 O 0.2986 0.46609 0.41375 0.0
O160 O 0.21249 0.53362 0.33048 0.0
N161 N 0.02595 0.61684 0.76401 0.0
C162 C 0.03541 0.57642 0.85376 0.0
C163 C 0.96363 0.54925 0.90492 0.0
C164 C 0.87301 0.58927 0.88658 0.0
C165 C 0.87964 0.64779 0.80859 0.0
C166 C 0.95541 0.65331 0.74359 0.0
H167 H 0.09003 0.54763 0.86157 0.0
O168 O 0.11726 0.43772 0.45429 0.0
O169 O 0.07831 0.53964 0.48911 0.0
O170 O 0.20228 0.47288 0.65357 0.0
O171 O 0.07366 0.49762 0.69815 0.0
C172 C 0.81547 0.69395 0.77966 0.0
C173 C 0.83269 0.7448 0.69948 0.0
H174 H 0.8956 0.83095 0.53445 0.0
H175 H 0.02746 0.80897 0.42418 0.0
H176 H 0.97328 0.49758 0.91886 0.0
H177 H 0.8135 0.56756 0.88748 0.0
H178 H 0.75387 0.69245 0.81859 0.0
H179 H 0.78691 0.78365 0.68606 0.0
Mn180 Mn 0.43505 0.11614 0.9802 0.0
Mn181 Mn 0.50746 0.25618 0.99937 0.0
C182 C 0.49005 0.15817 0.80647 0.0
C183 C 0.48225 0.00753 0.99511 0.0
C184 C 0.31747 0.23773 1.01236 0.0
O185 O 0.46258 0.11899 0.14796 0.0
O186 O 0.53674 0.20864 0.13851 0.0
C187 C 0.68704 0.24307 0.02955 0.0
N188 N 0.62221 0.27107 0.97378 0.0
C189 C 0.71248 0.34838 0.88734 0.0
C190 C 0.77586 0.32891 0.9574 0.0
C191 C 0.76478 0.2737 0.02488 0.0
C192 C 0.63284 0.3254 0.9093 0.0
H193 H 0.6791 0.19906 0.07973 0.0
C194 C 0.51996 0.154 0.1869 0.0
O195 O 0.4025 0.02164 1.00353 0.0
O196 O 0.53211 0.05464 0.9744 0.0
N197 N 0.48663 0.30399 0.87188 0.0
C198 C 0.41128 0.29418 0.79336 0.0
C199 C 0.43712 0.37273 0.61502 0.0
C200 C 0.52827 0.41228 0.6281 0.0
C201 C 0.58768 0.3977 0.73864 0.0
C202 C 0.56541 0.34773 0.85064 0.0
H203 H 0.36281 0.25841 0.81396 0.0
O204 O 0.42926 0.11728 0.81513 0.0
O205 O 0.51371 0.17705 0.90398 0.0
O206 O 0.31974 0.17711 0.98415 0.0
O207 O 0.38601 0.2627 0.0386 0.0
C208 C 0.6723 0.40143 0.71443 0.0
C209 C 0.73161 0.37537 0.78532 0.0
H210 H 0.8357 0.35313 0.95388 0.0
H211 H 0.81779 0.25365 0.06678 0.0
H212 H 0.40239 0.38068 0.54014 0.0
H213 H 0.55333 0.44058 0.55865 0.0
H214 H 0.69153 0.41832 0.63354 0.0
H215 H 0.79319 0.36528 0.75555 0.0
Mn216 Mn 0.82575 0.4271 0.43921 0.0
Mn217 Mn 0.95295 0.31908 0.54587 0.0
C218 C 0.96673 0.4562 0.44194 0.0
C219 C 0.7482 0.45328 0.2897 0.0
C220 C 0.89027 0.43584 0.67014 0.0
O221 O 0.75104 0.34559 0.46314 0.0
O222 O 0.83009 0.28562 0.57417 0.0
C223 C 0.90055 0.26482 0.34186 0.0
N224 N 0.94475 0.25556 0.4345 0.0
C225 C 0.92472 0.13821 0.42843 0.0
C226 C 0.87776 0.14739 0.33509 0.0
C227 C 0.86389 0.21106 0.29366 0.0
C228 C 0.95211 0.19421 0.47961 0.0
H229 H 0.88799 0.31344 0.3102 0.0
C230 C 0.76178 0.29318 0.51963 0.0
O231 O 0.72609 0.4768 0.38403 0.0
O232 O 0.81361 0.41582 0.28502 0.0
N233 N -0.00571 0.24563 0.63318 0.0
C234 C 0.05397 0.2466 0.71015 0.0
C235 C 0.08815 0.18766 0.75329 0.0
C236 C 0.06236 0.12769 0.71409 0.0
C237 C 0.00954 0.12799 0.62519 0.0
C238 C 0.98267 0.18899 0.58222 0.0
H239 H 0.07322 0.29258 0.74035 0.0
O240 O 0.9108 0.49971 0.41569 0.0
O241 O 0.93738 0.39513 0.44725 0.0
O242 O 0.83181 0.44567 0.60151 0.0
O243 O 0.94427 0.38706 0.66421 0.0
C244 C 0.98771 0.07075 0.5722 0.0
C245 C 0.94221 0.07589 0.47562 0.0
H246 H 0.85071 0.10617 0.29583 0.0
H247 H 0.82215 0.21837 0.22771 0.0
H248 H 0.13332 0.18864 0.81724 0.0
H249 H 0.08708 0.08217 0.74859 0.0
H250 H 0.00577 0.02281 0.60467 0.0
H251 H 0.92295 0.0318 0.43683 0.0
Mn252 Mn 0.56519 0.83301 0.02566 0.0
Mn253 Mn 0.48772 0.69478 0.07537 0.0
C254 C 0.51338 0.78374 0.86425 0.0
C255 C 0.51632 0.94192 1.0089 0.0
C256 C 0.67911 0.70766 0.04454 0.0
O257 O 0.53723 0.83744 0.19585 0.0
O258 O 0.49231 0.73672 0.21464 0.0
C259 C 0.32322 0.74679 0.149 0.0
N260 N 0.36902 0.70335 0.08802 0.0
C261 C 0.24532 0.65089 0.03569 0.0
C262 C 0.1975 0.69127 0.10513 0.0
C263 C 0.23643 0.74031 0.16058 0.0
C264 C 0.3318 0.65725 0.03133 0.0
H265 H 0.35189 0.78662 0.18841 0.0
C266 C 0.49986 0.7926 0.25301 0.0
O267 O 0.5958 0.92881 1.017 0.0
O268 O 0.46715 0.89365 1.01178 0.0
N269 N 0.47515 0.64581 0.95781 0.0
C270 C 0.54668 0.6301 0.87293 0.0
C271 C 0.48517 0.55097 0.72691 0.0
C272 C 0.38185 0.53856 0.76096 0.0
C273 C 0.3365 0.57391 0.87249 0.0
C274 C 0.38265 0.62297 0.96055 0.0
H275 H 0.60762 0.65321 0.87768 0.0
O276 O 0.57409 0.82441 0.86069 0.0
O277 O 0.48737 0.77082 0.96689 0.0
O278 O 0.67742 0.7711 0.03266 0.0
O279 O 0.61092 0.67728 0.06666 0.0
C280 C 0.25011 0.57558 0.88267 0.0
C281 C 0.20682 0.6096 0.96594 0.0
H282 H 0.13012 0.68722 0.11217 0.0
H283 H 0.19961 0.77356 0.21046 0.0
H284 H 0.51052 0.53436 0.64915 0.0
H285 H 0.34353 0.51627 0.70213 0.0
H286 H 0.217 0.55453 0.81864 0.0
H287 H 0.14028 0.60919 0.97506 0.0
loop_
_geom_bond_atom_site_label_1
_geom_bond_atom_site_label_2
_geom_bond_distance
_geom_bond_site_symmetry_2
_ccdc_geom_bond_type
Mn0 O5 2.094 1_554 S
Mn0 O15 2.162 . S
Mn0 O16 2.297 . S
Mn0 O24 2.385 . S
Mn0 O25 2.209 . S
Mn0 O26 2.094 1_554 S
Mn1 O6 2.121 . S
Mn1 N8 2.257 . S
Mn1 N17 2.282 1_455 S
Mn1 O25 2.215 1_556 S
Mn1 O27 2.117 . S
C2 O24 1.234 . S
C2 O25 1.283 . S
C3 O15 1.281 . S
C3 O16 1.236 . S
C4 O26 1.240 . S
C4 O27 1.264 . S
O5 Mn0 2.094 1_556 S
O5 C14 1.250 . S
O6 Mn1 2.121 . S
O6 C14 1.258 . S
C7 N8 1.326 . S
C7 C11 1.460 1_455 S
C7 H13 0.929 . S
N8 Mn1 2.257 . S
N8 C7 1.326 . S
N8 C12 1.362 1_455 S
C9 C10 1.258 . S
C9 C12 1.431 . S
C9 C29 1.449 . S
C10 C9 1.258 . S
C10 C11 1.477 . S
C10 H30 0.931 . S
C11 C7 1.460 1_655 S
C11 C10 1.477 . S
C11 H31 0.930 . S
C12 N8 1.362 1_655 S
C12 C9 1.431 . S
C12 C22 1.476 . S
H13 C7 0.929 . S
C14 O5 1.250 . S
C14 O6 1.258 . S
O15 Mn0 2.162 . S
O15 C3 1.281 . S
O16 Mn0 2.297 . S
O16 C3 1.236 . S
N17 Mn1 2.282 1_655 S
N17 C18 1.328 . S
N17 C22 1.318 . S
C18 N17 1.328 . S
C18 C19 1.457 . S
C18 H23 0.929 1_655 S
C19 C18 1.457 . S
C19 C20 1.291 . S
C19 H32 0.931 . S
C20 C19 1.291 . S
C20 C21 1.373 . S
C20 H33 0.929 . S
C21 C20 1.373 . S
C21 C22 1.396 . S
C21 C28 1.403 . S
C22 C12 1.476 . S
C22 N17 1.318 . S
C22 C21 1.396 . S
H23 C18 0.929 1_455 S
O24 Mn0 2.385 . S
O24 C2 1.234 . S
O25 Mn0 2.209 . S
O25 Mn1 2.215 1_554 S
O25 C2 1.283 . S
O26 Mn0 2.094 1_556 S
O26 C4 1.240 . S
O27 Mn1 2.117 . S
O27 C4 1.264 . S
C28 C21 1.403 . S
C28 C29 1.399 . S
C28 H34 0.929 . S
C29 C9 1.449 . S
C29 C28 1.399 . S
C29 H35 0.930 . S
H30 C10 0.931 . S
H31 C11 0.930 . S
H32 C19 0.931 . S
H33 C20 0.929 . S
H34 C28 0.929 . S
H35 C29 0.930 . S
Mn36 O41 2.095 . S
Mn36 O51 2.162 . S
Mn36 O52 2.297 . S
Mn36 O60 2.385 . S
Mn36 O61 2.209 . S
Mn36 O62 2.094 . S
Mn37 O42 2.121 . S
Mn37 N44 2.257 . S
Mn37 N53 2.282 . S
Mn37 O61 2.215 . S
Mn37 O63 2.117 . S
C38 O60 1.234 . S
C38 O61 1.283 . S
C39 O51 1.281 . S
C39 O52 1.236 . S
C40 O62 1.240 . S
C40 O63 1.264 . S
O41 Mn36 2.095 . S
O41 C50 1.250 . S
O42 Mn37 2.121 . S
O42 C50 1.258 . S
C43 N44 1.326 . S
C43 C47 1.460 . S
C43 H49 0.929 . S
N44 Mn37 2.257 . S
N44 C43 1.326 . S
N44 C48 1.362 . S
C45 C46 1.258 . S
C45 C48 1.431 . S
C45 C65 1.449 . S
C46 C45 1.258 . S
C46 C47 1.477 . S
C46 H66 0.931 . S
C47 C43 1.460 . S
C47 C46 1.477 . S
C47 H67 0.930 . S
C48 N44 1.362 . S
C48 C45 1.431 . S
C48 C58 1.476 . S
H49 C43 0.929 . S
C50 O41 1.250 . S
C50 O42 1.258 . S
O51 Mn36 2.162 . S
O51 C39 1.281 . S
O52 Mn36 2.297 . S
O52 C39 1.236 . S
N53 Mn37 2.282 . S
N53 C54 1.328 . S
N53 C58 1.318 . S
C54 N53 1.328 . S
C54 C55 1.457 . S
C54 H59 0.929 . S
C55 C54 1.457 . S
C55 C56 1.291 . S
C55 H68 0.931 . S
C56 C55 1.291 . S
C56 C57 1.373 . S
C56 H69 0.929 . S
C57 C56 1.373 . S
C57 C58 1.396 . S
C57 C64 1.403 . S
C58 C48 1.476 . S
C58 N53 1.318 . S
C58 C57 1.396 . S
H59 C54 0.929 . S
O60 Mn36 2.385 . S
O60 C38 1.234 . S
O61 Mn36 2.209 . S
O61 Mn37 2.215 . S
O61 C38 1.283 . S
O62 Mn36 2.094 . S
O62 C40 1.240 . S
O63 Mn37 2.117 . S
O63 C40 1.264 . S
C64 C57 1.403 . S
C64 C65 1.399 . S
C64 H70 0.929 . S
C65 C45 1.449 . S
C65 C64 1.399 . S
C65 H71 0.930 . S
H66 C46 0.931 . S
H67 C47 0.930 . S
H68 C55 0.931 . S
H69 C56 0.929 . S
H70 C64 0.929 . S
H71 C65 0.930 . S
Mn72 O77 2.094 1_554 S
Mn72 O87 2.162 . S
Mn72 O88 2.297 . S
Mn72 O96 2.385 . S
Mn72 O97 2.209 . S
Mn72 O98 2.094 1_554 S
Mn73 O78 2.121 . S
Mn73 N80 2.257 . S
Mn73 N89 2.282 1_655 S
Mn73 O97 2.215 1_556 S
Mn73 O99 2.117 . S
C74 O96 1.234 . S
C74 O97 1.283 . S
C75 O87 1.281 . S
C75 O88 1.236 . S
C76 O98 1.240 . S
C76 O99 1.264 . S
O77 Mn72 2.094 1_556 S
O77 C86 1.250 . S
O78 Mn73 2.121 . S
O78 C86 1.258 . S
C79 N80 1.326 . S
C79 C83 1.460 1_655 S
C79 H85 0.929 . S
N80 Mn73 2.257 . S
N80 C79 1.326 . S
N80 C84 1.362 1_655 S
C81 C82 1.258 . S
C81 C84 1.431 . S
C81 C101 1.449 . S
C82 C81 1.258 . S
C82 C83 1.477 . S
C82 H102 0.931 . S
C83 C79 1.460 1_455 S
C83 C82 1.477 . S
C83 H103 0.930 . S
C84 N80 1.362 1_455 S
C84 C81 1.431 . S
C84 C94 1.476 . S
H85 C79 0.929 . S
C86 O77 1.250 . S
C86 O78 1.258 . S
O87 Mn72 2.162 . S
O87 C75 1.281 . S
O88 Mn72 2.297 . S
O88 C75 1.236 . S
N89 Mn73 2.282 1_455 S
N89 C90 1.328 . S
N89 C94 1.318 . S
C90 N89 1.328 . S
C90 C91 1.457 . S
C90 H95 0.929 1_455 S
C91 C90 1.457 . S
C91 C92 1.291 . S
C91 H104 0.931 . S
C92 C91 1.291 . S
C92 C93 1.373 . S
C92 H105 0.929 . S
C93 C92 1.373 . S
C93 C94 1.396 . S
C93 C100 1.403 . S
C94 C84 1.476 . S
C94 N89 1.318 . S
C94 C93 1.396 . S
H95 C90 0.929 1_655 S
O96 Mn72 2.385 . S
O96 C74 1.234 . S
O97 Mn72 2.209 . S
O97 Mn73 2.215 1_554 S
O97 C74 1.283 . S
O98 Mn72 2.094 1_556 S
O98 C76 1.240 . S
O99 Mn73 2.117 . S
O99 C76 1.264 . S
C100 C93 1.403 . S
C100 C101 1.399 . S
C100 H106 0.929 . S
C101 C81 1.449 . S
C101 C100 1.399 . S
C101 H107 0.930 . S
H102 C82 0.931 . S
H103 C83 0.930 . S
H104 C91 0.931 . S
H105 C92 0.929 . S
H106 C100 0.929 . S
H107 C101 0.930 . S
Mn108 O113 2.095 . S
Mn108 O123 2.162 . S
Mn108 O124 2.297 . S
Mn108 O132 2.385 . S
Mn108 O133 2.209 . S
Mn108 O134 2.094 . S
Mn109 O114 2.121 . S
Mn109 N116 2.257 . S
Mn109 N125 2.282 . S
Mn109 O133 2.215 . S
Mn109 O135 2.117 . S
C110 O132 1.234 . S
C110 O133 1.283 . S
C111 O123 1.281 . S
C111 O124 1.236 . S
C112 O134 1.240 . S
C112 O135 1.264 . S
O113 Mn108 2.095 . S
O113 C122 1.250 . S
O114 Mn109 2.121 . S
O114 C122 1.258 . S
C115 N116 1.326 . S
C115 C119 1.460 . S
C115 H121 0.929 . S
N116 Mn109 2.257 . S
N116 C115 1.326 . S
N116 C120 1.362 . S
C117 C118 1.258 . S
C117 C120 1.431 . S
C117 C137 1.449 . S
C118 C117 1.258 . S
C118 C119 1.477 . S
C118 H138 0.931 . S
C119 C115 1.460 . S
C119 C118 1.477 . S
C119 H139 0.930 . S
C120 N116 1.362 . S
C120 C117 1.431 . S
C120 C130 1.476 . S
H121 C115 0.929 . S
C122 O113 1.250 . S
C122 O114 1.258 . S
O123 Mn108 2.162 . S
O123 C111 1.281 . S
O124 Mn108 2.297 . S
O124 C111 1.236 . S
N125 Mn109 2.282 . S
N125 C126 1.328 . S
N125 C130 1.318 . S
C126 N125 1.328 . S
C126 C127 1.457 . S
C126 H131 0.929 . S
C127 C126 1.457 . S
C127 C128 1.291 . S
C127 H140 0.931 . S
C128 C127 1.291 . S
C128 C129 1.373 . S
C128 H141 0.929 . S
C129 C128 1.373 . S
C129 C130 1.396 . S
C129 C136 1.403 . S
C130 C120 1.476 . S
C130 N125 1.318 . S
C130 C129 1.396 . S
H131 C126 0.929 . S
O132 Mn108 2.385 . S
O132 C110 1.234 . S
O133 Mn108 2.209 . S
O133 Mn109 2.215 . S
O133 C110 1.283 . S
O134 Mn108 2.094 . S
O134 C112 1.240 . S
O135 Mn109 2.117 . S
O135 C112 1.264 . S
C136 C129 1.403 . S
C136 C137 1.399 . S
C136 H142 0.929 . S
C137 C117 1.449 . S
C137 C136 1.399 . S
C137 H143 0.930 . S
H138 C118 0.931 . S
H139 C119 0.930 . S
H140 C127 0.931 . S
H141 C128 0.929 . S
H142 C136 0.929 . S
H143 C137 0.930 . S
Mn144 O149 2.095 . S
Mn144 O159 2.162 . S
Mn144 O160 2.297 . S
Mn144 O168 2.385 . S
Mn144 O169 2.209 . S
Mn144 O170 2.094 . S
Mn145 O150 2.121 . S
Mn145 N152 2.257 . S
Mn145 N161 2.282 1_455 S
Mn145 O169 2.215 . S
Mn145 O171 2.117 . S
C146 O168 1.234 . S
C146 O169 1.283 . S
C147 O159 1.281 . S
C147 O160 1.236 . S
C148 O170 1.240 . S
C148 O171 1.264 . S
O149 Mn144 2.095 . S
O149 C158 1.250 . S
O150 Mn145 2.121 . S
O150 C158 1.258 . S
C151 N152 1.326 . S
C151 C155 1.460 1_455 S
C151 H157 0.929 . S
N152 Mn145 2.257 . S
N152 C151 1.326 . S
N152 C156 1.362 1_455 S
C153 C154 1.258 . S
C153 C156 1.431 . S
C153 C173 1.449 . S
C154 C153 1.258 . S
C154 C155 1.477 . S
C154 H174 0.931 . S
C155 C151 1.460 1_655 S
C155 C154 1.477 . S
C155 H175 0.930 . S
C156 N152 1.362 1_655 S
C156 C153 1.431 . S
C156 C166 1.476 . S
H157 C151 0.929 . S
C158 O149 1.250 . S
C158 O150 1.258 . S
O159 Mn144 2.162 . S
O159 C147 1.281 . S
O160 Mn144 2.297 . S
O160 C147 1.236 . S
N161 Mn145 2.282 1_655 S
N161 C162 1.328 . S
N161 C166 1.318 . S
C162 N161 1.328 . S
C162 C163 1.457 . S
C162 H167 0.929 1_655 S
C163 C162 1.457 . S
C163 C164 1.291 . S
C163 H176 0.931 . S
C164 C163 1.291 . S
C164 C165 1.373 . S
C164 H177 0.929 . S
C165 C164 1.373 . S
C165 C166 1.396 . S
C165 C172 1.403 . S
C166 C156 1.476 . S
C166 N161 1.318 . S
C166 C165 1.396 . S
H167 C162 0.929 1_455 S
O168 Mn144 2.385 . S
O168 C146 1.234 . S
O169 Mn144 2.209 . S
O169 Mn145 2.215 . S
O169 C146 1.283 . S
O170 Mn144 2.094 . S
O170 C148 1.240 . S
O171 Mn145 2.117 . S
O171 C148 1.264 . S
C172 C165 1.403 . S
C172 C173 1.399 . S
C172 H178 0.929 . S
C173 C153 1.449 . S
C173 C172 1.399 . S
C173 H179 0.930 . S
H174 C154 0.931 . S
H175 C155 0.930 . S
H176 C163 0.931 . S
H177 C164 0.929 . S
H178 C172 0.929 . S
H179 C173 0.930 . S
Mn180 O185 2.095 . S
Mn180 O195 2.162 . S
Mn180 O196 2.297 . S
Mn180 O204 2.385 1_554 S
Mn180 O205 2.209 1_554 S
Mn180 O206 2.094 . S
Mn181 O186 2.121 . S
Mn181 N188 2.257 1_554 S
Mn181 N197 2.282 1_554 S
Mn181 O205 2.215 1_554 S
Mn181 O207 2.117 . S
C182 O204 1.234 . S
C182 O205 1.283 . S
C183 O195 1.281 . S
C183 O196 1.236 . S
C184 O206 1.240 . S
C184 O207 1.264 . S
O185 Mn180 2.095 . S
O185 C194 1.250 . S
O186 Mn181 2.121 . S
O186 C194 1.258 . S
C187 N188 1.326 1_554 S
C187 C191 1.460 1_554 S
C187 H193 0.929 . S
N188 Mn181 2.257 1_556 S
N188 C187 1.326 1_556 S
N188 C192 1.362 . S
C189 C190 1.258 . S
C189 C192 1.431 . S
C189 C209 1.449 . S
C190 C189 1.258 . S
C190 C191 1.477 . S
C190 H210 0.931 . S
C191 C187 1.460 1_556 S
C191 C190 1.477 . S
C191 H211 0.930 1_556 S
C192 N188 1.362 . S
C192 C189 1.431 . S
C192 C202 1.476 . S
H193 C187 0.929 . S
C194 O185 1.250 . S
C194 O186 1.258 . S
O195 Mn180 2.162 . S
O195 C183 1.281 . S
O196 Mn180 2.297 . S
O196 C183 1.236 . S
N197 Mn181 2.282 1_556 S
N197 C198 1.328 . S
N197 C202 1.318 . S
C198 N197 1.328 . S
C198 C199 1.457 . S
C198 H203 0.929 . S
C199 C198 1.457 . S
C199 C200 1.291 . S
C199 H212 0.931 . S
C200 C199 1.291 . S
C200 C201 1.373 . S
C200 H213 0.929 . S
C201 C200 1.373 . S
C201 C202 1.396 . S
C201 C208 1.403 . S
C202 C192 1.476 . S
C202 N197 1.318 . S
C202 C201 1.396 . S
H203 C198 0.929 . S
O204 Mn180 2.385 1_556 S
O204 C182 1.234 . S
O205 Mn180 2.209 1_556 S
O205 Mn181 2.215 1_556 S
O205 C182 1.283 . S
O206 Mn180 2.094 . S
O206 C184 1.240 . S
O207 Mn181 2.117 . S
O207 C184 1.264 . S
C208 C201 1.403 . S
C208 C209 1.399 . S
C208 H214 0.929 . S
C209 C189 1.449 . S
C209 C208 1.399 . S
C209 H215 0.930 . S
H210 C190 0.931 . S
H211 C191 0.930 1_554 S
H212 C199 0.931 . S
H213 C200 0.929 . S
H214 C208 0.929 . S
H215 C209 0.930 . S
Mn216 O221 2.095 . S
Mn216 O231 2.162 . S
Mn216 O232 2.297 . S
Mn216 O240 2.385 . S
Mn216 O241 2.209 . S
Mn216 O242 2.094 . S
Mn217 O222 2.121 . S
Mn217 N224 2.257 . S
Mn217 N233 2.282 1_655 S
Mn217 O241 2.215 . S
Mn217 O243 2.117 . S
C218 O240 1.234 . S
C218 O241 1.283 . S
C219 O231 1.281 . S
C219 O232 1.236 . S
C220 O242 1.240 . S
C220 O243 1.264 . S
O221 Mn216 2.095 . S
O221 C230 1.250 . S
O222 Mn217 2.121 . S
O222 C230 1.258 . S
C223 N224 1.326 . S
C223 C227 1.460 1_655 S
C223 H229 0.929 . S
N224 Mn217 2.257 . S
N224 C223 1.326 . S
N224 C228 1.362 1_655 S
C225 C226 1.258 . S
C225 C228 1.431 . S
C225 C245 1.449 . S
C226 C225 1.258 . S
C226 C227 1.477 . S
C226 H246 0.931 . S
C227 C223 1.460 1_455 S
C227 C226 1.477 . S
C227 H247 0.930 . S
C228 N224 1.362 1_455 S
C228 C225 1.431 . S
C228 C238 1.476 . S
H229 C223 0.929 . S
C230 O221 1.250 . S
C230 O222 1.258 . S
O231 Mn216 2.162 . S
O231 C219 1.281 . S
O232 Mn216 2.297 . S
O232 C219 1.236 . S
N233 Mn217 2.282 1_455 S
N233 C234 1.328 . S
N233 C238 1.318 . S
C234 N233 1.328 . S
C234 C235 1.457 . S
C234 H239 0.929 1_455 S
C235 C234 1.457 . S
C235 C236 1.291 . S
C235 H248 0.931 . S
C236 C235 1.291 . S
C236 C237 1.373 . S
C236 H249 0.929 . S
C237 C236 1.373 . S
C237 C238 1.396 . S
C237 C244 1.403 . S
C238 C228 1.476 . S
C238 N233 1.318 . S
C238 C237 1.396 . S
H239 C234 0.929 1_655 S
O240 Mn216 2.385 . S
O240 C218 1.234 . S
O241 Mn216 2.209 . S
O241 Mn217 2.215 . S
O241 C218 1.283 . S
O242 Mn216 2.094 . S
O242 C220 1.240 . S
O243 Mn217 2.117 . S
O243 C220 1.264 . S
C244 C237 1.403 . S
C244 C245 1.399 . S
C244 H250 0.929 . S
C245 C225 1.449 . S
C245 C244 1.399 . S
C245 H251 0.930 . S
H246 C226 0.931 . S
H247 C227 0.930 . S
H248 C235 0.931 . S
H249 C236 0.929 . S
H250 C244 0.929 . S
H251 C245 0.930 . S
Mn252 O257 2.095 . S
Mn252 O267 2.162 . S
Mn252 O268 2.297 . S
Mn252 O276 2.385 1_554 S
Mn252 O277 2.209 1_554 S
Mn252 O278 2.094 . S
Mn253 O258 2.121 . S
Mn253 N260 2.257 1_554 S
Mn253 N269 2.282 1_554 S
Mn253 O277 2.215 1_554 S
Mn253 O279 2.117 . S
C254 O276 1.234 . S
C254 O277 1.283 . S
C255 O267 1.281 . S
C255 O268 1.236 . S
C256 O278 1.240 . S
C256 O279 1.264 . S
O257 Mn252 2.095 . S
O257 C266 1.250 . S
O258 Mn253 2.121 . S
O258 C266 1.258 . S
C259 N260 1.326 1_554 S
C259 C263 1.460 1_554 S
C259 H265 0.929 . S
N260 Mn253 2.257 1_556 S
N260 C259 1.326 1_556 S
N260 C264 1.362 . S
C261 C262 1.258 . S
C261 C264 1.431 . S
C261 C281 1.449 . S
C262 C261 1.258 . S
C262 C263 1.477 . S
C262 H282 0.931 . S
C263 C259 1.460 1_556 S
C263 C262 1.477 . S
C263 H283 0.930 1_556 S
C264 N260 1.362 . S
C264 C261 1.431 . S
C264 C274 1.476 . S
H265 C259 0.929 . S
C266 O257 1.250 . S
C266 O258 1.258 . S
O267 Mn252 2.162 . S
O267 C255 1.281 . S
O268 Mn252 2.297 . S
O268 C255 1.236 . S
N269 Mn253 2.282 1_556 S
N269 C270 1.328 . S
N269 C274 1.318 . S
C270 N269 1.328 . S
C270 C271 1.457 . S
C270 H275 0.929 . S
C271 C270 1.457 . S
C271 C272 1.291 . S
C271 H284 0.931 . S
C272 C271 1.291 . S
C272 C273 1.373 . S
C272 H285 0.929 . S
C273 C272 1.373 . S
C273 C274 1.396 . S
C273 C280 1.403 . S
C274 C264 1.476 . S
C274 N269 1.318 . S
C274 C273 1.396 . S
H275 C270 0.929 . S
O276 Mn252 2.385 1_556 S
O276 C254 1.234 . S
O277 Mn252 2.209 1_556 S
O277 Mn253 2.215 1_556 S
O277 C254 1.283 . S
O278 Mn252 2.094 . S
O278 C256 1.240 . S
O279 Mn253 2.117 . S
O279 C256 1.264 . S
C280 C273 1.403 . S
C280 C281 1.399 . S
C280 H286 0.929 . S
C281 C261 1.449 . S
C281 C280 1.399 . S
C281 H287 0.930 . S
H282 C262 0.931 . S
H283 C263 0.930 1_554 S
H284 C271 0.931 . S
H285 C272 0.929 . S
H286 C280 0.929 . S
H287 C281 0.930 . S
C3 C147 1.320 . S
C38 C182 1.934 . S
C219 C75 1.320 . S
C254 C110 1.934 . S
C220 C76 1.080 . S
C266 C122 2.353 . S
C4 C148 1.080 . S
C50 C194 2.353 . S
C74 C2 1.449 1_655 S
C111 C39 1.804 1_565 S
C146 C218 1.449 1_455 S
C255 C183 1.803 1_565 S
C14 C184 1.282 1_556 S
C230 C40 1.281 . S
C86 C256 1.282 1_556 S
C112 C158 1.282 . S
