# Generated by pormake.
# Topology wju, (5)-cn, num edge types: 1
# Building blocks:
#     Node 0, Type 0, BuildingBlock: BEQFEK_clean_sbu_0, # of connection points: 5
#     Node 1, Type 0, BuildingBlock: BEQFEK_clean_sbu_0, # of connection points: 5
#     Node 2, Type 0, BuildingBlock: BEQFEK_clean_sbu_0, # of connection points: 5
#     Node 3, Type 0, BuildingBlock: BEQFEK_clean_sbu_0, # of connection points: 5
#     Node 4, Type 0, BuildingBlock: BEQFEK_clean_sbu_0, # of connection points: 5
#     Node 5, Type 0, BuildingBlock: BEQFEK_clean_sbu_0, # of connection points: 5
#     Node 6, Type 0, BuildingBlock: BEQFEK_clean_sbu_0, # of connection points: 5
#     Node 7, Type 0, BuildingBlock: BEQFEK_clean_sbu_0, # of connection points: 5
#     Node 8, Type 0, BuildingBlock: BEQFEK_clean_sbu_0, # of connection points: 5
#     Node 9, Type 0, BuildingBlock: BEQFEK_clean_sbu_0, # of connection points: 5
#     Node 10, Type 0, BuildingBlock: BEQFEK_clean_sbu_0, # of connection points: 5
#     Node 11, Type 0, BuildingBlock: BEQFEK_clean_sbu_0, # of connection points: 5
#     Edge 12, Type (0, 0), BuildingBlock: EZIPEK_clean_linker_0, # of connection points: 2
#     Edge 13, Type (0, 0), BuildingBlock: EZIPEK_clean_linker_0, # of connection points: 2
#     Edge 14, Type (0, 0), BuildingBlock: EZIPEK_clean_linker_0, # of connection points: 2
#     Edge 15, Type (0, 0), BuildingBlock: EZIPEK_clean_linker_0, # of connection points: 2
#     Edge 16, Type (0, 0), BuildingBlock: EZIPEK_clean_linker_0, # of connection points: 2
#     Edge 17, Type (0, 0), BuildingBlock: EZIPEK_clean_linker_0, # of connection points: 2
#     Edge 18, Type (0, 0), BuildingBlock: EZIPEK_clean_linker_0, # of connection points: 2
#     Edge 19, Type (0, 0), BuildingBlock: EZIPEK_clean_linker_0, # of connection points: 2
#     Edge 20, Type (0, 0), BuildingBlock: EZIPEK_clean_linker_0, # of connection points: 2
#     Edge 21, Type (0, 0), BuildingBlock: EZIPEK_clean_linker_0, # of connection points: 2
#     Edge 22, Type (0, 0), BuildingBlock: EZIPEK_clean_linker_0, # of connection points: 2
#     Edge 23, Type (0, 0), BuildingBlock: EZIPEK_clean_linker_0, # of connection points: 2
#     Edge 24, Type (0, 0), BuildingBlock: EZIPEK_clean_linker_0, # of connection points: 2
#     Edge 25, Type (0, 0), BuildingBlock: EZIPEK_clean_linker_0, # of connection points: 2
#     Edge 26, Type (0, 0), BuildingBlock: EZIPEK_clean_linker_0, # of connection points: 2
#     Edge 27, Type (0, 0), BuildingBlock: EZIPEK_clean_linker_0, # of connection points: 2
#     Edge 28, Type (0, 0), BuildingBlock: EZIPEK_clean_linker_0, # of connection points: 2
#     Edge 29, Type (0, 0), BuildingBlock: EZIPEK_clean_linker_0, # of connection points: 2
#     Edge 30, Type (0, 0), BuildingBlock: EZIPEK_clean_linker_0, # of connection points: 2
#     Edge 31, Type (0, 0), BuildingBlock: EZIPEK_clean_linker_0, # of connection points: 2
#     Edge 32, Type (0, 0), BuildingBlock: EZIPEK_clean_linker_0, # of connection points: 2
#     Edge 33, Type (0, 0), BuildingBlock: EZIPEK_clean_linker_0, # of connection points: 2
#     Edge 34, Type (0, 0), BuildingBlock: EZIPEK_clean_linker_0, # of connection points: 2
#     Edge 35, Type (0, 0), BuildingBlock: EZIPEK_clean_linker_0, # of connection points: 2
#     Edge 36, Type (0, 0), BuildingBlock: EZIPEK_clean_linker_0, # of connection points: 2
#     Edge 37, Type (0, 0), BuildingBlock: EZIPEK_clean_linker_0, # of connection points: 2
#     Edge 38, Type (0, 0), BuildingBlock: EZIPEK_clean_linker_0, # of connection points: 2
#     Edge 39, Type (0, 0), BuildingBlock: EZIPEK_clean_linker_0, # of connection points: 2
#     Edge 40, Type (0, 0), BuildingBlock: EZIPEK_clean_linker_0, # of connection points: 2
#     Edge 41, Type (0, 0), BuildingBlock: EZIPEK_clean_linker_0, # of connection points: 2
# Relax obj value: 0.112
# Max RMSD: 0.140
# Mean RMSD: 0.140
data_MOF--net-wju--node1-BEQFEK_clean_sbu_0--edge1-EZIPEK_clean_linker_0
_symmetry_space_group_name_H-M    P1
_symmetry_Int_Tables_number       1
_symmetry_cell_setting            triclinic
loop_
_symmetry_equiv_pos_as_xyz
'x, y, z'
_cell_length_a     20.043565
_cell_length_b     20.036701
_cell_length_c     89.115179
_cell_angle_alpha  90.019809
_cell_angle_beta   89.95925
_cell_angle_gamma 120.02016
loop_
_atom_site_label
_atom_site_type_symbol
_atom_site_fract_x
_atom_site_fract_y
_atom_site_fract_z
_atom_type_partial_charge
Co0 Co 0.31045 0.20332 0.11768 0.0
Co1 Co 0.30842 0.18135 0.08247 0.0
C2 C 0.16271 0.11729 0.09997 0.0
O3 O 0.19892 0.14346 0.11225 0.0
O4 O 0.19776 0.13052 0.0875 0.0
C5 C 0.26594 0.14172 0.14729 0.0
O6 O 0.21485 0.08097 0.13983 0.0
C7 C 0.26355 0.10563 0.05266 0.0
C8 C 0.37522 0.16086 0.04078 0.0
C9 C 0.29868 0.10385 0.03933 0.0
N10 N 0.31733 0.15974 0.06171 0.0
N11 N 0.38357 0.19346 0.05438 0.0
C12 C 0.18047 0.0561 0.05681 0.0
H13 H 0.15602 0.09339 0.0597 0.0
H14 H 0.17582 0.0214 0.06688 0.0
H15 H 0.1464 0.01718 0.0475 0.0
C16 C 0.40321 0.12503 0.11566 0.0
N17 N 0.36064 0.15278 0.10947 0.0
N18 N 0.35408 0.13809 0.09493 0.0
C19 C 0.38888 0.0972 0.09167 0.0
C20 C 0.42097 0.08823 0.10464 0.0
C21 C 0.43161 0.13729 0.13148 0.0
H22 H 0.42276 0.18105 0.13725 0.0
H23 H 0.40194 0.0817 0.13757 0.0
H24 H 0.49403 0.15641 0.13158 0.0
O25 O 0.36638 0.3115 0.11026 0.0
O26 O 0.36778 0.29622 0.08549 0.0
H27 H 0.43672 0.11523 0.06967 0.0
H28 H 0.40764 0.02143 0.07722 0.0
C29 C 0.39225 0.0674 0.0765 0.0
H30 H 0.33567 0.04409 0.07094 0.0
H31 H 0.43519 0.23694 0.05889 0.0
O32 O 0.31341 0.20205 0.14012 0.0
C33 C 0.38718 0.33933 0.0971 0.0
Co34 Co 0.11499 0.31256 0.45036 0.0
Co35 Co 0.12237 0.3025 0.41494 0.0
C36 C 0.04596 0.16124 0.43402 0.0
O37 O 0.06046 0.19981 0.44612 0.0
O38 O 0.06355 0.19375 0.42125 0.0
C39 C 0.14115 0.28088 0.48061 0.0
O40 O 0.16013 0.23485 0.47368 0.0
C41 C 0.14297 0.24796 0.38534 0.0
C42 C 0.19711 0.35614 0.37229 0.0
C43 C 0.17738 0.27927 0.37161 0.0
N44 N 0.14495 0.30445 0.3939 0.0
N45 N 0.17564 0.36843 0.38586 0.0
C46 C 0.10981 0.16607 0.39034 0.0
H47 H 0.04915 0.14323 0.39389 0.0
H48 H 0.1426 0.16382 0.40017 0.0
H49 H 0.1113 0.12904 0.38124 0.0
C50 C 0.28583 0.39787 0.44607 0.0
N51 N 0.21313 0.35769 0.44082 0.0
N52 N 0.21566 0.35014 0.42613 0.0
C53 C 0.2899 0.38335 0.42179 0.0
C54 C 0.3359 0.41447 0.43422 0.0
C55 C 0.30763 0.42554 0.4618 0.0
H56 H 0.28493 0.37572 0.46952 0.0
H57 H 0.37109 0.4603 0.4632 0.0
H58 H 0.28202 0.46174 0.46466 0.0
O59 O 0.06164 0.36764 0.44306 0.0
O60 O 0.06927 0.3634 0.41816 0.0
H61 H 0.3105 0.43092 0.39975 0.0
H62 H 0.37925 0.40382 0.40576 0.0
C63 C 0.31748 0.3872 0.40608 0.0
H64 H 0.28322 0.33043 0.40067 0.0
H65 H 0.18508 0.42139 0.38989 0.0
O66 O 0.12218 0.32205 0.47282 0.0
C67 C 0.05025 0.38576 0.42999 0.0
Co68 Co 0.80563 0.11493 0.78353 0.0
Co69 Co 0.81746 0.12269 0.74808 0.0
C70 C 0.88805 0.04892 0.76621 0.0
O71 O 0.86443 0.06232 0.77847 0.0
O72 O 0.87154 0.06644 0.7536 0.0
C73 C 0.87149 0.1383 0.81308 0.0
O74 O 0.93177 0.14714 0.80556 0.0
C75 C 0.89918 0.1627 0.7192 0.0
C76 C 0.81329 0.16243 0.70365 0.0
C77 C 0.88783 0.17519 0.70437 0.0
N78 N 0.83448 0.14366 0.72697 0.0
N79 N 0.78311 0.14298 0.71757 0.0
C80 C 0.9713 0.17117 0.72597 0.0
H81 H 0.97638 0.18934 0.73787 0.0
H82 H 0.02278 0.21344 0.71956 0.0
H83 H 0.9687 0.11455 0.7256 0.0
C84 C 0.88291 0.28473 0.77931 0.0
N85 N 0.85353 0.21258 0.77395 0.0
N86 N 0.86103 0.2158 0.7592 0.0
C87 C 0.89692 0.29012 0.75484 0.0
C88 C 0.91216 0.33541 0.76744 0.0
C89 C 0.8807 0.30594 0.79529 0.0
H90 H 0.83538 0.25677 0.80166 0.0
H91 H 0.9378 0.32534 0.80041 0.0
H92 H 0.86984 0.35505 0.79589 0.0
O93 O 0.6957 0.05965 0.77704 0.0
O94 O 0.70397 0.06697 0.75207 0.0
H95 H 0.86084 0.28655 0.73211 0.0
H96 H 0.93563 0.38055 0.73816 0.0
C97 C 0.91386 0.31768 0.73895 0.0
H98 H 0.95814 0.30577 0.73432 0.0
H99 H 0.72782 0.13037 0.7207 0.0
O100 O 0.81083 0.12494 0.80597 0.0
C101 C 0.66424 0.04759 0.76413 0.0
Co102 Co 0.69026 0.80131 0.11705 0.0
Co103 Co 0.6927 0.82342 0.08183 0.0
C104 C 0.83828 0.88711 0.09964 0.0
O105 O 0.80219 0.8611 0.11196 0.0
O106 O 0.80312 0.87373 0.08716 0.0
C107 C 0.72499 0.85402 0.14763 0.0
O108 O 0.7706 0.92028 0.14105 0.0
C109 C 0.739 0.89866 0.05194 0.0
C110 C 0.6273 0.84446 0.0401 0.0
C111 C 0.7041 0.90069 0.0386 0.0
N112 N 0.68481 0.84529 0.06105 0.0
N113 N 0.61857 0.81207 0.05373 0.0
C114 C 0.82223 0.94722 0.05604 0.0
H115 H 0.84532 0.90933 0.05936 0.0
H116 H 0.82761 0.98392 0.0658 0.0
H117 H 0.85691 0.98419 0.04655 0.0
C118 C 0.60446 0.88774 0.1151 0.0
N119 N 0.64268 0.85517 0.10888 0.0
N120 N 0.64759 0.86762 0.09425 0.0
C121 C 0.61503 0.91054 0.09092 0.0
C122 C 0.58661 0.92389 0.10396 0.0
C123 C 0.57968 0.87981 0.1311 0.0
H124 H 0.5412 0.81781 0.13351 0.0
H125 H 0.63044 0.90319 0.13854 0.0
H126 H 0.5479 0.91086 0.13341 0.0
O127 O 0.63427 0.69382 0.1093 0.0
O128 O 0.63309 0.70861 0.08455 0.0
H129 H 0.56575 0.88955 0.06903 0.0
H130 H 0.59489 0.98421 0.07611 0.0
C131 C 0.61047 0.93834 0.07562 0.0
H132 H 0.66673 0.96121 0.06993 0.0
H133 H 0.56671 0.7691 0.05827 0.0
O134 O 0.68423 0.79514 0.13951 0.0
C135 C 0.61333 0.66572 0.09618 0.0
Co136 Co 0.88592 0.68824 0.44947 0.0
Co137 Co 0.88133 0.69555 0.41404 0.0
C138 C 0.95554 0.83838 0.43305 0.0
O139 O 0.94135 0.80043 0.44521 0.0
O140 O 0.93773 0.80523 0.42032 0.0
C141 C 0.86429 0.72288 0.47994 0.0
O142 O 0.85183 0.77412 0.47327 0.0
C143 C 0.84235 0.74043 0.3854 0.0
C144 C 0.84617 0.65829 0.36938 0.0
C145 C 0.83119 0.71854 0.37045 0.0
N146 N 0.86264 0.69503 0.3929 0.0
N147 N 0.86555 0.64653 0.38321 0.0
C148 C 0.83099 0.80153 0.39256 0.0
H149 H 0.88726 0.8559 0.39306 0.0
H150 H 0.80951 0.7846 0.4042 0.0
H151 H 0.79019 0.8121 0.38597 0.0
C152 C 0.71537 0.60544 0.44469 0.0
N153 N 0.78847 0.64346 0.43961 0.0
N154 N 0.78707 0.6461 0.42479 0.0
C155 C 0.71326 0.60945 0.42012 0.0
C156 C 0.66627 0.58339 0.43257 0.0
C157 C 0.69189 0.5858 0.46069 0.0
H158 H 0.70478 0.54036 0.46416 0.0
H159 H 0.72431 0.63729 0.46781 0.0
H160 H 0.62929 0.56352 0.46223 0.0
O161 O 0.93905 0.63213 0.44258 0.0
O162 O 0.93528 0.6359 0.41764 0.0
H163 H 0.72198 0.57663 0.39763 0.0
H164 H 0.62558 0.552 0.40315 0.0
C165 C 0.68755 0.59603 0.4041 0.0
H166 H 0.69616 0.65057 0.3992 0.0
H167 H 0.87935 0.6044 0.3861 0.0
O168 O 0.87764 0.67822 0.47192 0.0
C169 C 0.95245 0.61369 0.4297 0.0
Co170 Co 0.19918 0.88821 0.78345 0.0
Co171 Co 0.18445 0.87846 0.74806 0.0
C172 C 0.12006 0.95792 0.76655 0.0
O173 O 0.14273 0.9439 0.77886 0.0
O174 O 0.13531 0.93866 0.75398 0.0
C175 C 0.14281 0.86774 0.81373 0.0
O176 O 0.07897 0.85362 0.80689 0.0
C177 C 0.10952 0.85652 0.71844 0.0
C178 C 0.16435 0.80302 0.70545 0.0
C179 C 0.1069 0.82224 0.70473 0.0
N180 N 0.1641 0.85504 0.72704 0.0
N181 N 0.19786 0.8247 0.71904 0.0
C182 C 0.06017 0.88907 0.72337 0.0
H183 H 0.09751 0.9499 0.72686 0.0
H184 H 0.02518 0.85616 0.7332 0.0
H185 H 0.02153 0.88703 0.71425 0.0
C186 C 0.10906 0.71666 0.7797 0.0
N187 N 0.14468 0.78914 0.77422 0.0
N188 N 0.13719 0.78574 0.75946 0.0
C189 C 0.09568 0.71126 0.75528 0.0
C190 C 0.07707 0.66598 0.7679 0.0
C191 C 0.10979 0.695 0.79568 0.0
H192 H 0.08978 0.72589 0.803 0.0
H193 H 0.07218 0.63209 0.79748 0.0
H194 H 0.16963 0.71114 0.79867 0.0
O195 O 0.30791 0.93967 0.77631 0.0
O196 O 0.29821 0.93071 0.7514 0.0
H197 H 0.12815 0.69173 0.73365 0.0
H198 H 0.03201 0.62053 0.73912 0.0
C199 C 0.07557 0.68285 0.73952 0.0
H200 H 0.05244 0.71545 0.73368 0.0
H201 H 0.24163 0.81577 0.72309 0.0
O202 O 0.20168 0.88262 0.80587 0.0
C203 C 0.33854 0.94999 0.76336 0.0
Co204 Co 0.79969 0.6878 0.57559 0.0
Co205 Co 0.81832 0.69706 0.61094 0.0
C206 C 0.88258 0.83882 0.5921 0.0
O207 O 0.85824 0.80052 0.57997 0.0
O208 O 0.86795 0.80602 0.60483 0.0
C209 C 0.85752 0.71914 0.54534 0.0
O210 O 0.92284 0.764 0.55228 0.0
C211 C 0.89292 0.75014 0.6406 0.0
C212 C 0.84047 0.64085 0.65329 0.0
C213 C 0.89662 0.71801 0.65418 0.0
N214 N 0.83906 0.69389 0.63191 0.0
N215 N 0.80667 0.62919 0.63974 0.0
C216 C 0.9406 0.83259 0.63585 0.0
H217 H 0.90203 0.85462 0.63238 0.0
H218 H 0.9764 0.83639 0.62603 0.0
H219 H 0.97836 0.86929 0.64507 0.0
C220 C 0.88481 0.60182 0.57947 0.0
N221 N 0.85278 0.64221 0.58487 0.0
N222 N 0.86402 0.65014 0.59953 0.0
C223 C 0.90572 0.6174 0.60367 0.0
C224 C 0.91951 0.58585 0.59118 0.0
C225 C 0.87698 0.573 0.56378 0.0
H226 H 0.81482 0.53804 0.56111 0.0
H227 H 0.90473 0.62227 0.55595 0.0
H228 H 0.90402 0.53674 0.56235 0.0
O229 O 0.69144 0.6326 0.58298 0.0
O230 O 0.70422 0.63614 0.60785 0.0
H231 H 0.88208 0.57002 0.62575 0.0
H232 H 0.97802 0.60003 0.61933 0.0
C233 C 0.93146 0.61472 0.61927 0.0
H234 H 0.95288 0.67133 0.62467 0.0
H235 H 0.76384 0.57625 0.63557 0.0
O236 O 0.79706 0.67898 0.55313 0.0
C237 C 0.66239 0.61407 0.59609 0.0
Co238 Co 0.11195 0.79995 0.90931 0.0
Co239 Co 0.13161 0.82166 0.94451 0.0
C240 C 0.04955 0.88536 0.92677 0.0
O241 O 0.05974 0.85951 0.91445 0.0
O242 O 0.0713 0.87188 0.93924 0.0
C243 C 0.13133 0.8547 0.87899 0.0
O244 O 0.1523 0.92044 0.88582 0.0
C245 C 0.16032 0.89669 0.9744 0.0
C246 C 0.21895 0.8435 0.98618 0.0
C247 C 0.19774 0.89924 0.9877 0.0
N248 N 0.16146 0.84352 0.96529 0.0
N249 N 0.19518 0.81091 0.97256 0.0
C250 C 0.12498 0.94469 0.97035 0.0
H251 H 0.06405 0.90643 0.96703 0.0
H252 H 0.15609 0.98164 0.9606 0.0
H253 H 0.12698 0.98142 0.97985 0.0
C254 C 0.28408 0.88577 0.91124 0.0
N255 N 0.21335 0.85356 0.91748 0.0
N256 N 0.221 0.86631 0.93209 0.0
C257 C 0.29655 0.90931 0.93539 0.0
C258 C 0.33818 0.92225 0.92234 0.0
C259 C 0.30074 0.87671 0.89529 0.0
H260 H 0.2751 0.8144 0.89293 0.0
H261 H 0.27529 0.90175 0.88776 0.0
H262 H 0.36359 0.90565 0.89307 0.0
O263 O 0.06042 0.69236 0.91693 0.0
O264 O 0.07657 0.7067 0.94168 0.0
H265 H 0.32594 0.88914 0.95725 0.0
H266 H 0.39035 0.98399 0.95009 0.0
C267 C 0.32913 0.93754 0.95066 0.0
H268 H 0.2953 0.95978 0.95639 0.0
H269 H 0.20451 0.76826 0.96801 0.0
O270 O 0.11219 0.7949 0.88689 0.0
C271 C 0.05339 0.664 0.93001 0.0
Co272 Co 0.3091 0.11199 0.24202 0.0
Co273 Co 0.30181 0.11824 0.2775 0.0
C274 C 0.15915 0.04232 0.25896 0.0
O275 O 0.19692 0.05657 0.24677 0.0
O276 O 0.1925 0.0603 0.27162 0.0
C277 C 0.26583 0.13317 0.21247 0.0
O278 O 0.2094 0.13384 0.21983 0.0
C279 C 0.24986 0.13863 0.30736 0.0
C280 C 0.35912 0.1941 0.32003 0.0
C281 C 0.28215 0.17368 0.32098 0.0
N282 N 0.30579 0.14083 0.29859 0.0
N283 N 0.37048 0.17234 0.30641 0.0
C284 C 0.16748 0.10485 0.30266 0.0
H285 H 0.14482 0.04428 0.29907 0.0
H286 H 0.16402 0.13762 0.29295 0.0
H287 H 0.13106 0.10584 0.31194 0.0
C288 C 0.39763 0.28079 0.24626 0.0
N289 N 0.35582 0.2087 0.25167 0.0
N290 N 0.34945 0.21178 0.26637 0.0
C291 C 0.38461 0.2863 0.27059 0.0
C292 C 0.41598 0.33163 0.25805 0.0
C293 C 0.42246 0.30073 0.23031 0.0
H294 H 0.37472 0.29922 0.22383 0.0
H295 H 0.47336 0.35952 0.22939 0.0
H296 H 0.43629 0.25816 0.22543 0.0
O297 O 0.36588 0.05923 0.24863 0.0
O298 O 0.36144 0.06406 0.27362 0.0
H299 H 0.4342 0.30846 0.29245 0.0
H300 H 0.40587 0.37636 0.28649 0.0
C301 C 0.38965 0.31466 0.28627 0.0
H302 H 0.3335 0.28032 0.29191 0.0
H303 H 0.42325 0.18225 0.30218 0.0
O304 O 0.31643 0.12534 0.21967 0.0
C305 C 0.38384 0.04634 0.26161 0.0
Co306 Co 0.19627 0.31151 0.5766 0.0
Co307 Co 0.18307 0.30537 0.61204 0.0
C308 C 0.11468 0.1619 0.5932 0.0
O309 O 0.13905 0.19948 0.58101 0.0
O310 O 0.1296 0.19542 0.60589 0.0
C311 C 0.14134 0.27653 0.54603 0.0
O312 O 0.07711 0.22569 0.55262 0.0
C313 C 0.09903 0.26172 0.64074 0.0
C314 C 0.18501 0.345 0.6566 0.0
C315 C 0.1099 0.28441 0.65565 0.0
N316 N 0.16456 0.30697 0.63316 0.0
N317 N 0.21596 0.3562 0.64275 0.0
C318 C 0.02667 0.19986 0.6337 0.0
H319 H 0.02934 0.1459 0.6332 0.0
H320 H 0.02151 0.21635 0.62206 0.0
H321 H 0.97531 0.18882 0.64036 0.0
C322 C 0.1088 0.39492 0.58099 0.0
N323 N 0.14354 0.35692 0.58624 0.0
N324 N 0.13898 0.35476 0.60105 0.0
C325 C 0.10182 0.3917 0.60555 0.0
C326 C 0.08146 0.4175 0.593 0.0
C327 C 0.10533 0.41386 0.56493 0.0
H328 H 0.16361 0.45954 0.56147 0.0
H329 H 0.08691 0.36224 0.55789 0.0
H330 H 0.06465 0.43557 0.56323 0.0
O331 O 0.30523 0.36755 0.5836 0.0
O332 O 0.29683 0.36456 0.60853 0.0
H333 H 0.14249 0.42535 0.62806 0.0
H334 H 0.07042 0.44913 0.62234 0.0
C335 C 0.08882 0.40541 0.62152 0.0
H336 H 0.04301 0.35084 0.62645 0.0
H337 H 0.27179 0.39835 0.6398 0.0
O338 O 0.19905 0.32096 0.55413 0.0
C339 C 0.33664 0.3863 0.59651 0.0
Co340 Co 0.89296 0.20036 0.90825 0.0
Co341 Co 0.87386 0.18029 0.94359 0.0
C342 C 0.95513 0.11536 0.92607 0.0
O343 O 0.94532 0.14129 0.91374 0.0
O344 O 0.93313 0.12884 0.93851 0.0
C345 C 0.87995 0.14068 0.87832 0.0
O346 O 0.87953 0.0832 0.88549 0.0
C347 C 0.84363 0.10564 0.97348 0.0
C348 C 0.78775 0.16153 0.98533 0.0
C349 C 0.8071 0.10442 0.98684 0.0
N350 N 0.84392 0.15954 0.96438 0.0
N351 N 0.81176 0.19366 0.97168 0.0
C352 C 0.87692 0.05585 0.96937 0.0
H353 H 0.93854 0.09296 0.96637 0.0
H354 H 0.8464 0.02068 0.95938 0.0
H355 H 0.87245 0.01739 0.97874 0.0
C356 C 0.72317 0.1215 0.91032 0.0
N357 N 0.79311 0.14997 0.91666 0.0
N358 N 0.78471 0.13698 0.93125 0.0
C359 C 0.70892 0.09685 0.93445 0.0
C360 C 0.66815 0.0863 0.92136 0.0
C361 C 0.70917 0.13071 0.89419 0.0
H362 H 0.71381 0.08677 0.88751 0.0
H363 H 0.65068 0.12259 0.89253 0.0
H364 H 0.75306 0.18863 0.89013 0.0
O365 O 0.94522 0.30905 0.91554 0.0
O366 O 0.92963 0.29487 0.94036 0.0
H367 H 0.68005 0.11848 0.95625 0.0
H368 H 0.61368 0.02425 0.94909 0.0
C369 C 0.67541 0.0693 0.94971 0.0
H370 H 0.70769 0.0456 0.95553 0.0
H371 H 0.8037 0.23712 0.96714 0.0
O372 O 0.88564 0.19769 0.88576 0.0
C373 C 0.95284 0.33746 0.92868 0.0
Co374 Co 0.68642 0.88148 0.24324 0.0
Co375 Co 0.69336 0.87739 0.27867 0.0
C376 C 0.83633 0.95164 0.25983 0.0
O377 O 0.79858 0.93758 0.24765 0.0
O378 O 0.803 0.93351 0.27253 0.0
C379 C 0.72304 0.85968 0.213 0.0
O380 O 0.7738 0.84744 0.21994 0.0
C381 C 0.7383 0.83969 0.30741 0.0
C382 C 0.65506 0.8422 0.32332 0.0
C383 C 0.71621 0.82857 0.32234 0.0
N384 N 0.69224 0.85877 0.29982 0.0
N385 N 0.64301 0.86085 0.30943 0.0
C386 C 0.80032 0.82947 0.30035 0.0
H387 H 0.85396 0.88634 0.29973 0.0
H388 H 0.78361 0.80711 0.28875 0.0
H389 H 0.81202 0.78981 0.30706 0.0
C390 C 0.60448 0.71106 0.24805 0.0
N391 N 0.64186 0.78418 0.25312 0.0
N392 N 0.64409 0.78287 0.26794 0.0
C393 C 0.60791 0.70902 0.27262 0.0
C394 C 0.5825 0.66197 0.26017 0.0
C395 C 0.58528 0.68753 0.23205 0.0
H396 H 0.54031 0.70087 0.22847 0.0
H397 H 0.63706 0.71956 0.22498 0.0
H398 H 0.56261 0.62483 0.23052 0.0
O399 O 0.62919 0.9337 0.24997 0.0
O400 O 0.63515 0.93277 0.27492 0.0
H401 H 0.57431 0.71707 0.29508 0.0
H402 H 0.55151 0.62109 0.2896 0.0
C403 C 0.59468 0.68335 0.28864 0.0
H404 H 0.64954 0.69311 0.29359 0.0
H405 H 0.60029 0.87366 0.30647 0.0
O406 O 0.67768 0.87303 0.22079 0.0
C407 C 0.61168 0.94835 0.26283 0.0
C408 C 0.2746 0.082 1.0116 0.0
C409 C 0.26528 0.05072 0.02624 0.0
C410 C 0.1959 0.9207 0.01545 0.0
C411 C 0.21664 0.95216 1.00081 0.0
N412 N 0.29212 0.06497 0.98539 0.0
N413 N 0.23143 0.93859 0.04162 0.0
C414 C 0.26023 0.03351 0.99896 0.0
C415 C 0.22954 0.9695 0.02808 0.0
N416 N 0.29576 0.15773 1.00972 0.0
N417 N 0.1429 0.84449 0.01737 0.0
H418 H 0.25876 0.97198 0.051 0.0
H419 H 0.21289 0.88026 0.04307 0.0
H420 H 0.11487 0.80742 1.00841 0.0
H421 H 0.12073 0.82047 0.02785 0.0
H422 H 0.29642 0.1814 0.99927 0.0
H423 H 0.30424 0.19452 0.01871 0.0
H424 H 0.33061 0.12362 0.98392 0.0
H425 H 0.28686 0.03196 0.97598 0.0
C426 C 0.24039 0.20643 0.36099 0.0
C427 C 0.19564 0.24277 0.35885 0.0
C428 C 0.20921 0.23634 0.33167 0.0
C429 C 0.24635 0.19235 0.33381 0.0
N430 N 0.2772 0.11774 0.35075 0.0
N431 N 0.11958 0.27179 0.34193 0.0
C432 C 0.25537 0.17158 0.34856 0.0
C433 C 0.17419 0.25099 0.34411 0.0
N434 N 0.27314 0.20923 0.37457 0.0
N435 N 0.21136 0.26871 0.31807 0.0
H436 H 0.0905 0.28024 0.35079 0.0
H437 H 0.09726 0.27196 0.33138 0.0
H438 H 0.24016 0.26376 0.30882 0.0
H439 H 0.19155 0.30739 0.31646 0.0
H440 H 0.3124 0.19014 0.37617 0.0
H441 H 0.2678 0.23779 0.38382 0.0
H442 H 0.27793 0.09581 0.36132 0.0
H443 H 0.28604 0.08886 0.34192 0.0
C444 C 0.96808 0.15269 0.68547 0.0
C445 C 0.9449 0.20274 0.69191 0.0
C446 C 0.02334 0.30263 0.6735 0.0
C447 C 0.05205 0.25541 0.66797 0.0
N448 N 0.0606 0.13991 0.66994 0.0
N449 N 0.96103 0.33007 0.69396 0.0
C450 C 0.02677 0.18151 0.67429 0.0
C451 C 0.97542 0.27906 0.68645 0.0
N452 N 0.93232 0.07701 0.68972 0.0
N453 N 0.03957 0.36879 0.66608 0.0
H454 H 0.92679 0.31539 0.70356 0.0
H455 H 0.98862 0.38872 0.69149 0.0
H456 H 0.07391 0.38783 0.65648 0.0
H457 H 0.01334 0.40106 0.66859 0.0
H458 H 0.94056 0.03561 0.68432 0.0
H459 H 0.88946 0.05399 0.69793 0.0
H460 H 0.05087 0.08958 0.67527 0.0
H461 H 0.10332 0.15889 0.66172 0.0
C462 C 0.80936 0.08312 0.01459 0.0
C463 C 0.7874 0.05157 0.99997 0.0
C464 C 0.72717 0.92177 1.01083 0.0
C465 C 0.73791 0.95344 0.02547 0.0
N466 N 0.77469 0.0664 0.0408 0.0
N467 N 0.70894 0.93914 0.98468 0.0
C468 C 0.77535 0.0348 0.02726 0.0
C469 C 0.74199 0.97032 0.99818 0.0
N470 N 0.8638 0.15892 0.01643 0.0
N471 N 0.70428 0.84562 1.00895 0.0
H472 H 0.71461 0.97234 0.97528 0.0
H473 H 0.66926 0.88073 0.98327 0.0
H474 H 0.69559 0.80875 0.01793 0.0
H475 H 0.7024 0.82151 0.99848 0.0
H476 H 0.88676 0.18278 0.02687 0.0
H477 H 0.89206 0.1956 1.00742 0.0
H478 H 0.79468 0.12505 0.04222 0.0
H479 H 0.7469 0.03349 0.05021 0.0
C480 C 0.70058 0.72441 0.34009 0.0
C481 C 0.74624 0.80079 0.33464 0.0
C482 C 0.85029 0.8216 0.35194 0.0
C483 C 0.80192 0.74757 0.35824 0.0
N484 N 0.6762 0.63402 0.36026 0.0
N485 N 0.8599 0.92626 0.33663 0.0
C486 C 0.72569 0.70045 0.35285 0.0
C487 C 0.81994 0.85061 0.34091 0.0
N488 N 0.63453 0.67371 0.33272 0.0
N489 N 0.92587 0.86313 0.35618 0.0
H490 H 0.83977 0.94933 0.3285 0.0
H491 H 0.90997 0.96759 0.34191 0.0
H492 H 0.94989 0.84401 0.36431 0.0
H493 H 0.96631 0.9136 0.35086 0.0
H494 H 0.60354 0.61499 0.33512 0.0
H495 H 0.61419 0.68876 0.32329 0.0
H496 H 0.61752 0.60185 0.3579 0.0
H497 H 0.6921 0.61449 0.36969 0.0
C498 C 0.08198 0.82618 0.67725 0.0
C499 C 0.05226 0.80387 0.69197 0.0
C500 C 0.92135 0.74427 0.68173 0.0
C501 C 0.95118 0.75411 0.66696 0.0
N502 N 0.06261 0.79062 0.65112 0.0
N503 N 0.94127 0.72536 0.70767 0.0
C504 C 0.03233 0.79175 0.66478 0.0
C505 C 0.97119 0.75878 0.69412 0.0
N506 N 0.15736 0.88108 0.6751 0.0
N507 N 0.84564 0.72211 0.68398 0.0
H508 H 0.97522 0.73047 0.71688 0.0
H509 H 0.88296 0.68586 0.70925 0.0
H510 H 0.80792 0.71369 0.67517 0.0
H511 H 0.82291 0.72073 0.69458 0.0
H512 H 0.17984 0.90406 0.66458 0.0
H513 H 0.1949 0.9097 0.68397 0.0
H514 H 0.12112 0.81071 0.64948 0.0
H515 H 0.02891 0.76245 0.64183 0.0
C516 C 0.46302 0.9248 0.10635 0.0
C517 C 0.54454 0.96625 0.10551 0.0
C518 C 0.54564 0.08866 0.10485 0.0
C519 C 0.46434 0.04729 0.10622 0.0
N520 N 0.34612 0.92895 0.11117 0.0
N521 N 0.66502 0.08618 0.1068 0.0
C522 C 0.42314 0.96614 0.10792 0.0
C523 C 0.58643 0.04791 0.10566 0.0
N524 N 0.42379 0.84623 0.10505 0.0
N525 N 0.58338 0.16636 0.10226 0.0
H526 H 0.6968 0.05793 0.10725 0.0
H527 H 0.69837 0.14538 0.10851 0.0
H528 H 0.55549 0.19852 0.10205 0.0
H529 H 0.64143 0.19831 0.09939 0.0
H530 H 0.36424 0.81343 0.10384 0.0
H531 H 0.45117 0.81377 0.1041 0.0
H532 H 0.31441 0.87088 0.11405 0.0
H533 H 0.31491 0.95761 0.11222 0.0
C534 C 0.4593 0.53919 0.4322 0.0
C535 C 0.42057 0.4584 0.43448 0.0
C536 C 0.54263 0.45889 0.4343 0.0
C537 C 0.5816 0.54021 0.43295 0.0
N538 N 0.58047 0.65999 0.43262 0.0
N539 N 0.42284 0.34155 0.43975 0.0
C540 C 0.54093 0.58112 0.43245 0.0
C541 C 0.46153 0.41822 0.43615 0.0
N542 N 0.41793 0.57531 0.42945 0.0
N543 N 0.58309 0.42067 0.43339 0.0
H544 H 0.36305 0.30954 0.44089 0.0
H545 H 0.44999 0.31072 0.44268 0.0
H546 H 0.64289 0.44888 0.43224 0.0
H547 H 0.55735 0.36099 0.43266 0.0
H548 H 0.44262 0.63238 0.42596 0.0
H549 H 0.35786 0.54682 0.42974 0.0
H550 H 0.55429 0.69323 0.43399 0.0
H551 H 0.6405 0.69275 0.43243 0.0
C552 C 0.95311 0.54142 0.76839 0.0
C553 C 0.03474 0.58128 0.76851 0.0
C554 C 0.03526 0.45982 0.76965 0.0
C555 C 0.95398 0.42002 0.76818 0.0
N556 N 0.83477 0.42003 0.76466 0.0
N557 N 0.15499 0.5813 0.76757 0.0
C558 C 0.91252 0.45997 0.76716 0.0
C559 C 0.07637 0.54133 0.76873 0.0
N560 N 0.91471 0.58154 0.76975 0.0
N561 N 0.0728 0.41963 0.77218 0.0
H562 H 0.18729 0.64135 0.76722 0.0
H563 H 0.18814 0.55522 0.76593 0.0
H564 H 0.04474 0.35956 0.77253 0.0
H565 H 0.13085 0.44553 0.77502 0.0
H566 H 0.85544 0.55554 0.77132 0.0
H567 H 0.9428 0.64154 0.77043 0.0
H568 H 0.80249 0.44615 0.76211 0.0
H569 H 0.8028 0.35999 0.76415 0.0
C570 C 0.0815 0.54117 0.59006 0.0
C571 C 0.03975 0.46045 0.59243 0.0
C572 C 0.91875 0.46174 0.594 0.0
C573 C 0.95999 0.54168 0.59076 0.0
N574 N 0.07721 0.65647 0.58358 0.0
N575 N 0.91912 0.34098 0.59448 0.0
C576 C 0.04046 0.58114 0.58812 0.0
C577 C 0.95841 0.41978 0.5938 0.0
N578 N 0.16033 0.57969 0.59015 0.0
N579 N 0.84214 0.42651 0.59756 0.0
H580 H 0.94642 0.30826 0.59463 0.0
H581 H 0.8594 0.30746 0.59381 0.0
H582 H 0.81031 0.45471 0.59716 0.0
H583 H 0.81096 0.3707 0.60178 0.0
H584 H 0.19427 0.63949 0.5901 0.0
H585 H 0.19234 0.55201 0.59143 0.0
H586 H 0.13416 0.68614 0.57992 0.0
H587 H 0.04911 0.68812 0.58238 0.0
C588 C 0.54377 0.96352 0.91889 0.0
C589 C 0.58382 0.04503 0.91972 0.0
C590 C 0.46234 0.04574 0.91973 0.0
C591 C 0.4226 0.96425 0.92074 0.0
N592 N 0.42319 0.84447 0.92261 0.0
N593 N 0.58411 0.16505 0.92205 0.0
C594 C 0.46259 0.92264 0.92059 0.0
C595 C 0.54396 0.08671 0.92034 0.0
N596 N 0.58351 0.92556 0.91632 0.0
N597 N 0.42192 0.0836 0.91799 0.0
H598 H 0.64417 0.19724 0.92207 0.0
H599 H 0.55824 0.19784 0.92436 0.0
H600 H 0.36185 0.05528 0.91773 0.0
H601 H 0.44759 0.14221 0.91564 0.0
H602 H 0.5571 0.86676 0.91411 0.0
H603 H 0.64331 0.95398 0.91516 0.0
H604 H 0.44987 0.81195 0.92434 0.0
H605 H 0.36335 0.8123 0.9236 0.0
C606 C 0.41891 0.45683 0.25606 0.0
C607 C 0.4596 0.41631 0.2576 0.0
C608 C 0.58156 0.53718 0.26004 0.0
C609 C 0.54002 0.57725 0.25973 0.0
N610 N 0.41988 0.57745 0.25932 0.0
N611 N 0.57691 0.41442 0.26252 0.0
C612 C 0.45879 0.53773 0.25824 0.0
C613 C 0.54029 0.45548 0.25997 0.0
N614 N 0.34248 0.41791 0.25231 0.0
N615 N 0.6604 0.57738 0.26 0.0
H616 H 0.54896 0.3544 0.26194 0.0
H617 H 0.63385 0.43921 0.26608 0.0
H618 H 0.69265 0.63741 0.26047 0.0
H619 H 0.69415 0.55185 0.25851 0.0
H620 H 0.31136 0.4449 0.24948 0.0
H621 H 0.31109 0.35824 0.25089 0.0
H622 H 0.36014 0.55111 0.25995 0.0
H623 H 0.44751 0.63709 0.26075 0.0
C624 C 0.26488 0.1975 0.18821 0.0
C625 C 0.26691 0.13607 0.19578 0.0
C626 C 0.27411 0.08165 0.17154 0.0
C627 C 0.26672 0.14005 0.16397 0.0
N628 N 0.2381 0.24347 0.16511 0.0
N629 N 0.25521 0.01023 0.19456 0.0
C630 C 0.25777 0.19546 0.1723 0.0
C631 C 0.26686 0.07567 0.18743 0.0
N632 N 0.27158 0.25896 0.19614 0.0
N633 N 0.28988 0.03275 0.16362 0.0
H634 H 0.24678 0.00191 0.20611 0.0
H635 H 0.24593 0.96082 0.1889 0.0
H636 H 0.293 0.03297 0.15196 0.0
H637 H 0.3058 0.99589 0.16866 0.0
H638 H 0.2805 0.30971 0.19111 0.0
H639 H 0.27411 0.26198 0.20779 0.0
H640 H 0.22211 0.27891 0.17072 0.0
H641 H 0.2302 0.2426 0.15354 0.0
C642 C 0.10373 0.2109 0.5053 0.0
C643 C 0.13954 0.28193 0.49737 0.0
C644 C 0.17439 0.3513 0.52148 0.0
C645 C 0.14577 0.28013 0.52928 0.0
N646 N 0.10208 0.14391 0.52796 0.0
N647 N 0.21925 0.42082 0.49814 0.0
C648 C 0.11581 0.2104 0.52099 0.0
C649 C 0.17748 0.35242 0.50552 0.0
N650 N 0.05504 0.14383 0.498 0.0
N651 N 0.19609 0.41802 0.52917 0.0
H652 H 0.22035 0.42582 0.48656 0.0
H653 H 0.25733 0.47224 0.5035 0.0
H654 H 0.19936 0.4219 0.54076 0.0
H655 H 0.20599 0.4689 0.52404 0.0
H656 H 0.02175 0.09162 0.50356 0.0
H657 H 0.0409 0.14188 0.48669 0.0
H658 H 0.0872 0.0932 0.52215 0.0
H659 H 0.11438 0.14168 0.53926 0.0
C660 C 0.93111 0.20464 0.83755 0.0
C661 C 0.87311 0.13934 0.82978 0.0
C662 C 0.81648 0.07696 0.85388 0.0
C663 C 0.87734 0.14022 0.86162 0.0
N664 N 0.002 0.25588 0.86068 0.0
N665 N 0.77113 0.00648 0.83052 0.0
C666 C 0.93711 0.20198 0.85342 0.0
C667 C 0.81843 0.07369 0.83793 0.0
N668 N 0.97967 0.27015 0.82981 0.0
N669 N 0.75561 0.0206 0.86168 0.0
H670 H 0.77193 0.00067 0.8189 0.0
H671 H 0.7364 0.95425 0.83595 0.0
H672 H 0.75279 0.01841 0.87334 0.0
H673 H 0.70505 0.97891 0.85658 0.0
H674 H 0.01622 0.32264 0.83499 0.0
H675 H 0.97953 0.27384 0.81817 0.0
H676 H 0.05116 0.29716 0.85512 0.0
H677 H 0.01016 0.25488 0.87221 0.0
C678 C 0.6508 0.81481 0.1723 0.0
C679 C 0.72213 0.84943 0.16439 0.0
C680 C 0.7911 0.89994 0.18816 0.0
C681 C 0.72082 0.85937 0.19624 0.0
N682 N 0.58366 0.76911 0.19586 0.0
N683 N 0.86042 0.90647 0.16551 0.0
C684 C 0.65063 0.81458 0.18828 0.0
C685 C 0.79235 0.88667 0.17254 0.0
N686 N 0.58262 0.7844 0.16471 0.0
N687 N 0.85637 0.95419 0.19525 0.0
H688 H 0.86359 0.89379 0.15427 0.0
H689 H 0.91236 0.92702 0.17124 0.0
H690 H 0.85724 0.96912 0.20649 0.0
H691 H 0.90728 0.99066 0.18955 0.0
H692 H 0.53048 0.77054 0.16981 0.0
H693 H 0.57791 0.77649 0.1532 0.0
H694 H 0.53383 0.72624 0.19074 0.0
H695 H 0.57854 0.77049 0.2074 0.0
C696 C 0.82034 0.64844 0.50449 0.0
C697 C 0.8644 0.71937 0.4967 0.0
C698 C 0.89201 0.78896 0.52064 0.0
C699 C 0.85509 0.718 0.52858 0.0
N700 N 0.79259 0.5788 0.52787 0.0
N701 N 0.95881 0.85503 0.498 0.0
C702 C 0.82133 0.64737 0.52046 0.0
C703 C 0.90497 0.78905 0.50497 0.0
N704 N 0.77486 0.58194 0.49678 0.0
N705 N 0.91169 0.85644 0.52791 0.0
H706 H 0.97349 0.85687 0.48672 0.0
H707 H 0.99524 0.90557 0.50381 0.0
H708 H 0.89934 0.85877 0.5392 0.0
H709 H 0.93195 0.90883 0.52234 0.0
H710 H 0.73274 0.53147 0.50185 0.0
H711 H 0.77526 0.57792 0.4852 0.0
H712 H 0.77843 0.52703 0.52256 0.0
H713 H 0.78742 0.57379 0.53943 0.0
C714 C 0.16853 0.81887 0.85422 0.0
C715 C 0.13053 0.85183 0.86224 0.0
C716 C 0.11347 0.90511 0.83869 0.0
C717 C 0.14497 0.86661 0.83048 0.0
N718 N 0.19593 0.77965 0.8305 0.0
N719 N 0.04886 0.90837 0.86135 0.0
C720 C 0.1711 0.82191 0.83826 0.0
C721 C 0.09789 0.88984 0.85424 0.0
N722 N 0.20499 0.78686 0.86174 0.0
N723 N 0.10171 0.95931 0.83179 0.0
H724 H 0.03245 0.89436 0.87254 0.0
H725 H 0.01755 0.92931 0.85573 0.0
H726 H 0.11629 0.97543 0.82061 0.0
H727 H 0.08604 0.99455 0.83759 0.0
H728 H 0.24482 0.77485 0.85674 0.0
H729 H 0.19843 0.77493 0.87312 0.0
H730 H 0.20258 0.73597 0.83532 0.0
H731 H 0.20675 0.78524 0.81907 0.0
C732 C 0.47953 0.55629 0.09068 0.0
C733 C 0.55735 0.5817 0.09474 0.0
C734 C 0.52338 0.44798 0.10001 0.0
C735 C 0.44603 0.42244 0.09558 0.0
N736 N 0.35322 0.44929 0.08417 0.0
N737 N 0.65671 0.55208 0.10065 0.0
C738 C 0.42513 0.47574 0.09004 0.0
C739 C 0.58018 0.52751 0.09867 0.0
N740 N 0.45651 0.6092 0.08828 0.0
N741 N 0.54236 0.39611 0.10564 0.0
H742 H 0.69953 0.60981 0.09965 0.0
H743 H 0.67874 0.51521 0.10204 0.0
H744 H 0.50423 0.33679 0.10584 0.0
H745 H 0.59468 0.41178 0.11083 0.0
H746 H 0.39918 0.59468 0.08703 0.0
H747 H 0.49406 0.66858 0.08865 0.0
H748 H 0.33697 0.48409 0.0784 0.0
H749 H 0.31119 0.39103 0.08406 0.0
C750 C 0.94605 0.42014 0.43219 0.0
C751 C 0.02341 0.44255 0.42868 0.0
C752 C 0.05194 0.57541 0.42392 0.0
C753 C 0.97674 0.5547 0.42883 0.0
N754 N 0.85159 0.45846 0.43801 0.0
N755 N 0.15302 0.54239 0.42276 0.0
C756 C 0.92359 0.47727 0.43308 0.0
C757 C 0.07707 0.52033 0.42482 0.0
N758 N 0.89359 0.3437 0.43419 0.0
N759 N 0.09928 0.64775 0.41837 0.0
H760 H 0.17386 0.50403 0.4232 0.0
H761 H 0.19668 0.5995 0.42166 0.0
H762 H 0.08407 0.6905 0.41819 0.0
H763 H 0.15136 0.66405 0.413 0.0
H764 H 0.83456 0.32176 0.43527 0.0
H765 H 0.90844 0.30072 0.43363 0.0
H766 H 0.81355 0.40617 0.44307 0.0
H767 H 0.83043 0.49657 0.4377 0.0
C768 C 0.44663 0.92316 0.75858 0.0
C769 C 0.42226 0.97664 0.7624 0.0
C770 C 0.5563 0.07573 0.76752 0.0
C771 C 0.58093 0.02294 0.76323 0.0
N772 N 0.55238 0.90136 0.75242 0.0
N773 N 0.45303 0.10613 0.76821 0.0
C774 C 0.52689 0.94823 0.75799 0.0
C775 C 0.47694 0.0536 0.76627 0.0
N776 N 0.39287 0.84736 0.75626 0.0
N777 N 0.60893 0.1471 0.77284 0.0
H778 H 0.3954 0.09162 0.76735 0.0
H779 H 0.49022 0.16505 0.76951 0.0
H780 H 0.66819 0.16812 0.77285 0.0
H781 H 0.59407 0.18459 0.77793 0.0
H782 H 0.4064 0.80376 0.75517 0.0
H783 H 0.33365 0.82651 0.75651 0.0
H784 H 0.51712 0.84986 0.74682 0.0
H785 H 0.61032 0.9165 0.75246 0.0
C786 C 0.52384 0.57977 0.59396 0.0
C787 C 0.57875 0.55739 0.59749 0.0
C788 C 0.47431 0.42472 0.6024 0.0
C789 C 0.41988 0.44532 0.59742 0.0
N790 N 0.39111 0.54137 0.5881 0.0
N791 N 0.60837 0.45758 0.60353 0.0
C792 C 0.44424 0.52266 0.5931 0.0
C793 C 0.55455 0.4797 0.60145 0.0
N794 N 0.54785 0.65619 0.59193 0.0
N795 N 0.44923 0.35257 0.60806 0.0
H796 H 0.66758 0.49582 0.60302 0.0
H797 H 0.59479 0.40046 0.60469 0.0
H798 H 0.39123 0.30993 0.60829 0.0
H799 H 0.48498 0.33642 0.61346 0.0
H800 H 0.51074 0.6781 0.59083 0.0
H801 H 0.60568 0.69918 0.59249 0.0
H802 H 0.40547 0.59355 0.58299 0.0
H803 H 0.33183 0.50328 0.58842 0.0
C804 C 0.94841 0.52589 0.92729 0.0
C805 C 0.02533 0.57993 0.93134 0.0
C806 C 0.05161 0.47378 0.93576 0.0
C807 C 0.97749 0.42071 0.93014 0.0
N808 N 0.85505 0.39489 0.92004 0.0
N809 N 0.1536 0.60718 0.93778 0.0
C810 C 0.92577 0.44646 0.92577 0.0
C811 C 0.07771 0.55436 0.9353 0.0
N812 N 0.89643 0.55049 0.9254 0.0
N813 N 0.09705 0.44712 0.94155 0.0
H814 H 0.1754 0.66657 0.93755 0.0
H815 H 0.19644 0.59264 0.93895 0.0
H816 H 0.08102 0.38891 0.94149 0.0
H817 H 0.14794 0.48164 0.94738 0.0
H818 H 0.83757 0.51365 0.92394 0.0
H819 H 0.91124 0.60812 0.92655 0.0
H820 H 0.81852 0.41084 0.9149 0.0
H821 H 0.8339 0.3356 0.91969 0.0
C822 C 0.57581 0.05071 0.25866 0.0
C823 C 0.55485 0.97548 0.26363 0.0
C824 C 0.42059 0.94558 0.26715 0.0
C825 C 0.44239 0.02168 0.2627 0.0
N826 N 0.54227 0.1513 0.25686 0.0
N827 N 0.45977 0.85298 0.27408 0.0
C828 C 0.52048 0.07554 0.25917 0.0
C829 C 0.47801 0.92359 0.26842 0.0
N830 N 0.6485 0.09817 0.25327 0.0
N831 N 0.3444 0.89349 0.26953 0.0
H832 H 0.49812 0.83214 0.27424 0.0
H833 H 0.4079 0.81621 0.27941 0.0
H834 H 0.30134 0.90818 0.26891 0.0
H835 H 0.32272 0.83478 0.27116 0.0
H836 H 0.66486 0.1498 0.24772 0.0
H837 H 0.6919 0.0839 0.2536 0.0
H838 H 0.59935 0.19516 0.25587 0.0
H839 H 0.50367 0.17188 0.25714 0.0
C840 C 0.02437 0.07935 0.09565 0.0
C841 C 0.07942 0.05928 0.10041 0.0
C842 C 0.97678 0.92448 0.10393 0.0
C843 C 0.92143 0.94577 0.10007 0.0
N844 N 0.89019 0.04558 0.09514 0.0
N845 N 0.10944 0.96518 0.11035 0.0
C846 C 0.94457 0.0238 0.09668 0.0
C847 C 0.05593 0.98254 0.105 0.0
N848 N 0.04841 0.15126 0.08998 0.0
N849 N 0.95389 0.84833 0.10595 0.0
H850 H 0.16848 0.00441 0.11041 0.0
H851 H 0.09539 0.91324 0.11553 0.0
H852 H 0.89635 0.80467 0.10536 0.0
H853 H 0.9918 0.82744 0.10717 0.0
H854 H 0.01182 0.16656 0.08464 0.0
H855 H 0.10621 0.19446 0.08969 0.0
H856 H 0.90345 0.10273 0.09427 0.0
H857 H 0.83114 0.00716 0.09604 0.0
C858 C 0.94503 0.02233 0.43068 0.0
C859 C 0.02112 0.0782 0.43477 0.0
C860 C 0.05597 0.97705 0.43721 0.0
C861 C 0.97885 0.92101 0.43387 0.0
N862 N 0.84618 0.88741 0.43038 0.0
N863 N 0.14805 0.11012 0.44337 0.0
C864 C 0.92226 0.94284 0.43141 0.0
C865 C 0.07623 0.05585 0.43855 0.0
N866 N 0.8949 0.04536 0.4259 0.0
N867 N 0.11026 0.95508 0.43853 0.0
H868 H 0.16702 0.16897 0.44365 0.0
H869 H 0.18777 0.09686 0.44794 0.0
H870 H 0.0968 0.89768 0.43783 0.0
H871 H 0.16916 0.99352 0.43931 0.0
H872 H 0.84178 0.00827 0.42101 0.0
H873 H 0.90848 0.10289 0.42592 0.0
H874 H 0.80137 0.8995 0.43015 0.0
H875 H 0.82686 0.82853 0.43106 0.0
C876 C 0.92671 0.9486 0.76278 0.0
C877 C 0.94683 0.02484 0.76672 0.0
C878 C 0.08227 0.05912 0.77001 0.0
C879 C 0.06106 0.9817 0.76693 0.0
N880 N 0.96203 0.84923 0.76301 0.0
N881 N 0.04141 0.15225 0.77521 0.0
C882 C 0.98295 0.92543 0.76401 0.0
C883 C 0.02397 0.07994 0.77073 0.0
N884 N 0.85409 0.89866 0.75768 0.0
N885 N 0.15845 0.11308 0.77167 0.0
H886 H 0.00192 0.17169 0.77494 0.0
H887 H 0.09386 0.1921 0.77996 0.0
H888 H 0.20213 0.09916 0.77144 0.0
H889 H 0.17928 0.1721 0.77232 0.0
H890 H 0.83831 0.84535 0.75291 0.0
H891 H 0.8105 0.91267 0.75727 0.0
H892 H 0.9051 0.80457 0.76252 0.0
H893 H 0.00124 0.82958 0.76389 0.0
C894 C 0.0181 0.94454 0.58751 0.0
C895 C 0.94067 0.92193 0.5914 0.0
C896 C 0.97701 0.05713 0.59496 0.0
C897 C 0.05544 0.07919 0.59241 0.0
N898 N 0.15287 0.04544 0.58754 0.0
N899 N 0.84734 0.95429 0.60055 0.0
C900 C 0.0766 0.02334 0.58892 0.0
C901 C 0.92042 0.97758 0.59565 0.0
N902 N 0.03569 0.89055 0.58253 0.0
N903 N 0.95617 0.11238 0.59609 0.0
H904 H 0.80346 0.89673 0.60051 0.0
H905 H 0.83138 0.9912 0.60555 0.0
H906 H 0.9956 0.17129 0.59539 0.0
H907 H 0.89921 0.1001 0.59639 0.0
H908 H 0.08862 0.90409 0.57788 0.0
H909 H 0.99586 0.83169 0.58219 0.0
H910 H 0.17336 0.00706 0.58665 0.0
H911 H 0.1968 0.10281 0.58832 0.0
C912 C 0.05525 0.0774 0.93072 0.0
C913 C 0.98046 0.0574 0.92576 0.0
C914 C 0.94852 0.92265 0.92229 0.0
C915 C 0.02495 0.94392 0.92633 0.0
N916 N 0.15573 0.0438 0.93149 0.0
N917 N 0.85703 0.96339 0.91551 0.0
C918 C 0.07962 0.02193 0.9298 0.0
C919 C 0.92752 0.98071 0.92108 0.0
N920 N 0.10275 0.14921 0.93648 0.0
N921 N 0.89535 0.84651 0.92021 0.0
H922 H 0.83722 0.0026 0.91533 0.0
H923 H 0.81956 0.91152 0.91026 0.0
H924 H 0.90915 0.80283 0.92092 0.0
H925 H 0.83662 0.82565 0.91886 0.0
H926 H 0.15425 0.16437 0.94197 0.0
H927 H 0.08814 0.1924 0.9367 0.0
H928 H 0.19952 0.10098 0.93241 0.0
H929 H 0.1765 0.00548 0.93065 0.0
C930 C 0.05392 0.07304 0.25472 0.0
C931 C 0.07619 0.01772 0.25838 0.0
C932 C 0.94082 0.91849 0.26149 0.0
C933 C 0.91897 0.97511 0.25906 0.0
N934 N 0.95295 0.10677 0.25468 0.0
N935 N 0.04326 0.89108 0.26704 0.0
C936 C 0.97503 0.05252 0.25593 0.0
C937 C 0.02028 0.94137 0.26231 0.0
N938 N 0.10836 0.14529 0.25012 0.0
N939 N 0.88546 0.8423 0.26239 0.0
H940 H 0.10083 0.9049 0.26713 0.0
H941 H 0.00605 0.83762 0.2718 0.0
H942 H 0.8266 0.82293 0.26166 0.0
H943 H 0.89761 0.79752 0.26258 0.0
H944 H 0.09529 0.1853 0.24562 0.0
H945 H 0.16724 0.16443 0.24997 0.0
H946 H 0.9913 0.16576 0.25404 0.0
H947 H 0.89549 0.09311 0.25528 0.0
loop_
_geom_bond_atom_site_label_1
_geom_bond_atom_site_label_2
_geom_bond_distance
_geom_bond_site_symmetry_2
_ccdc_geom_bond_type
Co0 O3 1.970 . S
Co0 N17 1.989 . S
Co0 O25 1.967 . S
Co0 O32 1.920 . S
Co1 O4 1.966 . S
Co1 N10 2.022 . S
Co1 N18 1.993 . S
Co1 O26 1.941 . S
C2 O3 1.258 . S
C2 O4 1.263 . S
O3 Co0 1.970 . S
O3 C2 1.258 . S
O4 Co1 1.966 . S
O4 C2 1.263 . S
C5 O6 1.235 . S
C5 O32 1.289 . S
O6 C5 1.235 . S
C7 C9 1.400 . S
C7 N10 1.351 . S
C7 C12 1.501 . S
C8 C9 1.387 . S
C8 N11 1.341 . S
C9 C7 1.400 . S
C9 C8 1.387 . S
N10 Co1 2.022 . S
N10 C7 1.351 . S
N10 N11 1.365 . S
N11 C8 1.341 . S
N11 N10 1.365 . S
N11 H31 0.862 . S
C12 C7 1.501 . S
C12 H13 0.961 . S
C12 H14 0.961 1_545 S
C12 H15 0.960 . S
H13 C12 0.961 . S
H14 C12 0.961 1_565 S
H15 C12 0.960 . S
C16 N17 1.342 . S
C16 C20 1.401 . S
C16 C21 1.499 . S
N17 Co0 1.989 . S
N17 C16 1.342 . S
N17 N18 1.388 . S
N18 Co1 1.993 . S
N18 N17 1.388 . S
N18 C19 1.346 . S
C19 N18 1.346 . S
C19 C20 1.396 . S
C19 C29 1.510 . S
C20 C16 1.401 . S
C20 C19 1.396 . S
C21 C16 1.499 . S
C21 H22 0.959 . S
C21 H23 0.960 . S
C21 H24 0.961 . S
H22 C21 0.959 . S
H23 C21 0.960 . S
H24 C21 0.961 . S
O25 Co0 1.967 . S
O25 C33 1.258 . S
O26 Co1 1.941 . S
O26 C33 1.266 . S
H27 C29 0.959 . S
H28 C29 0.961 1_565 S
C29 C19 1.510 . S
C29 H27 0.959 . S
C29 H28 0.961 1_545 S
C29 H30 0.960 . S
H30 C29 0.960 . S
H31 N11 0.862 . S
O32 Co0 1.920 . S
O32 C5 1.289 . S
C33 O25 1.258 . S
C33 O26 1.266 . S
Co34 O37 1.970 . S
Co34 N51 1.989 . S
Co34 O59 1.967 . S
Co34 O66 1.920 . S
Co35 O38 1.966 . S
Co35 N44 2.022 . S
Co35 N52 1.993 . S
Co35 O60 1.941 . S
C36 O37 1.258 . S
C36 O38 1.263 . S
O37 Co34 1.970 . S
O37 C36 1.258 . S
O38 Co35 1.966 . S
O38 C36 1.263 . S
C39 O40 1.235 . S
C39 O66 1.289 . S
O40 C39 1.235 . S
C41 C43 1.400 . S
C41 N44 1.351 . S
C41 C46 1.501 . S
C42 C43 1.387 . S
C42 N45 1.341 . S
C43 C41 1.400 . S
C43 C42 1.387 . S
N44 Co35 2.022 . S
N44 C41 1.351 . S
N44 N45 1.365 . S
N45 C42 1.341 . S
N45 N44 1.365 . S
N45 H65 0.862 . S
C46 C41 1.501 . S
C46 H47 0.961 . S
C46 H48 0.961 . S
C46 H49 0.960 . S
H47 C46 0.961 . S
H48 C46 0.961 . S
H49 C46 0.960 . S
C50 N51 1.342 . S
C50 C54 1.401 . S
C50 C55 1.499 . S
N51 Co34 1.989 . S
N51 C50 1.342 . S
N51 N52 1.388 . S
N52 Co35 1.993 . S
N52 N51 1.388 . S
N52 C53 1.346 . S
C53 N52 1.346 . S
C53 C54 1.396 . S
C53 C63 1.510 . S
C54 C50 1.401 . S
C54 C53 1.396 . S
C55 C50 1.499 . S
C55 H56 0.959 . S
C55 H57 0.960 . S
C55 H58 0.961 . S
H56 C55 0.959 . S
H57 C55 0.960 . S
H58 C55 0.961 . S
O59 Co34 1.967 . S
O59 C67 1.258 . S
O60 Co35 1.941 . S
O60 C67 1.266 . S
H61 C63 0.959 . S
H62 C63 0.961 . S
C63 C53 1.510 . S
C63 H61 0.959 . S
C63 H62 0.961 . S
C63 H64 0.960 . S
H64 C63 0.960 . S
H65 N45 0.862 . S
O66 Co34 1.920 . S
O66 C39 1.289 . S
C67 O59 1.258 . S
C67 O60 1.266 . S
Co68 O71 1.970 . S
Co68 N85 1.989 . S
Co68 O93 1.967 . S
Co68 O100 1.920 . S
Co69 O72 1.966 . S
Co69 N78 2.022 . S
Co69 N86 1.993 . S
Co69 O94 1.941 . S
C70 O71 1.258 . S
C70 O72 1.263 . S
O71 Co68 1.970 . S
O71 C70 1.258 . S
O72 Co69 1.966 . S
O72 C70 1.263 . S
C73 O74 1.235 . S
C73 O100 1.289 . S
O74 C73 1.235 . S
C75 C77 1.400 . S
C75 N78 1.351 . S
C75 C80 1.501 . S
C76 C77 1.387 . S
C76 N79 1.341 . S
C77 C75 1.400 . S
C77 C76 1.387 . S
N78 Co69 2.022 . S
N78 C75 1.351 . S
N78 N79 1.365 . S
N79 C76 1.341 . S
N79 N78 1.365 . S
N79 H99 0.862 . S
C80 C75 1.501 . S
C80 H81 0.961 . S
C80 H82 0.961 1_655 S
C80 H83 0.960 . S
H81 C80 0.961 . S
H82 C80 0.961 1_455 S
H83 C80 0.960 . S
C84 N85 1.342 . S
C84 C88 1.401 . S
C84 C89 1.499 . S
N85 Co68 1.989 . S
N85 C84 1.342 . S
N85 N86 1.388 . S
N86 Co69 1.993 . S
N86 N85 1.388 . S
N86 C87 1.346 . S
C87 N86 1.346 . S
C87 C88 1.396 . S
C87 C97 1.510 . S
C88 C84 1.401 . S
C88 C87 1.396 . S
C89 C84 1.499 . S
C89 H90 0.959 . S
C89 H91 0.960 . S
C89 H92 0.961 . S
H90 C89 0.959 . S
H91 C89 0.960 . S
H92 C89 0.961 . S
O93 Co68 1.967 . S
O93 C101 1.258 . S
O94 Co69 1.941 . S
O94 C101 1.266 . S
H95 C97 0.959 . S
H96 C97 0.961 1_455 S
C97 C87 1.510 . S
C97 H95 0.959 . S
C97 H96 0.961 1_655 S
C97 H98 0.960 . S
H98 C97 0.960 . S
H99 N79 0.862 . S
O100 Co68 1.920 . S
O100 C73 1.289 . S
C101 O93 1.258 . S
C101 O94 1.266 . S
Co102 O105 1.970 . S
Co102 N119 1.989 . S
Co102 O127 1.967 . S
Co102 O134 1.920 . S
Co103 O106 1.966 . S
Co103 N112 2.022 . S
Co103 N120 1.993 . S
Co103 O128 1.941 . S
C104 O105 1.258 . S
C104 O106 1.263 . S
O105 Co102 1.970 . S
O105 C104 1.258 . S
O106 Co103 1.966 . S
O106 C104 1.263 . S
C107 O108 1.235 . S
C107 O134 1.289 . S
O108 C107 1.235 . S
C109 C111 1.400 . S
C109 N112 1.351 . S
C109 C114 1.501 . S
C110 C111 1.387 . S
C110 N113 1.341 . S
C111 C109 1.400 . S
C111 C110 1.387 . S
N112 Co103 2.022 . S
N112 C109 1.351 . S
N112 N113 1.365 . S
N113 C110 1.341 . S
N113 N112 1.365 . S
N113 H133 0.862 . S
C114 C109 1.501 . S
C114 H115 0.961 . S
C114 H116 0.961 1_565 S
C114 H117 0.960 . S
H115 C114 0.961 . S
H116 C114 0.961 1_545 S
H117 C114 0.960 . S
C118 N119 1.342 . S
C118 C122 1.401 . S
C118 C123 1.499 . S
N119 Co102 1.989 . S
N119 C118 1.342 . S
N119 N120 1.388 . S
N120 Co103 1.993 . S
N120 N119 1.388 . S
N120 C121 1.346 . S
C121 N120 1.346 . S
C121 C122 1.396 . S
C121 C131 1.510 . S
C122 C118 1.401 . S
C122 C121 1.396 . S
C123 C118 1.499 . S
C123 H124 0.959 . S
C123 H125 0.960 . S
C123 H126 0.961 . S
H124 C123 0.959 . S
H125 C123 0.960 . S
H126 C123 0.961 . S
O127 Co102 1.967 . S
O127 C135 1.258 . S
O128 Co103 1.941 . S
O128 C135 1.266 . S
H129 C131 0.959 . S
H130 C131 0.961 1_545 S
C131 C121 1.510 . S
C131 H129 0.959 . S
C131 H130 0.961 1_565 S
C131 H132 0.960 . S
H132 C131 0.960 . S
H133 N113 0.862 . S
O134 Co102 1.920 . S
O134 C107 1.289 . S
C135 O127 1.258 . S
C135 O128 1.266 . S
Co136 O139 1.970 . S
Co136 N153 1.989 . S
Co136 O161 1.967 . S
Co136 O168 1.920 . S
Co137 O140 1.966 . S
Co137 N146 2.022 . S
Co137 N154 1.993 . S
Co137 O162 1.941 . S
C138 O139 1.258 . S
C138 O140 1.263 . S
O139 Co136 1.970 . S
O139 C138 1.258 . S
O140 Co137 1.966 . S
O140 C138 1.263 . S
C141 O142 1.235 . S
C141 O168 1.289 . S
O142 C141 1.235 . S
C143 C145 1.400 . S
C143 N146 1.351 . S
C143 C148 1.501 . S
C144 C145 1.387 . S
C144 N147 1.341 . S
C145 C143 1.400 . S
C145 C144 1.387 . S
N146 Co137 2.022 . S
N146 C143 1.351 . S
N146 N147 1.365 . S
N147 C144 1.341 . S
N147 N146 1.365 . S
N147 H167 0.862 . S
C148 C143 1.501 . S
C148 H149 0.961 . S
C148 H150 0.961 . S
C148 H151 0.960 . S
H149 C148 0.961 . S
H150 C148 0.961 . S
H151 C148 0.960 . S
C152 N153 1.342 . S
C152 C156 1.401 . S
C152 C157 1.499 . S
N153 Co136 1.989 . S
N153 C152 1.342 . S
N153 N154 1.388 . S
N154 Co137 1.993 . S
N154 N153 1.388 . S
N154 C155 1.346 . S
C155 N154 1.346 . S
C155 C156 1.396 . S
C155 C165 1.510 . S
C156 C152 1.401 . S
C156 C155 1.396 . S
C157 C152 1.499 . S
C157 H158 0.959 . S
C157 H159 0.960 . S
C157 H160 0.961 . S
H158 C157 0.959 . S
H159 C157 0.960 . S
H160 C157 0.961 . S
O161 Co136 1.967 . S
O161 C169 1.258 . S
O162 Co137 1.941 . S
O162 C169 1.266 . S
H163 C165 0.959 . S
H164 C165 0.961 . S
C165 C155 1.510 . S
C165 H163 0.959 . S
C165 H164 0.961 . S
C165 H166 0.960 . S
H166 C165 0.960 . S
H167 N147 0.862 . S
O168 Co136 1.920 . S
O168 C141 1.289 . S
C169 O161 1.258 . S
C169 O162 1.266 . S
Co170 O173 1.970 . S
Co170 N187 1.989 . S
Co170 O195 1.967 . S
Co170 O202 1.920 . S
Co171 O174 1.966 . S
Co171 N180 2.022 . S
Co171 N188 1.993 . S
Co171 O196 1.941 . S
C172 O173 1.258 . S
C172 O174 1.263 . S
O173 Co170 1.970 . S
O173 C172 1.258 . S
O174 Co171 1.966 . S
O174 C172 1.263 . S
C175 O176 1.235 . S
C175 O202 1.289 . S
O176 C175 1.235 . S
C177 C179 1.400 . S
C177 N180 1.351 . S
C177 C182 1.501 . S
C178 C179 1.387 . S
C178 N181 1.341 . S
C179 C177 1.400 . S
C179 C178 1.387 . S
N180 Co171 2.022 . S
N180 C177 1.351 . S
N180 N181 1.365 . S
N181 C178 1.341 . S
N181 N180 1.365 . S
N181 H201 0.862 . S
C182 C177 1.501 . S
C182 H183 0.961 . S
C182 H184 0.961 1_455 S
C182 H185 0.960 . S
H183 C182 0.961 . S
H184 C182 0.961 1_655 S
H185 C182 0.960 . S
C186 N187 1.342 . S
C186 C190 1.401 . S
C186 C191 1.499 . S
N187 Co170 1.989 . S
N187 C186 1.342 . S
N187 N188 1.388 . S
N188 Co171 1.993 . S
N188 N187 1.388 . S
N188 C189 1.346 . S
C189 N188 1.346 . S
C189 C190 1.396 . S
C189 C199 1.510 . S
C190 C186 1.401 . S
C190 C189 1.396 . S
C191 C186 1.499 . S
C191 H192 0.959 . S
C191 H193 0.960 . S
C191 H194 0.961 . S
H192 C191 0.959 . S
H193 C191 0.960 . S
H194 C191 0.961 . S
O195 Co170 1.967 . S
O195 C203 1.258 . S
O196 Co171 1.941 . S
O196 C203 1.266 . S
H197 C199 0.959 . S
H198 C199 0.961 1_655 S
C199 C189 1.510 . S
C199 H197 0.959 . S
C199 H198 0.961 1_455 S
C199 H200 0.960 . S
H200 C199 0.960 . S
H201 N181 0.862 . S
O202 Co170 1.920 . S
O202 C175 1.289 . S
C203 O195 1.258 . S
C203 O196 1.266 . S
Co204 O207 1.970 . S
Co204 N221 1.989 . S
Co204 O229 1.967 . S
Co204 O236 1.920 . S
Co205 O208 1.966 . S
Co205 N214 2.022 . S
Co205 N222 1.993 . S
Co205 O230 1.941 . S
C206 O207 1.258 . S
C206 O208 1.263 . S
O207 Co204 1.970 . S
O207 C206 1.258 . S
O208 Co205 1.966 . S
O208 C206 1.263 . S
C209 O210 1.235 . S
C209 O236 1.289 . S
O210 C209 1.235 . S
C211 C213 1.400 . S
C211 N214 1.351 . S
C211 C216 1.501 . S
C212 C213 1.387 . S
C212 N215 1.341 . S
C213 C211 1.400 . S
C213 C212 1.387 . S
N214 Co205 2.022 . S
N214 C211 1.351 . S
N214 N215 1.365 . S
N215 C212 1.341 . S
N215 N214 1.365 . S
N215 H235 0.862 . S
C216 C211 1.501 . S
C216 H217 0.961 . S
C216 H218 0.961 1_655 S
C216 H219 0.960 . S
H217 C216 0.961 . S
H218 C216 0.961 1_455 S
H219 C216 0.960 . S
C220 N221 1.342 . S
C220 C224 1.401 . S
C220 C225 1.499 . S
N221 Co204 1.989 . S
N221 C220 1.342 . S
N221 N222 1.388 . S
N222 Co205 1.993 . S
N222 N221 1.388 . S
N222 C223 1.346 . S
C223 N222 1.346 . S
C223 C224 1.396 . S
C223 C233 1.510 . S
C224 C220 1.401 . S
C224 C223 1.396 . S
C225 C220 1.499 . S
C225 H226 0.959 . S
C225 H227 0.960 . S
C225 H228 0.961 . S
H226 C225 0.959 . S
H227 C225 0.960 . S
H228 C225 0.961 . S
O229 Co204 1.967 . S
O229 C237 1.258 . S
O230 Co205 1.941 . S
O230 C237 1.266 . S
H231 C233 0.959 . S
H232 C233 0.961 1_455 S
C233 C223 1.510 . S
C233 H231 0.959 . S
C233 H232 0.961 1_655 S
C233 H234 0.960 . S
H234 C233 0.960 . S
H235 N215 0.862 . S
O236 Co204 1.920 . S
O236 C209 1.289 . S
C237 O229 1.258 . S
C237 O230 1.266 . S
Co238 O241 1.970 . S
Co238 N255 1.989 . S
Co238 O263 1.967 . S
Co238 O270 1.920 . S
Co239 O242 1.966 . S
Co239 N248 2.022 . S
Co239 N256 1.993 . S
Co239 O264 1.941 . S
C240 O241 1.258 . S
C240 O242 1.263 . S
O241 Co238 1.970 . S
O241 C240 1.258 . S
O242 Co239 1.966 . S
O242 C240 1.263 . S
C243 O244 1.235 . S
C243 O270 1.289 . S
O244 C243 1.235 . S
C245 C247 1.400 . S
C245 N248 1.351 . S
C245 C250 1.501 . S
C246 C247 1.387 . S
C246 N249 1.341 . S
C247 C245 1.400 . S
C247 C246 1.387 . S
N248 Co239 2.022 . S
N248 C245 1.351 . S
N248 N249 1.365 . S
N249 C246 1.341 . S
N249 N248 1.365 . S
N249 H269 0.862 . S
C250 C245 1.501 . S
C250 H251 0.961 . S
C250 H252 0.961 1_565 S
C250 H253 0.960 . S
H251 C250 0.961 . S
H252 C250 0.961 1_545 S
H253 C250 0.960 . S
C254 N255 1.342 . S
C254 C258 1.401 . S
C254 C259 1.499 . S
N255 Co238 1.989 . S
N255 C254 1.342 . S
N255 N256 1.388 . S
N256 Co239 1.993 . S
N256 N255 1.388 . S
N256 C257 1.346 . S
C257 N256 1.346 . S
C257 C258 1.396 . S
C257 C267 1.510 . S
C258 C254 1.401 . S
C258 C257 1.396 . S
C259 C254 1.499 . S
C259 H260 0.959 . S
C259 H261 0.960 . S
C259 H262 0.961 . S
H260 C259 0.959 . S
H261 C259 0.960 . S
H262 C259 0.961 . S
O263 Co238 1.967 . S
O263 C271 1.258 . S
O264 Co239 1.941 . S
O264 C271 1.266 . S
H265 C267 0.959 . S
H266 C267 0.961 1_545 S
C267 C257 1.510 . S
C267 H265 0.959 . S
C267 H266 0.961 1_565 S
C267 H268 0.960 . S
H268 C267 0.960 . S
H269 N249 0.862 . S
O270 Co238 1.920 . S
O270 C243 1.289 . S
C271 O263 1.258 . S
C271 O264 1.266 . S
Co272 O275 1.970 . S
Co272 N289 1.989 . S
Co272 O297 1.967 . S
Co272 O304 1.920 . S
Co273 O276 1.966 . S
Co273 N282 2.022 . S
Co273 N290 1.993 . S
Co273 O298 1.941 . S
C274 O275 1.258 . S
C274 O276 1.263 . S
O275 Co272 1.970 . S
O275 C274 1.258 . S
O276 Co273 1.966 . S
O276 C274 1.263 . S
C277 O278 1.235 . S
C277 O304 1.289 . S
O278 C277 1.235 . S
C279 C281 1.400 . S
C279 N282 1.351 . S
C279 C284 1.501 . S
C280 C281 1.387 . S
C280 N283 1.341 . S
C281 C279 1.400 . S
C281 C280 1.387 . S
N282 Co273 2.022 . S
N282 C279 1.351 . S
N282 N283 1.365 . S
N283 C280 1.341 . S
N283 N282 1.365 . S
N283 H303 0.862 . S
C284 C279 1.501 . S
C284 H285 0.961 . S
C284 H286 0.961 . S
C284 H287 0.960 . S
H285 C284 0.961 . S
H286 C284 0.961 . S
H287 C284 0.960 . S
C288 N289 1.342 . S
C288 C292 1.401 . S
C288 C293 1.499 . S
N289 Co272 1.989 . S
N289 C288 1.342 . S
N289 N290 1.388 . S
N290 Co273 1.993 . S
N290 N289 1.388 . S
N290 C291 1.346 . S
C291 N290 1.346 . S
C291 C292 1.396 . S
C291 C301 1.510 . S
C292 C288 1.401 . S
C292 C291 1.396 . S
C293 C288 1.499 . S
C293 H294 0.959 . S
C293 H295 0.960 . S
C293 H296 0.961 . S
H294 C293 0.959 . S
H295 C293 0.960 . S
H296 C293 0.961 . S
O297 Co272 1.967 . S
O297 C305 1.258 . S
O298 Co273 1.941 . S
O298 C305 1.266 . S
H299 C301 0.959 . S
H300 C301 0.961 . S
C301 C291 1.510 . S
C301 H299 0.959 . S
C301 H300 0.961 . S
C301 H302 0.960 . S
H302 C301 0.960 . S
H303 N283 0.862 . S
O304 Co272 1.920 . S
O304 C277 1.289 . S
C305 O297 1.258 . S
C305 O298 1.266 . S
Co306 O309 1.970 . S
Co306 N323 1.989 . S
Co306 O331 1.967 . S
Co306 O338 1.920 . S
Co307 O310 1.966 . S
Co307 N316 2.022 . S
Co307 N324 1.993 . S
Co307 O332 1.941 . S
C308 O309 1.258 . S
C308 O310 1.263 . S
O309 Co306 1.970 . S
O309 C308 1.258 . S
O310 Co307 1.966 . S
O310 C308 1.263 . S
C311 O312 1.235 . S
C311 O338 1.289 . S
O312 C311 1.235 . S
C313 C315 1.400 . S
C313 N316 1.351 . S
C313 C318 1.501 . S
C314 C315 1.387 . S
C314 N317 1.341 . S
C315 C313 1.400 . S
C315 C314 1.387 . S
N316 Co307 2.022 . S
N316 C313 1.351 . S
N316 N317 1.365 . S
N317 C314 1.341 . S
N317 N316 1.365 . S
N317 H337 0.862 . S
C318 C313 1.501 . S
C318 H319 0.961 . S
C318 H320 0.961 1_455 S
C318 H321 0.960 . S
H319 C318 0.961 . S
H320 C318 0.961 1_655 S
H321 C318 0.960 . S
C322 N323 1.342 . S
C322 C326 1.401 . S
C322 C327 1.499 . S
N323 Co306 1.989 . S
N323 C322 1.342 . S
N323 N324 1.388 . S
N324 Co307 1.993 . S
N324 N323 1.388 . S
N324 C325 1.346 . S
C325 N324 1.346 . S
C325 C326 1.396 . S
C325 C335 1.510 . S
C326 C322 1.401 . S
C326 C325 1.396 . S
C327 C322 1.499 . S
C327 H328 0.959 . S
C327 H329 0.960 . S
C327 H330 0.961 . S
H328 C327 0.959 . S
H329 C327 0.960 . S
H330 C327 0.961 . S
O331 Co306 1.967 . S
O331 C339 1.258 . S
O332 Co307 1.941 . S
O332 C339 1.266 . S
H333 C335 0.959 . S
H334 C335 0.961 1_655 S
C335 C325 1.510 . S
C335 H333 0.959 . S
C335 H334 0.961 1_455 S
C335 H336 0.960 . S
H336 C335 0.960 . S
H337 N317 0.862 . S
O338 Co306 1.920 . S
O338 C311 1.289 . S
C339 O331 1.258 . S
C339 O332 1.266 . S
Co340 O343 1.970 . S
Co340 N357 1.989 . S
Co340 O365 1.967 . S
Co340 O372 1.920 . S
Co341 O344 1.966 . S
Co341 N350 2.022 . S
Co341 N358 1.993 . S
Co341 O366 1.941 . S
C342 O343 1.258 . S
C342 O344 1.263 . S
O343 Co340 1.970 . S
O343 C342 1.258 . S
O344 Co341 1.966 . S
O344 C342 1.263 . S
C345 O346 1.235 . S
C345 O372 1.289 . S
O346 C345 1.235 . S
C347 C349 1.400 . S
C347 N350 1.351 . S
C347 C352 1.501 . S
C348 C349 1.387 . S
C348 N351 1.341 . S
C349 C347 1.400 . S
C349 C348 1.387 . S
N350 Co341 2.022 . S
N350 C347 1.351 . S
N350 N351 1.365 . S
N351 C348 1.341 . S
N351 N350 1.365 . S
N351 H371 0.862 . S
C352 C347 1.501 . S
C352 H353 0.961 . S
C352 H354 0.961 1_545 S
C352 H355 0.960 . S
H353 C352 0.961 . S
H354 C352 0.961 1_565 S
H355 C352 0.960 . S
C356 N357 1.342 . S
C356 C360 1.401 . S
C356 C361 1.499 . S
N357 Co340 1.989 . S
N357 C356 1.342 . S
N357 N358 1.388 . S
N358 Co341 1.993 . S
N358 N357 1.388 . S
N358 C359 1.346 . S
C359 N358 1.346 . S
C359 C360 1.396 . S
C359 C369 1.510 . S
C360 C356 1.401 . S
C360 C359 1.396 . S
C361 C356 1.499 . S
C361 H362 0.959 . S
C361 H363 0.960 . S
C361 H364 0.961 . S
H362 C361 0.959 . S
H363 C361 0.960 . S
H364 C361 0.961 . S
O365 Co340 1.967 . S
O365 C373 1.258 . S
O366 Co341 1.941 . S
O366 C373 1.266 . S
H367 C369 0.959 . S
H368 C369 0.961 1_565 S
C369 C359 1.510 . S
C369 H367 0.959 . S
C369 H368 0.961 1_545 S
C369 H370 0.960 . S
H370 C369 0.960 . S
H371 N351 0.862 . S
O372 Co340 1.920 . S
O372 C345 1.289 . S
C373 O365 1.258 . S
C373 O366 1.266 . S
Co374 O377 1.970 . S
Co374 N391 1.989 . S
Co374 O399 1.967 . S
Co374 O406 1.920 . S
Co375 O378 1.966 . S
Co375 N384 2.022 . S
Co375 N392 1.993 . S
Co375 O400 1.941 . S
C376 O377 1.258 . S
C376 O378 1.263 . S
O377 Co374 1.970 . S
O377 C376 1.258 . S
O378 Co375 1.966 . S
O378 C376 1.263 . S
C379 O380 1.235 . S
C379 O406 1.289 . S
O380 C379 1.235 . S
C381 C383 1.400 . S
C381 N384 1.351 . S
C381 C386 1.501 . S
C382 C383 1.387 . S
C382 N385 1.341 . S
C383 C381 1.400 . S
C383 C382 1.387 . S
N384 Co375 2.022 . S
N384 C381 1.351 . S
N384 N385 1.365 . S
N385 C382 1.341 . S
N385 N384 1.365 . S
N385 H405 0.862 . S
C386 C381 1.501 . S
C386 H387 0.961 . S
C386 H388 0.961 . S
C386 H389 0.960 . S
H387 C386 0.961 . S
H388 C386 0.961 . S
H389 C386 0.960 . S
C390 N391 1.342 . S
C390 C394 1.401 . S
C390 C395 1.499 . S
N391 Co374 1.989 . S
N391 C390 1.342 . S
N391 N392 1.388 . S
N392 Co375 1.993 . S
N392 N391 1.388 . S
N392 C393 1.346 . S
C393 N392 1.346 . S
C393 C394 1.396 . S
C393 C403 1.510 . S
C394 C390 1.401 . S
C394 C393 1.396 . S
C395 C390 1.499 . S
C395 H396 0.959 . S
C395 H397 0.960 . S
C395 H398 0.961 . S
H396 C395 0.959 . S
H397 C395 0.960 . S
H398 C395 0.961 . S
O399 Co374 1.967 . S
O399 C407 1.258 . S
O400 Co375 1.941 . S
O400 C407 1.266 . S
H401 C403 0.959 . S
H402 C403 0.961 . S
C403 C393 1.510 . S
C403 H401 0.959 . S
C403 H402 0.961 . S
C403 H404 0.960 . S
H404 C403 0.960 . S
H405 N385 0.862 . S
O406 Co374 1.920 . S
O406 C379 1.289 . S
C407 O399 1.258 . S
C407 O400 1.266 . S
C408 C409 1.363 . S
C408 C414 1.379 1_554 S
C408 N416 1.356 . S
C409 C408 1.363 . S
C409 C415 1.363 1_545 S
C410 C411 1.363 . S
C410 C415 1.379 1_556 S
C410 N417 1.356 . S
C411 C410 1.363 . S
C411 C414 1.363 1_565 S
N412 C414 1.356 . S
N412 H424 0.984 . S
N412 H425 0.985 . S
N413 C415 1.356 . S
N413 H418 0.984 . S
N413 H419 0.985 . S
C414 C408 1.379 1_556 S
C414 C411 1.363 1_545 S
C414 N412 1.356 . S
C415 C409 1.363 1_565 S
C415 C410 1.379 1_554 S
C415 N413 1.356 . S
N416 C408 1.356 . S
N416 H422 0.984 . S
N416 H423 0.984 . S
N417 C410 1.356 . S
N417 H420 0.984 . S
N417 H421 0.985 . S
H418 N413 0.984 . S
H419 N413 0.985 . S
H420 N417 0.984 . S
H421 N417 0.985 . S
H422 N416 0.984 . S
H423 N416 0.984 . S
H424 N412 0.984 . S
H425 N412 0.985 . S
C426 C427 1.363 . S
C426 C432 1.379 . S
C426 N434 1.356 . S
C427 C426 1.363 . S
C427 C433 1.363 . S
C428 C429 1.363 . S
C428 C433 1.379 . S
C428 N435 1.356 . S
C429 C428 1.363 . S
C429 C432 1.363 . S
N430 C432 1.356 . S
N430 H442 0.984 . S
N430 H443 0.985 . S
N431 C433 1.356 . S
N431 H436 0.984 . S
N431 H437 0.985 . S
C432 C426 1.379 . S
C432 C429 1.363 . S
C432 N430 1.356 . S
C433 C427 1.363 . S
C433 C428 1.379 . S
C433 N431 1.356 . S
N434 C426 1.356 . S
N434 H440 0.984 . S
N434 H441 0.984 . S
N435 C428 1.356 . S
N435 H438 0.984 . S
N435 H439 0.985 . S
H436 N431 0.984 . S
H437 N431 0.985 . S
H438 N435 0.984 . S
H439 N435 0.985 . S
H440 N434 0.984 . S
H441 N434 0.984 . S
H442 N430 0.984 . S
H443 N430 0.985 . S
C444 C445 1.363 1_455 S
C444 C450 1.379 . S
C444 N452 1.354 . S
C445 C444 1.363 1_655 S
C445 C451 1.363 . S
C446 C447 1.363 1_655 S
C446 C451 1.379 . S
C446 N453 1.354 . S
C447 C446 1.363 1_455 S
C447 C450 1.363 . S
N448 C450 1.356 . S
N448 H460 0.984 . S
N448 H461 0.985 . S
N449 C451 1.356 . S
N449 H454 0.984 . S
N449 H455 0.985 . S
C450 C444 1.379 . S
C450 C447 1.363 . S
C450 N448 1.356 . S
C451 C445 1.363 . S
C451 C446 1.379 . S
C451 N449 1.356 . S
N452 C444 1.354 . S
N452 H458 0.991 . S
N452 H459 0.980 1_455 S
N453 C446 1.354 . S
N453 H456 0.980 1_655 S
N453 H457 0.992 . S
H454 N449 0.984 . S
H455 N449 0.985 . S
H456 N453 0.980 1_455 S
H457 N453 0.992 . S
H458 N452 0.991 . S
H459 N452 0.980 1_655 S
H460 N448 0.984 . S
H461 N448 0.985 . S
C462 C463 1.363 . S
C462 C468 1.379 1_556 S
C462 N470 1.356 . S
C463 C462 1.363 . S
C463 C469 1.363 1_545 S
C464 C465 1.363 . S
C464 C469 1.379 1_554 S
C464 N471 1.356 . S
C465 C464 1.363 . S
C465 C468 1.363 1_565 S
N466 C468 1.356 . S
N466 H478 0.984 . S
N466 H479 0.985 . S
N467 C469 1.356 . S
N467 H472 0.984 . S
N467 H473 0.985 . S
C468 C462 1.379 1_554 S
C468 C465 1.363 1_545 S
C468 N466 1.356 . S
C469 C463 1.363 1_565 S
C469 C464 1.379 1_556 S
C469 N467 1.356 . S
N470 C462 1.356 . S
N470 H476 0.984 . S
N470 H477 0.984 . S
N471 C464 1.356 . S
N471 H474 0.984 . S
N471 H475 0.985 . S
H472 N467 0.984 . S
H473 N467 0.985 . S
H474 N471 0.984 . S
H475 N471 0.985 . S
H476 N470 0.984 . S
H477 N470 0.984 . S
H478 N466 0.984 . S
H479 N466 0.985 . S
C480 C481 1.363 . S
C480 C486 1.379 . S
C480 N488 1.356 . S
C481 C480 1.363 . S
C481 C487 1.363 . S
C482 C483 1.363 . S
C482 C487 1.379 . S
C482 N489 1.356 . S
C483 C482 1.363 . S
C483 C486 1.363 . S
N484 C486 1.356 . S
N484 H496 0.984 . S
N484 H497 0.985 . S
N485 C487 1.356 . S
N485 H490 0.984 . S
N485 H491 0.985 . S
C486 C480 1.379 . S
C486 C483 1.363 . S
C486 N484 1.356 . S
C487 C481 1.363 . S
C487 C482 1.379 . S
C487 N485 1.356 . S
N488 C480 1.356 . S
N488 H494 0.984 . S
N488 H495 0.984 . S
N489 C482 1.356 . S
N489 H492 0.984 . S
N489 H493 0.985 . S
H490 N485 0.984 . S
H491 N485 0.985 . S
H492 N489 0.984 . S
H493 N489 0.985 . S
H494 N488 0.984 . S
H495 N488 0.984 . S
H496 N484 0.984 . S
H497 N484 0.985 . S
C498 C499 1.363 . S
C498 C504 1.379 . S
C498 N506 1.356 . S
C499 C498 1.363 . S
C499 C505 1.363 1_455 S
C500 C501 1.363 . S
C500 C505 1.379 . S
C500 N507 1.356 . S
C501 C500 1.363 . S
C501 C504 1.363 1_655 S
N502 C504 1.356 . S
N502 H514 0.984 . S
N502 H515 0.985 . S
N503 C505 1.356 . S
N503 H508 0.984 . S
N503 H509 0.985 . S
C504 C498 1.379 . S
C504 C501 1.363 1_455 S
C504 N502 1.356 . S
C505 C499 1.363 1_655 S
C505 C500 1.379 . S
C505 N503 1.356 . S
N506 C498 1.356 . S
N506 H512 0.984 . S
N506 H513 0.984 . S
N507 C500 1.356 . S
N507 H510 0.984 . S
N507 H511 0.985 . S
H508 N503 0.984 . S
H509 N503 0.985 . S
H510 N507 0.984 . S
H511 N507 0.985 . S
H512 N506 0.984 . S
H513 N506 0.984 . S
H514 N502 0.984 . S
H515 N502 0.985 . S
C516 C517 1.363 . S
C516 C522 1.379 . S
C516 N524 1.356 . S
C517 C516 1.363 . S
C517 C523 1.363 1_565 S
C518 C519 1.363 . S
C518 C523 1.379 . S
C518 N525 1.356 . S
C519 C518 1.363 . S
C519 C522 1.363 1_545 S
N520 C522 1.356 1_545 S
N520 H532 0.984 1_545 S
N520 H533 0.985 . S
N521 C523 1.356 1_565 S
N521 H526 0.984 . S
N521 H527 0.985 1_565 S
C522 C516 1.379 . S
C522 C519 1.363 1_565 S
C522 N520 1.356 1_565 S
C523 C517 1.363 1_545 S
C523 C518 1.379 . S
C523 N521 1.356 1_545 S
N524 C516 1.356 . S
N524 H530 0.984 . S
N524 H531 0.984 . S
N525 C518 1.356 . S
N525 H528 0.984 . S
N525 H529 0.985 . S
H526 N521 0.984 . S
H527 N521 0.985 1_545 S
H528 N525 0.984 . S
H529 N525 0.985 . S
H530 N524 0.984 . S
H531 N524 0.984 . S
H532 N520 0.984 1_565 S
H533 N520 0.985 . S
C534 C535 1.363 . S
C534 C540 1.379 . S
C534 N542 1.356 . S
C535 C534 1.363 . S
C535 C541 1.363 . S
C536 C537 1.363 . S
C536 C541 1.379 . S
C536 N543 1.356 . S
C537 C536 1.363 . S
C537 C540 1.363 . S
N538 C540 1.356 . S
N538 H550 0.984 . S
N538 H551 0.985 . S
N539 C541 1.356 . S
N539 H544 0.984 . S
N539 H545 0.985 . S
C540 C534 1.379 . S
C540 C537 1.363 . S
C540 N538 1.356 . S
C541 C535 1.363 . S
C541 C536 1.379 . S
C541 N539 1.356 . S
N542 C534 1.356 . S
N542 H548 0.984 . S
N542 H549 0.984 . S
N543 C536 1.356 . S
N543 H546 0.984 . S
N543 H547 0.985 . S
H544 N539 0.984 . S
H545 N539 0.985 . S
H546 N543 0.984 . S
H547 N543 0.985 . S
H548 N542 0.984 . S
H549 N542 0.984 . S
H550 N538 0.984 . S
H551 N538 0.985 . S
C552 C553 1.363 1_655 S
C552 C558 1.379 . S
C552 N560 1.356 1_655 S
C553 C552 1.363 1_455 S
C553 C559 1.363 . S
C554 C555 1.363 1_455 S
C554 C559 1.379 . S
C554 N561 1.356 1_455 S
C555 C554 1.363 1_655 S
C555 C558 1.363 . S
N556 C558 1.356 . S
N556 H568 0.984 . S
N556 H569 0.985 . S
N557 C559 1.356 . S
N557 H562 0.984 . S
N557 H563 0.985 . S
C558 C552 1.379 . S
C558 C555 1.363 . S
C558 N556 1.356 . S
C559 C553 1.363 . S
C559 C554 1.379 . S
C559 N557 1.356 . S
N560 C552 1.356 1_455 S
N560 H566 0.984 1_455 S
N560 H567 0.984 . S
N561 C554 1.356 1_655 S
N561 H564 0.984 . S
N561 H565 0.985 1_655 S
H562 N557 0.984 . S
H563 N557 0.985 . S
H564 N561 0.984 . S
H565 N561 0.985 1_455 S
H566 N560 0.984 1_655 S
H567 N560 0.984 . S
H568 N556 0.984 . S
H569 N556 0.985 . S
C570 C571 1.363 . S
C570 C576 1.379 . S
C570 N578 1.356 . S
C571 C570 1.363 . S
C571 C577 1.363 1_455 S
C572 C573 1.363 . S
C572 C577 1.379 . S
C572 N579 1.356 . S
C573 C572 1.363 . S
C573 C576 1.363 1_655 S
N574 C576 1.356 1_655 S
N574 H586 0.984 1_655 S
N574 H587 0.985 . S
N575 C577 1.356 1_455 S
N575 H580 0.984 . S
N575 H581 0.985 1_455 S
C576 C570 1.379 . S
C576 C573 1.363 1_455 S
C576 N574 1.356 1_455 S
C577 C571 1.363 1_655 S
C577 C572 1.379 . S
C577 N575 1.356 1_655 S
N578 C570 1.356 . S
N578 H584 0.984 . S
N578 H585 0.984 . S
N579 C572 1.356 . S
N579 H582 0.984 . S
N579 H583 0.985 . S
H580 N575 0.984 . S
H581 N575 0.985 1_655 S
H582 N579 0.984 . S
H583 N579 0.985 . S
H584 N578 0.984 . S
H585 N578 0.984 . S
H586 N574 0.984 1_455 S
H587 N574 0.985 . S
C588 C589 1.363 1_565 S
C588 C594 1.379 . S
C588 N596 1.356 1_565 S
C589 C588 1.363 1_545 S
C589 C595 1.363 . S
C590 C591 1.363 1_545 S
C590 C595 1.379 . S
C590 N597 1.356 1_545 S
C591 C590 1.363 1_565 S
C591 C594 1.363 . S
N592 C594 1.356 . S
N592 H604 0.984 . S
N592 H605 0.985 . S
N593 C595 1.356 . S
N593 H598 0.984 . S
N593 H599 0.985 . S
C594 C588 1.379 . S
C594 C591 1.363 . S
C594 N592 1.356 . S
C595 C589 1.363 . S
C595 C590 1.379 . S
C595 N593 1.356 . S
N596 C588 1.356 1_545 S
N596 H602 0.984 1_545 S
N596 H603 0.984 . S
N597 C590 1.356 1_565 S
N597 H600 0.984 . S
N597 H601 0.985 1_565 S
H598 N593 0.984 . S
H599 N593 0.985 . S
H600 N597 0.984 . S
H601 N597 0.985 1_545 S
H602 N596 0.984 1_565 S
H603 N596 0.984 . S
H604 N592 0.984 . S
H605 N592 0.985 . S
C606 C607 1.363 . S
C606 C612 1.379 . S
C606 N614 1.356 . S
C607 C606 1.363 . S
C607 C613 1.363 . S
C608 C609 1.363 . S
C608 C613 1.379 . S
C608 N615 1.356 . S
C609 C608 1.363 . S
C609 C612 1.363 . S
N610 C612 1.356 . S
N610 H622 0.984 . S
N610 H623 0.985 . S
N611 C613 1.356 . S
N611 H616 0.984 . S
N611 H617 0.985 . S
C612 C606 1.379 . S
C612 C609 1.363 . S
C612 N610 1.356 . S
C613 C607 1.363 . S
C613 C608 1.379 . S
C613 N611 1.356 . S
N614 C606 1.356 . S
N614 H620 0.984 . S
N614 H621 0.984 . S
N615 C608 1.356 . S
N615 H618 0.984 . S
N615 H619 0.985 . S
H616 N611 0.984 . S
H617 N611 0.985 . S
H618 N615 0.984 . S
H619 N615 0.985 . S
H620 N614 0.984 . S
H621 N614 0.984 . S
H622 N610 0.984 . S
H623 N610 0.985 . S
C624 C625 1.363 . S
C624 C630 1.379 . S
C624 N632 1.356 . S
C625 C624 1.363 . S
C625 C631 1.363 . S
C626 C627 1.363 . S
C626 C631 1.379 . S
C626 N633 1.356 . S
C627 C626 1.363 . S
C627 C630 1.363 . S
N628 C630 1.356 . S
N628 H640 0.984 . S
N628 H641 0.985 . S
N629 C631 1.356 . S
N629 H634 0.984 . S
N629 H635 0.985 . S
C630 C624 1.379 . S
C630 C627 1.363 . S
C630 N628 1.356 . S
C631 C625 1.363 . S
C631 C626 1.379 . S
C631 N629 1.356 . S
N632 C624 1.356 . S
N632 H638 0.984 . S
N632 H639 0.984 . S
N633 C626 1.356 . S
N633 H636 0.984 . S
N633 H637 0.985 . S
H634 N629 0.984 . S
H635 N629 0.985 . S
H636 N633 0.984 . S
H637 N633 0.985 . S
H638 N632 0.984 . S
H639 N632 0.984 . S
H640 N628 0.984 . S
H641 N628 0.985 . S
C642 C643 1.363 . S
C642 C648 1.379 . S
C642 N650 1.356 . S
C643 C642 1.363 . S
C643 C649 1.363 . S
C644 C645 1.363 . S
C644 C649 1.379 . S
C644 N651 1.356 . S
C645 C644 1.363 . S
C645 C648 1.363 . S
N646 C648 1.356 . S
N646 H658 0.984 1_455 S
N646 H659 0.985 . S
N647 C649 1.356 . S
N647 H652 0.984 . S
N647 H653 0.985 . S
C648 C642 1.379 . S
C648 C645 1.363 . S
C648 N646 1.356 . S
C649 C643 1.363 . S
C649 C644 1.379 . S
C649 N647 1.356 . S
N650 C642 1.356 . S
N650 H656 0.984 . S
N650 H657 0.984 . S
N651 C644 1.356 . S
N651 H654 0.984 . S
N651 H655 0.985 . S
H652 N647 0.984 . S
H653 N647 0.985 . S
H654 N651 0.984 . S
H655 N651 0.985 . S
H656 N650 0.984 . S
H657 N650 0.984 . S
H658 N646 0.984 1_655 S
H659 N646 0.985 . S
C660 C661 1.363 . S
C660 C666 1.379 . S
C660 N668 1.356 . S
C661 C660 1.363 . S
C661 C667 1.363 . S
C662 C663 1.363 . S
C662 C667 1.379 . S
C662 N669 1.356 . S
C663 C662 1.363 . S
C663 C666 1.363 . S
N664 C666 1.356 . S
N664 H676 0.984 1_655 S
N664 H677 0.985 . S
N665 C667 1.356 . S
N665 H670 0.984 . S
N665 H671 0.985 . S
C666 C660 1.379 . S
C666 C663 1.363 . S
C666 N664 1.356 . S
C667 C661 1.363 . S
C667 C662 1.379 . S
C667 N665 1.356 . S
N668 C660 1.356 . S
N668 H674 0.984 1_655 S
N668 H675 0.984 . S
N669 C662 1.356 . S
N669 H672 0.984 . S
N669 H673 0.985 . S
H670 N665 0.984 . S
H671 N665 0.985 . S
H672 N669 0.984 . S
H673 N669 0.985 . S
H674 N668 0.984 1_455 S
H675 N668 0.984 . S
H676 N664 0.984 1_455 S
H677 N664 0.985 . S
C678 C679 1.363 . S
C678 C684 1.379 . S
C678 N686 1.356 . S
C679 C678 1.363 . S
C679 C685 1.363 . S
C680 C681 1.363 . S
C680 C685 1.379 . S
C680 N687 1.356 . S
C681 C680 1.363 . S
C681 C684 1.363 . S
N682 C684 1.356 . S
N682 H694 0.984 . S
N682 H695 0.985 . S
N683 C685 1.356 . S
N683 H688 0.984 . S
N683 H689 0.985 1_565 S
C684 C678 1.379 . S
C684 C681 1.363 . S
C684 N682 1.356 . S
C685 C679 1.363 . S
C685 C680 1.379 . S
C685 N683 1.356 . S
N686 C678 1.356 . S
N686 H692 0.984 . S
N686 H693 0.984 . S
N687 C680 1.356 . S
N687 H690 0.984 . S
N687 H691 0.985 . S
H688 N683 0.984 . S
H689 N683 0.985 1_545 S
H690 N687 0.984 . S
H691 N687 0.985 . S
H692 N686 0.984 . S
H693 N686 0.984 . S
H694 N682 0.984 . S
H695 N682 0.985 . S
C696 C697 1.363 . S
C696 C702 1.379 . S
C696 N704 1.356 . S
C697 C696 1.363 . S
C697 C703 1.363 . S
C698 C699 1.363 . S
C698 C703 1.379 . S
C698 N705 1.356 . S
C699 C698 1.363 . S
C699 C702 1.363 . S
N700 C702 1.356 . S
N700 H712 0.984 . S
N700 H713 0.985 . S
N701 C703 1.356 . S
N701 H706 0.984 . S
N701 H707 0.985 . S
C702 C696 1.379 . S
C702 C699 1.363 . S
C702 N700 1.356 . S
C703 C697 1.363 . S
C703 C698 1.379 . S
C703 N701 1.356 . S
N704 C696 1.356 . S
N704 H710 0.984 . S
N704 H711 0.984 . S
N705 C698 1.356 . S
N705 H708 0.984 . S
N705 H709 0.985 1_655 S
H706 N701 0.984 . S
H707 N701 0.985 . S
H708 N705 0.984 . S
H709 N705 0.985 1_455 S
H710 N704 0.984 . S
H711 N704 0.984 . S
H712 N700 0.984 . S
H713 N700 0.985 . S
C714 C715 1.363 . S
C714 C720 1.379 . S
C714 N722 1.356 . S
C715 C714 1.363 . S
C715 C721 1.363 . S
C716 C717 1.363 . S
C716 C721 1.379 . S
C716 N723 1.356 . S
C717 C716 1.363 . S
C717 C720 1.363 . S
N718 C720 1.356 . S
N718 H730 0.984 . S
N718 H731 0.985 . S
N719 C721 1.356 . S
N719 H724 0.984 . S
N719 H725 0.985 . S
C720 C714 1.379 . S
C720 C717 1.363 . S
C720 N718 1.356 . S
C721 C715 1.363 . S
C721 C716 1.379 . S
C721 N719 1.356 . S
N722 C714 1.356 . S
N722 H728 0.984 . S
N722 H729 0.984 . S
N723 C716 1.356 . S
N723 H726 0.984 . S
N723 H727 0.985 . S
H724 N719 0.984 . S
H725 N719 0.985 . S
H726 N723 0.984 . S
H727 N723 0.985 . S
H728 N722 0.984 . S
H729 N722 0.984 . S
H730 N718 0.984 . S
H731 N718 0.985 . S
C732 C733 1.363 . S
C732 C738 1.379 . S
C732 N740 1.356 . S
C733 C732 1.363 . S
C733 C739 1.363 . S
C734 C735 1.363 . S
C734 C739 1.379 . S
C734 N741 1.356 . S
C735 C734 1.363 . S
C735 C738 1.363 . S
N736 C738 1.356 . S
N736 H748 0.984 . S
N736 H749 0.985 . S
N737 C739 1.356 . S
N737 H742 0.984 . S
N737 H743 0.985 . S
C738 C732 1.379 . S
C738 C735 1.363 . S
C738 N736 1.356 . S
C739 C733 1.363 . S
C739 C734 1.379 . S
C739 N737 1.356 . S
N740 C732 1.356 . S
N740 H746 0.984 . S
N740 H747 0.984 . S
N741 C734 1.356 . S
N741 H744 0.984 . S
N741 H745 0.985 . S
H742 N737 0.984 . S
H743 N737 0.985 . S
H744 N741 0.984 . S
H745 N741 0.985 . S
H746 N740 0.984 . S
H747 N740 0.984 . S
H748 N736 0.984 . S
H749 N736 0.985 . S
C750 C751 1.363 1_655 S
C750 C756 1.379 . S
C750 N758 1.356 . S
C751 C750 1.363 1_455 S
C751 C757 1.363 . S
C752 C753 1.363 1_455 S
C752 C757 1.379 . S
C752 N759 1.356 . S
C753 C752 1.363 1_655 S
C753 C756 1.363 . S
N754 C756 1.356 . S
N754 H766 0.984 . S
N754 H767 0.985 . S
N755 C757 1.356 . S
N755 H760 0.984 . S
N755 H761 0.985 . S
C756 C750 1.379 . S
C756 C753 1.363 . S
C756 N754 1.356 . S
C757 C751 1.363 . S
C757 C752 1.379 . S
C757 N755 1.356 . S
N758 C750 1.356 . S
N758 H764 0.984 . S
N758 H765 0.984 . S
N759 C752 1.356 . S
N759 H762 0.984 . S
N759 H763 0.985 . S
H760 N755 0.984 . S
H761 N755 0.985 . S
H762 N759 0.984 . S
H763 N759 0.985 . S
H764 N758 0.984 . S
H765 N758 0.984 . S
H766 N754 0.984 . S
H767 N754 0.985 . S
C768 C769 1.363 . S
C768 C774 1.379 . S
C768 N776 1.356 . S
C769 C768 1.363 . S
C769 C775 1.363 1_565 S
C770 C771 1.363 . S
C770 C775 1.379 . S
C770 N777 1.356 . S
C771 C770 1.363 . S
C771 C774 1.363 1_545 S
N772 C774 1.356 . S
N772 H784 0.984 . S
N772 H785 0.985 . S
N773 C775 1.356 . S
N773 H778 0.984 . S
N773 H779 0.985 . S
C774 C768 1.379 . S
C774 C771 1.363 1_565 S
C774 N772 1.356 . S
C775 C769 1.363 1_545 S
C775 C770 1.379 . S
C775 N773 1.356 . S
N776 C768 1.356 . S
N776 H782 0.984 . S
N776 H783 0.984 . S
N777 C770 1.356 . S
N777 H780 0.984 . S
N777 H781 0.985 . S
H778 N773 0.984 . S
H779 N773 0.985 . S
H780 N777 0.984 . S
H781 N777 0.985 . S
H782 N776 0.984 . S
H783 N776 0.984 . S
H784 N772 0.984 . S
H785 N772 0.985 . S
C786 C787 1.363 . S
C786 C792 1.379 . S
C786 N794 1.356 . S
C787 C786 1.363 . S
C787 C793 1.363 . S
C788 C789 1.363 . S
C788 C793 1.379 . S
C788 N795 1.356 . S
C789 C788 1.363 . S
C789 C792 1.363 . S
N790 C792 1.356 . S
N790 H802 0.984 . S
N790 H803 0.985 . S
N791 C793 1.356 . S
N791 H796 0.984 . S
N791 H797 0.985 . S
C792 C786 1.379 . S
C792 C789 1.363 . S
C792 N790 1.356 . S
C793 C787 1.363 . S
C793 C788 1.379 . S
C793 N791 1.356 . S
N794 C786 1.356 . S
N794 H800 0.984 . S
N794 H801 0.984 . S
N795 C788 1.356 . S
N795 H798 0.984 . S
N795 H799 0.985 . S
H796 N791 0.984 . S
H797 N791 0.985 . S
H798 N795 0.984 . S
H799 N795 0.985 . S
H800 N794 0.984 . S
H801 N794 0.984 . S
H802 N790 0.984 . S
H803 N790 0.985 . S
C804 C805 1.363 1_655 S
C804 C810 1.379 . S
C804 N812 1.356 . S
C805 C804 1.363 1_455 S
C805 C811 1.363 . S
C806 C807 1.363 1_455 S
C806 C811 1.379 . S
C806 N813 1.356 . S
C807 C806 1.363 1_655 S
C807 C810 1.363 . S
N808 C810 1.356 . S
N808 H820 0.984 . S
N808 H821 0.985 . S
N809 C811 1.356 . S
N809 H814 0.984 . S
N809 H815 0.985 . S
C810 C804 1.379 . S
C810 C807 1.363 . S
C810 N808 1.356 . S
C811 C805 1.363 . S
C811 C806 1.379 . S
C811 N809 1.356 . S
N812 C804 1.356 . S
N812 H818 0.984 . S
N812 H819 0.984 . S
N813 C806 1.356 . S
N813 H816 0.984 . S
N813 H817 0.985 . S
H814 N809 0.984 . S
H815 N809 0.985 . S
H816 N813 0.984 . S
H817 N813 0.985 . S
H818 N812 0.984 . S
H819 N812 0.984 . S
H820 N808 0.984 . S
H821 N808 0.985 . S
C822 C823 1.363 1_545 S
C822 C828 1.379 . S
C822 N830 1.356 . S
C823 C822 1.363 1_565 S
C823 C829 1.363 . S
C824 C825 1.363 1_565 S
C824 C829 1.379 . S
C824 N831 1.356 . S
C825 C824 1.363 1_545 S
C825 C828 1.363 . S
N826 C828 1.356 . S
N826 H838 0.984 . S
N826 H839 0.985 . S
N827 C829 1.356 . S
N827 H832 0.984 . S
N827 H833 0.985 . S
C828 C822 1.379 . S
C828 C825 1.363 . S
C828 N826 1.356 . S
C829 C823 1.363 . S
C829 C824 1.379 . S
C829 N827 1.356 . S
N830 C822 1.356 . S
N830 H836 0.984 . S
N830 H837 0.984 . S
N831 C824 1.356 . S
N831 H834 0.984 . S
N831 H835 0.985 . S
H832 N827 0.984 . S
H833 N827 0.985 . S
H834 N831 0.984 . S
H835 N831 0.985 . S
H836 N830 0.984 . S
H837 N830 0.984 . S
H838 N826 0.984 . S
H839 N826 0.985 . S
C840 C841 1.363 . S
C840 C846 1.379 1_445 S
C840 N848 1.356 . S
C841 C840 1.363 . S
C841 C847 1.363 . S
C842 C843 1.363 . S
C842 C847 1.379 1_665 S
C842 N849 1.356 . S
C843 C842 1.363 . S
C843 C846 1.363 . S
N844 C846 1.356 . S
N844 H856 0.984 1_565 S
N844 H857 0.985 . S
N845 C847 1.356 . S
N845 H850 0.984 . S
N845 H851 0.985 1_545 S
C846 C840 1.379 1_665 S
C846 C843 1.363 . S
C846 N844 1.356 . S
C847 C841 1.363 . S
C847 C842 1.379 1_445 S
C847 N845 1.356 . S
N848 C840 1.356 . S
N848 H854 0.984 . S
N848 H855 0.984 . S
N849 C842 1.356 . S
N849 H852 0.984 . S
N849 H853 0.985 . S
H850 N845 0.984 . S
H851 N845 0.985 1_565 S
H852 N849 0.984 . S
H853 N849 0.985 . S
H854 N848 0.984 . S
H855 N848 0.984 . S
H856 N844 0.984 1_545 S
H857 N844 0.985 . S
C858 C859 1.363 1_655 S
C858 C864 1.379 1_545 S
C858 N866 1.356 . S
C859 C858 1.363 1_455 S
C859 C865 1.363 . S
C860 C861 1.363 1_455 S
C860 C865 1.379 1_565 S
C860 N867 1.356 . S
C861 C860 1.363 1_655 S
C861 C864 1.363 . S
N862 C864 1.356 . S
N862 H874 0.984 . S
N862 H875 0.985 . S
N863 C865 1.356 . S
N863 H868 0.984 . S
N863 H869 0.985 . S
C864 C858 1.379 1_565 S
C864 C861 1.363 . S
C864 N862 1.356 . S
C865 C859 1.363 . S
C865 C860 1.379 1_545 S
C865 N863 1.356 . S
N866 C858 1.356 . S
N866 H872 0.984 . S
N866 H873 0.984 . S
N867 C860 1.356 . S
N867 H870 0.984 . S
N867 H871 0.985 . S
H868 N863 0.984 . S
H869 N863 0.985 . S
H870 N867 0.984 . S
H871 N867 0.985 . S
H872 N866 0.984 . S
H873 N866 0.984 . S
H874 N862 0.984 . S
H875 N862 0.985 . S
C876 C877 1.363 1_565 S
C876 C882 1.379 1_655 S
C876 N884 1.356 . S
C877 C876 1.363 1_545 S
C877 C883 1.363 . S
C878 C879 1.363 1_545 S
C878 C883 1.379 1_455 S
C878 N885 1.356 . S
C879 C878 1.363 1_565 S
C879 C882 1.363 . S
N880 C882 1.356 . S
N880 H892 0.984 1_455 S
N880 H893 0.985 . S
N881 C883 1.356 . S
N881 H886 0.984 . S
N881 H887 0.985 1_655 S
C882 C876 1.379 1_455 S
C882 C879 1.363 . S
C882 N880 1.356 . S
C883 C877 1.363 . S
C883 C878 1.379 1_655 S
C883 N881 1.356 . S
N884 C876 1.356 . S
N884 H890 0.984 . S
N884 H891 0.984 . S
N885 C878 1.356 . S
N885 H888 0.984 . S
N885 H889 0.985 . S
H886 N881 0.984 . S
H887 N881 0.985 1_455 S
H888 N885 0.984 . S
H889 N885 0.985 . S
H890 N884 0.984 . S
H891 N884 0.984 . S
H892 N880 0.984 1_655 S
H893 N880 0.985 . S
C894 C895 1.363 . S
C894 C900 1.379 1_665 S
C894 N902 1.356 . S
C895 C894 1.363 . S
C895 C901 1.363 . S
C896 C897 1.363 . S
C896 C901 1.379 1_445 S
C896 N903 1.356 . S
C897 C896 1.363 . S
C897 C900 1.363 . S
N898 C900 1.356 . S
N898 H910 0.984 . S
N898 H911 0.985 . S
N899 C901 1.356 . S
N899 H904 0.984 . S
N899 H905 0.985 . S
C900 C894 1.379 1_445 S
C900 C897 1.363 . S
C900 N898 1.356 . S
C901 C895 1.363 . S
C901 C896 1.379 1_665 S
C901 N899 1.356 . S
N902 C894 1.356 . S
N902 H908 0.984 1_655 S
N902 H909 0.984 . S
N903 C896 1.356 . S
N903 H906 0.984 . S
N903 H907 0.985 1_455 S
H904 N899 0.984 . S
H905 N899 0.985 . S
H906 N903 0.984 . S
H907 N903 0.985 1_655 S
H908 N902 0.984 1_455 S
H909 N902 0.984 . S
H910 N898 0.984 . S
H911 N898 0.985 . S
C912 C913 1.363 1_455 S
C912 C918 1.379 1_545 S
C912 N920 1.356 . S
C913 C912 1.363 1_655 S
C913 C919 1.363 . S
C914 C915 1.363 1_655 S
C914 C919 1.379 1_565 S
C914 N921 1.356 . S
C915 C914 1.363 1_455 S
C915 C918 1.363 . S
N916 C918 1.356 . S
N916 H928 0.984 1_565 S
N916 H929 0.985 . S
N917 C919 1.356 . S
N917 H922 0.984 . S
N917 H923 0.985 1_545 S
C918 C912 1.379 1_565 S
C918 C915 1.363 . S
C918 N916 1.356 . S
C919 C913 1.363 . S
C919 C914 1.379 1_545 S
C919 N917 1.356 . S
N920 C912 1.356 . S
N920 H926 0.984 . S
N920 H927 0.984 . S
N921 C914 1.356 . S
N921 H924 0.984 . S
N921 H925 0.985 . S
H922 N917 0.984 . S
H923 N917 0.985 1_565 S
H924 N921 0.984 . S
H925 N921 0.985 . S
H926 N920 0.984 . S
H927 N920 0.984 . S
H928 N916 0.984 1_545 S
H929 N916 0.985 . S
C930 C931 1.363 . S
C930 C936 1.379 1_455 S
C930 N938 1.356 . S
C931 C930 1.363 . S
C931 C937 1.363 1_545 S
C932 C933 1.363 . S
C932 C937 1.379 1_655 S
C932 N939 1.356 . S
C933 C932 1.363 . S
C933 C936 1.363 1_565 S
N934 C936 1.356 . S
N934 H946 0.984 . S
N934 H947 0.985 . S
N935 C937 1.356 . S
N935 H940 0.984 . S
N935 H941 0.985 . S
C936 C930 1.379 1_655 S
C936 C933 1.363 1_545 S
C936 N934 1.356 . S
C937 C931 1.363 1_565 S
C937 C932 1.379 1_455 S
C937 N935 1.356 . S
N938 C930 1.356 . S
N938 H944 0.984 . S
N938 H945 0.984 . S
N939 C932 1.356 . S
N939 H942 0.984 . S
N939 H943 0.985 . S
H940 N935 0.984 . S
H941 N935 0.985 . S
H942 N939 0.984 . S
H943 N939 0.985 . S
H944 N938 0.984 . S
H945 N938 0.984 . S
H946 N934 0.984 . S
H947 N934 0.985 . S
C409 C9 1.458 . S
C411 C247 1.458 . S
C427 C43 1.458 . S
C429 C281 1.458 . S
C445 C77 1.458 . S
C447 C315 1.458 . S
C463 C349 1.458 . S
C465 C111 1.458 . S
C481 C383 1.458 . S
C483 C145 1.458 . S
C499 C179 1.458 . S
C501 C213 1.458 . S
C517 C122 0.810 . S
C519 C20 0.810 . S
C535 C54 0.809 . S
C537 C156 0.809 . S
C553 C190 0.809 . S
C555 C88 0.809 . S
C571 C326 0.810 . S
C573 C224 0.810 . S
C589 C360 0.809 . S
C591 C258 0.809 . S
C607 C292 0.809 . S
C609 C394 0.809 . S
C625 C277 1.498 . S
C627 C5 1.498 . S
C643 C39 1.498 . S
C645 C311 1.498 . S
C661 C73 1.498 . S
C663 C345 1.498 . S
C679 C107 1.498 . S
C681 C379 1.498 . S
C697 C141 1.498 . S
C699 C209 1.498 . S
C715 C243 1.498 . S
C717 C175 1.498 . S
C733 C135 2.112 . S
C735 C33 2.112 . S
C751 C67 2.112 . S
C753 C169 2.112 . S
C769 C203 2.112 . S
C771 C101 2.112 . S
C787 C237 2.112 . S
C789 C339 2.112 . S
C805 C271 2.112 . S
C807 C373 2.112 . S
C823 C407 2.112 . S
C825 C305 2.112 . S
C841 C2 1.608 . S
C843 C104 1.608 . S
C859 C36 1.608 . S
C861 C138 1.608 . S
C877 C70 1.609 . S
C879 C172 1.609 . S
C895 C206 1.608 . S
C897 C308 1.608 . S
C913 C342 1.609 . S
C915 C240 1.609 . S
C931 C274 1.608 . S
C933 C376 1.608 . S
