# Generated by pormake.
# Topology cds-f, (5)-cn, num edge types: 1
# Building blocks:
#     Node 0, Type 0, BuildingBlock: XOMCOT_clean_sbu_1, # of connection points: 5
#     Node 1, Type 0, BuildingBlock: XOMCOT_clean_sbu_1, # of connection points: 5
#     Node 2, Type 0, BuildingBlock: XOMCOT_clean_sbu_1, # of connection points: 5
#     Node 3, Type 0, BuildingBlock: XOMCOT_clean_sbu_1, # of connection points: 5
#     Node 4, Type 0, BuildingBlock: XOMCOT_clean_sbu_1, # of connection points: 5
#     Node 5, Type 0, BuildingBlock: XOMCOT_clean_sbu_1, # of connection points: 5
#     Node 6, Type 0, BuildingBlock: XOMCOT_clean_sbu_1, # of connection points: 5
#     Node 7, Type 0, BuildingBlock: XOMCOT_clean_sbu_1, # of connection points: 5
#     Node 8, Type 0, BuildingBlock: XOMCOT_clean_sbu_1, # of connection points: 5
#     Node 9, Type 0, BuildingBlock: XOMCOT_clean_sbu_1, # of connection points: 5
#     Node 10, Type 0, BuildingBlock: XOMCOT_clean_sbu_1, # of connection points: 5
#     Node 11, Type 0, BuildingBlock: XOMCOT_clean_sbu_1, # of connection points: 5
#     Node 12, Type 0, BuildingBlock: XOMCOT_clean_sbu_1, # of connection points: 5
#     Node 13, Type 0, BuildingBlock: XOMCOT_clean_sbu_1, # of connection points: 5
#     Node 14, Type 0, BuildingBlock: XOMCOT_clean_sbu_1, # of connection points: 5
#     Node 15, Type 0, BuildingBlock: XOMCOT_clean_sbu_1, # of connection points: 5
#     Edge 16, Type (0, 0), BuildingBlock: TEMPAE_clean_linker_10, # of connection points: 2
#     Edge 17, Type (0, 0), BuildingBlock: TEMPAE_clean_linker_10, # of connection points: 2
#     Edge 18, Type (0, 0), BuildingBlock: TEMPAE_clean_linker_10, # of connection points: 2
#     Edge 19, Type (0, 0), BuildingBlock: TEMPAE_clean_linker_10, # of connection points: 2
#     Edge 20, Type (0, 0), BuildingBlock: TEMPAE_clean_linker_10, # of connection points: 2
#     Edge 21, Type (0, 0), BuildingBlock: TEMPAE_clean_linker_10, # of connection points: 2
#     Edge 22, Type (0, 0), BuildingBlock: TEMPAE_clean_linker_10, # of connection points: 2
#     Edge 23, Type (0, 0), BuildingBlock: TEMPAE_clean_linker_10, # of connection points: 2
#     Edge 24, Type (0, 0), BuildingBlock: TEMPAE_clean_linker_10, # of connection points: 2
#     Edge 25, Type (0, 0), BuildingBlock: TEMPAE_clean_linker_10, # of connection points: 2
#     Edge 26, Type (0, 0), BuildingBlock: TEMPAE_clean_linker_10, # of connection points: 2
#     Edge 27, Type (0, 0), BuildingBlock: TEMPAE_clean_linker_10, # of connection points: 2
#     Edge 28, Type (0, 0), BuildingBlock: TEMPAE_clean_linker_10, # of connection points: 2
#     Edge 29, Type (0, 0), BuildingBlock: TEMPAE_clean_linker_10, # of connection points: 2
#     Edge 30, Type (0, 0), BuildingBlock: TEMPAE_clean_linker_10, # of connection points: 2
#     Edge 31, Type (0, 0), BuildingBlock: TEMPAE_clean_linker_10, # of connection points: 2
#     Edge 32, Type (0, 0), BuildingBlock: TEMPAE_clean_linker_10, # of connection points: 2
#     Edge 33, Type (0, 0), BuildingBlock: TEMPAE_clean_linker_10, # of connection points: 2
#     Edge 34, Type (0, 0), BuildingBlock: TEMPAE_clean_linker_10, # of connection points: 2
#     Edge 35, Type (0, 0), BuildingBlock: TEMPAE_clean_linker_10, # of connection points: 2
#     Edge 36, Type (0, 0), BuildingBlock: TEMPAE_clean_linker_10, # of connection points: 2
#     Edge 37, Type (0, 0), BuildingBlock: TEMPAE_clean_linker_10, # of connection points: 2
#     Edge 38, Type (0, 0), BuildingBlock: TEMPAE_clean_linker_10, # of connection points: 2
#     Edge 39, Type (0, 0), BuildingBlock: TEMPAE_clean_linker_10, # of connection points: 2
#     Edge 40, Type (0, 0), BuildingBlock: TEMPAE_clean_linker_10, # of connection points: 2
#     Edge 41, Type (0, 0), BuildingBlock: TEMPAE_clean_linker_10, # of connection points: 2
#     Edge 42, Type (0, 0), BuildingBlock: TEMPAE_clean_linker_10, # of connection points: 2
#     Edge 43, Type (0, 0), BuildingBlock: TEMPAE_clean_linker_10, # of connection points: 2
#     Edge 44, Type (0, 0), BuildingBlock: TEMPAE_clean_linker_10, # of connection points: 2
#     Edge 45, Type (0, 0), BuildingBlock: TEMPAE_clean_linker_10, # of connection points: 2
#     Edge 46, Type (0, 0), BuildingBlock: TEMPAE_clean_linker_10, # of connection points: 2
#     Edge 47, Type (0, 0), BuildingBlock: TEMPAE_clean_linker_10, # of connection points: 2
#     Edge 48, Type (0, 0), BuildingBlock: TEMPAE_clean_linker_10, # of connection points: 2
#     Edge 49, Type (0, 0), BuildingBlock: TEMPAE_clean_linker_10, # of connection points: 2
#     Edge 50, Type (0, 0), BuildingBlock: TEMPAE_clean_linker_10, # of connection points: 2
#     Edge 51, Type (0, 0), BuildingBlock: TEMPAE_clean_linker_10, # of connection points: 2
#     Edge 52, Type (0, 0), BuildingBlock: TEMPAE_clean_linker_10, # of connection points: 2
#     Edge 53, Type (0, 0), BuildingBlock: TEMPAE_clean_linker_10, # of connection points: 2
#     Edge 54, Type (0, 0), BuildingBlock: TEMPAE_clean_linker_10, # of connection points: 2
#     Edge 55, Type (0, 0), BuildingBlock: TEMPAE_clean_linker_10, # of connection points: 2
# Relax obj value: 0.236
# Max RMSD: 0.186
# Mean RMSD: 0.177
data_MOF--net-cds-f--node1-XOMCOT_clean_sbu_1--edge1-TEMPAE_clean_linker_10
_symmetry_space_group_name_H-M    P1
_symmetry_Int_Tables_number       1
_symmetry_cell_setting            triclinic
loop_
_symmetry_equiv_pos_as_xyz
'x, y, z'
_cell_length_a     36.147242
_cell_length_b     36.160577
_cell_length_c     57.028773
_cell_angle_alpha  91.467312
_cell_angle_beta   90.044689
_cell_angle_gamma 91.550485
loop_
_atom_site_label
_atom_site_type_symbol
_atom_site_fract_x
_atom_site_fract_y
_atom_site_fract_z
_atom_type_partial_charge
C0 C 0.31313 0.28451 0.17181 0.0
C1 C 0.35029 0.28585 0.17663 0.0
N2 N 0.36385 0.25193 0.17286 0.0
N3 N 0.30251 0.25013 0.16429 0.0
C4 C 0.33399 0.23043 0.1662 0.0
H5 H 0.29501 0.30774 0.17325 0.0
Co6 Co 0.2519 0.24009 0.15494 0.0
C7 C 0.29262 0.19944 0.11419 0.0
O8 O 0.32645 0.20885 0.1206 0.0
N9 N 0.20103 0.23155 0.14621 0.0
C10 C 0.15199 0.22973 0.12248 0.0
C11 C 0.18981 0.22976 0.12361 0.0
C12 C 0.16879 0.23305 0.15858 0.0
N13 N 0.13845 0.23225 0.14441 0.0
O14 O 0.24956 0.19948 0.17562 0.0
H15 H 0.20795 0.23147 0.10864 0.0
H16 H 0.16759 0.23727 0.17741 0.0
O17 O 0.26531 0.20921 0.12702 0.0
C18 C 0.24088 0.21604 0.19481 0.0
O19 O 0.23568 0.25187 0.19474 0.0
N20 N 0.25296 0.28241 0.1372 0.0
C21 C 0.25826 0.35449 0.12215 0.0
C22 C 0.28132 0.32756 0.11254 0.0
C23 C 0.27819 0.29136 0.12033 0.0
C24 C 0.22951 0.30809 0.14602 0.0
C25 C 0.23139 0.34421 0.13855 0.0
H26 H 0.29796 0.27171 0.11417 0.0
H27 H 0.21092 0.30114 0.16016 0.0
H28 H 0.33516 0.20095 0.16263 0.0
H29 H 0.36637 0.31047 0.18168 0.0
H30 H 0.13575 0.22937 0.10652 0.0
H31 H 0.30271 0.33482 0.10005 0.0
H32 H 0.2138 0.36446 0.14689 0.0
C33 C 0.73024 0.31172 0.6834 0.0
C34 C 0.73072 0.34969 0.68551 0.0
N35 N 0.75295 0.36391 0.6688 0.0
N36 N 0.75209 0.30131 0.66547 0.0
C37 C 0.76561 0.33377 0.65685 0.0
H38 H 0.7139 0.29284 0.69383 0.0
Co39 Co 0.75524 0.25126 0.6551 0.0
C40 C 0.81722 0.25152 0.62139 0.0
O41 O 0.83395 0.22642 0.63349 0.0
N42 N 0.75782 0.20053 0.64401 0.0
C43 C 0.75395 0.15393 0.61765 0.0
C44 C 0.75395 0.19151 0.62095 0.0
C45 C 0.76008 0.16708 0.65439 0.0
N46 N 0.75752 0.13826 0.63862 0.0
O47 O 0.7945 0.24494 0.67733 0.0
H48 H 0.75046 0.21117 0.6072 0.0
H49 H 0.76219 0.16366 0.67312 0.0
O50 O 0.78788 0.26575 0.62963 0.0
C51 C 0.77812 0.23278 0.69559 0.0
O52 O 0.74252 0.22465 0.69427 0.0
N53 N 0.7142 0.25733 0.63633 0.0
C54 C 0.64512 0.26919 0.61727 0.0
C55 C 0.67615 0.28985 0.60985 0.0
C56 C 0.71068 0.28355 0.61975 0.0
C57 C 0.68459 0.2362 0.64307 0.0
C58 C 0.64989 0.2412 0.63345 0.0
H59 H 0.73389 0.30127 0.6152 0.0
H60 H 0.68774 0.21622 0.65667 0.0
H61 H 0.78377 0.33527 0.64182 0.0
H62 H 0.71462 0.36548 0.69799 0.0
H63 H 0.75118 0.13921 0.60094 0.0
H64 H 0.67342 0.31209 0.59765 0.0
H65 H 0.62669 0.22434 0.63941 0.0
C66 C 0.82181 0.73005 0.10168 0.0
C67 C 0.85934 0.72604 0.09921 0.0
N68 N 0.87685 0.75076 0.11366 0.0
N69 N 0.81521 0.75679 0.11795 0.0
C70 C 0.84951 0.76929 0.12471 0.0
H71 H 0.80057 0.71436 0.09212 0.0
Co72 Co 0.76674 0.77042 0.12667 0.0
C73 C 0.80162 0.80993 0.17034 0.0
O74 O 0.81699 0.83865 0.16016 0.0
N75 N 0.71744 0.78427 0.1352 0.0
C76 C 0.67138 0.8126 0.15375 0.0
C77 C 0.70911 0.80985 0.15191 0.0
C78 C 0.6837 0.77264 0.12668 0.0
N79 N 0.65522 0.78918 0.1379 0.0
O80 O 0.77595 0.81747 0.11295 0.0
H81 H 0.72903 0.82616 0.16211 0.0
H82 H 0.6798 0.75241 0.11258 0.0
O83 O 0.7836 0.7855 0.15813 0.0
C84 C 0.76165 0.81294 0.09252 0.0
O85 O 0.74238 0.78235 0.08779 0.0
N86 N 0.75761 0.72289 0.13691 0.0
C87 C 0.75622 0.64641 0.13905 0.0
C88 C 0.77457 0.66801 0.15645 0.0
C89 C 0.77515 0.70651 0.155 0.0
C90 C 0.73827 0.7022 0.12059 0.0
C91 C 0.73663 0.66397 0.12156 0.0
H92 H 0.79215 0.72252 0.1673 0.0
H93 H 0.727 0.71516 0.10544 0.0
H94 H 0.85462 0.79112 0.13763 0.0
H95 H 0.87278 0.70667 0.08743 0.0
H96 H 0.65693 0.83105 0.16561 0.0
H97 H 0.79045 0.65531 0.17005 0.0
H98 H 0.72198 0.64823 0.10787 0.0
C99 C 0.30337 0.74382 0.67108 0.0
C100 C 0.30367 0.7065 0.67466 0.0
N101 N 0.28741 0.68845 0.65623 0.0
N102 N 0.28647 0.75032 0.65061 0.0
C103 C 0.27679 0.71588 0.64193 0.0
H104 H 0.31568 0.76489 0.68259 0.0
Co105 Co 0.28447 0.79929 0.63916 0.0
C106 C 0.22597 0.79584 0.60268 0.0
O107 O 0.20926 0.82366 0.61301 0.0
N108 N 0.28344 0.84901 0.62764 0.0
C109 C 0.29027 0.8949 0.60244 0.0
C110 C 0.28948 0.85724 0.60495 0.0
C111 C 0.28069 0.88282 0.63856 0.0
N112 N 0.28494 0.91122 0.62359 0.0
O113 O 0.24348 0.80851 0.65958 0.0
H114 H 0.29391 0.837 0.591 0.0
H115 H 0.277 0.88696 0.65721 0.0
O116 O 0.25381 0.78202 0.61269 0.0
C117 C 0.25833 0.82285 0.67815 0.0
O118 O 0.29417 0.82998 0.67831 0.0
N119 N 0.32672 0.79083 0.62194 0.0
C120 C 0.39666 0.77545 0.60529 0.0
C121 C 0.36572 0.7551 0.5968 0.0
C122 C 0.33075 0.76321 0.60547 0.0
C123 C 0.35629 0.81177 0.62965 0.0
C124 C 0.39151 0.80495 0.62126 0.0
H125 H 0.3075 0.74582 0.60004 0.0
H126 H 0.3526 0.833 0.64309 0.0
H127 H 0.26349 0.71096 0.62509 0.0
H128 H 0.31527 0.6938 0.68987 0.0
H129 H 0.2947 0.90915 0.58618 0.0
H130 H 0.3687 0.73178 0.58471 0.0
H131 H 0.41469 0.82165 0.62797 0.0
C132 C 0.30896 0.76149 0.85317 0.0
C133 C 0.3467 0.76182 0.8503 0.0
N134 N 0.36263 0.78111 0.86836 0.0
N135 N 0.30041 0.78064 0.87289 0.0
C136 C 0.33381 0.79224 0.88188 0.0
H137 H 0.28896 0.74723 0.84184 0.0
Co138 Co 0.25092 0.78381 0.88381 0.0
C139 C 0.25772 0.83763 0.92402 0.0
O140 O 0.23451 0.85998 0.91426 0.0
N141 N 0.20077 0.78641 0.89509 0.0
C142 C 0.15387 0.7792 0.92001 0.0
C143 C 0.1915 0.77861 0.91738 0.0
C144 C 0.16756 0.79155 0.88446 0.0
N145 N 0.1384 0.78743 0.89934 0.0
O146 O 0.24573 0.82778 0.86633 0.0
H147 H 0.21092 0.77141 0.93085 0.0
H148 H 0.16459 0.79759 0.86612 0.0
O149 O 0.26792 0.80886 0.91263 0.0
C150 C 0.23275 0.81424 0.84695 0.0
O151 O 0.22438 0.77867 0.84546 0.0
N152 N 0.25542 0.73871 0.8975 0.0
C153 C 0.26532 0.66512 0.90681 0.0
C154 C 0.2888 0.69241 0.91709 0.0
C155 C 0.2833 0.72944 0.9122 0.0
C156 C 0.23199 0.71249 0.88784 0.0
C157 C 0.2361 0.67549 0.89253 0.0
H158 H 0.30285 0.75021 0.91886 0.0
H159 H 0.21111 0.72023 0.87543 0.0
H160 H 0.33698 0.80807 0.89815 0.0
H161 H 0.36129 0.74775 0.83629 0.0
H162 H 0.13913 0.77244 0.9359 0.0
H163 H 0.31195 0.68505 0.92794 0.0
H164 H 0.21806 0.65502 0.88382 0.0
C165 C 0.32677 0.2166 0.41194 0.0
C166 C 0.33106 0.17905 0.41283 0.0
N167 N 0.29931 0.16174 0.40574 0.0
N168 N 0.29255 0.2235 0.40412 0.0
C169 C 0.27635 0.18948 0.40046 0.0
H170 H 0.3473 0.2377 0.41683 0.0
Co171 Co 0.27473 0.27184 0.40166 0.0
C172 C 0.23172 0.2708 0.35814 0.0
O173 O 0.24268 0.30547 0.35597 0.0
N174 N 0.25621 0.3216 0.40026 0.0
C175 C 0.21402 0.36562 0.40246 0.0
C176 C 0.2198 0.32822 0.40285 0.0
C177 C 0.27194 0.35622 0.39855 0.0
N178 N 0.24685 0.38348 0.39982 0.0
O179 O 0.24093 0.26185 0.42674 0.0
H180 H 0.19849 0.30697 0.4048 0.0
H181 H 0.30117 0.36201 0.39698 0.0
O182 O 0.23997 0.25385 0.37685 0.0
C183 C 0.26026 0.27234 0.44456 0.0
O184 O 0.29372 0.28608 0.44078 0.0
N185 N 0.31128 0.2813 0.37935 0.0
C186 C 0.37678 0.28781 0.35437 0.0
C187 C 0.3486 0.2635 0.34637 0.0
C188 C 0.31604 0.26033 0.35931 0.0
C189 C 0.33928 0.30385 0.38768 0.0
C190 C 0.37177 0.30862 0.37504 0.0
H191 H 0.29644 0.23857 0.35432 0.0
H192 H 0.33752 0.31607 0.40512 0.0
H193 H 0.24805 0.18519 0.3946 0.0
H194 H 0.35597 0.16558 0.41816 0.0
H195 H 0.18744 0.37853 0.40388 0.0
H196 H 0.35278 0.24533 0.33125 0.0
H197 H 0.39413 0.32572 0.3825 0.0
C198 C 0.81788 0.31861 0.93082 0.0
C199 C 0.85585 0.32174 0.9312 0.0
N200 N 0.86966 0.29117 0.92091 0.0
N201 N 0.80737 0.28648 0.91991 0.0
C202 C 0.83966 0.27003 0.91433 0.0
H203 H 0.79911 0.33845 0.93829 0.0
Co204 Co 0.75768 0.26933 0.91613 0.0
C205 C 0.74948 0.25126 0.86609 0.0
O206 O 0.71736 0.26717 0.86827 0.0
N207 N 0.7071 0.25063 0.91293 0.0
C208 C 0.66201 0.20846 0.90531 0.0
C209 C 0.69965 0.21498 0.90646 0.0
C210 C 0.67281 0.26488 0.91616 0.0
N211 N 0.64505 0.23986 0.91148 0.0
O212 O 0.76977 0.22589 0.93317 0.0
H213 H 0.7205 0.19487 0.9025 0.0
H214 H 0.66752 0.29306 0.92141 0.0
O215 O 0.76997 0.24827 0.88437 0.0
C216 C 0.76358 0.23947 0.95375 0.0
O217 O 0.74895 0.27229 0.9555 0.0
N218 N 0.74638 0.31478 0.90361 0.0
C219 C 0.74209 0.39083 0.89908 0.0
C220 C 0.76246 0.36983 0.88287 0.0
C221 C 0.76463 0.33162 0.8856 0.0
C222 C 0.7266 0.33512 0.91929 0.0
C223 C 0.72273 0.3727 0.91681 0.0
H224 H 0.78367 0.31647 0.87466 0.0
H225 H 0.71631 0.32283 0.9351 0.0
H226 H 0.84114 0.24315 0.90563 0.0
H227 H 0.87213 0.34445 0.93896 0.0
H228 H 0.64818 0.18242 0.90056 0.0
H229 H 0.77874 0.38305 0.86935 0.0
H230 H 0.70672 0.38777 0.92974 0.0
C231 C 0.70986 0.80336 0.38918 0.0
C232 C 0.70565 0.84098 0.38995 0.0
N233 N 0.73899 0.85771 0.38693 0.0
N234 N 0.74568 0.79577 0.3853 0.0
C235 C 0.76298 0.8296 0.38434 0.0
H236 H 0.68807 0.78276 0.39162 0.0
Co237 Co 0.76386 0.74701 0.38379 0.0
C238 C 0.80787 0.74307 0.33999 0.0
O239 O 0.79809 0.70785 0.33855 0.0
N240 N 0.7826 0.69726 0.38341 0.0
C241 C 0.82505 0.65392 0.38666 0.0
C242 C 0.81911 0.69124 0.38571 0.0
C243 C 0.76693 0.66241 0.38336 0.0
N244 N 0.79221 0.63549 0.3853 0.0
O245 O 0.79748 0.76025 0.40924 0.0
H246 H 0.84036 0.71286 0.38667 0.0
H247 H 0.7376 0.6564 0.38273 0.0
O248 O 0.79877 0.76229 0.35831 0.0
C249 C 0.77758 0.75251 0.4271 0.0
O250 O 0.74389 0.73913 0.42316 0.0
N251 N 0.7274 0.73422 0.36144 0.0
C252 C 0.66182 0.72478 0.33613 0.0
C253 C 0.691 0.74661 0.32745 0.0
C254 C 0.72316 0.75177 0.3407 0.0
C255 C 0.69908 0.71318 0.37014 0.0
C256 C 0.66639 0.70738 0.35758 0.0
H257 H 0.74278 0.7726 0.33525 0.0
H258 H 0.70054 0.70354 0.38789 0.0
H259 H 0.79249 0.83352 0.38182 0.0
H260 H 0.68 0.85503 0.39315 0.0
H261 H 0.85177 0.64144 0.38823 0.0
H262 H 0.68798 0.76173 0.31144 0.0
H263 H 0.64375 0.6921 0.36561 0.0
C264 C 0.80843 0.73954 0.8633 0.0
C265 C 0.84615 0.73559 0.86264 0.0
N266 N 0.86236 0.76418 0.87469 0.0
N267 N 0.80041 0.77021 0.87602 0.0
C268 C 0.83399 0.78497 0.8825 0.0
H269 H 0.78807 0.72119 0.85489 0.0
Co270 Co 0.75179 0.78652 0.88127 0.0
C271 C 0.77989 0.83688 0.92164 0.0
O272 O 0.79108 0.86462 0.90876 0.0
N273 N 0.70226 0.80376 0.88658 0.0
C274 C 0.65823 0.84367 0.89577 0.0
C275 C 0.69566 0.83829 0.89475 0.0
C276 C 0.66765 0.78883 0.88252 0.0
N277 N 0.64031 0.8126 0.888 0.0
O278 O 0.76455 0.82965 0.86409 0.0
H279 H 0.71679 0.85894 0.8992 0.0
H280 H 0.66221 0.76162 0.87493 0.0
O281 O 0.76578 0.80774 0.91182 0.0
C282 C 0.75038 0.82315 0.84382 0.0
O283 O 0.72607 0.79564 0.84139 0.0
N284 N 0.74007 0.74197 0.89494 0.0
C285 C 0.73467 0.66715 0.90375 0.0
C286 C 0.75493 0.69107 0.91892 0.0
C287 C 0.75749 0.72865 0.91412 0.0
C288 C 0.72038 0.71884 0.88012 0.0
C289 C 0.71645 0.68143 0.88453 0.0
H290 H 0.77635 0.74597 0.92444 0.0
H291 H 0.71053 0.72887 0.86363 0.0
H292 H 0.83768 0.81029 0.89281 0.0
H293 H 0.86062 0.71363 0.8536 0.0
H294 H 0.64533 0.86883 0.9018 0.0
H295 H 0.77032 0.68046 0.93349 0.0
H296 H 0.70198 0.66336 0.87192 0.0
C297 C 0.32505 0.71387 0.4101 0.0
C298 C 0.32487 0.67639 0.41319 0.0
N299 N 0.2951 0.66078 0.40216 0.0
N300 N 0.29567 0.72271 0.39709 0.0
C301 C 0.27785 0.68967 0.39235 0.0
H302 H 0.34592 0.73358 0.41656 0.0
Co303 Co 0.2895 0.77263 0.38873 0.0
C304 C 0.23265 0.74784 0.3473 0.0
O305 O 0.20331 0.72748 0.35244 0.0
N306 N 0.28433 0.82322 0.38028 0.0
C307 C 0.28942 0.87208 0.35734 0.0
C308 C 0.28979 0.83433 0.35811 0.0
C309 C 0.28091 0.85553 0.39286 0.0
N310 N 0.28412 0.88571 0.37919 0.0
O311 O 0.25094 0.77683 0.4118 0.0
H312 H 0.29647 0.8162 0.34351 0.0
H313 H 0.27827 0.85718 0.41174 0.0
O314 O 0.25523 0.7577 0.36369 0.0
C315 C 0.26841 0.78677 0.43052 0.0
O316 O 0.30425 0.79348 0.42897 0.0
N317 N 0.32952 0.76866 0.36887 0.0
C318 C 0.39809 0.76023 0.34821 0.0
C319 C 0.36754 0.73859 0.3403 0.0
C320 C 0.33318 0.74315 0.35104 0.0
C321 C 0.35862 0.79067 0.37614 0.0
C322 C 0.39296 0.7875 0.3657 0.0
H323 H 0.31029 0.72478 0.34607 0.0
H324 H 0.35534 0.80995 0.39076 0.0
H325 H 0.25286 0.68684 0.38194 0.0
H326 H 0.34586 0.66173 0.42243 0.0
H327 H 0.29398 0.88837 0.34189 0.0
H328 H 0.37066 0.71692 0.32705 0.0
H329 H 0.41576 0.80509 0.37206 0.0
C330 C 0.32156 0.31408 0.92645 0.0
C331 C 0.35928 0.31362 0.9287 0.0
N332 N 0.37064 0.27982 0.92225 0.0
N333 N 0.30858 0.28116 0.91764 0.0
C334 C 0.33927 0.2601 0.9165 0.0
H335 H 0.30474 0.33773 0.93026 0.0
Co336 Co 0.25716 0.27425 0.90932 0.0
C337 C 0.2927 0.2405 0.86426 0.0
O338 O 0.32742 0.24796 0.86958 0.0
N339 N 0.20572 0.26851 0.90118 0.0
C340 C 0.15657 0.27317 0.87799 0.0
C341 C 0.19422 0.27588 0.8793 0.0
C342 C 0.17362 0.26185 0.91309 0.0
N343 N 0.14317 0.26418 0.89916 0.0
O344 O 0.25493 0.23042 0.92779 0.0
H345 H 0.21208 0.2849 0.86526 0.0
H346 H 0.17248 0.25621 0.93162 0.0
O347 O 0.26733 0.24812 0.87913 0.0
C348 C 0.24816 0.24644 0.94759 0.0
O349 O 0.24169 0.28206 0.9476 0.0
N350 N 0.25859 0.31967 0.8948 0.0
C351 C 0.26994 0.39449 0.88894 0.0
C352 C 0.28948 0.36928 0.87509 0.0
C353 C 0.28343 0.33147 0.87836 0.0
C354 C 0.23721 0.34413 0.9068 0.0
C355 C 0.24234 0.38178 0.90405 0.0
H356 H 0.30127 0.31242 0.86948 0.0
H357 H 0.21832 0.33455 0.92014 0.0
H358 H 0.33896 0.23144 0.91055 0.0
H359 H 0.37725 0.33674 0.93409 0.0
H360 H 0.14024 0.27929 0.86273 0.0
H361 H 0.31118 0.37866 0.86339 0.0
H362 H 0.22679 0.40086 0.91491 0.0
C363 C 0.76933 0.31426 0.43467 0.0
C364 C 0.77249 0.35187 0.43325 0.0
N365 N 0.76813 0.36118 0.41078 0.0
N366 N 0.76351 0.29856 0.4132 0.0
C367 C 0.76315 0.32829 0.39879 0.0
H368 H 0.769 0.29975 0.45092 0.0
Co369 Co 0.74928 0.24684 0.41117 0.0
C370 C 0.76974 0.21541 0.36537 0.0
O371 O 0.73761 0.1976 0.36603 0.0
N372 N 0.73414 0.19464 0.41099 0.0
C373 C 0.70063 0.14281 0.41666 0.0
C374 C 0.70037 0.1807 0.4169 0.0
C375 C 0.75473 0.16374 0.4078 0.0
N376 N 0.73468 0.13192 0.41082 0.0
O377 O 0.78967 0.23544 0.4318 0.0
H378 H 0.67678 0.1965 0.42197 0.0
H379 H 0.78389 0.16459 0.40348 0.0
O380 O 0.77911 0.2384 0.38211 0.0
C381 C 0.77519 0.22843 0.45173 0.0
O382 O 0.73899 0.22923 0.45369 0.0
N383 N 0.70793 0.25954 0.39371 0.0
C384 C 0.64069 0.27967 0.37483 0.0
C385 C 0.67273 0.27982 0.36102 0.0
C386 C 0.70627 0.27018 0.37091 0.0
C387 C 0.67797 0.26307 0.40785 0.0
C388 C 0.64378 0.27153 0.39867 0.0
H389 H 0.73073 0.2725 0.36027 0.0
H390 H 0.68059 0.25853 0.42644 0.0
H391 H 0.7571 0.32628 0.38024 0.0
H392 H 0.77633 0.37116 0.44794 0.0
H393 H 0.67733 0.12452 0.42051 0.0
H394 H 0.67211 0.28785 0.34286 0.0
H395 H 0.62006 0.27114 0.41023 0.0
C396 C 0.81239 0.28389 0.18826 0.0
C397 C 0.85022 0.28512 0.19073 0.0
N398 N 0.86515 0.26316 0.17395 0.0
N399 N 0.80285 0.2611 0.17012 0.0
C400 C 0.83561 0.24872 0.16172 0.0
H401 H 0.79291 0.29874 0.19908 0.0
Co402 Co 0.75296 0.25237 0.16114 0.0
C403 C 0.75695 0.1965 0.12287 0.0
O404 O 0.73163 0.17637 0.13352 0.0
N405 N 0.70179 0.24438 0.15193 0.0
C406 C 0.65265 0.24821 0.1285 0.0
C407 C 0.69048 0.25029 0.12978 0.0
C408 C 0.66946 0.23892 0.1639 0.0
N409 N 0.63911 0.24141 0.14996 0.0
O410 O 0.75272 0.209 0.17917 0.0
H411 H 0.70865 0.25768 0.1155 0.0
H412 H 0.66789 0.23536 0.18264 0.0
O413 O 0.7688 0.22679 0.13247 0.0
C414 C 0.74246 0.22116 0.19928 0.0
O415 O 0.72964 0.25478 0.20098 0.0
N416 N 0.75355 0.29709 0.14651 0.0
C417 C 0.75588 0.37057 0.13429 0.0
C418 C 0.77941 0.34533 0.12321 0.0
C419 C 0.7777 0.30824 0.12956 0.0
C420 C 0.73057 0.3213 0.1573 0.0
C421 C 0.73086 0.35809 0.15121 0.0
H422 H 0.79684 0.28903 0.12179 0.0
H423 H 0.71277 0.31217 0.17136 0.0
H424 H 0.83778 0.23001 0.1467 0.0
H425 H 0.86541 0.3008 0.20415 0.0
H426 H 0.63627 0.25253 0.11296 0.0
H427 H 0.7994 0.35438 0.11028 0.0
H428 H 0.71301 0.37701 0.16057 0.0
C429 C 0.71213 0.80637 0.64647 0.0
C430 C 0.70811 0.84391 0.64843 0.0
N431 N 0.74126 0.86082 0.64495 0.0
N432 N 0.74759 0.79893 0.64131 0.0
C433 C 0.76481 0.83281 0.64049 0.0
H434 H 0.69063 0.78576 0.64957 0.0
Co435 Co 0.76611 0.7505 0.64139 0.0
C436 C 0.80768 0.7398 0.59738 0.0
O437 O 0.79571 0.70521 0.59788 0.0
N438 N 0.78505 0.701 0.64299 0.0
C439 C 0.8273 0.65766 0.64668 0.0
C440 C 0.82159 0.69489 0.64486 0.0
C441 C 0.76915 0.66641 0.64425 0.0
N442 N 0.79428 0.63937 0.64641 0.0
O443 O 0.80131 0.76749 0.66468 0.0
H444 H 0.84301 0.71634 0.64468 0.0
H445 H 0.73978 0.66081 0.64413 0.0
O446 O 0.79953 0.76219 0.6144 0.0
C447 C 0.78649 0.75846 0.68409 0.0
O448 O 0.75569 0.73827 0.68341 0.0
N449 N 0.72827 0.73497 0.62069 0.0
C450 C 0.66053 0.7247 0.59798 0.0
C451 C 0.68964 0.74404 0.58721 0.0
C452 C 0.72299 0.74972 0.59913 0.0
C453 C 0.70022 0.71589 0.63126 0.0
C454 C 0.66638 0.70972 0.62004 0.0
H455 H 0.74286 0.76891 0.59187 0.0
H456 H 0.70289 0.70846 0.64941 0.0
H457 H 0.79432 0.83672 0.63796 0.0
H458 H 0.6826 0.85766 0.65253 0.0
H459 H 0.85409 0.64529 0.64791 0.0
H460 H 0.68575 0.75711 0.57053 0.0
H461 H 0.644 0.69635 0.62953 0.0
C462 C 0.328 0.71961 0.10545 0.0
C463 C 0.36576 0.72017 0.10337 0.0
N464 N 0.37963 0.75011 0.11514 0.0
N465 N 0.31731 0.74848 0.11906 0.0
C466 C 0.34955 0.76773 0.12373 0.0
H467 H 0.30945 0.69853 0.09798 0.0
Co468 Co 0.26617 0.75227 0.12754 0.0
C469 C 0.30149 0.77375 0.17623 0.0
O470 O 0.33568 0.76503 0.17143 0.0
N471 N 0.21475 0.75499 0.13584 0.0
C472 C 0.16517 0.74349 0.15788 0.0
C473 C 0.20268 0.74122 0.15632 0.0
C474 C 0.18311 0.76532 0.12503 0.0
N475 N 0.15239 0.75886 0.13832 0.0
O476 O 0.26572 0.80041 0.11408 0.0
H477 H 0.22002 0.72861 0.16916 0.0
H478 H 0.18248 0.77678 0.10771 0.0
O479 O 0.27668 0.77077 0.16017 0.0
C480 C 0.25712 0.79084 0.09292 0.0
O481 O 0.24996 0.75566 0.08801 0.0
N482 N 0.26567 0.7034 0.13678 0.0
C483 C 0.27084 0.62733 0.13605 0.0
C484 C 0.2915 0.64895 0.15232 0.0
C485 C 0.28871 0.68736 0.15228 0.0
C486 C 0.24372 0.68233 0.12199 0.0
C487 C 0.24573 0.64419 0.1214 0.0
H488 H 0.30702 0.70376 0.16339 0.0
H489 H 0.22628 0.69537 0.1094 0.0
H490 H 0.35118 0.79337 0.13392 0.0
H491 H 0.38193 0.69959 0.09421 0.0
H492 H 0.1485 0.73298 0.17211 0.0
H493 H 0.31127 0.6365 0.1638 0.0
H494 H 0.22904 0.62812 0.10883 0.0
C495 C 0.33451 0.24199 0.65786 0.0
C496 C 0.33872 0.20436 0.65701 0.0
N497 N 0.30614 0.18775 0.65086 0.0
N498 N 0.29956 0.24976 0.65195 0.0
C499 C 0.2828 0.2161 0.64779 0.0
H500 H 0.35557 0.26246 0.66291 0.0
Co501 Co 0.28125 0.29814 0.65315 0.0
C502 C 0.23087 0.30371 0.61251 0.0
O503 O 0.23804 0.33948 0.61278 0.0
N504 N 0.26257 0.34798 0.65544 0.0
C505 C 0.22242 0.39256 0.66324 0.0
C506 C 0.22789 0.35509 0.66282 0.0
C507 C 0.2775 0.38237 0.65139 0.0
N508 N 0.25363 0.40996 0.65606 0.0
O509 O 0.24926 0.28288 0.67812 0.0
H510 H 0.20731 0.33422 0.6673 0.0
H511 H 0.30528 0.38762 0.64522 0.0
O512 O 0.24477 0.28377 0.62841 0.0
C513 C 0.26464 0.29428 0.69722 0.0
O514 O 0.29453 0.31566 0.69605 0.0
N515 N 0.31624 0.31187 0.63081 0.0
C516 C 0.38249 0.31912 0.60642 0.0
C517 C 0.35202 0.30021 0.59612 0.0
C518 C 0.31916 0.29644 0.60878 0.0
C519 C 0.3455 0.33073 0.64083 0.0
C520 C 0.37858 0.33542 0.6288 0.0
H521 H 0.29775 0.27825 0.60163 0.0
H522 H 0.34389 0.34002 0.65898 0.0
H523 H 0.25378 0.21247 0.64339 0.0
H524 H 0.36408 0.1904 0.66071 0.0
H525 H 0.19701 0.40589 0.6681 0.0
H526 H 0.3544 0.28628 0.57916 0.0
H527 H 0.40187 0.34885 0.63782 0.0
C528 C 0.91725 0.22578 0.15835 0.0
C529 C 0.90446 0.25754 0.17018 0.0
C530 C 0.95551 0.22015 0.15517 0.0
C531 C 0.98185 0.24688 0.16397 0.0
C532 C 0.96911 0.27889 0.1759 0.0
C533 C 0.93088 0.28386 0.17873 0.0
C534 C 0.9678 0.18573 0.14221 0.0
C535 C 0.9959 0.30841 0.18534 0.0
C536 C 0.08427 0.22308 0.17093 0.0
C537 C 0.09977 0.23718 0.15032 0.0
C538 C 0.04593 0.2256 0.17555 0.0
C539 C 0.02254 0.24291 0.15932 0.0
C540 C 0.03832 0.25787 0.13881 0.0
C541 C 0.07645 0.25492 0.13464 0.0
C542 C 0.03034 0.20943 0.19769 0.0
C543 C 1.01489 0.2771 0.12113 0.0
H544 H 0.8974 0.20508 0.15176 0.0
H545 H 0.92176 0.30893 0.18742 0.0
H546 H 0.9828 0.19347 0.12601 0.0
H547 H 0.98734 0.17057 0.15321 0.0
H548 H 0.94416 0.16683 0.13728 0.0
H549 H 0.98175 0.33077 0.19524 0.0
H550 H 0.0164 0.29601 0.19708 0.0
H551 H 1.0115 0.32093 0.17065 0.0
H552 H 0.10195 0.2093 0.18311 0.0
H553 H 0.08811 0.2668 0.11897 0.0
H554 H 1.00871 0.18805 0.1932 0.0
H555 H 0.0169 0.2313 0.20839 0.0
H556 H 0.05195 0.1967 0.20849 0.0
H557 H 0.99242 0.25803 0.11457 0.0
H558 H 0.03127 0.28683 0.1059 0.0
H559 H 1.00159 0.30128 0.1296 0.0
C560 C 0.73481 0.07522 0.62754 0.0
C561 C 0.75636 0.09872 0.64241 0.0
C562 C 0.73528 0.03655 0.62918 0.0
C563 C 0.75785 0.02039 0.64622 0.0
C564 C 0.77923 0.04388 0.66167 0.0
C565 C 0.7781 0.08278 0.65967 0.0
C566 C 0.71147 1.01297 0.61257 0.0
C567 C 0.80364 0.02784 0.68008 0.0
C568 C 0.72682 0.92255 0.66182 0.0
C569 C 0.74891 0.90041 0.64716 0.0
C570 C 0.73059 0.96135 0.66244 0.0
C571 C 0.75747 0.979 0.64823 0.0
C572 C 0.78125 0.95686 0.63426 0.0
C573 C 0.77672 0.91786 0.6339 0.0
C574 C 0.7045 0.98352 0.67755 0.0
C575 C 0.8104 0.97445 0.61892 0.0
H576 H 0.71733 0.0872 0.61448 0.0
H577 H 0.79496 0.10066 0.67114 0.0
H578 H 0.72896 0.99371 0.60231 0.0
H579 H 0.69144 0.9959 0.62266 0.0
H580 H 0.6958 0.0298 0.60013 0.0
H581 H 0.81849 0.04963 0.69079 0.0
H582 H 0.78681 1.01028 0.69192 0.0
H583 H 0.82431 1.00979 0.67156 0.0
H584 H 0.70593 0.9095 0.67266 0.0
H585 H 0.79396 0.90116 0.62254 0.0
H586 H 0.686 0.99933 0.66621 0.0
H587 H 0.72024 1.00388 0.6888 0.0
H588 H 0.68708 0.9657 0.68896 0.0
H589 H 0.79687 0.98925 0.60457 0.0
H590 H 0.82911 0.95371 0.611 0.0
H591 H 0.82723 0.99523 0.62921 0.0
C592 C 0.9388 0.72396 0.11614 0.0
C593 C 0.91653 0.75516 0.11666 0.0
C594 C 0.97751 0.72728 0.11838 0.0
C595 C 0.99484 0.76283 0.12071 0.0
C596 C 0.97253 0.79456 0.12095 0.0
C597 C 0.93364 0.79034 0.11925 0.0
C598 C 0.9998 0.69258 0.11878 0.0
C599 C 0.98981 0.83297 0.12297 0.0
C600 C 0.08801 0.76665 0.15193 0.0
C601 C 0.11349 0.76446 0.13332 0.0
C602 C 0.04969 0.76685 0.14802 0.0
C603 C 0.03587 0.76628 0.12481 0.0
C604 C 0.06133 0.76649 0.10582 0.0
C605 C 0.09982 0.76525 0.11027 0.0
C606 C 0.02393 0.76601 0.16887 0.0
C607 C 0.04784 0.76686 0.0808 0.0
H608 H 0.92571 0.69672 0.11441 0.0
H609 H 0.91662 0.81455 0.11941 0.0
H610 H 0.02091 0.69304 0.10469 0.0
H611 H 1.01475 0.69129 0.13574 0.0
H612 H 0.98224 0.66706 0.11646 0.0
H613 H 0.96905 0.85483 0.12122 0.0
H614 H 1.00382 0.83691 0.1402 0.0
H615 H 1.01125 0.83659 0.10924 0.0
H616 H 0.09795 0.76741 0.16983 0.0
H617 H 0.11898 0.76372 0.09572 0.0
H618 H 1.0066 0.7402 0.16811 0.0
H619 H 1.00494 0.78955 0.16847 0.0
H620 H 0.03908 0.76728 0.18584 0.0
H621 H 0.03369 0.74004 0.07621 0.0
H622 H 0.07084 0.77146 0.06821 0.0
H623 H 0.02733 0.78884 0.07873 0.0
C624 C 0.30702 0.97485 0.61483 0.0
C625 C 0.28585 0.95079 0.62879 0.0
C626 C 0.30771 1.01338 0.61894 0.0
C627 C 0.28664 0.02881 0.63751 0.0
C628 C 0.26524 1.00477 0.65178 0.0
C629 C 0.26526 0.96611 0.64735 0.0
C630 C 0.33154 0.03759 0.60352 0.0
C631 C 0.24225 0.01994 0.6717 0.0
C632 C 0.32102 0.12343 0.66086 0.0
C633 C 0.29874 0.14803 0.64883 0.0
C634 C 0.31666 0.08483 0.65783 0.0
C635 C 0.28887 0.06985 0.64258 0.0
C636 C 0.26521 0.09433 0.63105 0.0
C637 C 0.27043 0.13305 0.63426 0.0
C638 C 0.34274 0.06009 0.67041 0.0
C639 C 0.23507 0.07961 0.61474 0.0
H640 H 0.32367 0.96346 0.60077 0.0
H641 H 0.24866 0.94792 0.65817 0.0
H642 H 0.31443 0.05865 0.59521 0.0
H643 H 0.35291 0.05265 0.61431 0.0
H644 H 0.34564 0.02145 0.58948 0.0
H645 H 0.22637 0.99785 0.6808 0.0
H646 H 0.26038 0.03492 0.68469 0.0
H647 H 0.22258 0.0402 0.66498 0.0
H648 H 0.34234 0.13432 0.67266 0.0
H649 H 0.25305 0.15154 0.62481 0.0
H650 H 0.35949 0.04453 0.6574 0.0
H651 H 0.32687 0.03946 0.68069 0.0
H652 H 0.36187 0.07591 0.68245 0.0
H653 H 0.24763 0.06579 0.59921 0.0
H654 H 0.21708 0.10185 0.60861 0.0
H655 H 0.21763 0.05852 0.62365 0.0
C656 C 0.92484 0.73992 0.88071 0.0
C657 C 0.90181 0.77023 0.87822 0.0
C658 C 0.96341 0.74467 0.88324 0.0
C659 C 0.97984 0.78069 0.88296 0.0
C660 C 0.95677 0.8115 0.88039 0.0
C661 C 0.91803 0.80595 0.87829 0.0
C662 C 0.98654 0.71103 0.88652 0.0
C663 C 0.97308 0.85031 0.8797 0.0
C664 C 0.07365 0.79294 0.91324 0.0
C665 C 0.09886 0.78893 0.8946 0.0
C666 C 0.03517 0.79101 0.90961 0.0
C667 C 0.02087 0.7859 0.88663 0.0
C668 C 0.04592 0.78356 0.86751 0.0
C669 C 0.08452 0.78484 0.8717 0.0
C670 C 1.00979 0.79323 0.93061 0.0
C671 C 0.03192 0.7787 0.84266 0.0
H672 H 0.91251 0.7123 0.88099 0.0
H673 H 0.9005 0.82945 0.87614 0.0
H674 H 1.00772 0.7092 0.8725 0.0
H675 H 1.00146 0.7135 0.90353 0.0
H676 H 0.96961 0.68492 0.8862 0.0
H677 H 0.9517 0.87119 0.87672 0.0
H678 H 0.98751 0.8574 0.89645 0.0
H679 H 0.99402 0.85211 0.86552 0.0
H680 H 0.08388 0.79723 0.93095 0.0
H681 H 0.1033 0.78169 0.85707 0.0
H682 H 0.99332 0.76701 0.93189 0.0
H683 H 0.98998 0.81581 0.92854 0.0
H684 H 0.02519 0.79817 0.94731 0.0
H685 H 0.01787 0.75118 0.84038 0.0
H686 H 0.05458 0.78086 0.82958 0.0
H687 H 1.01117 0.79985 0.83895 0.0
C688 C 0.30943 0.94901 0.37388 0.0
C689 C 0.28556 0.92468 0.38583 0.0
C690 C 0.30928 0.98742 0.37818 0.0
C691 C 0.28452 1.00239 0.3949 0.0
C692 C 0.26081 0.97798 0.40747 0.0
C693 C 0.26178 0.93937 0.4029 0.0
C694 C 0.33566 1.012 0.36469 0.0
C695 C 0.23397 0.99273 0.42541 0.0
C696 C 0.31257 0.09856 0.41875 0.0
C697 C 0.29244 0.12195 0.40444 0.0
C698 C 0.30916 0.0598 0.41644 0.0
C699 C 0.28466 0.0435 0.39952 0.0
C700 C 0.26301 0.06683 0.38566 0.0
C701 C 0.26714 0.1057 0.38826 0.0
C702 C 0.33302 0.0363 0.43152 0.0
C703 C 0.23648 0.0507 0.36744 0.0
H704 H 0.32841 0.93786 0.361 0.0
H705 H 0.24317 0.92079 0.4121 0.0
H706 H 0.31993 0.03214 0.35456 0.0
H707 H 0.35397 0.02813 0.37703 0.0
H708 H 0.35324 0.99602 0.35232 0.0
H709 H 0.21773 0.97026 0.4339 0.0
H710 H 0.24908 1.00927 0.43918 0.0
H711 H 0.21453 1.01148 0.4169 0.0
H712 H 0.33153 0.11057 0.43171 0.0
H713 H 0.25153 0.12332 0.37705 0.0
H714 H 0.35301 0.02127 0.42029 0.0
H715 H 0.31575 1.01521 0.44052 0.0
H716 H 0.34879 0.05302 0.44494 0.0
H717 H 0.2522 0.03662 0.35327 0.0
H718 H 0.21938 0.07219 0.35951 0.0
H719 H 0.21786 0.02956 0.37536 0.0
C720 C 0.92223 0.2483 0.92182 0.0
C721 C 0.90857 0.28364 0.91814 0.0
C722 C 0.96059 0.24184 0.92084 0.0
C723 C 0.98582 0.2712 0.91551 0.0
C724 C 0.97194 0.30674 0.91141 0.0
C725 C 0.93371 0.31254 0.91299 0.0
C726 C 0.97419 0.20369 0.92568 0.0
C727 C 0.99743 0.33868 0.90499 0.0
C728 C 0.09037 0.27023 0.92711 0.0
C729 C 0.10403 0.26095 0.90474 0.0
C730 C 0.05185 0.27188 0.93127 0.0
C731 C 0.02643 0.26459 0.91259 0.0
C732 C 0.04015 0.25367 0.89032 0.0
C733 C 0.07846 0.25146 0.88683 0.0
C734 C 0.03837 0.28283 0.95542 0.0
C735 C 1.01448 0.24614 0.86973 0.0
H736 H 0.90298 0.22599 0.92609 0.0
H737 H 0.92327 0.3398 0.90992 0.0
H738 H 0.9882 0.19217 0.90993 0.0
H739 H 0.99493 0.20532 0.94006 0.0
H740 H 0.95136 0.18427 0.93065 0.0
H741 H 0.9823 0.36463 0.90249 0.0
H742 H 0.01854 0.34376 0.9189 0.0
H743 H 1.01237 0.33176 0.88853 0.0
H744 H 0.10969 0.27759 0.9411 0.0
H745 H 0.08848 0.24319 0.86966 0.0
H746 H 1.01594 0.26346 0.96104 0.0
H747 H 0.02663 0.31084 0.95504 0.0
H748 H 0.06095 0.28319 0.96866 0.0
H749 H 0.99304 0.22496 0.87417 0.0
H750 H 0.02941 0.23644 0.8538 0.0
H751 H 0.99993 0.27179 0.86551 0.0
C752 C 0.7318 0.06759 0.42405 0.0
C753 C 0.74539 0.09372 0.40822 0.0
C754 C 0.7361 0.02942 0.42006 0.0
C755 C 0.75423 0.01657 0.39951 0.0
C756 C 0.76957 0.04293 0.38392 0.0
C757 C 0.76515 0.08121 0.38852 0.0
C758 C 0.71942 1.00275 0.43732 0.0
C759 C 0.78884 0.03063 0.36172 0.0
C760 C 0.7776 0.91353 0.39826 0.0
C761 C 0.746 0.89744 0.38737 0.0
C762 C 0.78158 0.95239 0.40149 0.0
C763 C 0.75353 0.97577 0.39345 0.0
C764 C 0.72258 0.95959 0.38141 0.0
C765 C 0.71923 0.92089 0.37859 0.0
C766 C 0.81491 0.9683 0.41452 0.0
C767 C 0.692 0.98306 0.37236 0.0
H768 H 0.7167 0.07714 0.43935 0.0
H769 H 0.77532 0.10123 0.37609 0.0
H770 H 0.69587 0.98709 0.42897 0.0
H771 H 0.74011 0.98235 0.44247 0.0
H772 H 0.70919 0.0171 0.45341 0.0
H773 H 0.80261 0.05416 0.35273 0.0
H774 H 0.80981 1.0098 0.36563 0.0
H775 H 0.76836 0.01722 0.34951 0.0
H776 H 0.7983 0.89568 0.40523 0.0
H777 H 0.69503 0.90877 0.36984 0.0
H778 H 0.80615 0.97968 0.43183 0.0
H779 H 0.82771 0.99149 0.40474 0.0
H780 H 0.83611 0.9472 0.41741 0.0
H781 H 0.6774 0.99627 0.38736 0.0
H782 H 0.6714 0.96663 0.3617 0.0
H783 H 0.70367 1.00555 0.36151 0.0
C784 C 0.3007 0.40958 0.12096 0.0
C785 C 0.265 0.39406 0.118 0.0
C786 C 0.30632 0.44801 0.12231 0.0
C787 C 0.27544 0.47097 0.12082 0.0
C788 C 0.2397 0.45546 0.1164 0.0
C789 C 0.23496 0.41704 0.11491 0.0
C790 C 0.34483 0.46391 0.12675 0.0
C791 C 0.20615 0.47929 0.11464 0.0
C792 C 0.27403 0.56416 0.15191 0.0
C793 C 0.27692 0.58762 0.13289 0.0
C794 C 0.27524 0.5258 0.14835 0.0
C795 C 0.27978 0.51112 0.12528 0.0
C796 C 0.28496 0.53491 0.10626 0.0
C797 C 0.28337 0.57305 0.1103 0.0
C798 C 0.26959 0.50099 0.16901 0.0
C799 C 0.29026 0.52008 0.08152 0.0
H800 H 0.32387 0.39175 0.12369 0.0
H801 H 0.20743 0.40486 0.11249 0.0
H802 H 0.35106 0.48693 0.11476 0.0
H803 H 0.34665 0.47545 0.14495 0.0
H804 H 0.3663 0.44271 0.12447 0.0
H805 H 0.1807 0.46286 0.1099 0.0
H806 H 0.20146 0.49383 0.13171 0.0
H807 H 0.21077 0.50074 0.10133 0.0
H808 H 0.26909 0.57573 0.16932 0.0
H809 H 0.28623 0.59155 0.0957 0.0
H810 H 0.29181 0.48047 0.16965 0.0
H811 H 0.24289 0.48532 0.16703 0.0
H812 H 0.26926 0.51684 0.18596 0.0
H813 H 0.31203 0.49903 0.08104 0.0
H814 H 0.298 0.54231 0.0692 0.0
H815 H 0.26421 0.50626 0.0752 0.0
C816 C 0.44505 0.34611 0.5979 0.0
C817 C 0.42 0.31589 0.59647 0.0
C818 C 0.48313 0.34093 0.59566 0.0
C819 C 0.49612 0.3047 0.59196 0.0
C820 C 0.47071 0.27484 0.58771 0.0
C821 C 0.43278 0.2808 0.59005 0.0
C822 C 0.50942 0.37351 0.60008 0.0
C823 C 0.48354 0.23579 0.58368 0.0
C824 C 0.59894 0.28722 0.58701 0.0
C825 C 0.60737 0.27905 0.61028 0.0
C826 C 0.5628 0.29617 0.58064 0.0
C827 C 0.53484 0.29677 0.59797 0.0
C828 C 0.54346 0.28913 0.62154 0.0
C829 C 0.57965 0.28066 0.62739 0.0
C830 C 0.55439 0.30441 0.55541 0.0
C831 C 0.51442 0.2896 0.64063 0.0
H832 H 0.43508 0.37332 0.60261 0.0
H833 H 0.41356 0.25727 0.58909 0.0
H834 H 0.51995 0.37284 0.61835 0.0
H835 H 0.53361 0.37225 0.58816 0.0
H836 H 0.49559 0.40025 0.5978 0.0
H837 H 0.46118 0.21737 0.57619 0.0
H838 H 0.50771 0.23522 0.57173 0.0
H839 H 0.49228 0.22446 0.60066 0.0
H840 H 0.62041 0.28603 0.57378 0.0
H841 H 0.58632 0.27543 0.64553 0.0
H842 H 0.54006 0.33106 0.55433 0.0
H843 H 0.53543 0.28256 0.5479 0.0
H844 H 0.5798 0.30578 0.54449 0.0
H845 H 0.50192 0.31725 0.64197 0.0
H846 H 0.52591 0.283 0.65806 0.0
H847 H 0.49186 0.26914 0.63628 0.0
C848 C 0.79347 0.42905 0.13296 0.0
C849 C 0.75916 0.41051 0.13026 0.0
C850 C 0.79583 0.46778 0.13359 0.0
C851 C 0.7631 0.48799 0.1314 0.0
C852 C 0.72866 0.46933 0.12755 0.0
C853 C 0.72713 0.43069 0.12704 0.0
C854 C 0.83295 0.48701 0.13771 0.0
C855 C 0.69326 0.49013 0.12491 0.0
C856 C 0.7567 0.58462 0.15765 0.0
C857 C 0.76015 0.60593 0.1376 0.0
C858 C 0.75882 0.54603 0.156 0.0
C859 C 0.76443 0.52871 0.13379 0.0
C860 C 0.76909 0.55018 0.11363 0.0
C861 C 0.76712 0.58862 0.11581 0.0
C862 C 0.75393 0.52375 0.17787 0.0
C863 C 0.7751 0.53252 0.08968 0.0
H864 H 0.81811 0.41331 0.13581 0.0
H865 H 0.70066 0.41614 0.12492 0.0
H866 H 0.83818 0.50814 0.12426 0.0
H867 H 0.83298 0.50167 0.15504 0.0
H868 H 0.85604 0.46734 0.13732 0.0
H869 H 0.6691 0.47137 0.12093 0.0
H870 H 0.68751 0.50602 0.14135 0.0
H871 H 0.69616 0.51033 0.11067 0.0
H872 H 0.75137 0.59804 0.17448 0.0
H873 H 0.77082 0.60519 0.10036 0.0
H874 H 0.77739 0.5049 0.17984 0.0
H875 H 0.7283 0.50626 0.17639 0.0
H876 H 0.7521 0.54159 0.19396 0.0
H877 H 0.79906 0.51401 0.09009 0.0
H878 H 0.78007 0.55335 0.07597 0.0
H879 H 0.75045 0.51518 0.08458 0.0
C880 C 0.60896 0.7609 0.58248 0.0
C881 C 0.62242 0.72659 0.5889 0.0
C882 C 0.57099 0.76594 0.57999 0.0
C883 C 0.54617 0.73593 0.58409 0.0
C884 C 0.55977 0.70033 0.5881 0.0
C885 C 0.59793 0.69609 0.59054 0.0
C886 C 0.55745 0.80438 0.57579 0.0
C887 C 0.53401 0.66764 0.59229 0.0
C888 C 0.46093 0.76309 0.61738 0.0
C889 C 0.43444 0.76392 0.59948 0.0
C890 C 0.49722 0.75339 0.61254 0.0
C891 C 0.5071 0.7436 0.58924 0.0
C892 C 0.48026 0.74299 0.57117 0.0
C893 C 0.44406 0.75337 0.57651 0.0
C894 C 0.52513 0.75437 0.63235 0.0
C895 C 0.49 0.73228 0.54624 0.0
H896 H 0.62771 0.78471 0.58146 0.0
H897 H 0.60843 0.66947 0.59526 0.0
H898 H 0.53409 0.80351 0.56316 0.0
H899 H 0.54723 0.81657 0.59255 0.0
H900 H 0.57977 0.82293 0.56902 0.0
H901 H 0.54845 0.641 0.59031 0.0
H902 H 0.52287 0.66971 0.61039 0.0
H903 H 0.51017 0.66735 0.58002 0.0
H904 H 0.45325 0.7701 0.63529 0.0
H905 H 0.42352 0.7539 0.56267 0.0
H906 H 0.54787 0.77458 0.62859 0.0
H907 H 0.53762 0.72686 0.63394 0.0
H908 H 0.51263 0.76222 0.64949 0.0
H909 H 0.50857 0.7539 0.53881 0.0
H910 H 0.46509 0.72897 0.53488 0.0
H911 H 0.50518 0.70601 0.54571 0.0
C912 C 0.29347 0.4485 0.912 0.0
C913 C 0.28103 0.4336 0.89042 0.0
C914 C 0.29742 0.48669 0.91557 0.0
C915 C 0.28847 0.5101 0.89709 0.0
C916 C 0.2786 0.49501 0.87469 0.0
C917 C 0.27503 0.45656 0.87159 0.0
C918 C 0.30816 0.50191 0.93961 0.0
C919 C 0.26894 0.51941 0.85463 0.0
C920 C 0.24429 0.60039 0.91274 0.0
C921 C 0.27323 0.6257 0.90836 0.0
C922 C 0.24929 0.56248 0.90967 0.0
C923 C 0.28414 0.54986 0.90212 0.0
C924 C 0.31405 0.57516 0.89885 0.0
C925 C 0.3082 0.61305 0.90201 0.0
C926 C 0.21683 0.5361 0.91354 0.0
C927 C 0.35154 0.56235 0.89094 0.0
H928 H 0.29827 0.43024 0.92643 0.0
H929 H 0.26537 0.44459 0.85499 0.0
H930 H 0.32912 0.52473 0.93825 0.0
H931 H 0.28347 0.51348 0.94838 0.0
H932 H 0.31939 0.48026 0.9509 0.0
H933 H 0.26633 0.50353 0.83774 0.0
H934 H 0.24221 0.53276 0.85835 0.0
H935 H 0.29024 0.54178 0.85269 0.0
H936 H 0.21733 0.61045 0.9177 0.0
H937 H 0.33036 0.63283 0.89828 0.0
H938 H 0.22435 0.51489 0.92629 0.0
H939 H 0.20942 0.52138 0.89681 0.0
H940 H 0.19203 0.55051 0.92018 0.0
H941 H 0.36093 0.53964 0.90203 0.0
H942 H 0.37278 0.58515 0.89157 0.0
H943 H 0.34958 0.5512 0.87266 0.0
C944 C 0.57732 0.30473 0.37847 0.0
C945 C 0.60409 0.28733 0.36463 0.0
C946 C 0.54067 0.30598 0.37097 0.0
C947 C 0.53101 0.29135 0.34846 0.0
C948 C 0.55857 0.27743 0.33336 0.0
C949 C 0.59476 0.27477 0.34182 0.0
C950 C 0.51194 0.32058 0.38785 0.0
C951 C 0.54958 0.26333 0.30882 0.0
C952 C 0.43383 0.25324 0.34989 0.0
C953 C 0.41436 0.28506 0.34514 0.0
C954 C 0.47242 0.25373 0.34893 0.0
C955 C 0.49147 0.2866 0.34239 0.0
C956 C 0.47156 0.31719 0.33472 0.0
C957 C 0.43296 0.31641 0.33674 0.0
C958 C 0.49268 0.22076 0.35769 0.0
C959 C 0.49107 0.35192 0.32652 0.0
H960 H 0.58462 0.31605 0.39568 0.0
H961 H 0.61518 0.26134 0.33088 0.0
H962 H 0.49705 0.34359 0.37995 0.0
H963 H 0.49115 0.29837 0.39162 0.0
H964 H 0.52426 0.33077 0.40475 0.0
H965 H 0.57444 0.26435 0.29739 0.0
H966 H 0.53957 0.23411 0.30941 0.0
H967 H 0.52753 0.27963 0.30076 0.0
H968 H 0.41912 0.22927 0.35671 0.0
H969 H 0.41756 0.34098 0.3332 0.0
H970 H 0.50609 0.22815 0.37475 0.0
H971 H 0.51478 0.21275 0.34526 0.0
H972 H 0.47384 0.19639 0.36019 0.0
H973 H 0.50012 0.36918 0.34194 0.0
H974 H 0.47251 0.3686 0.31572 0.0
H975 H 0.51605 0.34515 0.31613 0.0
C976 C 0.70448 0.60489 0.90518 0.0
C977 C 0.73686 0.62692 0.90556 0.0
C978 C 0.70625 0.56633 0.90398 0.0
C979 C 0.74126 0.54983 0.90266 0.0
C980 C 0.77408 0.57201 0.9032 0.0
C981 C 0.77147 0.61049 0.90483 0.0
C982 C 0.67076 0.54331 0.90394 0.0
C983 C 0.8118 0.55513 0.90153 0.0
C984 C 0.74693 0.45102 0.92109 0.0
C985 C 0.74391 0.43168 0.89948 0.0
C986 C 0.7461 0.48954 0.92234 0.0
C987 C 0.74348 0.50921 0.90139 0.0
C988 C 0.74215 0.49012 0.8794 0.0
C989 C 0.74211 0.45135 0.87871 0.0
C990 C 0.74721 0.50908 0.9461 0.0
C991 C 0.74011 0.51061 0.85672 0.0
H992 H 0.67782 0.61795 0.90557 0.0
H993 H 0.79642 0.62782 0.90459 0.0
H994 H 0.66855 0.52632 0.8875 0.0
H995 H 0.67086 0.52395 0.91873 0.0
H996 H 0.64588 0.56058 0.9055 0.0
H997 H 0.83457 0.5764 0.90202 0.0
H998 H 0.81579 0.53605 0.91619 0.0
H999 H 0.8139 0.53852 0.88498 0.0
H1000 H 0.74967 0.436 0.93718 0.0
H1001 H 0.7399 0.43647 0.862 0.0
H1002 H 0.72192 0.52545 0.9486 0.0
H1003 H 0.77127 0.52875 0.94718 0.0
H1004 H 0.74911 0.48949 0.96072 0.0
H1005 H 0.71391 0.52584 0.85604 0.0
H1006 H 0.74141 0.49171 0.84109 0.0
H1007 H 0.76318 0.53139 0.8558 0.0
C1008 C 0.44426 0.74531 0.31677 0.0
C1009 C 0.43599 0.75205 0.34047 0.0
C1010 C 0.48069 0.73837 0.30973 0.0
C1011 C 0.50904 0.73847 0.32685 0.0
C1012 C 0.50058 0.74468 0.35083 0.0
C1013 C 0.46413 0.75099 0.35732 0.0
C1014 C 0.48895 0.7316 0.28408 0.0
C1015 C 0.53006 0.74507 0.36971 0.0
C1016 C 0.60125 0.69441 0.32539 0.0
C1017 C 0.62447 0.72605 0.32576 0.0
C1018 C 0.56299 0.69738 0.32263 0.0
C1019 C 0.54801 0.73283 0.32028 0.0
C1020 C 0.57175 0.76415 0.31759 0.0
C1021 C 0.60987 0.7604 0.32044 0.0
C1022 C 0.53849 0.6633 0.32531 0.0
C1023 C 0.55681 0.80243 0.31502 0.0
H1024 H 0.42244 0.7461 0.30376 0.0
H1025 H 0.4576 0.75511 0.37574 0.0
H1026 H 0.50608 0.75497 0.27742 0.0
H1027 H 0.50517 0.70617 0.28162 0.0
H1028 H 0.46334 0.72877 0.27333 0.0
H1029 H 0.51862 0.75052 0.3875 0.0
H1030 H 0.54396 0.7181 0.36972 0.0
H1031 H 0.5515 0.76674 0.36617 0.0
H1032 H 0.61266 0.66776 0.32912 0.0
H1033 H 0.62764 0.78504 0.32083 0.0
H1034 H 0.51427 0.66375 0.31338 0.0
H1035 H 0.52792 0.66255 0.34356 0.0
H1036 H 0.55385 0.63757 0.32173 0.0
H1037 H 0.53241 0.80188 0.30321 0.0
H1038 H 0.57812 0.82199 0.3081 0.0
H1039 H 0.54783 0.81316 0.33246 0.0
C1040 C 0.25029 0.17988 0.08057 0.0
C1041 C 0.28593 0.18915 0.08903 0.0
C1042 C 0.24251 0.17943 0.05634 0.0
C1043 C 0.27103 0.18846 0.04025 0.0
C1044 C 0.30773 0.19391 0.04856 0.0
C1045 C 0.31473 0.19395 0.07276 0.0
C1046 C 0.20313 0.17264 0.04821 0.0
C1047 C 0.33905 0.20406 0.03223 0.0
C1048 C 0.25902 0.19137 0.97349 0.0
C1049 C 0.25098 0.22876 0.97078 0.0
C1050 C 0.26392 0.177 0.99611 0.0
C1051 C 0.26161 0.20083 0.01623 0.0
C1052 C 0.2528 0.2383 1.01345 0.0
C1053 C 0.24719 0.25149 0.99098 0.0
C1054 C 0.27222 0.13664 0.99851 0.0
C1055 C 0.25071 0.26516 0.03419 0.0
H1056 H 0.22806 0.17478 0.09288 0.0
H1057 H 0.34253 0.20067 0.07893 0.0
H1058 H 0.19021 0.19954 0.045 0.0
H1059 H 0.20223 0.15624 0.0315 0.0
H1060 H 0.18629 0.15797 0.06154 0.0
H1061 H 0.36653 0.2014 0.04067 0.0
H1062 H 0.33807 0.18642 0.01605 0.0
H1063 H 0.3363 0.2332 0.02694 0.0
H1064 H 0.26188 0.17357 0.95805 0.0
H1065 H 0.24087 0.28043 0.98935 0.0
H1066 H 0.25356 0.12397 1.01169 0.0
H1067 H 0.30097 0.13384 1.00488 0.0
H1068 H 0.26905 0.12093 0.9816 0.0
H1069 H 0.22968 0.2553 0.04689 0.0
H1070 H 0.24349 0.29345 0.02895 0.0
H1071 H 0.27774 0.26697 0.04345 0.0
C1072 C 0.82501 0.2521 0.47932 0.0
C1073 C 0.79652 0.22632 0.47371 0.0
C1074 C 0.83682 0.25767 0.50277 0.0
C1075 C 0.81945 0.23719 0.52081 0.0
C1076 C 0.79272 0.2092 0.51478 0.0
C1077 C 0.78179 0.20407 0.49134 0.0
C1078 C 0.86584 0.28732 0.5084 0.0
C1079 C 0.77323 0.18672 0.53328 0.0
C1080 C 0.84954 0.2308 0.58441 0.0
C1081 C 0.82454 0.25435 0.59574 0.0
C1082 C 0.85056 0.22727 0.55977 0.0
C1083 C 0.82557 0.24722 0.54612 0.0
C1084 C 0.80223 0.27303 0.55737 0.0
C1085 C 0.80241 0.27663 0.58195 0.0
C1086 C 0.87655 0.20021 0.54844 0.0
C1087 C 0.77484 0.29472 0.54361 0.0
H1088 H 0.83599 0.26982 0.46579 0.0
H1089 H 0.75961 0.18425 0.48699 0.0
H1090 H 0.85222 0.31239 0.51544 0.0
H1091 H 0.88523 0.27807 0.52202 0.0
H1092 H 0.88189 0.2951 0.49258 0.0
H1093 H 0.755 0.16438 0.52553 0.0
H1094 H 0.79367 0.17401 0.5449 0.0
H1095 H 0.75604 0.2051 0.54441 0.0
H1096 H 0.867 0.21359 0.59477 0.0
H1097 H 0.78357 0.2955 0.59036 0.0
H1098 H 0.88944 0.21203 0.53254 0.0
H1099 H 0.86079 0.17473 0.54288 0.0
H1100 H 0.89877 0.19237 0.56068 0.0
H1101 H 0.78882 0.30864 0.52882 0.0
H1102 H 0.76099 0.31594 0.55468 0.0
H1103 H 0.75327 0.27552 0.53602 0.0
C1104 C 0.76746 0.81054 0.96128 0.0
C1105 C 0.78157 0.83966 0.94778 0.0
C1106 C 0.76843 0.81238 0.98589 0.0
C1107 C 0.78298 0.84462 0.99757 0.0
C1108 C 0.79699 0.87431 0.98416 0.0
C1109 C 0.79634 0.8714 0.95945 0.0
C1110 C 0.7534 0.77981 0.99939 0.0
C1111 C 0.81211 0.90936 0.99593 0.0
C1112 C 0.74491 0.85151 0.0594 0.0
C1113 C 0.77273 0.83496 0.07224 0.0
C1114 C 0.74935 0.85822 0.03538 0.0
C1115 C 0.78209 0.8472 0.02381 0.0
C1116 C 0.8115 0.83327 0.03717 0.0
C1117 C 0.80651 0.82749 0.06131 0.0
C1118 C 0.71741 0.87354 0.022 0.0
C1119 C 0.84665 0.82063 0.02559 0.0
H1120 H 0.7551 0.78624 0.95268 0.0
H1121 H 0.80705 0.89421 0.94928 0.0
H1122 H 0.77461 0.77041 1.01182 0.0
H1123 H 0.72908 0.78823 1.00989 0.0
H1124 H 0.74488 0.75604 0.98769 0.0
H1125 H 0.82286 0.92958 0.9831 0.0
H1126 H 0.79004 0.92251 1.00648 0.0
H1127 H 0.83473 0.90286 1.00819 0.0
H1128 H 0.71838 0.85624 0.06767 0.0
H1129 H 0.82753 0.81341 0.07101 0.0
H1130 H 0.70312 0.85079 1.01184 0.0
H1131 H 0.72741 0.89432 1.00933 0.0
H1132 H 0.69692 0.88657 0.03389 0.0
H1133 H 0.84096 0.79409 1.01587 0.0
H1134 H 0.86889 0.81624 0.0386 0.0
H1135 H 0.85677 0.84102 1.01272 0.0
C1136 C 0.22121 0.76667 0.46067 0.0
C1137 C 0.25115 0.78957 0.45406 0.0
C1138 C 0.21007 0.76521 0.4844 0.0
C1139 C 0.22941 0.78705 0.50173 0.0
C1140 C 0.25838 0.81148 0.49477 0.0
C1141 C 0.2687 0.81248 0.47114 0.0
C1142 C 0.1788 0.73911 0.49106 0.0
C1143 C 0.27987 0.83538 0.51246 0.0
C1144 C 0.19772 0.81065 0.56375 0.0
C1145 C 0.22005 0.7879 0.5771 0.0
C1146 C 0.19799 0.80848 0.53905 0.0
C1147 C 0.22151 0.78335 0.52733 0.0
C1148 C 0.24203 0.75851 0.54069 0.0
C1149 C 0.24071 0.76082 0.56533 0.0
C1150 C 0.17514 0.83499 0.52552 0.0
C1151 C 0.26766 0.73135 0.52904 0.0
H1152 H 0.20776 0.74865 0.44759 0.0
H1153 H 0.29167 0.83049 0.46612 0.0
H1154 H 0.19016 0.71519 0.5002 0.0
H1155 H 0.15955 0.75302 0.50337 0.0
H1156 H 0.16298 0.7285 0.47548 0.0
H1157 H 0.30069 0.8539 0.50404 0.0
H1158 H 0.26077 0.85269 0.52293 0.0
H1159 H 0.29447 0.81757 0.52483 0.0
H1160 H 0.18141 0.83155 0.57252 0.0
H1161 H 0.25736 0.74246 0.57533 0.0
H1162 H 0.16127 0.82052 0.51039 0.0
H1163 H 0.19349 0.85711 0.51844 0.0
H1164 H 0.1538 0.84816 0.53671 0.0
H1165 H 0.25318 0.71576 0.51459 0.0
H1166 H 0.27856 0.71133 0.5416 0.0
H1167 H 0.29145 0.74666 0.52122 0.0
C1168 C 0.27703 0.80941 0.96175 0.0
C1169 C 0.26444 0.84023 0.94986 0.0
C1170 C 0.27784 0.80881 0.98637 0.0
C1171 C 0.26642 0.8401 0.99968 0.0
C1172 C 0.25585 0.87215 0.98784 0.0
C1173 C 0.25458 0.87171 0.96311 0.0
C1174 C 0.28883 0.77373 0.9981 0.0
C1175 C 0.24426 0.90635 1.0013 0.0
C1176 C 0.2254 0.81301 0.05812 0.0
C1177 C 0.25622 0.8161 0.07303 0.0
C1178 C 0.22765 0.82326 0.0346 0.0
C1179 C 0.26164 0.83729 0.02568 0.0
C1180 C 0.29194 0.84373 0.04125 0.0
C1181 C 0.28898 0.83278 0.06479 0.0
C1182 C 0.19465 0.81544 0.01879 0.0
C1183 C 0.32847 0.85917 0.0326 0.0
H1184 H 0.28447 0.7848 0.9519 0.0
H1185 H 0.24489 0.89572 0.95418 0.0
H1186 H 0.31084 0.77988 1.01129 0.0
H1187 H 0.26466 0.76172 1.00752 0.0
H1188 H 0.29895 0.75258 0.98535 0.0
H1189 H 0.24256 0.93065 0.98985 0.0
H1190 H 0.21667 0.90122 1.00927 0.0
H1191 H 0.264 0.91312 1.0158 0.0
H1192 H 0.2003 0.79938 0.06434 0.0
H1193 H 0.31319 0.83422 0.07604 0.0
H1194 H 0.20075 0.7921 1.00649 0.0
H1195 H 0.18891 0.83981 1.00809 0.0
H1196 H 0.16932 0.808 0.02883 0.0
H1197 H 0.34321 0.83719 0.02277 0.0
H1198 H 0.34646 0.86937 0.04732 0.0
H1199 H 0.32415 0.88215 0.02044 0.0
C1200 C 0.26979 0.2856 0.48698 0.0
C1201 C 0.24719 0.26991 0.46913 0.0
C1202 C 0.25957 0.28425 0.51055 0.0
C1203 C 0.22567 0.26665 0.51673 0.0
C1204 C 0.2027 0.25022 0.49893 0.0
C1205 C 0.2137 0.25212 0.47521 0.0
C1206 C 0.28499 0.30249 0.52879 0.0
C1207 C 0.16665 0.23082 0.50498 0.0
C1208 C 0.2296 0.25251 0.58194 0.0
C1209 C 0.21703 0.28688 0.5901 0.0
C1210 C 0.22843 0.24298 0.55785 0.0
C1211 C 0.21409 0.26829 0.54181 0.0
C1212 C 0.19667 0.30043 0.55048 0.0
C1213 C 0.19832 0.30927 0.57453 0.0
C1214 C 0.24674 0.2081 0.5494 0.0
C1215 C 0.18088 0.32822 0.53416 0.0
H1216 H 0.29573 0.29945 0.48259 0.0
H1217 H 0.19624 0.23971 0.46153 0.0
H1218 H 0.27047 0.32509 0.53818 0.0
H1219 H 0.29289 0.28213 0.542 0.0
H1220 H 0.31072 0.31435 0.52101 0.0
H1221 H 0.15201 0.21928 0.48919 0.0
H1222 H 0.1719 0.20797 0.51707 0.0
H1223 H 0.14822 0.2503 0.51431 0.0
H1224 H 0.24376 0.23479 0.59388 0.0
H1225 H 0.18794 0.33559 0.5808 0.0
H1226 H 0.27544 0.21498 0.54379 0.0
H1227 H 0.23182 0.19535 0.5341 0.0
H1228 H 0.24808 0.18754 0.56351 0.0
H1229 H 0.20389 0.34476 0.5264 0.0
H1230 H 0.16222 0.34753 0.54352 0.0
H1231 H 0.16535 0.31419 0.51955 0.0
C1232 C 0.73168 0.19552 0.08245 0.0
C1233 C 0.76201 0.19132 0.09733 0.0
C1234 C 0.73628 0.19692 0.05805 0.0
C1235 C 0.77185 0.19198 0.04817 0.0
C1236 C 0.80207 0.18477 0.06312 0.0
C1237 C 0.79704 0.18578 0.08763 0.0
C1238 C 0.70355 0.20645 0.04307 0.0
C1239 C 0.84005 0.17754 0.05337 0.0
C1240 C 0.7675 0.18599 0.98123 0.0
C1241 C 0.77518 0.22299 0.97593 0.0
C1242 C 0.76941 0.17435 1.00468 0.0
C1243 C 0.7781 0.20062 0.02298 0.0
C1244 C 0.7885 0.23726 0.01723 0.0
C1245 C 0.7876 0.24764 0.99382 0.0
C1246 C 0.75997 0.13459 1.00997 0.0
C1247 C 0.79726 0.26661 0.03594 0.0
H1248 H 0.7046 0.19994 0.09 0.0
H1249 H 0.8205 0.18252 0.09918 0.0
H1250 H 0.70922 0.23322 0.03447 0.0
H1251 H 0.69898 0.18513 0.02899 0.0
H1252 H 0.67766 0.20878 0.05344 0.0
H1253 H 0.85683 0.16182 0.06583 0.0
H1254 H 0.83823 0.16183 0.03641 0.0
H1255 H 0.85483 0.20422 0.05027 0.0
H1256 H 0.75781 0.16688 0.96747 0.0
H1257 H 0.79407 0.27622 0.98968 0.0
H1258 H 0.73072 0.13215 1.01571 0.0
H1259 H 0.77761 0.12474 0.02435 0.0
H1260 H 0.76338 0.11624 0.99424 0.0
H1261 H 0.77277 0.27044 0.0474 0.0
H1262 H 0.80511 0.29376 0.02841 0.0
H1263 H 0.82029 0.25794 0.04719 0.0
C1264 C 0.82431 0.77405 0.45835 0.0
C1265 C 0.79014 0.75738 0.45193 0.0
C1266 C 0.83475 0.778 0.48224 0.0
C1267 C 0.81063 0.76465 0.49997 0.0
C1268 C 0.77605 0.74823 0.49344 0.0
C1269 C 0.76635 0.74492 0.46972 0.0
C1270 C 0.87167 0.79599 0.48852 0.0
C1271 C 0.74935 0.73323 0.51152 0.0
C1272 C 0.83682 0.72753 0.55872 0.0
C1273 C 0.82042 0.75303 0.5742 0.0
C1274 C 0.83761 0.73301 0.53446 0.0
C1275 C 0.82164 0.76493 0.5253 0.0
C1276 C 0.80897 0.79285 0.54107 0.0
C1277 C 0.8086 0.78664 0.56542 0.0
C1278 C 0.85139 0.70237 0.51854 0.0
C1279 C 0.79214 0.82751 0.53213 0.0
H1280 H 0.84281 0.78393 0.44479 0.0
H1281 H 0.73984 0.73197 0.46516 0.0
H1282 H 0.86819 0.81773 0.50237 0.0
H1283 H 0.89015 0.77507 0.49571 0.0
H1284 H 0.88541 0.80857 0.47312 0.0
H1285 H 0.72317 0.72209 0.50355 0.0
H1286 H 0.76237 0.71073 0.52119 0.0
H1287 H 0.74245 0.75531 0.52453 0.0
H1288 H 0.84626 0.7016 0.56541 0.0
H1289 H 0.79589 0.80655 0.5772 0.0
H1290 H 0.86793 0.71377 0.5039 0.0
H1291 H 0.82735 0.6867 0.51077 0.0
H1292 H 0.86855 0.68272 0.52816 0.0
H1293 H 0.80779 0.83805 0.51685 0.0
H1294 H 0.79135 0.84964 0.54598 0.0
H1295 H 0.76334 0.82111 0.52626 0.0
C1296 C 0.58527 0.21684 0.17275 0.0
C1297 C 0.60012 0.24114 0.15617 0.0
C1298 C 0.54667 0.21461 0.17706 0.0
C1299 C 0.52234 0.23756 0.16477 0.0
C1300 C 0.5375 0.26276 0.14851 0.0
C1301 C 0.57587 0.26417 0.14444 0.0
C1302 C 0.53182 0.1873 0.19449 0.0
C1303 C 0.51313 0.28837 0.13527 0.0
C1304 C 0.41801 0.218 0.15704 0.0
C1305 C 0.40294 0.24334 0.17324 0.0
C1306 C 0.45678 0.21435 0.15489 0.0
C1307 C 0.48122 0.23654 0.16924 0.0
C1308 C 0.46599 0.26073 0.18638 0.0
C1309 C 0.42733 0.26368 0.1882 0.0
C1310 C 0.47164 0.18807 0.13644 0.0
C1311 C 0.49057 0.28512 0.20203 0.0
H1312 H 0.60369 0.19886 0.18181 0.0
H1313 H 0.58704 0.28359 0.13197 0.0
H1314 H 0.51633 0.20196 0.20853 0.0
H1315 H 0.51206 0.1675 0.18562 0.0
H1316 H 0.55414 0.17149 0.20267 0.0
H1317 H 0.52918 0.30635 0.12322 0.0
H1318 H 0.49226 0.272 0.12485 0.0
H1319 H 0.49787 0.30629 0.14781 0.0
H1320 H 0.39963 0.20236 0.14524 0.0
H1321 H 0.41611 0.28292 0.20101 0.0
H1322 H 0.49307 0.17057 0.14409 0.0
H1323 H 0.48504 0.20409 0.12228 0.0
H1324 H 0.44951 0.16984 0.12853 0.0
H1325 H 0.51175 0.26845 0.21064 0.0
H1326 H 0.47464 0.30001 0.2158 0.0
H1327 H 0.50546 0.30589 0.19129 0.0
C1328 C 0.75335 0.4298 0.68242 0.0
C1329 C 0.75971 0.40315 0.66455 0.0
C1330 C 0.75794 0.46798 0.67868 0.0
C1331 C 0.7698 0.48054 0.65653 0.0
C1332 C 0.77683 0.45397 0.63841 0.0
C1333 C 0.77164 0.41573 0.64258 0.0
C1334 C 0.75018 0.49497 0.69861 0.0
C1335 C 0.7899 0.46601 0.6146 0.0
C1336 C 0.75344 0.58236 0.6428 0.0
C1337 C 0.78782 0.59953 0.64856 0.0
C1338 C 0.7473 0.54377 0.64494 0.0
C1339 C 0.77621 0.52137 0.65284 0.0
C1340 C 0.81094 0.53839 0.65846 0.0
C1341 C 0.81618 0.57692 0.65643 0.0
C1342 C 0.70969 0.52697 0.63896 0.0
C1343 C 0.84266 0.51591 0.66697 0.0
H1344 H 0.74498 0.42089 0.69963 0.0
H1345 H 0.77648 0.39581 0.62851 0.0
H1346 H 0.77575 0.51116 0.70327 0.0
H1347 H 0.72925 0.51491 0.69313 0.0
H1348 H 0.7399 0.48093 0.71453 0.0
H1349 H 0.79401 0.44219 0.60228 0.0
H1350 H 0.76948 0.48457 0.60687 0.0
H1351 H 0.81641 0.48204 0.61638 0.0
H1352 H 0.7312 0.59892 0.63649 0.0
H1353 H 0.84269 0.58922 0.66142 0.0
H1354 H 0.69748 0.51397 0.65469 0.0
H1355 H 0.71238 0.5048 0.62531 0.0
H1356 H 0.6903 0.54778 0.63254 0.0
H1357 H 0.83526 0.50326 0.68391 0.0
H1358 H 0.86852 0.53287 0.66947 0.0
H1359 H 0.84816 0.49299 0.65426 0.0
C1360 C 0.60059 0.77634 0.11201 0.0
C1361 C 0.61567 0.78346 0.13442 0.0
C1362 C 0.56189 0.77284 0.1086 0.0
C1363 C 0.53758 0.77579 0.12809 0.0
C1364 C 0.55283 0.78242 0.15075 0.0
C1365 C 0.59143 0.78637 0.15358 0.0
C1366 C 0.54694 0.76611 0.0841 0.0
C1367 C 0.52836 0.78483 0.17216 0.0
C1368 C 0.43409 0.79358 0.11937 0.0
C1369 C 0.41867 0.75758 0.11964 0.0
C1370 C 0.47273 0.80001 0.12182 0.0
C1371 C 0.49645 0.76982 0.1251 0.0
C1372 C 0.48071 0.73361 0.12607 0.0
C1373 C 0.44231 0.72799 0.12324 0.0
C1374 C 0.48829 0.83902 0.12051 0.0
C1375 C 0.50446 0.70063 0.1301 0.0
H1376 H 0.61902 0.77435 0.09709 0.0
H1377 H 0.6028 0.79129 0.171 0.0
H1378 H 0.53183 0.73901 0.08298 0.0
H1379 H 0.52687 0.78767 0.07989 0.0
H1380 H 0.56918 0.76626 0.07067 0.0
H1381 H 0.54444 0.79064 0.18851 0.0
H1382 H 0.50804 0.80697 0.17012 0.0
H1383 H 0.51243 0.75842 0.17406 0.0
H1384 H 0.41607 0.81651 0.11653 0.0
H1385 H 0.43058 0.70016 0.12393 0.0
H1386 H 0.50863 0.84075 0.10598 0.0
H1387 H 0.50327 0.84679 0.13696 0.0
H1388 H 0.46642 0.85942 0.11763 0.0
H1389 H 0.52515 0.69799 0.11584 0.0
H1390 H 0.48791 0.67434 0.1308 0.0
H1391 H 0.51998 0.70457 0.14681 0.0
C1392 C 0.24 0.47413 0.66903 0.0
C1393 C 0.25953 0.44977 0.65431 0.0
C1394 C 0.24432 0.5128 0.66748 0.0
C1395 C 0.26879 0.52813 0.65068 0.0
C1396 C 0.28862 0.50379 0.63567 0.0
C1397 C 0.28395 0.465 0.63773 0.0
C1398 C 0.2231 0.5373 0.68422 0.0
C1399 C 0.31486 0.51877 0.61744 0.0
C1400 C 0.25707 0.63134 0.63828 0.0
C1401 C 0.28415 0.64832 0.65298 0.0
C1402 C 0.2525 0.59229 0.63667 0.0
C1403 C 0.27534 0.56948 0.65015 0.0
C1404 C 0.30335 0.58646 0.66439 0.0
C1405 C 0.30763 0.62525 0.66541 0.0
C1406 C 0.22258 0.57542 0.621 0.0
C1407 C 0.32829 0.56366 0.67923 0.0
H1408 H 0.2216 0.4629 0.68218 0.0
H1409 H 0.29898 0.44663 0.62612 0.0
H1410 H 0.24272 0.55398 0.69541 0.0
H1411 H 0.20641 0.55691 0.6743 0.0
H1412 H 0.20429 0.52118 0.69577 0.0
H1413 H 0.32689 0.49645 0.60634 0.0
H1414 H 0.30021 0.53793 0.60596 0.0
H1415 H 0.33777 0.53492 0.62612 0.0
H1416 H 0.23878 0.6485 0.62851 0.0
H1417 H 0.3295 0.63746 0.67625 0.0
H1418 H 0.20106 0.56167 0.63185 0.0
H1419 H 0.23426 0.55386 0.60918 0.0
H1420 H 0.2092 0.59641 0.61018 0.0
H1421 H 0.31146 0.54814 0.69216 0.0
H1422 H 0.34943 0.58092 0.68891 0.0
H1423 H 0.34266 0.543 0.66808 0.0
C1424 C 0.58342 0.77179 0.88566 0.0
C1425 C 0.60039 0.80725 0.88545 0.0
C1426 C 0.54454 0.76688 0.88386 0.0
C1427 C 0.52183 0.79807 0.88172 0.0
C1428 C 0.53884 0.83379 0.88139 0.0
C1429 C 0.5776 0.83788 0.88317 0.0
C1430 C 0.52771 0.72825 0.88419 0.0
C1431 C 0.5161 0.86789 0.8789 0.0
C1432 C 0.42659 0.78632 0.85285 0.0
C1433 C 0.40226 0.78676 0.87208 0.0
C1434 C 0.46522 0.78951 0.85579 0.0
C1435 C 0.48053 0.79349 0.87861 0.0
C1436 C 0.45624 0.79446 0.89819 0.0
C1437 C 0.41748 0.79116 0.89471 0.0
C1438 C 0.4897 0.78871 0.83435 0.0
C1439 C 0.47127 0.79879 0.92282 0.0
H1440 H 0.60045 0.74787 0.88757 0.0
H1441 H 0.59006 0.86536 0.88243 0.0
H1442 H 0.5072 0.72619 0.89859 0.0
H1443 H 0.51267 0.72205 0.86752 0.0
H1444 H 0.54885 0.70692 0.88654 0.0
H1445 H 0.53332 0.8938 0.87972 0.0
H1446 H 0.5011 0.8665 0.8619 0.0
H1447 H 0.49499 0.86923 0.89298 0.0
H1448 H 0.41538 0.7837 0.83526 0.0
H1449 H 0.39919 0.79127 0.90974 0.0
H1450 H 0.50955 0.76597 0.83551 0.0
H1451 H 0.50615 0.81498 0.83344 0.0
H1452 H 0.47359 0.78478 0.81783 0.0
H1453 H 0.49027 0.77601 0.92641 0.0
H1454 H 0.44898 0.79871 0.93622 0.0
H1455 H 0.48762 0.82512 0.92471 0.0
C1456 C 0.22816 0.44749 0.41013 0.0
C1457 C 0.25326 0.4234 0.39931 0.0
C1458 C 0.23332 0.48622 0.40967 0.0
C1459 C 0.2645 0.50185 0.39814 0.0
C1460 C 0.29001 0.4778 0.38713 0.0
C1461 C 0.28417 0.43901 0.38788 0.0
C1462 C 0.20558 0.51045 0.42194 0.0
C1463 C 0.32373 0.49311 0.37472 0.0
C1464 C 0.26454 0.60497 0.38285 0.0
C1465 C 0.28548 0.62135 0.40133 0.0
C1466 C 0.25742 0.56624 0.38152 0.0
C1467 C 0.27158 0.54314 0.39902 0.0
C1468 C 0.29213 0.55965 0.41785 0.0
C1469 C 0.29852 0.59821 0.41884 0.0
C1470 C 0.23502 0.54992 0.36127 0.0
C1471 C 0.30762 0.53652 0.43704 0.0
H1472 H 0.20457 0.43607 0.41941 0.0
H1473 H 0.30364 0.42094 0.37927 0.0
H1474 H 0.21927 0.52637 0.43655 0.0
H1475 H 0.19474 0.53077 0.4096 0.0
H1476 H 0.18189 0.49418 0.42915 0.0
H1477 H 0.34023 0.47101 0.36626 0.0
H1478 H 0.31528 0.51262 0.36113 0.0
H1479 H 0.34168 0.50895 0.38742 0.0
H1480 H 0.25435 0.62225 0.36916 0.0
H1481 H 0.31385 0.61026 0.43358 0.0
H1482 H 0.2105 0.53439 0.36795 0.0
H1483 H 0.25186 0.52992 0.35112 0.0
H1484 H 0.22547 0.57141 0.34926 0.0
H1485 H 0.28484 0.5213 0.44597 0.0
H1486 H 0.32332 0.55347 0.4504 0.0
H1487 H 0.3263 0.51558 0.42938 0.0
C1488 C 0.43245 0.29421 0.9062 0.0
C1489 C 0.4089 0.27036 0.91872 0.0
C1490 C 0.47069 0.28838 0.90456 0.0
C1491 C 0.48624 0.25829 0.91616 0.0
C1492 C 0.46245 0.23367 0.92853 0.0
C1493 C 0.42398 0.23976 0.92943 0.0
C1494 C 0.49453 0.31486 0.89068 0.0
C1495 C 0.47783 0.20159 0.94144 0.0
C1496 C 0.58168 0.22656 0.89644 0.0
C1497 C 0.60544 0.2451 0.91259 0.0
C1498 C 0.54305 0.23047 0.89745 0.0
C1499 C 0.52737 0.25298 0.91535 0.0
C1500 C 0.55122 0.27166 0.93182 0.0
C1501 C 0.58991 0.26784 0.93009 0.0
C1502 C 0.51902 0.21087 0.87911 0.0
C1503 C 0.53583 0.29555 0.95138 0.0
H1504 H 0.42076 0.31781 0.89782 0.0
H1505 H 0.40589 0.22157 0.93931 0.0
H1506 H 0.51466 0.32967 0.9025 0.0
H1507 H 0.51068 0.29937 0.87732 0.0
H1508 H 0.47794 0.33569 0.88167 0.0
H1509 H 0.45579 0.18472 0.95 0.0
H1510 H 0.49333 0.18346 0.92918 0.0
H1511 H 0.49766 0.2121 0.95508 0.0
H1512 H 0.59347 0.20937 0.88269 0.0
H1513 H 0.60801 0.28198 0.94276 0.0
H1514 H 0.50334 0.23143 0.86929 0.0
H1515 H 0.49847 0.19227 0.88762 0.0
H1516 H 0.5354 0.19423 0.86642 0.0
H1517 H 0.52108 0.31908 0.94395 0.0
H1518 H 0.55778 0.30675 0.96345 0.0
H1519 H 0.51537 0.27929 0.96167 0.0
C1520 C 0.74899 0.42561 0.41796 0.0
C1521 C 0.76537 0.39907 0.4031 0.0
C1522 C 0.75091 0.46362 0.41327 0.0
C1523 C 0.76945 0.47605 0.39296 0.0
C1524 C 0.78432 0.44929 0.37711 0.0
C1525 C 0.78205 0.41113 0.38233 0.0
C1526 C 0.73459 0.49064 0.43078 0.0
C1527 C 0.80415 0.46114 0.35519 0.0
C1528 C 0.75477 0.5774 0.37684 0.0
C1529 C 0.78614 0.59557 0.38682 0.0
C1530 C 0.74941 0.53853 0.37805 0.0
C1531 C 0.77584 0.51705 0.38965 0.0
C1532 C 0.80745 0.53529 0.39971 0.0
C1533 C 0.81213 0.57396 0.3982 0.0
C1534 C 0.7153 0.52042 0.36707 0.0
C1535 C 0.8362 0.51401 0.41257 0.0
H1536 H 0.73537 0.41662 0.43382 0.0
H1537 H 0.79483 0.39097 0.37076 0.0
H1538 H 0.75708 0.50797 0.43902 0.0
H1539 H 0.71581 0.50952 0.42183 0.0
H1540 H 0.71891 0.47649 0.44487 0.0
H1541 H 0.81069 0.43722 0.34345 0.0
H1542 H 0.78708 0.48059 0.34538 0.0
H1543 H 0.83039 0.47605 0.36004 0.0
H1544 H 0.73457 0.59348 0.36784 0.0
H1545 H 0.83609 0.58737 0.40644 0.0
H1546 H 0.69801 0.5074 0.38083 0.0
H1547 H 0.7233 0.49807 0.35454 0.0
H1548 H 0.69828 0.54046 0.35768 0.0
H1549 H 0.82349 0.501 0.42814 0.0
H1550 H 0.86002 0.53192 0.41852 0.0
H1551 H 0.84671 0.49143 0.40108 0.0
C1552 C 0.21214 0.26978 0.31644 0.0
C1553 C 0.22168 0.24985 0.33622 0.0
C1554 C 0.21311 0.25365 0.29389 0.0
C1555 C 0.22308 0.21619 0.29093 0.0
C1556 C 0.22919 0.19479 0.31098 0.0
C1557 C 0.22858 0.21193 0.33347 0.0
C1558 C 0.20631 0.27775 0.27311 0.0
C1559 C 0.23885 0.15455 0.3087 0.0
C1560 C 0.20626 0.18846 0.22751 0.0
C1561 C 0.24045 0.19858 0.21773 0.0
C1562 C 0.20122 0.18924 0.25198 0.0
C1563 C 0.23081 0.20156 0.26677 0.0
C1564 C 0.26641 0.2078 0.25697 0.0
C1565 C 0.27079 0.20605 0.23252 0.0
C1566 C 0.16316 0.18119 0.26171 0.0
C1567 C 0.29876 0.22125 0.27195 0.0
H1568 H 0.20634 0.29896 0.31843 0.0
H1569 H 0.23604 0.19622 0.34862 0.0
H1570 H 0.23204 0.28057 0.26261 0.0
H1571 H 0.18469 0.26486 0.26153 0.0
H1572 H 0.19745 0.3059 0.2785 0.0
H1573 H 0.23351 0.13981 0.32527 0.0
H1574 H 0.2229 0.14036 0.29429 0.0
H1575 H 0.26869 0.15243 0.30448 0.0
H1576 H 0.18256 0.1836 0.21606 0.0
H1577 H 0.29697 0.21486 0.22489 0.0
H1578 H 0.1488 0.20759 0.26487 0.0
H1579 H 0.1649 0.16705 0.27871 0.0
H1580 H 0.14613 0.16373 0.2493 0.0
H1581 H 0.29458 0.25043 0.27765 0.0
H1582 H 0.32539 0.21992 0.26229 0.0
H1583 H 0.3008 0.20468 0.28796 0.0
C1584 C 0.8003 0.24 0.83622 0.0
C1585 C 0.76264 0.24275 0.84183 0.0
C1586 C 0.81197 0.23701 0.81257 0.0
C1587 C 0.7854 0.23706 0.79421 0.0
C1588 C 0.74738 0.23885 0.79996 0.0
C1589 C 0.7366 0.24142 0.82352 0.0
C1590 C 0.85269 0.23471 0.80719 0.0
C1591 C 0.71785 0.23893 0.78117 0.0
C1592 C 0.80022 0.26691 0.73142 0.0
C1593 C 0.79502 0.23311 0.71916 0.0
C1594 C 0.80084 0.26847 0.75615 0.0
C1595 C 0.79638 0.23537 0.76885 0.0
C1596 C 0.79499 0.20096 0.75638 0.0
C1597 C 0.7938 0.2003 0.73172 0.0
C1598 C 0.80198 0.30582 0.76858 0.0
C1599 C 0.79063 0.16495 0.76901 0.0
H1600 H 0.82068 0.24137 0.8502 0.0
H1601 H 0.7074 0.24328 0.82758 0.0
H1602 H 0.85771 0.21103 0.79495 0.0
H1603 H 0.86228 0.26019 0.79834 0.0
H1604 H 0.86955 0.23157 0.82327 0.0
H1605 H 0.68953 0.24071 0.7886 0.0
H1606 H 0.72269 0.26275 0.76957 0.0
H1607 H 0.71908 0.21335 0.77008 0.0
H1608 H 0.79995 0.2924 0.7218 0.0
H1609 H 0.78885 0.17419 0.72229 0.0
H1610 H 0.82041 0.30568 0.78413 0.0
H1611 H 0.77379 0.31236 0.77487 0.0
H1612 H 0.8116 0.32814 0.75683 0.0
H1613 H 0.80877 0.16493 0.78471 0.0
H1614 H 0.79719 0.14083 0.75744 0.0
H1615 H 0.76161 0.16147 0.77507 0.0
C1616 C 0.83526 0.821 0.2087 0.0
C1617 C 0.80518 0.80515 0.19613 0.0
C1618 C 0.83979 0.81487 0.23286 0.0
C1619 C 0.81313 0.7931 0.24495 0.0
C1620 C 0.78213 0.77791 0.23244 0.0
C1621 C 0.77881 0.78368 0.20821 0.0
C1622 C 0.87372 0.83074 0.24529 0.0
C1623 C 0.75259 0.75513 0.2446 0.0
C1624 C 0.83438 0.73941 0.29968 0.0
C1625 C 0.81815 0.76094 0.31753 0.0
C1626 C 0.83515 0.7508 0.2763 0.0
C1627 C 0.81844 0.78426 0.27031 0.0
C1628 C 0.8042 0.80739 0.28846 0.0
C1629 C 0.80496 0.79583 0.31193 0.0
C1630 C 0.8518 0.72574 0.25779 0.0
C1631 C 0.7855 0.84294 0.28291 0.0
H1632 H 0.85593 0.83731 0.19949 0.0
H1633 H 0.75534 0.77146 0.1987 0.0
H1634 H 0.8656 0.84755 0.2609 0.0
H1635 H 0.89067 0.80788 0.25163 0.0
H1636 H 0.89111 0.84829 0.23372 0.0
H1637 H 0.72885 0.74769 0.23286 0.0
H1638 H 0.76451 0.72923 0.2509 0.0
H1639 H 0.74214 0.77058 0.26019 0.0
H1640 H 0.84488 0.71253 0.30383 0.0
H1641 H 0.79246 0.81282 0.32553 0.0
H1642 H 0.87017 0.74188 0.24603 0.0
H1643 H 0.82942 0.71272 0.24682 0.0
H1644 H 0.86797 0.70342 0.26558 0.0
H1645 H 0.80274 0.85971 0.27087 0.0
H1646 H 0.77974 0.85985 0.29897 0.0
H1647 H 0.75886 0.83634 0.27383 0.0
C1648 C 0.26542 0.83649 0.81202 0.0
C1649 C 0.23252 0.83419 0.82487 0.0
C1650 C 0.26473 0.83917 0.78746 0.0
C1651 C 0.23025 0.84004 0.77559 0.0
C1652 C 0.19713 0.84104 0.78879 0.0
C1653 C 0.19865 0.83753 0.81326 0.0
C1654 C 0.30074 0.83757 0.77411 0.0
C1655 C 0.15989 0.84268 0.77695 0.0
C1656 C 0.23853 0.86299 0.71113 0.0
C1657 C 0.23871 0.82763 0.70051 0.0
C1658 C 0.23309 0.86768 0.7354 0.0
C1659 C 0.22891 0.83615 0.74945 0.0
C1660 C 0.22686 0.8004 0.73854 0.0
C1661 C 0.23158 0.79662 0.71412 0.0
C1662 C 0.23466 0.90624 0.74616 0.0
C1663 C 0.22286 0.76596 0.75284 0.0
H1664 H 0.29151 0.83242 0.82088 0.0
H1665 H 0.17315 0.83447 0.82312 0.0
H1666 H 0.30181 0.81095 0.76404 0.0
H1667 H 0.30265 0.86012 0.76132 0.0
H1668 H 0.32519 0.83985 0.78593 0.0
H1669 H 0.13761 0.84947 0.78964 0.0
H1670 H 0.16051 0.86361 0.76305 0.0
H1671 H 0.15289 0.81546 0.76844 0.0
H1672 H 0.2451 0.8869 0.70064 0.0
H1673 H 0.23307 0.76923 0.706 0.0
H1674 H 0.26147 0.91098 0.75537 0.0
H1675 H 0.21235 0.90965 0.75934 0.0
H1676 H 0.23202 0.92772 0.73272 0.0
H1677 H 0.24797 0.76308 0.76379 0.0
H1678 H 0.21908 0.74054 0.74164 0.0
H1679 H 0.19892 0.76804 0.7649 0.0
C1680 C 0.80514 0.82903 0.8177 0.0
C1681 C 0.76774 0.83602 0.82202 0.0
C1682 C 0.81808 0.82397 0.79455 0.0
C1683 C 0.79287 0.82552 0.77555 0.0
C1684 C 0.75635 0.83724 0.77989 0.0
C1685 C 0.74433 0.84243 0.80307 0.0
C1686 C 0.85754 0.81281 0.79067 0.0
C1687 C 0.72837 0.83939 0.76033 0.0
C1688 C 0.81095 0.81065 0.71017 0.0
C1689 C 0.79899 0.77362 0.70715 0.0
C1690 C 0.81236 0.82756 0.73275 0.0
C1691 C 0.80115 0.80697 0.7525 0.0
C1692 C 0.7922 0.76873 0.74953 0.0
C1693 C 0.7914 0.75262 0.72695 0.0
C1694 C 0.82304 0.86807 0.73514 0.0
C1695 C 0.78002 0.7454 0.7699 0.0
H1696 H 0.82324 0.82343 0.83229 0.0
H1697 H 0.71533 0.84744 0.80644 0.0
H1698 H 0.85854 0.78222 0.78895 0.0
H1699 H 0.86881 0.82455 0.77427 0.0
H1700 H 0.87556 0.82196 0.80563 0.0
H1701 H 0.70285 0.85338 0.76617 0.0
H1702 H 0.7403 0.85449 0.74532 0.0
H1703 H 0.72053 0.81099 0.75395 0.0
H1704 H 0.81652 0.8271 0.69487 0.0
H1705 H 0.78233 0.72392 0.72462 0.0
H1706 H 0.83767 0.87436 0.75195 0.0
H1707 H 0.79769 0.88468 0.73487 0.0
H1708 H 0.84099 0.87694 0.72039 0.0
H1709 H 0.80052 0.74793 0.78435 0.0
H1710 H 0.7764 0.71565 0.76482 0.0
H1711 H 0.75327 0.75533 0.77683 0.0
C1712 C 0.31706 0.77491 0.2192 0.0
C1713 C 0.29027 0.7772 0.20145 0.0
C1714 C 0.30706 0.77247 0.24295 0.0
C1715 C 0.26921 0.77187 0.24935 0.0
C1716 C 0.24199 0.77555 0.23169 0.0
C1717 C 0.25287 0.7787 0.20805 0.0
C1718 C 0.33709 0.76938 0.26117 0.0
C1719 C 0.20129 0.7747 0.23764 0.0
C1720 C 0.24576 0.72424 0.3067 0.0
C1721 C 0.24154 0.75438 0.3223 0.0
C1722 C 0.25379 0.72955 0.28284 0.0
C1723 C 0.25832 0.76595 0.27438 0.0
C1724 C 0.25346 0.79649 0.29005 0.0
C1725 C 0.24413 0.79027 0.31365 0.0
C1726 C 0.25767 0.69615 0.2667 0.0
C1727 C 0.25844 0.83573 0.28196 0.0
H1728 H 0.34607 0.77399 0.2145 0.0
H1729 H 0.23188 0.78131 0.19472 0.0
H1730 H 0.33372 0.79069 0.27531 0.0
H1731 H 0.33484 0.74195 0.26941 0.0
H1732 H 0.36526 0.77272 0.2536 0.0
H1733 H 0.18361 0.77918 0.22208 0.0
H1734 H 0.19341 0.74753 0.24506 0.0
H1735 H 0.19536 0.7962 0.25123 0.0
H1736 H 0.24292 0.69642 0.31323 0.0
H1737 H 0.23846 0.81354 0.32527 0.0
H1738 H 0.2863 0.6953 0.25976 0.0
H1739 H 0.23879 0.69806 0.25144 0.0
H1740 H 0.25135 0.66982 0.27568 0.0
H1741 H 0.28656 0.83987 0.27451 0.0
H1742 H 0.25467 0.85642 0.29644 0.0
H1743 H 0.23834 0.84105 0.26782 0.0
C1744 C 0.25058 0.24317 0.72478 0.0
C1745 C 0.25334 0.28112 0.72046 0.0
C1746 C 0.25136 0.23038 0.74792 0.0
C1747 C 0.25466 0.25624 0.767 0.0
C1748 C 0.25421 0.29462 0.7626 0.0
C1749 C 0.25392 0.30651 0.7394 0.0
C1750 C 0.25192 0.18929 0.75178 0.0
C1751 C 0.25723 0.32328 0.78229 0.0
C1752 C 0.24541 0.23336 0.83164 0.0
C1753 C 0.28258 0.23558 0.83896 0.0
C1754 C 0.23567 0.23805 0.80798 0.0
C1755 C 0.2638 0.24403 0.79113 0.0
C1756 C 0.30138 0.24267 0.79805 0.0
C1757 C 0.31026 0.23857 0.82179 0.0
C1758 C 0.1953 0.23905 0.80133 0.0
C1759 C 0.33239 0.24823 0.78065 0.0
H1760 H 0.25092 0.2235 0.71011 0.0
H1761 H 0.25635 0.33586 0.736 0.0
H1762 H 0.28067 0.18128 0.75562 0.0
H1763 H 0.23459 0.18168 0.76705 0.0
H1764 H 0.24202 0.17309 0.73608 0.0
H1765 H 0.25212 0.35162 0.77617 0.0
H1766 H 0.23721 0.31672 0.79642 0.0
H1767 H 0.28541 0.3231 0.79003 0.0
H1768 H 0.22378 0.22954 0.84451 0.0
H1769 H 0.33911 0.23977 0.82701 0.0
H1770 H 0.18975 0.22201 0.7852 0.0
H1771 H 0.18804 0.2679 0.79749 0.0
H1772 H 0.17694 0.22905 0.81558 0.0
H1773 H 0.32787 0.23004 0.7649 0.0
H1774 H 0.35987 0.2424 0.78826 0.0
H1775 H 0.33291 0.27727 0.7748 0.0
C1776 C 0.79118 0.24555 0.32905 0.0
C1777 C 0.78871 0.21385 0.34259 0.0
C1778 C 0.79161 0.24243 0.3044 0.0
C1779 C 0.7898 0.20681 0.29331 0.0
C1780 C 0.79225 0.17501 0.30707 0.0
C1781 C 0.7916 0.17894 0.33158 0.0
C1782 C 0.78952 0.2771 0.29035 0.0
C1783 C 0.79084 0.13659 0.29607 0.0
C1784 C 0.72827 0.20305 0.23948 0.0
C1785 C 0.75409 0.20481 0.22129 0.0
C1786 C 0.73967 0.20175 0.26291 0.0
C1787 C 0.778 0.20275 0.2683 0.0
C1788 C 0.80423 0.202 0.24986 0.0
C1789 C 0.79191 0.20297 0.22646 0.0
C1790 C 0.7106 0.20208 0.28195 0.0
C1791 C 0.84524 0.20322 0.25483 0.0
H1792 H 0.78854 0.27255 0.33751 0.0
H1793 H 0.78934 0.15439 0.34209 0.0
H1794 H 0.80793 0.2755 0.27482 0.0
H1795 H 0.7608 0.27999 0.28386 0.0
H1796 H 0.79726 0.30228 0.30101 0.0
H1797 H 0.79993 0.11551 0.30853 0.0
H1798 H 0.76199 0.12944 0.29061 0.0
H1799 H 0.80847 0.13521 0.28018 0.0
H1800 H 0.69911 0.20545 0.23544 0.0
H1801 H 0.81195 0.20565 0.21242 0.0
H1802 H 0.71263 0.22864 0.29212 0.0
H1803 H 0.7152 0.17949 0.29434 0.0
H1804 H 0.6821 0.19877 0.27475 0.0
H1805 H 0.8539 0.23173 0.2605 0.0
H1806 H 0.86156 0.19539 0.23905 0.0
H1807 H 0.85209 0.18454 0.26925 0.0
loop_
_geom_bond_atom_site_label_1
_geom_bond_atom_site_label_2
_geom_bond_distance
_geom_bond_site_symmetry_2
_ccdc_geom_bond_type
C0 C1 1.351 . S
C0 N3 1.368 . S
C0 H5 0.931 . S
C1 C0 1.351 . S
C1 N2 1.373 . S
C1 H29 0.930 . S
N2 C1 1.373 . S
N2 C4 1.340 . S
N3 C0 1.368 . S
N3 C4 1.321 . S
N3 Co6 2.135 . S
C4 N2 1.340 . S
C4 N3 1.321 . S
C4 H28 0.930 . S
H5 C0 0.931 . S
Co6 N3 2.135 . S
Co6 N9 2.121 . S
Co6 O14 2.055 . S
Co6 O17 2.039 . S
Co6 N20 2.140 . S
C7 O8 1.227 . S
C7 O17 1.265 . S
O8 C7 1.227 . S
N9 Co6 2.121 . S
N9 C11 1.375 . S
N9 C12 1.313 . S
C10 C11 1.338 . S
C10 N13 1.377 . S
C10 H30 0.930 . S
C11 N9 1.375 . S
C11 C10 1.338 . S
C11 H15 0.931 . S
C12 N9 1.313 . S
C12 N13 1.344 . S
C12 H16 0.930 . S
N13 C10 1.377 . S
N13 C12 1.344 . S
O14 Co6 2.055 . S
O14 C18 1.253 . S
H15 C11 0.931 . S
H16 C12 0.930 . S
O17 Co6 2.039 . S
O17 C7 1.265 . S
C18 O14 1.253 . S
C18 O19 1.227 . S
O19 C18 1.227 . S
N20 Co6 2.140 . S
N20 C23 1.346 . S
N20 C24 1.345 . S
C21 C22 1.387 . S
C21 C25 1.391 . S
C22 C21 1.387 . S
C22 C23 1.369 . S
C22 H31 0.929 . S
C23 N20 1.346 . S
C23 C22 1.369 . S
C23 H26 0.928 . S
C24 N20 1.345 . S
C24 C25 1.371 . S
C24 H27 0.931 . S
C25 C21 1.391 . S
C25 C24 1.371 . S
C25 H32 0.930 . S
H26 C23 0.928 . S
H27 C24 0.931 . S
H28 C4 0.930 . S
H29 C1 0.930 . S
H30 C10 0.930 . S
H31 C22 0.929 . S
H32 C25 0.930 . S
C33 C34 1.351 . S
C33 N36 1.368 . S
C33 H38 0.931 . S
C34 C33 1.351 . S
C34 N35 1.373 . S
C34 H62 0.930 . S
N35 C34 1.373 . S
N35 C37 1.340 . S
N36 C33 1.368 . S
N36 C37 1.321 . S
N36 Co39 2.135 . S
C37 N35 1.340 . S
C37 N36 1.321 . S
C37 H61 0.930 . S
H38 C33 0.931 . S
Co39 N36 2.135 . S
Co39 N42 2.121 . S
Co39 O47 2.055 . S
Co39 O50 2.039 . S
Co39 N53 2.140 . S
C40 O41 1.227 . S
C40 O50 1.265 . S
O41 C40 1.227 . S
N42 Co39 2.121 . S
N42 C44 1.375 . S
N42 C45 1.313 . S
C43 C44 1.338 . S
C43 N46 1.377 . S
C43 H63 0.930 . S
C44 N42 1.375 . S
C44 C43 1.338 . S
C44 H48 0.931 . S
C45 N42 1.313 . S
C45 N46 1.344 . S
C45 H49 0.930 . S
N46 C43 1.377 . S
N46 C45 1.344 . S
O47 Co39 2.055 . S
O47 C51 1.253 . S
H48 C44 0.931 . S
H49 C45 0.930 . S
O50 Co39 2.039 . S
O50 C40 1.265 . S
C51 O47 1.253 . S
C51 O52 1.227 . S
O52 C51 1.227 . S
N53 Co39 2.140 . S
N53 C56 1.346 . S
N53 C57 1.345 . S
C54 C55 1.387 . S
C54 C58 1.391 . S
C55 C54 1.387 . S
C55 C56 1.369 . S
C55 H64 0.929 . S
C56 N53 1.346 . S
C56 C55 1.369 . S
C56 H59 0.928 . S
C57 N53 1.345 . S
C57 C58 1.371 . S
C57 H60 0.931 . S
C58 C54 1.391 . S
C58 C57 1.371 . S
C58 H65 0.930 . S
H59 C56 0.928 . S
H60 C57 0.931 . S
H61 C37 0.930 . S
H62 C34 0.930 . S
H63 C43 0.930 . S
H64 C55 0.929 . S
H65 C58 0.930 . S
C66 C67 1.351 . S
C66 N69 1.368 . S
C66 H71 0.931 . S
C67 C66 1.351 . S
C67 N68 1.373 . S
C67 H95 0.930 . S
N68 C67 1.373 . S
N68 C70 1.340 . S
N69 C66 1.368 . S
N69 C70 1.321 . S
N69 Co72 2.135 . S
C70 N68 1.340 . S
C70 N69 1.321 . S
C70 H94 0.930 . S
H71 C66 0.931 . S
Co72 N69 2.135 . S
Co72 N75 2.121 . S
Co72 O80 2.055 . S
Co72 O83 2.039 . S
Co72 N86 2.140 . S
C73 O74 1.227 . S
C73 O83 1.265 . S
O74 C73 1.227 . S
N75 Co72 2.121 . S
N75 C77 1.375 . S
N75 C78 1.313 . S
C76 C77 1.338 . S
C76 N79 1.377 . S
C76 H96 0.930 . S
C77 N75 1.375 . S
C77 C76 1.338 . S
C77 H81 0.931 . S
C78 N75 1.313 . S
C78 N79 1.344 . S
C78 H82 0.930 . S
N79 C76 1.377 . S
N79 C78 1.344 . S
O80 Co72 2.055 . S
O80 C84 1.253 . S
H81 C77 0.931 . S
H82 C78 0.930 . S
O83 Co72 2.039 . S
O83 C73 1.265 . S
C84 O80 1.253 . S
C84 O85 1.227 . S
O85 C84 1.227 . S
N86 Co72 2.140 . S
N86 C89 1.346 . S
N86 C90 1.345 . S
C87 C88 1.387 . S
C87 C91 1.391 . S
C88 C87 1.387 . S
C88 C89 1.369 . S
C88 H97 0.929 . S
C89 N86 1.346 . S
C89 C88 1.369 . S
C89 H92 0.928 . S
C90 N86 1.345 . S
C90 C91 1.371 . S
C90 H93 0.931 . S
C91 C87 1.391 . S
C91 C90 1.371 . S
C91 H98 0.930 . S
H92 C89 0.928 . S
H93 C90 0.931 . S
H94 C70 0.930 . S
H95 C67 0.930 . S
H96 C76 0.930 . S
H97 C88 0.929 . S
H98 C91 0.930 . S
C99 C100 1.351 . S
C99 N102 1.368 . S
C99 H104 0.931 . S
C100 C99 1.351 . S
C100 N101 1.373 . S
C100 H128 0.930 . S
N101 C100 1.373 . S
N101 C103 1.340 . S
N102 C99 1.368 . S
N102 C103 1.321 . S
N102 Co105 2.135 . S
C103 N101 1.340 . S
C103 N102 1.321 . S
C103 H127 0.930 . S
H104 C99 0.931 . S
Co105 N102 2.135 . S
Co105 N108 2.121 . S
Co105 O113 2.055 . S
Co105 O116 2.039 . S
Co105 N119 2.140 . S
C106 O107 1.227 . S
C106 O116 1.265 . S
O107 C106 1.227 . S
N108 Co105 2.121 . S
N108 C110 1.375 . S
N108 C111 1.313 . S
C109 C110 1.338 . S
C109 N112 1.377 . S
C109 H129 0.930 . S
C110 N108 1.375 . S
C110 C109 1.338 . S
C110 H114 0.931 . S
C111 N108 1.313 . S
C111 N112 1.344 . S
C111 H115 0.930 . S
N112 C109 1.377 . S
N112 C111 1.344 . S
O113 Co105 2.055 . S
O113 C117 1.253 . S
H114 C110 0.931 . S
H115 C111 0.930 . S
O116 Co105 2.039 . S
O116 C106 1.265 . S
C117 O113 1.253 . S
C117 O118 1.227 . S
O118 C117 1.227 . S
N119 Co105 2.140 . S
N119 C122 1.346 . S
N119 C123 1.345 . S
C120 C121 1.387 . S
C120 C124 1.391 . S
C121 C120 1.387 . S
C121 C122 1.369 . S
C121 H130 0.929 . S
C122 N119 1.346 . S
C122 C121 1.369 . S
C122 H125 0.928 . S
C123 N119 1.345 . S
C123 C124 1.371 . S
C123 H126 0.931 . S
C124 C120 1.391 . S
C124 C123 1.371 . S
C124 H131 0.930 . S
H125 C122 0.928 . S
H126 C123 0.931 . S
H127 C103 0.930 . S
H128 C100 0.930 . S
H129 C109 0.930 . S
H130 C121 0.929 . S
H131 C124 0.930 . S
C132 C133 1.351 . S
C132 N135 1.368 . S
C132 H137 0.931 . S
C133 C132 1.351 . S
C133 N134 1.373 . S
C133 H161 0.930 . S
N134 C133 1.373 . S
N134 C136 1.340 . S
N135 C132 1.368 . S
N135 C136 1.321 . S
N135 Co138 2.135 . S
C136 N134 1.340 . S
C136 N135 1.321 . S
C136 H160 0.930 . S
H137 C132 0.931 . S
Co138 N135 2.135 . S
Co138 N141 2.121 . S
Co138 O146 2.055 . S
Co138 O149 2.039 . S
Co138 N152 2.140 . S
C139 O140 1.227 . S
C139 O149 1.265 . S
O140 C139 1.227 . S
N141 Co138 2.121 . S
N141 C143 1.375 . S
N141 C144 1.313 . S
C142 C143 1.338 . S
C142 N145 1.377 . S
C142 H162 0.930 . S
C143 N141 1.375 . S
C143 C142 1.338 . S
C143 H147 0.931 . S
C144 N141 1.313 . S
C144 N145 1.344 . S
C144 H148 0.930 . S
N145 C142 1.377 . S
N145 C144 1.344 . S
O146 Co138 2.055 . S
O146 C150 1.253 . S
H147 C143 0.931 . S
H148 C144 0.930 . S
O149 Co138 2.039 . S
O149 C139 1.265 . S
C150 O146 1.253 . S
C150 O151 1.227 . S
O151 C150 1.227 . S
N152 Co138 2.140 . S
N152 C155 1.346 . S
N152 C156 1.345 . S
C153 C154 1.387 . S
C153 C157 1.391 . S
C154 C153 1.387 . S
C154 C155 1.369 . S
C154 H163 0.929 . S
C155 N152 1.346 . S
C155 C154 1.369 . S
C155 H158 0.928 . S
C156 N152 1.345 . S
C156 C157 1.371 . S
C156 H159 0.931 . S
C157 C153 1.391 . S
C157 C156 1.371 . S
C157 H164 0.930 . S
H158 C155 0.928 . S
H159 C156 0.931 . S
H160 C136 0.930 . S
H161 C133 0.930 . S
H162 C142 0.930 . S
H163 C154 0.929 . S
H164 C157 0.930 . S
C165 C166 1.351 . S
C165 N168 1.368 . S
C165 H170 0.931 . S
C166 C165 1.351 . S
C166 N167 1.373 . S
C166 H194 0.930 . S
N167 C166 1.373 . S
N167 C169 1.340 . S
N168 C165 1.368 . S
N168 C169 1.321 . S
N168 Co171 2.135 . S
C169 N167 1.340 . S
C169 N168 1.321 . S
C169 H193 0.930 . S
H170 C165 0.931 . S
Co171 N168 2.135 . S
Co171 N174 2.121 . S
Co171 O179 2.055 . S
Co171 O182 2.039 . S
Co171 N185 2.140 . S
C172 O173 1.227 . S
C172 O182 1.265 . S
O173 C172 1.227 . S
N174 Co171 2.121 . S
N174 C176 1.375 . S
N174 C177 1.313 . S
C175 C176 1.338 . S
C175 N178 1.377 . S
C175 H195 0.930 . S
C176 N174 1.375 . S
C176 C175 1.338 . S
C176 H180 0.931 . S
C177 N174 1.313 . S
C177 N178 1.344 . S
C177 H181 0.930 . S
N178 C175 1.377 . S
N178 C177 1.344 . S
O179 Co171 2.055 . S
O179 C183 1.253 . S
H180 C176 0.931 . S
H181 C177 0.930 . S
O182 Co171 2.039 . S
O182 C172 1.265 . S
C183 O179 1.253 . S
C183 O184 1.227 . S
O184 C183 1.227 . S
N185 Co171 2.140 . S
N185 C188 1.346 . S
N185 C189 1.345 . S
C186 C187 1.387 . S
C186 C190 1.391 . S
C187 C186 1.387 . S
C187 C188 1.369 . S
C187 H196 0.929 . S
C188 N185 1.346 . S
C188 C187 1.369 . S
C188 H191 0.928 . S
C189 N185 1.345 . S
C189 C190 1.371 . S
C189 H192 0.931 . S
C190 C186 1.391 . S
C190 C189 1.371 . S
C190 H197 0.930 . S
H191 C188 0.928 . S
H192 C189 0.931 . S
H193 C169 0.930 . S
H194 C166 0.930 . S
H195 C175 0.930 . S
H196 C187 0.929 . S
H197 C190 0.930 . S
C198 C199 1.351 . S
C198 N201 1.368 . S
C198 H203 0.931 . S
C199 C198 1.351 . S
C199 N200 1.373 . S
C199 H227 0.930 . S
N200 C199 1.373 . S
N200 C202 1.340 . S
N201 C198 1.368 . S
N201 C202 1.321 . S
N201 Co204 2.135 . S
C202 N200 1.340 . S
C202 N201 1.321 . S
C202 H226 0.930 . S
H203 C198 0.931 . S
Co204 N201 2.135 . S
Co204 N207 2.121 . S
Co204 O212 2.055 . S
Co204 O215 2.039 . S
Co204 N218 2.140 . S
C205 O206 1.227 . S
C205 O215 1.265 . S
O206 C205 1.227 . S
N207 Co204 2.121 . S
N207 C209 1.375 . S
N207 C210 1.313 . S
C208 C209 1.338 . S
C208 N211 1.377 . S
C208 H228 0.930 . S
C209 N207 1.375 . S
C209 C208 1.338 . S
C209 H213 0.931 . S
C210 N207 1.313 . S
C210 N211 1.344 . S
C210 H214 0.930 . S
N211 C208 1.377 . S
N211 C210 1.344 . S
O212 Co204 2.055 . S
O212 C216 1.253 . S
H213 C209 0.931 . S
H214 C210 0.930 . S
O215 Co204 2.039 . S
O215 C205 1.265 . S
C216 O212 1.253 . S
C216 O217 1.227 . S
O217 C216 1.227 . S
N218 Co204 2.140 . S
N218 C221 1.346 . S
N218 C222 1.345 . S
C219 C220 1.387 . S
C219 C223 1.391 . S
C220 C219 1.387 . S
C220 C221 1.369 . S
C220 H229 0.929 . S
C221 N218 1.346 . S
C221 C220 1.369 . S
C221 H224 0.928 . S
C222 N218 1.345 . S
C222 C223 1.371 . S
C222 H225 0.931 . S
C223 C219 1.391 . S
C223 C222 1.371 . S
C223 H230 0.930 . S
H224 C221 0.928 . S
H225 C222 0.931 . S
H226 C202 0.930 . S
H227 C199 0.930 . S
H228 C208 0.930 . S
H229 C220 0.929 . S
H230 C223 0.930 . S
C231 C232 1.351 . S
C231 N234 1.368 . S
C231 H236 0.931 . S
C232 C231 1.351 . S
C232 N233 1.373 . S
C232 H260 0.930 . S
N233 C232 1.373 . S
N233 C235 1.340 . S
N234 C231 1.368 . S
N234 C235 1.321 . S
N234 Co237 2.135 . S
C235 N233 1.340 . S
C235 N234 1.321 . S
C235 H259 0.930 . S
H236 C231 0.931 . S
Co237 N234 2.135 . S
Co237 N240 2.121 . S
Co237 O245 2.055 . S
Co237 O248 2.039 . S
Co237 N251 2.140 . S
C238 O239 1.227 . S
C238 O248 1.265 . S
O239 C238 1.227 . S
N240 Co237 2.121 . S
N240 C242 1.375 . S
N240 C243 1.313 . S
C241 C242 1.338 . S
C241 N244 1.377 . S
C241 H261 0.930 . S
C242 N240 1.375 . S
C242 C241 1.338 . S
C242 H246 0.931 . S
C243 N240 1.313 . S
C243 N244 1.344 . S
C243 H247 0.930 . S
N244 C241 1.377 . S
N244 C243 1.344 . S
O245 Co237 2.055 . S
O245 C249 1.253 . S
H246 C242 0.931 . S
H247 C243 0.930 . S
O248 Co237 2.039 . S
O248 C238 1.265 . S
C249 O245 1.253 . S
C249 O250 1.227 . S
O250 C249 1.227 . S
N251 Co237 2.140 . S
N251 C254 1.346 . S
N251 C255 1.345 . S
C252 C253 1.387 . S
C252 C256 1.391 . S
C253 C252 1.387 . S
C253 C254 1.369 . S
C253 H262 0.929 . S
C254 N251 1.346 . S
C254 C253 1.369 . S
C254 H257 0.928 . S
C255 N251 1.345 . S
C255 C256 1.371 . S
C255 H258 0.931 . S
C256 C252 1.391 . S
C256 C255 1.371 . S
C256 H263 0.930 . S
H257 C254 0.928 . S
H258 C255 0.931 . S
H259 C235 0.930 . S
H260 C232 0.930 . S
H261 C241 0.930 . S
H262 C253 0.929 . S
H263 C256 0.930 . S
C264 C265 1.351 . S
C264 N267 1.368 . S
C264 H269 0.931 . S
C265 C264 1.351 . S
C265 N266 1.373 . S
C265 H293 0.930 . S
N266 C265 1.373 . S
N266 C268 1.340 . S
N267 C264 1.368 . S
N267 C268 1.321 . S
N267 Co270 2.135 . S
C268 N266 1.340 . S
C268 N267 1.321 . S
C268 H292 0.930 . S
H269 C264 0.931 . S
Co270 N267 2.135 . S
Co270 N273 2.121 . S
Co270 O278 2.055 . S
Co270 O281 2.039 . S
Co270 N284 2.140 . S
C271 O272 1.227 . S
C271 O281 1.265 . S
O272 C271 1.227 . S
N273 Co270 2.121 . S
N273 C275 1.375 . S
N273 C276 1.313 . S
C274 C275 1.338 . S
C274 N277 1.377 . S
C274 H294 0.930 . S
C275 N273 1.375 . S
C275 C274 1.338 . S
C275 H279 0.931 . S
C276 N273 1.313 . S
C276 N277 1.344 . S
C276 H280 0.930 . S
N277 C274 1.377 . S
N277 C276 1.344 . S
O278 Co270 2.055 . S
O278 C282 1.253 . S
H279 C275 0.931 . S
H280 C276 0.930 . S
O281 Co270 2.039 . S
O281 C271 1.265 . S
C282 O278 1.253 . S
C282 O283 1.227 . S
O283 C282 1.227 . S
N284 Co270 2.140 . S
N284 C287 1.346 . S
N284 C288 1.345 . S
C285 C286 1.387 . S
C285 C289 1.391 . S
C286 C285 1.387 . S
C286 C287 1.369 . S
C286 H295 0.929 . S
C287 N284 1.346 . S
C287 C286 1.369 . S
C287 H290 0.928 . S
C288 N284 1.345 . S
C288 C289 1.371 . S
C288 H291 0.931 . S
C289 C285 1.391 . S
C289 C288 1.371 . S
C289 H296 0.930 . S
H290 C287 0.928 . S
H291 C288 0.931 . S
H292 C268 0.930 . S
H293 C265 0.930 . S
H294 C274 0.930 . S
H295 C286 0.929 . S
H296 C289 0.930 . S
C297 C298 1.351 . S
C297 N300 1.368 . S
C297 H302 0.931 . S
C298 C297 1.351 . S
C298 N299 1.373 . S
C298 H326 0.930 . S
N299 C298 1.373 . S
N299 C301 1.340 . S
N300 C297 1.368 . S
N300 C301 1.321 . S
N300 Co303 2.135 . S
C301 N299 1.340 . S
C301 N300 1.321 . S
C301 H325 0.930 . S
H302 C297 0.931 . S
Co303 N300 2.135 . S
Co303 N306 2.121 . S
Co303 O311 2.055 . S
Co303 O314 2.039 . S
Co303 N317 2.140 . S
C304 O305 1.227 . S
C304 O314 1.265 . S
O305 C304 1.227 . S
N306 Co303 2.121 . S
N306 C308 1.375 . S
N306 C309 1.313 . S
C307 C308 1.338 . S
C307 N310 1.377 . S
C307 H327 0.930 . S
C308 N306 1.375 . S
C308 C307 1.338 . S
C308 H312 0.931 . S
C309 N306 1.313 . S
C309 N310 1.344 . S
C309 H313 0.930 . S
N310 C307 1.377 . S
N310 C309 1.344 . S
O311 Co303 2.055 . S
O311 C315 1.253 . S
H312 C308 0.931 . S
H313 C309 0.930 . S
O314 Co303 2.039 . S
O314 C304 1.265 . S
C315 O311 1.253 . S
C315 O316 1.227 . S
O316 C315 1.227 . S
N317 Co303 2.140 . S
N317 C320 1.346 . S
N317 C321 1.345 . S
C318 C319 1.387 . S
C318 C322 1.391 . S
C319 C318 1.387 . S
C319 C320 1.369 . S
C319 H328 0.929 . S
C320 N317 1.346 . S
C320 C319 1.369 . S
C320 H323 0.928 . S
C321 N317 1.345 . S
C321 C322 1.371 . S
C321 H324 0.931 . S
C322 C318 1.391 . S
C322 C321 1.371 . S
C322 H329 0.930 . S
H323 C320 0.928 . S
H324 C321 0.931 . S
H325 C301 0.930 . S
H326 C298 0.930 . S
H327 C307 0.930 . S
H328 C319 0.929 . S
H329 C322 0.930 . S
C330 C331 1.351 . S
C330 N333 1.368 . S
C330 H335 0.931 . S
C331 C330 1.351 . S
C331 N332 1.373 . S
C331 H359 0.930 . S
N332 C331 1.373 . S
N332 C334 1.340 . S
N333 C330 1.368 . S
N333 C334 1.321 . S
N333 Co336 2.135 . S
C334 N332 1.340 . S
C334 N333 1.321 . S
C334 H358 0.930 . S
H335 C330 0.931 . S
Co336 N333 2.135 . S
Co336 N339 2.121 . S
Co336 O344 2.055 . S
Co336 O347 2.039 . S
Co336 N350 2.140 . S
C337 O338 1.227 . S
C337 O347 1.265 . S
O338 C337 1.227 . S
N339 Co336 2.121 . S
N339 C341 1.375 . S
N339 C342 1.313 . S
C340 C341 1.338 . S
C340 N343 1.377 . S
C340 H360 0.930 . S
C341 N339 1.375 . S
C341 C340 1.338 . S
C341 H345 0.931 . S
C342 N339 1.313 . S
C342 N343 1.344 . S
C342 H346 0.930 . S
N343 C340 1.377 . S
N343 C342 1.344 . S
O344 Co336 2.055 . S
O344 C348 1.253 . S
H345 C341 0.931 . S
H346 C342 0.930 . S
O347 Co336 2.039 . S
O347 C337 1.265 . S
C348 O344 1.253 . S
C348 O349 1.227 . S
O349 C348 1.227 . S
N350 Co336 2.140 . S
N350 C353 1.346 . S
N350 C354 1.345 . S
C351 C352 1.387 . S
C351 C355 1.391 . S
C352 C351 1.387 . S
C352 C353 1.369 . S
C352 H361 0.929 . S
C353 N350 1.346 . S
C353 C352 1.369 . S
C353 H356 0.928 . S
C354 N350 1.345 . S
C354 C355 1.371 . S
C354 H357 0.931 . S
C355 C351 1.391 . S
C355 C354 1.371 . S
C355 H362 0.930 . S
H356 C353 0.928 . S
H357 C354 0.931 . S
H358 C334 0.930 . S
H359 C331 0.930 . S
H360 C340 0.930 . S
H361 C352 0.929 . S
H362 C355 0.930 . S
C363 C364 1.351 . S
C363 N366 1.368 . S
C363 H368 0.931 . S
C364 C363 1.351 . S
C364 N365 1.373 . S
C364 H392 0.930 . S
N365 C364 1.373 . S
N365 C367 1.340 . S
N366 C363 1.368 . S
N366 C367 1.321 . S
N366 Co369 2.135 . S
C367 N365 1.340 . S
C367 N366 1.321 . S
C367 H391 0.930 . S
H368 C363 0.931 . S
Co369 N366 2.135 . S
Co369 N372 2.121 . S
Co369 O377 2.055 . S
Co369 O380 2.039 . S
Co369 N383 2.140 . S
C370 O371 1.227 . S
C370 O380 1.265 . S
O371 C370 1.227 . S
N372 Co369 2.121 . S
N372 C374 1.375 . S
N372 C375 1.313 . S
C373 C374 1.338 . S
C373 N376 1.377 . S
C373 H393 0.930 . S
C374 N372 1.375 . S
C374 C373 1.338 . S
C374 H378 0.931 . S
C375 N372 1.313 . S
C375 N376 1.344 . S
C375 H379 0.930 . S
N376 C373 1.377 . S
N376 C375 1.344 . S
O377 Co369 2.055 . S
O377 C381 1.253 . S
H378 C374 0.931 . S
H379 C375 0.930 . S
O380 Co369 2.039 . S
O380 C370 1.265 . S
C381 O377 1.253 . S
C381 O382 1.227 . S
O382 C381 1.227 . S
N383 Co369 2.140 . S
N383 C386 1.346 . S
N383 C387 1.345 . S
C384 C385 1.387 . S
C384 C388 1.391 . S
C385 C384 1.387 . S
C385 C386 1.369 . S
C385 H394 0.929 . S
C386 N383 1.346 . S
C386 C385 1.369 . S
C386 H389 0.928 . S
C387 N383 1.345 . S
C387 C388 1.371 . S
C387 H390 0.931 . S
C388 C384 1.391 . S
C388 C387 1.371 . S
C388 H395 0.930 . S
H389 C386 0.928 . S
H390 C387 0.931 . S
H391 C367 0.930 . S
H392 C364 0.930 . S
H393 C373 0.930 . S
H394 C385 0.929 . S
H395 C388 0.930 . S
C396 C397 1.351 . S
C396 N399 1.368 . S
C396 H401 0.931 . S
C397 C396 1.351 . S
C397 N398 1.373 . S
C397 H425 0.930 . S
N398 C397 1.373 . S
N398 C400 1.340 . S
N399 C396 1.368 . S
N399 C400 1.321 . S
N399 Co402 2.135 . S
C400 N398 1.340 . S
C400 N399 1.321 . S
C400 H424 0.930 . S
H401 C396 0.931 . S
Co402 N399 2.135 . S
Co402 N405 2.121 . S
Co402 O410 2.055 . S
Co402 O413 2.039 . S
Co402 N416 2.140 . S
C403 O404 1.227 . S
C403 O413 1.265 . S
O404 C403 1.227 . S
N405 Co402 2.121 . S
N405 C407 1.375 . S
N405 C408 1.313 . S
C406 C407 1.338 . S
C406 N409 1.377 . S
C406 H426 0.930 . S
C407 N405 1.375 . S
C407 C406 1.338 . S
C407 H411 0.931 . S
C408 N405 1.313 . S
C408 N409 1.344 . S
C408 H412 0.930 . S
N409 C406 1.377 . S
N409 C408 1.344 . S
O410 Co402 2.055 . S
O410 C414 1.253 . S
H411 C407 0.931 . S
H412 C408 0.930 . S
O413 Co402 2.039 . S
O413 C403 1.265 . S
C414 O410 1.253 . S
C414 O415 1.227 . S
O415 C414 1.227 . S
N416 Co402 2.140 . S
N416 C419 1.346 . S
N416 C420 1.345 . S
C417 C418 1.387 . S
C417 C421 1.391 . S
C418 C417 1.387 . S
C418 C419 1.369 . S
C418 H427 0.929 . S
C419 N416 1.346 . S
C419 C418 1.369 . S
C419 H422 0.928 . S
C420 N416 1.345 . S
C420 C421 1.371 . S
C420 H423 0.931 . S
C421 C417 1.391 . S
C421 C420 1.371 . S
C421 H428 0.930 . S
H422 C419 0.928 . S
H423 C420 0.931 . S
H424 C400 0.930 . S
H425 C397 0.930 . S
H426 C406 0.930 . S
H427 C418 0.929 . S
H428 C421 0.930 . S
C429 C430 1.351 . S
C429 N432 1.368 . S
C429 H434 0.931 . S
C430 C429 1.351 . S
C430 N431 1.373 . S
C430 H458 0.930 . S
N431 C430 1.373 . S
N431 C433 1.340 . S
N432 C429 1.368 . S
N432 C433 1.321 . S
N432 Co435 2.135 . S
C433 N431 1.340 . S
C433 N432 1.321 . S
C433 H457 0.930 . S
H434 C429 0.931 . S
Co435 N432 2.135 . S
Co435 N438 2.121 . S
Co435 O443 2.055 . S
Co435 O446 2.039 . S
Co435 N449 2.140 . S
C436 O437 1.227 . S
C436 O446 1.265 . S
O437 C436 1.227 . S
N438 Co435 2.121 . S
N438 C440 1.375 . S
N438 C441 1.313 . S
C439 C440 1.338 . S
C439 N442 1.377 . S
C439 H459 0.930 . S
C440 N438 1.375 . S
C440 C439 1.338 . S
C440 H444 0.931 . S
C441 N438 1.313 . S
C441 N442 1.344 . S
C441 H445 0.930 . S
N442 C439 1.377 . S
N442 C441 1.344 . S
O443 Co435 2.055 . S
O443 C447 1.253 . S
H444 C440 0.931 . S
H445 C441 0.930 . S
O446 Co435 2.039 . S
O446 C436 1.265 . S
C447 O443 1.253 . S
C447 O448 1.227 . S
O448 C447 1.227 . S
N449 Co435 2.140 . S
N449 C452 1.346 . S
N449 C453 1.345 . S
C450 C451 1.387 . S
C450 C454 1.391 . S
C451 C450 1.387 . S
C451 C452 1.369 . S
C451 H460 0.929 . S
C452 N449 1.346 . S
C452 C451 1.369 . S
C452 H455 0.928 . S
C453 N449 1.345 . S
C453 C454 1.371 . S
C453 H456 0.931 . S
C454 C450 1.391 . S
C454 C453 1.371 . S
C454 H461 0.930 . S
H455 C452 0.928 . S
H456 C453 0.931 . S
H457 C433 0.930 . S
H458 C430 0.930 . S
H459 C439 0.930 . S
H460 C451 0.929 . S
H461 C454 0.930 . S
C462 C463 1.351 . S
C462 N465 1.368 . S
C462 H467 0.931 . S
C463 C462 1.351 . S
C463 N464 1.373 . S
C463 H491 0.930 . S
N464 C463 1.373 . S
N464 C466 1.340 . S
N465 C462 1.368 . S
N465 C466 1.321 . S
N465 Co468 2.135 . S
C466 N464 1.340 . S
C466 N465 1.321 . S
C466 H490 0.930 . S
H467 C462 0.931 . S
Co468 N465 2.135 . S
Co468 N471 2.121 . S
Co468 O476 2.055 . S
Co468 O479 2.039 . S
Co468 N482 2.140 . S
C469 O470 1.227 . S
C469 O479 1.265 . S
O470 C469 1.227 . S
N471 Co468 2.121 . S
N471 C473 1.375 . S
N471 C474 1.313 . S
C472 C473 1.338 . S
C472 N475 1.377 . S
C472 H492 0.930 . S
C473 N471 1.375 . S
C473 C472 1.338 . S
C473 H477 0.931 . S
C474 N471 1.313 . S
C474 N475 1.344 . S
C474 H478 0.930 . S
N475 C472 1.377 . S
N475 C474 1.344 . S
O476 Co468 2.055 . S
O476 C480 1.253 . S
H477 C473 0.931 . S
H478 C474 0.930 . S
O479 Co468 2.039 . S
O479 C469 1.265 . S
C480 O476 1.253 . S
C480 O481 1.227 . S
O481 C480 1.227 . S
N482 Co468 2.140 . S
N482 C485 1.346 . S
N482 C486 1.345 . S
C483 C484 1.387 . S
C483 C487 1.391 . S
C484 C483 1.387 . S
C484 C485 1.369 . S
C484 H493 0.929 . S
C485 N482 1.346 . S
C485 C484 1.369 . S
C485 H488 0.928 . S
C486 N482 1.345 . S
C486 C487 1.371 . S
C486 H489 0.931 . S
C487 C483 1.391 . S
C487 C486 1.371 . S
C487 H494 0.930 . S
H488 C485 0.928 . S
H489 C486 0.931 . S
H490 C466 0.930 . S
H491 C463 0.930 . S
H492 C472 0.930 . S
H493 C484 0.929 . S
H494 C487 0.930 . S
C495 C496 1.351 . S
C495 N498 1.368 . S
C495 H500 0.931 . S
C496 C495 1.351 . S
C496 N497 1.373 . S
C496 H524 0.930 . S
N497 C496 1.373 . S
N497 C499 1.340 . S
N498 C495 1.368 . S
N498 C499 1.321 . S
N498 Co501 2.135 . S
C499 N497 1.340 . S
C499 N498 1.321 . S
C499 H523 0.930 . S
H500 C495 0.931 . S
Co501 N498 2.135 . S
Co501 N504 2.121 . S
Co501 O509 2.055 . S
Co501 O512 2.039 . S
Co501 N515 2.140 . S
C502 O503 1.227 . S
C502 O512 1.265 . S
O503 C502 1.227 . S
N504 Co501 2.121 . S
N504 C506 1.375 . S
N504 C507 1.313 . S
C505 C506 1.338 . S
C505 N508 1.377 . S
C505 H525 0.930 . S
C506 N504 1.375 . S
C506 C505 1.338 . S
C506 H510 0.931 . S
C507 N504 1.313 . S
C507 N508 1.344 . S
C507 H511 0.930 . S
N508 C505 1.377 . S
N508 C507 1.344 . S
O509 Co501 2.055 . S
O509 C513 1.253 . S
H510 C506 0.931 . S
H511 C507 0.930 . S
O512 Co501 2.039 . S
O512 C502 1.265 . S
C513 O509 1.253 . S
C513 O514 1.227 . S
O514 C513 1.227 . S
N515 Co501 2.140 . S
N515 C518 1.346 . S
N515 C519 1.345 . S
C516 C517 1.387 . S
C516 C520 1.391 . S
C517 C516 1.387 . S
C517 C518 1.369 . S
C517 H526 0.929 . S
C518 N515 1.346 . S
C518 C517 1.369 . S
C518 H521 0.928 . S
C519 N515 1.345 . S
C519 C520 1.371 . S
C519 H522 0.931 . S
C520 C516 1.391 . S
C520 C519 1.371 . S
C520 H527 0.930 . S
H521 C518 0.928 . S
H522 C519 0.931 . S
H523 C499 0.930 . S
H524 C496 0.930 . S
H525 C505 0.930 . S
H526 C517 0.929 . S
H527 C520 0.930 . S
C528 C529 1.391 . S
C528 C530 1.394 . S
C528 H544 0.931 . S
C529 C528 1.391 . S
C529 C533 1.376 . S
C530 C528 1.394 . S
C530 C531 1.369 . S
C530 C534 1.531 . S
C531 C530 1.369 . S
C531 C532 1.410 . S
C531 C539 1.503 1_655 S
C532 C531 1.410 . S
C532 C533 1.392 . S
C532 C535 1.511 . S
C533 C529 1.376 . S
C533 C532 1.392 . S
C533 H545 0.929 . S
C534 C530 1.531 . S
C534 H546 0.960 . S
C534 H547 0.962 . S
C534 H548 0.960 . S
C535 C532 1.511 . S
C535 H549 0.961 . S
C535 H550 0.961 . S
C535 H551 0.961 . S
C536 C537 1.370 . S
C536 C538 1.363 . S
C536 H552 0.931 . S
C537 C536 1.370 . S
C537 C541 1.408 . S
C538 C536 1.363 . S
C538 C539 1.370 . S
C538 C542 1.524 1_455 S
C539 C531 1.503 1_455 S
C539 C538 1.370 . S
C539 C540 1.403 . S
C540 C539 1.403 . S
C540 C541 1.404 . S
C540 C543 1.539 . S
C541 C537 1.408 . S
C541 C540 1.404 . S
C541 H553 0.930 . S
C542 C538 1.524 1_655 S
C542 H554 0.956 . S
C542 H555 0.961 . S
C542 H556 0.961 1_655 S
C543 C540 1.539 . S
C543 H557 0.958 . S
C543 H558 0.961 . S
C543 H559 0.960 . S
H544 C528 0.931 . S
H545 C533 0.929 . S
H546 C534 0.960 . S
H547 C534 0.962 . S
H548 C534 0.960 . S
H549 C535 0.961 . S
H550 C535 0.961 . S
H551 C535 0.961 . S
H552 C536 0.931 . S
H553 C541 0.930 . S
H554 C542 0.956 . S
H555 C542 0.961 . S
H556 C542 0.961 1_455 S
H557 C543 0.958 . S
H558 C543 0.961 . S
H559 C543 0.960 . S
C560 C561 1.391 . S
C560 C562 1.394 . S
C560 H576 0.931 . S
C561 C560 1.391 . S
C561 C565 1.376 . S
C562 C560 1.394 . S
C562 C563 1.369 . S
C562 C566 1.531 . S
C563 C562 1.369 . S
C563 C564 1.410 . S
C563 C571 1.503 1_545 S
C564 C563 1.410 . S
C564 C565 1.392 . S
C564 C567 1.511 . S
C565 C561 1.376 . S
C565 C564 1.392 . S
C565 H577 0.929 . S
C566 C562 1.531 . S
C566 H578 0.936 1_545 S
C566 H579 0.962 . S
C566 H580 0.960 . S
C567 C564 1.511 . S
C567 H581 0.961 . S
C567 H582 0.961 1_545 S
C567 H583 0.961 . S
C568 C569 1.370 . S
C568 C570 1.363 . S
C568 H584 0.931 . S
C569 C568 1.370 . S
C569 C573 1.408 . S
C570 C568 1.363 . S
C570 C571 1.370 . S
C570 C574 1.524 . S
C571 C563 1.503 1_565 S
C571 C570 1.370 . S
C571 C572 1.403 . S
C572 C571 1.403 . S
C572 C573 1.404 . S
C572 C575 1.539 . S
C573 C569 1.408 . S
C573 C572 1.404 . S
C573 H585 0.930 . S
C574 C570 1.524 . S
C574 H586 0.956 . S
C574 H587 0.961 . S
C574 H588 0.961 . S
C575 C572 1.539 . S
C575 H589 0.958 . S
C575 H590 0.961 . S
C575 H591 0.960 . S
H576 C560 0.931 . S
H577 C565 0.929 . S
H578 C566 0.936 1_565 S
H579 C566 0.962 . S
H580 C566 0.960 . S
H581 C567 0.961 . S
H582 C567 0.961 1_565 S
H583 C567 0.961 . S
H584 C568 0.931 . S
H585 C573 0.930 . S
H586 C574 0.956 . S
H587 C574 0.961 . S
H588 C574 0.961 . S
H589 C575 0.958 . S
H590 C575 0.961 . S
H591 C575 0.960 . S
C592 C593 1.391 . S
C592 C594 1.394 . S
C592 H608 0.931 . S
C593 C592 1.391 . S
C593 C597 1.376 . S
C594 C592 1.394 . S
C594 C595 1.369 . S
C594 C598 1.531 . S
C595 C594 1.369 . S
C595 C596 1.410 . S
C595 C603 1.503 1_655 S
C596 C595 1.410 . S
C596 C597 1.392 . S
C596 C599 1.511 1_655 S
C597 C593 1.376 . S
C597 C596 1.392 . S
C597 H609 0.929 . S
C598 C594 1.531 . S
C598 H610 0.960 1_655 S
C598 H611 0.962 . S
C598 H612 0.960 . S
C599 C596 1.511 1_455 S
C599 H613 0.961 1_455 S
C599 H614 0.961 . S
C599 H615 0.961 . S
C600 C601 1.370 . S
C600 C602 1.363 . S
C600 H616 0.931 . S
C601 C600 1.370 . S
C601 C605 1.408 . S
C602 C600 1.363 . S
C602 C603 1.370 . S
C602 C606 1.524 . S
C603 C595 1.503 1_455 S
C603 C602 1.370 . S
C603 C604 1.403 . S
C604 C603 1.403 . S
C604 C605 1.404 . S
C604 C607 1.539 . S
C605 C601 1.408 . S
C605 C604 1.404 . S
C605 H617 0.930 . S
C606 C602 1.524 . S
C606 H618 0.956 . S
C606 H619 0.961 . S
C606 H620 0.961 . S
C607 C604 1.539 . S
C607 H621 0.958 . S
C607 H622 0.961 . S
C607 H623 0.960 . S
H608 C592 0.931 . S
H609 C597 0.929 . S
H610 C598 0.960 1_455 S
H611 C598 0.962 . S
H612 C598 0.960 . S
H613 C599 0.961 1_655 S
H614 C599 0.961 . S
H615 C599 0.961 . S
H616 C600 0.931 . S
H617 C605 0.930 . S
H618 C606 0.956 . S
H619 C606 0.961 . S
H620 C606 0.961 . S
H621 C607 0.958 . S
H622 C607 0.961 . S
H623 C607 0.960 . S
C624 C625 1.391 . S
C624 C626 1.394 . S
C624 H640 0.931 . S
C625 C624 1.391 . S
C625 C629 1.376 . S
C626 C624 1.394 . S
C626 C627 1.369 . S
C626 C630 1.531 . S
C627 C626 1.369 . S
C627 C628 1.410 . S
C627 C635 1.503 1_565 S
C628 C627 1.410 . S
C628 C629 1.392 . S
C628 C631 1.513 . S
C629 C625 1.376 . S
C629 C628 1.392 . S
C629 H641 0.929 . S
C630 C626 1.531 . S
C630 H642 0.960 1_565 S
C630 H643 0.962 . S
C630 H644 0.960 . S
C631 C628 1.513 . S
C631 H645 0.962 . S
C631 H646 0.958 1_565 S
C631 H647 0.960 1_565 S
C632 C633 1.370 . S
C632 C634 1.363 . S
C632 H648 0.931 . S
C633 C632 1.370 . S
C633 C637 1.408 . S
C634 C632 1.363 . S
C634 C635 1.370 . S
C634 C638 1.524 . S
C635 C627 1.503 1_545 S
C635 C634 1.370 . S
C635 C636 1.403 . S
C636 C635 1.403 . S
C636 C637 1.404 . S
C636 C639 1.539 . S
C637 C633 1.408 . S
C637 C636 1.404 . S
C637 H649 0.930 . S
C638 C634 1.524 . S
C638 H650 0.956 . S
C638 H651 0.961 . S
C638 H652 0.961 . S
C639 C636 1.539 . S
C639 H653 0.958 . S
C639 H654 0.961 . S
C639 H655 0.960 . S
H640 C624 0.931 . S
H641 C629 0.929 . S
H642 C630 0.960 1_545 S
H643 C630 0.962 . S
H644 C630 0.960 . S
H645 C631 0.962 . S
H646 C631 0.958 1_545 S
H647 C631 0.960 1_545 S
H648 C632 0.931 . S
H649 C637 0.930 . S
H650 C638 0.956 . S
H651 C638 0.961 . S
H652 C638 0.961 . S
H653 C639 0.958 . S
H654 C639 0.961 . S
H655 C639 0.960 . S
C656 C657 1.391 . S
C656 C658 1.394 . S
C656 H672 0.931 . S
C657 C656 1.391 . S
C657 C661 1.376 . S
C658 C656 1.394 . S
C658 C659 1.369 . S
C658 C662 1.531 . S
C659 C658 1.369 . S
C659 C660 1.410 . S
C659 C667 1.503 1_655 S
C660 C659 1.410 . S
C660 C661 1.392 . S
C660 C663 1.511 . S
C661 C657 1.376 . S
C661 C660 1.392 . S
C661 H673 0.929 . S
C662 C658 1.531 . S
C662 H674 0.960 1_655 S
C662 H675 0.962 . S
C662 H676 0.960 . S
C663 C660 1.511 . S
C663 H677 0.961 . S
C663 H678 0.961 . S
C663 H679 0.961 . S
C664 C665 1.370 . S
C664 C666 1.363 . S
C664 H680 0.931 . S
C665 C664 1.370 . S
C665 C669 1.408 . S
C666 C664 1.363 . S
C666 C667 1.370 . S
C666 C670 1.524 . S
C667 C659 1.503 1_455 S
C667 C666 1.370 . S
C667 C668 1.403 . S
C668 C667 1.403 . S
C668 C669 1.404 . S
C668 C671 1.539 . S
C669 C665 1.408 . S
C669 C668 1.404 . S
C669 H681 0.930 . S
C670 C666 1.524 . S
C670 H682 0.964 . S
C670 H683 0.961 1_455 S
C670 H684 0.961 . S
C671 C668 1.539 . S
C671 H685 0.958 . S
C671 H686 0.961 . S
C671 H687 0.960 . S
H672 C656 0.931 . S
H673 C661 0.929 . S
H674 C662 0.960 1_455 S
H675 C662 0.962 . S
H676 C662 0.960 . S
H677 C663 0.961 . S
H678 C663 0.961 . S
H679 C663 0.961 . S
H680 C664 0.931 . S
H681 C669 0.930 . S
H682 C670 0.964 . S
H683 C670 0.961 1_655 S
H684 C670 0.961 . S
H685 C671 0.958 . S
H686 C671 0.961 . S
H687 C671 0.960 . S
C688 C689 1.391 . S
C688 C690 1.394 . S
C688 H704 0.931 . S
C689 C688 1.391 . S
C689 C693 1.376 . S
C690 C688 1.394 . S
C690 C691 1.369 . S
C690 C694 1.531 . S
C691 C690 1.369 . S
C691 C692 1.410 . S
C691 C699 1.503 1_565 S
C692 C691 1.410 . S
C692 C693 1.392 . S
C692 C695 1.511 . S
C693 C689 1.376 . S
C693 C692 1.392 . S
C693 H705 0.929 . S
C694 C690 1.531 . S
C694 H706 0.960 . S
C694 H707 0.962 . S
C694 H708 0.960 . S
C695 C692 1.511 . S
C695 H709 0.961 . S
C695 H710 0.961 . S
C695 H711 0.961 . S
C696 C697 1.370 . S
C696 C698 1.363 . S
C696 H712 0.931 . S
C697 C696 1.370 . S
C697 C701 1.408 . S
C698 C696 1.363 . S
C698 C699 1.370 . S
C698 C702 1.524 . S
C699 C691 1.503 1_545 S
C699 C698 1.370 . S
C699 C700 1.403 . S
C700 C699 1.403 . S
C700 C701 1.404 . S
C700 C703 1.540 1_545 S
C701 C697 1.408 . S
C701 C700 1.404 . S
C701 H713 0.930 . S
C702 C698 1.524 . S
C702 H714 0.956 . S
C702 H715 0.961 1_545 S
C702 H716 0.961 . S
C703 C700 1.540 1_565 S
C703 H717 0.958 . S
C703 H718 0.962 1_565 S
C703 H719 0.957 . S
H704 C688 0.931 . S
H705 C693 0.929 . S
H706 C694 0.960 . S
H707 C694 0.962 . S
H708 C694 0.960 . S
H709 C695 0.961 . S
H710 C695 0.961 . S
H711 C695 0.961 . S
H712 C696 0.931 . S
H713 C701 0.930 . S
H714 C702 0.956 . S
H715 C702 0.961 1_565 S
H716 C702 0.961 . S
H717 C703 0.958 . S
H718 C703 0.962 1_545 S
H719 C703 0.957 . S
C720 C721 1.391 . S
C720 C722 1.394 . S
C720 H736 0.931 . S
C721 C720 1.391 . S
C721 C725 1.376 . S
C722 C720 1.394 . S
C722 C723 1.369 . S
C722 C726 1.531 . S
C723 C722 1.369 . S
C723 C724 1.410 . S
C723 C731 1.503 1_655 S
C724 C723 1.410 . S
C724 C725 1.392 . S
C724 C727 1.511 . S
C725 C721 1.376 . S
C725 C724 1.392 . S
C725 H737 0.929 . S
C726 C722 1.531 . S
C726 H738 0.960 1_655 S
C726 H739 0.962 . S
C726 H740 0.960 . S
C727 C724 1.511 . S
C727 H741 0.961 . S
C727 H742 0.961 1_655 S
C727 H743 0.961 . S
C728 C729 1.370 . S
C728 C730 1.363 . S
C728 H744 0.931 . S
C729 C728 1.370 . S
C729 C733 1.408 . S
C730 C728 1.363 . S
C730 C731 1.370 . S
C730 C734 1.524 . S
C731 C723 1.503 1_455 S
C731 C730 1.370 . S
C731 C732 1.403 . S
C732 C731 1.403 . S
C732 C733 1.404 . S
C732 C735 1.539 . S
C733 C729 1.408 . S
C733 C732 1.404 . S
C733 H745 0.930 . S
C734 C730 1.524 . S
C734 H746 0.956 . S
C734 H747 0.961 1_455 S
C734 H748 0.961 . S
C735 C732 1.539 . S
C735 H749 0.958 . S
C735 H750 0.961 . S
C735 H751 0.960 . S
H736 C720 0.931 . S
H737 C725 0.929 . S
H738 C726 0.960 1_455 S
H739 C726 0.962 . S
H740 C726 0.960 . S
H741 C727 0.961 . S
H742 C727 0.961 1_455 S
H743 C727 0.961 . S
H744 C728 0.931 . S
H745 C733 0.930 . S
H746 C734 0.956 . S
H747 C734 0.961 1_655 S
H748 C734 0.961 . S
H749 C735 0.958 . S
H750 C735 0.961 . S
H751 C735 0.960 . S
C752 C753 1.391 . S
C752 C754 1.394 . S
C752 H768 0.931 . S
C753 C752 1.391 . S
C753 C757 1.376 . S
C754 C752 1.394 . S
C754 C755 1.369 . S
C754 C758 1.531 . S
C755 C754 1.369 . S
C755 C756 1.410 . S
C755 C763 1.503 1_545 S
C756 C755 1.410 . S
C756 C757 1.392 . S
C756 C759 1.511 . S
C757 C753 1.376 . S
C757 C756 1.392 . S
C757 H769 0.929 . S
C758 C754 1.531 . S
C758 H770 0.960 1_545 S
C758 H771 0.962 . S
C758 H772 0.960 . S
C759 C756 1.511 . S
C759 H773 0.961 . S
C759 H774 0.961 . S
C759 H775 0.961 . S
C760 C761 1.370 . S
C760 C762 1.363 . S
C760 H776 0.931 . S
C761 C760 1.370 . S
C761 C765 1.408 . S
C762 C760 1.363 . S
C762 C763 1.370 . S
C762 C766 1.524 . S
C763 C755 1.503 1_565 S
C763 C762 1.370 . S
C763 C764 1.403 . S
C764 C763 1.403 . S
C764 C765 1.404 . S
C764 C767 1.539 . S
C765 C761 1.408 . S
C765 C764 1.404 . S
C765 H777 0.930 . S
C766 C762 1.524 . S
C766 H778 0.956 1_565 S
C766 H779 0.961 1_565 S
C766 H780 0.961 . S
C767 C764 1.539 . S
C767 H781 0.958 . S
C767 H782 0.961 . S
C767 H783 0.960 . S
H768 C752 0.931 . S
H769 C757 0.929 . S
H770 C758 0.960 1_565 S
H771 C758 0.962 . S
H772 C758 0.960 . S
H773 C759 0.961 . S
H774 C759 0.961 . S
H775 C759 0.961 . S
H776 C760 0.931 . S
H777 C765 0.930 . S
H778 C766 0.956 1_545 S
H779 C766 0.961 1_545 S
H780 C766 0.961 . S
H781 C767 0.958 . S
H782 C767 0.961 . S
H783 C767 0.960 . S
C784 C785 1.391 . S
C784 C786 1.394 . S
C784 H800 0.931 . S
C785 C784 1.391 . S
C785 C789 1.376 . S
C786 C784 1.394 . S
C786 C787 1.369 . S
C786 C790 1.531 . S
C787 C786 1.369 . S
C787 C788 1.410 . S
C787 C795 1.503 . S
C788 C787 1.410 . S
C788 C789 1.392 . S
C788 C791 1.511 . S
C789 C785 1.376 . S
C789 C788 1.392 . S
C789 H801 0.929 . S
C790 C786 1.531 . S
C790 H802 0.960 . S
C790 H803 0.962 . S
C790 H804 0.960 . S
C791 C788 1.511 . S
C791 H805 0.961 . S
C791 H806 0.961 . S
C791 H807 0.961 . S
C792 C793 1.370 . S
C792 C794 1.363 . S
C792 H808 0.931 . S
C793 C792 1.370 . S
C793 C797 1.408 . S
C794 C792 1.363 . S
C794 C795 1.370 . S
C794 C798 1.524 . S
C795 C787 1.503 . S
C795 C794 1.370 . S
C795 C796 1.403 . S
C796 C795 1.403 . S
C796 C797 1.404 . S
C796 C799 1.539 . S
C797 C793 1.408 . S
C797 C796 1.404 . S
C797 H809 0.930 . S
C798 C794 1.524 . S
C798 H810 0.956 . S
C798 H811 0.961 . S
C798 H812 0.961 . S
C799 C796 1.539 . S
C799 H813 0.958 . S
C799 H814 0.961 . S
C799 H815 0.960 . S
H800 C784 0.931 . S
H801 C789 0.929 . S
H802 C790 0.960 . S
H803 C790 0.962 . S
H804 C790 0.960 . S
H805 C791 0.961 . S
H806 C791 0.961 . S
H807 C791 0.961 . S
H808 C792 0.931 . S
H809 C797 0.930 . S
H810 C798 0.956 . S
H811 C798 0.961 . S
H812 C798 0.961 . S
H813 C799 0.958 . S
H814 C799 0.961 . S
H815 C799 0.960 . S
C816 C817 1.391 . S
C816 C818 1.394 . S
C816 H832 0.931 . S
C817 C816 1.391 . S
C817 C821 1.376 . S
C818 C816 1.394 . S
C818 C819 1.369 . S
C818 C822 1.531 . S
C819 C818 1.369 . S
C819 C820 1.410 . S
C819 C827 1.503 . S
C820 C819 1.410 . S
C820 C821 1.392 . S
C820 C823 1.511 . S
C821 C817 1.376 . S
C821 C820 1.392 . S
C821 H833 0.929 . S
C822 C818 1.531 . S
C822 H834 0.960 . S
C822 H835 0.962 . S
C822 H836 0.960 . S
C823 C820 1.511 . S
C823 H837 0.961 . S
C823 H838 0.961 . S
C823 H839 0.961 . S
C824 C825 1.370 . S
C824 C826 1.363 . S
C824 H840 0.931 . S
C825 C824 1.370 . S
C825 C829 1.408 . S
C826 C824 1.363 . S
C826 C827 1.370 . S
C826 C830 1.524 . S
C827 C819 1.503 . S
C827 C826 1.370 . S
C827 C828 1.403 . S
C828 C827 1.403 . S
C828 C829 1.404 . S
C828 C831 1.539 . S
C829 C825 1.408 . S
C829 C828 1.404 . S
C829 H841 0.930 . S
C830 C826 1.524 . S
C830 H842 0.956 . S
C830 H843 0.961 . S
C830 H844 0.961 . S
C831 C828 1.539 . S
C831 H845 0.958 . S
C831 H846 0.961 . S
C831 H847 0.960 . S
H832 C816 0.931 . S
H833 C821 0.929 . S
H834 C822 0.960 . S
H835 C822 0.962 . S
H836 C822 0.960 . S
H837 C823 0.961 . S
H838 C823 0.961 . S
H839 C823 0.961 . S
H840 C824 0.931 . S
H841 C829 0.930 . S
H842 C830 0.956 . S
H843 C830 0.961 . S
H844 C830 0.961 . S
H845 C831 0.958 . S
H846 C831 0.961 . S
H847 C831 0.960 . S
C848 C849 1.391 . S
C848 C850 1.394 . S
C848 H864 0.931 . S
C849 C848 1.391 . S
C849 C853 1.376 . S
C850 C848 1.394 . S
C850 C851 1.369 . S
C850 C854 1.531 . S
C851 C850 1.369 . S
C851 C852 1.410 . S
C851 C859 1.503 . S
C852 C851 1.410 . S
C852 C853 1.392 . S
C852 C855 1.511 . S
C853 C849 1.376 . S
C853 C852 1.392 . S
C853 H865 0.929 . S
C854 C850 1.531 . S
C854 H866 0.960 . S
C854 H867 0.962 . S
C854 H868 0.960 . S
C855 C852 1.511 . S
C855 H869 0.961 . S
C855 H870 0.961 . S
C855 H871 0.961 . S
C856 C857 1.370 . S
C856 C858 1.363 . S
C856 H872 0.931 . S
C857 C856 1.370 . S
C857 C861 1.408 . S
C858 C856 1.363 . S
C858 C859 1.370 . S
C858 C862 1.524 . S
C859 C851 1.503 . S
C859 C858 1.370 . S
C859 C860 1.403 . S
C860 C859 1.403 . S
C860 C861 1.404 . S
C860 C863 1.539 . S
C861 C857 1.408 . S
C861 C860 1.404 . S
C861 H873 0.930 . S
C862 C858 1.524 . S
C862 H874 0.956 . S
C862 H875 0.961 . S
C862 H876 0.961 . S
C863 C860 1.539 . S
C863 H877 0.958 . S
C863 H878 0.961 . S
C863 H879 0.960 . S
H864 C848 0.931 . S
H865 C853 0.929 . S
H866 C854 0.960 . S
H867 C854 0.962 . S
H868 C854 0.960 . S
H869 C855 0.961 . S
H870 C855 0.961 . S
H871 C855 0.961 . S
H872 C856 0.931 . S
H873 C861 0.930 . S
H874 C862 0.956 . S
H875 C862 0.961 . S
H876 C862 0.961 . S
H877 C863 0.958 . S
H878 C863 0.961 . S
H879 C863 0.960 . S
C880 C881 1.391 . S
C880 C882 1.394 . S
C880 H896 0.931 . S
C881 C880 1.391 . S
C881 C885 1.376 . S
C882 C880 1.394 . S
C882 C883 1.369 . S
C882 C886 1.531 . S
C883 C882 1.369 . S
C883 C884 1.410 . S
C883 C891 1.503 . S
C884 C883 1.410 . S
C884 C885 1.392 . S
C884 C887 1.511 . S
C885 C881 1.376 . S
C885 C884 1.392 . S
C885 H897 0.929 . S
C886 C882 1.531 . S
C886 H898 0.960 . S
C886 H899 0.962 . S
C886 H900 0.960 . S
C887 C884 1.511 . S
C887 H901 0.961 . S
C887 H902 0.961 . S
C887 H903 0.961 . S
C888 C889 1.370 . S
C888 C890 1.363 . S
C888 H904 0.931 . S
C889 C888 1.370 . S
C889 C893 1.408 . S
C890 C888 1.363 . S
C890 C891 1.370 . S
C890 C894 1.524 . S
C891 C883 1.503 . S
C891 C890 1.370 . S
C891 C892 1.403 . S
C892 C891 1.403 . S
C892 C893 1.404 . S
C892 C895 1.539 . S
C893 C889 1.408 . S
C893 C892 1.404 . S
C893 H905 0.930 . S
C894 C890 1.524 . S
C894 H906 0.956 . S
C894 H907 0.961 . S
C894 H908 0.961 . S
C895 C892 1.539 . S
C895 H909 0.958 . S
C895 H910 0.961 . S
C895 H911 0.960 . S
H896 C880 0.931 . S
H897 C885 0.929 . S
H898 C886 0.960 . S
H899 C886 0.962 . S
H900 C886 0.960 . S
H901 C887 0.961 . S
H902 C887 0.961 . S
H903 C887 0.961 . S
H904 C888 0.931 . S
H905 C893 0.930 . S
H906 C894 0.956 . S
H907 C894 0.961 . S
H908 C894 0.961 . S
H909 C895 0.958 . S
H910 C895 0.961 . S
H911 C895 0.960 . S
C912 C913 1.391 . S
C912 C914 1.394 . S
C912 H928 0.931 . S
C913 C912 1.391 . S
C913 C917 1.376 . S
C914 C912 1.394 . S
C914 C915 1.369 . S
C914 C918 1.531 . S
C915 C914 1.369 . S
C915 C916 1.410 . S
C915 C923 1.503 . S
C916 C915 1.410 . S
C916 C917 1.392 . S
C916 C919 1.511 . S
C917 C913 1.376 . S
C917 C916 1.392 . S
C917 H929 0.929 . S
C918 C914 1.531 . S
C918 H930 0.960 . S
C918 H931 0.962 . S
C918 H932 0.960 . S
C919 C916 1.511 . S
C919 H933 0.961 . S
C919 H934 0.961 . S
C919 H935 0.961 . S
C920 C921 1.370 . S
C920 C922 1.363 . S
C920 H936 0.931 . S
C921 C920 1.370 . S
C921 C925 1.408 . S
C922 C920 1.363 . S
C922 C923 1.370 . S
C922 C926 1.524 . S
C923 C915 1.503 . S
C923 C922 1.370 . S
C923 C924 1.403 . S
C924 C923 1.403 . S
C924 C925 1.404 . S
C924 C927 1.539 . S
C925 C921 1.408 . S
C925 C924 1.404 . S
C925 H937 0.930 . S
C926 C922 1.524 . S
C926 H938 0.956 . S
C926 H939 0.961 . S
C926 H940 0.961 . S
C927 C924 1.539 . S
C927 H941 0.958 . S
C927 H942 0.961 . S
C927 H943 0.960 . S
H928 C912 0.931 . S
H929 C917 0.929 . S
H930 C918 0.960 . S
H931 C918 0.962 . S
H932 C918 0.960 . S
H933 C919 0.961 . S
H934 C919 0.961 . S
H935 C919 0.961 . S
H936 C920 0.931 . S
H937 C925 0.930 . S
H938 C926 0.956 . S
H939 C926 0.961 . S
H940 C926 0.961 . S
H941 C927 0.958 . S
H942 C927 0.961 . S
H943 C927 0.960 . S
C944 C945 1.391 . S
C944 C946 1.394 . S
C944 H960 0.931 . S
C945 C944 1.391 . S
C945 C949 1.376 . S
C946 C944 1.394 . S
C946 C947 1.369 . S
C946 C950 1.531 . S
C947 C946 1.369 . S
C947 C948 1.410 . S
C947 C955 1.503 . S
C948 C947 1.410 . S
C948 C949 1.392 . S
C948 C951 1.511 . S
C949 C945 1.376 . S
C949 C948 1.392 . S
C949 H961 0.929 . S
C950 C946 1.531 . S
C950 H962 0.960 . S
C950 H963 0.962 . S
C950 H964 0.960 . S
C951 C948 1.511 . S
C951 H965 0.961 . S
C951 H966 0.961 . S
C951 H967 0.961 . S
C952 C953 1.370 . S
C952 C954 1.363 . S
C952 H968 0.931 . S
C953 C952 1.370 . S
C953 C957 1.408 . S
C954 C952 1.363 . S
C954 C955 1.370 . S
C954 C958 1.524 . S
C955 C947 1.503 . S
C955 C954 1.370 . S
C955 C956 1.403 . S
C956 C955 1.403 . S
C956 C957 1.404 . S
C956 C959 1.539 . S
C957 C953 1.408 . S
C957 C956 1.404 . S
C957 H969 0.930 . S
C958 C954 1.524 . S
C958 H970 0.956 . S
C958 H971 0.961 . S
C958 H972 0.961 . S
C959 C956 1.539 . S
C959 H973 0.958 . S
C959 H974 0.961 . S
C959 H975 0.960 . S
H960 C944 0.931 . S
H961 C949 0.929 . S
H962 C950 0.960 . S
H963 C950 0.962 . S
H964 C950 0.960 . S
H965 C951 0.961 . S
H966 C951 0.961 . S
H967 C951 0.961 . S
H968 C952 0.931 . S
H969 C957 0.930 . S
H970 C958 0.956 . S
H971 C958 0.961 . S
H972 C958 0.961 . S
H973 C959 0.958 . S
H974 C959 0.961 . S
H975 C959 0.960 . S
C976 C977 1.391 . S
C976 C978 1.394 . S
C976 H992 0.931 . S
C977 C976 1.391 . S
C977 C981 1.376 . S
C978 C976 1.394 . S
C978 C979 1.369 . S
C978 C982 1.531 . S
C979 C978 1.369 . S
C979 C980 1.410 . S
C979 C987 1.503 . S
C980 C979 1.410 . S
C980 C981 1.392 . S
C980 C983 1.511 . S
C981 C977 1.376 . S
C981 C980 1.392 . S
C981 H993 0.929 . S
C982 C978 1.531 . S
C982 H994 0.960 . S
C982 H995 0.962 . S
C982 H996 0.960 . S
C983 C980 1.511 . S
C983 H997 0.961 . S
C983 H998 0.961 . S
C983 H999 0.961 . S
C984 C985 1.370 . S
C984 C986 1.363 . S
C984 H1000 0.931 . S
C985 C984 1.370 . S
C985 C989 1.408 . S
C986 C984 1.363 . S
C986 C987 1.370 . S
C986 C990 1.524 . S
C987 C979 1.503 . S
C987 C986 1.370 . S
C987 C988 1.403 . S
C988 C987 1.403 . S
C988 C989 1.404 . S
C988 C991 1.539 . S
C989 C985 1.408 . S
C989 C988 1.404 . S
C989 H1001 0.930 . S
C990 C986 1.524 . S
C990 H1002 0.956 . S
C990 H1003 0.961 . S
C990 H1004 0.961 . S
C991 C988 1.539 . S
C991 H1005 0.958 . S
C991 H1006 0.961 . S
C991 H1007 0.960 . S
H992 C976 0.931 . S
H993 C981 0.929 . S
H994 C982 0.960 . S
H995 C982 0.962 . S
H996 C982 0.960 . S
H997 C983 0.961 . S
H998 C983 0.961 . S
H999 C983 0.961 . S
H1000 C984 0.931 . S
H1001 C989 0.930 . S
H1002 C990 0.956 . S
H1003 C990 0.961 . S
H1004 C990 0.961 . S
H1005 C991 0.958 . S
H1006 C991 0.961 . S
H1007 C991 0.960 . S
C1008 C1009 1.391 . S
C1008 C1010 1.394 . S
C1008 H1024 0.931 . S
C1009 C1008 1.391 . S
C1009 C1013 1.376 . S
C1010 C1008 1.394 . S
C1010 C1011 1.369 . S
C1010 C1014 1.531 . S
C1011 C1010 1.369 . S
C1011 C1012 1.410 . S
C1011 C1019 1.503 . S
C1012 C1011 1.410 . S
C1012 C1013 1.392 . S
C1012 C1015 1.511 . S
C1013 C1009 1.376 . S
C1013 C1012 1.392 . S
C1013 H1025 0.929 . S
C1014 C1010 1.531 . S
C1014 H1026 0.960 . S
C1014 H1027 0.962 . S
C1014 H1028 0.960 . S
C1015 C1012 1.511 . S
C1015 H1029 0.961 . S
C1015 H1030 0.961 . S
C1015 H1031 0.961 . S
C1016 C1017 1.370 . S
C1016 C1018 1.363 . S
C1016 H1032 0.931 . S
C1017 C1016 1.370 . S
C1017 C1021 1.408 . S
C1018 C1016 1.363 . S
C1018 C1019 1.370 . S
C1018 C1022 1.524 . S
C1019 C1011 1.503 . S
C1019 C1018 1.370 . S
C1019 C1020 1.403 . S
C1020 C1019 1.403 . S
C1020 C1021 1.404 . S
C1020 C1023 1.539 . S
C1021 C1017 1.408 . S
C1021 C1020 1.404 . S
C1021 H1033 0.930 . S
C1022 C1018 1.524 . S
C1022 H1034 0.956 . S
C1022 H1035 0.961 . S
C1022 H1036 0.961 . S
C1023 C1020 1.539 . S
C1023 H1037 0.958 . S
C1023 H1038 0.961 . S
C1023 H1039 0.960 . S
H1024 C1008 0.931 . S
H1025 C1013 0.929 . S
H1026 C1014 0.960 . S
H1027 C1014 0.962 . S
H1028 C1014 0.960 . S
H1029 C1015 0.961 . S
H1030 C1015 0.961 . S
H1031 C1015 0.961 . S
H1032 C1016 0.931 . S
H1033 C1021 0.930 . S
H1034 C1022 0.956 . S
H1035 C1022 0.961 . S
H1036 C1022 0.961 . S
H1037 C1023 0.958 . S
H1038 C1023 0.961 . S
H1039 C1023 0.960 . S
C1040 C1041 1.391 . S
C1040 C1042 1.394 . S
C1040 H1056 0.931 . S
C1041 C1040 1.391 . S
C1041 C1045 1.376 . S
C1042 C1040 1.394 . S
C1042 C1043 1.369 . S
C1042 C1046 1.531 . S
C1043 C1042 1.369 . S
C1043 C1044 1.410 . S
C1043 C1051 1.503 1_554 S
C1044 C1043 1.410 . S
C1044 C1045 1.392 . S
C1044 C1047 1.511 . S
C1045 C1041 1.376 . S
C1045 C1044 1.392 . S
C1045 H1057 0.929 . S
C1046 C1042 1.531 . S
C1046 H1058 0.960 . S
C1046 H1059 0.962 . S
C1046 H1060 0.960 . S
C1047 C1044 1.511 . S
C1047 H1061 0.961 . S
C1047 H1062 0.961 1_554 S
C1047 H1063 0.961 . S
C1048 C1049 1.370 . S
C1048 C1050 1.363 . S
C1048 H1064 0.931 . S
C1049 C1048 1.370 . S
C1049 C1053 1.408 . S
C1050 C1048 1.363 . S
C1050 C1051 1.370 . S
C1050 C1054 1.524 . S
C1051 C1043 1.503 1_556 S
C1051 C1050 1.370 . S
C1051 C1052 1.403 . S
C1052 C1051 1.403 . S
C1052 C1053 1.404 . S
C1052 C1055 1.539 . S
C1053 C1049 1.408 . S
C1053 C1052 1.404 . S
C1053 H1065 0.930 . S
C1054 C1050 1.524 . S
C1054 H1066 0.956 . S
C1054 H1067 0.961 . S
C1054 H1068 0.961 . S
C1055 C1052 1.539 . S
C1055 H1069 0.958 . S
C1055 H1070 0.961 . S
C1055 H1071 0.960 1_556 S
H1056 C1040 0.931 . S
H1057 C1045 0.929 . S
H1058 C1046 0.960 . S
H1059 C1046 0.962 . S
H1060 C1046 0.960 . S
H1061 C1047 0.961 . S
H1062 C1047 0.961 1_556 S
H1063 C1047 0.961 . S
H1064 C1048 0.931 . S
H1065 C1053 0.930 . S
H1066 C1054 0.956 . S
H1067 C1054 0.961 . S
H1068 C1054 0.961 . S
H1069 C1055 0.958 . S
H1070 C1055 0.961 . S
H1071 C1055 0.960 1_554 S
C1072 C1073 1.391 . S
C1072 C1074 1.394 . S
C1072 H1088 0.931 . S
C1073 C1072 1.391 . S
C1073 C1077 1.376 . S
C1074 C1072 1.394 . S
C1074 C1075 1.369 . S
C1074 C1078 1.531 . S
C1075 C1074 1.369 . S
C1075 C1076 1.410 . S
C1075 C1083 1.503 . S
C1076 C1075 1.410 . S
C1076 C1077 1.392 . S
C1076 C1079 1.511 . S
C1077 C1073 1.376 . S
C1077 C1076 1.392 . S
C1077 H1089 0.929 . S
C1078 C1074 1.531 . S
C1078 H1090 0.960 . S
C1078 H1091 0.962 . S
C1078 H1092 0.960 . S
C1079 C1076 1.511 . S
C1079 H1093 0.961 . S
C1079 H1094 0.961 . S
C1079 H1095 0.961 . S
C1080 C1081 1.370 . S
C1080 C1082 1.363 . S
C1080 H1096 0.931 . S
C1081 C1080 1.370 . S
C1081 C1085 1.408 . S
C1082 C1080 1.363 . S
C1082 C1083 1.370 . S
C1082 C1086 1.524 . S
C1083 C1075 1.503 . S
C1083 C1082 1.370 . S
C1083 C1084 1.403 . S
C1084 C1083 1.403 . S
C1084 C1085 1.404 . S
C1084 C1087 1.539 . S
C1085 C1081 1.408 . S
C1085 C1084 1.404 . S
C1085 H1097 0.930 . S
C1086 C1082 1.524 . S
C1086 H1098 0.956 . S
C1086 H1099 0.961 . S
C1086 H1100 0.961 . S
C1087 C1084 1.539 . S
C1087 H1101 0.958 . S
C1087 H1102 0.961 . S
C1087 H1103 0.960 . S
H1088 C1072 0.931 . S
H1089 C1077 0.929 . S
H1090 C1078 0.960 . S
H1091 C1078 0.962 . S
H1092 C1078 0.960 . S
H1093 C1079 0.961 . S
H1094 C1079 0.961 . S
H1095 C1079 0.961 . S
H1096 C1080 0.931 . S
H1097 C1085 0.930 . S
H1098 C1086 0.956 . S
H1099 C1086 0.961 . S
H1100 C1086 0.961 . S
H1101 C1087 0.958 . S
H1102 C1087 0.961 . S
H1103 C1087 0.960 . S
C1104 C1105 1.391 . S
C1104 C1106 1.394 . S
C1104 H1120 0.931 . S
C1105 C1104 1.391 . S
C1105 C1109 1.376 . S
C1106 C1104 1.394 . S
C1106 C1107 1.369 . S
C1106 C1110 1.531 . S
C1107 C1106 1.369 . S
C1107 C1108 1.410 . S
C1107 C1115 1.503 1_556 S
C1108 C1107 1.410 . S
C1108 C1109 1.392 . S
C1108 C1111 1.511 . S
C1109 C1105 1.376 . S
C1109 C1108 1.392 . S
C1109 H1121 0.929 . S
C1110 C1106 1.531 . S
C1110 H1122 0.960 1_556 S
C1110 H1123 0.962 . S
C1110 H1124 0.960 . S
C1111 C1108 1.511 . S
C1111 H1125 0.961 . S
C1111 H1126 0.982 . S
C1111 H1127 0.961 . S
C1112 C1113 1.370 . S
C1112 C1114 1.363 . S
C1112 H1128 0.931 . S
C1113 C1112 1.370 . S
C1113 C1117 1.408 . S
C1114 C1112 1.363 . S
C1114 C1115 1.370 . S
C1114 C1118 1.524 . S
C1115 C1107 1.503 1_554 S
C1115 C1114 1.370 . S
C1115 C1116 1.403 . S
C1116 C1115 1.403 . S
C1116 C1117 1.404 . S
C1116 C1119 1.539 . S
C1117 C1113 1.408 . S
C1117 C1116 1.404 . S
C1117 H1129 0.930 . S
C1118 C1114 1.524 . S
C1118 H1130 0.956 1_554 S
C1118 H1131 0.961 1_554 S
C1118 H1132 0.961 . S
C1119 C1116 1.539 . S
C1119 H1133 0.958 . S
C1119 H1134 0.961 . S
C1119 H1135 0.986 . S
H1120 C1104 0.931 . S
H1121 C1109 0.929 . S
H1122 C1110 0.960 1_554 S
H1123 C1110 0.962 . S
H1124 C1110 0.960 . S
H1125 C1111 0.961 . S
H1126 C1111 0.982 . S
H1127 C1111 0.961 . S
H1128 C1112 0.931 . S
H1129 C1117 0.930 . S
H1130 C1118 0.956 1_556 S
H1131 C1118 0.961 1_556 S
H1132 C1118 0.961 . S
H1133 C1119 0.958 . S
H1134 C1119 0.961 . S
H1135 C1119 0.986 . S
C1136 C1137 1.391 . S
C1136 C1138 1.394 . S
C1136 H1152 0.931 . S
C1137 C1136 1.391 . S
C1137 C1141 1.376 . S
C1138 C1136 1.394 . S
C1138 C1139 1.369 . S
C1138 C1142 1.531 . S
C1139 C1138 1.369 . S
C1139 C1140 1.410 . S
C1139 C1147 1.503 . S
C1140 C1139 1.410 . S
C1140 C1141 1.392 . S
C1140 C1143 1.511 . S
C1141 C1137 1.376 . S
C1141 C1140 1.392 . S
C1141 H1153 0.929 . S
C1142 C1138 1.531 . S
C1142 H1154 0.960 . S
C1142 H1155 0.962 . S
C1142 H1156 0.960 . S
C1143 C1140 1.511 . S
C1143 H1157 0.961 . S
C1143 H1158 0.961 . S
C1143 H1159 0.961 . S
C1144 C1145 1.370 . S
C1144 C1146 1.363 . S
C1144 H1160 0.931 . S
C1145 C1144 1.370 . S
C1145 C1149 1.408 . S
C1146 C1144 1.363 . S
C1146 C1147 1.370 . S
C1146 C1150 1.524 . S
C1147 C1139 1.503 . S
C1147 C1146 1.370 . S
C1147 C1148 1.403 . S
C1148 C1147 1.403 . S
C1148 C1149 1.404 . S
C1148 C1151 1.539 . S
C1149 C1145 1.408 . S
C1149 C1148 1.404 . S
C1149 H1161 0.930 . S
C1150 C1146 1.524 . S
C1150 H1162 0.956 . S
C1150 H1163 0.961 . S
C1150 H1164 0.961 . S
C1151 C1148 1.539 . S
C1151 H1165 0.958 . S
C1151 H1166 0.961 . S
C1151 H1167 0.960 . S
H1152 C1136 0.931 . S
H1153 C1141 0.929 . S
H1154 C1142 0.960 . S
H1155 C1142 0.962 . S
H1156 C1142 0.960 . S
H1157 C1143 0.961 . S
H1158 C1143 0.961 . S
H1159 C1143 0.961 . S
H1160 C1144 0.931 . S
H1161 C1149 0.930 . S
H1162 C1150 0.956 . S
H1163 C1150 0.961 . S
H1164 C1150 0.961 . S
H1165 C1151 0.958 . S
H1166 C1151 0.961 . S
H1167 C1151 0.960 . S
C1168 C1169 1.391 . S
C1168 C1170 1.394 . S
C1168 H1184 0.931 . S
C1169 C1168 1.391 . S
C1169 C1173 1.376 . S
C1170 C1168 1.394 . S
C1170 C1171 1.369 . S
C1170 C1174 1.531 . S
C1171 C1170 1.369 . S
C1171 C1172 1.410 . S
C1171 C1179 1.503 1_556 S
C1172 C1171 1.410 . S
C1172 C1173 1.392 . S
C1172 C1175 1.511 . S
C1173 C1169 1.376 . S
C1173 C1172 1.392 . S
C1173 H1185 0.929 . S
C1174 C1170 1.531 . S
C1174 H1186 0.960 . S
C1174 H1187 0.962 . S
C1174 H1188 0.960 . S
C1175 C1172 1.511 . S
C1175 H1189 0.961 . S
C1175 H1190 0.961 1_556 S
C1175 H1191 0.961 . S
C1176 C1177 1.370 . S
C1176 C1178 1.363 . S
C1176 H1192 0.931 . S
C1177 C1176 1.370 . S
C1177 C1181 1.408 . S
C1178 C1176 1.363 . S
C1178 C1179 1.370 . S
C1178 C1182 1.524 . S
C1179 C1171 1.503 1_554 S
C1179 C1178 1.370 . S
C1179 C1180 1.403 . S
C1180 C1179 1.403 . S
C1180 C1181 1.404 . S
C1180 C1183 1.539 . S
C1181 C1177 1.408 . S
C1181 C1180 1.404 . S
C1181 H1193 0.930 . S
C1182 C1178 1.524 . S
C1182 H1194 0.956 . S
C1182 H1195 0.961 . S
C1182 H1196 0.961 . S
C1183 C1180 1.539 . S
C1183 H1197 0.958 . S
C1183 H1198 0.961 . S
C1183 H1199 0.960 1_554 S
H1184 C1168 0.931 . S
H1185 C1173 0.929 . S
H1186 C1174 0.960 . S
H1187 C1174 0.962 . S
H1188 C1174 0.960 . S
H1189 C1175 0.961 . S
H1190 C1175 0.961 1_554 S
H1191 C1175 0.961 . S
H1192 C1176 0.931 . S
H1193 C1181 0.930 . S
H1194 C1182 0.956 . S
H1195 C1182 0.961 . S
H1196 C1182 0.961 . S
H1197 C1183 0.958 . S
H1198 C1183 0.961 . S
H1199 C1183 0.960 1_556 S
C1200 C1201 1.391 . S
C1200 C1202 1.394 . S
C1200 H1216 0.931 . S
C1201 C1200 1.391 . S
C1201 C1205 1.376 . S
C1202 C1200 1.394 . S
C1202 C1203 1.369 . S
C1202 C1206 1.531 . S
C1203 C1202 1.369 . S
C1203 C1204 1.410 . S
C1203 C1211 1.503 . S
C1204 C1203 1.410 . S
C1204 C1205 1.392 . S
C1204 C1207 1.511 . S
C1205 C1201 1.376 . S
C1205 C1204 1.392 . S
C1205 H1217 0.929 . S
C1206 C1202 1.531 . S
C1206 H1218 0.960 . S
C1206 H1219 0.962 . S
C1206 H1220 0.960 . S
C1207 C1204 1.511 . S
C1207 H1221 0.961 . S
C1207 H1222 0.961 . S
C1207 H1223 0.961 . S
C1208 C1209 1.370 . S
C1208 C1210 1.363 . S
C1208 H1224 0.931 . S
C1209 C1208 1.370 . S
C1209 C1213 1.408 . S
C1210 C1208 1.363 . S
C1210 C1211 1.370 . S
C1210 C1214 1.524 . S
C1211 C1203 1.503 . S
C1211 C1210 1.370 . S
C1211 C1212 1.403 . S
C1212 C1211 1.403 . S
C1212 C1213 1.404 . S
C1212 C1215 1.539 . S
C1213 C1209 1.408 . S
C1213 C1212 1.404 . S
C1213 H1225 0.930 . S
C1214 C1210 1.524 . S
C1214 H1226 0.956 . S
C1214 H1227 0.961 . S
C1214 H1228 0.961 . S
C1215 C1212 1.539 . S
C1215 H1229 0.958 . S
C1215 H1230 0.961 . S
C1215 H1231 0.960 . S
H1216 C1200 0.931 . S
H1217 C1205 0.929 . S
H1218 C1206 0.960 . S
H1219 C1206 0.962 . S
H1220 C1206 0.960 . S
H1221 C1207 0.961 . S
H1222 C1207 0.961 . S
H1223 C1207 0.961 . S
H1224 C1208 0.931 . S
H1225 C1213 0.930 . S
H1226 C1214 0.956 . S
H1227 C1214 0.961 . S
H1228 C1214 0.961 . S
H1229 C1215 0.958 . S
H1230 C1215 0.961 . S
H1231 C1215 0.960 . S
C1232 C1233 1.391 . S
C1232 C1234 1.394 . S
C1232 H1248 0.931 . S
C1233 C1232 1.391 . S
C1233 C1237 1.376 . S
C1234 C1232 1.394 . S
C1234 C1235 1.369 . S
C1234 C1238 1.531 . S
C1235 C1234 1.369 . S
C1235 C1236 1.410 . S
C1235 C1243 1.503 1_554 S
C1236 C1235 1.410 . S
C1236 C1237 1.392 . S
C1236 C1239 1.511 . S
C1237 C1233 1.376 . S
C1237 C1236 1.392 . S
C1237 H1249 0.929 . S
C1238 C1234 1.531 . S
C1238 H1250 0.950 1_554 S
C1238 H1251 0.962 . S
C1238 H1252 0.960 . S
C1239 C1236 1.511 . S
C1239 H1253 0.961 . S
C1239 H1254 0.997 . S
C1239 H1255 0.961 . S
C1240 C1241 1.370 . S
C1240 C1242 1.363 . S
C1240 H1256 0.931 . S
C1241 C1240 1.370 . S
C1241 C1245 1.408 . S
C1242 C1240 1.363 . S
C1242 C1243 1.370 . S
C1242 C1246 1.524 . S
C1243 C1235 1.503 1_556 S
C1243 C1242 1.370 . S
C1243 C1244 1.403 . S
C1244 C1243 1.403 . S
C1244 C1245 1.404 . S
C1244 C1247 1.539 . S
C1245 C1241 1.408 . S
C1245 C1244 1.404 . S
C1245 H1257 0.930 . S
C1246 C1242 1.524 . S
C1246 H1258 0.956 1_556 S
C1246 H1259 0.961 1_556 S
C1246 H1260 0.961 . S
C1247 C1244 1.539 . S
C1247 H1261 0.958 . S
C1247 H1262 0.961 . S
C1247 H1263 0.962 1_556 S
H1248 C1232 0.931 . S
H1249 C1237 0.929 . S
H1250 C1238 0.950 1_556 S
H1251 C1238 0.962 . S
H1252 C1238 0.960 . S
H1253 C1239 0.961 . S
H1254 C1239 0.997 . S
H1255 C1239 0.961 . S
H1256 C1240 0.931 . S
H1257 C1245 0.930 . S
H1258 C1246 0.956 1_554 S
H1259 C1246 0.961 1_554 S
H1260 C1246 0.961 . S
H1261 C1247 0.958 . S
H1262 C1247 0.961 . S
H1263 C1247 0.962 1_554 S
C1264 C1265 1.391 . S
C1264 C1266 1.394 . S
C1264 H1280 0.931 . S
C1265 C1264 1.391 . S
C1265 C1269 1.376 . S
C1266 C1264 1.394 . S
C1266 C1267 1.369 . S
C1266 C1270 1.531 . S
C1267 C1266 1.369 . S
C1267 C1268 1.410 . S
C1267 C1275 1.503 . S
C1268 C1267 1.410 . S
C1268 C1269 1.392 . S
C1268 C1271 1.511 . S
C1269 C1265 1.376 . S
C1269 C1268 1.392 . S
C1269 H1281 0.929 . S
C1270 C1266 1.531 . S
C1270 H1282 0.960 . S
C1270 H1283 0.962 . S
C1270 H1284 0.960 . S
C1271 C1268 1.511 . S
C1271 H1285 0.961 . S
C1271 H1286 0.961 . S
C1271 H1287 0.961 . S
C1272 C1273 1.370 . S
C1272 C1274 1.363 . S
C1272 H1288 0.931 . S
C1273 C1272 1.370 . S
C1273 C1277 1.408 . S
C1274 C1272 1.363 . S
C1274 C1275 1.370 . S
C1274 C1278 1.524 . S
C1275 C1267 1.503 . S
C1275 C1274 1.370 . S
C1275 C1276 1.403 . S
C1276 C1275 1.403 . S
C1276 C1277 1.404 . S
C1276 C1279 1.539 . S
C1277 C1273 1.408 . S
C1277 C1276 1.404 . S
C1277 H1289 0.930 . S
C1278 C1274 1.524 . S
C1278 H1290 0.956 . S
C1278 H1291 0.961 . S
C1278 H1292 0.961 . S
C1279 C1276 1.539 . S
C1279 H1293 0.958 . S
C1279 H1294 0.961 . S
C1279 H1295 0.960 . S
H1280 C1264 0.931 . S
H1281 C1269 0.929 . S
H1282 C1270 0.960 . S
H1283 C1270 0.962 . S
H1284 C1270 0.960 . S
H1285 C1271 0.961 . S
H1286 C1271 0.961 . S
H1287 C1271 0.961 . S
H1288 C1272 0.931 . S
H1289 C1277 0.930 . S
H1290 C1278 0.956 . S
H1291 C1278 0.961 . S
H1292 C1278 0.961 . S
H1293 C1279 0.958 . S
H1294 C1279 0.961 . S
H1295 C1279 0.960 . S
C1296 C1297 1.391 . S
C1296 C1298 1.394 . S
C1296 H1312 0.931 . S
C1297 C1296 1.391 . S
C1297 C1301 1.376 . S
C1298 C1296 1.394 . S
C1298 C1299 1.369 . S
C1298 C1302 1.531 . S
C1299 C1298 1.369 . S
C1299 C1300 1.410 . S
C1299 C1307 1.503 . S
C1300 C1299 1.410 . S
C1300 C1301 1.392 . S
C1300 C1303 1.511 . S
C1301 C1297 1.376 . S
C1301 C1300 1.392 . S
C1301 H1313 0.929 . S
C1302 C1298 1.531 . S
C1302 H1314 0.960 . S
C1302 H1315 0.962 . S
C1302 H1316 0.960 . S
C1303 C1300 1.511 . S
C1303 H1317 0.961 . S
C1303 H1318 0.961 . S
C1303 H1319 0.961 . S
C1304 C1305 1.370 . S
C1304 C1306 1.363 . S
C1304 H1320 0.931 . S
C1305 C1304 1.370 . S
C1305 C1309 1.408 . S
C1306 C1304 1.363 . S
C1306 C1307 1.370 . S
C1306 C1310 1.524 . S
C1307 C1299 1.503 . S
C1307 C1306 1.370 . S
C1307 C1308 1.403 . S
C1308 C1307 1.403 . S
C1308 C1309 1.404 . S
C1308 C1311 1.539 . S
C1309 C1305 1.408 . S
C1309 C1308 1.404 . S
C1309 H1321 0.930 . S
C1310 C1306 1.524 . S
C1310 H1322 0.956 . S
C1310 H1323 0.961 . S
C1310 H1324 0.961 . S
C1311 C1308 1.539 . S
C1311 H1325 0.958 . S
C1311 H1326 0.961 . S
C1311 H1327 0.960 . S
H1312 C1296 0.931 . S
H1313 C1301 0.929 . S
H1314 C1302 0.960 . S
H1315 C1302 0.962 . S
H1316 C1302 0.960 . S
H1317 C1303 0.961 . S
H1318 C1303 0.961 . S
H1319 C1303 0.961 . S
H1320 C1304 0.931 . S
H1321 C1309 0.930 . S
H1322 C1310 0.956 . S
H1323 C1310 0.961 . S
H1324 C1310 0.961 . S
H1325 C1311 0.958 . S
H1326 C1311 0.961 . S
H1327 C1311 0.960 . S
C1328 C1329 1.391 . S
C1328 C1330 1.394 . S
C1328 H1344 0.931 . S
C1329 C1328 1.391 . S
C1329 C1333 1.376 . S
C1330 C1328 1.394 . S
C1330 C1331 1.369 . S
C1330 C1334 1.531 . S
C1331 C1330 1.369 . S
C1331 C1332 1.410 . S
C1331 C1339 1.503 . S
C1332 C1331 1.410 . S
C1332 C1333 1.392 . S
C1332 C1335 1.511 . S
C1333 C1329 1.376 . S
C1333 C1332 1.392 . S
C1333 H1345 0.929 . S
C1334 C1330 1.531 . S
C1334 H1346 0.960 . S
C1334 H1347 0.962 . S
C1334 H1348 0.960 . S
C1335 C1332 1.511 . S
C1335 H1349 0.961 . S
C1335 H1350 0.961 . S
C1335 H1351 0.961 . S
C1336 C1337 1.370 . S
C1336 C1338 1.363 . S
C1336 H1352 0.931 . S
C1337 C1336 1.370 . S
C1337 C1341 1.408 . S
C1338 C1336 1.363 . S
C1338 C1339 1.370 . S
C1338 C1342 1.524 . S
C1339 C1331 1.503 . S
C1339 C1338 1.370 . S
C1339 C1340 1.403 . S
C1340 C1339 1.403 . S
C1340 C1341 1.404 . S
C1340 C1343 1.539 . S
C1341 C1337 1.408 . S
C1341 C1340 1.404 . S
C1341 H1353 0.930 . S
C1342 C1338 1.524 . S
C1342 H1354 0.956 . S
C1342 H1355 0.961 . S
C1342 H1356 0.961 . S
C1343 C1340 1.539 . S
C1343 H1357 0.958 . S
C1343 H1358 0.961 . S
C1343 H1359 0.960 . S
H1344 C1328 0.931 . S
H1345 C1333 0.929 . S
H1346 C1334 0.960 . S
H1347 C1334 0.962 . S
H1348 C1334 0.960 . S
H1349 C1335 0.961 . S
H1350 C1335 0.961 . S
H1351 C1335 0.961 . S
H1352 C1336 0.931 . S
H1353 C1341 0.930 . S
H1354 C1342 0.956 . S
H1355 C1342 0.961 . S
H1356 C1342 0.961 . S
H1357 C1343 0.958 . S
H1358 C1343 0.961 . S
H1359 C1343 0.960 . S
C1360 C1361 1.391 . S
C1360 C1362 1.394 . S
C1360 H1376 0.931 . S
C1361 C1360 1.391 . S
C1361 C1365 1.376 . S
C1362 C1360 1.394 . S
C1362 C1363 1.369 . S
C1362 C1366 1.531 . S
C1363 C1362 1.369 . S
C1363 C1364 1.410 . S
C1363 C1371 1.503 . S
C1364 C1363 1.410 . S
C1364 C1365 1.392 . S
C1364 C1367 1.511 . S
C1365 C1361 1.376 . S
C1365 C1364 1.392 . S
C1365 H1377 0.929 . S
C1366 C1362 1.531 . S
C1366 H1378 0.960 . S
C1366 H1379 0.962 . S
C1366 H1380 0.960 . S
C1367 C1364 1.511 . S
C1367 H1381 0.961 . S
C1367 H1382 0.961 . S
C1367 H1383 0.961 . S
C1368 C1369 1.370 . S
C1368 C1370 1.363 . S
C1368 H1384 0.931 . S
C1369 C1368 1.370 . S
C1369 C1373 1.408 . S
C1370 C1368 1.363 . S
C1370 C1371 1.370 . S
C1370 C1374 1.524 . S
C1371 C1363 1.503 . S
C1371 C1370 1.370 . S
C1371 C1372 1.403 . S
C1372 C1371 1.403 . S
C1372 C1373 1.404 . S
C1372 C1375 1.539 . S
C1373 C1369 1.408 . S
C1373 C1372 1.404 . S
C1373 H1385 0.930 . S
C1374 C1370 1.524 . S
C1374 H1386 0.956 . S
C1374 H1387 0.961 . S
C1374 H1388 0.961 . S
C1375 C1372 1.539 . S
C1375 H1389 0.958 . S
C1375 H1390 0.961 . S
C1375 H1391 0.960 . S
H1376 C1360 0.931 . S
H1377 C1365 0.929 . S
H1378 C1366 0.960 . S
H1379 C1366 0.962 . S
H1380 C1366 0.960 . S
H1381 C1367 0.961 . S
H1382 C1367 0.961 . S
H1383 C1367 0.961 . S
H1384 C1368 0.931 . S
H1385 C1373 0.930 . S
H1386 C1374 0.956 . S
H1387 C1374 0.961 . S
H1388 C1374 0.961 . S
H1389 C1375 0.958 . S
H1390 C1375 0.961 . S
H1391 C1375 0.960 . S
C1392 C1393 1.391 . S
C1392 C1394 1.394 . S
C1392 H1408 0.931 . S
C1393 C1392 1.391 . S
C1393 C1397 1.376 . S
C1394 C1392 1.394 . S
C1394 C1395 1.369 . S
C1394 C1398 1.531 . S
C1395 C1394 1.369 . S
C1395 C1396 1.410 . S
C1395 C1403 1.503 . S
C1396 C1395 1.410 . S
C1396 C1397 1.392 . S
C1396 C1399 1.511 . S
C1397 C1393 1.376 . S
C1397 C1396 1.392 . S
C1397 H1409 0.929 . S
C1398 C1394 1.531 . S
C1398 H1410 0.960 . S
C1398 H1411 0.962 . S
C1398 H1412 0.960 . S
C1399 C1396 1.511 . S
C1399 H1413 0.961 . S
C1399 H1414 0.961 . S
C1399 H1415 0.961 . S
C1400 C1401 1.370 . S
C1400 C1402 1.363 . S
C1400 H1416 0.931 . S
C1401 C1400 1.370 . S
C1401 C1405 1.408 . S
C1402 C1400 1.363 . S
C1402 C1403 1.370 . S
C1402 C1406 1.524 . S
C1403 C1395 1.503 . S
C1403 C1402 1.370 . S
C1403 C1404 1.403 . S
C1404 C1403 1.403 . S
C1404 C1405 1.404 . S
C1404 C1407 1.539 . S
C1405 C1401 1.408 . S
C1405 C1404 1.404 . S
C1405 H1417 0.930 . S
C1406 C1402 1.524 . S
C1406 H1418 0.956 . S
C1406 H1419 0.961 . S
C1406 H1420 0.961 . S
C1407 C1404 1.539 . S
C1407 H1421 0.958 . S
C1407 H1422 0.961 . S
C1407 H1423 0.960 . S
H1408 C1392 0.931 . S
H1409 C1397 0.929 . S
H1410 C1398 0.960 . S
H1411 C1398 0.962 . S
H1412 C1398 0.960 . S
H1413 C1399 0.961 . S
H1414 C1399 0.961 . S
H1415 C1399 0.961 . S
H1416 C1400 0.931 . S
H1417 C1405 0.930 . S
H1418 C1406 0.956 . S
H1419 C1406 0.961 . S
H1420 C1406 0.961 . S
H1421 C1407 0.958 . S
H1422 C1407 0.961 . S
H1423 C1407 0.960 . S
C1424 C1425 1.391 . S
C1424 C1426 1.394 . S
C1424 H1440 0.931 . S
C1425 C1424 1.391 . S
C1425 C1429 1.376 . S
C1426 C1424 1.394 . S
C1426 C1427 1.369 . S
C1426 C1430 1.531 . S
C1427 C1426 1.369 . S
C1427 C1428 1.410 . S
C1427 C1435 1.503 . S
C1428 C1427 1.410 . S
C1428 C1429 1.392 . S
C1428 C1431 1.511 . S
C1429 C1425 1.376 . S
C1429 C1428 1.392 . S
C1429 H1441 0.929 . S
C1430 C1426 1.531 . S
C1430 H1442 0.960 . S
C1430 H1443 0.962 . S
C1430 H1444 0.960 . S
C1431 C1428 1.511 . S
C1431 H1445 0.961 . S
C1431 H1446 0.961 . S
C1431 H1447 0.961 . S
C1432 C1433 1.370 . S
C1432 C1434 1.363 . S
C1432 H1448 0.931 . S
C1433 C1432 1.370 . S
C1433 C1437 1.408 . S
C1434 C1432 1.363 . S
C1434 C1435 1.370 . S
C1434 C1438 1.524 . S
C1435 C1427 1.503 . S
C1435 C1434 1.370 . S
C1435 C1436 1.403 . S
C1436 C1435 1.403 . S
C1436 C1437 1.404 . S
C1436 C1439 1.539 . S
C1437 C1433 1.408 . S
C1437 C1436 1.404 . S
C1437 H1449 0.930 . S
C1438 C1434 1.524 . S
C1438 H1450 0.956 . S
C1438 H1451 0.961 . S
C1438 H1452 0.961 . S
C1439 C1436 1.539 . S
C1439 H1453 0.958 . S
C1439 H1454 0.961 . S
C1439 H1455 0.960 . S
H1440 C1424 0.931 . S
H1441 C1429 0.929 . S
H1442 C1430 0.960 . S
H1443 C1430 0.962 . S
H1444 C1430 0.960 . S
H1445 C1431 0.961 . S
H1446 C1431 0.961 . S
H1447 C1431 0.961 . S
H1448 C1432 0.931 . S
H1449 C1437 0.930 . S
H1450 C1438 0.956 . S
H1451 C1438 0.961 . S
H1452 C1438 0.961 . S
H1453 C1439 0.958 . S
H1454 C1439 0.961 . S
H1455 C1439 0.960 . S
C1456 C1457 1.391 . S
C1456 C1458 1.394 . S
C1456 H1472 0.931 . S
C1457 C1456 1.391 . S
C1457 C1461 1.376 . S
C1458 C1456 1.394 . S
C1458 C1459 1.369 . S
C1458 C1462 1.531 . S
C1459 C1458 1.369 . S
C1459 C1460 1.410 . S
C1459 C1467 1.503 . S
C1460 C1459 1.410 . S
C1460 C1461 1.392 . S
C1460 C1463 1.511 . S
C1461 C1457 1.376 . S
C1461 C1460 1.392 . S
C1461 H1473 0.929 . S
C1462 C1458 1.531 . S
C1462 H1474 0.960 . S
C1462 H1475 0.962 . S
C1462 H1476 0.960 . S
C1463 C1460 1.511 . S
C1463 H1477 0.961 . S
C1463 H1478 0.961 . S
C1463 H1479 0.961 . S
C1464 C1465 1.370 . S
C1464 C1466 1.363 . S
C1464 H1480 0.931 . S
C1465 C1464 1.370 . S
C1465 C1469 1.408 . S
C1466 C1464 1.363 . S
C1466 C1467 1.370 . S
C1466 C1470 1.524 . S
C1467 C1459 1.503 . S
C1467 C1466 1.370 . S
C1467 C1468 1.403 . S
C1468 C1467 1.403 . S
C1468 C1469 1.404 . S
C1468 C1471 1.539 . S
C1469 C1465 1.408 . S
C1469 C1468 1.404 . S
C1469 H1481 0.930 . S
C1470 C1466 1.524 . S
C1470 H1482 0.956 . S
C1470 H1483 0.961 . S
C1470 H1484 0.961 . S
C1471 C1468 1.539 . S
C1471 H1485 0.958 . S
C1471 H1486 0.961 . S
C1471 H1487 0.960 . S
H1472 C1456 0.931 . S
H1473 C1461 0.929 . S
H1474 C1462 0.960 . S
H1475 C1462 0.962 . S
H1476 C1462 0.960 . S
H1477 C1463 0.961 . S
H1478 C1463 0.961 . S
H1479 C1463 0.961 . S
H1480 C1464 0.931 . S
H1481 C1469 0.930 . S
H1482 C1470 0.956 . S
H1483 C1470 0.961 . S
H1484 C1470 0.961 . S
H1485 C1471 0.958 . S
H1486 C1471 0.961 . S
H1487 C1471 0.960 . S
C1488 C1489 1.391 . S
C1488 C1490 1.394 . S
C1488 H1504 0.931 . S
C1489 C1488 1.391 . S
C1489 C1493 1.376 . S
C1490 C1488 1.394 . S
C1490 C1491 1.369 . S
C1490 C1494 1.531 . S
C1491 C1490 1.369 . S
C1491 C1492 1.410 . S
C1491 C1499 1.503 . S
C1492 C1491 1.410 . S
C1492 C1493 1.392 . S
C1492 C1495 1.511 . S
C1493 C1489 1.376 . S
C1493 C1492 1.392 . S
C1493 H1505 0.929 . S
C1494 C1490 1.531 . S
C1494 H1506 0.960 . S
C1494 H1507 0.962 . S
C1494 H1508 0.960 . S
C1495 C1492 1.511 . S
C1495 H1509 0.961 . S
C1495 H1510 0.961 . S
C1495 H1511 0.961 . S
C1496 C1497 1.370 . S
C1496 C1498 1.363 . S
C1496 H1512 0.931 . S
C1497 C1496 1.370 . S
C1497 C1501 1.408 . S
C1498 C1496 1.363 . S
C1498 C1499 1.370 . S
C1498 C1502 1.524 . S
C1499 C1491 1.503 . S
C1499 C1498 1.370 . S
C1499 C1500 1.403 . S
C1500 C1499 1.403 . S
C1500 C1501 1.404 . S
C1500 C1503 1.539 . S
C1501 C1497 1.408 . S
C1501 C1500 1.404 . S
C1501 H1513 0.930 . S
C1502 C1498 1.524 . S
C1502 H1514 0.956 . S
C1502 H1515 0.961 . S
C1502 H1516 0.961 . S
C1503 C1500 1.539 . S
C1503 H1517 0.958 . S
C1503 H1518 0.961 . S
C1503 H1519 0.960 . S
H1504 C1488 0.931 . S
H1505 C1493 0.929 . S
H1506 C1494 0.960 . S
H1507 C1494 0.962 . S
H1508 C1494 0.960 . S
H1509 C1495 0.961 . S
H1510 C1495 0.961 . S
H1511 C1495 0.961 . S
H1512 C1496 0.931 . S
H1513 C1501 0.930 . S
H1514 C1502 0.956 . S
H1515 C1502 0.961 . S
H1516 C1502 0.961 . S
H1517 C1503 0.958 . S
H1518 C1503 0.961 . S
H1519 C1503 0.960 . S
C1520 C1521 1.391 . S
C1520 C1522 1.394 . S
C1520 H1536 0.931 . S
C1521 C1520 1.391 . S
C1521 C1525 1.376 . S
C1522 C1520 1.394 . S
C1522 C1523 1.369 . S
C1522 C1526 1.531 . S
C1523 C1522 1.369 . S
C1523 C1524 1.410 . S
C1523 C1531 1.503 . S
C1524 C1523 1.410 . S
C1524 C1525 1.392 . S
C1524 C1527 1.511 . S
C1525 C1521 1.376 . S
C1525 C1524 1.392 . S
C1525 H1537 0.929 . S
C1526 C1522 1.531 . S
C1526 H1538 0.960 . S
C1526 H1539 0.962 . S
C1526 H1540 0.960 . S
C1527 C1524 1.511 . S
C1527 H1541 0.961 . S
C1527 H1542 0.961 . S
C1527 H1543 0.961 . S
C1528 C1529 1.370 . S
C1528 C1530 1.363 . S
C1528 H1544 0.931 . S
C1529 C1528 1.370 . S
C1529 C1533 1.408 . S
C1530 C1528 1.363 . S
C1530 C1531 1.370 . S
C1530 C1534 1.524 . S
C1531 C1523 1.503 . S
C1531 C1530 1.370 . S
C1531 C1532 1.403 . S
C1532 C1531 1.403 . S
C1532 C1533 1.404 . S
C1532 C1535 1.539 . S
C1533 C1529 1.408 . S
C1533 C1532 1.404 . S
C1533 H1545 0.930 . S
C1534 C1530 1.524 . S
C1534 H1546 0.956 . S
C1534 H1547 0.961 . S
C1534 H1548 0.961 . S
C1535 C1532 1.539 . S
C1535 H1549 0.958 . S
C1535 H1550 0.961 . S
C1535 H1551 0.960 . S
H1536 C1520 0.931 . S
H1537 C1525 0.929 . S
H1538 C1526 0.960 . S
H1539 C1526 0.962 . S
H1540 C1526 0.960 . S
H1541 C1527 0.961 . S
H1542 C1527 0.961 . S
H1543 C1527 0.961 . S
H1544 C1528 0.931 . S
H1545 C1533 0.930 . S
H1546 C1534 0.956 . S
H1547 C1534 0.961 . S
H1548 C1534 0.961 . S
H1549 C1535 0.958 . S
H1550 C1535 0.961 . S
H1551 C1535 0.960 . S
C1552 C1553 1.391 . S
C1552 C1554 1.394 . S
C1552 H1568 0.931 . S
C1553 C1552 1.391 . S
C1553 C1557 1.376 . S
C1554 C1552 1.394 . S
C1554 C1555 1.369 . S
C1554 C1558 1.531 . S
C1555 C1554 1.369 . S
C1555 C1556 1.410 . S
C1555 C1563 1.503 . S
C1556 C1555 1.410 . S
C1556 C1557 1.392 . S
C1556 C1559 1.511 . S
C1557 C1553 1.376 . S
C1557 C1556 1.392 . S
C1557 H1569 0.929 . S
C1558 C1554 1.531 . S
C1558 H1570 0.960 . S
C1558 H1571 0.962 . S
C1558 H1572 0.960 . S
C1559 C1556 1.511 . S
C1559 H1573 0.961 . S
C1559 H1574 0.961 . S
C1559 H1575 0.961 . S
C1560 C1561 1.370 . S
C1560 C1562 1.363 . S
C1560 H1576 0.931 . S
C1561 C1560 1.370 . S
C1561 C1565 1.408 . S
C1562 C1560 1.363 . S
C1562 C1563 1.370 . S
C1562 C1566 1.524 . S
C1563 C1555 1.503 . S
C1563 C1562 1.370 . S
C1563 C1564 1.403 . S
C1564 C1563 1.403 . S
C1564 C1565 1.404 . S
C1564 C1567 1.539 . S
C1565 C1561 1.408 . S
C1565 C1564 1.404 . S
C1565 H1577 0.930 . S
C1566 C1562 1.524 . S
C1566 H1578 0.956 . S
C1566 H1579 0.961 . S
C1566 H1580 0.961 . S
C1567 C1564 1.539 . S
C1567 H1581 0.958 . S
C1567 H1582 0.961 . S
C1567 H1583 0.960 . S
H1568 C1552 0.931 . S
H1569 C1557 0.929 . S
H1570 C1558 0.960 . S
H1571 C1558 0.962 . S
H1572 C1558 0.960 . S
H1573 C1559 0.961 . S
H1574 C1559 0.961 . S
H1575 C1559 0.961 . S
H1576 C1560 0.931 . S
H1577 C1565 0.930 . S
H1578 C1566 0.956 . S
H1579 C1566 0.961 . S
H1580 C1566 0.961 . S
H1581 C1567 0.958 . S
H1582 C1567 0.961 . S
H1583 C1567 0.960 . S
C1584 C1585 1.391 . S
C1584 C1586 1.394 . S
C1584 H1600 0.931 . S
C1585 C1584 1.391 . S
C1585 C1589 1.376 . S
C1586 C1584 1.394 . S
C1586 C1587 1.369 . S
C1586 C1590 1.531 . S
C1587 C1586 1.369 . S
C1587 C1588 1.410 . S
C1587 C1595 1.503 . S
C1588 C1587 1.410 . S
C1588 C1589 1.392 . S
C1588 C1591 1.511 . S
C1589 C1585 1.376 . S
C1589 C1588 1.392 . S
C1589 H1601 0.929 . S
C1590 C1586 1.531 . S
C1590 H1602 0.960 . S
C1590 H1603 0.962 . S
C1590 H1604 0.960 . S
C1591 C1588 1.511 . S
C1591 H1605 0.961 . S
C1591 H1606 0.961 . S
C1591 H1607 0.961 . S
C1592 C1593 1.370 . S
C1592 C1594 1.363 . S
C1592 H1608 0.931 . S
C1593 C1592 1.370 . S
C1593 C1597 1.408 . S
C1594 C1592 1.363 . S
C1594 C1595 1.370 . S
C1594 C1598 1.524 . S
C1595 C1587 1.503 . S
C1595 C1594 1.370 . S
C1595 C1596 1.403 . S
C1596 C1595 1.403 . S
C1596 C1597 1.404 . S
C1596 C1599 1.539 . S
C1597 C1593 1.408 . S
C1597 C1596 1.404 . S
C1597 H1609 0.930 . S
C1598 C1594 1.524 . S
C1598 H1610 0.956 . S
C1598 H1611 0.961 . S
C1598 H1612 0.961 . S
C1599 C1596 1.539 . S
C1599 H1613 0.958 . S
C1599 H1614 0.961 . S
C1599 H1615 0.960 . S
H1600 C1584 0.931 . S
H1601 C1589 0.929 . S
H1602 C1590 0.960 . S
H1603 C1590 0.962 . S
H1604 C1590 0.960 . S
H1605 C1591 0.961 . S
H1606 C1591 0.961 . S
H1607 C1591 0.961 . S
H1608 C1592 0.931 . S
H1609 C1597 0.930 . S
H1610 C1598 0.956 . S
H1611 C1598 0.961 . S
H1612 C1598 0.961 . S
H1613 C1599 0.958 . S
H1614 C1599 0.961 . S
H1615 C1599 0.960 . S
C1616 C1617 1.391 . S
C1616 C1618 1.394 . S
C1616 H1632 0.931 . S
C1617 C1616 1.391 . S
C1617 C1621 1.376 . S
C1618 C1616 1.394 . S
C1618 C1619 1.369 . S
C1618 C1622 1.531 . S
C1619 C1618 1.369 . S
C1619 C1620 1.410 . S
C1619 C1627 1.503 . S
C1620 C1619 1.410 . S
C1620 C1621 1.392 . S
C1620 C1623 1.511 . S
C1621 C1617 1.376 . S
C1621 C1620 1.392 . S
C1621 H1633 0.929 . S
C1622 C1618 1.531 . S
C1622 H1634 0.960 . S
C1622 H1635 0.962 . S
C1622 H1636 0.960 . S
C1623 C1620 1.511 . S
C1623 H1637 0.961 . S
C1623 H1638 0.961 . S
C1623 H1639 0.961 . S
C1624 C1625 1.370 . S
C1624 C1626 1.363 . S
C1624 H1640 0.931 . S
C1625 C1624 1.370 . S
C1625 C1629 1.408 . S
C1626 C1624 1.363 . S
C1626 C1627 1.370 . S
C1626 C1630 1.524 . S
C1627 C1619 1.503 . S
C1627 C1626 1.370 . S
C1627 C1628 1.403 . S
C1628 C1627 1.403 . S
C1628 C1629 1.404 . S
C1628 C1631 1.539 . S
C1629 C1625 1.408 . S
C1629 C1628 1.404 . S
C1629 H1641 0.930 . S
C1630 C1626 1.524 . S
C1630 H1642 0.956 . S
C1630 H1643 0.961 . S
C1630 H1644 0.961 . S
C1631 C1628 1.539 . S
C1631 H1645 0.958 . S
C1631 H1646 0.961 . S
C1631 H1647 0.960 . S
H1632 C1616 0.931 . S
H1633 C1621 0.929 . S
H1634 C1622 0.960 . S
H1635 C1622 0.962 . S
H1636 C1622 0.960 . S
H1637 C1623 0.961 . S
H1638 C1623 0.961 . S
H1639 C1623 0.961 . S
H1640 C1624 0.931 . S
H1641 C1629 0.930 . S
H1642 C1630 0.956 . S
H1643 C1630 0.961 . S
H1644 C1630 0.961 . S
H1645 C1631 0.958 . S
H1646 C1631 0.961 . S
H1647 C1631 0.960 . S
C1648 C1649 1.391 . S
C1648 C1650 1.394 . S
C1648 H1664 0.931 . S
C1649 C1648 1.391 . S
C1649 C1653 1.376 . S
C1650 C1648 1.394 . S
C1650 C1651 1.369 . S
C1650 C1654 1.531 . S
C1651 C1650 1.369 . S
C1651 C1652 1.410 . S
C1651 C1659 1.503 . S
C1652 C1651 1.410 . S
C1652 C1653 1.392 . S
C1652 C1655 1.511 . S
C1653 C1649 1.376 . S
C1653 C1652 1.392 . S
C1653 H1665 0.929 . S
C1654 C1650 1.531 . S
C1654 H1666 0.960 . S
C1654 H1667 0.962 . S
C1654 H1668 0.960 . S
C1655 C1652 1.511 . S
C1655 H1669 0.961 . S
C1655 H1670 0.961 . S
C1655 H1671 0.961 . S
C1656 C1657 1.370 . S
C1656 C1658 1.363 . S
C1656 H1672 0.931 . S
C1657 C1656 1.370 . S
C1657 C1661 1.408 . S
C1658 C1656 1.363 . S
C1658 C1659 1.370 . S
C1658 C1662 1.524 . S
C1659 C1651 1.503 . S
C1659 C1658 1.370 . S
C1659 C1660 1.403 . S
C1660 C1659 1.403 . S
C1660 C1661 1.404 . S
C1660 C1663 1.539 . S
C1661 C1657 1.408 . S
C1661 C1660 1.404 . S
C1661 H1673 0.930 . S
C1662 C1658 1.524 . S
C1662 H1674 0.956 . S
C1662 H1675 0.961 . S
C1662 H1676 0.961 . S
C1663 C1660 1.539 . S
C1663 H1677 0.958 . S
C1663 H1678 0.961 . S
C1663 H1679 0.960 . S
H1664 C1648 0.931 . S
H1665 C1653 0.929 . S
H1666 C1654 0.960 . S
H1667 C1654 0.962 . S
H1668 C1654 0.960 . S
H1669 C1655 0.961 . S
H1670 C1655 0.961 . S
H1671 C1655 0.961 . S
H1672 C1656 0.931 . S
H1673 C1661 0.930 . S
H1674 C1662 0.956 . S
H1675 C1662 0.961 . S
H1676 C1662 0.961 . S
H1677 C1663 0.958 . S
H1678 C1663 0.961 . S
H1679 C1663 0.960 . S
C1680 C1681 1.391 . S
C1680 C1682 1.394 . S
C1680 H1696 0.931 . S
C1681 C1680 1.391 . S
C1681 C1685 1.376 . S
C1682 C1680 1.394 . S
C1682 C1683 1.369 . S
C1682 C1686 1.531 . S
C1683 C1682 1.369 . S
C1683 C1684 1.410 . S
C1683 C1691 1.503 . S
C1684 C1683 1.410 . S
C1684 C1685 1.392 . S
C1684 C1687 1.511 . S
C1685 C1681 1.376 . S
C1685 C1684 1.392 . S
C1685 H1697 0.929 . S
C1686 C1682 1.531 . S
C1686 H1698 0.960 . S
C1686 H1699 0.962 . S
C1686 H1700 0.960 . S
C1687 C1684 1.511 . S
C1687 H1701 0.961 . S
C1687 H1702 0.961 . S
C1687 H1703 0.961 . S
C1688 C1689 1.370 . S
C1688 C1690 1.363 . S
C1688 H1704 0.931 . S
C1689 C1688 1.370 . S
C1689 C1693 1.408 . S
C1690 C1688 1.363 . S
C1690 C1691 1.370 . S
C1690 C1694 1.524 . S
C1691 C1683 1.503 . S
C1691 C1690 1.370 . S
C1691 C1692 1.403 . S
C1692 C1691 1.403 . S
C1692 C1693 1.404 . S
C1692 C1695 1.539 . S
C1693 C1689 1.408 . S
C1693 C1692 1.404 . S
C1693 H1705 0.930 . S
C1694 C1690 1.524 . S
C1694 H1706 0.956 . S
C1694 H1707 0.961 . S
C1694 H1708 0.961 . S
C1695 C1692 1.539 . S
C1695 H1709 0.958 . S
C1695 H1710 0.961 . S
C1695 H1711 0.960 . S
H1696 C1680 0.931 . S
H1697 C1685 0.929 . S
H1698 C1686 0.960 . S
H1699 C1686 0.962 . S
H1700 C1686 0.960 . S
H1701 C1687 0.961 . S
H1702 C1687 0.961 . S
H1703 C1687 0.961 . S
H1704 C1688 0.931 . S
H1705 C1693 0.930 . S
H1706 C1694 0.956 . S
H1707 C1694 0.961 . S
H1708 C1694 0.961 . S
H1709 C1695 0.958 . S
H1710 C1695 0.961 . S
H1711 C1695 0.960 . S
C1712 C1713 1.391 . S
C1712 C1714 1.394 . S
C1712 H1728 0.931 . S
C1713 C1712 1.391 . S
C1713 C1717 1.376 . S
C1714 C1712 1.394 . S
C1714 C1715 1.369 . S
C1714 C1718 1.531 . S
C1715 C1714 1.369 . S
C1715 C1716 1.410 . S
C1715 C1723 1.503 . S
C1716 C1715 1.410 . S
C1716 C1717 1.392 . S
C1716 C1719 1.511 . S
C1717 C1713 1.376 . S
C1717 C1716 1.392 . S
C1717 H1729 0.929 . S
C1718 C1714 1.531 . S
C1718 H1730 0.960 . S
C1718 H1731 0.962 . S
C1718 H1732 0.960 . S
C1719 C1716 1.511 . S
C1719 H1733 0.961 . S
C1719 H1734 0.961 . S
C1719 H1735 0.961 . S
C1720 C1721 1.370 . S
C1720 C1722 1.363 . S
C1720 H1736 0.931 . S
C1721 C1720 1.370 . S
C1721 C1725 1.408 . S
C1722 C1720 1.363 . S
C1722 C1723 1.370 . S
C1722 C1726 1.524 . S
C1723 C1715 1.503 . S
C1723 C1722 1.370 . S
C1723 C1724 1.403 . S
C1724 C1723 1.403 . S
C1724 C1725 1.404 . S
C1724 C1727 1.539 . S
C1725 C1721 1.408 . S
C1725 C1724 1.404 . S
C1725 H1737 0.930 . S
C1726 C1722 1.524 . S
C1726 H1738 0.956 . S
C1726 H1739 0.961 . S
C1726 H1740 0.961 . S
C1727 C1724 1.539 . S
C1727 H1741 0.958 . S
C1727 H1742 0.961 . S
C1727 H1743 0.960 . S
H1728 C1712 0.931 . S
H1729 C1717 0.929 . S
H1730 C1718 0.960 . S
H1731 C1718 0.962 . S
H1732 C1718 0.960 . S
H1733 C1719 0.961 . S
H1734 C1719 0.961 . S
H1735 C1719 0.961 . S
H1736 C1720 0.931 . S
H1737 C1725 0.930 . S
H1738 C1726 0.956 . S
H1739 C1726 0.961 . S
H1740 C1726 0.961 . S
H1741 C1727 0.958 . S
H1742 C1727 0.961 . S
H1743 C1727 0.960 . S
C1744 C1745 1.391 . S
C1744 C1746 1.394 . S
C1744 H1760 0.931 . S
C1745 C1744 1.391 . S
C1745 C1749 1.376 . S
C1746 C1744 1.394 . S
C1746 C1747 1.369 . S
C1746 C1750 1.531 . S
C1747 C1746 1.369 . S
C1747 C1748 1.410 . S
C1747 C1755 1.503 . S
C1748 C1747 1.410 . S
C1748 C1749 1.392 . S
C1748 C1751 1.511 . S
C1749 C1745 1.376 . S
C1749 C1748 1.392 . S
C1749 H1761 0.929 . S
C1750 C1746 1.531 . S
C1750 H1762 0.960 . S
C1750 H1763 0.962 . S
C1750 H1764 0.960 . S
C1751 C1748 1.511 . S
C1751 H1765 0.961 . S
C1751 H1766 0.961 . S
C1751 H1767 0.961 . S
C1752 C1753 1.370 . S
C1752 C1754 1.363 . S
C1752 H1768 0.931 . S
C1753 C1752 1.370 . S
C1753 C1757 1.408 . S
C1754 C1752 1.363 . S
C1754 C1755 1.370 . S
C1754 C1758 1.524 . S
C1755 C1747 1.503 . S
C1755 C1754 1.370 . S
C1755 C1756 1.403 . S
C1756 C1755 1.403 . S
C1756 C1757 1.404 . S
C1756 C1759 1.539 . S
C1757 C1753 1.408 . S
C1757 C1756 1.404 . S
C1757 H1769 0.930 . S
C1758 C1754 1.524 . S
C1758 H1770 0.956 . S
C1758 H1771 0.961 . S
C1758 H1772 0.961 . S
C1759 C1756 1.539 . S
C1759 H1773 0.958 . S
C1759 H1774 0.961 . S
C1759 H1775 0.960 . S
H1760 C1744 0.931 . S
H1761 C1749 0.929 . S
H1762 C1750 0.960 . S
H1763 C1750 0.962 . S
H1764 C1750 0.960 . S
H1765 C1751 0.961 . S
H1766 C1751 0.961 . S
H1767 C1751 0.961 . S
H1768 C1752 0.931 . S
H1769 C1757 0.930 . S
H1770 C1758 0.956 . S
H1771 C1758 0.961 . S
H1772 C1758 0.961 . S
H1773 C1759 0.958 . S
H1774 C1759 0.961 . S
H1775 C1759 0.960 . S
C1776 C1777 1.391 . S
C1776 C1778 1.394 . S
C1776 H1792 0.931 . S
C1777 C1776 1.391 . S
C1777 C1781 1.376 . S
C1778 C1776 1.394 . S
C1778 C1779 1.369 . S
C1778 C1782 1.531 . S
C1779 C1778 1.369 . S
C1779 C1780 1.410 . S
C1779 C1787 1.503 . S
C1780 C1779 1.410 . S
C1780 C1781 1.392 . S
C1780 C1783 1.511 . S
C1781 C1777 1.376 . S
C1781 C1780 1.392 . S
C1781 H1793 0.929 . S
C1782 C1778 1.531 . S
C1782 H1794 0.960 . S
C1782 H1795 0.962 . S
C1782 H1796 0.960 . S
C1783 C1780 1.511 . S
C1783 H1797 0.961 . S
C1783 H1798 0.961 . S
C1783 H1799 0.961 . S
C1784 C1785 1.370 . S
C1784 C1786 1.363 . S
C1784 H1800 0.931 . S
C1785 C1784 1.370 . S
C1785 C1789 1.408 . S
C1786 C1784 1.363 . S
C1786 C1787 1.370 . S
C1786 C1790 1.524 . S
C1787 C1779 1.503 . S
C1787 C1786 1.370 . S
C1787 C1788 1.403 . S
C1788 C1787 1.403 . S
C1788 C1789 1.404 . S
C1788 C1791 1.539 . S
C1789 C1785 1.408 . S
C1789 C1788 1.404 . S
C1789 H1801 0.930 . S
C1790 C1786 1.524 . S
C1790 H1802 0.956 . S
C1790 H1803 0.961 . S
C1790 H1804 0.961 . S
C1791 C1788 1.539 . S
C1791 H1805 0.958 . S
C1791 H1806 0.961 . S
C1791 H1807 0.960 . S
H1792 C1776 0.931 . S
H1793 C1781 0.929 . S
H1794 C1782 0.960 . S
H1795 C1782 0.962 . S
H1796 C1782 0.960 . S
H1797 C1783 0.961 . S
H1798 C1783 0.961 . S
H1799 C1783 0.961 . S
H1800 C1784 0.931 . S
H1801 C1789 0.930 . S
H1802 C1790 0.956 . S
H1803 C1790 0.961 . S
H1804 C1790 0.961 . S
H1805 C1791 0.958 . S
H1806 C1791 0.961 . S
H1807 C1791 0.960 . S
C529 N398 1.468 . S
C537 N13 1.426 . S
C561 N46 1.378 . S
C569 N431 1.425 . S
C593 N68 1.397 . S
C601 N475 1.454 . S
C625 N112 1.387 . S
C633 N497 1.426 . S
C657 N266 1.399 . S
C665 N145 1.413 . S
C689 N310 1.408 . S
C697 N167 1.442 . S
C721 N200 1.431 . S
C729 N343 1.397 . S
C753 N376 1.429 . S
C761 N233 1.430 . S
C785 C21 1.129 . S
C793 C483 1.132 . S
C817 C516 1.166 . S
C825 C54 1.172 . S
C849 C417 1.142 . S
C857 C87 1.139 . S
C881 C450 1.167 . S
C889 C120 1.166 . S
C913 C351 1.128 . S
C921 C153 1.124 . S
C945 C384 1.098 . S
C953 C186 1.095 . S
C977 C285 1.131 . S
C985 C219 1.136 . S
C1009 C318 1.098 . S
C1017 C252 1.105 . S
C1041 C7 1.206 . S
C1049 C348 1.297 . S
C1073 C381 1.247 . S
C1081 C40 1.227 . S
C1105 C271 1.247 . S
C1113 C84 1.254 . S
C1137 C315 1.325 . S
C1145 C106 1.288 . S
C1169 C139 1.207 . S
C1177 C480 1.300 . S
C1201 C183 1.305 . S
C1209 C502 1.326 . S
C1233 C403 1.243 . S
C1241 C216 1.251 . S
C1265 C249 1.202 . S
C1273 C436 1.256 . S
C1297 N409 1.755 . S
C1305 N2 1.713 . S
C1329 N35 1.738 . S
C1337 N442 1.762 . S
C1361 N79 1.740 . S
C1369 N464 1.732 . S
C1393 N508 1.778 . S
C1401 N101 1.742 . S
C1425 N277 1.764 . S
C1433 N134 1.797 . S
C1457 N178 1.761 . S
C1465 N299 1.767 . S
C1489 N332 1.768 . S
C1497 N211 1.805 . S
C1521 N365 1.735 . S
C1529 N244 1.777 . S
C1553 C172 1.345 . S
C1561 C18 1.387 . S
C1585 C205 1.476 . S
C1593 C51 1.438 . S
C1617 C73 1.401 . S
C1625 C238 1.362 . S
C1649 C150 1.417 . S
C1657 C117 1.464 . S
C1681 C282 1.270 . S
C1689 C447 1.297 . S
C1713 C469 1.313 . S
C1721 C304 1.294 . S
C1745 C513 1.288 . S
C1753 C337 1.340 . S
C1777 C370 1.269 . S
C1785 C414 1.226 . S
