# Generated by pormake.
# Topology rob, (6)-cn, num edge types: 1
# Building blocks:
#     Node 0, Type 0, BuildingBlock: UKALOJ_clean_sbu_0, # of connection points: 6
#     Node 1, Type 0, BuildingBlock: UKALOJ_clean_sbu_0, # of connection points: 6
#     Node 2, Type 0, BuildingBlock: UKALOJ_clean_sbu_0, # of connection points: 6
#     Node 3, Type 0, BuildingBlock: UKALOJ_clean_sbu_0, # of connection points: 6
#     Edge 4, Type (0, 0), BuildingBlock: FUNLAD_clean_linker_1, # of connection points: 2
#     Edge 5, Type (0, 0), BuildingBlock: FUNLAD_clean_linker_1, # of connection points: 2
#     Edge 6, Type (0, 0), BuildingBlock: FUNLAD_clean_linker_1, # of connection points: 2
#     Edge 7, Type (0, 0), BuildingBlock: FUNLAD_clean_linker_1, # of connection points: 2
#     Edge 8, Type (0, 0), BuildingBlock: FUNLAD_clean_linker_1, # of connection points: 2
#     Edge 9, Type (0, 0), BuildingBlock: FUNLAD_clean_linker_1, # of connection points: 2
#     Edge 10, Type (0, 0), BuildingBlock: FUNLAD_clean_linker_1, # of connection points: 2
#     Edge 11, Type (0, 0), BuildingBlock: FUNLAD_clean_linker_1, # of connection points: 2
#     Edge 12, Type (0, 0), BuildingBlock: FUNLAD_clean_linker_1, # of connection points: 2
#     Edge 13, Type (0, 0), BuildingBlock: FUNLAD_clean_linker_1, # of connection points: 2
#     Edge 14, Type (0, 0), BuildingBlock: FUNLAD_clean_linker_1, # of connection points: 2
#     Edge 15, Type (0, 0), BuildingBlock: FUNLAD_clean_linker_1, # of connection points: 2
# Relax obj value: 0.153
# Max RMSD: 0.191
# Mean RMSD: 0.191
data_MOF--net-rob--node1-UKALOJ_clean_sbu_0--edge1-FUNLAD_clean_linker_1
_symmetry_space_group_name_H-M    P1
_symmetry_Int_Tables_number       1
_symmetry_cell_setting            triclinic
loop_
_symmetry_equiv_pos_as_xyz
'x, y, z'
_cell_length_a     15.005168
_cell_length_b     38.980309
_cell_length_c     25.08976
_cell_angle_alpha  99.865355
_cell_angle_beta   90.038882
_cell_angle_gamma 89.792615
loop_
_atom_site_label
_atom_site_type_symbol
_atom_site_fract_x
_atom_site_fract_y
_atom_site_fract_z
_atom_type_partial_charge
Zn0 Zn 0.28508 0.28808 -0.00737 0.0
O1 O 0.33417 0.27716 0.91308 0.0
C2 C 0.09837 0.28265 0.9541 0.0
Zn3 Zn 0.23243 0.23392 0.98586 0.0
C4 C 0.31618 0.24797 0.88427 0.0
O5 O 0.27365 0.22522 0.90436 0.0
C6 C 0.20101 0.27382 0.09421 0.0
O7 O 0.35727 0.21696 0.0115 0.0
O8 O 0.40547 0.27087 0.02108 0.0
N9 N 0.18289 0.18427 0.97426 0.0
C10 C 0.17392 0.16019 0.00659 0.0
C11 C 0.12049 0.13838 0.9296 0.0
N12 N 0.14972 0.17058 0.92644 0.0
N13 N 0.13485 0.13119 0.97957 0.0
C14 C 0.32996 0.3633 0.97265 0.0
C15 C 0.41168 0.38185 0.04089 0.0
N16 N 0.33538 0.33761 0.00242 0.0
N17 N 0.38626 0.34927 0.04477 0.0
N18 N 0.37728 0.39129 -0.00412 0.0
H19 H 0.32044 0.37186 0.89051 0.0
H20 H 0.21802 0.37687 0.92785 0.0
H21 H 0.26149 0.33385 0.90358 0.0
C22 C 0.27972 0.36098 0.92051 0.0
C23 C 0.20427 0.16495 0.06422 0.0
H24 H 0.25928 0.18397 0.07119 0.0
H25 H 0.22702 0.13985 0.07479 0.0
H26 H 0.14774 0.17484 0.09107 0.0
O27 O 0.19017 0.24381 0.06619 0.0
O28 O 0.23662 0.29792 0.07323 0.0
C29 C 0.41812 0.23933 0.02569 0.0
O30 O 0.1619 0.30435 0.96364 0.0
O31 O 0.10932 0.25159 0.96176 0.0
Zn32 Zn 0.75065 0.79236 -0.00107 0.0
O33 O 0.86015 0.76988 0.95393 0.0
C34 C 0.64674 0.78715 0.89674 0.0
Zn35 Zn 0.67324 0.74282 0.97884 0.0
C36 C 0.85558 0.73859 0.92942 0.0
O37 O 0.78611 0.72076 0.93409 0.0
C38 C 0.56658 0.79718 0.0454 0.0
O39 O 0.72055 0.72915 0.05216 0.0
O40 O 0.80316 0.77623 0.06828 0.0
N41 N 0.60595 0.69641 0.96096 0.0
C42 C 0.6266 0.66432 0.97065 0.0
C43 C 0.49714 0.66133 0.93541 0.0
N44 N 0.52561 0.69441 0.93875 0.0
N45 N 0.55937 0.6419 0.95531 0.0
C46 C 0.85462 0.86022 0.98867 0.0
C47 C 0.86253 0.88527 0.07092 0.0
N48 N 0.81601 0.8389 0.01887 0.0
N49 N 0.82154 0.85447 0.07 0.0
N50 N 0.88378 0.88956 0.02029 0.0
H51 H 0.92592 0.86256 0.91503 0.0
H52 H 0.80727 0.86688 0.91086 0.0
H53 H 0.85644 0.82469 0.91222 0.0
C54 C 0.86164 0.85287 0.9282 0.0
C55 C 0.71201 0.65492 -0.00423 0.0
H56 H 0.76581 0.6734 -0.0094 0.0
H57 H 0.73345 0.62825 0.97734 0.0
H58 H 0.70104 0.65535 0.03962 0.0
O59 O 0.5616 0.76603 0.02061 0.0
O60 O 0.63857 0.81417 0.04456 0.0
C61 C 0.77621 0.74809 0.08172 0.0
O62 O 0.6971 0.80756 0.92817 0.0
O63 O 0.62523 0.75787 0.90838 0.0
Zn64 Zn 0.21165 0.78874 0.4991 0.0
O65 O 0.25546 0.80317 0.4261 0.0
C66 C 0.09852 0.73611 0.43329 0.0
Zn67 Zn 0.28412 0.73798 0.47558 0.0
C68 C 0.30203 0.78255 0.39251 0.0
O69 O 0.32513 0.75315 0.40323 0.0
C70 C 0.19216 0.74388 0.58227 0.0
O71 O 0.40054 0.75966 0.51323 0.0
O72 O 0.32827 0.80883 0.54032 0.0
N73 N 0.34578 0.69059 0.45249 0.0
C74 C 0.38263 0.66772 0.48088 0.0
C75 C 0.38578 0.64416 0.39778 0.0
N76 N 0.3484 0.67592 0.40082 0.0
N77 N 0.40766 0.63831 0.44757 0.0
C78 C 0.1696 0.8681 0.51084 0.0
C79 C 0.04236 0.87234 0.54894 0.0
N80 N 0.14777 0.83603 0.51999 0.0
N81 N 0.0688 0.83881 0.54396 0.0
N82 N 0.10451 0.89127 0.52831 0.0
H83 H 0.30703 0.85743 0.48708 0.0
H84 H 0.27823 0.90291 0.50338 0.0
H85 H 0.24044 0.87758 0.44098 0.0
C86 C 0.25406 0.87683 0.48425 0.0
C87 C 0.39486 0.67425 0.54105 0.0
H88 H 0.40143 0.70249 0.55668 0.0
H89 H 0.45509 0.66057 0.55245 0.0
H90 H 0.33611 0.66415 0.56021 0.0
O91 O 0.24139 0.72383 0.54942 0.0
O92 O 0.16719 0.77301 0.57092 0.0
C93 C 0.39924 0.79074 0.5387 0.0
O94 O 0.09755 0.76751 0.45777 0.0
O95 O 0.16706 0.71732 0.43617 0.0
Zn96 Zn 0.73109 0.29136 0.48786 0.0
O97 O 0.84333 0.31484 0.4608 0.0
C98 C 0.71917 0.24189 0.38327 0.0
Zn99 Zn 0.80683 0.24178 0.48828 0.0
C100 C 0.91518 0.29768 0.45154 0.0
O101 O 0.91905 0.26633 0.45957 0.0
C102 C 0.62324 0.23643 0.52634 0.0
O103 O 0.84252 0.26082 0.56874 0.0
O104 O 0.76986 0.30995 0.56825 0.0
N105 N 0.88061 0.19711 0.48799 0.0
C106 C 0.87847 0.17209 0.51914 0.0
C107 C 0.97296 0.15605 0.45647 0.0
N108 N 0.93987 0.18712 0.4493 0.0
N109 N 0.93526 0.14591 0.49999 0.0
C110 C 0.65569 0.36009 0.4564 0.0
C111 C 0.56972 0.37778 0.52306 0.0
N112 N 0.65765 0.33585 0.48887 0.0
N113 N 0.60374 0.34686 0.53007 0.0
N114 N 0.60165 0.38682 0.4772 0.0
H115 H 0.76521 0.37682 0.413 0.0
H116 H 0.66669 0.36619 0.37317 0.0
H117 H 0.73531 0.3318 0.39115 0.0
C118 C 0.7088 0.35829 0.40541 0.0
C119 C 0.82033 0.17306 0.56793 0.0
H120 H 0.80138 0.20009 0.58551 0.0
H121 H 0.85523 0.16108 0.59921 0.0
H122 H 0.75896 0.15786 0.556 0.0
O123 O 0.69415 0.21867 0.51655 0.0
O124 O 0.61995 0.26734 0.51658 0.0
C125 C 0.81615 0.29042 0.59303 0.0
O126 O 0.69306 0.27171 0.40709 0.0
O127 O 0.76823 0.22326 0.4081 0.0
H128 H 0.60188 0.59586 0.9878 0.0
C129 C 0.55155 0.60638 0.96385 0.0
H130 H 0.43135 0.59563 0.92015 0.0
H131 H 0.5049 0.43169 0.90084 0.0
H132 H 0.54847 0.43971 0.81087 0.0
H133 H 0.55613 0.4985 0.78715 0.0
H134 H 0.5212 0.5497 0.8537 0.0
C135 C 0.48176 0.58628 0.94529 0.0
C136 C 0.47156 0.55074 0.95872 0.0
C137 C 0.48922 0.52103 0.91896 0.0
C138 C 0.48256 0.48706 0.9323 0.0
C139 C 0.50557 0.458 0.89254 0.0
C140 C 0.53145 0.46225 0.84076 0.0
C141 C 0.53594 0.49535 0.82744 0.0
C142 C 0.51556 0.5245 0.86598 0.0
H143 H 0.34451 0.43049 0.94601 0.0
C144 C 0.38743 0.42428 0.97798 0.0
H145 H 0.4909 0.44193 0.03265 0.0
H146 H 0.42743 0.60215 0.04349 0.0
H147 H 0.38309 0.59431 0.13346 0.0
H148 H 0.37059 0.53551 0.1566 0.0
H149 H 0.40217 0.48423 0.08989 0.0
C150 C 0.44865 0.44761 7e-05 0.0
C151 C 0.45554 0.48288 0.98505 0.0
C152 C 0.43726 0.51266 0.02468 0.0
C153 C 0.44491 0.54659 0.01146 0.0
C154 C 0.42436 0.57579 0.05155 0.0
C155 C 0.39831 0.57167 0.10333 0.0
C156 C 0.39124 0.53858 0.11635 0.0
C157 C 0.40995 0.50934 0.07764 0.0
H158 H 0.43311 0.60219 0.5036 0.0
C159 C 0.43925 0.60613 0.46191 0.0
H160 H 0.47796 0.58377 0.3828 0.0
H161 H 0.65108 0.48145 0.54784 0.0
H162 H 0.735 0.53208 0.58959 0.0
H163 H 0.71329 0.58892 0.56072 0.0
H164 H 0.60678 0.5956 0.49057 0.0
C165 C 0.4728 0.5803 0.42472 0.0
C166 C 0.49462 0.54536 0.43817 0.0
C167 C 0.55956 0.54169 0.47805 0.0
C168 C 0.57406 0.50867 0.49356 0.0
C169 C 0.63765 0.50589 0.53438 0.0
C170 C 0.68653 0.53471 0.55856 0.0
C171 C 0.67417 0.56672 0.54238 0.0
C172 C 0.612 0.57028 0.50241 0.0
H173 H 0.61377 0.42237 0.41878 0.0
C174 C 0.58562 0.4189 0.45738 0.0
H175 H 0.51309 0.44282 0.52603 0.0
H176 H 0.36912 0.54255 0.35784 0.0
H177 H 0.29081 0.49132 0.31352 0.0
H178 H 0.31836 0.43396 0.33944 0.0
H179 H 0.42449 0.42755 0.4099 0.0
C180 C 0.5387 0.44513 0.48634 0.0
C181 C 0.52634 0.4791 0.46779 0.0
C182 C 0.46454 0.48237 0.42619 0.0
C183 C 0.44868 0.51551 0.41133 0.0
C184 C 0.38489 0.51807 0.37047 0.0
C185 C 0.33906 0.48884 0.34475 0.0
C186 C 0.35456 0.45655 0.35933 0.0
C187 C 0.41606 0.45323 0.39973 0.0
H188 H 0.10951 0.10016 0.04288 0.0
C189 C 0.109 0.10016 -0.00043 0.0
H190 H 0.08016 0.07127 0.92252 0.0
H191 H 0.1034 0.94712 0.07461 0.0
H192 H 0.2585 0.96337 0.08952 0.0
H193 H 0.31966 1.01426 0.05577 0.0
H194 H 0.22613 0.04936 0.00741 0.0
C195 C 0.0827 0.07137 0.96581 0.0
C196 C 0.04757 0.04028 0.98596 0.0
C197 C 0.1038 0.01976 0.01356 0.0
C198 C 0.069 0.98996 0.03205 0.0
C199 C 0.12638 0.96998 0.05965 0.0
C200 C 0.21561 0.97895 0.06837 0.0
C201 C 0.25 1.00764 0.04945 0.0
C202 C 0.19526 0.02777 0.02208 0.0
H203 H 0.92988 0.92057 0.96082 0.0
C204 C 0.92171 0.91998 0.00369 0.0
H205 H 0.93852 0.94831 0.08278 0.0
H206 H 0.9216 0.074 0.93463 0.0
H207 H 0.7669 0.05755 0.9196 0.0
H208 H 0.7065 1.00618 0.95231 0.0
H209 H 0.80055 0.97088 2e-05 0.0
C210 C 0.94383 0.94837 0.03964 0.0
C211 C 0.97889 0.98023 0.02172 0.0
C212 C 0.92252 1.00085 -0.00557 0.0
C213 C 0.95711 0.03073 0.97617 0.0
C214 C 0.89923 0.05089 0.9491 0.0
C215 C 0.81006 0.04184 0.94036 0.0
C216 C 0.77608 1.0129 0.95873 0.0
C217 C 0.83113 0.99269 0.98573 0.0
H218 H 0.90225 0.10616 0.54874 0.0
C219 C 0.94647 0.11287 0.51785 0.0
H220 H 0.05061 0.0953 0.46345 0.0
H221 H 0.07338 0.98236 0.63489 0.0
H222 H 0.1111 0.03184 0.70383 0.0
H223 H 0.10645 0.09161 0.68376 0.0
H224 H 0.06324 0.10234 0.59498 0.0
C225 C 0.00771 0.08942 0.49551 0.0
C226 C 0.01197 0.05348 0.50847 0.0
C227 C 0.03839 0.04768 0.56056 0.0
C228 C 0.04295 1.01311 0.57183 0.0
C229 C 0.06912 1.00805 0.62417 0.0
C230 C 0.09109 0.0362 0.66406 0.0
C231 C 0.08833 0.06986 0.65279 0.0
C232 C 0.06274 0.07568 0.60169 0.0
H233 H 0.14828 0.93736 0.49667 0.0
C234 C 0.09852 0.92717 0.52123 0.0
H235 H 0.98179 0.93916 0.56802 0.0
H236 H 0.95803 0.05527 0.40457 0.0
H237 H 0.92204 1.00572 0.33571 0.0
H238 H 0.93022 0.94592 0.35537 0.0
H239 H 0.97457 0.93533 0.44399 0.0
C240 C 0.0313 0.94816 0.54209 0.0
C241 C 0.02337 0.98438 0.53074 0.0
C242 C 0.99668 0.99017 0.47875 0.0
C243 C 0.99142 0.0247 0.46755 0.0
C244 C 0.96403 0.02964 0.4153 0.0
C245 C 0.94279 1.00142 0.37537 0.0
C246 C 0.94743 0.96776 0.38643 0.0
C247 C 0.97357 0.96204 0.43746 0.0
H248 H 0.70725 0.20128 0.31076 0.0
C249 C 0.69121 0.22818 0.32759 0.0
H250 H 0.6268 0.27429 0.31486 0.0
H251 H 0.65834 0.19329 0.06165 0.0
H252 H 0.81901 0.19897 0.07263 0.0
H253 H 0.88481 0.22026 0.16235 0.0
H254 H 0.79093 0.23537 0.2415 0.0
C255 C 0.64537 0.24767 0.29794 0.0
C256 C 0.60825 0.23244 0.24437 0.0
C257 C 0.66462 0.22343 0.19869 0.0
C258 C 0.62675 0.21194 0.14679 0.0
C259 C 0.68401 0.20288 0.10174 0.0
C260 C 0.77615 0.20587 0.10754 0.0
C261 C 0.81321 0.21778 0.15806 0.0
C262 C 0.75845 0.22641 0.20324 0.0
H263 H 0.54206 0.25234 0.06999 0.0
C264 C 0.49459 0.23138 0.05804 0.0
H265 H 0.44162 0.18487 0.07648 0.0
H266 H 0.48289 0.24317 0.32498 0.0
H267 H 0.32263 0.23826 0.31366 0.0
H268 H 0.25623 0.22249 0.22292 0.0
H269 H 0.34957 0.20982 0.14347 0.0
C270 C 0.49181 0.20502 0.08603 0.0
C271 C 0.53293 0.21024 0.14066 0.0
C272 C 0.47679 0.21801 0.18674 0.0
C273 C 0.51471 0.22867 0.23874 0.0
C274 C 0.45746 0.23565 0.28429 0.0
C275 C 0.36533 0.23292 0.27844 0.0
C276 C 0.32796 0.2239 0.2274 0.0
C277 C 0.3826 0.21657 0.18201 0.0
H278 H 0.42674 0.81213 0.0643 0.0
C279 C 0.49338 0.81133 0.08101 0.0
H280 H 0.57312 0.81427 0.15037 0.0
H281 H 0.35536 0.88353 0.34348 0.0
H282 H 0.46204 0.92943 0.33623 0.0
H283 H 0.55389 0.9272 0.25409 0.0
H284 H 0.5405 0.87892 0.179 0.0
C285 C 0.50595 0.81592 0.13456 0.0
C286 C 0.43241 0.82211 0.17475 0.0
C287 C 0.43821 0.85132 0.21699 0.0
C288 C 0.38451 0.85296 0.26392 0.0
C289 C 0.39477 0.88129 0.30692 0.0
C290 C 0.45538 0.90777 0.30315 0.0
C291 C 0.50713 0.9065 0.2569 0.0
C292 C 0.49907 0.87863 0.21423 0.0
H293 H 0.373 0.77394 0.3153 0.0
C294 C 0.32776 0.79166 0.34045 0.0
H295 H 0.25131 0.83808 0.34632 0.0
H296 H 0.39871 0.76161 0.10099 0.0
H297 H 0.27783 0.72156 0.10455 0.0
H298 H 0.17279 0.72976 0.18142 0.0
H299 H 0.19187 0.77782 0.25646 0.0
C300 C 0.29562 0.81963 0.32195 0.0
C301 C 0.32459 0.82571 0.26785 0.0
C302 C 0.30794 0.79983 0.22221 0.0
C303 C 0.36464 0.79679 0.17637 0.0
C304 C 0.3543 0.76729 0.13507 0.0
C305 C 0.28541 0.74359 0.13694 0.0
C306 C 0.22657 0.74807 0.18029 0.0
C307 C 0.23813 0.77561 0.22293 0.0
H308 H 0.5594 0.78129 0.82625 0.0
C309 C 0.61603 0.79585 0.84539 0.0
H310 H 0.71873 0.83155 0.83592 0.0
H311 H 0.50417 0.74988 0.61473 0.0
H312 H 0.58529 0.69918 0.63044 0.0
H313 H 0.6964 0.70323 0.70384 0.0
H314 H 0.72261 0.7584 0.76361 0.0
C315 C 0.66115 0.81708 0.81825 0.0
C316 C 0.63359 0.8193 0.76209 0.0
C317 C 0.62767 0.78828 0.72359 0.0
C318 C 0.5705 0.78689 0.6783 0.0
C319 C 0.55325 0.75379 0.64651 0.0
C320 C 0.5985 0.72407 0.65571 0.0
C321 C 0.66054 0.72627 0.6972 0.0
C322 C 0.67469 0.75792 0.7312 0.0
H323 H 0.54134 0.79393 0.56051 0.0
C324 C 0.47499 0.8031 0.57339 0.0
H325 H 0.39303 0.82507 0.63854 0.0
H326 H 0.64972 0.8843 0.82213 0.0
H327 H 0.58649 0.93784 0.80053 0.0
H328 H 0.49894 0.9372 0.71703 0.0
H329 H 0.47297 0.88303 0.65499 0.0
C330 C 0.45998 0.81687 0.6253 0.0
C331 C 0.52921 0.81805 0.66789 0.0
C332 C 0.54671 0.85015 0.70237 0.0
C333 C 0.5983 0.85069 0.75001 0.0
C334 C 0.61114 0.88267 0.78534 0.0
C335 C 0.57552 0.91351 0.77331 0.0
C336 C 0.52619 0.91315 0.72628 0.0
C337 C 0.51157 0.8819 0.69112 0.0
H338 H 0.57522 0.20358 0.58224 0.0
C339 C 0.55552 0.22458 0.56115 0.0
H340 H 0.46673 0.26605 0.5584 0.0
H341 H 0.39149 0.18301 0.77058 0.0
H342 H 0.35147 0.1323 0.70504 0.0
H343 H 0.35417 0.13416 0.60723 0.0
H344 H 0.40051 0.1866 0.57462 0.0
C345 C 0.48597 0.24498 0.57936 0.0
C346 C 0.45772 0.24703 0.63654 0.0
C347 C 0.42359 0.21732 0.6549 0.0
C348 C 0.41496 0.21724 0.71124 0.0
C349 C 0.392 0.18561 0.72839 0.0
C350 C 0.37017 0.15607 0.69111 0.0
C351 C 0.37218 0.15705 0.63605 0.0
C352 C 0.39916 0.18719 0.6179 0.0
H353 H 0.28464 0.23064 0.79879 0.0
C354 C 0.33644 0.24172 0.82654 0.0
H355 H 0.46698 0.26078 0.83623 0.0
H356 H 0.52899 0.30852 0.61551 0.0
H357 H 0.55615 0.3607 0.68026 0.0
H358 H 0.52133 0.36322 0.77687 0.0
H359 H 0.46238 0.31303 0.80935 0.0
C360 C 0.41556 0.24989 0.80779 0.0
C361 C 0.4313 0.24828 0.74886 0.0
C362 C 0.46101 0.27865 0.7302 0.0
C363 C 0.47659 0.27776 0.67414 0.0
C364 C 0.51267 0.30777 0.6572 0.0
C365 C 0.52897 0.33807 0.69407 0.0
C366 C 0.50973 0.33944 0.74845 0.0
C367 C 0.47614 0.31024 0.76654 0.0
H368 H 0.75077 0.73095 0.15916 0.0
C369 C 0.80246 0.73935 0.13401 0.0
H370 H 0.93692 0.75178 0.12564 0.0
H371 H 0.0384 0.8034 0.36666 0.0
H372 H 0.08107 0.85123 0.32268 0.0
H373 H 0.04274 0.85134 0.22717 0.0
H374 H 0.96303 0.80335 0.17501 0.0
C375 C 0.88643 0.74385 0.15207 0.0
C376 C 0.90991 0.74312 0.2096 0.0
C377 C 0.95286 0.77246 0.24027 0.0
C378 C 0.97152 0.77311 0.29597 0.0
C379 C 0.01933 0.80183 0.32477 0.0
C380 C 0.04481 0.82956 0.29995 0.0
C381 C 0.02347 0.82957 0.24619 0.0
C382 C 0.97786 0.80157 0.21658 0.0
H383 H 0.04956 0.70129 0.36178 0.0
C384 C 0.03215 0.72423 0.39113 0.0
H385 H 0.95172 0.76902 0.40798 0.0
H386 H 0.84834 0.6791 0.1605 0.0
H387 H 0.80043 0.63199 0.20541 0.0
H388 H 0.81238 0.63702 0.30455 0.0
H389 H 0.87543 0.6888 0.35901 0.0
C390 C 0.96801 0.74573 0.37912 0.0
C391 C 0.94355 0.74516 0.32156 0.0
C392 C 0.90058 0.71593 0.29105 0.0
C393 C 0.88749 0.71417 0.23452 0.0
C394 C 0.85365 0.68296 0.20408 0.0
C395 C 0.827 0.6555 0.22929 0.0
C396 C 0.83417 0.65825 0.28506 0.0
C397 C 0.87077 0.68802 0.31578 0.0
H398 H 0.97992 0.33946 0.41756 0.0
C399 C 0.98624 0.31232 0.4222 0.0
H400 H 0.04519 0.26373 0.39115 0.0
H401 H 0.01943 0.32321 0.16652 0.0
H402 H 0.85961 0.31654 0.17668 0.0
H403 H 0.79739 0.30193 0.26094 0.0
H404 H 0.89355 0.29359 0.33475 0.0
C405 C 0.04056 0.29128 0.38896 0.0
C406 C 0.07667 0.3025 0.3398 0.0
C407 C 0.01848 0.30538 0.29601 0.0
C408 C 0.05419 0.31232 0.24671 0.0
C409 C 0.99533 0.31666 0.20417 0.0
C410 C 0.90365 0.31315 0.20959 0.0
C411 C 0.86866 0.30498 0.25703 0.0
C412 C 0.925 0.30066 0.29954 0.0
H413 H 0.13409 0.25919 0.16436 0.0
C414 C 0.17067 0.28006 0.15047 0.0
H415 H 0.22434 0.33075 0.17287 0.0
H416 H 0.20351 0.30369 0.41829 0.0
H417 H 0.36253 0.31329 0.40843 0.0
H418 H 0.42453 0.3232 0.32127 0.0
H419 H 0.32804 0.32358 0.24334 0.0
C420 C 0.18514 0.30993 0.18475 0.0
C421 C 0.14767 0.31401 0.24013 0.0
C422 C 0.2049 0.31415 0.285 0.0
C423 C 0.16921 0.30831 0.3351 0.0
C424 C 0.22759 0.30795 0.3793 0.0
C425 C 0.31872 0.3135 0.37419 0.0
C426 C 0.35365 0.31913 0.3251 0.0
C427 C 0.29776 0.31918 0.2807 0.0
H428 H 0.86448 0.32752 0.66332 0.0
C429 C 0.83807 0.30153 0.65008 0.0
H430 H 0.80173 0.25343 0.6707 0.0
H431 H 0.11287 0.25592 0.83876 0.0
H432 H 0.14763 0.20502 0.77209 0.0
H433 H 0.06118 0.19132 0.68784 0.0
H434 H 0.93734 0.22756 0.67047 0.0
C435 C 0.8298 0.2791 0.68464 0.0
C436 C 0.87411 0.28569 0.73808 0.0
C437 C 0.94678 0.26415 0.74734 0.0
C438 C 0.99685 0.27223 0.79579 0.0
C439 C 0.07078 0.25074 0.80337 0.0
C440 C 0.09247 0.22163 0.76509 0.0
C441 C 0.04354 0.21379 0.71771 0.0
C442 C 0.97214 0.23486 0.70844 0.0
H443 H 0.96329 0.2726 0.92238 0.0
C444 C 0.01937 0.29035 0.92375 0.0
H445 H 0.08585 0.32589 0.88308 0.0
H446 H 0.72923 0.32841 0.73629 0.0
H447 H 0.68764 0.37731 0.80568 0.0
H448 H 0.77657 0.3921 0.88918 0.0
H449 H 0.9076 0.35795 0.90396 0.0
C450 C 0.02701 0.30998 0.88508 0.0
C451 C 0.9728 0.30148 0.83524 0.0
C452 C 0.89787 0.32206 0.82698 0.0
C453 C 0.84773 0.31395 0.77842 0.0
C454 C 0.7712 0.33414 0.77176 0.0
C455 C 0.74623 0.36207 0.81144 0.0
C456 C 0.79627 0.37038 0.85851 0.0
C457 C 0.87126 0.35065 0.86647 0.0
H458 H 0.21407 0.7163 0.65093 0.0
C459 C 0.17052 0.73453 0.63513 0.0
H460 H 0.05926 0.76775 0.64867 0.0
H461 H 0.04156 0.6748 0.85021 0.0
H462 H 0.04622 0.6222 0.7822 0.0
H463 H 0.06276 0.6258 0.68545 0.0
H464 H 0.07856 0.68159 0.65641 0.0
C465 C 0.10165 0.74925 0.66473 0.0
C466 C 0.08857 0.74568 0.72239 0.0
C467 C 0.07318 0.7128 0.73778 0.0
C468 C 0.05604 0.71081 0.79293 0.0
C469 C 0.04913 0.67765 0.80829 0.0
C470 C 0.05241 0.64735 0.7698 0.0
C471 C 0.06222 0.64938 0.71538 0.0
C472 C 0.07216 0.68164 0.69929 0.0
H473 H 0.89372 0.70914 0.85081 0.0
C474 C 0.91985 0.72608 0.88625 0.0
H475 H 0.02521 0.75723 0.92074 0.0
H476 H 0.1323 0.81185 0.7086 0.0
H477 H 0.12568 0.86404 0.77634 0.0
H478 H 0.08001 0.86135 0.86984 0.0
H479 H 0.04209 0.80672 0.89635 0.0
C480 C 0.00043 0.7408 0.88449 0.0
C481 C 0.04488 0.74174 0.83144 0.0
C482 C 0.06533 0.77445 0.81669 0.0
C483 C 0.08879 0.77624 0.76232 0.0
C484 C 0.11132 0.80903 0.74886 0.0
C485 C 0.10828 0.83926 0.78743 0.0
C486 C 0.08269 0.83773 0.84005 0.0
C487 C 0.0611 0.80589 0.85471 0.0
loop_
_geom_bond_atom_site_label_1
_geom_bond_atom_site_label_2
_geom_bond_distance
_geom_bond_site_symmetry_2
_ccdc_geom_bond_type
Zn0 O1 2.055 1_554 S
Zn0 O8 2.046 . S
Zn0 N16 2.036 . S
Zn0 O28 2.053 . S
Zn0 O30 2.066 1_554 S
O1 Zn0 2.055 1_556 S
O1 C4 1.259 . S
C2 O30 1.256 . S
C2 O31 1.244 . S
Zn3 O5 2.046 . S
Zn3 O7 2.055 1_556 S
Zn3 N9 2.036 . S
Zn3 O27 2.066 1_556 S
Zn3 O31 2.053 . S
C4 O1 1.259 . S
C4 O5 1.254 . S
O5 Zn3 2.046 . S
O5 C4 1.254 . S
C6 O27 1.256 . S
C6 O28 1.244 . S
O7 Zn3 2.055 1_554 S
O7 C29 1.259 . S
O8 Zn0 2.046 . S
O8 C29 1.254 . S
N9 Zn3 2.036 . S
N9 C10 1.298 1_556 S
N9 N12 1.398 . S
C10 N9 1.298 1_554 S
C10 N13 1.367 1_554 S
C10 C23 1.481 . S
C11 N12 1.299 . S
C11 N13 1.379 . S
N12 N9 1.398 . S
N12 C11 1.299 . S
N13 C10 1.367 1_556 S
N13 C11 1.379 . S
C14 N16 1.298 1_556 S
C14 N18 1.367 1_556 S
C14 C22 1.481 . S
C15 N17 1.299 . S
C15 N18 1.379 . S
N16 Zn0 2.036 . S
N16 C14 1.298 1_554 S
N16 N17 1.398 . S
N17 C15 1.299 . S
N17 N16 1.398 . S
N18 C14 1.367 1_554 S
N18 C15 1.379 . S
H19 C22 0.980 . S
H20 C22 0.981 . S
H21 C22 0.981 . S
C22 C14 1.481 . S
C22 H19 0.980 . S
C22 H20 0.981 . S
C22 H21 0.981 . S
C23 C10 1.481 . S
C23 H24 0.980 . S
C23 H25 0.981 . S
C23 H26 0.981 . S
H24 C23 0.980 . S
H25 C23 0.981 . S
H26 C23 0.981 . S
O27 Zn3 2.066 1_554 S
O27 C6 1.256 . S
O28 Zn0 2.053 . S
O28 C6 1.244 . S
C29 O7 1.259 . S
C29 O8 1.254 . S
O30 Zn0 2.066 1_556 S
O30 C2 1.256 . S
O31 C2 1.244 . S
O31 Zn3 2.053 . S
Zn32 O33 2.055 1_554 S
Zn32 O40 2.046 . S
Zn32 N48 2.036 . S
Zn32 O60 2.053 . S
Zn32 O62 2.066 1_554 S
O33 Zn32 2.055 1_556 S
O33 C36 1.259 . S
C34 O62 1.256 . S
C34 O63 1.244 . S
Zn35 O37 2.046 . S
Zn35 O39 2.055 1_556 S
Zn35 N41 2.036 . S
Zn35 O59 2.066 1_556 S
Zn35 O63 2.053 . S
C36 O33 1.259 . S
C36 O37 1.254 . S
O37 Zn35 2.046 . S
O37 C36 1.254 . S
C38 O59 1.256 . S
C38 O60 1.244 . S
O39 Zn35 2.055 1_554 S
O39 C61 1.259 . S
O40 Zn32 2.046 . S
O40 C61 1.254 . S
N41 Zn35 2.036 . S
N41 C42 1.298 1_556 S
N41 N44 1.398 . S
C42 N41 1.298 1_554 S
C42 N45 1.367 1_554 S
C42 C55 1.481 . S
C43 N44 1.299 . S
C43 N45 1.379 . S
N44 N41 1.398 . S
N44 C43 1.299 . S
N45 C42 1.367 1_556 S
N45 C43 1.379 . S
C46 N48 1.298 1_556 S
C46 N50 1.367 1_556 S
C46 C54 1.481 . S
C47 N49 1.299 . S
C47 N50 1.379 . S
N48 Zn32 2.036 . S
N48 C46 1.298 1_554 S
N48 N49 1.398 . S
N49 C47 1.299 . S
N49 N48 1.398 . S
N50 C46 1.367 1_554 S
N50 C47 1.379 . S
H51 C54 0.980 . S
H52 C54 0.981 . S
H53 C54 0.981 . S
C54 C46 1.481 . S
C54 H51 0.980 . S
C54 H52 0.981 . S
C54 H53 0.981 . S
C55 C42 1.481 . S
C55 H56 0.980 . S
C55 H57 0.981 . S
C55 H58 0.981 . S
H56 C55 0.980 . S
H57 C55 0.981 . S
H58 C55 0.981 . S
O59 Zn35 2.066 1_554 S
O59 C38 1.256 . S
O60 Zn32 2.053 . S
O60 C38 1.244 . S
C61 O39 1.259 . S
C61 O40 1.254 . S
O62 Zn32 2.066 1_556 S
O62 C34 1.256 . S
O63 C34 1.244 . S
O63 Zn35 2.053 . S
Zn64 O65 2.055 . S
Zn64 O72 2.046 . S
Zn64 N80 2.036 . S
Zn64 O92 2.053 . S
Zn64 O94 2.066 . S
O65 Zn64 2.055 . S
O65 C68 1.259 . S
C66 O94 1.256 . S
C66 O95 1.244 . S
Zn67 O69 2.046 . S
Zn67 O71 2.055 . S
Zn67 N73 2.036 . S
Zn67 O91 2.066 . S
Zn67 O95 2.053 . S
C68 O65 1.259 . S
C68 O69 1.254 . S
O69 Zn67 2.046 . S
O69 C68 1.254 . S
C70 O91 1.256 . S
C70 O92 1.244 . S
O71 Zn67 2.055 . S
O71 C93 1.259 . S
O72 Zn64 2.046 . S
O72 C93 1.254 . S
N73 Zn67 2.036 . S
N73 C74 1.298 . S
N73 N76 1.398 . S
C74 N73 1.298 . S
C74 N77 1.367 . S
C74 C87 1.481 . S
C75 N76 1.299 . S
C75 N77 1.379 . S
N76 N73 1.398 . S
N76 C75 1.299 . S
N77 C74 1.367 . S
N77 C75 1.379 . S
C78 N80 1.298 . S
C78 N82 1.367 . S
C78 C86 1.481 . S
C79 N81 1.299 . S
C79 N82 1.379 . S
N80 Zn64 2.036 . S
N80 C78 1.298 . S
N80 N81 1.398 . S
N81 C79 1.299 . S
N81 N80 1.398 . S
N82 C78 1.367 . S
N82 C79 1.379 . S
H83 C86 0.980 . S
H84 C86 0.981 . S
H85 C86 0.981 . S
C86 C78 1.481 . S
C86 H83 0.980 . S
C86 H84 0.981 . S
C86 H85 0.981 . S
C87 C74 1.481 . S
C87 H88 0.980 . S
C87 H89 0.981 . S
C87 H90 0.981 . S
H88 C87 0.980 . S
H89 C87 0.981 . S
H90 C87 0.981 . S
O91 Zn67 2.066 . S
O91 C70 1.256 . S
O92 Zn64 2.053 . S
O92 C70 1.244 . S
C93 O71 1.259 . S
C93 O72 1.254 . S
O94 Zn64 2.066 . S
O94 C66 1.256 . S
O95 C66 1.244 . S
O95 Zn67 2.053 . S
Zn96 O97 2.055 . S
Zn96 O104 2.046 . S
Zn96 N112 2.036 . S
Zn96 O124 2.053 . S
Zn96 O126 2.066 . S
O97 Zn96 2.055 . S
O97 C100 1.259 . S
C98 O126 1.256 . S
C98 O127 1.244 . S
Zn99 O101 2.046 . S
Zn99 O103 2.055 . S
Zn99 N105 2.036 . S
Zn99 O123 2.066 . S
Zn99 O127 2.053 . S
C100 O97 1.259 . S
C100 O101 1.254 . S
O101 Zn99 2.046 . S
O101 C100 1.254 . S
C102 O123 1.256 . S
C102 O124 1.244 . S
O103 Zn99 2.055 . S
O103 C125 1.259 . S
O104 Zn96 2.046 . S
O104 C125 1.254 . S
N105 Zn99 2.036 . S
N105 C106 1.298 . S
N105 N108 1.398 . S
C106 N105 1.298 . S
C106 N109 1.367 . S
C106 C119 1.481 . S
C107 N108 1.299 . S
C107 N109 1.379 . S
N108 N105 1.398 . S
N108 C107 1.299 . S
N109 C106 1.367 . S
N109 C107 1.379 . S
C110 N112 1.298 . S
C110 N114 1.367 . S
C110 C118 1.481 . S
C111 N113 1.299 . S
C111 N114 1.379 . S
N112 Zn96 2.036 . S
N112 C110 1.298 . S
N112 N113 1.398 . S
N113 C111 1.299 . S
N113 N112 1.398 . S
N114 C110 1.367 . S
N114 C111 1.379 . S
H115 C118 0.980 . S
H116 C118 0.981 . S
H117 C118 0.981 . S
C118 C110 1.481 . S
C118 H115 0.980 . S
C118 H116 0.981 . S
C118 H117 0.981 . S
C119 C106 1.481 . S
C119 H120 0.980 . S
C119 H121 0.981 . S
C119 H122 0.981 . S
H120 C119 0.980 . S
H121 C119 0.981 . S
H122 C119 0.981 . S
O123 Zn99 2.066 . S
O123 C102 1.256 . S
O124 Zn96 2.053 . S
O124 C102 1.244 . S
C125 O103 1.259 . S
C125 O104 1.254 . S
O126 Zn96 2.066 . S
O126 C98 1.256 . S
O127 C98 1.244 . S
O127 Zn99 2.053 . S
H128 C129 0.954 . S
C129 H128 0.954 . S
C129 C135 1.264 1_554 S
H130 C135 0.950 . S
H131 C139 0.949 . S
H132 C140 0.950 . S
H133 C141 0.951 . S
H134 C142 0.951 . S
C135 C129 1.264 1_556 S
C135 H130 0.950 . S
C135 C136 1.478 . S
C136 C135 1.478 . S
C136 C137 1.397 . S
C136 C153 1.394 1_556 S
C137 C136 1.397 . S
C137 C138 1.438 . S
C137 C142 1.429 . S
C138 C137 1.438 . S
C138 C139 1.428 . S
C138 C151 1.394 1_556 S
C139 H131 0.949 . S
C139 C138 1.428 . S
C139 C140 1.345 . S
C140 H132 0.950 . S
C140 C139 1.345 . S
C140 C141 1.424 . S
C141 H133 0.951 . S
C141 C140 1.424 . S
C141 C142 1.347 . S
C142 H134 0.951 . S
C142 C137 1.429 . S
C142 C141 1.347 . S
H143 C144 0.949 1_556 S
C144 H143 0.949 1_554 S
C144 C150 1.265 . S
H145 C150 0.950 . S
H146 C154 0.949 . S
H147 C155 0.950 . S
H148 C156 0.951 . S
H149 C157 0.951 . S
C150 C144 1.265 . S
C150 H145 0.950 . S
C150 C151 1.478 . S
C151 C138 1.394 1_554 S
C151 C150 1.478 . S
C151 C152 1.397 . S
C152 C151 1.397 . S
C152 C153 1.438 . S
C152 C157 1.429 . S
C153 C136 1.394 1_554 S
C153 C152 1.438 . S
C153 C154 1.428 . S
C154 H146 0.949 . S
C154 C153 1.428 . S
C154 C155 1.345 . S
C155 H147 0.950 . S
C155 C154 1.345 . S
C155 C156 1.424 . S
C156 H148 0.951 . S
C156 C155 1.424 . S
C156 C157 1.347 . S
C157 H149 0.951 . S
C157 C152 1.429 . S
C157 C156 1.347 . S
H158 C159 0.951 . S
C159 H158 0.951 . S
C159 C165 1.265 . S
H160 C165 0.950 . S
H161 C169 0.949 . S
H162 C170 0.950 . S
H163 C171 0.951 . S
H164 C172 0.951 . S
C165 C159 1.265 . S
C165 H160 0.950 . S
C165 C166 1.478 . S
C166 C165 1.478 . S
C166 C167 1.397 . S
C166 C183 1.394 . S
C167 C166 1.397 . S
C167 C168 1.438 . S
C167 C172 1.429 . S
C168 C167 1.438 . S
C168 C169 1.428 . S
C168 C181 1.394 . S
C169 H161 0.949 . S
C169 C168 1.428 . S
C169 C170 1.345 . S
C170 H162 0.950 . S
C170 C169 1.345 . S
C170 C171 1.424 . S
C171 H163 0.951 . S
C171 C170 1.424 . S
C171 C172 1.347 . S
C172 H164 0.951 . S
C172 C167 1.429 . S
C172 C171 1.347 . S
H173 C174 0.951 . S
C174 H173 0.951 . S
C174 C180 1.265 . S
H175 C180 0.950 . S
H176 C184 0.949 . S
H177 C185 0.950 . S
H178 C186 0.951 . S
H179 C187 0.951 . S
C180 C174 1.265 . S
C180 H175 0.950 . S
C180 C181 1.478 . S
C181 C168 1.394 . S
C181 C180 1.478 . S
C181 C182 1.397 . S
C182 C181 1.397 . S
C182 C183 1.438 . S
C182 C187 1.429 . S
C183 C166 1.394 . S
C183 C182 1.438 . S
C183 C184 1.428 . S
C184 H176 0.949 . S
C184 C183 1.428 . S
C184 C185 1.345 . S
C185 H177 0.950 . S
C185 C184 1.345 . S
C185 C186 1.424 . S
C186 H178 0.951 . S
C186 C185 1.424 . S
C186 C187 1.347 . S
C187 H179 0.951 . S
C187 C182 1.429 . S
C187 C186 1.347 . S
H188 C189 0.951 1_556 S
C189 H188 0.951 1_554 S
C189 C195 1.264 . S
H190 C195 0.950 . S
H191 C199 0.949 . S
H192 C200 0.950 . S
H193 C201 0.951 . S
H194 C202 0.951 . S
C195 C189 1.264 . S
C195 H190 0.950 . S
C195 C196 1.478 . S
C196 C195 1.478 . S
C196 C197 1.397 . S
C196 C213 1.394 1_454 S
C197 C196 1.397 . S
C197 C198 1.438 1_445 S
C197 C202 1.429 . S
C198 C197 1.438 1_665 S
C198 C199 1.428 . S
C198 C211 1.390 1_554 S
C199 H191 0.949 . S
C199 C198 1.428 . S
C199 C200 1.345 1_655 S
C200 H192 0.950 . S
C200 C199 1.345 1_455 S
C200 C201 1.424 1_565 S
C201 H193 0.951 . S
C201 C200 1.424 1_545 S
C201 C202 1.347 . S
C202 H194 0.951 . S
C202 C197 1.429 . S
C202 C201 1.347 . S
H203 C204 0.953 . S
C204 H203 0.953 . S
C204 C210 1.260 1_554 S
H205 C210 0.950 . S
H206 C214 0.949 1_455 S
H207 C215 0.950 . S
H208 C216 0.951 1_565 S
H209 C217 0.951 . S
C210 C204 1.260 1_556 S
C210 H205 0.950 . S
C210 C211 1.478 . S
C211 C198 1.390 1_556 S
C211 C210 1.478 . S
C211 C212 1.401 . S
C212 C211 1.401 . S
C212 C213 1.438 1_565 S
C212 C217 1.429 . S
C213 C196 1.394 1_656 S
C213 C212 1.438 1_545 S
C213 C214 1.428 . S
C214 H206 0.949 1_655 S
C214 C213 1.428 . S
C214 C215 1.345 . S
C215 H207 0.950 . S
C215 C214 1.345 . S
C215 C216 1.424 . S
C216 H208 0.951 1_545 S
C216 C215 1.424 . S
C216 C217 1.347 1_545 S
C217 H209 0.951 . S
C217 C212 1.429 . S
C217 C216 1.347 1_565 S
H218 C219 0.951 . S
C219 H218 0.951 . S
C219 C225 1.265 . S
H220 C225 0.950 . S
H221 C229 0.949 . S
H222 C230 0.950 . S
H223 C231 0.951 . S
H224 C232 0.951 1_655 S
C225 C219 1.265 . S
C225 H220 0.950 . S
C225 C226 1.478 . S
C226 C225 1.478 . S
C226 C227 1.397 . S
C226 C243 1.394 . S
C227 C226 1.397 . S
C227 C228 1.438 1_645 S
C227 C232 1.429 1_655 S
C228 C227 1.438 1_465 S
C228 C229 1.428 . S
C228 C241 1.394 . S
C229 H221 0.949 . S
C229 C228 1.428 . S
C229 C230 1.345 1_565 S
C230 H222 0.950 . S
C230 C229 1.345 1_545 S
C230 C231 1.424 . S
C231 H223 0.951 . S
C231 C230 1.424 . S
C231 C232 1.347 . S
C232 H224 0.951 1_455 S
C232 C227 1.429 1_455 S
C232 C231 1.347 . S
H233 C234 0.951 . S
C234 H233 0.951 . S
C234 C240 1.265 . S
H235 C240 0.950 1_655 S
H236 C244 0.949 . S
H237 C245 0.950 . S
H238 C246 0.951 . S
H239 C247 0.951 . S
C240 C234 1.265 . S
C240 H235 0.950 1_455 S
C240 C241 1.478 . S
C241 C228 1.394 . S
C241 C240 1.478 . S
C241 C242 1.397 1_455 S
C242 C241 1.397 1_655 S
C242 C243 1.438 1_565 S
C242 C247 1.429 . S
C243 C226 1.394 . S
C243 C242 1.438 1_545 S
C243 C244 1.428 . S
C244 H236 0.949 . S
C244 C243 1.428 . S
C244 C245 1.345 1_545 S
C245 H237 0.950 . S
C245 C244 1.345 1_565 S
C245 C246 1.424 . S
C246 H238 0.951 . S
C246 C245 1.424 . S
C246 C247 1.347 . S
C247 H239 0.951 . S
C247 C242 1.429 . S
C247 C246 1.347 . S
H248 C249 0.951 . S
C249 H248 0.951 . S
C249 C255 1.265 . S
H250 C255 0.950 . S
H251 C259 0.949 . S
H252 C260 0.950 . S
H253 C261 0.951 . S
H254 C262 0.951 . S
C255 C249 1.265 . S
C255 H250 0.950 . S
C255 C256 1.478 . S
C256 C255 1.478 . S
C256 C257 1.397 . S
C256 C273 1.394 . S
C257 C256 1.397 . S
C257 C258 1.438 . S
C257 C262 1.429 . S
C258 C257 1.438 . S
C258 C259 1.428 . S
C258 C271 1.394 . S
C259 H251 0.949 . S
C259 C258 1.428 . S
C259 C260 1.345 . S
C260 H252 0.950 . S
C260 C259 1.345 . S
C260 C261 1.424 . S
C261 H253 0.951 . S
C261 C260 1.424 . S
C261 C262 1.347 . S
C262 H254 0.951 . S
C262 C257 1.429 . S
C262 C261 1.347 . S
H263 C264 0.951 . S
C264 H263 0.951 . S
C264 C270 1.265 . S
H265 C270 0.950 . S
H266 C274 0.949 . S
H267 C275 0.950 . S
H268 C276 0.951 . S
H269 C277 0.951 . S
C270 C264 1.265 . S
C270 H265 0.950 . S
C270 C271 1.478 . S
C271 C258 1.394 . S
C271 C270 1.478 . S
C271 C272 1.397 . S
C272 C271 1.397 . S
C272 C273 1.438 . S
C272 C277 1.429 . S
C273 C256 1.394 . S
C273 C272 1.438 . S
C273 C274 1.428 . S
C274 H266 0.949 . S
C274 C273 1.428 . S
C274 C275 1.345 . S
C275 H267 0.950 . S
C275 C274 1.345 . S
C275 C276 1.424 . S
C276 H268 0.951 . S
C276 C275 1.424 . S
C276 C277 1.347 . S
C277 H269 0.951 . S
C277 C272 1.429 . S
C277 C276 1.347 . S
H278 C279 0.951 . S
C279 H278 0.951 . S
C279 C285 1.265 . S
H280 C285 0.950 . S
H281 C289 0.949 . S
H282 C290 0.950 . S
H283 C291 0.951 . S
H284 C292 0.951 . S
C285 C279 1.265 . S
C285 H280 0.950 . S
C285 C286 1.478 . S
C286 C285 1.478 . S
C286 C287 1.397 . S
C286 C303 1.394 . S
C287 C286 1.397 . S
C287 C288 1.438 . S
C287 C292 1.429 . S
C288 C287 1.438 . S
C288 C289 1.428 . S
C288 C301 1.394 . S
C289 H281 0.949 . S
C289 C288 1.428 . S
C289 C290 1.345 . S
C290 H282 0.950 . S
C290 C289 1.345 . S
C290 C291 1.424 . S
C291 H283 0.951 . S
C291 C290 1.424 . S
C291 C292 1.347 . S
C292 H284 0.951 . S
C292 C287 1.429 . S
C292 C291 1.347 . S
H293 C294 0.951 . S
C294 H293 0.951 . S
C294 C300 1.265 . S
H295 C300 0.950 . S
H296 C304 0.949 . S
H297 C305 0.950 . S
H298 C306 0.951 . S
H299 C307 0.951 . S
C300 C294 1.265 . S
C300 H295 0.950 . S
C300 C301 1.478 . S
C301 C288 1.394 . S
C301 C300 1.478 . S
C301 C302 1.397 . S
C302 C301 1.397 . S
C302 C303 1.438 . S
C302 C307 1.429 . S
C303 C286 1.394 . S
C303 C302 1.438 . S
C303 C304 1.428 . S
C304 H296 0.949 . S
C304 C303 1.428 . S
C304 C305 1.345 . S
C305 H297 0.950 . S
C305 C304 1.345 . S
C305 C306 1.424 . S
C306 H298 0.951 . S
C306 C305 1.424 . S
C306 C307 1.347 . S
C307 H299 0.951 . S
C307 C302 1.429 . S
C307 C306 1.347 . S
H308 C309 0.951 . S
C309 H308 0.951 . S
C309 C315 1.265 . S
H310 C315 0.950 . S
H311 C319 0.949 . S
H312 C320 0.950 . S
H313 C321 0.951 . S
H314 C322 0.951 . S
C315 C309 1.265 . S
C315 H310 0.950 . S
C315 C316 1.478 . S
C316 C315 1.478 . S
C316 C317 1.397 . S
C316 C333 1.394 . S
C317 C316 1.397 . S
C317 C318 1.438 . S
C317 C322 1.429 . S
C318 C317 1.438 . S
C318 C319 1.428 . S
C318 C331 1.394 . S
C319 H311 0.949 . S
C319 C318 1.428 . S
C319 C320 1.345 . S
C320 H312 0.950 . S
C320 C319 1.345 . S
C320 C321 1.424 . S
C321 H313 0.951 . S
C321 C320 1.424 . S
C321 C322 1.347 . S
C322 H314 0.951 . S
C322 C317 1.429 . S
C322 C321 1.347 . S
H323 C324 0.951 . S
C324 H323 0.951 . S
C324 C330 1.265 . S
H325 C330 0.950 . S
H326 C334 0.949 . S
H327 C335 0.950 . S
H328 C336 0.951 . S
H329 C337 0.951 . S
C330 C324 1.265 . S
C330 H325 0.950 . S
C330 C331 1.478 . S
C331 C318 1.394 . S
C331 C330 1.478 . S
C331 C332 1.397 . S
C332 C331 1.397 . S
C332 C333 1.438 . S
C332 C337 1.429 . S
C333 C316 1.394 . S
C333 C332 1.438 . S
C333 C334 1.428 . S
C334 H326 0.949 . S
C334 C333 1.428 . S
C334 C335 1.345 . S
C335 H327 0.950 . S
C335 C334 1.345 . S
C335 C336 1.424 . S
C336 H328 0.951 . S
C336 C335 1.424 . S
C336 C337 1.347 . S
C337 H329 0.951 . S
C337 C332 1.429 . S
C337 C336 1.347 . S
H338 C339 0.951 . S
C339 H338 0.951 . S
C339 C345 1.265 . S
H340 C345 0.950 . S
H341 C349 0.949 . S
H342 C350 0.950 . S
H343 C351 0.951 . S
H344 C352 0.951 . S
C345 C339 1.265 . S
C345 H340 0.950 . S
C345 C346 1.478 . S
C346 C345 1.478 . S
C346 C347 1.397 . S
C346 C363 1.394 . S
C347 C346 1.397 . S
C347 C348 1.438 . S
C347 C352 1.429 . S
C348 C347 1.438 . S
C348 C349 1.428 . S
C348 C361 1.394 . S
C349 H341 0.949 . S
C349 C348 1.428 . S
C349 C350 1.345 . S
C350 H342 0.950 . S
C350 C349 1.345 . S
C350 C351 1.424 . S
C351 H343 0.951 . S
C351 C350 1.424 . S
C351 C352 1.347 . S
C352 H344 0.951 . S
C352 C347 1.429 . S
C352 C351 1.347 . S
H353 C354 0.951 . S
C354 H353 0.951 . S
C354 C360 1.265 . S
H355 C360 0.950 . S
H356 C364 0.949 . S
H357 C365 0.950 . S
H358 C366 0.951 . S
H359 C367 0.951 . S
C360 C354 1.265 . S
C360 H355 0.950 . S
C360 C361 1.478 . S
C361 C348 1.394 . S
C361 C360 1.478 . S
C361 C362 1.397 . S
C362 C361 1.397 . S
C362 C363 1.438 . S
C362 C367 1.429 . S
C363 C346 1.394 . S
C363 C362 1.438 . S
C363 C364 1.428 . S
C364 H356 0.949 . S
C364 C363 1.428 . S
C364 C365 1.345 . S
C365 H357 0.950 . S
C365 C364 1.345 . S
C365 C366 1.424 . S
C366 H358 0.951 . S
C366 C365 1.424 . S
C366 C367 1.347 . S
C367 H359 0.951 . S
C367 C362 1.429 . S
C367 C366 1.347 . S
H368 C369 0.951 . S
C369 H368 0.951 . S
C369 C375 1.265 . S
H370 C375 0.950 1_455 S
H371 C379 0.949 . S
H372 C380 0.950 . S
H373 C381 0.951 . S
H374 C382 0.951 . S
C375 C369 1.265 . S
C375 H370 0.950 1_655 S
C375 C376 1.478 . S
C376 C375 1.478 . S
C376 C377 1.397 1_655 S
C376 C393 1.394 . S
C377 C376 1.397 1_455 S
C377 C378 1.438 . S
C377 C382 1.429 . S
C378 C377 1.438 . S
C378 C379 1.428 . S
C378 C391 1.394 . S
C379 H371 0.949 . S
C379 C378 1.428 . S
C379 C380 1.345 . S
C380 H372 0.950 . S
C380 C379 1.345 . S
C380 C381 1.424 . S
C381 H373 0.951 . S
C381 C380 1.424 . S
C381 C382 1.347 . S
C382 H374 0.951 . S
C382 C377 1.429 . S
C382 C381 1.347 . S
H383 C384 0.951 . S
C384 H383 0.951 . S
C384 C390 1.265 . S
H385 C390 0.950 1_655 S
H386 C394 0.949 . S
H387 C395 0.950 . S
H388 C396 0.951 . S
H389 C397 0.951 . S
C390 C384 1.265 . S
C390 H385 0.950 1_455 S
C390 C391 1.478 . S
C391 C378 1.394 . S
C391 C390 1.478 . S
C391 C392 1.397 1_455 S
C392 C391 1.397 1_655 S
C392 C393 1.438 . S
C392 C397 1.429 . S
C393 C376 1.394 . S
C393 C392 1.438 . S
C393 C394 1.428 . S
C394 H386 0.949 . S
C394 C393 1.428 . S
C394 C395 1.345 . S
C395 H387 0.950 . S
C395 C394 1.345 . S
C395 C396 1.424 . S
C396 H388 0.951 . S
C396 C395 1.424 . S
C396 C397 1.347 . S
C397 H389 0.951 . S
C397 C392 1.429 . S
C397 C396 1.347 . S
H398 C399 0.951 . S
C399 H398 0.951 . S
C399 C405 1.265 . S
H400 C405 0.950 . S
H401 C409 0.949 . S
H402 C410 0.950 . S
H403 C411 0.951 . S
H404 C412 0.951 . S
C405 C399 1.265 . S
C405 H400 0.950 . S
C405 C406 1.478 . S
C406 C405 1.478 . S
C406 C407 1.397 . S
C406 C423 1.394 1_655 S
C407 C406 1.397 . S
C407 C408 1.438 . S
C407 C412 1.429 . S
C408 C407 1.438 . S
C408 C409 1.428 . S
C408 C421 1.394 1_655 S
C409 H401 0.949 . S
C409 C408 1.428 . S
C409 C410 1.345 . S
C410 H402 0.950 . S
C410 C409 1.345 . S
C410 C411 1.424 . S
C411 H403 0.951 . S
C411 C410 1.424 . S
C411 C412 1.347 . S
C412 H404 0.951 . S
C412 C407 1.429 . S
C412 C411 1.347 . S
H413 C414 0.951 . S
C414 H413 0.951 . S
C414 C420 1.265 . S
H415 C420 0.950 . S
H416 C424 0.949 . S
H417 C425 0.950 . S
H418 C426 0.951 . S
H419 C427 0.951 . S
C420 C414 1.265 . S
C420 H415 0.950 . S
C420 C421 1.478 . S
C421 C408 1.394 1_455 S
C421 C420 1.478 . S
C421 C422 1.397 . S
C422 C421 1.397 . S
C422 C423 1.438 . S
C422 C427 1.429 . S
C423 C406 1.394 1_455 S
C423 C422 1.438 . S
C423 C424 1.428 . S
C424 H416 0.949 . S
C424 C423 1.428 . S
C424 C425 1.345 . S
C425 H417 0.950 . S
C425 C424 1.345 . S
C425 C426 1.424 . S
C426 H418 0.951 . S
C426 C425 1.424 . S
C426 C427 1.347 . S
C427 H419 0.951 . S
C427 C422 1.429 . S
C427 C426 1.347 . S
H428 C429 0.951 . S
C429 H428 0.951 . S
C429 C435 1.265 . S
H430 C435 0.950 . S
H431 C439 0.949 . S
H432 C440 0.950 . S
H433 C441 0.951 . S
H434 C442 0.951 . S
C435 C429 1.265 . S
C435 H430 0.950 . S
C435 C436 1.478 . S
C436 C435 1.478 . S
C436 C437 1.397 1_655 S
C436 C453 1.394 . S
C437 C436 1.397 1_455 S
C437 C438 1.438 . S
C437 C442 1.429 . S
C438 C437 1.438 . S
C438 C439 1.428 . S
C438 C451 1.394 . S
C439 H431 0.949 . S
C439 C438 1.428 . S
C439 C440 1.345 . S
C440 H432 0.950 . S
C440 C439 1.345 . S
C440 C441 1.424 . S
C441 H433 0.951 . S
C441 C440 1.424 . S
C441 C442 1.347 . S
C442 H434 0.951 . S
C442 C437 1.429 . S
C442 C441 1.347 . S
H443 C444 0.951 . S
C444 H443 0.951 . S
C444 C450 1.265 . S
H445 C450 0.950 . S
H446 C454 0.949 . S
H447 C455 0.950 . S
H448 C456 0.951 . S
H449 C457 0.951 1_455 S
C450 C444 1.265 . S
C450 H445 0.950 . S
C450 C451 1.478 . S
C451 C438 1.394 . S
C451 C450 1.478 . S
C451 C452 1.397 . S
C452 C451 1.397 . S
C452 C453 1.438 1_455 S
C452 C457 1.429 1_455 S
C453 C436 1.394 . S
C453 C452 1.438 1_655 S
C453 C454 1.428 . S
C454 H446 0.949 . S
C454 C453 1.428 . S
C454 C455 1.345 . S
C455 H447 0.950 . S
C455 C454 1.345 . S
C455 C456 1.424 . S
C456 H448 0.951 . S
C456 C455 1.424 . S
C456 C457 1.347 . S
C457 H449 0.951 1_655 S
C457 C452 1.429 1_655 S
C457 C456 1.347 . S
H458 C459 0.951 . S
C459 H458 0.951 . S
C459 C465 1.265 . S
H460 C465 0.950 . S
H461 C469 0.949 . S
H462 C470 0.950 . S
H463 C471 0.951 . S
H464 C472 0.951 1_455 S
C465 C459 1.265 . S
C465 H460 0.950 . S
C465 C466 1.478 . S
C466 C465 1.478 . S
C466 C467 1.397 . S
C466 C483 1.394 . S
C467 C466 1.397 . S
C467 C468 1.438 1_455 S
C467 C472 1.429 1_455 S
C468 C467 1.438 1_655 S
C468 C469 1.428 . S
C468 C481 1.394 . S
C469 H461 0.949 . S
C469 C468 1.428 . S
C469 C470 1.345 . S
C470 H462 0.950 . S
C470 C469 1.345 . S
C470 C471 1.424 . S
C471 H463 0.951 . S
C471 C470 1.424 . S
C471 C472 1.347 . S
C472 H464 0.951 1_655 S
C472 C467 1.429 1_655 S
C472 C471 1.347 . S
H473 C474 0.951 . S
C474 H473 0.951 . S
C474 C480 1.265 . S
H475 C480 0.950 1_455 S
H476 C484 0.949 . S
H477 C485 0.950 . S
H478 C486 0.951 . S
H479 C487 0.951 . S
C480 C474 1.265 . S
C480 H475 0.950 1_655 S
C480 C481 1.478 . S
C481 C468 1.394 . S
C481 C480 1.478 . S
C481 C482 1.397 1_655 S
C482 C481 1.397 1_455 S
C482 C483 1.438 . S
C482 C487 1.429 . S
C483 C466 1.394 . S
C483 C482 1.438 . S
C483 C484 1.428 . S
C484 H476 0.949 . S
C484 C483 1.428 . S
C484 C485 1.345 . S
C485 H477 0.950 . S
C485 C484 1.345 . S
C485 C486 1.424 . S
C486 H478 0.951 . S
C486 C485 1.424 . S
C486 C487 1.347 . S
C487 H479 0.951 . S
C487 C482 1.429 . S
C487 C486 1.347 . S
C129 N45 1.605 1_554 S
C144 N18 1.600 . S
C159 N77 1.589 . S
C174 N114 1.601 . S
C189 N13 1.571 1_554 S
C204 N50 1.535 . S
C219 N109 1.595 . S
C234 N82 1.607 . S
C249 C98 0.988 . S
C264 C29 0.967 . S
C279 C38 0.982 . S
C294 C68 0.972 . S
C309 C34 1.006 . S
C324 C93 0.989 . S
C339 C102 0.947 . S
C354 C4 0.963 . S
C369 C61 0.940 . S
C384 C66 0.919 . S
C399 C100 0.963 . S
C414 C6 0.917 . S
C429 C125 1.002 . S
C444 C2 0.989 . S
C459 C70 0.946 . S
C474 C36 0.965 . S
