# Generated by pormake.
# Topology wiu, (6)-cn, num edge types: 1
# Building blocks:
#     Node 0, Type 0, BuildingBlock: UKALOJ_clean_sbu_0, # of connection points: 6
#     Node 1, Type 0, BuildingBlock: UKALOJ_clean_sbu_0, # of connection points: 6
#     Node 2, Type 0, BuildingBlock: UKALOJ_clean_sbu_0, # of connection points: 6
#     Node 3, Type 0, BuildingBlock: UKALOJ_clean_sbu_0, # of connection points: 6
#     Node 4, Type 0, BuildingBlock: UKALOJ_clean_sbu_0, # of connection points: 6
#     Node 5, Type 0, BuildingBlock: UKALOJ_clean_sbu_0, # of connection points: 6
#     Node 6, Type 0, BuildingBlock: UKALOJ_clean_sbu_0, # of connection points: 6
#     Node 7, Type 0, BuildingBlock: UKALOJ_clean_sbu_0, # of connection points: 6
#     Node 8, Type 0, BuildingBlock: UKALOJ_clean_sbu_0, # of connection points: 6
#     Node 9, Type 0, BuildingBlock: UKALOJ_clean_sbu_0, # of connection points: 6
#     Node 10, Type 0, BuildingBlock: UKALOJ_clean_sbu_0, # of connection points: 6
#     Node 11, Type 0, BuildingBlock: UKALOJ_clean_sbu_0, # of connection points: 6
#     Node 12, Type 0, BuildingBlock: UKALOJ_clean_sbu_0, # of connection points: 6
#     Node 13, Type 0, BuildingBlock: UKALOJ_clean_sbu_0, # of connection points: 6
#     Node 14, Type 0, BuildingBlock: UKALOJ_clean_sbu_0, # of connection points: 6
#     Node 15, Type 0, BuildingBlock: UKALOJ_clean_sbu_0, # of connection points: 6
#     Edge 16, Type (0, 0), BuildingBlock: UVAHIK_clean_linker_0, # of connection points: 2
#     Edge 17, Type (0, 0), BuildingBlock: UVAHIK_clean_linker_0, # of connection points: 2
#     Edge 18, Type (0, 0), BuildingBlock: UVAHIK_clean_linker_0, # of connection points: 2
#     Edge 19, Type (0, 0), BuildingBlock: UVAHIK_clean_linker_0, # of connection points: 2
#     Edge 20, Type (0, 0), BuildingBlock: UVAHIK_clean_linker_0, # of connection points: 2
#     Edge 21, Type (0, 0), BuildingBlock: UVAHIK_clean_linker_0, # of connection points: 2
#     Edge 22, Type (0, 0), BuildingBlock: UVAHIK_clean_linker_0, # of connection points: 2
#     Edge 23, Type (0, 0), BuildingBlock: UVAHIK_clean_linker_0, # of connection points: 2
#     Edge 24, Type (0, 0), BuildingBlock: UVAHIK_clean_linker_0, # of connection points: 2
#     Edge 25, Type (0, 0), BuildingBlock: UVAHIK_clean_linker_0, # of connection points: 2
#     Edge 26, Type (0, 0), BuildingBlock: UVAHIK_clean_linker_0, # of connection points: 2
#     Edge 27, Type (0, 0), BuildingBlock: UVAHIK_clean_linker_0, # of connection points: 2
#     Edge 28, Type (0, 0), BuildingBlock: UVAHIK_clean_linker_0, # of connection points: 2
#     Edge 29, Type (0, 0), BuildingBlock: UVAHIK_clean_linker_0, # of connection points: 2
#     Edge 30, Type (0, 0), BuildingBlock: UVAHIK_clean_linker_0, # of connection points: 2
#     Edge 31, Type (0, 0), BuildingBlock: UVAHIK_clean_linker_0, # of connection points: 2
#     Edge 32, Type (0, 0), BuildingBlock: UVAHIK_clean_linker_0, # of connection points: 2
#     Edge 33, Type (0, 0), BuildingBlock: UVAHIK_clean_linker_0, # of connection points: 2
#     Edge 34, Type (0, 0), BuildingBlock: UVAHIK_clean_linker_0, # of connection points: 2
#     Edge 35, Type (0, 0), BuildingBlock: UVAHIK_clean_linker_0, # of connection points: 2
#     Edge 36, Type (0, 0), BuildingBlock: UVAHIK_clean_linker_0, # of connection points: 2
#     Edge 37, Type (0, 0), BuildingBlock: UVAHIK_clean_linker_0, # of connection points: 2
#     Edge 38, Type (0, 0), BuildingBlock: UVAHIK_clean_linker_0, # of connection points: 2
#     Edge 39, Type (0, 0), BuildingBlock: UVAHIK_clean_linker_0, # of connection points: 2
#     Edge 40, Type (0, 0), BuildingBlock: UVAHIK_clean_linker_0, # of connection points: 2
#     Edge 41, Type (0, 0), BuildingBlock: UVAHIK_clean_linker_0, # of connection points: 2
#     Edge 42, Type (0, 0), BuildingBlock: UVAHIK_clean_linker_0, # of connection points: 2
#     Edge 43, Type (0, 0), BuildingBlock: UVAHIK_clean_linker_0, # of connection points: 2
#     Edge 44, Type (0, 0), BuildingBlock: UVAHIK_clean_linker_0, # of connection points: 2
#     Edge 45, Type (0, 0), BuildingBlock: UVAHIK_clean_linker_0, # of connection points: 2
#     Edge 46, Type (0, 0), BuildingBlock: UVAHIK_clean_linker_0, # of connection points: 2
#     Edge 47, Type (0, 0), BuildingBlock: UVAHIK_clean_linker_0, # of connection points: 2
#     Edge 48, Type (0, 0), BuildingBlock: UVAHIK_clean_linker_0, # of connection points: 2
#     Edge 49, Type (0, 0), BuildingBlock: UVAHIK_clean_linker_0, # of connection points: 2
#     Edge 50, Type (0, 0), BuildingBlock: UVAHIK_clean_linker_0, # of connection points: 2
#     Edge 51, Type (0, 0), BuildingBlock: UVAHIK_clean_linker_0, # of connection points: 2
#     Edge 52, Type (0, 0), BuildingBlock: UVAHIK_clean_linker_0, # of connection points: 2
#     Edge 53, Type (0, 0), BuildingBlock: UVAHIK_clean_linker_0, # of connection points: 2
#     Edge 54, Type (0, 0), BuildingBlock: UVAHIK_clean_linker_0, # of connection points: 2
#     Edge 55, Type (0, 0), BuildingBlock: UVAHIK_clean_linker_0, # of connection points: 2
#     Edge 56, Type (0, 0), BuildingBlock: UVAHIK_clean_linker_0, # of connection points: 2
#     Edge 57, Type (0, 0), BuildingBlock: UVAHIK_clean_linker_0, # of connection points: 2
#     Edge 58, Type (0, 0), BuildingBlock: UVAHIK_clean_linker_0, # of connection points: 2
#     Edge 59, Type (0, 0), BuildingBlock: UVAHIK_clean_linker_0, # of connection points: 2
#     Edge 60, Type (0, 0), BuildingBlock: UVAHIK_clean_linker_0, # of connection points: 2
#     Edge 61, Type (0, 0), BuildingBlock: UVAHIK_clean_linker_0, # of connection points: 2
#     Edge 62, Type (0, 0), BuildingBlock: UVAHIK_clean_linker_0, # of connection points: 2
#     Edge 63, Type (0, 0), BuildingBlock: UVAHIK_clean_linker_0, # of connection points: 2
# Relax obj value: 0.276
# Max RMSD: 0.196
# Mean RMSD: 0.196
data_MOF--net-wiu--node1-UKALOJ_clean_sbu_0--edge1-UVAHIK_clean_linker_0
_symmetry_space_group_name_H-M    P1
_symmetry_Int_Tables_number       1
_symmetry_cell_setting            triclinic
loop_
_symmetry_equiv_pos_as_xyz
'x, y, z'
_cell_length_a     35.492846
_cell_length_b     35.605447
_cell_length_c     88.055226
_cell_angle_alpha  89.949635
_cell_angle_beta   90.024024
_cell_angle_gamma 89.920317
loop_
_atom_site_label
_atom_site_type_symbol
_atom_site_fract_x
_atom_site_fract_y
_atom_site_fract_z
_atom_type_partial_charge
Zn0 Zn 0.35505 0.13412 0.07563 0.0
O1 O 0.33386 0.18129 0.08769 0.0
C2 C 0.28363 0.09235 0.08198 0.0
Zn3 Zn 0.31258 0.14449 0.05773 0.0
C4 C 0.30532 0.19988 0.08327 0.0
O5 O 0.28882 0.19004 0.07104 0.0
C6 C 0.36957 0.08339 0.04935 0.0
O7 O 0.34697 0.18284 0.04695 0.0
O8 O 0.39186 0.16935 0.06318 0.0
N9 N 0.27216 0.15278 0.04157 0.0
C10 C 0.27319 0.15124 0.02629 0.0
C11 C 0.21744 0.16732 0.03259 0.0
N12 N 0.23752 0.16279 0.04546 0.0
N13 N 0.23914 0.15999 0.02041 0.0
C14 C 0.39381 0.12052 0.10672 0.0
C15 C 0.45205 0.11979 0.10077 0.0
N16 N 0.39594 0.12668 0.09166 0.0
N17 N 0.43215 0.12638 0.08799 0.0
N18 N 0.42854 0.11578 0.11264 0.0
H19 H 0.36327 0.13095 0.12748 0.0
H20 H 0.34688 0.09181 0.11642 0.0
H21 H 0.33646 0.13896 0.11038 0.0
C22 C 0.35801 0.12084 0.11575 0.0
C23 C 0.30787 0.14318 0.01709 0.0
H24 H 0.33388 0.15016 0.02335 0.0
H25 H 0.30748 0.15927 0.0063 0.0
H26 H 0.30861 0.1128 0.01434 0.0
O27 O 0.34061 0.1006 0.04421 0.0
O28 O 0.37861 0.08846 0.06317 0.0
C29 C 0.3808 0.18618 0.05124 0.0
O30 O 0.31598 0.09862 0.08771 0.0
O31 O 0.27608 0.10573 0.06893 0.0
Zn32 Zn 0.66174 0.56161 0.3089 0.0
O33 O 0.62202 0.59442 0.29818 0.0
C34 C 0.72186 0.6199 0.30051 0.0
Zn35 Zn 0.67059 0.6049 0.32644 0.0
C36 C 0.61758 0.62828 0.30204 0.0
O37 O 0.63472 0.64091 0.31364 0.0
C38 C 0.7139 0.53437 0.3333 0.0
O39 O 0.62327 0.58293 0.33821 0.0
O40 O 0.61671 0.5365 0.32209 0.0
N41 N 0.67641 0.64588 0.34242 0.0
C42 C 0.68186 0.64395 0.35752 0.0
C43 C 0.68162 0.70199 0.35148 0.0
N44 N 0.67612 0.68195 0.33868 0.0
N45 N 0.68553 0.67869 0.36342 0.0
C46 C 0.6506 0.52424 0.27749 0.0
C47 C 0.64828 0.46597 0.28316 0.0
N48 N 0.65549 0.52142 0.29262 0.0
N49 N 0.65415 0.48523 0.29612 0.0
N50 N 0.64615 0.48987 0.27134 0.0
H51 H 0.65996 0.58408 0.27474 0.0
H52 H 0.61491 0.56716 0.26847 0.0
H53 H 0.65596 0.55888 0.25725 0.0
C54 C 0.64545 0.56062 0.26904 0.0
C55 C 0.68181 0.6083 0.36661 0.0
H56 H 0.6711 0.61342 0.37826 0.0
H57 H 0.71109 0.59759 0.36747 0.0
H58 H 0.66425 0.58652 0.36116 0.0
O59 O 0.70649 0.56649 0.33894 0.0
O60 O 0.7015 0.52658 0.32014 0.0
C61 C 0.60584 0.55354 0.33405 0.0
O62 O 0.70515 0.59071 0.29546 0.0
O63 O 0.71641 0.62911 0.31429 0.0
Zn64 Zn 0.20159 0.91118 0.5736 0.0
O65 O 0.22552 0.86649 0.58586 0.0
C66 C 0.26994 0.95761 0.58047 0.0
Zn67 Zn 0.2447 0.90561 0.5555 0.0
C68 C 0.2543 0.84897 0.58109 0.0
O69 O 0.26954 0.85946 0.56866 0.0
C70 C 0.18505 0.96322 0.54735 0.0
O71 O 0.21233 0.86726 0.54391 0.0
O72 O 0.16808 0.87203 0.56122 0.0
N73 N 0.28685 0.89989 0.53985 0.0
C74 C 0.28634 0.89029 0.52505 0.0
C75 C 0.34397 0.89352 0.53178 0.0
N76 N 0.32269 0.90201 0.54398 0.0
N77 N 0.32174 0.88569 0.51981 0.0
C78 C 0.16081 0.92196 0.60442 0.0
C79 C 0.10293 0.91746 0.59815 0.0
N80 N 0.15972 0.91579 0.58935 0.0
N81 N 0.12375 0.91289 0.58547 0.0
N82 N 0.12562 0.92345 0.61015 0.0
H83 H 0.19144 0.91395 0.62537 0.0
H84 H 0.20469 0.95453 0.61445 0.0
H85 H 0.21942 0.90852 0.60844 0.0
C86 C 0.19618 0.92463 0.61368 0.0
C87 C 0.25141 0.88715 0.51556 0.0
H88 H 0.22901 0.90594 0.51989 0.0
H89 H 0.2411 0.85777 0.51594 0.0
H90 H 0.25744 0.89446 0.50355 0.0
O91 O 0.21579 0.94941 0.54219 0.0
O92 O 0.17527 0.95486 0.56083 0.0
C93 C 0.18006 0.85847 0.54876 0.0
O94 O 0.23756 0.94977 0.58586 0.0
O95 O 0.27887 0.9448 0.5675 0.0
Zn96 Zn 0.88308 0.44956 0.82504 0.0
O97 O 0.93034 0.46945 0.83772 0.0
C98 C 0.84432 0.52235 0.83023 0.0
Zn99 Zn 0.89735 0.48951 0.80673 0.0
C100 C 0.95121 0.49586 0.83289 0.0
O101 O 0.94338 0.51105 0.82017 0.0
C102 C 0.834 0.43597 0.79801 0.0
O103 O 0.93429 0.45246 0.79641 0.0
O104 O 0.918 0.41092 0.81356 0.0
N105 N 0.9086 0.52918 0.79072 0.0
C106 C 0.91823 0.52664 0.77597 0.0
C107 C 0.92021 0.58464 0.78198 0.0
N108 N 0.90979 0.56522 0.79443 0.0
N109 N 0.92607 0.56096 0.77032 0.0
C110 C 0.86632 0.41232 0.85609 0.0
C111 C 0.86406 0.35422 0.85024 0.0
N112 N 0.8727 0.40979 0.84107 0.0
N113 N 0.87135 0.37369 0.83745 0.0
N114 N 0.86054 0.37789 0.86206 0.0
H115 H 0.87809 0.44284 0.87674 0.0
H116 H 0.83901 0.46021 0.86575 0.0
H117 H 0.8863 0.46908 0.85954 0.0
C118 C 0.86778 0.44816 0.86503 0.0
C119 C 0.91814 0.49103 0.76689 0.0
H120 H 0.9471 0.47939 0.76658 0.0
H121 H 0.90917 0.49668 0.75503 0.0
H122 H 0.89922 0.46978 0.77192 0.0
O123 O 0.85269 0.46392 0.7929 0.0
O124 O 0.83774 0.42732 0.81195 0.0
C125 C 0.9358 0.41928 0.80151 0.0
O126 O 0.84747 0.48999 0.83627 0.0
O127 O 0.86018 0.52831 0.81751 0.0
Zn128 Zn 0.69128 0.91901 0.92433 0.0
O129 O 0.70954 0.86989 0.91281 0.0
C130 C 0.76408 0.95855 0.91709 0.0
Zn131 Zn 0.73462 0.90898 0.94179 0.0
C132 C 0.73878 0.8518 0.91678 0.0
O133 O 0.75716 0.863 0.92835 0.0
C134 C 0.6796 0.97144 0.95024 0.0
O135 O 0.69942 0.87156 0.95298 0.0
O136 O 0.65361 0.88652 0.93738 0.0
N137 N 0.77544 0.89951 0.9576 0.0
C138 C 0.77546 0.90056 0.9729 0.0
C139 C 0.82961 0.88103 0.96591 0.0
N140 N 0.80912 0.88745 0.9533 0.0
N141 N 0.80916 0.88926 0.97834 0.0
C142 C 0.65262 0.93187 0.89326 0.0
C143 C 0.59455 0.93631 0.89922 0.0
N144 N 0.65029 0.92713 0.90839 0.0
N145 N 0.61416 0.92971 0.91208 0.0
N146 N 0.61818 0.93799 0.8873 0.0
H147 H 0.68234 0.91815 0.87263 0.0
H148 H 0.70068 0.95744 0.88304 0.0
H149 H 0.70904 0.91043 0.88977 0.0
C150 C 0.68826 0.92904 0.88419 0.0
C151 C 0.74202 0.91046 0.98252 0.0
H152 H 0.74223 0.89417 0.99327 0.0
H153 H 0.74335 0.94076 0.98539 0.0
H154 H 0.71523 0.90514 0.97652 0.0
O155 O 0.70813 0.95351 0.95537 0.0
O156 O 0.67028 0.96648 0.93644 0.0
C157 C 0.66504 0.86959 0.94924 0.0
O158 O 0.73158 0.95198 0.91156 0.0
O159 O 0.77162 0.94665 0.93036 0.0
Zn160 Zn 0.39338 0.48343 0.69114 0.0
O161 O 0.43183 0.44912 0.70198 0.0
C162 C 0.33199 0.42638 0.69902 0.0
Zn163 Zn 0.38421 0.4412 0.67319 0.0
C164 C 0.43524 0.41529 0.69787 0.0
O165 O 0.41879 0.40415 0.68587 0.0
C166 C 0.34245 0.51261 0.66659 0.0
O167 O 0.4321 0.46241 0.66152 0.0
O168 O 0.43932 0.50763 0.67812 0.0
N169 N 0.37762 0.40062 0.65711 0.0
C170 C 0.37228 0.4028 0.64201 0.0
C171 C 0.37138 0.34471 0.64796 0.0
N172 N 0.37722 0.36451 0.66079 0.0
N173 N 0.36797 0.3682 0.63606 0.0
C174 C 0.40125 0.52121 0.72278 0.0
C175 C 0.41656 0.57716 0.71672 0.0
N176 N 0.40101 0.52322 0.7075 0.0
N177 N 0.41039 0.55802 0.70376 0.0
N178 N 0.41076 0.55476 0.72882 0.0
H179 H 0.39782 0.46039 0.72493 0.0
H180 H 0.41403 0.48449 0.74161 0.0
H181 H 0.3652 0.4864 0.7362 0.0
C182 C 0.39447 0.48601 0.7318 0.0
C183 C 0.37297 0.43853 0.63299 0.0
H184 H 0.3837 0.43334 0.62134 0.0
H185 H 0.34387 0.44967 0.6321 0.0
H186 H 0.39083 0.45998 0.63851 0.0
O187 O 0.34933 0.48049 0.66085 0.0
O188 O 0.35476 0.51988 0.67983 0.0
C189 C 0.45001 0.49121 0.666 0.0
O190 O 0.34901 0.45509 0.70437 0.0
O191 O 0.33772 0.4177 0.6852 0.0
Zn192 Zn 0.85377 0.13349 0.42537 0.0
O193 O 0.83047 0.17894 0.41327 0.0
C194 C 0.78351 0.08871 0.41928 0.0
Zn195 Zn 0.81169 0.14013 0.44379 0.0
C196 C 0.80237 0.19715 0.41829 0.0
O197 O 0.78747 0.18689 0.43081 0.0
C198 C 0.87018 0.08118 0.45156 0.0
O199 O 0.84595 0.17744 0.45498 0.0
O200 O 0.88926 0.17165 0.43733 0.0
N201 N 0.77086 0.14758 0.45982 0.0
C202 C 0.77276 0.15661 0.47465 0.0
C203 C 0.71471 0.15736 0.46839 0.0
N204 N 0.73476 0.14794 0.45597 0.0
N205 N 0.73798 0.16336 0.48021 0.0
C206 C 0.89199 0.12093 0.39418 0.0
C207 C 0.95043 0.12243 0.39981 0.0
N208 N 0.89442 0.12728 0.40921 0.0
N209 N 0.93075 0.12836 0.41268 0.0
N210 N 0.92666 0.11744 0.38808 0.0
H211 H 0.86031 0.13036 0.37359 0.0
H212 H 0.84596 0.09042 0.38466 0.0
H213 H 0.83374 0.13698 0.39082 0.0
C214 C 0.85589 0.11988 0.38533 0.0
C215 C 0.80835 0.15715 0.48382 0.0
H216 H 0.82954 0.13767 0.47906 0.0
H217 H 0.82023 0.18593 0.48369 0.0
H218 H 0.80266 0.14917 0.49579 0.0
O219 O 0.83991 0.09562 0.45687 0.0
O220 O 0.87961 0.0892 0.43801 0.0
C221 C 0.87824 0.18535 0.4499 0.0
O222 O 0.81575 0.09574 0.41357 0.0
O223 O 0.77562 0.10194 0.43229 0.0
Zn224 Zn 0.17035 0.60873 0.1743 0.0
O225 O 0.12115 0.58947 0.16288 0.0
C226 C 0.21096 0.53569 0.1681 0.0
Zn227 Zn 0.1597 0.56608 0.19183 0.0
C228 C 0.10329 0.56013 0.16679 0.0
O229 O 0.1146 0.5419 0.17839 0.0
C230 C 0.22171 0.62215 0.20029 0.0
O231 O 0.12085 0.60166 0.20203 0.0
O232 O 0.1373 0.64721 0.18666 0.0
N233 N 0.15015 0.52695 0.20825 0.0
C234 C 0.14912 0.52931 0.22351 0.0
C235 C 0.13322 0.47347 0.21754 0.0
N236 N 0.14038 0.49223 0.20457 0.0
N237 N 0.13878 0.49606 0.22958 0.0
C238 C 0.18238 0.6441 0.14264 0.0
C239 C 0.18699 0.70259 0.14752 0.0
N240 N 0.17857 0.64805 0.15776 0.0
N241 N 0.18132 0.68442 0.16078 0.0
N242 N 0.18808 0.67774 0.13602 0.0
H243 H 0.16578 0.61233 0.12288 0.0
H244 H 0.20725 0.59566 0.13246 0.0
H245 H 0.16157 0.58708 0.1405 0.0
C246 C 0.17875 0.60768 0.1342 0.0
C247 C 0.15593 0.56459 0.23244 0.0
H248 H 0.13602 0.56649 0.24212 0.0
H249 H 0.18501 0.56394 0.23703 0.0
H250 H 0.15309 0.59012 0.22546 0.0
O251 O 0.20337 0.59402 0.20544 0.0
O252 O 0.21761 0.63078 0.18636 0.0
C253 C 0.11925 0.63592 0.19826 0.0
O254 O 0.20405 0.56766 0.1622 0.0
O255 O 0.19861 0.52878 0.18135 0.0
Zn256 Zn 0.85742 0.63608 0.57658 0.0
O257 O 0.83662 0.68317 0.58894 0.0
C258 C 0.78505 0.59591 0.5819 0.0
Zn259 Zn 0.81686 0.64867 0.55824 0.0
C260 C 0.80926 0.70297 0.58415 0.0
O261 O 0.79382 0.69428 0.57157 0.0
C262 C 0.87213 0.58638 0.54988 0.0
O263 O 0.85348 0.68652 0.548 0.0
O264 O 0.89568 0.67088 0.565 0.0
N265 N 0.77771 0.65895 0.54181 0.0
C266 C 0.77997 0.65972 0.52654 0.0
C267 C 0.72417 0.67636 0.53254 0.0
N268 N 0.74301 0.6692 0.54551 0.0
N269 N 0.74667 0.67038 0.52047 0.0
C270 C 0.89532 0.62121 0.60777 0.0
C271 C 0.95359 0.62066 0.60181 0.0
N272 N 0.89746 0.62695 0.59269 0.0
N273 N 0.93366 0.62662 0.58901 0.0
N274 N 0.9301 0.61694 0.6137 0.0
H275 H 0.83775 0.63931 0.61119 0.0
H276 H 0.8646 0.6328 0.62839 0.0
H277 H 0.84862 0.59274 0.61777 0.0
C278 C 0.85949 0.62183 0.61678 0.0
C279 C 0.81522 0.65218 0.5176 0.0
H280 H 0.81715 0.67151 0.50774 0.0
H281 H 0.81438 0.62295 0.51329 0.0
H282 H 0.8409 0.65516 0.52452 0.0
O283 O 0.84388 0.60456 0.54466 0.0
O284 O 0.88065 0.59059 0.5638 0.0
C285 C 0.88687 0.68842 0.55295 0.0
O286 O 0.81725 0.60085 0.58796 0.0
O287 O 0.77847 0.61045 0.56896 0.0
Zn288 Zn 0.15384 0.05686 0.80387 0.0
O289 O 0.11661 0.09218 0.79329 0.0
C290 C 0.21377 0.1149 0.79605 0.0
Zn291 Zn 0.16302 0.09787 0.82246 0.0
C292 C 0.10973 0.12436 0.79863 0.0
O293 O 0.12444 0.13458 0.81115 0.0
C294 C 0.2068 0.02671 0.82756 0.0
O295 O 0.11751 0.07416 0.83457 0.0
O296 O 0.10725 0.03254 0.81678 0.0
N297 N 0.17037 0.13652 0.83937 0.0
C298 C 0.17598 0.13176 0.85438 0.0
C299 C 0.17588 0.19074 0.85014 0.0
N300 N 0.17024 0.17319 0.83675 0.0
N301 N 0.17992 0.16526 0.86132 0.0
C302 C 0.13659 1.01987 0.77265 0.0
C303 C 0.1379 0.9616 0.77825 0.0
N304 N 0.14573 1.01723 0.78746 0.0
N305 N 0.14658 0.981 0.7909 0.0
N306 N 0.13113 0.98542 0.76669 0.0
H307 H 0.15421 0.07702 0.76874 0.0
H308 H 0.10576 0.06713 0.76427 0.0
H309 H 0.14257 0.05119 0.75178 0.0
C310 C 0.13491 0.05589 0.76385 0.0
C311 C 0.17559 0.09456 0.86243 0.0
H312 H 0.16278 0.09743 0.87387 0.0
H313 H 0.20498 0.08465 0.86388 0.0
H314 H 0.1599 0.07303 0.85604 0.0
O315 O 0.2015 0.05892 0.83349 0.0
O316 O 0.1918 1.01973 0.81479 0.0
C317 C 0.09825 0.04689 0.82954 0.0
O318 O 0.19836 0.08515 0.79078 0.0
O319 O 0.20697 0.12404 0.80975 0.0
Zn320 Zn 0.69704 0.41885 0.07581 0.0
O321 O 0.71704 0.37118 0.08818 0.0
C322 C 0.77113 0.4567 0.0808 0.0
Zn323 Zn 0.73731 0.40457 0.05759 0.0
C324 C 0.74384 0.35054 0.08348 0.0
O325 O 0.75943 0.35852 0.07087 0.0
C326 C 0.68325 0.4683 0.04914 0.0
O327 O 0.6998 0.36805 0.0476 0.0
O328 O 0.65725 0.38479 0.06429 0.0
N329 N 0.77576 0.39313 0.04107 0.0
C330 C 0.77319 0.39285 0.02581 0.0
C331 C 0.82859 0.37438 0.03158 0.0
N332 N 0.81019 0.38171 0.04463 0.0
N333 N 0.80605 0.38143 0.01962 0.0
C334 C 0.66176 0.43489 0.10728 0.0
C335 C 0.60306 0.43752 0.10212 0.0
N336 N 0.65811 0.42915 0.09225 0.0
N337 N 0.62164 0.43073 0.08906 0.0
N338 N 0.62769 0.44049 0.11368 0.0
H339 H 0.69378 0.42218 0.12751 0.0
H340 H 0.71041 0.46158 0.11663 0.0
H341 H 0.71894 0.41469 0.11001 0.0
C342 C 0.69831 0.43295 0.11582 0.0
C343 C 0.73805 0.40163 0.01697 0.0
H344 H 0.73557 0.38284 0.00698 0.0
H345 H 0.73956 0.43103 0.01286 0.0
H346 H 0.71238 0.39888 0.02392 0.0
O347 O 0.71109 0.44938 0.04401 0.0
O348 O 0.67466 0.46466 0.06308 0.0
C349 C 0.66618 0.36702 0.0523 0.0
O350 O 0.73873 0.45359 0.08691 0.0
O351 O 0.77686 0.44117 0.06802 0.0
Zn352 Zn 0.37783 0.94607 0.32703 0.0
O353 O 0.42569 0.96648 0.33955 0.0
C354 C 0.3413 1.02144 0.33069 0.0
Zn355 Zn 0.39399 0.98481 0.30854 0.0
C356 C 0.44689 0.99261 0.33465 0.0
O357 O 0.43939 1.00749 0.32184 0.0
C358 C 0.33001 0.93154 0.2999 0.0
O359 O 0.4307 0.9448 0.30001 0.0
O360 O 0.41001 0.90371 0.31665 0.0
N361 N 0.40708 1.0207 0.29123 0.0
C362 C 0.41532 1.01447 0.2765 0.0
C363 C 0.41808 0.07366 0.28016 0.0
N364 N 0.40883 0.05745 0.29348 0.0
N365 N 0.42222 0.04729 0.26934 0.0
C366 C 0.38396 0.89386 0.35517 0.0
C367 C 0.32621 0.88257 0.35988 0.0
N368 N 0.36338 0.91095 0.34432 0.0
N369 N 0.32753 0.9036 0.34718 0.0
N370 N 0.36127 0.87607 0.36514 0.0
H371 H 0.43782 0.89392 0.34389 0.0
H372 H 0.43631 0.86717 0.36138 0.0
H373 H 0.43669 0.91765 0.36188 0.0
C374 C 0.42616 0.89293 0.35555 0.0
C375 C 0.42074 0.97615 0.26968 0.0
H376 H 0.44871 0.96521 0.27318 0.0
H377 H 0.42034 0.97644 0.25713 0.0
H378 H 0.39891 0.95649 0.27381 0.0
O379 O 0.35016 0.95836 0.29476 0.0
O380 O 0.33184 0.92415 0.31403 0.0
C381 C 0.42965 0.91154 0.30503 0.0
O382 O 0.3448 0.98969 0.33719 0.0
O383 O 0.35659 0.02633 0.31777 0.0
Zn384 Zn 0.1953 0.42258 0.42385 0.0
O385 O 0.21552 0.37576 0.4112 0.0
C386 C 0.26821 0.46223 0.41869 0.0
Zn387 Zn 0.23608 0.40924 0.44201 0.0
C388 C 0.24309 0.35592 0.41573 0.0
O389 O 0.25883 0.36417 0.4283 0.0
C390 C 0.18131 0.47151 0.45085 0.0
O391 O 0.1994 0.37118 0.45194 0.0
O392 O 0.15667 0.3878 0.43529 0.0
N393 N 0.27523 0.39788 0.4583 0.0
C394 C 0.27303 0.39617 0.47356 0.0
C395 C 0.32866 0.37943 0.46734 0.0
N396 N 0.30982 0.38758 0.45447 0.0
N397 N 0.30627 0.38484 0.47948 0.0
C398 C 0.15788 0.43928 0.39277 0.0
C399 C 0.09956 0.4412 0.39861 0.0
N400 N 0.15538 0.43287 0.4078 0.0
N401 N 0.11914 0.43401 0.4114 0.0
N402 N 0.12333 0.44488 0.38681 0.0
H403 H 0.18859 0.42781 0.37213 0.0
H404 H 0.20555 0.4669 0.3831 0.0
H405 H 0.215 0.41977 0.38931 0.0
C406 C 0.19383 0.4381 0.38383 0.0
C407 C 0.23789 0.40345 0.48261 0.0
H408 H 0.23578 0.38345 0.49224 0.0
H409 H 0.23905 0.43235 0.48726 0.0
H410 H 0.21216 0.40127 0.47566 0.0
O411 O 0.2094 0.45288 0.45595 0.0
O412 O 0.17271 0.46788 0.4369 0.0
C413 C 0.16585 0.36964 0.44715 0.0
O414 O 0.23597 0.45765 0.41262 0.0
O415 O 0.27462 0.44755 0.43161 0.0
Zn416 Zn 0.89344 0.98551 0.1928 0.0
O417 O 0.93172 0.94962 0.20291 0.0
C418 C 0.83199 0.92876 0.20083 0.0
Zn419 Zn 0.88245 0.94446 0.17448 0.0
C420 C 0.93467 0.91614 0.19827 0.0
O421 O 0.91768 0.90621 0.18621 0.0
C422 C 0.84076 1.01645 0.16916 0.0
O423 O 0.93003 0.96649 0.16259 0.0
O424 O 0.93918 1.00988 0.1798 0.0
N425 N 0.87424 0.90545 0.15781 0.0
C426 C 0.87862 0.90742 0.14264 0.0
C427 C 0.8608 0.85168 0.14783 0.0
N428 N 0.86317 0.87078 0.16101 0.0
N429 N 0.87081 0.87403 0.13618 0.0
C430 C 0.90346 1.02136 0.22474 0.0
C431 C 0.9187 0.07754 0.21902 0.0
N432 N 0.9025 1.02414 0.20948 0.0
N433 N 0.91186 0.05908 0.20596 0.0
N434 N 0.91341 0.05456 0.23098 0.0
H435 H 0.89977 0.96048 0.2264 0.0
H436 H 0.91672 0.98365 0.24319 0.0
H437 H 0.86772 0.98607 0.23806 0.0
C438 C 0.89683 0.98576 0.23351 0.0
C439 C 0.88828 0.94237 0.13396 0.0
H440 H 0.88433 0.968 0.14082 0.0
H441 H 0.9181 0.94078 0.13033 0.0
H442 H 0.87067 0.94439 0.12358 0.0
O443 O 0.84668 0.9845 0.16311 0.0
O444 O 0.85471 1.0232 0.18218 0.0
C445 C 0.9489 0.9944 0.16737 0.0
O446 O 0.84943 0.9573 0.20609 0.0
O447 O 0.83677 0.92032 0.18692 0.0
Zn448 Zn 0.31858 0.64308 0.94106 0.0
O449 O 0.35411 0.68108 0.95159 0.0
C450 C 0.37345 0.5806 0.95 0.0
Zn451 Zn 0.36124 0.63108 0.92358 0.0
C452 C 0.38846 0.68232 0.94778 0.0
O453 O 0.39948 0.66437 0.93611 0.0
C454 C 0.28833 0.59123 0.91729 0.0
O455 O 0.34278 0.67943 0.91158 0.0
O456 O 0.29575 0.6883 0.92722 0.0
N457 N 0.40163 0.62189 0.90752 0.0
C458 C 0.39873 0.61654 0.89244 0.0
C459 C 0.45708 0.6129 0.89807 0.0
N460 N 0.43791 0.61977 0.91101 0.0
N461 N 0.433 0.61052 0.88631 0.0
C462 C 0.27854 0.65292 0.97219 0.0
C463 C 0.22369 0.67066 0.96529 0.0
N464 N 0.27817 0.65345 0.9569 0.0
N465 N 0.24409 0.66447 0.95264 0.0
N466 N 0.24463 0.6634 0.97769 0.0
H467 H 0.33899 0.64985 0.97554 0.0
H468 H 0.31232 0.66095 0.99233 0.0
H469 H 0.31208 0.61399 0.98479 0.0
C470 C 0.31253 0.64419 0.98171 0.0
C471 C 0.36272 0.61893 0.88356 0.0
H472 H 0.3681 0.62939 0.87189 0.0
H473 H 0.35025 0.59047 0.88271 0.0
H474 H 0.3421 0.6377 0.88912 0.0
O475 O 0.32055 0.59725 0.91141 0.0
O476 O 0.28131 0.60462 0.93035 0.0
C477 C 0.31394 0.6983 0.91542 0.0
O478 O 0.34536 0.59935 0.95503 0.0
O479 O 0.38241 0.58439 0.9361 0.0
Zn480 Zn 0.66821 0.10973 0.67388 0.0
O481 O 0.62076 0.08762 0.66196 0.0
C482 C 0.71065 0.03852 0.66825 0.0
Zn483 Zn 0.6579 0.06832 0.69212 0.0
C484 C 0.60221 0.05941 0.66667 0.0
O485 O 0.61224 0.04373 0.67905 0.0
C486 C 0.71907 0.12549 0.70011 0.0
O487 O 0.61925 0.10314 0.70248 0.0
O488 O 0.63277 0.14715 0.68597 0.0
N489 N 0.64959 0.02911 0.70869 0.0
C490 C 0.64872 0.0316 0.72396 0.0
C491 C 0.63364 0.97547 0.71811 0.0
N492 N 0.64035 0.9942 0.70509 0.0
N493 N 0.63893 0.99825 0.73012 0.0
C494 C 0.6713 0.14899 0.64235 0.0
C495 C 0.68646 0.20494 0.64841 0.0
N496 N 0.67525 0.14981 0.65756 0.0
N497 N 0.6846 0.18461 0.6613 0.0
N498 N 0.67781 0.18332 0.63637 0.0
H499 H 0.6684 0.08842 0.63989 0.0
H500 H 0.63325 0.11445 0.62981 0.0
H501 H 0.68076 0.11376 0.62285 0.0
C502 C 0.66323 0.11426 0.63328 0.0
C503 C 0.65519 0.06707 0.73281 0.0
H504 H 0.63525 0.06891 0.74249 0.0
H505 H 0.68429 0.06678 0.7374 0.0
H506 H 0.65215 0.09247 0.72577 0.0
O507 O 0.70182 0.09689 0.70545 0.0
O508 O 0.71394 0.13393 0.68623 0.0
C509 C 0.616 0.13673 0.69801 0.0
O510 O 0.70425 0.07043 0.66221 0.0
O511 O 0.69699 0.03154 0.6813 0.0
C512 C 0.44656 0.20059 0.04372 0.0
C513 C 0.40787 0.20527 0.04127 0.0
C514 C 0.47238 0.21636 0.03374 0.0
C515 C 0.5238 0.24459 0.00988 0.0
H516 H 0.51119 0.35198 0.01465 0.0
C517 C 0.64686 0.33355 0.02864 0.0
C518 C 0.63701 0.35044 0.04254 0.0
C519 C 0.619 0.32093 0.01871 0.0
C520 C 0.51508 0.32215 0.01277 0.0
H521 H 0.36561 0.22913 0.02621 0.0
H522 H 0.41125 0.25822 0.00902 0.0
H523 H 0.45605 0.31175 0.01424 0.0
H524 H 0.5904 0.36826 0.05674 0.0
H525 H 0.54199 0.34509 0.03979 0.0
H526 H 0.58296 0.2544 0.01075 0.0
C527 C 0.42136 0.24171 0.01853 0.0
C528 C 0.48344 0.29907 0.01239 0.0
C529 C 0.3954 0.22553 0.02848 0.0
C530 C 0.59889 0.35496 0.04622 0.0
C531 C 0.57114 0.34247 0.0363 0.0
C532 C 0.55545 0.26761 0.01047 0.0
C533 C 0.4601 0.23737 0.02112 0.0
C534 C 0.48803 0.25993 0.01276 0.0
C535 C 0.58085 0.32515 0.02248 0.0
C536 C 0.55114 0.30599 0.01369 0.0
H537 H 0.45702 0.18469 0.05334 0.0
H538 H 0.50209 0.21346 0.03632 0.0
H539 H 0.52779 0.21442 0.00961 0.0
H540 H 0.6761 0.33018 0.02539 0.0
H541 H 0.62723 0.30733 0.00822 0.0
C542 C 0.60212 0.69174 0.29213 0.0
C543 C 0.59525 0.65303 0.29224 0.0
C544 C 0.58158 0.71511 0.28253 0.0
C545 C 0.53809 0.75916 0.25919 0.0
H546 H 0.43989 0.75387 0.27816 0.0
C547 C 0.48049 0.88086 0.2903 0.0
C548 C 0.44314 0.88157 0.29523 0.0
C549 C 0.49248 0.85267 0.28045 0.0
C550 C 0.46638 0.75587 0.27214 0.0
H551 H 0.56292 0.60792 0.28201 0.0
H552 H 0.52545 0.6494 0.26573 0.0
H553 H 0.47816 0.69832 0.27676 0.0
H554 H 0.38763 0.85733 0.29252 0.0
H555 H 0.40798 0.80891 0.27477 0.0
H556 H 0.5272 0.81743 0.25543 0.0
C557 C 0.54739 0.66133 0.27279 0.0
C558 C 0.48844 0.72364 0.27133 0.0
C559 C 0.56842 0.63784 0.28223 0.0
C560 C 0.41708 0.85592 0.28931 0.0
C561 C 0.4287 0.82852 0.27906 0.0
C562 C 0.51567 0.79132 0.25969 0.0
C563 C 0.55347 0.70021 0.27304 0.0
C564 C 0.52582 0.72616 0.26634 0.0
C565 C 0.46689 0.82551 0.27498 0.0
C566 C 0.48142 0.79078 0.26773 0.0
H567 H 0.62317 0.704 0.29953 0.0
H568 H 0.58617 0.74514 0.28322 0.0
H569 H 0.56664 0.76133 0.25492 0.0
H570 H 0.50058 0.90132 0.29444 0.0
H571 H 0.52223 0.85119 0.27784 0.0
C572 C 0.15333 0.84244 0.52357 0.0
C573 C 0.15581 0.83521 0.53925 0.0
C574 C 0.12824 0.82217 0.51455 0.0
C575 C 0.07327 0.73727 0.5121 0.0
H576 H 0.9822 0.79749 0.51267 0.0
C577 C 0.95436 0.69912 0.54732 0.0
C578 C 0.91652 0.70489 0.5434 0.0
C579 C 0.98282 0.70966 0.53741 0.0
C580 C 1.00721 0.78019 0.51167 0.0
H581 H 0.1358 0.80076 0.55779 0.0
H582 H 0.0925 0.76446 0.54194 0.0
H583 H 0.04325 0.82823 0.51135 0.0
H584 H 0.8787 0.72664 0.52608 0.0
H585 H 0.92928 0.74689 0.50894 0.0
H586 H 0.03741 0.68945 0.51421 0.0
C587 C 0.10996 0.78573 0.53665 0.0
C588 C 0.04221 0.79782 0.51091 0.0
C589 C 0.1342 0.80663 0.54573 0.0
C590 C 0.90772 0.72215 0.52944 0.0
C591 C 0.93646 0.7332 0.51955 0.0
C592 C 0.03832 0.71962 0.51262 0.0
C593 C 0.1064 0.7938 0.52108 0.0
C594 C 0.07515 0.77652 0.51279 0.0
C595 C 0.9742 0.72646 0.52339 0.0
C596 C 1.00547 0.74133 0.51421 0.0
H597 H 0.16945 0.86491 0.51845 0.0
H598 H 0.1251 0.82929 0.50265 0.0
H599 H 0.09853 0.72045 0.51342 0.0
H600 H 0.96212 0.68573 0.55792 0.0
H601 H 1.01178 0.70541 0.54093 0.0
C602 C 0.09614 0.15398 0.77382 0.0
C603 C 0.08795 0.15053 0.78939 0.0
C604 C 0.07658 0.17975 0.76487 0.0
C605 C 0.99168 0.23369 0.76147 0.0
H606 H 0.04979 0.32561 0.7637 0.0
C607 C 0.94303 0.35203 0.79504 0.0
C608 C 0.95247 0.38953 0.79214 0.0
C609 C 0.95487 0.32386 0.78526 0.0
C610 C 0.03312 0.30041 0.76224 0.0
H611 H 0.05284 0.16989 0.80785 0.0
H612 H 1.01777 0.21468 0.79209 0.0
H613 H 0.08212 0.26553 0.76299 0.0
H614 H 0.98189 0.42711 0.77678 0.0
H615 H 1.00354 0.37725 0.75975 0.0
H616 H 0.94259 0.26835 0.76225 0.0
C617 C 0.03923 0.19731 0.78685 0.0
C618 C 0.05172 0.26595 0.76183 0.0
C619 C 0.05942 0.17226 0.79587 0.0
C620 C 0.9742 0.39835 0.77926 0.0
C621 C 0.98628 0.36999 0.76946 0.0
C622 C 0.97308 0.26813 0.76156 0.0
C623 C 0.04801 0.20144 0.77136 0.0
C624 C 0.03091 0.23268 0.76307 0.0
C625 C 0.97656 0.33248 0.77235 0.0
C626 C 0.99375 0.30133 0.76378 0.0
H627 H 0.11865 0.1378 0.76871 0.0
H628 H 0.08423 0.18338 0.75305 0.0
H629 H 0.97529 0.20811 0.76228 0.0
H630 H 0.926 0.34435 0.80476 0.0
H631 H 0.94803 0.29508 0.78814 0.0
C632 C 0.65055 0.83281 0.97274 0.0
C633 C 0.63803 0.85179 0.95964 0.0
C634 C 0.62463 0.81734 0.9829 0.0
C635 C 0.52156 0.81253 0.99086 0.0
H636 H 0.53851 0.70529 0.98824 0.0
C637 C 0.45453 0.69617 0.95523 0.0
C638 C 0.41588 0.69994 0.95806 0.0
C639 C 0.48065 0.71033 0.96549 0.0
C640 C 0.53336 0.73513 0.98951 0.0
H641 H 0.58877 0.87112 0.94731 0.0
H642 H 0.54384 0.84346 0.96462 0.0
H643 H 0.59202 0.74755 0.98857 0.0
H644 H 0.37414 0.72038 0.97412 0.0
H645 H 0.42018 0.74623 0.99189 0.0
H646 H 0.46291 0.80038 0.9894 0.0
C647 C 0.57352 0.84102 0.96732 0.0
C648 C 0.56408 0.75942 0.98983 0.0
C649 C 0.5993 0.85617 0.95716 0.0
C650 C 0.40384 0.71758 0.97152 0.0
C651 C 0.43009 0.73194 0.98179 0.0
C652 C 0.49084 0.78827 0.99027 0.0
C653 C 0.58584 0.82098 0.98018 0.0
C654 C 0.5581 0.79831 0.98866 0.0
C655 C 0.46878 0.72865 0.97882 0.0
C656 C 0.49682 0.74977 0.98778 0.0
H657 H 0.68035 0.82956 0.97507 0.0
H658 H 0.63484 0.80172 0.99263 0.0
H659 H 0.51641 0.84253 0.99057 0.0
H660 H 0.4647 0.68232 0.94508 0.0
H661 H 0.51024 0.70832 0.96259 0.0
C662 C 0.58087 0.1528 0.72171 0.0
C663 C 0.59815 0.16437 0.7081 0.0
C664 C 0.56712 0.1793 0.73199 0.0
C665 C 0.56631 0.28207 0.73964 0.0
H666 H 0.4581 0.26868 0.74012 0.0
C667 C 0.44914 0.34976 0.70573 0.0
C668 C 0.45333 0.38836 0.70822 0.0
C669 C 0.46344 0.32411 0.71614 0.0
C670 C 0.48832 0.27284 0.74061 0.0
H671 H 0.61551 0.21258 0.69478 0.0
H672 H 0.59059 0.25859 0.71234 0.0
H673 H 0.49883 0.21397 0.7395 0.0
H674 H 0.47481 0.43058 0.72378 0.0
H675 H 0.50127 0.38526 0.74176 0.0
H676 H 0.5556 0.34089 0.73831 0.0
C677 C 0.58844 0.22916 0.71534 0.0
C678 C 0.51174 0.24144 0.74034 0.0
C679 C 0.60193 0.20278 0.70506 0.0
C680 C 0.47165 0.40087 0.72146 0.0
C681 C 0.4863 0.37508 0.73186 0.0
C682 C 0.54286 0.31347 0.73968 0.0
C683 C 0.57076 0.21774 0.72888 0.0
C684 C 0.55056 0.24614 0.73796 0.0
C685 C 0.48242 0.33644 0.72926 0.0
C686 C 0.50377 0.30868 0.73826 0.0
H687 H 0.57804 0.12327 0.72446 0.0
H688 H 0.55314 0.1698 0.74223 0.0
H689 H 0.5964 0.2862 0.73842 0.0
H690 H 0.43471 0.33926 0.69576 0.0
H691 H 0.46101 0.29448 0.71353 0.0
C692 C 0.14632 0.3333 0.47016 0.0
C693 C 0.1367 0.35216 0.45664 0.0
C694 C 0.11818 0.32022 0.47991 0.0
C695 C 1.01541 0.32755 0.48694 0.0
H696 H 1.01804 0.2188 0.48645 0.0
C697 C 0.92499 0.23645 0.45274 0.0
C698 C 0.90342 0.20792 0.45927 0.0
C699 C 0.94915 0.25749 0.4618 0.0
C700 C 1.01699 0.24914 0.48737 0.0
H701 H 0.09031 0.3726 0.44284 0.0
H702 H 0.0416 0.34923 0.45953 0.0
H703 H 0.07678 0.25375 0.48573 0.0
H704 H 0.89014 0.17807 0.48008 0.0
H705 H 0.93417 0.21415 0.49587 0.0
H706 H 0.9554 0.3226 0.48605 0.0
C707 C 0.07073 0.34524 0.46285 0.0
C708 C 0.05065 0.26921 0.48696 0.0
C709 C 0.09865 0.3579 0.45309 0.0
C710 C 0.90618 0.20057 0.47493 0.0
C711 C 0.9311 0.22104 0.48395 0.0
C712 C 0.98179 0.30747 0.48712 0.0
C713 C 0.08015 0.32636 0.47636 0.0
C714 C 0.04971 0.30835 0.48507 0.0
C715 C 0.95256 0.24965 0.4774 0.0
C716 C 0.98267 0.26828 0.48584 0.0
H717 H 0.17552 0.32885 0.47326 0.0
H718 H 0.12603 0.30512 0.49012 0.0
H719 H 1.01421 0.35786 0.4859 0.0
H720 H 0.92317 0.2424 0.4407 0.0
H721 H 0.96633 0.27902 0.45654 0.0
C722 C 0.1059 0.70151 0.20616 0.0
C723 C 0.10103 0.66292 0.20852 0.0
C724 C 0.09096 0.7272 0.21639 0.0
C725 C 1.00939 0.73772 0.23889 0.0
H726 H 0.05267 0.83756 0.2392 0.0
C727 C 0.97011 0.89904 0.22181 0.0
C728 C 0.95272 0.88807 0.20814 0.0
C729 C 0.98422 0.87209 0.23184 0.0
C730 C 0.03994 0.80998 0.23987 0.0
H731 H 0.0779 0.62076 0.22374 0.0
H732 H 0.05045 0.66615 0.2414 0.0
H733 H 0.0938 0.78313 0.24006 0.0
H734 H 0.93553 0.84046 0.19447 0.0
H735 H 0.96106 0.79369 0.2116 0.0
H736 H 0.9557 0.76461 0.23733 0.0
C737 C 0.06633 0.6763 0.23173 0.0
C738 C 0.06359 0.77874 0.24028 0.0
C739 C 0.08157 0.65046 0.2215 0.0
C740 C 0.94918 0.8498 0.2048 0.0
C741 C 0.96304 0.82298 0.21483 0.0
C742 C 0.98572 0.76895 0.23873 0.0
C743 C 0.07066 0.71494 0.22919 0.0
C744 C 0.04853 0.74279 0.23782 0.0
C745 C 0.98085 0.83379 0.22842 0.0
C746 C 1.00124 0.80504 0.23728 0.0
H747 H 0.12121 0.71197 0.1964 0.0
H748 H 0.09387 0.75682 0.21383 0.0
H749 H 0.9969 0.71023 0.23742 0.0
H750 H 0.97278 0.92843 0.22479 0.0
H751 H 0.99825 0.88114 0.24213 0.0
C752 C 0.43053 0.04815 0.04472 0.0
C753 C 0.39754 0.06489 0.03884 0.0
C754 C 0.46058 0.03769 0.03517 0.0
C755 C 0.50148 0.05827 0.99673 0.0
H756 H 0.56552 0.97284 0.00565 0.0
C757 C 0.61915 1.00741 0.95499 0.0
C758 C 0.65202 0.9903 0.9608 0.0
C759 C 0.58922 1.01796 0.96458 0.0
C760 C 0.5484 0.9972 0.00305 0.0
H761 H 0.37059 0.08238 0.01792 0.0
H762 H 0.42233 0.06352 0.0013 0.0
H763 H 0.51085 0.98562 0.02157 0.0
H764 H 0.67894 0.9723 0.98166 0.0
H765 H 0.62743 0.9914 0.99837 0.0
H766 H 0.53903 0.06987 0.97822 0.0
C767 C 0.42529 0.05898 0.0134 0.0
C768 C 0.5167 1.00453 0.01223 0.0
C769 C 0.39514 0.06934 0.02296 0.0
C770 C 0.65447 0.98564 0.97667 0.0
C771 C 0.62444 0.99612 0.98629 0.0
C772 C 0.53318 0.05095 0.98755 0.0
C773 C 0.45896 0.04367 0.01934 0.0
C774 C 0.49256 0.0352 0.00926 0.0
C775 C 0.59086 1.01174 0.98039 0.0
C776 C 0.55731 1.02026 0.99051 0.0
H777 H 0.43393 0.04454 0.05686 0.0
H778 H 0.48583 0.02637 0.04035 0.0
H779 H 0.48434 0.08261 0.99412 0.0
H780 H 0.61571 1.01118 0.94286 0.0
H781 H 0.56403 0.0295 0.95943 0.0
C782 C 0.73635 0.64464 0.27405 0.0
C783 C 0.74024 0.64769 0.28994 0.0
C784 C 0.74666 0.67448 0.26435 0.0
C785 C 0.79995 0.7663 0.26301 0.0
H786 H 0.7357 0.78659 0.22837 0.0
C787 C 0.81736 0.90338 0.22717 0.0
C788 C 0.81363 0.90064 0.21127 0.0
C789 C 0.80715 0.87332 0.23677 0.0
C790 C 0.75431 0.7813 0.23788 0.0
H791 H 0.75946 0.68484 0.30783 0.0
H792 H 0.77746 0.73618 0.2911 0.0
H793 H 0.72315 0.73229 0.24446 0.0
H794 H 0.79476 0.86372 0.19324 0.0
H795 H 0.77688 0.81194 0.2098 0.0
H796 H 0.8311 0.81532 0.25644 0.0
C797 C 0.7667 0.7107 0.28601 0.0
C798 C 0.74711 0.74983 0.24716 0.0
C799 C 0.75631 0.68098 0.29569 0.0
C800 C 0.79778 0.86737 0.20539 0.0
C801 C 0.78748 0.83739 0.21497 0.0
C802 C 0.80714 0.79777 0.25373 0.0
C803 C 0.76133 0.70843 0.27017 0.0
C804 C 0.76976 0.74168 0.25993 0.0
C805 C 0.79274 0.8394 0.23083 0.0
C806 C 0.78445 0.80597 0.24098 0.0
H807 H 0.72382 0.61978 0.2691 0.0
H808 H 0.74261 0.67104 0.25224 0.0
H809 H 0.81857 0.76103 0.27252 0.0
H810 H 0.82965 0.9282 0.23222 0.0
H811 H 0.81108 0.87657 0.24889 0.0
C812 C 0.15862 0.97913 0.52123 0.0
C813 C 0.15667 0.98221 0.53717 0.0
C814 C 0.12801 0.9901 0.51196 0.0
C815 C 1.02326 1.0074 0.51395 0.0
H816 H 0.03675 0.04855 0.47361 0.0
C817 C 0.89681 0.06498 0.47761 0.0
C818 C 0.89865 0.06205 0.46167 0.0
C819 C 0.92748 0.05396 0.48684 0.0
C820 C 0.03222 0.03658 0.48476 0.0
H821 H 0.12087 1.00098 0.55562 0.0
H822 H 0.06858 1.02084 0.53962 0.0
H823 H 0.0917 0.03408 0.48916 0.0
H824 H 0.93434 0.04347 0.44315 0.0
H825 H 0.98675 1.02348 0.45907 0.0
H826 H 0.96379 1.00989 0.50955 0.0
C827 C 0.09329 1.00912 0.53419 0.0
C828 C 0.06404 0.02828 0.49376 0.0
C829 C 0.12375 0.99814 0.54343 0.0
C830 C 0.93154 0.04619 0.45535 0.0
C831 C 0.96206 0.03514 0.46454 0.0
C832 C 0.99145 1.01569 0.50494 0.0
C833 C 0.09436 1.00449 0.5183 0.0
C834 C 0.06024 1.01358 0.50856 0.0
C835 C 0.96108 0.03962 0.48045 0.0
C836 C 0.99524 0.03043 0.49015 0.0
H837 H 0.18305 0.96647 0.51593 0.0
H838 H 0.13022 0.98572 0.49983 0.0
H839 H 1.01872 0.99544 0.5251 0.0
H840 H 0.87241 0.07756 0.48297 0.0
H841 H 0.92533 0.05823 0.49898 0.0
C842 C 0.79737 0.37613 0.79335 0.0
C843 C 0.81535 0.40831 0.78746 0.0
C844 C 0.78682 0.34608 0.78389 0.0
C845 C 0.77222 0.31753 0.74313 0.0
H846 H 0.78656 0.21706 0.75913 0.0
C847 C 0.75492 0.18605 0.70433 0.0
C848 C 0.73783 0.15362 0.71042 0.0
C849 C 0.76578 0.21622 0.71368 0.0
C850 C 0.78188 0.24479 0.75445 0.0
H851 H 0.83506 0.43386 0.76658 0.0
H852 H 0.81644 0.38185 0.75011 0.0
H853 H 0.80034 0.27132 0.77502 0.0
H854 H 0.71995 0.12785 0.73151 0.0
H855 H 0.7388 0.18007 0.74776 0.0
H856 H 0.75364 0.29104 0.72259 0.0
C857 C 0.81023 0.37987 0.76212 0.0
C858 C 0.78981 0.27621 0.76365 0.0
C859 C 0.82085 0.41 0.77161 0.0
C860 C 0.73343 0.15189 0.72632 0.0
C861 C 0.74424 0.18216 0.7357 0.0
C862 C 0.76423 0.28611 0.73394 0.0
C863 C 0.79382 0.34691 0.76813 0.0
C864 C 0.78508 0.31323 0.75819 0.0
C865 C 0.75987 0.21532 0.72952 0.0
C866 C 0.76891 0.24906 0.7394 0.0
H867 H 0.79268 0.37341 0.80545 0.0
H868 H 0.77355 0.32185 0.78903 0.0
H869 H 0.76762 0.34529 0.73847 0.0
H870 H 0.75875 0.1888 0.69218 0.0
H871 H 0.77845 0.24057 0.70839 0.0
C872 C 0.2962 0.36575 0.70311 0.0
C873 C 0.31287 0.39831 0.70927 0.0
C874 C 0.28513 0.33557 0.71243 0.0
C875 C 0.26693 0.30705 0.75302 0.0
H876 H 0.28363 0.20663 0.73741 0.0
C877 C 0.24902 0.1758 0.79193 0.0
C878 C 0.23263 0.14309 0.78579 0.0
C879 C 0.26001 0.20597 0.78259 0.0
C880 C 0.27829 0.23436 0.74197 0.0
H881 H 0.32973 0.42431 0.73043 0.0
H882 H 0.31035 0.37207 0.74665 0.0
H883 H 0.29811 0.26096 0.72162 0.0
H884 H 0.21609 0.11681 0.76463 0.0
H885 H 0.23528 0.1691 0.74838 0.0
H886 H 0.2471 0.28046 0.77337 0.0
C887 C 0.30549 0.36989 0.73454 0.0
C888 C 0.28661 0.26581 0.73283 0.0
C889 C 0.31658 0.40017 0.72519 0.0
C890 C 0.22907 0.14108 0.76986 0.0
C891 C 0.24004 0.17138 0.76049 0.0
C892 C 0.25861 0.27559 0.76216 0.0
C893 C 0.29035 0.3366 0.72831 0.0
C894 C 0.28107 0.30283 0.73815 0.0
C895 C 0.25495 0.2048 0.76671 0.0
C896 C 0.26416 0.23857 0.75684 0.0
H897 H 0.2929 0.3629 0.69094 0.0
H898 H 0.27286 0.31109 0.70709 0.0
H899 H 0.26162 0.33477 0.75759 0.0
H900 H 0.25223 0.17874 0.8041 0.0
H901 H 0.27213 0.23053 0.78793 0.0
C902 C 0.29447 0.87104 0.29501 0.0
C903 C 0.31223 0.9035 0.28927 0.0
C904 C 0.28468 0.84093 0.28543 0.0
C905 C 0.3081 0.79907 0.24736 0.0
H906 H 0.22091 0.73675 0.2553 0.0
C907 C 0.25752 0.68253 0.20513 0.0
C908 C 0.24017 0.64985 0.21088 0.0
C909 C 0.26794 0.71233 0.21477 0.0
C910 C 0.24574 0.75341 0.25298 0.0
H911 H 0.3324 0.92946 0.26855 0.0
H912 H 0.31463 0.87767 0.25186 0.0
H913 H 0.23334 0.79114 0.27131 0.0
H914 H 0.22154 0.62315 0.23168 0.0
H915 H 0.24019 0.67449 0.24844 0.0
H916 H 0.32037 0.7614 0.22897 0.0
C917 C 0.30879 0.87511 0.26388 0.0
C918 C 0.2529 0.78492 0.26222 0.0
C919 C 0.31852 0.90529 0.27348 0.0
C920 C 0.23503 0.64749 0.22673 0.0
C921 C 0.24529 0.6774 0.23638 0.0
C922 C 0.3009 0.7676 0.2381 0.0
C923 C 0.29234 0.84199 0.26971 0.0
C924 C 0.28422 0.80845 0.2596 0.0
C925 C 0.26123 0.71075 0.23055 0.0
C926 C 0.26957 0.7441 0.24072 0.0
H927 H 0.28953 0.86809 0.30709 0.0
H928 H 0.27248 0.81609 0.29053 0.0
H929 H 0.33296 0.8157 0.24503 0.0
H930 H 0.26166 0.68588 0.19302 0.0
H931 H 0.27979 0.73736 0.20969 0.0
C932 C 0.15589 0.48503 0.47729 0.0
C933 C 0.15365 0.49014 0.46144 0.0
C934 C 0.12595 0.49575 0.4869 0.0
C935 C 0.03579 0.55227 0.48827 0.0
H936 H 1.01193 0.48669 0.52204 0.0
C937 C 0.8978 0.57239 0.52353 0.0
C938 C 0.89999 0.56766 0.5394 0.0
C939 C 0.92787 0.5617 0.51398 0.0
C940 C 1.01823 0.50566 0.51277 0.0
H941 H 0.11784 0.51199 0.44352 0.0
H942 H 0.0663 0.53071 0.4601 0.0
H943 H 0.06643 0.47314 0.50612 0.0
H944 H 0.93588 0.54651 0.55743 0.0
H945 H 0.98764 0.52775 0.54094 0.0
H946 H 0.98756 0.58477 0.49491 0.0
C947 C 0.09125 0.51864 0.46523 0.0
C948 C 0.04982 0.49789 0.50359 0.0
C949 C 0.12109 0.50785 0.45564 0.0
C950 C 0.93266 0.55034 0.54529 0.0
C951 C 0.96262 0.53954 0.53576 0.0
C952 C 1.00419 0.56003 0.49744 0.0
C953 C 0.09268 0.51207 0.48103 0.0
C954 C 0.05926 0.52103 0.49114 0.0
C955 C 0.96122 0.54577 0.51994 0.0
C956 C 0.99474 0.53688 0.50988 0.0
H957 H 0.18014 0.47126 0.48226 0.0
H958 H 0.12876 0.49072 0.49898 0.0
H959 H 0.04208 0.57127 0.47901 0.0
H960 H 0.87348 0.58584 0.51848 0.0
H961 H 0.9251 0.56644 0.50189 0.0
C962 C 0.62313 0.50487 0.04438 0.0
C963 C 0.65557 0.48701 0.03856 0.0
C964 C 0.59309 0.51542 0.03483 0.0
C965 C 0.55075 0.49314 0.99684 0.0
H966 H 0.48898 0.58068 0.0049 0.0
C967 C 0.43328 0.54378 0.95493 0.0
C968 C 0.40094 0.56195 0.96066 0.0
C969 C 0.46321 0.53323 0.96453 0.0
C970 C 0.50545 0.55574 0.00255 0.0
H971 H 0.68164 0.46775 0.01774 0.0
H972 H 0.6299 0.48672 0.0011 0.0
H973 H 0.54377 0.56778 0.02077 0.0
H974 H 0.37493 0.5819 0.9814 0.0
H975 H 0.42644 0.56282 0.99814 0.0
H976 H 0.51243 0.48106 0.97863 0.0
C977 C 0.62735 0.49204 0.01316 0.0
C978 C 0.53721 0.54835 0.0117 0.0
C979 C 0.6575 0.4816 0.02273 0.0
C980 C 0.39898 0.56772 0.97648 0.0
C981 C 0.42901 0.55724 0.9861 0.0
C982 C 0.51899 0.50052 0.98769 0.0
C983 C 0.59419 0.50842 0.01907 0.0
C984 C 0.56053 0.51692 0.00903 0.0
C985 C 0.46209 0.54053 0.98027 0.0
C986 C 0.49568 0.53198 0.99035 0.0
H987 H 0.62011 0.50926 0.05649 0.0
H988 H 0.56823 0.52761 0.03997 0.0
H989 H 0.56725 0.46822 0.99449 0.0
H990 H 0.43632 0.53912 0.94283 0.0
H991 H 0.48802 0.52081 0.95943 0.0
C992 C 0.2724 0.26269 0.0851 0.0
C993 C 0.29329 0.23373 0.09198 0.0
C994 C 0.26453 0.29608 0.09301 0.0
C995 C 0.29569 0.35083 0.12738 0.0
H996 H 0.20476 0.40799 0.11952 0.0
C997 C 0.24194 0.47221 0.16612 0.0
C998 C 0.22782 0.50468 0.15895 0.0
C999 C 0.25232 0.44056 0.15759 0.0
C1000 C 0.23049 0.39253 0.12175 0.0
H1001 H 0.32088 0.21665 0.11284 0.0
H1002 H 0.3058 0.27356 0.12678 0.0
H1003 H 0.216 0.34962 0.10577 0.0
H1004 H 0.2141 0.52913 0.13709 0.0
H1005 H 0.23192 0.47391 0.12226 0.0
H1006 H 0.30934 0.39334 0.14376 0.0
C1007 C 0.29664 0.27151 0.11509 0.0
C1008 C 0.23706 0.35897 0.11381 0.0
C1009 C 0.30499 0.23849 0.10712 0.0
C1010 C 0.22534 0.50495 0.143 0.0
C1011 C 0.23512 0.47307 0.13449 0.0
C1012 C 0.2888 0.38406 0.13547 0.0
C1013 C 0.27688 0.30125 0.10811 0.0
C1014 C 0.26977 0.33743 0.1165 0.0
C1015 C 0.24821 0.44025 0.14169 0.0
C1016 C 0.25612 0.40537 0.13277 0.0
H1017 H 0.26323 0.26011 0.07341 0.0
H1018 H 0.24967 0.31823 0.08707 0.0
H1019 H 0.32169 0.33589 0.12961 0.0
H1020 H 0.24397 0.47087 0.17838 0.0
H1021 H 0.26213 0.41573 0.16352 0.0
C1022 C 0.56764 0.55236 0.35802 0.0
C1023 C 0.57218 0.54109 0.34281 0.0
C1024 C 0.53477 0.54363 0.36607 0.0
C1025 C 0.43419 0.52467 0.36105 0.0
H1026 H 0.43933 0.48399 0.40182 0.0
C1027 C 0.29977 0.47826 0.39394 0.0
C1028 C 0.29999 0.47888 0.40991 0.0
C1029 C 0.33226 0.48733 0.38563 0.0
C1030 C 0.43711 0.49608 0.39058 0.0
H1031 H 0.54554 0.51159 0.32418 0.0
H1032 H 0.48756 0.49696 0.33821 0.0
H1033 H 0.49715 0.49529 0.38771 0.0
H1034 H 0.33419 0.49151 0.42962 0.0
H1035 H 0.38997 0.50938 0.41525 0.0
H1036 H 0.37437 0.52682 0.364 0.0
C1037 C 0.50976 0.51235 0.34389 0.0
C1038 C 0.47046 0.50223 0.38242 0.0
C1039 C 0.54308 0.52044 0.3359 0.0
C1040 C 0.333 0.49066 0.41733 0.0
C1041 C 0.36528 0.50039 0.40903 0.0
C1042 C 0.40079 0.51915 0.3693 0.0
C1043 C 0.50515 0.52401 0.35906 0.0
C1044 C 0.46946 0.51652 0.36755 0.0
C1045 C 0.36588 0.49786 0.39304 0.0
C1046 C 0.40162 0.5047 0.38423 0.0
H1047 H 0.58945 0.56834 0.36369 0.0
H1048 H 0.53208 0.55321 0.37769 0.0
H1049 H 0.43246 0.5362 0.34968 0.0
H1050 H 0.27512 0.46873 0.38783 0.0
H1051 H 0.33129 0.48444 0.37341 0.0
C1052 C 0.28644 0.78557 0.58244 0.0
C1053 C 0.26754 0.81534 0.58966 0.0
C1054 C 0.29396 0.75192 0.59029 0.0
C1055 C 0.26314 0.6988 0.62508 0.0
H1056 H 0.35079 0.63736 0.61659 0.0
C1057 C 0.31299 0.57668 0.66415 0.0
C1058 C 0.32605 0.54352 0.65722 0.0
C1059 C 0.30351 0.60828 0.6554 0.0
C1060 C 0.32594 0.65401 0.61899 0.0
H1061 H 0.24362 0.83374 0.61104 0.0
H1062 H 0.25813 0.77644 0.62481 0.0
H1063 H 0.34131 0.69592 0.60265 0.0
H1064 H 0.33872 0.51773 0.63552 0.0
H1065 H 0.32235 0.57284 0.6203 0.0
H1066 H 0.24847 0.65731 0.64174 0.0
C1067 C 0.26588 0.77804 0.61294 0.0
C1068 C 0.32041 0.68769 0.61095 0.0
C1069 C 0.25791 0.81127 0.60506 0.0
C1070 C 0.32829 0.54249 0.64126 0.0
C1071 C 0.31937 0.57431 0.63253 0.0
C1072 C 0.26894 0.66544 0.63323 0.0
C1073 C 0.28318 0.74737 0.60562 0.0
C1074 C 0.28902 0.71083 0.61393 0.0
C1075 C 0.30743 0.60783 0.6395 0.0
C1076 C 0.30047 0.64263 0.63035 0.0
H1077 H 0.29394 0.78764 0.57055 0.0
H1078 H 0.30707 0.72907 0.58414 0.0
H1079 H 0.23803 0.71501 0.6275 0.0
H1080 H 0.31118 0.57864 0.6764 0.0
H1081 H 0.29461 0.63363 0.66117 0.0
C1082 C 0.98973 0.49583 0.8569 0.0
C1083 C 0.98538 0.507 0.84166 0.0
C1084 C 1.02278 0.50416 0.86494 0.0
C1085 C 0.12375 0.52442 0.85975 0.0
H1086 H 0.11828 0.56349 0.90074 0.0
C1087 C 0.25694 0.57567 0.89241 0.0
C1088 C 0.25721 0.57385 0.90837 0.0
C1089 C 0.22468 0.56552 0.88414 0.0
C1090 C 0.1206 0.55188 0.88943 0.0
H1091 H 1.01265 0.53586 0.82298 0.0
H1092 H 0.07059 0.54995 0.83698 0.0
H1093 H 0.06052 0.5508 0.88679 0.0
H1094 H 0.22431 0.55797 0.92805 0.0
H1095 H 0.16904 0.53848 0.91372 0.0
H1096 H 0.18373 0.52453 0.86244 0.0
C1097 C 0.04827 0.5348 0.8427 0.0
C1098 C 0.08727 0.54485 0.88137 0.0
C1099 C 1.01492 0.52699 0.83471 0.0
C1100 C 0.22508 0.55984 0.91578 0.0
C1101 C 0.19308 0.54913 0.90751 0.0
C1102 C 0.15716 0.53094 0.86789 0.0
C1103 C 0.05268 0.52338 0.85791 0.0
C1104 C 0.08836 0.53113 0.86641 0.0
C1105 C 0.19187 0.55279 0.89157 0.0
C1106 C 0.1562 0.54486 0.88288 0.0
H1107 H 0.96763 0.48035 0.86261 0.0
H1108 H 1.02529 0.49473 0.8766 0.0
H1109 H 0.12563 0.5134 0.84832 0.0
H1110 H 0.2809 0.58691 0.88633 0.0
H1111 H 0.22508 0.56927 0.87194 0.0
C1112 C 0.83215 0.59141 0.83328 0.0
C1113 C 0.82745 0.5545 0.83873 0.0
C1114 C 0.82164 0.6224 0.8421 0.0
C1115 C 0.76186 0.6539 0.87376 0.0
H1116 H 0.83475 0.73461 0.87719 0.0
C1117 C 0.7246 0.80096 0.89787 0.0
C1118 C 0.74988 0.81729 0.90827 0.0
C1119 C 0.73398 0.76797 0.89007 0.0
C1120 C 0.81417 0.71225 0.87643 0.0
H1121 H 0.80638 0.52156 0.85761 0.0
H1122 H 0.78707 0.57588 0.87288 0.0
H1123 H 0.84993 0.67883 0.86218 0.0
H1124 H 0.80518 0.81161 0.91846 0.0
H1125 H 0.82195 0.7543 0.90453 0.0
H1126 H 0.72585 0.68768 0.88781 0.0
C1127 C 0.79931 0.58064 0.86178 0.0
C1128 C 0.82273 0.68041 0.86772 0.0
C1129 C 0.81035 0.54949 0.85302 0.0
C1130 C 0.78504 0.79986 0.91054 0.0
C1131 C 0.79468 0.76707 0.90253 0.0
C1132 C 0.75305 0.68605 0.88228 0.0
C1133 C 0.80564 0.6175 0.85656 0.0
C1134 C 0.79663 0.65088 0.8662 0.0
C1135 C 0.76913 0.75058 0.89227 0.0
C1136 C 0.77905 0.71571 0.88368 0.0
H1137 H 0.84527 0.59655 0.82237 0.0
H1138 H 0.82638 0.65035 0.83763 0.0
H1139 H 0.7411 0.63176 0.8728 0.0
H1140 H 0.69723 0.81347 0.89582 0.0
H1141 H 0.71381 0.75633 0.88214 0.0
C1142 C 0.51267 0.52457 0.66441 0.0
C1143 C 0.4838 0.50395 0.65737 0.0
C1144 C 0.5459 0.53341 0.65649 0.0
C1145 C 0.60021 0.50652 0.62127 0.0
H1146 H 0.65717 0.59629 0.63071 0.0
C1147 C 0.72061 0.56644 0.58324 0.0
C1148 C 0.75364 0.57839 0.59064 0.0
C1149 C 0.68895 0.55502 0.5916 0.0
C1150 C 0.64173 0.57093 0.62803 0.0
H1151 H 0.46665 0.47786 0.63625 0.0
H1152 H 0.52312 0.49478 0.62228 0.0
H1153 H 0.59907 0.58313 0.64447 0.0
H1154 H 0.77913 0.58719 0.61273 0.0
H1155 H 0.72375 0.56784 0.62727 0.0
H1156 H 0.64243 0.49535 0.60439 0.0
C1157 C 0.52125 0.5029 0.6341 0.0
C1158 C 0.60834 0.5632 0.63598 0.0
C1159 C 0.48846 0.49348 0.64209 0.0
C1160 C 0.75443 0.57777 0.60663 0.0
C1161 C 0.72251 0.56706 0.61498 0.0
C1162 C 0.63321 0.51465 0.61315 0.0
C1163 C 0.55094 0.52245 0.64121 0.0
C1164 C 0.5869 0.53084 0.63275 0.0
C1165 C 0.6892 0.55601 0.60757 0.0
C1166 C 0.65444 0.54691 0.61643 0.0
H1167 H 0.51016 0.53279 0.6762 0.0
H1168 H 0.568 0.54799 0.66255 0.0
H1169 H 0.58542 0.48081 0.6186 0.0
H1170 H 0.71889 0.56678 0.57096 0.0
H1171 H 0.66371 0.54681 0.58554 0.0
C1172 C 0.79953 0.2359 0.39452 0.0
C1173 C 0.78934 0.23112 0.40985 0.0
C1174 C 0.79085 0.26909 0.38672 0.0
C1175 C 0.772 0.36986 0.39246 0.0
H1176 H 0.73504 0.36576 0.35108 0.0
C1177 C 0.7273 0.50402 0.35862 0.0
C1178 C 0.73072 0.50375 0.3427 0.0
C1179 C 0.73585 0.47184 0.36723 0.0
C1180 C 0.74603 0.36766 0.36252 0.0
H1181 H 0.76162 0.25774 0.42893 0.0
H1182 H 0.74672 0.31616 0.4153 0.0
H1183 H 0.74497 0.30782 0.36516 0.0
H1184 H 0.74803 0.46994 0.32349 0.0
H1185 H 0.76464 0.41479 0.33842 0.0
H1186 H 0.77391 0.42968 0.38974 0.0
C1187 C 0.76143 0.29395 0.40934 0.0
C1188 C 0.75145 0.33424 0.37066 0.0
C1189 C 0.76964 0.26035 0.41711 0.0
C1190 C 0.74496 0.47119 0.33572 0.0
C1191 C 0.75397 0.43925 0.34432 0.0
C1192 C 0.76697 0.40339 0.38425 0.0
C1193 C 0.77214 0.29882 0.39405 0.0
C1194 C 0.76466 0.33479 0.38572 0.0
C1195 C 0.74842 0.43855 0.36017 0.0
C1196 C 0.75408 0.40286 0.36909 0.0
H1197 H 0.81479 0.21407 0.38854 0.0
H1198 H 0.79983 0.27188 0.37502 0.0
H1199 H 0.78261 0.37135 0.40397 0.0
H1200 H 0.71584 0.5283 0.36438 0.0
H1201 H 0.73083 0.47265 0.37935 0.0
C1202 C 0.84053 0.46814 0.08378 0.0
C1203 C 0.8036 0.47314 0.08929 0.0
C1204 C 0.87181 0.47832 0.09255 0.0
C1205 C 0.90424 0.53771 0.1241 0.0
H1206 H 0.98498 0.46452 0.12739 0.0
C1207 C 0.05231 0.57411 0.1478 0.0
C1208 C 0.06874 0.54897 0.15824 0.0
C1209 C 1.01912 0.56485 0.14006 0.0
C1210 C 0.96262 0.48518 0.12667 0.0
H1211 H 0.77096 0.49436 0.10824 0.0
H1212 H 0.82579 0.5131 0.12342 0.0
H1213 H 0.92865 0.44971 0.11254 0.0
H1214 H 0.06304 0.49397 0.16854 0.0
H1215 H 1.00538 0.47737 0.1547 0.0
H1216 H 0.93856 0.57345 0.13802 0.0
C1217 C 0.83033 0.50088 0.11231 0.0
C1218 C 0.93045 0.47683 0.11805 0.0
C1219 C 0.79888 0.49016 0.1036 0.0
C1220 C 0.05124 0.514 0.16058 0.0
C1221 C 1.01823 0.50446 0.15263 0.0
C1222 C 0.93671 0.54631 0.13252 0.0
C1223 C 0.8672 0.49428 0.10702 0.0
C1224 C 0.9009 0.50304 0.11659 0.0
C1225 C 1.00159 0.52993 0.14235 0.0
C1226 C 0.96639 0.52021 0.13387 0.0
H1227 H 0.84547 0.45507 0.07286 0.0
H1228 H 0.89975 0.47338 0.08802 0.0
H1229 H 0.88209 0.55856 0.12318 0.0
H1230 H 0.06487 0.60133 0.14569 0.0
H1231 H 1.00738 0.58493 0.13211 0.0
C1232 C 0.80801 0.74126 0.60813 0.0
C1233 C 0.79733 0.7369 0.59283 0.0
C1234 C 0.79917 0.77414 0.61612 0.0
C1235 C 0.77921 0.8747 0.61088 0.0
H1236 H 0.73786 0.86913 0.65153 0.0
C1237 C 0.72783 1.00772 0.64346 0.0
C1238 C 0.72854 1.00755 0.65943 0.0
C1239 C 0.73811 0.97559 0.63518 0.0
C1240 C 0.75012 0.87148 0.64032 0.0
H1241 H 0.76879 0.76393 0.574 0.0
H1242 H 0.75387 0.8217 0.58791 0.0
H1243 H 0.75083 0.81161 0.63758 0.0
H1244 H 0.74281 0.97405 0.67916 0.0
H1245 H 0.76263 0.91904 0.66484 0.0
H1246 H 0.77959 0.93444 0.61369 0.0
C1247 C 0.76899 0.79947 0.59371 0.0
C1248 C 0.75728 0.83828 0.63226 0.0
C1249 C 0.77726 0.76623 0.58578 0.0
C1250 C 0.74175 0.97515 0.66687 0.0
C1251 C 0.75264 0.94329 0.6586 0.0
C1252 C 0.7726 0.90797 0.61903 0.0
C1253 C 0.77995 0.80389 0.60898 0.0
C1254 C 0.77184 0.83942 0.61743 0.0
C1255 C 0.74993 0.94249 0.64263 0.0
C1256 C 0.75789 0.90697 0.63391 0.0
H1257 H 0.82353 0.71929 0.61393 0.0
H1258 H 0.80823 0.77667 0.62782 0.0
H1259 H 0.79088 0.87658 0.59954 0.0
H1260 H 0.71737 0.03199 0.63734 0.0
H1261 H 0.73516 0.97635 0.62295 0.0
C1262 C 0.79331 0.97229 0.89158 0.0
C1263 C 0.7949 0.97452 0.90753 0.0
C1264 C 0.82486 0.98127 0.88267 0.0
C1265 C 0.91606 0.03191 0.88294 0.0
H1266 H 0.94545 0.96079 0.85179 0.0
C1267 C 0.06109 0.04365 0.85372 0.0
C1268 C 0.06451 0.03429 0.83826 0.0
C1269 C 0.02805 0.03574 0.86179 0.0
C1270 C 0.93751 0.98134 0.86025 0.0
H1271 H 0.83081 0.98932 0.92652 0.0
H1272 H 0.88534 1.00593 0.91099 0.0
H1273 H 0.88747 0.95076 0.86613 0.0
H1274 H 0.03575 1.00857 0.81925 0.0
H1275 H 0.97758 0.99554 0.83319 0.0
H1276 H 0.96537 0.06299 0.87699 0.0
C1277 C 0.85973 0.99703 0.90536 0.0
C1278 C 0.90416 0.9755 0.86852 0.0
C1279 C 0.8284 0.98751 0.91427 0.0
C1280 C 0.03422 1.01588 0.83117 0.0
C1281 C 1.00079 1.00838 0.83922 0.0
C1282 C 0.94911 0.03801 0.87457 0.0
C1283 C 0.85869 0.99326 0.88945 0.0
C1284 C 0.89318 1.00051 0.88009 0.0
C1285 C 0.99694 1.01874 0.85463 0.0
C1286 C 0.96073 1.0126 0.8632 0.0
H1287 H 0.7683 0.9619 0.88598 0.0
H1288 H 0.8229 0.97839 0.87045 0.0
H1289 H 0.90824 0.05205 0.8916 0.0
H1290 H 0.08394 0.05757 0.85961 0.0
H1291 H 0.02699 0.0432 0.87369 0.0
C1292 C 0.81072 0.08038 0.16771 0.0
C1293 C 0.82307 0.04758 0.16034 0.0
C1294 C 0.79982 0.11214 0.15935 0.0
C1295 C 0.77822 0.14635 0.11971 0.0
H1296 H 0.80173 0.24315 0.13745 0.0
C1297 C 0.77467 0.28677 0.08547 0.0
C1298 C 0.75511 0.31665 0.09236 0.0
C1299 C 0.7826 0.25374 0.09362 0.0
C1300 C 0.79479 0.21635 0.13236 0.0
H1301 H 0.83275 1.02238 0.13829 0.0
H1302 H 0.81502 0.07781 0.12375 0.0
H1303 H 0.81466 0.18601 0.15172 0.0
H1304 H 0.72942 0.33541 0.11337 0.0
H1305 H 0.74414 0.27836 0.12764 0.0
H1306 H 0.75956 0.17719 0.10011 0.0
C1307 C 0.81269 0.07898 0.136 0.0
C1308 C 0.80193 0.18338 0.1406 0.0
C1309 C 0.82297 0.04697 0.14437 0.0
C1310 C 0.74453 0.313 0.10769 0.0
C1311 C 0.75305 0.28031 0.1159 0.0
C1312 C 0.77166 0.17937 0.11137 0.0
C1313 C 0.80165 0.11243 0.14335 0.0
C1314 C 0.79358 0.14774 0.13448 0.0
C1315 C 0.77181 0.25007 0.10893 0.0
C1316 C 0.77969 0.2148 0.11762 0.0
H1317 H 0.81031 0.08183 0.17999 0.0
H1318 H 0.79046 0.1367 0.16554 0.0
H1319 H 0.77073 0.11977 0.11458 0.0
H1320 H 0.78307 0.28853 0.07367 0.0
H1321 H 0.79735 0.23109 0.08795 0.0
C1322 C 0.72037 0.05701 0.41736 0.0
C1323 C 0.75308 0.07057 0.41017 0.0
C1324 C 0.68888 0.04588 0.40885 0.0
C1325 C 0.64202 0.0644 0.37227 0.0
H1326 H 0.58213 0.97689 0.38221 0.0
C1327 C 0.51163 1.02155 0.33609 0.0
C1328 C 0.48127 1.00362 0.34334 0.0
C1329 C 0.54522 0.02902 0.34397 0.0
C1330 C 0.59805 1.00183 0.37938 0.0
H1331 H 0.77822 0.0822 0.38825 0.0
H1332 H 0.7233 0.06291 0.37342 0.0
H1333 H 0.64002 0.98933 0.39621 0.0
H1334 H 0.46207 0.98096 0.36481 0.0
H1335 H 0.51975 0.99496 0.37866 0.0
H1336 H 0.59972 0.07773 0.35579 0.0
C1337 C 0.72209 0.06086 0.38568 0.0
C1338 C 0.63152 1.0088 0.3874 0.0
C1339 C 0.75383 0.07148 0.39419 0.0
C1340 C 0.48502 0.99432 0.35879 0.0
C1341 C 0.5184 1.00216 0.36672 0.0
C1342 C 0.60831 0.05771 0.36438 0.0
C1343 C 0.68894 0.04854 0.39291 0.0
C1344 C 0.65398 0.0402 0.38397 0.0
C1345 C 0.54933 1.01919 0.35941 0.0
C1346 C 0.58563 0.02634 0.36781 0.0
H1347 H 0.71863 0.05614 0.42964 0.0
H1348 H 0.66384 0.03675 0.41483 0.0
H1349 H 0.65826 0.0892 0.36947 0.0
H1350 H 0.50991 0.02884 0.32416 0.0
H1351 H 0.5683 0.04165 0.33778 0.0
C1352 C 0.24563 0.31974 0.39125 0.0
C1353 C 0.2551 0.32258 0.40673 0.0
C1354 C 0.25464 0.28743 0.38291 0.0
C1355 C 0.27045 0.18637 0.38695 0.0
H1356 H 0.31967 0.19314 0.34777 0.0
C1357 C 0.32166 0.05324 0.35491 0.0
C1358 C 0.32457 0.05393 0.33898 0.0
C1359 C 0.31155 0.08559 0.36302 0.0
C1360 C 0.30519 0.1905 0.35853 0.0
H1361 H 0.2816 0.2935 0.42555 0.0
H1362 H 0.29654 0.2366 0.41104 0.0
H1363 H 0.30629 0.25016 0.36206 0.0
H1364 H 0.3173 0.08897 0.31908 0.0
H1365 H 0.29762 0.14467 0.33306 0.0
H1366 H 0.26791 0.12705 0.38333 0.0
C1367 C 0.2824 0.25965 0.40536 0.0
C1368 C 0.29784 0.22338 0.36679 0.0
C1369 C 0.27409 0.29234 0.41364 0.0
C1370 C 0.31544 0.08742 0.33134 0.0
C1371 C 0.30462 0.11962 0.33944 0.0
C1372 C 0.27713 0.15351 0.37857 0.0
C1373 C 0.27266 0.25676 0.38991 0.0
C1374 C 0.2806 0.22172 0.38114 0.0
C1375 C 0.30336 0.11958 0.35546 0.0
C1376 C 0.29486 0.15491 0.36424 0.0
H1377 H 0.23099 0.34248 0.38557 0.0
H1378 H 0.2466 0.28603 0.37106 0.0
H1379 H 0.25664 0.18418 0.39788 0.0
H1380 H 0.32896 0.02812 0.36121 0.0
H1381 H 0.31163 0.08411 0.3753 0.0
C1382 C 1.01294 0.02527 0.16614 0.0
C1383 C 0.98297 1.00686 0.15883 0.0
C1384 C 0.04647 0.03337 0.15828 0.0
C1385 C 0.09917 1.00648 0.1228 0.0
H1386 H 0.15932 0.09405 0.13238 0.0
C1387 C 0.21971 0.06224 0.08411 0.0
C1388 C 0.25294 0.07493 0.09116 0.0
C1389 C 0.18838 0.05141 0.09278 0.0
C1390 C 0.14305 0.06923 0.12967 0.0
H1391 H 0.96423 0.98443 0.13729 0.0
H1392 H 1.02138 0.99966 0.1235 0.0
H1393 H 0.10124 0.08227 0.1464 0.0
H1394 H 0.27912 0.08554 0.11297 0.0
H1395 H 0.22448 0.06687 0.12807 0.0
H1396 H 0.14056 0.99424 0.10574 0.0
C1397 C 1.02001 1.00659 0.13545 0.0
C1398 C 0.10964 0.06236 0.13775 0.0
C1399 C 0.98687 0.99806 0.14335 0.0
C1400 C 0.2543 0.07547 0.10714 0.0
C1401 C 0.22275 0.06521 0.11581 0.0
C1402 C 0.13227 1.01364 0.1146 0.0
C1403 C 0.05075 1.02373 0.14282 0.0
C1404 C 0.08698 0.03094 0.13441 0.0
C1405 C 0.18917 0.05358 0.10874 0.0
C1406 C 0.15462 0.04516 0.11788 0.0
H1407 H 1.01102 0.03223 0.17809 0.0
H1408 H 0.06938 0.04624 0.16449 0.0
H1409 H 0.08334 0.98143 0.12006 0.0
H1410 H 0.2175 0.06169 0.07185 0.0
H1411 H 0.16295 0.04279 0.08695 0.0
C1412 C 0.23786 1.00028 0.85121 0.0
C1413 C 0.22519 0.99551 0.83618 0.0
C1414 C 0.24978 0.96928 0.85989 0.0
C1415 C 0.27792 0.86786 0.85658 0.0
H1416 H 0.25111 0.86413 0.89921 0.0
C1417 C 0.32709 0.74525 0.89481 0.0
C1418 C 0.30329 0.73236 0.90648 0.0
C1419 C 0.31848 0.77783 0.8866 0.0
C1420 C 0.25851 0.86444 0.88729 0.0
H1421 H 0.21632 0.95409 0.81847 0.0
H1422 H 0.23636 0.90068 0.83348 0.0
H1423 H 0.23578 0.91977 0.88426 0.0
H1424 H 0.25136 0.74392 0.91853 0.0
H1425 H 0.23562 0.80027 0.90389 0.0
H1426 H 0.29918 0.81211 0.85936 0.0
C1427 C 0.23777 0.92826 0.8386 0.0
C1428 C 0.25024 0.89676 0.87873 0.0
C1429 C 0.22608 0.95912 0.82995 0.0
C1430 C 0.27036 0.75297 0.90964 0.0
C1431 C 0.26152 0.78555 0.9013 0.0
C1432 C 0.28591 0.83553 0.86508 0.0
C1433 C 0.24932 0.93265 0.8538 0.0
C1434 C 0.25969 0.89894 0.86321 0.0
C1435 C 0.2855 0.79852 0.88964 0.0
C1436 C 0.27639 0.83321 0.88059 0.0
H1437 H 0.23767 0.0278 0.8564 0.0
H1438 H 0.25908 0.97406 0.87144 0.0
H1439 H 0.28621 0.86839 0.84476 0.0
H1440 H 0.35289 0.73042 0.8921 0.0
H1441 H 0.33819 0.78705 0.878 0.0
C1442 C 0.56344 0.05704 0.64281 0.0
C1443 C 0.56814 0.04685 0.65812 0.0
C1444 C 0.53028 0.04832 0.63494 0.0
C1445 C 0.44238 0.98969 0.63676 0.0
H1446 H 0.40873 0.05963 0.6058 0.0
C1447 C 0.29802 0.97398 0.60593 0.0
C1448 C 0.29946 0.97597 0.58998 0.0
C1449 C 0.3291 0.98476 0.6148 0.0
C1450 C 0.41777 0.03972 0.61437 0.0
H1451 H 0.54143 1.01884 0.67711 0.0
H1452 H 0.48306 1.00446 0.66356 0.0
H1453 H 0.46578 0.07295 0.62016 0.0
H1454 H 0.33442 0.99242 0.57093 0.0
H1455 H 0.38801 1.01224 0.58637 0.0
H1456 H 0.39363 0.95694 0.63105 0.0
C1457 C 0.50538 1.01859 0.65745 0.0
C1458 C 0.45079 0.04718 0.62259 0.0
C1459 C 0.53893 0.02691 0.66528 0.0
C1460 C 0.33215 0.99073 0.58318 0.0
C1461 C 0.36295 1.00208 0.59205 0.0
C1462 C 0.40904 0.9825 0.62866 0.0
C1463 C 0.50029 0.02958 0.64217 0.0
C1464 C 0.46403 1.02207 0.6338 0.0
C1465 C 0.36223 0.99839 0.60796 0.0
C1466 C 0.39649 1.00722 0.61724 0.0
H1467 H 0.58544 0.07197 0.63685 0.0
H1468 H 0.52833 0.05637 0.62311 0.0
H1469 H 0.45158 0.96928 0.6451 0.0
H1470 H 0.27363 0.96229 0.61157 0.0
H1471 H 0.32742 0.98187 0.62703 0.0
C1472 C 0.2064 0.19277 0.99959 0.0
C1473 C 0.22784 0.1622 0.00478 0.0
C1474 C 0.19692 0.19584 0.98422 0.0
C1475 C 0.19209 0.13981 0.94867 0.0
H1476 H 0.20239 0.2364 0.92865 0.0
C1477 C 0.21412 0.15204 0.88497 0.0
C1478 C 0.18645 0.17245 0.87713 0.0
C1479 C 0.21687 0.15455 0.9007 0.0
C1480 C 0.19907 0.20941 0.93418 0.0
H1481 H 0.25373 0.10954 0.99836 0.0
H1482 H 0.23892 0.11544 0.97153 0.0
H1483 H 0.20971 0.23212 0.95627 0.0
H1484 H 0.14237 0.21413 0.8792 0.0
H1485 H 0.14782 0.21939 0.90702 0.0
H1486 H 0.18323 0.11693 0.92651 0.0
C1487 C 0.22914 0.13711 0.9792 0.0
C1488 C 0.20305 0.2069 0.94996 0.0
C1489 C 0.2383 0.13399 0.99453 0.0
C1490 C 0.16366 0.19793 0.88511 0.0
C1491 C 0.16672 0.20085 0.90093 0.0
C1492 C 0.18867 0.14226 0.93295 0.0
C1493 C 0.20856 0.1682 0.97382 0.0
C1494 C 0.20039 0.17188 0.95734 0.0
C1495 C 0.19252 0.17817 0.90884 0.0
C1496 C 0.19285 0.17691 0.92556 0.0
H1497 H 0.19772 0.21464 0.00738 0.0
H1498 H 0.18055 0.21983 0.98049 0.0
H1499 H 0.18883 0.11259 0.954 0.0
H1500 H 0.23291 0.13331 0.87894 0.0
H1501 H 0.23751 0.13741 0.90657 0.0
C1502 C 0.591 0.42732 0.13677 0.0
C1503 C 0.61894 0.44803 0.12926 0.0
C1504 C 0.5849 0.43245 0.15233 0.0
C1505 C 0.60689 0.49698 0.18429 0.0
H1506 H 0.60494 0.40644 0.20886 0.0
C1507 C 0.66395 0.49236 0.2445 0.0
C1508 C 0.639 0.48044 0.25582 0.0
C1509 C 0.65497 0.48735 0.22925 0.0
C1510 C 0.60487 0.4319 0.2021 0.0
H1511 H 0.66015 0.4923 0.13152 0.0
H1512 H 0.65059 0.5007 0.15865 0.0
H1513 H 0.59878 0.40176 0.18123 0.0
H1514 H 0.58692 0.45118 0.26045 0.0
H1515 H 0.57145 0.44115 0.23345 0.0
H1516 H 0.6153 0.5268 0.2051 0.0
C1517 C 0.63319 0.48053 0.1527 0.0
C1518 C 0.60118 0.42932 0.18633 0.0
C1519 C 0.63917 0.47538 0.13723 0.0
C1520 C 0.60623 0.46085 0.25177 0.0
C1521 C 0.59742 0.45527 0.23645 0.0
C1522 C 0.61104 0.49946 0.19998 0.0
C1523 C 0.60646 0.45869 0.1605 0.0
C1524 C 0.60342 0.46177 0.17724 0.0
C1525 C 0.62128 0.4695 0.22512 0.0
C1526 C 0.6112 0.46687 0.20893 0.0
H1527 H 0.57489 0.40631 0.13071 0.0
H1528 H 0.5638 0.41554 0.15799 0.0
H1529 H 0.6078 0.52255 0.17764 0.0
H1530 H 0.68993 0.50644 0.2475 0.0
H1531 H 0.67417 0.49777 0.22067 0.0
C1532 C 0.31718 0.84118 0.49854 0.0
C1533 C 0.33386 0.87287 0.50518 0.0
C1534 C 0.32715 0.83012 0.48389 0.0
C1535 C 0.39691 0.84503 0.45298 0.0
H1536 H 0.31026 0.82894 0.42697 0.0
C1537 C 0.39353 0.88156 0.38978 0.0
C1538 C 0.36983 0.86147 0.37995 0.0
C1539 C 0.39597 0.87185 0.40509 0.0
C1540 C 0.33496 0.83234 0.43406 0.0
H1541 H 0.37564 0.91636 0.50236 0.0
H1542 H 0.39277 0.8977 0.47651 0.0
H1543 H 0.3016 0.83306 0.45421 0.0
H1544 H 0.33151 0.81458 0.37816 0.0
H1545 H 0.33596 0.79709 0.40501 0.0
H1546 H 0.42998 0.84596 0.43263 0.0
C1547 C 0.37217 0.88115 0.48262 0.0
C1548 C 0.32996 0.83481 0.44973 0.0
C1549 C 0.36225 0.89206 0.49732 0.0
C1550 C 0.3501 0.83029 0.38555 0.0
C1551 C 0.35255 0.82047 0.40088 0.0
C1552 C 0.40193 0.84253 0.43726 0.0
C1553 C 0.35408 0.85056 0.47561 0.0
C1554 C 0.36068 0.84229 0.45932 0.0
C1555 C 0.37447 0.84203 0.41093 0.0
C1556 C 0.37081 0.83731 0.42761 0.0
H1557 H 0.29618 0.82519 0.50466 0.0
H1558 H 0.3133 0.80596 0.47894 0.0
H1559 H 0.42121 0.85016 0.46011 0.0
H1560 H 0.40797 0.90653 0.38594 0.0
H1561 H 0.41252 0.88953 0.41254 0.0
C1562 C 0.96818 0.63267 0.63611 0.0
C1563 C 0.94065 0.6103 0.62916 0.0
C1564 C 0.97658 0.62786 0.65149 0.0
C1565 C 0.96636 0.56147 0.68347 0.0
H1566 H 0.96145 0.65107 0.70842 0.0
C1567 C 0.96749 0.55101 0.74831 0.0
C1568 C 0.93816 0.57088 0.75534 0.0
C1569 C 0.977 0.55846 0.73325 0.0
C1570 C 0.96309 0.62585 0.70158 0.0
H1571 H 0.90227 0.56383 0.63223 0.0
H1572 H 0.91641 0.55552 0.65914 0.0
H1573 H 0.96124 0.65694 0.68079 0.0
H1574 H 0.89755 0.61568 0.75278 0.0
H1575 H 0.9136 0.62859 0.72626 0.0
H1576 H 0.96615 0.53023 0.70417 0.0
C1577 C 0.93148 0.57686 0.65283 0.0
C1578 C 0.96337 0.62921 0.68579 0.0
C1579 C 0.92297 0.58187 0.63752 0.0
C1580 C 0.92006 0.59992 0.74745 0.0
C1581 C 0.92946 0.60737 0.73236 0.0
C1582 C 0.96615 0.55811 0.69923 0.0
C1583 C 0.95793 0.60019 0.66003 0.0
C1584 C 0.96386 0.59698 0.6766 0.0
C1585 C 0.9574 0.58605 0.72499 0.0
C1586 C 0.96344 0.59021 0.70845 0.0
H1587 H 0.98224 0.65456 0.62974 0.0
H1588 H 0.9973 0.64599 0.65675 0.0
H1589 H 0.96721 0.5362 0.67663 0.0
H1590 H 0.98269 0.5294 0.75442 0.0
H1591 H 0.99918 0.54213 0.72796 0.0
C1592 C 0.90269 0.87306 0.11145 0.0
C1593 C 0.87108 0.8647 0.12036 0.0
C1594 C 0.90104 0.86951 0.0957 0.0
C1595 C 0.84591 0.8309 0.06369 0.0
H1596 H 0.87886 0.92144 0.04306 0.0
C1597 C 0.83728 0.85042 0.99845 0.0
C1598 C 0.82075 0.88434 0.9938 0.0
C1599 C 0.84722 0.84495 0.01365 0.0
C1600 C 0.86962 0.89597 0.04867 0.0
H1601 H 0.81418 0.84328 0.12023 0.0
H1602 H 0.81095 0.83705 0.09253 0.0
H1603 H 0.88967 0.91464 0.07024 0.0
H1604 H 0.80328 0.93976 0.00094 0.0
H1605 H 0.82052 0.93038 0.02757 0.0
H1606 H 0.82483 0.81285 0.04209 0.0
C1607 C 0.83702 0.84638 0.09767 0.0
C1608 C 0.87616 0.89186 0.06418 0.0
C1609 C 0.83874 0.84997 0.11346 0.0
C1610 C 0.81537 0.91318 0.0044 0.0
C1611 C 0.82559 0.90789 0.01955 0.0
C1612 C 0.83959 0.83491 0.04811 0.0
C1613 C 0.86776 0.85733 0.08862 0.0
C1614 C 0.86389 0.85956 0.07191 0.0
C1615 C 0.84132 0.87361 0.02434 0.0
C1616 C 0.85081 0.86779 0.04052 0.0
H1617 H 0.92828 0.88337 0.11666 0.0
H1618 H 0.92542 0.87735 0.08902 0.0
H1619 H 0.83634 0.80564 0.06936 0.0
H1620 H 0.84173 0.82795 0.99037 0.0
H1621 H 0.85962 0.81841 0.01703 0.0
C1622 C 0.46938 0.62234 0.86299 0.0
C1623 C 0.44201 0.60171 0.87086 0.0
C1624 C 0.47498 0.61632 0.84745 0.0
C1625 C 0.45177 0.54995 0.81612 0.0
H1626 H 0.45239 0.63938 0.7909 0.0
C1627 C 0.39334 0.55185 0.75586 0.0
C1628 C 0.41792 0.56402 0.74442 0.0
C1629 C 0.40252 0.55713 0.77109 0.0
C1630 C 0.45276 0.61422 0.79783 0.0
H1631 H 0.40138 0.55675 0.8693 0.0
H1632 H 0.41008 0.54675 0.84223 0.0
H1633 H 0.45983 0.6453 0.81842 0.0
H1634 H 0.46968 0.59399 0.73975 0.0
H1635 H 0.48524 0.60449 0.76662 0.0
H1636 H 0.4424 0.51919 0.79559 0.0
C1637 C 0.42746 0.56749 0.84785 0.0
C1638 C 0.45723 0.61751 0.81355 0.0
C1639 C 0.42199 0.57351 0.8633 0.0
C1640 C 0.45051 0.58407 0.74843 0.0
C1641 C 0.45944 0.58993 0.76372 0.0
C1642 C 0.44678 0.54677 0.80048 0.0
C1643 C 0.45348 0.58931 0.83965 0.0
C1644 C 0.4556 0.58547 0.8229 0.0
C1645 C 0.43596 0.57556 0.77513 0.0
C1646 C 0.44618 0.57894 0.79129 0.0
H1647 H 0.48527 0.64403 0.86874 0.0
H1648 H 0.49557 0.63323 0.84149 0.0
H1649 H 0.45131 0.52466 0.82295 0.0
H1650 H 0.36725 0.53784 0.75304 0.0
H1651 H 0.38353 0.54668 0.77975 0.0
C1652 C 0.65027 0.18258 0.61066 0.0
C1653 C 0.67846 0.19453 0.62071 0.0
C1654 C 0.65349 0.18952 0.59513 0.0
C1655 C 0.72763 0.2071 0.56686 0.0
H1656 H 0.64249 0.21256 0.5393 0.0
C1657 C 0.74769 0.20466 0.50231 0.0
C1658 C 0.72727 0.17609 0.49506 0.0
C1659 C 0.73893 0.21516 0.51714 0.0
C1660 C 0.66647 0.21118 0.5469 0.0
H1661 H 0.72986 0.22665 0.62279 0.0
H1662 H 0.73502 0.2402 0.59566 0.0
H1663 H 0.63215 0.21865 0.56663 0.0
H1664 H 0.67987 0.13832 0.49697 0.0
H1665 H 0.6642 0.15679 0.52304 0.0
H1666 H 0.76183 0.19932 0.54714 0.0
C1667 C 0.71123 0.22396 0.59965 0.0
C1668 C 0.66062 0.21453 0.56253 0.0
C1669 C 0.70818 0.21654 0.61518 0.0
C1670 C 0.69625 0.16005 0.50247 0.0
C1671 C 0.68724 0.17076 0.51729 0.0
C1672 C 0.73349 0.20426 0.55126 0.0
C1673 C 0.68462 0.20935 0.58937 0.0
C1674 C 0.69104 0.21154 0.57273 0.0
C1675 C 0.70912 0.19775 0.52487 0.0
C1676 C 0.7029 0.20537 0.54117 0.0
H1677 H 0.62611 0.16715 0.61476 0.0
H1678 H 0.63241 0.17781 0.58762 0.0
H1679 H 0.75168 0.20394 0.57432 0.0
H1680 H 0.77061 0.21869 0.49654 0.0
H1681 H 0.75577 0.23655 0.52264 0.0
C1682 C 0.08503 0.43266 0.36406 0.0
C1683 C 0.11338 0.45317 0.3714 0.0
C1684 C 0.07786 0.43846 0.34862 0.0
C1685 C 0.09821 0.50392 0.3167 0.0
H1686 H 0.09622 0.41374 0.29199 0.0
C1687 C 0.15607 0.49893 0.2566 0.0
C1688 C 0.13122 0.48721 0.24518 0.0
C1689 C 0.14663 0.49428 0.27182 0.0
C1690 C 0.09613 0.4391 0.29878 0.0
H1691 H 0.15409 0.49787 0.36903 0.0
H1692 H 0.14272 0.50739 0.34207 0.0
H1693 H 0.09045 0.40861 0.31959 0.0
H1694 H 0.07865 0.45869 0.24052 0.0
H1695 H 0.06258 0.44924 0.26743 0.0
H1696 H 0.10641 0.53406 0.29592 0.0
C1697 C 0.12581 0.48687 0.34806 0.0
C1698 C 0.09264 0.43627 0.31455 0.0
C1699 C 0.13285 0.48107 0.36342 0.0
C1700 C 0.09801 0.46823 0.2492 0.0
C1701 C 0.08879 0.46299 0.26449 0.0
C1702 C 0.10219 0.50665 0.30101 0.0
C1703 C 0.09875 0.46515 0.34039 0.0
C1704 C 0.09498 0.46858 0.32369 0.0
C1705 C 0.11261 0.47696 0.27587 0.0
C1706 C 0.10237 0.47419 0.29201 0.0
H1707 H 0.06949 0.41126 0.37014 0.0
H1708 H 0.05653 0.42163 0.34306 0.0
H1709 H 0.0992 0.52938 0.3234 0.0
H1710 H 0.18257 0.51212 0.25375 0.0
H1711 H 0.16585 0.50437 0.28046 0.0
C1712 C 0.67269 0.7166 0.38622 0.0
C1713 C 0.69404 0.68907 0.37875 0.0
C1714 C 0.67914 0.72427 0.40158 0.0
C1715 C 0.748 0.70741 0.4328 0.0
H1716 H 0.65956 0.70775 0.45869 0.0
C1717 C 0.74921 0.65244 0.49349 0.0
C1718 C 0.73741 0.67738 0.50485 0.0
C1719 C 0.74341 0.66107 0.47824 0.0
C1720 C 0.68442 0.70829 0.45156 0.0
H1721 H 0.74072 0.65035 0.38083 0.0
H1722 H 0.75136 0.66252 0.40763 0.0
H1723 H 0.65201 0.71202 0.43112 0.0
H1724 H 0.70762 0.72929 0.50937 0.0
H1725 H 0.69613 0.74386 0.48244 0.0
H1726 H 0.78015 0.70115 0.45322 0.0
C1727 C 0.7297 0.67843 0.40181 0.0
C1728 C 0.6802 0.71092 0.4358 0.0
C1729 C 0.72326 0.67091 0.38653 0.0
C1730 C 0.71731 0.70988 0.50075 0.0
C1731 C 0.71088 0.71825 0.48544 0.0
C1732 C 0.75214 0.70425 0.44847 0.0
C1733 C 0.70732 0.70472 0.4096 0.0
C1734 C 0.71192 0.7092 0.42624 0.0
C1735 C 0.72477 0.6943 0.47411 0.0
C1736 C 0.72034 0.70353 0.45791 0.0
H1737 H 0.65027 0.73115 0.38028 0.0
H1738 H 0.66175 0.745 0.40723 0.0
H1739 H 0.77303 0.70696 0.42577 0.0
H1740 H 0.76314 0.62637 0.49638 0.0
H1741 H 0.75346 0.64174 0.46965 0.0
C1742 C 0.0892 0.9064 0.63289 0.0
C1743 C 0.11424 0.93068 0.62547 0.0
C1744 C 0.08092 0.91163 0.64827 0.0
C1745 C 0.09563 0.91361 0.68243 0.0
H1746 H 0.08723 1.01307 0.70002 0.0
C1747 C 0.13941 0.94728 0.74371 0.0
C1748 C 0.11994 0.97542 0.75159 0.0
C1749 C 0.13026 0.93925 0.72864 0.0
C1750 C 0.08885 0.98501 0.69533 0.0
H1751 H 0.14796 0.98088 0.62767 0.0
H1752 H 0.13415 0.98994 0.65454 0.0
H1753 H 0.08443 1.00562 0.67258 0.0
H1754 H 0.07356 1.01482 0.7506 0.0
H1755 H 0.05737 1.00095 0.72421 0.0
H1756 H 0.10064 0.89307 0.7052 0.0
C1757 C 0.12087 0.96681 0.64862 0.0
C1758 C 0.08763 0.98081 0.67959 0.0
C1759 C 0.12922 0.96142 0.63333 0.0
C1760 C 0.08975 0.99392 0.74451 0.0
C1761 C 0.08044 0.98584 0.72947 0.0
C1762 C 0.09682 0.9178 0.69819 0.0
C1763 C 0.09721 0.94157 0.65634 0.0
C1764 C 0.09214 0.94522 0.67297 0.0
C1765 C 0.10114 0.95899 0.72126 0.0
C1766 C 0.09451 0.95367 0.70478 0.0
H1767 H 0.07722 0.88269 0.62691 0.0
H1768 H 0.06231 0.89198 0.6539 0.0
H1769 H 0.09938 0.88583 0.67765 0.0
H1770 H 0.16262 0.93257 0.74906 0.0
H1771 H 0.14702 0.91869 0.7226 0.0
C1772 C 0.82471 0.38775 0.88555 0.0
C1773 C 0.85218 0.36787 0.87745 0.0
C1774 C 0.81852 0.38009 0.90084 0.0
C1775 C 0.86718 0.34264 0.93423 0.0
H1776 H 0.76883 0.35762 0.95245 0.0
C1777 C 0.83303 0.34189 0.99941 0.0
C1778 C 0.8148 0.3751 0.00393 0.0
C1779 C 0.83846 0.3342 0.98399 0.0
C1780 C 0.79638 0.35307 0.94748 0.0
H1781 H 0.89294 0.32276 0.87844 0.0
H1782 H 0.88183 0.3087 0.90536 0.0
H1783 H 0.77437 0.35321 0.92491 0.0
H1784 H 0.7915 0.42792 0.99613 0.0
H1785 H 0.79953 0.4139 0.9692 0.0
H1786 H 0.88899 0.34301 0.95698 0.0
C1787 C 0.8657 0.33084 0.89997 0.0
C1788 C 0.79962 0.3507 0.93175 0.0
C1789 C 0.87191 0.33865 0.88461 0.0
C1790 C 0.80402 0.40141 0.99289 0.0
C1791 C 0.80885 0.39351 0.97754 0.0
C1792 C 0.86383 0.34451 0.95003 0.0
C1793 C 0.83936 0.35197 0.90831 0.0
C1794 C 0.83522 0.34699 0.92493 0.0
C1795 C 0.82545 0.35958 0.97298 0.0
C1796 C 0.82857 0.35114 0.95668 0.0
H1797 H 0.80841 0.40963 0.88009 0.0
H1798 H 0.79829 0.3972 0.90692 0.0
H1799 H 0.89504 0.34001 0.92933 0.0
H1800 H 0.84188 0.32142 0.00779 0.0
H1801 H 0.85165 0.30802 0.98066 0.0
C1802 C 0.46155 0.07643 0.24957 0.0
C1803 C 0.4307 0.05399 0.25367 0.0
C1804 C 0.46997 0.08256 0.23425 0.0
C1805 C 0.45624 0.04138 0.19666 0.0
H1806 H 0.46286 0.14285 0.18087 0.0
C1807 C 0.42008 0.07679 0.13536 0.0
C1808 C 0.43872 0.10613 0.1279 0.0
C1809 C 0.42785 0.06891 0.15053 0.0
C1810 C 0.46202 0.11431 0.18511 0.0
H1811 H 0.3827 1.02297 0.24528 0.0
H1812 H 0.39793 0.03255 0.21848 0.0
H1813 H 0.45995 0.13262 0.20829 0.0
H1814 H 0.4817 0.14877 0.12991 0.0
H1815 H 0.49584 0.13487 0.15666 0.0
H1816 H 0.45757 1.02291 0.17359 0.0
C1817 C 0.41619 0.0446 0.22705 0.0
C1818 C 0.46023 0.10851 0.20079 0.0
C1819 C 0.40754 0.039 0.24231 0.0
C1820 C 0.46678 0.12627 0.13559 0.0
C1821 C 0.47464 0.11844 0.15084 0.0
C1822 C 0.45841 0.04711 0.18103 0.0
C1823 C 0.44763 0.06616 0.22288 0.0
C1824 C 0.45595 0.07209 0.20664 0.0
C1825 C 0.4548 0.09 0.15853 0.0
C1826 C 0.45985 0.0837 0.17505 0.0
H1827 H 0.47932 0.08871 0.25824 0.0
H1828 H 0.49415 0.09958 0.23128 0.0
H1829 H 0.4536 1.01297 0.20095 0.0
H1830 H 0.39909 0.06025 0.12948 0.0
H1831 H 0.41174 0.0471 0.15611 0.0
C1832 C 0.33009 0.37677 0.61304 0.0
C1833 C 0.35921 0.35818 0.62072 0.0
C1834 C 0.32344 0.36963 0.59775 0.0
C1835 C 0.37257 0.33806 0.5636 0.0
H1836 H 0.27262 0.34911 0.54632 0.0
C1837 C 0.33528 0.3436 0.4987 0.0
C1838 C 0.3155 0.37659 0.49501 0.0
C1839 C 0.34165 0.33403 0.5139 0.0
C1840 C 0.30063 0.34563 0.55102 0.0
H1841 H 0.40259 0.31576 0.61898 0.0
H1842 H 0.3908 0.30263 0.59199 0.0
H1843 H 0.27978 0.34181 0.57371 0.0
H1844 H 0.29028 0.42719 0.5041 0.0
H1845 H 0.29986 0.40974 0.53063 0.0
H1846 H 0.39318 0.34246 0.54075 0.0
C1847 C 0.37362 0.32335 0.59775 0.0
C1848 C 0.30479 0.3416 0.56667 0.0
C1849 C 0.38025 0.33062 0.61313 0.0
C1850 C 0.30396 0.40079 0.50667 0.0
C1851 C 0.3097 0.39096 0.5218 0.0
C1852 C 0.36833 0.34156 0.54788 0.0
C1853 C 0.34555 0.34333 0.58984 0.0
C1854 C 0.34088 0.33941 0.57319 0.0
C1855 C 0.32801 0.35725 0.52552 0.0
C1856 C 0.33241 0.34682 0.54159 0.0
H1857 H 0.3129 0.39739 0.61884 0.0
H1858 H 0.30189 0.38587 0.59201 0.0
H1859 H 0.40077 0.33665 0.56827 0.0
H1860 H 0.34476 0.32475 0.48985 0.0
H1861 H 0.35616 0.30807 0.51657 0.0
C1862 C 0.96335 0.13 0.3649 0.0
C1863 C 0.93657 0.1085 0.37272 0.0
C1864 C 0.97031 0.12326 0.3495 0.0
C1865 C 0.95264 0.05367 0.3187 0.0
H1866 H 0.95096 0.14134 0.29251 0.0
C1867 C 0.89644 0.05056 0.25807 0.0
C1868 C 0.92069 0.06338 0.24662 0.0
C1869 C 0.90531 0.05634 0.27329 0.0
C1870 C 0.95203 0.11669 0.29972 0.0
H1871 H 0.89861 0.06124 0.37125 0.0
H1872 H 0.90946 0.05009 0.34439 0.0
H1873 H 0.95621 0.14942 0.32 0.0
H1874 H 0.97161 0.09477 0.24196 0.0
H1875 H 0.98655 0.10618 0.26883 0.0
H1876 H 0.946 1.02118 0.29843 0.0
C1877 C 0.92533 0.0721 0.34995 0.0
C1878 C 0.95524 0.12122 0.31543 0.0
C1879 C 0.91855 0.07881 0.36527 0.0
C1880 C 0.95272 0.0843 0.25064 0.0
C1881 C 0.96131 0.09069 0.26592 0.0
C1882 C 0.94889 0.04922 0.30306 0.0
C1883 C 0.95077 0.09465 0.34179 0.0
C1884 C 0.95434 0.08977 0.32512 0.0
C1885 C 0.93807 0.07595 0.27733 0.0
C1886 C 0.94748 0.08072 0.29351 0.0
H1887 H 0.9778 0.15279 0.37057 0.0
H1888 H 0.99044 0.14078 0.34357 0.0
H1889 H 0.95282 0.02884 0.32581 0.0
H1890 H 0.87066 0.03599 0.25527 0.0
H1891 H 0.88648 0.04561 0.28195 0.0
C1892 C 0.22085 0.66416 0.11218 0.0
C1893 C 0.19434 0.68542 0.12025 0.0
C1894 C 0.2227 0.66664 0.09644 0.0
C1895 C 0.20598 0.72071 0.06297 0.0
H1896 H 0.1878 0.624 0.04404 0.0
C1897 C 0.21281 0.69938 0.99781 0.0
C1898 C 0.23283 0.66736 0.99318 0.0
C1899 C 0.20285 0.70408 0.01305 0.0
C1900 C 0.19314 0.65116 0.04913 0.0
H1901 H 0.1515 0.72847 0.11863 0.0
H1902 H 0.15536 0.73363 0.09074 0.0
H1903 H 0.18295 0.63018 0.07151 0.0
H1904 H 0.25576 0.61398 0.00043 0.0
H1905 H 0.23987 0.62253 0.02706 0.0
H1906 H 0.21813 0.74132 0.04065 0.0
C1907 C 0.17407 0.71456 0.09667 0.0
C1908 C 0.19015 0.65468 0.06481 0.0
C1909 C 0.17193 0.71171 0.11251 0.0
C1910 C 0.24138 0.63941 0.00384 0.0
C1911 C 0.23163 0.6441 0.01904 0.0
C1912 C 0.20948 0.71709 0.04721 0.0
C1913 C 0.19855 0.69099 0.08855 0.0
C1914 C 0.19742 0.68921 0.07187 0.0
C1915 C 0.21252 0.67661 0.02385 0.0
C1916 C 0.20405 0.68198 0.04019 0.0
H1917 H 0.23916 0.6446 0.11803 0.0
H1918 H 0.24227 0.64873 0.09036 0.0
H1919 H 0.21169 0.74757 0.06826 0.0
H1920 H 0.20566 0.72108 0.98967 0.0
H1921 H 0.18769 0.72918 0.01637 0.0
C1922 C 0.58121 0.92698 0.86405 0.0
C1923 C 0.60881 0.94729 0.87192 0.0
C1924 C 0.57515 0.93363 0.84857 0.0
C1925 C 0.59736 1.00137 0.81756 0.0
H1926 H 0.5967 0.91303 0.7918 0.0
C1927 C 0.65548 1.00188 0.75726 0.0
C1928 C 0.63132 0.98934 0.74573 0.0
C1929 C 0.6461 0.99645 0.77246 0.0
C1930 C 0.59631 0.93789 0.79888 0.0
H1931 H 0.64942 0.99229 0.87044 0.0
H1932 H 0.63991 1.00341 0.84348 0.0
H1933 H 0.58968 0.90591 0.81929 0.0
H1934 H 0.58003 0.95872 0.74091 0.0
H1935 H 0.56412 0.94798 0.76773 0.0
H1936 H 0.6063 0.03304 0.79721 0.0
C1937 C 0.62269 0.98244 0.84905 0.0
C1938 C 0.59209 0.93391 0.81459 0.0
C1939 C 0.62863 0.97577 0.86443 0.0
C1940 C 0.59887 0.96894 0.74965 0.0
C1941 C 0.58974 0.96294 0.76491 0.0
C1942 C 0.60207 1.00525 0.80194 0.0
C1943 C 0.59641 0.96099 0.84085 0.0
C1944 C 0.5938 0.96555 0.82413 0.0
C1945 C 0.61286 0.97751 0.7764 0.0
C1946 C 0.60268 0.97347 0.79254 0.0
H1947 H 0.56547 0.90508 0.86975 0.0
H1948 H 0.55439 0.91697 0.8426 0.0
H1949 H 0.59788 0.02636 0.82456 0.0
H1950 H 0.6815 1.01613 0.75453 0.0
H1951 H 0.66485 1.00705 0.78117 0.0
loop_
_geom_bond_atom_site_label_1
_geom_bond_atom_site_label_2
_geom_bond_distance
_geom_bond_site_symmetry_2
_ccdc_geom_bond_type
Zn0 O1 2.055 . S
Zn0 O8 2.046 . S
Zn0 N16 2.036 . S
Zn0 O28 2.053 . S
Zn0 O30 2.066 . S
O1 Zn0 2.055 . S
O1 C4 1.259 . S
C2 O30 1.256 . S
C2 O31 1.244 . S
Zn3 O5 2.046 . S
Zn3 O7 2.055 . S
Zn3 N9 2.036 . S
Zn3 O27 2.066 . S
Zn3 O31 2.053 . S
C4 O1 1.259 . S
C4 O5 1.254 . S
O5 Zn3 2.046 . S
O5 C4 1.254 . S
C6 O27 1.256 . S
C6 O28 1.244 . S
O7 Zn3 2.055 . S
O7 C29 1.259 . S
O8 Zn0 2.046 . S
O8 C29 1.254 . S
N9 Zn3 2.036 . S
N9 C10 1.298 . S
N9 N12 1.398 . S
C10 N9 1.298 . S
C10 N13 1.367 . S
C10 C23 1.481 . S
C11 N12 1.299 . S
C11 N13 1.379 . S
N12 N9 1.398 . S
N12 C11 1.299 . S
N13 C10 1.367 . S
N13 C11 1.379 . S
C14 N16 1.298 . S
C14 N18 1.367 . S
C14 C22 1.481 . S
C15 N17 1.299 . S
C15 N18 1.379 . S
N16 Zn0 2.036 . S
N16 C14 1.298 . S
N16 N17 1.398 . S
N17 C15 1.299 . S
N17 N16 1.398 . S
N18 C14 1.367 . S
N18 C15 1.379 . S
H19 C22 0.980 . S
H20 C22 0.981 . S
H21 C22 0.981 . S
C22 C14 1.481 . S
C22 H19 0.980 . S
C22 H20 0.981 . S
C22 H21 0.981 . S
C23 C10 1.481 . S
C23 H24 0.980 . S
C23 H25 0.981 . S
C23 H26 0.981 . S
H24 C23 0.980 . S
H25 C23 0.981 . S
H26 C23 0.981 . S
O27 Zn3 2.066 . S
O27 C6 1.256 . S
O28 Zn0 2.053 . S
O28 C6 1.244 . S
C29 O7 1.259 . S
C29 O8 1.254 . S
O30 Zn0 2.066 . S
O30 C2 1.256 . S
O31 C2 1.244 . S
O31 Zn3 2.053 . S
Zn32 O33 2.055 . S
Zn32 O40 2.046 . S
Zn32 N48 2.036 . S
Zn32 O60 2.053 . S
Zn32 O62 2.066 . S
O33 Zn32 2.055 . S
O33 C36 1.259 . S
C34 O62 1.256 . S
C34 O63 1.244 . S
Zn35 O37 2.046 . S
Zn35 O39 2.055 . S
Zn35 N41 2.036 . S
Zn35 O59 2.066 . S
Zn35 O63 2.053 . S
C36 O33 1.259 . S
C36 O37 1.254 . S
O37 Zn35 2.046 . S
O37 C36 1.254 . S
C38 O59 1.256 . S
C38 O60 1.244 . S
O39 Zn35 2.055 . S
O39 C61 1.259 . S
O40 Zn32 2.046 . S
O40 C61 1.254 . S
N41 Zn35 2.036 . S
N41 C42 1.298 . S
N41 N44 1.398 . S
C42 N41 1.298 . S
C42 N45 1.367 . S
C42 C55 1.481 . S
C43 N44 1.299 . S
C43 N45 1.379 . S
N44 N41 1.398 . S
N44 C43 1.299 . S
N45 C42 1.367 . S
N45 C43 1.379 . S
C46 N48 1.298 . S
C46 N50 1.367 . S
C46 C54 1.481 . S
C47 N49 1.299 . S
C47 N50 1.379 . S
N48 Zn32 2.036 . S
N48 C46 1.298 . S
N48 N49 1.398 . S
N49 C47 1.299 . S
N49 N48 1.398 . S
N50 C46 1.367 . S
N50 C47 1.379 . S
H51 C54 0.980 . S
H52 C54 0.981 . S
H53 C54 0.981 . S
C54 C46 1.481 . S
C54 H51 0.980 . S
C54 H52 0.981 . S
C54 H53 0.981 . S
C55 C42 1.481 . S
C55 H56 0.980 . S
C55 H57 0.981 . S
C55 H58 0.981 . S
H56 C55 0.980 . S
H57 C55 0.981 . S
H58 C55 0.981 . S
O59 Zn35 2.066 . S
O59 C38 1.256 . S
O60 Zn32 2.053 . S
O60 C38 1.244 . S
C61 O39 1.259 . S
C61 O40 1.254 . S
O62 Zn32 2.066 . S
O62 C34 1.256 . S
O63 C34 1.244 . S
O63 Zn35 2.053 . S
Zn64 O65 2.055 . S
Zn64 O72 2.046 . S
Zn64 N80 2.036 . S
Zn64 O92 2.053 . S
Zn64 O94 2.066 . S
O65 Zn64 2.055 . S
O65 C68 1.259 . S
C66 O94 1.256 . S
C66 O95 1.244 . S
Zn67 O69 2.046 . S
Zn67 O71 2.055 . S
Zn67 N73 2.036 . S
Zn67 O91 2.066 . S
Zn67 O95 2.053 . S
C68 O65 1.259 . S
C68 O69 1.254 . S
O69 Zn67 2.046 . S
O69 C68 1.254 . S
C70 O91 1.256 . S
C70 O92 1.244 . S
O71 Zn67 2.055 . S
O71 C93 1.259 . S
O72 Zn64 2.046 . S
O72 C93 1.254 . S
N73 Zn67 2.036 . S
N73 C74 1.298 . S
N73 N76 1.398 . S
C74 N73 1.298 . S
C74 N77 1.367 . S
C74 C87 1.481 . S
C75 N76 1.299 . S
C75 N77 1.379 . S
N76 N73 1.398 . S
N76 C75 1.299 . S
N77 C74 1.367 . S
N77 C75 1.379 . S
C78 N80 1.298 . S
C78 N82 1.367 . S
C78 C86 1.481 . S
C79 N81 1.299 . S
C79 N82 1.379 . S
N80 Zn64 2.036 . S
N80 C78 1.298 . S
N80 N81 1.398 . S
N81 C79 1.299 . S
N81 N80 1.398 . S
N82 C78 1.367 . S
N82 C79 1.379 . S
H83 C86 0.980 . S
H84 C86 0.981 . S
H85 C86 0.981 . S
C86 C78 1.481 . S
C86 H83 0.980 . S
C86 H84 0.981 . S
C86 H85 0.981 . S
C87 C74 1.481 . S
C87 H88 0.980 . S
C87 H89 0.981 . S
C87 H90 0.981 . S
H88 C87 0.980 . S
H89 C87 0.981 . S
H90 C87 0.981 . S
O91 Zn67 2.066 . S
O91 C70 1.256 . S
O92 Zn64 2.053 . S
O92 C70 1.244 . S
C93 O71 1.259 . S
C93 O72 1.254 . S
O94 Zn64 2.066 . S
O94 C66 1.256 . S
O95 C66 1.244 . S
O95 Zn67 2.053 . S
Zn96 O97 2.055 . S
Zn96 O104 2.046 . S
Zn96 N112 2.036 . S
Zn96 O124 2.053 . S
Zn96 O126 2.066 . S
O97 Zn96 2.055 . S
O97 C100 1.259 . S
C98 O126 1.256 . S
C98 O127 1.244 . S
Zn99 O101 2.046 . S
Zn99 O103 2.055 . S
Zn99 N105 2.036 . S
Zn99 O123 2.066 . S
Zn99 O127 2.053 . S
C100 O97 1.259 . S
C100 O101 1.254 . S
O101 Zn99 2.046 . S
O101 C100 1.254 . S
C102 O123 1.256 . S
C102 O124 1.244 . S
O103 Zn99 2.055 . S
O103 C125 1.259 . S
O104 Zn96 2.046 . S
O104 C125 1.254 . S
N105 Zn99 2.036 . S
N105 C106 1.298 . S
N105 N108 1.398 . S
C106 N105 1.298 . S
C106 N109 1.367 . S
C106 C119 1.481 . S
C107 N108 1.299 . S
C107 N109 1.379 . S
N108 N105 1.398 . S
N108 C107 1.299 . S
N109 C106 1.367 . S
N109 C107 1.379 . S
C110 N112 1.298 . S
C110 N114 1.367 . S
C110 C118 1.481 . S
C111 N113 1.299 . S
C111 N114 1.379 . S
N112 Zn96 2.036 . S
N112 C110 1.298 . S
N112 N113 1.398 . S
N113 C111 1.299 . S
N113 N112 1.398 . S
N114 C110 1.367 . S
N114 C111 1.379 . S
H115 C118 0.980 . S
H116 C118 0.981 . S
H117 C118 0.981 . S
C118 C110 1.481 . S
C118 H115 0.980 . S
C118 H116 0.981 . S
C118 H117 0.981 . S
C119 C106 1.481 . S
C119 H120 0.980 . S
C119 H121 0.981 . S
C119 H122 0.981 . S
H120 C119 0.980 . S
H121 C119 0.981 . S
H122 C119 0.981 . S
O123 Zn99 2.066 . S
O123 C102 1.256 . S
O124 Zn96 2.053 . S
O124 C102 1.244 . S
C125 O103 1.259 . S
C125 O104 1.254 . S
O126 Zn96 2.066 . S
O126 C98 1.256 . S
O127 C98 1.244 . S
O127 Zn99 2.053 . S
Zn128 O129 2.055 . S
Zn128 O136 2.046 . S
Zn128 N144 2.036 . S
Zn128 O156 2.053 . S
Zn128 O158 2.066 . S
O129 Zn128 2.055 . S
O129 C132 1.259 . S
C130 O158 1.256 . S
C130 O159 1.244 . S
Zn131 O133 2.046 . S
Zn131 O135 2.055 . S
Zn131 N137 2.036 . S
Zn131 O155 2.066 . S
Zn131 O159 2.053 . S
C132 O129 1.259 . S
C132 O133 1.254 . S
O133 Zn131 2.046 . S
O133 C132 1.254 . S
C134 O155 1.256 . S
C134 O156 1.244 . S
O135 Zn131 2.055 . S
O135 C157 1.259 . S
O136 Zn128 2.046 . S
O136 C157 1.254 . S
N137 Zn131 2.036 . S
N137 C138 1.298 . S
N137 N140 1.398 . S
C138 N137 1.298 . S
C138 N141 1.367 . S
C138 C151 1.481 . S
C139 N140 1.299 . S
C139 N141 1.379 . S
N140 N137 1.398 . S
N140 C139 1.299 . S
N141 C138 1.367 . S
N141 C139 1.379 . S
C142 N144 1.298 . S
C142 N146 1.367 . S
C142 C150 1.481 . S
C143 N145 1.299 . S
C143 N146 1.379 . S
N144 Zn128 2.036 . S
N144 C142 1.298 . S
N144 N145 1.398 . S
N145 C143 1.299 . S
N145 N144 1.398 . S
N146 C142 1.367 . S
N146 C143 1.379 . S
H147 C150 0.980 . S
H148 C150 0.981 . S
H149 C150 0.981 . S
C150 C142 1.481 . S
C150 H147 0.980 . S
C150 H148 0.981 . S
C150 H149 0.981 . S
C151 C138 1.481 . S
C151 H152 0.980 . S
C151 H153 0.981 . S
C151 H154 0.981 . S
H152 C151 0.980 . S
H153 C151 0.981 . S
H154 C151 0.981 . S
O155 Zn131 2.066 . S
O155 C134 1.256 . S
O156 Zn128 2.053 . S
O156 C134 1.244 . S
C157 O135 1.259 . S
C157 O136 1.254 . S
O158 Zn128 2.066 . S
O158 C130 1.256 . S
O159 C130 1.244 . S
O159 Zn131 2.053 . S
Zn160 O161 2.055 . S
Zn160 O168 2.046 . S
Zn160 N176 2.036 . S
Zn160 O188 2.053 . S
Zn160 O190 2.066 . S
O161 Zn160 2.055 . S
O161 C164 1.259 . S
C162 O190 1.256 . S
C162 O191 1.244 . S
Zn163 O165 2.046 . S
Zn163 O167 2.055 . S
Zn163 N169 2.036 . S
Zn163 O187 2.066 . S
Zn163 O191 2.053 . S
C164 O161 1.259 . S
C164 O165 1.254 . S
O165 Zn163 2.046 . S
O165 C164 1.254 . S
C166 O187 1.256 . S
C166 O188 1.244 . S
O167 Zn163 2.055 . S
O167 C189 1.259 . S
O168 Zn160 2.046 . S
O168 C189 1.254 . S
N169 Zn163 2.036 . S
N169 C170 1.298 . S
N169 N172 1.398 . S
C170 N169 1.298 . S
C170 N173 1.367 . S
C170 C183 1.481 . S
C171 N172 1.299 . S
C171 N173 1.379 . S
N172 N169 1.398 . S
N172 C171 1.299 . S
N173 C170 1.367 . S
N173 C171 1.379 . S
C174 N176 1.298 . S
C174 N178 1.367 . S
C174 C182 1.481 . S
C175 N177 1.299 . S
C175 N178 1.379 . S
N176 Zn160 2.036 . S
N176 C174 1.298 . S
N176 N177 1.398 . S
N177 C175 1.299 . S
N177 N176 1.398 . S
N178 C174 1.367 . S
N178 C175 1.379 . S
H179 C182 0.980 . S
H180 C182 0.981 . S
H181 C182 0.981 . S
C182 C174 1.481 . S
C182 H179 0.980 . S
C182 H180 0.981 . S
C182 H181 0.981 . S
C183 C170 1.481 . S
C183 H184 0.980 . S
C183 H185 0.981 . S
C183 H186 0.981 . S
H184 C183 0.980 . S
H185 C183 0.981 . S
H186 C183 0.981 . S
O187 Zn163 2.066 . S
O187 C166 1.256 . S
O188 Zn160 2.053 . S
O188 C166 1.244 . S
C189 O167 1.259 . S
C189 O168 1.254 . S
O190 Zn160 2.066 . S
O190 C162 1.256 . S
O191 C162 1.244 . S
O191 Zn163 2.053 . S
Zn192 O193 2.055 . S
Zn192 O200 2.046 . S
Zn192 N208 2.036 . S
Zn192 O220 2.053 . S
Zn192 O222 2.066 . S
O193 Zn192 2.055 . S
O193 C196 1.259 . S
C194 O222 1.256 . S
C194 O223 1.244 . S
Zn195 O197 2.046 . S
Zn195 O199 2.055 . S
Zn195 N201 2.036 . S
Zn195 O219 2.066 . S
Zn195 O223 2.053 . S
C196 O193 1.259 . S
C196 O197 1.254 . S
O197 Zn195 2.046 . S
O197 C196 1.254 . S
C198 O219 1.256 . S
C198 O220 1.244 . S
O199 Zn195 2.055 . S
O199 C221 1.259 . S
O200 Zn192 2.046 . S
O200 C221 1.254 . S
N201 Zn195 2.036 . S
N201 C202 1.298 . S
N201 N204 1.398 . S
C202 N201 1.298 . S
C202 N205 1.367 . S
C202 C215 1.481 . S
C203 N204 1.299 . S
C203 N205 1.379 . S
N204 N201 1.398 . S
N204 C203 1.299 . S
N205 C202 1.367 . S
N205 C203 1.379 . S
C206 N208 1.298 . S
C206 N210 1.367 . S
C206 C214 1.481 . S
C207 N209 1.299 . S
C207 N210 1.379 . S
N208 Zn192 2.036 . S
N208 C206 1.298 . S
N208 N209 1.398 . S
N209 C207 1.299 . S
N209 N208 1.398 . S
N210 C206 1.367 . S
N210 C207 1.379 . S
H211 C214 0.980 . S
H212 C214 0.981 . S
H213 C214 0.981 . S
C214 C206 1.481 . S
C214 H211 0.980 . S
C214 H212 0.981 . S
C214 H213 0.981 . S
C215 C202 1.481 . S
C215 H216 0.980 . S
C215 H217 0.981 . S
C215 H218 0.981 . S
H216 C215 0.980 . S
H217 C215 0.981 . S
H218 C215 0.981 . S
O219 Zn195 2.066 . S
O219 C198 1.256 . S
O220 Zn192 2.053 . S
O220 C198 1.244 . S
C221 O199 1.259 . S
C221 O200 1.254 . S
O222 Zn192 2.066 . S
O222 C194 1.256 . S
O223 C194 1.244 . S
O223 Zn195 2.053 . S
Zn224 O225 2.055 . S
Zn224 O232 2.046 . S
Zn224 N240 2.036 . S
Zn224 O252 2.053 . S
Zn224 O254 2.066 . S
O225 Zn224 2.055 . S
O225 C228 1.259 . S
C226 O254 1.256 . S
C226 O255 1.244 . S
Zn227 O229 2.046 . S
Zn227 O231 2.055 . S
Zn227 N233 2.036 . S
Zn227 O251 2.066 . S
Zn227 O255 2.053 . S
C228 O225 1.259 . S
C228 O229 1.254 . S
O229 Zn227 2.046 . S
O229 C228 1.254 . S
C230 O251 1.256 . S
C230 O252 1.244 . S
O231 Zn227 2.055 . S
O231 C253 1.259 . S
O232 Zn224 2.046 . S
O232 C253 1.254 . S
N233 Zn227 2.036 . S
N233 C234 1.298 . S
N233 N236 1.398 . S
C234 N233 1.298 . S
C234 N237 1.367 . S
C234 C247 1.481 . S
C235 N236 1.299 . S
C235 N237 1.379 . S
N236 N233 1.398 . S
N236 C235 1.299 . S
N237 C234 1.367 . S
N237 C235 1.379 . S
C238 N240 1.298 . S
C238 N242 1.367 . S
C238 C246 1.481 . S
C239 N241 1.299 . S
C239 N242 1.379 . S
N240 Zn224 2.036 . S
N240 C238 1.298 . S
N240 N241 1.398 . S
N241 C239 1.299 . S
N241 N240 1.398 . S
N242 C238 1.367 . S
N242 C239 1.379 . S
H243 C246 0.980 . S
H244 C246 0.981 . S
H245 C246 0.981 . S
C246 C238 1.481 . S
C246 H243 0.980 . S
C246 H244 0.981 . S
C246 H245 0.981 . S
C247 C234 1.481 . S
C247 H248 0.980 . S
C247 H249 0.981 . S
C247 H250 0.981 . S
H248 C247 0.980 . S
H249 C247 0.981 . S
H250 C247 0.981 . S
O251 Zn227 2.066 . S
O251 C230 1.256 . S
O252 Zn224 2.053 . S
O252 C230 1.244 . S
C253 O231 1.259 . S
C253 O232 1.254 . S
O254 Zn224 2.066 . S
O254 C226 1.256 . S
O255 C226 1.244 . S
O255 Zn227 2.053 . S
Zn256 O257 2.055 . S
Zn256 O264 2.046 . S
Zn256 N272 2.036 . S
Zn256 O284 2.053 . S
Zn256 O286 2.066 . S
O257 Zn256 2.055 . S
O257 C260 1.259 . S
C258 O286 1.256 . S
C258 O287 1.244 . S
Zn259 O261 2.046 . S
Zn259 O263 2.055 . S
Zn259 N265 2.036 . S
Zn259 O283 2.066 . S
Zn259 O287 2.053 . S
C260 O257 1.259 . S
C260 O261 1.254 . S
O261 Zn259 2.046 . S
O261 C260 1.254 . S
C262 O283 1.256 . S
C262 O284 1.244 . S
O263 Zn259 2.055 . S
O263 C285 1.259 . S
O264 Zn256 2.046 . S
O264 C285 1.254 . S
N265 Zn259 2.036 . S
N265 C266 1.298 . S
N265 N268 1.398 . S
C266 N265 1.298 . S
C266 N269 1.367 . S
C266 C279 1.481 . S
C267 N268 1.299 . S
C267 N269 1.379 . S
N268 N265 1.398 . S
N268 C267 1.299 . S
N269 C266 1.367 . S
N269 C267 1.379 . S
C270 N272 1.298 . S
C270 N274 1.367 . S
C270 C278 1.481 . S
C271 N273 1.299 . S
C271 N274 1.379 . S
N272 Zn256 2.036 . S
N272 C270 1.298 . S
N272 N273 1.398 . S
N273 C271 1.299 . S
N273 N272 1.398 . S
N274 C270 1.367 . S
N274 C271 1.379 . S
H275 C278 0.980 . S
H276 C278 0.981 . S
H277 C278 0.981 . S
C278 C270 1.481 . S
C278 H275 0.980 . S
C278 H276 0.981 . S
C278 H277 0.981 . S
C279 C266 1.481 . S
C279 H280 0.980 . S
C279 H281 0.981 . S
C279 H282 0.981 . S
H280 C279 0.980 . S
H281 C279 0.981 . S
H282 C279 0.981 . S
O283 Zn259 2.066 . S
O283 C262 1.256 . S
O284 Zn256 2.053 . S
O284 C262 1.244 . S
C285 O263 1.259 . S
C285 O264 1.254 . S
O286 Zn256 2.066 . S
O286 C258 1.256 . S
O287 C258 1.244 . S
O287 Zn259 2.053 . S
Zn288 O289 2.055 . S
Zn288 O296 2.046 . S
Zn288 N304 2.036 . S
Zn288 O316 2.053 . S
Zn288 O318 2.066 . S
O289 Zn288 2.055 . S
O289 C292 1.259 . S
C290 O318 1.256 . S
C290 O319 1.244 . S
Zn291 O293 2.046 . S
Zn291 O295 2.055 . S
Zn291 N297 2.036 . S
Zn291 O315 2.066 . S
Zn291 O319 2.053 . S
C292 O289 1.259 . S
C292 O293 1.254 . S
O293 Zn291 2.046 . S
O293 C292 1.254 . S
C294 O315 1.256 . S
C294 O316 1.244 . S
O295 Zn291 2.055 . S
O295 C317 1.259 . S
O296 Zn288 2.046 . S
O296 C317 1.254 . S
N297 Zn291 2.036 . S
N297 C298 1.298 . S
N297 N300 1.398 . S
C298 N297 1.298 . S
C298 N301 1.367 . S
C298 C311 1.481 . S
C299 N300 1.299 . S
C299 N301 1.379 . S
N300 N297 1.398 . S
N300 C299 1.299 . S
N301 C298 1.367 . S
N301 C299 1.379 . S
C302 N304 1.298 . S
C302 N306 1.367 . S
C302 C310 1.481 . S
C303 N305 1.299 1_565 S
C303 N306 1.379 1_565 S
N304 Zn288 2.036 . S
N304 C302 1.298 . S
N304 N305 1.398 . S
N305 C303 1.299 1_545 S
N305 N304 1.398 . S
N306 C302 1.367 . S
N306 C303 1.379 1_545 S
H307 C310 0.980 . S
H308 C310 0.981 . S
H309 C310 0.981 . S
C310 C302 1.481 . S
C310 H307 0.980 . S
C310 H308 0.981 . S
C310 H309 0.981 . S
C311 C298 1.481 . S
C311 H312 0.980 . S
C311 H313 0.981 . S
C311 H314 0.981 . S
H312 C311 0.980 . S
H313 C311 0.981 . S
H314 C311 0.981 . S
O315 Zn291 2.066 . S
O315 C294 1.256 . S
O316 Zn288 2.053 . S
O316 C294 1.244 . S
C317 O295 1.259 . S
C317 O296 1.254 . S
O318 Zn288 2.066 . S
O318 C290 1.256 . S
O319 C290 1.244 . S
O319 Zn291 2.053 . S
Zn320 O321 2.055 . S
Zn320 O328 2.046 . S
Zn320 N336 2.036 . S
Zn320 O348 2.053 . S
Zn320 O350 2.066 . S
O321 Zn320 2.055 . S
O321 C324 1.259 . S
C322 O350 1.256 . S
C322 O351 1.244 . S
Zn323 O325 2.046 . S
Zn323 O327 2.055 . S
Zn323 N329 2.036 . S
Zn323 O347 2.066 . S
Zn323 O351 2.053 . S
C324 O321 1.259 . S
C324 O325 1.254 . S
O325 Zn323 2.046 . S
O325 C324 1.254 . S
C326 O347 1.256 . S
C326 O348 1.244 . S
O327 Zn323 2.055 . S
O327 C349 1.259 . S
O328 Zn320 2.046 . S
O328 C349 1.254 . S
N329 Zn323 2.036 . S
N329 C330 1.298 . S
N329 N332 1.398 . S
C330 N329 1.298 . S
C330 N333 1.367 . S
C330 C343 1.481 . S
C331 N332 1.299 . S
C331 N333 1.379 . S
N332 N329 1.398 . S
N332 C331 1.299 . S
N333 C330 1.367 . S
N333 C331 1.379 . S
C334 N336 1.298 . S
C334 N338 1.367 . S
C334 C342 1.481 . S
C335 N337 1.299 . S
C335 N338 1.379 . S
N336 Zn320 2.036 . S
N336 C334 1.298 . S
N336 N337 1.398 . S
N337 C335 1.299 . S
N337 N336 1.398 . S
N338 C334 1.367 . S
N338 C335 1.379 . S
H339 C342 0.980 . S
H340 C342 0.981 . S
H341 C342 0.981 . S
C342 C334 1.481 . S
C342 H339 0.980 . S
C342 H340 0.981 . S
C342 H341 0.981 . S
C343 C330 1.481 . S
C343 H344 0.980 . S
C343 H345 0.981 . S
C343 H346 0.981 . S
H344 C343 0.980 . S
H345 C343 0.981 . S
H346 C343 0.981 . S
O347 Zn323 2.066 . S
O347 C326 1.256 . S
O348 Zn320 2.053 . S
O348 C326 1.244 . S
C349 O327 1.259 . S
C349 O328 1.254 . S
O350 Zn320 2.066 . S
O350 C322 1.256 . S
O351 C322 1.244 . S
O351 Zn323 2.053 . S
Zn352 O353 2.055 . S
Zn352 O360 2.046 . S
Zn352 N368 2.036 . S
Zn352 O380 2.053 . S
Zn352 O382 2.066 . S
O353 Zn352 2.055 . S
O353 C356 1.259 . S
C354 O382 1.256 . S
C354 O383 1.244 . S
Zn355 O357 2.046 . S
Zn355 O359 2.055 . S
Zn355 N361 2.036 . S
Zn355 O379 2.066 . S
Zn355 O383 2.053 . S
C356 O353 1.259 . S
C356 O357 1.254 . S
O357 Zn355 2.046 . S
O357 C356 1.254 . S
C358 O379 1.256 . S
C358 O380 1.244 . S
O359 Zn355 2.055 . S
O359 C381 1.259 . S
O360 Zn352 2.046 . S
O360 C381 1.254 . S
N361 Zn355 2.036 . S
N361 C362 1.298 . S
N361 N364 1.398 . S
C362 N361 1.298 . S
C362 N365 1.367 . S
C362 C375 1.481 . S
C363 N364 1.299 1_545 S
C363 N365 1.379 1_545 S
N364 N361 1.398 . S
N364 C363 1.299 1_565 S
N365 C362 1.367 . S
N365 C363 1.379 1_565 S
C366 N368 1.298 . S
C366 N370 1.367 . S
C366 C374 1.481 . S
C367 N369 1.299 . S
C367 N370 1.379 . S
N368 Zn352 2.036 . S
N368 C366 1.298 . S
N368 N369 1.398 . S
N369 C367 1.299 . S
N369 N368 1.398 . S
N370 C366 1.367 . S
N370 C367 1.379 . S
H371 C374 0.980 . S
H372 C374 0.981 . S
H373 C374 0.981 . S
C374 C366 1.481 . S
C374 H371 0.980 . S
C374 H372 0.981 . S
C374 H373 0.981 . S
C375 C362 1.481 . S
C375 H376 0.980 . S
C375 H377 0.981 . S
C375 H378 0.981 . S
H376 C375 0.980 . S
H377 C375 0.981 . S
H378 C375 0.981 . S
O379 Zn355 2.066 . S
O379 C358 1.256 . S
O380 Zn352 2.053 . S
O380 C358 1.244 . S
C381 O359 1.259 . S
C381 O360 1.254 . S
O382 Zn352 2.066 . S
O382 C354 1.256 . S
O383 C354 1.244 . S
O383 Zn355 2.053 . S
Zn384 O385 2.055 . S
Zn384 O392 2.046 . S
Zn384 N400 2.036 . S
Zn384 O412 2.053 . S
Zn384 O414 2.066 . S
O385 Zn384 2.055 . S
O385 C388 1.259 . S
C386 O414 1.256 . S
C386 O415 1.244 . S
Zn387 O389 2.046 . S
Zn387 O391 2.055 . S
Zn387 N393 2.036 . S
Zn387 O411 2.066 . S
Zn387 O415 2.053 . S
C388 O385 1.259 . S
C388 O389 1.254 . S
O389 Zn387 2.046 . S
O389 C388 1.254 . S
C390 O411 1.256 . S
C390 O412 1.244 . S
O391 Zn387 2.055 . S
O391 C413 1.259 . S
O392 Zn384 2.046 . S
O392 C413 1.254 . S
N393 Zn387 2.036 . S
N393 C394 1.298 . S
N393 N396 1.398 . S
C394 N393 1.298 . S
C394 N397 1.367 . S
C394 C407 1.481 . S
C395 N396 1.299 . S
C395 N397 1.379 . S
N396 N393 1.398 . S
N396 C395 1.299 . S
N397 C394 1.367 . S
N397 C395 1.379 . S
C398 N400 1.298 . S
C398 N402 1.367 . S
C398 C406 1.481 . S
C399 N401 1.299 . S
C399 N402 1.379 . S
N400 Zn384 2.036 . S
N400 C398 1.298 . S
N400 N401 1.398 . S
N401 C399 1.299 . S
N401 N400 1.398 . S
N402 C398 1.367 . S
N402 C399 1.379 . S
H403 C406 0.980 . S
H404 C406 0.981 . S
H405 C406 0.981 . S
C406 C398 1.481 . S
C406 H403 0.980 . S
C406 H404 0.981 . S
C406 H405 0.981 . S
C407 C394 1.481 . S
C407 H408 0.980 . S
C407 H409 0.981 . S
C407 H410 0.981 . S
H408 C407 0.980 . S
H409 C407 0.981 . S
H410 C407 0.981 . S
O411 Zn387 2.066 . S
O411 C390 1.256 . S
O412 Zn384 2.053 . S
O412 C390 1.244 . S
C413 O391 1.259 . S
C413 O392 1.254 . S
O414 Zn384 2.066 . S
O414 C386 1.256 . S
O415 C386 1.244 . S
O415 Zn387 2.053 . S
Zn416 O417 2.055 . S
Zn416 O424 2.046 . S
Zn416 N432 2.036 . S
Zn416 O444 2.053 . S
Zn416 O446 2.066 . S
O417 Zn416 2.055 . S
O417 C420 1.259 . S
C418 O446 1.256 . S
C418 O447 1.244 . S
Zn419 O421 2.046 . S
Zn419 O423 2.055 . S
Zn419 N425 2.036 . S
Zn419 O443 2.066 . S
Zn419 O447 2.053 . S
C420 O417 1.259 . S
C420 O421 1.254 . S
O421 Zn419 2.046 . S
O421 C420 1.254 . S
C422 O443 1.256 . S
C422 O444 1.244 . S
O423 Zn419 2.055 . S
O423 C445 1.259 . S
O424 Zn416 2.046 . S
O424 C445 1.254 . S
N425 Zn419 2.036 . S
N425 C426 1.298 . S
N425 N428 1.398 . S
C426 N425 1.298 . S
C426 N429 1.367 . S
C426 C439 1.481 . S
C427 N428 1.299 . S
C427 N429 1.379 . S
N428 N425 1.398 . S
N428 C427 1.299 . S
N429 C426 1.367 . S
N429 C427 1.379 . S
C430 N432 1.298 . S
C430 N434 1.367 . S
C430 C438 1.481 . S
C431 N433 1.299 1_545 S
C431 N434 1.379 1_545 S
N432 Zn416 2.036 . S
N432 C430 1.298 . S
N432 N433 1.398 . S
N433 C431 1.299 1_565 S
N433 N432 1.398 . S
N434 C430 1.367 . S
N434 C431 1.379 1_565 S
H435 C438 0.980 . S
H436 C438 0.981 . S
H437 C438 0.981 . S
C438 C430 1.481 . S
C438 H435 0.980 . S
C438 H436 0.981 . S
C438 H437 0.981 . S
C439 C426 1.481 . S
C439 H440 0.980 . S
C439 H441 0.981 . S
C439 H442 0.981 . S
H440 C439 0.980 . S
H441 C439 0.981 . S
H442 C439 0.981 . S
O443 Zn419 2.066 . S
O443 C422 1.256 . S
O444 Zn416 2.053 . S
O444 C422 1.244 . S
C445 O423 1.259 . S
C445 O424 1.254 . S
O446 Zn416 2.066 . S
O446 C418 1.256 . S
O447 C418 1.244 . S
O447 Zn419 2.053 . S
Zn448 O449 2.055 . S
Zn448 O456 2.046 . S
Zn448 N464 2.036 . S
Zn448 O476 2.053 . S
Zn448 O478 2.066 . S
O449 Zn448 2.055 . S
O449 C452 1.259 . S
C450 O478 1.256 . S
C450 O479 1.244 . S
Zn451 O453 2.046 . S
Zn451 O455 2.055 . S
Zn451 N457 2.036 . S
Zn451 O475 2.066 . S
Zn451 O479 2.053 . S
C452 O449 1.259 . S
C452 O453 1.254 . S
O453 Zn451 2.046 . S
O453 C452 1.254 . S
C454 O475 1.256 . S
C454 O476 1.244 . S
O455 Zn451 2.055 . S
O455 C477 1.259 . S
O456 Zn448 2.046 . S
O456 C477 1.254 . S
N457 Zn451 2.036 . S
N457 C458 1.298 . S
N457 N460 1.398 . S
C458 N457 1.298 . S
C458 N461 1.367 . S
C458 C471 1.481 . S
C459 N460 1.299 . S
C459 N461 1.379 . S
N460 N457 1.398 . S
N460 C459 1.299 . S
N461 C458 1.367 . S
N461 C459 1.379 . S
C462 N464 1.298 . S
C462 N466 1.367 . S
C462 C470 1.481 . S
C463 N465 1.299 . S
C463 N466 1.379 . S
N464 Zn448 2.036 . S
N464 C462 1.298 . S
N464 N465 1.398 . S
N465 C463 1.299 . S
N465 N464 1.398 . S
N466 C462 1.367 . S
N466 C463 1.379 . S
H467 C470 0.980 . S
H468 C470 0.981 . S
H469 C470 0.981 . S
C470 C462 1.481 . S
C470 H467 0.980 . S
C470 H468 0.981 . S
C470 H469 0.981 . S
C471 C458 1.481 . S
C471 H472 0.980 . S
C471 H473 0.981 . S
C471 H474 0.981 . S
H472 C471 0.980 . S
H473 C471 0.981 . S
H474 C471 0.981 . S
O475 Zn451 2.066 . S
O475 C454 1.256 . S
O476 Zn448 2.053 . S
O476 C454 1.244 . S
C477 O455 1.259 . S
C477 O456 1.254 . S
O478 Zn448 2.066 . S
O478 C450 1.256 . S
O479 C450 1.244 . S
O479 Zn451 2.053 . S
Zn480 O481 2.055 . S
Zn480 O488 2.046 . S
Zn480 N496 2.036 . S
Zn480 O508 2.053 . S
Zn480 O510 2.066 . S
O481 Zn480 2.055 . S
O481 C484 1.259 . S
C482 O510 1.256 . S
C482 O511 1.244 . S
Zn483 O485 2.046 . S
Zn483 O487 2.055 . S
Zn483 N489 2.036 . S
Zn483 O507 2.066 . S
Zn483 O511 2.053 . S
C484 O481 1.259 . S
C484 O485 1.254 . S
O485 Zn483 2.046 . S
O485 C484 1.254 . S
C486 O507 1.256 . S
C486 O508 1.244 . S
O487 Zn483 2.055 . S
O487 C509 1.259 . S
O488 Zn480 2.046 . S
O488 C509 1.254 . S
N489 Zn483 2.036 . S
N489 C490 1.298 . S
N489 N492 1.398 . S
C490 N489 1.298 . S
C490 N493 1.367 . S
C490 C503 1.481 . S
C491 N492 1.299 1_565 S
C491 N493 1.379 1_565 S
N492 N489 1.398 . S
N492 C491 1.299 1_545 S
N493 C490 1.367 . S
N493 C491 1.379 1_545 S
C494 N496 1.298 . S
C494 N498 1.367 . S
C494 C502 1.481 . S
C495 N497 1.299 . S
C495 N498 1.379 . S
N496 Zn480 2.036 . S
N496 C494 1.298 . S
N496 N497 1.398 . S
N497 C495 1.299 . S
N497 N496 1.398 . S
N498 C494 1.367 . S
N498 C495 1.379 . S
H499 C502 0.980 . S
H500 C502 0.981 . S
H501 C502 0.981 . S
C502 C494 1.481 . S
C502 H499 0.980 . S
C502 H500 0.981 . S
C502 H501 0.981 . S
C503 C490 1.481 . S
C503 H504 0.980 . S
C503 H505 0.981 . S
C503 H506 0.981 . S
H504 C503 0.980 . S
H505 C503 0.981 . S
H506 C503 0.981 . S
O507 Zn483 2.066 . S
O507 C486 1.256 . S
O508 Zn480 2.053 . S
O508 C486 1.244 . S
C509 O487 1.259 . S
C509 O488 1.254 . S
O510 Zn480 2.066 . S
O510 C482 1.256 . S
O511 C482 1.244 . S
O511 Zn483 2.053 . S
C512 C513 1.349 . S
C512 C514 1.327 . S
C512 H537 0.950 . S
C513 C512 1.349 . S
C513 C529 1.349 . S
C514 C512 1.327 . S
C514 C533 1.429 . S
C514 H538 0.950 . S
C515 C532 1.574 . S
C515 C534 1.368 . S
C515 H539 0.949 . S
H516 C520 0.949 . S
C517 C518 1.349 . S
C517 C519 1.327 . S
C517 H540 0.950 . S
C518 C517 1.349 . S
C518 C530 1.349 . S
C519 C517 1.327 . S
C519 C535 1.429 . S
C519 H541 0.950 . S
C520 H516 0.949 . S
C520 C528 1.574 . S
C520 C536 1.368 . S
H521 C529 0.950 . S
H522 C527 0.950 . S
H523 C528 0.949 . S
H524 C530 0.950 . S
H525 C531 0.950 . S
H526 C532 0.949 . S
C527 H522 0.950 . S
C527 C529 1.327 . S
C527 C533 1.429 . S
C528 C520 1.574 . S
C528 H523 0.949 . S
C528 C534 1.368 . S
C529 C513 1.349 . S
C529 H521 0.950 . S
C529 C527 1.327 . S
C530 C518 1.349 . S
C530 H524 0.950 . S
C530 C531 1.327 . S
C531 H525 0.950 . S
C531 C530 1.327 . S
C531 C535 1.429 . S
C532 C515 1.574 . S
C532 H526 0.949 . S
C532 C536 1.368 . S
C533 C514 1.429 . S
C533 C527 1.429 . S
C533 C534 1.523 . S
C534 C515 1.368 . S
C534 C528 1.368 . S
C534 C533 1.523 . S
C535 C519 1.429 . S
C535 C531 1.429 . S
C535 C536 1.523 . S
C536 C520 1.368 . S
C536 C532 1.368 . S
C536 C535 1.523 . S
H537 C512 0.950 . S
H538 C514 0.950 . S
H539 C515 0.949 . S
H540 C517 0.950 . S
H541 C519 0.950 . S
C542 C543 1.349 . S
C542 C544 1.327 . S
C542 H567 0.950 . S
C543 C542 1.349 . S
C543 C559 1.349 . S
C544 C542 1.327 . S
C544 C563 1.429 . S
C544 H568 0.950 . S
C545 C562 1.574 . S
C545 C564 1.368 . S
C545 H569 0.949 . S
H546 C550 0.949 . S
C547 C548 1.349 . S
C547 C549 1.327 . S
C547 H570 0.950 . S
C548 C547 1.349 . S
C548 C560 1.349 . S
C549 C547 1.327 . S
C549 C565 1.429 . S
C549 H571 0.950 . S
C550 H546 0.949 . S
C550 C558 1.574 . S
C550 C566 1.368 . S
H551 C559 0.950 . S
H552 C557 0.950 . S
H553 C558 0.949 . S
H554 C560 0.950 . S
H555 C561 0.950 . S
H556 C562 0.949 . S
C557 H552 0.950 . S
C557 C559 1.327 . S
C557 C563 1.429 . S
C558 C550 1.574 . S
C558 H553 0.949 . S
C558 C564 1.368 . S
C559 C543 1.349 . S
C559 H551 0.950 . S
C559 C557 1.327 . S
C560 C548 1.349 . S
C560 H554 0.950 . S
C560 C561 1.327 . S
C561 H555 0.950 . S
C561 C560 1.327 . S
C561 C565 1.429 . S
C562 C545 1.574 . S
C562 H556 0.949 . S
C562 C566 1.368 . S
C563 C544 1.429 . S
C563 C557 1.429 . S
C563 C564 1.523 . S
C564 C545 1.368 . S
C564 C558 1.368 . S
C564 C563 1.523 . S
C565 C549 1.429 . S
C565 C561 1.429 . S
C565 C566 1.523 . S
C566 C550 1.368 . S
C566 C562 1.368 . S
C566 C565 1.523 . S
H567 C542 0.950 . S
H568 C544 0.950 . S
H569 C545 0.949 . S
H570 C547 0.950 . S
H571 C549 0.950 . S
C572 C573 1.349 . S
C572 C574 1.327 . S
C572 H597 0.950 . S
C573 C572 1.349 . S
C573 C589 1.349 . S
C574 C572 1.327 . S
C574 C593 1.429 . S
C574 H598 0.950 . S
C575 C592 1.574 1_455 S
C575 C594 1.368 . S
C575 H599 0.949 . S
H576 C580 0.949 . S
C577 C578 1.349 . S
C577 C579 1.327 . S
C577 H600 0.950 . S
C578 C577 1.349 . S
C578 C590 1.349 . S
C579 C577 1.327 . S
C579 C595 1.429 . S
C579 H601 0.950 . S
C580 H576 0.949 . S
C580 C588 1.574 1_655 S
C580 C596 1.368 . S
H581 C589 0.950 . S
H582 C587 0.950 . S
H583 C588 0.949 . S
H584 C590 0.950 . S
H585 C591 0.950 . S
H586 C592 0.949 . S
C587 H582 0.950 . S
C587 C589 1.327 . S
C587 C593 1.429 . S
C588 C580 1.574 1_455 S
C588 H583 0.949 . S
C588 C594 1.368 . S
C589 C573 1.349 . S
C589 H581 0.950 . S
C589 C587 1.327 . S
C590 C578 1.349 . S
C590 H584 0.950 . S
C590 C591 1.327 . S
C591 H585 0.950 . S
C591 C590 1.327 . S
C591 C595 1.429 . S
C592 C575 1.574 1_655 S
C592 H586 0.949 . S
C592 C596 1.368 . S
C593 C574 1.429 . S
C593 C587 1.429 . S
C593 C594 1.523 . S
C594 C575 1.368 . S
C594 C588 1.368 . S
C594 C593 1.523 . S
C595 C579 1.429 . S
C595 C591 1.429 . S
C595 C596 1.523 . S
C596 C580 1.368 . S
C596 C592 1.368 . S
C596 C595 1.523 . S
H597 C572 0.950 . S
H598 C574 0.950 . S
H599 C575 0.949 . S
H600 C577 0.950 . S
H601 C579 0.950 . S
C602 C603 1.349 . S
C602 C604 1.327 . S
C602 H627 0.950 . S
C603 C602 1.349 . S
C603 C619 1.349 . S
C604 C602 1.327 . S
C604 C623 1.429 . S
C604 H628 0.950 . S
C605 C622 1.574 . S
C605 C624 1.368 . S
C605 H629 0.949 . S
H606 C610 0.949 . S
C607 C608 1.349 . S
C607 C609 1.327 . S
C607 H630 0.950 . S
C608 C607 1.349 . S
C608 C620 1.349 . S
C609 C607 1.327 . S
C609 C625 1.429 . S
C609 H631 0.950 . S
C610 H606 0.949 . S
C610 C618 1.574 . S
C610 C626 1.368 . S
H611 C619 0.950 . S
H612 C617 0.950 . S
H613 C618 0.949 . S
H614 C620 0.950 . S
H615 C621 0.950 . S
H616 C622 0.949 . S
C617 H612 0.950 . S
C617 C619 1.327 . S
C617 C623 1.429 . S
C618 C610 1.574 . S
C618 H613 0.949 . S
C618 C624 1.368 1_655 S
C619 C603 1.349 . S
C619 H611 0.950 . S
C619 C617 1.327 . S
C620 C608 1.349 . S
C620 H614 0.950 . S
C620 C621 1.327 . S
C621 H615 0.950 . S
C621 C620 1.327 . S
C621 C625 1.429 . S
C622 C605 1.574 . S
C622 H616 0.949 . S
C622 C626 1.368 1_455 S
C623 C604 1.429 . S
C623 C617 1.429 . S
C623 C624 1.523 . S
C624 C605 1.368 . S
C624 C618 1.368 1_455 S
C624 C623 1.523 . S
C625 C609 1.429 . S
C625 C621 1.429 . S
C625 C626 1.523 . S
C626 C610 1.368 . S
C626 C622 1.368 1_655 S
C626 C625 1.523 . S
H627 C602 0.950 . S
H628 C604 0.950 . S
H629 C605 0.949 . S
H630 C607 0.950 . S
H631 C609 0.950 . S
C632 C633 1.349 . S
C632 C634 1.327 . S
C632 H657 0.950 . S
C633 C632 1.349 . S
C633 C649 1.349 . S
C634 C632 1.327 . S
C634 C653 1.429 . S
C634 H658 0.950 . S
C635 C652 1.574 . S
C635 C654 1.368 . S
C635 H659 0.949 . S
H636 C640 0.949 . S
C637 C638 1.349 . S
C637 C639 1.327 . S
C637 H660 0.950 . S
C638 C637 1.349 . S
C638 C650 1.349 . S
C639 C637 1.327 . S
C639 C655 1.429 . S
C639 H661 0.950 . S
C640 H636 0.949 . S
C640 C648 1.574 . S
C640 C656 1.368 . S
H641 C649 0.950 . S
H642 C647 0.950 . S
H643 C648 0.949 . S
H644 C650 0.950 . S
H645 C651 0.950 . S
H646 C652 0.949 . S
C647 H642 0.950 . S
C647 C649 1.327 . S
C647 C653 1.429 . S
C648 C640 1.574 . S
C648 H643 0.949 . S
C648 C654 1.368 . S
C649 C633 1.349 . S
C649 H641 0.950 . S
C649 C647 1.327 . S
C650 C638 1.349 . S
C650 H644 0.950 . S
C650 C651 1.327 . S
C651 H645 0.950 . S
C651 C650 1.327 . S
C651 C655 1.429 . S
C652 C635 1.574 . S
C652 H646 0.949 . S
C652 C656 1.368 . S
C653 C634 1.429 . S
C653 C647 1.429 . S
C653 C654 1.523 . S
C654 C635 1.368 . S
C654 C648 1.368 . S
C654 C653 1.523 . S
C655 C639 1.429 . S
C655 C651 1.429 . S
C655 C656 1.523 . S
C656 C640 1.368 . S
C656 C652 1.368 . S
C656 C655 1.523 . S
H657 C632 0.950 . S
H658 C634 0.950 . S
H659 C635 0.949 . S
H660 C637 0.950 . S
H661 C639 0.950 . S
C662 C663 1.349 . S
C662 C664 1.327 . S
C662 H687 0.950 . S
C663 C662 1.349 . S
C663 C679 1.349 . S
C664 C662 1.327 . S
C664 C683 1.429 . S
C664 H688 0.950 . S
C665 C682 1.574 . S
C665 C684 1.368 . S
C665 H689 0.949 . S
H666 C670 0.949 . S
C667 C668 1.349 . S
C667 C669 1.327 . S
C667 H690 0.950 . S
C668 C667 1.349 . S
C668 C680 1.349 . S
C669 C667 1.327 . S
C669 C685 1.429 . S
C669 H691 0.950 . S
C670 H666 0.949 . S
C670 C678 1.574 . S
C670 C686 1.368 . S
H671 C679 0.950 . S
H672 C677 0.950 . S
H673 C678 0.949 . S
H674 C680 0.950 . S
H675 C681 0.950 . S
H676 C682 0.949 . S
C677 H672 0.950 . S
C677 C679 1.327 . S
C677 C683 1.429 . S
C678 C670 1.574 . S
C678 H673 0.949 . S
C678 C684 1.368 . S
C679 C663 1.349 . S
C679 H671 0.950 . S
C679 C677 1.327 . S
C680 C668 1.349 . S
C680 H674 0.950 . S
C680 C681 1.327 . S
C681 H675 0.950 . S
C681 C680 1.327 . S
C681 C685 1.429 . S
C682 C665 1.574 . S
C682 H676 0.949 . S
C682 C686 1.368 . S
C683 C664 1.429 . S
C683 C677 1.429 . S
C683 C684 1.523 . S
C684 C665 1.368 . S
C684 C678 1.368 . S
C684 C683 1.523 . S
C685 C669 1.429 . S
C685 C681 1.429 . S
C685 C686 1.523 . S
C686 C670 1.368 . S
C686 C682 1.368 . S
C686 C685 1.523 . S
H687 C662 0.950 . S
H688 C664 0.950 . S
H689 C665 0.949 . S
H690 C667 0.950 . S
H691 C669 0.950 . S
C692 C693 1.349 . S
C692 C694 1.327 . S
C692 H717 0.950 . S
C693 C692 1.349 . S
C693 C709 1.349 . S
C694 C692 1.327 . S
C694 C713 1.429 . S
C694 H718 0.950 . S
C695 C712 1.574 1_455 S
C695 C714 1.368 . S
C695 H719 0.949 . S
H696 C700 0.949 . S
C697 C698 1.349 . S
C697 C699 1.327 . S
C697 H720 0.950 . S
C698 C697 1.349 . S
C698 C710 1.349 . S
C699 C697 1.327 . S
C699 C715 1.429 . S
C699 H721 0.950 . S
C700 H696 0.949 . S
C700 C708 1.574 1_655 S
C700 C716 1.368 . S
H701 C709 0.950 . S
H702 C707 0.950 . S
H703 C708 0.949 . S
H704 C710 0.950 . S
H705 C711 0.950 . S
H706 C712 0.949 . S
C707 H702 0.950 . S
C707 C709 1.327 . S
C707 C713 1.429 . S
C708 C700 1.574 1_455 S
C708 H703 0.949 . S
C708 C714 1.368 . S
C709 C693 1.349 . S
C709 H701 0.950 . S
C709 C707 1.327 . S
C710 C698 1.349 . S
C710 H704 0.950 . S
C710 C711 1.327 . S
C711 H705 0.950 . S
C711 C710 1.327 . S
C711 C715 1.429 . S
C712 C695 1.574 1_655 S
C712 H706 0.949 . S
C712 C716 1.368 . S
C713 C694 1.429 . S
C713 C707 1.429 . S
C713 C714 1.523 . S
C714 C695 1.368 . S
C714 C708 1.368 . S
C714 C713 1.523 . S
C715 C699 1.429 . S
C715 C711 1.429 . S
C715 C716 1.523 . S
C716 C700 1.368 . S
C716 C712 1.368 . S
C716 C715 1.523 . S
H717 C692 0.950 . S
H718 C694 0.950 . S
H719 C695 0.949 . S
H720 C697 0.950 . S
H721 C699 0.950 . S
C722 C723 1.349 . S
C722 C724 1.327 . S
C722 H747 0.950 . S
C723 C722 1.349 . S
C723 C739 1.349 . S
C724 C722 1.327 . S
C724 C743 1.429 . S
C724 H748 0.950 . S
C725 C742 1.574 . S
C725 C744 1.368 . S
C725 H749 0.949 . S
H726 C730 0.949 . S
C727 C728 1.349 . S
C727 C729 1.327 . S
C727 H750 0.950 . S
C728 C727 1.349 . S
C728 C740 1.349 . S
C729 C727 1.327 . S
C729 C745 1.429 . S
C729 H751 0.950 . S
C730 H726 0.949 . S
C730 C738 1.574 . S
C730 C746 1.368 . S
H731 C739 0.950 . S
H732 C737 0.950 . S
H733 C738 0.949 . S
H734 C740 0.950 . S
H735 C741 0.950 . S
H736 C742 0.949 . S
C737 H732 0.950 . S
C737 C739 1.327 . S
C737 C743 1.429 . S
C738 C730 1.574 . S
C738 H733 0.949 . S
C738 C744 1.368 1_655 S
C739 C723 1.349 . S
C739 H731 0.950 . S
C739 C737 1.327 . S
C740 C728 1.349 . S
C740 H734 0.950 . S
C740 C741 1.327 . S
C741 H735 0.950 . S
C741 C740 1.327 . S
C741 C745 1.429 . S
C742 C725 1.574 . S
C742 H736 0.949 . S
C742 C746 1.368 1_455 S
C743 C724 1.429 . S
C743 C737 1.429 . S
C743 C744 1.523 . S
C744 C725 1.368 . S
C744 C738 1.368 1_455 S
C744 C743 1.523 . S
C745 C729 1.429 . S
C745 C741 1.429 . S
C745 C746 1.523 . S
C746 C730 1.368 . S
C746 C742 1.368 1_655 S
C746 C745 1.523 . S
H747 C722 0.950 . S
H748 C724 0.950 . S
H749 C725 0.949 . S
H750 C727 0.950 . S
H751 C729 0.950 . S
C752 C753 1.349 . S
C752 C754 1.327 . S
C752 H777 0.950 . S
C753 C752 1.349 . S
C753 C769 1.349 . S
C754 C752 1.327 . S
C754 C773 1.429 . S
C754 H778 0.950 1_545 S
C755 C772 1.574 1_554 S
C755 C774 1.368 . S
C755 H779 0.949 . S
H756 C760 0.949 . S
C757 C758 1.349 . S
C757 C759 1.327 . S
C757 H780 0.950 . S
C758 C757 1.349 . S
C758 C770 1.349 . S
C759 C757 1.327 . S
C759 C775 1.429 . S
C759 H781 0.950 1_565 S
C760 H756 0.949 . S
C760 C768 1.574 1_556 S
C760 C776 1.368 . S
H761 C769 0.950 . S
H762 C767 0.950 . S
H763 C768 0.949 . S
H764 C770 0.950 . S
H765 C771 0.950 . S
H766 C772 0.949 . S
C767 H762 0.950 . S
C767 C769 1.327 . S
C767 C773 1.429 . S
C768 C760 1.574 1_554 S
C768 H763 0.949 . S
C768 C774 1.368 1_565 S
C769 C753 1.349 . S
C769 H761 0.950 . S
C769 C767 1.327 . S
C770 C758 1.349 . S
C770 H764 0.950 . S
C770 C771 1.327 . S
C771 H765 0.950 . S
C771 C770 1.327 . S
C771 C775 1.429 . S
C772 C755 1.574 1_556 S
C772 H766 0.949 . S
C772 C776 1.368 1_545 S
C773 C754 1.429 . S
C773 C767 1.429 . S
C773 C774 1.523 . S
C774 C755 1.368 . S
C774 C768 1.368 1_545 S
C774 C773 1.523 . S
C775 C759 1.429 . S
C775 C771 1.429 . S
C775 C776 1.523 . S
C776 C760 1.368 . S
C776 C772 1.368 1_565 S
C776 C775 1.523 . S
H777 C752 0.950 . S
H778 C754 0.950 1_565 S
H779 C755 0.949 . S
H780 C757 0.950 . S
H781 C759 0.950 1_545 S
C782 C783 1.349 . S
C782 C784 1.327 . S
C782 H807 0.950 . S
C783 C782 1.349 . S
C783 C799 1.349 . S
C784 C782 1.327 . S
C784 C803 1.429 . S
C784 H808 0.950 . S
C785 C802 1.574 . S
C785 C804 1.368 . S
C785 H809 0.949 . S
H786 C790 0.949 . S
C787 C788 1.349 . S
C787 C789 1.327 . S
C787 H810 0.950 . S
C788 C787 1.349 . S
C788 C800 1.349 . S
C789 C787 1.327 . S
C789 C805 1.429 . S
C789 H811 0.950 . S
C790 H786 0.949 . S
C790 C798 1.574 . S
C790 C806 1.368 . S
H791 C799 0.950 . S
H792 C797 0.950 . S
H793 C798 0.949 . S
H794 C800 0.950 . S
H795 C801 0.950 . S
H796 C802 0.949 . S
C797 H792 0.950 . S
C797 C799 1.327 . S
C797 C803 1.429 . S
C798 C790 1.574 . S
C798 H793 0.949 . S
C798 C804 1.368 . S
C799 C783 1.349 . S
C799 H791 0.950 . S
C799 C797 1.327 . S
C800 C788 1.349 . S
C800 H794 0.950 . S
C800 C801 1.327 . S
C801 H795 0.950 . S
C801 C800 1.327 . S
C801 C805 1.429 . S
C802 C785 1.574 . S
C802 H796 0.949 . S
C802 C806 1.368 . S
C803 C784 1.429 . S
C803 C797 1.429 . S
C803 C804 1.523 . S
C804 C785 1.368 . S
C804 C798 1.368 . S
C804 C803 1.523 . S
C805 C789 1.429 . S
C805 C801 1.429 . S
C805 C806 1.523 . S
C806 C790 1.368 . S
C806 C802 1.368 . S
C806 C805 1.523 . S
H807 C782 0.950 . S
H808 C784 0.950 . S
H809 C785 0.949 . S
H810 C787 0.950 . S
H811 C789 0.950 . S
C812 C813 1.349 . S
C812 C814 1.327 . S
C812 H837 0.950 . S
C813 C812 1.349 . S
C813 C829 1.349 . S
C814 C812 1.327 . S
C814 C833 1.429 . S
C814 H838 0.950 . S
C815 C832 1.582 . S
C815 C834 1.368 1_655 S
C815 H839 0.949 . S
H816 C820 0.949 . S
C817 C818 1.349 . S
C817 C819 1.327 . S
C817 H840 0.950 . S
C818 C817 1.349 . S
C818 C830 1.349 . S
C819 C817 1.327 . S
C819 C835 1.429 . S
C819 H841 0.950 . S
C820 H816 0.949 . S
C820 C828 1.582 . S
C820 C836 1.368 1_455 S
H821 C829 0.950 . S
H822 C827 0.950 . S
H823 C828 0.949 . S
H824 C830 0.950 . S
H825 C831 0.950 . S
H826 C832 0.949 . S
C827 H822 0.950 . S
C827 C829 1.327 . S
C827 C833 1.429 . S
C828 C820 1.582 . S
C828 H823 0.949 . S
C828 C834 1.360 1_545 S
C829 C813 1.349 . S
C829 H821 0.950 . S
C829 C827 1.327 . S
C830 C818 1.349 . S
C830 H824 0.950 . S
C830 C831 1.327 . S
C831 H825 0.950 . S
C831 C830 1.327 . S
C831 C835 1.429 . S
C832 C815 1.582 . S
C832 H826 0.949 . S
C832 C836 1.360 1_565 S
C833 C814 1.429 . S
C833 C827 1.429 . S
C833 C834 1.523 . S
C834 C815 1.368 1_455 S
C834 C828 1.360 1_565 S
C834 C833 1.523 . S
C835 C819 1.429 . S
C835 C831 1.429 . S
C835 C836 1.523 . S
C836 C820 1.368 1_655 S
C836 C832 1.360 1_545 S
C836 C835 1.523 . S
H837 C812 0.950 . S
H838 C814 0.950 . S
H839 C815 0.949 . S
H840 C817 0.950 . S
H841 C819 0.950 . S
C842 C843 1.349 . S
C842 C844 1.327 . S
C842 H867 0.950 . S
C843 C842 1.349 . S
C843 C859 1.349 . S
C844 C842 1.327 . S
C844 C863 1.429 . S
C844 H868 0.950 . S
C845 C862 1.574 . S
C845 C864 1.368 . S
C845 H869 0.949 . S
H846 C850 0.949 . S
C847 C848 1.349 . S
C847 C849 1.327 . S
C847 H870 0.950 . S
C848 C847 1.349 . S
C848 C860 1.349 . S
C849 C847 1.327 . S
C849 C865 1.429 . S
C849 H871 0.950 . S
C850 H846 0.949 . S
C850 C858 1.574 . S
C850 C866 1.368 . S
H851 C859 0.950 . S
H852 C857 0.950 . S
H853 C858 0.949 . S
H854 C860 0.950 . S
H855 C861 0.950 . S
H856 C862 0.949 . S
C857 H852 0.950 . S
C857 C859 1.327 . S
C857 C863 1.429 . S
C858 C850 1.574 . S
C858 H853 0.949 . S
C858 C864 1.368 . S
C859 C843 1.349 . S
C859 H851 0.950 . S
C859 C857 1.327 . S
C860 C848 1.349 . S
C860 H854 0.950 . S
C860 C861 1.327 . S
C861 H855 0.950 . S
C861 C860 1.327 . S
C861 C865 1.429 . S
C862 C845 1.574 . S
C862 H856 0.949 . S
C862 C866 1.368 . S
C863 C844 1.429 . S
C863 C857 1.429 . S
C863 C864 1.523 . S
C864 C845 1.368 . S
C864 C858 1.368 . S
C864 C863 1.523 . S
C865 C849 1.429 . S
C865 C861 1.429 . S
C865 C866 1.523 . S
C866 C850 1.368 . S
C866 C862 1.368 . S
C866 C865 1.523 . S
H867 C842 0.950 . S
H868 C844 0.950 . S
H869 C845 0.949 . S
H870 C847 0.950 . S
H871 C849 0.950 . S
C872 C873 1.349 . S
C872 C874 1.327 . S
C872 H897 0.950 . S
C873 C872 1.349 . S
C873 C889 1.349 . S
C874 C872 1.327 . S
C874 C893 1.429 . S
C874 H898 0.950 . S
C875 C892 1.574 . S
C875 C894 1.368 . S
C875 H899 0.949 . S
H876 C880 0.949 . S
C877 C878 1.349 . S
C877 C879 1.327 . S
C877 H900 0.950 . S
C878 C877 1.349 . S
C878 C890 1.349 . S
C879 C877 1.327 . S
C879 C895 1.429 . S
C879 H901 0.950 . S
C880 H876 0.949 . S
C880 C888 1.574 . S
C880 C896 1.368 . S
H881 C889 0.950 . S
H882 C887 0.950 . S
H883 C888 0.949 . S
H884 C890 0.950 . S
H885 C891 0.950 . S
H886 C892 0.949 . S
C887 H882 0.950 . S
C887 C889 1.327 . S
C887 C893 1.429 . S
C888 C880 1.574 . S
C888 H883 0.949 . S
C888 C894 1.368 . S
C889 C873 1.349 . S
C889 H881 0.950 . S
C889 C887 1.327 . S
C890 C878 1.349 . S
C890 H884 0.950 . S
C890 C891 1.327 . S
C891 H885 0.950 . S
C891 C890 1.327 . S
C891 C895 1.429 . S
C892 C875 1.574 . S
C892 H886 0.949 . S
C892 C896 1.368 . S
C893 C874 1.429 . S
C893 C887 1.429 . S
C893 C894 1.523 . S
C894 C875 1.368 . S
C894 C888 1.368 . S
C894 C893 1.523 . S
C895 C879 1.429 . S
C895 C891 1.429 . S
C895 C896 1.523 . S
C896 C880 1.368 . S
C896 C892 1.368 . S
C896 C895 1.523 . S
H897 C872 0.950 . S
H898 C874 0.950 . S
H899 C875 0.949 . S
H900 C877 0.950 . S
H901 C879 0.950 . S
C902 C903 1.349 . S
C902 C904 1.327 . S
C902 H927 0.950 . S
C903 C902 1.349 . S
C903 C919 1.349 . S
C904 C902 1.327 . S
C904 C923 1.429 . S
C904 H928 0.950 . S
C905 C922 1.574 . S
C905 C924 1.368 . S
C905 H929 0.949 . S
H906 C910 0.949 . S
C907 C908 1.349 . S
C907 C909 1.327 . S
C907 H930 0.950 . S
C908 C907 1.349 . S
C908 C920 1.349 . S
C909 C907 1.327 . S
C909 C925 1.429 . S
C909 H931 0.950 . S
C910 H906 0.949 . S
C910 C918 1.574 . S
C910 C926 1.368 . S
H911 C919 0.950 . S
H912 C917 0.950 . S
H913 C918 0.949 . S
H914 C920 0.950 . S
H915 C921 0.950 . S
H916 C922 0.949 . S
C917 H912 0.950 . S
C917 C919 1.327 . S
C917 C923 1.429 . S
C918 C910 1.574 . S
C918 H913 0.949 . S
C918 C924 1.368 . S
C919 C903 1.349 . S
C919 H911 0.950 . S
C919 C917 1.327 . S
C920 C908 1.349 . S
C920 H914 0.950 . S
C920 C921 1.327 . S
C921 H915 0.950 . S
C921 C920 1.327 . S
C921 C925 1.429 . S
C922 C905 1.574 . S
C922 H916 0.949 . S
C922 C926 1.368 . S
C923 C904 1.429 . S
C923 C917 1.429 . S
C923 C924 1.523 . S
C924 C905 1.368 . S
C924 C918 1.368 . S
C924 C923 1.523 . S
C925 C909 1.429 . S
C925 C921 1.429 . S
C925 C926 1.523 . S
C926 C910 1.368 . S
C926 C922 1.368 . S
C926 C925 1.523 . S
H927 C902 0.950 . S
H928 C904 0.950 . S
H929 C905 0.949 . S
H930 C907 0.950 . S
H931 C909 0.950 . S
C932 C933 1.349 . S
C932 C934 1.327 . S
C932 H957 0.950 . S
C933 C932 1.349 . S
C933 C949 1.349 . S
C934 C932 1.327 . S
C934 C953 1.429 . S
C934 H958 0.950 . S
C935 C952 1.574 1_455 S
C935 C954 1.368 . S
C935 H959 0.949 . S
H936 C940 0.949 . S
C937 C938 1.349 . S
C937 C939 1.327 . S
C937 H960 0.950 . S
C938 C937 1.349 . S
C938 C950 1.349 . S
C939 C937 1.327 . S
C939 C955 1.429 . S
C939 H961 0.950 . S
C940 H936 0.949 . S
C940 C948 1.574 1_655 S
C940 C956 1.368 . S
H941 C949 0.950 . S
H942 C947 0.950 . S
H943 C948 0.949 . S
H944 C950 0.950 . S
H945 C951 0.950 . S
H946 C952 0.949 . S
C947 H942 0.950 . S
C947 C949 1.327 . S
C947 C953 1.429 . S
C948 C940 1.574 1_455 S
C948 H943 0.949 . S
C948 C954 1.368 . S
C949 C933 1.349 . S
C949 H941 0.950 . S
C949 C947 1.327 . S
C950 C938 1.349 . S
C950 H944 0.950 . S
C950 C951 1.327 . S
C951 H945 0.950 . S
C951 C950 1.327 . S
C951 C955 1.429 . S
C952 C935 1.574 1_655 S
C952 H946 0.949 . S
C952 C956 1.368 . S
C953 C934 1.429 . S
C953 C947 1.429 . S
C953 C954 1.523 . S
C954 C935 1.368 . S
C954 C948 1.368 . S
C954 C953 1.523 . S
C955 C939 1.429 . S
C955 C951 1.429 . S
C955 C956 1.523 . S
C956 C940 1.368 . S
C956 C952 1.368 . S
C956 C955 1.523 . S
H957 C932 0.950 . S
H958 C934 0.950 . S
H959 C935 0.949 . S
H960 C937 0.950 . S
H961 C939 0.950 . S
C962 C963 1.349 . S
C962 C964 1.327 . S
C962 H987 0.950 . S
C963 C962 1.349 . S
C963 C979 1.349 . S
C964 C962 1.327 . S
C964 C983 1.429 . S
C964 H988 0.950 . S
C965 C982 1.574 . S
C965 C984 1.368 1_556 S
C965 H989 0.949 . S
H966 C970 0.949 . S
C967 C968 1.349 . S
C967 C969 1.327 . S
C967 H990 0.950 . S
C968 C967 1.349 . S
C968 C980 1.349 . S
C969 C967 1.327 . S
C969 C985 1.429 . S
C969 H991 0.950 . S
C970 H966 0.949 . S
C970 C978 1.574 . S
C970 C986 1.368 1_554 S
H971 C979 0.950 . S
H972 C977 0.950 . S
H973 C978 0.949 . S
H974 C980 0.950 . S
H975 C981 0.950 . S
H976 C982 0.949 . S
C977 H972 0.950 . S
C977 C979 1.327 . S
C977 C983 1.429 . S
C978 C970 1.574 . S
C978 H973 0.949 . S
C978 C984 1.368 . S
C979 C963 1.349 . S
C979 H971 0.950 . S
C979 C977 1.327 . S
C980 C968 1.349 . S
C980 H974 0.950 . S
C980 C981 1.327 . S
C981 H975 0.950 . S
C981 C980 1.327 . S
C981 C985 1.429 . S
C982 C965 1.574 . S
C982 H976 0.949 . S
C982 C986 1.368 . S
C983 C964 1.429 . S
C983 C977 1.429 . S
C983 C984 1.523 . S
C984 C965 1.368 1_554 S
C984 C978 1.368 . S
C984 C983 1.523 . S
C985 C969 1.429 . S
C985 C981 1.429 . S
C985 C986 1.523 . S
C986 C970 1.368 1_556 S
C986 C982 1.368 . S
C986 C985 1.523 . S
H987 C962 0.950 . S
H988 C964 0.950 . S
H989 C965 0.949 . S
H990 C967 0.950 . S
H991 C969 0.950 . S
C992 C993 1.349 . S
C992 C994 1.327 . S
C992 H1017 0.950 . S
C993 C992 1.349 . S
C993 C1009 1.349 . S
C994 C992 1.327 . S
C994 C1013 1.429 . S
C994 H1018 0.950 . S
C995 C1012 1.574 . S
C995 C1014 1.368 . S
C995 H1019 0.949 . S
H996 C1000 0.949 . S
C997 C998 1.349 . S
C997 C999 1.327 . S
C997 H1020 0.950 . S
C998 C997 1.349 . S
C998 C1010 1.349 . S
C999 C997 1.327 . S
C999 C1015 1.429 . S
C999 H1021 0.950 . S
C1000 H996 0.949 . S
C1000 C1008 1.574 . S
C1000 C1016 1.368 . S
H1001 C1009 0.950 . S
H1002 C1007 0.950 . S
H1003 C1008 0.949 . S
H1004 C1010 0.950 . S
H1005 C1011 0.950 . S
H1006 C1012 0.949 . S
C1007 H1002 0.950 . S
C1007 C1009 1.327 . S
C1007 C1013 1.429 . S
C1008 C1000 1.574 . S
C1008 H1003 0.949 . S
C1008 C1014 1.368 . S
C1009 C993 1.349 . S
C1009 H1001 0.950 . S
C1009 C1007 1.327 . S
C1010 C998 1.349 . S
C1010 H1004 0.950 . S
C1010 C1011 1.327 . S
C1011 H1005 0.950 . S
C1011 C1010 1.327 . S
C1011 C1015 1.429 . S
C1012 C995 1.574 . S
C1012 H1006 0.949 . S
C1012 C1016 1.368 . S
C1013 C994 1.429 . S
C1013 C1007 1.429 . S
C1013 C1014 1.523 . S
C1014 C995 1.368 . S
C1014 C1008 1.368 . S
C1014 C1013 1.523 . S
C1015 C999 1.429 . S
C1015 C1011 1.429 . S
C1015 C1016 1.523 . S
C1016 C1000 1.368 . S
C1016 C1012 1.368 . S
C1016 C1015 1.523 . S
H1017 C992 0.950 . S
H1018 C994 0.950 . S
H1019 C995 0.949 . S
H1020 C997 0.950 . S
H1021 C999 0.950 . S
C1022 C1023 1.349 . S
C1022 C1024 1.327 . S
C1022 H1047 0.950 . S
C1023 C1022 1.349 . S
C1023 C1039 1.349 . S
C1024 C1022 1.327 . S
C1024 C1043 1.429 . S
C1024 H1048 0.950 . S
C1025 C1042 1.574 . S
C1025 C1044 1.368 . S
C1025 H1049 0.949 . S
H1026 C1030 0.949 . S
C1027 C1028 1.349 . S
C1027 C1029 1.327 . S
C1027 H1050 0.950 . S
C1028 C1027 1.349 . S
C1028 C1040 1.349 . S
C1029 C1027 1.327 . S
C1029 C1045 1.429 . S
C1029 H1051 0.950 . S
C1030 H1026 0.949 . S
C1030 C1038 1.574 . S
C1030 C1046 1.368 . S
H1031 C1039 0.950 . S
H1032 C1037 0.950 . S
H1033 C1038 0.949 . S
H1034 C1040 0.950 . S
H1035 C1041 0.950 . S
H1036 C1042 0.949 . S
C1037 H1032 0.950 . S
C1037 C1039 1.327 . S
C1037 C1043 1.429 . S
C1038 C1030 1.574 . S
C1038 H1033 0.949 . S
C1038 C1044 1.368 . S
C1039 C1023 1.349 . S
C1039 H1031 0.950 . S
C1039 C1037 1.327 . S
C1040 C1028 1.349 . S
C1040 H1034 0.950 . S
C1040 C1041 1.327 . S
C1041 H1035 0.950 . S
C1041 C1040 1.327 . S
C1041 C1045 1.429 . S
C1042 C1025 1.574 . S
C1042 H1036 0.949 . S
C1042 C1046 1.368 . S
C1043 C1024 1.429 . S
C1043 C1037 1.429 . S
C1043 C1044 1.523 . S
C1044 C1025 1.368 . S
C1044 C1038 1.368 . S
C1044 C1043 1.523 . S
C1045 C1029 1.429 . S
C1045 C1041 1.429 . S
C1045 C1046 1.523 . S
C1046 C1030 1.368 . S
C1046 C1042 1.368 . S
C1046 C1045 1.523 . S
H1047 C1022 0.950 . S
H1048 C1024 0.950 . S
H1049 C1025 0.949 . S
H1050 C1027 0.950 . S
H1051 C1029 0.950 . S
C1052 C1053 1.349 . S
C1052 C1054 1.327 . S
C1052 H1077 0.950 . S
C1053 C1052 1.349 . S
C1053 C1069 1.349 . S
C1054 C1052 1.327 . S
C1054 C1073 1.429 . S
C1054 H1078 0.950 . S
C1055 C1072 1.574 . S
C1055 C1074 1.368 . S
C1055 H1079 0.949 . S
H1056 C1060 0.949 . S
C1057 C1058 1.349 . S
C1057 C1059 1.327 . S
C1057 H1080 0.950 . S
C1058 C1057 1.349 . S
C1058 C1070 1.349 . S
C1059 C1057 1.327 . S
C1059 C1075 1.429 . S
C1059 H1081 0.950 . S
C1060 H1056 0.949 . S
C1060 C1068 1.574 . S
C1060 C1076 1.368 . S
H1061 C1069 0.950 . S
H1062 C1067 0.950 . S
H1063 C1068 0.949 . S
H1064 C1070 0.950 . S
H1065 C1071 0.950 . S
H1066 C1072 0.949 . S
C1067 H1062 0.950 . S
C1067 C1069 1.327 . S
C1067 C1073 1.429 . S
C1068 C1060 1.574 . S
C1068 H1063 0.949 . S
C1068 C1074 1.368 . S
C1069 C1053 1.349 . S
C1069 H1061 0.950 . S
C1069 C1067 1.327 . S
C1070 C1058 1.349 . S
C1070 H1064 0.950 . S
C1070 C1071 1.327 . S
C1071 H1065 0.950 . S
C1071 C1070 1.327 . S
C1071 C1075 1.429 . S
C1072 C1055 1.574 . S
C1072 H1066 0.949 . S
C1072 C1076 1.368 . S
C1073 C1054 1.429 . S
C1073 C1067 1.429 . S
C1073 C1074 1.523 . S
C1074 C1055 1.368 . S
C1074 C1068 1.368 . S
C1074 C1073 1.523 . S
C1075 C1059 1.429 . S
C1075 C1071 1.429 . S
C1075 C1076 1.523 . S
C1076 C1060 1.368 . S
C1076 C1072 1.368 . S
C1076 C1075 1.523 . S
H1077 C1052 0.950 . S
H1078 C1054 0.950 . S
H1079 C1055 0.949 . S
H1080 C1057 0.950 . S
H1081 C1059 0.950 . S
C1082 C1083 1.349 . S
C1082 C1084 1.327 1_655 S
C1082 H1107 0.950 . S
C1083 C1082 1.349 . S
C1083 C1099 1.349 1_655 S
C1084 C1082 1.327 1_455 S
C1084 C1103 1.429 . S
C1084 H1108 0.950 . S
C1085 C1102 1.574 . S
C1085 C1104 1.368 . S
C1085 H1109 0.949 . S
H1086 C1090 0.949 . S
C1087 C1088 1.349 . S
C1087 C1089 1.327 . S
C1087 H1110 0.950 . S
C1088 C1087 1.349 . S
C1088 C1100 1.349 . S
C1089 C1087 1.327 . S
C1089 C1105 1.429 . S
C1089 H1111 0.950 . S
C1090 H1086 0.949 . S
C1090 C1098 1.574 . S
C1090 C1106 1.368 . S
H1091 C1099 0.950 . S
H1092 C1097 0.950 . S
H1093 C1098 0.949 . S
H1094 C1100 0.950 . S
H1095 C1101 0.950 . S
H1096 C1102 0.949 . S
C1097 H1092 0.950 . S
C1097 C1099 1.327 . S
C1097 C1103 1.429 . S
C1098 C1090 1.574 . S
C1098 H1093 0.949 . S
C1098 C1104 1.368 . S
C1099 C1083 1.349 1_455 S
C1099 H1091 0.950 . S
C1099 C1097 1.327 . S
C1100 C1088 1.349 . S
C1100 H1094 0.950 . S
C1100 C1101 1.327 . S
C1101 H1095 0.950 . S
C1101 C1100 1.327 . S
C1101 C1105 1.429 . S
C1102 C1085 1.574 . S
C1102 H1096 0.949 . S
C1102 C1106 1.368 . S
C1103 C1084 1.429 . S
C1103 C1097 1.429 . S
C1103 C1104 1.523 . S
C1104 C1085 1.368 . S
C1104 C1098 1.368 . S
C1104 C1103 1.523 . S
C1105 C1089 1.429 . S
C1105 C1101 1.429 . S
C1105 C1106 1.523 . S
C1106 C1090 1.368 . S
C1106 C1102 1.368 . S
C1106 C1105 1.523 . S
H1107 C1082 0.950 . S
H1108 C1084 0.950 . S
H1109 C1085 0.949 . S
H1110 C1087 0.950 . S
H1111 C1089 0.950 . S
C1112 C1113 1.349 . S
C1112 C1114 1.327 . S
C1112 H1137 0.950 . S
C1113 C1112 1.349 . S
C1113 C1129 1.349 . S
C1114 C1112 1.327 . S
C1114 C1133 1.429 . S
C1114 H1138 0.950 . S
C1115 C1132 1.574 . S
C1115 C1134 1.368 . S
C1115 H1139 0.949 . S
H1116 C1120 0.949 . S
C1117 C1118 1.349 . S
C1117 C1119 1.327 . S
C1117 H1140 0.950 . S
C1118 C1117 1.349 . S
C1118 C1130 1.349 . S
C1119 C1117 1.327 . S
C1119 C1135 1.429 . S
C1119 H1141 0.950 . S
C1120 H1116 0.949 . S
C1120 C1128 1.574 . S
C1120 C1136 1.368 . S
H1121 C1129 0.950 . S
H1122 C1127 0.950 . S
H1123 C1128 0.949 . S
H1124 C1130 0.950 . S
H1125 C1131 0.950 . S
H1126 C1132 0.949 . S
C1127 H1122 0.950 . S
C1127 C1129 1.327 . S
C1127 C1133 1.429 . S
C1128 C1120 1.574 . S
C1128 H1123 0.949 . S
C1128 C1134 1.368 . S
C1129 C1113 1.349 . S
C1129 H1121 0.950 . S
C1129 C1127 1.327 . S
C1130 C1118 1.349 . S
C1130 H1124 0.950 . S
C1130 C1131 1.327 . S
C1131 H1125 0.950 . S
C1131 C1130 1.327 . S
C1131 C1135 1.429 . S
C1132 C1115 1.574 . S
C1132 H1126 0.949 . S
C1132 C1136 1.368 . S
C1133 C1114 1.429 . S
C1133 C1127 1.429 . S
C1133 C1134 1.523 . S
C1134 C1115 1.368 . S
C1134 C1128 1.368 . S
C1134 C1133 1.523 . S
C1135 C1119 1.429 . S
C1135 C1131 1.429 . S
C1135 C1136 1.523 . S
C1136 C1120 1.368 . S
C1136 C1132 1.368 . S
C1136 C1135 1.523 . S
H1137 C1112 0.950 . S
H1138 C1114 0.950 . S
H1139 C1115 0.949 . S
H1140 C1117 0.950 . S
H1141 C1119 0.950 . S
C1142 C1143 1.349 . S
C1142 C1144 1.327 . S
C1142 H1167 0.950 . S
C1143 C1142 1.349 . S
C1143 C1159 1.349 . S
C1144 C1142 1.327 . S
C1144 C1163 1.429 . S
C1144 H1168 0.950 . S
C1145 C1162 1.574 . S
C1145 C1164 1.368 . S
C1145 H1169 0.949 . S
H1146 C1150 0.949 . S
C1147 C1148 1.349 . S
C1147 C1149 1.327 . S
C1147 H1170 0.950 . S
C1148 C1147 1.349 . S
C1148 C1160 1.349 . S
C1149 C1147 1.327 . S
C1149 C1165 1.429 . S
C1149 H1171 0.950 . S
C1150 H1146 0.949 . S
C1150 C1158 1.574 . S
C1150 C1166 1.368 . S
H1151 C1159 0.950 . S
H1152 C1157 0.950 . S
H1153 C1158 0.949 . S
H1154 C1160 0.950 . S
H1155 C1161 0.950 . S
H1156 C1162 0.949 . S
C1157 H1152 0.950 . S
C1157 C1159 1.327 . S
C1157 C1163 1.429 . S
C1158 C1150 1.574 . S
C1158 H1153 0.949 . S
C1158 C1164 1.368 . S
C1159 C1143 1.349 . S
C1159 H1151 0.950 . S
C1159 C1157 1.327 . S
C1160 C1148 1.349 . S
C1160 H1154 0.950 . S
C1160 C1161 1.327 . S
C1161 H1155 0.950 . S
C1161 C1160 1.327 . S
C1161 C1165 1.429 . S
C1162 C1145 1.574 . S
C1162 H1156 0.949 . S
C1162 C1166 1.368 . S
C1163 C1144 1.429 . S
C1163 C1157 1.429 . S
C1163 C1164 1.523 . S
C1164 C1145 1.368 . S
C1164 C1158 1.368 . S
C1164 C1163 1.523 . S
C1165 C1149 1.429 . S
C1165 C1161 1.429 . S
C1165 C1166 1.523 . S
C1166 C1150 1.368 . S
C1166 C1162 1.368 . S
C1166 C1165 1.523 . S
H1167 C1142 0.950 . S
H1168 C1144 0.950 . S
H1169 C1145 0.949 . S
H1170 C1147 0.950 . S
H1171 C1149 0.950 . S
C1172 C1173 1.349 . S
C1172 C1174 1.327 . S
C1172 H1197 0.950 . S
C1173 C1172 1.349 . S
C1173 C1189 1.349 . S
C1174 C1172 1.327 . S
C1174 C1193 1.429 . S
C1174 H1198 0.950 . S
C1175 C1192 1.574 . S
C1175 C1194 1.368 . S
C1175 H1199 0.949 . S
H1176 C1180 0.949 . S
C1177 C1178 1.349 . S
C1177 C1179 1.327 . S
C1177 H1200 0.950 . S
C1178 C1177 1.349 . S
C1178 C1190 1.349 . S
C1179 C1177 1.327 . S
C1179 C1195 1.429 . S
C1179 H1201 0.950 . S
C1180 H1176 0.949 . S
C1180 C1188 1.574 . S
C1180 C1196 1.368 . S
H1181 C1189 0.950 . S
H1182 C1187 0.950 . S
H1183 C1188 0.949 . S
H1184 C1190 0.950 . S
H1185 C1191 0.950 . S
H1186 C1192 0.949 . S
C1187 H1182 0.950 . S
C1187 C1189 1.327 . S
C1187 C1193 1.429 . S
C1188 C1180 1.574 . S
C1188 H1183 0.949 . S
C1188 C1194 1.368 . S
C1189 C1173 1.349 . S
C1189 H1181 0.950 . S
C1189 C1187 1.327 . S
C1190 C1178 1.349 . S
C1190 H1184 0.950 . S
C1190 C1191 1.327 . S
C1191 H1185 0.950 . S
C1191 C1190 1.327 . S
C1191 C1195 1.429 . S
C1192 C1175 1.574 . S
C1192 H1186 0.949 . S
C1192 C1196 1.368 . S
C1193 C1174 1.429 . S
C1193 C1187 1.429 . S
C1193 C1194 1.523 . S
C1194 C1175 1.368 . S
C1194 C1188 1.368 . S
C1194 C1193 1.523 . S
C1195 C1179 1.429 . S
C1195 C1191 1.429 . S
C1195 C1196 1.523 . S
C1196 C1180 1.368 . S
C1196 C1192 1.368 . S
C1196 C1195 1.523 . S
H1197 C1172 0.950 . S
H1198 C1174 0.950 . S
H1199 C1175 0.949 . S
H1200 C1177 0.950 . S
H1201 C1179 0.950 . S
C1202 C1203 1.349 . S
C1202 C1204 1.327 . S
C1202 H1227 0.950 . S
C1203 C1202 1.349 . S
C1203 C1219 1.349 . S
C1204 C1202 1.327 . S
C1204 C1223 1.429 . S
C1204 H1228 0.950 . S
C1205 C1222 1.574 . S
C1205 C1224 1.368 . S
C1205 H1229 0.949 . S
H1206 C1210 0.949 . S
C1207 C1208 1.349 1_655 S
C1207 C1209 1.327 . S
C1207 H1230 0.950 . S
C1208 C1207 1.349 1_455 S
C1208 C1220 1.349 . S
C1209 C1207 1.327 . S
C1209 C1225 1.429 . S
C1209 H1231 0.950 . S
C1210 H1206 0.949 . S
C1210 C1218 1.574 . S
C1210 C1226 1.368 . S
H1211 C1219 0.950 . S
H1212 C1217 0.950 . S
H1213 C1218 0.949 . S
H1214 C1220 0.950 . S
H1215 C1221 0.950 . S
H1216 C1222 0.949 . S
C1217 H1212 0.950 . S
C1217 C1219 1.327 . S
C1217 C1223 1.429 . S
C1218 C1210 1.574 . S
C1218 H1213 0.949 . S
C1218 C1224 1.368 . S
C1219 C1203 1.349 . S
C1219 H1211 0.950 . S
C1219 C1217 1.327 . S
C1220 C1208 1.349 . S
C1220 H1214 0.950 . S
C1220 C1221 1.327 1_455 S
C1221 H1215 0.950 . S
C1221 C1220 1.327 1_655 S
C1221 C1225 1.429 . S
C1222 C1205 1.574 . S
C1222 H1216 0.949 . S
C1222 C1226 1.368 . S
C1223 C1204 1.429 . S
C1223 C1217 1.429 . S
C1223 C1224 1.523 . S
C1224 C1205 1.368 . S
C1224 C1218 1.368 . S
C1224 C1223 1.523 . S
C1225 C1209 1.429 . S
C1225 C1221 1.429 . S
C1225 C1226 1.523 . S
C1226 C1210 1.368 . S
C1226 C1222 1.368 . S
C1226 C1225 1.523 . S
H1227 C1202 0.950 . S
H1228 C1204 0.950 . S
H1229 C1205 0.949 . S
H1230 C1207 0.950 . S
H1231 C1209 0.950 . S
C1232 C1233 1.349 . S
C1232 C1234 1.327 . S
C1232 H1257 0.950 . S
C1233 C1232 1.349 . S
C1233 C1249 1.349 . S
C1234 C1232 1.327 . S
C1234 C1253 1.429 . S
C1234 H1258 0.950 . S
C1235 C1252 1.574 . S
C1235 C1254 1.368 . S
C1235 H1259 0.949 . S
H1236 C1240 0.949 . S
C1237 C1238 1.349 . S
C1237 C1239 1.327 . S
C1237 H1260 0.950 1_565 S
C1238 C1237 1.349 . S
C1238 C1250 1.349 . S
C1239 C1237 1.327 . S
C1239 C1255 1.429 . S
C1239 H1261 0.950 . S
C1240 H1236 0.949 . S
C1240 C1248 1.574 . S
C1240 C1256 1.368 . S
H1241 C1249 0.950 . S
H1242 C1247 0.950 . S
H1243 C1248 0.949 . S
H1244 C1250 0.950 . S
H1245 C1251 0.950 . S
H1246 C1252 0.949 . S
C1247 H1242 0.950 . S
C1247 C1249 1.327 . S
C1247 C1253 1.429 . S
C1248 C1240 1.574 . S
C1248 H1243 0.949 . S
C1248 C1254 1.368 . S
C1249 C1233 1.349 . S
C1249 H1241 0.950 . S
C1249 C1247 1.327 . S
C1250 C1238 1.349 . S
C1250 H1244 0.950 . S
C1250 C1251 1.327 . S
C1251 H1245 0.950 . S
C1251 C1250 1.327 . S
C1251 C1255 1.429 . S
C1252 C1235 1.574 . S
C1252 H1246 0.949 . S
C1252 C1256 1.368 . S
C1253 C1234 1.429 . S
C1253 C1247 1.429 . S
C1253 C1254 1.523 . S
C1254 C1235 1.368 . S
C1254 C1248 1.368 . S
C1254 C1253 1.523 . S
C1255 C1239 1.429 . S
C1255 C1251 1.429 . S
C1255 C1256 1.523 . S
C1256 C1240 1.368 . S
C1256 C1252 1.368 . S
C1256 C1255 1.523 . S
H1257 C1232 0.950 . S
H1258 C1234 0.950 . S
H1259 C1235 0.949 . S
H1260 C1237 0.950 1_545 S
H1261 C1239 0.950 . S
C1262 C1263 1.349 . S
C1262 C1264 1.327 . S
C1262 H1287 0.950 . S
C1263 C1262 1.349 . S
C1263 C1279 1.349 . S
C1264 C1262 1.327 . S
C1264 C1283 1.429 . S
C1264 H1288 0.950 . S
C1265 C1282 1.574 . S
C1265 C1284 1.368 . S
C1265 H1289 0.949 . S
H1266 C1270 0.949 . S
C1267 C1268 1.349 1_655 S
C1267 C1269 1.327 . S
C1267 H1290 0.950 1_655 S
C1268 C1267 1.349 1_455 S
C1268 C1280 1.349 1_445 S
C1269 C1267 1.327 . S
C1269 C1285 1.429 1_545 S
C1269 H1291 0.950 . S
C1270 H1266 0.949 . S
C1270 C1278 1.574 . S
C1270 C1286 1.368 . S
H1271 C1279 0.950 . S
H1272 C1277 0.950 . S
H1273 C1278 0.949 . S
H1274 C1280 0.950 . S
H1275 C1281 0.950 . S
H1276 C1282 0.949 1_545 S
C1277 H1272 0.950 . S
C1277 C1279 1.327 . S
C1277 C1283 1.429 . S
C1278 C1270 1.574 . S
C1278 H1273 0.949 . S
C1278 C1284 1.368 . S
C1279 C1263 1.349 . S
C1279 H1271 0.950 . S
C1279 C1277 1.327 . S
C1280 C1268 1.349 1_665 S
C1280 H1274 0.950 . S
C1280 C1281 1.327 . S
C1281 H1275 0.950 . S
C1281 C1280 1.327 . S
C1281 C1285 1.429 . S
C1282 C1265 1.574 . S
C1282 H1276 0.949 1_565 S
C1282 C1286 1.368 . S
C1283 C1264 1.429 . S
C1283 C1277 1.429 . S
C1283 C1284 1.523 . S
C1284 C1265 1.368 . S
C1284 C1278 1.368 . S
C1284 C1283 1.523 . S
C1285 C1269 1.429 1_565 S
C1285 C1281 1.429 . S
C1285 C1286 1.523 . S
C1286 C1270 1.368 . S
C1286 C1282 1.368 . S
C1286 C1285 1.523 . S
H1287 C1262 0.950 . S
H1288 C1264 0.950 . S
H1289 C1265 0.949 . S
H1290 C1267 0.950 1_455 S
H1291 C1269 0.950 . S
C1292 C1293 1.349 . S
C1292 C1294 1.327 . S
C1292 H1317 0.950 . S
C1293 C1292 1.349 . S
C1293 C1309 1.349 . S
C1294 C1292 1.327 . S
C1294 C1313 1.429 . S
C1294 H1318 0.950 . S
C1295 C1312 1.574 . S
C1295 C1314 1.368 . S
C1295 H1319 0.949 . S
H1296 C1300 0.949 . S
C1297 C1298 1.349 . S
C1297 C1299 1.327 . S
C1297 H1320 0.950 . S
C1298 C1297 1.349 . S
C1298 C1310 1.349 . S
C1299 C1297 1.327 . S
C1299 C1315 1.429 . S
C1299 H1321 0.950 . S
C1300 H1296 0.949 . S
C1300 C1308 1.574 . S
C1300 C1316 1.368 . S
H1301 C1309 0.950 1_565 S
H1302 C1307 0.950 . S
H1303 C1308 0.949 . S
H1304 C1310 0.950 . S
H1305 C1311 0.950 . S
H1306 C1312 0.949 . S
C1307 H1302 0.950 . S
C1307 C1309 1.327 . S
C1307 C1313 1.429 . S
C1308 C1300 1.574 . S
C1308 H1303 0.949 . S
C1308 C1314 1.368 . S
C1309 C1293 1.349 . S
C1309 H1301 0.950 1_545 S
C1309 C1307 1.327 . S
C1310 C1298 1.349 . S
C1310 H1304 0.950 . S
C1310 C1311 1.327 . S
C1311 H1305 0.950 . S
C1311 C1310 1.327 . S
C1311 C1315 1.429 . S
C1312 C1295 1.574 . S
C1312 H1306 0.949 . S
C1312 C1316 1.368 . S
C1313 C1294 1.429 . S
C1313 C1307 1.429 . S
C1313 C1314 1.523 . S
C1314 C1295 1.368 . S
C1314 C1308 1.368 . S
C1314 C1313 1.523 . S
C1315 C1299 1.429 . S
C1315 C1311 1.429 . S
C1315 C1316 1.523 . S
C1316 C1300 1.368 . S
C1316 C1312 1.368 . S
C1316 C1315 1.523 . S
H1317 C1292 0.950 . S
H1318 C1294 0.950 . S
H1319 C1295 0.949 . S
H1320 C1297 0.950 . S
H1321 C1299 0.950 . S
C1322 C1323 1.349 . S
C1322 C1324 1.327 . S
C1322 H1347 0.950 . S
C1323 C1322 1.349 . S
C1323 C1339 1.349 . S
C1324 C1322 1.327 . S
C1324 C1343 1.429 . S
C1324 H1348 0.950 . S
C1325 C1342 1.574 . S
C1325 C1344 1.368 . S
C1325 H1349 0.949 . S
H1326 C1330 0.949 . S
C1327 C1328 1.349 . S
C1327 C1329 1.327 1_565 S
C1327 H1350 0.950 . S
C1328 C1327 1.349 . S
C1328 C1340 1.349 . S
C1329 C1327 1.327 1_545 S
C1329 C1345 1.429 . S
C1329 H1351 0.950 . S
C1330 H1326 0.949 . S
C1330 C1338 1.574 . S
C1330 C1346 1.368 . S
H1331 C1339 0.950 . S
H1332 C1337 0.950 . S
H1333 C1338 0.949 . S
H1334 C1340 0.950 . S
H1335 C1341 0.950 . S
H1336 C1342 0.949 . S
C1337 H1332 0.950 . S
C1337 C1339 1.327 . S
C1337 C1343 1.429 . S
C1338 C1330 1.574 . S
C1338 H1333 0.949 . S
C1338 C1344 1.368 . S
C1339 C1323 1.349 . S
C1339 H1331 0.950 . S
C1339 C1337 1.327 . S
C1340 C1328 1.349 . S
C1340 H1334 0.950 . S
C1340 C1341 1.327 . S
C1341 H1335 0.950 . S
C1341 C1340 1.327 . S
C1341 C1345 1.429 1_565 S
C1342 C1325 1.574 . S
C1342 H1336 0.949 . S
C1342 C1346 1.368 . S
C1343 C1324 1.429 . S
C1343 C1337 1.429 . S
C1343 C1344 1.523 . S
C1344 C1325 1.368 . S
C1344 C1338 1.368 . S
C1344 C1343 1.523 . S
C1345 C1329 1.429 . S
C1345 C1341 1.429 1_545 S
C1345 C1346 1.523 . S
C1346 C1330 1.368 . S
C1346 C1342 1.368 . S
C1346 C1345 1.523 . S
H1347 C1322 0.950 . S
H1348 C1324 0.950 . S
H1349 C1325 0.949 . S
H1350 C1327 0.950 . S
H1351 C1329 0.950 . S
C1352 C1353 1.349 . S
C1352 C1354 1.327 . S
C1352 H1377 0.950 . S
C1353 C1352 1.349 . S
C1353 C1369 1.349 . S
C1354 C1352 1.327 . S
C1354 C1373 1.429 . S
C1354 H1378 0.950 . S
C1355 C1372 1.574 . S
C1355 C1374 1.368 . S
C1355 H1379 0.949 . S
H1356 C1360 0.949 . S
C1357 C1358 1.349 . S
C1357 C1359 1.327 . S
C1357 H1380 0.950 1_545 S
C1358 C1357 1.349 . S
C1358 C1370 1.349 . S
C1359 C1357 1.327 . S
C1359 C1375 1.429 . S
C1359 H1381 0.950 . S
C1360 H1356 0.949 . S
C1360 C1368 1.574 . S
C1360 C1376 1.368 . S
H1361 C1369 0.950 . S
H1362 C1367 0.950 . S
H1363 C1368 0.949 . S
H1364 C1370 0.950 . S
H1365 C1371 0.950 . S
H1366 C1372 0.949 . S
C1367 H1362 0.950 . S
C1367 C1369 1.327 . S
C1367 C1373 1.429 . S
C1368 C1360 1.574 . S
C1368 H1363 0.949 . S
C1368 C1374 1.368 . S
C1369 C1353 1.349 . S
C1369 H1361 0.950 . S
C1369 C1367 1.327 . S
C1370 C1358 1.349 . S
C1370 H1364 0.950 . S
C1370 C1371 1.327 . S
C1371 H1365 0.950 . S
C1371 C1370 1.327 . S
C1371 C1375 1.429 . S
C1372 C1355 1.574 . S
C1372 H1366 0.949 . S
C1372 C1376 1.368 . S
C1373 C1354 1.429 . S
C1373 C1367 1.429 . S
C1373 C1374 1.523 . S
C1374 C1355 1.368 . S
C1374 C1368 1.368 . S
C1374 C1373 1.523 . S
C1375 C1359 1.429 . S
C1375 C1371 1.429 . S
C1375 C1376 1.523 . S
C1376 C1360 1.368 . S
C1376 C1372 1.368 . S
C1376 C1375 1.523 . S
H1377 C1352 0.950 . S
H1378 C1354 0.950 . S
H1379 C1355 0.949 . S
H1380 C1357 0.950 1_565 S
H1381 C1359 0.950 . S
C1382 C1383 1.349 1_445 S
C1382 C1384 1.327 . S
C1382 H1407 0.950 . S
C1383 C1382 1.349 1_665 S
C1383 C1399 1.349 1_655 S
C1384 C1382 1.327 . S
C1384 C1403 1.429 . S
C1384 H1408 0.950 . S
C1385 C1402 1.574 . S
C1385 C1404 1.368 . S
C1385 H1409 0.949 1_545 S
H1386 C1390 0.949 . S
C1387 C1388 1.349 . S
C1387 C1389 1.327 . S
C1387 H1410 0.950 . S
C1388 C1387 1.349 . S
C1388 C1400 1.349 . S
C1389 C1387 1.327 . S
C1389 C1405 1.429 . S
C1389 H1411 0.950 . S
C1390 H1386 0.949 . S
C1390 C1398 1.574 . S
C1390 C1406 1.368 . S
H1391 C1399 0.950 1_655 S
H1392 C1397 0.950 . S
H1393 C1398 0.949 . S
H1394 C1400 0.950 . S
H1395 C1401 0.950 . S
H1396 C1402 0.949 . S
C1397 H1392 0.950 . S
C1397 C1399 1.327 . S
C1397 C1403 1.429 1_565 S
C1398 C1390 1.574 . S
C1398 H1393 0.949 . S
C1398 C1404 1.368 . S
C1399 C1383 1.349 1_455 S
C1399 H1391 0.950 1_455 S
C1399 C1397 1.327 . S
C1400 C1388 1.349 . S
C1400 H1394 0.950 . S
C1400 C1401 1.327 . S
C1401 H1395 0.950 . S
C1401 C1400 1.327 . S
C1401 C1405 1.429 . S
C1402 C1385 1.574 . S
C1402 H1396 0.949 . S
C1402 C1406 1.368 . S
C1403 C1384 1.429 . S
C1403 C1397 1.429 1_545 S
C1403 C1404 1.523 . S
C1404 C1385 1.368 . S
C1404 C1398 1.368 . S
C1404 C1403 1.523 . S
C1405 C1389 1.429 . S
C1405 C1401 1.429 . S
C1405 C1406 1.523 . S
C1406 C1390 1.368 . S
C1406 C1402 1.368 . S
C1406 C1405 1.523 . S
H1407 C1382 0.950 . S
H1408 C1384 0.950 . S
H1409 C1385 0.949 1_565 S
H1410 C1387 0.950 . S
H1411 C1389 0.950 . S
C1412 C1413 1.349 . S
C1412 C1414 1.327 . S
C1412 H1437 0.950 1_565 S
C1413 C1412 1.349 . S
C1413 C1429 1.349 . S
C1414 C1412 1.327 . S
C1414 C1433 1.429 . S
C1414 H1438 0.950 . S
C1415 C1432 1.574 . S
C1415 C1434 1.368 . S
C1415 H1439 0.949 . S
H1416 C1420 0.949 . S
C1417 C1418 1.349 . S
C1417 C1419 1.327 . S
C1417 H1440 0.950 . S
C1418 C1417 1.349 . S
C1418 C1430 1.349 . S
C1419 C1417 1.327 . S
C1419 C1435 1.429 . S
C1419 H1441 0.950 . S
C1420 H1416 0.949 . S
C1420 C1428 1.574 . S
C1420 C1436 1.368 . S
H1421 C1429 0.950 . S
H1422 C1427 0.950 . S
H1423 C1428 0.949 . S
H1424 C1430 0.950 . S
H1425 C1431 0.950 . S
H1426 C1432 0.949 . S
C1427 H1422 0.950 . S
C1427 C1429 1.327 . S
C1427 C1433 1.429 . S
C1428 C1420 1.574 . S
C1428 H1423 0.949 . S
C1428 C1434 1.368 . S
C1429 C1413 1.349 . S
C1429 H1421 0.950 . S
C1429 C1427 1.327 . S
C1430 C1418 1.349 . S
C1430 H1424 0.950 . S
C1430 C1431 1.327 . S
C1431 H1425 0.950 . S
C1431 C1430 1.327 . S
C1431 C1435 1.429 . S
C1432 C1415 1.574 . S
C1432 H1426 0.949 . S
C1432 C1436 1.368 . S
C1433 C1414 1.429 . S
C1433 C1427 1.429 . S
C1433 C1434 1.523 . S
C1434 C1415 1.368 . S
C1434 C1428 1.368 . S
C1434 C1433 1.523 . S
C1435 C1419 1.429 . S
C1435 C1431 1.429 . S
C1435 C1436 1.523 . S
C1436 C1420 1.368 . S
C1436 C1432 1.368 . S
C1436 C1435 1.523 . S
H1437 C1412 0.950 1_545 S
H1438 C1414 0.950 . S
H1439 C1415 0.949 . S
H1440 C1417 0.950 . S
H1441 C1419 0.950 . S
C1442 C1443 1.349 . S
C1442 C1444 1.327 . S
C1442 H1467 0.950 . S
C1443 C1442 1.349 . S
C1443 C1459 1.349 1_545 S
C1444 C1442 1.327 . S
C1444 C1463 1.429 1_545 S
C1444 H1468 0.950 . S
C1445 C1462 1.574 . S
C1445 C1464 1.368 . S
C1445 H1469 0.949 . S
H1446 C1450 0.949 . S
C1447 C1448 1.349 . S
C1447 C1449 1.327 . S
C1447 H1470 0.950 . S
C1448 C1447 1.349 . S
C1448 C1460 1.349 . S
C1449 C1447 1.327 . S
C1449 C1465 1.429 . S
C1449 H1471 0.950 . S
C1450 H1446 0.949 . S
C1450 C1458 1.574 . S
C1450 C1466 1.368 . S
H1451 C1459 0.950 . S
H1452 C1457 0.950 . S
H1453 C1458 0.949 1_545 S
H1454 C1460 0.950 . S
H1455 C1461 0.950 . S
H1456 C1462 0.949 . S
C1457 H1452 0.950 . S
C1457 C1459 1.327 . S
C1457 C1463 1.429 . S
C1458 C1450 1.574 . S
C1458 H1453 0.949 1_565 S
C1458 C1464 1.368 . S
C1459 C1443 1.349 1_565 S
C1459 H1451 0.950 . S
C1459 C1457 1.327 . S
C1460 C1448 1.349 . S
C1460 H1454 0.950 . S
C1460 C1461 1.327 . S
C1461 H1455 0.950 . S
C1461 C1460 1.327 . S
C1461 C1465 1.429 . S
C1462 C1445 1.574 . S
C1462 H1456 0.949 . S
C1462 C1466 1.368 . S
C1463 C1444 1.429 1_565 S
C1463 C1457 1.429 . S
C1463 C1464 1.523 . S
C1464 C1445 1.368 . S
C1464 C1458 1.368 . S
C1464 C1463 1.523 . S
C1465 C1449 1.429 . S
C1465 C1461 1.429 . S
C1465 C1466 1.523 . S
C1466 C1450 1.368 . S
C1466 C1462 1.368 . S
C1466 C1465 1.523 . S
H1467 C1442 0.950 . S
H1468 C1444 0.950 . S
H1469 C1445 0.949 . S
H1470 C1447 0.950 . S
H1471 C1449 0.950 . S
C1472 C1473 1.349 1_556 S
C1472 C1474 1.327 . S
C1472 H1497 0.950 . S
C1473 C1472 1.349 1_554 S
C1473 C1489 1.349 . S
C1474 C1472 1.327 . S
C1474 C1493 1.429 . S
C1474 H1498 0.950 . S
C1475 C1492 1.574 . S
C1475 C1494 1.368 . S
C1475 H1499 0.949 . S
H1476 C1480 0.949 . S
C1477 C1478 1.349 . S
C1477 C1479 1.327 . S
C1477 H1500 0.950 . S
C1478 C1477 1.349 . S
C1478 C1490 1.349 . S
C1479 C1477 1.327 . S
C1479 C1495 1.429 . S
C1479 H1501 0.950 . S
C1480 H1476 0.949 . S
C1480 C1488 1.574 . S
C1480 C1496 1.368 . S
H1481 C1489 0.950 . S
H1482 C1487 0.950 . S
H1483 C1488 0.949 . S
H1484 C1490 0.950 . S
H1485 C1491 0.950 . S
H1486 C1492 0.949 . S
C1487 H1482 0.950 . S
C1487 C1489 1.327 1_556 S
C1487 C1493 1.429 . S
C1488 C1480 1.574 . S
C1488 H1483 0.949 . S
C1488 C1494 1.368 . S
C1489 C1473 1.349 . S
C1489 H1481 0.950 . S
C1489 C1487 1.327 1_554 S
C1490 C1478 1.349 . S
C1490 H1484 0.950 . S
C1490 C1491 1.327 . S
C1491 H1485 0.950 . S
C1491 C1490 1.327 . S
C1491 C1495 1.429 . S
C1492 C1475 1.574 . S
C1492 H1486 0.949 . S
C1492 C1496 1.368 . S
C1493 C1474 1.429 . S
C1493 C1487 1.429 . S
C1493 C1494 1.523 . S
C1494 C1475 1.368 . S
C1494 C1488 1.368 . S
C1494 C1493 1.523 . S
C1495 C1479 1.429 . S
C1495 C1491 1.429 . S
C1495 C1496 1.523 . S
C1496 C1480 1.368 . S
C1496 C1492 1.368 . S
C1496 C1495 1.523 . S
H1497 C1472 0.950 . S
H1498 C1474 0.950 . S
H1499 C1475 0.949 . S
H1500 C1477 0.950 . S
H1501 C1479 0.950 . S
C1502 C1503 1.349 . S
C1502 C1504 1.327 . S
C1502 H1527 0.950 . S
C1503 C1502 1.349 . S
C1503 C1519 1.349 . S
C1504 C1502 1.327 . S
C1504 C1523 1.429 . S
C1504 H1528 0.950 . S
C1505 C1522 1.574 . S
C1505 C1524 1.368 . S
C1505 H1529 0.949 . S
H1506 C1510 0.949 . S
C1507 C1508 1.349 . S
C1507 C1509 1.327 . S
C1507 H1530 0.950 . S
C1508 C1507 1.349 . S
C1508 C1520 1.349 . S
C1509 C1507 1.327 . S
C1509 C1525 1.429 . S
C1509 H1531 0.950 . S
C1510 H1506 0.949 . S
C1510 C1518 1.574 . S
C1510 C1526 1.368 . S
H1511 C1519 0.950 . S
H1512 C1517 0.950 . S
H1513 C1518 0.949 . S
H1514 C1520 0.950 . S
H1515 C1521 0.950 . S
H1516 C1522 0.949 . S
C1517 H1512 0.950 . S
C1517 C1519 1.327 . S
C1517 C1523 1.429 . S
C1518 C1510 1.574 . S
C1518 H1513 0.949 . S
C1518 C1524 1.368 . S
C1519 C1503 1.349 . S
C1519 H1511 0.950 . S
C1519 C1517 1.327 . S
C1520 C1508 1.349 . S
C1520 H1514 0.950 . S
C1520 C1521 1.327 . S
C1521 H1515 0.950 . S
C1521 C1520 1.327 . S
C1521 C1525 1.429 . S
C1522 C1505 1.574 . S
C1522 H1516 0.949 . S
C1522 C1526 1.368 . S
C1523 C1504 1.429 . S
C1523 C1517 1.429 . S
C1523 C1524 1.523 . S
C1524 C1505 1.368 . S
C1524 C1518 1.368 . S
C1524 C1523 1.523 . S
C1525 C1509 1.429 . S
C1525 C1521 1.429 . S
C1525 C1526 1.523 . S
C1526 C1510 1.368 . S
C1526 C1522 1.368 . S
C1526 C1525 1.523 . S
H1527 C1502 0.950 . S
H1528 C1504 0.950 . S
H1529 C1505 0.949 . S
H1530 C1507 0.950 . S
H1531 C1509 0.950 . S
C1532 C1533 1.349 . S
C1532 C1534 1.327 . S
C1532 H1557 0.950 . S
C1533 C1532 1.349 . S
C1533 C1549 1.349 . S
C1534 C1532 1.327 . S
C1534 C1553 1.429 . S
C1534 H1558 0.950 . S
C1535 C1552 1.574 . S
C1535 C1554 1.368 . S
C1535 H1559 0.949 . S
H1536 C1540 0.949 . S
C1537 C1538 1.349 . S
C1537 C1539 1.327 . S
C1537 H1560 0.950 . S
C1538 C1537 1.349 . S
C1538 C1550 1.349 . S
C1539 C1537 1.327 . S
C1539 C1555 1.429 . S
C1539 H1561 0.950 . S
C1540 H1536 0.949 . S
C1540 C1548 1.574 . S
C1540 C1556 1.368 . S
H1541 C1549 0.950 . S
H1542 C1547 0.950 . S
H1543 C1548 0.949 . S
H1544 C1550 0.950 . S
H1545 C1551 0.950 . S
H1546 C1552 0.949 . S
C1547 H1542 0.950 . S
C1547 C1549 1.327 . S
C1547 C1553 1.429 . S
C1548 C1540 1.574 . S
C1548 H1543 0.949 . S
C1548 C1554 1.368 . S
C1549 C1533 1.349 . S
C1549 H1541 0.950 . S
C1549 C1547 1.327 . S
C1550 C1538 1.349 . S
C1550 H1544 0.950 . S
C1550 C1551 1.327 . S
C1551 H1545 0.950 . S
C1551 C1550 1.327 . S
C1551 C1555 1.429 . S
C1552 C1535 1.574 . S
C1552 H1546 0.949 . S
C1552 C1556 1.368 . S
C1553 C1534 1.429 . S
C1553 C1547 1.429 . S
C1553 C1554 1.523 . S
C1554 C1535 1.368 . S
C1554 C1548 1.368 . S
C1554 C1553 1.523 . S
C1555 C1539 1.429 . S
C1555 C1551 1.429 . S
C1555 C1556 1.523 . S
C1556 C1540 1.368 . S
C1556 C1552 1.368 . S
C1556 C1555 1.523 . S
H1557 C1532 0.950 . S
H1558 C1534 0.950 . S
H1559 C1535 0.949 . S
H1560 C1537 0.950 . S
H1561 C1539 0.950 . S
C1562 C1563 1.349 . S
C1562 C1564 1.327 . S
C1562 H1587 0.950 . S
C1563 C1562 1.349 . S
C1563 C1579 1.349 . S
C1564 C1562 1.327 . S
C1564 C1583 1.429 . S
C1564 H1588 0.950 . S
C1565 C1582 1.574 . S
C1565 C1584 1.368 . S
C1565 H1589 0.949 . S
H1566 C1570 0.949 . S
C1567 C1568 1.349 . S
C1567 C1569 1.327 . S
C1567 H1590 0.950 . S
C1568 C1567 1.349 . S
C1568 C1580 1.349 . S
C1569 C1567 1.327 . S
C1569 C1585 1.429 . S
C1569 H1591 0.950 . S
C1570 H1566 0.949 . S
C1570 C1578 1.574 . S
C1570 C1586 1.368 . S
H1571 C1579 0.950 . S
H1572 C1577 0.950 . S
H1573 C1578 0.949 . S
H1574 C1580 0.950 . S
H1575 C1581 0.950 . S
H1576 C1582 0.949 . S
C1577 H1572 0.950 . S
C1577 C1579 1.327 . S
C1577 C1583 1.429 . S
C1578 C1570 1.574 . S
C1578 H1573 0.949 . S
C1578 C1584 1.368 . S
C1579 C1563 1.349 . S
C1579 H1571 0.950 . S
C1579 C1577 1.327 . S
C1580 C1568 1.349 . S
C1580 H1574 0.950 . S
C1580 C1581 1.327 . S
C1581 H1575 0.950 . S
C1581 C1580 1.327 . S
C1581 C1585 1.429 . S
C1582 C1565 1.574 . S
C1582 H1576 0.949 . S
C1582 C1586 1.368 . S
C1583 C1564 1.429 . S
C1583 C1577 1.429 . S
C1583 C1584 1.523 . S
C1584 C1565 1.368 . S
C1584 C1578 1.368 . S
C1584 C1583 1.523 . S
C1585 C1569 1.429 . S
C1585 C1581 1.429 . S
C1585 C1586 1.523 . S
C1586 C1570 1.368 . S
C1586 C1582 1.368 . S
C1586 C1585 1.523 . S
H1587 C1562 0.950 . S
H1588 C1564 0.950 . S
H1589 C1565 0.949 . S
H1590 C1567 0.950 . S
H1591 C1569 0.950 . S
C1592 C1593 1.349 . S
C1592 C1594 1.327 . S
C1592 H1617 0.950 . S
C1593 C1592 1.349 . S
C1593 C1609 1.349 . S
C1594 C1592 1.327 . S
C1594 C1613 1.429 . S
C1594 H1618 0.950 . S
C1595 C1612 1.574 . S
C1595 C1614 1.368 . S
C1595 H1619 0.949 . S
H1596 C1600 0.949 . S
C1597 C1598 1.349 1_554 S
C1597 C1599 1.327 . S
C1597 H1620 0.950 . S
C1598 C1597 1.349 1_556 S
C1598 C1610 1.349 . S
C1599 C1597 1.327 . S
C1599 C1615 1.429 . S
C1599 H1621 0.950 . S
C1600 H1596 0.949 . S
C1600 C1608 1.574 . S
C1600 C1616 1.368 . S
H1601 C1609 0.950 . S
H1602 C1607 0.950 . S
H1603 C1608 0.949 . S
H1604 C1610 0.950 . S
H1605 C1611 0.950 . S
H1606 C1612 0.949 . S
C1607 H1602 0.950 . S
C1607 C1609 1.327 . S
C1607 C1613 1.429 . S
C1608 C1600 1.574 . S
C1608 H1603 0.949 . S
C1608 C1614 1.368 . S
C1609 C1593 1.349 . S
C1609 H1601 0.950 . S
C1609 C1607 1.327 . S
C1610 C1598 1.349 . S
C1610 H1604 0.950 . S
C1610 C1611 1.327 1_556 S
C1611 H1605 0.950 . S
C1611 C1610 1.327 1_554 S
C1611 C1615 1.429 . S
C1612 C1595 1.574 . S
C1612 H1606 0.949 . S
C1612 C1616 1.368 . S
C1613 C1594 1.429 . S
C1613 C1607 1.429 . S
C1613 C1614 1.523 . S
C1614 C1595 1.368 . S
C1614 C1608 1.368 . S
C1614 C1613 1.523 . S
C1615 C1599 1.429 . S
C1615 C1611 1.429 . S
C1615 C1616 1.523 . S
C1616 C1600 1.368 . S
C1616 C1612 1.368 . S
C1616 C1615 1.523 . S
H1617 C1592 0.950 . S
H1618 C1594 0.950 . S
H1619 C1595 0.949 . S
H1620 C1597 0.950 . S
H1621 C1599 0.950 . S
C1622 C1623 1.349 . S
C1622 C1624 1.327 . S
C1622 H1647 0.950 . S
C1623 C1622 1.349 . S
C1623 C1639 1.349 . S
C1624 C1622 1.327 . S
C1624 C1643 1.429 . S
C1624 H1648 0.950 . S
C1625 C1642 1.574 . S
C1625 C1644 1.368 . S
C1625 H1649 0.949 . S
H1626 C1630 0.949 . S
C1627 C1628 1.349 . S
C1627 C1629 1.327 . S
C1627 H1650 0.950 . S
C1628 C1627 1.349 . S
C1628 C1640 1.349 . S
C1629 C1627 1.327 . S
C1629 C1645 1.429 . S
C1629 H1651 0.950 . S
C1630 H1626 0.949 . S
C1630 C1638 1.574 . S
C1630 C1646 1.368 . S
H1631 C1639 0.950 . S
H1632 C1637 0.950 . S
H1633 C1638 0.949 . S
H1634 C1640 0.950 . S
H1635 C1641 0.950 . S
H1636 C1642 0.949 . S
C1637 H1632 0.950 . S
C1637 C1639 1.327 . S
C1637 C1643 1.429 . S
C1638 C1630 1.574 . S
C1638 H1633 0.949 . S
C1638 C1644 1.368 . S
C1639 C1623 1.349 . S
C1639 H1631 0.950 . S
C1639 C1637 1.327 . S
C1640 C1628 1.349 . S
C1640 H1634 0.950 . S
C1640 C1641 1.327 . S
C1641 H1635 0.950 . S
C1641 C1640 1.327 . S
C1641 C1645 1.429 . S
C1642 C1625 1.574 . S
C1642 H1636 0.949 . S
C1642 C1646 1.368 . S
C1643 C1624 1.429 . S
C1643 C1637 1.429 . S
C1643 C1644 1.523 . S
C1644 C1625 1.368 . S
C1644 C1638 1.368 . S
C1644 C1643 1.523 . S
C1645 C1629 1.429 . S
C1645 C1641 1.429 . S
C1645 C1646 1.523 . S
C1646 C1630 1.368 . S
C1646 C1642 1.368 . S
C1646 C1645 1.523 . S
H1647 C1622 0.950 . S
H1648 C1624 0.950 . S
H1649 C1625 0.949 . S
H1650 C1627 0.950 . S
H1651 C1629 0.950 . S
C1652 C1653 1.349 . S
C1652 C1654 1.327 . S
C1652 H1677 0.950 . S
C1653 C1652 1.349 . S
C1653 C1669 1.349 . S
C1654 C1652 1.327 . S
C1654 C1673 1.429 . S
C1654 H1678 0.950 . S
C1655 C1672 1.574 . S
C1655 C1674 1.368 . S
C1655 H1679 0.949 . S
H1656 C1660 0.949 . S
C1657 C1658 1.349 . S
C1657 C1659 1.327 . S
C1657 H1680 0.950 . S
C1658 C1657 1.349 . S
C1658 C1670 1.349 . S
C1659 C1657 1.327 . S
C1659 C1675 1.429 . S
C1659 H1681 0.950 . S
C1660 H1656 0.949 . S
C1660 C1668 1.574 . S
C1660 C1676 1.368 . S
H1661 C1669 0.950 . S
H1662 C1667 0.950 . S
H1663 C1668 0.949 . S
H1664 C1670 0.950 . S
H1665 C1671 0.950 . S
H1666 C1672 0.949 . S
C1667 H1662 0.950 . S
C1667 C1669 1.327 . S
C1667 C1673 1.429 . S
C1668 C1660 1.574 . S
C1668 H1663 0.949 . S
C1668 C1674 1.368 . S
C1669 C1653 1.349 . S
C1669 H1661 0.950 . S
C1669 C1667 1.327 . S
C1670 C1658 1.349 . S
C1670 H1664 0.950 . S
C1670 C1671 1.327 . S
C1671 H1665 0.950 . S
C1671 C1670 1.327 . S
C1671 C1675 1.429 . S
C1672 C1655 1.574 . S
C1672 H1666 0.949 . S
C1672 C1676 1.368 . S
C1673 C1654 1.429 . S
C1673 C1667 1.429 . S
C1673 C1674 1.523 . S
C1674 C1655 1.368 . S
C1674 C1668 1.368 . S
C1674 C1673 1.523 . S
C1675 C1659 1.429 . S
C1675 C1671 1.429 . S
C1675 C1676 1.523 . S
C1676 C1660 1.368 . S
C1676 C1672 1.368 . S
C1676 C1675 1.523 . S
H1677 C1652 0.950 . S
H1678 C1654 0.950 . S
H1679 C1655 0.949 . S
H1680 C1657 0.950 . S
H1681 C1659 0.950 . S
C1682 C1683 1.349 . S
C1682 C1684 1.327 . S
C1682 H1707 0.950 . S
C1683 C1682 1.349 . S
C1683 C1699 1.349 . S
C1684 C1682 1.327 . S
C1684 C1703 1.429 . S
C1684 H1708 0.950 . S
C1685 C1702 1.574 . S
C1685 C1704 1.368 . S
C1685 H1709 0.949 . S
H1686 C1690 0.949 . S
C1687 C1688 1.349 . S
C1687 C1689 1.327 . S
C1687 H1710 0.950 . S
C1688 C1687 1.349 . S
C1688 C1700 1.349 . S
C1689 C1687 1.327 . S
C1689 C1705 1.429 . S
C1689 H1711 0.950 . S
C1690 H1686 0.949 . S
C1690 C1698 1.574 . S
C1690 C1706 1.368 . S
H1691 C1699 0.950 . S
H1692 C1697 0.950 . S
H1693 C1698 0.949 . S
H1694 C1700 0.950 . S
H1695 C1701 0.950 . S
H1696 C1702 0.949 . S
C1697 H1692 0.950 . S
C1697 C1699 1.327 . S
C1697 C1703 1.429 . S
C1698 C1690 1.574 . S
C1698 H1693 0.949 . S
C1698 C1704 1.368 . S
C1699 C1683 1.349 . S
C1699 H1691 0.950 . S
C1699 C1697 1.327 . S
C1700 C1688 1.349 . S
C1700 H1694 0.950 . S
C1700 C1701 1.327 . S
C1701 H1695 0.950 . S
C1701 C1700 1.327 . S
C1701 C1705 1.429 . S
C1702 C1685 1.574 . S
C1702 H1696 0.949 . S
C1702 C1706 1.368 . S
C1703 C1684 1.429 . S
C1703 C1697 1.429 . S
C1703 C1704 1.523 . S
C1704 C1685 1.368 . S
C1704 C1698 1.368 . S
C1704 C1703 1.523 . S
C1705 C1689 1.429 . S
C1705 C1701 1.429 . S
C1705 C1706 1.523 . S
C1706 C1690 1.368 . S
C1706 C1702 1.368 . S
C1706 C1705 1.523 . S
H1707 C1682 0.950 . S
H1708 C1684 0.950 . S
H1709 C1685 0.949 . S
H1710 C1687 0.950 . S
H1711 C1689 0.950 . S
C1712 C1713 1.349 . S
C1712 C1714 1.327 . S
C1712 H1737 0.950 . S
C1713 C1712 1.349 . S
C1713 C1729 1.349 . S
C1714 C1712 1.327 . S
C1714 C1733 1.429 . S
C1714 H1738 0.950 . S
C1715 C1732 1.574 . S
C1715 C1734 1.368 . S
C1715 H1739 0.949 . S
H1716 C1720 0.949 . S
C1717 C1718 1.349 . S
C1717 C1719 1.327 . S
C1717 H1740 0.950 . S
C1718 C1717 1.349 . S
C1718 C1730 1.349 . S
C1719 C1717 1.327 . S
C1719 C1735 1.429 . S
C1719 H1741 0.950 . S
C1720 H1716 0.949 . S
C1720 C1728 1.574 . S
C1720 C1736 1.368 . S
H1721 C1729 0.950 . S
H1722 C1727 0.950 . S
H1723 C1728 0.949 . S
H1724 C1730 0.950 . S
H1725 C1731 0.950 . S
H1726 C1732 0.949 . S
C1727 H1722 0.950 . S
C1727 C1729 1.327 . S
C1727 C1733 1.429 . S
C1728 C1720 1.574 . S
C1728 H1723 0.949 . S
C1728 C1734 1.368 . S
C1729 C1713 1.349 . S
C1729 H1721 0.950 . S
C1729 C1727 1.327 . S
C1730 C1718 1.349 . S
C1730 H1724 0.950 . S
C1730 C1731 1.327 . S
C1731 H1725 0.950 . S
C1731 C1730 1.327 . S
C1731 C1735 1.429 . S
C1732 C1715 1.574 . S
C1732 H1726 0.949 . S
C1732 C1736 1.368 . S
C1733 C1714 1.429 . S
C1733 C1727 1.429 . S
C1733 C1734 1.523 . S
C1734 C1715 1.368 . S
C1734 C1728 1.368 . S
C1734 C1733 1.523 . S
C1735 C1719 1.429 . S
C1735 C1731 1.429 . S
C1735 C1736 1.523 . S
C1736 C1720 1.368 . S
C1736 C1732 1.368 . S
C1736 C1735 1.523 . S
H1737 C1712 0.950 . S
H1738 C1714 0.950 . S
H1739 C1715 0.949 . S
H1740 C1717 0.950 . S
H1741 C1719 0.950 . S
C1742 C1743 1.349 . S
C1742 C1744 1.327 . S
C1742 H1767 0.950 . S
C1743 C1742 1.349 . S
C1743 C1759 1.349 . S
C1744 C1742 1.327 . S
C1744 C1763 1.429 . S
C1744 H1768 0.950 . S
C1745 C1762 1.574 . S
C1745 C1764 1.368 . S
C1745 H1769 0.949 . S
H1746 C1750 0.949 1_545 S
C1747 C1748 1.349 . S
C1747 C1749 1.327 1_545 S
C1747 H1770 0.950 . S
C1748 C1747 1.349 . S
C1748 C1760 1.349 . S
C1749 C1747 1.327 1_565 S
C1749 C1765 1.429 . S
C1749 H1771 0.950 . S
C1750 H1746 0.949 1_565 S
C1750 C1758 1.574 . S
C1750 C1766 1.368 . S
H1751 C1759 0.950 . S
H1752 C1757 0.950 . S
H1753 C1758 0.949 . S
H1754 C1760 0.950 . S
H1755 C1761 0.950 . S
H1756 C1762 0.949 . S
C1757 H1752 0.950 . S
C1757 C1759 1.327 . S
C1757 C1763 1.429 . S
C1758 C1750 1.574 . S
C1758 H1753 0.949 . S
C1758 C1764 1.368 . S
C1759 C1743 1.349 . S
C1759 H1751 0.950 . S
C1759 C1757 1.327 . S
C1760 C1748 1.349 . S
C1760 H1754 0.950 . S
C1760 C1761 1.327 . S
C1761 H1755 0.950 . S
C1761 C1760 1.327 . S
C1761 C1765 1.429 1_545 S
C1762 C1745 1.574 . S
C1762 H1756 0.949 . S
C1762 C1766 1.368 . S
C1763 C1744 1.429 . S
C1763 C1757 1.429 . S
C1763 C1764 1.523 . S
C1764 C1745 1.368 . S
C1764 C1758 1.368 . S
C1764 C1763 1.523 . S
C1765 C1749 1.429 . S
C1765 C1761 1.429 1_565 S
C1765 C1766 1.523 . S
C1766 C1750 1.368 . S
C1766 C1762 1.368 . S
C1766 C1765 1.523 . S
H1767 C1742 0.950 . S
H1768 C1744 0.950 . S
H1769 C1745 0.949 . S
H1770 C1747 0.950 . S
H1771 C1749 0.950 . S
C1772 C1773 1.349 . S
C1772 C1774 1.327 . S
C1772 H1797 0.950 . S
C1773 C1772 1.349 . S
C1773 C1789 1.349 . S
C1774 C1772 1.327 . S
C1774 C1793 1.429 . S
C1774 H1798 0.950 . S
C1775 C1792 1.574 . S
C1775 C1794 1.368 . S
C1775 H1799 0.949 . S
H1776 C1780 0.949 . S
C1777 C1778 1.366 . S
C1777 C1779 1.277 1_554 S
C1777 H1800 0.986 . S
C1778 C1777 1.366 . S
C1778 C1790 1.349 1_554 S
C1779 C1777 1.277 1_556 S
C1779 C1795 1.429 . S
C1779 H1801 0.950 . S
C1780 H1776 0.949 . S
C1780 C1788 1.574 . S
C1780 C1796 1.368 . S
H1781 C1789 0.950 . S
H1782 C1787 0.950 . S
H1783 C1788 0.949 . S
H1784 C1790 0.976 . S
H1785 C1791 0.950 . S
H1786 C1792 0.949 . S
C1787 H1782 0.950 . S
C1787 C1789 1.327 . S
C1787 C1793 1.429 . S
C1788 C1780 1.574 . S
C1788 H1783 0.949 . S
C1788 C1794 1.368 . S
C1789 C1773 1.349 . S
C1789 H1781 0.950 . S
C1789 C1787 1.327 . S
C1790 C1778 1.349 1_556 S
C1790 H1784 0.976 . S
C1790 C1791 1.327 . S
C1791 H1785 0.950 . S
C1791 C1790 1.327 . S
C1791 C1795 1.429 . S
C1792 C1775 1.574 . S
C1792 H1786 0.949 . S
C1792 C1796 1.368 . S
C1793 C1774 1.429 . S
C1793 C1787 1.429 . S
C1793 C1794 1.523 . S
C1794 C1775 1.368 . S
C1794 C1788 1.368 . S
C1794 C1793 1.523 . S
C1795 C1779 1.429 . S
C1795 C1791 1.429 . S
C1795 C1796 1.523 . S
C1796 C1780 1.368 . S
C1796 C1792 1.368 . S
C1796 C1795 1.523 . S
H1797 C1772 0.950 . S
H1798 C1774 0.950 . S
H1799 C1775 0.949 . S
H1800 C1777 0.986 . S
H1801 C1779 0.950 . S
C1802 C1803 1.349 1_545 S
C1802 C1804 1.327 . S
C1802 H1827 0.950 . S
C1803 C1802 1.349 1_565 S
C1803 C1819 1.349 . S
C1804 C1802 1.327 . S
C1804 C1823 1.429 . S
C1804 H1828 0.950 . S
C1805 C1822 1.586 . S
C1805 C1824 1.384 . S
C1805 H1829 0.924 1_545 S
H1806 C1810 0.949 . S
C1807 C1808 1.349 . S
C1807 C1809 1.327 . S
C1807 H1830 0.950 . S
C1808 C1807 1.349 . S
C1808 C1820 1.349 . S
C1809 C1807 1.327 . S
C1809 C1825 1.429 . S
C1809 H1831 0.950 . S
C1810 H1806 0.949 . S
C1810 C1818 1.574 . S
C1810 C1826 1.368 . S
H1811 C1819 0.950 . S
H1812 C1817 0.950 . S
H1813 C1818 0.949 . S
H1814 C1820 0.950 . S
H1815 C1821 0.950 . S
H1816 C1822 0.949 . S
C1817 H1812 0.950 . S
C1817 C1819 1.327 . S
C1817 C1823 1.429 1_565 S
C1818 C1810 1.574 . S
C1818 H1813 0.949 . S
C1818 C1824 1.368 . S
C1819 C1803 1.349 . S
C1819 H1811 0.950 . S
C1819 C1817 1.327 . S
C1820 C1808 1.349 . S
C1820 H1814 0.950 . S
C1820 C1821 1.327 . S
C1821 H1815 0.950 . S
C1821 C1820 1.327 . S
C1821 C1825 1.429 . S
C1822 C1805 1.586 . S
C1822 H1816 0.949 . S
C1822 C1826 1.368 . S
C1823 C1804 1.429 . S
C1823 C1817 1.429 1_545 S
C1823 C1824 1.523 . S
C1824 C1805 1.384 . S
C1824 C1818 1.368 . S
C1824 C1823 1.523 . S
C1825 C1809 1.429 . S
C1825 C1821 1.429 . S
C1825 C1826 1.523 . S
C1826 C1810 1.368 . S
C1826 C1822 1.368 . S
C1826 C1825 1.523 . S
H1827 C1802 0.950 . S
H1828 C1804 0.950 . S
H1829 C1805 0.924 1_565 S
H1830 C1807 0.950 . S
H1831 C1809 0.950 . S
C1832 C1833 1.349 . S
C1832 C1834 1.327 . S
C1832 H1857 0.950 . S
C1833 C1832 1.349 . S
C1833 C1849 1.349 . S
C1834 C1832 1.327 . S
C1834 C1853 1.429 . S
C1834 H1858 0.950 . S
C1835 C1852 1.574 . S
C1835 C1854 1.368 . S
C1835 H1859 0.949 . S
H1836 C1840 0.949 . S
C1837 C1838 1.349 . S
C1837 C1839 1.327 . S
C1837 H1860 0.950 . S
C1838 C1837 1.349 . S
C1838 C1850 1.349 . S
C1839 C1837 1.327 . S
C1839 C1855 1.429 . S
C1839 H1861 0.950 . S
C1840 H1836 0.949 . S
C1840 C1848 1.574 . S
C1840 C1856 1.368 . S
H1841 C1849 0.950 . S
H1842 C1847 0.950 . S
H1843 C1848 0.949 . S
H1844 C1850 0.950 . S
H1845 C1851 0.950 . S
H1846 C1852 0.949 . S
C1847 H1842 0.950 . S
C1847 C1849 1.327 . S
C1847 C1853 1.429 . S
C1848 C1840 1.574 . S
C1848 H1843 0.949 . S
C1848 C1854 1.368 . S
C1849 C1833 1.349 . S
C1849 H1841 0.950 . S
C1849 C1847 1.327 . S
C1850 C1838 1.349 . S
C1850 H1844 0.950 . S
C1850 C1851 1.327 . S
C1851 H1845 0.950 . S
C1851 C1850 1.327 . S
C1851 C1855 1.429 . S
C1852 C1835 1.574 . S
C1852 H1846 0.949 . S
C1852 C1856 1.368 . S
C1853 C1834 1.429 . S
C1853 C1847 1.429 . S
C1853 C1854 1.523 . S
C1854 C1835 1.368 . S
C1854 C1848 1.368 . S
C1854 C1853 1.523 . S
C1855 C1839 1.429 . S
C1855 C1851 1.429 . S
C1855 C1856 1.523 . S
C1856 C1840 1.368 . S
C1856 C1852 1.368 . S
C1856 C1855 1.523 . S
H1857 C1832 0.950 . S
H1858 C1834 0.950 . S
H1859 C1835 0.949 . S
H1860 C1837 0.950 . S
H1861 C1839 0.950 . S
C1862 C1863 1.349 . S
C1862 C1864 1.327 . S
C1862 H1887 0.950 . S
C1863 C1862 1.349 . S
C1863 C1879 1.349 . S
C1864 C1862 1.327 . S
C1864 C1883 1.429 . S
C1864 H1888 0.950 . S
C1865 C1882 1.574 . S
C1865 C1884 1.368 . S
C1865 H1889 0.949 . S
H1866 C1870 0.949 . S
C1867 C1868 1.349 . S
C1867 C1869 1.327 . S
C1867 H1890 0.950 . S
C1868 C1867 1.349 . S
C1868 C1880 1.349 . S
C1869 C1867 1.327 . S
C1869 C1885 1.429 1_565 S
C1869 H1891 0.950 . S
C1870 H1866 0.949 . S
C1870 C1878 1.574 . S
C1870 C1886 1.368 . S
H1871 C1879 0.950 . S
H1872 C1877 0.950 . S
H1873 C1878 0.949 . S
H1874 C1880 0.950 . S
H1875 C1881 0.950 . S
H1876 C1882 0.949 1_565 S
C1877 H1872 0.950 . S
C1877 C1879 1.327 . S
C1877 C1883 1.429 . S
C1878 C1870 1.574 . S
C1878 H1873 0.949 . S
C1878 C1884 1.368 . S
C1879 C1863 1.349 . S
C1879 H1871 0.950 . S
C1879 C1877 1.327 . S
C1880 C1868 1.349 . S
C1880 H1874 0.950 . S
C1880 C1881 1.327 1_565 S
C1881 H1875 0.950 . S
C1881 C1880 1.327 1_545 S
C1881 C1885 1.429 . S
C1882 C1865 1.574 . S
C1882 H1876 0.949 1_545 S
C1882 C1886 1.368 . S
C1883 C1864 1.429 . S
C1883 C1877 1.429 . S
C1883 C1884 1.523 . S
C1884 C1865 1.368 . S
C1884 C1878 1.368 . S
C1884 C1883 1.523 . S
C1885 C1869 1.429 1_545 S
C1885 C1881 1.429 . S
C1885 C1886 1.523 . S
C1886 C1870 1.368 . S
C1886 C1882 1.368 . S
C1886 C1885 1.523 . S
H1887 C1862 0.950 . S
H1888 C1864 0.950 . S
H1889 C1865 0.949 . S
H1890 C1867 0.950 . S
H1891 C1869 0.950 . S
C1892 C1893 1.349 . S
C1892 C1894 1.327 . S
C1892 H1917 0.950 . S
C1893 C1892 1.349 . S
C1893 C1909 1.349 . S
C1894 C1892 1.327 . S
C1894 C1913 1.429 . S
C1894 H1918 0.950 . S
C1895 C1912 1.574 . S
C1895 C1914 1.368 . S
C1895 H1919 0.949 . S
H1896 C1900 0.949 . S
C1897 C1898 1.349 1_554 S
C1897 C1899 1.327 . S
C1897 H1920 0.950 . S
C1898 C1897 1.349 1_556 S
C1898 C1910 1.349 . S
C1899 C1897 1.327 . S
C1899 C1915 1.429 . S
C1899 H1921 0.950 . S
C1900 H1896 0.949 . S
C1900 C1908 1.574 . S
C1900 C1916 1.368 . S
H1901 C1909 0.950 . S
H1902 C1907 0.950 . S
H1903 C1908 0.949 . S
H1904 C1910 0.950 . S
H1905 C1911 0.950 . S
H1906 C1912 0.949 . S
C1907 H1902 0.950 . S
C1907 C1909 1.327 . S
C1907 C1913 1.429 . S
C1908 C1900 1.574 . S
C1908 H1903 0.949 . S
C1908 C1914 1.368 . S
C1909 C1893 1.349 . S
C1909 H1901 0.950 . S
C1909 C1907 1.327 . S
C1910 C1898 1.349 . S
C1910 H1904 0.950 . S
C1910 C1911 1.327 1_556 S
C1911 H1905 0.950 . S
C1911 C1910 1.327 1_554 S
C1911 C1915 1.429 . S
C1912 C1895 1.574 . S
C1912 H1906 0.949 . S
C1912 C1916 1.368 . S
C1913 C1894 1.429 . S
C1913 C1907 1.429 . S
C1913 C1914 1.523 . S
C1914 C1895 1.368 . S
C1914 C1908 1.368 . S
C1914 C1913 1.523 . S
C1915 C1899 1.429 . S
C1915 C1911 1.429 . S
C1915 C1916 1.523 . S
C1916 C1900 1.368 . S
C1916 C1912 1.368 . S
C1916 C1915 1.523 . S
H1917 C1892 0.950 . S
H1918 C1894 0.950 . S
H1919 C1895 0.949 . S
H1920 C1897 0.950 . S
H1921 C1899 0.950 . S
C1922 C1923 1.349 . S
C1922 C1924 1.327 . S
C1922 H1947 0.950 . S
C1923 C1922 1.349 . S
C1923 C1939 1.349 . S
C1924 C1922 1.327 . S
C1924 C1943 1.429 . S
C1924 H1948 0.950 . S
C1925 C1942 1.574 . S
C1925 C1944 1.368 . S
C1925 H1949 0.949 . S
H1926 C1930 0.949 . S
C1927 C1928 1.349 . S
C1927 C1929 1.327 . S
C1927 H1950 0.950 . S
C1928 C1927 1.349 . S
C1928 C1940 1.349 . S
C1929 C1927 1.327 . S
C1929 C1945 1.429 1_545 S
C1929 H1951 0.950 . S
C1930 H1926 0.949 . S
C1930 C1938 1.574 . S
C1930 C1946 1.368 . S
H1931 C1939 0.950 . S
H1932 C1937 0.950 . S
H1933 C1938 0.949 . S
H1934 C1940 0.950 1_565 S
H1935 C1941 0.950 . S
H1936 C1942 0.949 1_545 S
C1937 H1932 0.950 . S
C1937 C1939 1.327 . S
C1937 C1943 1.429 . S
C1938 C1930 1.574 . S
C1938 H1933 0.949 . S
C1938 C1944 1.368 . S
C1939 C1923 1.349 . S
C1939 H1931 0.950 . S
C1939 C1937 1.327 . S
C1940 C1928 1.349 . S
C1940 H1934 0.950 1_545 S
C1940 C1941 1.327 1_545 S
C1941 H1935 0.950 . S
C1941 C1940 1.327 1_565 S
C1941 C1945 1.429 . S
C1942 C1925 1.574 . S
C1942 H1936 0.949 1_565 S
C1942 C1946 1.368 . S
C1943 C1924 1.429 . S
C1943 C1937 1.429 . S
C1943 C1944 1.523 . S
C1944 C1925 1.368 . S
C1944 C1938 1.368 . S
C1944 C1943 1.523 . S
C1945 C1929 1.429 1_565 S
C1945 C1941 1.429 . S
C1945 C1946 1.523 . S
C1946 C1930 1.368 . S
C1946 C1942 1.368 . S
C1946 C1945 1.523 . S
H1947 C1922 0.950 . S
H1948 C1924 0.950 . S
H1949 C1925 0.949 . S
H1950 C1927 0.950 . S
H1951 C1929 0.950 . S
C513 C29 0.896 . S
C518 C349 0.896 . S
C543 C36 0.895 . S
C548 C381 0.895 . S
C573 C93 0.896 . S
C578 C285 0.896 . S
C603 C292 0.895 . S
C608 C125 0.895 . S
C633 C157 0.896 . S
C638 C452 0.896 . S
C663 C509 0.895 . S
C668 C164 0.895 . S
C693 C413 0.896 . S
C698 C221 0.896 . S
C723 C253 0.895 . S
C728 C420 0.895 . S
C753 C6 2.798 . S
C758 C134 2.798 . S
C783 C34 2.798 . S
C788 C418 2.798 . S
C813 C70 2.798 . S
C818 C198 2.798 . S
C843 C102 2.798 . S
C848 C486 2.798 . S
C873 C162 2.798 . S
C878 C290 2.798 . S
C903 C358 2.798 . S
C908 C230 2.798 . S
C933 C390 2.798 . S
C938 C262 2.798 . S
C963 C326 2.798 . S
C968 C450 2.798 . S
C993 C4 1.964 . S
C998 C226 1.968 . S
C1023 C61 1.964 . S
C1028 C386 1.968 . S
C1053 C68 1.964 . S
C1058 C166 1.968 . S
C1083 C100 1.964 . S
C1088 C454 1.968 . S
C1113 C98 1.968 . S
C1118 C132 1.964 . S
C1143 C189 1.964 . S
C1148 C258 1.968 . S
C1173 C196 1.964 . S
C1178 C38 1.968 . S
C1203 C322 1.968 . S
C1208 C228 1.964 . S
C1233 C260 1.964 . S
C1238 C482 1.968 1_565 S
C1263 C130 1.968 . S
C1268 C317 1.964 . S
C1293 C422 1.968 1_545 S
C1298 C324 1.964 . S
C1323 C194 1.968 . S
C1328 C356 1.964 . S
C1353 C388 1.964 . S
C1358 C354 1.968 1_545 S
C1383 C445 1.964 . S
C1388 C2 1.968 . S
C1413 C294 1.968 1_565 S
C1418 C477 1.964 . S
C1443 C484 1.964 . S
C1448 C66 1.968 . S
C1473 N13 0.866 . S
C1478 N301 0.878 . S
C1503 N338 0.878 . S
C1508 N50 0.866 . S
C1533 N77 0.866 . S
C1538 N370 0.877 . S
C1563 N274 0.878 . S
C1568 N109 0.866 . S
C1593 N429 0.878 . S
C1598 N141 0.866 . S
C1623 N461 0.878 . S
C1628 N178 0.866 . S
C1653 N498 0.877 . S
C1658 N205 0.866 . S
C1683 N402 0.878 . S
C1688 N237 0.866 . S
C1713 N45 0.877 . S
C1718 N269 0.866 . S
C1743 N82 0.878 . S
C1748 N306 0.866 . S
C1773 N114 0.877 . S
C1778 N333 0.866 . S
C1803 N365 0.866 . S
C1808 N18 0.878 . S
C1833 N173 0.877 . S
C1838 N397 0.866 . S
C1863 N210 0.878 . S
C1868 N434 0.866 . S
C1893 N242 0.877 . S
C1898 N466 0.866 . S
C1923 N146 0.878 . S
C1928 N493 0.866 . S
