# Generated by pormake.
# Topology uow, (4)-cn, num edge types: 1
# Building blocks:
#     Node 0, Type 0, BuildingBlock: CEKHIL_clean_sbu_0, # of connection points: 4
#     Node 1, Type 0, BuildingBlock: CEKHIL_clean_sbu_0, # of connection points: 4
#     Node 2, Type 0, BuildingBlock: CEKHIL_clean_sbu_0, # of connection points: 4
#     Node 3, Type 0, BuildingBlock: CEKHIL_clean_sbu_0, # of connection points: 4
#     Node 4, Type 0, BuildingBlock: CEKHIL_clean_sbu_0, # of connection points: 4
#     Node 5, Type 0, BuildingBlock: CEKHIL_clean_sbu_0, # of connection points: 4
#     Node 6, Type 0, BuildingBlock: CEKHIL_clean_sbu_0, # of connection points: 4
#     Node 7, Type 0, BuildingBlock: CEKHIL_clean_sbu_0, # of connection points: 4
#     Node 8, Type 0, BuildingBlock: CEKHIL_clean_sbu_0, # of connection points: 4
#     Node 9, Type 0, BuildingBlock: CEKHIL_clean_sbu_0, # of connection points: 4
#     Node 10, Type 0, BuildingBlock: CEKHIL_clean_sbu_0, # of connection points: 4
#     Node 11, Type 0, BuildingBlock: CEKHIL_clean_sbu_0, # of connection points: 4
#     Node 12, Type 0, BuildingBlock: CEKHIL_clean_sbu_0, # of connection points: 4
#     Node 13, Type 0, BuildingBlock: CEKHIL_clean_sbu_0, # of connection points: 4
#     Node 14, Type 0, BuildingBlock: CEKHIL_clean_sbu_0, # of connection points: 4
#     Node 15, Type 0, BuildingBlock: CEKHIL_clean_sbu_0, # of connection points: 4
#     Node 16, Type 0, BuildingBlock: CEKHIL_clean_sbu_0, # of connection points: 4
#     Node 17, Type 0, BuildingBlock: CEKHIL_clean_sbu_0, # of connection points: 4
#     Node 18, Type 0, BuildingBlock: CEKHIL_clean_sbu_0, # of connection points: 4
#     Node 19, Type 0, BuildingBlock: CEKHIL_clean_sbu_0, # of connection points: 4
#     Node 20, Type 0, BuildingBlock: CEKHIL_clean_sbu_0, # of connection points: 4
#     Node 21, Type 0, BuildingBlock: CEKHIL_clean_sbu_0, # of connection points: 4
#     Node 22, Type 0, BuildingBlock: CEKHIL_clean_sbu_0, # of connection points: 4
#     Node 23, Type 0, BuildingBlock: CEKHIL_clean_sbu_0, # of connection points: 4
#     Node 24, Type 0, BuildingBlock: CEKHIL_clean_sbu_0, # of connection points: 4
#     Node 25, Type 0, BuildingBlock: CEKHIL_clean_sbu_0, # of connection points: 4
#     Node 26, Type 0, BuildingBlock: CEKHIL_clean_sbu_0, # of connection points: 4
#     Node 27, Type 0, BuildingBlock: CEKHIL_clean_sbu_0, # of connection points: 4
#     Node 28, Type 0, BuildingBlock: CEKHIL_clean_sbu_0, # of connection points: 4
#     Node 29, Type 0, BuildingBlock: CEKHIL_clean_sbu_0, # of connection points: 4
#     Node 30, Type 0, BuildingBlock: CEKHIL_clean_sbu_0, # of connection points: 4
#     Node 31, Type 0, BuildingBlock: CEKHIL_clean_sbu_0, # of connection points: 4
#     Edge 32, Type (0, 0), BuildingBlock: ZUJKAS_clean_linker_0, # of connection points: 2
#     Edge 33, Type (0, 0), BuildingBlock: ZUJKAS_clean_linker_0, # of connection points: 2
#     Edge 34, Type (0, 0), BuildingBlock: ZUJKAS_clean_linker_0, # of connection points: 2
#     Edge 35, Type (0, 0), BuildingBlock: ZUJKAS_clean_linker_0, # of connection points: 2
#     Edge 36, Type (0, 0), BuildingBlock: ZUJKAS_clean_linker_0, # of connection points: 2
#     Edge 37, Type (0, 0), BuildingBlock: ZUJKAS_clean_linker_0, # of connection points: 2
#     Edge 38, Type (0, 0), BuildingBlock: ZUJKAS_clean_linker_0, # of connection points: 2
#     Edge 39, Type (0, 0), BuildingBlock: ZUJKAS_clean_linker_0, # of connection points: 2
#     Edge 40, Type (0, 0), BuildingBlock: ZUJKAS_clean_linker_0, # of connection points: 2
#     Edge 41, Type (0, 0), BuildingBlock: ZUJKAS_clean_linker_0, # of connection points: 2
#     Edge 42, Type (0, 0), BuildingBlock: ZUJKAS_clean_linker_0, # of connection points: 2
#     Edge 43, Type (0, 0), BuildingBlock: ZUJKAS_clean_linker_0, # of connection points: 2
#     Edge 44, Type (0, 0), BuildingBlock: ZUJKAS_clean_linker_0, # of connection points: 2
#     Edge 45, Type (0, 0), BuildingBlock: ZUJKAS_clean_linker_0, # of connection points: 2
#     Edge 46, Type (0, 0), BuildingBlock: ZUJKAS_clean_linker_0, # of connection points: 2
#     Edge 47, Type (0, 0), BuildingBlock: ZUJKAS_clean_linker_0, # of connection points: 2
#     Edge 48, Type (0, 0), BuildingBlock: ZUJKAS_clean_linker_0, # of connection points: 2
#     Edge 49, Type (0, 0), BuildingBlock: ZUJKAS_clean_linker_0, # of connection points: 2
#     Edge 50, Type (0, 0), BuildingBlock: ZUJKAS_clean_linker_0, # of connection points: 2
#     Edge 51, Type (0, 0), BuildingBlock: ZUJKAS_clean_linker_0, # of connection points: 2
#     Edge 52, Type (0, 0), BuildingBlock: ZUJKAS_clean_linker_0, # of connection points: 2
#     Edge 53, Type (0, 0), BuildingBlock: ZUJKAS_clean_linker_0, # of connection points: 2
#     Edge 54, Type (0, 0), BuildingBlock: ZUJKAS_clean_linker_0, # of connection points: 2
#     Edge 55, Type (0, 0), BuildingBlock: ZUJKAS_clean_linker_0, # of connection points: 2
#     Edge 56, Type (0, 0), BuildingBlock: ZUJKAS_clean_linker_0, # of connection points: 2
#     Edge 57, Type (0, 0), BuildingBlock: ZUJKAS_clean_linker_0, # of connection points: 2
#     Edge 58, Type (0, 0), BuildingBlock: ZUJKAS_clean_linker_0, # of connection points: 2
#     Edge 59, Type (0, 0), BuildingBlock: ZUJKAS_clean_linker_0, # of connection points: 2
#     Edge 60, Type (0, 0), BuildingBlock: ZUJKAS_clean_linker_0, # of connection points: 2
#     Edge 61, Type (0, 0), BuildingBlock: ZUJKAS_clean_linker_0, # of connection points: 2
#     Edge 62, Type (0, 0), BuildingBlock: ZUJKAS_clean_linker_0, # of connection points: 2
#     Edge 63, Type (0, 0), BuildingBlock: ZUJKAS_clean_linker_0, # of connection points: 2
#     Edge 64, Type (0, 0), BuildingBlock: ZUJKAS_clean_linker_0, # of connection points: 2
#     Edge 65, Type (0, 0), BuildingBlock: ZUJKAS_clean_linker_0, # of connection points: 2
#     Edge 66, Type (0, 0), BuildingBlock: ZUJKAS_clean_linker_0, # of connection points: 2
#     Edge 67, Type (0, 0), BuildingBlock: ZUJKAS_clean_linker_0, # of connection points: 2
#     Edge 68, Type (0, 0), BuildingBlock: ZUJKAS_clean_linker_0, # of connection points: 2
#     Edge 69, Type (0, 0), BuildingBlock: ZUJKAS_clean_linker_0, # of connection points: 2
#     Edge 70, Type (0, 0), BuildingBlock: ZUJKAS_clean_linker_0, # of connection points: 2
#     Edge 71, Type (0, 0), BuildingBlock: ZUJKAS_clean_linker_0, # of connection points: 2
#     Edge 72, Type (0, 0), BuildingBlock: ZUJKAS_clean_linker_0, # of connection points: 2
#     Edge 73, Type (0, 0), BuildingBlock: ZUJKAS_clean_linker_0, # of connection points: 2
#     Edge 74, Type (0, 0), BuildingBlock: ZUJKAS_clean_linker_0, # of connection points: 2
#     Edge 75, Type (0, 0), BuildingBlock: ZUJKAS_clean_linker_0, # of connection points: 2
#     Edge 76, Type (0, 0), BuildingBlock: ZUJKAS_clean_linker_0, # of connection points: 2
#     Edge 77, Type (0, 0), BuildingBlock: ZUJKAS_clean_linker_0, # of connection points: 2
#     Edge 78, Type (0, 0), BuildingBlock: ZUJKAS_clean_linker_0, # of connection points: 2
#     Edge 79, Type (0, 0), BuildingBlock: ZUJKAS_clean_linker_0, # of connection points: 2
#     Edge 80, Type (0, 0), BuildingBlock: ZUJKAS_clean_linker_0, # of connection points: 2
#     Edge 81, Type (0, 0), BuildingBlock: ZUJKAS_clean_linker_0, # of connection points: 2
#     Edge 82, Type (0, 0), BuildingBlock: ZUJKAS_clean_linker_0, # of connection points: 2
#     Edge 83, Type (0, 0), BuildingBlock: ZUJKAS_clean_linker_0, # of connection points: 2
#     Edge 84, Type (0, 0), BuildingBlock: ZUJKAS_clean_linker_0, # of connection points: 2
#     Edge 85, Type (0, 0), BuildingBlock: ZUJKAS_clean_linker_0, # of connection points: 2
#     Edge 86, Type (0, 0), BuildingBlock: ZUJKAS_clean_linker_0, # of connection points: 2
#     Edge 87, Type (0, 0), BuildingBlock: ZUJKAS_clean_linker_0, # of connection points: 2
#     Edge 88, Type (0, 0), BuildingBlock: ZUJKAS_clean_linker_0, # of connection points: 2
#     Edge 89, Type (0, 0), BuildingBlock: ZUJKAS_clean_linker_0, # of connection points: 2
#     Edge 90, Type (0, 0), BuildingBlock: ZUJKAS_clean_linker_0, # of connection points: 2
#     Edge 91, Type (0, 0), BuildingBlock: ZUJKAS_clean_linker_0, # of connection points: 2
#     Edge 92, Type (0, 0), BuildingBlock: ZUJKAS_clean_linker_0, # of connection points: 2
#     Edge 93, Type (0, 0), BuildingBlock: ZUJKAS_clean_linker_0, # of connection points: 2
#     Edge 94, Type (0, 0), BuildingBlock: ZUJKAS_clean_linker_0, # of connection points: 2
#     Edge 95, Type (0, 0), BuildingBlock: ZUJKAS_clean_linker_0, # of connection points: 2
# Relax obj value: 0.099
# Max RMSD: 0.128
# Mean RMSD: 0.128
data_MOF--net-uow--node1-CEKHIL_clean_sbu_0--edge1-ZUJKAS_clean_linker_0
_symmetry_space_group_name_H-M    P1
_symmetry_Int_Tables_number       1
_symmetry_cell_setting            triclinic
loop_
_symmetry_equiv_pos_as_xyz
'x, y, z'
_cell_length_a     79.987097
_cell_length_b     80.004793
_cell_length_c     51.898778
_cell_angle_alpha  89.980007
_cell_angle_beta   90.000855
_cell_angle_gamma 90.008993
loop_
_atom_site_label
_atom_site_type_symbol
_atom_site_fract_x
_atom_site_fract_y
_atom_site_fract_z
_atom_type_partial_charge
Co0 Co 0.05554 0.39066 0.28912 0.0
O1 O 0.0507 0.41218 0.27479 0.0
O2 O 0.07457 0.40537 0.2937 0.0
C3 C 0.03095 0.38725 0.30979 0.0
O4 O 0.0647 0.36969 0.30654 0.0
Co5 Co 0.03396 0.36 0.27281 0.0
O6 O 0.04611 0.34883 0.30134 0.0
C7 C 0.05899 0.37376 0.2369 0.0
C8 C 0.06568 0.41653 0.28163 0.0
C9 C 0.05949 0.35474 0.31114 0.0
O10 O 0.06472 0.38319 0.25489 0.0
O11 O 0.04591 0.36468 0.23957 0.0
O12 O 0.04281 0.396 0.32038 0.0
O13 O 0.0338 0.38242 0.28651 0.0
Co14 Co 0.85985 0.80527 0.53995 0.0
O15 O 0.83822 0.80069 0.52582 0.0
O16 O 0.84519 0.82423 0.54556 0.0
C17 C 0.86343 0.78037 0.55958 0.0
O18 O 0.88095 0.81403 0.55747 0.0
Co19 Co 0.89027 0.78401 0.52173 0.0
O20 O 0.90193 0.7959 0.55002 0.0
C21 C 0.87625 0.80974 0.48746 0.0
C22 C 0.83392 0.81554 0.53336 0.0
C23 C 0.89607 0.8089 0.56099 0.0
O24 O 0.86707 0.81512 0.50602 0.0
O25 O 0.88526 0.79656 0.48917 0.0
O26 O 0.85469 0.79202 0.57073 0.0
O27 O 0.86805 0.78358 0.5363 0.0
Co28 Co 0.44619 0.60837 0.78998 0.0
O29 O 0.45098 0.58665 0.77638 0.0
O30 O 0.42711 0.59378 0.79502 0.0
C31 C 0.47075 0.61206 0.81063 0.0
O32 O 0.43706 0.62954 0.80665 0.0
Co33 Co 0.46783 0.63877 0.77269 0.0
O34 O 0.45576 0.65027 0.80103 0.0
C35 C 0.44251 0.62486 0.73744 0.0
C36 C 0.43598 0.58243 0.78335 0.0
C37 C 0.44233 0.64451 0.81087 0.0
O38 O 0.43696 0.61546 0.75561 0.0
O39 O 0.4556 0.63397 0.73972 0.0
O40 O 0.45888 0.60342 0.82143 0.0
O41 O 0.46795 0.61655 0.78716 0.0
Co42 Co 0.64114 0.19456 0.03683 0.0
O43 O 0.66272 0.19914 0.0225 0.0
O44 O 0.65595 0.17574 0.04279 0.0
C45 C 0.63764 0.21964 0.05598 0.0
O46 O 0.62014 0.18578 0.05457 0.0
Co47 Co 0.61052 0.21558 0.01889 0.0
O48 O 0.59926 0.20416 0.04806 0.0
C49 C 0.62425 0.18947 0.98487 0.0
C50 C 0.66716 0.18443 0.03045 0.0
C51 C 0.60516 0.19106 0.05871 0.0
O52 O 0.63382 0.18442 0.00319 0.0
O53 O 0.61509 0.20256 0.98657 0.0
O54 O 0.64632 0.20804 0.06733 0.0
O55 O 0.63288 0.21624 0.03283 0.0
Co56 Co 0.05375 0.6078 0.21024 0.0
O57 O 0.0497 0.58611 0.22449 0.0
O58 O 0.07291 0.59345 0.20412 0.0
C59 C 0.0286 0.61088 0.19119 0.0
O60 O 0.062 0.62904 0.19261 0.0
Co61 Co 0.0321 0.63787 0.22849 0.0
O62 O 0.04292 0.64932 0.19891 0.0
C63 C 0.0586 0.62464 0.26228 0.0
C64 C 0.06454 0.58206 0.21658 0.0
C65 C 0.0562 0.6438 0.18828 0.0
O66 O 0.0638 0.61524 0.24389 0.0
O67 O 0.04532 0.63353 0.26072 0.0
O68 O 0.04037 0.6025 0.17969 0.0
O69 O 0.0319 0.61553 0.21442 0.0
Co70 Co 0.64365 0.80493 0.45788 0.0
O71 O 0.6659 0.80042 0.46947 0.0
O72 O 0.65778 0.82426 0.45174 0.0
C73 C 0.63961 0.7804 0.43735 0.0
O74 O 0.62167 0.81362 0.44306 0.0
Co75 Co 0.61467 0.78258 0.47853 0.0
O76 O 0.60122 0.79541 0.45326 0.0
C77 C 0.62957 0.80808 0.51223 0.0
C78 C 0.66967 0.81547 0.46225 0.0
C79 C 0.60639 0.80856 0.44184 0.0
O80 O 0.63776 0.81397 0.49295 0.0
O81 O 0.62088 0.79466 0.511 0.0
O82 O 0.64763 0.79246 0.42595 0.0
O83 O 0.63603 0.78299 0.46124 0.0
Co84 Co 0.44738 0.39187 0.70985 0.0
O85 O 0.45179 0.41408 0.72161 0.0
O86 O 0.42812 0.406 0.70331 0.0
C87 C 0.47209 0.38786 0.68989 0.0
O88 O 0.43883 0.36992 0.69476 0.0
Co89 Co 0.46947 0.36283 0.73093 0.0
O90 O 0.45703 0.34949 0.70507 0.0
C91 C 0.44369 0.37775 0.76407 0.0
C92 C 0.43681 0.41787 0.71406 0.0
C93 C 0.44396 0.35466 0.69344 0.0
O94 O 0.43798 0.38593 0.74466 0.0
O95 O 0.45711 0.36906 0.76316 0.0
O96 O 0.46016 0.39591 0.67825 0.0
O97 O 0.46927 0.38422 0.7137 0.0
Co98 Co 0.85954 0.1952 0.95744 0.0
O99 O 0.83812 0.19985 0.97228 0.0
O100 O 0.84501 0.17595 0.95356 0.0
C101 C 0.86228 0.21969 0.9363 0.0
O102 O 0.88039 0.1862 0.93951 0.0
Co103 Co 0.89019 0.21731 0.97203 0.0
O104 O 0.90075 0.20553 0.94261 0.0
C105 C 0.87765 0.19209 0.00879 0.0
C106 C 0.83384 0.18482 0.96566 0.0
C107 C 0.89499 0.19185 0.93366 0.0
O108 O 0.86761 0.18637 0.99157 0.0
O109 O 0.88671 0.20511 0.00539 0.0
O110 O 0.85361 0.20761 0.92615 0.0
O111 O 0.86749 0.21707 0.95945 0.0
Co112 Co 0.94575 0.60659 0.7058 0.0
O113 O 0.94978 0.58458 0.71878 0.0
O114 O 0.92632 0.5926 0.69974 0.0
C115 C 0.97064 0.60986 0.68601 0.0
O116 O 0.93747 0.62829 0.68963 0.0
Co117 Co 0.96808 0.63596 0.72494 0.0
O118 O 0.95652 0.64844 0.69707 0.0
C119 C 0.94196 0.62225 0.75892 0.0
C120 C 0.93474 0.58088 0.71137 0.0
C121 C 0.94314 0.64322 0.68639 0.0
O122 O 0.93631 0.6134 0.74018 0.0
O123 O 0.95538 0.63093 0.75739 0.0
O124 O 0.95863 0.60185 0.67448 0.0
O125 O 0.96773 0.614 0.70958 0.0
Co126 Co 0.14254 0.19395 0.45722 0.0
O127 O 0.16396 0.19828 0.47228 0.0
O128 O 0.15717 0.17491 0.45194 0.0
C129 C 0.13963 0.21904 0.43782 0.0
O130 O 0.12166 0.18537 0.43892 0.0
Co131 Co 0.11191 0.21545 0.4739 0.0
O132 O 0.10097 0.20414 0.44436 0.0
C133 C 0.12481 0.18921 0.50854 0.0
C134 C 0.16828 0.18345 0.4647 0.0
C135 C 0.10682 0.19086 0.43419 0.0
O136 O 0.13462 0.18402 0.49065 0.0
O137 O 0.11581 0.20239 0.5064 0.0
O138 O 0.14835 0.20732 0.42682 0.0
O139 O 0.1345 0.21572 0.4608 0.0
Co140 Co 0.55578 0.39132 0.20863 0.0
O141 O 0.55133 0.41244 0.22458 0.0
O142 O 0.57472 0.40616 0.2039 0.0
C143 C 0.53071 0.38862 0.18909 0.0
O144 O 0.56447 0.37082 0.18935 0.0
Co145 Co 0.5344 0.36024 0.22369 0.0
O146 O 0.54548 0.35019 0.19321 0.0
C147 C 0.56027 0.37281 0.25934 0.0
C148 C 0.5661 0.41701 0.21705 0.0
C149 C 0.55882 0.35621 0.18347 0.0
O150 O 0.56565 0.38287 0.24187 0.0
O151 O 0.54716 0.36379 0.25653 0.0
O152 O 0.54239 0.39759 0.17845 0.0
O153 O 0.53406 0.38309 0.21183 0.0
Co154 Co 0.35834 0.80585 0.95476 0.0
O155 O 0.33703 0.80103 0.96982 0.0
O156 O 0.34355 0.8249 0.95067 0.0
C157 C 0.36123 0.7812 0.93415 0.0
O158 O 0.37907 0.81493 0.93651 0.0
Co159 Co 0.38924 0.78409 0.96948 0.0
O160 O 0.39965 0.79586 0.93994 0.0
C161 C 0.37619 0.80909 0.00618 0.0
C162 C 0.33254 0.81597 0.96302 0.0
C163 C 0.39374 0.80941 0.93072 0.0
O164 O 0.36636 0.81494 0.98876 0.0
O165 O 0.38524 0.79606 0.00286 0.0
O166 O 0.35245 0.7931 0.92373 0.0
O167 O 0.36649 0.78411 0.95716 0.0
Co168 Co 0.94529 0.39256 0.79031 0.0
O169 O 0.94963 0.41456 0.77752 0.0
O170 O 0.92569 0.40653 0.79507 0.0
C171 C 0.96969 0.38934 0.81156 0.0
O172 O 0.93666 0.37083 0.80588 0.0
Co173 Co 0.96826 0.36332 0.7722 0.0
O174 O 0.95573 0.3506 0.79886 0.0
C175 C 0.94372 0.3779 0.7366 0.0
C176 C 0.9344 0.41824 0.78392 0.0
C177 C 0.94215 0.35582 0.80898 0.0
O178 O 0.9368 0.38568 0.75542 0.0
O179 O 0.95746 0.3698 0.73868 0.0
O180 O 0.95743 0.39742 0.82234 0.0
O181 O 0.96729 0.38515 0.78788 0.0
Co182 Co 0.35854 0.19667 0.5384 0.0
O183 O 0.33622 0.20083 0.52683 0.0
O184 O 0.34469 0.17717 0.54475 0.0
C185 C 0.36226 0.22134 0.55858 0.0
O186 O 0.38061 0.18832 0.55334 0.0
Co187 Co 0.3874 0.21921 0.51795 0.0
O188 O 0.40071 0.20714 0.54431 0.0
C189 C 0.37264 0.19364 0.48415 0.0
C190 C 0.33266 0.18576 0.5342 0.0
C191 C 0.3957 0.19383 0.55544 0.0
O192 O 0.36453 0.1876 0.5034 0.0
O193 O 0.38122 0.20713 0.48545 0.0
O194 O 0.35448 0.20921 0.57022 0.0
O195 O 0.36586 0.21867 0.53473 0.0
Co196 Co 0.55443 0.61011 0.2853 0.0
O197 O 0.54977 0.58855 0.27101 0.0
O198 O 0.57331 0.59532 0.29088 0.0
C199 C 0.52951 0.61364 0.30494 0.0
O200 O 0.5633 0.63113 0.3029 0.0
Co201 Co 0.53324 0.64071 0.26768 0.0
O202 O 0.54465 0.65186 0.29697 0.0
C203 C 0.55914 0.62702 0.23324 0.0
C204 C 0.56457 0.58413 0.27862 0.0
C205 C 0.55788 0.64603 0.30733 0.0
O206 O 0.56431 0.61746 0.25149 0.0
O207 O 0.54606 0.63617 0.23514 0.0
O208 O 0.54119 0.60492 0.31605 0.0
O209 O 0.53273 0.61836 0.2817 0.0
Co210 Co 0.14063 0.80408 0.03805 0.0
O211 O 0.16235 0.79945 0.02429 0.0
O212 O 0.15532 0.823 0.04392 0.0
C213 C 0.13688 0.7792 0.05767 0.0
O214 O 0.11944 0.81289 0.05518 0.0
Co215 Co 0.11023 0.78284 0.01969 0.0
O216 O 0.0989 0.79406 0.04899 0.0
C217 C 0.12432 0.80867 0.98552 0.0
C218 C 0.16666 0.81427 0.03197 0.0
C219 C 0.10458 0.80732 0.05946 0.0
O220 O 0.13362 0.81392 0.00403 0.0
O221 O 0.11518 0.79557 0.98721 0.0
O222 O 0.14553 0.79086 0.06894 0.0
O223 O 0.13242 0.78239 0.03431 0.0
Co224 Co 0.55522 0.89156 0.78474 0.0
O225 O 0.55149 0.91314 0.76988 0.0
O226 O 0.57444 0.90582 0.79096 0.0
C227 C 0.52987 0.88883 0.80338 0.0
O228 O 0.56309 0.87036 0.803 0.0
Co229 Co 0.53343 0.86165 0.76606 0.0
O230 O 0.54468 0.84975 0.79475 0.0
C231 C 0.5603 0.87458 0.73283 0.0
C232 C 0.56629 0.91714 0.77798 0.0
C233 C 0.55761 0.85535 0.80627 0.0
O234 O 0.56551 0.88379 0.75145 0.0
O235 O 0.54684 0.86595 0.73405 0.0
O236 O 0.54159 0.89731 0.81483 0.0
O237 O 0.53334 0.88394 0.78031 0.0
Co238 Co 0.35889 0.30619 0.03769 0.0
O239 O 0.33745 0.30174 0.02282 0.0
O240 O 0.34415 0.32511 0.04324 0.0
C241 C 0.362 0.28106 0.05687 0.0
O242 O 0.37976 0.31487 0.05596 0.0
Co243 Co 0.38963 0.28494 0.02079 0.0
O244 O 0.40057 0.29629 0.05028 0.0
C245 C 0.37641 0.31107 0.98622 0.0
C246 C 0.33302 0.31648 0.03063 0.0
C247 C 0.39464 0.30948 0.06061 0.0
O248 O 0.36663 0.31624 0.0042 0.0
O249 O 0.3855 0.29797 0.98834 0.0
O250 O 0.35329 0.29271 0.06805 0.0
O251 O 0.36706 0.28449 0.03389 0.0
Co252 Co 0.94485 0.1083 0.28865 0.0
O253 O 0.94917 0.08683 0.27375 0.0
O254 O 0.92561 0.09385 0.2934 0.0
C255 C 0.96971 0.11109 0.30877 0.0
O256 O 0.93622 0.12925 0.30667 0.0
Co257 Co 0.96685 0.13875 0.27259 0.0
O258 O 0.95521 0.14979 0.30177 0.0
C259 C 0.94119 0.12583 0.237 0.0
C260 C 0.9342 0.08265 0.28088 0.0
C261 C 0.94177 0.14403 0.31159 0.0
O262 O 0.93545 0.11629 0.25486 0.0
O263 O 0.95449 0.1346 0.23954 0.0
O264 O 0.95781 0.10246 0.31949 0.0
O265 O 0.96669 0.11617 0.28567 0.0
Co266 Co 0.1399 0.69783 0.53581 0.0
O267 O 0.16214 0.70243 0.52421 0.0
O268 O 0.1542 0.67871 0.54253 0.0
C269 C 0.13562 0.72253 0.55563 0.0
O270 O 0.11803 0.68902 0.55082 0.0
Co271 Co 0.11053 0.71947 0.51499 0.0
O272 O 0.09744 0.7072 0.54141 0.0
C273 C 0.12582 0.69399 0.48161 0.0
C274 C 0.16604 0.68749 0.53185 0.0
C275 C 0.10279 0.69411 0.55276 0.0
O276 O 0.13417 0.68838 0.50094 0.0
O277 O 0.11686 0.70723 0.48268 0.0
O278 O 0.14363 0.71064 0.56745 0.0
O279 O 0.13209 0.71966 0.5318 0.0
Co280 Co 0.55397 0.10808 0.7098 0.0
O281 O 0.54946 0.08573 0.72096 0.0
O282 O 0.5733 0.094 0.70338 0.0
C283 C 0.52942 0.1123 0.68947 0.0
O284 O 0.56268 0.13015 0.6954 0.0
Co285 Co 0.53182 0.13695 0.73094 0.0
O286 O 0.5444 0.15052 0.70545 0.0
C287 C 0.55716 0.12161 0.76444 0.0
C288 C 0.56455 0.08204 0.7138 0.0
C289 C 0.55757 0.14541 0.69405 0.0
O290 O 0.56304 0.11362 0.74497 0.0
O291 O 0.54378 0.13037 0.76339 0.0
O292 O 0.5415 0.10448 0.67778 0.0
O293 O 0.53203 0.11564 0.71344 0.0
Co294 Co 0.14127 0.30419 0.95887 0.0
O295 O 0.16302 0.29992 0.97274 0.0
O296 O 0.15556 0.32349 0.95353 0.0
C297 C 0.13837 0.27933 0.93888 0.0
O298 O 0.11999 0.3128 0.94181 0.0
Co299 Co 0.11116 0.28213 0.97575 0.0
O300 O 0.09957 0.29375 0.94707 0.0
C301 C 0.12407 0.30818 0.0108 0.0
C302 C 0.16703 0.31489 0.96542 0.0
C303 C 0.10514 0.30728 0.9373 0.0
O304 O 0.13385 0.31355 0.99298 0.0
O305 O 0.11504 0.29504 0.00838 0.0
O306 O 0.14654 0.29138 0.92771 0.0
O307 O 0.13363 0.28224 0.96218 0.0
Co308 Co 0.9446 0.89155 0.21007 0.0
O309 O 0.94897 0.91355 0.22279 0.0
O310 O 0.92532 0.90579 0.20409 0.0
C311 C 0.96931 0.88787 0.18992 0.0
O312 O 0.9361 0.86979 0.19419 0.0
Co313 Co 0.96687 0.86233 0.23021 0.0
O314 O 0.95436 0.8493 0.20408 0.0
C315 C 0.94104 0.87669 0.26384 0.0
C316 C 0.93396 0.91745 0.21549 0.0
C317 C 0.94128 0.85455 0.19254 0.0
O318 O 0.93523 0.88504 0.24467 0.0
O319 O 0.95454 0.86812 0.26265 0.0
O320 O 0.95737 0.8961 0.17859 0.0
O321 O 0.9665 0.88392 0.21361 0.0
Co322 Co 0.35846 0.69519 0.46069 0.0
O323 O 0.33726 0.69968 0.47637 0.0
O324 O 0.34369 0.67617 0.45615 0.0
C325 C 0.36115 0.72014 0.44084 0.0
O326 O 0.37905 0.68648 0.44169 0.0
Co327 Co 0.38941 0.71676 0.47573 0.0
O328 O 0.39948 0.70572 0.44523 0.0
C329 C 0.37691 0.69094 0.51152 0.0
C330 C 0.33274 0.68486 0.46903 0.0
C331 C 0.39358 0.69228 0.43566 0.0
O332 O 0.36683 0.68553 0.49411 0.0
O333 O 0.38594 0.70403 0.50862 0.0
O334 O 0.35227 0.70837 0.43027 0.0
O335 O 0.36659 0.71694 0.46368 0.0
Co336 Co 0.44484 0.11031 0.20904 0.0
O337 O 0.44912 0.08968 0.2265 0.0
O338 O 0.42605 0.09529 0.20434 0.0
C339 C 0.47013 0.11272 0.19014 0.0
O340 O 0.43634 0.13033 0.18851 0.0
Co341 Co 0.46587 0.14173 0.22352 0.0
O342 O 0.45476 0.15144 0.19281 0.0
C343 C 0.43947 0.12974 0.25867 0.0
C344 C 0.43447 0.08493 0.21869 0.0
C345 C 0.44169 0.14506 0.18271 0.0
O346 O 0.43442 0.11941 0.24139 0.0
O347 O 0.45261 0.13874 0.25607 0.0
O348 O 0.45863 0.10345 0.17969 0.0
O349 O 0.46651 0.1187 0.21252 0.0
Co350 Co 0.64301 0.69679 0.95831 0.0
O351 O 0.6652 0.70116 0.97035 0.0
O352 O 0.65715 0.6775 0.95203 0.0
C353 C 0.63933 0.72159 0.93841 0.0
O354 O 0.62119 0.68814 0.94297 0.0
Co355 Co 0.61355 0.71883 0.97776 0.0
O356 O 0.60101 0.70721 0.95002 0.0
C357 C 0.62811 0.69324 0.01195 0.0
C358 C 0.66899 0.68616 0.96291 0.0
C359 C 0.60624 0.69374 0.93964 0.0
O360 O 0.63681 0.68753 0.99309 0.0
O361 O 0.61918 0.70649 0.01034 0.0
O362 O 0.64717 0.70955 0.92667 0.0
O363 O 0.63544 0.71871 0.9621 0.0
Co364 Co 0.05463 0.89323 0.71086 0.0
O365 O 0.05162 0.9153 0.72424 0.0
O366 O 0.07444 0.90656 0.70412 0.0
C367 C 0.02936 0.891 0.69197 0.0
O368 O 0.06182 0.87134 0.69407 0.0
Co369 Co 0.0316 0.86464 0.7307 0.0
O370 O 0.04273 0.85152 0.70316 0.0
C371 C 0.05835 0.87767 0.76403 0.0
C372 C 0.06665 0.91849 0.71625 0.0
C373 C 0.05589 0.85644 0.69153 0.0
O374 O 0.06429 0.88598 0.74491 0.0
O375 O 0.04453 0.86961 0.76294 0.0
O376 O 0.0415 0.89858 0.68006 0.0
O377 O 0.03244 0.88664 0.71541 0.0
Co378 Co 0.85851 0.30465 0.45963 0.0
O379 O 0.83694 0.30053 0.47428 0.0
O380 O 0.84426 0.32403 0.4547 0.0
C381 C 0.86116 0.2798 0.43946 0.0
O382 O 0.87968 0.313 0.44194 0.0
Co383 Co 0.88844 0.28215 0.4765 0.0
O384 O 0.90011 0.29403 0.4481 0.0
C385 C 0.87541 0.30784 0.51174 0.0
C386 C 0.83293 0.31552 0.46707 0.0
C387 C 0.89456 0.30742 0.43783 0.0
O388 O 0.86649 0.31399 0.49347 0.0
O389 O 0.88367 0.29419 0.50964 0.0
O390 O 0.85269 0.29179 0.42868 0.0
O391 O 0.86608 0.28272 0.46266 0.0
Co392 Co 0.44653 0.88851 0.28559 0.0
O393 O 0.45099 0.90941 0.26902 0.0
O394 O 0.42781 0.90357 0.29069 0.0
C395 C 0.47177 0.88582 0.30455 0.0
O396 O 0.43783 0.86826 0.30539 0.0
Co397 Co 0.46749 0.85714 0.27083 0.0
O398 O 0.45629 0.8472 0.30129 0.0
C399 C 0.44076 0.86906 0.23604 0.0
C400 C 0.43638 0.91418 0.27698 0.0
C401 C 0.44312 0.85351 0.31113 0.0
O402 O 0.43615 0.87988 0.25291 0.0
O403 O 0.45366 0.85972 0.23879 0.0
O404 O 0.46021 0.89486 0.31533 0.0
O405 O 0.46821 0.88014 0.28196 0.0
Co406 Co 0.86019 0.69593 0.03375 0.0
O407 O 0.83833 0.70014 0.02027 0.0
O408 O 0.84596 0.67659 0.03936 0.0
C409 C 0.86335 0.72073 0.05381 0.0
O410 O 0.88168 0.68751 0.05056 0.0
Co411 Co 0.88982 0.71816 0.01526 0.0
O412 O 0.90223 0.70604 0.04255 0.0
C413 C 0.87632 0.6922 0.98087 0.0
C414 C 0.83439 0.68516 0.02761 0.0
C415 C 0.89677 0.69285 0.05352 0.0
O416 O 0.86727 0.68656 -0.00058 0.0
O417 O 0.88507 0.70555 0.98268 0.0
O418 O 0.85514 0.70872 0.065 0.0
O419 O 0.86775 0.71788 0.03033 0.0
Co420 Co 0.05584 0.10812 0.78642 0.0
O421 O 0.05151 0.08612 0.77363 0.0
O422 O 0.07529 0.09403 0.79178 0.0
C423 C 0.03124 0.11149 0.807 0.0
O424 O 0.06438 0.12982 0.80241 0.0
Co425 Co 0.03337 0.13748 0.76752 0.0
O426 O 0.0457 0.1502 0.79425 0.0
C427 C 0.05874 0.12329 0.73283 0.0
C428 C 0.06662 0.08234 0.78053 0.0
C429 C 0.05901 0.14492 0.80509 0.0
O430 O 0.06479 0.11481 0.75168 0.0
O431 O 0.04531 0.13193 0.73463 0.0
O432 O 0.04334 0.10335 0.8181 0.0
O433 O 0.03389 0.11565 0.78335 0.0
Co434 Co 0.64213 0.3029 0.53789 0.0
O435 O 0.66381 0.29882 0.52357 0.0
O436 O 0.65632 0.32225 0.54317 0.0
C437 C 0.63929 0.27801 0.55784 0.0
O438 O 0.62094 0.31129 0.55544 0.0
Co439 Co 0.61202 0.28083 0.52096 0.0
O440 O 0.60056 0.29224 0.54996 0.0
C441 C 0.62484 0.30692 0.48599 0.0
C442 C 0.66774 0.31382 0.5309 0.0
C443 C 0.60615 0.30565 0.56004 0.0
O444 O 0.63447 0.31237 0.50395 0.0
O445 O 0.61595 0.29368 0.48828 0.0
O446 O 0.64765 0.28999 0.56885 0.0
O447 O 0.63449 0.28096 0.53456 0.0
H448 H 0.04969 0.35742 0.19301 0.0
H449 H 0.06622 0.35308 0.15421 0.0
H450 H 0.10603 0.38303 0.18589 0.0
H451 H 0.08959 0.38743 0.22517 0.0
H452 H 0.08179 0.37672 0.11875 0.0
H453 H 0.127 0.336 0.17139 0.0
H454 H 0.10688 0.34126 0.1849 0.0
H455 H 0.12307 0.35674 0.18342 0.0
C456 C 0.06189 0.36323 0.19177 0.0
C457 C 0.06838 0.3726 0.21239 0.0
C458 C 0.07128 0.3608 0.16949 0.0
C459 C 0.08737 0.36761 0.16737 0.0
C460 C 0.09369 0.37755 0.18736 0.0
H461 H 0.13716 0.33921 0.02127 0.0
H462 H 0.13183 0.35658 0.05933 0.0
C463 C 0.08425 0.38006 0.20972 0.0
C464 C 0.09767 0.3631 0.14482 0.0
H465 H 0.12769 0.33529 0.1263 0.0
C466 C 0.09216 0.36804 0.12031 0.0
C467 C 0.11113 0.35174 0.1471 0.0
C468 C 0.11742 0.346 0.17305 0.0
C469 C 0.09905 0.36103 0.09795 0.0
C470 C 0.1117 0.34881 0.10032 0.0
C471 C 0.118 0.34473 0.12472 0.0
C472 C 0.11635 0.33816 0.0783 0.0
C473 C 0.09191 0.36571 0.07202 0.0
C474 C 0.10967 0.322 0.07681 0.0
C475 C 0.1126 0.3121 0.05521 0.0
C476 C 0.12235 0.31815 0.03469 0.0
C477 C 0.12957 0.33417 0.0367 0.0
C478 C 0.12653 0.34413 0.05836 0.0
H479 H 0.08197 0.37536 0.07354 0.0
H480 H 0.10202 0.37057 0.05942 0.0
H481 H 0.0866 0.35445 0.06256 0.0
H482 H 0.10176 0.31724 0.09209 0.0
H483 H 0.1069 0.29983 0.05442 0.0
H484 H 0.95046 0.86346 0.3101 0.0
H485 H 0.93301 0.85885 0.34787 0.0
H486 H 0.89169 0.88342 0.31028 0.0
H487 H 0.90906 0.88804 0.27203 0.0
H488 H 0.91362 0.8813 0.38011 0.0
H489 H 0.8752 0.8349 0.32591 0.0
H490 H 0.89511 0.84211 0.3139 0.0
H491 H 0.87728 0.8557 0.31306 0.0
C492 C 0.93773 0.86808 0.30985 0.0
C493 C 0.9311 0.8759 0.28786 0.0
C494 C 0.9278 0.8655 0.33154 0.0
C495 C 0.91105 0.87063 0.33168 0.0
C496 C 0.90456 0.87922 0.31036 0.0
H497 H 0.86245 0.84058 0.47772 0.0
H498 H 0.86655 0.85797 0.43935 0.0
C499 C 0.91453 0.88188 0.28859 0.0
C500 C 0.90032 0.86558 0.35348 0.0
H501 H 0.87267 0.83511 0.3708 0.0
C502 C 0.9043 0.87153 0.37814 0.0
C503 C 0.88824 0.8528 0.35064 0.0
C504 C 0.88366 0.84588 0.32452 0.0
C505 C 0.8974 0.86418 0.40025 0.0
C506 C 0.88619 0.85063 0.39745 0.0
C507 C 0.88126 0.84553 0.37275 0.0
C508 C 0.88189 0.83981 0.41952 0.0
C509 C 0.90316 0.87003 0.42643 0.0
C510 C 0.88873 0.8237 0.42061 0.0
C511 C 0.88645 0.81375 0.44235 0.0
C512 C 0.87722 0.81972 0.46348 0.0
C513 C 0.86973 0.83563 0.46186 0.0
C514 C 0.87207 0.84561 0.44002 0.0
H515 H 0.91311 0.87969 0.42513 0.0
H516 H 0.89242 0.87543 0.43708 0.0
H517 H 0.90799 0.85931 0.43782 0.0
H518 H 0.89635 0.81901 0.40492 0.0
H519 H 0.89228 0.80154 0.44279 0.0
H520 H 0.4524 0.6386 0.69178 0.0
H521 H 0.43527 0.64373 0.65372 0.0
H522 H 0.39337 0.61944 0.69014 0.0
H523 H 0.41044 0.61414 0.72853 0.0
H524 H 0.41441 0.62 0.62149 0.0
H525 H 0.37949 0.66989 0.6739 0.0
H526 H 0.39959 0.66263 0.68503 0.0
H527 H 0.38156 0.64951 0.68832 0.0
C528 C 0.43961 0.63414 0.69166 0.0
C529 C 0.43274 0.62612 0.71331 0.0
C530 C 0.42988 0.63702 0.66985 0.0
C531 C 0.41309 0.63205 0.66931 0.0
C532 C 0.40632 0.6234 0.69034 0.0
H533 H 0.36234 0.6609 0.52425 0.0
H534 H 0.3672 0.64424 0.56322 0.0
C535 C 0.41611 0.62038 0.71219 0.0
C536 C 0.40257 0.6373 0.64742 0.0
H537 H 0.3766 0.66892 0.629 0.0
C538 C 0.40577 0.6304 0.62309 0.0
C539 C 0.3914 0.65089 0.64979 0.0
C540 C 0.38774 0.65878 0.67559 0.0
C541 C 0.39888 0.63746 0.60074 0.0
C542 C 0.38856 0.65174 0.60299 0.0
C543 C 0.38449 0.65793 0.62747 0.0
C544 C 0.38429 0.66202 0.58031 0.0
C545 C 0.40363 0.63041 0.5748 0.0
C546 C 0.39197 0.67764 0.57745 0.0
C547 C 0.38926 0.68716 0.55538 0.0
C548 C 0.37874 0.68126 0.53568 0.0
C549 C 0.37059 0.66578 0.53898 0.0
C550 C 0.37337 0.65622 0.56117 0.0
H551 H 0.41293 0.62015 0.57638 0.0
H552 H 0.39231 0.62544 0.5651 0.0
H553 H 0.40891 0.64041 0.56236 0.0
H554 H 0.40045 0.6823 0.59207 0.0
H555 H 0.39567 0.69903 0.55362 0.0
H556 H 0.5895 0.11129 0.77185 0.0
H557 H 0.60667 0.11536 0.8104 0.0
H558 H 0.5643 0.13665 0.84992 0.0
H559 H 0.54707 0.13262 0.81174 0.0
H560 H 0.61271 0.14686 0.83046 0.0
H561 H 0.58469 0.10636 0.90501 0.0
H562 H 0.58133 0.10302 0.87095 0.0
H563 H 0.56899 0.11813 0.88827 0.0
C564 C 0.58373 0.11649 0.78894 0.0
C565 C 0.56693 0.12177 0.78865 0.0
C566 C 0.59357 0.11879 0.81093 0.0
C567 C 0.5867 0.12611 0.83307 0.0
C568 C 0.56976 0.13065 0.83321 0.0
H569 H 0.61 0.19816 0.939 0.0
H570 H 0.60534 0.18036 0.90161 0.0
C571 C 0.55996 0.12848 0.81125 0.0
C572 C 0.59748 0.13122 0.85483 0.0
H573 H 0.59845 0.13165 0.92049 0.0
C574 C 0.60993 0.1432 0.85013 0.0
C575 C 0.59406 0.12623 0.88042 0.0
C576 C 0.58165 0.11259 0.88645 0.0
C577 C 0.61791 0.15147 0.8705 0.0
C578 C 0.61315 0.14775 0.89608 0.0
C579 C 0.60189 0.13465 0.90081 0.0
C580 C 0.61782 0.15877 0.91777 0.0
C581 C 0.6308 0.16467 0.86447 0.0
C582 C 0.62633 0.15248 0.9393 0.0
C583 C 0.62904 0.16265 0.96081 0.0
C584 C 0.62299 0.17919 0.96125 0.0
C585 C 0.61479 0.1855 0.93936 0.0
C586 C 0.61223 0.17538 0.91786 0.0
H587 H 0.63696 0.16221 0.84566 0.0
H588 H 0.62455 0.17702 0.86321 0.0
H589 H 0.64051 0.16531 0.87973 0.0
H590 H 0.63058 0.13962 0.93963 0.0
H591 H 0.63535 0.15738 0.97739 0.0
H592 H 0.09113 0.61477 0.26912 0.0
H593 H 0.10894 0.61998 0.30669 0.0
H594 H 0.06742 0.64314 0.34582 0.0
H595 H 0.04958 0.63804 0.30859 0.0
H596 H 0.11556 0.65236 0.32595 0.0
H597 H 0.0876 0.61217 0.4011 0.0
H598 H 0.08438 0.60859 0.36707 0.0
H599 H 0.07204 0.62389 0.38394 0.0
C600 C 0.08571 0.6207 0.28591 0.0
C601 C 0.06894 0.62606 0.28582 0.0
C602 C 0.09591 0.62366 0.30732 0.0
C603 C 0.08942 0.63174 0.32909 0.0
C604 C 0.07257 0.63659 0.32937 0.0
H605 H 0.11362 0.70345 0.4347 0.0
H606 H 0.10972 0.68602 0.39676 0.0
C607 C 0.06243 0.63379 0.30797 0.0
C608 C 0.10042 0.63682 0.35058 0.0
H609 H 0.10192 0.63709 0.41618 0.0
C610 C 0.11292 0.64871 0.34567 0.0
C611 C 0.09718 0.6318 0.3762 0.0
C612 C 0.08468 0.61827 0.38239 0.0
C613 C 0.12115 0.65686 0.36593 0.0
C614 C 0.11658 0.65314 0.3916 0.0
C615 C 0.10526 0.64011 0.39646 0.0
C616 C 0.12138 0.66409 0.41331 0.0
C617 C 0.13413 0.66993 0.35968 0.0
C618 C 0.12924 0.65754 0.43526 0.0
C619 C 0.13146 0.6675 0.45714 0.0
C620 C 0.12557 0.68409 0.45752 0.0
C621 C 0.11825 0.69074 0.43513 0.0
C622 C 0.11615 0.68082 0.41329 0.0
H623 H 0.14035 0.6672 0.341 0.0
H624 H 0.12795 0.68229 0.35795 0.0
H625 H 0.14379 0.67072 0.375 0.0
H626 H 0.13321 0.6446 0.4357 0.0
H627 H 0.13713 0.66198 0.47407 0.0
H628 H 0.61619 0.79867 0.55838 0.0
H629 H 0.61154 0.8161 0.59612 0.0
H630 H 0.63694 0.85714 0.5591 0.0
H631 H 0.64155 0.83979 0.52085 0.0
H632 H 0.63326 0.83505 0.62918 0.0
H633 H 0.58882 0.8745 0.57288 0.0
H634 H 0.5961 0.85462 0.56095 0.0
H635 H 0.60988 0.87231 0.56117 0.0
C636 C 0.62099 0.81132 0.55827 0.0
C637 C 0.629 0.8179 0.53639 0.0
C638 C 0.61839 0.82125 0.57994 0.0
C639 C 0.6237 0.83795 0.5802 0.0
C640 C 0.63257 0.84433 0.55908 0.0
H641 H 0.59171 0.88745 0.72455 0.0
H642 H 0.60981 0.88269 0.68718 0.0
C643 C 0.63523 0.83437 0.5373 0.0
C644 C 0.61844 0.84875 0.6018 0.0
H645 H 0.58826 0.87706 0.61772 0.0
C646 C 0.62375 0.84459 0.62675 0.0
C647 C 0.60601 0.86113 0.59839 0.0
C648 C 0.59974 0.86594 0.57197 0.0
C649 C 0.61608 0.85159 0.64851 0.0
C650 C 0.60287 0.86312 0.64507 0.0
C651 C 0.59842 0.86822 0.62015 0.0
C652 C 0.59171 0.86769 0.66661 0.0
C653 C 0.62122 0.84566 0.67495 0.0
C654 C 0.57542 0.86124 0.66696 0.0
C655 C 0.56506 0.8639 0.68815 0.0
C656 C 0.57079 0.87313 0.70943 0.0
C657 C 0.58692 0.8802 0.70855 0.0
C658 C 0.59732 0.87747 0.68728 0.0
H659 H 0.63069 0.83551 0.67411 0.0
H660 H 0.62661 0.85627 0.68594 0.0
H661 H 0.61016 0.84104 0.68574 0.0
H662 H 0.57088 0.85367 0.65113 0.0
H663 H 0.5527 0.85838 0.68803 0.0
H664 H 0.39376 0.30324 0.9426 0.0
H665 H 0.39851 0.32081 0.90503 0.0
H666 H 0.36739 0.35933 0.93781 0.0
H667 H 0.36259 0.34183 0.97589 0.0
H668 H 0.37497 0.33637 0.8699 0.0
H669 H 0.4139 0.38182 0.92511 0.0
H670 H 0.40905 0.36137 0.93778 0.0
H671 H 0.39314 0.37713 0.93643 0.0
C672 C 0.38779 0.31538 0.94187 0.0
C673 C 0.37794 0.32117 0.96243 0.0
C674 C 0.39047 0.32538 0.9203 0.0
C675 C 0.38342 0.34139 0.91883 0.0
C676 C 0.37307 0.34706 0.93879 0.0
H677 H 0.41164 0.38909 0.77156 0.0
H678 H 0.39404 0.38468 0.8096 0.0
C679 C 0.37032 0.33701 0.96046 0.0
C680 C 0.3879 0.35219 0.89682 0.0
H681 H 0.41515 0.38314 0.88007 0.0
C682 C 0.38339 0.34691 0.87202 0.0
C683 C 0.39888 0.36589 0.89985 0.0
C684 C 0.40415 0.37195 0.92616 0.0
C685 C 0.39058 0.35418 0.85007 0.0
C686 C 0.40244 0.36713 0.85316 0.0
C687 C 0.406 0.37324 0.87789 0.0
C688 C 0.41335 0.37226 0.83162 0.0
C689 C 0.38647 0.34705 0.82389 0.0
C690 C 0.43015 0.3673 0.8319 0.0
C691 C 0.44021 0.36974 0.81032 0.0
C692 C 0.43366 0.37727 0.78803 0.0
C693 C 0.41706 0.38315 0.78836 0.0
C694 C 0.40696 0.38062 0.81002 0.0
H695 H 0.37818 0.33593 0.82514 0.0
H696 H 0.38007 0.3567 0.81212 0.0
H697 H 0.39812 0.34343 0.81367 0.0
H698 H 0.43529 0.36083 0.84846 0.0
H699 H 0.45297 0.36522 0.81086 0.0
H700 H 0.8979 0.1998 0.04943 0.0
H701 H 0.90241 0.18367 0.08854 0.0
H702 H 0.8661 0.1473 0.06351 0.0
H703 H 0.86153 0.16332 0.02386 0.0
H704 H 0.87877 0.17327 0.12717 0.0
H705 H 0.90972 0.12004 0.07669 0.0
H706 H 0.90685 0.14007 0.06127 0.0
H707 H 0.88929 0.12648 0.06607 0.0
C708 C 0.89076 0.18844 0.05217 0.0
C709 C 0.87944 0.18281 0.03334 0.0
C710 C 0.89334 0.17925 0.0746 0.0
C711 C 0.8847 0.16425 0.07874 0.0
C712 C 0.87303 0.15876 0.06045 0.0
H713 H 0.90878 0.11628 0.22781 0.0
H714 H 0.89202 0.12231 0.18932 0.0
C715 C 0.87041 0.16797 0.03788 0.0
C716 C 0.88861 0.15433 0.10195 0.0
H717 H 0.91176 0.12087 0.12176 0.0
C718 C 0.88559 0.16157 0.12611 0.0
C719 C 0.89755 0.13911 0.10033 0.0
C720 C 0.90117 0.13091 0.07476 0.0
C721 C 0.89219 0.15453 0.14864 0.0
C722 C 0.90199 0.1399 0.14682 0.0
C723 C 0.90415 0.13206 0.12291 0.0
C724 C 0.91223 0.13429 0.16877 0.0
C725 C 0.88974 0.1634 0.17401 0.0
C726 C 0.92916 0.13876 0.1695 0.0
C727 C 0.93871 0.1355 0.19138 0.0
C728 C 0.93151 0.1276 0.21288 0.0
C729 C 0.9147 0.12241 0.21158 0.0
C730 C 0.90509 0.12582 0.18967 0.0
H731 H 0.88189 0.17478 0.17206 0.0
H732 H 0.88368 0.15482 0.188 0.0
H733 H 0.90206 0.16704 0.18211 0.0
H734 H 0.93482 0.14534 0.15347 0.0
H735 H 0.95163 0.13953 0.19164 0.0
H736 H 0.90932 0.61278 0.76629 0.0
H737 H 0.89181 0.61855 0.80401 0.0
H738 H 0.93414 0.64045 0.8428 0.0
H739 H 0.95172 0.63477 0.80545 0.0
H740 H 0.91215 0.61884 0.87431 0.0
H741 H 0.8793 0.66882 0.81898 0.0
H742 H 0.88024 0.64807 0.8056 0.0
H743 H 0.89898 0.66025 0.80827 0.0
C744 C 0.91498 0.61857 0.78302 0.0
C745 C 0.93188 0.62353 0.78274 0.0
C746 C 0.90493 0.62188 0.80449 0.0
C747 C 0.91168 0.63007 0.82597 0.0
C748 C 0.92873 0.63413 0.82632 0.0
H749 H 0.89407 0.69984 0.9375 0.0
H750 H 0.89842 0.68244 0.89968 0.0
C751 C 0.93873 0.63095 0.8049 0.0
C752 C 0.90098 0.6359 0.84732 0.0
H753 H 0.87546 0.66835 0.86366 0.0
C754 C 0.90376 0.62939 0.87203 0.0
C755 C 0.89013 0.64968 0.84407 0.0
C756 C 0.88694 0.65724 0.81787 0.0
C757 C 0.89682 0.63703 0.89389 0.0
C758 C 0.88682 0.65146 0.89075 0.0
C759 C 0.88311 0.65725 0.86589 0.0
C760 C 0.88254 0.66228 0.91286 0.0
C761 C 0.90125 0.63037 0.92023 0.0
C762 C 0.87184 0.65684 0.93256 0.0
C763 C 0.86935 0.66678 0.95441 0.0
C764 C 0.87751 0.68231 0.95681 0.0
C765 C 0.88765 0.68794 0.93645 0.0
C766 C 0.89012 0.67803 0.91473 0.0
H767 H 0.91065 0.62017 0.91932 0.0
H768 H 0.90626 0.64056 0.93254 0.0
H769 H 0.88983 0.62541 0.92966 0.0
H770 H 0.8657 0.6448 0.93125 0.0
H771 H 0.86136 0.6621 0.96964 0.0
H772 H 0.13691 0.15763 0.51759 0.0
H773 H 0.13168 0.14003 0.55542 0.0
H774 H 0.10366 0.18002 0.59051 0.0
H775 H 0.10877 0.19769 0.55308 0.0
H776 H 0.1278 0.16181 0.62386 0.0
H777 H 0.083 0.12139 0.56991 0.0
H778 H 0.10354 0.12504 0.55681 0.0
H779 H 0.08877 0.14186 0.55823 0.0
C780 C 0.12979 0.16275 0.53349 0.0
C781 C 0.12311 0.17903 0.5322 0.0
C782 C 0.1268 0.15265 0.55501 0.0
C783 C 0.1172 0.15873 0.57554 0.0
C784 C 0.11111 0.17515 0.57477 0.0
H785 H 0.04933 0.13819 0.68777 0.0
H786 H 0.0662 0.1423 0.64926 0.0
C787 C 0.11399 0.1852 0.5533 0.0
C788 C 0.11246 0.14795 0.5974 0.0
H789 H 0.08299 0.11932 0.61496 0.0
C790 C 0.11834 0.15217 0.62199 0.0
C791 C 0.10011 0.13544 0.59465 0.0
C792 C 0.09337 0.1306 0.56855 0.0
C793 C 0.11132 0.14504 0.64416 0.0
C794 C 0.09816 0.13335 0.64148 0.0
C795 C 0.09312 0.12825 0.61682 0.0
C796 C 0.08761 0.12869 0.66369 0.0
C797 C 0.11708 0.15102 0.67028 0.0
C798 C 0.09395 0.11927 0.68426 0.0
C799 C 0.08432 0.11692 0.70647 0.0
C800 C 0.06824 0.12401 0.70838 0.0
C801 C 0.0617 0.1327 0.68711 0.0
C802 C 0.07129 0.135 0.665 0.0
H803 H 0.1263 0.16137 0.66886 0.0
H804 H 0.10624 0.15537 0.68184 0.0
H805 H 0.12302 0.14051 0.68081 0.0
H806 H 0.10647 0.11415 0.68342 0.0
H807 H 0.08971 0.11004 0.72242 0.0
H808 H 0.63779 0.33803 0.47564 0.0
H809 H 0.63271 0.35529 0.43735 0.0
H810 H 0.60319 0.3157 0.40416 0.0
H811 H 0.60807 0.2984 0.44208 0.0
H812 H 0.62985 0.33457 0.37055 0.0
H813 H 0.58209 0.37287 0.42202 0.0
H814 H 0.60189 0.36818 0.43701 0.0
H815 H 0.58678 0.35189 0.4326 0.0
C816 C 0.63037 0.33291 0.46007 0.0
C817 C 0.62322 0.31685 0.46204 0.0
C818 C 0.6275 0.3428 0.43827 0.0
C819 C 0.61755 0.33672 0.41813 0.0
C820 C 0.61094 0.32054 0.41959 0.0
H821 H 0.55184 0.35465 0.3019 0.0
H822 H 0.56844 0.35001 0.34051 0.0
C823 C 0.6137 0.3107 0.44133 0.0
C824 C 0.61296 0.34734 0.39604 0.0
H825 H 0.58242 0.3743 0.3768 0.0
C826 C 0.61982 0.34365 0.37186 0.0
C827 C 0.59986 0.3591 0.39806 0.0
C828 C 0.59213 0.36335 0.42375 0.0
C829 C 0.61311 0.3506 0.3493 0.0
C830 C 0.5992 0.36143 0.35119 0.0
C831 C 0.59312 0.36602 0.37553 0.0
C832 C 0.58904 0.36566 0.32835 0.0
C833 C 0.62005 0.34532 0.32352 0.0
C834 C 0.59506 0.37622 0.3089 0.0
C835 C 0.58557 0.37892 0.28662 0.0
C836 C 0.56994 0.37103 0.28351 0.0
C837 C 0.56383 0.36085 0.30349 0.0
C838 C 0.57327 0.35823 0.32566 0.0
H839 H 0.63015 0.33587 0.32542 0.0
H840 H 0.60994 0.34005 0.31133 0.0
H841 H 0.6252 0.3564 0.31339 0.0
H842 H 0.60717 0.38217 0.3108 0.0
H843 H 0.59063 0.3869 0.27166 0.0
H844 H 0.41376 0.88772 0.22019 0.0
H845 H 0.39566 0.88243 0.18284 0.0
H846 H 0.42574 0.83972 0.16257 0.0
H847 H 0.44387 0.84482 0.1994 0.0
H848 H 0.40877 0.87672 0.12532 0.0
H849 H 0.37357 0.82485 0.1712 0.0
H850 H 0.38318 0.84155 0.18947 0.0
H851 H 0.39575 0.82479 0.17702 0.0
C852 C 0.41656 0.87724 0.20771 0.0
C853 C 0.43025 0.86665 0.21286 0.0
C854 C 0.40621 0.87427 0.18645 0.0
C855 C 0.40934 0.86061 0.17029 0.0
C856 C 0.4231 0.85025 0.17507 0.0
H857 H 0.39559 0.80065 0.04737 0.0
H858 H 0.39915 0.81587 0.08748 0.0
C859 C 0.43348 0.85323 0.1961 0.0
C860 C 0.39847 0.85681 0.14817 0.0
H861 H 0.37434 0.82512 0.125 0.0
C862 C 0.40077 0.86577 0.12525 0.0
C863 C 0.38805 0.84257 0.14843 0.0
C864 C 0.38483 0.83292 0.1729 0.0
C865 C 0.39417 0.85987 0.10189 0.0
C866 C 0.38498 0.84476 0.10181 0.0
C867 C 0.38145 0.83668 0.12517 0.0
C868 C 0.38172 0.83555 0.07768 0.0
C869 C 0.39825 0.86899 0.07724 0.0
C870 C 0.37057 0.84153 0.05898 0.0
C871 C 0.36852 0.83283 0.03578 0.0
C872 C 0.37759 0.81805 0.03105 0.0
C873 C 0.38844 0.81199 0.05021 0.0
C874 C 0.39046 0.82065 0.07324 0.0
H875 H 0.40663 0.87986 0.08051 0.0
H876 H 0.40435 0.86036 0.06337 0.0
H877 H 0.38653 0.87358 0.06826 0.0
H878 H 0.36359 0.85293 0.06224 0.0
H879 H 0.35999 0.8378 0.02149 0.0
H880 H 0.95689 0.37979 0.68844 0.0
H881 H 0.94255 0.37402 0.64778 0.0
H882 H 0.89636 0.36629 0.68924 0.0
H883 H 0.91045 0.37326 0.72956 0.0
H884 H 0.93143 0.34579 0.63638 0.0
H885 H 0.87769 0.38861 0.62812 0.0
H886 H 0.8942 0.39199 0.65124 0.0
H887 H 0.87708 0.37808 0.65855 0.0
C888 C 0.94356 0.37735 0.68866 0.0
C889 C 0.93473 0.37692 0.71197 0.0
C890 C 0.93537 0.37406 0.66548 0.0
C891 C 0.91831 0.3698 0.66531 0.0
C892 C 0.90936 0.37002 0.68861 0.0
H893 H 0.88116 0.29608 0.56012 0.0
H894 H 0.88956 0.31232 0.59783 0.0
C895 C 0.91746 0.37384 0.71171 0.0
C896 C 0.91067 0.36268 0.64167 0.0
H897 H 0.87544 0.3625 0.60443 0.0
C898 C 0.9193 0.34971 0.62922 0.0
C899 C 0.89491 0.36779 0.63203 0.0
C900 C 0.88556 0.38251 0.64306 0.0
C901 C 0.9125 0.34143 0.60796 0.0
C902 C 0.8962 0.34564 0.5996 0.0
C903 C 0.88775 0.359 0.61133 0.0
C904 C 0.88799 0.33627 0.57854 0.0
C905 C 0.92299 0.32836 0.59455 0.0
C906 C 0.88306 0.34448 0.55589 0.0
C907 C 0.87782 0.33523 0.53451 0.0
C908 C 0.87767 0.31767 0.53547 0.0
C909 C 0.88145 0.30959 0.55875 0.0
C910 C 0.88632 0.31884 0.58023 0.0
H911 H 0.93655 0.33043 0.59794 0.0
H912 H 0.91978 0.31584 0.60229 0.0
H913 H 0.92073 0.32835 0.57344 0.0
H914 H 0.88411 0.35794 0.55428 0.0
H915 H 0.87492 0.34177 0.51678 0.0
H916 H 0.40952 0.11477 0.27065 0.0
H917 H 0.39231 0.11944 0.30907 0.0
H918 H 0.42919 0.15383 0.33841 0.0
H919 H 0.44646 0.14928 0.30043 0.0
H920 H 0.41616 0.12898 0.37493 0.0
H921 H 0.36699 0.1648 0.32235 0.0
H922 H 0.37309 0.14453 0.31053 0.0
H923 H 0.38753 0.16163 0.30875 0.0
C924 C 0.41402 0.12327 0.28534 0.0
C925 C 0.42934 0.13176 0.28235 0.0
C926 C 0.40414 0.12593 0.30721 0.0
C927 C 0.40947 0.13706 0.32636 0.0
C928 C 0.4249 0.14518 0.32376 0.0
H929 H 0.38382 0.20419 0.43723 0.0
H930 H 0.38849 0.18726 0.3989 0.0
C931 C 0.43473 0.14259 0.30198 0.0
C932 C 0.39896 0.14092 0.34895 0.0
H933 H 0.36662 0.16596 0.3675 0.0
C934 C 0.40505 0.13669 0.37342 0.0
C935 C 0.38451 0.15098 0.3467 0.0
C936 C 0.37757 0.15587 0.32073 0.0
C937 C 0.39775 0.14324 0.39579 0.0
C938 C 0.38396 0.15419 0.39347 0.0
C939 C 0.37715 0.15749 0.36909 0.0
C940 C 0.37851 0.16454 0.41545 0.0
C941 C 0.40562 0.13946 0.42158 0.0
C942 C 0.37085 0.15744 0.43715 0.0
C943 C 0.36815 0.16711 0.45921 0.0
C944 C 0.37318 0.18398 0.45987 0.0
C945 C 0.37998 0.19121 0.43751 0.0
C946 C 0.38258 0.18158 0.41552 0.0
H947 H 0.4172 0.13189 0.41972 0.0
H948 H 0.40872 0.15127 0.43177 0.0
H949 H 0.39661 0.13244 0.43371 0.0
H950 H 0.36752 0.14431 0.43731 0.0
H951 H 0.36281 0.16117 0.47607 0.0
H952 H 0.55024 0.64138 0.18753 0.0
H953 H 0.56782 0.64592 0.14984 0.0
H954 H 0.60862 0.62033 0.18715 0.0
H955 H 0.59109 0.61569 0.2252 0.0
H956 H 0.61666 0.65245 0.16803 0.0
H957 H 0.58543 0.6142 0.09352 0.0
H958 H 0.57084 0.62673 0.11133 0.0
H959 H 0.5825 0.61065 0.12763 0.0
C960 C 0.56286 0.63649 0.18767 0.0
C961 C 0.56926 0.62823 0.20944 0.0
C962 C 0.57286 0.63898 0.166 0.0
C963 C 0.58943 0.63326 0.16562 0.0
C964 C 0.5958 0.62468 0.18704 0.0
H965 H 0.6379 0.66079 0.01981 0.0
H966 H 0.63315 0.64375 0.05836 0.0
C967 C 0.58575 0.62205 0.20872 0.0
C968 C 0.60036 0.63786 0.1438 0.0
H969 H 0.60112 0.63817 0.07816 0.0
C970 C 0.61357 0.649 0.14838 0.0
C971 C 0.59651 0.63311 0.11826 0.0
C972 C 0.58315 0.62037 0.11238 0.0
C973 C 0.62204 0.6567 0.12791 0.0
C974 C 0.61698 0.65326 0.10237 0.0
C975 C 0.60484 0.64095 0.09779 0.0
C976 C 0.62226 0.66387 0.08053 0.0
C977 C 0.6358 0.669 0.13379 0.0
C978 C 0.61783 0.68083 0.08038 0.0
C979 C 0.62037 0.69054 0.05843 0.0
C980 C 0.62739 0.68347 0.03613 0.0
C981 C 0.6325 0.66663 0.03669 0.0
C982 C 0.6298 0.65687 0.05866 0.0
H983 H 0.64192 0.66608 0.15248 0.0
H984 H 0.64543 0.66906 0.11838 0.0
H985 H 0.63039 0.68174 0.13523 0.0
H986 H 0.61167 0.68639 0.09688 0.0
H987 H 0.61635 0.70347 0.05871 0.0
H988 H 0.04838 0.86555 0.81073 0.0
H989 H 0.06561 0.86066 0.84865 0.0
H990 H 0.10823 0.88195 0.80975 0.0
H991 H 0.09106 0.88687 0.77141 0.0
H992 H 0.114 0.8502 0.82997 0.0
H993 H 0.08579 0.89109 0.90384 0.0
H994 H 0.07016 0.87937 0.88688 0.0
H995 H 0.0827 0.89439 0.86971 0.0
C996 C 0.06135 0.86945 0.81028 0.0
C997 C 0.06836 0.8765 0.78794 0.0
C998 C 0.07114 0.86679 0.8321 0.0
C999 C 0.08812 0.87116 0.83211 0.0
C1000 C 0.0951 0.87864 0.81016 0.0
H1001 H 0.13553 0.84068 0.97763 0.0
H1002 H 0.13121 0.85809 0.93936 0.0
C1003 C 0.08526 0.88143 0.7883 0.0
C1004 C 0.09875 0.86602 0.85401 0.0
H1005 H 0.09944 0.86589 0.91968 0.0
C1006 C 0.11115 0.85395 0.84957 0.0
C1007 C 0.09524 0.87113 0.8795 0.0
C1008 C 0.08286 0.88485 0.88526 0.0
C1009 C 0.11902 0.84575 0.87013 0.0
C1010 C 0.11418 0.84962 0.89563 0.0
C1011 C 0.10295 0.86278 0.90007 0.0
C1012 C 0.11873 0.83874 0.91754 0.0
C1013 C 0.13189 0.83249 0.86439 0.0
C1014 C 0.11318 0.82212 0.91783 0.0
C1015 C 0.11548 0.81219 0.93961 0.0
C1016 C 0.12338 0.81872 0.96161 0.0
C1017 C 0.12944 0.83524 0.96098 0.0
C1018 C 0.12699 0.84523 0.93917 0.0
H1019 H 0.13817 0.83487 0.84565 0.0
H1020 H 0.14151 0.83186 0.87979 0.0
H1021 H 0.12561 0.82015 0.86315 0.0
H1022 H 0.10647 0.81699 0.90151 0.0
H1023 H 0.1107 0.79953 0.9394 0.0
H1024 H 0.09268 0.35798 0.32416 0.0
H1025 H 0.11049 0.33687 0.34481 0.0
H1026 H 0.06775 0.30456 0.35394 0.0
H1027 H 0.05 0.32531 0.33319 0.0
H1028 H 0.10944 0.32062 0.39279 0.0
H1029 H 0.1006 0.27571 0.31295 0.0
H1030 H 0.095 0.2975 0.31027 0.0
H1031 H 0.08106 0.28295 0.32572 0.0
C1032 C 0.08705 0.34646 0.33084 0.0
C1033 C 0.06996 0.34324 0.32669 0.0
C1034 C 0.09725 0.3344 0.34255 0.0
C1035 C 0.0905 0.31899 0.35024 0.0
C1036 C 0.0733 0.31618 0.34746 0.0
H1037 H 0.1186 0.24317 0.45535 0.0
H1038 H 0.10954 0.2684 0.43315 0.0
C1039 C 0.06315 0.32812 0.33571 0.0
C1040 C 0.10129 0.30557 0.36078 0.0
H1041 H 0.11061 0.26428 0.35286 0.0
C1042 C 0.10992 0.30836 0.38391 0.0
C1043 C 0.10229 0.28971 0.34881 0.0
C1044 C 0.09439 0.28632 0.32292 0.0
C1045 C 0.11865 0.29537 0.39622 0.0
C1046 C 0.11837 0.27913 0.38537 0.0
C1047 C 0.11063 0.27665 0.36141 0.0
C1048 C 0.12486 0.26428 0.39933 0.0
C1049 C 0.12793 0.29919 0.42083 0.0
C1050 C 0.13612 0.25322 0.38744 0.0
C1051 C 0.14109 0.23853 0.39996 0.0
C1052 C 0.13486 0.23468 0.42456 0.0
C1053 C 0.1237 0.24582 0.43647 0.0
C1054 C 0.11865 0.26038 0.4239 0.0
H1055 H 0.13207 0.31244 0.42135 0.0
H1056 H 0.11945 0.29716 0.43747 0.0
H1057 H 0.13904 0.29101 0.42316 0.0
H1058 H 0.14093 0.25588 0.36836 0.0
H1059 H 0.14971 0.23017 0.39032 0.0
H1060 H 0.92819 0.80119 0.57409 0.0
H1061 H 0.9479 0.81793 0.59862 0.0
H1062 H 0.91029 0.85583 0.60985 0.0
H1063 H 0.89033 0.8392 0.58469 0.0
H1064 H 0.94114 0.86881 0.59466 0.0
H1065 H 0.94905 0.82495 0.67609 0.0
H1066 H 0.95237 0.8149 0.64564 0.0
H1067 H 0.93206 0.82321 0.65338 0.0
C1068 C 0.92396 0.81302 0.58186 0.0
C1069 C 0.90759 0.8188 0.57743 0.0
C1070 C 0.93528 0.82254 0.59604 0.0
C1071 C 0.93049 0.83799 0.6064 0.0
C1072 C 0.91419 0.84387 0.60213 0.0
H1073 H 0.99992 0.88335 0.71496 0.0
H1074 H 0.97435 0.87319 0.69459 0.0
C1075 C 0.90279 0.83432 0.58785 0.0
C1076 C 0.94285 0.84805 0.62096 0.0
H1077 H 0.97076 0.84531 0.67039 0.0
C1078 C 0.94747 0.86383 0.61147 0.0
C1079 C 0.9509 0.84165 0.6431 0.0
C1080 C 0.94572 0.82532 0.65531 0.0
C1081 C 0.96047 0.87304 0.6229 0.0
C1082 C 0.96931 0.86608 0.64397 0.0
C1083 C 0.96416 0.85061 0.65406 0.0
C1084 C 0.98414 0.87428 0.65572 0.0
C1085 C 0.96453 0.89012 0.61229 0.0
C1086 C 0.99813 0.87854 0.64066 0.0
C1087 C 0.01269 0.88466 0.65228 0.0
C1088 C 0.01361 0.88622 0.67919 0.0
C1089 C 0.99955 0.88221 0.69417 0.0
C1090 C 0.98494 0.8764 0.68254 0.0
H1091 H 0.95347 0.89583 0.60279 0.0
H1092 H 0.96898 0.89869 0.62766 0.0
H1093 H 0.97451 0.88893 0.59755 0.0
H1094 H 0.99804 0.87656 0.62003 0.0
H1095 H 0.02342 0.88751 0.64034 0.0
H1096 H 0.38098 0.75622 0.95204 0.0
H1097 H 0.39068 0.73156 0.9291 0.0
H1098 H 0.36217 0.74628 0.86227 0.0
H1099 H 0.35269 0.77147 0.88508 0.0
H1100 H 0.37415 0.70516 0.9075 0.0
H1101 H 0.40912 0.74122 0.83326 0.0
H1102 H 0.40069 0.7509 0.86181 0.0
H1103 H 0.38714 0.74562 0.83543 0.0
C1104 C 0.37674 0.75427 0.93245 0.0
C1105 C 0.36622 0.76589 0.92024 0.0
C1106 C 0.38224 0.74009 0.91941 0.0
C1107 C 0.37732 0.73717 0.89389 0.0
C1108 C 0.36636 0.74846 0.88182 0.0
H1109 H 0.40854 0.64296 0.81939 0.0
H1110 H 0.39092 0.66453 0.83904 0.0
C1111 C 0.36091 0.76279 0.89488 0.0
C1112 C 0.38434 0.72258 0.88003 0.0
H1113 H 0.41098 0.71199 0.83138 0.0
C1114 C 0.38208 0.70659 0.89069 0.0
C1115 C 0.39477 0.72454 0.85825 0.0
C1116 C 0.39824 0.74148 0.84656 0.0
C1117 C 0.39046 0.69258 0.88072 0.0
C1118 C 0.4011 0.69461 0.85918 0.0
C1119 C 0.40283 0.71049 0.84793 0.0
C1120 C 0.41155 0.68081 0.84901 0.0
C1121 C 0.38848 0.67595 0.89408 0.0
C1122 C 0.42897 0.68277 0.84813 0.0
C1123 C 0.43901 0.67062 0.83668 0.0
C1124 C 0.43184 0.65617 0.82595 0.0
C1125 C 0.41444 0.65388 0.82773 0.0
C1126 C 0.40435 0.66618 0.83897 0.0
H1127 H 0.383 0.67732 0.91364 0.0
H1128 H 0.38001 0.66789 0.88257 0.0
H1129 H 0.40071 0.66947 0.89583 0.0
H1130 H 0.4348 0.69391 0.85588 0.0
H1131 H 0.45238 0.67272 0.83575 0.0
H1132 H 0.60827 0.15812 0.07309 0.0
H1133 H 0.58716 0.14081 0.0947 0.0
H1134 H 0.5551 0.18384 0.10233 0.0
H1135 H 0.57585 0.2011 0.08054 0.0
H1136 H 0.57139 0.14255 0.1425 0.0
H1137 H 0.52562 0.15067 0.06361 0.0
H1138 H 0.54738 0.15625 0.06024 0.0
H1139 H 0.53299 0.17034 0.07571 0.0
C1140 C 0.5968 0.16393 0.07963 0.0
C1141 C 0.59364 0.18095 0.07477 0.0
C1142 C 0.58474 0.154 0.09188 0.0
C1143 C 0.56939 0.16096 0.09945 0.0
C1144 C 0.56666 0.17812 0.09594 0.0
H1145 H 0.49428 0.13407 0.2068 0.0
H1146 H 0.51935 0.14297 0.18398 0.0
C1147 C 0.57859 0.18799 0.08361 0.0
C1148 C 0.55601 0.15042 0.11068 0.0
H1149 H 0.51461 0.14108 0.10404 0.0
C1150 C 0.55903 0.14202 0.13395 0.0
C1151 C 0.54001 0.14935 0.09915 0.0
C1152 C 0.53634 0.15698 0.07315 0.0
C1153 C 0.54617 0.13343 0.14678 0.0
C1154 C 0.52981 0.13361 0.13632 0.0
C1155 C 0.52707 0.14114 0.11227 0.0
C1156 C 0.51513 0.12718 0.15073 0.0
C1157 C 0.55021 0.12439 0.17152 0.0
C1158 C 0.50411 0.11565 0.13938 0.0
C1159 C 0.48954 0.11072 0.15227 0.0
C1160 C 0.48575 0.1173 0.17668 0.0
C1161 C 0.49688 0.12871 0.18807 0.0
C1162 C 0.51134 0.13368 0.17515 0.0
H1163 H 0.56351 0.12037 0.17194 0.0
H1164 H 0.5482 0.13297 0.18802 0.0
H1165 H 0.54214 0.11322 0.17417 0.0
H1166 H 0.5067 0.1106 0.12043 0.0
H1167 H 0.48119 0.10192 0.14302 0.0
H1168 H 0.0445 0.67127 0.16308 0.0
H1169 H 0.06069 0.69242 0.14019 0.0
H1170 H 0.10592 0.66458 0.15461 0.0
H1171 H 0.08968 0.64304 0.17696 0.0
H1172 H 0.08448 0.7118 0.16085 0.0
H1173 H 0.1112 0.6758 0.07919 0.0
H1174 H 0.09446 0.6678 0.09898 0.0
H1175 H 0.11568 0.66716 0.11036 0.0
C1176 C 0.05787 0.6695 0.16105 0.0
C1177 C 0.06582 0.65548 0.17186 0.0
C1178 C 0.06711 0.68162 0.148 0.0
C1179 C 0.08451 0.68008 0.14557 0.0
C1180 C 0.09247 0.66589 0.15578 0.0
H1181 H 0.14399 0.76926 0.10704 0.0
H1182 H 0.13314 0.74457 0.12956 0.0
C1183 C 0.08317 0.6536 0.16861 0.0
C1184 C 0.09424 0.6939 0.13376 0.0
H1185 H 0.12059 0.70368 0.08423 0.0
C1186 C 0.09241 0.71002 0.14412 0.0
C1187 C 0.10455 0.69155 0.1119 0.0
C1188 C 0.10651 0.67468 0.09927 0.0
C1189 C 0.10026 0.72391 0.13292 0.0
C1190 C 0.11064 0.72156 0.11115 0.0
C1191 C 0.11275 0.70541 0.10106 0.0
C1192 C 0.1183 0.73588 0.09735 0.0
C1193 C 0.09681 0.74104 0.14389 0.0
C1194 C 0.11403 0.73885 0.07154 0.0
C1195 C 0.12033 0.75277 0.05861 0.0
C1196 C 0.13103 0.76405 0.07124 0.0
C1197 C 0.13566 0.76086 0.09689 0.0
C1198 C 0.12941 0.74682 0.1098 0.0
H1199 H 0.08562 0.74108 0.15659 0.0
H1200 H 0.10769 0.74513 0.15555 0.0
H1201 H 0.09485 0.75033 0.12827 0.0
H1202 H 0.1055 0.73056 0.06154 0.0
H1203 H 0.11659 0.75483 0.03881 0.0
H1204 H 0.49908 0.87097 0.28358 0.0
H1205 H 0.52387 0.8606 0.30592 0.0
H1206 H 0.50418 0.87861 0.37813 0.0
H1207 H 0.47943 0.88945 0.3557 0.0
H1208 H 0.5388 0.88375 0.37287 0.0
H1209 H 0.52106 0.81839 0.3496 0.0
H1210 H 0.52316 0.83159 0.32182 0.0
H1211 H 0.50698 0.83574 0.34502 0.0
C1212 C 0.50007 0.87285 0.3042 0.0
C1213 C 0.48724 0.88084 0.31798 0.0
C1214 C 0.51423 0.86688 0.31692 0.0
C1215 C 0.51569 0.86854 0.34373 0.0
C1216 C 0.50324 0.87715 0.35743 0.0
H1217 H 0.57251 0.80582 0.44422 0.0
H1218 H 0.55165 0.82168 0.42058 0.0
C1219 C 0.48911 0.88329 0.34463 0.0
C1220 C 0.52973 0.86045 0.35755 0.0
H1221 H 0.54736 0.82238 0.36934 0.0
C1222 C 0.54071 0.87034 0.37215 0.0
C1223 C 0.53205 0.84292 0.35677 0.0
C1224 C 0.52011 0.8315 0.34268 0.0
C1225 C 0.554 0.86313 0.386 0.0
C1226 C 0.55648 0.84564 0.38478 0.0
C1227 C 0.54553 0.83581 0.37007 0.0
C1228 C 0.56955 0.83694 0.39999 0.0
C1229 C 0.56493 0.87422 0.40239 0.0
C1230 C 0.58665 0.84027 0.39637 0.0
C1231 C 0.59874 0.83122 0.4101 0.0
C1232 C 0.5939 0.81854 0.42737 0.0
C1233 C 0.57675 0.81536 0.43092 0.0
C1234 C 0.56476 0.82446 0.41745 0.0
H1235 H 0.55905 0.88659 0.40595 0.0
H1236 H 0.56766 0.86823 0.42123 0.0
H1237 H 0.57698 0.87637 0.39232 0.0
H1238 H 0.59065 0.84962 0.3826 0.0
H1239 H 0.61183 0.83394 0.40686 0.0
H1240 H 0.37621 0.24897 0.53706 0.0
H1241 H 0.38788 0.27326 0.55911 0.0
H1242 H 0.37367 0.25225 0.63245 0.0
H1243 H 0.36162 0.22792 0.6104 0.0
H1244 H 0.36781 0.28707 0.62848 0.0
H1245 H 0.43218 0.2701 0.59821 0.0
H1246 H 0.41769 0.27224 0.57201 0.0
H1247 H 0.41478 0.25587 0.59533 0.0
C1248 C 0.37546 0.24955 0.55788 0.0
C1249 C 0.36816 0.23647 0.57205 0.0
C1250 C 0.38218 0.26342 0.57044 0.0
C1251 C 0.38191 0.2644 0.5974 0.0
C1252 C 0.37406 0.25167 0.6116 0.0
H1253 H 0.44771 0.32082 0.69379 0.0
H1254 H 0.43159 0.30004 0.67043 0.0
C1255 C 0.36722 0.23779 0.59901 0.0
C1256 C 0.3905 0.27832 0.61075 0.0
H1257 H 0.42888 0.29609 0.61918 0.0
C1258 C 0.38116 0.28909 0.6265 0.0
C1259 C 0.40794 0.28077 0.60828 0.0
C1260 C 0.41879 0.26906 0.59275 0.0
C1261 C 0.38883 0.30231 0.63988 0.0
C1262 C 0.40623 0.30493 0.637 0.0
C1263 C 0.41551 0.29416 0.62116 0.0
C1264 C 0.41541 0.31795 0.65162 0.0
C1265 C 0.37835 0.31301 0.65752 0.0
C1266 C 0.41172 0.33502 0.64878 0.0
C1267 C 0.42092 0.34706 0.66235 0.0
C1268 C 0.43409 0.34221 0.6787 0.0
C1269 C 0.43775 0.32508 0.68128 0.0
C1270 C 0.42851 0.31313 0.66795 0.0
H1271 H 0.36619 0.307 0.66217 0.0
H1272 H 0.38507 0.31565 0.67579 0.0
H1273 H 0.3757 0.32512 0.6479 0.0
H1274 H 0.40189 0.33904 0.63585 0.0
H1275 H 0.41782 0.36014 0.65984 0.0
H1276 H 0.0058 0.13033 0.78805 0.0
H1277 H 0.98119 0.14047 0.81088 0.0
H1278 H 0.99709 0.11454 0.87952 0.0
H1279 H 0.02213 0.10462 0.85685 0.0
H1280 H 0.9552 0.12422 0.83494 0.0
H1281 H 0.99176 0.16245 0.90453 0.0
H1282 H 0.00111 0.1532 0.87632 0.0
H1283 H 0.99672 0.14056 0.90414 0.0
C1284 C 0.00409 0.12676 0.80801 0.0
C1285 C 0.01599 0.11682 0.82076 0.0
C1286 C 0.98996 0.13251 0.82099 0.0
C1287 C 0.9874 0.12844 0.84697 0.0
C1288 C 0.99898 0.11807 0.85959 0.0
H1289 H 0.89444 0.15788 0.92642 0.0
H1290 H 0.91594 0.14083 0.90536 0.0
C1291 C 0.01323 0.11237 0.84661 0.0
C1292 C 0.97289 0.13567 0.86077 0.0
H1293 H 0.96251 0.16314 0.90841 0.0
C1294 C 0.95675 0.13264 0.85115 0.0
C1295 C 0.97499 0.14676 0.88174 0.0
C1296 C 0.99206 0.15109 0.89222 0.0
C1297 C 0.94268 0.14073 0.86152 0.0
C1298 C 0.94483 0.15192 0.88234 0.0
C1299 C 0.96091 0.15455 0.89243 0.0
C1300 C 0.93087 0.16195 0.89302 0.0
C1301 C 0.92579 0.13777 0.84941 0.0
C1302 C 0.93207 0.17944 0.89296 0.0
C1303 C 0.91997 0.18915 0.90519 0.0
C1304 C 0.90634 0.18158 0.91768 0.0
C1305 C 0.90472 0.16408 0.91676 0.0
C1306 C 0.91698 0.15432 0.9047 0.0
H1307 H 0.92687 0.13189 0.83009 0.0
H1308 H 0.91842 0.12927 0.86191 0.0
H1309 H 0.91877 0.14968 0.84745 0.0
H1310 H 0.94263 0.18559 0.88394 0.0
H1311 H 0.92153 0.2026 0.9054 0.0
H1312 H 0.91032 0.64089 0.67108 0.0
H1313 H 0.89352 0.66256 0.65002 0.0
H1314 H 0.9368 0.69463 0.64624 0.0
H1315 H 0.95353 0.67331 0.6676 0.0
H1316 H 0.90954 0.71044 0.66648 0.0
H1317 H 0.89285 0.6781 0.57524 0.0
H1318 H 0.88749 0.66707 0.60426 0.0
H1319 H 0.90909 0.67058 0.59642 0.0
C1320 C 0.91631 0.65246 0.66542 0.0
C1321 C 0.93327 0.65538 0.67111 0.0
C1322 C 0.90669 0.66482 0.65334 0.0
C1323 C 0.91393 0.68018 0.64646 0.0
C1324 C 0.93094 0.6829 0.65148 0.0
H1325 H 0.88638 0.75771 0.54314 0.0
H1326 H 0.89658 0.73308 0.5658 0.0
C1327 C 0.9405 0.67066 0.66366 0.0
C1328 C 0.90383 0.69385 0.63505 0.0
H1329 H 0.88156 0.705 0.58166 0.0
C1330 C 0.90333 0.70925 0.64799 0.0
C1331 C 0.89578 0.69223 0.61093 0.0
C1332 C 0.89639 0.67617 0.59573 0.0
C1333 C 0.89552 0.72327 0.63709 0.0
C1334 C 0.88756 0.72171 0.61285 0.0
C1335 C 0.88759 0.70614 0.6003 0.0
C1336 C 0.88058 0.73639 0.59905 0.0
C1337 C 0.8966 0.73977 0.6511 0.0
C1338 C 0.86802 0.74639 0.61005 0.0
C1339 C 0.86236 0.76073 0.59727 0.0
C1340 C 0.86895 0.76509 0.57308 0.0
C1341 C 0.8811 0.75475 0.56179 0.0
C1342 C 0.8869 0.7406 0.57469 0.0
H1343 H 0.90643 0.73966 0.66622 0.0
H1344 H 0.89931 0.75015 0.6375 0.0
H1345 H 0.88446 0.74238 0.66063 0.0
H1346 H 0.86266 0.74316 0.62855 0.0
H1347 H 0.85284 0.76837 0.60629 0.0
H1348 H 0.97937 0.10315 0.35808 0.0
H1349 H 0.00455 0.11283 0.38071 0.0
H1350 H 0.01952 0.14042 0.31311 0.0
H1351 H 0.99483 0.13052 0.29033 0.0
H1352 H 0.04584 0.124 0.33542 0.0
H1353 H 0.00986 0.1601 0.40834 0.0
H1354 H 0.00521 0.13816 0.40685 0.0
H1355 H 1.0002 0.15141 0.37996 0.0
C1356 C 0.9881 0.1112 0.34806 0.0
C1357 C 0.98506 0.11619 0.32252 0.0
C1358 C 0.00242 0.11678 0.36103 0.0
C1359 C 0.01379 0.12754 0.34869 0.0
C1360 C 0.01093 0.13214 0.32301 0.0
H1361 H 0.07938 0.20166 0.40806 0.0
H1362 H 0.05808 0.18467 0.38701 0.0
C1363 C 0.99674 0.12652 0.31005 0.0
C1364 C 0.02841 0.13462 0.36246 0.0
H1365 H 0.03914 0.16134 0.41094 0.0
C1366 C 0.04443 0.13206 0.35208 0.0
C1367 C 0.02648 0.14524 0.38403 0.0
C1368 C 0.00952 0.14905 0.39539 0.0
C1369 C 0.05853 0.14023 0.36222 0.0
C1370 C 0.05655 0.15098 0.38362 0.0
C1371 C 0.04061 0.1531 0.3945 0.0
C1372 C 0.07053 0.1611 0.39413 0.0
C1373 C 0.07523 0.13785 0.34923 0.0
C1374 C 0.08486 0.15353 0.40458 0.0
C1375 C 0.09724 0.16329 0.41635 0.0
C1376 C 0.09531 0.18073 0.41825 0.0
C1377 C 0.0812 0.18826 0.40703 0.0
C1378 C 0.06898 0.17855 0.39506 0.0
H1379 H 0.07389 0.1324 0.32964 0.0
H1380 H 0.08203 0.1499 0.34763 0.0
H1381 H 0.08296 0.12917 0.36091 0.0
H1382 H 0.08619 0.14007 0.40449 0.0
H1383 H 0.10787 0.15711 0.42507 0.0
H1384 H 0.61861 0.24477 0.03629 0.0
H1385 H 0.60905 0.27002 0.05807 0.0
H1386 H 0.63558 0.25529 0.12679 0.0
H1387 H 0.64498 0.22971 0.10515 0.0
H1388 H 0.60379 0.26427 0.13696 0.0
H1389 H 0.63308 0.31292 0.07625 0.0
H1390 H 0.62129 0.29829 0.05739 0.0
H1391 H 0.63936 0.29126 0.07502 0.0
C1392 C 0.62255 0.24695 0.05597 0.0
C1393 C 0.63255 0.23525 0.06902 0.0
C1394 C 0.6172 0.26149 0.06831 0.0
C1395 C 0.62187 0.26473 0.09388 0.0
C1396 C 0.63196 0.25312 0.10695 0.0
H1397 H 0.59257 0.35727 0.17386 0.0
H1398 H 0.60934 0.33577 0.1521 0.0
C1399 C 0.63731 0.23851 0.0946 0.0
C1400 C 0.61503 0.27954 0.10748 0.0
H1401 H 0.60971 0.3218 0.10232 0.0
C1402 C 0.60529 0.27687 0.12958 0.0
C1403 C 0.61719 0.29602 0.09811 0.0
C1404 C 0.62845 0.29983 0.07555 0.0
C1405 C 0.597 0.2901 0.14181 0.0
C1406 C 0.59816 0.3064 0.13132 0.0
C1407 C 0.60858 0.30924 0.11003 0.0
C1408 C 0.58811 0.3204 0.1418 0.0
C1409 C 0.58696 0.28646 0.1658 0.0
C1410 C 0.57062 0.31925 0.14213 0.0
C1411 C 0.56107 0.33138 0.15459 0.0
C1412 C 0.5688 0.34507 0.16668 0.0
C1413 C 0.58626 0.34686 0.16473 0.0
C1414 C 0.59585 0.33457 0.15241 0.0
H1415 H 0.59135 0.27489 0.17552 0.0
H1416 H 0.58769 0.29698 0.17971 0.0
H1417 H 0.57366 0.2846 0.16044 0.0
H1418 H 0.56436 0.30865 0.13341 0.0
H1419 H 0.54763 0.32977 0.15539 0.0
H1420 H 0.42136 0.79898 0.90465 0.0
H1421 H 0.44227 0.8162 0.88315 0.0
H1422 H 0.41307 0.86033 0.89888 0.0
H1423 H 0.3918 0.84306 0.92029 0.0
H1424 H 0.42778 0.86002 0.84919 0.0
H1425 H 0.47421 0.84568 0.92516 0.0
H1426 H 0.46536 0.82719 0.91111 0.0
H1427 H 0.45219 0.84133 0.92887 0.0
C1428 C 0.41926 0.81233 0.90337 0.0
C1429 C 0.40502 0.81968 0.91451 0.0
C1430 C 0.43127 0.82216 0.89117 0.0
C1431 C 0.42943 0.83957 0.89007 0.0
C1432 C 0.41479 0.84691 0.8998 0.0
H1433 H 0.51925 0.89743 0.85175 0.0
H1434 H 0.49358 0.88833 0.87346 0.0
C1435 C 0.40264 0.83703 0.91194 0.0
C1436 C 0.44316 0.84995 0.8795 0.0
H1437 H 0.485 0.85714 0.88592 0.0
C1438 C 0.44026 0.85959 0.85736 0.0
C1439 C 0.45933 0.8497 0.89057 0.0
C1440 C 0.46295 0.84056 0.9154 0.0
C1441 C 0.45335 0.86823 0.84516 0.0
C1442 C 0.46979 0.86689 0.85512 0.0
C1443 C 0.47246 0.85801 0.87807 0.0
C1444 C 0.48457 0.87363 0.84131 0.0
C1445 C 0.44946 0.87862 0.82165 0.0
C1446 C 0.48808 0.86833 0.81611 0.0
C1447 C 0.50266 0.87354 0.80369 0.0
C1448 C 0.51415 0.88399 0.81634 0.0
C1449 C 0.51062 0.88938 0.84152 0.0
C1450 C 0.49596 0.88421 0.85392 0.0
H1451 H 0.43629 0.88302 0.82187 0.0
H1452 H 0.45785 0.88964 0.82027 0.0
H1453 H 0.45118 0.87085 0.80414 0.0
H1454 H 0.47977 0.85977 0.80625 0.0
H1455 H 0.50505 0.8691 0.78433 0.0
H1456 H 0.88171 0.2452 0.95343 0.0
H1457 H 0.89103 0.26971 0.9297 0.0
H1458 H 0.86325 0.25339 0.86305 0.0
H1459 H 0.85412 0.22839 0.88668 0.0
H1460 H 0.8945 0.26251 0.85054 0.0
H1461 H 0.86675 0.31203 0.9109 0.0
H1462 H 0.87889 0.29791 0.93012 0.0
H1463 H 0.86057 0.29039 0.91355 0.0
C1464 C 0.87744 0.24684 0.93379 0.0
C1465 C 0.86715 0.23487 0.92192 0.0
C1466 C 0.88266 0.26099 0.92032 0.0
C1467 C 0.87754 0.26361 0.8948 0.0
C1468 C 0.8672 0.2517 0.88285 0.0
H1469 H 0.90852 0.35718 0.81919 0.0
H1470 H 0.89117 0.33516 0.83832 0.0
C1471 C 0.86201 0.23744 0.89633 0.0
C1472 C 0.8841 0.27816 0.88026 0.0
H1473 H 0.89051 0.32026 0.88485 0.0
C1474 C 0.89339 0.27517 0.8578 0.0
C1475 C 0.88238 0.29475 0.88939 0.0
C1476 C 0.87144 0.29898 0.91215 0.0
C1477 C 0.90182 0.28817 0.84512 0.0
C1478 C 0.90133 0.3045 0.85561 0.0
C1479 C 0.8912 0.30768 0.87713 0.0
C1480 C 0.9118 0.31822 0.84515 0.0
C1481 C 0.91127 0.2842 0.8207 0.0
C1482 C 0.9292 0.31627 0.84354 0.0
C1483 C 0.93909 0.32872 0.8325 0.0
C1484 C 0.93183 0.34356 0.82326 0.0
C1485 C 0.9145 0.3459 0.82614 0.0
C1486 C 0.90456 0.33331 0.83696 0.0
H1487 H 0.90591 0.27311 0.81081 0.0
H1488 H 0.91114 0.29492 0.80712 0.0
H1489 H 0.92445 0.28126 0.82558 0.0
H1490 H 0.93514 0.30499 0.85056 0.0
H1491 H 0.95243 0.32662 0.83093 0.0
H1492 H 0.50076 0.12361 0.71137 0.0
H1493 H 0.47601 0.13467 0.68975 0.0
H1494 H 0.49924 0.12605 0.6159 0.0
H1495 H 0.52386 0.11438 0.63751 0.0
H1496 H 0.47421 0.16158 0.66108 0.0
H1497 H 0.45335 0.10763 0.60255 0.0
H1498 H 0.4687 0.10564 0.62786 0.0
H1499 H 0.47474 0.11306 0.59645 0.0
C1500 C 0.5005 0.12387 0.6905 0.0
C1501 C 0.51421 0.11812 0.6761 0.0
C1502 C 0.48635 0.13018 0.67817 0.0
C1503 C 0.48563 0.131 0.65118 0.0
C1504 C 0.49928 0.12514 0.63671 0.0
H1505 H 0.42885 0.2008 0.562 0.0
H1506 H 0.44951 0.18492 0.5861 0.0
C1507 C 0.5134 0.11859 0.64907 0.0
C1508 C 0.47117 0.1392 0.63844 0.0
H1509 H 0.44163 0.1343 0.59148 0.0
C1510 C 0.46699 0.15552 0.64605 0.0
C1511 C 0.46157 0.13124 0.61908 0.0
C1512 C 0.4647 0.11336 0.61119 0.0
C1513 C 0.45384 0.16426 0.63435 0.0
C1514 C 0.44488 0.15667 0.614 0.0
C1515 C 0.44865 0.14016 0.60691 0.0
C1516 C 0.43212 0.16601 0.5991 0.0
C1517 C 0.44967 0.18156 0.64399 0.0
C1518 C 0.41551 0.1604 0.5978 0.0
C1519 C 0.40356 0.16943 0.58379 0.0
C1520 C 0.40808 0.1842 0.57074 0.0
C1521 C 0.42482 0.18961 0.57195 0.0
C1522 C 0.43669 0.18057 0.58583 0.0
H1523 H 0.45392 0.1834 0.66417 0.0
H1524 H 0.45612 0.19096 0.6318 0.0
H1525 H 0.43601 0.18398 0.64305 0.0
H1526 H 0.41176 0.14911 0.60779 0.0
H1527 H 0.39083 0.16485 0.58318 0.0
H1528 H 0.61956 0.75571 0.45596 0.0
H1529 H 0.60919 0.73117 0.43321 0.0
H1530 H 0.63665 0.74589 0.36533 0.0
H1531 H 0.64671 0.77088 0.38787 0.0
H1532 H 0.60553 0.73763 0.3535 0.0
H1533 H 0.63157 0.68785 0.41532 0.0
H1534 H 0.61966 0.70249 0.43394 0.0
H1535 H 0.63833 0.70933 0.41762 0.0
C1536 C 0.62351 0.75368 0.43625 0.0
C1537 C 0.63397 0.76522 0.42369 0.0
C1538 C 0.6177 0.73953 0.42334 0.0
C1539 C 0.62244 0.73645 0.39774 0.0
C1540 C 0.63296 0.74792 0.38517 0.0
H1541 H 0.59131 0.64404 0.31907 0.0
H1542 H 0.6084 0.66543 0.34039 0.0
C1543 C 0.63868 0.76219 0.39804 0.0
C1544 C 0.61535 0.72194 0.38366 0.0
H1545 H 0.60819 0.67995 0.38844 0.0
C1546 C 0.60632 0.72499 0.36096 0.0
C1547 C 0.61663 0.70537 0.39308 0.0
C1548 C 0.62724 0.70104 0.41617 0.0
C1549 C 0.59786 0.71208 0.34816 0.0
C1550 C 0.59803 0.69577 0.35873 0.0
C1551 C 0.60778 0.69252 0.38065 0.0
C1552 C 0.58767 0.68215 0.34775 0.0
C1553 C 0.58877 0.7161 0.32343 0.0
C1554 C 0.5703 0.68415 0.34581 0.0
C1555 C 0.56056 0.67206 0.33357 0.0
C1556 C 0.56796 0.65757 0.32335 0.0
C1557 C 0.58524 0.65508 0.32672 0.0
C1558 C 0.59502 0.6673 0.33881 0.0
H1559 H 0.59416 0.72729 0.31384 0.0
H1560 H 0.58923 0.70544 0.30975 0.0
H1561 H 0.57547 0.71885 0.32783 0.0
H1562 H 0.56429 0.69526 0.35331 0.0
H1563 H 0.54725 0.67426 0.33165 0.0
H1564 H 0.10561 0.84087 0.07033 0.0
H1565 H 0.08415 0.85737 0.09246 0.0
H1566 H 0.05599 0.8124 0.10738 0.0
H1567 H 0.07705 0.79597 0.08479 0.0
H1568 H 0.03686 0.83633 0.08604 0.0
H1569 H 0.07279 0.86287 0.16799 0.0
H1570 H 0.08153 0.86709 0.13679 0.0
H1571 H 0.08067 0.84595 0.14847 0.0
C1572 C 0.09499 0.83449 0.07874 0.0
C1573 C 0.09298 0.81713 0.07572 0.0
C1574 C 0.08275 0.84393 0.09143 0.0
C1575 C 0.0685 0.83611 0.1017 0.0
C1576 C 0.06684 0.81871 0.09951 0.0
H1577 H 0.99387 0.86769 0.20855 0.0
H1578 H 0.01817 0.85687 0.18562 0.0
C1579 C 0.07891 0.80933 0.08663 0.0
C1580 C 0.05471 0.84595 0.11334 0.0
H1581 H 0.04488 0.87207 0.16309 0.0
C1582 C 0.03862 0.8442 0.10285 0.0
C1583 C 0.05704 0.85617 0.13528 0.0
C1584 C 0.0739 0.85806 0.14798 0.0
C1585 C 0.02471 0.85199 0.11407 0.0
C1586 C 0.02702 0.86223 0.136 0.0
C1587 C 0.04317 0.86431 0.14615 0.0
C1588 C 0.01267 0.86973 0.14993 0.0
C1589 C 0.00759 0.84857 0.10298 0.0
C1590 C 0.00162 0.88079 0.1376 0.0
C1591 C 0.98754 0.88685 0.1506 0.0
C1592 C 0.98445 0.88212 0.17625 0.0
C1593 C 0.99585 0.8715 0.18876 0.0
C1594 C 0.00979 0.86535 0.17572 0.0
H1595 H 0.00759 0.83745 0.09017 0.0
H1596 H 0.99827 0.84654 0.11853 0.0
H1597 H 0.00352 0.8595 0.0914 0.0
H1598 H 0.00379 0.88461 0.11786 0.0
H1599 H 0.97904 0.89514 0.14056 0.0
H1600 H 0.63633 0.72745 0.88658 0.0
H1601 H 0.6249 0.75253 0.8659 0.0
H1602 H 0.61924 0.77581 0.9404 0.0
H1603 H 0.62996 0.75061 0.96109 0.0
H1604 H 0.59167 0.77857 0.91438 0.0
H1605 H 0.6437 0.79786 0.85073 0.0
H1606 H 0.63745 0.77666 0.84496 0.0
H1607 H 0.64625 0.78234 0.87568 0.0
C1608 C 0.63284 0.73803 0.89845 0.0
C1609 C 0.63398 0.73709 0.92541 0.0
C1610 C 0.62644 0.75241 0.88662 0.0
C1611 C 0.62143 0.7662 0.90155 0.0
C1612 C 0.62304 0.76537 0.92845 0.0
H1613 H 0.58721 0.86071 0.83225 0.0
H1614 H 0.60324 0.8403 0.85747 0.0
C1615 C 0.62916 0.75095 0.94025 0.0
C1616 C 0.61316 0.78089 0.88954 0.0
H1617 H 0.61683 0.81003 0.84172 0.0
C1618 C 0.5973 0.78555 0.8987 0.0
C1619 C 0.62056 0.79022 0.86934 0.0
C1620 C 0.638 0.78663 0.85979 0.0
C1621 C 0.58843 0.79886 0.88771 0.0
C1622 C 0.59535 0.80749 0.86645 0.0
C1623 C 0.61146 0.80328 0.85786 0.0
C1624 C 0.58559 0.82012 0.85193 0.0
C1625 C 0.57168 0.80354 0.89901 0.0
C1626 C 0.57044 0.81551 0.84039 0.0
C1627 C 0.56124 0.82709 0.82621 0.0
C1628 C 0.56706 0.84356 0.82291 0.0
C1629 C 0.58229 0.84819 0.83451 0.0
C1630 C 0.59151 0.83653 0.84883 0.0
H1631 H 0.57075 0.79975 0.91956 0.0
H1632 H 0.56939 0.8172 0.89761 0.0
H1633 H 0.56165 0.79694 0.88828 0.0
H1634 H 0.56582 0.80283 0.84203 0.0
H1635 H 0.54965 0.82298 0.81748 0.0
H1636 H 0.50703 0.36678 0.20567 0.0
H1637 H 0.48219 0.35731 0.18285 0.0
H1638 H 0.49391 0.39026 0.11954 0.0
H1639 H 0.5193 0.39943 0.14206 0.0
H1640 H 0.45456 0.37332 0.16539 0.0
H1641 H 0.49 0.34563 0.08363 0.0
H1642 H 0.50015 0.3528 0.1126 0.0
H1643 H 0.49333 0.36757 0.08871 0.0
C1644 C 0.50438 0.37203 0.18688 0.0
C1645 C 0.51524 0.38371 0.17551 0.0
C1646 C 0.4901 0.36666 0.1739 0.0
C1647 C 0.48629 0.37289 0.14934 0.0
C1648 C 0.4968 0.38501 0.13825 0.0
H1649 H 0.39194 0.34264 0.07382 0.0
H1650 H 0.41308 0.35986 0.09546 0.0
C1651 C 0.51125 0.39029 0.15116 0.0
C1652 C 0.47164 0.36608 0.13531 0.0
H1653 H 0.46081 0.34274 0.08287 0.0
C1654 C 0.45586 0.36676 0.14721 0.0
C1655 C 0.47342 0.35743 0.1117 0.0
C1656 C 0.49014 0.35564 0.09845 0.0
C1657 C 0.44195 0.35855 0.13658 0.0
C1658 C 0.44382 0.34971 0.11319 0.0
C1659 C 0.45944 0.34955 0.10083 0.0
C1660 C 0.43022 0.33937 0.10209 0.0
C1661 C 0.42559 0.35875 0.15105 0.0
C1662 C 0.43279 0.32217 0.09882 0.0
C1663 C 0.42087 0.31237 0.08636 0.0
C1664 C 0.40605 0.31956 0.07686 0.0
C1665 C 0.40316 0.3367 0.08107 0.0
C1666 C 0.41522 0.34656 0.09345 0.0
H1667 H 0.42714 0.36322 0.17118 0.0
H1668 H 0.41673 0.36726 0.14111 0.0
H1669 H 0.41992 0.34608 0.15147 0.0
H1670 H 0.44425 0.31636 0.10547 0.0
H1671 H 0.42347 0.29921 0.08362 0.0
H1672 H 0.88062 0.25465 0.45777 0.0
H1673 H 0.89081 0.2302 0.43468 0.0
H1674 H 0.86336 0.24543 0.36708 0.0
H1675 H 0.85341 0.27037 0.39001 0.0
H1676 H 0.87489 0.2039 0.41178 0.0
H1677 H 0.9107 0.24086 0.33968 0.0
H1678 H 0.90178 0.2502 0.36814 0.0
H1679 H 0.8887 0.24526 0.34102 0.0
C1680 C 0.87671 0.25284 0.43799 0.0
C1681 C 0.86636 0.26454 0.4256 0.0
C1682 C 0.8825 0.23879 0.42485 0.0
C1683 C 0.87803 0.23609 0.39906 0.0
C1684 C 0.86722 0.24745 0.38683 0.0
H1685 H 0.90802 0.14291 0.32076 0.0
H1686 H 0.89097 0.16438 0.34184 0.0
C1687 C 0.86149 0.26163 0.39997 0.0
C1688 C 0.88532 0.22167 0.38507 0.0
H1689 H 0.91203 0.21162 0.33623 0.0
C1690 C 0.88292 0.20553 0.39513 0.0
C1691 C 0.8959 0.22389 0.36351 0.0
C1692 C 0.89959 0.24097 0.35252 0.0
C1693 C 0.89118 0.19161 0.38464 0.0
C1694 C 0.90185 0.19387 0.3632 0.0
C1695 C 0.90384 0.20992 0.35268 0.0
C1696 C 0.91199 0.18005 0.35224 0.0
C1697 C 0.88896 0.17477 0.39731 0.0
C1698 C 0.92943 0.18169 0.35112 0.0
C1699 C 0.93914 0.1696 0.33885 0.0
C1700 C 0.93162 0.15553 0.32752 0.0
C1701 C 0.91419 0.15353 0.32954 0.0
C1702 C 0.90443 0.16578 0.34161 0.0
H1703 H 0.88363 0.17591 0.417 0.0
H1704 H 0.88025 0.16711 0.3856 0.0
H1705 H 0.90106 0.16802 0.39857 0.0
H1706 H 0.93554 0.19256 0.35929 0.0
H1707 H 0.95254 0.17148 0.33775 0.0
H1708 H 0.06939 0.70003 0.5588 0.0
H1709 H 0.04911 0.68357 0.58277 0.0
H1710 H 0.08789 0.64916 0.60546 0.0
H1711 H 0.10845 0.66548 0.58099 0.0
H1712 H 0.05865 0.63327 0.58879 0.0
H1713 H 0.04422 0.68223 0.66078 0.0
H1714 H 0.04199 0.68956 0.6283 0.0
H1715 H 0.06225 0.68332 0.63994 0.0
C1716 C 0.07373 0.68903 0.56895 0.0
C1717 C 0.09064 0.68418 0.56806 0.0
C1718 C 0.06208 0.67966 0.58275 0.0
C1719 C 0.06704 0.66532 0.59625 0.0
C1720 C 0.08384 0.66027 0.59528 0.0
H1721 H 0.99914 0.62142 0.70801 0.0
H1722 H 0.02378 0.63278 0.68653 0.0
C1723 C 0.09557 0.66964 0.58135 0.0
C1724 C 0.0545 0.6556 0.61103 0.0
H1725 H 0.02472 0.6597 0.65762 0.0
C1726 C 0.05134 0.63895 0.60406 0.0
C1727 C 0.04515 0.66297 0.63117 0.0
C1728 C 0.04868 0.68045 0.64069 0.0
C1729 C 0.03864 0.62964 0.61612 0.0
C1730 C 0.02866 0.63734 0.63526 0.0
C1731 C 0.03223 0.65383 0.64275 0.0
C1732 C 0.01441 0.62871 0.6479 0.0
C1733 C 0.03615 0.61164 0.60837 0.0
C1734 C 0.00097 0.62244 0.63336 0.0
C1735 C 0.98691 0.61572 0.64565 0.0
C1736 C 0.98595 0.61546 0.67267 0.0
C1737 C 0.99951 0.6215 0.68714 0.0
C1738 C 0.0136 0.628 0.67489 0.0
H1739 H 0.04771 0.60626 0.59987 0.0
H1740 H 0.03234 0.60385 0.62508 0.0
H1741 H 0.02616 0.61094 0.59356 0.0
H1742 H 0.0011 0.62324 0.61253 0.0
H1743 H 0.97657 0.61128 0.63404 0.0
H1744 H 0.64018 0.27175 0.60977 0.0
H1745 H 0.62869 0.24734 0.63222 0.0
H1746 H 0.61506 0.22547 0.55919 0.0
H1747 H 0.62602 0.24995 0.53682 0.0
H1748 H 0.58946 0.22534 0.59148 0.0
H1749 H 0.64506 0.19998 0.64173 0.0
H1750 H 0.64138 0.22163 0.64875 0.0
H1751 H 0.64662 0.2154 0.61643 0.0
C1752 C 0.63494 0.26161 0.59854 0.0
C1753 C 0.63395 0.26275 0.57157 0.0
C1754 C 0.62849 0.24761 0.61136 0.0
C1755 C 0.6212 0.23445 0.59737 0.0
C1756 C 0.62065 0.23543 0.57039 0.0
H1757 H 0.58496 0.13997 0.66296 0.0
H1758 H 0.6009 0.1609 0.63861 0.0
C1759 C 0.62692 0.24944 0.55763 0.0
C1760 C 0.61281 0.22034 0.61072 0.0
H1761 H 0.61845 0.18938 0.65525 0.0
C1762 C 0.59587 0.2174 0.60525 0.0
C1763 C 0.6212 0.20983 0.62845 0.0
C1764 C 0.63961 0.21173 0.63402 0.0
C1765 C 0.58699 0.20453 0.61742 0.0
C1766 C 0.59514 0.19456 0.6361 0.0
C1767 C 0.61219 0.19715 0.6411 0.0
C1768 C 0.5859 0.18185 0.65126 0.0
C1769 C 0.56895 0.20169 0.61004 0.0
C1770 C 0.5724 0.18675 0.66672 0.0
C1771 C 0.56323 0.17489 0.68042 0.0
C1772 C 0.56748 0.15783 0.67926 0.0
C1773 C 0.58129 0.15297 0.6642 0.0
C1774 C 0.59044 0.16491 0.65033 0.0
H1775 H 0.56618 0.20674 0.59055 0.0
H1776 H 0.56576 0.18819 0.61032 0.0
H1777 H 0.56074 0.20824 0.62401 0.0
H1778 H 0.56893 0.1998 0.66818 0.0
H1779 H 0.55284 0.17917 0.69204 0.0
H1780 H 0.97836 0.39608 0.86168 0.0
H1781 H 0.00344 0.38643 0.88461 0.0
H1782 H 0.01984 0.36066 0.81612 0.0
H1783 H 0.99527 0.37055 0.7931 0.0
H1784 H 0.01265 0.35512 0.89517 0.0
H1785 H 0.06216 0.38424 0.83629 0.0
H1786 H 0.04051 0.39043 0.83391 0.0
H1787 H 0.04809 0.37251 0.81642 0.0
C1788 C 0.98745 0.38852 0.85149 0.0
C1789 C 0.98488 0.38411 0.82559 0.0
C1790 C 0.00175 0.38304 0.86457 0.0
C1791 C 0.01371 0.37312 0.85191 0.0
C1792 C 0.01109 0.36872 0.82608 0.0
H1793 H 0.07675 0.29708 0.91286 0.0
H1794 H 0.05541 0.31456 0.89283 0.0
C1795 C 0.99691 0.37425 0.813 0.0
C1796 C 0.02829 0.3662 0.866 0.0
H1797 H 0.07041 0.35991 0.86106 0.0
C1798 C 0.02531 0.3564 0.88795 0.0
C1799 C 0.04488 0.36811 0.85692 0.0
C1800 C 0.04912 0.37956 0.83476 0.0
C1801 C 0.03831 0.34771 0.90017 0.0
C1802 C 0.05465 0.34846 0.88971 0.0
C1803 C 0.05782 0.35904 0.86871 0.0
C1804 C 0.06839 0.33787 0.89981 0.0
C1805 C 0.03436 0.33774 0.9241 0.0
C1806 C 0.08326 0.34507 0.90893 0.0
C1807 C 0.09569 0.33503 0.92 0.0
C1808 C 0.09336 0.31766 0.9222 0.0
C1809 C 0.07882 0.31044 0.91182 0.0
C1810 C 0.06654 0.32044 0.90055 0.0
H1811 H 0.02316 0.34274 0.93414 0.0
H1812 H 0.03163 0.32462 0.91859 0.0
H1813 H 0.04503 0.33775 0.93778 0.0
H1814 H 0.08503 0.35848 0.90825 0.0
H1815 H 0.10675 0.34097 0.92782 0.0
H1816 H 0.87763 0.74841 0.0329 0.0
H1817 H 0.88838 0.77296 0.0554 0.0
H1818 H 0.87234 0.75215 0.12798 0.0
H1819 H 0.86116 0.7276 0.10544 0.0
H1820 H 0.86642 0.78682 0.12363 0.0
H1821 H 0.9316 0.77036 0.09706 0.0
H1822 H 0.91777 0.77242 0.07 0.0
H1823 H 0.91439 0.75602 0.09311 0.0
C1824 C 0.87628 0.74909 0.05364 0.0
C1825 C 0.86872 0.73601 0.06746 0.0
C1826 C 0.88247 0.76311 0.06646 0.0
C1827 C 0.88143 0.76422 0.09338 0.0
C1828 C 0.87331 0.75148 0.10718 0.0
H1829 H 0.94474 0.82071 0.19318 0.0
H1830 H 0.92901 0.80001 0.16908 0.0
C1831 C 0.86698 0.73747 0.09431 0.0
C1832 C 0.88957 0.77826 0.10714 0.0
H1833 H 0.92758 0.79635 0.11772 0.0
C1834 C 0.87978 0.78895 0.12238 0.0
C1835 C 0.90704 0.78086 0.10565 0.0
C1836 C 0.91836 0.76923 0.09078 0.0
C1837 C 0.88703 0.80222 0.13621 0.0
C1838 C 0.90447 0.80498 0.13432 0.0
C1839 C 0.91419 0.79431 0.11895 0.0
C1840 C 0.91324 0.81797 0.14959 0.0
C1841 C 0.87607 0.81282 0.15329 0.0
C1842 C 0.90962 0.83506 0.14669 0.0
C1843 C 0.9186 0.84708 0.1607 0.0
C1844 C 0.93149 0.84217 0.17753 0.0
C1845 C 0.93502 0.82502 0.18027 0.0
C1846 C 0.92599 0.81311 0.16652 0.0
H1847 H 0.86383 0.80676 0.15715 0.0
H1848 H 0.88232 0.8154 0.17198 0.0
H1849 H 0.87365 0.82496 0.14365 0.0
H1850 H 0.90004 0.83913 0.13333 0.0
H1851 H 0.9156 0.86017 0.15808 0.0
H1852 H 0.41904 0.70399 0.40606 0.0
H1853 H 0.44002 0.68775 0.38293 0.0
H1854 H 0.41498 0.64212 0.40471 0.0
H1855 H 0.39358 0.6584 0.42742 0.0
H1856 H 0.461 0.66586 0.40578 0.0
H1857 H 0.42474 0.63374 0.32904 0.0
H1858 H 0.41642 0.65115 0.34708 0.0
H1859 H 0.41699 0.63063 0.36117 0.0
C1860 C 0.41781 0.69051 0.40555 0.0
C1861 C 0.40469 0.68247 0.41863 0.0
C1862 C 0.42983 0.68124 0.39235 0.0
C1863 C 0.42908 0.66372 0.39204 0.0
C1864 C 0.41566 0.65563 0.4043 0.0
H1865 H 0.52011 0.60692 0.35467 0.0
H1866 H 0.49512 0.61712 0.3771 0.0
C1867 C 0.40346 0.66495 0.41731 0.0
C1868 C 0.44311 0.65414 0.38057 0.0
H1869 H 0.4533 0.62642 0.33306 0.0
C1870 C 0.4593 0.65719 0.38993 0.0
C1871 C 0.44087 0.64284 0.3599 0.0
C1872 C 0.42385 0.63946 0.3485 0.0
C1873 C 0.47336 0.6496 0.37882 0.0
C1874 C 0.47113 0.63831 0.35814 0.0
C1875 C 0.45492 0.63498 0.34907 0.0
C1876 C 0.48559 0.63094 0.34437 0.0
C1877 C 0.49051 0.65427 0.38861 0.0
C1878 C 0.48824 0.63491 0.31837 0.0
C1879 C 0.5024 0.62904 0.30554 0.0
C1880 C 0.51418 0.61905 0.31844 0.0
C1881 C 0.5113 0.61469 0.34429 0.0
C1882 C 0.49707 0.62055 0.35714 0.0
H1883 H 0.49021 0.66573 0.40069 0.0
H1884 H 0.49549 0.64391 0.40057 0.0
H1885 H 0.49929 0.65636 0.37235 0.0
H1886 H 0.47953 0.6429 0.30816 0.0
H1887 H 0.50421 0.63256 0.28558 0.0
H1888 H 0.45197 0.17278 0.15668 0.0
H1889 H 0.4345 0.19353 0.13527 0.0
H1890 H 0.39082 0.16336 0.14968 0.0
H1891 H 0.40832 0.14227 0.17098 0.0
H1892 H 0.39103 0.17888 0.1005 0.0
H1893 H 0.40423 0.22415 0.17852 0.0
H1894 H 0.42295 0.21586 0.16436 0.0
H1895 H 0.40892 0.20215 0.18137 0.0
C1896 C 0.43868 0.17041 0.15503 0.0
C1897 C 0.4315 0.15597 0.16585 0.0
C1898 C 0.42871 0.18233 0.1429 0.0
C1899 C 0.41133 0.18019 0.14158 0.0
C1900 C 0.4042 0.16531 0.1508 0.0
H1901 H 0.35298 0.27015 0.105 0.0
H1902 H 0.36188 0.24428 0.12644 0.0
C1903 C 0.41423 0.15326 0.16285 0.0
C1904 C 0.40074 0.19389 0.1315 0.0
H1905 H 0.39286 0.23547 0.13955 0.0
C1906 C 0.39123 0.19121 0.10918 0.0
C1907 C 0.40064 0.20984 0.14327 0.0
C1908 C 0.40959 0.21316 0.16836 0.0
C1909 C 0.38245 0.20437 0.09742 0.0
C1910 C 0.38353 0.22065 0.10802 0.0
C1911 C 0.39221 0.22305 0.13121 0.0
C1912 C 0.37692 0.23558 0.09446 0.0
C1913 C 0.37223 0.20072 0.07365 0.0
C1914 C 0.38252 0.23933 0.06951 0.0
C1915 C 0.37743 0.25399 0.05726 0.0
C1916 C 0.36681 0.26535 0.06985 0.0
C1917 C 0.36116 0.26161 0.09483 0.0
C1918 C 0.36621 0.24685 0.10706 0.0
H1919 H 0.36785 0.18754 0.07349 0.0
H1920 H 0.3612 0.2091 0.07227 0.0
H1921 H 0.38013 0.20261 0.0563 0.0
H1922 H 0.3912 0.23112 0.05969 0.0
H1923 H 0.38208 0.25654 0.03806 0.0
H1924 H 0.4804 0.6043 0.85995 0.0
H1925 H 0.50495 0.6149 0.88316 0.0
H1926 H 0.51908 0.64374 0.81637 0.0
H1927 H 0.49504 0.63287 0.79296 0.0
H1928 H 0.54585 0.62864 0.83805 0.0
H1929 H 0.50851 0.66152 0.9128 0.0
H1930 H 0.5048 0.63943 0.91072 0.0
H1931 H 0.49915 0.65277 0.88422 0.0
C1932 C 0.4888 0.61285 0.85024 0.0
C1933 C 0.48572 0.61785 0.82472 0.0
C1934 C 0.50276 0.61896 0.86355 0.0
C1935 C 0.51371 0.63033 0.85163 0.0
C1936 C 0.5108 0.63501 0.82597 0.0
H1937 H 0.57745 0.70458 0.9171 0.0
H1938 H 0.55612 0.68785 0.89563 0.0
C1939 C 0.49699 0.62882 0.81264 0.0
C1940 C 0.52802 0.63778 0.86574 0.0
H1941 H 0.53779 0.66325 0.91629 0.0
C1942 C 0.54413 0.63614 0.85526 0.0
C1943 C 0.5257 0.64769 0.88804 0.0
C1944 C 0.50861 0.65062 0.89954 0.0
C1945 C 0.55792 0.64444 0.86607 0.0
C1946 C 0.55559 0.65435 0.88836 0.0
C1947 C 0.53955 0.65563 0.89922 0.0
C1948 C 0.5693 0.66438 0.89991 0.0
C1949 C 0.57468 0.64309 0.85288 0.0
C1950 C 0.58396 0.65681 0.90916 0.0
C1951 C 0.59635 0.66642 0.92116 0.0
C1952 C 0.59412 0.68373 0.92455 0.0
C1953 C 0.57953 0.69127 0.91492 0.0
C1954 C 0.56729 0.68171 0.90269 0.0
H1955 H 0.57345 0.6386 0.83271 0.0
H1956 H 0.58122 0.65533 0.85268 0.0
H1957 H 0.5826 0.63402 0.86349 0.0
H1958 H 0.58564 0.64341 0.90772 0.0
H1959 H 0.60737 0.66021 0.92862 0.0
H1960 H 0.08402 0.86141 0.66187 0.0
H1961 H 0.09913 0.84053 0.63629 0.0
H1962 H 0.06386 0.80275 0.65989 0.0
H1963 H 0.04856 0.82338 0.68491 0.0
H1964 H 0.11448 0.81123 0.65179 0.0
H1965 H 0.06388 0.79748 0.58226 0.0
H1966 H 0.06341 0.81548 0.6032 0.0
H1967 H 0.05707 0.79528 0.61501 0.0
C1968 C 0.07939 0.84869 0.66143 0.0
C1969 C 0.06497 0.84414 0.67533 0.0
C1970 C 0.08808 0.83677 0.64686 0.0
C1971 C 0.08245 0.82016 0.64585 0.0
C1972 C 0.0682 0.81558 0.65988 0.0
H1973 H 0.13449 0.72878 0.60747 0.0
H1974 H 0.12289 0.7535 0.62882 0.0
C1975 C 0.05949 0.82743 0.6743 0.0
C1976 C 0.0916 0.80738 0.63072 0.0
H1977 H 0.08599 0.7774 0.58482 0.0
C1978 C 0.10834 0.80395 0.63692 0.0
C1979 C 0.08365 0.79806 0.61107 0.0
C1980 C 0.06607 0.80187 0.60229 0.0
C1981 C 0.11716 0.79102 0.62461 0.0
C1982 C 0.10886 0.78105 0.60605 0.0
C1983 C 0.09231 0.78489 0.59927 0.0
C1984 C 0.11696 0.76652 0.59336 0.0
C1985 C 0.13527 0.78827 0.6315 0.0
C1986 C 0.1172 0.76544 0.56637 0.0
C1987 C 0.12349 0.75122 0.5542 0.0
C1988 C 0.12978 0.73782 0.56877 0.0
C1989 C 0.12985 0.73899 0.59577 0.0
C1990 C 0.12335 0.75317 0.60798 0.0
H1991 H 0.14104 0.79982 0.63941 0.0
H1992 H 0.13612 0.77844 0.64653 0.0
H1993 H 0.14263 0.78416 0.6145 0.0
H1994 H 0.11229 0.77553 0.55469 0.0
H1995 H 0.12331 0.75068 0.53335 0.0
H1996 H 0.8928 0.34083 0.42595 0.0
H1997 H 0.91438 0.35783 0.40502 0.0
H1998 H 0.94453 0.31375 0.39368 0.0
H1999 H 0.92331 0.2968 0.41497 0.0
H2000 H 0.96204 0.3391 0.4159 0.0
H2001 H 0.92778 0.36217 0.32974 0.0
H2002 H 0.91792 0.3664 0.36014 0.0
H2003 H 0.92012 0.34518 0.34934 0.0
C2004 C 0.9039 0.33473 0.41858 0.0
C2005 C 0.90636 0.31746 0.42219 0.0
C2006 C 0.91621 0.34446 0.4066 0.0
C2007 C 0.93104 0.33705 0.3977 0.0
C2008 C 0.93322 0.31975 0.40051 0.0
H2009 H 0.00691 0.36594 0.29288 0.0
H2010 H 0.98242 0.35595 0.3161 0.0
C2011 C 0.92105 0.31007 0.41263 0.0
C2012 C 0.94479 0.34721 0.38661 0.0
H2013 H 0.95536 0.37191 0.3355 0.0
C2014 C 0.96058 0.34637 0.39839 0.0
C2015 C 0.94282 0.35667 0.36379 0.0
C2016 C 0.9263 0.35761 0.34983 0.0
C2017 C 0.9746 0.3542 0.38751 0.0
C2018 C 0.97268 0.36352 0.36452 0.0
C2019 C 0.95677 0.36484 0.35321 0.0
C2020 C 0.98726 0.37048 0.35047 0.0
C2021 C 0.99145 0.35172 0.40005 0.0
C2022 C 0.99807 0.38215 0.36195 0.0
C2023 C 0.01231 0.38774 0.34877 0.0
C2024 C 0.01578 0.38191 0.3238 0.0
C2025 C 0.00465 0.37062 0.31214 0.0
C2026 C 0.99058 0.36495 0.32535 0.0
H2027 H 0.99131 0.34129 0.41419 0.0
H2028 H 0.00121 0.3491 0.38539 0.0
H2029 H 0.99501 0.36329 0.41048 0.0
H2030 H 0.99557 0.38686 0.38112 0.0
H2031 H 0.02059 0.39656 0.35813 0.0
H2032 H 0.45297 0.82545 0.33676 0.0
H2033 H 0.43521 0.80493 0.35818 0.0
H2034 H 0.39194 0.83566 0.34368 0.0
H2035 H 0.40973 0.85653 0.32249 0.0
H2036 H 0.39148 0.82094 0.3922 0.0
H2037 H 0.40489 0.77386 0.31695 0.0
H2038 H 0.42364 0.78193 0.33126 0.0
H2039 H 0.41017 0.79567 0.31324 0.0
C2040 C 0.4397 0.82797 0.33834 0.0
C2041 C 0.43273 0.84253 0.32762 0.0
C2042 C 0.42956 0.81617 0.35045 0.0
C2043 C 0.41221 0.81854 0.3518 0.0
C2044 C 0.40529 0.83351 0.34253 0.0
H2045 H 0.35248 0.73002 0.39199 0.0
H2046 H 0.36184 0.75525 0.36922 0.0
C2047 C 0.41548 0.84544 0.33054 0.0
C2048 C 0.40141 0.80513 0.36233 0.0
H2049 H 0.39314 0.76346 0.35636 0.0
C2050 C 0.39165 0.80842 0.3842 0.0
C2051 C 0.40127 0.78891 0.35144 0.0
C2052 C 0.41041 0.78491 0.32676 0.0
C2053 C 0.38257 0.79564 0.3964 0.0
C2054 C 0.38359 0.77912 0.38675 0.0
C2055 C 0.39253 0.77607 0.36398 0.0
C2056 C 0.37669 0.7646 0.401 0.0
C2057 C 0.37208 0.79997 0.41962 0.0
C2058 C 0.38201 0.76143 0.42628 0.0
C2059 C 0.37666 0.74714 0.43926 0.0
C2060 C 0.36604 0.73557 0.42712 0.0
C2061 C 0.36063 0.73874 0.40183 0.0
C2062 C 0.36595 0.75314 0.38884 0.0
H2063 H 0.36783 0.81318 0.41888 0.0
H2064 H 0.36095 0.79173 0.42113 0.0
H2065 H 0.37973 0.79843 0.4373 0.0
H2066 H 0.39068 0.76979 0.43579 0.0
H2067 H 0.38112 0.74503 0.4587 0.0
H2068 H 0.02205 0.61081 0.13939 0.0
H2069 H 0.99757 0.62279 0.11767 0.0
H2070 H 0.97594 0.63495 0.19145 0.0
H2071 H 0.00052 0.62354 0.21315 0.0
H2072 H 0.96364 0.61661 0.1192 0.0
H2073 H 0.97763 0.6801 0.15648 0.0
H2074 H 0.99223 0.66302 0.15918 0.0
H2075 H 0.97501 0.66473 0.18133 0.0
C2076 C 0.01201 0.61594 0.15094 0.0
C2077 C 0.01326 0.61646 0.17792 0.0
C2078 C 0.99803 0.62275 0.13854 0.0
C2079 C 0.9851 0.63007 0.15294 0.0
C2080 C 0.98596 0.62976 0.17994 0.0
H2081 H 0.89051 0.66554 0.08454 0.0
H2082 H 0.91087 0.64947 0.10979 0.0
C2083 C 0.99998 0.62317 0.1923 0.0
C2084 C 0.97111 0.63874 0.13977 0.0
H2085 H 0.95232 0.67683 0.13364 0.0
C2086 C 0.96112 0.62977 0.12235 0.0
C2087 C 0.96797 0.65597 0.14373 0.0
C2088 C 0.97886 0.66657 0.16099 0.0
C2089 C 0.94812 0.63759 0.10864 0.0
C2090 C 0.94485 0.65475 0.11292 0.0
C2091 C 0.95474 0.66364 0.13057 0.0
C2092 C 0.93222 0.6642 0.09784 0.0
C2093 C 0.93843 0.62756 0.08907 0.0
C2094 C 0.93737 0.67805 0.08332 0.0
C2095 C 0.92581 0.68737 0.06929 0.0
C2096 C 0.90875 0.68304 0.06931 0.0
C2097 C 0.90355 0.66918 0.08399 0.0
C2098 C 0.91519 0.6599 0.09827 0.0
H2099 H 0.94497 0.61579 0.08387 0.0
H2100 H 0.92606 0.62422 0.09725 0.0
H2101 H 0.93631 0.63494 0.07124 0.0
H2102 H 0.95043 0.68163 0.08271 0.0
H2103 H 0.93035 0.6979 0.05818 0.0
H2104 H 0.12844 0.2503 0.96098 0.0
H2105 H 0.11852 0.22501 0.93962 0.0
H2106 H 0.12665 0.24812 0.86552 0.0
H2107 H 0.13726 0.2733 0.88692 0.0
H2108 H 0.09179 0.22243 0.91156 0.0
H2109 H 0.14561 0.20262 0.85199 0.0
H2110 H 0.1475 0.21815 0.87704 0.0
H2111 H 0.13972 0.22385 0.84569 0.0
C2112 C 0.12836 0.24989 0.94011 0.0
C2113 C 0.1336 0.26375 0.92558 0.0
C2114 C 0.1227 0.23542 0.92793 0.0
C2115 C 0.122 0.23454 0.90094 0.0
C2116 C 0.12749 0.2483 0.88633 0.0
H2117 H 0.0522 0.17797 0.81271 0.0
H2118 H 0.06835 0.19831 0.83692 0.0
C2119 C 0.13342 0.26273 0.89857 0.0
C2120 C 0.11402 0.21987 0.8884 0.0
H2121 H 0.11896 0.19058 0.84109 0.0
C2122 C 0.09786 0.21536 0.89637 0.0
C2123 C 0.12197 0.21045 0.86883 0.0
C2124 C 0.13972 0.2139 0.86058 0.0
C2125 C 0.08923 0.2021 0.8848 0.0
C2126 C 0.09675 0.19337 0.86415 0.0
C2127 C 0.11315 0.19742 0.85675 0.0
C2128 C 0.08733 0.18076 0.8491 0.0
C2129 C 0.07209 0.19761 0.8948 0.0
C2130 C 0.09289 0.16415 0.84728 0.0
C2131 C 0.08368 0.15237 0.83319 0.0
C2132 C 0.06881 0.15706 0.82059 0.0
C2133 C 0.06347 0.17379 0.82231 0.0
C2134 C 0.07267 0.18549 0.83625 0.0
H2135 H 0.07044 0.20162 0.91514 0.0
H2136 H 0.06248 0.20409 0.88305 0.0
H2137 H 0.06981 0.18394 0.89358 0.0
H2138 H 0.10426 0.16029 0.85695 0.0
H2139 H 0.08823 0.13963 0.83216 0.0
H2140 H 0.57704 0.29534 0.58231 0.0
H2141 H 0.55619 0.31246 0.60413 0.0
H2142 H 0.58762 0.35588 0.59524 0.0
H2143 H 0.60882 0.33871 0.5737 0.0
H2144 H 0.57236 0.35457 0.64291 0.0
H2145 H 0.52592 0.3447 0.56542 0.0
H2146 H 0.53354 0.32532 0.57824 0.0
H2147 H 0.54768 0.33922 0.56181 0.0
C2148 C 0.57961 0.3085 0.58511 0.0
C2149 C 0.59452 0.3157 0.57595 0.0
C2150 C 0.56762 0.31829 0.59746 0.0
C2151 C 0.57015 0.33551 0.60062 0.0
C2152 C 0.58535 0.34263 0.5927 0.0
H2153 H 0.48265 0.39602 0.64134 0.0
H2154 H 0.50775 0.38591 0.61916 0.0
C2155 C 0.59746 0.33279 0.58047 0.0
C2156 C 0.55673 0.346 0.61183 0.0
H2157 H 0.51528 0.35518 0.60545 0.0
C2158 C 0.55992 0.35489 0.63459 0.0
C2159 C 0.54063 0.34677 0.60057 0.0
C2160 C 0.53677 0.33864 0.57501 0.0
C2161 C 0.54718 0.3638 0.64716 0.0
C2162 C 0.53075 0.36344 0.63698 0.0
C2163 C 0.5278 0.35528 0.61348 0.0
C2164 C 0.51624 0.37058 0.65098 0.0
C2165 C 0.55148 0.37349 0.6712 0.0
C2166 C 0.5126 0.36525 0.67612 0.0
C2167 C 0.4984 0.37112 0.68886 0.0
C2168 C 0.48737 0.38219 0.67652 0.0
C2169 C 0.49094 0.3875 0.65131 0.0
C2170 C 0.50528 0.38175 0.63865 0.0
H2171 H 0.5648 0.37743 0.67113 0.0
H2172 H 0.54351 0.38477 0.67326 0.0
H2173 H 0.54954 0.36538 0.68829 0.0
H2174 H 0.52053 0.35624 0.68574 0.0
H2175 H 0.49593 0.3667 0.70821 0.0
H2176 H 0.05014 0.44016 0.25293 0.0
H2177 H 0.06047 0.46754 0.24053 0.0
H2178 H 0.10646 0.45838 0.28157 0.0
H2179 H 0.09607 0.43058 0.29428 0.0
H2180 H 0.09179 0.48943 0.29258 0.0
H2181 H 0.09588 0.48068 0.18746 0.0
H2182 H 0.07623 0.47311 0.19932 0.0
H2183 H 0.09536 0.46331 0.20974 0.0
C2184 C 0.0625 0.44385 0.25927 0.0
C2185 C 0.07229 0.43318 0.2746 0.0
C2186 C 0.06847 0.45947 0.2519 0.0
C2187 C 0.0844 0.46483 0.25956 0.0
C2188 C 0.09423 0.45434 0.27512 0.0
H2189 H 0.09395 0.56783 0.19954 0.0
H2190 H 0.10485 0.53992 0.21063 0.0
C2191 C 0.08826 0.43854 0.28244 0.0
C2192 C 0.08976 0.482 0.2528 0.0
H2193 H 0.0887 0.50901 0.20195 0.0
C2194 C 0.09168 0.49368 0.27273 0.0
C2195 C 0.09007 0.48753 0.2269 0.0
C2196 C 0.08947 0.47543 0.20465 0.0
C2197 C 0.09187 0.51088 0.2675 0.0
C2198 C 0.08981 0.51645 0.24181 0.0
C2199 C 0.08995 0.50475 0.2217 0.0
C2200 C 0.0843 0.53371 0.23602 0.0
C2201 C 0.09318 0.52298 0.28968 0.0
C2202 C 0.06905 0.53925 0.24619 0.0
C2203 C 0.06277 0.55491 0.23971 0.0
C2204 C 0.07157 0.56546 0.22284 0.0
C2205 C 0.08691 0.55997 0.21261 0.0
C2206 C 0.09317 0.5441 0.21899 0.0
H2207 H 0.10064 0.51756 0.30569 0.0
H2208 H 0.09901 0.53495 0.28356 0.0
H2209 H 0.08048 0.52566 0.2972 0.0
H2210 H 0.06177 0.53127 0.25879 0.0
H2211 H 0.05092 0.55871 0.24796 0.0
H2212 H 0.82114 0.84695 0.543 0.0
H2213 H 0.79348 0.85768 0.53013 0.0
H2214 H 0.78172 0.80994 0.49612 0.0
H2215 H 0.80896 0.79924 0.50866 0.0
H2216 H 0.77504 0.83989 0.46411 0.0
H2217 H 0.74759 0.84187 0.56292 0.0
H2218 H 0.76752 0.85157 0.55655 0.0
H2219 H 0.76578 0.82923 0.55627 0.0
C2220 C 0.81259 0.83877 0.53288 0.0
C2221 C 0.81721 0.82224 0.52691 0.0
C2222 C 0.79685 0.84492 0.52551 0.0
C2223 C 0.78563 0.83459 0.51211 0.0
C2224 C 0.79026 0.81814 0.50627 0.0
H2225 H 0.69599 0.79869 0.48232 0.0
H2226 H 0.72345 0.80947 0.49341 0.0
C2227 C 0.80583 0.81202 0.5136 0.0
C2228 C 0.76875 0.84026 0.50444 0.0
H2229 H 0.72897 0.84112 0.52797 0.0
C2230 C 0.76496 0.84084 0.47803 0.0
C2231 C 0.75571 0.84148 0.52269 0.0
C2232 C 0.7592 0.84102 0.55124 0.0
C2233 C 0.74833 0.84094 0.46942 0.0
C2234 C 0.73529 0.84042 0.4877 0.0
C2235 C 0.73907 0.84155 0.51405 0.0
C2236 C 0.71842 0.83463 0.48036 0.0
C2237 C 0.74476 0.83987 0.44094 0.0
C2238 C 0.70654 0.84524 0.469 0.0
C2239 C 0.69065 0.83906 0.46251 0.0
C2240 C 0.68656 0.82223 0.46732 0.0
C2241 C 0.69867 0.81171 0.47837 0.0
C2242 C 0.71438 0.81786 0.48483 0.0
H2243 H 0.75621 0.84161 0.42913 0.0
H2244 H 0.73929 0.82745 0.43641 0.0
H2245 H 0.73545 0.84951 0.4354 0.0
H2246 H 0.70951 0.85824 0.46538 0.0
H2247 H 0.68154 0.84746 0.4541 0.0
H2248 H 0.40479 0.42962 0.70586 0.0
H2249 H 0.3939 0.45752 0.71717 0.0
H2250 H 0.44266 0.47167 0.74506 0.0
H2251 H 0.45353 0.44426 0.73397 0.0
H2252 H 0.41221 0.47734 0.77986 0.0
H2253 H 0.40878 0.50392 0.68067 0.0
H2254 H 0.40069 0.48336 0.68777 0.0
H2255 H 0.42283 0.48679 0.68734 0.0
C2256 C 0.41316 0.43876 0.71424 0.0
C2257 C 0.43001 0.43474 0.71904 0.0
C2258 C 0.40692 0.45462 0.72073 0.0
C2259 C 0.4175 0.46654 0.73207 0.0
C2260 C 0.4343 0.46257 0.7365 0.0
H2261 H 0.45196 0.55789 0.7572 0.0
H2262 H 0.44139 0.53051 0.74517 0.0
C2263 C 0.4405 0.44689 0.73005 0.0
C2264 C 0.41163 0.48338 0.73947 0.0
H2265 H 0.41066 0.52295 0.71522 0.0
C2266 C 0.41118 0.48733 0.76581 0.0
C2267 C 0.41034 0.49627 0.72102 0.0
C2268 C 0.41064 0.49252 0.69255 0.0
C2269 C 0.41117 0.50402 0.77416 0.0
C2270 C 0.41159 0.51695 0.75563 0.0
C2271 C 0.41033 0.51296 0.72935 0.0
C2272 C 0.4171 0.53399 0.76267 0.0
C2273 C 0.41242 0.50772 0.8026 0.0
C2274 C 0.40692 0.54503 0.77667 0.0
C2275 C 0.41299 0.56084 0.78372 0.0
C2276 C 0.42932 0.56571 0.77689 0.0
C2277 C 0.43936 0.55455 0.76286 0.0
C2278 C 0.43331 0.53891 0.75581 0.0
H2279 H 0.41221 0.49618 0.8145 0.0
H2280 H 0.42418 0.51462 0.80666 0.0
H2281 H 0.40183 0.51581 0.80855 0.0
H2282 H 0.39435 0.54143 0.78209 0.0
H2283 H 0.40495 0.56923 0.79441 0.0
H2284 H 0.82044 0.15378 0.9552 0.0
H2285 H 0.79244 0.14359 0.96721 0.0
H2286 H 0.78186 0.19091 0.00349 0.0
H2287 H 0.80949 0.20103 0.99191 0.0
H2288 H 0.77276 0.16199 0.03337 0.0
H2289 H 0.7485 0.1604 0.93261 0.0
H2290 H 0.76736 0.14919 0.94031 0.0
H2291 H 0.76738 0.1716 0.94063 0.0
C2292 C 0.8121 0.16196 0.96575 0.0
C2293 C 0.81713 0.17825 0.97246 0.0
C2294 C 0.79616 0.15613 0.97258 0.0
C2295 C 0.7851 0.16652 0.98619 0.0
C2296 C 0.79023 0.18265 0.99312 0.0
H2297 H 0.69155 0.20025 0.00372 0.0
H2298 H 0.71944 0.19025 0.99353 0.0
C2299 C 0.80603 0.18846 0.98633 0.0
C2300 C 0.76782 0.16134 0.99263 0.0
H2301 H 0.72886 0.16014 0.96601 0.0
C2302 C 0.76314 0.16103 0.01871 0.0
C2303 C 0.75538 0.16007 0.97339 0.0
C2304 C 0.75977 0.16036 0.94512 0.0
C2305 C 0.74624 0.16106 0.02603 0.0
C2306 C 0.7338 0.16127 0.00672 0.0
C2307 C 0.73849 0.15998 0.98073 0.0
C2308 C 0.71643 0.1664 0.01263 0.0
C2309 C 0.74182 0.16241 0.05421 0.0
C2310 C 0.70544 0.15627 0.02684 0.0
C2311 C 0.68932 0.16203 0.03285 0.0
C2312 C 0.68408 0.17798 0.02472 0.0
C2313 C 0.69516 0.18794 0.01037 0.0
C2314 C 0.71111 0.18221 0.00439 0.0
H2315 H 0.75308 0.16297 0.06673 0.0
H2316 H 0.73418 0.17378 0.05762 0.0
H2317 H 0.73423 0.15143 0.06002 0.0
H2318 H 0.70931 0.14399 0.03325 0.0
H2319 H 0.68102 0.15405 0.04381 0.0
H2320 H 0.903 0.43083 0.79456 0.0
H2321 H 0.89165 0.45808 0.78082 0.0
H2322 H 0.93846 0.46958 0.74362 0.0
H2323 H 0.9498 0.44286 0.75719 0.0
H2324 H 0.90615 0.49098 0.79191 0.0
H2325 H 0.90257 0.47884 0.68735 0.0
H2326 H 0.90247 0.46228 0.7111 0.0
H2327 H 0.9219 0.47148 0.70079 0.0
C2328 C 0.91081 0.43922 0.78345 0.0
C2329 C 0.92729 0.43469 0.77694 0.0
C2330 C 0.9043 0.45469 0.77554 0.0
C2331 C 0.9141 0.46561 0.76068 0.0
C2332 C 0.93055 0.46114 0.7545 0.0
H2333 H 0.94884 0.55678 0.74077 0.0
H2334 H 0.93729 0.52984 0.75283 0.0
C2335 C 0.93706 0.44589 0.76252 0.0
C2336 C 0.90806 0.48231 0.75274 0.0
H2337 H 0.90905 0.50764 0.69989 0.0
C2338 C 0.90612 0.49459 0.77176 0.0
C2339 C 0.90769 0.48699 0.72646 0.0
C2340 C 0.90859 0.47415 0.70524 0.0
C2341 C 0.90596 0.51161 0.76521 0.0
C2342 C 0.90798 0.51632 0.73912 0.0
C2343 C 0.90775 0.50401 0.71993 0.0
C2344 C 0.91404 0.5332 0.73218 0.0
C2345 C 0.90499 0.52445 0.7864 0.0
C2346 C 0.90495 0.54388 0.71591 0.0
C2347 C 0.91158 0.55949 0.70889 0.0
C2348 C 0.92749 0.56438 0.71771 0.0
C2349 C 0.93655 0.55345 0.73363 0.0
C2350 C 0.9299 0.53807 0.74077 0.0
H2351 H 0.898 0.51954 0.80329 0.0
H2352 H 0.91784 0.5276 0.79289 0.0
H2353 H 0.89887 0.5361 0.77956 0.0
H2354 H 0.89277 0.54018 0.70877 0.0
H2355 H 0.90432 0.56767 0.69658 0.0
H2356 H 0.3057 0.20245 0.51612 0.0
H2357 H 0.27846 0.19127 0.50467 0.0
H2358 H 0.29394 0.14209 0.52885 0.0
H2359 H 0.32166 0.1533 0.54055 0.0
H2360 H 0.27349 0.16203 0.46766 0.0
H2361 H 0.24725 0.15418 0.56646 0.0
H2362 H 0.26399 0.16889 0.56096 0.0
H2363 H 0.26801 0.14691 0.55861 0.0
C2364 C 0.30339 0.18926 0.51917 0.0
C2365 C 0.31587 0.17875 0.52922 0.0
C2366 C 0.28781 0.18289 0.51252 0.0
C2367 C 0.28427 0.16588 0.51577 0.0
C2368 C 0.2965 0.15528 0.52622 0.0
H2369 H 0.18223 0.15319 0.451 0.0
H2370 H 0.21011 0.14264 0.46307 0.0
C2371 C 0.31226 0.16169 0.53294 0.0
C2372 C 0.26757 0.1598 0.50794 0.0
H2373 H 0.2281 0.15662 0.53215 0.0
C2374 C 0.26356 0.16018 0.48162 0.0
C2375 C 0.25477 0.1574 0.52628 0.0
C2376 C 0.25858 0.15677 0.55472 0.0
C2377 C 0.24687 0.15995 0.47331 0.0
C2378 C 0.23396 0.15925 0.49187 0.0
C2379 C 0.23806 0.15715 0.518 0.0
C2380 C 0.21674 0.16451 0.48536 0.0
C2381 C 0.24309 0.16215 0.44503 0.0
C2382 C 0.21129 0.18017 0.49403 0.0
C2383 C 0.1956 0.1862 0.48713 0.0
C2384 C 0.18492 0.17667 0.47145 0.0
C2385 C 0.19025 0.16083 0.46299 0.0
C2386 C 0.20611 0.15479 0.46988 0.0
H2387 H 0.25462 0.163 0.43317 0.0
H2388 H 0.23556 0.15141 0.43806 0.0
H2389 H 0.23559 0.17367 0.44204 0.0
H2390 H 0.21935 0.18791 0.50585 0.0
H2391 H 0.19189 0.1984 0.49412 0.0
H2392 H 0.59473 0.57003 0.29246 0.0
H2393 H 0.60494 0.54193 0.28115 0.0
H2394 H 0.55919 0.53243 0.2397 0.0
H2395 H 0.54903 0.56012 0.25067 0.0
H2396 H 0.59007 0.51107 0.29298 0.0
H2397 H 0.59488 0.51852 0.18765 0.0
H2398 H 0.59416 0.53617 0.20938 0.0
H2399 H 0.57514 0.52614 0.19902 0.0
C2400 C 0.58693 0.56194 0.28083 0.0
C2401 C 0.57109 0.5673 0.27243 0.0
C2402 C 0.5928 0.54595 0.27433 0.0
C2403 C 0.58299 0.53527 0.25905 0.0
C2404 C 0.56717 0.54063 0.25087 0.0
H2405 H 0.55192 0.43943 0.24946 0.0
H2406 H 0.5617 0.46726 0.2605 0.0
C2407 C 0.56131 0.55645 0.25741 0.0
C2408 C 0.58832 0.51799 0.25294 0.0
H2409 H 0.5881 0.49035 0.2029 0.0
C2410 C 0.59017 0.50657 0.27326 0.0
C2411 C 0.58889 0.51214 0.22723 0.0
C2412 C 0.58835 0.52395 0.20459 0.0
C2413 C 0.59066 0.4893 0.26856 0.0
C2414 C 0.58898 0.48339 0.24299 0.0
C2415 C 0.58907 0.49486 0.22256 0.0
C2416 C 0.58421 0.46585 0.23746 0.0
C2417 C 0.59207 0.47752 0.29114 0.0
C2418 C 0.59342 0.45588 0.22027 0.0
C2419 C 0.58776 0.43982 0.21374 0.0
C2420 C 0.57268 0.43369 0.224 0.0
C2421 C 0.56358 0.44375 0.2412 0.0
C2422 C 0.56926 0.45963 0.24779 0.0
H2423 H 0.59938 0.48327 0.30704 0.0
H2424 H 0.57938 0.47474 0.29864 0.0
H2425 H 0.59811 0.46556 0.28549 0.0
H2426 H 0.60487 0.46057 0.21178 0.0
H2427 H 0.59501 0.43235 0.20041 0.0
H2428 H 0.19147 0.7982 0.00656 0.0
H2429 H 0.21911 0.80857 0.99558 0.0
H2430 H 0.20802 0.85557 0.03246 0.0
H2431 H 0.17996 0.84515 0.04378 0.0
H2432 H 0.22718 0.83874 0.96594 0.0
H2433 H 0.25282 0.83817 0.06592 0.0
H2434 H 0.2343 0.82638 0.0578 0.0
H2435 H 0.23339 0.84875 0.05931 0.0
C2436 C 0.19482 0.81074 0.01245 0.0
C2437 C 0.18353 0.82083 0.02615 0.0
C2438 C 0.21063 0.81668 0.00601 0.0
C2439 C 0.21558 0.83282 0.01316 0.0
C2440 C 0.20441 0.84304 0.02686 0.0
H2441 H 0.31862 0.84676 0.95226 0.0
H2442 H 0.29061 0.85667 0.9648 0.0
C2443 C 0.18844 0.83707 0.03332 0.0
C2444 C 0.23272 0.83829 0.0065 0.0
H2445 H 0.27204 0.83878 0.03185 0.0
C2446 C 0.23701 0.83933 0.98032 0.0
C2447 C 0.24542 0.83906 0.02537 0.0
C2448 C 0.2414 0.83802 0.05372 0.0
C2449 C 0.2538 0.83953 0.97242 0.0
C2450 C 0.26653 0.83878 0.99126 0.0
C2451 C 0.26221 0.83935 0.01748 0.0
C2452 C 0.28378 0.83378 0.98441 0.0
C2453 C 0.2578 0.83896 0.94402 0.0
C2454 C 0.28919 0.81777 0.99146 0.0
C2455 C 0.30498 0.81212 0.98434 0.0
C2456 C 0.3158 0.82238 0.97003 0.0
C2457 C 0.3105 0.83855 0.96315 0.0
C2458 C 0.29455 0.84422 0.9703 0.0
H2459 H 0.24636 0.8387 0.93188 0.0
H2460 H 0.26527 0.85012 0.93866 0.0
H2461 H 0.26542 0.82772 0.93961 0.0
H2462 H 0.28104 0.80949 0.0022 0.0
H2463 H 0.30865 0.79963 0.99007 0.0
H2464 H 0.55414 0.93935 0.74344 0.0
H2465 H 0.56504 0.96675 0.73247 0.0
H2466 H 0.60567 0.96 0.78611 0.0
H2467 H 0.59472 0.93212 0.79731 0.0
H2468 H 0.58822 0.99028 0.792 0.0
H2469 H 0.60554 0.98167 0.69013 0.0
H2470 H 0.58532 0.97284 0.69629 0.0
H2471 H 0.60344 0.96434 0.71227 0.0
C2472 C 0.56548 0.94355 0.75283 0.0
C2473 C 0.57354 0.93358 0.77133 0.0
C2474 C 0.57182 0.95918 0.74627 0.0
C2475 C 0.58638 0.96527 0.75801 0.0
C2476 C 0.59456 0.95539 0.77653 0.0
H2477 H 0.59641 0.07014 0.70462 0.0
H2478 H 0.60754 0.04246 0.71664 0.0
C2479 C 0.58827 0.93954 0.78297 0.0
C2480 C 0.59159 0.98268 0.75252 0.0
H2481 H 0.59468 0.00951 0.70161 0.0
C2482 C 0.59026 0.99448 0.77237 0.0
C2483 C 0.5946 0.98819 0.72702 0.0
C2484 C 0.5975 0.97604 0.70528 0.0
C2485 C 0.58978 0.01164 0.76687 0.0
C2486 C 0.59045 0.01701 0.74092 0.0
C2487 C 0.59387 0.00535 0.72147 0.0
C2488 C 0.58435 0.03378 0.73341 0.0
C2489 C 0.58732 0.02383 0.7887 0.0
C2490 C 0.56757 0.03776 0.73813 0.0
C2491 C 0.56121 0.05328 0.73114 0.0
C2492 C 0.57146 0.06525 0.71917 0.0
C2493 C 0.58822 0.06116 0.71383 0.0
C2494 C 0.59461 0.04544 0.72078 0.0
H2495 H 0.59263 0.01889 0.80695 0.0
H2496 H 0.59322 0.03608 0.78433 0.0
H2497 H 0.57373 0.02586 0.79172 0.0
H2498 H 0.55934 0.02877 0.74727 0.0
H2499 H 0.54822 0.05594 0.73543 0.0
H2500 H 0.3194 0.34715 0.04289 0.0
H2501 H 0.29129 0.35739 0.03156 0.0
H2502 H 0.28094 0.31076 0.99306 0.0
H2503 H 0.30865 0.3006 0.00397 0.0
H2504 H 0.27186 0.34043 0.96453 0.0
H2505 H 0.24727 0.33944 0.06512 0.0
H2506 H 0.26617 0.35081 0.05808 0.0
H2507 H 0.26618 0.32842 0.05667 0.0
C2508 C 0.31108 0.33913 0.03202 0.0
C2509 C 0.31621 0.32304 0.02444 0.0
C2510 C 0.29508 0.34499 0.02557 0.0
C2511 C 0.28407 0.3348 0.01148 0.0
C2512 C 0.28928 0.31885 0.00379 0.0
H2513 H 0.19192 0.29923 0.99126 0.0
H2514 H 0.21942 0.30993 0.00223 0.0
C2515 C 0.30513 0.31303 0.0102 0.0
C2516 C 0.26678 0.34001 0.00523 0.0
H2517 H 0.22773 0.33976 0.03156 0.0
C2518 C 0.26218 0.34087 0.97915 0.0
C2519 C 0.25426 0.3406 0.02442 0.0
C2520 C 0.25858 0.33975 0.05269 0.0
C2521 C 0.24531 0.34065 0.97168 0.0
C2522 C 0.23282 0.33967 0.99086 0.0
C2523 C 0.2374 0.34049 0.01695 0.0
C2524 C 0.21565 0.33411 0.98453 0.0
C2525 C 0.24101 0.33984 0.9434 0.0
C2526 C 0.20436 0.3442 0.97081 0.0
C2527 C 0.18847 0.33804 0.96434 0.0
C2528 C 0.18375 0.32174 0.97151 0.0
C2529 C 0.19513 0.31182 0.98534 0.0
C2530 C 0.21085 0.31794 0.99179 0.0
H2531 H 0.25231 0.33998 0.93095 0.0
H2532 H 0.23377 0.3283 0.93929 0.0
H2533 H 0.23306 0.35069 0.93818 0.0
H2534 H 0.20783 0.35676 0.96514 0.0
H2535 H 0.17991 0.346 0.95379 0.0
H2536 H 0.9488 0.05929 0.25057 0.0
H2537 H 0.93805 0.03205 0.23832 0.0
H2538 H 0.89324 0.04099 0.28242 0.0
H2539 H 0.90405 0.06865 0.29498 0.0
H2540 H 0.90822 0.00993 0.29218 0.0
H2541 H 0.90128 0.01901 0.18748 0.0
H2542 H 0.92122 0.02659 0.19812 0.0
H2543 H 0.90237 0.03632 0.20983 0.0
C2544 C 0.9366 0.05559 0.25761 0.0
C2545 C 0.92727 0.06614 0.27378 0.0
C2546 C 0.93038 0.04005 0.25031 0.0
C2547 C 0.91467 0.03466 0.25891 0.0
C2548 C 0.90529 0.04505 0.27525 0.0
H2549 H 0.90385 0.93125 0.20041 0.0
H2550 H 0.89308 0.95919 0.21169 0.0
C2551 C 0.9115 0.06078 0.28248 0.0
C2552 C 0.90914 0.0175 0.25236 0.0
H2553 H 0.90897 0.99064 0.20131 0.0
C2554 C 0.9078 0.00575 0.27231 0.0
C2555 C 0.90816 0.01205 0.22646 0.0
C2556 C 0.90814 0.02422 0.20428 0.0
C2557 C 0.90756 0.98856 0.26698 0.0
C2558 C 0.90895 0.98309 0.24115 0.0
C2559 C 0.90821 0.99485 0.22114 0.0
C2560 C 0.91451 0.9659 0.23497 0.0
C2561 C 0.90699 0.97638 0.28914 0.0
C2562 C 0.9302 0.96067 0.2438 0.0
C2563 C 0.9364 0.94501 0.2372 0.0
C2564 C 0.92707 0.93414 0.22154 0.0
C2565 C 0.91131 0.93936 0.21253 0.0
C2566 C 0.90513 0.95524 0.21903 0.0
H2567 H 0.90009 0.98173 0.30578 0.0
H2568 H 0.90097 0.96444 0.28338 0.0
H2569 H 0.91993 0.97365 0.29559 0.0
H2570 H 0.93784 0.96886 0.25556 0.0
H2571 H 0.94858 0.94143 0.24449 0.0
H2572 H 0.31848 0.65459 0.45608 0.0
H2573 H 0.2903 0.64469 0.46764 0.0
H2574 H 0.28136 0.69063 0.50884 0.0
H2575 H 0.30917 0.70046 0.49772 0.0
H2576 H 0.27118 0.66087 0.53572 0.0
H2577 H 0.24701 0.66447 0.435 0.0
H2578 H 0.26543 0.65224 0.44154 0.0
H2579 H 0.2663 0.67457 0.44409 0.0
C2580 C 0.31048 0.66252 0.46765 0.0
C2581 C 0.316 0.67836 0.47581 0.0
C2582 C 0.29442 0.65685 0.47422 0.0
C2583 C 0.28375 0.66696 0.48904 0.0
C2584 C 0.28942 0.68259 0.49752 0.0
H2585 H 0.1921 0.704 0.51038 0.0
H2586 H 0.21981 0.69339 0.50047 0.0
C2587 C 0.30532 0.68824 0.49097 0.0
C2588 C 0.2663 0.66213 0.49498 0.0
H2589 H 0.22735 0.6637 0.46833 0.0
C2590 C 0.26157 0.66091 0.52098 0.0
C2591 C 0.25384 0.66217 0.47566 0.0
C2592 C 0.25826 0.66347 0.44747 0.0
C2593 C 0.24467 0.66131 0.52829 0.0
C2594 C 0.23228 0.66289 0.50905 0.0
C2595 C 0.23695 0.66249 0.48299 0.0
C2596 C 0.21518 0.66859 0.51545 0.0
C2597 C 0.24021 0.66161 0.55652 0.0
C2598 C 0.20339 0.65815 0.52742 0.0
C2599 C 0.18737 0.66425 0.53325 0.0
C2600 C 0.18302 0.68084 0.52716 0.0
C2601 C 0.19499 0.69118 0.51536 0.0
C2602 C 0.21084 0.68511 0.50955 0.0
H2603 H 0.2514 0.66053 0.5691 0.0
H2604 H 0.2336 0.67344 0.5612 0.0
H2605 H 0.2316 0.65113 0.56097 0.0
H2606 H 0.20654 0.64533 0.53205 0.0
H2607 H 0.17838 0.65597 0.54224 0.0
H2608 H 0.41673 0.06216 0.19026 0.0
H2609 H 0.41048 0.03318 0.20272 0.0
H2610 H 0.43046 0.04269 0.2786 0.0
H2611 H 0.4375 0.07115 0.26571 0.0
H2612 H 0.44563 0.01773 0.25784 0.0
H2613 H 0.37768 0.00732 0.24571 0.0
H2614 H 0.3872 0.01572 0.21721 0.0
H2615 H 0.38679 0.02797 0.24629 0.0
C2616 C 0.4194 0.05808 0.20974 0.0
C2617 C 0.42777 0.06868 0.22697 0.0
C2618 C 0.4157 0.04159 0.21694 0.0
C2619 C 0.41992 0.03574 0.24169 0.0
C2620 C 0.42714 0.04686 0.2594 0.0
H2621 H 0.41336 0.93334 0.30295 0.0
H2622 H 0.40672 0.96293 0.29456 0.0
C2623 C 0.4312 0.06309 0.25202 0.0
C2624 C 0.41944 0.01763 0.24795 0.0
H2625 H 0.39493 0.98259 0.24815 0.0
C2626 C 0.43443 0.01017 0.25607 0.0
C2627 C 0.40485 0.00769 0.24575 0.0
C2628 C 0.38818 0.01512 0.23852 0.0
C2629 C 0.43538 0.99309 0.26148 0.0
C2630 C 0.42108 0.98299 0.25792 0.0
C2631 C 0.40591 0.99039 0.25056 0.0
C2632 C 0.42229 0.96463 0.26056 0.0
C2633 C 0.4518 0.98597 0.27075 0.0
C2634 C 0.43271 0.95577 0.24371 0.0
C2635 C 0.43672 0.93915 0.2487 0.0
C2636 C 0.43014 0.93097 0.27038 0.0
C2637 C 0.41864 0.93943 0.28618 0.0
C2638 C 0.41481 0.95625 0.28136 0.0
H2639 H 0.46001 0.99579 0.27905 0.0
H2640 H 0.44977 0.97614 0.28554 0.0
H2641 H 0.45849 0.98024 0.25423 0.0
H2642 H 0.43843 0.96199 0.22738 0.0
H2643 H 0.44538 0.93285 0.23593 0.0
H2644 H 0.80983 0.70036 0.00047 0.0
H2645 H 0.78231 0.68968 0.98969 0.0
H2646 H 0.7932 0.64366 0.02958 0.0
H2647 H 0.82119 0.65439 0.04067 0.0
H2648 H 0.77378 0.65862 0.96215 0.0
H2649 H 0.74874 0.66268 0.0623 0.0
H2650 H 0.76734 0.67401 0.0532 0.0
H2651 H 0.76799 0.65169 0.05612 0.0
C2652 C 0.80648 0.68795 0.00704 0.0
C2653 C 0.81768 0.67826 0.02159 0.0
C2654 C 0.79074 0.68182 0.00069 0.0
C2655 C 0.78574 0.66589 0.00878 0.0
C2656 C 0.79685 0.65602 0.02321 0.0
H2657 H 0.68085 0.65427 0.95403 0.0
H2658 H 0.70875 0.64332 0.96519 0.0
C2659 C 0.81278 0.66217 0.02955 0.0
C2660 C 0.7685 0.66045 0.00271 0.0
H2661 H 0.72933 0.66226 0.02846 0.0
C2662 C 0.76403 0.65877 0.97667 0.0
C2663 C 0.75588 0.66064 0.02175 0.0
C2664 C 0.76008 0.66236 0.04996 0.0
C2665 C 0.74719 0.65897 0.96898 0.0
C2666 C 0.73463 0.66086 0.98788 0.0
C2667 C 0.73906 0.66082 0.01406 0.0
C2668 C 0.71769 0.66673 0.9809 0.0
C2669 C 0.74299 0.65882 0.94066 0.0
C2670 C 0.71361 0.68343 0.98593 0.0
C2671 C 0.69791 0.68966 0.97958 0.0
C2672 C 0.68584 0.67931 0.96806 0.0
C2673 C 0.68993 0.66255 0.96278 0.0
C2674 C 0.70581 0.65628 0.96917 0.0
H2675 H 0.75426 0.65726 0.92838 0.0
H2676 H 0.73418 0.64846 0.9365 0.0
H2677 H 0.7367 0.6707 0.9353 0.0
H2678 H 0.72266 0.69172 0.99478 0.0
H2679 H 0.69522 0.70263 0.98391 0.0
H2680 H 0.09874 0.07065 0.78798 0.0
H2681 H 0.10996 0.04331 0.77453 0.0
H2682 H 0.06143 0.02961 0.74518 0.0
H2683 H 0.05025 0.05647 0.75833 0.0
H2684 H 0.09866 0.01065 0.7891 0.0
H2685 H 0.0928 0.01979 0.68418 0.0
H2686 H 0.09334 0.03706 0.70665 0.0
H2687 H 0.07405 0.02614 0.70041 0.0
C2688 C 0.09051 0.06175 0.77869 0.0
C2689 C 0.07363 0.06575 0.77411 0.0
C2690 C 0.09695 0.04622 0.77092 0.0
C2691 C 0.08662 0.03465 0.75822 0.0
C2692 C 0.06974 0.03854 0.75424 0.0
H2693 H 0.05625 0.9409 0.75168 0.0
H2694 H 0.06797 0.96815 0.76144 0.0
C2695 C 0.06333 0.05389 0.76201 0.0
C2696 C 0.09273 0.01798 0.75021 0.0
H2697 H 0.08883 0.99107 0.69964 0.0
C2698 C 0.09711 0.00643 0.76938 0.0
C2699 C 0.09116 0.01253 0.72439 0.0
C2700 C 0.08776 0.0246 0.7027 0.0
C2701 C 0.09785 0.98927 0.76389 0.0
C2702 C 0.09384 0.98364 0.73879 0.0
C2703 C 0.09162 0.99536 0.719 0.0
C2704 C 0.08831 0.96624 0.7341 0.0
C2705 C 0.10173 0.97721 0.7854 0.0
C2706 C 0.09568 0.95616 0.71506 0.0
C2707 C 0.08893 0.94037 0.70937 0.0
C2708 C 0.07451 0.93474 0.72224 0.0
C2709 C 0.0673 0.94489 0.74131 0.0
C2710 C 0.07413 0.96042 0.74717 0.0
H2711 H 0.11033 0.98296 0.79968 0.0
H2712 H 0.08997 0.97395 0.79559 0.0
H2713 H 0.10745 0.96553 0.77793 0.0
H2714 H 0.10648 0.96057 0.70446 0.0
H2715 H 0.09472 0.93279 0.69457 0.0
H2716 H 0.68128 0.34401 0.54575 0.0
H2717 H 0.70892 0.35522 0.53391 0.0
H2718 H 0.71874 0.31084 0.48926 0.0
H2719 H 0.69152 0.29969 0.5008 0.0
H2720 H 0.74004 0.34059 0.54406 0.0
H2721 H 0.73182 0.34809 0.43932 0.0
H2722 H 0.71432 0.34665 0.46127 0.0
H2723 H 0.72436 0.328 0.44943 0.0
C2724 C 0.68933 0.33674 0.53328 0.0
C2725 C 0.68423 0.32097 0.52423 0.0
C2726 C 0.70505 0.34318 0.52647 0.0
C2727 C 0.71569 0.33403 0.51019 0.0
C2728 C 0.71055 0.31833 0.50123 0.0
H2729 H 0.80958 0.3013 0.49779 0.0
H2730 H 0.78215 0.31192 0.50914 0.0
C2731 C 0.69502 0.31188 0.50812 0.0
C2732 C 0.73284 0.3398 0.50408 0.0
H2733 H 0.76013 0.34047 0.45359 0.0
C2734 C 0.74439 0.34115 0.52429 0.0
C2735 C 0.73851 0.34097 0.47831 0.0
C2736 C 0.72653 0.34104 0.45588 0.0
C2737 C 0.76163 0.34157 0.51932 0.0
C2738 C 0.76735 0.34033 0.49359 0.0
C2739 C 0.75576 0.34108 0.47336 0.0
C2740 C 0.78465 0.33497 0.48765 0.0
C2741 C 0.77359 0.34225 0.54175 0.0
C2742 C 0.79507 0.34421 0.47114 0.0
C2743 C 0.81093 0.33807 0.46444 0.0
C2744 C 0.81638 0.3225 0.47383 0.0
C2745 C 0.80582 0.31334 0.49021 0.0
C2746 C 0.79016 0.31949 0.49699 0.0
H2747 H 0.76809 0.34931 0.55812 0.0
H2748 H 0.77615 0.32935 0.54856 0.0
H2749 H 0.78563 0.34816 0.53621 0.0
H2750 H 0.79091 0.35608 0.46341 0.0
H2751 H 0.8188 0.34539 0.45175 0.0
loop_
_geom_bond_atom_site_label_1
_geom_bond_atom_site_label_2
_geom_bond_distance
_geom_bond_site_symmetry_2
_ccdc_geom_bond_type
Co0 O1 2.216 . S
Co0 O2 2.091 . S
Co0 O4 2.004 . S
Co0 O10 2.021 . S
Co0 O12 2.137 . S
Co0 O13 2.244 . S
O1 Co0 2.216 . S
O1 C8 1.247 . S
O2 Co0 2.091 . S
O2 C8 1.261 . S
C3 O12 1.247 . S
C3 O13 1.272 . S
O4 Co0 2.004 . S
O4 C9 1.259 . S
Co5 O6 2.061 . S
Co5 O11 2.052 . S
Co5 O13 2.135 . S
O6 Co5 2.061 . S
O6 C9 1.235 . S
C7 O10 1.238 . S
C7 O11 1.241 . S
C8 O1 1.247 . S
C8 O2 1.261 . S
C9 O4 1.259 . S
C9 O6 1.235 . S
O10 Co0 2.021 . S
O10 C7 1.238 . S
O11 Co5 2.052 . S
O11 C7 1.241 . S
O12 Co0 2.137 . S
O12 C3 1.247 . S
O13 Co0 2.244 . S
O13 C3 1.272 . S
O13 Co5 2.135 . S
Co14 O15 2.216 . S
Co14 O16 2.091 . S
Co14 O18 2.004 . S
Co14 O24 2.021 . S
Co14 O26 2.137 . S
Co14 O27 2.244 . S
O15 Co14 2.216 . S
O15 C22 1.247 . S
O16 Co14 2.091 . S
O16 C22 1.261 . S
C17 O26 1.247 . S
C17 O27 1.272 . S
O18 Co14 2.004 . S
O18 C23 1.259 . S
Co19 O20 2.061 . S
Co19 O25 2.052 . S
Co19 O27 2.135 . S
O20 Co19 2.061 . S
O20 C23 1.235 . S
C21 O24 1.238 . S
C21 O25 1.241 . S
C22 O15 1.247 . S
C22 O16 1.261 . S
C23 O18 1.259 . S
C23 O20 1.235 . S
O24 Co14 2.021 . S
O24 C21 1.238 . S
O25 Co19 2.052 . S
O25 C21 1.241 . S
O26 Co14 2.137 . S
O26 C17 1.247 . S
O27 Co14 2.244 . S
O27 C17 1.272 . S
O27 Co19 2.135 . S
Co28 O29 2.216 . S
Co28 O30 2.091 . S
Co28 O32 2.004 . S
Co28 O38 2.021 . S
Co28 O40 2.137 . S
Co28 O41 2.244 . S
O29 Co28 2.216 . S
O29 C36 1.247 . S
O30 Co28 2.091 . S
O30 C36 1.261 . S
C31 O40 1.247 . S
C31 O41 1.272 . S
O32 Co28 2.004 . S
O32 C37 1.259 . S
Co33 O34 2.061 . S
Co33 O39 2.052 . S
Co33 O41 2.135 . S
O34 Co33 2.061 . S
O34 C37 1.235 . S
C35 O38 1.238 . S
C35 O39 1.241 . S
C36 O29 1.247 . S
C36 O30 1.261 . S
C37 O32 1.259 . S
C37 O34 1.235 . S
O38 Co28 2.021 . S
O38 C35 1.238 . S
O39 Co33 2.052 . S
O39 C35 1.241 . S
O40 Co28 2.137 . S
O40 C31 1.247 . S
O41 Co28 2.244 . S
O41 C31 1.272 . S
O41 Co33 2.135 . S
Co42 O43 2.216 . S
Co42 O44 2.091 . S
Co42 O46 2.004 . S
Co42 O52 2.021 . S
Co42 O54 2.137 . S
Co42 O55 2.244 . S
O43 Co42 2.216 . S
O43 C50 1.247 . S
O44 Co42 2.091 . S
O44 C50 1.261 . S
C45 O54 1.247 . S
C45 O55 1.272 . S
O46 Co42 2.004 . S
O46 C51 1.259 . S
Co47 O48 2.061 . S
Co47 O53 2.052 . S
Co47 O55 2.135 . S
O48 Co47 2.061 . S
O48 C51 1.235 . S
C49 O52 1.227 1_556 S
C49 O53 1.240 1_556 S
C50 O43 1.247 . S
C50 O44 1.261 . S
C51 O46 1.259 . S
C51 O48 1.235 . S
O52 Co42 2.021 . S
O52 C49 1.227 1_554 S
O53 Co47 2.052 . S
O53 C49 1.240 1_554 S
O54 Co42 2.137 . S
O54 C45 1.247 . S
O55 Co42 2.244 . S
O55 C45 1.272 . S
O55 Co47 2.135 . S
Co56 O57 2.216 . S
Co56 O58 2.091 . S
Co56 O60 2.004 . S
Co56 O66 2.021 . S
Co56 O68 2.137 . S
Co56 O69 2.244 . S
O57 Co56 2.216 . S
O57 C64 1.247 . S
O58 Co56 2.091 . S
O58 C64 1.261 . S
C59 O68 1.247 . S
C59 O69 1.272 . S
O60 Co56 2.004 . S
O60 C65 1.259 . S
Co61 O62 2.061 . S
Co61 O67 2.052 . S
Co61 O69 2.135 . S
O62 Co61 2.061 . S
O62 C65 1.235 . S
C63 O66 1.238 . S
C63 O67 1.241 . S
C64 O57 1.247 . S
C64 O58 1.261 . S
C65 O60 1.259 . S
C65 O62 1.235 . S
O66 Co56 2.021 . S
O66 C63 1.238 . S
O67 Co61 2.052 . S
O67 C63 1.241 . S
O68 Co56 2.137 . S
O68 C59 1.247 . S
O69 Co56 2.244 . S
O69 C59 1.272 . S
O69 Co61 2.135 . S
Co70 O71 2.216 . S
Co70 O72 2.091 . S
Co70 O74 2.004 . S
Co70 O80 2.021 . S
Co70 O82 2.137 . S
Co70 O83 2.244 . S
O71 Co70 2.216 . S
O71 C78 1.247 . S
O72 Co70 2.091 . S
O72 C78 1.261 . S
C73 O82 1.247 . S
C73 O83 1.272 . S
O74 Co70 2.004 . S
O74 C79 1.259 . S
Co75 O76 2.061 . S
Co75 O81 2.052 . S
Co75 O83 2.135 . S
O76 Co75 2.061 . S
O76 C79 1.235 . S
C77 O80 1.238 . S
C77 O81 1.241 . S
C78 O71 1.247 . S
C78 O72 1.261 . S
C79 O74 1.259 . S
C79 O76 1.235 . S
O80 Co70 2.021 . S
O80 C77 1.238 . S
O81 Co75 2.052 . S
O81 C77 1.241 . S
O82 Co70 2.137 . S
O82 C73 1.247 . S
O83 Co70 2.244 . S
O83 C73 1.272 . S
O83 Co75 2.135 . S
Co84 O85 2.216 . S
Co84 O86 2.091 . S
Co84 O88 2.004 . S
Co84 O94 2.021 . S
Co84 O96 2.137 . S
Co84 O97 2.244 . S
O85 Co84 2.216 . S
O85 C92 1.247 . S
O86 Co84 2.091 . S
O86 C92 1.261 . S
C87 O96 1.247 . S
C87 O97 1.272 . S
O88 Co84 2.004 . S
O88 C93 1.259 . S
Co89 O90 2.061 . S
Co89 O95 2.052 . S
Co89 O97 2.135 . S
O90 Co89 2.061 . S
O90 C93 1.235 . S
C91 O94 1.238 . S
C91 O95 1.241 . S
C92 O85 1.247 . S
C92 O86 1.261 . S
C93 O88 1.259 . S
C93 O90 1.235 . S
O94 Co84 2.021 . S
O94 C91 1.238 . S
O95 Co89 2.052 . S
O95 C91 1.241 . S
O96 Co84 2.137 . S
O96 C87 1.247 . S
O97 Co84 2.244 . S
O97 C87 1.272 . S
O97 Co89 2.135 . S
Co98 O99 2.216 . S
Co98 O100 2.091 . S
Co98 O102 2.004 . S
Co98 O108 2.021 . S
Co98 O110 2.137 . S
Co98 O111 2.244 . S
O99 Co98 2.216 . S
O99 C106 1.247 . S
O100 Co98 2.091 . S
O100 C106 1.261 . S
C101 O110 1.247 . S
C101 O111 1.272 . S
O102 Co98 2.004 . S
O102 C107 1.259 . S
Co103 O104 2.061 . S
Co103 O109 2.052 . S
Co103 O111 2.135 . S
O104 Co103 2.061 . S
O104 C107 1.235 . S
C105 O108 1.227 1_554 S
C105 O109 1.240 1_554 S
C106 O99 1.247 . S
C106 O100 1.261 . S
C107 O102 1.259 . S
C107 O104 1.235 . S
O108 Co98 2.021 . S
O108 C105 1.227 1_556 S
O109 Co103 2.052 . S
O109 C105 1.240 1_556 S
O110 Co98 2.137 . S
O110 C101 1.247 . S
O111 Co98 2.244 . S
O111 C101 1.272 . S
O111 Co103 2.135 . S
Co112 O113 2.216 . S
Co112 O114 2.091 . S
Co112 O116 2.004 . S
Co112 O122 2.021 . S
Co112 O124 2.137 . S
Co112 O125 2.244 . S
O113 Co112 2.216 . S
O113 C120 1.247 . S
O114 Co112 2.091 . S
O114 C120 1.261 . S
C115 O124 1.247 . S
C115 O125 1.272 . S
O116 Co112 2.004 . S
O116 C121 1.259 . S
Co117 O118 2.061 . S
Co117 O123 2.052 . S
Co117 O125 2.135 . S
O118 Co117 2.061 . S
O118 C121 1.235 . S
C119 O122 1.238 . S
C119 O123 1.241 . S
C120 O113 1.247 . S
C120 O114 1.261 . S
C121 O116 1.259 . S
C121 O118 1.235 . S
O122 Co112 2.021 . S
O122 C119 1.238 . S
O123 Co117 2.052 . S
O123 C119 1.241 . S
O124 Co112 2.137 . S
O124 C115 1.247 . S
O125 Co112 2.244 . S
O125 C115 1.272 . S
O125 Co117 2.135 . S
Co126 O127 2.216 . S
Co126 O128 2.091 . S
Co126 O130 2.004 . S
Co126 O136 2.021 . S
Co126 O138 2.137 . S
Co126 O139 2.244 . S
O127 Co126 2.216 . S
O127 C134 1.247 . S
O128 Co126 2.091 . S
O128 C134 1.261 . S
C129 O138 1.247 . S
C129 O139 1.272 . S
O130 Co126 2.004 . S
O130 C135 1.259 . S
Co131 O132 2.061 . S
Co131 O137 2.052 . S
Co131 O139 2.135 . S
O132 Co131 2.061 . S
O132 C135 1.235 . S
C133 O136 1.238 . S
C133 O137 1.241 . S
C134 O127 1.247 . S
C134 O128 1.261 . S
C135 O130 1.259 . S
C135 O132 1.235 . S
O136 Co126 2.021 . S
O136 C133 1.238 . S
O137 Co131 2.052 . S
O137 C133 1.241 . S
O138 Co126 2.137 . S
O138 C129 1.247 . S
O139 Co126 2.244 . S
O139 C129 1.272 . S
O139 Co131 2.135 . S
Co140 O141 2.216 . S
Co140 O142 2.091 . S
Co140 O144 2.004 . S
Co140 O150 2.021 . S
Co140 O152 2.137 . S
Co140 O153 2.244 . S
O141 Co140 2.216 . S
O141 C148 1.247 . S
O142 Co140 2.091 . S
O142 C148 1.261 . S
C143 O152 1.247 . S
C143 O153 1.272 . S
O144 Co140 2.004 . S
O144 C149 1.259 . S
Co145 O146 2.061 . S
Co145 O151 2.052 . S
Co145 O153 2.135 . S
O146 Co145 2.061 . S
O146 C149 1.235 . S
C147 O150 1.238 . S
C147 O151 1.241 . S
C148 O141 1.247 . S
C148 O142 1.261 . S
C149 O144 1.259 . S
C149 O146 1.235 . S
O150 Co140 2.021 . S
O150 C147 1.238 . S
O151 Co145 2.052 . S
O151 C147 1.241 . S
O152 Co140 2.137 . S
O152 C143 1.247 . S
O153 Co140 2.244 . S
O153 C143 1.272 . S
O153 Co145 2.135 . S
Co154 O155 2.216 . S
Co154 O156 2.091 . S
Co154 O158 2.004 . S
Co154 O164 2.021 . S
Co154 O166 2.137 . S
Co154 O167 2.244 . S
O155 Co154 2.216 . S
O155 C162 1.247 . S
O156 Co154 2.091 . S
O156 C162 1.261 . S
C157 O166 1.247 . S
C157 O167 1.272 . S
O158 Co154 2.004 . S
O158 C163 1.259 . S
Co159 O160 2.061 . S
Co159 O165 2.052 . S
Co159 O167 2.135 . S
O160 Co159 2.061 . S
O160 C163 1.235 . S
C161 O164 1.227 1_554 S
C161 O165 1.240 1_554 S
C162 O155 1.247 . S
C162 O156 1.261 . S
C163 O158 1.259 . S
C163 O160 1.235 . S
O164 Co154 2.021 . S
O164 C161 1.227 1_556 S
O165 Co159 2.052 . S
O165 C161 1.240 1_556 S
O166 Co154 2.137 . S
O166 C157 1.247 . S
O167 Co154 2.244 . S
O167 C157 1.272 . S
O167 Co159 2.135 . S
Co168 O169 2.216 . S
Co168 O170 2.091 . S
Co168 O172 2.004 . S
Co168 O178 2.021 . S
Co168 O180 2.137 . S
Co168 O181 2.244 . S
O169 Co168 2.216 . S
O169 C176 1.247 . S
O170 Co168 2.091 . S
O170 C176 1.261 . S
C171 O180 1.247 . S
C171 O181 1.272 . S
O172 Co168 2.004 . S
O172 C177 1.259 . S
Co173 O174 2.061 . S
Co173 O179 2.052 . S
Co173 O181 2.135 . S
O174 Co173 2.061 . S
O174 C177 1.235 . S
C175 O178 1.238 . S
C175 O179 1.241 . S
C176 O169 1.247 . S
C176 O170 1.261 . S
C177 O172 1.259 . S
C177 O174 1.235 . S
O178 Co168 2.021 . S
O178 C175 1.238 . S
O179 Co173 2.052 . S
O179 C175 1.241 . S
O180 Co168 2.137 . S
O180 C171 1.247 . S
O181 Co168 2.244 . S
O181 C171 1.272 . S
O181 Co173 2.135 . S
Co182 O183 2.216 . S
Co182 O184 2.091 . S
Co182 O186 2.004 . S
Co182 O192 2.021 . S
Co182 O194 2.137 . S
Co182 O195 2.244 . S
O183 Co182 2.216 . S
O183 C190 1.247 . S
O184 Co182 2.091 . S
O184 C190 1.261 . S
C185 O194 1.247 . S
C185 O195 1.272 . S
O186 Co182 2.004 . S
O186 C191 1.259 . S
Co187 O188 2.061 . S
Co187 O193 2.052 . S
Co187 O195 2.135 . S
O188 Co187 2.061 . S
O188 C191 1.235 . S
C189 O192 1.238 . S
C189 O193 1.241 . S
C190 O183 1.247 . S
C190 O184 1.261 . S
C191 O186 1.259 . S
C191 O188 1.235 . S
O192 Co182 2.021 . S
O192 C189 1.238 . S
O193 Co187 2.052 . S
O193 C189 1.241 . S
O194 Co182 2.137 . S
O194 C185 1.247 . S
O195 Co182 2.244 . S
O195 C185 1.272 . S
O195 Co187 2.135 . S
Co196 O197 2.216 . S
Co196 O198 2.091 . S
Co196 O200 2.004 . S
Co196 O206 2.021 . S
Co196 O208 2.137 . S
Co196 O209 2.244 . S
O197 Co196 2.216 . S
O197 C204 1.247 . S
O198 Co196 2.091 . S
O198 C204 1.261 . S
C199 O208 1.247 . S
C199 O209 1.272 . S
O200 Co196 2.004 . S
O200 C205 1.259 . S
Co201 O202 2.061 . S
Co201 O207 2.052 . S
Co201 O209 2.135 . S
O202 Co201 2.061 . S
O202 C205 1.235 . S
C203 O206 1.238 . S
C203 O207 1.241 . S
C204 O197 1.247 . S
C204 O198 1.261 . S
C205 O200 1.259 . S
C205 O202 1.235 . S
O206 Co196 2.021 . S
O206 C203 1.238 . S
O207 Co201 2.052 . S
O207 C203 1.241 . S
O208 Co196 2.137 . S
O208 C199 1.247 . S
O209 Co196 2.244 . S
O209 C199 1.272 . S
O209 Co201 2.135 . S
Co210 O211 2.216 . S
Co210 O212 2.091 . S
Co210 O214 2.004 . S
Co210 O220 2.021 . S
Co210 O222 2.137 . S
Co210 O223 2.244 . S
O211 Co210 2.216 . S
O211 C218 1.247 . S
O212 Co210 2.091 . S
O212 C218 1.261 . S
C213 O222 1.247 . S
C213 O223 1.272 . S
O214 Co210 2.004 . S
O214 C219 1.259 . S
Co215 O216 2.061 . S
Co215 O221 2.052 . S
Co215 O223 2.135 . S
O216 Co215 2.061 . S
O216 C219 1.235 . S
C217 O220 1.227 1_556 S
C217 O221 1.240 1_556 S
C218 O211 1.247 . S
C218 O212 1.261 . S
C219 O214 1.259 . S
C219 O216 1.235 . S
O220 Co210 2.021 . S
O220 C217 1.227 1_554 S
O221 Co215 2.052 . S
O221 C217 1.240 1_554 S
O222 Co210 2.137 . S
O222 C213 1.247 . S
O223 Co210 2.244 . S
O223 C213 1.272 . S
O223 Co215 2.135 . S
Co224 O225 2.216 . S
Co224 O226 2.091 . S
Co224 O228 2.004 . S
Co224 O234 2.021 . S
Co224 O236 2.137 . S
Co224 O237 2.244 . S
O225 Co224 2.216 . S
O225 C232 1.247 . S
O226 Co224 2.091 . S
O226 C232 1.261 . S
C227 O236 1.247 . S
C227 O237 1.272 . S
O228 Co224 2.004 . S
O228 C233 1.259 . S
Co229 O230 2.061 . S
Co229 O235 2.052 . S
Co229 O237 2.135 . S
O230 Co229 2.061 . S
O230 C233 1.235 . S
C231 O234 1.238 . S
C231 O235 1.241 . S
C232 O225 1.247 . S
C232 O226 1.261 . S
C233 O228 1.259 . S
C233 O230 1.235 . S
O234 Co224 2.021 . S
O234 C231 1.238 . S
O235 Co229 2.052 . S
O235 C231 1.241 . S
O236 Co224 2.137 . S
O236 C227 1.247 . S
O237 Co224 2.244 . S
O237 C227 1.272 . S
O237 Co229 2.135 . S
Co238 O239 2.216 . S
Co238 O240 2.091 . S
Co238 O242 2.004 . S
Co238 O248 2.021 . S
Co238 O250 2.137 . S
Co238 O251 2.244 . S
O239 Co238 2.216 . S
O239 C246 1.247 . S
O240 Co238 2.091 . S
O240 C246 1.261 . S
C241 O250 1.247 . S
C241 O251 1.272 . S
O242 Co238 2.004 . S
O242 C247 1.259 . S
Co243 O244 2.061 . S
Co243 O249 2.052 . S
Co243 O251 2.135 . S
O244 Co243 2.061 . S
O244 C247 1.235 . S
C245 O248 1.227 1_556 S
C245 O249 1.240 1_556 S
C246 O239 1.247 . S
C246 O240 1.261 . S
C247 O242 1.259 . S
C247 O244 1.235 . S
O248 Co238 2.021 . S
O248 C245 1.227 1_554 S
O249 Co243 2.052 . S
O249 C245 1.240 1_554 S
O250 Co238 2.137 . S
O250 C241 1.247 . S
O251 Co238 2.244 . S
O251 C241 1.272 . S
O251 Co243 2.135 . S
Co252 O253 2.216 . S
Co252 O254 2.091 . S
Co252 O256 2.004 . S
Co252 O262 2.021 . S
Co252 O264 2.137 . S
Co252 O265 2.244 . S
O253 Co252 2.216 . S
O253 C260 1.247 . S
O254 Co252 2.091 . S
O254 C260 1.261 . S
C255 O264 1.247 . S
C255 O265 1.272 . S
O256 Co252 2.004 . S
O256 C261 1.259 . S
Co257 O258 2.061 . S
Co257 O263 2.052 . S
Co257 O265 2.135 . S
O258 Co257 2.061 . S
O258 C261 1.235 . S
C259 O262 1.238 . S
C259 O263 1.241 . S
C260 O253 1.247 . S
C260 O254 1.261 . S
C261 O256 1.259 . S
C261 O258 1.235 . S
O262 Co252 2.021 . S
O262 C259 1.238 . S
O263 Co257 2.052 . S
O263 C259 1.241 . S
O264 Co252 2.137 . S
O264 C255 1.247 . S
O265 Co252 2.244 . S
O265 C255 1.272 . S
O265 Co257 2.135 . S
Co266 O267 2.216 . S
Co266 O268 2.091 . S
Co266 O270 2.004 . S
Co266 O276 2.021 . S
Co266 O278 2.137 . S
Co266 O279 2.244 . S
O267 Co266 2.216 . S
O267 C274 1.247 . S
O268 Co266 2.091 . S
O268 C274 1.261 . S
C269 O278 1.247 . S
C269 O279 1.272 . S
O270 Co266 2.004 . S
O270 C275 1.259 . S
Co271 O272 2.061 . S
Co271 O277 2.052 . S
Co271 O279 2.135 . S
O272 Co271 2.061 . S
O272 C275 1.235 . S
C273 O276 1.238 . S
C273 O277 1.241 . S
C274 O267 1.247 . S
C274 O268 1.261 . S
C275 O270 1.259 . S
C275 O272 1.235 . S
O276 Co266 2.021 . S
O276 C273 1.238 . S
O277 Co271 2.052 . S
O277 C273 1.241 . S
O278 Co266 2.137 . S
O278 C269 1.247 . S
O279 Co266 2.244 . S
O279 C269 1.272 . S
O279 Co271 2.135 . S
Co280 O281 2.216 . S
Co280 O282 2.091 . S
Co280 O284 2.004 . S
Co280 O290 2.021 . S
Co280 O292 2.137 . S
Co280 O293 2.244 . S
O281 Co280 2.216 . S
O281 C288 1.247 . S
O282 Co280 2.091 . S
O282 C288 1.261 . S
C283 O292 1.247 . S
C283 O293 1.272 . S
O284 Co280 2.004 . S
O284 C289 1.259 . S
Co285 O286 2.061 . S
Co285 O291 2.052 . S
Co285 O293 2.135 . S
O286 Co285 2.061 . S
O286 C289 1.235 . S
C287 O290 1.238 . S
C287 O291 1.241 . S
C288 O281 1.247 . S
C288 O282 1.261 . S
C289 O284 1.259 . S
C289 O286 1.235 . S
O290 Co280 2.021 . S
O290 C287 1.238 . S
O291 Co285 2.052 . S
O291 C287 1.241 . S
O292 Co280 2.137 . S
O292 C283 1.247 . S
O293 Co280 2.244 . S
O293 C283 1.272 . S
O293 Co285 2.135 . S
Co294 O295 2.216 . S
Co294 O296 2.091 . S
Co294 O298 2.004 . S
Co294 O304 2.021 . S
Co294 O306 2.137 . S
Co294 O307 2.244 . S
O295 Co294 2.216 . S
O295 C302 1.247 . S
O296 Co294 2.091 . S
O296 C302 1.261 . S
C297 O306 1.247 . S
C297 O307 1.272 . S
O298 Co294 2.004 . S
O298 C303 1.259 . S
Co299 O300 2.061 . S
Co299 O305 2.052 . S
Co299 O307 2.135 . S
O300 Co299 2.061 . S
O300 C303 1.235 . S
C301 O304 1.227 1_554 S
C301 O305 1.240 1_554 S
C302 O295 1.247 . S
C302 O296 1.261 . S
C303 O298 1.259 . S
C303 O300 1.235 . S
O304 Co294 2.021 . S
O304 C301 1.227 1_556 S
O305 Co299 2.052 . S
O305 C301 1.240 1_556 S
O306 Co294 2.137 . S
O306 C297 1.247 . S
O307 Co294 2.244 . S
O307 C297 1.272 . S
O307 Co299 2.135 . S
Co308 O309 2.216 . S
Co308 O310 2.091 . S
Co308 O312 2.004 . S
Co308 O318 2.021 . S
Co308 O320 2.137 . S
Co308 O321 2.244 . S
O309 Co308 2.216 . S
O309 C316 1.247 . S
O310 Co308 2.091 . S
O310 C316 1.261 . S
C311 O320 1.247 . S
C311 O321 1.272 . S
O312 Co308 2.004 . S
O312 C317 1.259 . S
Co313 O314 2.061 . S
Co313 O319 2.052 . S
Co313 O321 2.135 . S
O314 Co313 2.061 . S
O314 C317 1.235 . S
C315 O318 1.238 . S
C315 O319 1.241 . S
C316 O309 1.247 . S
C316 O310 1.261 . S
C317 O312 1.259 . S
C317 O314 1.235 . S
O318 Co308 2.021 . S
O318 C315 1.238 . S
O319 Co313 2.052 . S
O319 C315 1.241 . S
O320 Co308 2.137 . S
O320 C311 1.247 . S
O321 Co308 2.244 . S
O321 C311 1.272 . S
O321 Co313 2.135 . S
Co322 O323 2.216 . S
Co322 O324 2.091 . S
Co322 O326 2.004 . S
Co322 O332 2.021 . S
Co322 O334 2.137 . S
Co322 O335 2.244 . S
O323 Co322 2.216 . S
O323 C330 1.247 . S
O324 Co322 2.091 . S
O324 C330 1.261 . S
C325 O334 1.247 . S
C325 O335 1.272 . S
O326 Co322 2.004 . S
O326 C331 1.259 . S
Co327 O328 2.061 . S
Co327 O333 2.052 . S
Co327 O335 2.135 . S
O328 Co327 2.061 . S
O328 C331 1.235 . S
C329 O332 1.238 . S
C329 O333 1.241 . S
C330 O323 1.247 . S
C330 O324 1.261 . S
C331 O326 1.259 . S
C331 O328 1.235 . S
O332 Co322 2.021 . S
O332 C329 1.238 . S
O333 Co327 2.052 . S
O333 C329 1.241 . S
O334 Co322 2.137 . S
O334 C325 1.247 . S
O335 Co322 2.244 . S
O335 C325 1.272 . S
O335 Co327 2.135 . S
Co336 O337 2.216 . S
Co336 O338 2.091 . S
Co336 O340 2.004 . S
Co336 O346 2.021 . S
Co336 O348 2.137 . S
Co336 O349 2.244 . S
O337 Co336 2.216 . S
O337 C344 1.247 . S
O338 Co336 2.091 . S
O338 C344 1.261 . S
C339 O348 1.247 . S
C339 O349 1.272 . S
O340 Co336 2.004 . S
O340 C345 1.259 . S
Co341 O342 2.061 . S
Co341 O347 2.052 . S
Co341 O349 2.135 . S
O342 Co341 2.061 . S
O342 C345 1.235 . S
C343 O346 1.238 . S
C343 O347 1.241 . S
C344 O337 1.247 . S
C344 O338 1.261 . S
C345 O340 1.259 . S
C345 O342 1.235 . S
O346 Co336 2.021 . S
O346 C343 1.238 . S
O347 Co341 2.052 . S
O347 C343 1.241 . S
O348 Co336 2.137 . S
O348 C339 1.247 . S
O349 Co336 2.244 . S
O349 C339 1.272 . S
O349 Co341 2.135 . S
Co350 O351 2.216 . S
Co350 O352 2.091 . S
Co350 O354 2.004 . S
Co350 O360 2.021 . S
Co350 O362 2.137 . S
Co350 O363 2.244 . S
O351 Co350 2.216 . S
O351 C358 1.247 . S
O352 Co350 2.091 . S
O352 C358 1.261 . S
C353 O362 1.247 . S
C353 O363 1.272 . S
O354 Co350 2.004 . S
O354 C359 1.259 . S
Co355 O356 2.061 . S
Co355 O361 2.052 . S
Co355 O363 2.135 . S
O356 Co355 2.061 . S
O356 C359 1.235 . S
C357 O360 1.227 1_554 S
C357 O361 1.240 1_554 S
C358 O351 1.247 . S
C358 O352 1.261 . S
C359 O354 1.259 . S
C359 O356 1.235 . S
O360 Co350 2.021 . S
O360 C357 1.227 1_556 S
O361 Co355 2.052 . S
O361 C357 1.240 1_556 S
O362 Co350 2.137 . S
O362 C353 1.247 . S
O363 Co350 2.244 . S
O363 C353 1.272 . S
O363 Co355 2.135 . S
Co364 O365 2.216 . S
Co364 O366 2.091 . S
Co364 O368 2.004 . S
Co364 O374 2.021 . S
Co364 O376 2.137 . S
Co364 O377 2.244 . S
O365 Co364 2.216 . S
O365 C372 1.247 . S
O366 Co364 2.091 . S
O366 C372 1.261 . S
C367 O376 1.247 . S
C367 O377 1.272 . S
O368 Co364 2.004 . S
O368 C373 1.259 . S
Co369 O370 2.061 . S
Co369 O375 2.052 . S
Co369 O377 2.135 . S
O370 Co369 2.061 . S
O370 C373 1.235 . S
C371 O374 1.238 . S
C371 O375 1.241 . S
C372 O365 1.247 . S
C372 O366 1.261 . S
C373 O368 1.259 . S
C373 O370 1.235 . S
O374 Co364 2.021 . S
O374 C371 1.238 . S
O375 Co369 2.052 . S
O375 C371 1.241 . S
O376 Co364 2.137 . S
O376 C367 1.247 . S
O377 Co364 2.244 . S
O377 C367 1.272 . S
O377 Co369 2.135 . S
Co378 O379 2.216 . S
Co378 O380 2.091 . S
Co378 O382 2.004 . S
Co378 O388 2.021 . S
Co378 O390 2.137 . S
Co378 O391 2.244 . S
O379 Co378 2.216 . S
O379 C386 1.247 . S
O380 Co378 2.091 . S
O380 C386 1.261 . S
C381 O390 1.247 . S
C381 O391 1.272 . S
O382 Co378 2.004 . S
O382 C387 1.259 . S
Co383 O384 2.061 . S
Co383 O389 2.052 . S
Co383 O391 2.135 . S
O384 Co383 2.061 . S
O384 C387 1.235 . S
C385 O388 1.238 . S
C385 O389 1.241 . S
C386 O379 1.247 . S
C386 O380 1.261 . S
C387 O382 1.259 . S
C387 O384 1.235 . S
O388 Co378 2.021 . S
O388 C385 1.238 . S
O389 Co383 2.052 . S
O389 C385 1.241 . S
O390 Co378 2.137 . S
O390 C381 1.247 . S
O391 Co378 2.244 . S
O391 C381 1.272 . S
O391 Co383 2.135 . S
Co392 O393 2.216 . S
Co392 O394 2.091 . S
Co392 O396 2.004 . S
Co392 O402 2.021 . S
Co392 O404 2.137 . S
Co392 O405 2.244 . S
O393 Co392 2.216 . S
O393 C400 1.247 . S
O394 Co392 2.091 . S
O394 C400 1.261 . S
C395 O404 1.247 . S
C395 O405 1.272 . S
O396 Co392 2.004 . S
O396 C401 1.259 . S
Co397 O398 2.061 . S
Co397 O403 2.052 . S
Co397 O405 2.135 . S
O398 Co397 2.061 . S
O398 C401 1.235 . S
C399 O402 1.238 . S
C399 O403 1.241 . S
C400 O393 1.247 . S
C400 O394 1.261 . S
C401 O396 1.259 . S
C401 O398 1.235 . S
O402 Co392 2.021 . S
O402 C399 1.238 . S
O403 Co397 2.052 . S
O403 C399 1.241 . S
O404 Co392 2.137 . S
O404 C395 1.247 . S
O405 Co392 2.244 . S
O405 C395 1.272 . S
O405 Co397 2.135 . S
Co406 O407 2.216 . S
Co406 O408 2.091 . S
Co406 O410 2.004 . S
Co406 O416 2.021 . S
Co406 O418 2.137 . S
Co406 O419 2.244 . S
O407 Co406 2.216 . S
O407 C414 1.247 . S
O408 Co406 2.091 . S
O408 C414 1.261 . S
C409 O418 1.247 . S
C409 O419 1.272 . S
O410 Co406 2.004 . S
O410 C415 1.259 . S
Co411 O412 2.061 . S
Co411 O417 2.052 . S
Co411 O419 2.135 . S
O412 Co411 2.061 . S
O412 C415 1.235 . S
C413 O416 1.227 1_556 S
C413 O417 1.240 1_556 S
C414 O407 1.247 . S
C414 O408 1.261 . S
C415 O410 1.259 . S
C415 O412 1.235 . S
O416 Co406 2.021 . S
O416 C413 1.227 1_554 S
O417 Co411 2.052 . S
O417 C413 1.240 1_554 S
O418 Co406 2.137 . S
O418 C409 1.247 . S
O419 Co406 2.244 . S
O419 C409 1.272 . S
O419 Co411 2.135 . S
Co420 O421 2.216 . S
Co420 O422 2.091 . S
Co420 O424 2.004 . S
Co420 O430 2.021 . S
Co420 O432 2.137 . S
Co420 O433 2.244 . S
O421 Co420 2.216 . S
O421 C428 1.247 . S
O422 Co420 2.091 . S
O422 C428 1.261 . S
C423 O432 1.247 . S
C423 O433 1.272 . S
O424 Co420 2.004 . S
O424 C429 1.259 . S
Co425 O426 2.061 . S
Co425 O431 2.052 . S
Co425 O433 2.135 . S
O426 Co425 2.061 . S
O426 C429 1.235 . S
C427 O430 1.238 . S
C427 O431 1.241 . S
C428 O421 1.247 . S
C428 O422 1.261 . S
C429 O424 1.259 . S
C429 O426 1.235 . S
O430 Co420 2.021 . S
O430 C427 1.238 . S
O431 Co425 2.052 . S
O431 C427 1.241 . S
O432 Co420 2.137 . S
O432 C423 1.247 . S
O433 Co420 2.244 . S
O433 C423 1.272 . S
O433 Co425 2.135 . S
Co434 O435 2.216 . S
Co434 O436 2.091 . S
Co434 O438 2.004 . S
Co434 O444 2.021 . S
Co434 O446 2.137 . S
Co434 O447 2.244 . S
O435 Co434 2.216 . S
O435 C442 1.247 . S
O436 Co434 2.091 . S
O436 C442 1.261 . S
C437 O446 1.247 . S
C437 O447 1.272 . S
O438 Co434 2.004 . S
O438 C443 1.259 . S
Co439 O440 2.061 . S
Co439 O445 2.052 . S
Co439 O447 2.135 . S
O440 Co439 2.061 . S
O440 C443 1.235 . S
C441 O444 1.238 . S
C441 O445 1.241 . S
C442 O435 1.247 . S
C442 O436 1.261 . S
C443 O438 1.259 . S
C443 O440 1.235 . S
O444 Co434 2.021 . S
O444 C441 1.238 . S
O445 Co439 2.052 . S
O445 C441 1.241 . S
O446 Co434 2.137 . S
O446 C437 1.247 . S
O447 Co434 2.244 . S
O447 C437 1.272 . S
O447 Co439 2.135 . S
H448 C456 0.929 . S
H449 C458 0.930 . S
H450 C460 0.930 . S
H451 C463 0.929 . S
H452 C466 0.930 . S
H453 C468 0.960 . S
H454 C468 0.960 . S
H455 C468 0.960 . S
C456 H448 0.929 . S
C456 C457 1.377 . S
C456 C458 1.384 . S
C457 C456 1.377 . S
C457 C463 1.390 . S
C458 H449 0.930 . S
C458 C456 1.384 . S
C458 C459 1.372 . S
C459 C458 1.372 . S
C459 C460 1.400 . S
C459 C464 1.490 . S
C460 H450 0.930 . S
C460 C459 1.400 . S
C460 C463 1.386 . S
H461 C477 0.930 . S
H462 C478 0.931 . S
C463 H451 0.929 . S
C463 C457 1.390 . S
C463 C460 1.386 . S
C464 C459 1.490 . S
C464 C466 1.395 . S
C464 C467 1.403 . S
H465 C471 0.930 . S
C466 H452 0.930 . S
C466 C464 1.395 . S
C466 C469 1.403 . S
C467 C464 1.403 . S
C467 C468 1.524 . S
C467 C471 1.400 . S
C468 H453 0.960 . S
C468 H454 0.960 . S
C468 H455 0.960 . S
C468 C467 1.524 . S
C469 C466 1.403 . S
C469 C470 1.392 . S
C469 C473 1.495 . S
C470 C469 1.392 . S
C470 C471 1.385 . S
C470 C472 1.478 . S
C471 H465 0.930 . S
C471 C467 1.400 . S
C471 C470 1.385 . S
C472 C470 1.478 . S
C472 C474 1.381 . S
C472 C478 1.383 . S
C473 C469 1.495 . S
C473 H479 0.959 . S
C473 H480 0.961 . S
C473 H481 0.960 . S
C474 C472 1.381 . S
C474 C475 1.394 . S
C474 H482 0.930 . S
C475 C474 1.394 . S
C475 C476 1.383 . S
C475 H483 0.929 . S
C476 C475 1.383 . S
C476 C477 1.377 . S
C477 H461 0.930 . S
C477 C476 1.377 . S
C477 C478 1.379 . S
C478 H462 0.931 . S
C478 C472 1.383 . S
C478 C477 1.379 . S
H479 C473 0.959 . S
H480 C473 0.961 . S
H481 C473 0.960 . S
H482 C474 0.930 . S
H483 C475 0.929 . S
H484 C492 0.929 . S
H485 C494 0.930 . S
H486 C496 0.930 . S
H487 C499 0.929 . S
H488 C502 0.930 . S
H489 C504 0.960 . S
H490 C504 0.960 . S
H491 C504 0.960 . S
C492 H484 0.929 . S
C492 C493 1.377 . S
C492 C494 1.384 . S
C493 C492 1.377 . S
C493 C499 1.390 . S
C494 H485 0.930 . S
C494 C492 1.384 . S
C494 C495 1.372 . S
C495 C494 1.372 . S
C495 C496 1.400 . S
C495 C500 1.490 . S
C496 H486 0.930 . S
C496 C495 1.400 . S
C496 C499 1.386 . S
H497 C513 0.930 . S
H498 C514 0.931 . S
C499 H487 0.929 . S
C499 C493 1.390 . S
C499 C496 1.386 . S
C500 C495 1.490 . S
C500 C502 1.395 . S
C500 C503 1.403 . S
H501 C507 0.930 . S
C502 H488 0.930 . S
C502 C500 1.395 . S
C502 C505 1.403 . S
C503 C500 1.403 . S
C503 C504 1.524 . S
C503 C507 1.400 . S
C504 H489 0.960 . S
C504 H490 0.960 . S
C504 H491 0.960 . S
C504 C503 1.524 . S
C505 C502 1.403 . S
C505 C506 1.392 . S
C505 C509 1.495 . S
C506 C505 1.392 . S
C506 C507 1.385 . S
C506 C508 1.478 . S
C507 H501 0.930 . S
C507 C503 1.400 . S
C507 C506 1.385 . S
C508 C506 1.478 . S
C508 C510 1.381 . S
C508 C514 1.383 . S
C509 C505 1.495 . S
C509 H515 0.959 . S
C509 H516 0.961 . S
C509 H517 0.960 . S
C510 C508 1.381 . S
C510 C511 1.394 . S
C510 H518 0.930 . S
C511 C510 1.394 . S
C511 C512 1.383 . S
C511 H519 0.929 . S
C512 C511 1.383 . S
C512 C513 1.377 . S
C513 H497 0.930 . S
C513 C512 1.377 . S
C513 C514 1.379 . S
C514 H498 0.931 . S
C514 C508 1.383 . S
C514 C513 1.379 . S
H515 C509 0.959 . S
H516 C509 0.961 . S
H517 C509 0.960 . S
H518 C510 0.930 . S
H519 C511 0.929 . S
H520 C528 0.929 . S
H521 C530 0.930 . S
H522 C532 0.930 . S
H523 C535 0.929 . S
H524 C538 0.930 . S
H525 C540 0.960 . S
H526 C540 0.960 . S
H527 C540 0.960 . S
C528 H520 0.929 . S
C528 C529 1.377 . S
C528 C530 1.384 . S
C529 C528 1.377 . S
C529 C535 1.390 . S
C530 H521 0.930 . S
C530 C528 1.384 . S
C530 C531 1.372 . S
C531 C530 1.372 . S
C531 C532 1.400 . S
C531 C536 1.490 . S
C532 H522 0.930 . S
C532 C531 1.400 . S
C532 C535 1.386 . S
H533 C549 0.930 . S
H534 C550 0.931 . S
C535 H523 0.929 . S
C535 C529 1.390 . S
C535 C532 1.386 . S
C536 C531 1.490 . S
C536 C538 1.395 . S
C536 C539 1.403 . S
H537 C543 0.930 . S
C538 H524 0.930 . S
C538 C536 1.395 . S
C538 C541 1.403 . S
C539 C536 1.403 . S
C539 C540 1.524 . S
C539 C543 1.400 . S
C540 H525 0.960 . S
C540 H526 0.960 . S
C540 H527 0.960 . S
C540 C539 1.524 . S
C541 C538 1.403 . S
C541 C542 1.392 . S
C541 C545 1.495 . S
C542 C541 1.392 . S
C542 C543 1.385 . S
C542 C544 1.478 . S
C543 H537 0.930 . S
C543 C539 1.400 . S
C543 C542 1.385 . S
C544 C542 1.478 . S
C544 C546 1.381 . S
C544 C550 1.383 . S
C545 C541 1.495 . S
C545 H551 0.959 . S
C545 H552 0.961 . S
C545 H553 0.960 . S
C546 C544 1.381 . S
C546 C547 1.394 . S
C546 H554 0.930 . S
C547 C546 1.394 . S
C547 C548 1.383 . S
C547 H555 0.929 . S
C548 C547 1.383 . S
C548 C549 1.377 . S
C549 H533 0.930 . S
C549 C548 1.377 . S
C549 C550 1.379 . S
C550 H534 0.931 . S
C550 C544 1.383 . S
C550 C549 1.379 . S
H551 C545 0.959 . S
H552 C545 0.961 . S
H553 C545 0.960 . S
H554 C546 0.930 . S
H555 C547 0.929 . S
H556 C564 0.929 . S
H557 C566 0.930 . S
H558 C568 0.930 . S
H559 C571 0.929 . S
H560 C574 0.930 . S
H561 C576 0.960 . S
H562 C576 0.960 . S
H563 C576 0.960 . S
C564 H556 0.929 . S
C564 C565 1.377 . S
C564 C566 1.384 . S
C565 C564 1.377 . S
C565 C571 1.390 . S
C566 H557 0.930 . S
C566 C564 1.384 . S
C566 C567 1.372 . S
C567 C566 1.372 . S
C567 C568 1.400 . S
C567 C572 1.490 . S
C568 H558 0.930 . S
C568 C567 1.400 . S
C568 C571 1.386 . S
H569 C585 0.930 . S
H570 C586 0.931 . S
C571 H559 0.929 . S
C571 C565 1.390 . S
C571 C568 1.386 . S
C572 C567 1.490 . S
C572 C574 1.395 . S
C572 C575 1.403 . S
H573 C579 0.930 . S
C574 H560 0.930 . S
C574 C572 1.395 . S
C574 C577 1.403 . S
C575 C572 1.403 . S
C575 C576 1.524 . S
C575 C579 1.400 . S
C576 H561 0.960 . S
C576 H562 0.960 . S
C576 H563 0.960 . S
C576 C575 1.524 . S
C577 C574 1.403 . S
C577 C578 1.392 . S
C577 C581 1.495 . S
C578 C577 1.392 . S
C578 C579 1.385 . S
C578 C580 1.478 . S
C579 H573 0.930 . S
C579 C575 1.400 . S
C579 C578 1.385 . S
C580 C578 1.478 . S
C580 C582 1.381 . S
C580 C586 1.383 . S
C581 C577 1.495 . S
C581 H587 0.959 . S
C581 H588 0.961 . S
C581 H589 0.960 . S
C582 C580 1.381 . S
C582 C583 1.394 . S
C582 H590 0.930 . S
C583 C582 1.394 . S
C583 C584 1.383 . S
C583 H591 0.929 . S
C584 C583 1.383 . S
C584 C585 1.377 . S
C585 H569 0.930 . S
C585 C584 1.377 . S
C585 C586 1.379 . S
C586 H570 0.931 . S
C586 C580 1.383 . S
C586 C585 1.379 . S
H587 C581 0.959 . S
H588 C581 0.961 . S
H589 C581 0.960 . S
H590 C582 0.930 . S
H591 C583 0.929 . S
H592 C600 0.929 . S
H593 C602 0.930 . S
H594 C604 0.930 . S
H595 C607 0.929 . S
H596 C610 0.930 . S
H597 C612 0.960 . S
H598 C612 0.960 . S
H599 C612 0.960 . S
C600 H592 0.929 . S
C600 C601 1.377 . S
C600 C602 1.384 . S
C601 C600 1.377 . S
C601 C607 1.390 . S
C602 H593 0.930 . S
C602 C600 1.384 . S
C602 C603 1.372 . S
C603 C602 1.372 . S
C603 C604 1.400 . S
C603 C608 1.490 . S
C604 H594 0.930 . S
C604 C603 1.400 . S
C604 C607 1.386 . S
H605 C621 0.930 . S
H606 C622 0.931 . S
C607 H595 0.929 . S
C607 C601 1.390 . S
C607 C604 1.386 . S
C608 C603 1.490 . S
C608 C610 1.395 . S
C608 C611 1.403 . S
H609 C615 0.930 . S
C610 H596 0.930 . S
C610 C608 1.395 . S
C610 C613 1.403 . S
C611 C608 1.403 . S
C611 C612 1.524 . S
C611 C615 1.400 . S
C612 H597 0.960 . S
C612 H598 0.960 . S
C612 H599 0.960 . S
C612 C611 1.524 . S
C613 C610 1.403 . S
C613 C614 1.392 . S
C613 C617 1.495 . S
C614 C613 1.392 . S
C614 C615 1.385 . S
C614 C616 1.478 . S
C615 H609 0.930 . S
C615 C611 1.400 . S
C615 C614 1.385 . S
C616 C614 1.478 . S
C616 C618 1.381 . S
C616 C622 1.383 . S
C617 C613 1.495 . S
C617 H623 0.959 . S
C617 H624 0.961 . S
C617 H625 0.960 . S
C618 C616 1.381 . S
C618 C619 1.394 . S
C618 H626 0.930 . S
C619 C618 1.394 . S
C619 C620 1.383 . S
C619 H627 0.929 . S
C620 C619 1.383 . S
C620 C621 1.377 . S
C621 H605 0.930 . S
C621 C620 1.377 . S
C621 C622 1.379 . S
C622 H606 0.931 . S
C622 C616 1.383 . S
C622 C621 1.379 . S
H623 C617 0.959 . S
H624 C617 0.961 . S
H625 C617 0.960 . S
H626 C618 0.930 . S
H627 C619 0.929 . S
H628 C636 0.929 . S
H629 C638 0.930 . S
H630 C640 0.930 . S
H631 C643 0.929 . S
H632 C646 0.930 . S
H633 C648 0.960 . S
H634 C648 0.960 . S
H635 C648 0.960 . S
C636 H628 0.929 . S
C636 C637 1.377 . S
C636 C638 1.384 . S
C637 C636 1.377 . S
C637 C643 1.390 . S
C638 H629 0.930 . S
C638 C636 1.384 . S
C638 C639 1.372 . S
C639 C638 1.372 . S
C639 C640 1.400 . S
C639 C644 1.490 . S
C640 H630 0.930 . S
C640 C639 1.400 . S
C640 C643 1.386 . S
H641 C657 0.930 . S
H642 C658 0.931 . S
C643 H631 0.929 . S
C643 C637 1.390 . S
C643 C640 1.386 . S
C644 C639 1.490 . S
C644 C646 1.395 . S
C644 C647 1.403 . S
H645 C651 0.930 . S
C646 H632 0.930 . S
C646 C644 1.395 . S
C646 C649 1.403 . S
C647 C644 1.403 . S
C647 C648 1.524 . S
C647 C651 1.400 . S
C648 H633 0.960 . S
C648 H634 0.960 . S
C648 H635 0.960 . S
C648 C647 1.524 . S
C649 C646 1.403 . S
C649 C650 1.392 . S
C649 C653 1.495 . S
C650 C649 1.392 . S
C650 C651 1.385 . S
C650 C652 1.478 . S
C651 H645 0.930 . S
C651 C647 1.400 . S
C651 C650 1.385 . S
C652 C650 1.478 . S
C652 C654 1.381 . S
C652 C658 1.383 . S
C653 C649 1.495 . S
C653 H659 0.959 . S
C653 H660 0.961 . S
C653 H661 0.960 . S
C654 C652 1.381 . S
C654 C655 1.394 . S
C654 H662 0.930 . S
C655 C654 1.394 . S
C655 C656 1.383 . S
C655 H663 0.929 . S
C656 C655 1.383 . S
C656 C657 1.377 . S
C657 H641 0.930 . S
C657 C656 1.377 . S
C657 C658 1.379 . S
C658 H642 0.931 . S
C658 C652 1.383 . S
C658 C657 1.379 . S
H659 C653 0.959 . S
H660 C653 0.961 . S
H661 C653 0.960 . S
H662 C654 0.930 . S
H663 C655 0.929 . S
H664 C672 0.929 . S
H665 C674 0.930 . S
H666 C676 0.930 . S
H667 C679 0.929 . S
H668 C682 0.930 . S
H669 C684 0.960 . S
H670 C684 0.960 . S
H671 C684 0.960 . S
C672 H664 0.929 . S
C672 C673 1.377 . S
C672 C674 1.384 . S
C673 C672 1.377 . S
C673 C679 1.390 . S
C674 H665 0.930 . S
C674 C672 1.384 . S
C674 C675 1.372 . S
C675 C674 1.372 . S
C675 C676 1.400 . S
C675 C680 1.490 . S
C676 H666 0.930 . S
C676 C675 1.400 . S
C676 C679 1.386 . S
H677 C693 0.930 . S
H678 C694 0.931 . S
C679 H667 0.929 . S
C679 C673 1.390 . S
C679 C676 1.386 . S
C680 C675 1.490 . S
C680 C682 1.395 . S
C680 C683 1.403 . S
H681 C687 0.930 . S
C682 H668 0.930 . S
C682 C680 1.395 . S
C682 C685 1.403 . S
C683 C680 1.403 . S
C683 C684 1.524 . S
C683 C687 1.400 . S
C684 H669 0.960 . S
C684 H670 0.960 . S
C684 H671 0.960 . S
C684 C683 1.524 . S
C685 C682 1.403 . S
C685 C686 1.392 . S
C685 C689 1.495 . S
C686 C685 1.392 . S
C686 C687 1.385 . S
C686 C688 1.478 . S
C687 H681 0.930 . S
C687 C683 1.400 . S
C687 C686 1.385 . S
C688 C686 1.478 . S
C688 C690 1.381 . S
C688 C694 1.383 . S
C689 C685 1.495 . S
C689 H695 0.959 . S
C689 H696 0.961 . S
C689 H697 0.960 . S
C690 C688 1.381 . S
C690 C691 1.394 . S
C690 H698 0.930 . S
C691 C690 1.394 . S
C691 C692 1.383 . S
C691 H699 0.929 . S
C692 C691 1.383 . S
C692 C693 1.377 . S
C693 H677 0.930 . S
C693 C692 1.377 . S
C693 C694 1.379 . S
C694 H678 0.931 . S
C694 C688 1.383 . S
C694 C693 1.379 . S
H695 C689 0.959 . S
H696 C689 0.961 . S
H697 C689 0.960 . S
H698 C690 0.930 . S
H699 C691 0.929 . S
H700 C708 0.929 . S
H701 C710 0.930 . S
H702 C712 0.930 . S
H703 C715 0.929 . S
H704 C718 0.930 . S
H705 C720 0.960 . S
H706 C720 0.960 . S
H707 C720 0.960 . S
C708 H700 0.929 . S
C708 C709 1.377 . S
C708 C710 1.384 . S
C709 C708 1.377 . S
C709 C715 1.390 . S
C710 H701 0.930 . S
C710 C708 1.384 . S
C710 C711 1.372 . S
C711 C710 1.372 . S
C711 C712 1.400 . S
C711 C716 1.490 . S
C712 H702 0.930 . S
C712 C711 1.400 . S
C712 C715 1.386 . S
H713 C729 0.930 . S
H714 C730 0.931 . S
C715 H703 0.929 . S
C715 C709 1.390 . S
C715 C712 1.386 . S
C716 C711 1.490 . S
C716 C718 1.395 . S
C716 C719 1.403 . S
H717 C723 0.930 . S
C718 H704 0.930 . S
C718 C716 1.395 . S
C718 C721 1.403 . S
C719 C716 1.403 . S
C719 C720 1.524 . S
C719 C723 1.400 . S
C720 H705 0.960 . S
C720 H706 0.960 . S
C720 H707 0.960 . S
C720 C719 1.524 . S
C721 C718 1.403 . S
C721 C722 1.392 . S
C721 C725 1.495 . S
C722 C721 1.392 . S
C722 C723 1.385 . S
C722 C724 1.478 . S
C723 H717 0.930 . S
C723 C719 1.400 . S
C723 C722 1.385 . S
C724 C722 1.478 . S
C724 C726 1.381 . S
C724 C730 1.383 . S
C725 C721 1.495 . S
C725 H731 0.959 . S
C725 H732 0.961 . S
C725 H733 0.960 . S
C726 C724 1.381 . S
C726 C727 1.394 . S
C726 H734 0.930 . S
C727 C726 1.394 . S
C727 C728 1.383 . S
C727 H735 0.929 . S
C728 C727 1.383 . S
C728 C729 1.377 . S
C729 H713 0.930 . S
C729 C728 1.377 . S
C729 C730 1.379 . S
C730 H714 0.931 . S
C730 C724 1.383 . S
C730 C729 1.379 . S
H731 C725 0.959 . S
H732 C725 0.961 . S
H733 C725 0.960 . S
H734 C726 0.930 . S
H735 C727 0.929 . S
H736 C744 0.929 . S
H737 C746 0.930 . S
H738 C748 0.930 . S
H739 C751 0.929 . S
H740 C754 0.930 . S
H741 C756 0.960 . S
H742 C756 0.960 . S
H743 C756 0.960 . S
C744 H736 0.929 . S
C744 C745 1.377 . S
C744 C746 1.384 . S
C745 C744 1.377 . S
C745 C751 1.390 . S
C746 H737 0.930 . S
C746 C744 1.384 . S
C746 C747 1.372 . S
C747 C746 1.372 . S
C747 C748 1.400 . S
C747 C752 1.490 . S
C748 H738 0.930 . S
C748 C747 1.400 . S
C748 C751 1.386 . S
H749 C765 0.930 . S
H750 C766 0.931 . S
C751 H739 0.929 . S
C751 C745 1.390 . S
C751 C748 1.386 . S
C752 C747 1.490 . S
C752 C754 1.395 . S
C752 C755 1.403 . S
H753 C759 0.930 . S
C754 H740 0.930 . S
C754 C752 1.395 . S
C754 C757 1.403 . S
C755 C752 1.403 . S
C755 C756 1.524 . S
C755 C759 1.400 . S
C756 H741 0.960 . S
C756 H742 0.960 . S
C756 H743 0.960 . S
C756 C755 1.524 . S
C757 C754 1.403 . S
C757 C758 1.392 . S
C757 C761 1.495 . S
C758 C757 1.392 . S
C758 C759 1.385 . S
C758 C760 1.478 . S
C759 H753 0.930 . S
C759 C755 1.400 . S
C759 C758 1.385 . S
C760 C758 1.478 . S
C760 C762 1.381 . S
C760 C766 1.383 . S
C761 C757 1.495 . S
C761 H767 0.959 . S
C761 H768 0.961 . S
C761 H769 0.960 . S
C762 C760 1.381 . S
C762 C763 1.394 . S
C762 H770 0.930 . S
C763 C762 1.394 . S
C763 C764 1.383 . S
C763 H771 0.929 . S
C764 C763 1.383 . S
C764 C765 1.377 . S
C765 H749 0.930 . S
C765 C764 1.377 . S
C765 C766 1.379 . S
C766 H750 0.931 . S
C766 C760 1.383 . S
C766 C765 1.379 . S
H767 C761 0.959 . S
H768 C761 0.961 . S
H769 C761 0.960 . S
H770 C762 0.930 . S
H771 C763 0.929 . S
H772 C780 0.929 . S
H773 C782 0.930 . S
H774 C784 0.930 . S
H775 C787 0.929 . S
H776 C790 0.930 . S
H777 C792 0.960 . S
H778 C792 0.960 . S
H779 C792 0.960 . S
C780 H772 0.929 . S
C780 C781 1.377 . S
C780 C782 1.384 . S
C781 C780 1.377 . S
C781 C787 1.390 . S
C782 H773 0.930 . S
C782 C780 1.384 . S
C782 C783 1.372 . S
C783 C782 1.372 . S
C783 C784 1.400 . S
C783 C788 1.490 . S
C784 H774 0.930 . S
C784 C783 1.400 . S
C784 C787 1.386 . S
H785 C801 0.930 . S
H786 C802 0.931 . S
C787 H775 0.929 . S
C787 C781 1.390 . S
C787 C784 1.386 . S
C788 C783 1.490 . S
C788 C790 1.395 . S
C788 C791 1.403 . S
H789 C795 0.930 . S
C790 H776 0.930 . S
C790 C788 1.395 . S
C790 C793 1.403 . S
C791 C788 1.403 . S
C791 C792 1.524 . S
C791 C795 1.400 . S
C792 H777 0.960 . S
C792 H778 0.960 . S
C792 H779 0.960 . S
C792 C791 1.524 . S
C793 C790 1.403 . S
C793 C794 1.392 . S
C793 C797 1.495 . S
C794 C793 1.392 . S
C794 C795 1.385 . S
C794 C796 1.478 . S
C795 H789 0.930 . S
C795 C791 1.400 . S
C795 C794 1.385 . S
C796 C794 1.478 . S
C796 C798 1.381 . S
C796 C802 1.383 . S
C797 C793 1.495 . S
C797 H803 0.959 . S
C797 H804 0.961 . S
C797 H805 0.960 . S
C798 C796 1.381 . S
C798 C799 1.394 . S
C798 H806 0.930 . S
C799 C798 1.394 . S
C799 C800 1.383 . S
C799 H807 0.929 . S
C800 C799 1.383 . S
C800 C801 1.377 . S
C801 H785 0.930 . S
C801 C800 1.377 . S
C801 C802 1.379 . S
C802 H786 0.931 . S
C802 C796 1.383 . S
C802 C801 1.379 . S
H803 C797 0.959 . S
H804 C797 0.961 . S
H805 C797 0.960 . S
H806 C798 0.930 . S
H807 C799 0.929 . S
H808 C816 0.929 . S
H809 C818 0.930 . S
H810 C820 0.930 . S
H811 C823 0.929 . S
H812 C826 0.930 . S
H813 C828 0.960 . S
H814 C828 0.960 . S
H815 C828 0.960 . S
C816 H808 0.929 . S
C816 C817 1.377 . S
C816 C818 1.384 . S
C817 C816 1.377 . S
C817 C823 1.390 . S
C818 H809 0.930 . S
C818 C816 1.384 . S
C818 C819 1.372 . S
C819 C818 1.372 . S
C819 C820 1.400 . S
C819 C824 1.490 . S
C820 H810 0.930 . S
C820 C819 1.400 . S
C820 C823 1.386 . S
H821 C837 0.930 . S
H822 C838 0.931 . S
C823 H811 0.929 . S
C823 C817 1.390 . S
C823 C820 1.386 . S
C824 C819 1.490 . S
C824 C826 1.395 . S
C824 C827 1.403 . S
H825 C831 0.930 . S
C826 H812 0.930 . S
C826 C824 1.395 . S
C826 C829 1.403 . S
C827 C824 1.403 . S
C827 C828 1.524 . S
C827 C831 1.400 . S
C828 H813 0.960 . S
C828 H814 0.960 . S
C828 H815 0.960 . S
C828 C827 1.524 . S
C829 C826 1.403 . S
C829 C830 1.392 . S
C829 C833 1.495 . S
C830 C829 1.392 . S
C830 C831 1.385 . S
C830 C832 1.478 . S
C831 H825 0.930 . S
C831 C827 1.400 . S
C831 C830 1.385 . S
C832 C830 1.478 . S
C832 C834 1.381 . S
C832 C838 1.383 . S
C833 C829 1.495 . S
C833 H839 0.959 . S
C833 H840 0.961 . S
C833 H841 0.960 . S
C834 C832 1.381 . S
C834 C835 1.394 . S
C834 H842 0.930 . S
C835 C834 1.394 . S
C835 C836 1.383 . S
C835 H843 0.929 . S
C836 C835 1.383 . S
C836 C837 1.377 . S
C837 H821 0.930 . S
C837 C836 1.377 . S
C837 C838 1.379 . S
C838 H822 0.931 . S
C838 C832 1.383 . S
C838 C837 1.379 . S
H839 C833 0.959 . S
H840 C833 0.961 . S
H841 C833 0.960 . S
H842 C834 0.930 . S
H843 C835 0.929 . S
H844 C852 0.929 . S
H845 C854 0.930 . S
H846 C856 0.930 . S
H847 C859 0.929 . S
H848 C862 0.930 . S
H849 C864 0.960 . S
H850 C864 0.960 . S
H851 C864 0.960 . S
C852 H844 0.929 . S
C852 C853 1.377 . S
C852 C854 1.384 . S
C853 C852 1.377 . S
C853 C859 1.390 . S
C854 H845 0.930 . S
C854 C852 1.384 . S
C854 C855 1.372 . S
C855 C854 1.372 . S
C855 C856 1.400 . S
C855 C860 1.490 . S
C856 H846 0.930 . S
C856 C855 1.400 . S
C856 C859 1.386 . S
H857 C873 0.930 . S
H858 C874 0.931 . S
C859 H847 0.929 . S
C859 C853 1.390 . S
C859 C856 1.386 . S
C860 C855 1.490 . S
C860 C862 1.395 . S
C860 C863 1.403 . S
H861 C867 0.930 . S
C862 H848 0.930 . S
C862 C860 1.395 . S
C862 C865 1.403 . S
C863 C860 1.403 . S
C863 C864 1.524 . S
C863 C867 1.400 . S
C864 H849 0.960 . S
C864 H850 0.960 . S
C864 H851 0.960 . S
C864 C863 1.524 . S
C865 C862 1.403 . S
C865 C866 1.392 . S
C865 C869 1.495 . S
C866 C865 1.392 . S
C866 C867 1.385 . S
C866 C868 1.478 . S
C867 H861 0.930 . S
C867 C863 1.400 . S
C867 C866 1.385 . S
C868 C866 1.478 . S
C868 C870 1.381 . S
C868 C874 1.383 . S
C869 C865 1.495 . S
C869 H875 0.959 . S
C869 H876 0.961 . S
C869 H877 0.960 . S
C870 C868 1.381 . S
C870 C871 1.394 . S
C870 H878 0.930 . S
C871 C870 1.394 . S
C871 C872 1.383 . S
C871 H879 0.929 . S
C872 C871 1.383 . S
C872 C873 1.377 . S
C873 H857 0.930 . S
C873 C872 1.377 . S
C873 C874 1.379 . S
C874 H858 0.931 . S
C874 C868 1.383 . S
C874 C873 1.379 . S
H875 C869 0.959 . S
H876 C869 0.961 . S
H877 C869 0.960 . S
H878 C870 0.930 . S
H879 C871 0.929 . S
H880 C888 0.929 . S
H881 C890 0.930 . S
H882 C892 0.930 . S
H883 C895 0.929 . S
H884 C898 0.930 . S
H885 C900 0.960 . S
H886 C900 0.960 . S
H887 C900 0.960 . S
C888 H880 0.929 . S
C888 C889 1.377 . S
C888 C890 1.384 . S
C889 C888 1.377 . S
C889 C895 1.390 . S
C890 H881 0.930 . S
C890 C888 1.384 . S
C890 C891 1.372 . S
C891 C890 1.372 . S
C891 C892 1.400 . S
C891 C896 1.490 . S
C892 H882 0.930 . S
C892 C891 1.400 . S
C892 C895 1.386 . S
H893 C909 0.930 . S
H894 C910 0.931 . S
C895 H883 0.929 . S
C895 C889 1.390 . S
C895 C892 1.386 . S
C896 C891 1.490 . S
C896 C898 1.395 . S
C896 C899 1.403 . S
H897 C903 0.930 . S
C898 H884 0.930 . S
C898 C896 1.395 . S
C898 C901 1.403 . S
C899 C896 1.403 . S
C899 C900 1.524 . S
C899 C903 1.400 . S
C900 H885 0.960 . S
C900 H886 0.960 . S
C900 H887 0.960 . S
C900 C899 1.524 . S
C901 C898 1.403 . S
C901 C902 1.392 . S
C901 C905 1.495 . S
C902 C901 1.392 . S
C902 C903 1.385 . S
C902 C904 1.478 . S
C903 H897 0.930 . S
C903 C899 1.400 . S
C903 C902 1.385 . S
C904 C902 1.478 . S
C904 C906 1.381 . S
C904 C910 1.383 . S
C905 C901 1.495 . S
C905 H911 0.959 . S
C905 H912 0.961 . S
C905 H913 0.960 . S
C906 C904 1.381 . S
C906 C907 1.394 . S
C906 H914 0.930 . S
C907 C906 1.394 . S
C907 C908 1.383 . S
C907 H915 0.929 . S
C908 C907 1.383 . S
C908 C909 1.377 . S
C909 H893 0.930 . S
C909 C908 1.377 . S
C909 C910 1.379 . S
C910 H894 0.931 . S
C910 C904 1.383 . S
C910 C909 1.379 . S
H911 C905 0.959 . S
H912 C905 0.961 . S
H913 C905 0.960 . S
H914 C906 0.930 . S
H915 C907 0.929 . S
H916 C924 0.929 . S
H917 C926 0.930 . S
H918 C928 0.930 . S
H919 C931 0.929 . S
H920 C934 0.930 . S
H921 C936 0.960 . S
H922 C936 0.960 . S
H923 C936 0.960 . S
C924 H916 0.929 . S
C924 C925 1.377 . S
C924 C926 1.384 . S
C925 C924 1.377 . S
C925 C931 1.390 . S
C926 H917 0.930 . S
C926 C924 1.384 . S
C926 C927 1.372 . S
C927 C926 1.372 . S
C927 C928 1.400 . S
C927 C932 1.490 . S
C928 H918 0.930 . S
C928 C927 1.400 . S
C928 C931 1.386 . S
H929 C945 0.930 . S
H930 C946 0.931 . S
C931 H919 0.929 . S
C931 C925 1.390 . S
C931 C928 1.386 . S
C932 C927 1.490 . S
C932 C934 1.395 . S
C932 C935 1.403 . S
H933 C939 0.930 . S
C934 H920 0.930 . S
C934 C932 1.395 . S
C934 C937 1.403 . S
C935 C932 1.403 . S
C935 C936 1.524 . S
C935 C939 1.400 . S
C936 H921 0.960 . S
C936 H922 0.960 . S
C936 H923 0.960 . S
C936 C935 1.524 . S
C937 C934 1.403 . S
C937 C938 1.392 . S
C937 C941 1.495 . S
C938 C937 1.392 . S
C938 C939 1.385 . S
C938 C940 1.478 . S
C939 H933 0.930 . S
C939 C935 1.400 . S
C939 C938 1.385 . S
C940 C938 1.478 . S
C940 C942 1.381 . S
C940 C946 1.383 . S
C941 C937 1.495 . S
C941 H947 0.959 . S
C941 H948 0.961 . S
C941 H949 0.960 . S
C942 C940 1.381 . S
C942 C943 1.394 . S
C942 H950 0.930 . S
C943 C942 1.394 . S
C943 C944 1.383 . S
C943 H951 0.929 . S
C944 C943 1.383 . S
C944 C945 1.377 . S
C945 H929 0.930 . S
C945 C944 1.377 . S
C945 C946 1.379 . S
C946 H930 0.931 . S
C946 C940 1.383 . S
C946 C945 1.379 . S
H947 C941 0.959 . S
H948 C941 0.961 . S
H949 C941 0.960 . S
H950 C942 0.930 . S
H951 C943 0.929 . S
H952 C960 0.929 . S
H953 C962 0.930 . S
H954 C964 0.930 . S
H955 C967 0.929 . S
H956 C970 0.930 . S
H957 C972 0.960 . S
H958 C972 0.960 . S
H959 C972 0.960 . S
C960 H952 0.929 . S
C960 C961 1.377 . S
C960 C962 1.384 . S
C961 C960 1.377 . S
C961 C967 1.390 . S
C962 H953 0.930 . S
C962 C960 1.384 . S
C962 C963 1.372 . S
C963 C962 1.372 . S
C963 C964 1.400 . S
C963 C968 1.490 . S
C964 H954 0.930 . S
C964 C963 1.400 . S
C964 C967 1.386 . S
H965 C981 0.930 . S
H966 C982 0.931 . S
C967 H955 0.929 . S
C967 C961 1.390 . S
C967 C964 1.386 . S
C968 C963 1.490 . S
C968 C970 1.395 . S
C968 C971 1.403 . S
H969 C975 0.930 . S
C970 H956 0.930 . S
C970 C968 1.395 . S
C970 C973 1.403 . S
C971 C968 1.403 . S
C971 C972 1.524 . S
C971 C975 1.400 . S
C972 H957 0.960 . S
C972 H958 0.960 . S
C972 H959 0.960 . S
C972 C971 1.524 . S
C973 C970 1.403 . S
C973 C974 1.392 . S
C973 C977 1.495 . S
C974 C973 1.392 . S
C974 C975 1.385 . S
C974 C976 1.478 . S
C975 H969 0.930 . S
C975 C971 1.400 . S
C975 C974 1.385 . S
C976 C974 1.478 . S
C976 C978 1.381 . S
C976 C982 1.383 . S
C977 C973 1.495 . S
C977 H983 0.959 . S
C977 H984 0.961 . S
C977 H985 0.960 . S
C978 C976 1.381 . S
C978 C979 1.394 . S
C978 H986 0.930 . S
C979 C978 1.394 . S
C979 C980 1.383 . S
C979 H987 0.929 . S
C980 C979 1.383 . S
C980 C981 1.377 . S
C981 H965 0.930 . S
C981 C980 1.377 . S
C981 C982 1.379 . S
C982 H966 0.931 . S
C982 C976 1.383 . S
C982 C981 1.379 . S
H983 C977 0.959 . S
H984 C977 0.961 . S
H985 C977 0.960 . S
H986 C978 0.930 . S
H987 C979 0.929 . S
H988 C996 0.929 . S
H989 C998 0.930 . S
H990 C1000 0.930 . S
H991 C1003 0.929 . S
H992 C1006 0.930 . S
H993 C1008 0.960 . S
H994 C1008 0.960 . S
H995 C1008 0.960 . S
C996 H988 0.929 . S
C996 C997 1.377 . S
C996 C998 1.384 . S
C997 C996 1.377 . S
C997 C1003 1.390 . S
C998 H989 0.930 . S
C998 C996 1.384 . S
C998 C999 1.372 . S
C999 C998 1.372 . S
C999 C1000 1.400 . S
C999 C1004 1.490 . S
C1000 H990 0.930 . S
C1000 C999 1.400 . S
C1000 C1003 1.386 . S
H1001 C1017 0.930 . S
H1002 C1018 0.931 . S
C1003 H991 0.929 . S
C1003 C997 1.390 . S
C1003 C1000 1.386 . S
C1004 C999 1.490 . S
C1004 C1006 1.395 . S
C1004 C1007 1.403 . S
H1005 C1011 0.930 . S
C1006 H992 0.930 . S
C1006 C1004 1.395 . S
C1006 C1009 1.403 . S
C1007 C1004 1.403 . S
C1007 C1008 1.524 . S
C1007 C1011 1.400 . S
C1008 H993 0.960 . S
C1008 H994 0.960 . S
C1008 H995 0.960 . S
C1008 C1007 1.524 . S
C1009 C1006 1.403 . S
C1009 C1010 1.392 . S
C1009 C1013 1.495 . S
C1010 C1009 1.392 . S
C1010 C1011 1.385 . S
C1010 C1012 1.478 . S
C1011 H1005 0.930 . S
C1011 C1007 1.400 . S
C1011 C1010 1.385 . S
C1012 C1010 1.478 . S
C1012 C1014 1.381 . S
C1012 C1018 1.383 . S
C1013 C1009 1.495 . S
C1013 H1019 0.959 . S
C1013 H1020 0.961 . S
C1013 H1021 0.960 . S
C1014 C1012 1.381 . S
C1014 C1015 1.394 . S
C1014 H1022 0.930 . S
C1015 C1014 1.394 . S
C1015 C1016 1.383 . S
C1015 H1023 0.929 . S
C1016 C1015 1.383 . S
C1016 C1017 1.377 . S
C1017 H1001 0.930 . S
C1017 C1016 1.377 . S
C1017 C1018 1.379 . S
C1018 H1002 0.931 . S
C1018 C1012 1.383 . S
C1018 C1017 1.379 . S
H1019 C1013 0.959 . S
H1020 C1013 0.961 . S
H1021 C1013 0.960 . S
H1022 C1014 0.930 . S
H1023 C1015 0.929 . S
H1024 C1032 0.929 . S
H1025 C1034 0.930 . S
H1026 C1036 0.930 . S
H1027 C1039 0.929 . S
H1028 C1042 0.930 . S
H1029 C1044 0.960 . S
H1030 C1044 0.960 . S
H1031 C1044 0.960 . S
C1032 H1024 0.929 . S
C1032 C1033 1.377 . S
C1032 C1034 1.384 . S
C1033 C1032 1.377 . S
C1033 C1039 1.390 . S
C1034 H1025 0.930 . S
C1034 C1032 1.384 . S
C1034 C1035 1.372 . S
C1035 C1034 1.372 . S
C1035 C1036 1.400 . S
C1035 C1040 1.490 . S
C1036 H1026 0.930 . S
C1036 C1035 1.400 . S
C1036 C1039 1.386 . S
H1037 C1053 0.930 . S
H1038 C1054 0.931 . S
C1039 H1027 0.929 . S
C1039 C1033 1.390 . S
C1039 C1036 1.386 . S
C1040 C1035 1.490 . S
C1040 C1042 1.395 . S
C1040 C1043 1.403 . S
H1041 C1047 0.930 . S
C1042 H1028 0.930 . S
C1042 C1040 1.395 . S
C1042 C1045 1.403 . S
C1043 C1040 1.403 . S
C1043 C1044 1.524 . S
C1043 C1047 1.400 . S
C1044 H1029 0.960 . S
C1044 H1030 0.960 . S
C1044 H1031 0.960 . S
C1044 C1043 1.524 . S
C1045 C1042 1.403 . S
C1045 C1046 1.392 . S
C1045 C1049 1.495 . S
C1046 C1045 1.392 . S
C1046 C1047 1.385 . S
C1046 C1048 1.478 . S
C1047 H1041 0.930 . S
C1047 C1043 1.400 . S
C1047 C1046 1.385 . S
C1048 C1046 1.478 . S
C1048 C1050 1.381 . S
C1048 C1054 1.383 . S
C1049 C1045 1.495 . S
C1049 H1055 0.959 . S
C1049 H1056 0.961 . S
C1049 H1057 0.960 . S
C1050 C1048 1.381 . S
C1050 C1051 1.394 . S
C1050 H1058 0.930 . S
C1051 C1050 1.394 . S
C1051 C1052 1.383 . S
C1051 H1059 0.929 . S
C1052 C1051 1.383 . S
C1052 C1053 1.377 . S
C1053 H1037 0.930 . S
C1053 C1052 1.377 . S
C1053 C1054 1.379 . S
C1054 H1038 0.931 . S
C1054 C1048 1.383 . S
C1054 C1053 1.379 . S
H1055 C1049 0.959 . S
H1056 C1049 0.961 . S
H1057 C1049 0.960 . S
H1058 C1050 0.930 . S
H1059 C1051 0.929 . S
H1060 C1068 0.929 . S
H1061 C1070 0.930 . S
H1062 C1072 0.930 . S
H1063 C1075 0.929 . S
H1064 C1078 0.930 . S
H1065 C1080 0.960 . S
H1066 C1080 0.960 . S
H1067 C1080 0.960 . S
C1068 H1060 0.929 . S
C1068 C1069 1.377 . S
C1068 C1070 1.384 . S
C1069 C1068 1.377 . S
C1069 C1075 1.390 . S
C1070 H1061 0.930 . S
C1070 C1068 1.384 . S
C1070 C1071 1.372 . S
C1071 C1070 1.372 . S
C1071 C1072 1.400 . S
C1071 C1076 1.490 . S
C1072 H1062 0.930 . S
C1072 C1071 1.400 . S
C1072 C1075 1.386 . S
H1073 C1089 0.930 . S
H1074 C1090 0.931 . S
C1075 H1063 0.929 . S
C1075 C1069 1.390 . S
C1075 C1072 1.386 . S
C1076 C1071 1.490 . S
C1076 C1078 1.395 . S
C1076 C1079 1.403 . S
H1077 C1083 0.930 . S
C1078 H1064 0.930 . S
C1078 C1076 1.395 . S
C1078 C1081 1.403 . S
C1079 C1076 1.403 . S
C1079 C1080 1.524 . S
C1079 C1083 1.400 . S
C1080 H1065 0.960 . S
C1080 H1066 0.960 . S
C1080 H1067 0.960 . S
C1080 C1079 1.524 . S
C1081 C1078 1.403 . S
C1081 C1082 1.392 . S
C1081 C1085 1.495 . S
C1082 C1081 1.392 . S
C1082 C1083 1.385 . S
C1082 C1084 1.478 . S
C1083 H1077 0.930 . S
C1083 C1079 1.400 . S
C1083 C1082 1.385 . S
C1084 C1082 1.478 . S
C1084 C1086 1.381 1_655 S
C1084 C1090 1.383 . S
C1085 C1081 1.495 . S
C1085 H1091 0.959 . S
C1085 H1092 0.961 . S
C1085 H1093 0.960 1_655 S
C1086 C1084 1.381 1_455 S
C1086 C1087 1.394 . S
C1086 H1094 0.930 . S
C1087 C1086 1.394 . S
C1087 C1088 1.383 . S
C1087 H1095 0.929 . S
C1088 C1087 1.383 . S
C1088 C1089 1.377 . S
C1089 H1073 0.930 . S
C1089 C1088 1.377 . S
C1089 C1090 1.379 1_455 S
C1090 H1074 0.931 . S
C1090 C1084 1.383 . S
C1090 C1089 1.379 1_655 S
H1091 C1085 0.959 . S
H1092 C1085 0.961 . S
H1093 C1085 0.960 1_455 S
H1094 C1086 0.930 . S
H1095 C1087 0.929 . S
H1096 C1104 0.929 . S
H1097 C1106 0.930 . S
H1098 C1108 0.930 . S
H1099 C1111 0.929 . S
H1100 C1114 0.930 . S
H1101 C1116 0.960 . S
H1102 C1116 0.960 . S
H1103 C1116 0.960 . S
C1104 H1096 0.929 . S
C1104 C1105 1.377 . S
C1104 C1106 1.384 . S
C1105 C1104 1.377 . S
C1105 C1111 1.390 . S
C1106 H1097 0.930 . S
C1106 C1104 1.384 . S
C1106 C1107 1.372 . S
C1107 C1106 1.372 . S
C1107 C1108 1.400 . S
C1107 C1112 1.490 . S
C1108 H1098 0.930 . S
C1108 C1107 1.400 . S
C1108 C1111 1.386 . S
H1109 C1125 0.930 . S
H1110 C1126 0.931 . S
C1111 H1099 0.929 . S
C1111 C1105 1.390 . S
C1111 C1108 1.386 . S
C1112 C1107 1.490 . S
C1112 C1114 1.395 . S
C1112 C1115 1.403 . S
H1113 C1119 0.930 . S
C1114 H1100 0.930 . S
C1114 C1112 1.395 . S
C1114 C1117 1.403 . S
C1115 C1112 1.403 . S
C1115 C1116 1.524 . S
C1115 C1119 1.400 . S
C1116 H1101 0.960 . S
C1116 H1102 0.960 . S
C1116 H1103 0.960 . S
C1116 C1115 1.524 . S
C1117 C1114 1.403 . S
C1117 C1118 1.392 . S
C1117 C1121 1.495 . S
C1118 C1117 1.392 . S
C1118 C1119 1.385 . S
C1118 C1120 1.478 . S
C1119 H1113 0.930 . S
C1119 C1115 1.400 . S
C1119 C1118 1.385 . S
C1120 C1118 1.478 . S
C1120 C1122 1.381 . S
C1120 C1126 1.383 . S
C1121 C1117 1.495 . S
C1121 H1127 0.959 . S
C1121 H1128 0.961 . S
C1121 H1129 0.960 . S
C1122 C1120 1.381 . S
C1122 C1123 1.394 . S
C1122 H1130 0.930 . S
C1123 C1122 1.394 . S
C1123 C1124 1.383 . S
C1123 H1131 0.929 . S
C1124 C1123 1.383 . S
C1124 C1125 1.377 . S
C1125 H1109 0.930 . S
C1125 C1124 1.377 . S
C1125 C1126 1.379 . S
C1126 H1110 0.931 . S
C1126 C1120 1.383 . S
C1126 C1125 1.379 . S
H1127 C1121 0.959 . S
H1128 C1121 0.961 . S
H1129 C1121 0.960 . S
H1130 C1122 0.930 . S
H1131 C1123 0.929 . S
H1132 C1140 0.929 . S
H1133 C1142 0.930 . S
H1134 C1144 0.930 . S
H1135 C1147 0.929 . S
H1136 C1150 0.930 . S
H1137 C1152 0.960 . S
H1138 C1152 0.960 . S
H1139 C1152 0.960 . S
C1140 H1132 0.929 . S
C1140 C1141 1.377 . S
C1140 C1142 1.384 . S
C1141 C1140 1.377 . S
C1141 C1147 1.390 . S
C1142 H1133 0.930 . S
C1142 C1140 1.384 . S
C1142 C1143 1.372 . S
C1143 C1142 1.372 . S
C1143 C1144 1.400 . S
C1143 C1148 1.490 . S
C1144 H1134 0.930 . S
C1144 C1143 1.400 . S
C1144 C1147 1.386 . S
H1145 C1161 0.930 . S
H1146 C1162 0.931 . S
C1147 H1135 0.929 . S
C1147 C1141 1.390 . S
C1147 C1144 1.386 . S
C1148 C1143 1.490 . S
C1148 C1150 1.395 . S
C1148 C1151 1.403 . S
H1149 C1155 0.930 . S
C1150 H1136 0.930 . S
C1150 C1148 1.395 . S
C1150 C1153 1.403 . S
C1151 C1148 1.403 . S
C1151 C1152 1.524 . S
C1151 C1155 1.400 . S
C1152 H1137 0.960 . S
C1152 H1138 0.960 . S
C1152 H1139 0.960 . S
C1152 C1151 1.524 . S
C1153 C1150 1.403 . S
C1153 C1154 1.392 . S
C1153 C1157 1.495 . S
C1154 C1153 1.392 . S
C1154 C1155 1.385 . S
C1154 C1156 1.478 . S
C1155 H1149 0.930 . S
C1155 C1151 1.400 . S
C1155 C1154 1.385 . S
C1156 C1154 1.478 . S
C1156 C1158 1.381 . S
C1156 C1162 1.383 . S
C1157 C1153 1.495 . S
C1157 H1163 0.959 . S
C1157 H1164 0.961 . S
C1157 H1165 0.960 . S
C1158 C1156 1.381 . S
C1158 C1159 1.394 . S
C1158 H1166 0.930 . S
C1159 C1158 1.394 . S
C1159 C1160 1.383 . S
C1159 H1167 0.929 . S
C1160 C1159 1.383 . S
C1160 C1161 1.377 . S
C1161 H1145 0.930 . S
C1161 C1160 1.377 . S
C1161 C1162 1.379 . S
C1162 H1146 0.931 . S
C1162 C1156 1.383 . S
C1162 C1161 1.379 . S
H1163 C1157 0.959 . S
H1164 C1157 0.961 . S
H1165 C1157 0.960 . S
H1166 C1158 0.930 . S
H1167 C1159 0.929 . S
H1168 C1176 0.929 . S
H1169 C1178 0.930 . S
H1170 C1180 0.930 . S
H1171 C1183 0.929 . S
H1172 C1186 0.930 . S
H1173 C1188 0.960 . S
H1174 C1188 0.960 . S
H1175 C1188 0.960 . S
C1176 H1168 0.929 . S
C1176 C1177 1.377 . S
C1176 C1178 1.384 . S
C1177 C1176 1.377 . S
C1177 C1183 1.390 . S
C1178 H1169 0.930 . S
C1178 C1176 1.384 . S
C1178 C1179 1.372 . S
C1179 C1178 1.372 . S
C1179 C1180 1.400 . S
C1179 C1184 1.490 . S
C1180 H1170 0.930 . S
C1180 C1179 1.400 . S
C1180 C1183 1.386 . S
H1181 C1197 0.930 . S
H1182 C1198 0.931 . S
C1183 H1171 0.929 . S
C1183 C1177 1.390 . S
C1183 C1180 1.386 . S
C1184 C1179 1.490 . S
C1184 C1186 1.395 . S
C1184 C1187 1.403 . S
H1185 C1191 0.930 . S
C1186 H1172 0.930 . S
C1186 C1184 1.395 . S
C1186 C1189 1.403 . S
C1187 C1184 1.403 . S
C1187 C1188 1.524 . S
C1187 C1191 1.400 . S
C1188 H1173 0.960 . S
C1188 H1174 0.960 . S
C1188 H1175 0.960 . S
C1188 C1187 1.524 . S
C1189 C1186 1.403 . S
C1189 C1190 1.392 . S
C1189 C1193 1.495 . S
C1190 C1189 1.392 . S
C1190 C1191 1.385 . S
C1190 C1192 1.478 . S
C1191 H1185 0.930 . S
C1191 C1187 1.400 . S
C1191 C1190 1.385 . S
C1192 C1190 1.478 . S
C1192 C1194 1.381 . S
C1192 C1198 1.383 . S
C1193 C1189 1.495 . S
C1193 H1199 0.959 . S
C1193 H1200 0.961 . S
C1193 H1201 0.960 . S
C1194 C1192 1.381 . S
C1194 C1195 1.394 . S
C1194 H1202 0.930 . S
C1195 C1194 1.394 . S
C1195 C1196 1.383 . S
C1195 H1203 0.929 . S
C1196 C1195 1.383 . S
C1196 C1197 1.377 . S
C1197 H1181 0.930 . S
C1197 C1196 1.377 . S
C1197 C1198 1.379 . S
C1198 H1182 0.931 . S
C1198 C1192 1.383 . S
C1198 C1197 1.379 . S
H1199 C1193 0.959 . S
H1200 C1193 0.961 . S
H1201 C1193 0.960 . S
H1202 C1194 0.930 . S
H1203 C1195 0.929 . S
H1204 C1212 0.929 . S
H1205 C1214 0.930 . S
H1206 C1216 0.930 . S
H1207 C1219 0.929 . S
H1208 C1222 0.930 . S
H1209 C1224 0.960 . S
H1210 C1224 0.960 . S
H1211 C1224 0.960 . S
C1212 H1204 0.929 . S
C1212 C1213 1.377 . S
C1212 C1214 1.384 . S
C1213 C1212 1.377 . S
C1213 C1219 1.390 . S
C1214 H1205 0.930 . S
C1214 C1212 1.384 . S
C1214 C1215 1.372 . S
C1215 C1214 1.372 . S
C1215 C1216 1.400 . S
C1215 C1220 1.490 . S
C1216 H1206 0.930 . S
C1216 C1215 1.400 . S
C1216 C1219 1.386 . S
H1217 C1233 0.930 . S
H1218 C1234 0.931 . S
C1219 H1207 0.929 . S
C1219 C1213 1.390 . S
C1219 C1216 1.386 . S
C1220 C1215 1.490 . S
C1220 C1222 1.395 . S
C1220 C1223 1.403 . S
H1221 C1227 0.930 . S
C1222 H1208 0.930 . S
C1222 C1220 1.395 . S
C1222 C1225 1.403 . S
C1223 C1220 1.403 . S
C1223 C1224 1.524 . S
C1223 C1227 1.400 . S
C1224 H1209 0.960 . S
C1224 H1210 0.960 . S
C1224 H1211 0.960 . S
C1224 C1223 1.524 . S
C1225 C1222 1.403 . S
C1225 C1226 1.392 . S
C1225 C1229 1.495 . S
C1226 C1225 1.392 . S
C1226 C1227 1.385 . S
C1226 C1228 1.478 . S
C1227 H1221 0.930 . S
C1227 C1223 1.400 . S
C1227 C1226 1.385 . S
C1228 C1226 1.478 . S
C1228 C1230 1.381 . S
C1228 C1234 1.383 . S
C1229 C1225 1.495 . S
C1229 H1235 0.959 . S
C1229 H1236 0.961 . S
C1229 H1237 0.960 . S
C1230 C1228 1.381 . S
C1230 C1231 1.394 . S
C1230 H1238 0.930 . S
C1231 C1230 1.394 . S
C1231 C1232 1.383 . S
C1231 H1239 0.929 . S
C1232 C1231 1.383 . S
C1232 C1233 1.377 . S
C1233 H1217 0.930 . S
C1233 C1232 1.377 . S
C1233 C1234 1.379 . S
C1234 H1218 0.931 . S
C1234 C1228 1.383 . S
C1234 C1233 1.379 . S
H1235 C1229 0.959 . S
H1236 C1229 0.961 . S
H1237 C1229 0.960 . S
H1238 C1230 0.930 . S
H1239 C1231 0.929 . S
H1240 C1248 0.929 . S
H1241 C1250 0.930 . S
H1242 C1252 0.930 . S
H1243 C1255 0.929 . S
H1244 C1258 0.930 . S
H1245 C1260 0.960 . S
H1246 C1260 0.960 . S
H1247 C1260 0.960 . S
C1248 H1240 0.929 . S
C1248 C1249 1.377 . S
C1248 C1250 1.384 . S
C1249 C1248 1.377 . S
C1249 C1255 1.390 . S
C1250 H1241 0.930 . S
C1250 C1248 1.384 . S
C1250 C1251 1.372 . S
C1251 C1250 1.372 . S
C1251 C1252 1.400 . S
C1251 C1256 1.490 . S
C1252 H1242 0.930 . S
C1252 C1251 1.400 . S
C1252 C1255 1.386 . S
H1253 C1269 0.930 . S
H1254 C1270 0.931 . S
C1255 H1243 0.929 . S
C1255 C1249 1.390 . S
C1255 C1252 1.386 . S
C1256 C1251 1.490 . S
C1256 C1258 1.395 . S
C1256 C1259 1.403 . S
H1257 C1263 0.930 . S
C1258 H1244 0.930 . S
C1258 C1256 1.395 . S
C1258 C1261 1.403 . S
C1259 C1256 1.403 . S
C1259 C1260 1.524 . S
C1259 C1263 1.400 . S
C1260 H1245 0.960 . S
C1260 H1246 0.960 . S
C1260 H1247 0.960 . S
C1260 C1259 1.524 . S
C1261 C1258 1.403 . S
C1261 C1262 1.392 . S
C1261 C1265 1.495 . S
C1262 C1261 1.392 . S
C1262 C1263 1.385 . S
C1262 C1264 1.478 . S
C1263 H1257 0.930 . S
C1263 C1259 1.400 . S
C1263 C1262 1.385 . S
C1264 C1262 1.478 . S
C1264 C1266 1.381 . S
C1264 C1270 1.383 . S
C1265 C1261 1.495 . S
C1265 H1271 0.959 . S
C1265 H1272 0.961 . S
C1265 H1273 0.960 . S
C1266 C1264 1.381 . S
C1266 C1267 1.394 . S
C1266 H1274 0.930 . S
C1267 C1266 1.394 . S
C1267 C1268 1.383 . S
C1267 H1275 0.929 . S
C1268 C1267 1.383 . S
C1268 C1269 1.377 . S
C1269 H1253 0.930 . S
C1269 C1268 1.377 . S
C1269 C1270 1.379 . S
C1270 H1254 0.931 . S
C1270 C1264 1.383 . S
C1270 C1269 1.379 . S
H1271 C1265 0.959 . S
H1272 C1265 0.961 . S
H1273 C1265 0.960 . S
H1274 C1266 0.930 . S
H1275 C1267 0.929 . S
H1276 C1284 0.929 . S
H1277 C1286 0.934 1_655 S
H1278 C1288 0.930 . S
H1279 C1291 0.929 . S
H1280 C1294 0.930 . S
H1281 C1296 0.960 . S
H1282 C1296 0.960 . S
H1283 C1296 0.915 1_455 S
C1284 H1276 0.929 . S
C1284 C1285 1.377 . S
C1284 C1286 1.378 . S
C1285 C1284 1.377 . S
C1285 C1291 1.390 . S
C1286 H1277 0.934 1_455 S
C1286 C1284 1.378 . S
C1286 C1287 1.373 1_455 S
C1287 C1286 1.373 1_655 S
C1287 C1288 1.400 1_655 S
C1287 C1292 1.490 . S
C1288 H1278 0.930 . S
C1288 C1287 1.400 1_455 S
C1288 C1291 1.386 . S
H1289 C1305 0.930 . S
H1290 C1306 0.931 . S
C1291 H1279 0.929 . S
C1291 C1285 1.390 . S
C1291 C1288 1.386 . S
C1292 C1287 1.490 . S
C1292 C1294 1.395 . S
C1292 C1295 1.403 . S
H1293 C1299 0.930 . S
C1294 H1280 0.930 . S
C1294 C1292 1.395 . S
C1294 C1297 1.403 . S
C1295 C1292 1.403 . S
C1295 C1296 1.524 . S
C1295 C1299 1.400 . S
C1296 H1281 0.960 . S
C1296 H1282 0.960 . S
C1296 H1283 0.915 1_655 S
C1296 C1295 1.524 . S
C1297 C1294 1.403 . S
C1297 C1298 1.392 . S
C1297 C1301 1.495 . S
C1298 C1297 1.392 . S
C1298 C1299 1.385 . S
C1298 C1300 1.478 . S
C1299 H1293 0.930 . S
C1299 C1295 1.400 . S
C1299 C1298 1.385 . S
C1300 C1298 1.478 . S
C1300 C1302 1.381 . S
C1300 C1306 1.383 . S
C1301 C1297 1.495 . S
C1301 H1307 0.959 . S
C1301 H1308 0.961 . S
C1301 H1309 0.960 . S
C1302 C1300 1.381 . S
C1302 C1303 1.394 . S
C1302 H1310 0.930 . S
C1303 C1302 1.394 . S
C1303 C1304 1.383 . S
C1303 H1311 0.929 . S
C1304 C1303 1.383 . S
C1304 C1305 1.377 . S
C1305 H1289 0.930 . S
C1305 C1304 1.377 . S
C1305 C1306 1.379 . S
C1306 H1290 0.931 . S
C1306 C1300 1.383 . S
C1306 C1305 1.379 . S
H1307 C1301 0.959 . S
H1308 C1301 0.961 . S
H1309 C1301 0.960 . S
H1310 C1302 0.930 . S
H1311 C1303 0.929 . S
H1312 C1320 0.929 . S
H1313 C1322 0.930 . S
H1314 C1324 0.930 . S
H1315 C1327 0.929 . S
H1316 C1330 0.930 . S
H1317 C1332 0.960 . S
H1318 C1332 0.960 . S
H1319 C1332 0.960 . S
C1320 H1312 0.929 . S
C1320 C1321 1.377 . S
C1320 C1322 1.384 . S
C1321 C1320 1.377 . S
C1321 C1327 1.390 . S
C1322 H1313 0.930 . S
C1322 C1320 1.384 . S
C1322 C1323 1.372 . S
C1323 C1322 1.372 . S
C1323 C1324 1.400 . S
C1323 C1328 1.490 . S
C1324 H1314 0.930 . S
C1324 C1323 1.400 . S
C1324 C1327 1.386 . S
H1325 C1341 0.930 . S
H1326 C1342 0.931 . S
C1327 H1315 0.929 . S
C1327 C1321 1.390 . S
C1327 C1324 1.386 . S
C1328 C1323 1.490 . S
C1328 C1330 1.395 . S
C1328 C1331 1.403 . S
H1329 C1335 0.930 . S
C1330 H1316 0.930 . S
C1330 C1328 1.395 . S
C1330 C1333 1.403 . S
C1331 C1328 1.403 . S
C1331 C1332 1.524 . S
C1331 C1335 1.400 . S
C1332 H1317 0.960 . S
C1332 H1318 0.960 . S
C1332 H1319 0.960 . S
C1332 C1331 1.524 . S
C1333 C1330 1.403 . S
C1333 C1334 1.392 . S
C1333 C1337 1.495 . S
C1334 C1333 1.392 . S
C1334 C1335 1.385 . S
C1334 C1336 1.478 . S
C1335 H1329 0.930 . S
C1335 C1331 1.400 . S
C1335 C1334 1.385 . S
C1336 C1334 1.478 . S
C1336 C1338 1.381 . S
C1336 C1342 1.383 . S
C1337 C1333 1.495 . S
C1337 H1343 0.959 . S
C1337 H1344 0.961 . S
C1337 H1345 0.960 . S
C1338 C1336 1.381 . S
C1338 C1339 1.394 . S
C1338 H1346 0.930 . S
C1339 C1338 1.394 . S
C1339 C1340 1.383 . S
C1339 H1347 0.929 . S
C1340 C1339 1.383 . S
C1340 C1341 1.377 . S
C1341 H1325 0.930 . S
C1341 C1340 1.377 . S
C1341 C1342 1.379 . S
C1342 H1326 0.931 . S
C1342 C1336 1.383 . S
C1342 C1341 1.379 . S
H1343 C1337 0.959 . S
H1344 C1337 0.961 . S
H1345 C1337 0.960 . S
H1346 C1338 0.930 . S
H1347 C1339 0.929 . S
H1348 C1356 0.929 . S
H1349 C1358 0.930 1_455 S
H1350 C1360 0.940 . S
H1351 C1363 0.929 . S
H1352 C1366 0.930 . S
H1353 C1368 0.960 . S
H1354 C1368 0.938 1_655 S
H1355 C1368 0.960 . S
C1356 H1348 0.929 . S
C1356 C1357 1.377 . S
C1356 C1358 1.384 . S
C1357 C1356 1.377 . S
C1357 C1363 1.390 . S
C1358 H1349 0.930 1_655 S
C1358 C1356 1.384 . S
C1358 C1359 1.372 1_655 S
C1359 C1358 1.372 1_455 S
C1359 C1360 1.400 1_455 S
C1359 C1364 1.490 . S
C1360 H1350 0.940 . S
C1360 C1359 1.400 1_655 S
C1360 C1363 1.386 . S
H1361 C1377 0.930 . S
H1362 C1378 0.931 . S
C1363 H1351 0.929 . S
C1363 C1357 1.390 . S
C1363 C1360 1.386 . S
C1364 C1359 1.490 . S
C1364 C1366 1.395 . S
C1364 C1367 1.403 . S
H1365 C1371 0.930 . S
C1366 H1352 0.930 . S
C1366 C1364 1.395 . S
C1366 C1369 1.403 . S
C1367 C1364 1.403 . S
C1367 C1368 1.524 . S
C1367 C1371 1.400 . S
C1368 H1353 0.960 . S
C1368 H1354 0.938 1_455 S
C1368 H1355 0.960 . S
C1368 C1367 1.524 . S
C1369 C1366 1.403 . S
C1369 C1370 1.392 . S
C1369 C1373 1.495 . S
C1370 C1369 1.392 . S
C1370 C1371 1.385 . S
C1370 C1372 1.478 . S
C1371 H1365 0.930 . S
C1371 C1367 1.400 . S
C1371 C1370 1.385 . S
C1372 C1370 1.478 . S
C1372 C1374 1.381 . S
C1372 C1378 1.383 . S
C1373 C1369 1.495 . S
C1373 H1379 0.959 . S
C1373 H1380 0.961 . S
C1373 H1381 0.960 . S
C1374 C1372 1.381 . S
C1374 C1375 1.394 . S
C1374 H1382 0.930 . S
C1375 C1374 1.394 . S
C1375 C1376 1.383 . S
C1375 H1383 0.929 . S
C1376 C1375 1.383 . S
C1376 C1377 1.377 . S
C1377 H1361 0.930 . S
C1377 C1376 1.377 . S
C1377 C1378 1.379 . S
C1378 H1362 0.931 . S
C1378 C1372 1.383 . S
C1378 C1377 1.379 . S
H1379 C1373 0.959 . S
H1380 C1373 0.961 . S
H1381 C1373 0.960 . S
H1382 C1374 0.930 . S
H1383 C1375 0.929 . S
H1384 C1392 0.929 . S
H1385 C1394 0.930 . S
H1386 C1396 0.930 . S
H1387 C1399 0.929 . S
H1388 C1402 0.930 . S
H1389 C1404 0.960 . S
H1390 C1404 0.960 . S
H1391 C1404 0.960 . S
C1392 H1384 0.929 . S
C1392 C1393 1.377 . S
C1392 C1394 1.384 . S
C1393 C1392 1.377 . S
C1393 C1399 1.390 . S
C1394 H1385 0.930 . S
C1394 C1392 1.384 . S
C1394 C1395 1.372 . S
C1395 C1394 1.372 . S
C1395 C1396 1.400 . S
C1395 C1400 1.490 . S
C1396 H1386 0.930 . S
C1396 C1395 1.400 . S
C1396 C1399 1.386 . S
H1397 C1413 0.930 . S
H1398 C1414 0.931 . S
C1399 H1387 0.929 . S
C1399 C1393 1.390 . S
C1399 C1396 1.386 . S
C1400 C1395 1.490 . S
C1400 C1402 1.395 . S
C1400 C1403 1.403 . S
H1401 C1407 0.930 . S
C1402 H1388 0.930 . S
C1402 C1400 1.395 . S
C1402 C1405 1.403 . S
C1403 C1400 1.403 . S
C1403 C1404 1.524 . S
C1403 C1407 1.400 . S
C1404 H1389 0.960 . S
C1404 H1390 0.960 . S
C1404 H1391 0.960 . S
C1404 C1403 1.524 . S
C1405 C1402 1.403 . S
C1405 C1406 1.392 . S
C1405 C1409 1.495 . S
C1406 C1405 1.392 . S
C1406 C1407 1.385 . S
C1406 C1408 1.478 . S
C1407 H1401 0.930 . S
C1407 C1403 1.400 . S
C1407 C1406 1.385 . S
C1408 C1406 1.478 . S
C1408 C1410 1.381 . S
C1408 C1414 1.383 . S
C1409 C1405 1.495 . S
C1409 H1415 0.959 . S
C1409 H1416 0.961 . S
C1409 H1417 0.960 . S
C1410 C1408 1.381 . S
C1410 C1411 1.394 . S
C1410 H1418 0.930 . S
C1411 C1410 1.394 . S
C1411 C1412 1.383 . S
C1411 H1419 0.929 . S
C1412 C1411 1.383 . S
C1412 C1413 1.377 . S
C1413 H1397 0.930 . S
C1413 C1412 1.377 . S
C1413 C1414 1.379 . S
C1414 H1398 0.931 . S
C1414 C1408 1.383 . S
C1414 C1413 1.379 . S
H1415 C1409 0.959 . S
H1416 C1409 0.961 . S
H1417 C1409 0.960 . S
H1418 C1410 0.930 . S
H1419 C1411 0.929 . S
H1420 C1428 0.929 . S
H1421 C1430 0.930 . S
H1422 C1432 0.930 . S
H1423 C1435 0.929 . S
H1424 C1438 0.930 . S
H1425 C1440 0.960 . S
H1426 C1440 0.960 . S
H1427 C1440 0.960 . S
C1428 H1420 0.929 . S
C1428 C1429 1.377 . S
C1428 C1430 1.384 . S
C1429 C1428 1.377 . S
C1429 C1435 1.390 . S
C1430 H1421 0.930 . S
C1430 C1428 1.384 . S
C1430 C1431 1.372 . S
C1431 C1430 1.372 . S
C1431 C1432 1.400 . S
C1431 C1436 1.490 . S
C1432 H1422 0.930 . S
C1432 C1431 1.400 . S
C1432 C1435 1.386 . S
H1433 C1449 0.930 . S
H1434 C1450 0.931 . S
C1435 H1423 0.929 . S
C1435 C1429 1.390 . S
C1435 C1432 1.386 . S
C1436 C1431 1.490 . S
C1436 C1438 1.395 . S
C1436 C1439 1.403 . S
H1437 C1443 0.930 . S
C1438 H1424 0.930 . S
C1438 C1436 1.395 . S
C1438 C1441 1.403 . S
C1439 C1436 1.403 . S
C1439 C1440 1.524 . S
C1439 C1443 1.400 . S
C1440 H1425 0.960 . S
C1440 H1426 0.960 . S
C1440 H1427 0.960 . S
C1440 C1439 1.524 . S
C1441 C1438 1.403 . S
C1441 C1442 1.392 . S
C1441 C1445 1.495 . S
C1442 C1441 1.392 . S
C1442 C1443 1.385 . S
C1442 C1444 1.478 . S
C1443 H1437 0.930 . S
C1443 C1439 1.400 . S
C1443 C1442 1.385 . S
C1444 C1442 1.478 . S
C1444 C1446 1.381 . S
C1444 C1450 1.383 . S
C1445 C1441 1.495 . S
C1445 H1451 0.959 . S
C1445 H1452 0.961 . S
C1445 H1453 0.960 . S
C1446 C1444 1.381 . S
C1446 C1447 1.394 . S
C1446 H1454 0.930 . S
C1447 C1446 1.394 . S
C1447 C1448 1.383 . S
C1447 H1455 0.929 . S
C1448 C1447 1.383 . S
C1448 C1449 1.377 . S
C1449 H1433 0.930 . S
C1449 C1448 1.377 . S
C1449 C1450 1.379 . S
C1450 H1434 0.931 . S
C1450 C1444 1.383 . S
C1450 C1449 1.379 . S
H1451 C1445 0.959 . S
H1452 C1445 0.961 . S
H1453 C1445 0.960 . S
H1454 C1446 0.930 . S
H1455 C1447 0.929 . S
H1456 C1464 0.929 . S
H1457 C1466 0.930 . S
H1458 C1468 0.930 . S
H1459 C1471 0.929 . S
H1460 C1474 0.930 . S
H1461 C1476 0.960 . S
H1462 C1476 0.960 . S
H1463 C1476 0.960 . S
C1464 H1456 0.929 . S
C1464 C1465 1.377 . S
C1464 C1466 1.384 . S
C1465 C1464 1.377 . S
C1465 C1471 1.390 . S
C1466 H1457 0.930 . S
C1466 C1464 1.384 . S
C1466 C1467 1.372 . S
C1467 C1466 1.372 . S
C1467 C1468 1.400 . S
C1467 C1472 1.490 . S
C1468 H1458 0.930 . S
C1468 C1467 1.400 . S
C1468 C1471 1.386 . S
H1469 C1485 0.930 . S
H1470 C1486 0.931 . S
C1471 H1459 0.929 . S
C1471 C1465 1.390 . S
C1471 C1468 1.386 . S
C1472 C1467 1.490 . S
C1472 C1474 1.395 . S
C1472 C1475 1.403 . S
H1473 C1479 0.930 . S
C1474 H1460 0.930 . S
C1474 C1472 1.395 . S
C1474 C1477 1.403 . S
C1475 C1472 1.403 . S
C1475 C1476 1.524 . S
C1475 C1479 1.400 . S
C1476 H1461 0.960 . S
C1476 H1462 0.960 . S
C1476 H1463 0.960 . S
C1476 C1475 1.524 . S
C1477 C1474 1.403 . S
C1477 C1478 1.392 . S
C1477 C1481 1.495 . S
C1478 C1477 1.392 . S
C1478 C1479 1.385 . S
C1478 C1480 1.478 . S
C1479 H1473 0.930 . S
C1479 C1475 1.400 . S
C1479 C1478 1.385 . S
C1480 C1478 1.478 . S
C1480 C1482 1.381 . S
C1480 C1486 1.383 . S
C1481 C1477 1.495 . S
C1481 H1487 0.959 . S
C1481 H1488 0.961 . S
C1481 H1489 0.960 . S
C1482 C1480 1.381 . S
C1482 C1483 1.394 . S
C1482 H1490 0.930 . S
C1483 C1482 1.394 . S
C1483 C1484 1.383 . S
C1483 H1491 0.929 . S
C1484 C1483 1.383 . S
C1484 C1485 1.377 . S
C1485 H1469 0.930 . S
C1485 C1484 1.377 . S
C1485 C1486 1.379 . S
C1486 H1470 0.931 . S
C1486 C1480 1.383 . S
C1486 C1485 1.379 . S
H1487 C1481 0.959 . S
H1488 C1481 0.961 . S
H1489 C1481 0.960 . S
H1490 C1482 0.930 . S
H1491 C1483 0.929 . S
H1492 C1500 0.929 . S
H1493 C1502 0.930 . S
H1494 C1504 0.930 . S
H1495 C1507 0.929 . S
H1496 C1510 0.930 . S
H1497 C1512 0.960 . S
H1498 C1512 0.960 . S
H1499 C1512 0.960 . S
C1500 H1492 0.929 . S
C1500 C1501 1.377 . S
C1500 C1502 1.384 . S
C1501 C1500 1.377 . S
C1501 C1507 1.390 . S
C1502 H1493 0.930 . S
C1502 C1500 1.384 . S
C1502 C1503 1.372 . S
C1503 C1502 1.372 . S
C1503 C1504 1.400 . S
C1503 C1508 1.490 . S
C1504 H1494 0.930 . S
C1504 C1503 1.400 . S
C1504 C1507 1.386 . S
H1505 C1521 0.930 . S
H1506 C1522 0.931 . S
C1507 H1495 0.929 . S
C1507 C1501 1.390 . S
C1507 C1504 1.386 . S
C1508 C1503 1.490 . S
C1508 C1510 1.395 . S
C1508 C1511 1.403 . S
H1509 C1515 0.930 . S
C1510 H1496 0.930 . S
C1510 C1508 1.395 . S
C1510 C1513 1.403 . S
C1511 C1508 1.403 . S
C1511 C1512 1.524 . S
C1511 C1515 1.400 . S
C1512 H1497 0.960 . S
C1512 H1498 0.960 . S
C1512 H1499 0.960 . S
C1512 C1511 1.524 . S
C1513 C1510 1.403 . S
C1513 C1514 1.392 . S
C1513 C1517 1.495 . S
C1514 C1513 1.392 . S
C1514 C1515 1.385 . S
C1514 C1516 1.478 . S
C1515 H1509 0.930 . S
C1515 C1511 1.400 . S
C1515 C1514 1.385 . S
C1516 C1514 1.478 . S
C1516 C1518 1.381 . S
C1516 C1522 1.383 . S
C1517 C1513 1.495 . S
C1517 H1523 0.959 . S
C1517 H1524 0.961 . S
C1517 H1525 0.960 . S
C1518 C1516 1.381 . S
C1518 C1519 1.394 . S
C1518 H1526 0.930 . S
C1519 C1518 1.394 . S
C1519 C1520 1.383 . S
C1519 H1527 0.929 . S
C1520 C1519 1.383 . S
C1520 C1521 1.377 . S
C1521 H1505 0.930 . S
C1521 C1520 1.377 . S
C1521 C1522 1.379 . S
C1522 H1506 0.931 . S
C1522 C1516 1.383 . S
C1522 C1521 1.379 . S
H1523 C1517 0.959 . S
H1524 C1517 0.961 . S
H1525 C1517 0.960 . S
H1526 C1518 0.930 . S
H1527 C1519 0.929 . S
H1528 C1536 0.929 . S
H1529 C1538 0.930 . S
H1530 C1540 0.930 . S
H1531 C1543 0.929 . S
H1532 C1546 0.930 . S
H1533 C1548 0.960 . S
H1534 C1548 0.960 . S
H1535 C1548 0.960 . S
C1536 H1528 0.929 . S
C1536 C1537 1.377 . S
C1536 C1538 1.384 . S
C1537 C1536 1.377 . S
C1537 C1543 1.390 . S
C1538 H1529 0.930 . S
C1538 C1536 1.384 . S
C1538 C1539 1.372 . S
C1539 C1538 1.372 . S
C1539 C1540 1.400 . S
C1539 C1544 1.490 . S
C1540 H1530 0.930 . S
C1540 C1539 1.400 . S
C1540 C1543 1.386 . S
H1541 C1557 0.930 . S
H1542 C1558 0.931 . S
C1543 H1531 0.929 . S
C1543 C1537 1.390 . S
C1543 C1540 1.386 . S
C1544 C1539 1.490 . S
C1544 C1546 1.395 . S
C1544 C1547 1.403 . S
H1545 C1551 0.930 . S
C1546 H1532 0.930 . S
C1546 C1544 1.395 . S
C1546 C1549 1.403 . S
C1547 C1544 1.403 . S
C1547 C1548 1.524 . S
C1547 C1551 1.400 . S
C1548 H1533 0.960 . S
C1548 H1534 0.960 . S
C1548 H1535 0.960 . S
C1548 C1547 1.524 . S
C1549 C1546 1.403 . S
C1549 C1550 1.392 . S
C1549 C1553 1.495 . S
C1550 C1549 1.392 . S
C1550 C1551 1.385 . S
C1550 C1552 1.478 . S
C1551 H1545 0.930 . S
C1551 C1547 1.400 . S
C1551 C1550 1.385 . S
C1552 C1550 1.478 . S
C1552 C1554 1.381 . S
C1552 C1558 1.383 . S
C1553 C1549 1.495 . S
C1553 H1559 0.959 . S
C1553 H1560 0.961 . S
C1553 H1561 0.960 . S
C1554 C1552 1.381 . S
C1554 C1555 1.394 . S
C1554 H1562 0.930 . S
C1555 C1554 1.394 . S
C1555 C1556 1.383 . S
C1555 H1563 0.929 . S
C1556 C1555 1.383 . S
C1556 C1557 1.377 . S
C1557 H1541 0.930 . S
C1557 C1556 1.377 . S
C1557 C1558 1.379 . S
C1558 H1542 0.931 . S
C1558 C1552 1.383 . S
C1558 C1557 1.379 . S
H1559 C1553 0.959 . S
H1560 C1553 0.961 . S
H1561 C1553 0.960 . S
H1562 C1554 0.930 . S
H1563 C1555 0.929 . S
H1564 C1572 0.929 . S
H1565 C1574 0.930 . S
H1566 C1576 0.930 . S
H1567 C1579 0.929 . S
H1568 C1582 0.930 . S
H1569 C1584 0.960 . S
H1570 C1584 0.960 . S
H1571 C1584 0.960 . S
C1572 H1564 0.929 . S
C1572 C1573 1.377 . S
C1572 C1574 1.384 . S
C1573 C1572 1.377 . S
C1573 C1579 1.390 . S
C1574 H1565 0.930 . S
C1574 C1572 1.384 . S
C1574 C1575 1.372 . S
C1575 C1574 1.372 . S
C1575 C1576 1.400 . S
C1575 C1580 1.490 . S
C1576 H1566 0.930 . S
C1576 C1575 1.400 . S
C1576 C1579 1.386 . S
H1577 C1593 0.930 . S
H1578 C1594 0.931 1_455 S
C1579 H1567 0.929 . S
C1579 C1573 1.390 . S
C1579 C1576 1.386 . S
C1580 C1575 1.490 . S
C1580 C1582 1.395 . S
C1580 C1583 1.403 . S
H1581 C1587 0.930 . S
C1582 H1568 0.930 . S
C1582 C1580 1.395 . S
C1582 C1585 1.403 . S
C1583 C1580 1.403 . S
C1583 C1584 1.524 . S
C1583 C1587 1.400 . S
C1584 H1569 0.960 . S
C1584 H1570 0.960 . S
C1584 H1571 0.960 . S
C1584 C1583 1.524 . S
C1585 C1582 1.403 . S
C1585 C1586 1.392 . S
C1585 C1589 1.495 . S
C1586 C1585 1.392 . S
C1586 C1587 1.385 . S
C1586 C1588 1.478 . S
C1587 H1581 0.930 . S
C1587 C1583 1.400 . S
C1587 C1586 1.385 . S
C1588 C1586 1.478 . S
C1588 C1590 1.381 1_455 S
C1588 C1594 1.383 1_455 S
C1589 C1585 1.495 . S
C1589 H1595 0.959 . S
C1589 H1596 0.937 1_455 S
C1589 H1597 0.960 1_455 S
C1590 C1588 1.381 1_655 S
C1590 C1591 1.394 . S
C1590 H1598 0.930 . S
C1591 C1590 1.394 . S
C1591 C1592 1.383 . S
C1591 H1599 0.929 . S
C1592 C1591 1.383 . S
C1592 C1593 1.377 . S
C1593 H1577 0.930 . S
C1593 C1592 1.377 . S
C1593 C1594 1.379 . S
C1594 H1578 0.931 1_655 S
C1594 C1588 1.383 1_655 S
C1594 C1593 1.379 . S
H1595 C1589 0.959 . S
H1596 C1589 0.937 1_655 S
H1597 C1589 0.960 1_655 S
H1598 C1590 0.930 . S
H1599 C1591 0.929 . S
H1600 C1608 0.929 . S
H1601 C1610 0.930 . S
H1602 C1612 0.930 . S
H1603 C1615 0.929 . S
H1604 C1618 0.930 . S
H1605 C1620 0.960 . S
H1606 C1620 0.960 . S
H1607 C1620 0.960 . S
C1608 H1600 0.929 . S
C1608 C1609 1.377 . S
C1608 C1610 1.384 . S
C1609 C1608 1.377 . S
C1609 C1615 1.390 . S
C1610 H1601 0.930 . S
C1610 C1608 1.384 . S
C1610 C1611 1.372 . S
C1611 C1610 1.372 . S
C1611 C1612 1.400 . S
C1611 C1616 1.490 . S
C1612 H1602 0.930 . S
C1612 C1611 1.400 . S
C1612 C1615 1.386 . S
H1613 C1629 0.930 . S
H1614 C1630 0.931 . S
C1615 H1603 0.929 . S
C1615 C1609 1.390 . S
C1615 C1612 1.386 . S
C1616 C1611 1.490 . S
C1616 C1618 1.395 . S
C1616 C1619 1.403 . S
H1617 C1623 0.930 . S
C1618 H1604 0.930 . S
C1618 C1616 1.395 . S
C1618 C1621 1.403 . S
C1619 C1616 1.403 . S
C1619 C1620 1.524 . S
C1619 C1623 1.400 . S
C1620 H1605 0.960 . S
C1620 H1606 0.960 . S
C1620 H1607 0.960 . S
C1620 C1619 1.524 . S
C1621 C1618 1.403 . S
C1621 C1622 1.392 . S
C1621 C1625 1.495 . S
C1622 C1621 1.392 . S
C1622 C1623 1.385 . S
C1622 C1624 1.478 . S
C1623 H1617 0.930 . S
C1623 C1619 1.400 . S
C1623 C1622 1.385 . S
C1624 C1622 1.478 . S
C1624 C1626 1.381 . S
C1624 C1630 1.383 . S
C1625 C1621 1.495 . S
C1625 H1631 0.959 . S
C1625 H1632 0.961 . S
C1625 H1633 0.960 . S
C1626 C1624 1.381 . S
C1626 C1627 1.394 . S
C1626 H1634 0.930 . S
C1627 C1626 1.394 . S
C1627 C1628 1.383 . S
C1627 H1635 0.929 . S
C1628 C1627 1.383 . S
C1628 C1629 1.377 . S
C1629 H1613 0.930 . S
C1629 C1628 1.377 . S
C1629 C1630 1.379 . S
C1630 H1614 0.931 . S
C1630 C1624 1.383 . S
C1630 C1629 1.379 . S
H1631 C1625 0.959 . S
H1632 C1625 0.961 . S
H1633 C1625 0.960 . S
H1634 C1626 0.930 . S
H1635 C1627 0.929 . S
H1636 C1644 0.929 . S
H1637 C1646 0.930 . S
H1638 C1648 0.930 . S
H1639 C1651 0.929 . S
H1640 C1654 0.930 . S
H1641 C1656 0.960 . S
H1642 C1656 0.960 . S
H1643 C1656 0.960 . S
C1644 H1636 0.929 . S
C1644 C1645 1.377 . S
C1644 C1646 1.384 . S
C1645 C1644 1.377 . S
C1645 C1651 1.390 . S
C1646 H1637 0.930 . S
C1646 C1644 1.384 . S
C1646 C1647 1.372 . S
C1647 C1646 1.372 . S
C1647 C1648 1.400 . S
C1647 C1652 1.490 . S
C1648 H1638 0.930 . S
C1648 C1647 1.400 . S
C1648 C1651 1.386 . S
H1649 C1665 0.930 . S
H1650 C1666 0.931 . S
C1651 H1639 0.929 . S
C1651 C1645 1.390 . S
C1651 C1648 1.386 . S
C1652 C1647 1.490 . S
C1652 C1654 1.395 . S
C1652 C1655 1.403 . S
H1653 C1659 0.930 . S
C1654 H1640 0.930 . S
C1654 C1652 1.395 . S
C1654 C1657 1.403 . S
C1655 C1652 1.403 . S
C1655 C1656 1.524 . S
C1655 C1659 1.400 . S
C1656 H1641 0.960 . S
C1656 H1642 0.960 . S
C1656 H1643 0.960 . S
C1656 C1655 1.524 . S
C1657 C1654 1.403 . S
C1657 C1658 1.392 . S
C1657 C1661 1.495 . S
C1658 C1657 1.392 . S
C1658 C1659 1.385 . S
C1658 C1660 1.478 . S
C1659 H1653 0.930 . S
C1659 C1655 1.400 . S
C1659 C1658 1.385 . S
C1660 C1658 1.478 . S
C1660 C1662 1.381 . S
C1660 C1666 1.383 . S
C1661 C1657 1.495 . S
C1661 H1667 0.959 . S
C1661 H1668 0.961 . S
C1661 H1669 0.960 . S
C1662 C1660 1.381 . S
C1662 C1663 1.394 . S
C1662 H1670 0.930 . S
C1663 C1662 1.394 . S
C1663 C1664 1.383 . S
C1663 H1671 0.929 . S
C1664 C1663 1.383 . S
C1664 C1665 1.377 . S
C1665 H1649 0.930 . S
C1665 C1664 1.377 . S
C1665 C1666 1.379 . S
C1666 H1650 0.931 . S
C1666 C1660 1.383 . S
C1666 C1665 1.379 . S
H1667 C1661 0.959 . S
H1668 C1661 0.961 . S
H1669 C1661 0.960 . S
H1670 C1662 0.930 . S
H1671 C1663 0.929 . S
H1672 C1680 0.929 . S
H1673 C1682 0.930 . S
H1674 C1684 0.930 . S
H1675 C1687 0.929 . S
H1676 C1690 0.930 . S
H1677 C1692 0.960 . S
H1678 C1692 0.960 . S
H1679 C1692 0.960 . S
C1680 H1672 0.929 . S
C1680 C1681 1.377 . S
C1680 C1682 1.384 . S
C1681 C1680 1.377 . S
C1681 C1687 1.390 . S
C1682 H1673 0.930 . S
C1682 C1680 1.384 . S
C1682 C1683 1.372 . S
C1683 C1682 1.372 . S
C1683 C1684 1.400 . S
C1683 C1688 1.490 . S
C1684 H1674 0.930 . S
C1684 C1683 1.400 . S
C1684 C1687 1.386 . S
H1685 C1701 0.930 . S
H1686 C1702 0.931 . S
C1687 H1675 0.929 . S
C1687 C1681 1.390 . S
C1687 C1684 1.386 . S
C1688 C1683 1.490 . S
C1688 C1690 1.395 . S
C1688 C1691 1.403 . S
H1689 C1695 0.930 . S
C1690 H1676 0.930 . S
C1690 C1688 1.395 . S
C1690 C1693 1.403 . S
C1691 C1688 1.403 . S
C1691 C1692 1.524 . S
C1691 C1695 1.400 . S
C1692 H1677 0.960 . S
C1692 H1678 0.960 . S
C1692 H1679 0.960 . S
C1692 C1691 1.524 . S
C1693 C1690 1.403 . S
C1693 C1694 1.392 . S
C1693 C1697 1.495 . S
C1694 C1693 1.392 . S
C1694 C1695 1.385 . S
C1694 C1696 1.478 . S
C1695 H1689 0.930 . S
C1695 C1691 1.400 . S
C1695 C1694 1.385 . S
C1696 C1694 1.478 . S
C1696 C1698 1.381 . S
C1696 C1702 1.383 . S
C1697 C1693 1.495 . S
C1697 H1703 0.959 . S
C1697 H1704 0.961 . S
C1697 H1705 0.960 . S
C1698 C1696 1.381 . S
C1698 C1699 1.394 . S
C1698 H1706 0.930 . S
C1699 C1698 1.394 . S
C1699 C1700 1.383 . S
C1699 H1707 0.929 . S
C1700 C1699 1.383 . S
C1700 C1701 1.377 . S
C1701 H1685 0.930 . S
C1701 C1700 1.377 . S
C1701 C1702 1.379 . S
C1702 H1686 0.931 . S
C1702 C1696 1.383 . S
C1702 C1701 1.379 . S
H1703 C1697 0.959 . S
H1704 C1697 0.961 . S
H1705 C1697 0.960 . S
H1706 C1698 0.930 . S
H1707 C1699 0.929 . S
H1708 C1716 0.929 . S
H1709 C1718 0.930 . S
H1710 C1720 0.930 . S
H1711 C1723 0.929 . S
H1712 C1726 0.930 . S
H1713 C1728 0.960 . S
H1714 C1728 0.960 . S
H1715 C1728 0.960 . S
C1716 H1708 0.929 . S
C1716 C1717 1.377 . S
C1716 C1718 1.384 . S
C1717 C1716 1.377 . S
C1717 C1723 1.390 . S
C1718 H1709 0.930 . S
C1718 C1716 1.384 . S
C1718 C1719 1.372 . S
C1719 C1718 1.372 . S
C1719 C1720 1.400 . S
C1719 C1724 1.490 . S
C1720 H1710 0.930 . S
C1720 C1719 1.400 . S
C1720 C1723 1.386 . S
H1721 C1737 0.930 . S
H1722 C1738 0.931 . S
C1723 H1711 0.929 . S
C1723 C1717 1.390 . S
C1723 C1720 1.386 . S
C1724 C1719 1.490 . S
C1724 C1726 1.395 . S
C1724 C1727 1.403 . S
H1725 C1731 0.930 . S
C1726 H1712 0.930 . S
C1726 C1724 1.395 . S
C1726 C1729 1.403 . S
C1727 C1724 1.403 . S
C1727 C1728 1.524 . S
C1727 C1731 1.400 . S
C1728 H1713 0.960 . S
C1728 H1714 0.960 . S
C1728 H1715 0.960 . S
C1728 C1727 1.524 . S
C1729 C1726 1.403 . S
C1729 C1730 1.392 . S
C1729 C1733 1.495 . S
C1730 C1729 1.392 . S
C1730 C1731 1.385 . S
C1730 C1732 1.478 . S
C1731 H1725 0.930 . S
C1731 C1727 1.400 . S
C1731 C1730 1.385 . S
C1732 C1730 1.478 . S
C1732 C1734 1.381 1_455 S
C1732 C1738 1.383 . S
C1733 C1729 1.495 . S
C1733 H1739 0.959 . S
C1733 H1740 0.961 . S
C1733 H1741 0.960 . S
C1734 C1732 1.381 1_655 S
C1734 C1735 1.394 . S
C1734 H1742 0.930 . S
C1735 C1734 1.394 . S
C1735 C1736 1.383 . S
C1735 H1743 0.929 . S
C1736 C1735 1.383 . S
C1736 C1737 1.377 . S
C1737 H1721 0.930 . S
C1737 C1736 1.377 . S
C1737 C1738 1.379 1_655 S
C1738 H1722 0.931 . S
C1738 C1732 1.383 . S
C1738 C1737 1.379 1_455 S
H1739 C1733 0.959 . S
H1740 C1733 0.961 . S
H1741 C1733 0.960 . S
H1742 C1734 0.930 . S
H1743 C1735 0.929 . S
H1744 C1752 0.929 . S
H1745 C1754 0.930 . S
H1746 C1756 0.930 . S
H1747 C1759 0.929 . S
H1748 C1762 0.930 . S
H1749 C1764 0.960 . S
H1750 C1764 0.960 . S
H1751 C1764 0.960 . S
C1752 H1744 0.929 . S
C1752 C1753 1.377 . S
C1752 C1754 1.384 . S
C1753 C1752 1.377 . S
C1753 C1759 1.390 . S
C1754 H1745 0.930 . S
C1754 C1752 1.384 . S
C1754 C1755 1.372 . S
C1755 C1754 1.372 . S
C1755 C1756 1.400 . S
C1755 C1760 1.490 . S
C1756 H1746 0.930 . S
C1756 C1755 1.400 . S
C1756 C1759 1.386 . S
H1757 C1773 0.930 . S
H1758 C1774 0.931 . S
C1759 H1747 0.929 . S
C1759 C1753 1.390 . S
C1759 C1756 1.386 . S
C1760 C1755 1.490 . S
C1760 C1762 1.395 . S
C1760 C1763 1.403 . S
H1761 C1767 0.930 . S
C1762 H1748 0.930 . S
C1762 C1760 1.395 . S
C1762 C1765 1.403 . S
C1763 C1760 1.403 . S
C1763 C1764 1.524 . S
C1763 C1767 1.400 . S
C1764 H1749 0.960 . S
C1764 H1750 0.960 . S
C1764 H1751 0.960 . S
C1764 C1763 1.524 . S
C1765 C1762 1.403 . S
C1765 C1766 1.392 . S
C1765 C1769 1.495 . S
C1766 C1765 1.392 . S
C1766 C1767 1.385 . S
C1766 C1768 1.478 . S
C1767 H1761 0.930 . S
C1767 C1763 1.400 . S
C1767 C1766 1.385 . S
C1768 C1766 1.478 . S
C1768 C1770 1.381 . S
C1768 C1774 1.383 . S
C1769 C1765 1.495 . S
C1769 H1775 0.959 . S
C1769 H1776 0.961 . S
C1769 H1777 0.960 . S
C1770 C1768 1.381 . S
C1770 C1771 1.394 . S
C1770 H1778 0.930 . S
C1771 C1770 1.394 . S
C1771 C1772 1.383 . S
C1771 H1779 0.929 . S
C1772 C1771 1.383 . S
C1772 C1773 1.377 . S
C1773 H1757 0.930 . S
C1773 C1772 1.377 . S
C1773 C1774 1.379 . S
C1774 H1758 0.931 . S
C1774 C1768 1.383 . S
C1774 C1773 1.379 . S
H1775 C1769 0.959 . S
H1776 C1769 0.961 . S
H1777 C1769 0.960 . S
H1778 C1770 0.930 . S
H1779 C1771 0.929 . S
H1780 C1788 0.929 . S
H1781 C1790 0.930 . S
H1782 C1792 0.930 . S
H1783 C1795 0.929 . S
H1784 C1798 0.930 . S
H1785 C1800 0.960 . S
H1786 C1800 0.960 . S
H1787 C1800 0.960 . S
C1788 H1780 0.929 . S
C1788 C1789 1.377 . S
C1788 C1790 1.384 . S
C1789 C1788 1.377 . S
C1789 C1795 1.390 . S
C1790 H1781 0.930 . S
C1790 C1788 1.384 . S
C1790 C1791 1.372 1_655 S
C1791 C1790 1.372 1_455 S
C1791 C1792 1.400 . S
C1791 C1796 1.490 . S
C1792 H1782 0.930 . S
C1792 C1791 1.400 . S
C1792 C1795 1.386 1_455 S
H1793 C1809 0.930 . S
H1794 C1810 0.931 . S
C1795 H1783 0.929 . S
C1795 C1789 1.390 . S
C1795 C1792 1.386 1_655 S
C1796 C1791 1.490 . S
C1796 C1798 1.395 . S
C1796 C1799 1.403 . S
H1797 C1803 0.930 . S
C1798 H1784 0.930 . S
C1798 C1796 1.395 . S
C1798 C1801 1.403 . S
C1799 C1796 1.403 . S
C1799 C1800 1.524 . S
C1799 C1803 1.400 . S
C1800 H1785 0.960 . S
C1800 H1786 0.960 . S
C1800 H1787 0.960 . S
C1800 C1799 1.524 . S
C1801 C1798 1.403 . S
C1801 C1802 1.392 . S
C1801 C1805 1.495 . S
C1802 C1801 1.392 . S
C1802 C1803 1.385 . S
C1802 C1804 1.478 . S
C1803 H1797 0.930 . S
C1803 C1799 1.400 . S
C1803 C1802 1.385 . S
C1804 C1802 1.478 . S
C1804 C1806 1.381 . S
C1804 C1810 1.383 . S
C1805 C1801 1.495 . S
C1805 H1811 0.959 . S
C1805 H1812 0.961 . S
C1805 H1813 0.960 . S
C1806 C1804 1.381 . S
C1806 C1807 1.394 . S
C1806 H1814 0.930 . S
C1807 C1806 1.394 . S
C1807 C1808 1.383 . S
C1807 H1815 0.929 . S
C1808 C1807 1.383 . S
C1808 C1809 1.377 . S
C1809 H1793 0.930 . S
C1809 C1808 1.377 . S
C1809 C1810 1.379 . S
C1810 H1794 0.931 . S
C1810 C1804 1.383 . S
C1810 C1809 1.379 . S
H1811 C1805 0.959 . S
H1812 C1805 0.961 . S
H1813 C1805 0.960 . S
H1814 C1806 0.930 . S
H1815 C1807 0.929 . S
H1816 C1824 0.929 . S
H1817 C1826 0.930 . S
H1818 C1828 0.930 . S
H1819 C1831 0.929 . S
H1820 C1834 0.930 . S
H1821 C1836 0.960 . S
H1822 C1836 0.960 . S
H1823 C1836 0.960 . S
C1824 H1816 0.929 . S
C1824 C1825 1.377 . S
C1824 C1826 1.384 . S
C1825 C1824 1.377 . S
C1825 C1831 1.390 . S
C1826 H1817 0.930 . S
C1826 C1824 1.384 . S
C1826 C1827 1.372 . S
C1827 C1826 1.372 . S
C1827 C1828 1.400 . S
C1827 C1832 1.490 . S
C1828 H1818 0.930 . S
C1828 C1827 1.400 . S
C1828 C1831 1.386 . S
H1829 C1845 0.930 . S
H1830 C1846 0.931 . S
C1831 H1819 0.929 . S
C1831 C1825 1.390 . S
C1831 C1828 1.386 . S
C1832 C1827 1.490 . S
C1832 C1834 1.395 . S
C1832 C1835 1.403 . S
H1833 C1839 0.930 . S
C1834 H1820 0.930 . S
C1834 C1832 1.395 . S
C1834 C1837 1.403 . S
C1835 C1832 1.403 . S
C1835 C1836 1.524 . S
C1835 C1839 1.400 . S
C1836 H1821 0.960 . S
C1836 H1822 0.960 . S
C1836 H1823 0.960 . S
C1836 C1835 1.524 . S
C1837 C1834 1.403 . S
C1837 C1838 1.392 . S
C1837 C1841 1.495 . S
C1838 C1837 1.392 . S
C1838 C1839 1.385 . S
C1838 C1840 1.478 . S
C1839 H1833 0.930 . S
C1839 C1835 1.400 . S
C1839 C1838 1.385 . S
C1840 C1838 1.478 . S
C1840 C1842 1.381 . S
C1840 C1846 1.383 . S
C1841 C1837 1.495 . S
C1841 H1847 0.959 . S
C1841 H1848 0.961 . S
C1841 H1849 0.960 . S
C1842 C1840 1.381 . S
C1842 C1843 1.394 . S
C1842 H1850 0.930 . S
C1843 C1842 1.394 . S
C1843 C1844 1.383 . S
C1843 H1851 0.929 . S
C1844 C1843 1.383 . S
C1844 C1845 1.377 . S
C1845 H1829 0.930 . S
C1845 C1844 1.377 . S
C1845 C1846 1.379 . S
C1846 H1830 0.931 . S
C1846 C1840 1.383 . S
C1846 C1845 1.379 . S
H1847 C1841 0.959 . S
H1848 C1841 0.961 . S
H1849 C1841 0.960 . S
H1850 C1842 0.930 . S
H1851 C1843 0.929 . S
H1852 C1860 0.929 . S
H1853 C1862 0.930 . S
H1854 C1864 0.930 . S
H1855 C1867 0.929 . S
H1856 C1870 0.930 . S
H1857 C1872 0.960 . S
H1858 C1872 0.960 . S
H1859 C1872 0.960 . S
C1860 H1852 0.929 . S
C1860 C1861 1.377 . S
C1860 C1862 1.384 . S
C1861 C1860 1.377 . S
C1861 C1867 1.390 . S
C1862 H1853 0.930 . S
C1862 C1860 1.384 . S
C1862 C1863 1.372 . S
C1863 C1862 1.372 . S
C1863 C1864 1.400 . S
C1863 C1868 1.490 . S
C1864 H1854 0.930 . S
C1864 C1863 1.400 . S
C1864 C1867 1.386 . S
H1865 C1881 0.930 . S
H1866 C1882 0.931 . S
C1867 H1855 0.929 . S
C1867 C1861 1.390 . S
C1867 C1864 1.386 . S
C1868 C1863 1.490 . S
C1868 C1870 1.395 . S
C1868 C1871 1.403 . S
H1869 C1875 0.930 . S
C1870 H1856 0.930 . S
C1870 C1868 1.395 . S
C1870 C1873 1.403 . S
C1871 C1868 1.403 . S
C1871 C1872 1.524 . S
C1871 C1875 1.400 . S
C1872 H1857 0.960 . S
C1872 H1858 0.960 . S
C1872 H1859 0.960 . S
C1872 C1871 1.524 . S
C1873 C1870 1.403 . S
C1873 C1874 1.392 . S
C1873 C1877 1.495 . S
C1874 C1873 1.392 . S
C1874 C1875 1.385 . S
C1874 C1876 1.478 . S
C1875 H1869 0.930 . S
C1875 C1871 1.400 . S
C1875 C1874 1.385 . S
C1876 C1874 1.478 . S
C1876 C1878 1.381 . S
C1876 C1882 1.383 . S
C1877 C1873 1.495 . S
C1877 H1883 0.959 . S
C1877 H1884 0.961 . S
C1877 H1885 0.960 . S
C1878 C1876 1.381 . S
C1878 C1879 1.394 . S
C1878 H1886 0.930 . S
C1879 C1878 1.394 . S
C1879 C1880 1.383 . S
C1879 H1887 0.929 . S
C1880 C1879 1.383 . S
C1880 C1881 1.377 . S
C1881 H1865 0.930 . S
C1881 C1880 1.377 . S
C1881 C1882 1.379 . S
C1882 H1866 0.931 . S
C1882 C1876 1.383 . S
C1882 C1881 1.379 . S
H1883 C1877 0.959 . S
H1884 C1877 0.961 . S
H1885 C1877 0.960 . S
H1886 C1878 0.930 . S
H1887 C1879 0.929 . S
H1888 C1896 0.929 . S
H1889 C1898 0.930 . S
H1890 C1900 0.930 . S
H1891 C1903 0.929 . S
H1892 C1906 0.930 . S
H1893 C1908 0.960 . S
H1894 C1908 0.960 . S
H1895 C1908 0.960 . S
C1896 H1888 0.929 . S
C1896 C1897 1.377 . S
C1896 C1898 1.384 . S
C1897 C1896 1.377 . S
C1897 C1903 1.390 . S
C1898 H1889 0.930 . S
C1898 C1896 1.384 . S
C1898 C1899 1.372 . S
C1899 C1898 1.372 . S
C1899 C1900 1.400 . S
C1899 C1904 1.490 . S
C1900 H1890 0.930 . S
C1900 C1899 1.400 . S
C1900 C1903 1.386 . S
H1901 C1917 0.930 . S
H1902 C1918 0.931 . S
C1903 H1891 0.929 . S
C1903 C1897 1.390 . S
C1903 C1900 1.386 . S
C1904 C1899 1.490 . S
C1904 C1906 1.395 . S
C1904 C1907 1.403 . S
H1905 C1911 0.930 . S
C1906 H1892 0.930 . S
C1906 C1904 1.395 . S
C1906 C1909 1.403 . S
C1907 C1904 1.403 . S
C1907 C1908 1.524 . S
C1907 C1911 1.400 . S
C1908 H1893 0.960 . S
C1908 H1894 0.960 . S
C1908 H1895 0.960 . S
C1908 C1907 1.524 . S
C1909 C1906 1.403 . S
C1909 C1910 1.392 . S
C1909 C1913 1.495 . S
C1910 C1909 1.392 . S
C1910 C1911 1.385 . S
C1910 C1912 1.478 . S
C1911 H1905 0.930 . S
C1911 C1907 1.400 . S
C1911 C1910 1.385 . S
C1912 C1910 1.478 . S
C1912 C1914 1.381 . S
C1912 C1918 1.383 . S
C1913 C1909 1.495 . S
C1913 H1919 0.959 . S
C1913 H1920 0.961 . S
C1913 H1921 0.960 . S
C1914 C1912 1.381 . S
C1914 C1915 1.394 . S
C1914 H1922 0.930 . S
C1915 C1914 1.394 . S
C1915 C1916 1.383 . S
C1915 H1923 0.929 . S
C1916 C1915 1.383 . S
C1916 C1917 1.377 . S
C1917 H1901 0.930 . S
C1917 C1916 1.377 . S
C1917 C1918 1.379 . S
C1918 H1902 0.931 . S
C1918 C1912 1.383 . S
C1918 C1917 1.379 . S
H1919 C1913 0.959 . S
H1920 C1913 0.961 . S
H1921 C1913 0.960 . S
H1922 C1914 0.930 . S
H1923 C1915 0.929 . S
H1924 C1932 0.929 . S
H1925 C1934 0.930 . S
H1926 C1936 0.930 . S
H1927 C1939 0.929 . S
H1928 C1942 0.930 . S
H1929 C1944 0.960 . S
H1930 C1944 0.960 . S
H1931 C1944 0.960 . S
C1932 H1924 0.929 . S
C1932 C1933 1.377 . S
C1932 C1934 1.384 . S
C1933 C1932 1.377 . S
C1933 C1939 1.390 . S
C1934 H1925 0.930 . S
C1934 C1932 1.384 . S
C1934 C1935 1.372 . S
C1935 C1934 1.372 . S
C1935 C1936 1.400 . S
C1935 C1940 1.490 . S
C1936 H1926 0.930 . S
C1936 C1935 1.400 . S
C1936 C1939 1.386 . S
H1937 C1953 0.930 . S
H1938 C1954 0.931 . S
C1939 H1927 0.929 . S
C1939 C1933 1.390 . S
C1939 C1936 1.386 . S
C1940 C1935 1.490 . S
C1940 C1942 1.395 . S
C1940 C1943 1.403 . S
H1941 C1947 0.930 . S
C1942 H1928 0.930 . S
C1942 C1940 1.395 . S
C1942 C1945 1.403 . S
C1943 C1940 1.403 . S
C1943 C1944 1.524 . S
C1943 C1947 1.400 . S
C1944 H1929 0.960 . S
C1944 H1930 0.960 . S
C1944 H1931 0.960 . S
C1944 C1943 1.524 . S
C1945 C1942 1.403 . S
C1945 C1946 1.392 . S
C1945 C1949 1.495 . S
C1946 C1945 1.392 . S
C1946 C1947 1.385 . S
C1946 C1948 1.478 . S
C1947 H1941 0.930 . S
C1947 C1943 1.400 . S
C1947 C1946 1.385 . S
C1948 C1946 1.478 . S
C1948 C1950 1.381 . S
C1948 C1954 1.383 . S
C1949 C1945 1.495 . S
C1949 H1955 0.959 . S
C1949 H1956 0.961 . S
C1949 H1957 0.960 . S
C1950 C1948 1.381 . S
C1950 C1951 1.394 . S
C1950 H1958 0.930 . S
C1951 C1950 1.394 . S
C1951 C1952 1.383 . S
C1951 H1959 0.929 . S
C1952 C1951 1.383 . S
C1952 C1953 1.377 . S
C1953 H1937 0.930 . S
C1953 C1952 1.377 . S
C1953 C1954 1.379 . S
C1954 H1938 0.931 . S
C1954 C1948 1.383 . S
C1954 C1953 1.379 . S
H1955 C1949 0.959 . S
H1956 C1949 0.961 . S
H1957 C1949 0.960 . S
H1958 C1950 0.930 . S
H1959 C1951 0.929 . S
H1960 C1968 0.929 . S
H1961 C1970 0.930 . S
H1962 C1972 0.930 . S
H1963 C1975 0.929 . S
H1964 C1978 0.930 . S
H1965 C1980 0.960 . S
H1966 C1980 0.960 . S
H1967 C1980 0.960 . S
C1968 H1960 0.929 . S
C1968 C1969 1.377 . S
C1968 C1970 1.384 . S
C1969 C1968 1.377 . S
C1969 C1975 1.390 . S
C1970 H1961 0.930 . S
C1970 C1968 1.384 . S
C1970 C1971 1.372 . S
C1971 C1970 1.372 . S
C1971 C1972 1.400 . S
C1971 C1976 1.490 . S
C1972 H1962 0.930 . S
C1972 C1971 1.400 . S
C1972 C1975 1.386 . S
H1973 C1989 0.930 . S
H1974 C1990 0.931 . S
C1975 H1963 0.929 . S
C1975 C1969 1.390 . S
C1975 C1972 1.386 . S
C1976 C1971 1.490 . S
C1976 C1978 1.395 . S
C1976 C1979 1.403 . S
H1977 C1983 0.930 . S
C1978 H1964 0.930 . S
C1978 C1976 1.395 . S
C1978 C1981 1.403 . S
C1979 C1976 1.403 . S
C1979 C1980 1.524 . S
C1979 C1983 1.400 . S
C1980 H1965 0.960 . S
C1980 H1966 0.960 . S
C1980 H1967 0.960 . S
C1980 C1979 1.524 . S
C1981 C1978 1.403 . S
C1981 C1982 1.392 . S
C1981 C1985 1.495 . S
C1982 C1981 1.392 . S
C1982 C1983 1.385 . S
C1982 C1984 1.478 . S
C1983 H1977 0.930 . S
C1983 C1979 1.400 . S
C1983 C1982 1.385 . S
C1984 C1982 1.478 . S
C1984 C1986 1.381 . S
C1984 C1990 1.383 . S
C1985 C1981 1.495 . S
C1985 H1991 0.959 . S
C1985 H1992 0.961 . S
C1985 H1993 0.960 . S
C1986 C1984 1.381 . S
C1986 C1987 1.394 . S
C1986 H1994 0.930 . S
C1987 C1986 1.394 . S
C1987 C1988 1.383 . S
C1987 H1995 0.929 . S
C1988 C1987 1.383 . S
C1988 C1989 1.377 . S
C1989 H1973 0.930 . S
C1989 C1988 1.377 . S
C1989 C1990 1.379 . S
C1990 H1974 0.931 . S
C1990 C1984 1.383 . S
C1990 C1989 1.379 . S
H1991 C1985 0.959 . S
H1992 C1985 0.961 . S
H1993 C1985 0.960 . S
H1994 C1986 0.930 . S
H1995 C1987 0.929 . S
H1996 C2004 0.929 . S
H1997 C2006 0.930 . S
H1998 C2008 0.930 . S
H1999 C2011 0.929 . S
H2000 C2014 0.930 . S
H2001 C2016 0.960 . S
H2002 C2016 0.960 . S
H2003 C2016 0.960 . S
C2004 H1996 0.929 . S
C2004 C2005 1.377 . S
C2004 C2006 1.384 . S
C2005 C2004 1.377 . S
C2005 C2011 1.390 . S
C2006 H1997 0.930 . S
C2006 C2004 1.384 . S
C2006 C2007 1.372 . S
C2007 C2006 1.372 . S
C2007 C2008 1.400 . S
C2007 C2012 1.490 . S
C2008 H1998 0.930 . S
C2008 C2007 1.400 . S
C2008 C2011 1.386 . S
H2009 C2025 0.930 . S
H2010 C2026 0.931 . S
C2011 H1999 0.929 . S
C2011 C2005 1.390 . S
C2011 C2008 1.386 . S
C2012 C2007 1.490 . S
C2012 C2014 1.395 . S
C2012 C2015 1.403 . S
H2013 C2019 0.930 . S
C2014 H2000 0.930 . S
C2014 C2012 1.395 . S
C2014 C2017 1.403 . S
C2015 C2012 1.403 . S
C2015 C2016 1.524 . S
C2015 C2019 1.400 . S
C2016 H2001 0.960 . S
C2016 H2002 0.960 . S
C2016 H2003 0.960 . S
C2016 C2015 1.524 . S
C2017 C2014 1.403 . S
C2017 C2018 1.392 . S
C2017 C2021 1.495 . S
C2018 C2017 1.392 . S
C2018 C2019 1.385 . S
C2018 C2020 1.478 . S
C2019 H2013 0.930 . S
C2019 C2015 1.400 . S
C2019 C2018 1.385 . S
C2020 C2018 1.478 . S
C2020 C2022 1.381 1_655 S
C2020 C2026 1.383 1_655 S
C2021 C2017 1.495 . S
C2021 H2027 0.959 . S
C2021 H2028 0.987 . S
C2021 H2029 0.960 . S
C2022 C2020 1.381 1_455 S
C2022 C2023 1.394 . S
C2022 H2030 0.930 1_455 S
C2023 C2022 1.394 . S
C2023 C2024 1.383 . S
C2023 H2031 0.929 . S
C2024 C2023 1.383 . S
C2024 C2025 1.377 . S
C2025 H2009 0.930 . S
C2025 C2024 1.377 . S
C2025 C2026 1.379 . S
C2026 H2010 0.931 . S
C2026 C2020 1.383 1_455 S
C2026 C2025 1.379 . S
H2027 C2021 0.959 . S
H2028 C2021 0.987 . S
H2029 C2021 0.960 . S
H2030 C2022 0.930 1_655 S
H2031 C2023 0.929 . S
H2032 C2040 0.929 . S
H2033 C2042 0.930 . S
H2034 C2044 0.930 . S
H2035 C2047 0.929 . S
H2036 C2050 0.930 . S
H2037 C2052 0.960 . S
H2038 C2052 0.960 . S
H2039 C2052 0.960 . S
C2040 H2032 0.929 . S
C2040 C2041 1.377 . S
C2040 C2042 1.384 . S
C2041 C2040 1.377 . S
C2041 C2047 1.390 . S
C2042 H2033 0.930 . S
C2042 C2040 1.384 . S
C2042 C2043 1.372 . S
C2043 C2042 1.372 . S
C2043 C2044 1.400 . S
C2043 C2048 1.490 . S
C2044 H2034 0.930 . S
C2044 C2043 1.400 . S
C2044 C2047 1.386 . S
H2045 C2061 0.930 . S
H2046 C2062 0.931 . S
C2047 H2035 0.929 . S
C2047 C2041 1.390 . S
C2047 C2044 1.386 . S
C2048 C2043 1.490 . S
C2048 C2050 1.395 . S
C2048 C2051 1.403 . S
H2049 C2055 0.930 . S
C2050 H2036 0.930 . S
C2050 C2048 1.395 . S
C2050 C2053 1.403 . S
C2051 C2048 1.403 . S
C2051 C2052 1.524 . S
C2051 C2055 1.400 . S
C2052 H2037 0.960 . S
C2052 H2038 0.960 . S
C2052 H2039 0.960 . S
C2052 C2051 1.524 . S
C2053 C2050 1.403 . S
C2053 C2054 1.392 . S
C2053 C2057 1.495 . S
C2054 C2053 1.392 . S
C2054 C2055 1.385 . S
C2054 C2056 1.478 . S
C2055 H2049 0.930 . S
C2055 C2051 1.400 . S
C2055 C2054 1.385 . S
C2056 C2054 1.478 . S
C2056 C2058 1.381 . S
C2056 C2062 1.383 . S
C2057 C2053 1.495 . S
C2057 H2063 0.959 . S
C2057 H2064 0.961 . S
C2057 H2065 0.960 . S
C2058 C2056 1.381 . S
C2058 C2059 1.394 . S
C2058 H2066 0.930 . S
C2059 C2058 1.394 . S
C2059 C2060 1.383 . S
C2059 H2067 0.929 . S
C2060 C2059 1.383 . S
C2060 C2061 1.377 . S
C2061 H2045 0.930 . S
C2061 C2060 1.377 . S
C2061 C2062 1.379 . S
C2062 H2046 0.931 . S
C2062 C2056 1.383 . S
C2062 C2061 1.379 . S
H2063 C2057 0.959 . S
H2064 C2057 0.961 . S
H2065 C2057 0.960 . S
H2066 C2058 0.930 . S
H2067 C2059 0.929 . S
H2068 C2076 0.929 . S
H2069 C2078 0.930 . S
H2070 C2080 0.930 . S
H2071 C2083 0.929 . S
H2072 C2086 0.930 . S
H2073 C2088 0.960 . S
H2074 C2088 0.960 . S
H2075 C2088 0.960 . S
C2076 H2068 0.929 . S
C2076 C2077 1.377 . S
C2076 C2078 1.384 . S
C2077 C2076 1.377 . S
C2077 C2083 1.390 . S
C2078 H2069 0.930 . S
C2078 C2076 1.384 . S
C2078 C2079 1.372 1_455 S
C2079 C2078 1.372 1_655 S
C2079 C2080 1.400 . S
C2079 C2084 1.490 . S
C2080 H2070 0.930 . S
C2080 C2079 1.400 . S
C2080 C2083 1.386 1_655 S
H2081 C2097 0.930 . S
H2082 C2098 0.931 . S
C2083 H2071 0.929 . S
C2083 C2077 1.390 . S
C2083 C2080 1.386 1_455 S
C2084 C2079 1.490 . S
C2084 C2086 1.395 . S
C2084 C2087 1.403 . S
H2085 C2091 0.930 . S
C2086 H2072 0.930 . S
C2086 C2084 1.395 . S
C2086 C2089 1.403 . S
C2087 C2084 1.403 . S
C2087 C2088 1.524 . S
C2087 C2091 1.400 . S
C2088 H2073 0.960 . S
C2088 H2074 0.960 . S
C2088 H2075 0.960 . S
C2088 C2087 1.524 . S
C2089 C2086 1.403 . S
C2089 C2090 1.392 . S
C2089 C2093 1.495 . S
C2090 C2089 1.392 . S
C2090 C2091 1.385 . S
C2090 C2092 1.478 . S
C2091 H2085 0.930 . S
C2091 C2087 1.400 . S
C2091 C2090 1.385 . S
C2092 C2090 1.478 . S
C2092 C2094 1.381 . S
C2092 C2098 1.383 . S
C2093 C2089 1.495 . S
C2093 H2099 0.959 . S
C2093 H2100 0.961 . S
C2093 H2101 0.960 . S
C2094 C2092 1.381 . S
C2094 C2095 1.394 . S
C2094 H2102 0.930 . S
C2095 C2094 1.394 . S
C2095 C2096 1.383 . S
C2095 H2103 0.929 . S
C2096 C2095 1.383 . S
C2096 C2097 1.377 . S
C2097 H2081 0.930 . S
C2097 C2096 1.377 . S
C2097 C2098 1.379 . S
C2098 H2082 0.931 . S
C2098 C2092 1.383 . S
C2098 C2097 1.379 . S
H2099 C2093 0.959 . S
H2100 C2093 0.961 . S
H2101 C2093 0.960 . S
H2102 C2094 0.930 . S
H2103 C2095 0.929 . S
H2104 C2112 0.929 . S
H2105 C2114 0.930 . S
H2106 C2116 0.930 . S
H2107 C2119 0.929 . S
H2108 C2122 0.930 . S
H2109 C2124 0.960 . S
H2110 C2124 0.960 . S
H2111 C2124 0.960 . S
C2112 H2104 0.929 . S
C2112 C2113 1.377 . S
C2112 C2114 1.384 . S
C2113 C2112 1.377 . S
C2113 C2119 1.390 . S
C2114 H2105 0.930 . S
C2114 C2112 1.384 . S
C2114 C2115 1.372 . S
C2115 C2114 1.372 . S
C2115 C2116 1.400 . S
C2115 C2120 1.490 . S
C2116 H2106 0.930 . S
C2116 C2115 1.400 . S
C2116 C2119 1.386 . S
H2117 C2133 0.930 . S
H2118 C2134 0.931 . S
C2119 H2107 0.929 . S
C2119 C2113 1.390 . S
C2119 C2116 1.386 . S
C2120 C2115 1.490 . S
C2120 C2122 1.395 . S
C2120 C2123 1.403 . S
H2121 C2127 0.930 . S
C2122 H2108 0.930 . S
C2122 C2120 1.395 . S
C2122 C2125 1.403 . S
C2123 C2120 1.403 . S
C2123 C2124 1.524 . S
C2123 C2127 1.400 . S
C2124 H2109 0.960 . S
C2124 H2110 0.960 . S
C2124 H2111 0.960 . S
C2124 C2123 1.524 . S
C2125 C2122 1.403 . S
C2125 C2126 1.392 . S
C2125 C2129 1.495 . S
C2126 C2125 1.392 . S
C2126 C2127 1.385 . S
C2126 C2128 1.478 . S
C2127 H2121 0.930 . S
C2127 C2123 1.400 . S
C2127 C2126 1.385 . S
C2128 C2126 1.478 . S
C2128 C2130 1.381 . S
C2128 C2134 1.383 . S
C2129 C2125 1.495 . S
C2129 H2135 0.959 . S
C2129 H2136 0.961 . S
C2129 H2137 0.960 . S
C2130 C2128 1.381 . S
C2130 C2131 1.394 . S
C2130 H2138 0.930 . S
C2131 C2130 1.394 . S
C2131 C2132 1.383 . S
C2131 H2139 0.929 . S
C2132 C2131 1.383 . S
C2132 C2133 1.377 . S
C2133 H2117 0.930 . S
C2133 C2132 1.377 . S
C2133 C2134 1.379 . S
C2134 H2118 0.931 . S
C2134 C2128 1.383 . S
C2134 C2133 1.379 . S
H2135 C2129 0.959 . S
H2136 C2129 0.961 . S
H2137 C2129 0.960 . S
H2138 C2130 0.930 . S
H2139 C2131 0.929 . S
H2140 C2148 0.929 . S
H2141 C2150 0.930 . S
H2142 C2152 0.930 . S
H2143 C2155 0.929 . S
H2144 C2158 0.930 . S
H2145 C2160 0.960 . S
H2146 C2160 0.960 . S
H2147 C2160 0.960 . S
C2148 H2140 0.929 . S
C2148 C2149 1.377 . S
C2148 C2150 1.384 . S
C2149 C2148 1.377 . S
C2149 C2155 1.390 . S
C2150 H2141 0.930 . S
C2150 C2148 1.384 . S
C2150 C2151 1.372 . S
C2151 C2150 1.372 . S
C2151 C2152 1.400 . S
C2151 C2156 1.490 . S
C2152 H2142 0.930 . S
C2152 C2151 1.400 . S
C2152 C2155 1.386 . S
H2153 C2169 0.930 . S
H2154 C2170 0.931 . S
C2155 H2143 0.929 . S
C2155 C2149 1.390 . S
C2155 C2152 1.386 . S
C2156 C2151 1.490 . S
C2156 C2158 1.395 . S
C2156 C2159 1.403 . S
H2157 C2163 0.930 . S
C2158 H2144 0.930 . S
C2158 C2156 1.395 . S
C2158 C2161 1.403 . S
C2159 C2156 1.403 . S
C2159 C2160 1.524 . S
C2159 C2163 1.400 . S
C2160 H2145 0.960 . S
C2160 H2146 0.960 . S
C2160 H2147 0.960 . S
C2160 C2159 1.524 . S
C2161 C2158 1.403 . S
C2161 C2162 1.392 . S
C2161 C2165 1.495 . S
C2162 C2161 1.392 . S
C2162 C2163 1.385 . S
C2162 C2164 1.478 . S
C2163 H2157 0.930 . S
C2163 C2159 1.400 . S
C2163 C2162 1.385 . S
C2164 C2162 1.478 . S
C2164 C2166 1.381 . S
C2164 C2170 1.383 . S
C2165 C2161 1.495 . S
C2165 H2171 0.959 . S
C2165 H2172 0.961 . S
C2165 H2173 0.960 . S
C2166 C2164 1.381 . S
C2166 C2167 1.394 . S
C2166 H2174 0.930 . S
C2167 C2166 1.394 . S
C2167 C2168 1.383 . S
C2167 H2175 0.929 . S
C2168 C2167 1.383 . S
C2168 C2169 1.377 . S
C2169 H2153 0.930 . S
C2169 C2168 1.377 . S
C2169 C2170 1.379 . S
C2170 H2154 0.931 . S
C2170 C2164 1.383 . S
C2170 C2169 1.379 . S
H2171 C2165 0.959 . S
H2172 C2165 0.961 . S
H2173 C2165 0.960 . S
H2174 C2166 0.930 . S
H2175 C2167 0.929 . S
H2176 C2184 0.929 . S
H2177 C2186 0.930 . S
H2178 C2188 0.930 . S
H2179 C2191 0.929 . S
H2180 C2194 0.930 . S
H2181 C2196 0.960 . S
H2182 C2196 0.960 . S
H2183 C2196 0.960 . S
C2184 H2176 0.929 . S
C2184 C2185 1.377 . S
C2184 C2186 1.384 . S
C2185 C2184 1.377 . S
C2185 C2191 1.390 . S
C2186 H2177 0.930 . S
C2186 C2184 1.384 . S
C2186 C2187 1.372 . S
C2187 C2186 1.372 . S
C2187 C2188 1.400 . S
C2187 C2192 1.490 . S
C2188 H2178 0.930 . S
C2188 C2187 1.400 . S
C2188 C2191 1.386 . S
H2189 C2205 0.930 . S
H2190 C2206 0.931 . S
C2191 H2179 0.929 . S
C2191 C2185 1.390 . S
C2191 C2188 1.386 . S
C2192 C2187 1.490 . S
C2192 C2194 1.395 . S
C2192 C2195 1.403 . S
H2193 C2199 0.930 . S
C2194 H2180 0.930 . S
C2194 C2192 1.395 . S
C2194 C2197 1.403 . S
C2195 C2192 1.403 . S
C2195 C2196 1.524 . S
C2195 C2199 1.400 . S
C2196 H2181 0.960 . S
C2196 H2182 0.960 . S
C2196 H2183 0.960 . S
C2196 C2195 1.524 . S
C2197 C2194 1.403 . S
C2197 C2198 1.392 . S
C2197 C2201 1.495 . S
C2198 C2197 1.392 . S
C2198 C2199 1.385 . S
C2198 C2200 1.478 . S
C2199 H2193 0.930 . S
C2199 C2195 1.400 . S
C2199 C2198 1.385 . S
C2200 C2198 1.478 . S
C2200 C2202 1.381 . S
C2200 C2206 1.383 . S
C2201 C2197 1.495 . S
C2201 H2207 0.959 . S
C2201 H2208 0.961 . S
C2201 H2209 0.960 . S
C2202 C2200 1.381 . S
C2202 C2203 1.394 . S
C2202 H2210 0.930 . S
C2203 C2202 1.394 . S
C2203 C2204 1.383 . S
C2203 H2211 0.929 . S
C2204 C2203 1.383 . S
C2204 C2205 1.377 . S
C2205 H2189 0.930 . S
C2205 C2204 1.377 . S
C2205 C2206 1.379 . S
C2206 H2190 0.931 . S
C2206 C2200 1.383 . S
C2206 C2205 1.379 . S
H2207 C2201 0.959 . S
H2208 C2201 0.961 . S
H2209 C2201 0.960 . S
H2210 C2202 0.930 . S
H2211 C2203 0.929 . S
H2212 C2220 0.929 . S
H2213 C2222 0.930 . S
H2214 C2224 0.930 . S
H2215 C2227 0.929 . S
H2216 C2230 0.930 . S
H2217 C2232 0.960 . S
H2218 C2232 0.960 . S
H2219 C2232 0.960 . S
C2220 H2212 0.929 . S
C2220 C2221 1.377 . S
C2220 C2222 1.384 . S
C2221 C2220 1.377 . S
C2221 C2227 1.390 . S
C2222 H2213 0.930 . S
C2222 C2220 1.384 . S
C2222 C2223 1.372 . S
C2223 C2222 1.372 . S
C2223 C2224 1.400 . S
C2223 C2228 1.490 . S
C2224 H2214 0.930 . S
C2224 C2223 1.400 . S
C2224 C2227 1.386 . S
H2225 C2241 0.930 . S
H2226 C2242 0.931 . S
C2227 H2215 0.929 . S
C2227 C2221 1.390 . S
C2227 C2224 1.386 . S
C2228 C2223 1.490 . S
C2228 C2230 1.395 . S
C2228 C2231 1.403 . S
H2229 C2235 0.930 . S
C2230 H2216 0.930 . S
C2230 C2228 1.395 . S
C2230 C2233 1.403 . S
C2231 C2228 1.403 . S
C2231 C2232 1.524 . S
C2231 C2235 1.400 . S
C2232 H2217 0.960 . S
C2232 H2218 0.960 . S
C2232 H2219 0.960 . S
C2232 C2231 1.524 . S
C2233 C2230 1.403 . S
C2233 C2234 1.392 . S
C2233 C2237 1.495 . S
C2234 C2233 1.392 . S
C2234 C2235 1.385 . S
C2234 C2236 1.478 . S
C2235 H2229 0.930 . S
C2235 C2231 1.400 . S
C2235 C2234 1.385 . S
C2236 C2234 1.478 . S
C2236 C2238 1.381 . S
C2236 C2242 1.383 . S
C2237 C2233 1.495 . S
C2237 H2243 0.959 . S
C2237 H2244 0.961 . S
C2237 H2245 0.960 . S
C2238 C2236 1.381 . S
C2238 C2239 1.394 . S
C2238 H2246 0.930 . S
C2239 C2238 1.394 . S
C2239 C2240 1.383 . S
C2239 H2247 0.929 . S
C2240 C2239 1.383 . S
C2240 C2241 1.377 . S
C2241 H2225 0.930 . S
C2241 C2240 1.377 . S
C2241 C2242 1.379 . S
C2242 H2226 0.931 . S
C2242 C2236 1.383 . S
C2242 C2241 1.379 . S
H2243 C2237 0.959 . S
H2244 C2237 0.961 . S
H2245 C2237 0.960 . S
H2246 C2238 0.930 . S
H2247 C2239 0.929 . S
H2248 C2256 0.929 . S
H2249 C2258 0.930 . S
H2250 C2260 0.930 . S
H2251 C2263 0.929 . S
H2252 C2266 0.930 . S
H2253 C2268 0.960 . S
H2254 C2268 0.960 . S
H2255 C2268 0.960 . S
C2256 H2248 0.929 . S
C2256 C2257 1.377 . S
C2256 C2258 1.384 . S
C2257 C2256 1.377 . S
C2257 C2263 1.390 . S
C2258 H2249 0.930 . S
C2258 C2256 1.384 . S
C2258 C2259 1.372 . S
C2259 C2258 1.372 . S
C2259 C2260 1.400 . S
C2259 C2264 1.490 . S
C2260 H2250 0.930 . S
C2260 C2259 1.400 . S
C2260 C2263 1.386 . S
H2261 C2277 0.930 . S
H2262 C2278 0.931 . S
C2263 H2251 0.929 . S
C2263 C2257 1.390 . S
C2263 C2260 1.386 . S
C2264 C2259 1.490 . S
C2264 C2266 1.395 . S
C2264 C2267 1.403 . S
H2265 C2271 0.930 . S
C2266 H2252 0.930 . S
C2266 C2264 1.395 . S
C2266 C2269 1.403 . S
C2267 C2264 1.403 . S
C2267 C2268 1.524 . S
C2267 C2271 1.400 . S
C2268 H2253 0.960 . S
C2268 H2254 0.960 . S
C2268 H2255 0.960 . S
C2268 C2267 1.524 . S
C2269 C2266 1.403 . S
C2269 C2270 1.392 . S
C2269 C2273 1.495 . S
C2270 C2269 1.392 . S
C2270 C2271 1.385 . S
C2270 C2272 1.478 . S
C2271 H2265 0.930 . S
C2271 C2267 1.400 . S
C2271 C2270 1.385 . S
C2272 C2270 1.478 . S
C2272 C2274 1.381 . S
C2272 C2278 1.383 . S
C2273 C2269 1.495 . S
C2273 H2279 0.959 . S
C2273 H2280 0.961 . S
C2273 H2281 0.960 . S
C2274 C2272 1.381 . S
C2274 C2275 1.394 . S
C2274 H2282 0.930 . S
C2275 C2274 1.394 . S
C2275 C2276 1.383 . S
C2275 H2283 0.929 . S
C2276 C2275 1.383 . S
C2276 C2277 1.377 . S
C2277 H2261 0.930 . S
C2277 C2276 1.377 . S
C2277 C2278 1.379 . S
C2278 H2262 0.931 . S
C2278 C2272 1.383 . S
C2278 C2277 1.379 . S
H2279 C2273 0.959 . S
H2280 C2273 0.961 . S
H2281 C2273 0.960 . S
H2282 C2274 0.930 . S
H2283 C2275 0.929 . S
H2284 C2292 0.929 . S
H2285 C2294 0.930 1_554 S
H2286 C2296 0.930 . S
H2287 C2299 0.929 . S
H2288 C2302 0.930 . S
H2289 C2304 0.960 . S
H2290 C2304 0.960 . S
H2291 C2304 0.960 . S
C2292 H2284 0.929 . S
C2292 C2293 1.377 . S
C2292 C2294 1.384 . S
C2293 C2292 1.377 . S
C2293 C2299 1.390 . S
C2294 H2285 0.930 1_556 S
C2294 C2292 1.384 . S
C2294 C2295 1.372 . S
C2295 C2294 1.372 . S
C2295 C2296 1.400 . S
C2295 C2300 1.490 . S
C2296 H2286 0.930 . S
C2296 C2295 1.400 . S
C2296 C2299 1.386 . S
H2297 C2313 0.930 . S
H2298 C2314 0.931 . S
C2299 H2287 0.929 . S
C2299 C2293 1.390 . S
C2299 C2296 1.386 . S
C2300 C2295 1.490 . S
C2300 C2302 1.395 1_556 S
C2300 C2303 1.403 . S
H2301 C2307 0.930 . S
C2302 H2288 0.930 . S
C2302 C2300 1.395 1_554 S
C2302 C2305 1.403 . S
C2303 C2300 1.403 . S
C2303 C2304 1.524 . S
C2303 C2307 1.400 . S
C2304 H2289 0.960 . S
C2304 H2290 0.960 . S
C2304 H2291 0.960 . S
C2304 C2303 1.524 . S
C2305 C2302 1.403 . S
C2305 C2306 1.392 . S
C2305 C2309 1.495 . S
C2306 C2305 1.392 . S
C2306 C2307 1.385 1_554 S
C2306 C2308 1.478 . S
C2307 H2301 0.930 . S
C2307 C2303 1.400 . S
C2307 C2306 1.385 1_556 S
C2308 C2306 1.478 . S
C2308 C2310 1.381 . S
C2308 C2314 1.383 . S
C2309 C2305 1.495 . S
C2309 H2315 0.959 . S
C2309 H2316 0.961 . S
C2309 H2317 0.960 . S
C2310 C2308 1.381 . S
C2310 C2311 1.394 . S
C2310 H2318 0.930 . S
C2311 C2310 1.394 . S
C2311 C2312 1.383 . S
C2311 H2319 0.929 . S
C2312 C2311 1.383 . S
C2312 C2313 1.377 . S
C2313 H2297 0.930 . S
C2313 C2312 1.377 . S
C2313 C2314 1.379 . S
C2314 H2298 0.931 . S
C2314 C2308 1.383 . S
C2314 C2313 1.379 . S
H2315 C2309 0.959 . S
H2316 C2309 0.961 . S
H2317 C2309 0.960 . S
H2318 C2310 0.930 . S
H2319 C2311 0.929 . S
H2320 C2328 0.929 . S
H2321 C2330 0.930 . S
H2322 C2332 0.930 . S
H2323 C2335 0.929 . S
H2324 C2338 0.930 . S
H2325 C2340 0.960 . S
H2326 C2340 0.960 . S
H2327 C2340 0.960 . S
C2328 H2320 0.929 . S
C2328 C2329 1.377 . S
C2328 C2330 1.384 . S
C2329 C2328 1.377 . S
C2329 C2335 1.390 . S
C2330 H2321 0.930 . S
C2330 C2328 1.384 . S
C2330 C2331 1.372 . S
C2331 C2330 1.372 . S
C2331 C2332 1.400 . S
C2331 C2336 1.490 . S
C2332 H2322 0.930 . S
C2332 C2331 1.400 . S
C2332 C2335 1.386 . S
H2333 C2349 0.930 . S
H2334 C2350 0.931 . S
C2335 H2323 0.929 . S
C2335 C2329 1.390 . S
C2335 C2332 1.386 . S
C2336 C2331 1.490 . S
C2336 C2338 1.395 . S
C2336 C2339 1.403 . S
H2337 C2343 0.930 . S
C2338 H2324 0.930 . S
C2338 C2336 1.395 . S
C2338 C2341 1.403 . S
C2339 C2336 1.403 . S
C2339 C2340 1.524 . S
C2339 C2343 1.400 . S
C2340 H2325 0.960 . S
C2340 H2326 0.960 . S
C2340 H2327 0.960 . S
C2340 C2339 1.524 . S
C2341 C2338 1.403 . S
C2341 C2342 1.392 . S
C2341 C2345 1.495 . S
C2342 C2341 1.392 . S
C2342 C2343 1.385 . S
C2342 C2344 1.478 . S
C2343 H2337 0.930 . S
C2343 C2339 1.400 . S
C2343 C2342 1.385 . S
C2344 C2342 1.478 . S
C2344 C2346 1.381 . S
C2344 C2350 1.383 . S
C2345 C2341 1.495 . S
C2345 H2351 0.959 . S
C2345 H2352 0.961 . S
C2345 H2353 0.960 . S
C2346 C2344 1.381 . S
C2346 C2347 1.394 . S
C2346 H2354 0.930 . S
C2347 C2346 1.394 . S
C2347 C2348 1.383 . S
C2347 H2355 0.929 . S
C2348 C2347 1.383 . S
C2348 C2349 1.377 . S
C2349 H2333 0.930 . S
C2349 C2348 1.377 . S
C2349 C2350 1.379 . S
C2350 H2334 0.931 . S
C2350 C2344 1.383 . S
C2350 C2349 1.379 . S
H2351 C2345 0.959 . S
H2352 C2345 0.961 . S
H2353 C2345 0.960 . S
H2354 C2346 0.930 . S
H2355 C2347 0.929 . S
H2356 C2364 0.929 . S
H2357 C2366 0.930 . S
H2358 C2368 0.930 . S
H2359 C2371 0.929 . S
H2360 C2374 0.930 . S
H2361 C2376 0.960 . S
H2362 C2376 0.960 . S
H2363 C2376 0.960 . S
C2364 H2356 0.929 . S
C2364 C2365 1.377 . S
C2364 C2366 1.384 . S
C2365 C2364 1.377 . S
C2365 C2371 1.390 . S
C2366 H2357 0.930 . S
C2366 C2364 1.384 . S
C2366 C2367 1.372 . S
C2367 C2366 1.372 . S
C2367 C2368 1.400 . S
C2367 C2372 1.490 . S
C2368 H2358 0.930 . S
C2368 C2367 1.400 . S
C2368 C2371 1.386 . S
H2369 C2385 0.930 . S
H2370 C2386 0.931 . S
C2371 H2359 0.929 . S
C2371 C2365 1.390 . S
C2371 C2368 1.386 . S
C2372 C2367 1.490 . S
C2372 C2374 1.395 . S
C2372 C2375 1.403 . S
H2373 C2379 0.930 . S
C2374 H2360 0.930 . S
C2374 C2372 1.395 . S
C2374 C2377 1.403 . S
C2375 C2372 1.403 . S
C2375 C2376 1.524 . S
C2375 C2379 1.400 . S
C2376 H2361 0.960 . S
C2376 H2362 0.960 . S
C2376 H2363 0.960 . S
C2376 C2375 1.524 . S
C2377 C2374 1.403 . S
C2377 C2378 1.392 . S
C2377 C2381 1.495 . S
C2378 C2377 1.392 . S
C2378 C2379 1.385 . S
C2378 C2380 1.478 . S
C2379 H2373 0.930 . S
C2379 C2375 1.400 . S
C2379 C2378 1.385 . S
C2380 C2378 1.478 . S
C2380 C2382 1.381 . S
C2380 C2386 1.383 . S
C2381 C2377 1.495 . S
C2381 H2387 0.959 . S
C2381 H2388 0.961 . S
C2381 H2389 0.960 . S
C2382 C2380 1.381 . S
C2382 C2383 1.394 . S
C2382 H2390 0.930 . S
C2383 C2382 1.394 . S
C2383 C2384 1.383 . S
C2383 H2391 0.929 . S
C2384 C2383 1.383 . S
C2384 C2385 1.377 . S
C2385 H2369 0.930 . S
C2385 C2384 1.377 . S
C2385 C2386 1.379 . S
C2386 H2370 0.931 . S
C2386 C2380 1.383 . S
C2386 C2385 1.379 . S
H2387 C2381 0.959 . S
H2388 C2381 0.961 . S
H2389 C2381 0.960 . S
H2390 C2382 0.930 . S
H2391 C2383 0.929 . S
H2392 C2400 0.929 . S
H2393 C2402 0.930 . S
H2394 C2404 0.930 . S
H2395 C2407 0.929 . S
H2396 C2410 0.930 . S
H2397 C2412 0.960 . S
H2398 C2412 0.960 . S
H2399 C2412 0.960 . S
C2400 H2392 0.929 . S
C2400 C2401 1.377 . S
C2400 C2402 1.384 . S
C2401 C2400 1.377 . S
C2401 C2407 1.390 . S
C2402 H2393 0.930 . S
C2402 C2400 1.384 . S
C2402 C2403 1.372 . S
C2403 C2402 1.372 . S
C2403 C2404 1.400 . S
C2403 C2408 1.490 . S
C2404 H2394 0.930 . S
C2404 C2403 1.400 . S
C2404 C2407 1.386 . S
H2405 C2421 0.930 . S
H2406 C2422 0.931 . S
C2407 H2395 0.929 . S
C2407 C2401 1.390 . S
C2407 C2404 1.386 . S
C2408 C2403 1.490 . S
C2408 C2410 1.395 . S
C2408 C2411 1.403 . S
H2409 C2415 0.930 . S
C2410 H2396 0.930 . S
C2410 C2408 1.395 . S
C2410 C2413 1.403 . S
C2411 C2408 1.403 . S
C2411 C2412 1.524 . S
C2411 C2415 1.400 . S
C2412 H2397 0.960 . S
C2412 H2398 0.960 . S
C2412 H2399 0.960 . S
C2412 C2411 1.524 . S
C2413 C2410 1.403 . S
C2413 C2414 1.392 . S
C2413 C2417 1.495 . S
C2414 C2413 1.392 . S
C2414 C2415 1.385 . S
C2414 C2416 1.478 . S
C2415 H2409 0.930 . S
C2415 C2411 1.400 . S
C2415 C2414 1.385 . S
C2416 C2414 1.478 . S
C2416 C2418 1.381 . S
C2416 C2422 1.383 . S
C2417 C2413 1.495 . S
C2417 H2423 0.959 . S
C2417 H2424 0.961 . S
C2417 H2425 0.960 . S
C2418 C2416 1.381 . S
C2418 C2419 1.394 . S
C2418 H2426 0.930 . S
C2419 C2418 1.394 . S
C2419 C2420 1.383 . S
C2419 H2427 0.929 . S
C2420 C2419 1.383 . S
C2420 C2421 1.377 . S
C2421 H2405 0.930 . S
C2421 C2420 1.377 . S
C2421 C2422 1.379 . S
C2422 H2406 0.931 . S
C2422 C2416 1.383 . S
C2422 C2421 1.379 . S
H2423 C2417 0.959 . S
H2424 C2417 0.961 . S
H2425 C2417 0.960 . S
H2426 C2418 0.930 . S
H2427 C2419 0.929 . S
H2428 C2436 0.929 . S
H2429 C2438 0.930 1_556 S
H2430 C2440 0.930 . S
H2431 C2443 0.929 . S
H2432 C2446 0.930 . S
H2433 C2448 0.960 . S
H2434 C2448 0.960 . S
H2435 C2448 0.960 . S
C2436 H2428 0.929 . S
C2436 C2437 1.377 . S
C2436 C2438 1.384 . S
C2437 C2436 1.377 . S
C2437 C2443 1.390 . S
C2438 H2429 0.930 1_554 S
C2438 C2436 1.384 . S
C2438 C2439 1.372 . S
C2439 C2438 1.372 . S
C2439 C2440 1.400 . S
C2439 C2444 1.490 . S
C2440 H2430 0.930 . S
C2440 C2439 1.400 . S
C2440 C2443 1.386 . S
H2441 C2457 0.930 . S
H2442 C2458 0.931 . S
C2443 H2431 0.929 . S
C2443 C2437 1.390 . S
C2443 C2440 1.386 . S
C2444 C2439 1.490 . S
C2444 C2446 1.395 1_554 S
C2444 C2447 1.403 . S
H2445 C2451 0.930 . S
C2446 H2432 0.930 . S
C2446 C2444 1.395 1_556 S
C2446 C2449 1.403 . S
C2447 C2444 1.403 . S
C2447 C2448 1.524 . S
C2447 C2451 1.400 . S
C2448 H2433 0.960 . S
C2448 H2434 0.960 . S
C2448 H2435 0.960 . S
C2448 C2447 1.524 . S
C2449 C2446 1.403 . S
C2449 C2450 1.392 . S
C2449 C2453 1.495 . S
C2450 C2449 1.392 . S
C2450 C2451 1.385 1_556 S
C2450 C2452 1.478 . S
C2451 H2445 0.930 . S
C2451 C2447 1.400 . S
C2451 C2450 1.385 1_554 S
C2452 C2450 1.478 . S
C2452 C2454 1.381 . S
C2452 C2458 1.383 . S
C2453 C2449 1.495 . S
C2453 H2459 0.959 . S
C2453 H2460 0.961 . S
C2453 H2461 0.960 . S
C2454 C2452 1.381 . S
C2454 C2455 1.394 . S
C2454 H2462 0.930 . S
C2455 C2454 1.394 . S
C2455 C2456 1.383 . S
C2455 H2463 0.929 . S
C2456 C2455 1.383 . S
C2456 C2457 1.377 . S
C2457 H2441 0.930 . S
C2457 C2456 1.377 . S
C2457 C2458 1.379 . S
C2458 H2442 0.931 . S
C2458 C2452 1.383 . S
C2458 C2457 1.379 . S
H2459 C2453 0.959 . S
H2460 C2453 0.961 . S
H2461 C2453 0.960 . S
H2462 C2454 0.930 . S
H2463 C2455 0.929 . S
H2464 C2472 0.929 . S
H2465 C2474 0.930 . S
H2466 C2476 0.930 . S
H2467 C2479 0.929 . S
H2468 C2482 0.930 . S
H2469 C2484 0.960 . S
H2470 C2484 0.960 . S
H2471 C2484 0.960 . S
C2472 H2464 0.929 . S
C2472 C2473 1.377 . S
C2472 C2474 1.384 . S
C2473 C2472 1.377 . S
C2473 C2479 1.390 . S
C2474 H2465 0.930 . S
C2474 C2472 1.384 . S
C2474 C2475 1.372 . S
C2475 C2474 1.372 . S
C2475 C2476 1.400 . S
C2475 C2480 1.490 . S
C2476 H2466 0.930 . S
C2476 C2475 1.400 . S
C2476 C2479 1.386 . S
H2477 C2493 0.930 . S
H2478 C2494 0.931 . S
C2479 H2467 0.929 . S
C2479 C2473 1.390 . S
C2479 C2476 1.386 . S
C2480 C2475 1.490 . S
C2480 C2482 1.395 . S
C2480 C2483 1.403 . S
H2481 C2487 0.930 . S
C2482 H2468 0.930 . S
C2482 C2480 1.395 . S
C2482 C2485 1.403 1_565 S
C2483 C2480 1.403 . S
C2483 C2484 1.524 . S
C2483 C2487 1.400 1_565 S
C2484 H2469 0.960 . S
C2484 H2470 0.960 . S
C2484 H2471 0.960 . S
C2484 C2483 1.524 . S
C2485 C2482 1.403 1_545 S
C2485 C2486 1.392 . S
C2485 C2489 1.495 . S
C2486 C2485 1.392 . S
C2486 C2487 1.385 . S
C2486 C2488 1.478 . S
C2487 H2481 0.930 . S
C2487 C2483 1.400 1_545 S
C2487 C2486 1.385 . S
C2488 C2486 1.478 . S
C2488 C2490 1.381 . S
C2488 C2494 1.383 . S
C2489 C2485 1.495 . S
C2489 H2495 0.959 . S
C2489 H2496 0.961 . S
C2489 H2497 0.960 . S
C2490 C2488 1.381 . S
C2490 C2491 1.394 . S
C2490 H2498 0.930 . S
C2491 C2490 1.394 . S
C2491 C2492 1.383 . S
C2491 H2499 0.929 . S
C2492 C2491 1.383 . S
C2492 C2493 1.377 . S
C2493 H2477 0.930 . S
C2493 C2492 1.377 . S
C2493 C2494 1.379 . S
C2494 H2478 0.931 . S
C2494 C2488 1.383 . S
C2494 C2493 1.379 . S
H2495 C2489 0.959 . S
H2496 C2489 0.961 . S
H2497 C2489 0.960 . S
H2498 C2490 0.930 . S
H2499 C2491 0.929 . S
H2500 C2508 0.929 . S
H2501 C2510 0.930 . S
H2502 C2512 0.930 . S
H2503 C2515 0.929 . S
H2504 C2518 0.930 . S
H2505 C2520 0.960 . S
H2506 C2520 0.960 . S
H2507 C2520 0.960 . S
C2508 H2500 0.929 . S
C2508 C2509 1.377 . S
C2508 C2510 1.384 . S
C2509 C2508 1.377 . S
C2509 C2515 1.390 . S
C2510 H2501 0.930 . S
C2510 C2508 1.384 . S
C2510 C2511 1.372 . S
C2511 C2510 1.372 . S
C2511 C2512 1.400 . S
C2511 C2516 1.490 . S
C2512 H2502 0.930 . S
C2512 C2511 1.400 . S
C2512 C2515 1.386 . S
H2513 C2529 0.930 . S
H2514 C2530 0.931 . S
C2515 H2503 0.929 . S
C2515 C2509 1.390 . S
C2515 C2512 1.386 . S
C2516 C2511 1.490 . S
C2516 C2518 1.395 1_554 S
C2516 C2519 1.403 . S
H2517 C2523 0.930 . S
C2518 H2504 0.930 . S
C2518 C2516 1.395 1_556 S
C2518 C2521 1.403 . S
C2519 C2516 1.403 . S
C2519 C2520 1.524 . S
C2519 C2523 1.400 . S
C2520 H2505 0.960 . S
C2520 H2506 0.960 . S
C2520 H2507 0.960 . S
C2520 C2519 1.524 . S
C2521 C2518 1.403 . S
C2521 C2522 1.392 . S
C2521 C2525 1.495 . S
C2522 C2521 1.392 . S
C2522 C2523 1.385 1_556 S
C2522 C2524 1.478 . S
C2523 H2517 0.930 . S
C2523 C2519 1.400 . S
C2523 C2522 1.385 1_554 S
C2524 C2522 1.478 . S
C2524 C2526 1.381 . S
C2524 C2530 1.383 . S
C2525 C2521 1.495 . S
C2525 H2531 0.959 . S
C2525 H2532 0.961 . S
C2525 H2533 0.960 . S
C2526 C2524 1.381 . S
C2526 C2527 1.394 . S
C2526 H2534 0.930 . S
C2527 C2526 1.394 . S
C2527 C2528 1.383 . S
C2527 H2535 0.929 . S
C2528 C2527 1.383 . S
C2528 C2529 1.377 . S
C2529 H2513 0.930 . S
C2529 C2528 1.377 . S
C2529 C2530 1.379 . S
C2530 H2514 0.931 . S
C2530 C2524 1.383 . S
C2530 C2529 1.379 . S
H2531 C2525 0.959 . S
H2532 C2525 0.961 . S
H2533 C2525 0.960 . S
H2534 C2526 0.930 . S
H2535 C2527 0.929 . S
H2536 C2544 0.929 . S
H2537 C2546 0.930 . S
H2538 C2548 0.930 . S
H2539 C2551 0.929 . S
H2540 C2554 0.930 . S
H2541 C2556 0.960 . S
H2542 C2556 0.960 . S
H2543 C2556 0.960 . S
C2544 H2536 0.929 . S
C2544 C2545 1.377 . S
C2544 C2546 1.384 . S
C2545 C2544 1.377 . S
C2545 C2551 1.390 . S
C2546 H2537 0.930 . S
C2546 C2544 1.384 . S
C2546 C2547 1.372 . S
C2547 C2546 1.372 . S
C2547 C2548 1.400 . S
C2547 C2552 1.490 . S
C2548 H2538 0.930 . S
C2548 C2547 1.400 . S
C2548 C2551 1.386 . S
H2549 C2565 0.930 . S
H2550 C2566 0.931 . S
C2551 H2539 0.929 . S
C2551 C2545 1.390 . S
C2551 C2548 1.386 . S
C2552 C2547 1.490 . S
C2552 C2554 1.395 . S
C2552 C2555 1.403 . S
H2553 C2559 0.930 . S
C2554 H2540 0.930 . S
C2554 C2552 1.395 . S
C2554 C2557 1.403 1_545 S
C2555 C2552 1.403 . S
C2555 C2556 1.524 . S
C2555 C2559 1.400 1_545 S
C2556 H2541 0.960 . S
C2556 H2542 0.960 . S
C2556 H2543 0.960 . S
C2556 C2555 1.524 . S
C2557 C2554 1.403 1_565 S
C2557 C2558 1.392 . S
C2557 C2561 1.495 . S
C2558 C2557 1.392 . S
C2558 C2559 1.385 . S
C2558 C2560 1.478 . S
C2559 H2553 0.930 . S
C2559 C2555 1.400 1_565 S
C2559 C2558 1.385 . S
C2560 C2558 1.478 . S
C2560 C2562 1.381 . S
C2560 C2566 1.383 . S
C2561 C2557 1.495 . S
C2561 H2567 0.959 . S
C2561 H2568 0.961 . S
C2561 H2569 0.960 . S
C2562 C2560 1.381 . S
C2562 C2563 1.394 . S
C2562 H2570 0.930 . S
C2563 C2562 1.394 . S
C2563 C2564 1.383 . S
C2563 H2571 0.929 . S
C2564 C2563 1.383 . S
C2564 C2565 1.377 . S
C2565 H2549 0.930 . S
C2565 C2564 1.377 . S
C2565 C2566 1.379 . S
C2566 H2550 0.931 . S
C2566 C2560 1.383 . S
C2566 C2565 1.379 . S
H2567 C2561 0.959 . S
H2568 C2561 0.961 . S
H2569 C2561 0.960 . S
H2570 C2562 0.930 . S
H2571 C2563 0.929 . S
H2572 C2580 0.929 . S
H2573 C2582 0.930 . S
H2574 C2584 0.930 . S
H2575 C2587 0.929 . S
H2576 C2590 0.930 . S
H2577 C2592 0.960 . S
H2578 C2592 0.960 . S
H2579 C2592 0.960 . S
C2580 H2572 0.929 . S
C2580 C2581 1.377 . S
C2580 C2582 1.384 . S
C2581 C2580 1.377 . S
C2581 C2587 1.390 . S
C2582 H2573 0.930 . S
C2582 C2580 1.384 . S
C2582 C2583 1.372 . S
C2583 C2582 1.372 . S
C2583 C2584 1.400 . S
C2583 C2588 1.490 . S
C2584 H2574 0.930 . S
C2584 C2583 1.400 . S
C2584 C2587 1.386 . S
H2585 C2601 0.930 . S
H2586 C2602 0.931 . S
C2587 H2575 0.929 . S
C2587 C2581 1.390 . S
C2587 C2584 1.386 . S
C2588 C2583 1.490 . S
C2588 C2590 1.395 . S
C2588 C2591 1.403 . S
H2589 C2595 0.930 . S
C2590 H2576 0.930 . S
C2590 C2588 1.395 . S
C2590 C2593 1.403 . S
C2591 C2588 1.403 . S
C2591 C2592 1.524 . S
C2591 C2595 1.400 . S
C2592 H2577 0.960 . S
C2592 H2578 0.960 . S
C2592 H2579 0.960 . S
C2592 C2591 1.524 . S
C2593 C2590 1.403 . S
C2593 C2594 1.392 . S
C2593 C2597 1.495 . S
C2594 C2593 1.392 . S
C2594 C2595 1.385 . S
C2594 C2596 1.478 . S
C2595 H2589 0.930 . S
C2595 C2591 1.400 . S
C2595 C2594 1.385 . S
C2596 C2594 1.478 . S
C2596 C2598 1.381 . S
C2596 C2602 1.383 . S
C2597 C2593 1.495 . S
C2597 H2603 0.959 . S
C2597 H2604 0.961 . S
C2597 H2605 0.960 . S
C2598 C2596 1.381 . S
C2598 C2599 1.394 . S
C2598 H2606 0.930 . S
C2599 C2598 1.394 . S
C2599 C2600 1.383 . S
C2599 H2607 0.929 . S
C2600 C2599 1.383 . S
C2600 C2601 1.377 . S
C2601 H2585 0.930 . S
C2601 C2600 1.377 . S
C2601 C2602 1.379 . S
C2602 H2586 0.931 . S
C2602 C2596 1.383 . S
C2602 C2601 1.379 . S
H2603 C2597 0.959 . S
H2604 C2597 0.961 . S
H2605 C2597 0.960 . S
H2606 C2598 0.930 . S
H2607 C2599 0.929 . S
H2608 C2616 0.929 . S
H2609 C2618 0.930 . S
H2610 C2620 0.930 . S
H2611 C2623 0.929 . S
H2612 C2626 0.930 . S
H2613 C2628 0.960 . S
H2614 C2628 0.960 . S
H2615 C2628 0.960 . S
C2616 H2608 0.929 . S
C2616 C2617 1.377 . S
C2616 C2618 1.384 . S
C2617 C2616 1.377 . S
C2617 C2623 1.390 . S
C2618 H2609 0.930 . S
C2618 C2616 1.384 . S
C2618 C2619 1.372 . S
C2619 C2618 1.372 . S
C2619 C2620 1.400 . S
C2619 C2624 1.490 . S
C2620 H2610 0.930 . S
C2620 C2619 1.400 . S
C2620 C2623 1.386 . S
H2621 C2637 0.930 . S
H2622 C2638 0.931 . S
C2623 H2611 0.929 . S
C2623 C2617 1.390 . S
C2623 C2620 1.386 . S
C2624 C2619 1.490 . S
C2624 C2626 1.395 . S
C2624 C2627 1.403 . S
H2625 C2631 0.930 . S
C2626 H2612 0.930 . S
C2626 C2624 1.395 . S
C2626 C2629 1.403 1_545 S
C2627 C2624 1.403 . S
C2627 C2628 1.524 . S
C2627 C2631 1.400 1_545 S
C2628 H2613 0.960 . S
C2628 H2614 0.960 . S
C2628 H2615 0.960 . S
C2628 C2627 1.524 . S
C2629 C2626 1.403 1_565 S
C2629 C2630 1.392 . S
C2629 C2633 1.495 . S
C2630 C2629 1.392 . S
C2630 C2631 1.385 . S
C2630 C2632 1.478 . S
C2631 H2625 0.930 . S
C2631 C2627 1.400 1_565 S
C2631 C2630 1.385 . S
C2632 C2630 1.478 . S
C2632 C2634 1.381 . S
C2632 C2638 1.383 . S
C2633 C2629 1.495 . S
C2633 H2639 0.959 . S
C2633 H2640 0.961 . S
C2633 H2641 0.960 . S
C2634 C2632 1.381 . S
C2634 C2635 1.394 . S
C2634 H2642 0.930 . S
C2635 C2634 1.394 . S
C2635 C2636 1.383 . S
C2635 H2643 0.929 . S
C2636 C2635 1.383 . S
C2636 C2637 1.377 . S
C2637 H2621 0.930 . S
C2637 C2636 1.377 . S
C2637 C2638 1.379 . S
C2638 H2622 0.931 . S
C2638 C2632 1.383 . S
C2638 C2637 1.379 . S
H2639 C2633 0.959 . S
H2640 C2633 0.961 . S
H2641 C2633 0.960 . S
H2642 C2634 0.930 . S
H2643 C2635 0.929 . S
H2644 C2652 0.929 . S
H2645 C2654 0.930 1_556 S
H2646 C2656 0.930 . S
H2647 C2659 0.929 . S
H2648 C2662 0.930 . S
H2649 C2664 0.960 . S
H2650 C2664 0.960 . S
H2651 C2664 0.960 . S
C2652 H2644 0.929 . S
C2652 C2653 1.377 . S
C2652 C2654 1.384 . S
C2653 C2652 1.377 . S
C2653 C2659 1.390 . S
C2654 H2645 0.930 1_554 S
C2654 C2652 1.384 . S
C2654 C2655 1.372 . S
C2655 C2654 1.372 . S
C2655 C2656 1.400 . S
C2655 C2660 1.490 . S
C2656 H2646 0.930 . S
C2656 C2655 1.400 . S
C2656 C2659 1.386 . S
H2657 C2673 0.930 . S
H2658 C2674 0.931 . S
C2659 H2647 0.929 . S
C2659 C2653 1.390 . S
C2659 C2656 1.386 . S
C2660 C2655 1.490 . S
C2660 C2662 1.395 1_554 S
C2660 C2663 1.403 . S
H2661 C2667 0.930 . S
C2662 H2648 0.930 . S
C2662 C2660 1.395 1_556 S
C2662 C2665 1.403 . S
C2663 C2660 1.403 . S
C2663 C2664 1.524 . S
C2663 C2667 1.400 . S
C2664 H2649 0.960 . S
C2664 H2650 0.960 . S
C2664 H2651 0.960 . S
C2664 C2663 1.524 . S
C2665 C2662 1.403 . S
C2665 C2666 1.392 . S
C2665 C2669 1.495 . S
C2666 C2665 1.392 . S
C2666 C2667 1.385 1_556 S
C2666 C2668 1.478 . S
C2667 H2661 0.930 . S
C2667 C2663 1.400 . S
C2667 C2666 1.385 1_554 S
C2668 C2666 1.478 . S
C2668 C2670 1.381 . S
C2668 C2674 1.383 . S
C2669 C2665 1.495 . S
C2669 H2675 0.959 . S
C2669 H2676 0.961 . S
C2669 H2677 0.960 . S
C2670 C2668 1.381 . S
C2670 C2671 1.394 . S
C2670 H2678 0.930 . S
C2671 C2670 1.394 . S
C2671 C2672 1.383 . S
C2671 H2679 0.929 . S
C2672 C2671 1.383 . S
C2672 C2673 1.377 . S
C2673 H2657 0.930 . S
C2673 C2672 1.377 . S
C2673 C2674 1.379 . S
C2674 H2658 0.931 . S
C2674 C2668 1.383 . S
C2674 C2673 1.379 . S
H2675 C2669 0.959 . S
H2676 C2669 0.961 . S
H2677 C2669 0.960 . S
H2678 C2670 0.930 . S
H2679 C2671 0.929 . S
H2680 C2688 0.929 . S
H2681 C2690 0.930 . S
H2682 C2692 0.930 . S
H2683 C2695 0.929 . S
H2684 C2698 0.930 . S
H2685 C2700 0.960 . S
H2686 C2700 0.960 . S
H2687 C2700 0.960 . S
C2688 H2680 0.929 . S
C2688 C2689 1.377 . S
C2688 C2690 1.384 . S
C2689 C2688 1.377 . S
C2689 C2695 1.390 . S
C2690 H2681 0.930 . S
C2690 C2688 1.384 . S
C2690 C2691 1.372 . S
C2691 C2690 1.372 . S
C2691 C2692 1.400 . S
C2691 C2696 1.490 . S
C2692 H2682 0.930 . S
C2692 C2691 1.400 . S
C2692 C2695 1.386 . S
H2693 C2709 0.930 . S
H2694 C2710 0.931 . S
C2695 H2683 0.929 . S
C2695 C2689 1.390 . S
C2695 C2692 1.386 . S
C2696 C2691 1.490 . S
C2696 C2698 1.395 . S
C2696 C2699 1.403 . S
H2697 C2703 0.930 . S
C2698 H2684 0.930 . S
C2698 C2696 1.395 . S
C2698 C2701 1.403 1_545 S
C2699 C2696 1.403 . S
C2699 C2700 1.524 . S
C2699 C2703 1.400 1_545 S
C2700 H2685 0.960 . S
C2700 H2686 0.960 . S
C2700 H2687 0.960 . S
C2700 C2699 1.524 . S
C2701 C2698 1.403 1_565 S
C2701 C2702 1.392 . S
C2701 C2705 1.495 . S
C2702 C2701 1.392 . S
C2702 C2703 1.385 . S
C2702 C2704 1.478 . S
C2703 H2697 0.930 . S
C2703 C2699 1.400 1_565 S
C2703 C2702 1.385 . S
C2704 C2702 1.478 . S
C2704 C2706 1.381 . S
C2704 C2710 1.383 . S
C2705 C2701 1.495 . S
C2705 H2711 0.959 . S
C2705 H2712 0.961 . S
C2705 H2713 0.960 . S
C2706 C2704 1.381 . S
C2706 C2707 1.394 . S
C2706 H2714 0.930 . S
C2707 C2706 1.394 . S
C2707 C2708 1.383 . S
C2707 H2715 0.929 . S
C2708 C2707 1.383 . S
C2708 C2709 1.377 . S
C2709 H2693 0.930 . S
C2709 C2708 1.377 . S
C2709 C2710 1.379 . S
C2710 H2694 0.931 . S
C2710 C2704 1.383 . S
C2710 C2709 1.379 . S
H2711 C2705 0.959 . S
H2712 C2705 0.961 . S
H2713 C2705 0.960 . S
H2714 C2706 0.930 . S
H2715 C2707 0.929 . S
H2716 C2724 0.929 . S
H2717 C2726 0.930 . S
H2718 C2728 0.930 . S
H2719 C2731 0.929 . S
H2720 C2734 0.930 . S
H2721 C2736 0.960 . S
H2722 C2736 0.960 . S
H2723 C2736 0.960 . S
C2724 H2716 0.929 . S
C2724 C2725 1.377 . S
C2724 C2726 1.384 . S
C2725 C2724 1.377 . S
C2725 C2731 1.390 . S
C2726 H2717 0.930 . S
C2726 C2724 1.384 . S
C2726 C2727 1.372 . S
C2727 C2726 1.372 . S
C2727 C2728 1.400 . S
C2727 C2732 1.490 . S
C2728 H2718 0.930 . S
C2728 C2727 1.400 . S
C2728 C2731 1.386 . S
H2729 C2745 0.930 . S
H2730 C2746 0.931 . S
C2731 H2719 0.929 . S
C2731 C2725 1.390 . S
C2731 C2728 1.386 . S
C2732 C2727 1.490 . S
C2732 C2734 1.395 . S
C2732 C2735 1.403 . S
H2733 C2739 0.930 . S
C2734 H2720 0.930 . S
C2734 C2732 1.395 . S
C2734 C2737 1.403 . S
C2735 C2732 1.403 . S
C2735 C2736 1.524 . S
C2735 C2739 1.400 . S
C2736 H2721 0.960 . S
C2736 H2722 0.960 . S
C2736 H2723 0.960 . S
C2736 C2735 1.524 . S
C2737 C2734 1.403 . S
C2737 C2738 1.392 . S
C2737 C2741 1.495 . S
C2738 C2737 1.392 . S
C2738 C2739 1.385 . S
C2738 C2740 1.478 . S
C2739 H2733 0.930 . S
C2739 C2735 1.400 . S
C2739 C2738 1.385 . S
C2740 C2738 1.478 . S
C2740 C2742 1.381 . S
C2740 C2746 1.383 . S
C2741 C2737 1.495 . S
C2741 H2747 0.959 . S
C2741 H2748 0.961 . S
C2741 H2749 0.960 . S
C2742 C2740 1.381 . S
C2742 C2743 1.394 . S
C2742 H2750 0.930 . S
C2743 C2742 1.394 . S
C2743 C2744 1.383 . S
C2743 H2751 0.929 . S
C2744 C2743 1.383 . S
C2744 C2745 1.377 . S
C2745 H2729 0.930 . S
C2745 C2744 1.377 . S
C2745 C2746 1.379 . S
C2746 H2730 0.931 . S
C2746 C2740 1.383 . S
C2746 C2745 1.379 . S
H2747 C2741 0.959 . S
H2748 C2741 0.961 . S
H2749 C2741 0.960 . S
H2750 C2742 0.930 . S
H2751 C2743 0.929 . S
C457 C7 1.297 . S
C476 C301 1.302 . S
C493 C315 1.298 . S
C512 C21 1.309 . S
C529 C35 1.299 . S
C548 C329 1.315 . S
C565 C287 1.307 . S
C584 C49 1.316 . S
C601 C63 1.306 . S
C620 C273 1.291 . S
C637 C77 1.297 . S
C656 C231 1.293 . S
C673 C245 1.312 . S
C692 C91 1.277 . S
C709 C105 1.315 . S
C728 C259 1.276 . S
C745 C119 1.298 . S
C764 C413 1.333 . S
C781 C133 1.302 . S
C800 C427 1.305 . S
C817 C441 1.303 . S
C836 C147 1.300 . S
C853 C399 1.300 . S
C872 C161 1.328 . S
C889 C175 1.306 . S
C908 C385 1.275 . S
C925 C343 1.307 . S
C944 C189 1.275 . S
C961 C203 1.297 . S
C980 C357 1.329 . S
C997 C371 1.297 . S
C1016 C217 1.330 . S
C1033 C9 1.270 . S
C1052 C129 1.322 . S
C1069 C23 1.261 . S
C1088 C367 1.315 . S
C1105 C157 1.321 . S
C1124 C37 1.297 . S
C1141 C51 1.266 . S
C1160 C339 1.325 . S
C1177 C65 1.270 . S
C1196 C213 1.312 . S
C1213 C395 1.322 . S
C1232 C79 1.287 . S
C1249 C185 1.321 . S
C1268 C93 1.291 . S
C1285 C423 1.320 . S
C1304 C107 1.296 . S
C1321 C121 1.271 . S
C1340 C17 1.317 . S
C1357 C255 1.320 . S
C1376 C135 1.296 . S
C1393 C45 1.322 . S
C1412 C149 1.232 . S
C1429 C163 1.260 . S
C1448 C227 1.325 . S
C1465 C101 1.322 . S
C1484 C177 1.231 . S
C1501 C283 1.322 . S
C1520 C191 1.261 . S
C1537 C73 1.321 . S
C1556 C205 1.232 . S
C1573 C219 1.270 . S
C1592 C311 1.312 . S
C1609 C353 1.320 . S
C1628 C233 1.247 . S
C1645 C143 1.320 . S
C1664 C247 1.263 . S
C1681 C381 1.321 . S
C1700 C261 1.297 . S
C1717 C275 1.259 . S
C1736 C115 1.319 . S
C1753 C437 1.320 . S
C1772 C289 1.240 . S
C1789 C171 1.321 . S
C1808 C303 1.229 . S
C1825 C409 1.321 . S
C1844 C317 1.290 . S
C1861 C331 1.271 . S
C1880 C199 1.313 . S
C1897 C345 1.260 . S
C1916 C241 1.324 . S
C1933 C31 1.320 . S
C1952 C359 1.296 . S
C1969 C373 1.268 . S
C1988 C269 1.321 . S
C2005 C387 1.273 . S
C2024 C3 1.314 . S
C2041 C401 1.261 . S
C2060 C325 1.325 . S
C2077 C59 1.320 . S
C2096 C415 1.272 . S
C2113 C297 1.322 . S
C2132 C429 1.259 . S
C2149 C443 1.259 . S
C2168 C87 1.321 . S
C2185 C8 1.185 . S
C2204 C64 1.173 . S
C2221 C22 1.188 . S
C2240 C78 1.193 . S
C2257 C92 1.188 . S
C2276 C36 1.195 . S
C2293 C106 1.189 . S
C2312 C50 1.196 . S
C2329 C176 1.185 . S
C2348 C120 1.174 . S
C2365 C190 1.188 . S
C2384 C134 1.194 . S
C2401 C204 1.185 . S
C2420 C148 1.177 . S
C2437 C218 1.186 . S
C2456 C162 1.199 . S
C2473 C232 1.184 . S
C2492 C288 1.170 . S
C2509 C246 1.189 . S
C2528 C302 1.197 . S
C2545 C260 1.185 . S
C2564 C316 1.172 . S
C2581 C330 1.189 . S
C2600 C274 1.197 . S
C2617 C344 1.190 . S
C2636 C400 1.178 . S
C2653 C414 1.186 . S
C2672 C358 1.199 . S
C2689 C428 1.184 . S
C2708 C372 1.187 . S
C2725 C442 1.187 . S
C2744 C386 1.170 . S
