# Generated by pormake.
# Topology mmt, (4)-cn, num edge types: 1
# Building blocks:
#     Node 0, Type 0, BuildingBlock: GALJAG_clean_sbu_0, # of connection points: 4
#     Node 1, Type 0, BuildingBlock: GALJAG_clean_sbu_0, # of connection points: 4
#     Node 2, Type 0, BuildingBlock: GALJAG_clean_sbu_0, # of connection points: 4
#     Node 3, Type 0, BuildingBlock: GALJAG_clean_sbu_0, # of connection points: 4
#     Node 4, Type 0, BuildingBlock: GALJAG_clean_sbu_0, # of connection points: 4
#     Node 5, Type 0, BuildingBlock: GALJAG_clean_sbu_0, # of connection points: 4
#     Node 6, Type 0, BuildingBlock: GALJAG_clean_sbu_0, # of connection points: 4
#     Node 7, Type 0, BuildingBlock: GALJAG_clean_sbu_0, # of connection points: 4
#     Edge 8, Type (0, 0), BuildingBlock: FUNLAD_clean_linker_1, # of connection points: 2
#     Edge 9, Type (0, 0), BuildingBlock: FUNLAD_clean_linker_1, # of connection points: 2
#     Edge 10, Type (0, 0), BuildingBlock: FUNLAD_clean_linker_1, # of connection points: 2
#     Edge 11, Type (0, 0), BuildingBlock: FUNLAD_clean_linker_1, # of connection points: 2
#     Edge 12, Type (0, 0), BuildingBlock: FUNLAD_clean_linker_1, # of connection points: 2
#     Edge 13, Type (0, 0), BuildingBlock: FUNLAD_clean_linker_1, # of connection points: 2
#     Edge 14, Type (0, 0), BuildingBlock: FUNLAD_clean_linker_1, # of connection points: 2
#     Edge 15, Type (0, 0), BuildingBlock: FUNLAD_clean_linker_1, # of connection points: 2
#     Edge 16, Type (0, 0), BuildingBlock: FUNLAD_clean_linker_1, # of connection points: 2
#     Edge 17, Type (0, 0), BuildingBlock: FUNLAD_clean_linker_1, # of connection points: 2
#     Edge 18, Type (0, 0), BuildingBlock: FUNLAD_clean_linker_1, # of connection points: 2
#     Edge 19, Type (0, 0), BuildingBlock: FUNLAD_clean_linker_1, # of connection points: 2
#     Edge 20, Type (0, 0), BuildingBlock: FUNLAD_clean_linker_1, # of connection points: 2
#     Edge 21, Type (0, 0), BuildingBlock: FUNLAD_clean_linker_1, # of connection points: 2
#     Edge 22, Type (0, 0), BuildingBlock: FUNLAD_clean_linker_1, # of connection points: 2
#     Edge 23, Type (0, 0), BuildingBlock: FUNLAD_clean_linker_1, # of connection points: 2
# Relax obj value: 0.016
# Max RMSD: 0.061
# Mean RMSD: 0.061
data_MOF--net-mmt--node1-GALJAG_clean_sbu_0--edge1-FUNLAD_clean_linker_1
_symmetry_space_group_name_H-M    P1
_symmetry_Int_Tables_number       1
_symmetry_cell_setting            triclinic
loop_
_symmetry_equiv_pos_as_xyz
'x, y, z'
_cell_length_a     25.479591
_cell_length_b     38.364249
_cell_length_c     42.538223
_cell_angle_alpha  90.240309
_cell_angle_beta   90.251078
_cell_angle_gamma 90.057119
loop_
_atom_site_label
_atom_site_type_symbol
_atom_site_fract_x
_atom_site_fract_y
_atom_site_fract_z
_atom_type_partial_charge
In0 In 0.14149 0.55516 0.3473 0.0
O1 O 0.22135 0.52858 0.35166 0.0
O2 O 0.19308 0.54031 0.30574 0.0
C3 C 0.10103 0.52975 0.40123 0.0
C4 C 0.17901 0.62067 0.35395 0.0
C5 C 0.0607 0.53985 0.30851 0.0
O6 O 0.13114 0.5122 0.38392 0.0
O7 O 0.09167 0.56016 0.39165 0.0
O8 O 0.06352 0.56855 0.32311 0.0
O9 O 0.09848 0.51934 0.31322 0.0
C10 C 0.22937 0.52767 0.32243 0.0
O11 O 0.14645 0.61264 0.33266 0.0
O12 O 0.19149 0.59614 0.37202 0.0
In13 In 0.38588 0.9312 0.34402 0.0
O14 O 0.31911 0.97037 0.33735 0.0
O15 O 0.34228 0.93959 0.29795 0.0
C16 C 0.4179 0.9503 0.40232 0.0
C17 C 0.33271 0.87083 0.34986 0.0
C18 C 0.4773 0.93889 0.31283 0.0
O19 O 0.39769 0.97173 0.38338 0.0
O20 O 0.42076 0.9195 0.39221 0.0
O21 O 0.46296 0.91008 0.32407 0.0
O22 O 0.4454 0.9636 0.31685 0.0
C23 C 0.31157 0.96238 0.30881 0.0
O24 O 0.37554 0.87276 0.33509 0.0
O25 O 0.31734 0.899 0.36206 0.0
In26 In 0.64341 0.43404 0.16416 0.0
O27 O 0.65072 0.37579 0.17475 0.0
O28 O 0.714 0.40065 0.15124 0.0
C29 C 0.5518 0.44203 0.19476 0.0
C30 C 0.71459 0.4693 0.1989 0.0
C31 C 0.61198 0.45049 0.10518 0.0
O32 O 0.5681 0.41255 0.18591 0.0
O33 O 0.5816 0.46727 0.18832 0.0
O34 O 0.63019 0.47298 0.12399 0.0
O35 O 0.61093 0.41994 0.11571 0.0
C36 C 0.69567 0.37295 0.1626 0.0
O37 O 0.71518 0.46956 0.16919 0.0
O38 O 0.6779 0.45186 0.21095 0.0
In39 In 0.88718 0.05745 0.16331 0.0
O40 O 0.80705 0.03096 0.15982 0.0
O41 O 0.84049 0.03667 0.20531 0.0
C42 C 0.92776 0.03204 0.10924 0.0
C43 C 0.84501 0.12148 0.15614 0.0
C44 C 0.9736 0.05202 0.19984 0.0
O45 O 0.90115 0.01367 0.12777 0.0
O46 O 0.93379 0.06333 0.11772 0.0
O47 O 0.95689 0.0809 0.18992 0.0
O48 O 0.94656 0.02588 0.19167 0.0
C49 C 0.80215 0.0263 0.18892 0.0
O50 O 0.87374 0.11371 0.1793 0.0
O51 O 0.83833 0.09732 0.13638 0.0
In52 In 0.88896 0.44253 0.66796 0.0
O53 O 0.88781 0.3888 0.69138 0.0
O54 O 0.84839 0.39433 0.64765 0.0
C55 C 0.98087 0.4532 0.69836 0.0
C56 C 0.7997 0.47064 0.69095 0.0
C57 C 0.91622 0.47236 0.61294 0.0
O58 O 0.97612 0.43214 0.67572 0.0
O59 O 0.93914 0.4687 0.70612 0.0
O60 O 0.897 0.48964 0.63536 0.0
O61 O 0.92072 0.44015 0.61798 0.0
C62 C 0.86058 0.3746 0.67011 0.0
O63 O 0.80396 0.46041 0.66289 0.0
O64 O 0.84069 0.46738 0.70745 0.0
In65 In 0.62557 0.07195 0.66087 0.0
O66 O 0.701 0.04074 0.65296 0.0
O67 O 0.6747 0.04741 0.69993 0.0
C68 C 0.58562 0.05985 0.60279 0.0
C69 C 0.66217 0.13803 0.66008 0.0
C70 C 0.54556 0.0574 0.7002 0.0
O71 O 0.60735 0.03629 0.61884 0.0
O72 O 0.58485 0.08945 0.61567 0.0
O73 O 0.57608 0.08284 0.70456 0.0
O74 O 0.55561 0.03905 0.67632 0.0
C75 C 0.70914 0.03518 0.68176 0.0
O76 O 0.61506 0.13087 0.66629 0.0
O77 O 0.69069 0.11206 0.65396 0.0
In78 In 0.38942 0.57002 0.85109 0.0
O79 O 0.32216 0.53085 0.85442 0.0
O80 O 0.33688 0.55405 0.80993 0.0
C81 C 0.4322 0.55631 0.90802 0.0
C82 C 0.33672 0.63078 0.85519 0.0
C83 C 0.47542 0.56116 0.81489 0.0
O84 O 0.41227 0.53281 0.89091 0.0
O85 O 0.42977 0.58655 0.89679 0.0
O86 O 0.46222 0.59047 0.82574 0.0
O87 O 0.4448 0.53648 0.82164 0.0
C88 C 0.30871 0.53374 0.82597 0.0
O89 O 0.37547 0.62685 0.83708 0.0
O90 O 0.32515 0.60445 0.87135 0.0
In91 In 0.12592 0.94007 0.83918 0.0
O92 O 0.19587 0.97583 0.83018 0.0
O93 O 0.17099 0.94203 0.79313 0.0
C94 C 0.0995 0.97097 0.89414 0.0
C95 C 0.17204 0.878 0.85043 0.0
C96 C 0.03406 0.94722 0.80773 0.0
O97 O 0.12311 0.987 0.8726 0.0
O98 O 0.08984 0.93938 0.88822 0.0
O99 O 0.04311 0.92182 0.82565 0.0
O100 O 0.07126 0.96873 0.80541 0.0
C101 C 0.20314 0.96488 0.80249 0.0
O102 O 0.13273 0.88099 0.83248 0.0
O103 O 0.18714 0.90594 0.86323 0.0
H104 H 0.31245 0.51199 0.32464 0.0
C105 C 0.27874 0.51452 0.30908 0.0
H106 H 0.24928 0.5092 0.263 0.0
H107 H 0.45926 0.52623 0.18904 0.0
H108 H 0.40682 0.57417 0.16962 0.0
H109 H 0.32161 0.58841 0.19374 0.0
H110 H 0.28794 0.55442 0.23696 0.0
C111 C 0.28312 0.50644 0.27843 0.0
C112 C 0.33468 0.49737 0.26407 0.0
C113 C 0.35444 0.51819 0.23927 0.0
C114 C 0.4044 0.51074 0.22607 0.0
C115 C 0.42225 0.53121 0.20057 0.0
C116 C 0.39245 0.55879 0.18907 0.0
C117 C 0.34444 0.56675 0.20259 0.0
C118 C 0.32549 0.54685 0.22739 0.0
H119 H 0.47338 0.42506 0.21045 0.0
C120 C 0.50104 0.44664 0.21064 0.0
H121 H 0.51603 0.49844 0.22465 0.0
H122 H 0.30438 0.44758 0.30648 0.0
H123 H 0.35893 0.40181 0.32817 0.0
H124 H 0.45042 0.39429 0.31068 0.0
H125 H 0.48715 0.43165 0.27063 0.0
C126 C 0.48846 0.47679 0.2249 0.0
C127 C 0.4354 0.48322 0.23833 0.0
C128 C 0.41591 0.46261 0.26337 0.0
C129 C 0.36459 0.46872 0.27526 0.0
C130 C 0.34426 0.44563 0.29808 0.0
C131 C 0.37498 0.41899 0.31051 0.0
C132 C 0.42637 0.41463 0.30054 0.0
C133 C 0.44682 0.4361 0.27728 0.0
H134 H 0.04092 0.07329 0.22659 0.0
C135 C 0.02166 0.04935 0.21909 0.0
H136 H 0.02296 0.99439 0.21992 0.0
H137 H 0.26987 0.03638 0.2564 0.0
H138 H 0.27467 0.06206 0.20447 0.0
H139 H 0.1961 0.0653 0.17052 0.0
H140 H 0.11216 0.0437 0.18853 0.0
C141 C 0.04267 0.01841 0.22674 0.0
C142 C 0.091 0.01567 0.24644 0.0
C143 C 0.14026 0.02717 0.2349 0.0
C144 C 0.18621 0.02355 0.25376 0.0
C145 C 0.23429 0.03703 0.24246 0.0
C146 C 0.23751 0.05207 0.21279 0.0
C147 C 0.19324 0.05403 0.19373 0.0
C148 C 0.14513 0.04173 0.2045 0.0
H149 H 0.26276 0.96574 0.26618 0.0
C150 C 0.26775 0.97606 0.28985 0.0
H151 H 0.23572 0.00789 0.32544 0.0
H152 H 1.00257 0.99271 0.27628 0.0
H153 H 0.99844 0.96535 0.32748 0.0
H154 H 0.07876 0.95613 0.35892 0.0
H155 H 0.16357 0.97447 0.33953 0.0
C156 C 0.23213 0.99844 0.30141 0.0
C157 C 0.18341 0.00665 0.28332 0.0
C158 C 0.13407 0.99562 0.29502 0.0
C159 C 0.08785 1.00031 0.27663 0.0
C160 C 0.03905 0.98931 0.28902 0.0
C161 C 0.03606 0.97363 0.31843 0.0
C162 C 0.08127 0.96848 0.33614 0.0
C163 C 0.12977 0.97923 0.3247 0.0
H164 H 0.74754 0.48854 0.24362 0.0
C165 C 0.755 0.48618 0.21856 0.0
H166 H 0.80988 0.49311 0.18211 0.0
H167 H 0.95917 0.59992 0.25076 0.0
H168 H 0.92504 0.63475 0.20786 0.0
H169 H 0.85314 0.61274 0.17419 0.0
H170 H 0.81532 0.5556 0.18295 0.0
C171 C 0.80209 0.49533 0.20714 0.0
C172 C 0.84475 0.50875 0.2281 0.0
C173 C 0.86576 0.54251 0.22305 0.0
C174 C 0.90657 0.5555 0.24286 0.0
C175 C 0.92771 0.58893 0.23672 0.0
C176 C 0.9085 0.60921 0.21215 0.0
C177 C 0.86806 0.59681 0.19317 0.0
C178 C 0.84677 0.5639 0.19844 0.0
H179 H 0.01998 0.50589 0.27459 0.0
C180 C 0.01631 0.52984 0.28815 0.0
H181 H 0.96685 0.57181 0.30051 0.0
H182 H 0.82088 0.44035 0.24127 0.0
H183 H 0.85018 0.4074 0.28642 0.0
H184 H 0.91127 0.43333 0.32515 0.0
H185 H 0.94487 0.49187 0.31815 0.0
C186 C 0.97094 0.54762 0.28738 0.0
C187 C 0.92573 0.53495 0.26804 0.0
C188 C 0.90317 0.50176 0.27391 0.0
C189 C 0.86456 0.48796 0.25306 0.0
C190 C 0.84728 0.4532 0.25754 0.0
C191 C 0.86428 0.43378 0.28322 0.0
C192 C 0.89891 0.44827 0.3049 0.0
C193 C 0.91828 0.48182 0.30042 0.0
H194 H 0.71991 0.00889 0.18682 0.0
C195 C 0.75353 0.01208 0.2024 0.0
H196 H 0.78213 0.00827 0.24879 0.0
H197 H 0.56544 0.02509 0.31705 0.0
H198 H 0.61431 0.07512 0.336 0.0
H199 H 0.70092 0.08963 0.31393 0.0
H200 H 0.73955 0.05385 0.27319 0.0
C201 C 0.74889 0.00442 0.23305 0.0
C202 C 0.69712 0.99472 0.24682 0.0
C203 C 0.67461 0.01636 0.27029 0.0
C204 C 0.62391 0.00862 0.28233 0.0
C205 C 0.60317 0.03015 0.30643 0.0
C206 C 0.63089 0.05895 0.31765 0.0
C207 C 0.67969 0.06707 0.30528 0.0
C208 C 0.70147 0.04617 0.2819 0.0
H209 H 0.5573 0.92265 0.29951 0.0
C210 C 0.52869 0.94354 0.29762 0.0
H211 H 0.51274 0.99413 0.28113 0.0
H212 H 0.73251 0.94388 0.20672 0.0
H213 H 0.68186 0.89562 0.1855 0.0
H214 H 0.58975 0.88666 0.20119 0.0
H215 H 0.54839 0.92516 0.2389 0.0
C216 C 0.54114 0.97305 0.28244 0.0
C217 C 0.59505 0.9798 0.27031 0.0
C218 C 0.61744 0.95824 0.2467 0.0
C219 C 0.6693 0.9649 0.2359 0.0
C220 C 0.69226 0.94126 0.21433 0.0
C221 C 0.66378 0.91325 0.20217 0.0
C222 C 0.61203 0.9081 0.21113 0.0
C223 C 0.5889 0.93026 0.23306 0.0
H224 H 0.55214 0.57775 0.79627 0.0
C225 C 0.52479 0.55604 0.79751 0.0
H226 H 0.51084 0.5032 0.78668 0.0
H227 H 0.71856 0.54995 0.69929 0.0
H228 H 0.66131 0.59232 0.67464 0.0
H229 H 0.57012 0.59996 0.69264 0.0
H230 H 0.5362 0.566 0.73595 0.0
C231 C 0.53765 0.52514 0.7847 0.0
C232 C 0.59076 0.51846 0.7713 0.0
C233 C 0.60893 0.53715 0.74473 0.0
C234 C 0.66042 0.53113 0.733 0.0
C235 C 0.67892 0.55208 0.70804 0.0
C236 C 0.64659 0.57673 0.69384 0.0
C237 C 0.59535 0.58115 0.70407 0.0
C238 C 0.57651 0.56165 0.72917 0.0
H239 H 0.71489 0.48146 0.68851 0.0
C240 C 0.74942 0.48345 0.70351 0.0
H241 H 0.77892 0.49728 0.74821 0.0
H242 H 0.56935 0.47902 0.82336 0.0
H243 H 0.6249 0.43459 0.84618 0.0
H244 H 0.71128 0.42097 0.82329 0.0
H245 H 0.74297 0.45211 0.77778 0.0
C246 C 0.74473 0.49608 0.73288 0.0
C247 C 0.69234 0.50471 0.74643 0.0
C248 C 0.6739 0.48574 0.77275 0.0
C249 C 0.6234 0.4929 0.78539 0.0
C250 C 0.60677 0.4742 0.81226 0.0
C251 C 0.63836 0.44864 0.82571 0.0
C252 C 0.68703 0.44103 0.81288 0.0
C253 C 0.70479 0.45923 0.78673 0.0
H254 H 0.7876 0.01167 0.67617 0.0
C255 C 0.75767 0.01853 0.69324 0.0
H256 H 0.73814 0.02235 0.74123 0.0
H257 H 0.95295 0.92141 0.7385 0.0
H258 H 0.90005 0.87936 0.70981 0.0
H259 H 0.80928 0.89331 0.6939 0.0
H260 H 0.77131 0.94971 0.70599 0.0
C261 C 0.76727 0.01431 0.72408 0.0
C262 C 0.82022 0.00419 0.73592 0.0
C263 C 0.84097 0.97053 0.72987 0.0
C264 C 0.89239 0.96183 0.74051 0.0
C265 C 0.91333 0.92885 0.73234 0.0
C266 C 0.8835 0.90454 0.71564 0.0
C267 C 0.83247 0.91244 0.70657 0.0
C268 C 0.81126 0.945 0.71352 0.0
H269 H 0.9502 0.93581 0.7993 0.0
C270 C 0.98279 0.95227 0.79223 0.0
H271 H 1.00763 0.99425 0.7642 0.0
H272 H 0.79294 0.07138 0.75082 0.0
H273 H 0.84424 0.11253 0.78145 0.0
H274 H 0.93101 0.09626 0.80266 0.0
H275 H 0.96724 0.03893 0.79306 0.0
C276 C 0.97519 0.9774 0.77077 0.0
C277 C 0.92188 0.9862 0.75858 0.0
C278 C 0.90074 0.01969 0.76498 0.0
C279 C 0.85013 0.02877 0.75343 0.0
C280 C 0.83069 0.06275 0.75951 0.0
C281 C 0.8598 0.08673 0.77702 0.0
C282 C 0.90868 0.0776 0.7889 0.0
C283 C 0.92908 0.04455 0.78308 0.0
H284 H 0.23588 0.50293 0.82971 0.0
C285 C 0.2608 0.51705 0.81344 0.0
H286 H 0.26945 0.53624 0.76742 0.0
H287 H 0.07193 0.42021 0.759 0.0
H288 H 0.13542 0.37659 0.77481 0.0
H289 H 0.22641 0.39322 0.78814 0.0
H290 H 0.254 0.45367 0.78652 0.0
C291 C 0.24543 0.5211 0.78342 0.0
C292 C 0.19226 0.51004 0.77245 0.0
C293 C 0.1776 0.47434 0.77196 0.0
C294 C 0.126 0.4645 0.76242 0.0
C295 C 0.11131 0.42896 0.76437 0.0
C296 C 0.14727 0.40366 0.77368 0.0
C297 C 0.19842 0.41304 0.78133 0.0
C298 C 0.21363 0.44791 0.78051 0.0
H299 H 0.06686 0.44911 0.70222 0.0
C300 C 0.03218 0.46011 0.71325 0.0
H301 H 1.00293 0.49175 0.74977 0.0
H302 H 0.20663 0.58091 0.7718 0.0
H303 H 0.14448 0.62417 0.75369 0.0
H304 H 0.05727 0.60676 0.73372 0.0
H305 H 0.03147 0.54604 0.7321 0.0
C306 C 0.0374 0.48009 0.73908 0.0
C307 C 0.09021 0.49015 0.75149 0.0
C308 C 0.10506 0.5258 0.75175 0.0
C309 C 0.15588 0.53577 0.76251 0.0
C310 C 0.16904 0.57169 0.76325 0.0
C311 C 0.13365 0.59688 0.75301 0.0
C312 C 0.08453 0.58708 0.74182 0.0
C313 C 0.0702 0.55205 0.74111 0.0
H314 H 0.25084 0.96487 0.75945 0.0
C315 C 0.24703 0.97644 0.7827 0.0
H316 H 0.28081 0.01016 0.81652 0.0
H317 H 0.51018 0.99433 0.76192 0.0
H318 H 0.51855 0.96574 0.81242 0.0
H319 H 0.44097 0.95594 0.84573 0.0
H320 H 0.35457 0.97463 0.82876 0.0
C321 C 0.28314 0.99943 0.79288 0.0
C322 C 0.33016 0.00768 0.77358 0.0
C323 C 0.38055 0.99709 0.78415 0.0
C324 C 0.42536 0.00288 0.76502 0.0
C325 C 0.47497 0.99112 0.77572 0.0
C326 C 0.48031 0.97451 0.80461 0.0
C327 C 0.43663 0.96898 0.82335 0.0
C328 C 0.38723 0.97994 0.81333 0.0
H329 H 0.49655 0.06646 0.7421 0.0
C330 C 0.5012 0.05023 0.72129 0.0
H331 H 0.46911 0.00951 0.69367 0.0
H332 H 0.2405 0.03549 0.74818 0.0
H333 H 0.23227 0.06401 0.69764 0.0
H334 H 0.30954 0.07223 0.66371 0.0
H335 H 0.39561 0.05228 0.68029 0.0
C336 C 0.46609 0.02501 0.71503 0.0
C337 C 0.4197 0.01949 0.73549 0.0
C338 C 0.3695 0.03055 0.72514 0.0
C339 C 0.32476 0.0251 0.74439 0.0
C340 C 0.27549 0.03785 0.73405 0.0
C341 C 0.27028 0.05454 0.70519 0.0
C342 C 0.3138 0.05922 0.68611 0.0
C343 C 0.36295 0.04756 0.69589 0.0
H344 H 0.08796 0.48866 0.43646 0.0
C345 C 0.07802 0.51527 0.43008 0.0
H346 H 0.03575 0.56059 0.44258 0.0
H347 H 0.90878 0.43787 0.52143 0.0
H348 H 0.87731 0.41899 0.47024 0.0
H349 H 0.91098 0.44588 0.42175 0.0
H350 H 0.97646 0.49172 0.42417 0.0
C351 C 0.04495 0.53367 0.44818 0.0
C352 C 0.02252 0.51853 0.47734 0.0
C353 C 0.98388 0.49195 0.47551 0.0
C354 C 0.96412 0.47669 0.50349 0.0
C355 C 0.92544 0.45025 0.50095 0.0
C356 C 0.90687 0.43923 0.47171 0.0
C357 C 0.92585 0.45435 0.44441 0.0
C358 C 0.96371 0.4805 0.44614 0.0
H359 H 0.92612 0.51652 0.58033 0.0
C360 C 0.93419 0.48898 0.58372 0.0
H361 H 0.97002 0.44373 0.56537 0.0
H362 H 0.09447 0.57001 0.48897 0.0
H363 H 0.12698 0.58852 0.54005 0.0
H364 H 0.09547 0.56052 0.58854 0.0
H365 H 0.03094 0.51424 0.5863 0.0
C366 C 0.96249 0.4714 0.56231 0.0
C367 C 0.98258 0.48827 0.53326 0.0
C368 C 0.02123 0.51492 0.53507 0.0
C369 C 0.0405 0.53045 0.50707 0.0
C370 C 0.07867 0.55721 0.50949 0.0
C371 C 0.09778 0.56805 0.53865 0.0
C372 C 0.07995 0.55234 0.56595 0.0
C373 C 0.04243 0.52595 0.56432 0.0
H374 H 0.4563 0.93948 0.44764 0.0
C375 C 0.43933 0.96006 0.43334 0.0
H376 H 0.42637 0.01416 0.42908 0.0
H377 H 0.48062 0.98745 0.58169 0.0
H378 H 0.39819 0.95591 0.58323 0.0
H379 H 0.34644 0.94607 0.53485 0.0
H380 H 0.377 0.96753 0.48462 0.0
C381 C 0.44117 0.99315 0.44369 0.0
C382 C 0.46917 1.00211 0.47351 0.0
C383 C 0.45025 0.98992 0.50281 0.0
C384 C 0.47967 0.99613 0.53079 0.0
C385 C 0.45999 0.98345 0.55968 0.0
C386 C 0.41261 0.96538 0.56094 0.0
C387 C 0.38352 0.9598 0.53369 0.0
C388 C 0.40176 0.97201 0.50495 0.0
H389 H 0.54292 0.07548 0.55993 0.0
C390 C 0.56076 0.0535 0.57195 0.0
H391 H 0.57331 0.99915 0.57156 0.0
H392 H 0.51536 0.03049 0.42149 0.0
H393 H 0.5972 0.06266 0.42004 0.0
H394 H 0.64864 0.07289 0.46847 0.0
H395 H 0.61846 0.0511 0.51863 0.0
C396 C 0.55759 0.02153 0.55911 0.0
C397 C 0.52733 0.01519 0.52958 0.0
C398 C 0.54573 0.028 0.50038 0.0
C399 C 0.51636 0.02171 0.47237 0.0
C400 C 0.53589 0.03456 0.44351 0.0
C401 C 0.58293 0.05302 0.44231 0.0
C402 C 0.61186 0.05881 0.46958 0.0
C403 C 0.59384 0.04636 0.49829 0.0
H404 H 0.57486 0.43753 0.05982 0.0
C405 C 0.59015 0.4589 0.07403 0.0
H406 H 0.59819 0.51345 0.07832 0.0
H407 H 0.54325 0.48585 0.92593 0.0
H408 H 0.62838 0.45785 0.92321 0.0
H409 H 0.6818 0.44936 0.97107 0.0
H410 H 0.65028 0.46867 0.02195 0.0
C411 C 0.58525 0.49175 0.06371 0.0
C412 C 0.5555 0.49937 0.0343 0.0
C413 C 0.57487 0.48835 0.00466 0.0
C414 C 0.5444 0.49373 0.977 0.0
C415 C 0.56464 0.48238 0.94772 0.0
C416 C 0.61355 0.46634 0.94579 0.0
C417 C 0.64359 0.46152 0.97274 0.0
C418 C 0.62482 0.47249 1.00185 0.0
H419 H 0.4741 0.57148 0.95137 0.0
C420 C 0.45816 0.54941 0.93835 0.0
H421 H 0.45048 0.49467 0.93624 0.0
H422 H 0.50743 0.52447 0.08728 0.0
H423 H 0.42243 0.55256 0.08997 0.0
H424 H 0.36907 0.56113 0.0421 0.0
H425 H 0.4005 0.54178 0.99127 0.0
C426 C 0.46432 0.51706 0.94966 0.0
C427 C 0.49512 0.51074 0.97892 0.0
C428 C 0.47591 0.52199 0.00853 0.0
C429 C 0.50638 0.5166 0.03619 0.0
C430 C 0.48611 0.52795 0.06547 0.0
C431 C 0.43726 0.54406 0.06739 0.0
C432 C 0.40725 0.54892 0.04044 0.0
C433 C 0.42599 0.53791 0.01134 0.0
H434 H 0.09341 0.01562 0.92686 0.0
C435 C 0.08311 0.98837 0.92345 0.0
H436 H 0.04501 0.94434 0.94238 0.0
H437 H 0.05286 0.99726 0.08311 0.0
H438 H 0.11955 0.95225 0.08437 0.0
H439 H 0.14915 0.92377 0.03547 0.0
H440 H 0.11244 0.9403 0.98498 0.0
C441 C 0.05445 0.97181 0.94523 0.0
C442 C 0.03685 0.9896 0.97452 0.0
C443 C 0.05809 0.97926 1.00389 0.0
C444 C 0.04045 0.9953 0.03213 0.0
C445 C 0.06369 0.98527 0.06102 0.0
C446 C 0.10232 0.95963 0.06207 0.0
C447 C 0.11903 0.94362 0.03453 0.0
C448 C 0.09749 0.9533 0.00571 0.0
H449 H 0.94261 0.99024 0.07473 0.0
C450 C 0.9502 0.01751 0.08015 0.0
H451 H 0.98637 0.06412 0.06519 0.0
H452 H 0.98531 0.01422 0.92235 0.0
H453 H 0.91951 0.0597 0.92113 0.0
H454 H 0.89036 0.08835 0.97003 0.0
H455 H 0.92666 0.07146 0.02051 0.0
C456 C 0.97969 0.03659 0.06056 0.0
C457 C 1.00084 0.02124 0.031 0.0
C458 C 0.98035 0.0321 1.0016 0.0
C459 C 0.99789 0.016 0.97334 0.0
C460 C 0.97475 0.02621 0.94446 0.0
C461 C 0.93658 0.05216 0.94343 0.0
C462 C 0.92011 0.06825 0.97097 0.0
C463 C 0.94138 0.05834 0.99979 0.0
H464 H 0.23659 0.65783 0.37309 0.0
C465 C 0.20391 0.65519 0.35673 0.0
H466 H 0.15735 0.67993 0.3224 0.0
H467 H 0.30012 0.79992 0.4027 0.0
H468 H 0.253 0.7812 0.44899 0.0
H469 H 0.18723 0.73408 0.44564 0.0
H470 H 0.16972 0.70462 0.39615 0.0
C471 C 0.18921 0.68263 0.33931 0.0
C472 C 0.21983 0.71583 0.34017 0.0
C473 C 0.22657 0.73457 0.36877 0.0
C474 C 0.26137 0.76357 0.37017 0.0
C475 C 0.27151 0.77934 0.39976 0.0
C476 C 0.24512 0.76859 0.42664 0.0
C477 C 0.20833 0.74194 0.4248 0.0
C478 C 0.19902 0.72503 0.39628 0.0
H479 H 0.26115 0.84095 0.36032 0.0
C480 C 0.30112 0.83876 0.35171 0.0
H481 H 0.35943 0.80539 0.33375 0.0
H482 H 0.21533 0.68629 0.28136 0.0
H483 H 0.25696 0.70784 0.23425 0.0
H484 H 0.31088 0.76124 0.23565 0.0
H485 H 0.32418 0.79307 0.28428 0.0
C486 C 0.31978 0.80751 0.34288 0.0
C487 C 0.2857 0.77583 0.34232 0.0
C488 C 0.2771 0.758 0.31344 0.0
C489 C 0.24473 0.72775 0.31245 0.0
C490 C 0.23854 0.70979 0.28347 0.0
C491 C 0.26233 0.72184 0.25618 0.0
C492 C 0.29276 0.75186 0.25698 0.0
C493 C 0.30018 0.76984 0.28516 0.0
H494 H 0.7886 0.15795 0.13485 0.0
C495 C 0.81859 0.15539 0.15295 0.0
H496 H 0.85859 0.1797 0.19056 0.0
H497 H 0.72974 0.30386 0.10902 0.0
H498 H 0.78228 0.2867 0.06424 0.0
H499 H 0.84562 0.23832 0.06831 0.0
H500 H 0.8553 0.20609 0.11685 0.0
C501 C 0.82936 0.18246 0.17205 0.0
C502 C 0.79811 0.2153 0.1708 0.0
C503 C 0.79589 0.23549 0.14292 0.0
C504 C 0.76248 0.26514 0.14134 0.0
C505 C 0.75705 0.28262 0.11223 0.0
C506 C 0.7866 0.27281 0.0862 0.0
C507 C 0.82202 0.24545 0.08843 0.0
C508 C 0.82681 0.22694 0.11639 0.0
H509 H 0.7669 0.34148 0.15584 0.0
C510 C 0.72557 0.34017 0.16197 0.0
H511 H 0.66223 0.30782 0.17455 0.0
H512 H 0.7923 0.18226 0.22778 0.0
H513 H 0.74437 0.2018 0.27357 0.0
H514 H 0.69272 0.2561 0.27226 0.0
H515 H 0.68804 0.29089 0.22498 0.0
C516 C 0.7034 0.30918 0.16806 0.0
C517 C 0.73498 0.27644 0.16851 0.0
C518 C 0.7383 0.25679 0.19662 0.0
C519 C 0.76931 0.22598 0.19765 0.0
C520 C 0.77039 0.20628 0.22577 0.0
C521 C 0.7429 0.21714 0.25228 0.0
C522 C 0.71375 0.24767 0.25153 0.0
C523 C 0.71133 0.26736 0.22413 0.0
H524 H 0.65394 0.19518 0.66294 0.0
C525 C 0.68202 0.17408 0.66019 0.0
H526 H 0.76159 0.16037 0.65436 0.0
H527 H 0.83725 0.30348 0.59895 0.0
H528 H 0.84881 0.26456 0.5545 0.0
H529 H 0.81609 0.20407 0.55616 0.0
H530 H 0.77206 0.18204 0.60239 0.0
C531 C 0.73344 0.18132 0.65767 0.0
C532 C 0.75311 0.2179 0.65703 0.0
C533 C 0.77825 0.2305 0.62965 0.0
C534 C 0.79616 0.2656 0.62845 0.0
C535 C 0.82203 0.27726 0.601 0.0
C536 C 0.82907 0.25516 0.5753 0.0
C537 C 0.81072 0.2211 0.57626 0.0
C538 C 0.78558 0.20877 0.60301 0.0
H539 H 0.85979 0.32173 0.69038 0.0
C540 C 0.8433 0.33804 0.672 0.0
H541 H 0.79026 0.34124 0.6339 0.0
H542 H 0.71455 0.20072 0.71508 0.0
H543 H 0.69868 0.24033 0.75851 0.0
H544 H 0.72045 0.30279 0.7542 0.0
H545 H 0.75962 0.32572 0.70683 0.0
C546 C 0.80634 0.32511 0.65255 0.0
C547 C 0.78824 0.28823 0.65445 0.0
C548 C 0.76242 0.27575 0.68171 0.0
C549 C 0.74657 0.24024 0.68342 0.0
C550 C 0.72472 0.22783 0.71183 0.0
C551 C 0.71578 0.25024 0.73707 0.0
C552 C 0.72828 0.28535 0.73471 0.0
C553 C 0.75124 0.29812 0.70742 0.0
H554 H 0.26808 0.66191 0.86901 0.0
C555 C 0.30546 0.66297 0.85683 0.0
H556 H 0.35836 0.69402 0.83128 0.0
H557 H 0.19811 0.80583 0.78295 0.0
H558 H 0.22854 0.77958 0.73452 0.0
H559 H 0.28486 0.72735 0.73533 0.0
H560 H 0.31174 0.7014 0.7846 0.0
C561 C 0.32139 0.69302 0.84389 0.0
C562 C 0.28711 0.72455 0.84383 0.0
C563 C 0.27069 0.73895 0.81474 0.0
C564 C 0.23697 0.76849 0.81425 0.0
C565 C 0.2227 0.78297 0.78482 0.0
C566 C 0.24001 0.76821 0.75676 0.0
C567 C 0.27178 0.73885 0.75722 0.0
C568 C 0.28704 0.72427 0.78575 0.0
H569 H 0.23783 0.84614 0.86764 0.0
C570 C 0.201 0.84515 0.85467 0.0
H571 H 0.14875 0.81399 0.82822 0.0
H572 H 0.31806 0.70774 0.90382 0.0
H573 H 0.28304 0.73145 0.95224 0.0
H574 H 0.21547 0.77745 0.95123 0.0
H575 H 0.18391 0.80076 0.90177 0.0
C576 C 0.18482 0.81488 0.84194 0.0
C577 C 0.21861 0.78314 0.84285 0.0
C578 C 0.23388 0.76815 0.87194 0.0
C579 C 0.26988 0.73982 0.87247 0.0
C580 C 0.28827 0.72767 0.90193 0.0
C581 C 0.26889 0.74131 0.92996 0.0
C582 C 0.23107 0.76733 0.92939 0.0
C583 C 0.21364 0.7807 0.90081 0.0
loop_
_geom_bond_atom_site_label_1
_geom_bond_atom_site_label_2
_geom_bond_distance
_geom_bond_site_symmetry_2
_ccdc_geom_bond_type
In0 O1 2.294 . S
In0 O2 2.326 . S
In0 O6 2.266 . S
In0 O7 2.326 . S
In0 O8 2.266 . S
In0 O9 2.326 . S
In0 O11 2.294 . S
In0 O12 2.326 . S
O1 In0 2.294 . S
O1 C10 1.240 . S
O2 In0 2.326 . S
O2 C10 1.252 . S
C3 O6 1.252 . S
C3 O7 1.260 . S
C4 O11 1.240 . S
C4 O12 1.252 . S
C5 O8 1.252 . S
C5 O9 1.260 . S
O6 In0 2.266 . S
O6 C3 1.252 . S
O7 In0 2.326 . S
O7 C3 1.260 . S
O8 In0 2.266 . S
O8 C5 1.252 . S
O9 In0 2.326 . S
O9 C5 1.260 . S
C10 O1 1.240 . S
C10 O2 1.252 . S
O11 In0 2.294 . S
O11 C4 1.240 . S
O12 In0 2.326 . S
O12 C4 1.252 . S
In13 O14 2.294 . S
In13 O15 2.326 . S
In13 O19 2.266 . S
In13 O20 2.326 . S
In13 O21 2.266 . S
In13 O22 2.326 . S
In13 O24 2.294 . S
In13 O25 2.326 . S
O14 In13 2.294 . S
O14 C23 1.240 . S
O15 In13 2.326 . S
O15 C23 1.252 . S
C16 O19 1.252 . S
C16 O20 1.260 . S
C17 O24 1.240 . S
C17 O25 1.252 . S
C18 O21 1.252 . S
C18 O22 1.260 . S
O19 In13 2.266 . S
O19 C16 1.252 . S
O20 In13 2.326 . S
O20 C16 1.260 . S
O21 In13 2.266 . S
O21 C18 1.252 . S
O22 In13 2.326 . S
O22 C18 1.260 . S
C23 O14 1.240 . S
C23 O15 1.252 . S
O24 In13 2.294 . S
O24 C17 1.240 . S
O25 In13 2.326 . S
O25 C17 1.252 . S
In26 O27 2.294 . S
In26 O28 2.326 . S
In26 O32 2.266 . S
In26 O33 2.326 . S
In26 O34 2.266 . S
In26 O35 2.326 . S
In26 O37 2.294 . S
In26 O38 2.326 . S
O27 In26 2.294 . S
O27 C36 1.240 . S
O28 In26 2.326 . S
O28 C36 1.252 . S
C29 O32 1.252 . S
C29 O33 1.260 . S
C30 O37 1.240 . S
C30 O38 1.252 . S
C31 O34 1.252 . S
C31 O35 1.260 . S
O32 In26 2.266 . S
O32 C29 1.252 . S
O33 In26 2.326 . S
O33 C29 1.260 . S
O34 In26 2.266 . S
O34 C31 1.252 . S
O35 In26 2.326 . S
O35 C31 1.260 . S
C36 O27 1.240 . S
C36 O28 1.252 . S
O37 In26 2.294 . S
O37 C30 1.240 . S
O38 In26 2.326 . S
O38 C30 1.252 . S
In39 O40 2.294 . S
In39 O41 2.326 . S
In39 O45 2.266 . S
In39 O46 2.326 . S
In39 O47 2.266 . S
In39 O48 2.326 . S
In39 O50 2.294 . S
In39 O51 2.326 . S
O40 In39 2.294 . S
O40 C49 1.240 . S
O41 In39 2.326 . S
O41 C49 1.252 . S
C42 O45 1.252 . S
C42 O46 1.260 . S
C43 O50 1.240 . S
C43 O51 1.252 . S
C44 O47 1.252 . S
C44 O48 1.260 . S
O45 In39 2.266 . S
O45 C42 1.252 . S
O46 In39 2.326 . S
O46 C42 1.260 . S
O47 In39 2.266 . S
O47 C44 1.252 . S
O48 In39 2.326 . S
O48 C44 1.260 . S
C49 O40 1.240 . S
C49 O41 1.252 . S
O50 In39 2.294 . S
O50 C43 1.240 . S
O51 In39 2.326 . S
O51 C43 1.252 . S
In52 O53 2.294 . S
In52 O54 2.326 . S
In52 O58 2.266 . S
In52 O59 2.326 . S
In52 O60 2.266 . S
In52 O61 2.326 . S
In52 O63 2.294 . S
In52 O64 2.326 . S
O53 In52 2.294 . S
O53 C62 1.240 . S
O54 In52 2.326 . S
O54 C62 1.252 . S
C55 O58 1.252 . S
C55 O59 1.260 . S
C56 O63 1.240 . S
C56 O64 1.252 . S
C57 O60 1.252 . S
C57 O61 1.260 . S
O58 In52 2.266 . S
O58 C55 1.252 . S
O59 In52 2.326 . S
O59 C55 1.260 . S
O60 In52 2.266 . S
O60 C57 1.252 . S
O61 In52 2.326 . S
O61 C57 1.260 . S
C62 O53 1.240 . S
C62 O54 1.252 . S
O63 In52 2.294 . S
O63 C56 1.240 . S
O64 In52 2.326 . S
O64 C56 1.252 . S
In65 O66 2.294 . S
In65 O67 2.326 . S
In65 O71 2.266 . S
In65 O72 2.326 . S
In65 O73 2.266 . S
In65 O74 2.326 . S
In65 O76 2.294 . S
In65 O77 2.326 . S
O66 In65 2.294 . S
O66 C75 1.240 . S
O67 In65 2.326 . S
O67 C75 1.252 . S
C68 O71 1.252 . S
C68 O72 1.260 . S
C69 O76 1.240 . S
C69 O77 1.252 . S
C70 O73 1.252 . S
C70 O74 1.260 . S
O71 In65 2.266 . S
O71 C68 1.252 . S
O72 In65 2.326 . S
O72 C68 1.260 . S
O73 In65 2.266 . S
O73 C70 1.252 . S
O74 In65 2.326 . S
O74 C70 1.260 . S
C75 O66 1.240 . S
C75 O67 1.252 . S
O76 In65 2.294 . S
O76 C69 1.240 . S
O77 In65 2.326 . S
O77 C69 1.252 . S
In78 O79 2.294 . S
In78 O80 2.326 . S
In78 O84 2.266 . S
In78 O85 2.326 . S
In78 O86 2.266 . S
In78 O87 2.326 . S
In78 O89 2.294 . S
In78 O90 2.326 . S
O79 In78 2.294 . S
O79 C88 1.240 . S
O80 In78 2.326 . S
O80 C88 1.252 . S
C81 O84 1.252 . S
C81 O85 1.260 . S
C82 O89 1.240 . S
C82 O90 1.252 . S
C83 O86 1.252 . S
C83 O87 1.260 . S
O84 In78 2.266 . S
O84 C81 1.252 . S
O85 In78 2.326 . S
O85 C81 1.260 . S
O86 In78 2.266 . S
O86 C83 1.252 . S
O87 In78 2.326 . S
O87 C83 1.260 . S
C88 O79 1.240 . S
C88 O80 1.252 . S
O89 In78 2.294 . S
O89 C82 1.240 . S
O90 In78 2.326 . S
O90 C82 1.252 . S
In91 O92 2.294 . S
In91 O93 2.326 . S
In91 O97 2.266 . S
In91 O98 2.326 . S
In91 O99 2.266 . S
In91 O100 2.326 . S
In91 O102 2.294 . S
In91 O103 2.326 . S
O92 In91 2.294 . S
O92 C101 1.240 . S
O93 In91 2.326 . S
O93 C101 1.252 . S
C94 O97 1.252 . S
C94 O98 1.260 . S
C95 O102 1.240 . S
C95 O103 1.252 . S
C96 O99 1.252 . S
C96 O100 1.260 . S
O97 In91 2.266 . S
O97 C94 1.252 . S
O98 In91 2.326 . S
O98 C94 1.260 . S
O99 In91 2.266 . S
O99 C96 1.252 . S
O100 In91 2.326 . S
O100 C96 1.260 . S
C101 O92 1.240 . S
C101 O93 1.252 . S
O102 In91 2.294 . S
O102 C95 1.240 . S
O103 In91 2.326 . S
O103 C95 1.252 . S
H104 C105 0.951 . S
C105 H104 0.951 . S
C105 C111 1.265 . S
H106 C111 0.950 . S
H107 C115 0.949 . S
H108 C116 0.950 . S
H109 C117 0.951 . S
H110 C118 0.951 . S
C111 C105 1.265 . S
C111 H106 0.950 . S
C111 C112 1.478 . S
C112 C111 1.478 . S
C112 C113 1.397 . S
C112 C129 1.394 . S
C113 C112 1.397 . S
C113 C114 1.438 . S
C113 C118 1.429 . S
C114 C113 1.438 . S
C114 C115 1.428 . S
C114 C127 1.394 . S
C115 H107 0.949 . S
C115 C114 1.428 . S
C115 C116 1.345 . S
C116 H108 0.950 . S
C116 C115 1.345 . S
C116 C117 1.424 . S
C117 H109 0.951 . S
C117 C116 1.424 . S
C117 C118 1.347 . S
C118 H110 0.951 . S
C118 C113 1.429 . S
C118 C117 1.347 . S
H119 C120 0.951 . S
C120 H119 0.951 . S
C120 C126 1.265 . S
H121 C126 0.950 . S
H122 C130 0.949 . S
H123 C131 0.950 . S
H124 C132 0.951 . S
H125 C133 0.951 . S
C126 C120 1.265 . S
C126 H121 0.950 . S
C126 C127 1.478 . S
C127 C114 1.394 . S
C127 C126 1.478 . S
C127 C128 1.397 . S
C128 C127 1.397 . S
C128 C129 1.438 . S
C128 C133 1.429 . S
C129 C112 1.394 . S
C129 C128 1.438 . S
C129 C130 1.428 . S
C130 H122 0.949 . S
C130 C129 1.428 . S
C130 C131 1.345 . S
C131 H123 0.950 . S
C131 C130 1.345 . S
C131 C132 1.424 . S
C132 H124 0.951 . S
C132 C131 1.424 . S
C132 C133 1.347 . S
C133 H125 0.951 . S
C133 C128 1.429 . S
C133 C132 1.347 . S
H134 C135 0.951 . S
C135 H134 0.951 . S
C135 C141 1.265 . S
H136 C141 0.950 1_565 S
H137 C145 0.949 . S
H138 C146 0.950 . S
H139 C147 0.951 . S
H140 C148 0.951 . S
C141 C135 1.265 . S
C141 H136 0.950 1_545 S
C141 C142 1.478 . S
C142 C141 1.478 . S
C142 C143 1.397 . S
C142 C159 1.394 1_545 S
C143 C142 1.397 . S
C143 C144 1.438 . S
C143 C148 1.429 . S
C144 C143 1.438 . S
C144 C145 1.428 . S
C144 C157 1.394 1_545 S
C145 H137 0.949 . S
C145 C144 1.428 . S
C145 C146 1.345 . S
C146 H138 0.950 . S
C146 C145 1.345 . S
C146 C147 1.424 . S
C147 H139 0.951 . S
C147 C146 1.424 . S
C147 C148 1.347 . S
C148 H140 0.951 . S
C148 C143 1.429 . S
C148 C147 1.347 . S
H149 C150 0.951 . S
C150 H149 0.951 . S
C150 C156 1.265 . S
H151 C156 0.950 1_545 S
H152 C160 0.949 1_655 S
H153 C161 0.950 1_655 S
H154 C162 0.951 . S
H155 C163 0.951 . S
C156 C150 1.265 . S
C156 H151 0.950 1_565 S
C156 C157 1.478 . S
C157 C144 1.394 1_565 S
C157 C156 1.478 . S
C157 C158 1.397 . S
C158 C157 1.397 . S
C158 C159 1.438 . S
C158 C163 1.429 . S
C159 C142 1.394 1_565 S
C159 C158 1.438 . S
C159 C160 1.428 . S
C160 H152 0.949 1_455 S
C160 C159 1.428 . S
C160 C161 1.345 . S
C161 H153 0.950 1_455 S
C161 C160 1.345 . S
C161 C162 1.424 . S
C162 H154 0.951 . S
C162 C161 1.424 . S
C162 C163 1.347 . S
C163 H155 0.951 . S
C163 C158 1.429 . S
C163 C162 1.347 . S
H164 C165 0.951 . S
C165 H164 0.951 . S
C165 C171 1.265 . S
H166 C171 0.950 . S
H167 C175 0.949 . S
H168 C176 0.950 . S
H169 C177 0.951 . S
H170 C178 0.951 . S
C171 C165 1.265 . S
C171 H166 0.950 . S
C171 C172 1.478 . S
C172 C171 1.478 . S
C172 C173 1.397 . S
C172 C189 1.394 . S
C173 C172 1.397 . S
C173 C174 1.438 . S
C173 C178 1.429 . S
C174 C173 1.438 . S
C174 C175 1.428 . S
C174 C187 1.394 . S
C175 H167 0.949 . S
C175 C174 1.428 . S
C175 C176 1.345 . S
C176 H168 0.950 . S
C176 C175 1.345 . S
C176 C177 1.424 . S
C177 H169 0.951 . S
C177 C176 1.424 . S
C177 C178 1.347 . S
C178 H170 0.951 . S
C178 C173 1.429 . S
C178 C177 1.347 . S
H179 C180 0.951 1_455 S
C180 H179 0.951 1_655 S
C180 C186 1.265 . S
H181 C186 0.950 . S
H182 C190 0.949 . S
H183 C191 0.950 . S
H184 C192 0.951 . S
H185 C193 0.951 . S
C186 C180 1.265 . S
C186 H181 0.950 . S
C186 C187 1.478 . S
C187 C174 1.394 . S
C187 C186 1.478 . S
C187 C188 1.397 . S
C188 C187 1.397 . S
C188 C189 1.438 . S
C188 C193 1.429 . S
C189 C172 1.394 . S
C189 C188 1.438 . S
C189 C190 1.428 . S
C190 H182 0.949 . S
C190 C189 1.428 . S
C190 C191 1.345 . S
C191 H183 0.950 . S
C191 C190 1.345 . S
C191 C192 1.424 . S
C192 H184 0.951 . S
C192 C191 1.424 . S
C192 C193 1.347 . S
C193 H185 0.951 . S
C193 C188 1.429 . S
C193 C192 1.347 . S
H194 C195 0.951 . S
C195 H194 0.951 . S
C195 C201 1.265 . S
H196 C201 0.950 . S
H197 C205 0.949 . S
H198 C206 0.950 . S
H199 C207 0.951 . S
H200 C208 0.951 . S
C201 C195 1.265 . S
C201 H196 0.950 . S
C201 C202 1.478 . S
C202 C201 1.478 . S
C202 C203 1.397 . S
C202 C219 1.394 1_545 S
C203 C202 1.397 . S
C203 C204 1.438 . S
C203 C208 1.429 . S
C204 C203 1.438 . S
C204 C205 1.428 . S
C204 C217 1.394 1_545 S
C205 H197 0.949 . S
C205 C204 1.428 . S
C205 C206 1.345 . S
C206 H198 0.950 . S
C206 C205 1.345 . S
C206 C207 1.424 . S
C207 H199 0.951 . S
C207 C206 1.424 . S
C207 C208 1.347 . S
C208 H200 0.951 . S
C208 C203 1.429 . S
C208 C207 1.347 . S
H209 C210 0.951 . S
C210 H209 0.951 . S
C210 C216 1.265 . S
H211 C216 0.950 . S
H212 C220 0.949 . S
H213 C221 0.950 . S
H214 C222 0.951 . S
H215 C223 0.951 . S
C216 C210 1.265 . S
C216 H211 0.950 . S
C216 C217 1.478 . S
C217 C204 1.394 1_565 S
C217 C216 1.478 . S
C217 C218 1.397 . S
C218 C217 1.397 . S
C218 C219 1.438 . S
C218 C223 1.429 . S
C219 C202 1.394 1_565 S
C219 C218 1.438 . S
C219 C220 1.428 . S
C220 H212 0.949 . S
C220 C219 1.428 . S
C220 C221 1.345 . S
C221 H213 0.950 . S
C221 C220 1.345 . S
C221 C222 1.424 . S
C222 H214 0.951 . S
C222 C221 1.424 . S
C222 C223 1.347 . S
C223 H215 0.951 . S
C223 C218 1.429 . S
C223 C222 1.347 . S
H224 C225 0.951 . S
C225 H224 0.951 . S
C225 C231 1.265 . S
H226 C231 0.950 . S
H227 C235 0.949 . S
H228 C236 0.950 . S
H229 C237 0.951 . S
H230 C238 0.951 . S
C231 C225 1.265 . S
C231 H226 0.950 . S
C231 C232 1.478 . S
C232 C231 1.478 . S
C232 C233 1.397 . S
C232 C249 1.394 . S
C233 C232 1.397 . S
C233 C234 1.438 . S
C233 C238 1.429 . S
C234 C233 1.438 . S
C234 C235 1.428 . S
C234 C247 1.394 . S
C235 H227 0.949 . S
C235 C234 1.428 . S
C235 C236 1.345 . S
C236 H228 0.950 . S
C236 C235 1.345 . S
C236 C237 1.424 . S
C237 H229 0.951 . S
C237 C236 1.424 . S
C237 C238 1.347 . S
C238 H230 0.951 . S
C238 C233 1.429 . S
C238 C237 1.347 . S
H239 C240 0.951 . S
C240 H239 0.951 . S
C240 C246 1.265 . S
H241 C246 0.950 . S
H242 C250 0.949 . S
H243 C251 0.950 . S
H244 C252 0.951 . S
H245 C253 0.951 . S
C246 C240 1.265 . S
C246 H241 0.950 . S
C246 C247 1.478 . S
C247 C234 1.394 . S
C247 C246 1.478 . S
C247 C248 1.397 . S
C248 C247 1.397 . S
C248 C249 1.438 . S
C248 C253 1.429 . S
C249 C232 1.394 . S
C249 C248 1.438 . S
C249 C250 1.428 . S
C250 H242 0.949 . S
C250 C249 1.428 . S
C250 C251 1.345 . S
C251 H243 0.950 . S
C251 C250 1.345 . S
C251 C252 1.424 . S
C252 H244 0.951 . S
C252 C251 1.424 . S
C252 C253 1.347 . S
C253 H245 0.951 . S
C253 C248 1.429 . S
C253 C252 1.347 . S
H254 C255 0.951 . S
C255 H254 0.951 . S
C255 C261 1.265 . S
H256 C261 0.950 . S
H257 C265 0.949 . S
H258 C266 0.950 . S
H259 C267 0.951 . S
H260 C268 0.951 . S
C261 C255 1.265 . S
C261 H256 0.950 . S
C261 C262 1.478 . S
C262 C261 1.478 . S
C262 C263 1.397 1_545 S
C262 C279 1.394 . S
C263 C262 1.397 1_565 S
C263 C264 1.438 . S
C263 C268 1.429 . S
C264 C263 1.438 . S
C264 C265 1.428 . S
C264 C277 1.394 . S
C265 H257 0.949 . S
C265 C264 1.428 . S
C265 C266 1.345 . S
C266 H258 0.950 . S
C266 C265 1.345 . S
C266 C267 1.424 . S
C267 H259 0.951 . S
C267 C266 1.424 . S
C267 C268 1.347 . S
C268 H260 0.951 . S
C268 C263 1.429 . S
C268 C267 1.347 . S
H269 C270 0.951 . S
C270 H269 0.951 . S
C270 C276 1.265 . S
H271 C276 0.950 1_455 S
H272 C280 0.949 . S
H273 C281 0.950 . S
H274 C282 0.951 . S
H275 C283 0.951 . S
C276 C270 1.265 . S
C276 H271 0.950 1_655 S
C276 C277 1.478 . S
C277 C264 1.394 . S
C277 C276 1.478 . S
C277 C278 1.397 1_565 S
C278 C277 1.397 1_545 S
C278 C279 1.438 . S
C278 C283 1.429 . S
C279 C262 1.394 . S
C279 C278 1.438 . S
C279 C280 1.428 . S
C280 H272 0.949 . S
C280 C279 1.428 . S
C280 C281 1.345 . S
C281 H273 0.950 . S
C281 C280 1.345 . S
C281 C282 1.424 . S
C282 H274 0.951 . S
C282 C281 1.424 . S
C282 C283 1.347 . S
C283 H275 0.951 . S
C283 C278 1.429 . S
C283 C282 1.347 . S
H284 C285 0.951 . S
C285 H284 0.951 . S
C285 C291 1.265 . S
H286 C291 0.950 . S
H287 C295 0.949 . S
H288 C296 0.950 . S
H289 C297 0.951 . S
H290 C298 0.951 . S
C291 C285 1.265 . S
C291 H286 0.950 . S
C291 C292 1.478 . S
C292 C291 1.478 . S
C292 C293 1.397 . S
C292 C309 1.394 . S
C293 C292 1.397 . S
C293 C294 1.438 . S
C293 C298 1.429 . S
C294 C293 1.438 . S
C294 C295 1.428 . S
C294 C307 1.394 . S
C295 H287 0.949 . S
C295 C294 1.428 . S
C295 C296 1.345 . S
C296 H288 0.950 . S
C296 C295 1.345 . S
C296 C297 1.424 . S
C297 H289 0.951 . S
C297 C296 1.424 . S
C297 C298 1.347 . S
C298 H290 0.951 . S
C298 C293 1.429 . S
C298 C297 1.347 . S
H299 C300 0.951 . S
C300 H299 0.951 . S
C300 C306 1.265 . S
H301 C306 0.950 1_655 S
H302 C310 0.949 . S
H303 C311 0.950 . S
H304 C312 0.951 . S
H305 C313 0.951 . S
C306 C300 1.265 . S
C306 H301 0.950 1_455 S
C306 C307 1.478 . S
C307 C294 1.394 . S
C307 C306 1.478 . S
C307 C308 1.397 . S
C308 C307 1.397 . S
C308 C309 1.438 . S
C308 C313 1.429 . S
C309 C292 1.394 . S
C309 C308 1.438 . S
C309 C310 1.428 . S
C310 H302 0.949 . S
C310 C309 1.428 . S
C310 C311 1.345 . S
C311 H303 0.950 . S
C311 C310 1.345 . S
C311 C312 1.424 . S
C312 H304 0.951 . S
C312 C311 1.424 . S
C312 C313 1.347 . S
C313 H305 0.951 . S
C313 C308 1.429 . S
C313 C312 1.347 . S
H314 C315 0.951 . S
C315 H314 0.951 . S
C315 C321 1.265 . S
H316 C321 0.950 . S
H317 C325 0.949 . S
H318 C326 0.950 . S
H319 C327 0.951 . S
H320 C328 0.951 . S
C321 C315 1.265 . S
C321 H316 0.950 . S
C321 C322 1.478 . S
C322 C321 1.478 . S
C322 C323 1.397 . S
C322 C339 1.394 1_565 S
C323 C322 1.397 . S
C323 C324 1.438 . S
C323 C328 1.429 . S
C324 C323 1.438 . S
C324 C325 1.428 . S
C324 C337 1.394 1_565 S
C325 H317 0.949 . S
C325 C324 1.428 . S
C325 C326 1.345 . S
C326 H318 0.950 . S
C326 C325 1.345 . S
C326 C327 1.424 . S
C327 H319 0.951 . S
C327 C326 1.424 . S
C327 C328 1.347 . S
C328 H320 0.951 . S
C328 C323 1.429 . S
C328 C327 1.347 . S
H329 C330 0.951 . S
C330 H329 0.951 . S
C330 C336 1.265 . S
H331 C336 0.950 1_565 S
H332 C340 0.949 . S
H333 C341 0.950 . S
H334 C342 0.951 . S
H335 C343 0.951 . S
C336 C330 1.265 . S
C336 H331 0.950 1_545 S
C336 C337 1.478 . S
C337 C324 1.394 1_545 S
C337 C336 1.478 . S
C337 C338 1.397 . S
C338 C337 1.397 . S
C338 C339 1.438 . S
C338 C343 1.429 . S
C339 C322 1.394 1_545 S
C339 C338 1.438 . S
C339 C340 1.428 . S
C340 H332 0.949 . S
C340 C339 1.428 . S
C340 C341 1.345 . S
C341 H333 0.950 . S
C341 C340 1.345 . S
C341 C342 1.424 . S
C342 H334 0.951 . S
C342 C341 1.424 . S
C342 C343 1.347 . S
C343 H335 0.951 . S
C343 C338 1.429 . S
C343 C342 1.347 . S
H344 C345 0.951 . S
C345 H344 0.951 . S
C345 C351 1.265 . S
H346 C351 0.950 1_655 S
H347 C355 0.949 . S
H348 C356 0.950 . S
H349 C357 0.951 . S
H350 C358 0.951 . S
C351 C345 1.265 . S
C351 H346 0.950 1_455 S
C351 C352 1.478 . S
C352 C351 1.478 . S
C352 C353 1.397 1_455 S
C352 C369 1.394 . S
C353 C352 1.397 1_655 S
C353 C354 1.438 . S
C353 C358 1.429 . S
C354 C353 1.438 . S
C354 C355 1.428 . S
C354 C367 1.394 . S
C355 H347 0.949 . S
C355 C354 1.428 . S
C355 C356 1.345 . S
C356 H348 0.950 . S
C356 C355 1.345 . S
C356 C357 1.424 . S
C357 H349 0.951 . S
C357 C356 1.424 . S
C357 C358 1.347 . S
C358 H350 0.951 . S
C358 C353 1.429 . S
C358 C357 1.347 . S
H359 C360 0.951 . S
C360 H359 0.951 . S
C360 C366 1.265 . S
H361 C366 0.950 1_455 S
H362 C370 0.949 . S
H363 C371 0.950 . S
H364 C372 0.951 . S
H365 C373 0.951 . S
C366 C360 1.265 . S
C366 H361 0.950 1_655 S
C366 C367 1.478 . S
C367 C354 1.394 . S
C367 C366 1.478 . S
C367 C368 1.397 1_655 S
C368 C367 1.397 1_455 S
C368 C369 1.438 . S
C368 C373 1.429 . S
C369 C352 1.394 . S
C369 C368 1.438 . S
C369 C370 1.428 . S
C370 H362 0.949 . S
C370 C369 1.428 . S
C370 C371 1.345 . S
C371 H363 0.950 . S
C371 C370 1.345 . S
C371 C372 1.424 . S
C372 H364 0.951 . S
C372 C371 1.424 . S
C372 C373 1.347 . S
C373 H365 0.951 . S
C373 C368 1.429 . S
C373 C372 1.347 . S
H374 C375 0.951 . S
C375 H374 0.951 . S
C375 C381 1.265 . S
H376 C381 0.950 . S
H377 C385 0.949 . S
H378 C386 0.950 . S
H379 C387 0.951 . S
H380 C388 0.951 . S
C381 C375 1.265 . S
C381 H376 0.950 . S
C381 C382 1.478 . S
C382 C381 1.478 . S
C382 C383 1.397 . S
C382 C399 1.394 1_565 S
C383 C382 1.397 . S
C383 C384 1.438 . S
C383 C388 1.429 . S
C384 C383 1.438 . S
C384 C385 1.428 . S
C384 C397 1.394 1_565 S
C385 H377 0.949 . S
C385 C384 1.428 . S
C385 C386 1.345 . S
C386 H378 0.950 . S
C386 C385 1.345 . S
C386 C387 1.424 . S
C387 H379 0.951 . S
C387 C386 1.424 . S
C387 C388 1.347 . S
C388 H380 0.951 . S
C388 C383 1.429 . S
C388 C387 1.347 . S
H389 C390 0.951 . S
C390 H389 0.951 . S
C390 C396 1.265 . S
H391 C396 0.950 . S
H392 C400 0.949 . S
H393 C401 0.950 . S
H394 C402 0.951 . S
H395 C403 0.951 . S
C396 C390 1.265 . S
C396 H391 0.950 . S
C396 C397 1.478 . S
C397 C384 1.394 1_545 S
C397 C396 1.478 . S
C397 C398 1.397 . S
C398 C397 1.397 . S
C398 C399 1.438 . S
C398 C403 1.429 . S
C399 C382 1.394 1_545 S
C399 C398 1.438 . S
C399 C400 1.428 . S
C400 H392 0.949 . S
C400 C399 1.428 . S
C400 C401 1.345 . S
C401 H393 0.950 . S
C401 C400 1.345 . S
C401 C402 1.424 . S
C402 H394 0.951 . S
C402 C401 1.424 . S
C402 C403 1.347 . S
C403 H395 0.951 . S
C403 C398 1.429 . S
C403 C402 1.347 . S
H404 C405 0.951 . S
C405 H404 0.951 . S
C405 C411 1.265 . S
H406 C411 0.950 . S
H407 C415 0.949 . S
H408 C416 0.950 . S
H409 C417 0.951 . S
H410 C418 0.951 1_554 S
C411 C405 1.265 . S
C411 H406 0.950 . S
C411 C412 1.478 . S
C412 C411 1.478 . S
C412 C413 1.397 1_554 S
C412 C429 1.394 . S
C413 C412 1.397 1_556 S
C413 C414 1.438 . S
C413 C418 1.429 . S
C414 C413 1.438 . S
C414 C415 1.428 . S
C414 C427 1.394 . S
C415 H407 0.949 . S
C415 C414 1.428 . S
C415 C416 1.345 . S
C416 H408 0.950 . S
C416 C415 1.345 . S
C416 C417 1.424 . S
C417 H409 0.951 . S
C417 C416 1.424 . S
C417 C418 1.347 . S
C418 H410 0.951 1_556 S
C418 C413 1.429 . S
C418 C417 1.347 . S
H419 C420 0.951 . S
C420 H419 0.951 . S
C420 C426 1.265 . S
H421 C426 0.950 . S
H422 C430 0.949 . S
H423 C431 0.950 . S
H424 C432 0.951 . S
H425 C433 0.951 1_556 S
C426 C420 1.265 . S
C426 H421 0.950 . S
C426 C427 1.478 . S
C427 C414 1.394 . S
C427 C426 1.478 . S
C427 C428 1.397 1_556 S
C428 C427 1.397 1_554 S
C428 C429 1.438 . S
C428 C433 1.429 . S
C429 C412 1.394 . S
C429 C428 1.438 . S
C429 C430 1.428 . S
C430 H422 0.949 . S
C430 C429 1.428 . S
C430 C431 1.345 . S
C431 H423 0.950 . S
C431 C430 1.345 . S
C431 C432 1.424 . S
C432 H424 0.951 . S
C432 C431 1.424 . S
C432 C433 1.347 . S
C433 H425 0.951 1_554 S
C433 C428 1.429 . S
C433 C432 1.347 . S
H434 C435 0.951 . S
C435 H434 0.951 . S
C435 C441 1.265 . S
H436 C441 0.950 . S
H437 C445 0.949 . S
H438 C446 0.950 . S
H439 C447 0.951 . S
H440 C448 0.951 1_556 S
C441 C435 1.265 . S
C441 H436 0.950 . S
C441 C442 1.478 . S
C442 C441 1.478 . S
C442 C443 1.397 1_556 S
C442 C459 1.394 1_465 S
C443 C442 1.397 1_554 S
C443 C444 1.438 . S
C443 C448 1.429 . S
C444 C443 1.438 . S
C444 C445 1.428 . S
C444 C457 1.394 1_465 S
C445 H437 0.949 . S
C445 C444 1.428 . S
C445 C446 1.345 . S
C446 H438 0.950 . S
C446 C445 1.345 . S
C446 C447 1.424 . S
C447 H439 0.951 . S
C447 C446 1.424 . S
C447 C448 1.347 . S
C448 H440 0.951 1_554 S
C448 C443 1.429 . S
C448 C447 1.347 . S
H449 C450 0.951 . S
C450 H449 0.951 . S
C450 C456 1.265 . S
H451 C456 0.950 . S
H452 C460 0.949 . S
H453 C461 0.950 . S
H454 C462 0.951 . S
H455 C463 0.951 1_554 S
C456 C450 1.265 . S
C456 H451 0.950 . S
C456 C457 1.478 . S
C457 C444 1.394 1_645 S
C457 C456 1.478 . S
C457 C458 1.397 1_554 S
C458 C457 1.397 1_556 S
C458 C459 1.438 . S
C458 C463 1.429 . S
C459 C442 1.394 1_645 S
C459 C458 1.438 . S
C459 C460 1.428 . S
C460 H452 0.949 . S
C460 C459 1.428 . S
C460 C461 1.345 . S
C461 H453 0.950 . S
C461 C460 1.345 . S
C461 C462 1.424 . S
C462 H454 0.951 . S
C462 C461 1.424 . S
C462 C463 1.347 . S
C463 H455 0.951 1_556 S
C463 C458 1.429 . S
C463 C462 1.347 . S
H464 C465 0.951 . S
C465 H464 0.951 . S
C465 C471 1.265 . S
H466 C471 0.950 . S
H467 C475 0.949 . S
H468 C476 0.950 . S
H469 C477 0.951 . S
H470 C478 0.951 . S
C471 C465 1.265 . S
C471 H466 0.950 . S
C471 C472 1.478 . S
C472 C471 1.478 . S
C472 C473 1.397 . S
C472 C489 1.394 . S
C473 C472 1.397 . S
C473 C474 1.438 . S
C473 C478 1.429 . S
C474 C473 1.438 . S
C474 C475 1.428 . S
C474 C487 1.394 . S
C475 H467 0.949 . S
C475 C474 1.428 . S
C475 C476 1.345 . S
C476 H468 0.950 . S
C476 C475 1.345 . S
C476 C477 1.424 . S
C477 H469 0.951 . S
C477 C476 1.424 . S
C477 C478 1.347 . S
C478 H470 0.951 . S
C478 C473 1.429 . S
C478 C477 1.347 . S
H479 C480 0.951 . S
C480 H479 0.951 . S
C480 C486 1.265 . S
H481 C486 0.950 . S
H482 C490 0.949 . S
H483 C491 0.950 . S
H484 C492 0.951 . S
H485 C493 0.951 . S
C486 C480 1.265 . S
C486 H481 0.950 . S
C486 C487 1.478 . S
C487 C474 1.394 . S
C487 C486 1.478 . S
C487 C488 1.397 . S
C488 C487 1.397 . S
C488 C489 1.438 . S
C488 C493 1.429 . S
C489 C472 1.394 . S
C489 C488 1.438 . S
C489 C490 1.428 . S
C490 H482 0.949 . S
C490 C489 1.428 . S
C490 C491 1.345 . S
C491 H483 0.950 . S
C491 C490 1.345 . S
C491 C492 1.424 . S
C492 H484 0.951 . S
C492 C491 1.424 . S
C492 C493 1.347 . S
C493 H485 0.951 . S
C493 C488 1.429 . S
C493 C492 1.347 . S
H494 C495 0.951 . S
C495 H494 0.951 . S
C495 C501 1.265 . S
H496 C501 0.950 . S
H497 C505 0.949 . S
H498 C506 0.950 . S
H499 C507 0.951 . S
H500 C508 0.951 . S
C501 C495 1.265 . S
C501 H496 0.950 . S
C501 C502 1.478 . S
C502 C501 1.478 . S
C502 C503 1.397 . S
C502 C519 1.394 . S
C503 C502 1.397 . S
C503 C504 1.438 . S
C503 C508 1.429 . S
C504 C503 1.438 . S
C504 C505 1.428 . S
C504 C517 1.394 . S
C505 H497 0.949 . S
C505 C504 1.428 . S
C505 C506 1.345 . S
C506 H498 0.950 . S
C506 C505 1.345 . S
C506 C507 1.424 . S
C507 H499 0.951 . S
C507 C506 1.424 . S
C507 C508 1.347 . S
C508 H500 0.951 . S
C508 C503 1.429 . S
C508 C507 1.347 . S
H509 C510 0.951 . S
C510 H509 0.951 . S
C510 C516 1.265 . S
H511 C516 0.950 . S
H512 C520 0.949 . S
H513 C521 0.950 . S
H514 C522 0.951 . S
H515 C523 0.951 . S
C516 C510 1.265 . S
C516 H511 0.950 . S
C516 C517 1.478 . S
C517 C504 1.394 . S
C517 C516 1.478 . S
C517 C518 1.397 . S
C518 C517 1.397 . S
C518 C519 1.438 . S
C518 C523 1.429 . S
C519 C502 1.394 . S
C519 C518 1.438 . S
C519 C520 1.428 . S
C520 H512 0.949 . S
C520 C519 1.428 . S
C520 C521 1.345 . S
C521 H513 0.950 . S
C521 C520 1.345 . S
C521 C522 1.424 . S
C522 H514 0.951 . S
C522 C521 1.424 . S
C522 C523 1.347 . S
C523 H515 0.951 . S
C523 C518 1.429 . S
C523 C522 1.347 . S
H524 C525 0.951 . S
C525 H524 0.951 . S
C525 C531 1.265 . S
H526 C531 0.950 . S
H527 C535 0.949 . S
H528 C536 0.950 . S
H529 C537 0.951 . S
H530 C538 0.951 . S
C531 C525 1.265 . S
C531 H526 0.950 . S
C531 C532 1.478 . S
C532 C531 1.478 . S
C532 C533 1.397 . S
C532 C549 1.394 . S
C533 C532 1.397 . S
C533 C534 1.438 . S
C533 C538 1.429 . S
C534 C533 1.438 . S
C534 C535 1.428 . S
C534 C547 1.394 . S
C535 H527 0.949 . S
C535 C534 1.428 . S
C535 C536 1.345 . S
C536 H528 0.950 . S
C536 C535 1.345 . S
C536 C537 1.424 . S
C537 H529 0.951 . S
C537 C536 1.424 . S
C537 C538 1.347 . S
C538 H530 0.951 . S
C538 C533 1.429 . S
C538 C537 1.347 . S
H539 C540 0.951 . S
C540 H539 0.951 . S
C540 C546 1.265 . S
H541 C546 0.950 . S
H542 C550 0.949 . S
H543 C551 0.950 . S
H544 C552 0.951 . S
H545 C553 0.951 . S
C546 C540 1.265 . S
C546 H541 0.950 . S
C546 C547 1.478 . S
C547 C534 1.394 . S
C547 C546 1.478 . S
C547 C548 1.397 . S
C548 C547 1.397 . S
C548 C549 1.438 . S
C548 C553 1.429 . S
C549 C532 1.394 . S
C549 C548 1.438 . S
C549 C550 1.428 . S
C550 H542 0.949 . S
C550 C549 1.428 . S
C550 C551 1.345 . S
C551 H543 0.950 . S
C551 C550 1.345 . S
C551 C552 1.424 . S
C552 H544 0.951 . S
C552 C551 1.424 . S
C552 C553 1.347 . S
C553 H545 0.951 . S
C553 C548 1.429 . S
C553 C552 1.347 . S
H554 C555 0.951 . S
C555 H554 0.951 . S
C555 C561 1.265 . S
H556 C561 0.950 . S
H557 C565 0.949 . S
H558 C566 0.950 . S
H559 C567 0.951 . S
H560 C568 0.951 . S
C561 C555 1.265 . S
C561 H556 0.950 . S
C561 C562 1.478 . S
C562 C561 1.478 . S
C562 C563 1.397 . S
C562 C579 1.394 . S
C563 C562 1.397 . S
C563 C564 1.438 . S
C563 C568 1.429 . S
C564 C563 1.438 . S
C564 C565 1.428 . S
C564 C577 1.394 . S
C565 H557 0.949 . S
C565 C564 1.428 . S
C565 C566 1.345 . S
C566 H558 0.950 . S
C566 C565 1.345 . S
C566 C567 1.424 . S
C567 H559 0.951 . S
C567 C566 1.424 . S
C567 C568 1.347 . S
C568 H560 0.951 . S
C568 C563 1.429 . S
C568 C567 1.347 . S
H569 C570 0.951 . S
C570 H569 0.951 . S
C570 C576 1.265 . S
H571 C576 0.950 . S
H572 C580 0.949 . S
H573 C581 0.950 . S
H574 C582 0.951 . S
H575 C583 0.951 . S
C576 C570 1.265 . S
C576 H571 0.950 . S
C576 C577 1.478 . S
C577 C564 1.394 . S
C577 C576 1.478 . S
C577 C578 1.397 . S
C578 C577 1.397 . S
C578 C579 1.438 . S
C578 C583 1.429 . S
C579 C562 1.394 . S
C579 C578 1.438 . S
C579 C580 1.428 . S
C580 H572 0.949 . S
C580 C579 1.428 . S
C580 C581 1.345 . S
C581 H573 0.950 . S
C581 C580 1.345 . S
C581 C582 1.424 . S
C582 H574 0.951 . S
C582 C581 1.424 . S
C582 C583 1.347 . S
C583 H575 0.951 . S
C583 C578 1.429 . S
C583 C582 1.347 . S
C105 C10 1.542 . S
C120 C29 1.547 . S
C135 C44 1.544 1_455 S
C150 C23 1.545 . S
C165 C30 1.552 . S
C180 C5 1.548 1_655 S
C195 C49 1.544 . S
C210 C18 1.549 . S
C225 C83 1.549 . S
C240 C56 1.544 . S
C255 C75 1.543 . S
C270 C96 1.549 1_655 S
C285 C88 1.543 . S
C300 C55 1.548 1_455 S
C315 C101 1.546 . S
C330 C70 1.544 . S
C345 C3 1.508 . S
C360 C57 1.508 . S
C375 C16 1.505 . S
C390 C68 1.505 . S
C405 C31 1.506 . S
C420 C81 1.506 . S
C435 C94 1.500 . S
C450 C42 1.500 . S
C465 C4 1.509 . S
C480 C17 1.512 . S
C495 C43 1.510 . S
C510 C36 1.511 . S
C525 C69 1.511 . S
C540 C62 1.511 . S
C555 C82 1.510 . S
C570 C95 1.511 . S
